drugbank_target|Q9X180 Sensor histidine kinase (DB02731)
 OpenBabel12092120463D

  0  0  0     0  0            999 V3000
M  V30 BEGIN CTAB
M  V30 COUNTS 12643 12747 0 0 0
M  V30 BEGIN ATOM
M  V30 1 H -0.908 1.98254 -0.117106 0
M  V30 2 N 0 1.576 0 0
M  V30 3 C 0.933 2.03868 1.02534 0
M  V30 4 C 1.911 0.928543 1.3348 0
M  V30 5 O 3.095 1.19667 1.45644 0
M  V30 6 C 0.222 2.43627 2.35294 0
M  V30 7 C -0.732 3.65373 2.2001 0
M  V30 8 S 0.101 5.13292 1.52614 0
M  V30 9 C 1.257 5.56322 2.86805 0
M  V30 10 H 1.49 2.90518 0.631377 0
M  V30 11 H -0.977 1.52953 0.210867 0
M  V30 12 H 0.981 2.67203 3.11629 0
M  V30 13 H -0.358 1.57376 2.7183 0
M  V30 14 H -1.165 3.90944 3.18086 0
M  V30 15 H -1.563 3.418 1.51819 0
M  V30 16 H 0.729 5.58782 3.83104 0
M  V30 17 H 1.672 6.56266 2.65933 0
M  V30 18 H 2.08 4.83886 2.90714 0
M  V30 19 N 1.4781 -0.272755 1.55222 0
M  V30 20 C 2.7241 -1.00581 1.761 0
M  V30 21 C 3.0571 -1.85932 0.560625 0
M  V30 22 O 2.3321 -1.89416 -0.441801 0
M  V30 23 C 2.6151 -1.88816 3.06628 0
M  V30 24 C 2.4681 -1.06457 4.37021 0
M  V30 25 C 3.7871 -2.8752 3.33197 0
M  V30 26 H 0.9061 -0.364244 0.640699 0
M  V30 27 H 3.5481 -0.278189 1.87952 0
M  V30 28 H 1.6981 -2.50856 2.96654 0
M  V30 29 H 3.3701 -0.464863 4.58952 0
M  V30 30 H 1.6131 -0.368043 4.32236 0
M  V30 31 H 2.2841 -1.71514 5.24678 0
M  V30 32 H 4.7601 -2.35615 3.42965 0
M  V30 33 H 3.6361 -3.46399 4.25792 0
M  V30 34 H 3.8971 -3.62657 2.52849 0
M  V30 35 N 2.9562 -1.48159 -0.537278 0
M  V30 36 C 4.3672 -1.49429 -1.11928 0
M  V30 37 C 4.7182 -0.26 -1.9447 0
M  V30 38 O 3.8432 0.633489 -2.0692 0
M  V30 39 C 4.4382 -2.70758 -2.03656 0
M  V30 40 C 2.9972 -2.74923 -2.57088 0
M  V30 41 C 2.1442 -2.42835 -1.3389 0
M  V30 42 H 5.0952 -1.55381 -0.322886 0
M  V30 43 H 5.1162 -2.48861 -2.87834 0
M  V30 44 H 4.6282 -3.60575 -1.43553 0
M  V30 45 H 2.7292 -1.89296 -3.20933 0
M  V30 46 H 2.8422 -3.76157 -2.9672 0
M  V30 47 H 1.2062 -1.93836 -1.65226 0
M  V30 48 H 1.9892 -3.34884 -0.755504 0
M  V30 49 N 4.4343 0.785586 -1.36625 0
M  V30 50 C 5.3443 1.92964 -1.33425 0
M  V30 51 C 6.3603 1.72394 -0.235851 0
M  V30 52 O 7.5363 1.95866 -0.468878 0
M  V30 53 C 4.6013 3.27884 -1.12662 0
M  V30 54 C 3.6623 3.61204 -2.32013 0
M  V30 55 C 2.8953 4.89687 -2.12231 0
M  V30 56 O 3.1183 5.59704 -1.09945 0
M  V30 57 O 2.0523 5.21752 -3.00098 0
M  V30 58 H 5.8783 1.98613 -2.29753 0
M  V30 59 H 3.4633 0.926384 -1.17211 0
M  V30 60 H 5.3453 4.08614 -1.03016 0
M  V30 61 H 4.0203 3.23118 -0.193991 0
M  V30 62 H 2.9273 2.80765 -2.47228 0
M  V30 63 H 4.2603 3.70698 -3.23796 0
M  V30 64 N 5.9124 1.20967 1.01018 0
M  V30 65 C 7.3284 0.965905 1.27053 0
M  V30 66 C 7.5284 -0.350785 1.98423 0
M  V30 67 O 6.5844 -1.07773 2.28344 0
M  V30 68 C 7.8974 2.15294 2.09926 0
M  V30 69 C 9.4454 2.19463 2.23171 0
M  V30 70 C 9.9204 3.3767 3.09424 0
M  V30 71 N 11.4114 3.37724 3.17012 0
M  V30 72 C 12.1464 4.25837 3.83993 0
M  V30 73 N 11.6424 5.24138 4.53047 0
M  V30 74 N 13.4354 4.1366 3.80581 0
M  V30 75 H 5.5864 2.0565 0.531194 0
M  V30 76 H 7.8494 0.90024 0.297106 0
M  V30 77 H 7.5554 3.10684 1.64828 0
M  V30 78 H 7.4294 2.13923 3.10672 0
M  V30 79 H 9.8164 1.24632 2.6749 0
M  V30 80 H 9.8974 2.2488 1.21912 0
M  V30 81 H 9.5414 4.32791 2.65808 0
M  V30 82 H 9.4714 3.29491 4.10784 0
M  V30 83 H 11.9624 2.6658 2.6785 0
M  V30 84 H 12.2754 5.87684 5.01844 0
M  V30 85 H 10.6204 5.28068 4.5185 0
M  V30 86 H 13.8114 3.36127 3.25785 0
M  V30 87 H 13.9844 4.82538 4.32505 0
M  V30 88 N 7.3905 -1.2043 1.01659 0
M  V30 89 C 8.3205 -2.25466 0.607226 0
M  V30 90 C 9.3015 -1.65853 -0.377716 0
M  V30 91 O 10.4865 -1.92409 -0.263149 0
M  V30 92 C 7.6165 -3.47256 -0.0552949 0
M  V30 93 C 6.5705 -4.19462 0.850632 0
M  V30 94 C 5.8965 -5.34673 0.0538859 0
M  V30 95 C 7.1965 -4.75603 2.15868 0
M  V30 96 H 8.8905 -2.59962 1.48526 0
M  V30 97 H 6.4365 -1.2496 0.715605 0
M  V30 98 H 8.3895 -4.19917 -0.353233 0
M  V30 99 H 7.1135 -3.11924 -0.968045 0
M  V30 100 H 5.7725 -3.48667 1.13257 0
M  V30 101 H 5.4205 -4.95585 -0.860514 0
M  V30 102 H 5.1205 -5.83913 0.657192 0
M  V30 103 H 6.6445 -6.10138 -0.237598 0
M  V30 104 H 8.0585 -5.40083 1.92311 0
M  V30 105 H 6.4555 -5.3528 2.71284 0
M  V30 106 H 7.5255 -3.94346 2.82169 0
M  V30 107 N 8.8686 -0.792821 -1.36206 0
M  V30 108 C 9.8156 -0.191653 -2.30003 0
M  V30 109 C 10.7856 0.666453 -1.52143 0
M  V30 110 O 11.9706 0.61442 -1.80636 0
M  V30 111 C 9.1106 0.664848 -3.38635 0
M  V30 112 C 8.2236 -0.212175 -4.31479 0
M  V30 113 C 7.3586 0.651022 -5.27196 0
M  V30 114 C 6.3976 -0.227247 -6.11678 0
M  V30 115 N 5.5346 0.595127 -6.99573 0
M  V30 116 H 10.3746 -0.996978 -2.80828 0
M  V30 117 H 7.9116 -0.503206 -1.38225 0
M  V30 118 H 9.8696 1.17645 -4.00269 0
M  V30 119 H 8.4996 1.43557 -2.89122 0
M  V30 120 H 7.5516 -0.841777 -3.70969 0
M  V30 121 H 8.8636 -0.888751 -4.90818 0
M  V30 122 H 8.0176 1.2283 -5.94136 0
M  V30 123 H 6.7566 1.36121 -4.68319 0
M  V30 124 H 5.7616 -0.816904 -5.43697 0
M  V30 125 H 6.9866 -0.93509 -6.72631 0
M  V30 126 H 4.9326 1.28955 -6.432 0
M  V30 127 H 4.8496 -0.0236952 -7.55996 0
M  V30 128 H 6.1176 1.15613 -7.70879 0
M  V30 129 N 10.3467 1.47872 -0.545128 0
M  V30 130 C 11.2787 2.27869 0.246621 0
M  V30 131 C 12.2917 1.36282 0.890561 0
M  V30 132 O 13.4807 1.61207 0.766449 0
M  V30 133 C 10.5807 3.10159 1.36582 0
M  V30 134 C 9.7537 4.29627 0.820954 0
M  V30 135 C 8.8127 4.93607 1.82314 0
M  V30 136 O 7.8387 5.52366 1.37406 0
M  V30 137 N 9.0407 4.87211 3.15603 0
M  V30 138 H 11.8057 2.96459 -0.439539 0
M  V30 139 H 9.3667 1.57367 -0.380421 0
M  V30 140 H 11.3587 3.49829 2.03474 0
M  V30 141 H 9.9287 2.43891 1.9554 0
M  V30 142 H 9.1487 3.94192 -0.0244032 0
M  V30 143 H 10.4367 5.06928 0.436063 0
M  V30 144 H 9.8347 4.40651 3.54744 0
M  V30 145 H 8.3917 5.30937 3.78087 0
M  V30 146 N 11.8248 0.280983 1.55075 0
M  V30 147 C 13.0738 -0.334784 1.98902 0
M  V30 148 C 13.3868 -1.56534 1.17288 0
M  V30 149 O 14.5928 -2.25443 1.51287 0
M  V30 150 C 13.0488 -0.646994 3.54037 0
M  V30 151 C 12.6568 0.564085 4.44435 0
M  V30 152 C 14.4008 -1.22506 4.06439 0
M  V30 153 C 12.3078 0.226137 5.90967 0
M  V30 154 H 11.2378 -0.128866 0.742906 0
M  V30 155 H 13.8888 0.386556 1.79382 0
M  V30 156 H 12.2708 -1.42739 3.6938 0
M  V30 157 H 13.4448 1.34082 4.40861 0
M  V30 158 H 11.7598 1.0594 4.02698 0
M  V30 159 H 14.3568 -1.49182 5.13468 0
M  V30 160 H 14.6998 -2.16085 3.55827 0
M  V30 161 H 15.2328 -0.50682 3.94558 0
M  V30 162 H 11.9718 1.12996 6.45687 0
M  V30 163 H 11.4918 -0.513717 5.97596 0
M  V30 164 H 13.1708 -0.179539 6.46751 0
M  V30 165 N 13.3029 -1.57598 0.00835791 0
M  V30 166 C 14.2499 -2.08945 -0.980346 0
M  V30 167 C 15.2199 -0.986738 -1.33614 0
M  V30 168 O 16.4049 -1.25968 -1.43306 0
M  V30 169 C 13.5449 -2.60425 -2.26435 0
M  V30 170 C 12.6579 -3.84628 -1.96685 0
M  V30 171 C 11.7929 -4.24579 -3.19228 0
M  V30 172 C 10.8319 -5.41596 -2.85202 0
M  V30 173 N 9.9689 -5.768 -4.00307 0
M  V30 174 H 14.8089 -2.93148 -0.535551 0
M  V30 175 H 12.3459 -1.44912 -0.252776 0
M  V30 176 H 14.3039 -2.88354 -3.01509 0
M  V30 177 H 12.9339 -1.79083 -2.68568 0
M  V30 178 H 11.9859 -3.63556 -1.11942 0
M  V30 179 H 13.2979 -4.69796 -1.67611 0
M  V30 180 H 12.4519 -4.53834 -4.02641 0
M  V30 181 H 11.1909 -3.38137 -3.51447 0
M  V30 182 H 10.1959 -5.12056 -2.00198 0
M  V30 183 H 11.4209 -6.29721 -2.54222 0
M  V30 184 H 9.3669 -4.93316 -4.32407 0
M  V30 185 H 9.2839 -6.5656 -3.74786 0
M  V30 186 H 10.5519 -6.10652 -4.84484 0
M  V30 187 N 14.781 0.264519 -1.55364 0
M  V30 188 C 16.029 0.993021 -1.76021 0
M  V30 189 C 16.35 1.86511 -0.569099 0
M  V30 190 O 15.62 1.91438 0.415735 0
M  V30 191 H 14.2 0.369639 -0.649135 0
M  V30 192 H 16.862 0.286707 -1.9278 0
M  V30 193 H 15.958 1.62502 -2.66457 0
M  V30 194 N 16.2591 1.48442 0.529413 0
M  V30 195 C 17.5081 1.55742 1.28169 0
M  V30 196 C 17.8211 0.236511 1.94165 0
M  V30 197 O 19.0271 0.187761 2.7085 0
M  V30 198 C 17.4831 2.74667 2.32564 0
M  V30 199 C 17.0911 4.13402 1.72636 0
M  V30 200 C 18.8351 2.9128 3.08798 0
M  V30 201 C 16.7421 5.23587 2.74975 0
M  V30 202 H 15.6721 0.579796 0.48203 0
M  V30 203 H 18.3231 1.74776 0.559056 0
M  V30 204 H 16.7051 2.49067 3.07866 0
M  V30 205 H 17.8791 4.49022 1.03519 0
M  V30 206 H 16.1941 4.0191 1.08892 0
M  V30 207 H 18.7911 3.70767 3.85274 0
M  V30 208 H 19.1341 2.00757 3.64695 0
M  V30 209 H 19.6671 3.16782 2.40611 0
M  V30 210 H 16.4061 6.16076 2.23897 0
M  V30 211 H 15.9261 4.92454 3.42417 0
M  V30 212 H 17.6051 5.51724 3.37949 0
M  V30 213 N 17.7372 -0.778329 1.37039 0
M  V30 214 C 19.1532 -1.07796 1.17695 0
M  V30 215 C 19.3532 -2.01498 0.00860115 0
M  V30 216 O 18.4092 -2.43901 -0.653352 0
M  V30 217 C 19.7222 -1.68178 2.49272 0
M  V30 218 C 21.2702 -1.80467 2.55735 0
M  V30 219 C 21.7452 -2.44263 3.87427 0
M  V30 220 N 23.2362 -2.51721 3.88833 0
M  V30 221 C 23.9712 -3.01919 4.87476 0
M  V30 222 N 23.4672 -3.5234 5.96513 0
M  V30 223 N 25.2602 -3.00733 4.74885 0
M  V30 224 H 17.4112 -0.156032 2.11826 0
M  V30 225 H 19.6742 -0.131844 0.938787 0
M  V30 226 H 19.3802 -1.06796 3.35093 0
M  V30 227 H 19.2542 -2.67554 2.65885 0
M  V30 228 H 21.6412 -2.40984 1.70325 0
M  V30 229 H 21.7222 -0.798656 2.43013 0
M  V30 230 H 21.3662 -1.84388 4.73248 0
M  V30 231 H 21.2962 -3.45458 3.9745 0
M  V30 232 H 23.7872 -2.1603 3.10063 0
M  V30 233 H 24.1002 -3.89027 6.67741 0
M  V30 234 H 22.4452 -3.50462 6.00168 0
M  V30 235 H 25.6362 -2.60638 3.88826 0
M  V30 236 H 25.8092 -3.39545 5.51918 0
M  V30 237 N 19.2153 -1.21501 -1.00376 0
M  V30 238 C 20.4643 -1.02718 -1.73586 0
M  V30 239 C 20.7773 0.439589 -1.90596 0
M  V30 240 O 21.9833 0.746848 -2.61026 0
M  V30 241 C 20.4393 -1.78929 -3.1227 0
M  V30 242 C 20.0473 -3.29783 -3.03228 0
M  V30 243 C 21.7913 -1.68557 -3.89601 0
M  V30 244 C 19.6983 -3.98479 -4.36999 0
M  V30 245 H 18.6283 -0.380733 -0.650814 0
M  V30 246 H 21.2793 -1.45248 -1.1214 0
M  V30 247 H 19.6613 -1.29192 -3.74333 0
M  V30 248 H 20.8353 -3.86832 -2.50395 0
M  V30 249 H 19.1503 -3.40711 -2.39385 0
M  V30 250 H 21.7473 -2.17211 -4.88593 0
M  V30 251 H 22.0903 -0.644021 -4.11288 0
M  V30 252 H 22.6233 -2.15778 -3.34193 0
M  V30 253 H 19.3623 -5.02841 -4.20513 0
M  V30 254 H 18.8823 -3.46219 -4.89788 0
M  V30 255 H 20.5613 -4.03462 -5.05794 0
M  V30 256 N 20.6934 1.19889 -1.02296 0
M  V30 257 C 21.6234 2.25141 -0.619174 0
M  V30 258 C 22.6044 1.66051 0.368915 0
M  V30 259 O 23.7894 1.92546 0.252941 0
M  V30 260 C 20.9194 3.4728 0.0368783 0
M  V30 261 C 19.8734 4.19005 -0.872865 0
M  V30 262 C 19.1994 5.34637 -0.0822402 0
M  V30 263 C 20.4994 4.74452 -2.18387 0
M  V30 264 H 22.1934 2.59171 -1.49903 0
M  V30 265 H 19.7394 1.24579 -0.722222 0
M  V30 266 H 21.6924 4.20098 0.330958 0
M  V30 267 H 20.4164 3.12433 0.95149 0
M  V30 268 H 19.0754 3.48061 -1.15105 0
M  V30 269 H 18.7234 4.96034 0.83422 0
M  V30 270 H 18.4234 5.83557 -0.688149 0
M  V30 271 H 19.9474 6.10255 0.205238 0
M  V30 272 H 21.3614 5.39055 -1.95172 0
M  V30 273 H 19.7584 5.33834 -2.74119 0
M  V30 274 H 20.8284 3.92844 -2.84257 0
M  V30 275 N 22.1715 0.800033 1.35784 0
M  V30 276 C 23.0815 0.207204 2.33683 0
M  V30 277 C 24.0975 -0.64631 1.61551 0
M  V30 278 O 25.2735 -0.559604 1.93469 0
M  V30 279 C 22.3385 -0.639659 3.40748 0
M  V30 280 C 21.3995 0.233585 4.28664 0
M  V30 281 C 20.6325 -0.572954 5.30616 0
M  V30 282 O 20.8555 -1.80816 5.40982 0
M  V30 283 O 19.7895 0.0327285 6.01891 0
M  V30 284 H 23.6155 1.01692 2.86169 0
M  V30 285 H 21.2005 0.561691 1.38439 0
M  V30 286 H 23.0825 -1.12223 4.06182 0
M  V30 287 H 21.7575 -1.42708 2.90544 0
M  V30 288 H 20.6645 0.763147 3.66233 0
M  V30 289 H 21.9975 0.984784 4.82248 0
M  V30 290 N 23.6496 -1.47581 0.552962 0
M  V30 291 C 24.8746 -2.07378 0.0300593 0
M  V30 292 C 25.2996 -1.40355 -1.25229 0
M  V30 293 O 24.6576 -0.477099 -1.7491 0
M  V30 294 C 24.7056 -3.60274 -0.153231 0
M  V30 295 O 23.8096 -3.94041 -1.21678 0
M  V30 296 H 23.1506 -0.662158 0.0494182 0
M  V30 297 H 25.6806 -1.89662 0.767434 0
M  V30 298 H 25.6906 -4.0633 -0.368761 0
M  V30 299 H 24.3656 -4.08455 0.783397 0
M  V30 300 H 22.9426 -3.59735 -0.982079 0
M  V30 301 N 25.1277 -0.289203 -1.54924 0
M  V30 302 C 26.0377 0.601863 -2.26748 0
M  V30 303 C 27.0537 1.15834 -1.2984 0
M  V30 304 O 28.2297 1.18564 -1.62802 0
M  V30 305 C 25.2947 1.76299 -2.98529 0
M  V30 306 C 24.3557 1.24178 -4.10948 0
M  V30 307 C 23.5887 2.34757 -4.79296 0
M  V30 308 O 23.8117 3.54411 -4.46933 0
M  V30 309 O 22.7457 2.02115 -5.66951 0
M  V30 310 H 26.5717 0.0195879 -3.03694 0
M  V30 311 H 24.1567 -0.0560868 -1.49295 0
M  V30 312 H 26.0387 2.43973 -3.43592 0
M  V30 313 H 24.7137 2.33209 -2.24488 0
M  V30 314 H 23.6207 0.531104 -3.70311 0
M  V30 315 H 24.9537 0.718252 -4.86931 0
M  V30 316 N 26.6058 1.57591 -0.0167156 0
M  V30 317 C 27.8828 1.82547 0.702564 0
M  V30 318 C 28.2628 0.898018 1.91047 0
M  V30 319 O 27.6108 -0.0493456 2.28447 0
M  V30 320 C 27.8208 3.31459 1.09251 0
M  V30 321 C 29.1688 3.97622 1.48937 0
M  V30 322 O 30.1928 3.35881 1.18584 0
M  V30 323 O 29.0518 5.06415 2.05442 0
M  V30 324 H 26.1458 0.752268 0.343544 0
M  V30 325 H 28.6918 1.69644 -0.0434495 0
M  V30 326 H 27.4638 3.9061 0.23227 0
M  V30 327 H 27.0868 3.49422 1.89709 0
M  V30 328 N 28.0839 -0.256276 1.55502 0
M  V30 329 C 28.9939 -1.33882 1.92647 0
M  V30 330 C 30.0099 -1.53159 0.825727 0
M  V30 331 O 31.1859 -1.66963 1.12629 0
M  V30 332 C 28.2509 -2.6751 2.20543 0
M  V30 333 C 27.3119 -2.56836 3.43997 0
M  V30 334 C 26.5449 -3.84092 3.70553 0
M  V30 335 O 26.7679 -4.85545 2.99336 0
M  V30 336 O 25.7019 -3.83288 4.64084 0
M  V30 337 H 29.5279 -1.05374 2.84833 0
M  V30 338 H 27.1129 -0.456237 1.42263 0
M  V30 339 H 28.9949 -3.46492 2.39835 0
M  V30 340 H 27.6699 -2.9577 1.31536 0
M  V30 341 H 26.5769 -1.76172 3.30021 0
M  V30 342 H 27.9099 -2.33523 4.33275 0
M  V30 343 N 29.562 -1.4872 -0.521534 0
M  V30 344 C 30.811 -1.56419 -1.27341 0
M  V30 345 C 31.124 -0.246805 -1.94037 0
M  V30 346 O 32.33 -0.202122 -2.70747 0
M  V30 347 C 30.786 -2.75896 -2.31105 0
M  V30 348 C 30.394 -4.14311 -1.70441 0
M  V30 349 C 32.138 -2.92913 -3.07249 0
M  V30 350 C 30.045 -5.25038 -2.72194 0
M  V30 351 H 28.975 -0.582344 -0.478949 0
M  V30 352 H 31.626 -1.75071 -0.549779 0
M  V30 353 H 30.008 -2.50697 -3.06541 0
M  V30 354 H 31.182 -4.49564 -1.01136 0
M  V30 355 H 29.497 -4.02482 -1.06759 0
M  V30 356 H 32.094 -3.72805 -3.83302 0
M  V30 357 H 32.437 -2.02689 -3.63625 0
M  V30 358 H 32.97 -3.18054 -2.38928 0
M  V30 359 H 29.709 -6.17255 -2.20627 0
M  V30 360 H 29.229 -4.94263 -3.39801 0
M  V30 361 H 30.908 -5.53508 -3.35019 0
M  V30 362 N 31.0401 0.771051 -1.3745 0
M  V30 363 C 32.4511 1.34737 -1.29239 0
M  V30 364 C 32.8021 1.96109 0.0596908 0
M  V30 365 O 31.9271 1.93865 0.961534 0
M  V30 366 C 32.5221 2.44973 -2.34037 0
M  V30 367 C 31.0811 2.98372 -2.29458 0
M  V30 368 C 30.2281 1.71595 -2.17831 0
M  V30 369 H 33.1791 0.571256 -1.48062 0
M  V30 370 H 33.2001 3.24471 -1.98744 0
M  V30 371 H 32.7121 2.00276 -3.32432 0
M  V30 372 H 30.8131 3.47443 -1.34589 0
M  V30 373 H 30.9261 3.53939 -3.229 0
M  V30 374 H 29.2901 1.94547 -1.64388 0
M  V30 375 H 30.0731 1.29001 -3.18141 0
M  V30 376 N 32.5182 1.22032 0.997298 0
M  V30 377 C 33.4502 0.944263 2.08845 0
M  V30 378 C 34.4632 -0.0754663 1.62625 0
M  V30 379 O 35.6522 0.157994 1.77799 0
M  V30 380 C 32.7522 0.397723 3.36558 0
M  V30 381 C 31.9252 1.47362 4.11829 0
M  V30 382 C 30.9842 0.934951 5.17827 0
M  V30 383 O 30.0102 1.62016 5.45655 0
M  V30 384 N 31.2122 -0.245895 5.79979 0
M  V30 385 H 33.9772 1.88363 2.33109 0
M  V30 386 H 31.5382 1.12661 1.16272 0
M  V30 387 H 33.5302 0.0227771 4.04694 0
M  V30 388 H 32.1002 -0.446646 3.09393 0
M  V30 389 H 31.3202 2.02208 3.38386 0
M  V30 390 H 32.6082 2.19764 4.58891 0
M  V30 391 H 32.0062 -0.819475 5.59733 0
M  V30 392 H 30.5632 -0.562272 6.4937 0
M  V30 393 N 33.9963 -1.19345 1.0293 0
M  V30 394 C 34.9063 -2.26245 0.620515 0
M  V30 395 C 35.9223 -1.70486 -0.347928 0
M  V30 396 O 37.0983 -2.00347 -0.205704 0
M  V30 397 C 34.1633 -3.46693 -0.0218957 0
M  V30 398 C 33.2243 -4.17632 0.994102 0
M  V30 399 C 32.4573 -5.32329 0.382253 0
M  V30 400 O 32.6803 -5.64552 -0.814676 0
M  V30 401 O 31.6143 -5.91664 1.10531 0
M  V30 402 H 35.4403 -2.63453 1.51083 0
M  V30 403 H 33.0253 -1.26207 0.799513 0
M  V30 404 H 34.9073 -4.19683 -0.380072 0
M  V30 405 H 33.5823 -3.11333 -0.886209 0
M  V30 406 H 32.4893 -3.4676 1.40387 0
M  V30 407 H 33.8223 -4.56964 1.8288 0
M  V30 408 N 35.4744 -0.807222 -1.35358 0
M  V30 409 C 36.7224 -0.387122 -1.98358 0
M  V30 410 C 37.0434 1.04942 -1.64354 0
M  V30 411 O 36.3134 1.72615 -0.926339 0
M  V30 412 H 34.8934 -0.140154 -0.733734 0
M  V30 413 H 37.5554 -1.0332 -1.6526 0
M  V30 414 H 36.6514 -0.493352 -3.08176 0
M  V30 415 N 36.9525 1.47285 -0.560781 0
M  V30 416 C 38.1995 2.02464 -0.038062 0
M  V30 417 C 38.5275 1.43474 1.31322 0
M  V30 418 O 37.7825 0.581311 1.86867 0
M  V30 419 C 38.0815 3.57258 0.100784 0
M  V30 420 C 37.7475 4.35184 -1.18007 0
M  V30 421 C 36.4095 4.56194 -1.53103 0
M  V30 422 C 38.7615 4.80098 -2.02867 0
M  V30 423 C 36.0895 5.19367 -2.729 0
M  V30 424 C 38.4415 5.44593 -3.21871 0
M  V30 425 C 37.1055 5.63835 -3.57276 0
M  V30 426 H 36.3755 0.740869 -0.0139279 0
M  V30 427 H 39.0225 1.76916 -0.733012 0
M  V30 428 H 37.3275 3.81819 0.878724 0
M  V30 429 H 39.0245 3.97606 0.520639 0
M  V30 430 H 35.6145 4.19113 -0.8968 0
M  V30 431 H 39.7985 4.63642 -1.7706 0
M  V30 432 H 35.0545 5.32459 -3.00496 0
M  V30 433 H 39.2285 5.78358 -3.87911 0
M  V30 434 H 36.8555 6.12557 -4.50197 0
M  V30 435 N 38.4306 0.297415 1.54768 0
M  V30 436 C 39.6586 -0.315623 2.04478 0
M  V30 437 C 40.0736 -1.47792 1.17486 0
M  V30 438 O 39.4306 -1.81404 0.19971 0
M  V30 439 C 39.4816 -0.7753 3.53088 0
M  V30 440 O 39.2026 0.340732 4.36773 0
M  V30 441 C 40.7036 -1.45386 4.18781 0
M  V30 442 H 37.9236 -0.0690887 0.667434 0
M  V30 443 H 40.4676 0.436003 1.99798 0
M  V30 444 H 38.6226 -1.47696 3.58141 0
M  V30 445 H 39.0366 -0.0165035 5.24497 0
M  V30 446 H 40.5106 -1.72669 5.24299 0
M  V30 447 H 40.9876 -2.39275 3.68299 0
M  V30 448 H 41.5936 -0.795475 4.17795 0
M  V30 449 N 39.9087 -1.5758 0.0250728 0
M  V30 450 C 41.1487 -1.93497 -0.65865 0
M  V30 451 C 41.5127 -0.901409 -1.69525 0
M  V30 452 O 42.7137 -1.14664 -2.43116 0
M  V30 453 C 40.9847 -3.34352 -1.26267 0
M  V30 454 S 42.5437 -3.92191 -1.96803 0
M  V30 455 H 39.3617 -0.67709 -0.216958 0
M  V30 456 H 41.9637 -1.95303 0.0877692 0
M  V30 457 H 40.6677 -4.07395 -0.495741 0
M  V30 458 H 40.1987 -3.3598 -2.04648 0
M  V30 459 H 42.2137 -3.75298 -3.24601 0
M  V30 460 N 41.3868 0.248026 -1.55636 0
M  V30 461 C 42.8028 0.596483 -1.48035 0
M  V30 462 C 43.0028 1.88386 -0.715039 0
M  V30 463 O 42.0588 2.51319 -0.243944 0
M  V30 464 C 43.3718 0.700258 -2.92433 0
M  V30 465 C 44.9198 0.792659 -3.02797 0
M  V30 466 C 45.3948 0.928005 -4.485 0
M  V30 467 N 46.8858 0.992903 -4.52433 0
M  V30 468 C 47.6208 1.11687 -5.62418 0
M  V30 469 N 47.1168 1.20645 -6.82214 0
M  V30 470 N 48.9098 1.14994 -5.50212 0
M  V30 471 H 41.0608 -0.597109 -2.03834 0
M  V30 472 H 43.3238 -0.205925 -0.925364 0
M  V30 473 H 43.0298 -0.175658 -3.51261 0
M  V30 474 H 42.9038 1.57255 -3.42857 0
M  V30 475 H 45.2908 1.65903 -2.4405 0
M  V30 476 H 45.3718 -0.104762 -2.55585 0
M  V30 477 H 45.0158 0.0661971 -5.07857 0
M  V30 478 H 44.9458 1.84045 -4.93391 0
M  V30 479 H 47.4368 0.935064 -3.66149 0
M  V30 480 H 47.7498 1.30008 -7.61786 0
M  V30 481 H 46.0948 1.17605 -6.84977 0
M  V30 482 H 49.2858 1.07643 -4.55555 0
M  V30 483 H 49.4588 1.24311 -6.35965 0
M  V30 484 N 42.8649 1.48995 0.513639 0
M  V30 485 C 44.1119 1.57843 1.26854 0
M  V30 486 C 44.4399 0.259501 1.92761 0
M  V30 487 O 43.6949 -0.75159 1.80692 0
M  V30 488 C 43.9939 2.67756 2.36731 0
M  V30 489 C 43.6599 4.09669 1.88368 0
M  V30 490 C 42.3219 4.48291 1.74896 0
M  V30 491 C 44.6739 4.98537 1.52021 0
M  V30 492 C 42.0019 5.73568 1.23438 0
M  V30 493 C 44.3539 6.24319 1.0202 0
M  V30 494 C 43.0179 6.61783 0.871778 0
M  V30 495 H 42.2879 0.577587 0.464192 0
M  V30 496 H 44.9349 1.82778 0.571366 0
M  V30 497 H 43.2399 2.36743 3.12185 0
M  V30 498 H 44.9369 2.71813 2.9482 0
M  V30 499 H 41.5269 3.79176 1.99808 0
M  V30 500 H 45.7109 4.69363 1.61281 0
M  V30 501 H 40.9669 6.01304 1.10648 0
M  V30 502 H 45.1409 6.92566 0.729722 0
M  V30 503 H 42.7679 7.5874 0.470852 0
M  V30 504 N 44.343 -0.763751 1.37857 0
M  V30 505 C 45.591 -1.51957 1.33243 0
M  V30 506 C 45.912 -1.94835 -0.0801709 0
M  V30 507 O 45.182 -1.66894 -1.02582 0
M  V30 508 H 43.762 -0.563626 0.49024 0
M  V30 509 H 46.424 -0.908504 1.7243 0
M  V30 510 H 45.52 -2.41523 1.97669 0
M  V30 511 N 45.8211 -1.22559 -0.990812 0
M  V30 512 C 46.7681 -0.997519 -2.0813 0
M  V30 513 C 47.7381 0.0814702 -1.659 0
M  V30 514 O 48.9231 -0.0685424 -1.90677 0
M  V30 515 C 46.0631 -0.583615 -3.40129 0
M  V30 516 C 45.1761 -1.7336 -3.9569 0
M  V30 517 C 44.3111 -1.26748 -5.15857 0
M  V30 518 C 43.3501 -2.38888 -5.63559 0
M  V30 519 N 42.4871 -1.93308 -6.74964 0
M  V30 520 H 47.3271 -1.93099 -2.26973 0
M  V30 521 H 44.8641 -0.962114 -1.11273 0
M  V30 522 H 46.8221 -0.324801 -4.15934 0
M  V30 523 H 45.4521 0.312845 -3.2128 0
M  V30 524 H 44.5041 -2.10669 -3.16738 0
M  V30 525 H 45.8161 -2.57704 -4.27071 0
M  V30 526 H 44.9701 -0.966173 -5.98957 0
M  V30 527 H 43.7091 -0.394272 -4.86104 0
M  V30 528 H 42.7141 -2.69805 -4.79046 0
M  V30 529 H 43.9391 -3.26728 -5.95336 0
M  V30 530 H 41.8851 -1.08352 -6.4699 0
M  V30 531 H 41.8021 -2.71217 -7.05675 0
M  V30 532 H 43.0701 -1.66252 -7.61564 0
M  V30 533 N 47.2992 1.18797 -1.03562 0
M  V30 534 C 48.2492 2.20161 -0.592724 0
M  V30 535 C 49.2332 1.56772 0.362133 0
M  V30 536 O 50.4252 1.76062 0.182009 0
M  V30 537 C 47.5542 3.43266 0.0481024 0
M  V30 538 C 46.6402 4.13786 -0.9296 0
M  V30 539 N 47.0312 4.60388 -2.09467 0
M  V30 540 C 45.3292 4.39572 -0.754499 0
M  V30 541 C 46.0302 5.14619 -2.71187 0
M  V30 542 N 45.0062 5.05826 -1.991 0
M  V30 543 H 48.8082 2.53877 -1.48066 0
M  V30 544 H 46.3222 1.34946 -0.903514 0
M  V30 545 H 48.3192 4.15136 0.383058 0
M  V30 546 H 46.9792 3.11048 0.931636 0
M  V30 547 H 47.9902 4.54999 -2.47379 0
M  V30 548 H 44.6672 4.17425 0.0793713 0
M  V30 549 H 46.0572 5.60917 -3.69895 0
M  V30 550 N 48.7773 0.814389 1.34928 0
M  V30 551 C 50.0053 0.411136 2.02774 0
M  V30 552 C 50.4203 -0.980316 1.61354 0
M  V30 553 O 49.7773 -1.63299 0.814847 0
M  V30 554 C 49.8283 0.493865 3.58111 0
M  V30 555 O 49.5493 1.83047 3.98027 0
M  V30 556 C 51.0503 0.0844174 4.4322 0
M  V30 557 H 48.2703 0.166037 0.650133 0
M  V30 558 H 50.8143 1.10018 1.72384 0
M  V30 559 H 48.9693 -0.147006 3.87121 0
M  V30 560 H 49.3833 1.79872 4.92693 0
M  V30 561 H 50.8573 0.193404 5.51661 0
M  V30 562 H 51.3343 -0.97113 4.28329 0
M  V30 563 H 51.9403 0.69875 4.19521 0
M  V30 564 N 50.2554 -1.46986 0.568584 0
M  V30 565 C 51.5014 -2.02741 0.0488709 0
M  V30 566 C 51.8344 -1.44077 -1.30214 0
M  V30 567 O 51.1094 -0.600552 -1.84996 0
M  V30 568 C 51.3924 -3.60086 -0.032047 0
M  V30 569 C 51.2454 -4.29162 1.34686 0
M  V30 570 C 52.5644 -4.33838 -0.739798 0
M  V30 571 H 49.6834 -0.736749 0.0192338 0
M  V30 572 H 52.3254 -1.75289 0.733065 0
M  V30 573 H 50.4754 -3.83606 -0.61473 0
M  V30 574 H 52.1474 -4.16948 1.97362 0
M  V30 575 H 50.3904 -3.89073 1.91846 0
M  V30 576 H 51.0614 -5.37826 1.24285 0
M  V30 577 H 53.5374 -4.15378 -0.244939 0
M  V30 578 H 52.4134 -5.43537 -0.765406 0
M  V30 579 H 52.6744 -4.03875 -1.79827 0
M  V30 580 N 51.7335 -0.305618 -1.54608 0
M  V30 581 C 52.9795 0.302746 -2.00528 0
M  V30 582 C 53.3125 1.53184 -1.19367 0
M  V30 583 O 52.5875 1.92598 -0.271321 0
M  V30 584 C 52.8705 0.654756 -3.54097 0
M  V30 585 C 52.7235 -0.583793 -4.45995 0
M  V30 586 C 54.0425 1.47947 -4.14487 0
M  V30 587 H 51.1615 0.108564 -0.72896 0
M  V30 588 H 53.8035 -0.418634 -1.85331 0
M  V30 589 H 51.9535 1.26935 -3.67178 0
M  V30 590 H 53.6255 -1.22224 -4.44814 0
M  V30 591 H 51.8685 -1.21615 -4.16404 0
M  V30 592 H 52.5395 -0.293287 -5.5122 0
M  V30 593 H 55.0155 0.96013 -4.04871 0
M  V30 594 H 53.8915 1.69454 -5.22088 0
M  V30 595 H 54.1525 2.47011 -3.66658 0
M  V30 596 N 53.2116 1.57565 -0.0334293 0
M  V30 597 C 54.1746 2.09393 0.932048 0
M  V30 598 C 55.1746 1.00986 1.25134 0
M  V30 599 O 56.3646 1.27129 1.19096 0
M  V30 600 C 53.4966 2.56338 2.2473 0
M  V30 601 H 54.6896 2.95984 0.483085 0
M  V30 602 H 52.2426 1.54819 0.21468 0
M  V30 603 H 52.9776 1.7309 2.74245 0
M  V30 604 H 52.7626 3.35542 2.02865 0
M  V30 605 H 54.2526 2.96646 2.93923 0
M  V30 606 N 54.6897 -0.239769 1.55765 0
M  V30 607 C 55.6377 -1.31668 1.91745 0
M  V30 608 C 56.6317 -1.49462 0.797338 0
M  V30 609 O 57.8377 -1.50852 0.982021 0
M  V30 610 H 54.2127 -0.441048 0.609082 0
M  V30 611 H 56.1837 -0.985923 2.81642 0
M  V30 612 C 54.9327 -2.66368 2.2348 0
M  V30 613 H 54.2557 -2.53478 3.09175 0
M  V30 614 H 55.6957 -3.40578 2.52553 0
M  V30 615 C 54.1547 -3.20002 1.05359 0
M  V30 616 O 54.6847 -4.00538 0.305261 0
M  V30 617 N 52.8907 -2.78126 0.842292 0
M  V30 618 H 52.4377 -2.12742 1.45253 0
M  V30 619 H 52.3957 -3.14354 0.053652 0
M  V30 620 N 56.1678 -1.49265 -0.50573 0
M  V30 621 C 57.4448 -1.49012 -1.26707 0
M  V30 622 C 57.8248 -0.215205 -2.1 0
M  V30 623 O 57.1728 0.802547 -2.13943 0
M  V30 624 C 57.3828 -2.7663 -2.12783 0
M  V30 625 C 58.7308 -3.25932 -2.72127 0
M  V30 626 O 59.7548 -2.77715 -2.23054 0
M  V30 627 O 58.6138 -4.09897 -3.61451 0
M  V30 628 H 55.7078 -0.596197 -0.57313 0
M  V30 629 H 58.2538 -1.61524 -0.52039 0
M  V30 630 H 57.0258 -3.60916 -1.5118 0
M  V30 631 H 56.6488 -2.66956 -2.94653 0
M  V30 632 N 57.6459 0.756429 -1.3826 0
M  V30 633 C 58.5559 1.9009 -1.37488 0
M  V30 634 C 59.5719 1.71855 -0.272366 0
M  V30 635 O 60.7479 1.94827 -0.510318 0
M  V30 636 C 57.8129 3.25421 -1.19592 0
M  V30 637 C 56.8739 3.56202 -2.39622 0
M  V30 638 C 56.1069 4.85075 -2.2257 0
M  V30 639 O 56.3299 5.57246 -1.21793 0
M  V30 640 O 55.2639 5.15269 -3.11098 0
M  V30 641 H 59.0899 1.93695 -2.33914 0
M  V30 642 H 56.6749 0.901313 -1.1915 0
M  V30 643 H 58.5569 4.06337 -1.11661 0
M  V30 644 H 57.2319 3.22634 -0.262486 0
M  V30 645 H 56.1389 2.75458 -2.53128 0
M  V30 646 H 57.4719 3.63747 -3.31586 0
M  V30 647 N 59.124 1.23083 0.984299 0
M  V30 648 C 60.034 1.02515 2.11016 0
M  V30 649 C 61.05 -0.0291702 1.73976 0
M  V30 650 O 62.226 0.165434 2.00719 0
M  V30 651 C 59.291 0.614673 3.41208 0
M  V30 652 C 58.352 1.74359 3.92297 0
M  V30 653 C 57.585 1.35261 5.16275 0
M  V30 654 O 57.808 0.235136 5.69915 0
M  V30 655 O 56.742 2.17227 5.61334 0
M  V30 656 H 60.568 1.96862 2.31255 0
M  V30 657 H 58.153 1.01753 1.09392 0
M  V30 658 H 60.035 0.396518 4.1953 0
M  V30 659 H 58.71 -0.299851 3.22308 0
M  V30 660 H 57.617 2.01635 3.1511 0
M  V30 661 H 58.95 2.63629 4.15645 0
M  V30 662 N 60.6021 -1.18246 1.0419 0
M  V30 663 C 61.8271 -1.92736 0.765996 0
M  V30 664 C 62.2521 -1.75728 -0.67091 0
M  V30 665 O 61.6101 -1.06825 -1.46486 0
M  V30 666 C 61.6581 -3.42148 1.13875 0
M  V30 667 O 60.7621 -4.11548 0.264954 0
M  V30 668 H 60.1031 -0.601238 0.281797 0
M  V30 669 H 62.6331 -1.49942 1.39207 0
M  V30 670 H 62.6431 -3.92858 1.1012 0
M  V30 671 H 61.3181 -3.53848 2.18551 0
M  V30 672 H 59.8951 -3.71137 0.362226 0
M  V30 673 N 62.0802 -0.821533 -1.34494 0
M  V30 674 C 63.3272 -0.408946 -1.98328 0
M  V30 675 C 63.6552 1.02764 -1.65136 0
M  V30 676 O 62.9102 1.73026 -0.914349 0
M  V30 677 C 63.2092 -0.556512 -3.53041 0
M  V30 678 C 62.8752 -1.95861 -4.0614 0
M  V30 679 C 61.5372 -2.34217 -4.20352 0
M  V30 680 C 63.8892 -2.87523 -4.34718 0
M  V30 681 C 61.2172 -3.63572 -4.6047 0
M  V30 682 C 63.5692 -4.1634 -4.76281 0
M  V30 683 C 62.2332 -4.54675 -4.88699 0
M  V30 684 H 61.5032 -0.149644 -0.725732 0
M  V30 685 H 64.1502 -1.04521 -1.6046 0
M  V30 686 H 62.4552 0.163148 -3.9146 0
M  V30 687 H 64.1522 -0.217826 -4.00408 0
M  V30 688 H 60.7422 -1.65066 -3.95539 0
M  V30 689 H 64.9262 -2.59133 -4.23277 0
M  V30 690 H 60.1822 -3.93101 -4.68275 0
M  V30 691 H 64.3562 -4.87455 -4.97354 0
M  V30 692 H 61.9832 -5.54959 -5.19542 0
M  V30 693 N 63.5583 1.46682 -0.576371 0
M  V30 694 C 64.4683 2.34032 0.163141 0
M  V30 695 C 65.4843 1.49367 0.892501 0
M  V30 696 O 66.6603 1.82252 0.857106 0
M  V30 697 C 63.7253 3.26435 1.16795 0
M  V30 698 C 62.7863 4.26998 0.443944 0
M  V30 699 C 62.0193 5.14986 1.40088 0
M  V30 700 O 62.2423 5.05785 2.637 0
M  V30 701 O 61.1763 5.94906 0.914917 0
M  V30 702 H 65.0023 2.98607 -0.55388 0
M  V30 703 H 62.5873 1.45554 -0.336821 0
M  V30 704 H 64.4693 3.83459 1.74748 0
M  V30 705 H 63.1443 2.64465 1.86655 0
M  V30 706 H 62.0513 3.7368 -0.177271 0
M  V30 707 H 63.3843 4.91736 -0.213566 0
M  V30 708 N 65.0364 0.313813 1.54444 0
M  V30 709 C 66.2854 -0.292519 1.99568 0
M  V30 710 C 66.5984 -1.54011 1.20582 0
M  V30 711 O 67.8044 -2.22183 1.56035 0
M  V30 712 C 66.2604 -0.571752 3.55329 0
M  V30 713 C 65.8684 0.658229 4.43138 0
M  V30 714 C 67.6124 -1.13857 4.08946 0
M  V30 715 C 65.5194 0.351439 5.90355 0
M  V30 716 H 64.4494 -0.113079 0.745472 0
M  V30 717 H 67.1004 0.424518 1.78522 0
M  V30 718 H 65.4824 -1.34872 3.72325 0
M  V30 719 H 66.6564 1.43403 4.37918 0
M  V30 720 H 64.9714 1.14458 4.0036 0
M  V30 721 H 67.5684 -1.38257 5.16516 0
M  V30 722 H 67.9114 -2.08489 3.6033 0
M  V30 723 H 68.4444 -0.423015 3.95544 0
M  V30 724 H 65.1834 1.26667 6.43145 0
M  V30 725 H 64.7034 -0.386842 5.98551 0
M  V30 726 H 66.3824 -0.0423134 6.46986 0
M  V30 727 N 66.5145 -1.57545 0.0417849 0
M  V30 728 C 67.7605 -1.92601 -0.635021 0
M  V30 729 C 68.0935 -0.919627 -1.71045 0
M  V30 730 O 67.3685 0.0557892 -1.9442 0
M  V30 731 C 67.6515 -3.38085 -1.23979 0
M  V30 732 C 67.5045 -4.49467 -0.173057 0
M  V30 733 C 68.8235 -3.83776 -2.15416 0
M  V30 734 H 65.9425 -0.700397 -0.229374 0
M  V30 735 H 68.5845 -1.89728 0.101633 0
M  V30 736 H 66.7345 -3.40664 -1.86762 0
M  V30 737 H 68.4065 -4.59018 0.458312 0
M  V30 738 H 66.6495 -4.30909 0.499996 0
M  V30 739 H 67.3205 -5.48323 -0.636054 0
M  V30 740 H 69.7965 -3.83013 -1.62605 0
M  V30 741 H 68.6725 -4.8624 -2.54679 0
M  V30 742 H 68.9335 -3.19998 -3.05047 0
M  V30 743 N 67.9926 0.231505 -1.5589 0
M  V30 744 C 69.4086 0.580748 -1.48659 0
M  V30 745 C 69.6086 1.87617 -0.73498 0
M  V30 746 O 68.6646 2.51046 -0.270586 0
M  V30 747 C 69.9776 0.669202 -2.93159 0
M  V30 748 C 71.5256 0.760499 -3.03621 0
M  V30 749 C 72.0006 0.880383 -4.49459 0
M  V30 750 N 73.4916 0.944861 -4.53461 0
M  V30 751 C 74.2266 1.05716 -5.63571 0
M  V30 752 N 73.7226 1.13403 -6.83456 0
M  V30 753 N 75.5156 1.09152 -5.514 0
M  V30 754 H 67.6666 -0.618695 -2.03189 0
M  V30 755 H 69.9296 -0.215728 -0.923128 0
M  V30 756 H 69.6356 -0.212904 -3.51055 0
M  V30 757 H 69.5096 1.5361 -3.44505 0
M  V30 758 H 71.8966 1.63305 -2.45796 0
M  V30 759 H 71.9776 -0.131864 -2.5546 0
M  V30 760 H 71.6216 0.0123284 -5.07899 0
M  V30 761 H 71.5516 1.78802 -4.95316 0
M  V30 762 H 74.0426 0.896176 -3.6712 0
M  V30 763 H 74.3556 1.21921 -7.63122 0
M  V30 764 H 72.7006 1.10333 -6.86186 0
M  V30 765 H 75.8916 1.02805 -4.56671 0
M  V30 766 H 76.0646 1.17558 -6.37247 0
M  V30 767 N 69.4707 1.49531 0.497807 0
M  V30 768 C 70.4007 1.6935 1.60757 0
M  V30 769 C 71.3817 0.542218 1.61227 0
M  V30 770 O 72.5667 0.778417 1.77917 0
M  V30 771 C 69.6967 1.76298 2.99226 0
M  V30 772 C 68.6507 2.91248 3.13622 0
M  V30 773 C 67.9767 2.83312 4.53474 0
M  V30 774 C 69.2767 4.3214 2.93346 0
M  V30 775 H 70.9707 2.62263 1.44425 0
M  V30 776 H 68.5167 1.26208 0.693367 0
M  V30 777 H 70.4697 1.88749 3.76765 0
M  V30 778 H 69.1937 0.799871 3.16654 0
M  V30 779 H 67.8527 2.78404 2.38509 0
M  V30 780 H 67.5007 1.84902 4.67782 0
M  V30 781 H 67.2007 3.60465 4.64046 0
M  V30 782 H 68.7247 2.97775 5.33069 0
M  V30 783 H 70.1387 4.45649 3.60652 0
M  V30 784 H 68.5357 5.1054 3.15387 0
M  V30 785 H 69.6057 4.46363 1.89441 0
M  V30 786 N 70.9488 -0.749086 1.3866 0
M  V30 787 C 72.1788 -1.53611 1.38157 0
M  V30 788 C 72.5868 -1.89177 -0.0293595 0
M  V30 789 O 71.9298 -1.53606 -1.00752 0
M  V30 790 C 71.9918 -2.86087 2.17702 0
M  V30 791 C 71.6558 -2.73034 3.66472 0
M  V30 792 C 72.6528 -2.42526 4.59866 0
M  V30 793 C 70.3378 -2.90345 4.09884 0
M  V30 794 C 72.3318 -2.29492 5.94653 0
M  V30 795 C 70.0188 -2.7693 5.4475 0
M  V30 796 C 71.0168 -2.46547 6.36949 0
M  V30 797 O 70.7048 -2.33199 7.69333 0
M  V30 798 H 70.4368 -0.481773 0.474205 0
M  V30 799 H 72.9908 -0.934465 1.82912 0
M  V30 800 H 71.2208 -3.48458 1.67672 0
M  V30 801 H 72.9098 -3.47625 2.09551 0
M  V30 802 H 73.6758 -2.28816 4.27631 0
M  V30 803 H 69.5548 -3.1299 3.38464 0
M  V30 804 H 73.0988 -2.05698 6.66584 0
M  V30 805 H 68.9958 -2.90215 5.76581 0
M  V30 806 H 69.7638 -2.48376 7.79905 0
M  V30 807 N 72.4269 -1.23603 -0.977757 0
M  V30 808 C 73.3739 -1.01954 -2.07061 0
M  V30 809 C 74.3439 0.0638697 -1.65977 0
M  V30 810 O 75.5289 -0.0887624 -1.90593 0
M  V30 811 C 72.6689 -0.619658 -3.39491 0
M  V30 812 C 71.7819 -1.77547 -3.93829 0
M  V30 813 C 70.9169 -1.32212 -5.14484 0
M  V30 814 C 69.9559 -2.44852 -5.60994 0
M  V30 815 N 69.0929 -2.00456 -6.72876 0
M  V30 816 H 73.9329 -1.95495 -2.24913 0
M  V30 817 H 71.4699 -0.973861 -1.10247 0
M  V30 818 H 73.4279 -0.368898 -4.15566 0
M  V30 819 H 72.0579 0.278752 -3.21594 0
M  V30 820 H 71.1099 -2.14016 -3.14486 0
M  V30 821 H 72.4219 -2.62219 -4.24314 0
M  V30 822 H 71.5759 -1.02965 -5.97899 0
M  V30 823 H 70.3149 -0.445808 -4.85658 0
M  V30 824 H 69.3199 -2.74871 -4.76157 0
M  V30 825 H 70.5449 -3.33024 -5.91837 0
M  V30 826 H 68.4909 -1.15208 -6.45804 0
M  V30 827 H 68.4079 -2.78687 -7.02759 0
M  V30 828 H 69.6759 -1.7432 -7.59758 0
M  V30 829 N 73.905 1.17692 -1.04816 0
M  V30 830 C 75.321 1.39863 -0.768794 0
M  V30 831 C 75.521 1.91118 0.638451 0
M  V30 832 O 74.577 2.10036 1.40146 0
M  V30 833 C 75.89 2.39274 -1.82122 0
M  V30 834 C 77.438 2.52987 -1.843 0
M  V30 835 C 77.913 3.55669 -2.88555 0
M  V30 836 N 79.404 3.63183 -2.87493 0
M  V30 837 C 80.139 4.42381 -3.64811 0
M  V30 838 N 79.635 5.25125 -4.51903 0
M  V30 839 N 81.428 4.37217 -3.53267 0
M  V30 840 H 73.579 0.82752 -1.95617 0
M  V30 841 H 75.842 0.426123 -0.846831 0
M  V30 842 H 75.548 2.08678 -2.83102 0
M  V30 843 H 75.422 3.38725 -1.65967 0
M  V30 844 H 77.809 2.82896 -0.839869 0
M  V30 845 H 77.89 1.53623 -2.04532 0
M  V30 846 H 77.534 3.26499 -3.89051 0
M  V30 847 H 77.464 4.54728 -2.65575 0
M  V30 848 H 79.955 3.04103 -2.24343 0
M  V30 849 H 80.268 5.82728 -5.07591 0
M  V30 850 H 78.613 5.24519 -4.55966 0
M  V30 851 H 81.804 3.71626 -2.84625 0
M  V30 852 H 81.977 4.98696 -4.13771 0
M  V30 853 N 75.3831 0.828654 1.34056 0
M  V30 854 C 76.3131 0.269443 2.3194 0
M  V30 855 C 77.2941 -0.617247 1.58506 0
M  V30 856 O 78.4791 -0.542931 1.86456 0
M  V30 857 C 75.6091 -0.564793 3.42677 0
M  V30 858 C 74.5631 0.225241 4.27407 0
M  V30 859 C 73.8891 -0.7321 5.29664 0
M  V30 860 C 75.1891 1.43663 5.02154 0
M  V30 861 H 76.8831 1.08728 2.7896 0
M  V30 862 H 74.4291 0.524283 1.34117 0
M  V30 863 H 76.3821 -0.966233 4.10173 0
M  V30 864 H 75.1061 -1.41574 2.9432 0
M  V30 865 H 73.7651 0.608117 3.61521 0
M  V30 866 H 73.4131 -1.57916 4.77568 0
M  V30 867 H 73.1131 -0.20767 5.87233 0
M  V30 868 H 74.6371 -1.13128 6.00029 0
M  V30 869 H 76.0511 1.1089 5.62473 0
M  V30 870 H 74.4481 1.89711 5.69324 0
M  V30 871 H 75.5181 2.21181 4.31517 0
M  V30 872 N 76.8612 -1.46375 0.584142 0
M  V30 873 C 78.0892 -2.06761 0.0759296 0
M  V30 874 C 78.5042 -1.43266 -1.22965 0
M  V30 875 O 77.8612 -0.538458 -1.74376 0
M  V30 876 C 77.9122 -3.61375 -0.0950384 0
M  V30 877 O 77.6332 -4.22495 1.15887 0
M  V30 878 C 79.1342 -4.38693 -0.637434 0
M  V30 879 H 76.3542 -0.668479 0.0581075 0
M  V30 880 H 78.8982 -1.8798 0.805218 0
M  V30 881 H 77.0532 -3.79578 -0.774554 0
M  V30 882 H 77.4672 -5.15385 0.973598 0
M  V30 883 H 78.9412 -5.47464 -0.706237 0
M  V30 884 H 79.4182 -4.06836 -1.65472 0
M  V30 885 H 80.0242 -4.25299 0.00725967 0
M  V30 886 N 78.3393 -0.321999 -1.54275 0
M  V30 887 C 79.5853 0.281461 -2.00837 0
M  V30 888 C 79.9183 1.51909 -1.20985 0
M  V30 889 O 79.1933 1.923 -0.291733 0
M  V30 890 C 79.4763 0.617162 -3.54772 0
M  V30 891 C 79.3293 -0.631064 -4.45351 0
M  V30 892 C 80.6483 1.43542 -4.16033 0
M  V30 893 H 77.7673 0.100826 -0.730071 0
M  V30 894 H 80.4093 -0.438268 -1.84876 0
M  V30 895 H 78.5593 1.23034 -3.68504 0
M  V30 896 H 80.2313 -1.26934 -4.43492 0
M  V30 897 H 78.4743 -1.26025 -4.15091 0
M  V30 898 H 79.1453 -0.351735 -5.50878 0
M  V30 899 H 81.6213 0.917134 -4.05867 0
M  V30 900 H 80.4973 1.63907 -5.23856 0
M  V30 901 H 80.7583 2.43108 -3.69257 0
M  V30 902 N 79.8174 1.5752 -0.0501392 0
M  V30 903 C 81.0474 1.96678 0.632573 0
M  V30 904 C 81.4554 0.926298 1.64974 0
M  V30 905 O 80.7984 -0.09802 1.83438 0
M  V30 906 C 80.8604 3.32068 1.37735 0
M  V30 907 C 80.5244 4.54076 0.516131 0
M  V30 908 C 81.5214 5.19445 -0.217357 0
M  V30 909 C 79.2064 5.00304 0.44736 0
M  V30 910 C 81.2004 6.29378 -1.00807 0
M  V30 911 C 78.8874 6.10114 -0.347038 0
M  V30 912 C 79.8854 6.74512 -1.07344 0
M  V30 913 O 79.5734 7.82211 -1.85477 0
M  V30 914 H 79.3054 0.652193 0.177821 0
M  V30 915 H 81.8594 2.05091 -0.112543 0
M  V30 916 H 80.0894 3.20206 2.16807 0
M  V30 917 H 81.7784 3.55981 1.95019 0
M  V30 918 H 82.5444 4.84689 -0.173688 0
M  V30 919 H 78.4234 4.49971 1.00235 0
M  V30 920 H 81.9674 6.79575 -1.57556 0
M  V30 921 H 77.8644 6.44307 -0.392349 0
M  V30 922 H 78.6324 7.98982 -1.77678 0
M  V30 923 N 81.2955 -0.223234 1.56011 0
M  V30 924 C 82.2055 -1.29766 1.95443 0
M  V30 925 C 83.2215 -1.51373 0.858028 0
M  V30 926 O 84.3975 -1.64536 1.16146 0
M  V30 927 C 81.4625 -2.62772 2.26167 0
M  V30 928 C 80.5235 -2.49482 3.49367 0
M  V30 929 C 79.7565 -3.76145 3.78616 0
M  V30 930 O 79.9795 -4.79087 3.09568 0
M  V30 931 O 78.9135 -3.73358 4.72109 0
M  V30 932 H 82.7395 -0.99309 2.87004 0
M  V30 933 H 80.3245 -0.425958 1.43199 0
M  V30 934 H 82.2065 -3.41327 2.47131 0
M  V30 935 H 80.8815 -2.92913 1.37781 0
M  V30 936 H 79.7885 -1.69133 3.33684 0
M  V30 937 H 81.1215 -2.2428 4.38131 0
M  V30 938 N 82.7736 -1.49793 -0.48987 0
M  V30 939 C 83.7036 -1.70201 -1.59856 0
M  V30 940 C 84.6846 -0.55076 -1.60937 0
M  V30 941 O 85.8696 -0.787841 -1.77501 0
M  V30 942 C 82.9996 -1.77882 -2.98287 0
M  V30 943 C 81.9536 -2.92907 -3.12073 0
M  V30 944 C 81.2796 -2.85712 -4.51965 0
M  V30 945 C 82.5796 -4.3369 -2.91051 0
M  V30 946 H 84.2736 -2.63025 -1.43032 0
M  V30 947 H 81.8196 -1.26574 -0.686664 0
M  V30 948 H 83.7726 -1.90744 -3.75759 0
M  V30 949 H 82.4966 -0.816653 -3.16225 0
M  V30 950 H 81.1556 -2.79665 -2.37029 0
M  V30 951 H 80.8036 -1.8738 -4.66795 0
M  V30 952 H 80.5036 -3.62921 -4.62128 0
M  V30 953 H 82.0276 -3.00598 -5.31482 0
M  V30 954 H 83.4416 -4.47555 -3.58284 0
M  V30 955 H 81.8386 -5.12205 -3.12675 0
M  V30 956 H 82.9086 -4.47362 -1.87071 0
M  V30 957 N 84.2517 0.741722 -1.39055 0
M  V30 958 C 85.1817 1.869 -1.39966 0
M  V30 959 C 86.1627 1.6804 -0.26392 0
M  V30 960 O 87.3477 1.88458 -0.468755 0
M  V30 961 C 84.4777 3.24572 -1.23574 0
M  V30 962 C 83.4317 3.58056 -2.34477 0
M  V30 963 C 82.7577 4.94593 -2.0318 0
M  V30 964 C 84.0577 3.61716 -3.76774 0
M  V30 965 H 85.7517 1.86395 -2.34302 0
M  V30 966 H 83.2977 0.895361 -1.1278 0
M  V30 967 H 85.2507 4.031 -1.22834 0
M  V30 968 H 83.9747 3.25587 -0.257045 0
M  V30 969 H 82.6337 2.81854 -2.34423 0
M  V30 970 H 82.2817 4.92181 -1.03765 0
M  V30 971 H 81.9817 5.17964 -2.77465 0
M  V30 972 H 83.5057 5.75486 -2.04079 0
M  V30 973 H 84.9197 4.30335 -3.78794 0
M  V30 974 H 83.3167 3.96603 -4.50362 0
M  V30 975 H 84.3867 2.61672 -4.08235 0
M  V30 976 N 85.7298 1.2412 0.971189 0
M  V30 977 C 86.6598 1.05508 2.08304 0
M  V30 978 C 87.6408 -0.0308864 1.70072 0
M  V30 979 O 88.8258 0.135521 1.93727 0
M  V30 980 C 85.9558 0.655365 3.4106 0
M  V30 981 C 84.9098 1.68971 3.93234 0
M  V30 982 C 84.2358 1.14516 5.22293 0
M  V30 983 C 85.5358 3.08487 4.21465 0
M  V30 984 H 87.2298 1.98507 2.24132 0
M  V30 985 H 84.7758 0.955821 1.07704 0
M  V30 986 H 86.7288 0.51217 4.18276 0
M  V30 987 H 85.4528 -0.31032 3.25122 0
M  V30 988 H 84.1118 1.82106 3.18171 0
M  V30 989 H 83.7598 0.170189 5.02712 0
M  V30 990 H 83.4598 1.83635 5.58168 0
M  V30 991 H 84.9838 1.01401 6.02121 0
M  V30 992 H 86.3978 2.98601 4.89398 0
M  V30 993 H 84.7948 3.74926 4.68562 0
M  V30 994 H 85.8648 3.56787 3.28376 0
M  V30 995 N 87.2079 -1.17134 1.05439 0
M  V30 996 C 88.4329 -1.91913 0.786396 0
M  V30 997 C 88.8579 -1.7643 -0.652234 0
M  V30 998 O 88.2159 -1.08372 -1.45345 0
M  V30 999 C 88.2639 -3.40921 1.17497 0
M  V30 1000 O 87.3679 -4.11244 0.308589 0
M  V30 1001 H 86.7089 -0.598215 0.288158 0
M  V30 1002 H 89.2389 -1.48457 1.4079 0
M  V30 1003 H 89.2489 -3.91668 1.14281 0
M  V30 1004 H 87.9239 -3.5151 2.22292 0
M  V30 1005 H 86.5009 -3.70731 0.40157 0
M  V30 1006 N 88.686 -0.835752 -1.33615 0
M  V30 1007 C 89.616 -0.281739 -2.31794 0
M  V30 1008 C 90.597 0.608833 -1.58831 0
M  V30 1009 O 91.782 0.533035 -1.86741 0
M  V30 1010 C 88.912 0.546612 -3.42971 0
M  V30 1011 C 87.866 -0.247904 -4.27281 0
M  V30 1012 C 87.192 0.704001 -5.30045 0
M  V30 1013 C 88.492 -1.46324 -5.01385 0
M  V30 1014 H 90.186 -1.10206 -2.78379 0
M  V30 1015 H 87.732 -0.531388 -1.33837 0
M  V30 1016 H 89.685 0.944467 -4.1068 0
M  V30 1017 H 88.409 1.40011 -2.95067 0
M  V30 1018 H 87.068 -0.627281 -3.61194 0
M  V30 1019 H 86.716 1.55381 -4.78399 0
M  V30 1020 H 86.416 0.176524 -5.87335 0
M  V30 1021 H 87.94 1.09944 -6.0062 0
M  V30 1022 H 89.354 -1.13871 -5.61877 0
M  V30 1023 H 87.751 -1.92728 -5.6831 0
M  V30 1024 H 88.821 -2.23467 -4.30338 0
M  V30 1025 N 90.1641 1.46063 -0.591896 0
M  V30 1026 C 91.4101 2.02638 -0.0811191 0
M  V30 1027 C 91.7431 1.4613 1.27905 0
M  V30 1028 O 91.0181 0.629908 1.84017 0
M  V30 1029 C 91.3011 3.60091 -0.0252436 0
M  V30 1030 C 91.1541 4.26965 -1.41496 0
M  V30 1031 C 92.4731 4.3496 0.670685 0
M  V30 1032 H 89.5921 0.73635 -0.0309524 0
M  V30 1033 H 92.2341 1.741 -0.760859 0
M  V30 1034 H 90.3841 3.84535 0.553624 0
M  V30 1035 H 92.0561 4.13756 -2.0397 0
M  V30 1036 H 90.2991 3.85971 -1.98011 0
M  V30 1037 H 90.9701 5.35781 -1.32825 0
M  V30 1038 H 93.4461 4.15716 0.178825 0
M  V30 1039 H 92.3221 5.44686 0.678837 0
M  V30 1040 H 92.5831 4.06685 1.73379 0
M  V30 1041 N 91.6422 0.330177 1.54103 0
M  V30 1042 C 92.9192 -0.325007 1.92881 0
M  V30 1043 C 93.2992 -1.6934 1.26045 0
M  V30 1044 O 92.6472 -2.24855 0.406526 0
M  V30 1045 C 92.8572 -0.410634 3.46576 0
M  V30 1046 C 94.2052 -0.667801 4.19316 0
M  V30 1047 O 95.2292 -0.49329 3.52768 0
M  V30 1048 O 94.0882 -1.00491 5.37181 0
M  V30 1049 H 91.1822 -0.186873 0.80561 0
M  V30 1050 H 93.7282 0.380376 1.65382 0
M  V30 1051 H 92.5002 0.550164 3.87413 0
M  V30 1052 H 92.1232 -1.16333 3.802 0
M  V30 1053 N 93.1203 -1.57491 0.0584922 0
M  V30 1054 C 94.3453 -1.97711 -0.62652 0
M  V30 1055 C 94.7703 -0.936132 -1.63151 0
M  V30 1056 O 94.1283 0.099811 -1.81025 0
M  V30 1057 C 94.1763 -3.36989 -1.28338 0
M  V30 1058 O 93.2803 -3.35433 -2.39913 0
M  V30 1059 H 92.6213 -0.643868 -0.162266 0
M  V30 1060 H 95.1513 -2.04193 0.129064 0
M  V30 1061 H 95.1613 -3.73879 -1.63335 0
M  V30 1062 H 93.8363 -4.12289 -0.546889 0
M  V30 1063 H 92.4133 -3.10298 -2.06809 0
M  V30 1064 N 94.5984 0.214957 -1.56127 0
M  V30 1065 C 95.8474 0.936451 -1.78643 0
M  V30 1066 C 96.1604 1.85237 -0.628229 0
M  V30 1067 O 97.3664 2.613 -0.737186 0
M  V30 1068 C 95.8224 1.7154 -3.16389 0
M  V30 1069 C 95.4304 0.845299 -4.39953 0
M  V30 1070 C 97.1744 2.42772 -3.48227 0
M  V30 1071 C 95.0814 1.62198 -5.68723 0
M  V30 1072 H 94.0114 0.353401 -0.666051 0
M  V30 1073 H 96.6624 0.190169 -1.82512 0
M  V30 1074 H 95.0444 2.50484 -3.06715 0
M  V30 1075 H 96.2184 0.0959353 -4.607 0
M  V30 1076 H 94.5334 0.244789 -4.1568 0
M  V30 1077 H 97.1304 3.01394 -4.41663 0
M  V30 1078 H 97.4734 3.15984 -2.71035 0
M  V30 1079 H 98.0064 1.70813 -3.5926 0
M  V30 1080 H 94.7454 0.933011 -6.48826 0
M  V30 1081 H 94.2654 2.34579 -5.52026 0
M  V30 1082 H 95.9444 2.18095 -6.09133 0
M  V30 1083 N 96.0765 1.50051 0.48192 0
M  V30 1084 C 97.3165 1.62128 1.24474 0
M  V30 1085 C 97.6805 0.309742 1.89485 0
M  V30 1086 O 98.8815 0.305854 2.67054 0
M  V30 1087 C 97.1525 2.76151 2.26882 0
M  V30 1088 S 98.7115 3.08297 3.12247 0
M  V30 1089 H 95.5295 0.571661 0.422759 0
M  V30 1090 H 98.1315 1.87791 0.54359 0
M  V30 1091 H 96.8355 3.69942 1.77683 0
M  V30 1092 H 96.3665 2.52541 3.0164 0
M  V30 1093 H 98.3815 2.51287 4.27866 0
M  V30 1094 N 97.5546 -0.734337 1.39446 0
M  V30 1095 C 98.8006 -1.49613 1.36908 0
M  V30 1096 C 99.1336 -1.94169 -0.0347829 0
M  V30 1097 O 98.4086 -1.66833 -0.999847 0
M  V30 1098 C 98.6916 -2.73534 2.34203 0
M  V30 1099 C 98.5446 -2.34993 3.83534 0
M  V30 1100 C 99.8636 -3.75635 2.29317 0
M  V30 1101 H 96.9826 -0.542714 0.498629 0
M  V30 1102 H 99.6246 -0.839597 1.70443 0
M  V30 1103 H 97.7746 -3.29553 2.05736 0
M  V30 1104 H 99.4466 -1.84601 4.22753 0
M  V30 1105 H 97.6896 -1.67213 4.00278 0
M  V30 1106 H 98.3606 -3.23738 4.47099 0
M  V30 1107 H 100.837 -3.29203 2.54489 0
M  V30 1108 H 99.7126 -4.60008 2.99472 0
M  V30 1109 H 99.9736 -4.22603 1.29842 0
M  V30 1110 N 99.0327 -1.24633 -0.964593 0
M  V30 1111 C 99.9827 -1.00841 -2.04487 0
M  V30 1112 C 100.967 0.0512468 -1.60818 0
M  V30 1113 O 102.159 -0.162865 -1.76249 0
M  V30 1114 C 99.2877 -0.618474 -3.37683 0
M  V30 1115 C 98.3737 -1.71437 -3.87905 0
M  V30 1116 N 98.7647 -2.9477 -4.11029 0
M  V30 1117 C 97.0627 -1.5926 -4.16596 0
M  V30 1118 C 97.7637 -3.65834 -4.52261 0
M  V30 1119 N 96.7397 -2.9341 -4.57615 0
M  V30 1120 H 100.542 -1.94487 -2.20345 0
M  V30 1121 H 98.0557 -1.14805 -1.14863 0
M  V30 1122 H 100.053 -0.429247 -4.14684 0
M  V30 1123 H 98.7127 0.310766 -3.23209 0
M  V30 1124 H 99.7237 -3.30917 -3.9839 0
M  V30 1125 H 96.4007 -0.731606 -4.1104 0
M  V30 1126 H 97.7907 -4.71646 -4.78539 0
M  V30 1127 N 100.511 1.16574 -1.06058 0
M  V30 1128 C 101.922 1.68662 -0.800632 0
M  V30 1129 C 102.273 1.84184 0.67608 0
M  V30 1130 O 101.398 1.53568 1.52466 0
M  V30 1131 C 101.993 3.06356 -1.44676 0
M  V30 1132 C 100.552 3.55575 -1.23465 0
M  V30 1133 C 99.6988 2.31616 -1.52477 0
M  V30 1134 H 102.65 1.00969 -1.22438 0
M  V30 1135 H 102.671 3.70636 -0.860788 0
M  V30 1136 H 102.183 2.95027 -2.52152 0
M  V30 1137 H 100.284 3.72167 -0.179527 0
M  V30 1138 H 100.397 4.37812 -1.94571 0
M  V30 1139 H 98.7608 2.36512 -0.945209 0
M  V30 1140 H 99.5438 2.22887 -2.61106 0
M  V30 1141 N 101.989 0.842826 1.3317 0
M  V30 1142 C 102.936 0.276885 2.29133 0
M  V30 1143 C 103.906 -0.609527 1.54512 0
M  V30 1144 O 105.091 -0.546955 1.82792 0
M  V30 1145 C 102.231 -0.538707 3.40869 0
M  V30 1146 C 101.344 0.372169 4.30394 0
M  V30 1147 C 100.479 -0.454908 5.29249 0
M  V30 1148 C 99.5179 0.45411 6.10413 0
M  V30 1149 N 98.6549 -0.335075 7.013 0
M  V30 1150 H 103.495 1.10052 2.76934 0
M  V30 1151 H 101.032 0.554161 1.36262 0
M  V30 1152 H 102.99 -1.02709 4.0436 0
M  V30 1153 H 101.62 -1.32727 2.9425 0
M  V30 1154 H 100.672 0.97888 3.6759 0
M  V30 1155 H 101.984 1.0703 4.87182 0
M  V30 1156 H 101.138 -1.00695 5.98285 0
M  V30 1157 H 99.8769 -1.18646 4.73048 0
M  V30 1158 H 98.8819 1.01813 5.40291 0
M  V30 1159 H 100.107 1.18409 6.68697 0
M  V30 1160 H 98.0529 -1.04994 6.47543 0
M  V30 1161 H 97.9699 0.304262 7.55387 0
M  V30 1162 H 99.2379 -0.869224 7.74638 0
M  V30 1163 N 103.467 -1.45747 0.599634 0
M  V30 1164 C 104.377 -2.34262 -0.125888 0
M  V30 1165 C 105.393 -1.50768 -0.868625 0
M  V30 1166 O 106.569 -1.83592 -0.828003 0
M  V30 1167 C 103.634 -3.28252 -1.11587 0
M  V30 1168 C 102.695 -4.27651 -0.375956 0
M  V30 1169 C 101.928 -5.1715 -1.31877 0
M  V30 1170 O 102.151 -5.09916 -2.55621 0
M  V30 1171 O 101.085 -5.96286 -0.820157 0
M  V30 1172 H 104.911 -2.97688 0.601315 0
M  V30 1173 H 102.496 -1.44999 0.359934 0
M  V30 1174 H 104.378 -3.86191 -1.68626 0
M  V30 1175 H 103.053 -2.67401 -1.82424 0
M  V30 1176 H 101.96 -3.7335 0.236698 0
M  V30 1177 H 103.293 -4.91334 0.29177 0
M  V30 1178 N 104.945 -0.338344 -1.53925 0
M  V30 1179 C 105.855 0.529421 -2.28548 0
M  V30 1180 C 106.871 1.11645 -1.3346 0
M  V30 1181 O 108.047 1.13325 -1.66492 0
M  V30 1182 C 105.112 1.66713 -3.03987 0
M  V30 1183 C 104.173 1.11041 -4.14691 0
M  V30 1184 C 103.406 2.19389 -4.86522 0
M  V30 1185 O 103.629 3.40013 -4.57982 0
M  V30 1186 O 102.563 1.83976 -5.73094 0
M  V30 1187 H 106.389 -0.0770399 -3.03602 0
M  V30 1188 H 103.974 -0.103555 -1.49041 0
M  V30 1189 H 105.856 2.32918 -3.5118 0
M  V30 1190 H 104.531 2.25949 -2.31794 0
M  V30 1191 H 103.438 0.413024 -3.71813 0
M  V30 1192 H 104.771 0.562975 -4.8897 0
M  V30 1193 N 106.423 1.57458 -0.0668435 0
M  V30 1194 C 107.386 2.11323 0.887422 0
M  V30 1195 C 108.386 1.03618 1.22964 0
M  V30 1196 O 109.576 1.29626 1.16373 0
M  V30 1197 C 106.708 2.61048 2.19242 0
M  V30 1198 H 107.901 2.96942 0.420194 0
M  V30 1199 H 105.454 1.55239 0.181793 0
M  V30 1200 H 106.189 1.78868 2.70512 0
M  V30 1201 H 105.974 3.39769 1.95702 0
M  V30 1202 H 107.464 3.02814 2.87565 0
M  V30 1203 N 107.901 -0.206675 1.56239 0
M  V30 1204 C 108.831 -1.25909 1.96645 0
M  V30 1205 C 109.812 -1.48097 0.836734 0
M  V30 1206 O 110.997 -1.6003 1.10019 0
M  V30 1207 C 108.127 -2.6058 2.29599 0
M  V30 1208 C 107.081 -2.53024 3.452 0
M  V30 1209 C 106.407 -3.91861 3.63798 0
M  V30 1210 C 107.707 -2.06524 4.79734 0
M  V30 1211 H 109.401 -0.923369 2.84806 0
M  V30 1212 H 106.947 -0.442735 1.37025 0
M  V30 1213 H 108.9 -3.34375 2.56459 0
M  V30 1214 H 107.624 -2.95869 1.38307 0
M  V30 1215 H 106.283 -1.81684 3.18412 0
M  V30 1216 H 105.931 -4.24483 2.69857 0
M  V30 1217 H 105.631 -3.87683 4.4156 0
M  V30 1218 H 107.155 -4.67296 3.93022 0
M  V30 1219 H 108.569 -2.70072 5.05702 0
M  V30 1220 H 106.966 -2.13374 5.60885 0
M  V30 1221 H 108.036 -1.01802 4.74093 0
M  V30 1222 N 109.379 -1.50304 -0.473955 0
M  V30 1223 C 110.795 -1.37667 -0.807466 0
M  V30 1224 C 110.995 -0.430555 -1.96846 0
M  V30 1225 O 110.051 0.127874 -2.52176 0
M  V30 1226 C 111.364 -2.78974 -1.12223 0
M  V30 1227 C 112.912 -2.87868 -1.22885 0
M  V30 1228 C 113.387 -4.30003 -1.57676 0
M  V30 1229 N 114.878 -4.3294 -1.64673 0
M  V30 1230 C 115.613 -5.3991 -1.93091 0
M  V30 1231 N 115.109 -6.57092 -2.1955 0
M  V30 1232 N 116.902 -5.27351 -1.94569 0
M  V30 1233 H 109.053 -2.10394 0.291212 0
M  V30 1234 H 111.316 -0.945575 0.0677609 0
M  V30 1235 H 111.022 -3.50031 -0.342229 0
M  V30 1236 H 110.896 -3.16038 -2.05913 0
M  V30 1237 H 113.283 -2.17032 -1.99953 0
M  V30 1238 H 113.364 -2.54352 -0.271814 0
M  V30 1239 H 113.008 -5.01375 -0.81149 0
M  V30 1240 H 112.938 -4.61004 -2.54525 0
M  V30 1241 H 115.429 -3.48441 -1.46277 0
M  V30 1242 H 115.742 -7.34425 -2.405 0
M  V30 1243 H 114.087 -6.60272 -2.16948 0
M  V30 1244 H 117.278 -4.34801 -1.73394 0
M  V30 1245 H 117.451 -6.10805 -2.16381 0
M  V30 1246 N 110.857 0.726932 -1.39834 0
M  V30 1247 C 112.104 1.48664 -1.37496 0
M  V30 1248 C 112.432 1.94482 0.0264678 0
M  V30 1249 O 111.687 1.67692 1.00886 0
M  V30 1250 C 111.986 2.73495 -2.30077 0
M  V30 1251 C 111.652 2.46502 -3.77555 0
M  V30 1252 C 110.314 2.3885 -4.17737 0
M  V30 1253 C 112.666 2.23604 -4.70798 0
M  V30 1254 C 109.994 2.06352 -5.49214 0
M  V30 1255 C 112.346 1.92622 -6.02561 0
M  V30 1256 C 111.01 1.83444 -6.41798 0
M  V30 1257 H 110.28 0.544001 -0.503135 0
M  V30 1258 H 112.927 0.833657 -1.72402 0
M  V30 1259 H 111.232 3.43575 -1.88317 0
M  V30 1260 H 112.929 3.31549 -2.25558 0
M  V30 1261 H 109.519 2.5334 -3.45712 0
M  V30 1262 H 113.703 2.28479 -4.40581 0
M  V30 1263 H 108.959 1.97776 -5.78528 0
M  V30 1264 H 113.133 1.73914 -6.74334 0
M  V30 1265 H 110.76 1.58029 -7.43593 0
M  V30 1266 N 112.336 1.25143 0.95797 0
M  V30 1267 C 113.561 1.12521 1.74223 0
M  V30 1268 C 113.986 -0.317402 1.85403 0
M  V30 1269 O 113.344 -1.2299 1.33204 0
M  V30 1270 C 113.392 1.78062 3.1357 0
M  V30 1271 O 112.496 1.058 3.98598 0
M  V30 1272 H 111.837 0.39304 0.535178 0
M  V30 1273 H 114.367 1.65641 1.201 0
M  V30 1274 H 114.377 1.84213 3.64046 0
M  V30 1275 H 113.052 2.83021 3.04749 0
M  V30 1276 H 111.629 1.07506 3.57067 0
M  V30 1277 N 113.814 -1.1601 1.06675 0
M  V30 1278 C 114.744 -2.22688 0.702307 0
M  V30 1279 C 115.725 -1.67306 -0.307032 0
M  V30 1280 O 116.91 -1.93352 -0.181305 0
M  V30 1281 C 114.04 -3.47178 0.092038 0
M  V30 1282 C 112.994 -4.15477 1.02777 0
M  V30 1283 C 112.32 -5.33963 0.28061 0
M  V30 1284 C 113.62 -4.66019 2.35846 0
M  V30 1285 H 115.314 -2.53429 1.59419 0
M  V30 1286 H 112.86 -1.21813 0.767961 0
M  V30 1287 H 114.813 -4.21037 -0.174814 0
M  V30 1288 H 113.537 -3.15749 -0.834877 0
M  V30 1289 H 112.196 -3.43549 1.27944 0
M  V30 1290 H 111.844 -4.98788 -0.649545 0
M  V30 1291 H 111.544 -5.806 0.904258 0
M  V30 1292 H 113.068 -6.10596 0.021396 0
M  V30 1293 H 114.482 -5.3144 2.15045 0
M  V30 1294 H 112.879 -5.23293 2.93743 0
M  V30 1295 H 113.949 -3.82023 2.98641 0
M  V30 1296 N 115.292 -0.849877 -1.32721 0
M  V30 1297 C 116.239 -0.289033 -2.28983 0
M  V30 1298 C 117.209 0.601324 -1.54833 0
M  V30 1299 O 118.394 0.537253 -1.8308 0
M  V30 1300 C 115.534 0.520623 -3.4115 0
M  V30 1301 C 114.647 -0.394989 -4.3019 0
M  V30 1302 C 113.782 0.426834 -5.29482 0
M  V30 1303 C 112.821 -0.486476 -6.10164 0
M  V30 1304 N 111.958 0.297879 -7.01468 0
M  V30 1305 H 116.798 -1.11519 -2.76347 0
M  V30 1306 H 114.335 -0.56138 -1.35967 0
M  V30 1307 H 116.293 1.00563 -4.04899 0
M  V30 1308 H 114.923 1.31165 -2.9495 0
M  V30 1309 H 113.975 -0.99836 -3.67065 0
M  V30 1310 H 115.287 -1.09612 -4.86607 0
M  V30 1311 H 114.441 0.975205 -5.98811 0
M  V30 1312 H 113.18 1.16136 -4.73671 0
M  V30 1313 H 112.185 -1.04677 -5.39743 0
M  V30 1314 H 113.41 -1.21953 -6.6806 0
M  V30 1315 H 111.356 1.01558 -6.48091 0
M  V30 1316 H 111.273 -0.344318 -7.55216 0
M  V30 1317 H 112.541 0.828131 -7.75089 0
M  V30 1318 N 116.77 1.45427 -0.607355 0
M  V30 1319 C 117.717 2.3053 0.111625 0
M  V30 1320 C 118.687 1.4209 0.860216 0
M  V30 1321 O 119.872 1.71019 0.845998 0
M  V30 1322 C 117.012 3.26992 1.10319 0
M  V30 1323 C 116.125 4.30535 0.355493 0
M  V30 1324 C 115.26 5.14105 1.33676 0
M  V30 1325 C 114.299 6.09376 0.576862 0
M  V30 1326 N 113.436 6.85727 1.5074 0
M  V30 1327 H 118.276 2.91477 -0.620093 0
M  V30 1328 H 115.813 1.43631 -0.317594 0
M  V30 1329 H 117.771 3.81385 1.6912 0
M  V30 1330 H 116.401 2.67799 1.80232 0
M  V30 1331 H 115.453 3.78805 -0.348023 0
M  V30 1332 H 116.765 4.98235 -0.237423 0
M  V30 1333 H 115.919 5.72897 1.99684 0
M  V30 1334 H 114.658 4.46423 1.9636 0
M  V30 1335 H 113.663 5.49715 -0.0968519 0
M  V30 1336 H 114.888 6.79085 -0.0449341 0
M  V30 1337 H 112.834 6.20735 2.12189 0
M  V30 1338 H 112.751 7.49778 0.967913 0
M  V30 1339 H 114.019 7.4906 2.15706 0
M  V30 1340 N 118.248 0.346503 1.53744 0
M  V30 1341 C 119.494 -0.249473 2.0126 0
M  V30 1342 C 119.827 -1.49965 1.23386 0
M  V30 1343 O 119.102 -1.91811 0.32229 0
M  V30 1344 C 119.385 -0.560643 3.55709 0
M  V30 1345 C 119.238 0.701836 4.44291 0
M  V30 1346 C 120.557 -1.36905 4.18264 0
M  V30 1347 H 117.676 -0.0891987 0.731582 0
M  V30 1348 H 120.318 0.467624 1.84156 0
M  V30 1349 H 118.468 -1.17156 3.70414 0
M  V30 1350 H 120.14 1.33974 4.41417 0
M  V30 1351 H 118.383 1.32612 4.13033 0
M  V30 1352 H 119.054 0.43933 5.50249 0
M  V30 1353 H 121.53 -0.852448 4.07275 0
M  V30 1354 H 120.406 -1.55553 5.26398 0
M  V30 1355 H 120.667 -2.37203 3.73078 0
M  V30 1356 N 119.726 -1.57421 0.075193 0
M  V30 1357 C 121.142 -1.57099 -0.281444 0
M  V30 1358 C 121.342 -1.08486 -1.69803 0
M  V30 1359 O 120.398 -0.752279 -2.41033 0
M  V30 1360 C 121.711 -3.00571 -0.0880041 0
M  V30 1361 C 123.259 -3.12605 -0.157281 0
M  V30 1362 C 123.734 -4.57999 0.0079207 0
M  V30 1363 N 125.225 -4.63176 -0.0475725 0
M  V30 1364 C 125.96 -5.73373 0.0557876 0
M  V30 1365 N 125.456 -6.92473 0.21286 0
M  V30 1366 N 127.249 -5.621 -0.00152098 0
M  V30 1367 H 119.4 -1.87335 1.00098 0
M  V30 1368 H 121.663 -0.86377 0.390646 0
M  V30 1369 H 121.369 -3.40262 0.889629 0
M  V30 1370 H 121.243 -3.67754 -0.838875 0
M  V30 1371 H 123.63 -2.72798 -1.1254 0
M  V30 1372 H 123.711 -2.48053 0.62475 0
M  V30 1373 H 123.355 -4.98496 0.972824 0
M  V30 1374 H 123.285 -5.20586 -0.793556 0
M  V30 1375 H 125.776 -3.7753 -0.167244 0
M  V30 1376 H 126.089 -7.72279 0.283781 0
M  V30 1377 H 124.434 -6.94556 0.248267 0
M  V30 1378 H 127.625 -4.67938 -0.122958 0
M  V30 1379 H 127.798 -6.47948 0.0824844 0
M  V30 1380 N 121.204 0.198386 -1.56346 0
M  V30 1381 C 122.114 1.2664 -1.97483 0
M  V30 1382 C 123.13 1.49989 -0.882002 0
M  V30 1383 O 124.306 1.62668 -1.18748 0
M  V30 1384 C 121.371 2.59141 -2.30319 0
M  V30 1385 C 120.432 2.43892 -3.53292 0
M  V30 1386 C 119.665 3.70074 -3.84553 0
M  V30 1387 O 119.888 4.74101 -3.1715 0
M  V30 1388 O 118.822 3.658 -4.7799 0
M  V30 1389 H 122.648 0.947304 -2.88548 0
M  V30 1390 H 120.233 0.403123 -1.43859 0
M  V30 1391 H 122.115 3.37352 -2.5253 0
M  V30 1392 H 120.79 2.90684 -1.42423 0
M  V30 1393 H 119.697 1.63803 -3.36332 0
M  V30 1394 H 121.03 2.17282 -4.41644 0
M  V30 1395 N 122.682 1.50554 0.465978 0
M  V30 1396 C 123.929 1.61798 1.21768 0
M  V30 1397 C 124.257 0.320696 1.91838 0
M  V30 1398 O 123.512 -0.693724 1.82992 0
M  V30 1399 C 123.811 2.75152 2.28093 0
M  V30 1400 C 123.477 4.15454 1.75239 0
M  V30 1401 C 122.139 4.53628 1.60546 0
M  V30 1402 C 124.491 5.03121 1.36083 0
M  V30 1403 C 121.819 5.77204 1.05128 0
M  V30 1404 C 124.171 6.27249 0.821056 0
M  V30 1405 C 122.835 6.64221 0.660795 0
M  V30 1406 H 122.105 0.592063 0.445582 0
M  V30 1407 H 124.752 1.84503 0.512927 0
M  V30 1408 H 123.057 2.46556 3.04496 0
M  V30 1409 H 124.754 2.81055 2.86023 0
M  V30 1410 H 121.344 3.85341 1.87644 0
M  V30 1411 H 125.528 4.74257 1.46267 0
M  V30 1412 H 120.784 6.0452 0.91462 0
M  V30 1413 H 124.958 6.94537 0.509018 0
M  V30 1414 H 122.585 7.59854 0.229226 0
M  V30 1415 N 124.16 -0.719506 1.40217 0
M  V30 1416 C 125.09 -1.8465 1.42922 0
M  V30 1417 C 126.071 -1.67599 0.29062 0
M  V30 1418 O 127.256 -1.87688 0.498677 0
M  V30 1419 C 124.386 -3.22565 1.28722 0
M  V30 1420 C 123.34 -3.54281 2.40144 0
M  V30 1421 C 122.666 -4.91298 2.11023 0
M  V30 1422 C 123.966 -3.55676 3.82481 0
M  V30 1423 H 125.66 -1.82644 2.37237 0
M  V30 1424 H 123.206 -0.877305 1.1419 0
M  V30 1425 H 125.159 -4.01095 1.29232 0
M  V30 1426 H 123.883 -3.25137 0.308811 0
M  V30 1427 H 122.542 -2.78088 2.38877 0
M  V30 1428 H 122.19 -4.90468 1.11582 0
M  V30 1429 H 121.89 -5.13485 2.8567 0
M  V30 1430 H 123.414 -5.72166 2.13209 0
M  V30 1431 H 124.828 -4.24254 3.85592 0
M  V30 1432 H 123.225 -3.89388 4.56614 0
M  V30 1433 H 124.295 -2.55144 4.12346 0
M  V30 1434 N 125.638 -1.25649 -0.95132 0
M  V30 1435 C 126.915 -1.01361 -1.67288 0
M  V30 1436 C 127.295 0.459135 -2.06046 0
M  V30 1437 O 126.643 1.43723 -1.7764 0
M  V30 1438 C 126.853 -1.95256 -2.89268 0
M  V30 1439 C 128.201 -2.23289 -3.61147 0
M  V30 1440 O 129.225 -1.93041 -2.99355 0
M  V30 1441 O 128.084 -2.74741 -4.72419 0
M  V30 1442 H 125.178 -0.38464 -0.732107 0
M  V30 1443 H 127.724 -1.36817 -1.00395 0
M  V30 1444 H 126.496 -2.94685 -2.57442 0
M  V30 1445 H 126.119 -1.60218 -3.6389 0
M  V30 1446 N 127.117 1.15442 -1.07289 0
M  V30 1447 C 128.08 2.18358 -0.696591 0
M  V30 1448 C 129.08 1.58637 0.262837 0
M  V30 1449 O 130.27 1.74145 0.0438809 0
M  V30 1450 C 127.402 3.4089 -0.0266151 0
M  V30 1451 H 128.595 2.53162 -1.60776 0
M  V30 1452 H 126.148 1.29893 -0.869342 0
M  V30 1453 H 126.883 3.11653 0.896822 0
M  V30 1454 H 126.668 3.85495 -0.716657 0
M  V30 1455 H 128.158 4.17009 0.222028 0
M  V30 1456 N 128.595 0.856903 1.32268 0
M  V30 1457 C 129.505 0.306131 2.32594 0
M  V30 1458 C 130.521 -0.577209 1.64147 0
M  V30 1459 O 131.697 -0.477043 1.95669 0
M  V30 1460 C 128.762 -0.494561 3.43154 0
M  V30 1461 C 127.823 0.415186 4.27288 0
M  V30 1462 C 127.056 -0.347387 5.32568 0
M  V30 1463 O 127.279 -1.57708 5.48165 0
M  V30 1464 O 126.213 0.287982 6.01211 0
M  V30 1465 H 130.039 1.13737 2.81598 0
M  V30 1466 H 127.624 0.619902 1.35932 0
M  V30 1467 H 129.506 -0.948944 4.10576 0
M  V30 1468 H 128.181 -1.30257 2.96336 0
M  V30 1469 H 127.088 0.917793 3.62667 0
M  V30 1470 H 128.421 1.18844 4.77637 0
M  V30 1471 N 130.073 -1.45103 0.615059 0
M  V30 1472 C 130.983 -2.34382 -0.101034 0
M  V30 1473 C 131.999 -1.51681 -0.852585 0
M  V30 1474 O 133.175 -1.8446 -0.808484 0
M  V30 1475 C 130.24 -3.29417 -1.08099 0
M  V30 1476 C 129.301 -4.28025 -0.330577 0
M  V30 1477 C 128.534 -5.1852 -1.26385 0
M  V30 1478 O 128.757 -5.12598 -2.50198 0
M  V30 1479 O 127.691 -5.97122 -0.756866 0
M  V30 1480 H 131.517 -2.97033 0.632855 0
M  V30 1481 H 129.102 -1.4461 0.375293 0
M  V30 1482 H 130.984 -3.87958 -1.6452 0
M  V30 1483 H 129.659 -2.69321 -1.79577 0
M  V30 1484 H 128.566 -3.73078 0.276283 0
M  V30 1485 H 129.899 -4.90997 0.343866 0
M  V30 1486 N 131.551 -0.354651 -1.53558 0
M  V30 1487 C 132.797 0.238797 -2.01389 0
M  V30 1488 C 133.13 1.49309 -1.2418 0
M  V30 1489 O 132.405 1.91638 -0.332457 0
M  V30 1490 C 132.688 0.541771 -3.56001 0
M  V30 1491 C 132.541 -0.725388 -4.43912 0
M  V30 1492 C 133.86 1.34685 -4.18984 0
M  V30 1493 H 130.979 0.0853177 -0.732045 0
M  V30 1494 H 133.621 -0.477384 -1.83905 0
M  V30 1495 H 131.771 1.15189 -3.71031 0
M  V30 1496 H 133.443 -1.36313 -4.407 0
M  V30 1497 H 131.686 -1.34801 -4.12324 0
M  V30 1498 H 132.357 -0.468505 -5.50008 0
M  V30 1499 H 134.833 0.830837 -4.07721 0
M  V30 1500 H 133.709 1.52759 -5.27215 0
M  V30 1501 H 133.97 2.35221 -3.74331 0
M  V30 1502 N 133.029 1.57378 -0.0835403 0
M  V30 1503 C 134.259 1.97975 0.590713 0
M  V30 1504 C 134.667 0.961083 1.62972 0
M  V30 1505 O 134.01 -0.0590879 1.83605 0
M  V30 1506 C 134.072 3.34915 1.3066 0
M  V30 1507 C 133.736 4.55069 0.419698 0
M  V30 1508 C 134.733 5.18868 -0.32749 0
M  V30 1509 C 132.418 5.0114 0.341137 0
M  V30 1510 C 134.412 6.27098 -1.14134 0
M  V30 1511 C 132.099 6.0924 -0.476374 0
M  V30 1512 C 133.097 6.72083 -1.21627 0
M  V30 1513 O 132.785 7.781 -2.02028 0
M  V30 1514 H 132.517 0.655818 0.163947 0
M  V30 1515 H 135.071 2.04807 -0.156021 0
M  V30 1516 H 133.301 3.24733 2.09966 0
M  V30 1517 H 134.99 3.60037 1.87424 0
M  V30 1518 H 135.756 4.84211 -0.276459 0
M  V30 1519 H 131.635 4.51996 0.90668 0
M  V30 1520 H 135.179 6.7608 -1.71935 0
M  V30 1521 H 131.076 6.43329 -0.528927 0
M  V30 1522 H 131.844 7.95034 -1.94586 0
M  V30 1523 N 134.507 -0.190092 1.56449 0
M  V30 1524 C 135.437 -1.23816 1.97969 0
M  V30 1525 C 136.418 -1.47201 0.852395 0
M  V30 1526 O 137.603 -1.58854 1.1171 0
M  V30 1527 C 134.733 -2.5813 2.3235 0
M  V30 1528 C 133.687 -2.49348 3.47864 0
M  V30 1529 C 133.013 -3.8798 3.67934 0
M  V30 1530 C 134.313 -2.01424 4.81898 0
M  V30 1531 H 136.007 -0.89311 2.85769 0
M  V30 1532 H 133.553 -0.428177 1.37487 0
M  V30 1533 H 135.506 -3.31637 2.59991 0
M  V30 1534 H 134.23 -2.94386 1.41438 0
M  V30 1535 H 132.889 -1.78297 3.20321 0
M  V30 1536 H 132.537 -4.21597 2.74344 0
M  V30 1537 H 132.237 -3.82978 4.45648 0
M  V30 1538 H 133.761 -4.63101 3.97957 0
M  V30 1539 H 135.175 -2.64693 5.08538 0
M  V30 1540 H 133.572 -2.07413 5.63116 0
M  V30 1541 H 134.642 -0.967677 4.75146 0
M  V30 1542 N 135.985 -1.50799 -0.457987 0
M  V30 1543 C 137.234 -1.6168 -1.20593 0
M  V30 1544 C 137.547 -0.32888 -1.92815 0
M  V30 1545 O 138.753 -0.316773 -2.69646 0
M  V30 1546 C 137.209 -2.8545 -2.19195 0
M  V30 1547 C 136.817 -4.21168 -1.52715 0
M  V30 1548 C 138.561 -3.05681 -2.94549 0
M  V30 1549 C 136.468 -5.3611 -2.4968 0
M  V30 1550 H 135.398 -0.602134 -0.453818 0
M  V30 1551 H 138.049 -1.77245 -0.475031 0
M  V30 1552 H 136.431 -2.63472 -2.95632 0
M  V30 1553 H 137.605 -4.53449 -0.819775 0
M  V30 1554 H 135.92 -4.06648 -0.895922 0
M  V30 1555 H 138.517 -3.88727 -3.67145 0
M  V30 1556 H 138.86 -2.17929 -3.54701 0
M  V30 1557 H 139.393 -3.27901 -2.25223 0
M  V30 1558 H 136.132 -6.26057 -1.94249 0
M  V30 1559 H 135.652 -5.0823 -3.18532 0
M  V30 1560 H 137.331 -5.6722 -3.11241 0
M  V30 1561 N 137.463 0.71206 -1.40597 0
M  V30 1562 C 138.373 1.8562 -1.43466 0
M  V30 1563 C 139.389 1.70902 -0.326902 0
M  V30 1564 O 140.565 1.93105 -0.572043 0
M  V30 1565 C 137.63 3.21451 -1.29884 0
M  V30 1566 C 136.691 3.48398 -2.50833 0
M  V30 1567 C 135.924 4.77749 -2.3789 0
M  V30 1568 O 136.147 5.53089 -1.39459 0
M  V30 1569 O 135.081 5.05111 -3.27333 0
M  V30 1570 H 138.907 1.86155 -2.39958 0
M  V30 1571 H 136.492 0.86295 -1.21957 0
M  V30 1572 H 138.374 4.02579 -1.24531 0
M  V30 1573 H 137.049 3.21636 -0.364997 0
M  V30 1574 H 135.956 2.67265 -2.61763 0
M  V30 1575 H 137.289 3.53014 -3.4299 0
M  V30 1576 N 138.941 1.26152 0.944643 0
M  V30 1577 C 140.189 1.11271 1.6871 0
M  V30 1578 C 140.51 -0.345166 1.91921 0
M  V30 1579 O 139.78 -1.24387 1.51343 0
M  V30 1580 H 138.36 0.408783 0.625224 0
M  V30 1581 H 141.022 1.58427 1.1352 0
M  V30 1582 H 140.118 1.62879 2.66227 0
M  V30 1583 N 140.419 -1.14872 1.07899 0
M  V30 1584 C 141.696 -1.81928 0.71845 0
M  V30 1585 C 142.076 -1.95417 -0.798455 0
M  V30 1586 O 141.424 -1.50997 -1.715 0
M  V30 1587 C 141.634 -3.17937 1.43935 0
M  V30 1588 C 142.982 -3.93501 1.59506 0
M  V30 1589 O 144.006 -3.27509 1.40058 0
M  V30 1590 O 142.865 -5.1183 1.91551 0
M  V30 1591 H 139.959 -0.78628 0.256305 0
M  V30 1592 H 142.505 -1.21934 1.18026 0
M  V30 1593 H 141.277 -3.0325 2.47295 0
M  V30 1594 H 140.9 -3.85619 0.968687 0
M  V30 1595 N 141.898 -0.863906 -1.31812 0
M  V30 1596 C 142.861 -0.320212 -2.26952 0
M  V30 1597 C 143.861 0.525369 -1.51975 0
M  V30 1598 O 145.051 0.335547 -1.70938 0
M  V30 1599 C 142.183 0.545919 -3.365 0
M  V30 1600 H 143.376 -1.16004 -2.76556 0
M  V30 1601 H 140.929 -0.638995 -1.42641 0
M  V30 1602 H 141.664 1.40718 -2.92179 0
M  V30 1603 H 141.449 -0.0594674 -3.92055 0
M  V30 1604 H 142.939 0.918796 -4.07367 0
M  V30 1605 N 143.376 1.44774 -0.622745 0
M  V30 1606 C 144.601 2.06999 -0.128968 0
M  V30 1607 C 145.026 1.4617 1.1839 0
M  V30 1608 O 144.384 0.560007 1.72434 0
M  V30 1609 C 144.432 3.60595 -0.0188351 0
M  V30 1610 O 143.536 3.99398 1.02739 0
M  V30 1611 H 142.877 0.659047 -0.0809544 0
M  V30 1612 H 145.407 1.85784 -0.85705 0
M  V30 1613 H 145.417 4.07627 0.174476 0
M  V30 1614 H 144.092 4.04252 -0.977384 0
M  V30 1615 H 142.669 3.64011 0.809326 0
M  V30 1616 N 144.854 0.36279 1.53368 0
M  V30 1617 C 146.084 -0.228281 2.05335 0
M  V30 1618 C 146.492 -1.43226 1.23625 0
M  V30 1619 O 145.835 -1.81717 0.269206 0
M  V30 1620 C 145.897 -0.688549 3.52845 0
M  V30 1621 C 145.561 0.398362 4.5526 0
M  V30 1622 C 146.558 1.24732 5.04716 0
M  V30 1623 C 144.243 0.557805 4.99193 0
M  V30 1624 C 146.237 2.2411 5.96702 0
M  V30 1625 C 143.924 1.55495 5.90986 0
M  V30 1626 C 144.922 2.39503 6.39631 0
M  V30 1627 O 144.61 3.37517 7.29615 0
M  V30 1628 H 144.342 -0.044395 0.674541 0
M  V30 1629 H 146.896 0.518668 1.98744 0
M  V30 1630 H 145.126 -1.48706 3.56964 0
M  V30 1631 H 146.815 -1.20231 3.87685 0
M  V30 1632 H 147.581 1.13532 4.71525 0
M  V30 1633 H 143.46 -0.0862959 4.60919 0
M  V30 1634 H 147.004 2.89718 6.34594 0
M  V30 1635 H 142.901 1.66744 6.23592 0
M  V30 1636 H 143.669 3.33213 7.47604 0
M  V30 1637 N 146.332 -1.57332 0.0918853 0
M  V30 1638 C 147.557 -1.98995 -0.584442 0
M  V30 1639 C 147.982 -0.970528 -1.61128 0
M  V30 1640 O 147.34 0.0613904 -1.81196 0
M  V30 1641 C 147.388 -3.39636 -1.21161 0
M  V30 1642 O 146.492 -3.40447 -2.32744 0
M  V30 1643 H 145.833 -0.647165 -0.148572 0
M  V30 1644 H 148.363 -2.03873 0.172347 0
M  V30 1645 H 148.373 -3.7726 -1.55367 0
M  V30 1646 H 147.048 -4.13356 -0.459313 0
M  V30 1647 H 145.625 -3.14614 -2.0018 0
M  V30 1648 N 147.81 0.181792 -1.56548 0
M  V30 1649 C 149.035 0.920019 -1.85877 0
M  V30 1650 C 149.46 1.75494 -0.677021 0
M  V30 1651 O 148.818 1.77399 0.374056 0
M  V30 1652 C 148.866 1.78112 -3.13542 0
M  V30 1653 O 147.97 2.88152 -2.95029 0
M  V30 1654 H 147.311 0.258334 -0.611686 0
M  V30 1655 H 149.841 0.183092 -2.03779 0
M  V30 1656 H 149.851 2.18314 -3.44678 0
M  V30 1657 H 148.526 1.16777 -3.99169 0
M  V30 1658 H 147.103 2.51609 -2.75222 0
M  V30 1659 N 149.288 1.51039 0.449983 0
M  V30 1660 C 150.235 1.71439 1.54523 0
M  V30 1661 C 151.205 0.555871 1.56522 0
M  V30 1662 O 152.39 0.788871 1.73728 0
M  V30 1663 C 149.53 1.83384 2.92343 0
M  V30 1664 C 148.643 3.10873 2.9997 0
M  V30 1665 C 147.778 3.13488 4.28834 0
M  V30 1666 C 146.817 4.35343 4.30282 0
M  V30 1667 N 145.954 4.35579 5.5065 0
M  V30 1668 H 150.794 2.64934 1.36433 0
M  V30 1669 H 148.331 1.31312 0.662982 0
M  V30 1670 H 150.289 1.88291 3.72293 0
M  V30 1671 H 148.919 0.933086 3.0902 0
M  V30 1672 H 147.971 3.15336 2.12761 0
M  V30 1673 H 149.283 4.00814 2.96901 0
M  V30 1674 H 148.437 3.17241 5.17149 0
M  V30 1675 H 147.176 2.21414 4.34543 0
M  V30 1676 H 146.181 4.3178 3.40362 0
M  V30 1677 H 147.406 5.28668 4.26248 0
M  V30 1678 H 145.352 3.46369 5.57104 0
M  V30 1679 H 145.269 5.19313 5.49409 0
M  V30 1680 H 146.537 4.43507 6.41032 0
M  V30 1681 N 150.766 -0.704594 1.40972 0
M  V30 1682 C 152.014 -1.46169 1.39568 0
M  V30 1683 C 152.335 -1.95 0.00253745 0
M  V30 1684 O 151.605 -1.71095 -0.954114 0
M  V30 1685 H 150.185 -0.542326 0.513704 0
M  V30 1686 H 152.847 -0.834553 1.76128 0
M  V30 1687 H 151.943 -2.32922 2.07735 0
M  V30 1688 N 152.244 -1.26651 -0.937939 0
M  V30 1689 C 153.154 -1.10276 -2.07066 0
M  V30 1690 C 154.17 -0.0354197 -1.73964 0
M  V30 1691 O 155.346 -0.239816 -1.99967 0
M  V30 1692 C 152.411 -0.740887 -3.38691 0
M  V30 1693 C 151.472 -1.88799 -3.85556 0
M  V30 1694 C 150.705 -1.54329 -5.10899 0
M  V30 1695 O 150.928 -0.446494 -5.6865 0
M  V30 1696 O 149.862 -2.37911 -5.52885 0
M  V30 1697 H 153.688 -2.05309 -2.23789 0
M  V30 1698 H 151.273 -1.05743 -1.0554 0
M  V30 1699 H 153.155 -0.55195 -4.1777 0
M  V30 1700 H 151.83 0.180022 -3.23199 0
M  V30 1701 H 150.737 -2.13191 -3.07409 0
M  V30 1702 H 152.07 -2.78874 -4.05574 0
M  V30 1703 N 153.722 1.14298 -1.08507 0
M  V30 1704 C 154.669 2.19414 -0.715965 0
M  V30 1705 C 155.639 1.63399 0.298326 0
M  V30 1706 O 156.824 1.89929 0.182101 0
M  V30 1707 C 153.964 3.44845 -0.132534 0
M  V30 1708 C 153.077 4.15007 -1.19973 0
M  V30 1709 C 152.212 5.28024 -0.580048 0
M  V30 1710 C 151.251 5.9002 -1.62921 0
M  V30 1711 N 150.388 6.94485 -1.03125 0
M  V30 1712 H 155.228 2.50336 -1.61666 0
M  V30 1713 H 152.765 1.2293 -0.807882 0
M  V30 1714 H 154.723 4.16601 0.223454 0
M  V30 1715 H 153.353 3.14403 0.731467 0
M  V30 1716 H 152.405 3.41629 -1.67313 0
M  V30 1717 H 153.717 4.57178 -1.99473 0
M  V30 1718 H 152.871 6.06455 -0.172364 0
M  V30 1719 H 151.61 4.87076 0.246603 0
M  V30 1720 H 150.615 5.10291 -2.04654 0
M  V30 1721 H 151.84 6.33042 -2.45835 0
M  V30 1722 H 149.786 6.55612 -0.225711 0
M  V30 1723 H 149.703 7.35148 -1.76334 0
M  V30 1724 H 150.971 7.7679 -0.649458 0
M  V30 1725 N 155.201 0.870884 1.31352 0
M  V30 1726 C 156.131 0.343096 2.30966 0
M  V30 1727 C 157.112 -0.566507 1.60389 0
M  V30 1728 O 158.297 -0.483336 1.88089 0
M  V30 1729 C 155.427 -0.455487 3.443 0
M  V30 1730 C 154.381 0.361103 4.26474 0
M  V30 1731 C 153.707 -0.563221 5.31725 0
M  V30 1732 C 155.007 1.59566 4.97329 0
M  V30 1733 H 156.701 1.17548 2.75359 0
M  V30 1734 H 154.247 0.566686 1.32381 0
M  V30 1735 H 156.2 -0.83525 4.13039 0
M  V30 1736 H 154.924 -1.32139 2.98675 0
M  V30 1737 H 153.583 0.722825 3.59403 0
M  V30 1738 H 153.231 -1.42643 4.82351 0
M  V30 1739 H 152.931 -0.0207409 5.87596 0
M  V30 1740 H 154.455 -0.939808 6.03324 0
M  V30 1741 H 155.869 1.28728 5.58661 0
M  V30 1742 H 154.266 2.07728 5.63 0
M  V30 1743 H 155.336 2.34798 4.24262 0
M  V30 1744 N 156.679 -1.44442 0.630414 0
M  V30 1745 C 157.904 -2.06927 0.139944 0
M  V30 1746 C 158.329 -1.46795 -1.17613 0
M  V30 1747 O 157.687 -0.569144 -1.72135 0
M  V30 1748 C 157.735 -3.6058 0.0379581 0
M  V30 1749 O 156.839 -3.99937 -1.0062 0
M  V30 1750 H 156.18 -0.658608 0.0844483 0
M  V30 1751 H 158.71 -1.85327 0.866891 0
M  V30 1752 H 158.72 -4.07714 -0.152856 0
M  V30 1753 H 157.395 -4.03728 0.998809 0
M  V30 1754 H 155.972 -3.64436 -0.79001 0
M  V30 1755 N 158.157 -0.370918 -1.53173 0
M  V30 1756 C 159.406 0.218249 -2.00516 0
M  V30 1757 C 159.719 1.49429 -1.26215 0
M  V30 1758 O 160.925 2.16239 -1.64174 0
M  V30 1759 C 159.381 0.43948 -3.57207 0
M  V30 1760 C 158.989 -0.822244 -4.4039 0
M  V30 1761 C 160.733 0.986012 -4.1289 0
M  V30 1762 C 158.64 -0.570304 -5.88644 0
M  V30 1763 H 157.57 0.0853333 -0.749156 0
M  V30 1764 H 160.221 -0.490483 -1.76823 0
M  V30 1765 H 158.603 1.20961 -3.77074 0
M  V30 1766 H 159.777 -1.59557 -4.32294 0
M  V30 1767 H 158.092 -1.29238 -3.95836 0
M  V30 1768 H 160.689 1.18991 -5.21292 0
M  V30 1769 H 161.032 1.94972 -3.6782 0
M  V30 1770 H 161.565 0.27592 -3.96842 0
M  V30 1771 H 158.304 -1.50449 -6.38001 0
M  V30 1772 H 157.824 0.164427 -5.99575 0
M  V30 1773 H 159.503 -0.19784 -6.46697 0
M  V30 1774 N 159.635 1.57281 -0.100228 0
M  V30 1775 C 160.912 1.86014 0.604812 0
M  V30 1776 C 161.292 0.998025 1.86018 0
M  V30 1777 O 160.64 0.0718184 2.28387 0
M  V30 1778 C 160.85 3.36784 0.915278 0
M  V30 1779 C 162.198 4.04957 1.27651 0
M  V30 1780 O 163.222 3.41695 1.00613 0
M  V30 1781 O 162.081 5.16593 1.7831 0
M  V30 1782 H 159.175 0.76942 0.303185 0
M  V30 1783 H 161.721 1.69176 -0.133313 0
M  V30 1784 H 160.493 3.91292 0.0248896 0
M  V30 1785 H 160.116 3.58987 1.70921 0
M  V30 1786 N 161.113 -0.173488 1.56642 0
M  V30 1787 C 162.023 -1.23482 1.99473 0
M  V30 1788 C 163.039 -1.48567 0.905752 0
M  V30 1789 O 164.215 -1.60758 1.21321 0
M  V30 1790 C 161.28 -2.55444 2.34413 0
M  V30 1791 C 160.341 -2.38241 3.57127 0
M  V30 1792 C 159.574 -3.63909 3.90392 0
M  V30 1793 O 159.797 -4.68996 3.24653 0
M  V30 1794 O 158.731 -3.58149 4.83749 0
M  V30 1795 H 162.557 -0.901279 2.90018 0
M  V30 1796 H 160.142 -0.380185 1.44482 0
M  V30 1797 H 162.024 -3.33292 2.57865 0
M  V30 1798 H 160.699 -2.88382 1.4703 0
M  V30 1799 H 159.606 -1.58431 3.38896 0
M  V30 1800 H 160.939 -2.10228 4.45045 0
M  V30 1801 N 162.591 -1.51276 -0.441967 0
M  V30 1802 C 163.84 -1.6295 -1.18871 0
M  V30 1803 C 164.153 -0.349312 -1.92456 0
M  V30 1804 O 165.359 -0.345355 -2.69295 0
M  V30 1805 C 163.815 -2.87759 -2.16155 0
M  V30 1806 C 163.423 -4.22764 -1.48239 0
M  V30 1807 C 165.167 -3.08788 -2.91291 0
M  V30 1808 C 163.074 -5.38728 -2.4398 0
M  V30 1809 H 162.004 -0.606913 -0.447406 0
M  V30 1810 H 164.655 -1.77739 -0.456205 0
M  V30 1811 H 163.037 -2.66593 -2.92821 0
M  V30 1812 H 164.211 -4.54293 -0.771635 0
M  V30 1813 H 162.526 -4.07575 -0.852741 0
M  V30 1814 H 165.123 -3.92599 -3.63002 0
M  V30 1815 H 165.466 -2.21679 -3.5237 0
M  V30 1816 H 165.999 -3.30272 -2.21733 0
M  V30 1817 H 162.738 -6.28082 -1.87598 0
M  V30 1818 H 162.258 -5.1158 -3.13123 0
M  V30 1819 H 163.937 -5.70489 -3.05207 0
M  V30 1820 N 164.069 0.697108 -1.41344 0
M  V30 1821 C 165.016 1.81106 -1.43071 0
M  V30 1822 C 165.986 1.63632 -0.285275 0
M  V30 1823 O 167.171 1.84504 -0.486091 0
M  V30 1824 C 164.311 3.18975 -1.31715 0
M  V30 1825 C 163.424 3.47892 -2.56115 0
M  V30 1826 C 162.559 4.75367 -2.37064 0
M  V30 1827 C 161.598 4.97247 -3.56948 0
M  V30 1828 N 160.735 6.15947 -3.36977 0
M  V30 1829 H 165.575 1.78965 -2.38276 0
M  V30 1830 H 163.112 0.873975 -1.18322 0
M  V30 1831 H 165.07 3.98615 -1.23133 0
M  V30 1832 H 163.7 3.20297 -0.401183 0
M  V30 1833 H 162.752 2.62669 -2.75153 0
M  V30 1834 H 164.064 3.59962 -3.45295 0
M  V30 1835 H 163.218 5.63059 -2.25941 0
M  V30 1836 H 161.957 4.65541 -1.45338 0
M  V30 1837 H 160.962 4.08004 -3.68527 0
M  V30 1838 H 162.187 5.08934 -4.49626 0
M  V30 1839 H 160.133 6.07336 -2.47949 0
M  V30 1840 H 160.05 6.28777 -4.19732 0
M  V30 1841 H 161.318 7.06377 -3.29623 0
M  V30 1842 N 165.547 1.27147 0.931209 0
M  V30 1843 C 166.494 1.09568 2.03134 0
M  V30 1844 C 167.464 -0.00222433 1.661 0
M  V30 1845 O 168.649 0.159439 1.90133 0
M  V30 1846 C 165.789 0.745231 3.36957 0
M  V30 1847 C 164.902 1.92041 3.86968 0
M  V30 1848 C 164.037 1.51216 5.09222 0
M  V30 1849 C 163.076 2.65504 5.5152 0
M  V30 1850 N 162.213 2.25291 6.64972 0
M  V30 1851 H 167.053 2.03708 2.17502 0
M  V30 1852 H 164.59 1.01411 1.06556 0
M  V30 1853 H 166.548 0.522878 4.1391 0
M  V30 1854 H 165.178 -0.159202 3.22407 0
M  V30 1855 H 164.23 2.25541 3.06326 0
M  V30 1856 H 165.542 2.77787 4.1429 0
M  V30 1857 H 164.696 1.25084 5.93666 0
M  V30 1858 H 163.435 0.625749 4.83669 0
M  V30 1859 H 162.44 2.92354 4.65628 0
M  V30 1860 H 163.665 3.54761 5.7907 0
M  V30 1861 H 161.611 1.39098 6.41083 0
M  V30 1862 H 161.528 3.04577 6.91931 0
M  V30 1863 H 162.796 2.02398 7.52765 0
M  V30 1864 N 167.025 -1.13721 1.09112 0
M  V30 1865 C 167.972 -2.19031 0.727591 0
M  V30 1866 C 168.942 -1.63555 -0.289656 0
M  V30 1867 O 170.127 -1.90023 -0.172026 0
M  V30 1868 C 167.267 -3.4477 0.15082 0
M  V30 1869 C 166.38 -4.14365 1.22172 0
M  V30 1870 C 165.515 -5.27709 0.608042 0
M  V30 1871 C 164.554 -5.89147 1.66047 0
M  V30 1872 N 163.691 -6.93929 1.06806 0
M  V30 1873 H 168.531 -2.49475 1.62991 0
M  V30 1874 H 166.068 -1.22499 0.81439 0
M  V30 1875 H 168.026 -4.16714 -0.201358 0
M  V30 1876 H 166.656 -3.14787 -0.714783 0
M  V30 1877 H 165.708 -3.40737 1.69122 0
M  V30 1878 H 167.02 -4.56114 2.01895 0
M  V30 1879 H 166.174 -6.06355 0.204523 0
M  V30 1880 H 164.913 -4.872 -0.220769 0
M  V30 1881 H 163.918 -5.09198 2.07357 0
M  V30 1882 H 165.143 -6.31729 2.49189 0
M  V30 1883 H 163.089 -6.55483 0.260476 0
M  V30 1884 H 163.006 -7.34202 1.8023 0
M  V30 1885 H 164.274 -7.76434 0.690644 0
M  V30 1886 N 168.503 -0.877838 -1.30888 0
M  V30 1887 C 169.453 -0.310872 -2.25871 0
M  V30 1888 C 170.437 0.556596 -1.50966 0
M  V30 1889 O 171.629 0.402187 -1.7237 0
M  V30 1890 C 168.758 0.479821 -3.3993 0
M  V30 1891 C 167.844 -0.401333 -4.22197 0
M  V30 1892 N 168.235 -1.49848 -4.83093 0
M  V30 1893 C 166.533 -0.195167 -4.45573 0
M  V30 1894 C 167.234 -2.0425 -5.44662 0
M  V30 1895 N 166.21 -1.33843 -5.26865 0
M  V30 1896 H 170.012 -1.1493 -2.70496 0
M  V30 1897 H 167.526 -0.726458 -1.45246 0
M  V30 1898 H 169.523 0.902582 -4.07012 0
M  V30 1899 H 168.183 1.31577 -2.96846 0
M  V30 1900 H 169.194 -1.88137 -4.82519 0
M  V30 1901 H 165.871 0.604192 -4.13105 0
M  V30 1902 H 167.261 -2.96345 -6.03017 0
M  V30 1903 N 169.982 1.44106 -0.638065 0
M  V30 1904 C 171.393 1.85316 -0.226894 0
M  V30 1905 C 171.744 1.53399 1.22324 0
M  V30 1906 O 170.869 0.975463 1.93167 0
M  V30 1907 C 171.464 3.3637 -0.405013 0
M  V30 1908 C 170.023 3.76369 -0.0482902 0
M  V30 1909 C 169.17 2.67921 -0.715108 0
M  V30 1910 H 172.121 1.34474 -0.842764 0
M  V30 1911 H 172.142 3.7885 0.354 0
M  V30 1912 H 171.654 3.59569 -1.46053 0
M  V30 1913 H 169.755 3.58784 1.00522 0
M  V30 1914 H 169.868 4.76856 -0.463187 0
M  V30 1915 H 168.232 2.54259 -0.149753 0
M  V30 1916 H 169.015 2.93951 -1.77335 0
M  V30 1917 N 171.46 0.379036 1.52974 0
M  V30 1918 C 172.708 -0.206014 2.01047 0
M  V30 1919 C 173.029 -1.48175 1.26765 0
M  V30 1920 O 172.299 -1.92085 0.384743 0
M  V30 1921 H 170.879 -0.0791184 0.742798 0
M  V30 1922 H 173.541 0.508366 1.88153 0
M  V30 1923 H 172.637 -0.423501 3.09213 0
M  V30 1924 N 172.938 -1.57226 0.108567 0
M  V30 1925 C 173.901 -2.13602 -0.831082 0
M  V30 1926 C 174.901 -1.06841 -1.20173 0
M  V30 1927 O 176.091 -1.32666 -1.12895 0
M  V30 1928 C 173.223 -2.66769 -2.12243 0
M  V30 1929 H 174.416 -2.97951 -0.341317 0
M  V30 1930 H 171.969 -1.55667 -0.14057 0
M  V30 1931 H 172.704 -1.85977 -2.65675 0
M  V30 1932 H 172.489 -3.44839 -1.86625 0
M  V30 1933 H 173.979 -3.10332 -2.79435 0
M  V30 1934 N 174.416 0.165178 -1.56732 0
M  V30 1935 C 175.641 0.900253 -1.86843 0
M  V30 1936 C 176.066 1.74766 -0.695596 0
M  V30 1937 O 175.424 1.77786 0.35522 0
M  V30 1938 C 175.472 1.74777 -3.15413 0
M  V30 1939 O 174.576 2.85007 -2.98068 0
M  V30 1940 H 173.917 0.251832 -0.614391 0
M  V30 1941 H 176.447 0.161468 -2.03962 0
M  V30 1942 H 176.457 2.14646 -3.46974 0
M  V30 1943 H 175.132 1.12537 -4.00385 0
M  V30 1944 H 173.709 2.48676 -2.77875 0
M  V30 1945 N 175.894 1.51508 0.433938 0
M  V30 1946 C 177.14 1.64588 1.18484 0
M  V30 1947 C 177.473 0.362666 1.90784 0
M  V30 1948 O 176.748 -0.637892 1.83742 0
M  V30 1949 C 177.031 2.85149 2.19913 0
M  V30 1950 C 176.884 4.23456 1.51674 0
M  V30 1951 C 178.203 3.01227 3.20858 0
M  V30 1952 H 175.322 0.598994 0.429389 0
M  V30 1953 H 177.964 1.84002 0.473647 0
M  V30 1954 H 176.114 2.68729 2.80566 0
M  V30 1955 H 177.786 4.51552 0.943322 0
M  V30 1956 H 176.029 4.25998 0.819035 0
M  V30 1957 H 176.7 5.03812 2.2556 0
M  V30 1958 H 179.176 3.16382 2.70263 0
M  V30 1959 H 178.052 3.87141 3.89118 0
M  V30 1960 H 178.313 2.13447 3.8716 0
M  V30 1961 N 177.372 -0.689602 1.41712 0
M  V30 1962 C 178.788 -1.00093 1.24312 0
M  V30 1963 C 178.988 -2.01036 0.136729 0
M  V30 1964 O 178.044 -2.47562 -0.496918 0
M  V30 1965 C 179.357 -1.51985 2.59463 0
M  V30 1966 C 180.905 -1.63838 2.66695 0
M  V30 1967 C 181.38 -2.1913 4.02177 0
M  V30 1968 N 182.871 -2.26483 4.04054 0
M  V30 1969 C 183.606 -2.70306 5.0569 0
M  V30 1970 N 183.102 -3.13691 6.17713 0
M  V30 1971 N 184.895 -2.69923 4.9305 0
M  V30 1972 H 177.046 -0.0210029 2.1239 0
M  V30 1973 H 179.309 -0.0718733 0.945272 0
M  V30 1974 H 179.015 -0.85269 3.41207 0
M  V30 1975 H 178.889 -2.50103 2.82362 0
M  V30 1976 H 181.276 -2.29664 1.85306 0
M  V30 1977 H 181.357 -0.642492 2.476 0
M  V30 1978 H 181.001 -1.53918 4.84016 0
M  V30 1979 H 180.931 -3.19482 4.18615 0
M  V30 1980 H 183.422 -1.95874 3.23174 0
M  V30 1981 H 183.735 -3.45773 6.9113 0
M  V30 1982 H 182.08 -3.11585 6.21241 0
M  V30 1983 H 185.271 -2.35382 4.04614 0
M  V30 1984 H 185.444 -3.03758 5.72394 0
M  V30 1985 N 178.85 -1.27639 -0.924453 0
M  V30 1986 C 179.76 -1.12466 -2.05885 0
M  V30 1987 C 180.776 -0.053869 -1.73917 0
M  V30 1988 O 181.952 -0.261012 -1.99702 0
M  V30 1989 C 179.017 -0.776768 -3.37886 0
M  V30 1990 C 178.078 -1.92878 -3.83532 0
M  V30 1991 C 177.311 -1.59739 -5.09234 0
M  V30 1992 O 177.534 -0.506782 -5.68144 0
M  V30 1993 O 176.468 -2.43761 -5.50331 0
M  V30 1994 H 180.294 -2.07671 -2.21599 0
M  V30 1995 H 177.879 -1.06857 -1.04413 0
M  V30 1996 H 179.761 -0.596229 -4.17161 0
M  V30 1997 H 178.436 0.145732 -3.23372 0
M  V30 1998 H 177.343 -2.1644 -3.0513 0
M  V30 1999 H 178.676 -2.8316 -4.02593 0
M  V30 2000 N 180.328 1.1314 -1.09713 0
M  V30 2001 C 181.574 1.84967 -0.846104 0
M  V30 2002 C 181.929 1.82082 0.621601 0
M  V30 2003 O 181.222 1.2501 1.452 0
M  V30 2004 C 181.416 3.32167 -1.3191 0
M  V30 2005 C 181.245 3.49386 -2.83125 0
M  V30 2006 C 180.015 3.63456 -3.51038 0
M  V30 2007 C 182.213 3.45179 -3.81256 0
M  V30 2008 N 180.195 3.68966 -4.9065 0
M  V30 2009 C 181.566 3.57094 -5.06837 0
M  V30 2010 C 183.621 3.28598 -3.74069 0
M  V30 2011 C 182.324 3.5414 -6.26081 0
M  V30 2012 C 184.35 3.26953 -4.92804 0
M  V30 2013 C 183.712 3.39422 -6.17229 0
M  V30 2014 H 179.811 0.692899 -0.362512 0
M  V30 2015 H 182.395 1.35506 -1.39808 0
M  V30 2016 H 180.566 3.80186 -0.794535 0
M  V30 2017 H 182.298 3.91815 -1.01308 0
M  V30 2018 H 179.053 3.65256 -3.01471 0
M  V30 2019 H 179.477 3.75404 -5.63383 0
M  V30 2020 H 184.119 3.17858 -2.78794 0
M  V30 2021 H 181.837 3.63653 -7.21653 0
M  V30 2022 H 185.423 3.15316 -4.88945 0
M  V30 2023 H 184.303 3.38114 -7.07565 0
M  V30 2024 N 181.806 0.884767 1.30421 0
M  V30 2025 C 183.222 0.57874 1.48737 0
M  V30 2026 C 183.422 -0.883567 1.81095 0
M  V30 2027 O 182.478 -1.6648 1.89844 0
M  V30 2028 C 183.791 1.49171 2.61091 0
M  V30 2029 C 185.339 1.49532 2.74971 0
M  V30 2030 C 185.814 2.39421 3.90438 0
M  V30 2031 N 187.305 2.37383 3.97748 0
M  V30 2032 C 188.04 3.03647 4.86401 0
M  V30 2033 N 187.536 3.79136 5.79852 0
M  V30 2034 N 189.329 2.9288 4.79768 0
M  V30 2035 H 181.48 1.83075 1.0769 0
M  V30 2036 H 183.743 0.783637 0.533495 0
M  V30 2037 H 183.449 2.53291 2.44001 0
M  V30 2038 H 183.323 1.20113 3.57565 0
M  V30 2039 H 185.71 0.46163 2.91467 0
M  V30 2040 H 185.791 1.8262 1.79119 0
M  V30 2041 H 185.435 3.42874 3.74699 0
M  V30 2042 H 185.365 2.03649 4.85628 0
M  V30 2043 H 187.856 1.82525 3.30897 0
M  V30 2044 H 188.169 4.26789 6.4426 0
M  V30 2045 H 186.514 3.83243 5.79784 0
M  V30 2046 H 189.705 2.33433 4.05742 0
M  V30 2047 H 189.878 3.448 5.4865 0
M  V30 2048 N 183.284 -1.43765 0.645699 0
M  V30 2049 C 184.232 -2.32516 -0.0624849 0
M  V30 2050 C 185.226 -1.48183 -0.820855 0
M  V30 2051 O 186.432 -1.64439 -0.732106 0
M  V30 2052 H 182.807 -0.750989 -0.0389864 0
M  V30 2053 H 184.778 -2.89979 0.703892 0
M  V30 2054 C 183.527 -3.32389 -1.02044 0
M  V30 2055 H 182.85 -3.97301 -0.446312 0
M  V30 2056 H 184.29 -3.97138 -1.48517 0
M  V30 2057 C 182.749 -2.62416 -2.11281 0
M  V30 2058 O 183.279 -2.434 -3.19561 0
M  V30 2059 N 181.485 -2.21913 -1.87624 0
M  V30 2060 H 181.032 -2.37578 -0.995703 0
M  V30 2061 H 180.99 -1.75424 -2.6091 0
M  V30 2062 N 184.763 -0.387143 -1.52771 0
M  V30 2063 C 185.71 0.449048 -2.26389 0
M  V30 2064 C 186.68 1.05961 -1.27912 0
M  V30 2065 O 187.865 1.08804 -1.56737 0
M  V30 2066 C 185.005 1.57155 -3.0724 0
M  V30 2067 C 184.118 0.984066 -4.20643 0
M  V30 2068 C 183.253 2.07745 -4.88892 0
M  V30 2069 C 182.292 1.46574 -5.94292 0
M  V30 2070 N 181.429 2.49834 -6.56146 0
M  V30 2071 H 186.269 -0.185205 -2.97424 0
M  V30 2072 H 183.806 -0.103164 -1.46738 0
M  V30 2073 H 185.764 2.23309 -3.52405 0
M  V30 2074 H 184.394 2.17615 -2.38419 0
M  V30 2075 H 183.446 0.212193 -3.79808 0
M  V30 2076 H 184.758 0.497029 -4.96318 0
M  V30 2077 H 183.912 2.81673 -5.3735 0
M  V30 2078 H 182.651 2.59807 -4.12737 0
M  V30 2079 H 181.656 0.711696 -5.45174 0
M  V30 2080 H 182.881 0.953088 -6.72379 0
M  V30 2081 H 180.827 3.0107 -5.82832 0
M  V30 2082 H 180.744 2.05879 -7.27427 0
M  V30 2083 H 182.012 3.23399 -7.09249 0
M  V30 2084 N 186.241 1.57166 -0.116904 0
M  V30 2085 C 187.171 2.18222 0.830759 0
M  V30 2086 C 188.152 1.12167 1.27877 0
M  V30 2087 O 189.337 1.40394 1.34176 0
M  V30 2088 C 186.467 2.77996 2.08172 0
M  V30 2089 C 185.421 3.89614 1.77157 0
M  V30 2090 C 184.747 4.36187 3.09265 0
M  V30 2091 C 186.047 5.1181 1.04151 0
M  V30 2092 H 187.741 2.97664 0.321992 0
M  V30 2093 H 185.287 1.4318 0.153434 0
M  V30 2094 H 187.24 3.19366 2.74924 0
M  V30 2095 H 185.964 1.9584 2.6137 0
M  V30 2096 H 184.623 3.48816 1.12796 0
M  V30 2097 H 184.271 3.50893 3.60393 0
M  V30 2098 H 183.971 5.11455 2.89288 0
M  V30 2099 H 185.495 4.80207 3.77139 0
M  V30 2100 H 186.909 5.50214 1.61052 0
M  V30 2101 H 185.306 5.92648 0.942762 0
M  V30 2102 H 186.376 4.84892 0.0279022 0
M  V30 2103 N 187.719 -0.156864 1.56817 0
M  V30 2104 C 188.669 -1.19891 1.93934 0
M  V30 2105 C 189.653 -1.39061 0.809372 0
M  V30 2106 O 190.845 -1.40789 1.07273 0
M  V30 2107 C 187.974 -2.53493 2.31508 0
M  V30 2108 C 187.06 -2.37957 3.51052 0
M  V30 2109 N 187.451 -1.92158 4.67877 0
M  V30 2110 C 185.749 -2.68739 3.55943 0
M  V30 2111 C 186.45 -1.8943 5.49992 0
M  V30 2112 N 185.426 -2.32375 4.91429 0
M  V30 2113 H 189.228 -0.836746 2.81737 0
M  V30 2114 H 186.742 -0.365012 1.58245 0
M  V30 2115 H 188.739 -3.28811 2.56299 0
M  V30 2116 H 187.399 -2.905 1.45051 0
M  V30 2117 H 188.41 -1.62274 4.91821 0
M  V30 2118 H 185.087 -3.09687 2.80001 0
M  V30 2119 H 186.477 -1.55596 6.53636 0
M  V30 2120 N 189.197 -1.51736 -0.425897 0
M  V30 2121 C 190.127 -1.76827 -1.52494 0
M  V30 2122 C 191.108 -0.618524 -1.58456 0
M  V30 2123 O 192.293 -0.862416 -1.74 0
M  V30 2124 C 189.423 -1.90374 -2.90474 0
M  V30 2125 C 188.377 -3.0588 -2.99369 0
M  V30 2126 C 187.703 -3.04625 -4.3944 0
M  V30 2127 C 189.003 -4.45644 -2.72394 0
M  V30 2128 H 190.697 -2.68855 -1.31748 0
M  V30 2129 H 188.243 -1.29372 -0.632362 0
M  V30 2130 H 190.196 -2.0651 -3.6733 0
M  V30 2131 H 188.92 -0.95004 -3.12477 0
M  V30 2132 H 187.579 -2.89467 -2.24954 0
M  V30 2133 H 187.227 -2.0701 -4.58428 0
M  V30 2134 H 186.927 -3.82195 -4.46319 0
M  V30 2135 H 188.451 -3.22869 -5.18255 0
M  V30 2136 H 189.865 -4.62348 -3.38979 0
M  V30 2137 H 188.262 -5.25006 -2.9067 0
M  V30 2138 H 189.332 -4.54893 -1.67929 0
M  V30 2139 N 190.675 0.682077 -1.42076 0
M  V30 2140 C 191.921 1.44428 -1.42367 0
M  V30 2141 C 192.254 1.94164 -0.0373056 0
M  V30 2142 O 191.529 1.70429 0.937239 0
M  V30 2143 C 191.812 2.64654 -2.44194 0
M  V30 2144 C 191.665 2.20596 -3.91991 0
M  V30 2145 C 192.984 3.66865 -2.431 0
M  V30 2146 H 190.103 0.523834 -0.518428 0
M  V30 2147 H 192.745 0.77576 -1.73442 0
M  V30 2148 H 190.895 3.2169 -2.17826 0
M  V30 2149 H 192.567 1.68783 -4.29313 0
M  V30 2150 H 190.81 1.52242 -4.06208 0
M  V30 2151 H 191.481 3.06921 -4.58807 0
M  V30 2152 H 193.957 3.19531 -2.66532 0
M  V30 2153 H 192.833 4.48577 -3.16339 0
M  V30 2154 H 193.094 4.17493 -1.45437 0
M  V30 2155 N 192.153 1.28127 0.917671 0
M  V30 2156 C 193.399 1.15223 1.66888 0
M  V30 2157 C 193.732 -0.299293 1.9188 0
M  V30 2158 O 193.007 -1.21805 1.51637 0
M  V30 2159 C 193.29 1.94706 3.02922 0
M  V30 2160 C 193.143 3.47898 2.85109 0
M  V30 2161 C 194.462 1.75939 4.03402 0
M  V30 2162 H 191.581 0.419946 0.605652 0
M  V30 2163 H 194.223 1.57398 1.06423 0
M  V30 2164 H 192.373 1.58864 3.54534 0
M  V30 2165 H 194.045 3.93624 2.40537 0
M  V30 2166 H 192.288 3.7373 2.20246 0
M  V30 2167 H 192.959 3.98765 3.81694 0
M  V30 2168 H 195.435 2.07209 3.60837 0
M  V30 2169 H 194.311 2.33931 4.96556 0
M  V30 2170 H 194.572 0.709877 4.36364 0
M  V30 2171 N 193.631 -1.12557 1.10312 0
M  V30 2172 C 194.877 -1.84311 0.846011 0
M  V30 2173 C 195.21 -1.83805 -0.626859 0
M  V30 2174 O 194.485 -1.28268 -1.46211 0
M  V30 2175 C 194.768 -3.32048 1.39341 0
M  V30 2176 C 194.621 -3.41016 2.93305 0
M  V30 2177 C 195.94 -4.27764 1.03468 0
M  V30 2178 H 193.059 -0.669192 0.30879 0
M  V30 2179 H 195.701 -1.32057 1.36605 0
M  V30 2180 H 193.851 -3.76678 0.951087 0
M  V30 2181 H 195.523 -3.05031 3.46055 0
M  V30 2182 H 193.766 -2.81603 3.29973 0
M  V30 2183 H 194.437 -4.44948 3.26689 0
M  V30 2184 H 196.913 -3.91253 1.41633 0
M  V30 2185 H 195.789 -5.29549 1.44463 0
M  V30 2186 H 196.05 -4.42064 -0.0560404 0
M  V30 2187 N 195.109 -0.891671 -1.2995 0
M  V30 2188 C 196.525 -0.58662 -1.48428 0
M  V30 2189 C 196.725 0.873951 -1.81561 0
M  V30 2190 O 195.781 1.65471 -1.90724 0
M  V30 2191 C 197.094 -1.50553 -2.60296 0
M  V30 2192 C 198.642 -1.50988 -2.74175 0
M  V30 2193 C 199.117 -2.41488 -3.89163 0
M  V30 2194 N 200.608 -2.39489 -3.96483 0
M  V30 2195 C 201.343 -3.06223 -4.84784 0
M  V30 2196 N 200.839 -3.82206 -5.77833 0
M  V30 2197 N 202.632 -2.95421 -4.78208 0
M  V30 2198 H 194.783 -1.83644 -1.06718 0
M  V30 2199 H 197.046 -0.786455 -0.529332 0
M  V30 2200 H 196.752 -2.54581 -2.42654 0
M  V30 2201 H 196.626 -1.22008 -3.56923 0
M  V30 2202 H 199.013 -0.47708 -2.91218 0
M  V30 2203 H 199.094 -1.83567 -1.78148 0
M  V30 2204 H 198.738 -3.44857 -3.72876 0
M  V30 2205 H 198.668 -2.06222 -4.84541 0
M  V30 2206 H 201.159 -1.84278 -3.29924 0
M  V30 2207 H 201.472 -4.302 -6.41988 0
M  V30 2208 H 199.817 -3.86313 -5.77743 0
M  V30 2209 H 203.008 -2.35581 -4.04499 0
M  V30 2210 H 203.181 -3.47704 -5.46814 0
M  V30 2211 N 196.587 1.43421 -0.653314 0
M  V30 2212 C 197.497 2.34568 0.0388565 0
M  V30 2213 C 198.513 1.53888 0.81207 0
M  V30 2214 O 199.689 1.86539 0.759294 0
M  V30 2215 C 196.754 3.32167 0.993269 0
M  V30 2216 C 195.815 4.28751 0.216977 0
M  V30 2217 C 195.048 5.21688 1.12593 0
M  V30 2218 O 195.271 5.19052 2.36519 0
M  V30 2219 O 194.205 5.98919 0.598284 0
M  V30 2220 H 198.031 2.95251 -0.711386 0
M  V30 2221 H 195.616 1.43564 -0.413502 0
M  V30 2222 H 197.498 3.92183 1.54176 0
M  V30 2223 H 196.173 2.73987 1.72374 0
M  V30 2224 H 195.08 3.72215 -0.375101 0
M  V30 2225 H 196.413 4.89913 -0.473924 0
M  V30 2226 N 198.065 0.39524 1.52563 0
M  V30 2227 C 199.313 -0.184678 2.01254 0
M  V30 2228 C 199.634 -1.46822 1.28329 0
M  V30 2229 O 198.904 -1.91666 0.405094 0
M  V30 2230 H 197.484 -0.0712355 0.743596 0
M  V30 2231 H 200.146 0.528293 1.87603 0
M  V30 2232 H 199.242 -0.390681 3.09645 0
M  V30 2233 N 199.544 -1.57102 0.125237 0
M  V30 2234 C 200.507 -2.14471 -0.80838 0
M  V30 2235 C 201.507 -1.0811 -1.19033 0
M  V30 2236 O 202.697 -1.33856 -1.11482 0
M  V30 2237 C 199.829 -2.69005 -2.09402 0
M  V30 2238 H 201.022 -2.98297 -0.309696 0
M  V30 2239 H 198.575 -1.55807 -0.124051 0
M  V30 2240 H 199.31 -1.88785 -2.63687 0
M  V30 2241 H 199.095 -3.46799 -1.82957 0
M  V30 2242 H 200.585 -3.13278 -2.76128 0
M  V30 2243 N 201.022 0.148545 -1.56898 0
M  V30 2244 C 202.269 0.861418 -1.83264 0
M  V30 2245 C 202.597 1.81239 -0.705883 0
M  V30 2246 O 201.852 1.93305 0.305212 0
M  V30 2247 C 202.151 1.67064 -3.1595 0
M  V30 2248 C 201.817 0.866591 -4.42494 0
M  V30 2249 C 200.479 0.644762 -4.76861 0
M  V30 2250 C 202.831 0.30418 -5.20312 0
M  V30 2251 C 200.159 -0.15021 -5.86508 0
M  V30 2252 C 202.511 -0.477824 -6.30793 0
M  V30 2253 C 201.175 -0.710244 -6.63711 0
M  V30 2254 H 200.445 0.315215 -0.670612 0
M  V30 2255 H 203.092 0.125142 -1.91091 0
M  V30 2256 H 201.397 2.47698 -3.03567 0
M  V30 2257 H 203.094 2.22566 -3.33565 0
M  V30 2258 H 199.684 1.04955 -4.15551 0
M  V30 2259 H 203.868 0.462844 -4.94137 0
M  V30 2260 H 199.124 -0.339796 -6.10455 0
M  V30 2261 H 203.298 -0.92076 -6.90286 0
M  V30 2262 H 200.925 -1.3281 -7.48509 0
M  V30 2263 N 202.5 1.5196 0.417844 0
M  V30 2264 C 203.777 1.56146 1.17803 0
M  V30 2265 C 204.157 0.337275 2.08388 0
M  V30 2266 O 203.505 -0.676447 2.18258 0
M  V30 2267 C 203.715 2.88566 1.96293 0
M  V30 2268 C 205.063 3.41244 2.52662 0
M  V30 2269 O 206.087 2.90247 2.06483 0
M  V30 2270 O 204.946 4.30273 3.36938 0
M  V30 2271 H 202.04 0.628598 0.537395 0
M  V30 2272 H 204.586 1.64283 0.425331 0
M  V30 2273 H 203.358 3.69116 1.2988 0
M  V30 2274 H 202.981 2.83681 2.78587 0
M  V30 2275 N 203.978 -0.674533 1.42435 0
M  V30 2276 C 204.888 -1.81751 1.48337 0
M  V30 2277 C 205.904 -1.69975 0.372099 0
M  V30 2278 O 207.08 -1.91521 0.62304 0
M  V30 2279 C 204.145 -3.17895 1.38361 0
M  V30 2280 C 203.206 -3.41625 2.59982 0
M  V30 2281 C 202.439 -4.71274 2.50473 0
M  V30 2282 O 202.662 -5.49197 1.54075 0
M  V30 2283 O 201.596 -4.96254 3.4061 0
M  V30 2284 H 205.422 -1.79728 2.44809 0
M  V30 2285 H 203.007 -0.830312 1.24202 0
M  V30 2286 H 204.889 -3.99136 1.35161 0
M  V30 2287 H 203.564 -3.20555 0.450144 0
M  V30 2288 H 202.471 -2.60231 2.68757 0
M  V30 2289 H 203.804 -3.43796 3.52229 0
M  V30 2290 N 205.456 -1.28612 -0.910864 0
M  V30 2291 C 206.366 -1.14643 -2.0468 0
M  V30 2292 C 207.382 -0.0723121 -1.7385 0
M  V30 2293 O 208.558 -0.282178 -1.99413 0
M  V30 2294 C 205.623 -0.812561 -3.37044 0
M  V30 2295 C 204.684 -1.96935 -3.81465 0
M  V30 2296 C 203.917 -1.65131 -5.07511 0
M  V30 2297 O 204.14 -0.567013 -5.67575 0
M  V30 2298 O 203.074 -2.49585 -5.47714 0
M  V30 2299 H 206.9 -2.1001 -2.19384 0
M  V30 2300 H 204.485 -1.07958 -1.03274 0
M  V30 2301 H 206.367 -0.640441 -4.16505 0
M  V30 2302 H 205.042 0.111426 -3.23508 0
M  V30 2303 H 203.949 -2.19664 -3.02818 0
M  V30 2304 H 205.282 -2.87414 -3.99567 0
M  V30 2305 N 206.934 1.1197 -1.10907 0
M  V30 2306 C 207.844 2.21433 -0.774896 0
M  V30 2307 C 208.86 1.72478 0.229657 0
M  V30 2308 O 210.036 2.01288 0.0672008 0
M  V30 2309 C 207.101 3.4602 -0.216986 0
M  V30 2310 C 206.162 4.09791 -1.27944 0
M  V30 2311 C 205.395 5.28431 -0.748055 0
M  V30 2312 O 205.618 5.68823 0.423833 0
M  V30 2313 O 204.552 5.82644 -1.51027 0
M  V30 2314 H 208.378 2.5242 -1.68873 0
M  V30 2315 H 205.963 1.20399 -0.884555 0
M  V30 2316 H 207.845 4.21304 0.090059 0
M  V30 2317 H 206.52 3.16698 0.669633 0
M  V30 2318 H 205.427 3.36265 -1.63941 0
M  V30 2319 H 206.76 4.4328 -2.13925 0
M  V30 2320 N 208.412 0.89855 1.29475 0
M  V30 2321 C 209.322 0.379974 2.31502 0
M  V30 2322 C 210.338 -0.524695 1.659 0
M  V30 2323 O 211.514 -0.414551 1.97087 0
M  V30 2324 C 208.579 -0.385138 3.44554 0
M  V30 2325 C 207.64 0.550914 4.2575 0
M  V30 2326 C 206.873 -0.177778 5.33404 0
M  V30 2327 O 207.096 -1.40189 5.52904 0
M  V30 2328 O 206.03 0.479106 5.9999 0
M  V30 2329 H 209.856 1.22639 2.77837 0
M  V30 2330 H 207.441 0.662834 1.33891 0
M  V30 2331 H 209.323 -0.817841 4.13388 0
M  V30 2332 H 207.998 -1.20763 3.0033 0
M  V30 2333 H 206.905 1.03271 3.59564 0
M  V30 2334 H 208.238 1.33979 4.73614 0
M  V30 2335 N 209.89 -1.43072 0.660911 0
M  V30 2336 C 211.136 -2.0202 0.177708 0
M  V30 2337 C 211.469 -1.52066 -1.20787 0
M  V30 2338 O 210.744 -0.716987 -1.80802 0
M  V30 2339 C 211.027 -3.59561 0.197019 0
M  V30 2340 C 210.88 -4.19727 1.61706 0
M  V30 2341 C 212.199 -4.37664 -0.462396 0
M  V30 2342 H 209.318 -0.734034 0.0660494 0
M  V30 2343 H 211.96 -1.70272 0.843058 0
M  V30 2344 H 210.11 -3.86739 -0.369527 0
M  V30 2345 H 211.782 -4.03553 2.23479 0
M  V30 2346 H 210.025 -3.76084 2.16201 0
M  V30 2347 H 210.696 -5.28834 1.58237 0
M  V30 2348 H 213.172 -4.16095 0.0197215 0
M  V30 2349 H 212.048 -5.47305 -0.418188 0
M  V30 2350 H 212.309 -4.14493 -1.53778 0
M  V30 2351 N 211.368 -0.403325 -1.52352 0
M  V30 2352 C 212.298 0.416205 -2.29761 0
M  V30 2353 C 213.279 1.05123 -1.33728 0
M  V30 2354 O 214.464 1.06134 -1.62632 0
M  V30 2355 C 211.594 1.53624 -3.11475 0
M  V30 2356 C 210.548 1.02653 -4.15507 0
M  V30 2357 C 209.874 2.23971 -4.85532 0
M  V30 2358 C 211.174 0.08463 -5.22231 0
M  V30 2359 H 212.868 -0.229701 -2.98518 0
M  V30 2360 H 210.414 -0.111913 -1.43564 0
M  V30 2361 H 212.367 2.1165 -3.64393 0
M  V30 2362 H 211.091 2.20994 -2.40477 0
M  V30 2363 H 209.75 0.46871 -3.63591 0
M  V30 2364 H 209.398 2.89883 -4.11068 0
M  V30 2365 H 209.098 1.90521 -5.55856 0
M  V30 2366 H 210.622 2.82614 -5.41259 0
M  V30 2367 H 212.036 0.573509 -5.70424 0
M  V30 2368 H 210.433 -0.160783 -5.99885 0
M  V30 2369 H 211.503 -0.86237 -4.7717 0
M  V30 2370 N 212.846 1.57033 -0.133567 0
M  V30 2371 C 214.086 1.97575 0.523789 0
M  V30 2372 C 214.45 1.01605 1.62912 0
M  V30 2373 O 215.651 1.3114 2.3464 0
M  V30 2374 C 213.922 3.42256 1.02935 0
M  V30 2375 S 215.481 4.04817 1.69319 0
M  V30 2376 H 212.299 0.690427 0.169799 0
M  V30 2377 H 214.901 1.94234 -0.222101 0
M  V30 2378 H 213.605 4.09842 0.213917 0
M  V30 2379 H 213.136 3.4928 1.81017 0
M  V30 2380 H 215.151 3.96767 2.97977 0
M  V30 2381 N 214.325 -0.140222 1.56975 0
M  V30 2382 C 215.553 -0.866437 1.87884 0
M  V30 2383 C 215.968 -1.74428 0.722517 0
M  V30 2384 O 215.325 -1.79891 -0.30749 0
M  V30 2385 C 215.376 -1.71753 3.18093 0
M  V30 2386 O 215.097 -0.875056 4.29272 0
M  V30 2387 C 216.598 -2.55074 3.62563 0
M  V30 2388 H 213.818 -0.25019 0.622612 0
M  V30 2389 H 216.362 -0.130977 2.0408 0
M  V30 2390 H 214.517 -2.40598 3.03631 0
M  V30 2391 H 214.931 -1.46002 5.03769 0
M  V30 2392 H 216.405 -3.10356 4.5649 0
M  V30 2393 H 216.882 -3.31434 2.88181 0
M  V30 2394 H 217.488 -1.91509 3.79743 0
M  V30 2395 N 215.803 -1.52179 -0.40978 0
M  V30 2396 C 216.75 -1.75475 -1.49924 0
M  V30 2397 C 217.72 -0.597175 -1.54994 0
M  V30 2398 O 218.905 -0.834655 -1.71575 0
M  V30 2399 C 216.045 -1.9107 -2.87378 0
M  V30 2400 C 215.158 -3.18717 -2.91622 0
M  V30 2401 C 214.293 -3.24747 -4.20372 0
M  V30 2402 C 213.332 -4.46598 -4.18588 0
M  V30 2403 N 212.469 -4.50025 -5.38908 0
M  V30 2404 H 217.309 -2.68458 -1.29361 0
M  V30 2405 H 214.846 -1.33024 -0.627934 0
M  V30 2406 H 216.804 -1.98096 -3.6717 0
M  V30 2407 H 215.434 -1.01469 -3.06437 0
M  V30 2408 H 214.486 -3.20866 -2.04326 0
M  V30 2409 H 215.798 -4.08544 -2.86169 0
M  V30 2410 H 214.952 -3.30841 -5.08556 0
M  V30 2411 H 213.691 -2.32857 -4.28519 0
M  V30 2412 H 212.696 -4.40652 -3.28794 0
M  V30 2413 H 213.921 -5.39783 -4.12081 0
M  V30 2414 H 211.867 -3.61017 -5.47725 0
M  V30 2415 H 211.784 -5.33697 -5.35447 0
M  V30 2416 H 213.052 -4.60347 -6.29048 0
M  V30 2417 N 217.281 0.66697 -1.42791 0
M  V30 2418 C 218.211 1.79218 -1.49677 0
M  V30 2419 C 219.192 1.66405 -0.352623 0
M  V30 2420 O 220.377 1.85708 -0.567993 0
M  V30 2421 C 217.507 3.17565 -1.40605 0
M  V30 2422 C 216.461 3.45124 -2.53127 0
M  V30 2423 C 215.787 4.83127 -2.29112 0
M  V30 2424 C 217.087 3.41236 -3.95418 0
M  V30 2425 H 218.781 1.73713 -2.43853 0
M  V30 2426 H 216.327 0.83432 -1.17367 0
M  V30 2427 H 218.28 3.96022 -1.44029 0
M  V30 2428 H 217.004 3.23767 -0.429271 0
M  V30 2429 H 215.663 2.69031 -2.49034 0
M  V30 2430 H 215.311 4.85988 -1.29709 0
M  V30 2431 H 215.011 5.02528 -3.04531 0
M  V30 2432 H 216.535 5.63859 -2.34297 0
M  V30 2433 H 217.949 4.09651 -4.01073 0
M  V30 2434 H 216.346 3.72173 -4.70752 0
M  V30 2435 H 217.416 2.39665 -4.21532 0
M  V30 2436 N 218.759 1.29093 0.90403 0
M  V30 2437 C 219.689 1.16401 2.02418 0
M  V30 2438 C 220.67 0.0593085 1.69997 0
M  V30 2439 O 221.855 0.238021 1.92736 0
M  V30 2440 C 218.985 0.835233 3.37107 0
M  V30 2441 C 217.939 1.89578 3.83724 0
M  V30 2442 C 217.265 1.42041 5.15489 0
M  V30 2443 C 218.565 3.30394 4.04521 0
M  V30 2444 H 220.259 2.10109 2.13295 0
M  V30 2445 H 217.805 1.01157 1.02486 0
M  V30 2446 H 219.758 0.733169 4.14973 0
M  V30 2447 H 218.482 -0.137543 3.2631 0
M  V30 2448 H 217.141 1.98715 3.08071 0
M  V30 2449 H 216.789 0.436426 5.01103 0
M  V30 2450 H 216.489 2.12964 5.4765 0
M  V30 2451 H 218.013 1.33176 5.959 0
M  V30 2452 H 219.427 3.24123 4.72882 0
M  V30 2453 H 217.824 3.99237 4.48029 0
M  V30 2454 H 218.894 3.73692 3.09002 0
M  V30 2455 N 220.237 -1.11381 1.11499 0
M  V30 2456 C 221.147 -2.21019 0.786628 0
M  V30 2457 C 222.163 -1.72597 -0.220507 0
M  V30 2458 O 223.339 -2.01321 -0.0565251 0
M  V30 2459 C 220.404 -3.459 0.235333 0
M  V30 2460 C 219.465 -4.09107 1.30115 0
M  V30 2461 C 218.698 -5.28027 0.776068 0
M  V30 2462 O 218.921 -5.6904 -0.393661 0
M  V30 2463 O 217.855 -5.81835 1.54114 0
M  V30 2464 H 221.681 -2.51521 1.70209 0
M  V30 2465 H 219.266 -1.19928 0.890928 0
M  V30 2466 H 221.148 -4.21346 -0.067715 0
M  V30 2467 H 219.823 -3.17049 -0.652828 0
M  V30 2468 H 218.73 -3.35391 1.65722 0
M  V30 2469 H 220.063 -4.42139 2.16273 0
M  V30 2470 N 221.715 -0.905404 -1.28997 0
M  V30 2471 C 222.962 -0.534248 -1.95325 0
M  V30 2472 C 223.29 0.920535 -1.71337 0
M  V30 2473 O 222.545 1.66861 -1.02254 0
M  V30 2474 C 222.844 -0.779906 -3.48787 0
M  V30 2475 C 222.51 -2.21293 -3.92861 0
M  V30 2476 C 221.172 -2.60475 -4.04606 0
M  V30 2477 C 223.524 -3.14587 -4.15553 0
M  V30 2478 C 220.852 -3.9212 -4.36416 0
M  V30 2479 C 223.204 -4.45787 -4.48839 0
M  V30 2480 C 221.868 -4.84834 -4.58794 0
M  V30 2481 H 221.138 -0.195495 -0.714747 0
M  V30 2482 H 223.785 -1.14514 -1.53488 0
M  V30 2483 H 222.09 -0.0861365 -3.91705 0
M  V30 2484 H 223.787 -0.472029 -3.98212 0
M  V30 2485 H 220.377 -1.89887 -3.84241 0
M  V30 2486 H 224.561 -2.85528 -4.0594 0
M  V30 2487 H 219.817 -4.22086 -4.42327 0
M  V30 2488 H 223.991 -5.18098 -4.65346 0
M  V30 2489 H 221.618 -5.86877 -4.83197 0
M  V30 2490 N 223.193 1.4272 -0.668489 0
M  V30 2491 C 224.442 2.00846 -0.185389 0
M  V30 2492 C 224.755 1.53442 1.21305 0
M  V30 2493 O 225.961 2.03944 1.79218 0
M  V30 2494 C 224.417 3.58805 -0.280591 0
M  V30 2495 C 224.025 4.15198 -1.68268 0
M  V30 2496 C 225.769 4.24255 0.14412 0
M  V30 2497 C 223.676 5.655 -1.73099 0
M  V30 2498 H 222.606 0.751145 -0.0655475 0
M  V30 2499 H 225.257 1.63516 -0.832752 0
M  V30 2500 H 223.639 3.93608 0.434553 0
M  V30 2501 H 224.813 3.91866 -2.42441 0
M  V30 2502 H 223.128 3.62176 -2.05469 0
M  V30 2503 H 225.725 5.34547 0.128086 0
M  V30 2504 H 226.068 3.99277 1.17827 0
M  V30 2505 H 226.601 3.94389 -0.519798 0
M  V30 2506 H 223.34 5.95268 -2.74475 0
M  V30 2507 H 222.86 5.90842 -1.03274 0
M  V30 2508 H 224.539 6.29808 -1.48158 0
M  V30 2509 N 224.671 0.411399 1.52136 0
M  V30 2510 C 225.919 -0.163322 2.01439 0
M  V30 2511 C 226.24 -1.45453 1.29879 0
M  V30 2512 O 225.51 -1.91225 0.4254 0
M  V30 2513 H 224.09 -0.0633447 0.744309 0
M  V30 2514 H 226.752 0.548161 1.87033 0
M  V30 2515 H 225.848 -0.357817 3.10042 0
M  V30 2516 N 226.149 -1.5696 0.141893 0
M  V30 2517 C 227.097 -2.17784 -0.816874 0
M  V30 2518 C 228.091 -1.1334 -1.25899 0
M  V30 2519 O 229.297 -1.316 -1.22806 0
M  V30 2520 H 225.672 -0.697278 -0.281615 0
M  V30 2521 H 227.643 -2.97087 -0.279621 0
M  V30 2522 C 226.392 -2.80983 -2.04802 0
M  V30 2523 H 225.715 -3.61062 -1.7168 0
M  V30 2524 H 227.155 -3.2705 -2.69841 0
M  V30 2525 C 225.614 -1.79228 -2.8527 0
M  V30 2526 O 226.144 -1.25962 -3.8144 0
M  V30 2527 N 224.35 -1.48647 -2.49704 0
M  V30 2528 H 223.897 -1.92155 -1.71564 0
M  V30 2529 H 223.855 -0.808115 -3.03837 0
M  V30 2530 N 227.627 0.131896 -1.57047 0
M  V30 2531 C 228.873 0.843179 -1.84441 0
M  V30 2532 C 229.206 1.80129 -0.725749 0
M  V30 2533 O 228.481 1.92624 0.269469 0
M  V30 2534 C 228.764 1.60442 -3.22382 0
M  V30 2535 C 228.617 0.666782 -4.4483 0
M  V30 2536 C 229.936 2.56354 -3.5773 0
M  V30 2537 H 227.055 0.305081 -0.670891 0
M  V30 2538 H 229.697 0.107839 -1.89694 0
M  V30 2539 H 227.847 2.23128 -3.18035 0
M  V30 2540 H 229.519 0.0497646 -4.61273 0
M  V30 2541 H 227.762 -0.022609 -4.33794 0
M  V30 2542 H 228.433 1.23579 -5.37989 0
M  V30 2543 H 230.909 2.0378 -3.62785 0
M  V30 2544 H 229.785 3.06657 -4.5525 0
M  V30 2545 H 230.046 3.38419 -2.84473 0
M  V30 2546 N 229.106 1.52395 0.401703 0
M  V30 2547 C 230.331 1.70972 1.17403 0
M  V30 2548 C 230.756 0.421615 1.83314 0
M  V30 2549 O 230.114 -0.621564 1.70312 0
M  V30 2550 C 230.162 2.85151 2.20728 0
M  V30 2551 O 229.266 2.51238 3.27037 0
M  V30 2552 H 228.607 0.568927 0.342372 0
M  V30 2553 H 231.137 1.99131 0.469891 0
M  V30 2554 H 231.147 3.10279 2.64936 0
M  V30 2555 H 229.822 3.78603 1.7214 0
M  V30 2556 H 228.399 2.36808 2.88057 0
M  V30 2557 N 230.584 -0.659388 1.43143 0
M  V30 2558 C 231.494 -1.80167 1.50256 0
M  V30 2559 C 232.51 -1.69571 0.390106 0
M  V30 2560 O 233.686 -1.90849 0.643319 0
M  V30 2561 C 230.751 -3.16409 1.41725 0
M  V30 2562 C 229.812 -3.38848 2.63591 0
M  V30 2563 C 229.045 -4.68591 2.55458 0
M  V30 2564 O 229.268 -5.47532 1.59891 0
M  V30 2565 O 228.202 -4.92614 3.45854 0
M  V30 2566 H 232.028 -1.77121 2.46702 0
M  V30 2567 H 229.613 -0.817092 1.25076 0
M  V30 2568 H 231.495 -3.9768 1.39387 0
M  V30 2569 H 230.17 -3.20059 0.484118 0
M  V30 2570 H 229.077 -2.57366 2.71502 0
M  V30 2571 H 230.41 -3.4004 3.55856 0
M  V30 2572 N 232.062 -1.29571 -0.897171 0
M  V30 2573 C 233.009 -1.14916 -2.00158 0
M  V30 2574 C 233.979 -0.0418149 -1.66047 0
M  V30 2575 O 235.164 -0.209793 -1.89643 0
M  V30 2576 C 232.304 -0.834307 -3.34863 0
M  V30 2577 C 231.417 -2.02234 -3.8174 0
M  V30 2578 C 230.552 -1.64664 -5.05034 0
M  V30 2579 C 229.591 -2.80033 -5.44286 0
M  V30 2580 N 228.728 -2.42843 -6.58765 0
M  V30 2581 H 233.568 -2.09403 -2.12025 0
M  V30 2582 H 231.105 -1.042 -1.0383 0
M  V30 2583 H 233.063 -0.632436 -4.12379 0
M  V30 2584 H 231.693 0.0736656 -3.22716 0
M  V30 2585 H 230.745 -2.33583 -3.00238 0
M  V30 2586 H 232.057 -2.88673 -4.06779 0
M  V30 2587 H 231.211 -1.4078 -5.9014 0
M  V30 2588 H 229.95 -0.753766 -4.8184 0
M  V30 2589 H 228.955 -3.04596 -4.57713 0
M  V30 2590 H 230.18 -3.69989 -5.6946 0
M  V30 2591 H 228.126 -1.56046 -6.3717 0
M  V30 2592 H 228.043 -3.22815 -6.83613 0
M  V30 2593 H 229.311 -2.22285 -7.47134 0
M  V30 2594 N 233.54 1.10788 -1.12088 0
M  V30 2595 C 234.47 2.19083 -0.807755 0
M  V30 2596 C 235.451 1.6858 0.226859 0
M  V30 2597 O 236.636 1.93997 0.0888475 0
M  V30 2598 C 233.766 3.46344 -0.257576 0
M  V30 2599 C 232.72 4.101 -1.22483 0
M  V30 2600 C 232.046 5.32016 -0.535052 0
M  V30 2601 C 233.346 4.54236 -2.57811 0
M  V30 2602 H 235.04 2.45534 -1.71328 0
M  V30 2603 H 232.586 1.1801 -0.825205 0
M  V30 2604 H 234.539 4.21392 -0.0262679 0
M  V30 2605 H 233.263 3.19373 0.683278 0
M  V30 2606 H 231.922 3.37054 -1.44189 0
M  V30 2607 H 231.57 5.01319 0.410827 0
M  V30 2608 H 231.27 5.75625 -1.18024 0
M  V30 2609 H 232.794 6.09799 -0.312695 0
M  V30 2610 H 234.208 5.20575 -2.40155 0
M  V30 2611 H 232.605 5.08682 -3.18375 0
M  V30 2612 H 233.675 3.6734 -3.16528 0
M  V30 2613 N 235.018 0.912232 1.28515 0
M  V30 2614 C 236.264 0.554851 1.95686 0
M  V30 2615 C 236.619 -0.89138 1.70506 0
M  V30 2616 O 235.912 -1.62529 1.01464 0
M  V30 2617 C 236.106 0.798392 3.48368 0
M  V30 2618 C 235.935 2.26674 3.88393 0
M  V30 2619 C 234.705 2.91657 4.12631 0
M  V30 2620 C 236.903 3.24303 3.99164 0
M  V30 2621 N 234.885 4.28805 4.39317 0
M  V30 2622 C 236.256 4.4661 4.30046 0
M  V30 2623 C 238.311 3.19723 3.81683 0
M  V30 2624 C 237.014 5.64915 4.45268 0
M  V30 2625 C 239.04 4.37325 3.98121 0
M  V30 2626 C 238.402 5.58406 4.29375 0
M  V30 2627 H 234.501 0.252876 0.739985 0
M  V30 2628 H 237.085 1.17565 1.55199 0
M  V30 2629 H 235.256 0.20688 3.87849 0
M  V30 2630 H 236.988 0.405193 4.02666 0
M  V30 2631 H 233.743 2.42393 4.06869 0
M  V30 2632 H 234.167 4.99712 4.56746 0
M  V30 2633 H 238.809 2.27191 3.56573 0
M  V30 2634 H 236.527 6.57927 4.6921 0
M  V30 2635 H 240.113 4.35282 3.86033 0
M  V30 2636 H 238.993 6.47889 4.41825 0
M  V30 2637 N 236.496 -1.42363 0.676048 0
M  V30 2638 C 237.912 -1.55811 0.345718 0
M  V30 2639 C 238.112 -1.65544 -1.14879 0
M  V30 2640 O 237.168 -1.62306 -1.93424 0
M  V30 2641 C 238.481 -2.80746 1.07713 0
M  V30 2642 C 240.029 -2.9452 1.05958 0
M  V30 2643 C 240.504 -4.22318 1.77233 0
M  V30 2644 N 241.995 -4.29233 1.74108 0
M  V30 2645 C 242.73 -5.26935 2.26113 0
M  V30 2646 N 242.226 -6.30783 2.86505 0
M  V30 2647 N 244.019 -5.18741 2.1648 0
M  V30 2648 H 236.17 -1.34289 1.6456 0
M  V30 2649 H 238.433 -0.646506 0.69335 0
M  V30 2650 H 238.139 -2.79696 2.13221 0
M  V30 2651 H 238.013 -3.71676 0.64316 0
M  V30 2652 H 240.4 -2.95097 0.0128255 0
M  V30 2653 H 240.481 -2.04817 1.53244 0
M  V30 2654 H 240.125 -4.22502 2.81877 0
M  V30 2655 H 240.055 -5.10958 1.27396 0
M  V30 2656 H 242.546 -3.54814 1.30059 0
M  V30 2657 H 242.859 -7.01691 3.23805 0
M  V30 2658 H 241.204 -6.31341 2.90575 0
M  V30 2659 H 244.395 -4.36533 1.68987 0
M  V30 2660 H 244.568 -5.94721 2.57316 0
M  V30 2661 N 237.974 -0.419461 -1.51915 0
M  V30 2662 C 238.904 0.391813 -2.30189 0
M  V30 2663 C 239.885 1.03699 -1.34836 0
M  V30 2664 O 241.07 1.04403 -1.63748 0
M  V30 2665 C 238.2 1.50312 -3.13087 0
M  V30 2666 C 237.154 0.9824 -4.16573 0
M  V30 2667 C 236.48 2.18809 -4.8788 0
M  V30 2668 C 237.78 0.0292356 -5.22292 0
M  V30 2669 H 239.474 -0.26135 -2.98257 0
M  V30 2670 H 237.02 -0.127134 -1.43438 0
M  V30 2671 H 238.973 2.07773 -3.66617 0
M  V30 2672 H 237.697 2.18431 -2.42807 0
M  V30 2673 H 236.356 0.430119 -3.64068 0
M  V30 2674 H 236.004 2.85507 -4.14119 0
M  V30 2675 H 235.704 1.84615 -5.57845 0
M  V30 2676 H 237.228 2.76858 -5.44226 0
M  V30 2677 H 238.642 0.512976 -5.71 0
M  V30 2678 H 237.039 -0.2244 -5.9968 0
M  V30 2679 H 238.109 -0.912931 -4.76228 0
M  V30 2680 N 239.452 1.56882 -0.150215 0
M  V30 2681 C 240.399 2.16922 0.788244 0
M  V30 2682 C 241.369 1.10303 1.24187 0
M  V30 2683 O 242.554 1.38359 1.31383 0
M  V30 2684 C 239.694 2.79754 2.02068 0
M  V30 2685 C 238.807 4.00775 1.61257 0
M  V30 2686 C 237.942 4.51595 2.79705 0
M  V30 2687 C 236.981 5.65074 2.35282 0
M  V30 2688 N 236.118 6.10499 3.4675 0
M  V30 2689 H 240.958 2.96779 0.269444 0
M  V30 2690 H 238.495 1.46599 0.12128 0
M  V30 2691 H 240.453 3.14329 2.74323 0
M  V30 2692 H 239.083 2.02536 2.51354 0
M  V30 2693 H 238.135 3.72158 0.787553 0
M  V30 2694 H 239.447 4.82978 1.24633 0
M  V30 2695 H 238.601 4.88242 3.60145 0
M  V30 2696 H 237.34 3.68406 3.19576 0
M  V30 2697 H 236.345 5.28 1.53283 0
M  V30 2698 H 237.57 6.50052 1.96493 0
M  V30 2699 H 235.516 5.30243 3.86236 0
M  V30 2700 H 235.433 6.87637 3.14152 0
M  V30 2701 H 236.701 6.51791 4.27537 0
M  V30 2702 N 240.93 -0.123565 1.57115 0
M  V30 2703 C 241.84 -1.17074 2.033 0
M  V30 2704 C 242.856 -1.4561 0.952559 0
M  V30 2705 O 244.032 -1.56817 1.26374 0
M  V30 2706 C 241.097 -2.47857 2.42421 0
M  V30 2707 C 240.158 -2.26758 3.64526 0
M  V30 2708 C 239.391 -3.51305 4.01771 0
M  V30 2709 O 239.614 -4.5843 3.39409 0
M  V30 2710 O 238.548 -3.42578 4.94898 0
M  V30 2711 H 242.374 -0.808555 2.92739 0
M  V30 2712 H 239.959 -0.334027 1.45618 0
M  V30 2713 H 241.841 -3.2492 2.68338 0
M  V30 2714 H 240.516 -2.83558 1.5613 0
M  V30 2715 H 239.423 -1.47569 3.43765 0
M  V30 2716 H 240.756 -1.95963 4.51508 0
M  V30 2717 N 242.408 -1.52605 -0.393616 0
M  V30 2718 C 243.318 -1.79971 -1.50492 0
M  V30 2719 C 244.334 -0.686181 -1.59899 0
M  V30 2720 O 245.51 -0.973274 -1.76322 0
M  V30 2721 C 242.575 -1.95867 -2.86072 0
M  V30 2722 C 241.636 -3.19781 -2.86424 0
M  V30 2723 C 240.869 -3.34909 -4.15538 0
M  V30 2724 O 241.092 -2.54948 -5.10253 0
M  V30 2725 O 240.026 -4.28141 -4.23059 0
M  V30 2726 H 243.852 -2.74328 -1.30299 0
M  V30 2727 H 241.437 -1.3764 -0.581005 0
M  V30 2728 H 243.319 -2.08056 -3.66457 0
M  V30 2729 H 241.994 -1.04699 -3.063 0
M  V30 2730 H 240.901 -3.13038 -2.04837 0
M  V30 2731 H 242.234 -4.1078 -2.71147 0
M  V30 2732 N 243.887 0.651787 -1.4349 0
M  V30 2733 C 245.133 1.41376 -1.45398 0
M  V30 2734 C 245.466 1.94041 -0.0784823 0
M  V30 2735 O 244.741 1.72379 0.900878 0
M  V30 2736 C 245.024 2.59414 -2.49752 0
M  V30 2737 C 244.877 2.12232 -3.96582 0
M  V30 2738 C 246.196 3.61626 -2.50827 0
M  V30 2739 H 243.315 0.512719 -0.529422 0
M  V30 2740 H 245.957 0.738796 -1.75048 0
M  V30 2741 H 244.107 3.16997 -2.246 0
M  V30 2742 H 245.779 1.59639 -4.32797 0
M  V30 2743 H 244.022 1.43592 -4.09346 0
M  V30 2744 H 244.693 2.9712 -4.65214 0
M  V30 2745 H 247.169 3.13805 -2.7325 0
M  V30 2746 H 246.045 4.41766 -3.25783 0
M  V30 2747 H 246.306 4.14314 -1.5426 0
M  V30 2748 N 245.365 1.30045 0.890287 0
M  V30 2749 C 246.297 1.11786 2.00091 0
M  V30 2750 C 247.31 0.0626307 1.62679 0
M  V30 2751 O 248.499 0.308112 1.75821 0
M  V30 2752 C 245.599 0.681527 3.31977 0
M  V30 2753 C 244.772 1.81735 3.97858 0
M  V30 2754 C 243.831 1.37045 5.08041 0
M  V30 2755 O 242.857 2.07677 5.29961 0
M  V30 2756 N 244.059 0.246525 5.79976 0
M  V30 2757 H 246.824 2.07441 2.16306 0
M  V30 2758 H 244.385 1.2211 1.06305 0
M  V30 2759 H 246.377 0.365675 4.03045 0
M  V30 2760 H 244.947 -0.182828 3.12065 0
M  V30 2761 H 244.167 2.30159 3.20032 0
M  V30 2762 H 245.455 2.57865 4.38615 0
M  V30 2763 H 244.853 -0.34215 5.64664 0
M  V30 2764 H 243.41 -0.00990438 6.51799 0
M  V30 2765 N 246.843 -1.10192 1.12674 0
M  V30 2766 C 247.79 -2.16606 0.796906 0
M  V30 2767 C 248.76 -1.64394 -0.237476 0
M  V30 2768 O 249.945 -1.90474 -0.111484 0
M  V30 2769 C 247.085 -3.44116 0.26043 0
M  V30 2770 C 246.198 -4.10268 1.35293 0
M  V30 2771 C 245.333 -5.25507 0.775621 0
M  V30 2772 C 244.372 -5.83567 1.84706 0
M  V30 2773 N 243.509 -6.90179 1.28829 0
M  V30 2774 H 248.349 -2.44163 1.70846 0
M  V30 2775 H 245.886 -1.19846 0.85295 0
M  V30 2776 H 247.844 -4.17143 -0.0686814 0
M  V30 2777 H 246.474 -3.16901 -0.614274 0
M  V30 2778 H 245.526 -3.35184 1.79877 0
M  V30 2779 H 246.838 -4.4946 2.16303 0
M  V30 2780 H 245.992 -6.05398 0.397327 0
M  V30 2781 H 244.731 -4.87656 -0.0656581 0
M  V30 2782 H 243.736 -5.02344 2.23452 0
M  V30 2783 H 244.961 -6.23482 2.69161 0
M  V30 2784 H 242.907 -6.54322 0.468881 0
M  V30 2785 H 242.824 -7.28097 2.03497 0
M  V30 2786 H 244.092 -7.73844 0.937311 0
M  V30 2787 N 248.321 -0.919034 -1.28029 0
M  V30 2788 C 249.251 -0.428581 -2.29533 0
M  V30 2789 C 250.232 0.50659 -1.62381 0
M  V30 2790 O 251.417 0.413195 -1.89753 0
M  V30 2791 C 248.547 0.327388 -3.45753 0
M  V30 2792 C 247.501 -0.519137 -4.2484 0
M  V30 2793 C 246.827 0.365486 -5.33449 0
M  V30 2794 C 248.127 -1.77914 -4.91064 0
M  V30 2795 H 249.821 -1.27687 -2.70807 0
M  V30 2796 H 247.367 -0.615428 -1.30186 0
M  V30 2797 H 249.32 0.681378 -4.15855 0
M  V30 2798 H 248.044 1.20963 -3.03374 0
M  V30 2799 H 246.703 -0.855717 -3.56473 0
M  V30 2800 H 246.351 1.24642 -4.87312 0
M  V30 2801 H 246.051 -0.197356 -5.87268 0
M  V30 2802 H 247.575 0.715241 -6.06396 0
M  V30 2803 H 248.989 -1.49374 -5.53498 0
M  V30 2804 H 247.386 -2.2848 -5.54903 0
M  V30 2805 H 248.456 -2.50382 -4.15255 0
M  V30 2806 N 249.799 1.42003 -0.683588 0
M  V30 2807 C 250.746 2.30798 -0.0107309 0
M  V30 2808 C 251.716 1.4645 0.783688 0
M  V30 2809 O 252.901 1.75263 0.754156 0
M  V30 2810 C 250.041 3.3238 0.928306 0
M  V30 2811 C 249.154 4.31814 0.126776 0
M  V30 2812 C 248.289 5.20468 1.06236 0
M  V30 2813 C 247.328 6.11577 0.253035 0
M  V30 2814 N 246.465 6.92754 1.14179 0
M  V30 2815 H 251.305 2.8778 -0.773727 0
M  V30 2816 H 248.842 1.41745 -0.393283 0
M  V30 2817 H 250.8 3.89813 1.48666 0
M  V30 2818 H 249.43 2.76976 1.65783 0
M  V30 2819 H 248.482 3.76427 -0.54833 0
M  V30 2820 H 249.794 4.96276 -0.501192 0
M  V30 2821 H 248.948 5.82677 1.69035 0
M  V30 2822 H 247.687 4.56204 1.7242 0
M  V30 2823 H 246.692 5.48428 -0.388108 0
M  V30 2824 H 247.917 6.77892 -0.404839 0
M  V30 2825 H 245.863 6.3111 1.78987 0
M  V30 2826 H 245.78 7.53855 0.569111 0
M  V30 2827 H 247.048 7.59441 1.75697 0
M  V30 2828 N 251.277 0.427512 1.51691 0
M  V30 2829 C 252.224 -0.388867 2.275 0
M  V30 2830 C 253.194 -1.02532 1.30677 0
M  V30 2831 O 254.379 -1.0461 1.59566 0
M  V30 2832 C 251.519 -1.48954 3.11298 0
M  V30 2833 C 250.632 -0.872194 4.23104 0
M  V30 2834 C 249.767 -1.94709 4.94228 0
M  V30 2835 C 248.806 -1.30766 5.97969 0
M  V30 2836 N 247.943 -2.32349 6.62539 0
M  V30 2837 H 252.783 0.263997 2.96828 0
M  V30 2838 H 250.32 0.142033 1.46413 0
M  V30 2839 H 252.278 -2.13887 3.58201 0
M  V30 2840 H 250.908 -2.11217 2.44105 0
M  V30 2841 H 249.96 -0.111419 3.80237 0
M  V30 2842 H 251.272 -0.365264 4.97461 0
M  V30 2843 H 250.426 -2.67327 5.44629 0
M  V30 2844 H 249.165 -2.48773 4.1948 0
M  V30 2845 H 248.17 -0.566902 5.4687 0
M  V30 2846 H 249.395 -0.774483 6.74669 0
M  V30 2847 H 247.341 -2.85511 5.90609 0
M  V30 2848 H 247.258 -1.8652 7.3263 0
M  V30 2849 H 248.526 -3.04481 7.17574 0
M  V30 2850 N 252.755 -1.56801 0.158532 0
M  V30 2851 C 253.98 -2.01295 -0.499516 0
M  V30 2852 C 254.405 -1.03799 -1.56867 0
M  V30 2853 O 253.763 -0.0155162 -1.81293 0
M  V30 2854 C 253.811 -3.44469 -1.06647 0
M  V30 2855 O 252.915 -3.50012 -2.18095 0
M  V30 2856 H 252.256 -0.652884 -0.12099 0
M  V30 2857 H 254.786 -2.02958 0.258661 0
M  V30 2858 H 254.796 -3.8351 -1.39227 0
M  V30 2859 H 253.471 -4.14932 -0.283581 0
M  V30 2860 H 252.048 -3.22822 -1.86656 0
M  V30 2861 N 254.233 0.115231 -1.57178 0
M  V30 2862 C 255.463 0.835224 -1.88964 0
M  V30 2863 C 255.871 1.73774 -0.74829 0
M  V30 2864 O 255.214 1.81401 0.289739 0
M  V30 2865 C 255.276 1.7178 -3.15804 0
M  V30 2866 C 254.94 0.989198 -4.46166 0
M  V30 2867 C 255.937 0.328263 -5.18863 0
M  V30 2868 C 253.622 0.969256 -4.9286 0
M  V30 2869 C 255.616 -0.342873 -6.36477 0
M  V30 2870 C 253.303 0.294324 -6.10391 0
M  V30 2871 C 254.301 -0.360582 -6.82048 0
M  V30 2872 O 253.989 -1.02474 -7.97342 0
M  V30 2873 H 253.721 0.245197 -0.629964 0
M  V30 2874 H 256.275 0.10303 -2.05141 0
M  V30 2875 H 254.505 2.49173 -2.95719 0
M  V30 2876 H 256.194 2.31255 -3.33581 0
M  V30 2877 H 256.96 0.335263 -4.8384 0
M  V30 2878 H 252.839 1.46844 -4.36987 0
M  V30 2879 H 256.383 -0.854629 -6.92345 0
M  V30 2880 H 252.28 0.285099 -6.4487 0
M  V30 2881 H 253.048 -0.929594 -8.13204 0
M  V30 2882 N 255.711 1.52812 0.385517 0
M  V30 2883 C 256.621 1.80766 1.49535 0
M  V30 2884 C 257.637 0.694651 1.59532 0
M  V30 2885 O 258.813 0.982611 1.75803 0
M  V30 2886 C 255.878 1.97381 2.85029 0
M  V30 2887 C 254.939 3.21295 2.84724 0
M  V30 2888 C 254.172 3.37108 4.13756 0
M  V30 2889 O 254.395 2.5765 5.08893 0
M  V30 2890 O 253.329 4.30378 4.20783 0
M  V30 2891 H 257.155 2.75015 1.28842 0
M  V30 2892 H 254.74 1.37946 0.573697 0
M  V30 2893 H 256.622 2.09996 3.65349 0
M  V30 2894 H 255.297 1.06322 3.05741 0
M  V30 2895 H 254.204 3.1412 2.03174 0
M  V30 2896 H 255.537 4.12212 2.68965 0
M  V30 2897 N 257.189 -0.644168 1.43834 0
M  V30 2898 C 258.099 -1.78563 1.52159 0
M  V30 2899 C 259.115 -1.69147 0.408069 0
M  V30 2900 O 260.291 -1.90156 0.663524 0
M  V30 2901 C 257.356 -3.14888 1.45073 0
M  V30 2902 C 256.417 -3.36034 2.6717 0
M  V30 2903 C 255.65 -4.65855 2.60413 0
M  V30 2904 O 255.873 -5.45805 1.65689 0
M  V30 2905 O 254.807 -4.88918 3.5106 0
M  V30 2906 H 258.633 -1.74494 2.48567 0
M  V30 2907 H 256.218 -0.80378 1.25935 0
M  V30 2908 H 258.1 -3.96179 1.43597 0
M  V30 2909 H 256.775 -3.19528 0.518037 0
M  V30 2910 H 255.682 -2.54472 2.74217 0
M  V30 2911 H 257.015 -3.36247 3.59442 0
M  V30 2912 N 258.668 -1.30515 -0.883378 0
M  V30 2913 C 259.6 -1.12846 -1.99496 0
M  V30 2914 C 260.613 -0.0712571 -1.62644 0
M  V30 2915 O 261.802 -0.317432 -1.75655 0
M  V30 2916 C 258.902 -0.699123 -3.3161 0
M  V30 2917 C 258.075 -1.83842 -3.96889 0
M  V30 2918 C 257.134 -1.39737 -5.07307 0
M  V30 2919 O 256.16 -2.10485 -5.28852 0
M  V30 2920 N 257.362 -0.277279 -5.79837 0
M  V30 2921 H 260.127 -2.08585 -2.15203 0
M  V30 2922 H 257.688 -1.22672 -1.05656 0
M  V30 2923 H 259.68 -0.387044 -4.02845 0
M  V30 2924 H 258.25 0.166276 -3.12157 0
M  V30 2925 H 257.47 -2.31853 -3.18807 0
M  V30 2926 H 258.758 -2.60187 -4.37241 0
M  V30 2927 H 258.156 0.3122 -5.64838 0
M  V30 2928 H 256.713 -0.0246623 -6.51795 0
M  V30 2929 N 260.146 1.09593 -1.13257 0
M  V30 2930 C 261.076 2.18214 -0.830946 0
M  V30 2931 C 262.057 1.68812 0.208966 0
M  V30 2932 O 263.242 1.9408 0.0682666 0
M  V30 2933 C 260.372 3.46051 -0.294296 0
M  V30 2934 C 259.326 4.08778 -1.26826 0
M  V30 2935 C 258.652 5.31419 -0.591449 0
M  V30 2936 C 259.952 4.51476 -2.62615 0
M  V30 2937 H 261.646 2.43703 -1.73923 0
M  V30 2938 H 259.192 1.17128 -0.837675 0
M  V30 2939 H 261.145 4.2134 -0.0709606 0
M  V30 2940 H 259.869 3.20079 0.649366 0
M  V30 2941 H 258.528 3.35505 -1.47756 0
M  V30 2942 H 258.176 5.01727 0.357633 0
M  V30 2943 H 257.876 5.74341 -1.24123 0
M  V30 2944 H 259.4 6.09433 -0.377355 0
M  V30 2945 H 260.814 5.17999 -2.45663 0
M  V30 2946 H 259.211 5.05277 -3.23752 0
M  V30 2947 H 260.281 3.63962 -3.20406 0
M  V30 2948 N 261.624 0.925811 1.2754 0
M  V30 2949 C 262.571 0.422045 2.26908 0
M  V30 2950 C 263.541 -0.510029 1.58076 0
M  V30 2951 O 264.726 -0.429599 1.85901 0
M  V30 2952 C 261.866 -0.320837 3.43605 0
M  V30 2953 C 260.979 0.64513 4.27156 0
M  V30 2954 C 260.114 -0.117405 5.3107 0
M  V30 2955 C 259.153 0.841391 6.0629 0
M  V30 2956 N 258.29 0.111604 7.02011 0
M  V30 2957 H 263.13 1.27441 2.69375 0
M  V30 2958 H 260.667 0.639697 1.32462 0
M  V30 2959 H 262.625 -0.76785 4.10073 0
M  V30 2960 H 261.255 -1.13745 3.02096 0
M  V30 2961 H 260.307 1.21067 3.6062 0
M  V30 2962 H 261.619 1.37797 4.79389 0
M  V30 2963 H 260.773 -0.624422 6.03478 0
M  V30 2964 H 259.512 -0.883219 4.79636 0
M  V30 2965 H 258.517 1.35967 5.32722 0
M  V30 2966 H 259.742 1.60696 6.59813 0
M  V30 2967 H 257.688 -0.635999 6.5291 0
M  V30 2968 H 257.605 0.784044 7.51923 0
M  V30 2969 H 258.873 -0.374823 7.78598 0
M  V30 2970 N 263.102 -1.41638 0.69111 0
M  V30 2971 C 264.348 -2.01598 0.220519 0
M  V30 2972 C 264.681 -1.54594 -1.17535 0
M  V30 2973 O 263.956 -0.755177 -1.79241 0
M  V30 2974 C 264.239 -3.59062 0.273243 0
M  V30 2975 C 264.092 -4.16203 1.70573 0
M  V30 2976 C 265.411 -4.38546 -0.369457 0
M  V30 2977 H 262.53 -0.732468 0.0816045 0
M  V30 2978 H 265.172 -1.68445 0.878986 0
M  V30 2979 H 263.322 -3.87435 -0.287411 0
M  V30 2980 H 264.994 -3.98722 2.31989 0
M  V30 2981 H 263.237 -3.71414 2.2413 0
M  V30 2982 H 263.908 -5.25358 1.69419 0
M  V30 2983 H 266.384 -4.1596 0.107977 0
M  V30 2984 H 265.26 -5.48069 -0.302002 0
M  V30 2985 H 265.521 -4.17662 -1.44951 0
M  V30 2986 N 264.58 -0.43555 -1.51462 0
M  V30 2987 C 265.805 0.132627 -2.06976 0
M  V30 2988 C 266.23 1.35848 -1.30104 0
M  V30 2989 O 265.588 1.78112 -0.338493 0
M  V30 2990 C 265.636 0.43523 -3.57964 0
M  V30 2991 O 264.74 1.52198 -3.83288 0
M  V30 2992 H 264.081 0.00265 -0.663995 0
M  V30 2993 H 266.611 -0.616369 -1.95095 0
M  V30 2994 H 266.621 0.686206 -4.02188 0
M  V30 2995 H 265.296 -0.460739 -4.1334 0
M  V30 2996 H 263.873 1.2611 -3.50928 0
M  V30 2997 N 266.058 1.56714 -0.166846 0
M  V30 2998 C 266.968 2.21331 0.777791 0
M  V30 2999 C 267.984 1.20358 1.25658 0
M  V30 3000 O 269.16 1.53005 1.30964 0
M  V30 3001 C 266.225 2.83787 1.99163 0
M  V30 3002 C 265.286 3.99947 1.56016 0
M  V30 3003 C 264.519 4.59415 2.71613 0
M  V30 3004 O 264.742 4.17769 3.88362 0
M  V30 3005 O 263.676 5.49359 2.45945 0
M  V30 3006 H 267.502 3.02605 0.257636 0
M  V30 3007 H 265.087 1.49275 0.0611393 0
M  V30 3008 H 266.969 3.23405 2.70161 0
M  V30 3009 H 265.644 2.05513 2.50092 0
M  V30 3010 H 264.551 3.65007 0.819809 0
M  V30 3011 H 265.884 4.79801 1.09782 0
M  V30 3012 N 267.536 -0.106894 1.57237 0
M  V30 3013 C 268.785 -0.811163 1.8467 0
M  V30 3014 C 269.098 -1.80469 0.754342 0
M  V30 3015 O 270.304 -2.55601 0.915439 0
M  V30 3016 C 268.76 -1.49337 3.27454 0
M  V30 3017 C 268.368 -0.540217 4.44731 0
M  V30 3018 C 270.112 -2.18206 3.64124 0
M  V30 3019 C 268.019 -1.22634 5.78545 0
M  V30 3020 H 266.949 -0.306679 0.688813 0
M  V30 3021 H 269.6 -0.0639887 1.83388 0
M  V30 3022 H 267.982 -2.2876 3.23241 0
M  V30 3023 H 269.156 0.221659 4.60267 0
M  V30 3024 H 267.471 0.042146 4.16379 0
M  V30 3025 H 270.068 -2.70253 4.61376 0
M  V30 3026 H 270.411 -2.96562 2.92158 0
M  V30 3027 H 270.944 -1.45658 3.70174 0
M  V30 3028 H 267.683 -0.483832 6.53712 0
M  V30 3029 H 267.203 -1.95993 5.66874 0
M  V30 3030 H 268.882 -1.75615 6.2271 0
M  V30 3031 N 269.014 -1.53014 -0.377408 0
M  V30 3032 C 269.946 -1.74884 -1.48149 0
M  V30 3033 C 270.959 -0.629433 -1.5014 0
M  V30 3034 O 272.148 -0.905416 -1.53833 0
M  V30 3035 C 269.248 -1.80299 -2.86959 0
M  V30 3036 C 268.421 -3.09776 -3.08801 0
M  V30 3037 C 267.48 -3.06586 -4.27658 0
M  V30 3038 O 266.506 -3.80419 -4.23403 0
M  V30 3039 N 267.708 -2.26578 -5.34455 0
M  V30 3040 H 270.473 -2.70147 -1.29771 0
M  V30 3041 H 268.034 -1.51646 -0.56703 0
M  V30 3042 H 270.026 -1.75657 -3.64591 0
M  V30 3043 H 268.596 -0.92372 -2.98641 0
M  V30 3044 H 267.816 -3.27815 -2.18931 0
M  V30 3045 H 269.104 -3.95366 -3.20255 0
M  V30 3046 H 268.502 -1.66081 -5.40771 0
M  V30 3047 H 267.059 -2.27766 -6.10709 0
M  V30 3048 N 270.492 0.636531 -1.44174 0
M  V30 3049 C 271.439 1.74875 -1.50624 0
M  V30 3050 C 272.409 1.62275 -0.35442 0
M  V30 3051 O 273.594 1.82276 -0.563908 0
M  V30 3052 C 270.734 3.13102 -1.45125 0
M  V30 3053 C 269.847 3.36717 -2.7064 0
M  V30 3054 C 268.982 4.64885 -2.57013 0
M  V30 3055 C 268.021 4.8166 -3.77717 0
M  V30 3056 N 267.158 6.01101 -3.62798 0
M  V30 3057 H 271.998 1.68697 -2.45653 0
M  V30 3058 H 269.535 0.823004 -1.21922 0
M  V30 3059 H 271.493 3.93034 -1.39929 0
M  V30 3060 H 270.123 3.18308 -0.536671 0
M  V30 3061 H 269.175 2.50763 -2.86046 0
M  V30 3062 H 270.487 3.44993 -3.60252 0
M  V30 3063 H 269.641 5.52969 -2.49619 0
M  V30 3064 H 268.38 4.58957 -1.64953 0
M  V30 3065 H 267.385 3.92007 -3.85501 0
M  V30 3066 H 268.61 4.89406 -4.70807 0
M  V30 3067 H 266.556 5.96273 -2.73486 0
M  V30 3068 H 266.473 6.10409 -4.46023 0
M  V30 3069 H 267.741 6.91761 -3.59286 0
M  V30 3070 N 271.97 1.30982 0.876444 0
M  V30 3071 C 272.88 1.2003 2.01569 0
M  V30 3072 C 273.896 0.11838 1.73597 0
M  V30 3073 O 275.072 0.33495 1.98595 0
M  V30 3074 C 272.137 0.901637 3.34771 0
M  V30 3075 C 271.198 2.06979 3.76109 0
M  V30 3076 C 270.431 1.78529 5.02954 0
M  V30 3077 O 270.654 0.717296 5.65872 0
M  V30 3078 O 269.588 2.64019 5.40905 0
M  V30 3079 H 273.414 2.15753 2.13739 0
M  V30 3080 H 270.999 1.10658 1.00375 0
M  V30 3081 H 272.881 0.750645 4.1466 0
M  V30 3082 H 271.556 -0.0256141 3.2369 0
M  V30 3083 H 270.463 2.27616 2.96887 0
M  V30 3084 H 271.796 2.97907 3.91807 0
M  V30 3085 N 273.449 -1.08991 1.13837 0
M  V30 3086 C 274.399 -2.1393 0.788535 0
M  V30 3087 C 275.383 -1.59396 -0.219516 0
M  V30 3088 O 276.575 -1.76985 -0.0227557 0
M  V30 3089 C 273.704 -3.42305 0.261147 0
M  V30 3090 C 272.79 -4.03736 1.29837 0
M  V30 3091 N 273.181 -4.39659 2.50067 0
M  V30 3092 C 271.479 -4.30993 1.1472 0
M  V30 3093 C 272.18 -4.88113 3.16419 0
M  V30 3094 N 271.156 -4.85846 2.43832 0
M  V30 3095 H 274.958 -2.39516 1.70322 0
M  V30 3096 H 272.472 -1.26263 1.02134 0
M  V30 3097 H 274.469 -4.16899 -0.0077405 0
M  V30 3098 H 273.129 -3.18172 -0.647805 0
M  V30 3099 H 274.14 -4.30878 2.8734 0
M  V30 3100 H 270.817 -4.16444 0.296773 0
M  V30 3101 H 272.207 -5.25336 4.18894 0
M  V30 3102 N 274.927 -0.932562 -1.27047 0
M  V30 3103 C 276.176 -0.571351 -1.93439 0
M  V30 3104 C 276.489 0.892467 -1.74053 0
M  V30 3105 O 277.695 1.36267 -2.34826 0
M  V30 3106 C 276.151 -0.97106 -3.46552 0
M  V30 3107 C 275.759 -2.4559 -3.74686 0
M  V30 3108 C 277.503 -0.681333 -4.18997 0
M  V30 3109 C 275.41 -2.79475 -5.21198 0
M  V30 3110 H 274.34 -0.209966 -0.724176 0
M  V30 3111 H 276.991 -1.13403 -1.44263 0
M  V30 3112 H 275.373 -0.336983 -3.94564 0
M  V30 3113 H 276.547 -3.13829 -3.37414 0
M  V30 3114 H 274.862 -2.71802 -3.15456 0
M  V30 3115 H 277.459 -0.910939 -5.26883 0
M  V30 3116 H 277.802 0.381628 -4.14547 0
M  V30 3117 H 278.335 -1.27473 -3.76823 0
M  V30 3118 H 275.074 -3.847 -5.30741 0
M  V30 3119 H 274.594 -2.1589 -5.596 0
M  V30 3120 H 276.273 -2.67478 -5.89122 0
M  V30 3121 N 276.405 1.4127 -0.698611 0
M  V30 3122 C 277.352 2.30773 -0.0352094 0
M  V30 3123 C 278.322 1.47273 0.768111 0
M  V30 3124 O 279.507 1.76053 0.735524 0
M  V30 3125 C 276.647 3.33346 0.893 0
M  V30 3126 C 275.76 4.31924 0.0809695 0
M  V30 3127 C 274.895 5.21566 1.0071 0
M  V30 3128 C 273.934 6.11811 0.188155 0
M  V30 3129 N 273.071 6.93926 1.06825 0
M  V30 3130 H 277.911 2.86943 -0.804207 0
M  V30 3131 H 275.448 1.4132 -0.408294 0
M  V30 3132 H 277.406 3.91368 1.44523 0
M  V30 3133 H 276.036 2.78719 1.62836 0
M  V30 3134 H 275.088 3.75825 -0.588224 0
M  V30 3135 H 276.4 4.95716 -0.553801 0
M  V30 3136 H 275.554 5.84437 1.62845 0
M  V30 3137 H 274.293 4.58008 1.67572 0
M  V30 3138 H 273.298 5.47986 -0.446254 0
M  V30 3139 H 274.523 6.77425 -0.476716 0
M  V30 3140 H 272.469 6.32973 1.72283 0
M  V30 3141 H 272.386 7.54416 0.489123 0
M  V30 3142 H 273.654 7.61262 1.67632 0
M  V30 3143 N 277.883 0.443576 1.51229 0
M  V30 3144 C 278.83 -0.364716 2.279 0
M  V30 3145 C 279.8 -1.0114 1.31757 0
M  V30 3146 O 280.985 -1.02912 1.60667 0
M  V30 3147 C 278.125 -1.45644 3.12861 0
M  V30 3148 C 277.238 -0.827269 4.24005 0
M  V30 3149 C 276.373 -1.89456 4.96266 0
M  V30 3150 C 275.412 -1.24416 5.99322 0
M  V30 3151 N 274.549 -2.25309 6.64966 0
M  V30 3152 H 279.389 0.295464 2.96532 0
M  V30 3153 H 276.926 0.157554 1.46254 0
M  V30 3154 H 278.884 -2.10076 3.6045 0
M  V30 3155 H 277.514 -2.08616 2.46331 0
M  V30 3156 H 276.566 -0.0710839 3.80334 0
M  V30 3157 H 277.878 -0.312481 4.9782 0
M  V30 3158 H 277.032 -2.61535 5.47434 0
M  V30 3159 H 275.771 -2.4431 4.22095 0
M  V30 3160 H 274.776 -0.508868 5.4744 0
M  V30 3161 H 276.001 -0.702882 6.75453 0
M  V30 3162 H 273.947 -2.79231 5.93604 0
M  V30 3163 H 273.864 -1.78739 7.34567 0
M  V30 3164 H 275.132 -2.96853 7.20763 0
M  V30 3165 N 279.361 -1.56624 0.175154 0
M  V30 3166 C 280.294 -2.14 -0.792412 0
M  V30 3167 C 281.272 -1.07114 -1.22333 0
M  V30 3168 O 282.456 -1.35112 -1.31442 0
M  V30 3169 C 279.583 -2.68268 -2.0676 0
M  V30 3170 C 278.629 -3.87562 -1.7804 0
M  V30 3171 S 279.462 -5.27074 -0.946222 0
M  V30 3172 C 280.618 -5.8475 -2.23199 0
M  V30 3173 H 280.851 -2.95736 -0.304588 0
M  V30 3174 H 278.384 -1.54349 -0.0395705 0
M  V30 3175 H 280.342 -3.00182 -2.80002 0
M  V30 3176 H 279.003 -1.86612 -2.52656 0
M  V30 3177 H 278.196 -4.23874 -2.72666 0
M  V30 3178 H 277.798 -3.56555 -1.12891 0
M  V30 3179 H 280.09 -5.97898 -3.18629 0
M  V30 3180 H 281.033 -6.81756 -1.91349 0
M  V30 3181 H 281.441 -5.13198 -2.35134 0
M  V30 3182 N 280.839 0.0985539 -1.57292 0
M  V30 3183 C 282.255 0.45267 -1.53046 0
M  V30 3184 C 282.455 1.80713 -0.891342 0
M  V30 3185 O 281.511 2.4785 -0.482375 0
M  V30 3186 C 282.824 0.418341 -2.97776 0
M  V30 3187 C 284.372 0.500443 -3.08973 0
M  V30 3188 C 284.847 0.496297 -4.55303 0
M  V30 3189 N 286.338 0.557151 -4.59837 0
M  V30 3190 C 287.073 0.575726 -5.70502 0
M  V30 3191 N 286.569 0.550714 -6.90608 0
M  V30 3192 N 288.362 0.620277 -5.58667 0
M  V30 3193 H 280.513 -0.788673 -1.97215 0
M  V30 3194 H 282.776 -0.293188 -0.901524 0
M  V30 3195 H 282.482 -0.509659 -3.47988 0
M  V30 3196 H 282.356 1.2386 -3.56284 0
M  V30 3197 H 284.743 1.41886 -2.58751 0
M  V30 3198 H 284.824 -0.347894 -2.53423 0
M  V30 3199 H 284.468 -0.418162 -5.06176 0
M  V30 3200 H 284.398 1.3618 -5.08687 0
M  V30 3201 H 286.889 0.581816 -3.73394 0
M  V30 3202 H 287.202 0.568075 -7.70709 0
M  V30 3203 H 285.547 0.517816 -6.93068 0
M  V30 3204 H 288.738 0.637322 -4.63741 0
M  V30 3205 H 288.911 0.631283 -6.44918 0
M  V30 3206 N 282.317 1.53212 0.369288 0
M  V30 3207 C 283.566 1.68436 1.10961 0
M  V30 3208 C 283.879 0.440738 1.9057 0
M  V30 3209 O 285.085 0.473446 2.6734 0
M  V30 3210 C 283.541 2.97744 2.0218 0
M  V30 3211 C 283.149 4.29355 1.279 0
M  V30 3212 C 284.893 3.22334 2.76226 0
M  V30 3213 C 282.8 5.49755 2.17999 0
M  V30 3214 H 281.73 0.627568 0.41794 0
M  V30 3215 H 284.381 1.79713 0.370884 0
M  V30 3216 H 282.763 2.8026 2.79768 0
M  V30 3217 H 283.937 4.57458 0.554007 0
M  V30 3218 H 282.252 4.11179 0.657311 0
M  V30 3219 H 284.849 4.09471 3.43857 0
M  V30 3220 H 285.192 2.38238 3.41392 0
M  V30 3221 H 285.725 3.40475 2.05723 0
M  V30 3222 H 282.464 6.36318 1.57417 0
M  V30 3223 H 281.984 5.25937 2.88359 0
M  V30 3224 H 283.663 5.84401 2.77641 0
M  V30 3225 N 283.795 -0.628877 1.44509 0
M  V30 3226 C 285.044 -1.38437 1.4669 0
M  V30 3227 C 285.357 -1.95322 0.104272 0
M  V30 3228 O 286.563 -2.715 0.00362163 0
M  V30 3229 C 285.019 -2.50659 2.5826 0
M  V30 3230 C 284.627 -2.00277 4.0074 0
M  V30 3231 C 286.371 -3.27844 2.69664 0
M  V30 3232 C 284.278 -3.09854 5.0373 0
M  V30 3233 H 283.208 -0.520245 0.545766 0
M  V30 3234 H 285.859 -0.676313 1.70582 0
M  V30 3235 H 284.241 -3.2405 2.27612 0
M  V30 3236 H 285.415 -1.33736 4.40966 0
M  V30 3237 H 283.73 -1.35901 3.93599 0
M  V30 3238 H 286.327 -4.09534 3.43781 0
M  V30 3239 H 286.67 -3.77471 1.75559 0
M  V30 3240 H 287.203 -2.61543 2.99733 0
M  V30 3241 H 283.942 -2.65168 5.99472 0
M  V30 3242 H 283.462 -3.7503 4.68095 0
M  V30 3243 H 285.141 -3.74592 5.27532 0
M  V30 3244 N 285.273 -1.31445 -0.869486 0
M  V30 3245 C 286.503 -1.23942 -1.65294 0
M  V30 3246 C 286.911 0.197561 -1.88166 0
M  V30 3247 O 286.254 1.14019 -1.44033 0
M  V30 3248 C 286.316 -1.91385 -3.04322 0
M  V30 3249 C 285.98 -3.40726 -3.04557 0
M  V30 3250 C 286.977 -4.36464 -2.82481 0
M  V30 3251 C 284.662 -3.82425 -3.25663 0
M  V30 3252 C 286.656 -5.71876 -2.8149 0
M  V30 3253 C 284.343 -5.1795 -3.243 0
M  V30 3254 C 285.341 -6.12486 -3.02241 0
M  V30 3255 O 285.029 -7.45534 -3.00724 0
M  V30 3256 H 284.761 -0.429459 -0.522054 0
M  V30 3257 H 287.315 -1.73873 -1.0935 0
M  V30 3258 H 285.545 -1.36004 -3.61994 0
M  V30 3259 H 287.234 -1.77791 -3.64891 0
M  V30 3260 H 288 -4.05576 -2.65956 0
M  V30 3261 H 283.879 -3.09274 -3.41863 0
M  V30 3262 H 287.423 -6.45638 -2.64191 0
M  V30 3263 H 283.32 -5.48473 -3.40365 0
M  V30 3264 H 284.088 -7.54713 -3.16782 0
M  V30 3265 N 286.751 1.08385 -1.14413 0
M  V30 3266 C 287.981 1.8425 -0.934644 0
M  V30 3267 C 288.389 1.81907 0.520234 0
M  V30 3268 O 287.732 1.22126 1.37226 0
M  V30 3269 C 287.794 3.32853 -1.35828 0
M  V30 3270 C 287.458 3.5893 -2.82875 0
M  V30 3271 C 288.455 3.53756 -3.80989 0
M  V30 3272 C 286.14 3.86934 -3.20293 0
M  V30 3273 C 288.134 3.76216 -5.14529 0
M  V30 3274 C 285.821 4.09047 -4.54008 0
M  V30 3275 C 286.819 4.03682 -5.50936 0
M  V30 3276 O 286.507 4.25214 -6.82238 0
M  V30 3277 H 286.239 0.588502 -0.332628 0
M  V30 3278 H 288.793 1.37792 -1.52324 0
M  V30 3279 H 287.023 3.8007 -0.713019 0
M  V30 3280 H 288.712 3.90154 -1.11957 0
M  V30 3281 H 289.478 3.32135 -3.53428 0
M  V30 3282 H 285.357 3.9023 -2.45442 0
M  V30 3283 H 288.901 3.71943 -5.90173 0
M  V30 3284 H 284.798 4.30151 -4.8129 0
M  V30 3285 H 285.566 4.42619 -6.88499 0
M  V30 3286 N 288.23 0.939286 1.26551 0
M  V30 3287 C 289.476 0.586715 1.94128 0
M  V30 3288 C 289.809 -0.8717 1.73537 0
M  V30 3289 O 289.084 -1.62339 1.07127 0
M  V30 3290 C 289.367 0.927497 3.4795 0
M  V30 3291 C 289.22 2.44052 3.77834 0
M  V30 3292 C 290.539 0.441569 4.37879 0
M  V30 3293 H 287.658 0.21463 0.705055 0
M  V30 3294 H 290.3 1.17316 1.49455 0
M  V30 3295 H 288.45 0.428431 3.8613 0
M  V30 3296 H 290.122 3.01216 3.4938 0
M  V30 3297 H 288.365 2.8848 3.23978 0
M  V30 3298 H 289.036 2.62947 4.85348 0
M  V30 3299 H 291.512 0.869448 4.06915 0
M  V30 3300 H 290.388 0.708856 5.44304 0
M  V30 3301 H 290.649 -0.658467 4.37169 0
M  V30 3302 N 289.708 -1.40897 0.706093 0
M  V30 3303 C 290.933 -2.05895 0.249435 0
M  V30 3304 C 291.358 -1.52823 -1.09666 0
M  V30 3305 O 290.716 -0.659589 -1.68876 0
M  V30 3306 C 290.764 -3.59872 0.22904 0
M  V30 3307 O 289.868 -4.04708 -0.792784 0
M  V30 3308 H 289.209 -0.653206 0.119241 0
M  V30 3309 H 291.739 -1.80471 0.96391 0
M  V30 3310 H 291.749 -4.07951 0.0634791 0
M  V30 3311 H 290.424 -3.97866 1.21141 0
M  V30 3312 H 289.001 -3.68111 -0.59572 0
M  V30 3313 N 291.186 -0.45159 -1.50991 0
M  V30 3314 C 292.118 0.388634 -2.25881 0
M  V30 3315 C 293.131 0.974041 -1.30446 0
M  V30 3316 O 294.32 0.865758 -1.56099 0
M  V30 3317 C 291.42 1.5571 -3.01011 0
M  V30 3318 C 290.593 1.08801 -4.23652 0
M  V30 3319 C 289.652 2.12825 -4.8124 0
M  V30 3320 O 288.678 1.71678 -5.42693 0
M  V30 3321 N 289.88 3.45453 -4.66522 0
M  V30 3322 H 292.645 -0.25329 -2.98628 0
M  V30 3323 H 290.206 -0.281268 -1.59438 0
M  V30 3324 H 292.198 2.24952 -3.3642 0
M  V30 3325 H 290.768 2.10409 -2.31186 0
M  V30 3326 H 289.988 0.22215 -3.93574 0
M  V30 3327 H 291.276 0.752213 -5.03209 0
M  V30 3328 H 290.674 3.81605 -4.17605 0
M  V30 3329 H 289.231 4.10549 -5.06254 0
M  V30 3330 N 292.664 1.56529 -0.183458 0
M  V30 3331 C 293.627 2.17324 0.728223 0
M  V30 3332 C 294.627 1.12453 1.14939 0
M  V30 3333 O 295.817 1.37902 1.06437 0
M  V30 3334 C 292.949 2.76591 1.99274 0
M  V30 3335 H 294.142 2.99241 0.198772 0
M  V30 3336 H 291.695 1.5616 0.0661391 0
M  V30 3337 H 292.43 1.98441 2.56499 0
M  V30 3338 H 292.215 3.5335 1.69959 0
M  V30 3339 H 293.705 3.23311 2.6431 0
M  V30 3340 N 294.142 -0.090211 1.57342 0
M  V30 3341 C 295.075 -1.14035 1.97664 0
M  V30 3342 C 296.053 -1.38576 0.850616 0
M  V30 3343 O 297.237 -1.52255 1.11134 0
M  V30 3344 C 294.364 -2.48854 2.2976 0
M  V30 3345 C 293.41 -2.40564 3.52181 0
M  V30 3346 S 294.243 -1.81745 5.03715 0
M  V30 3347 C 295.399 -3.18178 5.38993 0
M  V30 3348 H 295.632 -0.796636 2.86428 0
M  V30 3349 H 293.165 -0.298072 1.51496 0
M  V30 3350 H 295.123 -3.26413 2.48927 0
M  V30 3351 H 293.784 -2.80393 1.41558 0
M  V30 3352 H 292.977 -3.39942 3.72096 0
M  V30 3353 H 292.579 -1.71135 3.32549 0
M  V30 3354 H 294.871 -4.14461 5.35937 0
M  V30 3355 H 295.814 -3.03062 6.39968 0
M  V30 3356 H 296.222 -3.17935 4.66452 0
M  V30 3357 N 295.62 -1.53406 -0.361157 0
M  V30 3358 C 297.036 -1.43277 -0.703124 0
M  V30 3359 C 297.236 -0.575384 -1.9311 0
M  V30 3360 O 296.292 -0.0595362 -2.5243 0
M  V30 3361 C 297.605 -2.8653 -0.9122 0
M  V30 3362 C 299.153 -2.96191 -1.01193 0
M  V30 3363 C 299.628 -4.40514 -1.25345 0
M  V30 3364 N 301.119 -4.43962 -1.32105 0
M  V30 3365 C 301.854 -5.52746 -1.5251 0
M  V30 3366 N 301.35 -6.71567 -1.70203 0
M  V30 3367 N 303.143 -5.40331 -1.54916 0
M  V30 3368 H 295.294 -2.07654 0.446475 0
M  V30 3369 H 297.557 -0.937944 0.137715 0
M  V30 3370 H 297.263 -3.51605 -0.0816414 0
M  V30 3371 H 297.137 -3.30441 -1.81903 0
M  V30 3372 H 299.524 -2.31266 -1.83303 0
M  V30 3373 H 299.605 -2.55667 -0.0823929 0
M  V30 3374 H 299.249 -5.06014 -0.437346 0
M  V30 3375 H 299.179 -4.78614 -2.19627 0
M  V30 3376 H 301.67 -3.58332 -1.20028 0
M  V30 3377 H 301.983 -7.50241 -1.85359 0
M  V30 3378 H 300.328 -6.74545 -1.67373 0
M  V30 3379 H 303.519 -4.46465 -1.40663 0
M  V30 3380 H 303.692 -6.25173 -1.70477 0
M  V30 3381 N 297.098 0.621204 -1.44841 0
M  V30 3382 C 298.323 1.41244 -1.51871 0
M  V30 3383 C 298.748 1.87519 -0.147764 0
M  V30 3384 O 298.106 1.59334 0.865 0
M  V30 3385 C 298.154 2.60221 -2.49634 0
M  V30 3386 O 297.258 3.60395 -2.00473 0
M  V30 3387 H 296.599 0.42223 -0.512463 0
M  V30 3388 H 299.129 0.757305 -1.90069 0
M  V30 3389 H 299.139 3.0764 -2.67996 0
M  V30 3390 H 297.814 2.25887 -3.4921 0
M  V30 3391 H 296.391 3.19717 -1.91925 0
M  V30 3392 N 298.576 1.31904 0.862503 0
M  V30 3393 C 299.822 1.22197 1.61851 0
M  V30 3394 C 300.155 -0.217641 1.92977 0
M  V30 3395 O 299.43 -1.15264 1.56666 0
M  V30 3396 C 299.713 2.07378 2.94391 0
M  V30 3397 C 299.566 3.59678 2.70096 0
M  V30 3398 C 300.885 1.92891 3.95577 0
M  V30 3399 H 298.004 0.445255 0.587296 0
M  V30 3400 H 300.646 1.6177 0.99651 0
M  V30 3401 H 298.796 1.73758 3.47477 0
M  V30 3402 H 300.468 4.03472 2.23625 0
M  V30 3403 H 298.711 3.82735 2.04197 0
M  V30 3404 H 299.382 4.14595 3.64438 0
M  V30 3405 H 301.858 2.22327 3.51724 0
M  V30 3406 H 300.734 2.54781 4.86187 0
M  V30 3407 H 300.995 0.894315 4.3296 0
M  V30 3408 N 300.054 -1.07777 1.14986 0
M  V30 3409 C 301.284 -1.83752 0.944402 0
M  V30 3410 C 301.692 -1.8218 -0.51058 0
M  V30 3411 O 301.035 -1.22852 -1.36576 0
M  V30 3412 C 301.097 -3.32128 1.37592 0
M  V30 3413 C 300.761 -3.57425 2.84775 0
M  V30 3414 C 301.758 -3.5173 3.8286 0
M  V30 3415 C 299.443 -3.8523 3.2234 0
M  V30 3416 C 301.437 -3.73482 5.16517 0
M  V30 3417 C 299.124 -4.06634 4.56171 0
M  V30 3418 C 300.122 -4.00754 5.53069 0
M  V30 3419 O 299.81 -4.2159 6.84483 0
M  V30 3420 H 299.542 -0.58673 0.335744 0
M  V30 3421 H 302.096 -1.36982 1.53052 0
M  V30 3422 H 300.326 -3.79686 0.733165 0
M  V30 3423 H 302.015 -3.89555 1.14024 0
M  V30 3424 H 302.781 -3.30256 3.55184 0
M  V30 3425 H 298.66 -3.88923 2.47508 0
M  V30 3426 H 302.204 -3.68808 5.92137 0
M  V30 3427 H 298.101 -4.27593 4.83564 0
M  V30 3428 H 298.869 -4.38961 6.90837 0
M  V30 3429 N 301.532 -0.945985 -1.26051 0
M  V30 3430 C 302.809 -0.513816 -1.88731 0
M  V30 3431 C 303.189 1.00872 -1.8544 0
M  V30 3432 O 302.537 1.8708 -1.312 0
M  V30 3433 C 302.747 -1.08062 -3.31849 0
M  V30 3434 C 304.095 -1.1522 -4.08668 0
M  V30 3435 O 305.119 -1.03155 -3.40936 0
M  V30 3436 O 303.978 -1.34044 -5.29806 0
M  V30 3437 H 301.072 -0.168193 -0.809716 0
M  V30 3438 H 303.618 -1.03886 -1.34186 0
M  V30 3439 H 302.39 -2.1241 -3.2863 0
M  V30 3440 H 302.013 -0.538307 -3.93939 0
M  V30 3441 N 303.011 1.40521 -0.713556 0
M  V30 3442 C 304.422 1.83853 -0.324807 0
M  V30 3443 C 304.773 1.59667 1.14021 0
M  V30 3444 O 303.898 1.07649 1.87725 0
M  V30 3445 C 304.493 3.33751 -0.582746 0
M  V30 3446 C 303.052 3.75584 -0.247727 0
M  V30 3447 C 302.199 2.63753 -0.856121 0
M  V30 3448 H 305.15 1.29817 -0.91286 0
M  V30 3449 H 305.171 3.80194 0.152682 0
M  V30 3450 H 304.683 3.51322 -1.64908 0
M  V30 3451 H 302.784 3.63608 0.813624 0
M  V30 3452 H 302.897 4.7373 -0.715307 0
M  V30 3453 H 301.261 2.53108 -0.28432 0
M  V30 3454 H 302.044 2.84137 -1.92668 0
M  V30 3455 N 304.489 0.459591 1.5075 0
M  V30 3456 C 305.437 -0.354678 2.2988 0
M  V30 3457 C 306.431 -1.00086 1.36672 0
M  V30 3458 O 307.637 -0.933277 1.53915 0
M  V30 3459 H 304.012 -0.13321 0.740107 0
M  V30 3460 H 305.983 0.333269 2.96533 0
M  V30 3461 C 304.732 -1.43073 3.169 0
M  V30 3462 H 304.055 -0.942882 3.88523 0
M  V30 3463 H 305.495 -1.97328 3.75284 0
M  V30 3464 C 303.954 -2.42633 2.33732 0
M  V30 3465 O 304.484 -3.47658 2.01238 0
M  V30 3466 N 302.69 -2.14066 1.9653 0
M  V30 3467 H 302.237 -1.28685 2.23155 0
M  V30 3468 H 302.195 -2.80917 1.41185 0
M  V30 3469 N 305.967 -1.56429 0.191757 0
M  V30 3470 C 306.915 -2.20273 -0.747174 0
M  V30 3471 C 307.909 -1.17288 -1.22229 0
M  V30 3472 O 309.115 -1.35441 -1.18557 0
M  V30 3473 H 305.49 -0.705885 -0.259289 0
M  V30 3474 H 307.461 -2.97826 -0.184963 0
M  V30 3475 C 306.21 -2.87356 -1.95759 0
M  V30 3476 H 305.533 -3.66341 -1.60106 0
M  V30 3477 H 306.973 -3.3547 -2.59299 0
M  V30 3478 C 305.432 -1.88213 -2.79423 0
M  V30 3479 O 305.962 -1.38033 -3.7724 0
M  V30 3480 N 304.168 -1.56516 -2.44849 0
M  V30 3481 H 303.715 -1.97516 -1.65364 0
M  V30 3482 H 303.673 -0.904369 -3.01112 0
M  V30 3483 N 307.445 0.0818655 -1.57387 0
M  V30 3484 C 308.375 1.09885 -2.06028 0
M  V30 3485 C 309.356 1.4098 -0.951774 0
M  V30 3486 O 310.541 1.50781 -1.22387 0
M  V30 3487 C 307.671 2.4151 -2.4958 0
M  V30 3488 C 306.625 2.24792 -3.64215 0
M  V30 3489 C 305.951 3.61712 -3.93787 0
M  V30 3490 C 307.251 1.67749 -4.94629 0
M  V30 3491 H 308.945 0.694128 -2.91243 0
M  V30 3492 H 306.491 0.332448 -1.4011 0
M  V30 3493 H 308.444 3.12939 -2.82219 0
M  V30 3494 H 307.168 2.83943 -1.61381 0
M  V30 3495 H 305.827 1.55807 -3.31843 0
M  V30 3496 H 305.475 4.01697 -3.02735 0
M  V30 3497 H 305.175 3.51368 -4.70971 0
M  V30 3498 H 306.699 4.34587 -4.28913 0
M  V30 3499 H 308.113 2.29032 -5.25564 0
M  V30 3500 H 306.51 1.68128 -5.76067 0
M  V30 3501 H 307.58 0.638059 -4.80684 0
M  V30 3502 N 308.923 1.53595 0.353017 0
M  V30 3503 C 310.153 1.74058 1.11299 0
M  V30 3504 C 310.561 0.475205 1.83135 0
M  V30 3505 O 309.904 -0.562344 1.74881 0
M  V30 3506 C 309.966 2.85994 2.17825 0
M  V30 3507 C 309.63 4.25923 1.65647 0
M  V30 3508 C 310.627 5.07829 1.11383 0
M  V30 3509 C 308.312 4.72377 1.7078 0
M  V30 3510 C 310.306 6.34285 0.629439 0
M  V30 3511 C 307.993 5.98808 1.21953 0
M  V30 3512 C 308.991 6.79594 0.681265 0
M  V30 3513 O 308.679 8.03651 0.200248 0
M  V30 3514 H 308.411 0.585327 0.338183 0
M  V30 3515 H 310.965 2.01186 0.413927 0
M  V30 3516 H 309.195 2.54368 2.91262 0
M  V30 3517 H 310.884 2.94515 2.79313 0
M  V30 3518 H 311.65 4.73107 1.06746 0
M  V30 3519 H 307.529 4.0956 2.11617 0
M  V30 3520 H 311.073 6.97288 0.208636 0
M  V30 3521 H 306.97 6.33026 1.26287 0
M  V30 3522 H 307.738 8.1788 0.318416 0
M  V30 3523 N 310.401 -0.613514 1.45168 0
M  V30 3524 C 311.817 -0.933629 1.29443 0
M  V30 3525 C 312.017 -2.00028 0.243101 0
M  V30 3526 O 311.073 -2.49848 -0.364992 0
M  V30 3527 C 312.386 -1.38018 2.67155 0
M  V30 3528 C 313.934 -1.49471 2.75004 0
M  V30 3529 C 314.409 -1.97503 4.13227 0
M  V30 3530 N 315.9 -2.04746 4.15491 0
M  V30 3531 C 316.635 -2.43121 5.19307 0
M  V30 3532 N 316.131 -2.80506 6.33473 0
M  V30 3533 N 317.924 -2.43408 5.06664 0
M  V30 3534 H 310.075 0.0916097 2.12202 0
M  V30 3535 H 312.338 -0.0216655 0.947752 0
M  V30 3536 H 312.044 -0.670625 3.45247 0
M  V30 3537 H 311.918 -2.34784 2.95222 0
M  V30 3538 H 314.305 -2.19519 1.9722 0
M  V30 3539 H 314.386 -0.510342 2.50657 0
M  V30 3540 H 314.03 -1.28045 4.91495 0
M  V30 3541 H 313.96 -2.96843 4.34962 0
M  V30 3542 H 316.451 -1.78468 3.33103 0
M  V30 3543 H 316.764 -3.08652 7.08487 0
M  V30 3544 H 315.109 -2.78216 6.36884 0
M  V30 3545 H 318.3 -2.13604 4.16523 0
M  V30 3546 H 318.473 -2.72989 5.87691 0
M  V30 3547 N 311.879 -1.3236 -0.855495 0
M  V30 3548 C 313.125 -1.23054 -1.612 0
M  V30 3549 C 313.458 0.207404 -1.93089 0
M  V30 3550 O 312.733 1.14432 -1.57275 0
M  V30 3551 C 313.016 -2.08937 -2.93287 0
M  V30 3552 C 312.869 -3.61105 -2.68185 0
M  V30 3553 C 314.188 -1.94986 -3.94549 0
M  V30 3554 H 311.307 -0.448364 -0.584926 0
M  V30 3555 H 313.949 -1.62297 -0.987917 0
M  V30 3556 H 312.099 -1.75599 -3.46551 0
M  V30 3557 H 313.771 -4.04652 -2.21483 0
M  V30 3558 H 312.014 -3.83813 -2.02164 0
M  V30 3559 H 312.685 -4.16522 -3.62234 0
M  V30 3560 H 315.161 -2.24189 -3.5054 0
M  V30 3561 H 314.037 -2.57356 -4.84829 0
M  V30 3562 H 314.298 -0.917263 -4.3248 0
M  V30 3563 N 313.357 1.07166 -1.15556 0
M  V30 3564 C 314.606 1.79181 -0.926132 0
M  V30 3565 C 314.919 1.87768 0.547967 0
M  V30 3566 O 316.125 2.56323 0.895036 0
M  V30 3567 C 314.581 3.22 -1.60761 0
M  V30 3568 C 314.189 3.21607 -3.11886 0
M  V30 3569 C 315.933 3.9861 -1.4598 0
M  V30 3570 C 313.84 4.59092 -3.72812 0
M  V30 3571 H 312.77 0.67154 -0.342856 0
M  V30 3572 H 315.421 1.2027 -1.3859 0
M  V30 3573 H 313.803 3.81115 -1.07553 0
M  V30 3574 H 314.977 2.72127 -3.71865 0
M  V30 3575 H 313.292 2.58495 -3.2645 0
M  V30 3576 H 315.889 5.00225 -1.88888 0
M  V30 3577 H 316.232 4.143 -0.407541 0
M  V30 3578 H 316.765 3.45996 -1.96295 0
M  V30 3579 H 313.504 4.48606 -4.77946 0
M  V30 3580 H 313.024 5.08803 -3.17616 0
M  V30 3581 H 314.703 5.28059 -3.73848 0
M  V30 3582 N 314.835 0.952656 1.25548 0
M  V30 3583 C 315.765 0.489287 2.28316 0
M  V30 3584 C 316.746 -0.463359 1.63667 0
M  V30 3585 O 317.931 -0.36274 1.90782 0
M  V30 3586 C 315.061 -0.235603 3.465 0
M  V30 3587 C 314.015 0.631593 4.23314 0
M  V30 3588 C 313.341 -0.223923 5.34231 0
M  V30 3589 C 314.641 1.90871 4.86174 0
M  V30 3590 H 316.335 1.34822 2.67326 0
M  V30 3591 H 313.881 0.649728 1.28509 0
M  V30 3592 H 315.834 -0.570882 4.17515 0
M  V30 3593 H 314.558 -1.12877 3.06474 0
M  V30 3594 H 313.217 0.949929 3.54079 0
M  V30 3595 H 312.865 -1.11678 4.90446 0
M  V30 3596 H 312.565 0.35299 5.86539 0
M  V30 3597 H 314.089 -0.554214 6.0808 0
M  V30 3598 H 315.503 1.63997 5.49343 0
M  V30 3599 H 313.9 2.43112 5.4865 0
M  V30 3600 H 314.97 2.61304 4.08471 0
M  V30 3601 N 316.313 -1.40141 0.720998 0
M  V30 3602 C 317.243 -2.33339 0.0867621 0
M  V30 3603 C 318.224 -1.53178 -0.739622 0
M  V30 3604 O 319.409 -1.81625 -0.687449 0
M  V30 3605 C 316.539 -3.37194 -0.831728 0
M  V30 3606 C 315.493 -4.27857 -0.110558 0
M  V30 3607 C 314.819 -5.22294 -1.14513 0
M  V30 3608 C 316.119 -5.11872 1.0385 0
M  V30 3609 H 317.813 -2.86626 0.865219 0
M  V30 3610 H 315.359 -1.37814 0.417516 0
M  V30 3611 H 317.312 -4.01335 -1.28485 0
M  V30 3612 H 316.036 -2.82314 -1.64214 0
M  V30 3613 H 314.695 -3.65176 0.322797 0
M  V30 3614 H 314.343 -4.63717 -1.94874 0
M  V30 3615 H 314.043 -5.83797 -0.667446 0
M  V30 3616 H 315.567 -5.89312 -1.59824 0
M  V30 3617 H 316.981 -5.69436 0.664482 0
M  V30 3618 H 315.378 -5.82445 1.4449 0
M  V30 3619 H 316.448 -4.4753 1.86668 0
M  V30 3620 N 317.792 -0.46758 -1.50504 0
M  V30 3621 C 319.017 0.0886943 -2.0721 0
M  V30 3622 C 319.442 1.33057 -1.32956 0
M  V30 3623 O 318.8 1.77354 -0.376197 0
M  V30 3624 C 318.848 0.359202 -3.58806 0
M  V30 3625 O 317.952 1.44034 -3.8643 0
M  V30 3626 H 317.293 -0.0114349 -0.663902 0
M  V30 3627 H 319.823 -0.657613 -1.93744 0
M  V30 3628 H 319.833 0.600742 -4.03553 0
M  V30 3629 H 318.508 -0.548311 -4.1227 0
M  V30 3630 H 317.085 1.18638 -3.53524 0
M  V30 3631 N 319.27 1.56325 -0.20005 0
M  V30 3632 C 320.2 2.22318 0.713916 0
M  V30 3633 C 321.181 1.18788 1.21752 0
M  V30 3634 O 322.366 1.47309 1.26545 0
M  V30 3635 C 319.496 2.88639 1.93144 0
M  V30 3636 C 318.45 3.98457 1.56255 0
M  V30 3637 C 317.776 4.51967 2.85709 0
M  V30 3638 C 319.076 5.16612 0.768747 0
M  V30 3639 H 320.77 2.98952 0.163755 0
M  V30 3640 H 318.316 1.43792 0.0773219 0
M  V30 3641 H 320.269 3.33491 2.57608 0
M  V30 3642 H 318.993 2.09419 2.50621 0
M  V30 3643 H 317.652 3.54305 0.941471 0
M  V30 3644 H 317.3 3.69503 3.41287 0
M  V30 3645 H 317 5.26071 2.6177 0
M  V30 3646 H 318.524 4.99523 3.51154 0
M  V30 3647 H 319.938 5.57977 1.3166 0
M  V30 3648 H 318.335 5.96812 0.627286 0
M  V30 3649 H 319.405 4.84358 -0.229168 0
M  V30 3650 N 320.748 -0.0735177 1.57428 0
M  V30 3651 C 321.994 -0.774145 1.87443 0
M  V30 3652 C 322.327 -1.77311 0.792103 0
M  V30 3653 O 321.602 -1.93492 -0.197793 0
M  V30 3654 C 321.885 -1.48367 3.28115 0
M  V30 3655 C 321.738 -0.501227 4.46999 0
M  V30 3656 C 323.057 -2.429 3.66998 0
M  V30 3657 H 320.176 -0.279971 0.681752 0
M  V30 3658 H 322.818 -0.0373616 1.89963 0
M  V30 3659 H 320.968 -2.11171 3.26097 0
M  V30 3660 H 322.64 0.121468 4.6114 0
M  V30 3661 H 320.883 0.183593 4.33411 0
M  V30 3662 H 321.554 -1.03526 5.42205 0
M  V30 3663 H 324.03 -1.90175 3.70098 0
M  V30 3664 H 322.906 -2.89549 4.66318 0
M  V30 3665 H 323.167 -3.27628 2.96837 0
M  V30 3666 N 322.226 -1.5378 -0.344866 0
M  V30 3667 C 323.451 -1.75211 -1.10977 0
M  V30 3668 C 323.876 -0.48936 -1.81623 0
M  V30 3669 O 323.234 0.557925 -1.72502 0
M  V30 3670 C 323.282 -2.93147 -2.09993 0
M  V30 3671 O 322.386 -2.63203 -3.17487 0
M  V30 3672 H 321.727 -0.581241 -0.321021 0
M  V30 3673 H 324.257 -2.00738 -0.395661 0
M  V30 3674 H 324.267 -3.19898 -2.53237 0
M  V30 3675 H 322.942 -3.84731 -1.5797 0
M  V30 3676 H 321.519 -2.47336 -2.79069 0
M  V30 3677 N 323.704 0.605807 -1.45491 0
M  V30 3678 C 324.614 1.74466 -1.56839 0
M  V30 3679 C 325.63 1.68006 -0.452772 0
M  V30 3680 O 326.806 1.8833 -0.713708 0
M  V30 3681 C 323.871 3.10931 -1.53371 0
M  V30 3682 C 322.932 3.28832 -2.75986 0
M  V30 3683 C 322.165 4.58787 -2.72673 0
M  V30 3684 O 322.388 5.4122 -1.80102 0
M  V30 3685 O 321.322 4.79438 -3.63899 0
M  V30 3686 H 325.148 1.67843 -2.53106 0
M  V30 3687 H 322.733 0.770108 -1.28022 0
M  V30 3688 H 324.615 3.92233 -1.54051 0
M  V30 3689 H 323.29 3.18042 -0.602572 0
M  V30 3690 H 322.197 2.47112 -2.80867 0
M  V30 3691 H 323.53 3.26599 -3.68231 0
M  V30 3692 N 325.182 1.32811 0.848464 0
M  V30 3693 C 326.598 1.11937 1.13764 0
M  V30 3694 C 326.798 -0.0960789 2.01271 0
M  V30 3695 O 325.854 -0.779165 2.40178 0
M  V30 3696 C 327.167 2.402 1.809 0
M  V30 3697 C 328.715 2.46016 1.93508 0
M  V30 3698 C 329.19 3.74215 2.64059 0
M  V30 3699 N 330.681 3.75232 2.71579 0
M  V30 3700 C 331.416 4.71134 3.26833 0
M  V30 3701 N 330.912 5.77406 3.8285 0
M  V30 3702 N 332.705 4.58623 3.24995 0
M  V30 3703 H 324.856 2.1073 0.265855 0
M  V30 3704 H 327.119 0.930671 0.180431 0
M  V30 3705 H 326.825 3.29093 1.24058 0
M  V30 3706 H 326.699 2.51628 2.81004 0
M  V30 3707 H 329.086 1.57577 2.49506 0
M  V30 3708 H 329.167 2.38536 0.923811 0
M  V30 3709 H 328.811 4.63031 2.08722 0
M  V30 3710 H 328.741 3.78968 3.65637 0
M  V30 3711 H 331.232 2.98423 2.31845 0
M  V30 3712 H 331.545 6.46632 4.23187 0
M  V30 3713 H 329.89 5.81152 3.81165 0
M  V30 3714 H 333.081 3.74762 2.80484 0
M  V30 3715 H 333.254 5.33535 3.67756 0
M  V30 3716 N 326.66 -1.06551 1.16123 0
M  V30 3717 C 327.908 -1.78947 0.939267 0
M  V30 3718 C 328.229 -1.87532 -0.534476 0
M  V30 3719 O 327.499 -1.38211 -1.38833 0
M  V30 3720 H 326.079 -0.662807 0.344523 0
M  V30 3721 H 328.741 -1.28725 1.46342 0
M  V30 3722 H 327.837 -2.81117 1.35572 0
M  V30 3723 N 328.138 -0.959301 -1.25041 0
M  V30 3724 C 329.385 -0.616611 -1.92884 0
M  V30 3725 C 329.713 0.847036 -1.75087 0
M  V30 3726 O 328.968 1.62374 -1.09239 0
M  V30 3727 C 329.267 -0.927136 -3.45165 0
M  V30 3728 C 328.933 -2.37757 -3.83122 0
M  V30 3729 C 327.595 -2.77402 -3.93194 0
M  V30 3730 C 329.947 -3.31929 -4.01836 0
M  V30 3731 C 327.275 -4.10277 -4.19392 0
M  V30 3732 C 329.627 -4.64423 -4.29528 0
M  V30 3733 C 328.291 -5.03857 -4.37818 0
M  V30 3734 H 327.561 -0.225634 -0.705812 0
M  V30 3735 H 330.208 -1.20921 -1.48493 0
M  V30 3736 H 328.513 -0.252195 -3.90987 0
M  V30 3737 H 330.21 -0.6405 -3.95852 0
M  V30 3738 H 326.8 -2.06013 -3.75841 0
M  V30 3739 H 330.984 -3.02488 -3.93465 0
M  V30 3740 H 326.24 -4.40467 -4.24027 0
M  V30 3741 H 330.414 -5.37369 -4.42953 0
M  V30 3742 H 328.041 -6.06843 -4.57871 0
M  V30 3743 N 329.616 1.39756 -0.72842 0
M  V30 3744 C 330.564 2.32485 -0.0731849 0
M  V30 3745 C 331.558 1.52717 0.733063 0
M  V30 3746 O 332.764 1.68428 0.634988 0
M  V30 3747 H 329.139 0.751984 -0.00486469 0
M  V30 3748 H 331.11 2.85382 -0.871761 0
M  V30 3749 C 329.859 3.37773 0.824908 0
M  V30 3750 H 329.182 3.99227 0.213915 0
M  V30 3751 H 330.622 4.05121 1.25111 0
M  V30 3752 C 329.081 2.74287 1.95622 0
M  V30 3753 O 329.611 2.61618 3.04826 0
M  V30 3754 N 327.817 2.32475 1.74367 0
M  V30 3755 H 327.364 2.4298 0.855494 0
M  V30 3756 H 327.322 1.90337 2.50238 0
M  V30 3757 N 331.094 0.475555 1.50254 0
M  V30 3758 C 332.341 -0.0778919 2.0235 0
M  V30 3759 C 332.669 -1.39319 1.35722 0
M  V30 3760 O 331.924 -1.89888 0.473395 0
M  V30 3761 C 332.223 -0.305114 3.56095 0
M  V30 3762 C 331.889 0.92903 4.41225 0
M  V30 3763 C 330.551 1.26739 4.6421 0
M  V30 3764 C 332.903 1.75054 4.90923 0
M  V30 3765 C 330.231 2.42724 5.34137 0
M  V30 3766 C 332.583 2.9017 5.62125 0
M  V30 3767 C 331.247 3.24416 5.83362 0
M  V30 3768 H 330.517 -0.0285027 0.740452 0
M  V30 3769 H 333.164 0.630543 1.80821 0
M  V30 3770 H 331.469 -1.09584 3.76163 0
M  V30 3771 H 333.166 -0.747377 3.93974 0
M  V30 3772 H 329.756 0.655428 4.23559 0
M  V30 3773 H 333.94 1.50231 4.73016 0
M  V30 3774 H 329.196 2.69525 5.48786 0
M  V30 3775 H 333.37 3.54169 5.99614 0
M  V30 3776 H 330.997 4.14396 6.37323 0
M  V30 3777 N 332.573 -1.56217 0.208337 0
M  V30 3778 C 333.85 -1.89739 -0.475234 0
M  V30 3779 C 334.23 -1.1238 -1.78701 0
M  V30 3780 O 333.578 -0.228979 -2.2735 0
M  V30 3781 C 333.788 -3.42289 -0.681101 0
M  V30 3782 C 335.136 -4.12789 -0.994507 0
M  V30 3783 O 336.16 -3.47814 -0.768357 0
M  V30 3784 O 335.019 -5.27649 -1.42299 0
M  V30 3785 H 332.113 -0.788478 -0.249461 0
M  V30 3786 H 334.659 -1.67855 0.249538 0
M  V30 3787 H 333.431 -3.90534 0.244722 0
M  V30 3788 H 333.054 -3.69909 -1.45785 0
M  V30 3789 N 334.051 0.0651679 -1.57465 0
M  V30 3790 C 335.467 0.420105 -1.53972 0
M  V30 3791 C 335.667 1.78782 -0.929474 0
M  V30 3792 O 334.723 2.46771 -0.534839 0
M  V30 3793 C 336.036 0.355084 -2.98596 0
M  V30 3794 C 337.584 0.434792 -3.09965 0
M  V30 3795 C 338.059 0.399609 -4.56253 0
M  V30 3796 N 339.55 0.459488 -4.60915 0
M  V30 3797 C 340.285 0.454584 -5.71595 0
M  V30 3798 N 339.781 0.404102 -6.9162 0
M  V30 3799 N 341.574 0.501635 -5.59857 0
M  V30 3800 H 333.725 -0.830328 -1.95498 0
M  V30 3801 H 335.988 -0.312244 -0.895102 0
M  V30 3802 H 335.694 -0.583357 -3.46828 0
M  V30 3803 H 335.568 1.16275 -3.58831 0
M  V30 3804 H 337.955 1.36366 -2.61703 0
M  V30 3805 H 338.036 -0.40157 -2.52628 0
M  V30 3806 H 337.68 -0.525436 -5.05175 0
M  V30 3807 H 337.61 1.25359 -5.11461 0
M  V30 3808 H 340.101 0.502482 -3.74544 0
M  V30 3809 H 340.414 0.404468 -7.71741 0
M  V30 3810 H 338.759 0.37069 -6.94011 0
M  V30 3811 H 341.95 0.538812 -4.64989 0
M  V30 3812 H 342.123 0.494345 -6.46112 0
M  V30 3813 N 335.529 1.53961 0.336706 0
M  V30 3814 C 336.492 1.81724 1.39675 0
M  V30 3815 C 337.492 0.688532 1.45313 0
M  V30 3816 O 338.682 0.956829 1.45569 0
M  V30 3817 C 335.814 1.96543 2.78538 0
M  V30 3818 H 337.007 2.76424 1.16318 0
M  V30 3819 H 334.56 1.45478 0.571474 0
M  V30 3820 H 335.295 1.0401 3.07168 0
M  V30 3821 H 335.08 2.78665 2.75841 0
M  V30 3822 H 336.57 2.19516 3.5525 0
M  V30 3823 N 337.007 -0.598083 1.45811 0
M  V30 3824 C 338.253 -1.35882 1.50545 0
M  V30 3825 C 338.586 -1.93616 0.150445 0
M  V30 3826 O 337.861 -1.75604 -0.83628 0
M  V30 3827 C 338.144 -2.49966 2.59208 0
M  V30 3828 C 337.997 -1.97367 4.04186 0
M  V30 3829 C 339.316 -3.52068 2.64076 0
M  V30 3830 H 336.435 -0.492717 0.548087 0
M  V30 3831 H 339.077 -0.673319 1.77669 0
M  V30 3832 H 337.227 -3.08443 2.3621 0
M  V30 3833 H 338.899 -1.43466 4.38423 0
M  V30 3834 H 337.142 -1.283 4.14393 0
M  V30 3835 H 337.813 -2.79649 4.75921 0
M  V30 3836 H 340.289 -3.03448 2.84708 0
M  V30 3837 H 339.165 -4.2937 3.41954 0
M  V30 3838 H 339.426 -4.08304 1.69531 0
M  V30 3839 N 338.485 -1.33259 -0.841409 0
M  V30 3840 C 339.415 -1.25926 -1.96634 0
M  V30 3841 C 340.396 -0.140349 -1.6952 0
M  V30 3842 O 341.581 -0.329707 -1.91381 0
M  V30 3843 C 338.711 -0.99512 -3.32738 0
M  V30 3844 C 337.665 -2.0767 -3.74242 0
M  V30 3845 C 336.991 -1.66474 -5.08125 0
M  V30 3846 C 338.291 -3.49318 -3.88297 0
M  V30 3847 H 339.985 -2.20046 -2.03027 0
M  V30 3848 H 337.531 -1.05931 -0.975425 0
M  V30 3849 H 339.484 -0.930323 -4.11002 0
M  V30 3850 H 338.208 -0.0183004 -3.26595 0
M  V30 3851 H 336.867 -2.13187 -2.98239 0
M  V30 3852 H 336.515 -0.675012 -4.9845 0
M  V30 3853 H 336.215 -2.3885 -5.36865 0
M  V30 3854 H 337.739 -1.61455 -5.88867 0
M  V30 3855 H 339.153 -3.46316 -4.56879 0
M  V30 3856 H 337.55 -4.20158 -4.28471 0
M  V30 3857 H 338.62 -3.8801 -2.9082 0
M  V30 3858 N 339.963 1.05934 -1.16686 0
M  V30 3859 C 340.893 2.1546 -0.899949 0
M  V30 3860 C 341.874 1.69391 0.155154 0
M  V30 3861 O 343.059 1.94199 0.00648693 0
M  V30 3862 C 340.189 3.44939 -0.404241 0
M  V30 3863 C 339.143 4.04536 -1.39767 0
M  V30 3864 C 338.469 5.29268 -0.760216 0
M  V30 3865 C 339.769 4.42893 -2.76845 0
M  V30 3866 H 341.463 2.38046 -1.81588 0
M  V30 3867 H 339.009 1.14404 -0.874514 0
M  V30 3868 H 340.962 4.20901 -0.204971 0
M  V30 3869 H 339.686 3.21983 0.547206 0
M  V30 3870 H 338.345 3.30635 -1.58355 0
M  V30 3871 H 337.993 5.02611 0.197831 0
M  V30 3872 H 337.693 5.70101 -1.42332 0
M  V30 3873 H 339.217 6.07924 -0.57105 0
M  V30 3874 H 340.631 5.09921 -2.62019 0
M  V30 3875 H 339.028 4.94721 -3.39663 0
M  V30 3876 H 340.098 3.53584 -3.31823 0
M  V30 3877 N 341.441 0.965919 1.2453 0
M  V30 3878 C 342.388 0.49402 2.25451 0
M  V30 3879 C 343.358 -0.45948 1.59618 0
M  V30 3880 O 344.543 -0.370238 1.87173 0
M  V30 3881 C 341.683 -0.211359 3.44452 0
M  V30 3882 C 340.796 0.7807 4.24887 0
M  V30 3883 C 339.931 0.0516105 5.31175 0
M  V30 3884 C 338.97 1.03385 6.03306 0
M  V30 3885 N 338.107 0.334887 7.01301 0
M  V30 3886 H 342.947 1.35946 2.65184 0
M  V30 3887 H 340.484 0.681515 1.3036 0
M  V30 3888 H 342.442 -0.637 4.12308 0
M  V30 3889 H 341.072 -1.04077 3.05562 0
M  V30 3890 H 340.124 1.32479 3.56586 0
M  V30 3891 H 341.436 1.52978 4.74762 0
M  V30 3892 H 340.59 -0.432114 6.05159 0
M  V30 3893 H 339.329 -0.730179 4.82203 0
M  V30 3894 H 338.334 1.52847 5.28127 0
M  V30 3895 H 339.559 1.81606 6.54367 0
M  V30 3896 H 337.505 -0.427959 6.54603 0
M  V30 3897 H 337.422 1.02287 7.49048 0
M  V30 3898 H 338.69 -0.126928 7.79397 0
M  V30 3899 N 342.919 -1.39368 0.735821 0
M  V30 3900 C 343.866 -2.30599 0.0963825 0
M  V30 3901 C 344.836 -1.49257 -0.728794 0
M  V30 3902 O 346.021 -1.77941 -0.688588 0
M  V30 3903 C 343.161 -3.35596 -0.804305 0
M  V30 3904 C 342.274 -4.31987 0.0335761 0
M  V30 3905 C 341.409 -5.24053 -0.868461 0
M  V30 3906 C 340.448 -6.12095 -0.0258776 0
M  V30 3907 N 339.585 -6.96514 -0.883893 0
M  V30 3908 H 344.425 -2.8471 0.880002 0
M  V30 3909 H 341.962 -1.40188 0.445619 0
M  V30 3910 H 343.92 -3.95062 -1.34096 0
M  V30 3911 H 342.55 -2.82938 -1.55389 0
M  V30 3912 H 341.602 -3.74133 0.68766 0
M  V30 3913 H 342.914 -4.94074 0.685036 0
M  V30 3914 H 342.068 -5.88549 -1.47293 0
M  V30 3915 H 340.807 -4.62289 -1.5537 0
M  V30 3916 H 339.812 -5.4661 0.591386 0
M  V30 3917 H 341.037 -6.75923 0.656156 0
M  V30 3918 H 338.983 -6.37318 -1.55441 0
M  V30 3919 H 338.9 -7.55448 -0.288931 0
M  V30 3920 H 340.168 -7.65439 -1.4739 0
M  V30 3921 N 344.397 -0.483516 -1.5 0
M  V30 3922 C 345.674 0.129337 -1.95172 0
M  V30 3923 C 346.054 1.55802 -1.4244 0
M  V30 3924 O 345.402 2.19625 -0.630649 0
M  V30 3925 C 345.612 0.0599251 -3.48949 0
M  V30 3926 C 346.96 0.242617 -4.23906 0
M  V30 3927 O 347.984 0.135933 -3.55941 0
M  V30 3928 O 346.843 0.459454 -5.44565 0
M  V30 3929 H 343.937 0.104887 -0.820322 0
M  V30 3930 H 346.483 -0.544807 -1.60717 0
M  V30 3931 H 345.255 -0.937079 -3.79914 0
M  V30 3932 H 344.878 0.774984 -3.89974 0
M  V30 3933 N 345.875 1.56104 -0.216619 0
M  V30 3934 C 346.785 2.23694 0.706982 0
M  V30 3935 C 347.801 1.24295 1.21765 0
M  V30 3936 O 348.977 1.57094 1.2603 0
M  V30 3937 C 346.042 2.8998 1.90033 0
M  V30 3938 C 345.103 4.04708 1.43213 0
M  V30 3939 C 344.336 4.67824 2.56859 0
M  V30 3940 O 344.559 4.29913 3.74874 0
M  V30 3941 O 343.493 5.56905 2.28343 0
M  V30 3942 H 347.319 3.03272 0.161235 0
M  V30 3943 H 344.904 1.49394 0.0136177 0
M  V30 3944 H 346.786 3.31837 2.59735 0
M  V30 3945 H 345.461 2.13365 2.43428 0
M  V30 3946 H 344.368 3.6743 0.70327 0
M  V30 3947 H 345.701 4.83051 0.944615 0
M  V30 3948 N 347.353 -0.0568162 1.57498 0
M  V30 3949 C 348.601 -0.751617 1.87604 0
M  V30 3950 C 348.922 -1.77351 0.81066 0
M  V30 3951 O 348.192 -1.95254 -0.159018 0
M  V30 3952 H 346.772 -0.280583 0.692302 0
M  V30 3953 H 349.434 -0.0293483 1.94878 0
M  V30 3954 H 348.53 -1.25852 2.856 0
M  V30 3955 N 348.832 -1.54138 -0.328536 0
M  V30 3956 C 350.06 -1.76062 -1.08673 0
M  V30 3957 C 350.475 -0.506852 -1.81869 0
M  V30 3958 O 349.832 0.522223 -1.74869 0
M  V30 3959 C 349.883 -2.95054 -2.08866 0
M  V30 3960 O 349.604 -4.15583 -1.38644 0
M  V30 3961 C 351.105 -3.2915 -2.96943 0
M  V30 3962 H 348.325 -0.587889 -0.323461 0
M  V30 3963 H 350.869 -2.0101 -0.376175 0
M  V30 3964 H 349.024 -2.72394 -2.75464 0
M  V30 3965 H 349.438 -4.82481 -2.05699 0
M  V30 3966 H 350.912 -4.15723 -3.63151 0
M  V30 3967 H 351.389 -2.461 -3.63774 0
M  V30 3968 H 351.995 -3.53871 -2.35914 0
M  V30 3969 N 350.31 0.590341 -1.46126 0
M  V30 3970 C 351.558 1.34616 -1.50742 0
M  V30 3971 C 351.879 1.94363 -0.157486 0
M  V30 3972 O 351.149 1.78136 0.815136 0
M  V30 3973 H 349.729 0.499789 -0.555175 0
M  V30 3974 H 352.391 0.691953 -1.82203 0
M  V30 3975 H 351.487 2.15678 -2.25587 0
M  V30 3976 N 351.788 1.33704 0.83433 0
M  V30 3977 C 353.013 1.28615 1.62705 0
M  V30 3978 C 353.438 -0.139242 1.87584 0
M  V30 3979 O 352.796 -1.09734 1.4432 0
M  V30 3980 C 352.844 2.07139 2.95171 0
M  V30 3981 O 351.948 1.4331 3.86699 0
M  V30 3982 H 351.289 0.44226 0.49528 0
M  V30 3983 H 353.819 1.76335 1.03766 0
M  V30 3984 H 353.829 2.18073 3.44831 0
M  V30 3985 H 352.504 3.10779 2.76386 0
M  V30 3986 H 351.081 1.4105 3.45195 0
M  V30 3987 N 353.266 -1.05314 1.17247 0
M  V30 3988 C 354.196 -2.1498 0.911362 0
M  V30 3989 C 355.177 -1.69471 -0.146169 0
M  V30 3990 O 356.362 -1.942 0.003812 0
M  V30 3991 C 353.492 -3.4472 0.422528 0
M  V30 3992 C 352.446 -4.03789 1.4191 0
M  V30 3993 C 351.772 -5.28858 0.788274 0
M  V30 3994 C 353.072 -4.41418 2.7919 0
M  V30 3995 H 354.766 -2.3708 1.82848 0
M  V30 3996 H 352.312 -1.13938 0.880569 0
M  V30 3997 H 354.265 -4.20787 0.227289 0
M  V30 3998 H 352.989 -3.22269 -0.530123 0
M  V30 3999 H 351.648 -3.2979 1.60106 0
M  V30 4000 H 351.296 -5.02709 -0.171173 0
M  V30 4001 H 350.996 -5.69338 1.45353 0
M  V30 4002 H 352.52 -6.07612 0.603282 0
M  V30 4003 H 353.934 -5.08524 2.64719 0
M  V30 4004 H 352.331 -4.92913 3.42282 0
M  V30 4005 H 353.401 -3.51819 3.33693 0
M  V30 4006 N 354.744 -0.972509 -1.24016 0
M  V30 4007 C 355.677 -0.45117 -2.23696 0
M  V30 4008 C 356.655 0.477378 -1.55434 0
M  V30 4009 O 357.839 0.407647 -1.84039 0
M  V30 4010 C 354.966 0.34818 -3.36906 0
M  V30 4011 C 354.012 -0.523355 -4.23277 0
M  V30 4012 S 354.845 -1.96647 -4.98087 0
M  V30 4013 C 356.001 -1.17604 -6.14752 0
M  V30 4014 H 356.234 -1.29588 -2.67571 0
M  V30 4015 H 353.767 -0.777903 -1.33372 0
M  V30 4016 H 355.725 0.803387 -4.02562 0
M  V30 4017 H 354.386 1.16792 -2.91579 0
M  V30 4018 H 353.579 0.0906181 -5.03919 0
M  V30 4019 H 353.181 -0.914485 -3.62647 0
M  V30 4020 H 355.473 -0.433434 -6.76112 0
M  V30 4021 H 356.416 -1.95701 -6.8052 0
M  V30 4022 H 356.824 -0.698295 -5.60164 0
M  V30 4023 N 356.222 1.38976 -0.743202 0
M  V30 4024 C 357.468 2.0064 -0.295189 0
M  V30 4025 C 357.801 1.5885 1.11716 0
M  V30 4026 O 357.076 0.821181 1.76315 0
M  V30 4027 C 357.359 3.578 -0.406318 0
M  V30 4028 C 357.212 4.09586 -1.85903 0
M  V30 4029 C 358.531 4.39616 0.206439 0
M  V30 4030 H 355.65 0.728935 -0.108733 0
M  V30 4031 H 358.292 1.65067 -0.940897 0
M  V30 4032 H 356.442 3.88235 0.143419 0
M  V30 4033 H 358.114 3.89837 -2.46627 0
M  V30 4034 H 356.357 3.6284 -2.3776 0
M  V30 4035 H 357.028 5.18708 -1.888 0
M  V30 4036 H 359.504 4.15273 -0.262283 0
M  V30 4037 H 358.38 5.48812 0.0983819 0
M  V30 4038 H 358.641 4.22754 1.2935 0
M  V30 4039 N 357.7 0.491464 1.49741 0
M  V30 4040 C 358.946 -0.0565092 2.02721 0
M  V30 4041 C 359.279 -1.37522 1.37118 0
M  V30 4042 O 358.554 -1.87866 0.503645 0
M  V30 4043 C 358.837 -0.219051 3.59433 0
M  V30 4044 C 358.69 1.12211 4.35579 0
M  V30 4045 C 360.009 -0.964157 4.29409 0
M  V30 4046 H 357.128 -0.0190627 0.736753 0
M  V30 4047 H 359.77 0.641021 1.7886 0
M  V30 4048 H 357.92 -0.813165 3.79895 0
M  V30 4049 H 359.592 1.75437 4.26637 0
M  V30 4050 H 357.835 1.71377 3.98513 0
M  V30 4051 H 358.506 0.961794 5.43556 0
M  V30 4052 H 360.982 -0.460378 4.13545 0
M  V30 4053 H 359.858 -1.04671 5.38828 0
M  V30 4054 H 360.119 -2.00563 3.93988 0
M  V30 4055 N 359.178 -1.55987 0.224894 0
M  V30 4056 C 360.403 -2.03232 -0.41369 0
M  V30 4057 C 360.828 -1.10359 -1.52323 0
M  V30 4058 O 360.186 -0.092395 -1.81064 0
M  V30 4059 C 360.234 -3.48682 -0.919405 0
M  V30 4060 O 359.338 -3.58947 -2.03054 0
M  V30 4061 H 358.679 -0.657428 -0.0931903 0
M  V30 4062 H 361.209 -2.01679 0.34451 0
M  V30 4063 H 361.219 -3.8907 -1.22835 0
M  V30 4064 H 359.894 -4.15761 -0.107339 0
M  V30 4065 H 358.471 -3.30448 -1.72796 0
M  V30 4066 N 360.656 0.0484629 -1.57525 0
M  V30 4067 C 361.619 1.03956 -2.04269 0
M  V30 4068 C 362.619 1.30211 -0.943496 0
M  V30 4069 O 363.809 1.25539 -1.20771 0
M  V30 4070 C 360.941 2.37742 -2.44319 0
M  V30 4071 H 362.134 0.636182 -2.93075 0
M  V30 4072 H 359.687 0.294811 -1.53494 0
M  V30 4073 H 360.422 2.82866 -1.5861 0
M  V30 4074 H 360.207 2.20021 -3.24551 0
M  V30 4075 H 361.697 3.08936 -2.80978 0
M  V30 4076 N 362.134 1.5431 0.320358 0
M  V30 4077 C 363.38 1.72924 1.05949 0
M  V30 4078 C 363.713 0.503185 1.87568 0
M  V30 4079 O 362.988 -0.499839 1.87968 0
M  V30 4080 C 363.271 3.00676 1.98156 0
M  V30 4081 C 363.124 4.3354 1.19845 0
M  V30 4082 C 364.443 3.24198 2.9763 0
M  V30 4083 H 361.562 0.629195 0.383774 0
M  V30 4084 H 364.204 1.87008 0.335854 0
M  V30 4085 H 362.354 2.888 2.59859 0
M  V30 4086 H 364.026 4.57305 0.605773 0
M  V30 4087 H 362.269 4.309 0.500784 0
M  V30 4088 H 362.94 5.19156 1.87567 0
M  V30 4089 H 365.416 3.35557 2.4605 0
M  V30 4090 H 364.292 4.14938 3.59329 0
M  V30 4091 H 364.553 2.41577 3.7026 0
M  V30 4092 N 363.613 -0.582584 1.46437 0
M  V30 4093 C 364.861 -1.33814 1.51453 0
M  V30 4094 C 365.182 -1.94277 0.167792 0
M  V30 4095 O 364.452 -1.78566 -0.805677 0
M  V30 4096 H 363.032 -0.496838 0.557818 0
M  V30 4097 H 365.694 -0.682281 1.82568 0
M  V30 4098 H 364.79 -2.14479 2.26728 0
M  V30 4099 N 365.091 -1.34144 -0.827227 0
M  V30 4100 C 366.339 -1.26009 -1.58007 0
M  V30 4101 C 366.66 0.170971 -1.94249 0
M  V30 4102 O 365.93 1.10256 -1.61927 0
M  V30 4103 H 364.51 -0.463414 -0.585881 0
M  V30 4104 H 367.172 -1.68005 -0.987951 0
M  V30 4105 H 366.268 -1.86187 -2.50481 0
M  V30 4106 N 366.569 1.04691 -1.17803 0
M  V30 4107 C 367.846 1.7472 -0.879328 0
M  V30 4108 C 368.226 2.01812 0.619271 0
M  V30 4109 O 367.574 1.65824 1.57209 0
M  V30 4110 C 367.784 3.03686 -1.71976 0
M  V30 4111 C 369.132 3.77542 -1.94286 0
M  V30 4112 O 370.156 3.13569 -1.68976 0
M  V30 4113 O 369.015 4.92506 -2.36855 0
M  V30 4114 H 366.109 0.760011 -0.326056 0
M  V30 4115 H 368.655 1.10813 -1.28525 0
M  V30 4116 H 367.427 2.79754 -2.73594 0
M  V30 4117 H 367.05 3.75332 -1.31194 0
M  V30 4118 N 368.047 0.979072 1.23499 0
M  V30 4119 C 369.275 0.665202 1.95915 0
M  V30 4120 C 369.69 -0.767571 1.72493 0
M  V30 4121 O 369.047 -1.51635 1.01554 0
M  V30 4122 C 369.098 0.944438 3.48945 0
M  V30 4123 O 368.819 2.3209 3.71572 0
M  V30 4124 C 370.32 0.646336 4.38563 0
M  V30 4125 H 367.54 0.247218 0.623798 0
M  V30 4126 H 370.084 1.31009 1.57025 0
M  V30 4127 H 368.239 0.345575 3.85856 0
M  V30 4128 H 368.653 2.40957 4.65876 0
M  V30 4129 H 370.127 0.892091 5.44744 0
M  V30 4130 H 370.604 -0.419575 4.37191 0
M  V30 4131 H 371.21 1.22562 4.07258 0
M  V30 4132 N 369.525 -1.3858 0.750561 0
M  V30 4133 C 370.455 -2.33102 0.136237 0
M  V30 4134 C 371.436 -1.54713 -0.706965 0
M  V30 4135 O 372.621 -1.83043 -0.648769 0
M  V30 4136 C 369.751 -3.38882 -0.760017 0
M  V30 4137 C 368.705 -4.27995 -0.0197785 0
M  V30 4138 C 368.031 -5.24605 -1.03408 0
M  V30 4139 C 369.331 -5.09554 1.14684 0
M  V30 4140 H 371.025 -2.84726 0.925822 0
M  V30 4141 H 368.571 -1.36898 0.446654 0
M  V30 4142 H 370.524 -4.0397 -1.19943 0
M  V30 4143 H 369.248 -2.85734 -1.58189 0
M  V30 4144 H 367.907 -3.64409 0.400184 0
M  V30 4145 H 367.555 -4.67746 -1.84994 0
M  V30 4146 H 367.255 -5.85081 -0.543464 0
M  V30 4147 H 368.779 -5.9257 -1.47288 0
M  V30 4148 H 370.193 -5.67899 0.785118 0
M  V30 4149 H 368.59 -5.7925 1.56812 0
M  V30 4150 H 369.66 -4.4347 1.96118 0
M  V30 4151 N 371.003 -0.499398 -1.49478 0
M  V30 4152 C 371.935 0.316575 -2.27003 0
M  V30 4153 C 372.948 0.932047 -1.33479 0
M  V30 4154 O 374.137 0.815658 -1.58774 0
M  V30 4155 C 371.237 1.46055 -3.05812 0
M  V30 4156 C 370.41 0.952679 -4.26899 0
M  V30 4157 C 369.469 1.97407 -4.87767 0
M  V30 4158 O 368.495 1.54326 -5.4788 0
M  V30 4159 N 369.697 3.30436 -4.77276 0
M  V30 4160 H 372.462 -0.348168 -2.97671 0
M  V30 4161 H 370.023 -0.33185 -1.58463 0
M  V30 4162 H 372.015 2.14135 -3.43407 0
M  V30 4163 H 370.585 2.02948 -2.37762 0
M  V30 4164 H 369.805 0.0968248 -3.94081 0
M  V30 4165 H 371.093 0.59174 -5.05347 0
M  V30 4166 H 370.491 3.68126 -4.29534 0
M  V30 4167 H 369.048 3.94235 -5.19059 0
M  V30 4168 N 372.481 1.55866 -0.233164 0
M  V30 4169 C 373.391 2.24431 0.683217 0
M  V30 4170 C 374.407 1.2558 1.2044 0
M  V30 4171 O 375.583 1.58422 1.24356 0
M  V30 4172 C 372.648 2.91979 1.86947 0
M  V30 4173 C 371.709 4.06204 1.38912 0
M  V30 4174 C 370.942 4.70522 2.51883 0
M  V30 4175 O 371.165 4.33865 3.70293 0
M  V30 4176 O 370.099 5.59296 2.22423 0
M  V30 4177 H 373.925 3.03426 0.129059 0
M  V30 4178 H 371.51 1.494 -0.0022283 0
M  V30 4179 H 373.392 3.34573 2.56201 0
M  V30 4180 H 372.067 2.15935 2.41151 0
M  V30 4181 H 370.974 3.68155 0.664259 0
M  V30 4182 H 372.307 4.84025 0.893328 0
M  V30 4183 N 373.959 -0.0401083 1.57549 0
M  V30 4184 C 374.909 -1.05175 2.02292 0
M  V30 4185 C 375.893 -1.32674 0.910294 0
M  V30 4186 O 377.085 -1.32444 1.17421 0
M  V30 4187 C 374.214 -2.35622 2.49674 0
M  V30 4188 C 373.3 -2.11261 3.67736 0
M  V30 4189 N 373.691 -1.56923 4.80842 0
M  V30 4190 C 371.989 -2.41596 3.74897 0
M  V30 4191 C 372.69 -1.48111 5.62528 0
M  V30 4192 N 371.666 -1.95282 5.07312 0
M  V30 4193 H 375.468 -0.625455 2.87168 0
M  V30 4194 H 372.982 -0.246624 1.60516 0
M  V30 4195 H 374.979 -3.08893 2.79983 0
M  V30 4196 H 373.639 -2.7894 1.662 0
M  V30 4197 H 374.65 -1.25345 5.02503 0
M  V30 4198 H 371.327 -2.88064 3.02201 0
M  V30 4199 H 372.717 -1.06683 6.63377 0
M  V30 4200 N 375.437 -1.54477 -0.31217 0
M  V30 4201 C 376.347 -1.87695 -1.4074 0
M  V30 4202 C 377.363 -0.769975 -1.56036 0
M  V30 4203 O 378.539 -1.06537 -1.70915 0
M  V30 4204 C 375.604 -2.10755 -2.75287 0
M  V30 4205 C 374.665 -3.34514 -2.69071 0
M  V30 4206 C 373.898 -3.56465 -3.97201 0
M  V30 4207 O 374.121 -2.81637 -4.96021 0
M  V30 4208 O 373.055 -4.49964 -3.9977 0
M  V30 4209 H 376.881 -2.80849 -1.15574 0
M  V30 4210 H 374.466 -1.40526 -0.507228 0
M  V30 4211 H 376.348 -2.27188 -3.54913 0
M  V30 4212 H 375.023 -1.20788 -3.0032 0
M  V30 4213 H 373.93 -3.23456 -1.87955 0
M  V30 4214 H 375.263 -4.24575 -2.48992 0
M  V30 4215 N 376.915 0.57481 -1.46744 0
M  V30 4216 C 377.825 1.711 -1.60505 0
M  V30 4217 C 378.841 1.67008 -0.488307 0
M  V30 4218 O 380.017 1.86774 -0.753495 0
M  V30 4219 C 377.082 3.07608 -1.59932 0
M  V30 4220 C 376.143 3.22904 -2.82898 0
M  V30 4221 C 375.376 4.529 -2.82343 0
M  V30 4222 O 375.599 5.37278 -1.91542 0
M  V30 4223 O 374.533 4.71611 -3.73987 0
M  V30 4224 H 378.359 1.62436 -2.56609 0
M  V30 4225 H 375.944 0.742779 -1.29627 0
M  V30 4226 H 377.826 3.88877 -1.62336 0
M  V30 4227 H 376.501 3.16692 -0.669898 0
M  V30 4228 H 375.408 2.41099 -2.86046 0
M  V30 4229 H 376.741 3.18715 -3.75076 0
M  V30 4230 N 378.394 1.34581 0.820102 0
M  V30 4231 C 379.324 1.29038 1.94606 0
M  V30 4232 C 380.305 0.1673 1.69275 0
M  V30 4233 O 381.49 0.360112 1.90832 0
M  V30 4234 C 378.62 1.04793 3.31113 0
M  V30 4235 C 377.574 2.13597 3.70891 0
M  V30 4236 C 376.9 1.74537 5.05412 0
M  V30 4237 C 378.2 3.55451 3.8269 0
M  V30 4238 H 379.894 2.23248 1.99501 0
M  V30 4239 H 377.44 1.0747 0.958449 0
M  V30 4240 H 379.393 0.995592 4.0947 0
M  V30 4241 H 378.117 0.0702565 3.26524 0
M  V30 4242 H 376.776 2.17905 2.9481 0
M  V30 4243 H 376.424 0.754226 4.97313 0
M  V30 4244 H 376.124 2.47361 5.32997 0
M  V30 4245 H 377.648 1.70803 5.86224 0
M  V30 4246 H 379.062 3.5354 4.51312 0
M  V30 4247 H 377.459 4.26922 4.21732 0
M  V30 4248 H 378.529 3.92587 2.84611 0
M  V30 4249 N 379.872 -1.04064 1.18357 0
M  V30 4250 C 380.819 -2.12077 0.910603 0
M  V30 4251 C 381.789 -1.65421 -0.15 0
M  V30 4252 O 382.974 -1.90797 -0.0103614 0
M  V30 4253 C 380.114 -3.42252 0.442472 0
M  V30 4254 C 379.227 -4.0252 1.5685 0
M  V30 4255 C 378.362 -5.20657 1.05309 0
M  V30 4256 C 377.401 -5.72955 2.1538 0
M  V30 4257 N 376.538 -6.8238 1.65233 0
M  V30 4258 H 381.378 -2.34764 1.83548 0
M  V30 4259 H 378.915 -1.15157 0.915279 0
M  V30 4260 H 380.873 -4.16921 0.152534 0
M  V30 4261 H 379.503 -3.19712 -0.445428 0
M  V30 4262 H 378.555 -3.25178 1.97391 0
M  V30 4263 H 379.867 -4.37362 2.39824 0
M  V30 4264 H 379.021 -6.0244 0.717677 0
M  V30 4265 H 377.76 -4.87318 0.19293 0
M  V30 4266 H 376.765 -4.89793 2.49766 0
M  V30 4267 H 377.99 -6.08337 3.01832 0
M  V30 4268 H 375.936 -6.50917 0.815064 0
M  V30 4269 H 375.853 -7.16286 2.41805 0
M  V30 4270 H 377.121 -7.67788 1.34619 0
M  V30 4271 N 381.35 -0.985608 -1.22978 0
M  V30 4272 C 382.766 -0.695104 -1.43668 0
M  V30 4273 C 382.966 0.736866 -1.87543 0
M  V30 4274 O 382.022 1.50868 -2.02473 0
M  V30 4275 C 383.335 -1.69447 -2.48412 0
M  V30 4276 C 384.883 -1.70909 -2.62219 0
M  V30 4277 C 385.358 -2.6969 -3.70178 0
M  V30 4278 N 386.849 -2.6824 -3.77626 0
M  V30 4279 C 387.584 -3.41339 -4.60733 0
M  V30 4280 N 387.08 -4.24015 -5.4789 0
M  V30 4281 N 388.873 -3.30079 -4.54977 0
M  V30 4282 H 381.024 -1.91054 -0.928016 0
M  V30 4283 H 383.287 -0.823553 -0.469536 0
M  V30 4284 H 382.993 -2.7188 -2.23102 0
M  V30 4285 H 382.867 -1.48147 -3.46889 0
M  V30 4286 H 385.254 -0.691785 -2.86877 0
M  V30 4287 H 385.335 -1.96276 -1.6404 0
M  V30 4288 H 384.979 -3.71566 -3.46268 0
M  V30 4289 H 384.909 -2.41595 -4.67909 0
M  V30 4290 H 387.4 -2.08243 -3.15346 0
M  V30 4291 H 387.713 -4.76636 -6.08308 0
M  V30 4292 H 386.058 -4.28104 -5.47496 0
M  V30 4293 H 389.249 -2.64937 -3.85909 0
M  V30 4294 H 389.422 -3.87308 -5.19516 0
M  V30 4295 N 382.828 1.3818 -0.7579 0
M  V30 4296 C 384.058 2.04004 -0.326463 0
M  V30 4297 C 384.466 1.57286 1.05156 0
M  V30 4298 O 383.809 0.743144 1.67997 0
M  V30 4299 C 383.871 3.58444 -0.275402 0
M  V30 4300 C 383.535 4.28237 -1.59569 0
M  V30 4301 C 384.532 4.53312 -2.54566 0
M  V30 4302 C 382.217 4.66341 -1.86631 0
M  V30 4303 C 384.211 5.15531 -3.74842 0
M  V30 4304 C 381.898 5.28283 -3.0718 0
M  V30 4305 C 382.896 5.52814 -4.01106 0
M  V30 4306 O 382.584 6.13465 -5.19534 0
M  V30 4307 H 382.316 0.662026 -0.136739 0
M  V30 4308 H 384.87 1.7777 -1.02893 0
M  V30 4309 H 383.1 3.83667 0.483337 0
M  V30 4310 H 384.789 4.05701 0.127099 0
M  V30 4311 H 385.555 4.24299 -2.34936 0
M  V30 4312 H 381.434 4.46591 -1.14358 0
M  V30 4313 H 384.978 5.34594 -4.48168 0
M  V30 4314 H 380.875 5.56719 -3.26702 0
M  V30 4315 H 381.643 6.31951 -5.20173 0
M  V30 4316 N 384.306 0.507319 1.49211 0
M  V30 4317 C 385.236 -0.256939 2.32082 0
M  V30 4318 C 386.217 -0.956609 1.40652 0
M  V30 4319 O 387.402 -0.946788 1.69557 0
M  V30 4320 C 384.532 -1.31802 3.21318 0
M  V30 4321 C 383.486 -0.737855 4.21592 0
M  V30 4322 C 382.812 -1.89992 4.99807 0
M  V30 4323 C 384.112 0.275325 5.21574 0
M  V30 4324 H 385.806 0.434798 2.96226 0
M  V30 4325 H 383.352 0.210546 1.42452 0
M  V30 4326 H 385.305 -1.86045 3.78107 0
M  V30 4327 H 384.029 -2.03903 2.5513 0
M  V30 4328 H 382.688 -0.217126 3.65956 0
M  V30 4329 H 382.336 -2.60877 4.30061 0
M  V30 4330 H 382.036 -1.51777 5.6766 0
M  V30 4331 H 383.56 -2.44657 5.59442 0
M  V30 4332 H 384.974 -0.179193 5.7302 0
M  V30 4333 H 383.371 0.573649 5.97352 0
M  V30 4334 H 384.441 1.18903 4.70096 0
M  V30 4335 N 385.784 -1.5574 0.241426 0
M  V30 4336 C 387.2 -1.59196 -0.113548 0
M  V30 4337 C 387.4 -1.25852 -1.57364 0
M  V30 4338 O 386.456 -1.00322 -2.31715 0
M  V30 4339 C 387.769 -2.99814 0.230695 0
M  V30 4340 C 389.317 -3.12513 0.174547 0
M  V30 4341 C 389.792 -4.55342 0.492744 0
M  V30 4342 N 391.283 -4.61076 0.443043 0
M  V30 4343 C 392.018 -5.6956 0.662484 0
M  V30 4344 N 391.514 -6.86328 0.944761 0
M  V30 4345 N 393.307 -5.58957 0.593564 0
M  V30 4346 H 385.458 -1.75685 1.19368 0
M  V30 4347 H 387.721 -0.81756 0.479896 0
M  V30 4348 H 387.427 -3.28932 1.24485 0
M  V30 4349 H 387.301 -3.74568 -0.444833 0
M  V30 4350 H 389.688 -2.83179 -0.830277 0
M  V30 4351 H 389.769 -2.40045 0.883845 0
M  V30 4352 H 389.413 -4.85396 1.4951 0
M  V30 4353 H 389.343 -5.26062 -0.23797 0
M  V30 4354 H 391.834 -3.77179 0.233374 0
M  V30 4355 H 392.147 -7.64935 1.09977 0
M  V30 4356 H 390.492 -6.88025 0.982175 0
M  V30 4357 H 393.683 -4.66611 0.373123 0
M  V30 4358 H 393.856 -6.43433 0.767981 0
M  V30 4359 N 387.262 0.0317525 -1.57568 0
M  V30 4360 C 388.209 1.0332 -2.06382 0
M  V30 4361 C 389.179 1.36082 -0.952414 0
M  V30 4362 O 390.364 1.46466 -1.2228 0
M  V30 4363 C 387.504 2.32989 -2.54578 0
M  V30 4364 C 386.617 2.0641 -3.79498 0
M  V30 4365 C 385.752 3.2993 -4.16317 0
M  V30 4366 C 384.791 2.98893 -5.34162 0
M  V30 4367 N 383.928 4.14857 -5.66426 0
M  V30 4368 H 388.768 0.609982 -2.9169 0
M  V30 4369 H 386.305 0.289573 -1.44222 0
M  V30 4370 H 388.263 3.0875 -2.80587 0
M  V30 4371 H 386.893 2.73039 -1.7219 0
M  V30 4372 H 385.945 1.21158 -3.6059 0
M  V30 4373 H 387.257 1.79513 -4.65378 0
M  V30 4374 H 386.411 4.1406 -4.4344 0
M  V30 4375 H 385.15 3.59938 -3.29083 0
M  V30 4376 H 384.155 2.13164 -5.06795 0
M  V30 4377 H 385.38 2.70165 -6.23047 0
M  V30 4378 H 383.326 4.44821 -4.82151 0
M  V30 4379 H 383.243 3.91374 -6.4681 0
M  V30 4380 H 384.511 4.99868 -5.98124 0
M  V30 4381 N 388.74 1.54641 0.303973 0
M  V30 4382 C 390.156 1.45788 0.649463 0
M  V30 4383 C 390.356 0.64666 1.90842 0
M  V30 4384 O 389.412 0.153183 2.52035 0
M  V30 4385 C 390.725 2.89718 0.805227 0
M  V30 4386 C 392.273 2.99742 0.901305 0
M  V30 4387 C 392.748 4.44863 1.08909 0
M  V30 4388 N 394.239 4.48559 1.15536 0
M  V30 4389 C 394.974 5.58026 1.3189 0
M  V30 4390 N 394.47 6.77422 1.45161 0
M  V30 4391 N 396.263 5.45708 1.34755 0
M  V30 4392 H 388.414 2.05854 -0.523237 0
M  V30 4393 H 390.677 0.932186 -0.172431 0
M  V30 4394 H 390.383 3.51666 -0.0489108 0
M  V30 4395 H 390.257 3.36964 1.69513 0
M  V30 4396 H 392.644 2.3791 1.74593 0
M  V30 4397 H 392.725 2.55797 -0.0125531 0
M  V30 4398 H 392.369 5.07288 0.249241 0
M  V30 4399 H 392.299 4.86436 2.01713 0
M  V30 4400 H 394.79 3.6254 1.06646 0
M  V30 4401 H 395.103 7.56604 1.57387 0
M  V30 4402 H 393.448 6.80292 1.42223 0
M  V30 4403 H 396.639 4.51378 1.23996 0
M  V30 4404 H 396.812 6.3107 1.47157 0
M  V30 4405 N 390.218 -0.567019 1.47046 0
M  V30 4406 C 391.446 -1.35027 1.56765 0
M  V30 4407 C 391.861 -1.8758 0.214316 0
M  V30 4408 O 391.218 -1.64471 -0.790919 0
M  V30 4409 C 391.269 -2.52698 2.58507 0
M  V30 4410 O 390.99 -2.0232 3.88585 0
M  V30 4411 C 392.491 -3.45043 2.78316 0
M  V30 4412 H 389.711 -0.41195 0.529658 0
M  V30 4413 H 392.255 -0.687832 1.92585 0
M  V30 4414 H 390.41 -3.149 2.25648 0
M  V30 4415 H 390.824 -2.79068 4.44096 0
M  V30 4416 H 392.298 -4.2405 3.53391 0
M  V30 4417 H 392.775 -3.97971 1.85784 0
M  V30 4418 H 393.381 -2.88665 3.12334 0
M  V30 4419 N 391.696 -1.35014 -0.812953 0
M  V30 4420 C 392.626 -1.30069 -1.93919 0
M  V30 4421 C 393.607 -0.176275 -1.69184 0
M  V30 4422 O 394.792 -0.370227 -1.90638 0
M  V30 4423 C 391.922 -1.06547 -3.30552 0
M  V30 4424 C 390.876 -2.15561 -3.69753 0
M  V30 4425 C 390.202 -1.77214 -5.04479 0
M  V30 4426 C 391.502 -3.57476 -3.808 0
M  V30 4427 H 393.196 -2.24303 -1.98314 0
M  V30 4428 H 390.742 -1.07977 -0.952736 0
M  V30 4429 H 392.695 -1.01729 -4.08937 0
M  V30 4430 H 391.419 -0.0875719 -3.26483 0
M  V30 4431 H 390.078 -2.19466 -2.9365 0
M  V30 4432 H 389.726 -0.780589 -4.96906 0
M  V30 4433 H 389.426 -2.50184 -5.31678 0
M  V30 4434 H 390.95 -1.7391 -5.8531 0
M  V30 4435 H 392.364 -3.55929 -4.4943 0
M  V30 4436 H 390.761 -4.29152 -4.19462 0
M  V30 4437 H 391.831 -3.94091 -2.82525 0
M  V30 4438 N 393.175 1.03435 -1.18907 0
M  V30 4439 C 394.591 1.28973 -0.940111 0
M  V30 4440 C 394.791 1.97676 0.390691 0
M  V30 4441 O 393.847 2.26127 1.12352 0
M  V30 4442 C 395.16 2.14221 -2.11021 0
M  V30 4443 C 396.708 2.27547 -2.14922 0
M  V30 4444 C 397.183 3.16164 -3.31367 0
M  V30 4445 N 398.674 3.23752 -3.31269 0
M  V30 4446 C 399.409 3.92495 -4.18014 0
M  V30 4447 N 398.905 4.63515 -5.14904 0
M  V30 4448 N 400.698 3.88838 -4.05908 0
M  V30 4449 H 392.849 0.57252 -2.04538 0
M  V30 4450 H 395.112 0.315184 -0.894071 0
M  V30 4451 H 394.818 1.71054 -3.073 0
M  V30 4452 H 394.692 3.14919 -2.0762 0
M  V30 4453 H 397.079 2.69947 -1.19217 0
M  V30 4454 H 397.16 1.26418 -2.22378 0
M  V30 4455 H 396.804 2.74474 -4.27348 0
M  V30 4456 H 396.734 4.17339 -3.21148 0
M  V30 4457 H 399.225 2.73167 -2.61129 0
M  V30 4458 H 399.538 5.13583 -5.77453 0
M  V30 4459 H 397.883 4.62398 -5.18857 0
M  V30 4460 H 401.074 3.32491 -3.29495 0
M  V30 4461 H 401.247 4.4214 -4.73726 0
M  V30 4462 N 394.653 0.992116 1.22453 0
M  V30 4463 C 395.883 0.684949 1.94915 0
M  V30 4464 C 396.291 -0.754292 1.73514 0
M  V30 4465 O 395.634 -1.52056 1.03076 0
M  V30 4466 C 395.696 0.910054 3.47791 0
M  V30 4467 C 395.36 2.33363 3.92926 0
M  V30 4468 C 396.357 3.31308 4.00663 0
M  V30 4469 C 394.042 2.66785 4.25595 0
M  V30 4470 C 396.036 4.6075 4.40441 0
M  V30 4471 C 393.723 3.96446 4.65053 0
M  V30 4472 C 394.721 4.9324 4.72444 0
M  V30 4473 O 394.409 6.20584 5.1101 0
M  V30 4474 H 394.141 0.25258 0.62704 0
M  V30 4475 H 396.695 1.32939 1.56577 0
M  V30 4476 H 394.925 0.208443 3.86138 0
M  V30 4477 H 396.614 0.598257 4.01467 0
M  V30 4478 H 397.38 3.0682 3.75615 0
M  V30 4479 H 393.259 1.92148 4.19047 0
M  V30 4480 H 396.803 5.363 4.46126 0
M  V30 4481 H 392.7 4.20724 4.89552 0
M  V30 4482 H 393.468 6.24509 5.29085 0
M  V30 4483 N 396.131 -1.37776 0.765217 0
M  V30 4484 C 397.359 -2.04124 0.337767 0
M  V30 4485 C 397.774 -1.57715 -1.03785 0
M  V30 4486 O 397.131 -0.755447 -1.6613 0
M  V30 4487 C 397.182 -3.59658 0.364442 0
M  V30 4488 O 396.903 -4.04367 1.68579 0
M  V30 4489 C 398.404 -4.43236 -0.0754221 0
M  V30 4490 H 395.624 -0.655696 0.142491 0
M  V30 4491 H 398.168 -1.76238 1.03732 0
M  V30 4492 H 396.323 -3.86339 -0.286471 0
M  V30 4493 H 396.737 -4.98857 1.61993 0
M  V30 4494 H 398.211 -5.52 -0.00560067 0
M  V30 4495 H 398.688 -4.2455 -1.12491 0
M  V30 4496 H 399.294 -4.21767 0.547055 0
M  V30 4497 N 397.609 -0.515225 -1.4894 0
M  V30 4498 C 398.886 0.0879088 -1.95402 0
M  V30 4499 C 399.266 1.52745 -1.45712 0
M  V30 4500 O 398.614 2.18238 -0.677093 0
M  V30 4501 C 398.824 -0.0141055 -3.48997 0
M  V30 4502 C 400.172 0.152646 -4.24326 0
M  V30 4503 O 401.196 0.0604025 -3.56149 0
M  V30 4504 O 400.055 0.34384 -5.45417 0
M  V30 4505 H 397.149 0.0874636 -0.822362 0
M  V30 4506 H 399.695 -0.578775 -1.59525 0
M  V30 4507 H 398.467 -1.01745 -3.77841 0
M  V30 4508 H 398.09 0.692091 -3.9153 0
M  V30 4509 N 399.087 1.5561 -0.249682 0
M  V30 4510 C 400.017 2.24477 0.642826 0
M  V30 4511 C 400.998 1.22601 1.17911 0
M  V30 4512 O 402.183 1.5126 1.21795 0
M  V30 4513 C 399.313 2.94638 1.83863 0
M  V30 4514 C 398.267 4.03227 1.435 0
M  V30 4515 C 397.593 4.60828 2.71186 0
M  V30 4516 C 398.893 5.18796 0.604002 0
M  V30 4517 H 400.587 2.99321 0.0685625 0
M  V30 4518 H 398.133 1.43965 0.0315363 0
M  V30 4519 H 400.086 3.41517 2.46868 0
M  V30 4520 H 398.81 2.17287 2.43832 0
M  V30 4521 H 397.469 3.57121 0.828275 0
M  V30 4522 H 397.117 3.80174 3.29358 0
M  V30 4523 H 396.817 5.34132 2.44901 0
M  V30 4524 H 398.341 5.10442 3.35084 0
M  V30 4525 H 399.755 5.61883 1.13842 0
M  V30 4526 H 398.152 5.98506 0.437097 0
M  V30 4527 H 399.222 4.83384 -0.383147 0
M  V30 4528 N 400.565 -0.0233959 1.57583 0
M  V30 4529 C 401.811 -0.714119 1.89811 0
M  V30 4530 C 402.144 -1.74702 0.848113 0
M  V30 4531 O 401.419 -1.94023 -0.136135 0
M  V30 4532 C 401.702 -1.37853 3.32669 0
M  V30 4533 C 401.555 -0.358764 4.48367 0
M  V30 4534 C 402.874 -2.31101 3.7454 0
M  V30 4535 H 399.993 -0.25814 0.690314 0
M  V30 4536 H 402.635 0.0230927 1.89986 0
M  V30 4537 H 400.785 -2.00689 3.3265 0
M  V30 4538 H 402.457 0.268115 4.6052 0
M  V30 4539 H 400.7 0.321387 4.32608 0
M  V30 4540 H 401.371 -0.862242 5.45224 0
M  V30 4541 H 403.847 -1.78304 3.75961 0
M  V30 4542 H 402.723 -2.74567 4.75294 0
M  V30 4543 H 402.984 -3.18018 3.0711 0
M  V30 4544 N 402.043 -1.548 -0.295768 0
M  V30 4545 C 402.975 -1.82492 -1.3867 0
M  V30 4546 C 403.988 -0.708134 -1.46592 0
M  V30 4547 O 405.177 -0.985686 -1.48817 0
M  V30 4548 C 402.277 -1.95256 -2.76999 0
M  V30 4549 C 401.45 -3.25709 -2.91946 0
M  V30 4550 C 400.509 -3.28824 -4.10806 0
M  V30 4551 O 399.535 -4.02328 -4.02643 0
M  V30 4552 N 400.737 -2.5459 -5.21694 0
M  V30 4553 H 403.502 -2.76646 -1.15269 0
M  V30 4554 H 401.063 -1.54438 -0.485849 0
M  V30 4555 H 403.055 -1.94736 -3.54768 0
M  V30 4556 H 401.625 -1.08072 -2.93324 0
M  V30 4557 H 400.845 -3.38959 -2.01247 0
M  V30 4558 H 402.133 -4.11786 -2.98847 0
M  V30 4559 H 401.531 -1.94512 -5.31208 0
M  V30 4560 H 400.088 -2.59818 -5.97778 0
M  V30 4561 N 403.521 0.559213 -1.47345 0
M  V30 4562 C 404.768 1.31648 -1.53867 0
M  V30 4563 C 405.096 1.93468 -0.200104 0
M  V30 4564 O 404.351 1.78295 0.806799 0
M  V30 4565 C 404.65 2.44853 -2.6035 0
M  V30 4566 C 404.316 2.00876 -4.03683 0
M  V30 4567 C 402.978 1.88599 -4.42701 0
M  V30 4568 C 405.33 1.67279 -4.93626 0
M  V30 4569 C 402.658 1.41017 -5.69501 0
M  V30 4570 C 405.01 1.21169 -6.20887 0
M  V30 4571 C 403.674 1.07487 -6.58789 0
M  V30 4572 H 402.944 0.481734 -0.56304 0
M  V30 4573 H 405.591 0.627301 -1.80934 0
M  V30 4574 H 403.896 3.19318 -2.27032 0
M  V30 4575 H 405.593 3.03039 -2.62619 0
M  V30 4576 H 402.183 2.11374 -3.72853 0
M  V30 4577 H 406.367 1.75638 -4.64182 0
M  V30 4578 H 401.623 1.29086 -5.97618 0
M  V30 4579 H 405.797 0.942345 -6.89995 0
M  V30 4580 H 403.424 0.703946 -7.56934 0
M  V30 4581 N 404.999 1.35443 0.805782 0
M  V30 4582 C 405.929 1.31095 1.93226 0
M  V30 4583 C 406.91 0.185244 1.69088 0
M  V30 4584 O 408.095 0.380332 1.90439 0
M  V30 4585 C 405.225 1.08299 3.29983 0
M  V30 4586 C 404.179 2.17519 3.68605 0
M  V30 4587 C 403.505 1.79887 5.03532 0
M  V30 4588 C 404.805 3.5949 3.78898 0
M  V30 4589 H 406.499 2.25352 1.97122 0
M  V30 4590 H 404.045 1.0848 0.946996 0
M  V30 4591 H 405.998 1.03897 4.08391 0
M  V30 4592 H 404.722 0.104885 3.26432 0
M  V30 4593 H 403.381 2.2102 2.92482 0
M  V30 4594 H 403.029 0.80693 4.96485 0
M  V30 4595 H 402.729 2.53001 5.30344 0
M  V30 4596 H 404.253 1.77011 5.84379 0
M  V30 4597 H 405.667 3.58307 4.47536 0
M  V30 4598 H 404.064 4.31371 4.1718 0
M  V30 4599 H 405.134 3.95584 2.80431 0
M  V30 4600 N 406.477 -1.02803 1.19454 0
M  V30 4601 C 407.893 -1.28473 0.946937 0
M  V30 4602 C 408.093 -1.97881 -0.380202 0
M  V30 4603 O 407.149 -2.26719 -1.11151 0
M  V30 4604 C 408.462 -2.13099 2.12154 0
M  V30 4605 C 410.01 -2.26404 2.16126 0
M  V30 4606 C 410.485 -3.14402 3.33039 0
M  V30 4607 N 411.976 -3.21991 3.32981 0
M  V30 4608 C 412.711 -3.90272 4.20089 0
M  V30 4609 N 412.207 -4.60777 5.17355 0
M  V30 4610 N 414 -3.8668 4.07964 0
M  V30 4611 H 406.151 -0.561665 2.04839 0
M  V30 4612 H 408.414 -0.310438 0.89573 0
M  V30 4613 H 408.12 -1.69422 3.08203 0
M  V30 4614 H 407.994 -3.13813 2.09287 0
M  V30 4615 H 410.381 -2.69311 1.20647 0
M  V30 4616 H 410.462 -1.25237 2.23045 0
M  V30 4617 H 410.106 -2.72204 4.28798 0
M  V30 4618 H 410.036 -4.1563 3.23356 0
M  V30 4619 H 412.527 -2.71778 2.62574 0
M  V30 4620 H 412.84 -5.10513 5.80169 0
M  V30 4621 H 411.185 -4.5964 5.21302 0
M  V30 4622 H 414.376 -3.30739 3.31254 0
M  V30 4623 H 414.549 -4.39621 4.76064 0
M  V30 4624 N 407.956 -0.998596 -1.21925 0
M  V30 4625 C 408.866 -0.562736 -2.27751 0
M  V30 4626 C 409.882 0.391203 -1.69545 0
M  V30 4627 O 411.058 0.256625 -1.99758 0
M  V30 4628 C 408.123 0.11012 -3.46525 0
M  V30 4629 C 407.184 -0.887495 -4.20026 0
M  V30 4630 C 406.417 -0.246654 -5.3313 0
M  V30 4631 O 406.64 0.958088 -5.62296 0
M  V30 4632 O 405.574 -0.954374 -5.94286 0
M  V30 4633 H 409.4 -1.44329 -2.67213 0
M  V30 4634 H 406.985 -0.767135 -1.28201 0
M  V30 4635 H 408.867 0.486756 -4.18579 0
M  V30 4636 H 407.542 0.965154 -3.08976 0
M  V30 4637 H 406.449 -1.31517 -3.5022 0
M  V30 4638 H 407.782 -1.71191 -4.6147 0
M  V30 4639 N 409.434 1.37368 -0.772513 0
M  V30 4640 C 410.344 2.34053 -0.160081 0
M  V30 4641 C 411.36 1.60216 0.678728 0
M  V30 4642 O 412.536 1.92303 0.59847 0
M  V30 4643 C 409.601 3.3939 0.708182 0
M  V30 4644 C 408.662 4.29048 -0.147172 0
M  V30 4645 C 407.895 5.29354 0.679744 0
M  V30 4646 O 408.118 5.3723 1.91678 0
M  V30 4647 O 407.052 6.01835 0.0885444 0
M  V30 4648 H 410.878 2.88159 -0.959053 0
M  V30 4649 H 408.463 1.39543 -0.533685 0
M  V30 4650 H 410.345 4.03839 1.20384 0
M  V30 4651 H 409.02 2.8761 1.48533 0
M  V30 4652 H 407.927 3.67697 -0.689205 0
M  V30 4653 H 409.26 4.84134 -0.887423 0
M  V30 4654 N 410.912 0.523116 1.48665 0
M  V30 4655 C 411.875 -0.232592 2.28017 0
M  V30 4656 C 412.875 -0.874021 1.34972 0
M  V30 4657 O 414.065 -0.735132 1.57929 0
M  V30 4658 C 411.197 -1.33586 3.13636 0
M  V30 4659 H 412.39 0.464008 2.96289 0
M  V30 4660 H 409.943 0.278816 1.53793 0
M  V30 4661 H 410.678 -2.06593 2.4998 0
M  V30 4662 H 410.463 -0.881125 3.82071 0
M  V30 4663 H 411.953 -1.86759 3.73511 0
M  V30 4664 N 412.39 -1.55475 0.257931 0
M  V30 4665 C 413.32 -2.24815 -0.630912 0
M  V30 4666 C 414.301 -1.23224 -1.17259 0
M  V30 4667 O 415.486 -1.51904 -1.20991 0
M  V30 4668 C 412.616 -2.95609 -1.82298 0
M  V30 4669 C 411.57 -4.03982 -1.41359 0
M  V30 4670 C 410.896 -4.6226 -2.68738 0
M  V30 4671 C 412.196 -5.19109 -0.57648 0
M  V30 4672 H 413.89 -2.99354 -0.0526878 0
M  V30 4673 H 411.436 -1.4398 -0.023901 0
M  V30 4674 H 413.389 -3.42822 -2.45054 0
M  V30 4675 H 412.113 -2.18577 -2.42676 0
M  V30 4676 H 410.772 -3.57555 -0.809324 0
M  V30 4677 H 410.42 -3.81915 -3.27338 0
M  V30 4678 H 410.12 -5.35424 -2.42065 0
M  V30 4679 H 411.644 -5.12212 -3.32372 0
M  V30 4680 H 413.058 -5.62479 -1.10861 0
M  V30 4681 H 411.455 -5.98729 -0.405351 0
M  V30 4682 H 412.525 -4.83174 0.408776 0
M  V30 4683 N 413.868 0.0150385 -1.57593 0
M  V30 4684 C 415.096 0.714395 -1.94175 0
M  V30 4685 C 415.511 1.68135 -0.858841 0
M  V30 4686 O 414.868 1.81766 0.163567 0
M  V30 4687 C 414.919 1.45933 -3.30735 0
M  V30 4688 O 414.64 0.531167 -4.34868 0
M  V30 4689 C 416.141 2.25456 -3.81686 0
M  V30 4690 H 413.361 0.199923 -0.640525 0
M  V30 4691 H 415.905 -0.0316096 -2.04476 0
M  V30 4692 H 414.06 2.15709 -3.21789 0
M  V30 4693 H 414.474 1.05509 -5.13778 0
M  V30 4694 H 415.948 2.731 -4.79709 0
M  V30 4695 H 416.425 3.07485 -3.13607 0
M  V30 4696 H 417.031 1.60727 -3.9376 0
M  V30 4697 N 415.346 1.54954 0.287554 0
M  V30 4698 C 416.593 1.74873 1.02106 0
M  V30 4699 C 416.921 0.541829 1.86801 0
M  V30 4700 O 416.176 -0.475992 1.89823 0
M  V30 4701 C 416.475 2.99833 1.94512 0
M  V30 4702 C 416.141 4.33029 1.25686 0
M  V30 4703 C 414.803 4.69233 1.06649 0
M  V30 4704 C 417.155 5.15542 0.765913 0
M  V30 4705 C 414.483 5.85518 0.372222 0
M  V30 4706 C 416.835 6.32542 0.0853101 0
M  V30 4707 C 415.499 6.67398 -0.1169 0
M  V30 4708 H 414.769 0.639906 0.373632 0
M  V30 4709 H 417.416 1.89219 0.294665 0
M  V30 4710 H 415.721 2.80325 2.73725 0
M  V30 4711 H 417.418 3.1244 2.51361 0
M  V30 4712 H 414.008 4.04564 1.41512 0
M  V30 4713 H 418.192 4.88059 0.90066 0
M  V30 4714 H 413.448 6.11057 0.204695 0
M  V30 4715 H 417.622 6.95741 -0.302936 0
M  V30 4716 H 415.249 7.57357 -0.656859 0
M  V30 4717 N 416.824 -0.551391 1.4764 0
M  V30 4718 C 418.049 -1.33837 1.58437 0
M  V30 4719 C 418.474 -1.866 0.237063 0
M  V30 4720 O 417.832 -1.6328 -0.787994 0
M  V30 4721 C 417.88 -2.48014 2.61766 0
M  V30 4722 O 416.984 -3.50419 2.1744 0
M  V30 4723 H 416.325 -0.397299 0.532024 0
M  V30 4724 H 418.855 -0.665759 1.93465 0
M  V30 4725 H 418.865 -2.94503 2.82369 0
M  V30 4726 H 417.54 -2.08969 3.5959 0
M  V30 4727 H 416.117 -3.10196 2.06961 0
M  V30 4728 N 418.302 -1.35869 -0.798587 0
M  V30 4729 C 419.549 -1.29588 -1.55606 0
M  V30 4730 C 419.877 0.127456 -1.94082 0
M  V30 4731 O 419.132 1.09461 -1.62225 0
M  V30 4732 C 419.431 -2.1556 -2.85077 0
M  V30 4733 C 419.097 -3.6424 -2.65781 0
M  V30 4734 C 417.759 -4.04766 -2.60227 0
M  V30 4735 C 420.111 -4.58547 -2.47758 0
M  V30 4736 C 417.439 -5.37753 -2.34603 0
M  V30 4737 C 419.791 -5.91742 -2.23662 0
M  V30 4738 C 418.455 -6.31402 -2.16534 0
M  V30 4739 H 417.725 -0.474197 -0.569402 0
M  V30 4740 H 420.372 -1.67839 -0.922086 0
M  V30 4741 H 418.677 -1.70216 -3.52893 0
M  V30 4742 H 420.374 -2.08031 -3.42818 0
M  V30 4743 H 416.964 -3.32086 -2.70956 0
M  V30 4744 H 421.148 -4.28117 -2.51056 0
M  V30 4745 H 416.404 -5.67474 -2.2756 0
M  V30 4746 H 420.578 -6.6439 -2.08708 0
M  V30 4747 H 418.205 -7.34381 -1.96441 0
M  V30 4748 N 419.78 1.02168 -1.19998 0
M  V30 4749 C 420.69 2.14069 -0.959774 0
M  V30 4750 C 421.706 1.73804 0.082655 0
M  V30 4751 O 422.882 2.01133 -0.103633 0
M  V30 4752 C 419.947 3.42936 -0.509459 0
M  V30 4753 C 419.008 3.97474 -1.62213 0
M  V30 4754 C 418.241 5.2019 -1.19321 0
M  V30 4755 O 418.464 5.70369 -0.0597726 0
M  V30 4756 O 417.398 5.67749 -1.99863 0
M  V30 4757 H 421.224 2.37199 -1.89658 0
M  V30 4758 H 418.809 1.12469 -0.983411 0
M  V30 4759 H 420.691 4.20551 -0.267322 0
M  V30 4760 H 419.366 3.21234 0.398821 0
M  V30 4761 H 418.273 3.21161 -1.9185 0
M  V30 4762 H 419.606 4.23555 -2.50723 0
M  V30 4763 N 421.258 1.00505 1.21394 0
M  V30 4764 C 422.486 0.706609 1.9446 0
M  V30 4765 C 422.901 -0.73081 1.74082 0
M  V30 4766 O 422.258 -1.49446 1.04747 0
M  V30 4767 C 422.309 1.01824 3.46863 0
M  V30 4768 O 422.03 2.39919 3.66566 0
M  V30 4769 C 423.531 0.739216 4.37093 0
M  V30 4770 H 420.751 0.260394 0.618414 0
M  V30 4771 H 423.295 1.34311 1.54211 0
M  V30 4772 H 421.45 0.427343 3.85036 0
M  V30 4773 H 421.864 2.50784 4.6066 0
M  V30 4774 H 423.338 1.00744 5.42729 0
M  V30 4775 H 423.815 -0.326746 4.37983 0
M  V30 4776 H 424.421 1.31173 4.04566 0
M  V30 4777 N 422.737 -1.36956 0.779787 0
M  V30 4778 C 423.684 -2.30175 0.169697 0
M  V30 4779 C 424.654 -1.51501 -0.68094 0
M  V30 4780 O 425.839 -1.80042 -0.631629 0
M  V30 4781 C 422.979 -3.37985 -0.697131 0
M  V30 4782 C 422.092 -4.31661 0.170992 0
M  V30 4783 C 421.227 -5.2655 -0.701298 0
M  V30 4784 C 420.266 -6.11867 0.168869 0
M  V30 4785 N 419.403 -6.98973 -0.661855 0
M  V30 4786 H 424.243 -2.81767 0.970135 0
M  V30 4787 H 421.78 -1.38699 0.489994 0
M  V30 4788 H 423.738 -3.99128 -1.2146 0
M  V30 4789 H 422.368 -2.87739 -1.46309 0
M  V30 4790 H 421.42 -3.71756 0.80634 0
M  V30 4791 H 422.732 -4.91644 0.841875 0
M  V30 4792 H 421.886 -5.92937 -1.28494 0
M  V30 4793 H 420.625 -4.66998 -1.40584 0
M  V30 4794 H 419.63 -5.44452 0.764986 0
M  V30 4795 H 420.855 -6.73493 0.870863 0
M  V30 4796 H 418.801 -6.41941 -1.35086 0
M  V30 4797 H 418.718 -7.55984 -0.0484447 0
M  V30 4798 H 419.986 -7.6974 -1.22963 0
M  V30 4799 N 424.215 -0.530993 -1.48385 0
M  V30 4800 C 425.462 0.0027373 -2.025 0
M  V30 4801 C 425.79 1.34186 -1.40799 0
M  V30 4802 O 425.045 1.88 -0.543544 0
M  V30 4803 C 425.344 0.172742 -3.56982 0
M  V30 4804 C 425.01 -1.09215 -4.37473 0
M  V30 4805 C 423.672 -1.43881 -4.59186 0
M  V30 4806 C 426.024 -1.93153 -4.84088 0
M  V30 4807 C 423.352 -2.62381 -5.2476 0
M  V30 4808 C 425.704 -3.10833 -5.50968 0
M  V30 4809 C 424.368 -3.45843 -5.70919 0
M  V30 4810 H 423.638 0.00100165 -0.740999 0
M  V30 4811 H 426.285 -0.697219 -1.78357 0
M  V30 4812 H 424.59 0.955473 -3.79971 0
M  V30 4813 H 426.287 0.600642 -3.96476 0
M  V30 4814 H 422.877 -0.812177 -4.20834 0
M  V30 4815 H 427.061 -1.67683 -4.67115 0
M  V30 4816 H 422.317 -2.89707 -5.38405 0
M  V30 4817 H 426.491 -3.7618 -5.86056 0
M  V30 4818 H 424.118 -4.37764 -6.21503 0
M  V30 4819 N 425.693 1.55336 -0.266172 0
M  V30 4820 C 426.641 2.23587 0.641228 0
M  V30 4821 C 427.635 1.22986 1.16494 0
M  V30 4822 O 428.841 1.40943 1.1196 0
M  V30 4823 H 425.216 0.717452 0.225315 0
M  V30 4824 H 427.187 2.9837 0.0426561 0
M  V30 4825 C 425.936 2.96369 1.81826 0
M  V30 4826 H 425.259 3.73563 1.42445 0
M  V30 4827 H 426.699 3.47459 2.42998 0
M  V30 4828 C 425.158 2.0133 2.70125 0
M  V30 4829 O 425.688 1.55875 3.70224 0
M  V30 4830 N 423.894 1.6802 2.37102 0
M  V30 4831 H 423.441 2.05181 1.55751 0
M  V30 4832 H 423.399 1.047 2.96454 0
M  V30 4833 N 427.171 -0.0066808 1.57599 0
M  V30 4834 C 428.081 -1.01671 2.11424 0
M  V30 4835 C 429.097 -1.38143 1.05795 0
M  V30 4836 O 430.273 -1.47011 1.37658 0
M  V30 4837 C 427.338 -2.29192 2.60139 0
M  V30 4838 C 426.399 -1.99094 3.80342 0
M  V30 4839 C 425.632 -3.20535 4.26724 0
M  V30 4840 O 425.855 -4.3199 3.72479 0
M  V30 4841 O 424.789 -3.04924 5.18946 0
M  V30 4842 H 428.615 -0.589181 2.9793 0
M  V30 4843 H 426.2 -0.225091 1.47695 0
M  V30 4844 H 428.082 -3.0412 2.917 0
M  V30 4845 H 426.757 -2.71195 1.76733 0
M  V30 4846 H 425.664 -1.21663 3.53764 0
M  V30 4847 H 426.997 -1.61931 4.648 0
M  V30 4848 N 428.649 -1.55105 -0.279332 0
M  V30 4849 C 429.596 -1.8755 -1.34513 0
M  V30 4850 C 430.566 -0.726384 -1.49375 0
M  V30 4851 O 431.751 -0.977063 -1.63884 0
M  V30 4852 C 428.891 -2.14738 -2.70151 0
M  V30 4853 C 428.004 -3.42285 -2.63562 0
M  V30 4854 C 427.139 -3.59206 -3.91337 0
M  V30 4855 C 426.178 -4.80467 -3.79233 0
M  V30 4856 N 425.315 -4.94079 -4.98829 0
M  V30 4857 H 430.155 -2.78456 -1.06143 0
M  V30 4858 H 427.692 -1.37867 -0.512936 0
M  V30 4859 H 429.65 -2.28501 -3.49061 0
M  V30 4860 H 428.28 -1.27075 -2.96735 0
M  V30 4861 H 427.332 -3.37029 -1.76397 0
M  V30 4862 H 428.644 -4.31328 -2.50515 0
M  V30 4863 H 427.798 -3.72751 -4.78687 0
M  V30 4864 H 426.537 -2.68337 -4.07243 0
M  V30 4865 H 425.542 -4.66932 -2.90266 0
M  V30 4866 H 426.767 -5.72765 -3.64852 0
M  V30 4867 H 424.713 -4.06139 -5.15158 0
M  V30 4868 H 424.63 -5.77156 -4.8829 0
M  V30 4869 H 425.898 -5.12003 -5.8777 0
M  V30 4870 N 430.127 0.543554 -1.4793 0
M  V30 4871 C 431.376 1.29649 -1.54512 0
M  V30 4872 C 431.689 1.94382 -0.217973 0
M  V30 4873 O 432.895 2.71017 -0.161908 0
M  V30 4874 C 431.351 2.35175 -2.72435 0
M  V30 4875 C 430.959 1.76572 -4.11736 0
M  V30 4876 C 432.703 3.11564 -2.8832 0
M  V30 4877 C 430.61 2.79958 -5.20939 0
M  V30 4878 H 429.54 0.487541 -0.57517 0
M  V30 4879 H 432.191 0.575708 -1.74235 0
M  V30 4880 H 430.573 3.10229 -2.46118 0
M  V30 4881 H 431.747 1.07799 -4.48013 0
M  V30 4882 H 430.062 1.12722 -4.00852 0
M  V30 4883 H 432.659 3.88794 -3.67074 0
M  V30 4884 H 433.002 3.66594 -1.97268 0
M  V30 4885 H 433.535 2.43623 -3.14472 0
M  V30 4886 H 430.274 2.29766 -6.13912 0
M  V30 4887 H 429.794 3.47101 -4.89164 0
M  V30 4888 H 431.473 3.43198 -5.48474 0
M  V30 4889 N 431.605 1.3629 0.791371 0
M  V30 4890 C 433.021 1.16661 1.08914 0
M  V30 4891 C 433.221 -0.0106266 2.01497 0
M  V30 4892 O 432.277 -0.676596 2.43266 0
M  V30 4893 C 433.59 2.47656 1.70549 0
M  V30 4894 C 435.138 2.54002 1.82899 0
M  V30 4895 C 435.613 3.85078 2.47949 0
M  V30 4896 N 437.104 3.86413 2.5542 0
M  V30 4897 C 437.839 4.84572 3.06557 0
M  V30 4898 N 437.335 5.93124 3.58016 0
M  V30 4899 N 439.128 4.71994 3.05251 0
M  V30 4900 H 431.279 2.11668 0.176238 0
M  V30 4901 H 433.542 0.937486 0.140796 0
M  V30 4902 H 433.248 3.34059 1.09989 0
M  V30 4903 H 433.122 2.63319 2.70079 0
M  V30 4904 H 435.509 1.68018 2.42598 0
M  V30 4905 H 435.59 2.42239 0.821808 0
M  V30 4906 H 435.234 4.71467 1.88895 0
M  V30 4907 H 435.164 3.94135 3.49235 0
M  V30 4908 H 437.655 3.07988 2.18979 0
M  V30 4909 H 437.968 6.63999 3.95381 0
M  V30 4910 H 436.313 5.96796 3.56173 0
M  V30 4911 H 439.504 3.86321 2.64336 0
M  V30 4912 H 439.677 5.48653 3.44796 0
M  V30 4913 N 433.083 -1.0153 1.20538 0
M  V30 4914 C 434.331 -1.74803 1.01432 0
M  V30 4915 C 434.652 -1.8963 -0.454456 0
M  V30 4916 O 433.922 -1.43975 -1.32846 0
M  V30 4917 H 432.502 -0.647598 0.372324 0
M  V30 4918 H 435.164 -1.22402 1.5167 0
M  V30 4919 H 434.26 -2.75114 1.47373 0
M  V30 4920 N 434.561 -1.01147 -1.20859 0
M  V30 4921 C 435.508 -0.577354 -2.23462 0
M  V30 4922 C 436.478 0.399922 -1.61214 0
M  V30 4923 O 437.663 0.300515 -1.88419 0
M  V30 4924 C 434.803 0.083372 -3.44999 0
M  V30 4925 C 433.916 -0.937856 -4.21697 0
M  V30 4926 C 433.051 -0.248717 -5.30617 0
M  V30 4927 C 432.09 -1.25705 -5.99053 0
M  V30 4928 N 431.227 -0.594939 -6.99575 0
M  V30 4929 H 436.067 -1.45695 -2.59956 0
M  V30 4930 H 433.604 -0.729428 -1.27741 0
M  V30 4931 H 435.562 0.483535 -4.14388 0
M  V30 4932 H 434.192 0.926645 -3.09214 0
M  V30 4933 H 433.244 -1.45622 -3.51423 0
M  V30 4934 H 434.556 -1.70493 -4.68757 0
M  V30 4935 H 433.71 0.207215 -6.06346 0
M  V30 4936 H 432.449 0.55071 -4.84581 0
M  V30 4937 H 431.454 -1.72343 -5.2209 0
M  V30 4938 H 432.679 -2.05767 -6.47176 0
M  V30 4939 H 430.625 0.184713 -6.5574 0
M  V30 4940 H 430.542 -1.30017 -7.44736 0
M  V30 4941 H 431.81 -0.162427 -7.79331 0
M  V30 4942 N 436.039 1.36541 -0.78704 0
M  V30 4943 C 437.455 1.52571 -0.46844 0
M  V30 4944 C 437.655 1.7415 1.01361 0
M  V30 4945 O 436.711 1.77163 1.79915 0
M  V30 4946 C 438.024 2.71299 -1.29682 0
M  V30 4947 C 439.572 2.85169 -1.29027 0
M  V30 4948 C 440.047 4.06898 -2.10233 0
M  V30 4949 N 441.538 4.1404 -2.07666 0
M  V30 4950 C 442.273 5.07301 -2.67271 0
M  V30 4951 N 441.769 6.06021 -3.35724 0
M  V30 4952 N 443.562 4.99898 -2.57018 0
M  V30 4953 H 435.713 1.20788 -1.74711 0
M  V30 4954 H 437.976 0.589364 -0.742532 0
M  V30 4955 H 437.682 2.61868 -2.34773 0
M  V30 4956 H 437.556 3.6539 -0.936479 0
M  V30 4957 H 439.943 2.94062 -0.247284 0
M  V30 4958 H 440.024 1.91992 -1.69035 0
M  V30 4959 H 439.668 3.98766 -3.1456 0
M  V30 4960 H 439.598 4.99218 -1.67597 0
M  V30 4961 H 442.089 3.43357 -1.57843 0
M  V30 4962 H 442.402 6.73741 -3.78541 0
M  V30 4963 H 440.747 6.06253 -3.39826 0
M  V30 4964 H 443.938 4.21724 -2.03142 0
M  V30 4965 H 444.111 5.72392 -3.03761 0
M  V30 4966 N 437.518 0.538854 1.48102 0
M  V30 4967 C 438.765 0.0080018 2.02498 0
M  V30 4968 C 439.093 -1.33437 1.41509 0
M  V30 4969 O 438.348 -1.87709 0.553507 0
M  V30 4970 C 438.647 -0.153808 3.57069 0
M  V30 4971 C 438.313 1.11533 4.36888 0
M  V30 4972 C 436.975 1.46314 4.58417 0
M  V30 4973 C 439.327 1.95718 4.83057 0
M  V30 4974 C 436.655 2.6516 5.23361 0
M  V30 4975 C 439.007 3.13751 5.49312 0
M  V30 4976 C 437.671 3.48866 5.69077 0
M  V30 4977 H 436.941 0.00292807 0.740994 0
M  V30 4978 H 439.588 0.706668 1.77984 0
M  V30 4979 H 437.893 -0.935309 3.80472 0
M  V30 4980 H 439.59 -0.579607 3.96789 0
M  V30 4981 H 436.18 0.834484 4.20398 0
M  V30 4982 H 440.364 1.70158 4.66219 0
M  V30 4983 H 435.62 2.92558 5.36861 0
M  V30 4984 H 439.794 3.79282 5.84053 0
M  V30 4985 H 437.421 4.41054 6.19173 0
M  V30 4986 N 438.996 -1.55193 0.274407 0
M  V30 4987 C 440.226 -2.03692 -0.345442 0
M  V30 4988 C 440.634 -1.15224 -1.50067 0
M  V30 4989 O 439.977 -0.164749 -1.8296 0
M  V30 4990 C 440.039 -3.48325 -0.88939 0
M  V30 4991 C 439.703 -4.56794 0.137115 0
M  V30 4992 C 440.7 -5.11028 0.956378 0
M  V30 4993 C 438.385 -5.01568 0.27115 0
M  V30 4994 C 440.379 -6.08552 1.89587 0
M  V30 4995 C 438.066 -5.98918 1.21412 0
M  V30 4996 C 439.064 -6.52291 2.02498 0
M  V30 4997 O 438.752 -7.47738 2.952 0
M  V30 4998 H 438.484 -0.670893 -0.0829332 0
M  V30 4999 H 441.038 -2.01387 0.404056 0
M  V30 5000 H 439.268 -3.47867 -1.68895 0
M  V30 5001 H 440.957 -3.80167 -1.42225 0
M  V30 5002 H 441.723 -4.7725 0.863559 0
M  V30 5003 H 437.602 -4.5967 -0.349987 0
M  V30 5004 H 441.146 -6.50137 2.52918 0
M  V30 5005 H 437.043 -6.32114 1.30776 0
M  V30 5006 H 437.811 -7.65451 2.89874 0
M  V30 5007 N 440.474 -0.00167713 -1.576 0
M  V30 5008 C 441.704 0.692754 -1.94639 0
M  V30 5009 C 442.112 1.67744 -0.87513 0
M  V30 5010 O 441.455 1.8305 0.154382 0
M  V30 5011 C 441.517 1.47881 -3.27676 0
M  V30 5012 C 441.181 0.655518 -4.52274 0
M  V30 5013 C 442.178 -0.0575214 -5.19868 0
M  V30 5014 C 439.863 0.600994 -4.98692 0
M  V30 5015 C 441.857 -0.814052 -6.3218 0
M  V30 5016 C 439.544 -0.15926 -6.10892 0
M  V30 5017 C 440.542 -0.865515 -6.77494 0
M  V30 5018 O 440.23 -1.61336 -7.87544 0
M  V30 5019 H 439.962 0.197792 -0.646417 0
M  V30 5020 H 442.516 -0.049423 -2.05341 0
M  V30 5021 H 440.746 2.2655 -3.13388 0
M  V30 5022 H 442.435 2.05874 -3.49816 0
M  V30 5023 H 443.201 -0.0245611 -4.84994 0
M  V30 5024 H 439.08 1.14025 -4.46676 0
M  V30 5025 H 442.624 -1.36584 -6.84098 0
M  V30 5026 H 438.521 -0.194035 -6.45208 0
M  V30 5027 H 439.289 -1.53025 -8.04068 0
M  V30 5028 N 441.952 1.55251 0.271103 0
M  V30 5029 C 443.368 1.47133 0.618393 0
M  V30 5030 C 443.568 0.686994 1.89427 0
M  V30 5031 O 442.624 0.206609 2.51653 0
M  V30 5032 C 443.937 2.91361 0.743593 0
M  V30 5033 C 445.485 3.01587 0.837522 0
M  V30 5034 C 445.96 4.47073 0.994483 0
M  V30 5035 N 447.451 4.50909 1.05996 0
M  V30 5036 C 448.186 5.60698 1.20024 0
M  V30 5037 N 447.682 6.80348 1.30759 0
M  V30 5038 N 449.475 5.48444 1.23149 0
M  V30 5039 H 441.626 2.04698 -0.566784 0
M  V30 5040 H 443.889 0.928319 -0.192165 0
M  V30 5041 H 443.595 3.51483 -0.123493 0
M  V30 5042 H 443.469 3.40484 1.62328 0
M  V30 5043 H 445.856 2.4156 1.69507 0
M  V30 5044 H 445.937 2.55713 -0.0668086 0
M  V30 5045 H 445.581 5.07703 0.141582 0
M  V30 5046 H 445.511 4.90605 1.91349 0
M  V30 5047 H 448.002 3.6472 0.989316 0
M  V30 5048 H 448.315 7.59772 1.41303 0
M  V30 5049 H 446.66 6.83156 1.27761 0
M  V30 5050 H 449.851 4.53907 1.14394 0
M  V30 5051 H 450.024 6.34049 1.33738 0
M  V30 5052 N 443.43 -0.535701 1.48216 0
M  V30 5053 C 444.34 -1.66785 1.64985 0
M  V30 5054 C 445.356 -1.65654 0.532414 0
M  V30 5055 O 446.532 -1.8471 0.80275 0
M  V30 5056 C 443.597 -3.0326 1.68031 0
M  V30 5057 C 442.658 -3.1529 2.9136 0
M  V30 5058 C 441.891 -4.45255 2.94252 0
M  V30 5059 O 442.114 -5.32011 2.05719 0
M  V30 5060 O 441.048 -4.6153 3.86359 0
M  V30 5061 H 444.874 -1.55576 2.60825 0
M  V30 5062 H 442.459 -0.70815 1.31551 0
M  V30 5063 H 444.341 -3.84436 1.72589 0
M  V30 5064 H 443.016 -3.14805 0.753628 0
M  V30 5065 H 441.923 -2.3343 2.92337 0
M  V30 5066 H 443.256 -3.08658 3.83394 0
M  V30 5067 N 444.908 -1.36708 -0.784132 0
M  V30 5068 C 445.858 -1.2799 -1.88686 0
M  V30 5069 C 446.842 -0.170282 -1.59996 0
M  V30 5070 O 448.034 -0.403571 -1.72338 0
M  V30 5071 C 445.163 -1.07674 -3.25977 0
M  V30 5072 C 444.249 -2.23127 -3.60659 0
M  V30 5073 N 444.64 -3.48467 -3.66612 0
M  V30 5074 C 442.938 -2.15009 -3.90752 0
M  V30 5075 C 443.639 -4.24525 -3.97685 0
M  V30 5076 N 442.615 -3.53524 -4.12943 0
M  V30 5077 H 446.417 -2.22927 -1.91522 0
M  V30 5078 H 443.931 -1.29503 -0.979933 0
M  V30 5079 H 445.928 -0.995151 -4.04849 0
M  V30 5080 H 444.588 -0.13643 -3.24413 0
M  V30 5081 H 445.599 -3.82534 -3.49125 0
M  V30 5082 H 442.276 -1.28963 -3.97083 0
M  V30 5083 H 443.666 -5.32944 -4.0917 0
M  V30 5084 N 446.386 1.0089 -1.21074 0
M  V30 5085 C 447.797 1.56056 -1.02486 0
M  V30 5086 C 448.148 1.91728 0.416506 0
M  V30 5087 O 447.273 1.73066 1.29912 0
M  V30 5088 C 447.868 2.83563 -1.85411 0
M  V30 5089 C 446.427 3.3523 -1.71166 0
M  V30 5090 C 445.574 2.0846 -1.82865 0
M  V30 5091 H 448.525 0.831818 -1.35154 0
M  V30 5092 H 448.546 3.55286 -1.36205 0
M  V30 5093 H 448.058 2.57569 -2.9031 0
M  V30 5094 H 446.159 3.66167 -0.689361 0
M  V30 5095 H 446.272 4.06913 -2.52901 0
M  V30 5096 H 444.636 2.21275 -1.26132 0
M  V30 5097 H 445.419 1.84883 -2.89263 0
M  V30 5098 N 447.864 1.01787 1.20321 0
M  V30 5099 C 449.113 0.703249 1.89043 0
M  V30 5100 C 449.426 -0.770445 1.79787 0
M  V30 5101 O 450.632 -1.19767 2.43656 0
M  V30 5102 C 449.088 1.20749 3.3904 0
M  V30 5103 C 448.696 2.70817 3.56878 0
M  V30 5104 C 450.44 0.968352 4.13308 0
M  V30 5105 C 448.347 3.14716 5.00708 0
M  V30 5106 H 447.277 0.259354 0.707991 0
M  V30 5107 H 449.928 1.23072 1.36108 0
M  V30 5108 H 448.31 0.607989 3.91305 0
M  V30 5109 H 449.484 3.36327 3.14993 0
M  V30 5110 H 447.799 2.92888 2.95983 0
M  V30 5111 H 450.396 1.27173 5.19356 0
M  V30 5112 H 450.739 -0.095149 4.16191 0
M  V30 5113 H 451.272 1.53129 3.67146 0
M  V30 5114 H 448.011 4.20347 5.02979 0
M  V30 5115 H 447.531 2.53927 5.43398 0
M  V30 5116 H 449.21 3.07426 5.69296 0
M  V30 5117 N 449.342 -1.36122 0.79427 0
M  V30 5118 C 450.589 -1.99111 0.368905 0
M  V30 5119 C 450.917 -1.63032 -1.0607 0
M  V30 5120 O 450.172 -0.879303 -1.74833 0
M  V30 5121 C 450.471 -3.5409 0.48527 0
M  V30 5122 C 450.137 -4.10003 1.87638 0
M  V30 5123 C 448.799 -4.24986 2.257 0
M  V30 5124 C 451.151 -4.40423 2.78706 0
M  V30 5125 C 448.479 -4.67701 3.54221 0
M  V30 5126 C 450.831 -4.84573 4.0666 0
M  V30 5127 C 449.495 -4.97761 4.44737 0
M  V30 5128 H 448.765 -0.7286 0.134992 0
M  V30 5129 H 451.412 -1.62534 1.01267 0
M  V30 5130 H 449.717 -3.91052 -0.241984 0
M  V30 5131 H 451.414 -4.00766 0.137109 0
M  V30 5132 H 448.004 -3.98784 1.57064 0
M  V30 5133 H 452.188 -4.28412 2.50553 0
M  V30 5134 H 447.444 -4.761 3.83587 0
M  V30 5135 H 451.618 -5.07074 4.77336 0
M  V30 5136 H 449.245 -5.30618 5.44379 0
M  V30 5137 N 450.82 -0.546701 -1.47814 0
M  V30 5138 C 451.73 0.21026 -2.33656 0
M  V30 5139 C 452.746 0.922413 -1.47538 0
M  V30 5140 O 453.922 0.893652 -1.80488 0
M  V30 5141 C 450.987 1.23348 -3.24016 0
M  V30 5142 C 450.048 0.529883 -4.26017 0
M  V30 5143 C 449.281 1.50435 -5.12059 0
M  V30 5144 O 449.504 2.73837 -5.00369 0
M  V30 5145 O 448.438 1.03459 -5.92942 0
M  V30 5146 H 452.264 -0.493605 -2.99662 0
M  V30 5147 H 449.849 -0.307427 -1.46203 0
M  V30 5148 H 451.731 1.82438 -3.79861 0
M  V30 5149 H 450.406 1.91945 -2.60651 0
M  V30 5150 H 449.313 -0.101948 -3.73961 0
M  V30 5151 H 450.646 -0.11445 -4.92067 0
M  V30 5152 N 452.299 1.55045 -0.282633 0
M  V30 5153 C 453.715 1.59441 0.0712997 0
M  V30 5154 C 453.915 1.2998 1.53972 0
M  V30 5155 O 452.971 1.06431 2.28973 0
M  V30 5156 C 454.284 2.99097 -0.310104 0
M  V30 5157 C 455.832 3.1194 -0.257343 0
M  V30 5158 C 456.307 4.53875 -0.613297 0
M  V30 5159 N 457.798 4.5974 -0.565134 0
M  V30 5160 C 458.533 5.67603 -0.81326 0
M  V30 5161 N 458.029 6.83582 -1.1264 0
M  V30 5162 N 459.822 5.57187 -0.741553 0
M  V30 5163 H 451.973 1.72458 -1.23984 0
M  V30 5164 H 454.236 0.804549 -0.501403 0
M  V30 5165 H 453.942 3.25516 -1.33163 0
M  V30 5166 H 453.816 3.75616 0.345366 0
M  V30 5167 H 456.203 2.85281 0.754905 0
M  V30 5168 H 456.284 2.37618 -0.947178 0
M  V30 5169 H 455.928 4.81261 -1.62327 0
M  V30 5170 H 455.858 5.26508 0.09841 0
M  V30 5171 H 458.349 3.76427 -0.333294 0
M  V30 5172 H 458.662 7.6175 -1.30219 0
M  V30 5173 H 457.007 6.85179 -1.16425 0
M  V30 5174 H 460.198 4.65457 -0.496705 0
M  V30 5175 H 460.371 6.41171 -0.938306 0
M  V30 5176 N 453.777 0.010035 1.57597 0
M  V30 5177 C 455.023 -0.673697 1.91283 0
M  V30 5178 C 455.356 -1.72863 0.884979 0
M  V30 5179 O 454.631 -1.94268 -0.0949487 0
M  V30 5180 C 454.914 -1.30766 3.35518 0
M  V30 5181 C 454.767 -0.263578 4.49027 0
M  V30 5182 C 456.086 -2.23105 3.79358 0
M  V30 5183 H 453.205 -0.243439 0.695634 0
M  V30 5184 H 455.847 0.0633864 1.89894 0
M  V30 5185 H 453.997 -1.93588 3.36832 0
M  V30 5186 H 455.669 0.365738 4.59848 0
M  V30 5187 H 453.912 0.413077 4.31829 0
M  V30 5188 H 454.583 -0.746398 5.4693 0
M  V30 5189 H 457.059 -1.70289 3.79659 0
M  V30 5190 H 455.935 -2.64424 4.81011 0
M  V30 5191 H 456.196 -3.11433 3.13787 0
M  V30 5192 N 455.255 -1.55392 -0.262866 0
M  V30 5193 C 456.501 -1.76737 -0.99458 0
M  V30 5194 C 456.834 -0.572453 -1.85571 0
M  V30 5195 O 456.109 0.429732 -1.89693 0
M  V30 5196 C 456.392 -3.07824 -1.8686 0
M  V30 5197 C 456.245 -4.3769 -1.03672 0
M  V30 5198 C 457.564 -3.35021 -2.85393 0
M  V30 5199 H 454.683 -0.643005 -0.360157 0
M  V30 5200 H 457.325 -1.88126 -0.266216 0
M  V30 5201 H 455.475 -2.98245 -2.48962 0
M  V30 5202 H 457.147 -4.59238 -0.43563 0
M  V30 5203 H 455.39 -4.32461 -0.340513 0
M  V30 5204 H 456.061 -5.25759 -1.6817 0
M  V30 5205 H 458.537 -3.44458 -2.33426 0
M  V30 5206 H 457.413 -4.27989 -3.43681 0
M  V30 5207 H 457.674 -2.55153 -3.61039 0
M  V30 5208 N 456.733 0.527833 -1.48498 0
M  V30 5209 C 457.663 1.64136 -1.66077 0
M  V30 5210 C 458.644 1.62286 -0.509625 0
M  V30 5211 O 459.829 1.79449 -0.742413 0
M  V30 5212 C 456.959 3.02717 -1.70234 0
M  V30 5213 C 455.913 3.19426 -2.8487 0
M  V30 5214 C 455.239 4.5909 -2.74118 0
M  V30 5215 C 456.539 3.01993 -4.26142 0
M  V30 5216 H 458.233 1.4968 -2.593 0
M  V30 5217 H 455.779 0.718654 -1.24785 0
M  V30 5218 H 457.732 3.80491 -1.8112 0
M  V30 5219 H 456.456 3.18201 -0.735911 0
M  V30 5220 H 455.115 2.4407 -2.73542 0
M  V30 5221 H 454.763 4.71413 -1.7544 0
M  V30 5222 H 454.463 4.71214 -3.51042 0
M  V30 5223 H 455.987 5.3896 -2.86974 0
M  V30 5224 H 457.401 3.69558 -4.38292 0
M  V30 5225 H 455.798 3.2561 -5.04082 0
M  V30 5226 H 456.868 1.98396 -4.42456 0
M  V30 5227 N 458.211 1.37122 0.776871 0
M  V30 5228 C 459.627 1.1781 1.07671 0
M  V30 5229 C 459.827 0.0107454 2.01497 0
M  V30 5230 O 458.883 -0.650756 2.4397 0
M  V30 5231 C 460.196 2.49451 1.67913 0
M  V30 5232 C 461.744 2.55927 1.80195 0
M  V30 5233 C 462.219 3.87686 2.43851 0
M  V30 5234 N 463.71 3.891 2.51307 0
M  V30 5235 C 464.445 4.87797 3.014 0
M  V30 5236 N 463.941 5.96888 3.51705 0
M  V30 5237 N 465.734 4.75205 3.00227 0
M  V30 5238 H 457.885 2.11843 0.153778 0
M  V30 5239 H 460.148 0.938927 0.130844 0
M  V30 5240 H 459.854 3.35207 1.06439 0
M  V30 5241 H 459.728 2.66169 2.67271 0
M  V30 5242 H 462.115 1.70582 2.40803 0
M  V30 5243 H 462.196 2.43097 0.796069 0
M  V30 5244 H 461.84 4.73444 1.83884 0
M  V30 5245 H 461.77 3.97817 3.45035 0
M  V30 5246 H 464.261 3.10293 2.157 0
M  V30 5247 H 464.574 6.68155 3.88316 0
M  V30 5248 H 462.919 6.0054 3.49824 0
M  V30 5249 H 466.11 3.89103 2.60224 0
M  V30 5250 H 466.283 5.52279 3.38957 0
M  V30 5251 N 459.689 -1.00246 1.21608 0
M  V30 5252 C 460.636 -2.09073 0.977613 0
M  V30 5253 C 461.606 -1.65815 -0.097297 0
M  V30 5254 O 462.791 -1.90734 0.0503445 0
M  V30 5255 C 459.931 -3.40671 0.551133 0
M  V30 5256 C 459.044 -3.97326 1.69576 0
M  V30 5257 C 458.179 -5.17043 1.2182 0
M  V30 5258 C 457.218 -5.65813 2.335 0
M  V30 5259 N 456.355 -6.76778 1.86859 0
M  V30 5260 H 461.195 -2.28806 1.90924 0
M  V30 5261 H 458.732 -1.12186 0.951452 0
M  V30 5262 H 460.69 -4.16225 0.285097 0
M  V30 5263 H 459.32 -3.20967 -0.343489 0
M  V30 5264 H 458.372 -3.18734 2.07637 0
M  V30 5265 H 459.684 -4.29511 2.53617 0
M  V30 5266 H 458.838 -5.99852 0.908975 0
M  V30 5267 H 457.577 -4.86458 0.347869 0
M  V30 5268 H 456.582 -4.81599 2.65222 0
M  V30 5269 H 457.807 -5.98427 3.21033 0
M  V30 5270 H 455.753 -6.47994 1.02174 0
M  V30 5271 H 455.67 -7.08231 2.64471 0
M  V30 5272 H 456.938 -7.63116 1.58978 0
M  V30 5273 N 461.167 -1.02423 -1.1978 0
M  V30 5274 C 462.392 -0.7373 -1.93852 0
M  V30 5275 C 462.817 0.696923 -1.74713 0
M  V30 5276 O 462.175 1.48056 -1.04638 0
M  V30 5277 C 462.223 -1.08783 -3.438 0
M  V30 5278 O 461.327 -0.20383 -4.11896 0
M  V30 5279 H 460.668 -0.27284 -0.605355 0
M  V30 5280 H 463.198 -1.36966 -1.51992 0
M  V30 5281 H 463.208 -1.04276 -3.9445 0
M  V30 5282 H 461.883 -2.13274 -3.57053 0
M  V30 5283 H 460.46 -0.307091 -3.71633 0
M  V30 5284 N 462.645 1.35699 -0.801477 0
M  V30 5285 C 463.894 1.98165 -0.375979 0
M  V30 5286 C 464.207 1.64306 1.06127 0
M  V30 5287 O 465.413 2.20097 1.58964 0
M  V30 5288 C 463.869 3.54497 -0.621305 0
M  V30 5289 C 463.477 3.9727 -2.07076 0
M  V30 5290 C 465.221 4.23697 -0.26091 0
M  V30 5291 C 463.128 5.46427 -2.26211 0
M  V30 5292 H 462.058 0.741478 -0.136844 0
M  V30 5293 H 464.709 1.54834 -0.984814 0
M  V30 5294 H 463.091 3.95958 0.0574112 0
M  V30 5295 H 464.265 3.66974 -2.78687 0
M  V30 5296 H 462.58 3.40943 -2.39054 0
M  V30 5297 H 465.177 5.33334 -0.381994 0
M  V30 5298 H 465.52 4.0869 0.792344 0
M  V30 5299 H 466.053 3.87639 -0.893339 0
M  V30 5300 H 462.792 5.66396 -3.29963 0
M  V30 5301 H 462.312 5.78309 -1.59119 0
M  V30 5302 H 463.991 6.12819 -2.07513 0
M  V30 5303 N 464.123 0.554532 1.47522 0
M  V30 5304 C 465.369 0.0295227 2.02779 0
M  V30 5305 C 465.702 -1.31582 1.42828 0
M  V30 5306 O 464.977 -1.85561 0.582872 0
M  V30 5307 C 465.26 -0.0664057 3.60039 0
M  V30 5308 C 465.113 1.30585 4.30427 0
M  V30 5309 C 466.432 -0.781162 4.33112 0
M  V30 5310 H 463.551 0.0122027 0.736899 0
M  V30 5311 H 466.193 0.716305 1.7598 0
M  V30 5312 H 464.343 -0.651307 3.83002 0
M  V30 5313 H 466.015 1.93374 4.18813 0
M  V30 5314 H 464.258 1.88125 3.90886 0
M  V30 5315 H 464.929 1.19147 5.38988 0
M  V30 5316 H 467.405 -0.284565 4.15126 0
M  V30 5317 H 466.281 -0.817237 5.42782 0
M  V30 5318 H 466.542 -1.83672 4.0214 0
M  V30 5319 N 465.601 -1.54893 0.290851 0
M  V30 5320 C 467.017 -1.59476 -0.0628432 0
M  V30 5321 C 467.217 -1.30795 -1.5328 0
M  V30 5322 O 466.273 -1.07644 -2.28406 0
M  V30 5323 C 467.586 -2.98928 0.325962 0
M  V30 5324 C 469.134 -3.11799 0.273882 0
M  V30 5325 C 469.609 -4.53544 0.637359 0
M  V30 5326 N 471.1 -4.59433 0.589507 0
M  V30 5327 C 471.835 -5.67164 0.84335 0
M  V30 5328 N 471.331 -6.82975 1.16263 0
M  V30 5329 N 473.124 -5.56786 0.771091 0
M  V30 5330 H 465.275 -1.71798 1.24896 0
M  V30 5331 H 467.538 -0.801879 0.505663 0
M  V30 5332 H 467.244 -3.24805 1.34887 0
M  V30 5333 H 467.118 -3.75793 -0.325441 0
M  V30 5334 H 469.505 -2.85677 -0.739765 0
M  V30 5335 H 469.586 -2.37112 0.959766 0
M  V30 5336 H 469.23 -4.80394 1.64877 0
M  V30 5337 H 469.16 -5.26553 -0.0704866 0
M  V30 5338 H 471.651 -3.76245 0.353252 0
M  V30 5339 H 471.964 -7.61048 1.34257 0
M  V30 5340 H 470.309 -6.84552 1.20057 0
M  V30 5341 H 473.5 -4.65187 0.521383 0
M  V30 5342 H 473.673 -6.40664 0.972295 0
M  V30 5343 N 467.08 -0.0183926 -1.57589 0
M  V30 5344 C 468.308 0.673046 -1.95647 0
M  V30 5345 C 468.723 1.66275 -0.894312 0
M  V30 5346 O 468.08 1.82072 0.124975 0
M  V30 5347 C 468.131 1.38884 -3.33756 0
M  V30 5348 O 467.852 0.438806 -4.35897 0
M  V30 5349 C 469.353 2.1731 -3.86383 0
M  V30 5350 H 466.573 0.186292 -0.644621 0
M  V30 5351 H 469.117 -0.0749748 -2.04363 0
M  V30 5352 H 467.272 2.08835 -3.26293 0
M  V30 5353 H 467.686 0.945869 -5.15901 0
M  V30 5354 H 469.16 2.62863 -4.85394 0
M  V30 5355 H 469.637 3.00764 -3.20059 0
M  V30 5356 H 470.243 1.52339 -3.97081 0
M  V30 5357 N 468.558 1.5553 0.254621 0
M  V30 5358 C 469.783 1.81383 1.00573 0
M  V30 5359 C 470.208 0.594419 1.78461 0
M  V30 5360 O 469.566 -0.456403 1.75461 0
M  V30 5361 C 469.614 3.04892 1.92545 0
M  V30 5362 O 468.718 2.81266 3.01601 0
M  V30 5363 H 468.059 0.598969 0.286587 0
M  V30 5364 H 470.589 2.02703 0.277952 0
M  V30 5365 H 470.599 3.34119 2.34155 0
M  V30 5366 H 469.274 3.93287 1.3527 0
M  V30 5367 H 467.851 2.63185 2.64174 0
M  V30 5368 N 470.036 -0.519951 1.48776 0
M  V30 5369 C 471.452 -0.849418 1.35119 0
M  V30 5370 C 471.652 -1.98077 0.36982 0
M  V30 5371 O 470.708 -2.51664 -0.205359 0
M  V30 5372 C 472.021 -1.20748 2.75391 0
M  V30 5373 C 473.569 -1.31679 2.83954 0
M  V30 5374 C 474.044 -1.70824 4.24951 0
M  V30 5375 N 475.535 -1.77908 4.27672 0
M  V30 5376 C 476.27 -2.09603 5.33717 0
M  V30 5377 N 475.766 -2.39652 6.5003 0
M  V30 5378 N 477.559 -2.10694 5.21119 0
M  V30 5379 H 469.71 0.226377 2.1119 0
M  V30 5380 H 471.973 0.0386519 0.947212 0
M  V30 5381 H 471.679 -0.449703 3.48813 0
M  V30 5382 H 471.553 -2.15534 3.09556 0
M  V30 5383 H 473.94 -2.06532 2.10781 0
M  V30 5384 H 474.021 -0.3499 2.53396 0
M  V30 5385 H 473.665 -0.965282 4.98643 0
M  V30 5386 H 473.595 -2.6858 4.52959 0
M  V30 5387 H 476.086 -1.56923 3.43779 0
M  V30 5388 H 476.399 -2.6297 7.26682 0
M  V30 5389 H 474.744 -2.37149 6.53288 0
M  V30 5390 H 477.935 -1.86682 4.29264 0
M  V30 5391 H 478.108 -2.35062 6.03863 0
M  V30 5392 N 471.514 -1.37532 -0.769588 0
M  V30 5393 C 472.424 -1.35668 -1.91393 0
M  V30 5394 C 473.44 -0.255954 -1.72107 0
M  V30 5395 O 474.616 -0.491704 -1.95305 0
M  V30 5396 C 471.681 -1.16481 -3.26547 0
M  V30 5397 C 470.742 -2.36212 -3.58472 0
M  V30 5398 C 469.975 -2.17932 -4.87177 0
M  V30 5399 O 470.198 -1.1647 -5.58382 0
M  V30 5400 O 469.132 -3.06167 -5.18214 0
M  V30 5401 H 472.958 -2.32055 -1.95918 0
M  V30 5402 H 470.543 -1.18284 -0.912641 0
M  V30 5403 H 472.425 -1.07778 -4.07384 0
M  V30 5404 H 471.1 -0.231687 -3.2287 0
M  V30 5405 H 470.007 -2.50488 -2.77861 0
M  V30 5406 H 471.34 -3.281 -3.66894 0
M  V30 5407 N 472.992 0.995999 -1.22138 0
M  V30 5408 C 474.22 1.77066 -1.07029 0
M  V30 5409 C 474.635 1.8495 0.379357 0
M  V30 5410 O 473.992 1.3174 1.26297 0
M  V30 5411 C 474.043 3.20533 -1.67155 0
M  V30 5412 O 473.764 3.13082 -3.06449 0
M  V30 5413 C 475.265 4.14461 -1.5728 0
M  V30 5414 H 472.485 0.556179 -0.375374 0
M  V30 5415 H 475.029 1.25238 -1.61666 0
M  V30 5416 H 473.184 3.6944 -1.16589 0
M  V30 5417 H 473.598 4.03283 -3.35355 0
M  V30 5418 H 475.072 5.1289 -2.04078 0
M  V30 5419 H 475.549 4.36005 -0.528795 0
M  V30 5420 H 476.155 3.71449 -2.07136 0
M  V30 5421 N 474.47 1.03057 1.19235 0
M  V30 5422 C 475.4 0.633497 2.24742 0
M  V30 5423 C 476.381 -0.358335 1.66283 0
M  V30 5424 O 477.566 -0.240676 1.92703 0
M  V30 5425 C 474.696 -0.0147648 3.47297 0
M  V30 5426 C 473.65 0.899527 4.18441 0
M  V30 5427 C 472.976 0.116281 5.34574 0
M  V30 5428 C 474.276 2.21404 4.73051 0
M  V30 5429 H 475.97 1.5155 2.58211 0
M  V30 5430 H 473.516 0.73014 1.24117 0
M  V30 5431 H 475.469 -0.304202 4.20301 0
M  V30 5432 H 474.193 -0.931577 3.13032 0
M  V30 5433 H 472.852 1.17319 3.47321 0
M  V30 5434 H 472.5 -0.802619 4.96555 0
M  V30 5435 H 472.2 0.725293 5.83107 0
M  V30 5436 H 473.724 -0.166376 6.10373 0
M  V30 5437 H 475.138 1.98601 5.37802 0
M  V30 5438 H 473.535 2.77512 5.32078 0
M  V30 5439 H 474.605 2.86752 3.91026 0
M  V30 5440 N 475.948 -1.35272 0.808662 0
M  V30 5441 C 476.858 -2.33546 0.222079 0
M  V30 5442 C 477.874 -1.6196 -0.636011 0
M  V30 5443 O 479.05 -1.93822 -0.547274 0
M  V30 5444 C 476.115 -3.41148 -0.61795 0
M  V30 5445 C 475.176 -4.28507 0.260875 0
M  V30 5446 C 474.409 -5.3097 -0.539156 0
M  V30 5447 O 474.632 -5.42123 -1.77367 0
M  V30 5448 O 473.566 -6.01858 0.0710526 0
M  V30 5449 H 477.392 -2.85515 1.03512 0
M  V30 5450 H 474.977 -1.38079 0.570495 0
M  V30 5451 H 476.859 -4.06889 -1.09634 0
M  V30 5452 H 475.534 -2.91447 -1.40855 0
M  V30 5453 H 474.441 -3.6574 0.786451 0
M  V30 5454 H 475.774 -4.81611 1.01547 0
M  V30 5455 N 477.426 -0.562348 -1.47226 0
M  V30 5456 C 478.373 0.182461 -2.30078 0
M  V30 5457 C 479.343 0.903503 -1.39377 0
M  V30 5458 O 480.528 0.898188 -1.68337 0
M  V30 5459 C 477.668 1.20322 -3.23445 0
M  V30 5460 C 476.781 0.487717 -4.29238 0
M  V30 5461 C 475.916 1.49422 -5.09752 0
M  V30 5462 C 474.955 0.763976 -6.07314 0
M  V30 5463 N 474.092 1.71755 -6.80768 0
M  V30 5464 H 478.932 -0.530169 -2.93246 0
M  V30 5465 H 476.469 -0.273276 -1.44539 0
M  V30 5466 H 478.427 1.80768 -3.76004 0
M  V30 5467 H 477.057 1.88382 -2.6213 0
M  V30 5468 H 476.109 -0.231374 -3.79696 0
M  V30 5469 H 477.421 -0.0841003 -4.98729 0
M  V30 5470 H 476.575 2.17206 -5.66486 0
M  V30 5471 H 475.314 2.09995 -4.40174 0
M  V30 5472 H 474.319 0.0722344 -5.49753 0
M  V30 5473 H 475.544 0.16391 -6.78902 0
M  V30 5474 H 473.49 2.31177 -6.13916 0
M  V30 5475 H 473.407 1.19802 -7.46447 0
M  V30 5476 H 474.675 2.38638 -7.42073 0
M  V30 5477 N 478.904 1.54736 -0.299062 0
M  V30 5478 C 480.153 1.99279 0.311549 0
M  V30 5479 C 480.466 1.19107 1.55154 0
M  V30 5480 O 481.672 1.53908 2.23662 0
M  V30 5481 C 480.128 3.54768 0.605632 0
M  V30 5482 C 479.736 4.43746 -0.615914 0
M  V30 5483 C 481.48 4.07841 1.17754 0
M  V30 5484 C 479.387 5.90663 -0.29509 0
M  V30 5485 H 478.317 0.744359 0.120187 0
M  V30 5486 H 480.968 1.78919 -0.407464 0
M  V30 5487 H 479.35 3.71021 1.38419 0
M  V30 5488 H 480.524 4.39267 -1.39218 0
M  V30 5489 H 478.839 4.01434 -1.10633 0
M  V30 5490 H 481.436 5.15174 1.43179 0
M  V30 5491 H 481.779 3.58324 2.11918 0
M  V30 5492 H 482.312 3.95123 0.460739 0
M  V30 5493 H 479.051 6.44325 -1.20524 0
M  V30 5494 H 478.571 5.98155 0.44394 0
M  V30 5495 H 480.25 6.46916 0.104048 0
M  V30 5496 N 480.382 0.0267497 1.57577 0
M  V30 5497 C 481.798 -0.32962 1.56159 0
M  V30 5498 C 481.998 -1.73059 1.03213 0
M  V30 5499 O 481.054 -2.43233 0.677804 0
M  V30 5500 C 482.367 -0.18039 3.00158 0
M  V30 5501 C 483.915 -0.253334 3.11973 0
M  V30 5502 C 484.39 -0.132921 4.57807 0
M  V30 5503 N 485.881 -0.189979 4.6281 0
M  V30 5504 C 486.616 -0.120554 5.73273 0
M  V30 5505 N 486.112 -0.000180315 6.928 0
M  V30 5506 N 487.905 -0.174369 5.61829 0
M  V30 5507 H 480.056 0.942896 1.90324 0
M  V30 5508 H 482.319 0.3639 0.875375 0
M  V30 5509 H 482.025 0.784576 3.42837 0
M  V30 5510 H 481.899 -0.951565 3.65 0
M  V30 5511 H 484.286 -1.20876 2.69208 0
M  V30 5512 H 484.367 0.548177 2.49857 0
M  V30 5513 H 484.011 0.819073 5.01252 0
M  V30 5514 H 483.941 -0.953264 5.179 0
M  V30 5515 H 486.432 -0.283257 3.76837 0
M  V30 5516 H 486.745 0.0461666 7.72786 0
M  V30 5517 H 485.09 0.034569 6.94991 0
M  V30 5518 H 488.281 -0.266794 4.67339 0
M  V30 5519 H 488.454 -0.116802 6.47895 0
M  V30 5520 N 481.861 -1.55662 -0.24637 0
M  V30 5521 C 483.091 -1.81312 -0.990438 0
M  V30 5522 C 483.499 -0.600234 -1.79426 0
M  V30 5523 O 482.842 0.440537 -1.78339 0
M  V30 5524 C 482.904 -3.0032 -1.97607 0
M  V30 5525 C 482.568 -4.36322 -1.35912 0
M  V30 5526 C 483.565 -5.14295 -0.761348 0
M  V30 5527 C 481.25 -4.83019 -1.37833 0
M  V30 5528 C 483.244 -6.37114 -0.190998 0
M  V30 5529 C 480.931 -6.05786 -0.804128 0
M  V30 5530 C 481.929 -6.82672 -0.211489 0
M  V30 5531 O 481.617 -8.03121 0.353845 0
M  V30 5532 H 481.349 -0.607233 -0.297058 0
M  V30 5533 H 483.903 -2.0356 -0.274351 0
M  V30 5534 H 482.133 -2.73829 -2.73047 0
M  V30 5535 H 483.822 -3.13057 -2.58361 0
M  V30 5536 H 484.588 -4.79337 -0.739013 0
M  V30 5537 H 480.467 -4.23165 -1.829 0
M  V30 5538 H 484.011 -6.97069 0.272206 0
M  V30 5539 H 479.908 -6.40222 -0.823792 0
M  V30 5540 H 480.676 -8.18131 0.245761 0
M  V30 5541 N 483.339 0.512053 -1.4905 0
M  V30 5542 C 484.249 1.64139 -1.67617 0
M  V30 5543 C 485.265 1.64786 -0.558701 0
M  V30 5544 O 486.441 1.8341 -0.832034 0
M  V30 5545 C 483.506 3.00548 -1.72835 0
M  V30 5546 C 482.567 3.10615 -2.96339 0
M  V30 5547 C 481.8 4.40517 -3.01298 0
M  V30 5548 O 482.023 5.28671 -2.14157 0
M  V30 5549 O 480.957 4.55325 -3.93653 0
M  V30 5550 H 484.783 1.51407 -2.63267 0
M  V30 5551 H 482.368 0.687131 -1.32661 0
M  V30 5552 H 484.25 3.81641 -1.78683 0
M  V30 5553 H 482.925 3.13566 -0.803616 0
M  V30 5554 H 481.832 2.2875 -2.96014 0
M  V30 5555 H 483.165 3.0252 -3.88256 0
M  V30 5556 N 484.817 1.37938 0.762283 0
M  V30 5557 C 486.066 1.32989 1.51647 0
M  V30 5558 C 486.379 -0.0802922 1.95435 0
M  V30 5559 O 487.585 -0.252295 2.70325 0
M  V30 5560 C 486.041 2.33485 2.73885 0
M  V30 5561 C 485.649 3.80079 2.37157 0
M  V30 5562 C 487.393 2.37563 3.51801 0
M  V30 5563 C 485.3 4.72283 3.55954 0
M  V30 5564 H 484.23 0.494301 0.56937 0
M  V30 5565 H 486.881 1.63448 0.834083 0
M  V30 5566 H 485.263 1.96056 3.44061 0
M  V30 5567 H 486.437 4.26398 1.74704 0
M  V30 5568 H 484.752 3.79037 1.72395 0
M  V30 5569 H 487.349 3.0365 4.40114 0
M  V30 5570 H 487.692 1.39199 3.92338 0
M  V30 5571 H 488.225 2.73747 2.8863 0
M  V30 5572 H 484.964 5.7181 3.2049 0
M  V30 5573 H 484.484 4.30663 4.1748 0
M  V30 5574 H 486.163 4.89876 4.22647 0
M  V30 5575 N 486.295 -0.989507 1.22664 0
M  V30 5576 C 487.205 -2.11449 1.01619 0
M  V30 5577 C 488.221 -1.73962 -0.036545 0
M  V30 5578 O 489.397 -2.00788 0.156924 0
M  V30 5579 C 486.462 -3.41465 0.600204 0
M  V30 5580 C 485.523 -3.93033 1.72695 0
M  V30 5581 C 484.756 -5.16844 1.33071 0
M  V30 5582 O 484.979 -5.7001 0.210975 0
M  V30 5583 O 483.913 -5.6225 2.14845 0
M  V30 5584 H 487.739 -2.32088 1.9588 0
M  V30 5585 H 485.324 -1.09823 1.01289 0
M  V30 5586 H 487.206 -4.19695 0.37873 0
M  V30 5587 H 485.881 -3.22178 -0.313511 0
M  V30 5588 H 484.788 -3.15961 2.00298 0
M  V30 5589 H 486.121 -4.16758 2.61865 0
M  V30 5590 N 487.773 -1.03688 -1.18687 0
M  V30 5591 C 489.05 -0.652397 -1.84399 0
M  V30 5592 C 489.43 0.868386 -1.92412 0
M  V30 5593 O 488.778 1.76832 -1.44716 0
M  V30 5594 C 488.988 -1.3238 -3.22919 0
M  V30 5595 C 490.336 -1.45216 -3.98996 0
M  V30 5596 O 491.36 -1.2816 -3.32345 0
M  V30 5597 O 490.219 -1.72975 -5.18403 0
M  V30 5598 H 487.313 -0.227793 -0.795009 0
M  V30 5599 H 489.859 -1.13553 -1.2611 0
M  V30 5600 H 488.631 -2.36202 -3.11968 0
M  V30 5601 H 488.254 -0.829039 -3.88861 0
M  V30 5602 N 489.251 1.34841 -0.815825 0
M  V30 5603 C 490.497 1.98793 -0.401129 0
M  V30 5604 C 490.83 1.64548 1.03139 0
M  V30 5605 O 490.105 0.913487 1.71714 0
M  V30 5606 C 490.388 3.55143 -0.595409 0
M  V30 5607 C 490.241 3.99155 -2.07352 0
M  V30 5608 C 491.56 4.40092 -0.0268823 0
M  V30 5609 H 488.679 0.722146 -0.14722 0
M  V30 5610 H 491.321 1.59847 -1.02707 0
M  V30 5611 H 489.471 3.8845 -0.0625779 0
M  V30 5612 H 491.143 3.76216 -2.66945 0
M  V30 5613 H 489.386 3.49726 -2.56659 0
M  V30 5614 H 490.057 5.07971 -2.1603 0
M  V30 5615 H 492.533 4.13298 -0.482042 0
M  V30 5616 H 491.409 5.48562 -0.19267 0
M  V30 5617 H 491.67 4.29016 1.06759 0
M  V30 5618 N 490.729 0.570148 1.46925 0
M  V30 5619 C 491.978 0.0487352 2.01641 0
M  V30 5620 C 492.291 -1.31433 1.44861 0
M  V30 5621 O 493.497 -1.92638 1.91318 0
M  V30 5622 C 491.953 0.0365817 3.59881 0
M  V30 5623 C 491.561 1.39719 4.25655 0
M  V30 5624 C 493.305 -0.431545 4.22301 0
M  V30 5625 C 491.212 1.34345 5.75939 0
M  V30 5626 H 490.142 0.0144492 0.753862 0
M  V30 5627 H 492.793 0.719928 1.68788 0
M  V30 5628 H 491.175 -0.700522 3.89755 0
M  V30 5629 H 492.349 2.15303 4.07408 0
M  V30 5630 H 490.664 1.80431 3.75278 0
M  V30 5631 H 493.261 -0.490354 5.32447 0
M  V30 5632 H 493.604 -1.44638 3.90366 0
M  V30 5633 H 494.137 0.251102 3.97007 0
M  V30 5634 H 490.876 2.33469 6.12513 0
M  V30 5635 H 490.396 0.629615 5.96486 0
M  V30 5636 H 492.075 1.051 6.38407 0
M  V30 5637 N 492.207 -1.54576 0.307264 0
M  V30 5638 C 493.432 -2.05139 -0.305379 0
M  V30 5639 C 493.857 -1.18278 -1.46259 0
M  V30 5640 O 493.215 -0.188243 -1.8032 0
M  V30 5641 C 493.263 -3.53066 -0.733283 0
M  V30 5642 O 492.367 -3.69206 -1.83741 0
M  V30 5643 H 491.708 -0.661444 -0.0582105 0
M  V30 5644 H 494.238 -1.99569 0.450931 0
M  V30 5645 H 494.248 -3.95034 -1.02039 0
M  V30 5646 H 492.923 -4.15746 0.113198 0
M  V30 5647 H 491.5 -3.39143 -1.55037 0
M  V30 5648 N 493.685 -0.035106 -1.57561 0
M  V30 5649 C 494.934 0.641604 -1.91223 0
M  V30 5650 C 495.247 1.72944 -0.913761 0
M  V30 5651 O 496.453 2.46321 -1.14185 0
M  V30 5652 C 494.909 1.19249 -3.3957 0
M  V30 5653 C 494.517 0.137616 -4.47789 0
M  V30 5654 C 496.261 1.84537 -3.82291 0
M  V30 5655 C 494.168 0.700478 -5.87237 0
M  V30 5656 H 493.098 0.243417 -0.713627 0
M  V30 5657 H 495.749 -0.101382 -1.8322 0
M  V30 5658 H 494.131 1.98728 -3.42525 0
M  V30 5659 H 495.305 -0.635153 -4.56402 0
M  V30 5660 H 493.62 -0.416855 -4.14308 0
M  V30 5661 H 496.217 2.27616 -4.83834 0
M  V30 5662 H 496.56 2.69054 -3.17672 0
M  V30 5663 H 497.093 1.11739 -3.81784 0
M  V30 5664 H 493.832 -0.106693 -6.55413 0
M  V30 5665 H 493.352 1.4416 -5.82218 0
M  V30 5666 H 495.031 1.18837 -6.35993 0
M  V30 5667 N 495.163 1.55791 0.238111 0
M  V30 5668 C 496.093 1.94068 1.29846 0
M  V30 5669 C 497.074 0.806726 1.49753 0
M  V30 5670 O 498.259 1.06772 1.62214 0
M  V30 5671 C 495.389 2.24302 2.65153 0
M  V30 5672 C 494.343 3.40032 2.59927 0
M  V30 5673 C 493.669 3.55829 3.99111 0
M  V30 5674 C 494.969 4.75476 2.16148 0
M  V30 5675 H 496.663 2.82887 0.980563 0
M  V30 5676 H 494.209 1.36105 0.470253 0
M  V30 5677 H 496.162 2.4967 3.39475 0
M  V30 5678 H 494.886 1.32318 2.98596 0
M  V30 5679 H 493.545 3.14687 1.88063 0
M  V30 5680 H 493.193 2.6125 4.29834 0
M  V30 5681 H 492.893 4.3366 3.96501 0
M  V30 5682 H 494.417 3.83528 4.7512 0
M  V30 5683 H 495.831 5.00158 2.80205 0
M  V30 5684 H 494.228 5.56472 2.24631 0
M  V30 5685 H 495.298 4.71946 1.11333 0
M  V30 5686 N 496.642 -0.504142 1.49319 0
M  V30 5687 C 497.552 -1.63248 1.68486 0
M  V30 5688 C 498.568 -1.64488 0.567432 0
M  V30 5689 O 499.744 -1.82966 0.841749 0
M  V30 5690 C 496.809 -2.99627 1.74426 0
M  V30 5691 C 495.87 -3.09039 2.97982 0
M  V30 5692 C 495.103 -4.38913 3.0363 0
M  V30 5693 O 495.326 -5.27528 2.16958 0
M  V30 5694 O 494.26 -4.53231 3.96062 0
M  V30 5695 H 498.086 -1.50008 2.64067 0
M  V30 5696 H 495.671 -0.680086 1.33023 0
M  V30 5697 H 497.553 -3.80689 1.80705 0
M  V30 5698 H 496.228 -3.13136 0.820233 0
M  V30 5699 H 495.135 -2.27177 2.97223 0
M  V30 5700 H 496.468 -3.00456 3.89855 0
M  V30 5701 N 498.12 -1.38341 -0.754957 0
M  V30 5702 C 499.068 -1.35573 -1.89005 0
M  V30 5703 C 500.062 -0.241824 -1.67665 0
M  V30 5704 O 501.268 -0.410785 -1.7525 0
M  V30 5705 H 497.643 -0.422898 -0.621821 0
M  V30 5706 H 499.614 -2.31359 -1.88455 0
M  V30 5707 C 498.363 -1.19631 -3.26471 0
M  V30 5708 H 497.686 -2.04605 -3.43477 0
M  V30 5709 H 499.126 -1.21748 -4.06144 0
M  V30 5710 C 497.585 0.0968705 -3.36761 0
M  V30 5711 O 498.115 1.07439 -3.87066 0
M  V30 5712 N 496.321 0.153242 -2.90196 0
M  V30 5713 H 495.868 -0.642908 -2.49448 0
M  V30 5714 H 495.826 1.01807 -2.9746 0
M  V30 5715 N 499.598 0.982988 -1.23187 0
M  V30 5716 C 500.875 1.69814 -0.970707 0
M  V30 5717 C 501.255 2.04811 0.511424 0
M  V30 5718 O 500.603 1.73924 1.48198 0
M  V30 5719 C 500.813 2.94143 -1.87831 0
M  V30 5720 C 502.161 3.66712 -2.14026 0
M  V30 5721 O 503.185 3.04171 -1.8536 0
M  V30 5722 O 502.044 4.79258 -2.62629 0
M  V30 5723 H 499.138 0.741659 -0.365884 0
M  V30 5724 H 501.684 1.03844 -1.34218 0
M  V30 5725 H 500.456 2.64858 -2.88038 0
M  V30 5726 H 500.079 3.6785 -1.50905 0
M  V30 5727 N 501.076 1.04316 1.18135 0
M  V30 5728 C 501.986 0.646876 2.25505 0
M  V30 5729 C 503.002 -0.328008 1.7088 0
M  V30 5730 O 504.178 -0.182309 2.00573 0
M  V30 5731 C 501.243 0.0185664 3.46695 0
M  V30 5732 C 500.304 1.04277 4.16443 0
M  V30 5733 C 499.537 0.444352 5.31847 0
M  V30 5734 O 499.76 -0.748735 5.65465 0
M  V30 5735 O 498.694 1.17428 5.90334 0
M  V30 5736 H 502.52 1.54147 2.61672 0
M  V30 5737 H 500.105 0.814188 1.25265 0
M  V30 5738 H 501.987 -0.331068 4.20097 0
M  V30 5739 H 500.662 -0.849814 3.12346 0
M  V30 5740 H 499.569 1.44425 3.45098 0
M  V30 5741 H 500.902 1.882 4.54798 0
M  V30 5742 N 502.554 -1.34406 0.822964 0
M  V30 5743 C 503.801 -1.98284 0.411057 0
M  V30 5744 C 504.129 -1.65245 -1.02588 0
M  V30 5745 O 503.384 -0.91619 -1.72929 0
M  V30 5746 C 503.683 -3.52981 0.560268 0
M  V30 5747 C 503.349 -4.05931 1.96293 0
M  V30 5748 C 502.011 -4.20103 2.34664 0
M  V30 5749 C 504.363 -4.34412 2.87985 0
M  V30 5750 C 501.691 -4.60082 3.64062 0
M  V30 5751 C 504.043 -4.75838 4.16847 0
M  V30 5752 C 502.707 -4.88215 4.55195 0
M  V30 5753 H 501.977 -0.725573 0.150416 0
M  V30 5754 H 504.624 -1.60349 1.04692 0
M  V30 5755 H 502.929 -3.91477 -0.158982 0
M  V30 5756 H 504.626 -4.00385 0.222087 0
M  V30 5757 H 501.216 -3.95363 1.65487 0
M  V30 5758 H 505.4 -4.23001 2.59584 0
M  V30 5759 H 500.656 -4.67856 3.93599 0
M  V30 5760 H 504.83 -4.96834 4.87984 0
M  V30 5761 H 502.457 -5.18952 5.55512 0
M  V30 5762 N 504.032 -0.577932 -1.46621 0
M  V30 5763 C 505.281 -0.0594281 -2.01612 0
M  V30 5764 C 505.594 1.30663 -1.45556 0
M  V30 5765 O 506.8 1.91621 -1.92337 0
M  V30 5766 C 505.256 -0.0556666 -3.59857 0
M  V30 5767 C 504.864 -1.41975 -4.24908 0
M  V30 5768 C 506.608 0.409143 -4.22524 0
M  V30 5769 C 504.515 -1.37397 -5.75218 0
M  V30 5770 H 503.445 -0.0184469 -0.753774 0
M  V30 5771 H 506.096 -0.728869 -1.68404 0
M  V30 5772 H 504.478 0.679843 -3.90121 0
M  V30 5773 H 505.652 -2.17461 -4.0626 0
M  V30 5774 H 503.967 -1.82419 -3.74316 0
M  V30 5775 H 506.564 0.46211 -5.32699 0
M  V30 5776 H 506.907 1.42565 -3.91128 0
M  V30 5777 H 507.44 -0.272152 -3.96868 0
M  V30 5778 H 504.179 -2.36714 -6.11267 0
M  V30 5779 H 503.699 -0.661239 -5.96144 0
M  V30 5780 H 505.378 -1.08484 -6.3784 0
M  V30 5781 N 505.51 1.54411 -0.315457 0
M  V30 5782 C 506.756 2.00716 0.289972 0
M  V30 5783 C 507.089 1.2034 1.5242 0
M  V30 5784 O 506.364 0.283579 1.92422 0
M  V30 5785 C 506.647 3.54507 0.632196 0
M  V30 5786 C 506.5 4.45615 -0.61218 0
M  V30 5787 C 507.819 4.15421 1.45305 0
M  V30 5788 H 504.938 0.729637 0.10392 0
M  V30 5789 H 507.58 1.8506 -0.430427 0
M  V30 5790 H 505.73 3.67979 1.24595 0
M  V30 5791 H 507.402 4.44026 -1.25053 0
M  V30 5792 H 505.645 4.15621 -1.24264 0
M  V30 5793 H 506.316 5.51022 -0.328379 0
M  V30 5794 H 508.792 4.05474 0.934331 0
M  V30 5795 H 507.668 5.23157 1.66127 0
M  V30 5796 H 507.929 3.68223 2.44671 0
M  V30 5797 N 506.988 0.0434614 1.5754 0
M  V30 5798 C 508.235 -0.632035 1.92384 0
M  V30 5799 C 508.563 -1.71304 0.921157 0
M  V30 5800 O 507.818 -1.95583 -0.067744 0
M  V30 5801 C 508.117 -1.2738 3.3393 0
M  V30 5802 C 507.783 -0.321757 4.49751 0
M  V30 5803 C 506.445 -0.0597611 4.81163 0
M  V30 5804 C 508.797 0.331158 5.20147 0
M  V30 5805 C 506.125 0.862715 5.80322 0
M  V30 5806 C 508.477 1.24178 6.20292 0
M  V30 5807 C 507.141 1.51252 6.50138 0
M  V30 5808 H 506.411 -0.231278 0.703983 0
M  V30 5809 H 509.058 0.108294 1.91194 0
M  V30 5810 H 507.363 -2.08921 3.3145 0
M  V30 5811 H 509.06 -1.80326 3.58167 0
M  V30 5812 H 505.65 -0.53614 4.25233 0
M  V30 5813 H 509.834 0.141826 4.96097 0
M  V30 5814 H 505.09 1.08003 6.01785 0
M  V30 5815 H 509.264 1.75381 6.73954 0
M  V30 5816 H 506.891 2.22897 7.26788 0
M  V30 5817 N 508.466 -1.55915 -0.229846 0
M  V30 5818 C 509.877 -1.68809 -0.797531 0
M  V30 5819 C 510.228 -0.643995 -1.8533 0
M  V30 5820 O 509.353 0.206492 -2.15413 0
M  V30 5821 C 509.948 -3.06043 -1.45338 0
M  V30 5822 C 508.507 -3.20819 -1.96856 0
M  V30 5823 C 507.654 -2.6472 -0.825736 0
M  V30 5824 H 510.605 -1.58699 -0.00533733 0
M  V30 5825 H 510.626 -3.01438 -2.32196 0
M  V30 5826 H 510.138 -3.82012 -0.684743 0
M  V30 5827 H 508.239 -2.49704 -2.76548 0
M  V30 5828 H 508.352 -4.27937 -2.15423 0
M  V30 5829 H 506.716 -2.22985 -1.23084 0
M  V30 5830 H 507.499 -3.43229 -0.0699019 0
M  V30 5831 N 509.944 0.496216 -1.49584 0
M  V30 5832 C 510.874 1.60576 -1.69521 0
M  V30 5833 C 511.855 1.61169 -0.543933 0
M  V30 5834 O 513.04 1.77834 -0.78031 0
M  V30 5835 C 510.17 2.99038 -1.76616 0
M  V30 5836 C 509.124 3.13312 -2.91581 0
M  V30 5837 C 508.45 4.53172 -2.83794 0
M  V30 5838 C 509.75 2.92886 -4.32452 0
M  V30 5839 H 511.444 1.44146 -2.62416 0
M  V30 5840 H 508.99 0.692024 -1.26282 0
M  V30 5841 H 510.943 3.76564 -1.8915 0
M  V30 5842 H 509.667 3.16568 -0.80324 0
M  V30 5843 H 508.326 2.38213 -2.78658 0
M  V30 5844 H 507.974 4.67585 -1.854 0
M  V30 5845 H 507.674 4.63662 -3.60958 0
M  V30 5846 H 509.198 5.32752 -2.98342 0
M  V30 5847 H 510.612 3.60178 -4.46032 0
M  V30 5848 H 509.009 3.14844 -5.10875 0
M  V30 5849 H 510.079 1.88966 -4.46565 0
M  V30 5850 N 511.423 1.38739 0.74761 0
M  V30 5851 C 512.669 1.35475 1.50912 0
M  V30 5852 C 513.002 -0.0533093 1.94127 0
M  V30 5853 O 512.277 -1.01572 1.65871 0
M  V30 5854 C 512.56 2.31582 2.75757 0
M  V30 5855 C 512.413 3.81274 2.38642 0
M  V30 5856 C 513.732 2.25722 3.77806 0
M  V30 5857 H 510.851 0.493427 0.547447 0
M  V30 5858 H 513.493 1.69634 0.855823 0
M  V30 5859 H 511.643 2.02582 3.31501 0
M  V30 5860 H 513.315 4.20972 1.88626 0
M  V30 5861 H 511.558 3.98664 1.71025 0
M  V30 5862 H 512.229 4.4399 3.27989 0
M  V30 5863 H 514.705 2.51336 3.31616 0
M  V30 5864 H 513.581 2.95069 4.62845 0
M  V30 5865 H 513.842 1.25803 4.23823 0
M  V30 5866 N 512.901 -0.976442 1.23707 0
M  V30 5867 C 514.149 -1.71487 1.06942 0
M  V30 5868 C 514.47 -1.9098 -0.393897 0
M  V30 5869 O 513.74 -1.48128 -1.28198 0
M  V30 5870 H 512.32 -0.635425 0.392739 0
M  V30 5871 H 514.982 -1.17515 1.55487 0
M  V30 5872 H 514.078 -2.70286 1.56051 0
M  V30 5873 N 514.379 -1.04941 -1.1758 0
M  V30 5874 C 515.795 -0.770282 -1.39781 0
M  V30 5875 C 515.995 0.636417 -1.91186 0
M  V30 5876 O 515.051 1.39923 -2.10185 0
M  V30 5877 C 516.364 -1.82376 -2.3908 0
M  V30 5878 C 517.912 -1.84569 -2.52791 0
M  V30 5879 C 518.387 -2.88933 -3.55361 0
M  V30 5880 N 519.878 -2.8788 -3.62877 0
M  V30 5881 C 520.613 -3.65282 -4.41992 0
M  V30 5882 N 520.109 -4.52461 -5.24643 0
M  V30 5883 N 521.902 -3.53732 -4.36841 0
M  V30 5884 H 514.053 -1.95705 -0.825438 0
M  V30 5885 H 516.316 -0.847284 -0.425222 0
M  V30 5886 H 516.022 -2.83323 -2.08376 0
M  V30 5887 H 515.896 -1.66327 -3.38549 0
M  V30 5888 H 518.283 -0.842879 -2.82807 0
M  V30 5889 H 518.364 -2.04696 -1.53406 0
M  V30 5890 H 518.008 -3.89398 -3.26085 0
M  V30 5891 H 517.938 -2.66059 -4.54445 0
M  V30 5892 H 520.429 -2.24666 -3.03864 0
M  V30 5893 H 520.742 -5.08211 -5.82187 0
M  V30 5894 H 519.087 -4.56524 -5.24033 0
M  V30 5895 H 522.278 -2.85021 -3.71323 0
M  V30 5896 H 522.451 -4.14302 -4.98255 0
M  V30 5897 N 515.857 1.33968 -0.830081 0
M  V30 5898 C 517.103 1.98773 -0.431394 0
M  V30 5899 C 517.458 1.64598 0.99626 0
M  V30 5900 O 516.751 0.911022 1.68555 0
M  V30 5901 C 516.945 3.52679 -0.57898 0
M  V30 5902 C 516.774 4.01807 -2.01943 0
M  V30 5903 C 515.544 4.30062 -2.65282 0
M  V30 5904 C 517.742 4.18663 -2.98707 0
M  V30 5905 N 515.724 4.65272 -4.00493 0
M  V30 5906 C 517.095 4.57133 -4.18843 0
M  V30 5907 C 519.15 4.00929 -2.95229 0
M  V30 5908 C 517.853 4.79723 -5.35965 0
M  V30 5909 C 519.879 4.2469 -4.11573 0
M  V30 5910 C 519.241 4.63454 -5.30462 0
M  V30 5911 H 515.34 0.75435 -0.206107 0
M  V30 5912 H 517.924 1.62247 -1.07629 0
M  V30 5913 H 516.095 3.88383 0.0360632 0
M  V30 5914 H 517.827 4.04412 -0.152596 0
M  V30 5915 H 514.582 4.21231 -2.16475 0
M  V30 5916 H 515.006 4.87101 -4.70172 0
M  V30 5917 H 519.648 3.70082 -2.04448 0
M  V30 5918 H 517.366 5.09434 -6.27297 0
M  V30 5919 H 520.952 4.12497 -4.10289 0
M  V30 5920 H 519.832 4.81476 -6.18992 0
M  V30 5921 N 517.335 0.585699 1.46312 0
M  V30 5922 C 518.612 0.00542031 1.95599 0
M  V30 5923 C 518.992 -1.45619 1.52834 0
M  V30 5924 O 518.34 -2.14759 0.780446 0
M  V30 5925 C 518.55 0.180601 3.48532 0
M  V30 5926 C 519.898 0.049979 4.24571 0
M  V30 5927 O 520.922 0.109589 3.56031 0
M  V30 5928 O 519.781 -0.0832226 5.46437 0
M  V30 5929 H 516.875 -0.0481281 0.825598 0
M  V30 5930 H 519.421 0.654227 1.56582 0
M  V30 5931 H 518.193 1.19657 3.72556 0
M  V30 5932 H 517.816 -0.504498 3.94386 0
M  V30 5933 N 518.813 -1.54241 0.323641 0
M  V30 5934 C 520.041 -2.04985 -0.280871 0
M  V30 5935 C 520.456 -1.19978 -1.45777 0
M  V30 5936 O 519.813 -0.230471 -1.81039 0
M  V30 5937 C 519.864 -3.54353 -0.715258 0
M  V30 5938 O 519.585 -4.36132 0.414817 0
M  V30 5939 C 521.086 -4.21189 -1.38257 0
M  V30 5940 H 518.306 -0.66851 -0.0577502 0
M  V30 5941 H 520.85 -1.99029 0.469852 0
M  V30 5942 H 519.005 -3.60596 -1.41596 0
M  V30 5943 H 519.419 -5.2445 0.0725227 0
M  V30 5944 H 520.893 -5.27154 -1.63745 0
M  V30 5945 H 521.37 -3.72307 -2.32989 0
M  V30 5946 H 521.976 -4.19085 -0.724447 0
M  V30 5947 N 520.291 -0.0518155 -1.57515 0
M  V30 5948 C 521.221 0.920283 -2.146 0
M  V30 5949 C 522.202 1.32406 -1.06783 0
M  V30 5950 O 523.387 1.39866 -1.34726 0
M  V30 5951 C 520.517 2.1949 -2.6915 0
M  V30 5952 C 519.471 1.93116 -3.81956 0
M  V30 5953 C 518.797 3.27037 -4.23026 0
M  V30 5954 C 520.097 1.25225 -5.07066 0
M  V30 5955 H 521.791 0.444801 -2.96077 0
M  V30 5956 H 519.337 0.212508 -1.42423 0
M  V30 5957 H 521.29 2.87894 -3.07725 0
M  V30 5958 H 520.014 2.69244 -1.84865 0
M  V30 5959 H 518.673 1.27123 -3.43854 0
M  V30 5960 H 518.321 3.74595 -3.3569 0
M  V30 5961 H 518.021 3.10189 -4.99056 0
M  V30 5962 H 519.545 3.96673 -4.64202 0
M  V30 5963 H 520.959 1.83666 -5.43083 0
M  V30 5964 H 519.356 1.18702 -5.88243 0
M  V30 5965 H 520.426 0.228382 -4.84362 0
M  V30 5966 N 521.769 1.56035 0.221574 0
M  V30 5967 C 523.017 1.78693 0.944102 0
M  V30 5968 C 523.338 0.620317 1.8487 0
M  V30 5969 O 522.608 -0.362784 1.92512 0
M  V30 5970 H 521.188 0.659082 0.351597 0
M  V30 5971 H 523.85 1.93497 0.233435 0
M  V30 5972 H 522.946 2.70837 1.55093 0
M  V30 5973 N 523.247 -0.488276 1.49845 0
M  V30 5974 C 524.493 -1.24341 1.6021 0
M  V30 5975 C 524.826 -1.91967 0.293651 0
M  V30 5976 O 524.101 -1.81323 -0.703718 0
M  V30 5977 C 524.384 -2.3005 2.77036 0
M  V30 5978 C 524.237 -1.66842 4.17713 0
M  V30 5979 C 525.556 -3.31509 2.89464 0
M  V30 5980 H 522.675 -0.450704 0.583125 0
M  V30 5981 H 525.317 -0.539673 1.82174 0
M  V30 5982 H 523.467 -2.90071 2.58439 0
M  V30 5983 H 525.139 -1.1055 4.47858 0
M  V30 5984 H 523.382 -0.972079 4.22768 0
M  V30 5985 H 524.053 -2.43576 4.95353 0
M  V30 5986 H 526.529 -2.81493 3.06433 0
M  V30 5987 H 525.405 -4.02822 3.72861 0
M  V30 5988 H 525.666 -3.94603 1.99351 0
M  V30 5989 N 524.725 -1.39134 -0.740242 0
M  V30 5990 C 525.971 -1.36273 -1.50192 0
M  V30 5991 C 526.304 0.0430136 -1.94152 0
M  V30 5992 O 525.579 1.00691 -1.66408 0
M  V30 5993 C 525.862 -2.33041 -2.74525 0
M  V30 5994 C 525.715 -3.82535 -2.36617 0
M  V30 5995 C 527.034 -2.27723 -3.76604 0
M  V30 5996 H 524.153 -0.496323 -0.544823 0
M  V30 5997 H 526.795 -1.70085 -0.846815 0
M  V30 5998 H 524.945 -2.04337 -3.30422 0
M  V30 5999 H 526.617 -4.21967 -1.86391 0
M  V30 6000 H 524.86 -3.99565 -1.68909 0
M  V30 6001 H 525.531 -4.45723 -3.2563 0
M  V30 6002 H 528.007 -2.53091 -3.30279 0
M  V30 6003 H 526.883 -2.97519 -4.61274 0
M  V30 6004 H 527.144 -1.28049 -4.2315 0
M  V30 6005 N 526.204 0.969867 -1.24223 0
M  V30 6006 C 527.45 1.7151 -1.08223 0
M  V30 6007 C 527.783 1.90478 0.37838 0
M  V30 6008 O 527.058 1.4647 1.27971 0
M  V30 6009 C 527.341 3.10714 -1.82013 0
M  V30 6010 C 527.194 2.9925 -3.35811 0
M  V30 6011 C 528.513 4.10332 -1.59108 0
M  V30 6012 H 525.632 0.622499 -0.394543 0
M  V30 6013 H 528.274 1.1284 -1.52863 0
M  V30 6014 H 526.424 3.608 -1.44068 0
M  V30 6015 H 528.096 2.56608 -3.83341 0
M  V30 6016 H 526.339 2.35512 -3.64303 0
M  V30 6017 H 527.01 3.97857 -3.82641 0
M  V30 6018 H 529.486 3.69097 -1.92111 0
M  V30 6019 H 528.362 5.05804 -2.13198 0
M  V30 6020 H 528.623 4.38926 -0.528832 0
M  V30 6021 N 527.682 1.05563 1.17022 0
M  V30 6022 C 528.928 0.769074 1.87652 0
M  V30 6023 C 529.261 -0.702326 1.81055 0
M  V30 6024 O 528.536 -1.5139 1.22112 0
M  V30 6025 C 528.819 1.25492 3.37526 0
M  V30 6026 C 528.672 2.78953 3.52853 0
M  V30 6027 C 529.991 0.856919 4.31677 0
M  V30 6028 H 527.11 0.280854 0.681388 0
M  V30 6029 H 529.752 1.31027 1.37593 0
M  V30 6030 H 527.902 0.794516 3.80289 0
M  V30 6031 H 529.574 3.33146 3.19079 0
M  V30 6032 H 527.817 3.18046 2.95007 0
M  V30 6033 H 528.488 3.08011 4.58076 0
M  V30 6034 H 530.964 1.25334 3.96775 0
M  V30 6035 H 529.84 1.22443 5.35069 0
M  V30 6036 H 530.101 -0.238787 4.41455 0
M  V30 6037 N 529.16 -1.33526 0.837174 0
M  V30 6038 C 530.437 -1.92369 0.354065 0
M  V30 6039 C 530.817 -1.76348 -1.16038 0
M  V30 6040 O 530.165 -1.15083 -1.97403 0
M  V30 6041 C 530.375 -3.39728 0.799101 0
M  V30 6042 C 531.723 -4.16877 0.806139 0
M  V30 6043 O 532.747 -3.48373 0.742597 0
M  V30 6044 O 531.606 -5.39166 0.892345 0
M  V30 6045 H 528.7 -0.820952 0.0998378 0
M  V30 6046 H 531.246 -1.42409 0.922913 0
M  V30 6047 H 530.018 -3.45254 1.84162 0
M  V30 6048 H 529.641 -3.97062 0.206731 0
M  V30 6049 N 530.638 -0.59345 -1.46 0
M  V30 6050 C 531.586 0.146268 -2.3214 0
M  V30 6051 C 532.58 0.873743 -1.45128 0
M  V30 6052 O 533.786 0.790912 -1.61693 0
M  V30 6053 H 530.161 0.0660349 -0.749095 0
M  V30 6054 H 532.132 -0.598895 -2.92328 0
M  V30 6055 C 530.881 1.1396 -3.28494 0
M  V30 6056 H 530.204 0.589252 -3.95434 0
M  V30 6057 H 531.644 1.62738 -3.91526 0
M  V30 6058 C 530.103 2.20604 -2.54628 0
M  V30 6059 O 530.633 3.28128 -2.31722 0
M  V30 6060 N 528.839 1.95502 -2.15005 0
M  V30 6061 H 528.386 1.0807 -2.33834 0
M  V30 6062 H 528.344 2.67064 -1.65904 0
M  V30 6063 N 532.116 1.54067 -0.331816 0
M  V30 6064 C 533.063 2.24623 0.530372 0
M  V30 6065 C 534.033 1.24009 1.10503 0
M  V30 6066 O 535.218 1.52712 1.14384 0
M  V30 6067 C 532.358 3.01374 1.68129 0
M  V30 6068 C 531.471 4.16821 1.13507 0
M  V30 6069 C 530.606 4.81085 2.25234 0
M  V30 6070 C 529.645 5.88621 1.67903 0
M  V30 6071 N 528.782 6.46713 2.73326 0
M  V30 6072 H 533.622 2.97898 -0.0778607 0
M  V30 6073 H 531.159 1.47014 -0.0501965 0
M  V30 6074 H 533.117 3.44125 2.35868 0
M  V30 6075 H 531.747 2.30419 2.26069 0
M  V30 6076 H 530.799 3.78796 0.348979 0
M  V30 6077 H 532.111 4.94203 0.675633 0
M  V30 6078 H 531.265 5.26846 3.00862 0
M  V30 6079 H 530.004 4.03102 2.74518 0
M  V30 6080 H 529.009 5.42254 0.907773 0
M  V30 6081 H 530.234 6.68506 1.19487 0
M  V30 6082 H 528.18 5.71599 3.21886 0
M  V30 6083 H 528.097 7.19532 2.3197 0
M  V30 6084 H 529.365 6.97129 3.48758 0
M  V30 6085 N 533.594 0.0601682 1.57485 0
M  V30 6086 C 534.841 -0.611594 1.93043 0
M  V30 6087 C 535.169 -1.70317 0.939274 0
M  V30 6088 O 534.424 -1.95644 -0.046996 0
M  V30 6089 C 534.723 -1.23831 3.35262 0
M  V30 6090 C 534.389 -0.274037 4.50066 0
M  V30 6091 C 533.051 -0.00872394 4.81199 0
M  V30 6092 C 535.403 0.386308 5.19766 0
M  V30 6093 C 532.731 0.924218 5.79375 0
M  V30 6094 C 535.083 1.3075 6.1894 0
M  V30 6095 C 533.747 1.58139 6.48497 0
M  V30 6096 H 533.017 -0.223798 0.706396 0
M  V30 6097 H 535.664 0.128566 1.91068 0
M  V30 6098 H 533.969 -2.05394 3.33647 0
M  V30 6099 H 535.666 -1.76517 3.60059 0
M  V30 6100 H 532.256 -0.491008 4.25778 0
M  V30 6101 H 536.44 0.194436 4.95919 0
M  V30 6102 H 531.696 1.1438 6.00606 0
M  V30 6103 H 535.87 1.82519 6.72056 0
M  V30 6104 H 533.497 2.30593 7.24383 0
M  V30 6105 N 535.072 -1.5615 -0.213296 0
M  V30 6106 C 536.297 -1.83986 -0.957282 0
M  V30 6107 C 536.722 -0.641526 -1.76822 0
M  V30 6108 O 536.08 0.409722 -1.7661 0
M  V30 6109 C 536.128 -3.09889 -1.84393 0
M  V30 6110 O 535.232 -2.89163 -2.94038 0
M  V30 6111 H 534.573 -0.606357 -0.270605 0
M  V30 6112 H 537.103 -2.03369 -0.224111 0
M  V30 6113 H 537.113 -3.40209 -2.25215 0
M  V30 6114 H 535.788 -3.96735 -1.24795 0
M  V30 6115 H 534.365 -2.70097 -2.57103 0
M  V30 6116 N 536.55 0.480323 -1.50102 0
M  V30 6117 C 537.497 1.57946 -1.6829 0
M  V30 6118 C 538.467 1.57611 -0.524223 0
M  V30 6119 O 539.652 1.75282 -0.753709 0
M  V30 6120 C 536.792 2.95978 -1.77457 0
M  V30 6121 C 535.905 3.06173 -3.04766 0
M  V30 6122 C 535.04 4.35063 -3.04784 0
M  V30 6123 C 534.079 4.38966 -4.26586 0
M  V30 6124 N 533.216 5.59314 -4.24396 0
M  V30 6125 H 538.056 1.41743 -2.62131 0
M  V30 6126 H 535.593 0.689304 -1.2995 0
M  V30 6127 H 537.551 3.76011 -1.80752 0
M  V30 6128 H 536.181 3.10837 -0.870637 0
M  V30 6129 H 535.233 2.19071 -3.10986 0
M  V30 6130 H 536.545 3.04916 -3.9475 0
M  V30 6131 H 535.699 5.23436 -3.06757 0
M  V30 6132 H 534.438 4.38915 -2.12614 0
M  V30 6133 H 533.443 3.48992 -4.24835 0
M  V30 6134 H 534.668 4.36813 -5.19972 0
M  V30 6135 H 532.614 5.63969 -3.35074 0
M  V30 6136 H 532.531 5.5976 -5.08138 0
M  V30 6137 H 533.799 6.49837 -4.30502 0
M  V30 6138 N 538.028 1.39524 0.732853 0
M  V30 6139 C 538.975 1.38416 1.84688 0
M  V30 6140 C 539.945 0.243539 1.64305 0
M  V30 6141 O 541.13 0.438979 1.85681 0
M  V30 6142 C 538.27 1.23555 3.22224 0
M  V30 6143 C 537.383 2.47179 3.54298 0
M  V30 6144 C 536.518 2.2489 4.81246 0
M  V30 6145 C 535.557 3.44178 5.0617 0
M  V30 6146 N 534.694 3.21192 6.24323 0
M  V30 6147 H 539.534 2.33645 1.84971 0
M  V30 6148 H 537.071 1.16059 0.903804 0
M  V30 6149 H 539.029 1.12949 4.0162 0
M  V30 6150 H 537.659 0.31954 3.21215 0
M  V30 6151 H 536.711 2.68379 2.69587 0
M  V30 6152 H 538.023 3.36022 3.68633 0
M  V30 6153 H 537.177 2.11538 5.68627 0
M  V30 6154 H 535.916 1.33443 4.69089 0
M  V30 6155 H 534.921 3.58025 4.17251 0
M  V30 6156 H 536.146 4.36528 5.20212 0
M  V30 6157 H 534.092 2.32413 6.1345 0
M  V30 6158 H 534.009 4.03594 6.39256 0
M  V30 6159 H 535.277 3.1154 7.14537 0
M  V30 6160 N 539.506 -0.963266 1.24736 0
M  V30 6161 C 540.416 -2.09246 1.06082 0
M  V30 6162 C 541.432 -1.74 0.000363101 0
M  V30 6163 O 542.608 -2.0041 0.199479 0
M  V30 6164 C 539.673 -3.40115 0.672498 0
M  V30 6165 C 538.734 -3.89282 1.80993 0
M  V30 6166 C 537.967 -5.13905 1.44004 0
M  V30 6167 O 538.19 -5.69434 0.331835 0
M  V30 6168 O 537.124 -5.57566 2.26723 0
M  V30 6169 H 540.95 -2.27881 2.00759 0
M  V30 6170 H 538.535 -1.07649 1.03595 0
M  V30 6171 H 540.417 -4.18797 0.467668 0
M  V30 6172 H 539.092 -3.22771 -0.245102 0
M  V30 6173 H 537.999 -3.11642 2.06955 0
M  V30 6174 H 539.332 -4.1111 2.70646 0
M  V30 6175 N 540.985 -1.06182 -1.16461 0
M  V30 6176 C 542.231 -0.779015 -1.87241 0
M  V30 6177 C 542.564 0.692715 -1.81425 0
M  V30 6178 O 541.839 1.5074 -1.22913 0
M  V30 6179 C 542.122 -1.2728 -3.36856 0
M  V30 6180 C 541.975 -2.80821 -3.51368 0
M  V30 6181 C 543.294 -0.879799 -4.31216 0
M  V30 6182 H 540.413 -0.284464 -0.679889 0
M  V30 6183 H 543.055 -1.31755 -1.36896 0
M  V30 6184 H 541.205 -0.814673 -3.79862 0
M  V30 6185 H 542.877 -3.34833 -3.17308 0
M  V30 6186 H 541.12 -3.19606 -2.93316 0
M  V30 6187 H 541.791 -3.10435 -4.56436 0
M  V30 6188 H 544.267 -1.27436 -3.96105 0
M  V30 6189 H 543.143 -1.25278 -5.34412 0
M  V30 6190 H 543.404 0.215372 -4.41575 0
M  V30 6191 N 542.463 1.3308 -0.844243 0
M  V30 6192 C 543.691 2.01808 -0.456203 0
M  V30 6193 C 544.106 1.63498 0.944131 0
M  V30 6194 O 543.463 0.85102 1.61443 0
M  V30 6195 C 543.514 3.56922 -0.573513 0
M  V30 6196 O 543.235 3.93851 -1.91868 0
M  V30 6197 C 544.736 4.42922 -0.183125 0
M  V30 6198 H 541.956 0.646273 -0.180477 0
M  V30 6199 H 544.5 1.69891 -1.1383 0
M  V30 6200 H 542.655 3.87352 0.0607367 0
M  V30 6201 H 543.069 4.88564 -1.90802 0
M  V30 6202 H 544.543 5.51093 -0.316241 0
M  V30 6203 H 545.02 4.30386 0.875477 0
M  V30 6204 H 545.626 4.1786 -0.792027 0
M  V30 6205 N 543.941 0.601185 1.45683 0
M  V30 6206 C 545.218 0.0261659 1.95582 0
M  V30 6207 C 545.598 -1.4399 1.5437 0
M  V30 6208 O 544.946 -2.13919 0.80318 0
M  V30 6209 C 545.156 0.217557 3.48321 0
M  V30 6210 C 546.504 0.0950076 4.24494 0
M  V30 6211 O 547.528 0.147345 3.55895 0
M  V30 6212 O 546.387 -0.025261 5.46494 0
M  V30 6213 H 543.481 -0.0393688 0.826062 0
M  V30 6214 H 546.027 0.670798 1.55879 0
M  V30 6215 H 544.799 1.23601 3.71266 0
M  V30 6216 H 544.422 -0.46264 3.94899 0
M  V30 6217 N 545.419 -1.53889 0.339982 0
M  V30 6218 C 546.349 -2.27843 -0.510856 0
M  V30 6219 C 547.33 -1.29267 -1.10563 0
M  V30 6220 O 548.515 -1.58104 -1.12768 0
M  V30 6221 C 545.645 -3.04857 -1.66372 0
M  V30 6222 C 544.599 -4.10907 -1.19746 0
M  V30 6223 C 543.925 -4.75855 -2.43857 0
M  V30 6224 C 545.225 -5.21435 -0.300501 0
M  V30 6225 H 546.919 -2.99212 0.106067 0
M  V30 6226 H 544.465 -1.43904 0.0524533 0
M  V30 6227 H 546.418 -3.5533 -2.26537 0
M  V30 6228 H 545.142 -2.31133 -2.30749 0
M  V30 6229 H 543.801 -3.61342 -0.618654 0
M  V30 6230 H 543.449 -3.9873 -3.06633 0
M  V30 6231 H 543.149 -5.47502 -2.13343 0
M  V30 6232 H 544.673 -5.2911 -3.04754 0
M  V30 6233 H 546.087 -5.67565 -0.80889 0
M  V30 6234 H 544.484 -6.00036 -0.0874076 0
M  V30 6235 H 545.554 -4.80328 0.664321 0
M  V30 6236 N 546.897 -0.0685191 -1.57451 0
M  V30 6237 C 548.174 0.642167 -1.84758 0
M  V30 6238 C 548.554 1.87991 -0.960344 0
M  V30 6239 O 547.902 2.28485 -0.0257894 0
M  V30 6240 C 548.112 0.982946 -3.34872 0
M  V30 6241 C 549.46 1.35784 -4.02303 0
M  V30 6242 O 550.484 1.07477 -3.39598 0
M  V30 6243 O 549.343 1.88681 -5.12895 0
M  V30 6244 H 546.437 0.318625 -0.763156 0
M  V30 6245 H 548.983 -0.0992015 -1.6941 0
M  V30 6246 H 547.755 0.10372 -3.91163 0
M  V30 6247 H 547.378 1.78119 -3.55471 0
M  V30 6248 N 548.375 1.56261 0.205012 0
M  V30 6249 C 549.305 1.96779 1.257 0
M  V30 6250 C 550.286 0.838309 1.48008 0
M  V30 6251 O 551.471 1.10189 1.59913 0
M  V30 6252 C 548.601 2.29876 2.60335 0
M  V30 6253 C 547.555 3.45469 2.52656 0
M  V30 6254 C 546.881 3.64215 3.91473 0
M  V30 6255 C 548.181 4.79954 2.06014 0
M  V30 6256 H 549.875 2.84904 0.920338 0
M  V30 6257 H 547.421 1.37072 0.441277 0
M  V30 6258 H 549.374 2.56814 3.34102 0
M  V30 6259 H 548.098 1.38622 2.95722 0
M  V30 6260 H 546.757 3.18605 1.81345 0
M  V30 6261 H 546.405 2.70309 4.24196 0
M  V30 6262 H 546.105 4.41973 3.87213 0
M  V30 6263 H 547.629 3.93519 4.66878 0
M  V30 6264 H 549.043 5.05989 2.69533 0
M  V30 6265 H 547.44 5.61111 2.12777 0
M  V30 6266 H 548.51 4.74201 1.01297 0
M  V30 6267 N 549.853 -0.472356 1.50355 0
M  V30 6268 C 551.13 -1.23356 1.51798 0
M  V30 6269 C 551.51 -2.09469 0.26193 0
M  V30 6270 O 550.858 -2.15677 -0.754691 0
M  V30 6271 C 551.068 -2.06568 2.81302 0
M  V30 6272 C 552.416 -2.648 3.31913 0
M  V30 6273 O 553.44 -2.16812 2.82614 0
M  V30 6274 O 552.299 -3.52231 4.17846 0
M  V30 6275 H 549.393 -0.559707 0.608816 0
M  V30 6276 H 551.939 -0.48428 1.62643 0
M  V30 6277 H 550.711 -1.43103 3.64194 0
M  V30 6278 H 550.334 -2.88633 2.73454 0
M  V30 6279 N 551.331 -1.39911 -0.725443 0
M  V30 6280 C 552.577 -1.37858 -1.48738 0
M  V30 6281 C 552.91 0.0224187 -1.94187 0
M  V30 6282 O 552.185 0.989204 -1.67466 0
M  V30 6283 C 552.468 -2.3594 -2.72038 0
M  V30 6284 C 552.321 -3.85023 -2.32546 0
M  V30 6285 C 553.64 -2.31704 -3.74167 0
M  V30 6286 H 550.759 -0.502074 -0.539528 0
M  V30 6287 H 553.401 -1.70974 -0.828728 0
M  V30 6288 H 551.551 -2.0783 -3.28236 0
M  V30 6289 H 553.223 -4.2392 -1.81905 0
M  V30 6290 H 551.466 -4.01334 -1.64661 0
M  V30 6291 H 552.137 -4.49152 -3.20884 0
M  V30 6292 H 554.613 -2.5658 -3.27576 0
M  V30 6293 H 553.489 -3.02395 -4.58092 0
M  V30 6294 H 553.75 -1.3253 -4.21768 0
M  V30 6295 N 552.809 0.956637 -1.25245 0
M  V30 6296 C 553.739 2.07058 -1.07931 0
M  V30 6297 C 554.72 1.70096 0.0110361 0
M  V30 6298 O 555.905 1.93555 -0.158121 0
M  V30 6299 C 553.035 3.40272 -0.695124 0
M  V30 6300 C 551.989 3.91235 -1.73549 0
M  V30 6301 C 551.315 5.20921 -1.20604 0
M  V30 6302 C 552.615 4.17837 -3.13385 0
M  V30 6303 H 554.309 2.218 -2.01109 0
M  V30 6304 H 551.855 1.06581 -0.968326 0
M  V30 6305 H 553.808 4.1765 -0.560949 0
M  V30 6306 H 552.532 3.25462 0.272355 0
M  V30 6307 H 551.191 3.16025 -1.85807 0
M  V30 6308 H 550.839 5.02479 -0.228846 0
M  V30 6309 H 550.539 5.55987 -1.90136 0
M  V30 6310 H 552.063 6.00897 -1.08421 0
M  V30 6311 H 553.477 4.8588 -3.04292 0
M  V30 6312 H 551.874 4.64154 -3.80369 0
M  V30 6313 H 552.944 3.2419 -3.60595 0
M  V30 6314 N 554.287 1.06798 1.15896 0
M  V30 6315 C 555.234 0.683314 2.20453 0
M  V30 6316 C 556.204 -0.32255 1.62938 0
M  V30 6317 O 557.389 -0.210276 1.89638 0
M  V30 6318 C 554.529 0.0813266 3.45004 0
M  V30 6319 C 553.642 1.13799 4.16742 0
M  V30 6320 C 552.777 0.501598 5.28826 0
M  V30 6321 C 551.816 1.54144 5.92373 0
M  V30 6322 N 550.953 0.928038 6.9594 0
M  V30 6323 H 555.793 1.57932 2.52708 0
M  V30 6324 H 553.33 0.789544 1.24115 0
M  V30 6325 H 555.288 -0.285274 4.16224 0
M  V30 6326 H 553.918 -0.77806 3.13283 0
M  V30 6327 H 552.97 1.62223 3.44075 0
M  V30 6328 H 554.282 1.92664 4.60089 0
M  V30 6329 H 553.436 0.0823162 6.06644 0
M  V30 6330 H 552.175 -0.318883 4.86656 0
M  V30 6331 H 551.18 1.97056 5.13273 0
M  V30 6332 H 552.405 2.3641 6.36621 0
M  V30 6333 H 550.351 0.12836 6.55874 0
M  V30 6334 H 550.268 1.65401 7.37685 0
M  V30 6335 H 551.536 0.534071 7.77668 0
M  V30 6336 N 555.766 -1.3263 0.851289 0
M  V30 6337 C 556.696 -2.31449 0.308771 0
M  V30 6338 C 557.677 -1.59531 -0.590255 0
M  V30 6339 O 558.862 -1.87351 -0.511205 0
M  V30 6340 C 555.992 -3.43586 -0.506548 0
M  V30 6341 C 554.946 -4.26963 0.297753 0
M  V30 6342 C 554.272 -5.30831 -0.642094 0
M  V30 6343 C 555.572 -4.99643 1.52166 0
M  V30 6344 H 557.266 -2.77074 1.13447 0
M  V30 6345 H 554.812 -1.33207 0.546971 0
M  V30 6346 H 556.765 -4.11754 -0.896474 0
M  V30 6347 H 555.489 -2.96681 -1.36558 0
M  V30 6348 H 554.148 -3.60437 0.669391 0
M  V30 6349 H 553.796 -4.8018 -1.49788 0
M  V30 6350 H 553.496 -5.87501 -0.107968 0
M  V30 6351 H 555.02 -6.01862 -1.02927 0
M  V30 6352 H 556.434 -5.6051 1.20421 0
M  V30 6353 H 554.831 -5.66022 1.99347 0
M  V30 6354 H 555.901 -4.27701 2.28474 0
M  V30 6355 N 557.244 -0.608902 -1.45362 0
M  V30 6356 C 558.491 -0.104607 -2.0223 0
M  V30 6357 C 558.819 1.26534 -1.47714 0
M  V30 6358 O 558.074 1.84855 -0.642435 0
M  V30 6359 C 558.373 -0.0167296 -3.57396 0
M  V30 6360 C 558.039 -1.32251 -4.31069 0
M  V30 6361 C 556.701 -1.68019 -4.50914 0
M  V30 6362 C 559.053 -2.18542 -4.73169 0
M  V30 6363 C 556.381 -2.89828 -5.10114 0
M  V30 6364 C 558.733 -3.39602 -5.33717 0
M  V30 6365 C 557.397 -3.7562 -5.51784 0
M  V30 6366 H 556.667 -0.0382785 -0.740011 0
M  V30 6367 H 559.314 -0.790782 -1.7441 0
M  V30 6368 H 557.619 0.752715 -3.84502 0
M  V30 6369 H 559.316 0.389634 -3.99103 0
M  V30 6370 H 555.906 -1.03411 -4.15938 0
M  V30 6371 H 560.09 -1.92208 -4.5757 0
M  V30 6372 H 555.346 -3.17839 -5.22291 0
M  V30 6373 H 559.52 -4.06716 -5.65292 0
M  V30 6374 H 557.147 -4.70093 -5.97425 0
M  V30 6375 N 558.722 1.53707 -0.348139 0
M  V30 6376 C 559.947 2.05877 0.250883 0
M  V30 6377 C 560.372 1.22115 1.43072 0
M  V30 6378 O 559.73 0.235986 1.79758 0
M  V30 6379 C 559.778 3.54886 0.639416 0
M  V30 6380 O 558.882 3.73948 1.73888 0
M  V30 6381 H 558.223 0.662754 0.040653 0
M  V30 6382 H 560.753 1.98303 -0.503685 0
M  V30 6383 H 560.763 3.97601 0.915295 0
M  V30 6384 H 559.438 4.153 -0.223386 0
M  V30 6385 H 558.015 3.43134 1.45991 0
M  V30 6386 N 560.2 0.0768682 1.57412 0
M  V30 6387 C 561.11 -0.903207 2.16516 0
M  V30 6388 C 562.126 -1.32341 1.12968 0
M  V30 6389 O 563.302 -1.39507 1.45258 0
M  V30 6390 C 560.367 -2.1508 2.71922 0
M  V30 6391 C 559.428 -1.78653 3.90361 0
M  V30 6392 C 558.661 -2.97465 4.43114 0
M  V30 6393 O 558.884 -4.11638 3.94854 0
M  V30 6394 O 557.818 -2.76987 5.3438 0
M  V30 6395 H 561.644 -0.430427 3.00634 0
M  V30 6396 H 559.229 -0.146485 1.4868 0
M  V30 6397 H 561.111 -2.8823 3.07411 0
M  V30 6398 H 559.786 -2.61446 1.9086 0
M  V30 6399 H 558.693 -1.0274 3.59716 0
M  V30 6400 H 560.026 -1.37066 4.7273 0
M  V30 6401 N 561.678 -1.56367 -0.196722 0
M  V30 6402 C 562.903 -1.84991 -0.937714 0
M  V30 6403 C 563.328 -0.660244 -1.76132 0
M  V30 6404 O 562.686 0.390967 -1.77034 0
M  V30 6405 C 562.734 -3.11828 -1.81096 0
M  V30 6406 O 561.838 -2.92266 -2.90955 0
M  V30 6407 H 561.179 -0.609193 -0.264159 0
M  V30 6408 H 563.709 -2.03595 -0.202529 0
M  V30 6409 H 563.719 -3.42579 -2.21594 0
M  V30 6410 H 562.394 -3.98037 -1.2058 0
M  V30 6411 H 560.971 -2.72809 -2.54224 0
M  V30 6412 N 563.156 0.464375 -1.50603 0
M  V30 6413 C 564.119 1.54393 -1.69397 0
M  V30 6414 C 565.119 1.50566 -0.564504 0
M  V30 6415 O 566.309 1.53066 -0.831645 0
M  V30 6416 C 563.441 2.9401 -1.72543 0
M  V30 6417 H 564.634 1.39044 -2.65719 0
M  V30 6418 H 562.187 0.69122 -1.40185 0
M  V30 6419 H 562.922 3.14795 -0.77938 0
M  V30 6420 H 562.707 2.98195 -2.54602 0
M  V30 6421 H 564.197 3.72375 -1.89015 0
M  V30 6422 N 564.634 1.40294 0.718013 0
M  V30 6423 C 565.882 1.38167 1.47494 0
M  V30 6424 C 566.203 -0.01607 1.94993 0
M  V30 6425 O 565.473 -0.970396 1.70177 0
M  V30 6426 H 564.053 0.508505 0.547203 0
M  V30 6427 H 566.715 1.75324 0.851322 0
M  V30 6428 H 565.811 2.05503 2.34894 0
M  V30 6429 N 566.112 -0.949982 1.2575 0
M  V30 6430 C 567.042 -2.06483 1.09028 0
M  V30 6431 C 568.023 -1.701 -0.00201532 0
M  V30 6432 O 569.208 -1.93469 0.168383 0
M  V30 6433 C 566.338 -3.39899 0.71316 0
M  V30 6434 C 565.292 -3.90309 1.75621 0
M  V30 6435 C 564.618 -5.20274 1.23365 0
M  V30 6436 C 565.918 -4.16169 3.15596 0
M  V30 6437 H 567.612 -2.20731 2.02283 0
M  V30 6438 H 565.158 -1.06066 0.973964 0
M  V30 6439 H 567.111 -4.17346 0.58309 0
M  V30 6440 H 565.835 -3.25602 -0.255091 0
M  V30 6441 H 564.494 -3.15035 1.8748 0
M  V30 6442 H 564.142 -5.02351 0.255491 0
M  V30 6443 H 563.842 -5.54971 1.93082 0
M  V30 6444 H 565.366 -6.00314 1.11607 0
M  V30 6445 H 566.78 -4.84259 3.06864 0
M  V30 6446 H 565.177 -4.62131 3.82825 0
M  V30 6447 H 566.247 -3.22273 3.6231 0
M  V30 6448 N 567.59 -1.07411 -1.15328 0
M  V30 6449 C 568.553 -0.698914 -2.18284 0
M  V30 6450 C 569.553 0.261149 -1.58665 0
M  V30 6451 O 570.743 0.0420277 -1.74149 0
M  V30 6452 C 567.875 -0.0302427 -3.40887 0
M  V30 6453 H 569.068 -1.61045 -2.52991 0
M  V30 6454 H 566.621 -0.870724 -1.298 0
M  V30 6455 H 567.356 0.893505 -3.11748 0
M  V30 6456 H 567.141 -0.720759 -3.85419 0
M  V30 6457 H 568.631 0.21759 -4.17033 0
M  V30 6458 N 569.068 1.32177 -0.85831 0
M  V30 6459 C 569.998 2.31282 -0.321041 0
M  V30 6460 C 570.979 1.59841 0.581786 0
M  V30 6461 O 572.164 1.87619 0.501262 0
M  V30 6462 C 569.294 3.4385 0.48832 0
M  V30 6463 C 568.248 4.26799 -0.320391 0
M  V30 6464 C 567.574 5.31164 0.613934 0
M  V30 6465 C 568.874 4.98829 -1.54813 0
M  V30 6466 H 570.568 2.76469 -1.14915 0
M  V30 6467 H 568.114 1.32916 -0.554028 0
M  V30 6468 H 570.067 4.12224 0.874626 0
M  V30 6469 H 568.791 2.97401 1.34983 0
M  V30 6470 H 567.45 3.60077 -0.688497 0
M  V30 6471 H 567.098 4.80967 1.47239 0
M  V30 6472 H 566.798 5.8755 0.0768097 0
M  V30 6473 H 568.322 6.024 0.997336 0
M  V30 6474 H 569.736 5.59864 -1.23392 0
M  V30 6475 H 568.133 5.64957 -2.02346 0
M  V30 6476 H 569.203 4.26483 -2.30739 0
M  V30 6477 N 570.547 0.616602 1.45037 0
M  V30 6478 C 571.457 -0.0985401 2.34393 0
M  V30 6479 C 572.473 -0.850971 1.51771 0
M  V30 6480 O 573.649 -0.806521 1.84546 0
M  V30 6481 C 570.714 -1.07748 3.29532 0
M  V30 6482 C 569.775 -0.326022 4.2806 0
M  V30 6483 C 569.008 -1.25833 5.18654 0
M  V30 6484 O 569.231 -2.49652 5.12864 0
M  V30 6485 O 568.165 -0.750512 5.97203 0
M  V30 6486 H 571.991 0.636016 2.96966 0
M  V30 6487 H 569.576 0.376832 1.44569 0
M  V30 6488 H 571.458 -1.64107 3.88133 0
M  V30 6489 H 570.133 -1.79291 2.69512 0
M  V30 6490 H 569.04 0.280253 3.73049 0
M  V30 6491 H 570.373 0.349091 4.9096 0
M  V30 6492 N 572.025 -1.5352 0.356285 0
M  V30 6493 C 572.973 -2.26945 -0.50978 0
M  V30 6494 C 573.967 -1.29569 -1.09125 0
M  V30 6495 O 575.173 -1.47231 -1.03552 0
M  V30 6496 H 571.548 -0.729368 -0.183102 0
M  V30 6497 H 573.519 -2.98111 0.131374 0
M  V30 6498 C 572.268 -3.06466 -1.64237 0
M  V30 6499 H 571.591 -3.81233 -1.20423 0
M  V30 6500 H 573.031 -3.61035 -2.22327 0
M  V30 6501 C 571.49 -2.16737 -2.57928 0
M  V30 6502 O 572.02 -1.77195 -3.60507 0
M  V30 6503 N 570.226 -1.81558 -2.26903 0
M  V30 6504 H 569.773 -2.13913 -1.43524 0
M  V30 6505 H 569.731 -1.21806 -2.89846 0
M  V30 6506 N 573.503 -0.0852151 -1.57369 0
M  V30 6507 C 574.466 0.8627 -2.12344 0
M  V30 6508 C 575.466 1.21746 -1.05046 0
M  V30 6509 O 576.656 1.14852 -1.30976 0
M  V30 6510 C 573.788 2.1618 -2.63589 0
M  V30 6511 H 574.981 0.385511 -2.97412 0
M  V30 6512 H 572.534 0.163663 -1.55441 0
M  V30 6513 H 573.269 2.68406 -1.82013 0
M  V30 6514 H 573.054 1.91723 -3.4203 0
M  V30 6515 H 574.544 2.84011 -3.06149 0
M  V30 6516 N 574.981 1.5647 0.188427 0
M  V30 6517 C 576.211 1.84863 0.922463 0
M  V30 6518 C 576.619 0.666413 1.77075 0
M  V30 6519 O 575.962 -0.374044 1.79852 0
M  V30 6520 C 576.024 3.07447 1.86324 0
M  V30 6521 C 575.688 4.41066 1.19625 0
M  V30 6522 C 576.685 5.16767 0.569946 0
M  V30 6523 C 574.37 4.87802 1.19811 0
M  V30 6524 C 576.364 6.37384 -0.045594 0
M  V30 6525 C 574.051 6.08353 0.57874 0
M  V30 6526 C 575.049 6.82987 -0.0420259 0
M  V30 6527 O 574.737 8.01254 -0.651675 0
M  V30 6528 H 574.469 0.61784 0.274316 0
M  V30 6529 H 577.023 2.04437 0.198613 0
M  V30 6530 H 575.253 2.83774 2.62696 0
M  V30 6531 H 576.942 3.2243 2.46564 0
M  V30 6532 H 577.708 4.81749 0.560601 0
M  V30 6533 H 573.587 4.29662 1.67069 0
M  V30 6534 H 577.131 6.95578 -0.530731 0
M  V30 6535 H 573.028 6.42838 0.58561 0
M  V30 6536 H 573.796 8.16655 -0.549236 0
M  V30 6537 N 576.459 -0.456382 1.50847 0
M  V30 6538 C 577.407 -1.57318 1.71329 0
M  V30 6539 C 578.401 -1.59187 0.579287 0
M  V30 6540 O 579.607 -1.6316 0.76018 0
M  V30 6541 H 575.982 -0.5223 0.541024 0
M  V30 6542 H 577.953 -1.3721 2.64983 0
M  V30 6543 C 576.702 -2.95142 1.83811 0
M  V30 6544 H 576.025 -2.94428 2.70467 0
M  V30 6545 H 577.465 -3.72702 2.02161 0
M  V30 6546 C 575.924 -3.31636 0.593224 0
M  V30 6547 O 576.454 -4.00852 -0.260898 0
M  V30 6548 N 574.66 -2.87205 0.442902 0
M  V30 6549 H 574.207 -2.31051 1.13901 0
M  V30 6550 H 574.165 -3.11986 -0.38884 0
M  V30 6551 N 577.937 -1.40673 -0.710563 0
M  V30 6552 C 579.167 -1.4234 -1.49742 0
M  V30 6553 C 579.575 -0.022821 -1.89186 0
M  V30 6554 O 578.918 0.964773 -1.56326 0
M  V30 6555 C 578.98 -2.25509 -2.79975 0
M  V30 6556 C 578.644 -3.73862 -2.62824 0
M  V30 6557 C 579.641 -4.66379 -2.29752 0
M  V30 6558 C 577.326 -4.17735 -2.78932 0
M  V30 6559 C 579.32 -6.00756 -2.13006 0
M  V30 6560 C 577.007 -5.5218 -2.61802 0
M  V30 6561 C 578.005 -6.43505 -2.28888 0
M  V30 6562 O 577.693 -7.75472 -2.11894 0
M  V30 6563 H 577.425 -0.487311 -0.468513 0
M  V30 6564 H 579.979 -1.8542 -0.883668 0
M  V30 6565 H 578.209 -1.77218 -3.43701 0
M  V30 6566 H 579.898 -2.19058 -3.41714 0
M  V30 6567 H 580.664 -4.33778 -2.16936 0
M  V30 6568 H 576.543 -3.46967 -3.03537 0
M  V30 6569 H 580.087 -6.72003 -1.87237 0
M  V30 6570 H 575.984 -5.84365 -2.74204 0
M  V30 6571 H 576.752 -7.86458 -2.26775 0
M  V30 6572 N 579.415 0.9433 -1.26252 0
M  V30 6573 C 580.325 2.07532 -1.09397 0
M  V30 6574 C 581.341 1.73977 -0.0280449 0
M  V30 6575 O 582.517 2.00067 -0.231337 0
M  V30 6576 C 579.582 3.39002 -0.726523 0
M  V30 6577 C 578.643 3.86353 -1.87163 0
M  V30 6578 C 577.876 5.11549 -1.52162 0
M  V30 6579 O 578.099 5.68834 -0.422385 0
M  V30 6580 O 577.033 5.53889 -2.35565 0
M  V30 6581 H 580.859 2.24658 -2.04359 0
M  V30 6582 H 578.444 1.05988 -1.05295 0
M  V30 6583 H 580.326 4.18 -0.534236 0
M  V30 6584 H 579.001 3.2312 0.193721 0
M  V30 6585 H 577.908 3.0831 -2.11886 0
M  V30 6586 H 579.241 4.06752 -2.77152 0
M  V30 6587 N 580.893 1.08022 1.14757 0
M  V30 6588 C 581.841 0.701088 2.21783 0
M  V30 6589 C 582.835 -0.291311 1.66876 0
M  V30 6590 O 584.041 -0.154296 1.79337 0
M  V30 6591 H 580.416 0.208668 0.722469 0
M  V30 6592 H 582.387 1.61321 2.51034 0
M  V30 6593 C 581.136 0.122278 3.47485 0
M  V30 6594 H 580.459 0.877065 3.90061 0
M  V30 6595 H 581.899 -0.105248 4.23869 0
M  V30 6596 C 580.358 -1.13883 3.17068 0
M  V30 6597 O 580.888 -2.22429 3.34497 0
M  V30 6598 N 579.094 -1.04767 2.71058 0
M  V30 6599 H 578.641 -0.164302 2.57075 0
M  V30 6600 H 578.599 -1.89224 2.51081 0
M  V30 6601 N 582.371 -1.3172 0.865308 0
M  V30 6602 C 583.301 -2.31109 0.333302 0
M  V30 6603 C 584.282 -1.60148 -0.573301 0
M  V30 6604 O 585.467 -1.87882 -0.491305 0
M  V30 6605 C 582.597 -3.44104 -0.470078 0
M  V30 6606 C 581.551 -4.26623 0.343021 0
M  V30 6607 C 580.877 -5.31482 -0.585756 0
M  V30 6608 C 582.177 -4.98001 1.57456 0
M  V30 6609 H 583.871 -2.75855 1.1638 0
M  V30 6610 H 581.417 -1.3262 0.561069 0
M  V30 6611 H 583.37 -4.12682 -0.852752 0
M  V30 6612 H 582.094 -2.98112 -1.33404 0
M  V30 6613 H 580.753 -3.59707 0.707583 0
M  V30 6614 H 580.401 -4.81741 -1.44686 0
M  V30 6615 H 580.101 -5.87582 -0.0456494 0
M  V30 6616 H 581.625 -6.0292 -0.965375 0
M  V30 6617 H 583.039 -5.59201 1.26359 0
M  V30 6618 H 581.436 -5.63876 2.05339 0
M  V30 6619 H 582.506 -4.25253 2.32997 0
M  V30 6620 N 583.85 -0.624285 -1.44708 0
M  V30 6621 C 585.266 -0.289322 -1.56956 0
M  V30 6622 C 585.466 1.20773 -1.61295 0
M  V30 6623 O 584.522 1.9915 -1.55227 0
M  V30 6624 C 585.835 -0.975215 -2.84447 0
M  V30 6625 C 587.383 -0.952709 -2.98148 0
M  V30 6626 C 587.858 -1.61893 -4.28433 0
M  V30 6627 N 589.349 -1.5852 -4.35231 0
M  V30 6628 C 590.084 -2.06969 -5.34744 0
M  V30 6629 N 589.58 -2.63579 -6.40701 0
M  V30 6630 N 591.373 -1.97638 -5.26209 0
M  V30 6631 H 583.524 -1.59612 -1.40135 0
M  V30 6632 H 585.787 -0.669592 -0.671081 0
M  V30 6633 H 585.493 -2.02999 -2.87201 0
M  V30 6634 H 585.367 -0.508749 -3.73753 0
M  V30 6635 H 587.754 0.093568 -2.94952 0
M  V30 6636 H 587.835 -1.4576 -2.10209 0
M  V30 6637 H 587.479 -2.66463 -4.32389 0
M  V30 6638 H 587.409 -1.08893 -5.15218 0
M  V30 6639 H 589.899 -1.17183 -3.59272 0
M  V30 6640 H 590.213 -2.98298 -7.12908 0
M  V30 6641 H 588.558 -2.67626 -6.41406 0
M  V30 6642 H 591.749 -1.5314 -4.42341 0
M  V30 6643 H 591.922 -2.35708 -6.03611 0
M  V30 6644 N 585.328 1.53329 -0.364422 0
M  V30 6645 C 586.275 2.25698 0.482607 0
M  V30 6646 C 587.245 1.26325 1.07848 0
M  V30 6647 O 588.43 1.55104 1.11119 0
M  V30 6648 C 585.57 3.04873 1.61699 0
M  V30 6649 C 584.683 4.19135 1.0464 0
M  V30 6650 C 583.818 4.85754 2.14979 0
M  V30 6651 C 582.857 5.9205 1.5538 0
M  V30 6652 N 581.994 6.52365 2.59547 0
M  V30 6653 H 586.834 2.97666 -0.141032 0
M  V30 6654 H 584.371 1.46875 -0.0813692 0
M  V30 6655 H 586.329 3.49051 2.28516 0
M  V30 6656 H 584.959 2.35162 2.2113 0
M  V30 6657 H 584.011 3.79451 0.268553 0
M  V30 6658 H 585.323 4.95525 0.570653 0
M  V30 6659 H 584.477 5.3311 2.89619 0
M  V30 6660 H 583.216 4.08834 2.65906 0
M  V30 6661 H 582.221 5.44058 0.792549 0
M  V30 6662 H 583.446 6.7089 1.0528 0
M  V30 6663 H 581.392 5.78298 3.09689 0
M  V30 6664 H 581.309 7.2429 2.16655 0
M  V30 6665 H 582.577 7.0437 3.33892 0
M  V30 6666 N 586.806 0.0935595 1.57322 0
M  V30 6667 C 587.753 -0.865935 2.1394 0
M  V30 6668 C 588.723 -1.28083 1.05754 0
M  V30 6669 O 589.908 -1.36285 1.33533 0
M  V30 6670 C 587.048 -2.12023 2.72287 0
M  V30 6671 C 586.161 -1.756 3.94701 0
M  V30 6672 C 585.296 -2.95804 4.41218 0
M  V30 6673 C 584.335 -2.555 5.56225 0
M  V30 6674 N 583.472 -3.68534 5.97601 0
M  V30 6675 H 588.312 -0.376261 2.95615 0
M  V30 6676 H 585.849 -0.174052 1.46067 0
M  V30 6677 H 587.807 -2.85477 3.04235 0
M  V30 6678 H 586.437 -2.58492 1.93343 0
M  V30 6679 H 585.489 -0.921208 3.69077 0
M  V30 6680 H 586.801 -1.41964 4.78171 0
M  V30 6681 H 585.955 -3.77513 4.74941 0
M  V30 6682 H 584.694 -3.32649 3.56645 0
M  V30 6683 H 583.699 -1.72218 5.22131 0
M  V30 6684 H 584.924 -2.19801 6.42545 0
M  V30 6685 H 582.87 -4.051 5.15974 0
M  V30 6686 H 582.787 -3.38737 6.75865 0
M  V30 6687 H 584.055 -4.50757 6.35955 0
M  V30 6688 N 588.284 -1.56567 -0.180126 0
M  V30 6689 C 589.512 -1.85618 -0.913972 0
M  V30 6690 C 589.927 -0.677892 -1.7621 0
M  V30 6691 O 589.284 0.353171 -1.7905 0
M  V30 6692 C 589.335 -3.13619 -1.79793 0
M  V30 6693 O 589.056 -4.26906 -0.98402 0
M  V30 6694 C 590.557 -3.55954 -2.64219 0
M  V30 6695 H 587.777 -0.616043 -0.265954 0
M  V30 6696 H 590.321 -2.03681 -0.182872 0
M  V30 6697 H 588.476 -2.97409 -2.48247 0
M  V30 6698 H 588.89 -4.9989 -1.58776 0
M  V30 6699 H 590.364 -4.48444 -3.21873 0
M  V30 6700 H 590.841 -2.79653 -3.38661 0
M  V30 6701 H 591.447 -3.74746 -2.01111 0
M  V30 6702 N 589.762 0.448376 -1.51087 0
M  V30 6703 C 590.692 1.55102 -1.74544 0
M  V30 6704 C 591.673 1.59357 -0.594932 0
M  V30 6705 O 592.858 1.75261 -0.836491 0
M  V30 6706 C 589.988 2.93268 -1.86041 0
M  V30 6707 C 588.942 3.03877 -3.01402 0
M  V30 6708 C 588.268 4.43914 -2.98068 0
M  V30 6709 C 589.568 2.7898 -4.41551 0
M  V30 6710 H 591.262 1.35724 -2.66869 0
M  V30 6711 H 588.808 0.651498 -1.28419 0
M  V30 6712 H 590.761 3.70356 -2.01034 0
M  V30 6713 H 589.485 3.13853 -0.903548 0
M  V30 6714 H 588.144 2.29227 -2.86096 0
M  V30 6715 H 587.792 4.6145 -2.00182 0
M  V30 6716 H 587.492 4.51944 -3.75527 0
M  V30 6717 H 589.016 5.22991 -3.1514 0
M  V30 6718 H 590.43 3.45805 -4.57265 0
M  V30 6719 H 588.827 2.98431 -5.20633 0
M  V30 6720 H 589.897 1.74663 -4.5235 0
M  V30 6721 N 591.24 1.41047 0.703093 0
M  V30 6722 C 592.517 1.30493 1.45708 0
M  V30 6723 C 592.897 -0.0709892 2.10981 0
M  V30 6724 O 592.245 -1.08471 2.01113 0
M  V30 6725 C 592.455 2.45287 2.48265 0
M  V30 6726 C 593.803 2.86104 3.13735 0
M  V30 6727 O 594.827 2.44971 2.58587 0
M  V30 6728 O 593.686 3.57206 4.13601 0
M  V30 6729 H 590.78 0.513144 0.648546 0
M  V30 6730 H 593.326 1.52995 0.734208 0
M  V30 6731 H 592.098 3.37135 1.98635 0
M  V30 6732 H 591.721 2.24622 3.28071 0
M  V30 6733 N 592.718 -0.936591 1.26751 0
M  V30 6734 C 593.648 -2.05315 1.11212 0
M  V30 6735 C 594.629 -1.70092 0.0160262 0
M  V30 6736 O 595.814 -1.93279 0.188894 0
M  V30 6737 C 592.944 -3.39123 0.749171 0
M  V30 6738 C 591.898 -3.88425 1.79751 0
M  V30 6739 C 591.224 -5.18936 1.28876 0
M  V30 6740 C 592.524 -4.12798 3.19992 0
M  V30 6741 H 594.218 -2.18573 2.04613 0
M  V30 6742 H 591.764 -1.05027 0.985159 0
M  V30 6743 H 593.717 -4.16704 0.627323 0
M  V30 6744 H 592.441 -3.25855 -0.220543 0
M  V30 6745 H 591.1 -3.13028 1.90811 0
M  V30 6746 H 590.748 -5.02051 0.308757 0
M  V30 6747 H 590.448 -5.52892 1.98958 0
M  V30 6748 H 591.972 -5.99096 1.17967 0
M  V30 6749 H 593.386 -4.80977 3.11983 0
M  V30 6750 H 591.783 -4.58044 3.87705 0
M  V30 6751 H 592.853 -3.18412 3.65707 0
M  V30 6752 N 594.196 -1.08629 -1.14182 0
M  V30 6753 C 595.128 -0.676189 -2.18998 0
M  V30 6754 C 596.141 0.277871 -1.60411 0
M  V30 6755 O 597.33 0.0651771 -1.78381 0
M  V30 6756 C 594.43 0.0254916 -3.3889 0
M  V30 6757 C 593.603 -0.948039 -4.27002 0
M  V30 6758 C 592.662 -0.281268 -5.25448 0
M  V30 6759 O 591.688 -0.926378 -5.61611 0
M  V30 6760 N 592.89 0.967923 -5.72374 0
M  V30 6761 H 595.655 -1.57792 -2.54798 0
M  V30 6762 H 593.216 -0.972665 -1.29425 0
M  V30 6763 H 595.208 0.482554 -4.01813 0
M  V30 6764 H 593.778 0.829348 -3.01398 0
M  V30 6765 H 592.998 -1.58388 -3.6098 0
M  V30 6766 H 594.286 -1.60765 -4.82734 0
M  V30 6767 H 593.684 1.51175 -5.45126 0
M  V30 6768 H 592.241 1.36844 -6.37273 0
M  V30 6769 N 595.674 1.31259 -0.872281 0
M  V30 6770 C 597.09 1.49283 -0.564521 0
M  V30 6771 C 597.29 1.80243 0.900807 0
M  V30 6772 O 596.346 1.88246 1.68284 0
M  V30 6773 C 597.659 2.62503 -1.46673 0
M  V30 6774 C 599.207 2.76386 -1.46901 0
M  V30 6775 C 599.682 3.92705 -2.35684 0
M  V30 6776 N 601.173 3.99995 -2.33577 0
M  V30 6777 C 601.908 4.89276 -2.98992 0
M  V30 6778 N 601.404 5.83443 -3.73585 0
M  V30 6779 N 603.197 4.82541 -2.88289 0
M  V30 6780 H 595.348 1.09432 -1.82039 0
M  V30 6781 H 597.611 0.540949 -0.77851 0
M  V30 6782 H 597.317 2.46407 -2.50951 0
M  V30 6783 H 597.191 3.58695 -1.16696 0
M  V30 6784 H 599.578 2.91894 -0.433796 0
M  V30 6785 H 599.659 1.80853 -1.80903 0
M  V30 6786 H 599.303 3.77954 -3.39283 0
M  V30 6787 H 599.233 4.87549 -1.99006 0
M  V30 6788 H 601.724 3.32624 -1.7936 0
M  V30 6789 H 602.037 6.48303 -4.20622 0
M  V30 6790 H 600.382 5.83415 -3.77694 0
M  V30 6791 H 603.573 4.07951 -2.2955 0
M  V30 6792 H 603.746 5.51916 -3.39549 0
M  V30 6793 N 597.152 0.631951 1.44375 0
M  V30 6794 C 598.084 -0.110911 2.28931 0
M  V30 6795 C 599.097 -0.808086 1.41329 0
M  V30 6796 O 600.286 -0.669396 1.65473 0
M  V30 6797 C 597.386 -1.17928 3.1772 0
M  V30 6798 C 596.559 -0.564458 4.33743 0
M  V30 6799 C 595.618 -1.5269 5.0356 0
M  V30 6800 O 594.644 -1.04372 5.59549 0
M  V30 6801 N 595.846 -2.86123 5.05088 0
M  V30 6802 H 598.611 0.614758 2.93327 0
M  V30 6803 H 596.172 0.473171 1.54831 0
M  V30 6804 H 598.164 -1.82348 3.61291 0
M  V30 6805 H 596.734 -1.80717 2.55069 0
M  V30 6806 H 595.954 0.258373 3.93352 0
M  V30 6807 H 597.242 -0.134355 5.08623 0
M  V30 6808 H 596.64 -3.27959 4.60933 0
M  V30 6809 H 595.197 -3.45901 5.52445 0
M  V30 6810 N 598.631 -1.53133 0.372548 0
M  V30 6811 C 599.579 -2.27473 -0.485681 0
M  V30 6812 C 600.573 -1.30719 -1.07745 0
M  V30 6813 O 601.779 -1.48321 -1.01985 0
M  V30 6814 H 598.154 -0.731269 -0.175356 0
M  V30 6815 H 600.125 -2.97955 0.162986 0
M  V30 6816 C 598.874 -3.08191 -1.60978 0
M  V30 6817 H 598.197 -3.82488 -1.16373 0
M  V30 6818 H 599.637 -3.63373 -2.18485 0
M  V30 6819 C 598.096 -2.19461 -2.55614 0
M  V30 6820 O 598.626 -1.81008 -3.58607 0
M  V30 6821 N 596.832 -1.83955 -2.24965 0
M  V30 6822 H 596.379 -2.15423 -1.41247 0
M  V30 6823 H 596.337 -1.24874 -2.88538 0
M  V30 6824 N 600.109 -0.101901 -1.5727 0
M  V30 6825 C 601.019 0.868647 -2.17926 0
M  V30 6826 C 602.035 1.30527 -1.1506 0
M  V30 6827 O 603.211 1.37178 -1.47459 0
M  V30 6828 C 600.276 2.10727 -2.75309 0
M  V30 6829 C 599.337 1.7242 -3.93154 0
M  V30 6830 C 598.57 2.90377 -4.47791 0
M  V30 6831 O 598.793 4.05305 -4.01353 0
M  V30 6832 O 597.727 2.6845 -5.38719 0
M  V30 6833 H 601.553 0.382544 -3.01281 0
M  V30 6834 H 599.138 0.122812 -1.48894 0
M  V30 6835 H 601.02 2.83303 -3.11958 0
M  V30 6836 H 599.695 2.58376 -1.94996 0
M  V30 6837 H 598.602 0.970039 -3.61305 0
M  V30 6838 H 599.935 1.29528 -4.74851 0
M  V30 6839 N 601.587 1.56661 0.17182 0
M  V30 6840 C 602.517 1.99401 1.21498 0
M  V30 6841 C 603.498 0.869516 1.46197 0
M  V30 6842 O 604.683 1.13556 1.57539 0
M  V30 6843 C 601.813 2.35346 2.55401 0
M  V30 6844 C 600.767 3.5075 2.45272 0
M  V30 6845 C 600.093 3.72437 3.8366 0
M  V30 6846 C 601.393 4.84216 1.95787 0
M  V30 6847 H 603.087 2.86792 0.859699 0
M  V30 6848 H 600.633 1.37977 0.412103 0
M  V30 6849 H 602.586 2.63843 3.2858 0
M  V30 6850 H 601.31 1.44864 2.92715 0
M  V30 6851 H 599.969 3.2238 1.74547 0
M  V30 6852 H 599.617 2.79246 4.18367 0
M  V30 6853 H 599.317 4.50087 3.77751 0
M  V30 6854 H 600.841 4.03334 4.58426 0
M  V30 6855 H 602.255 5.11592 2.5874 0
M  V30 6856 H 600.652 5.65498 2.00827 0
M  V30 6857 H 601.722 4.76243 0.912159 0
M  V30 6858 N 603.065 -0.440357 1.51323 0
M  V30 6859 C 604.311 -1.19181 1.64085 0
M  V30 6860 C 604.644 -1.90936 0.354575 0
M  V30 6861 O 603.919 -1.8347 -0.645675 0
M  V30 6862 C 604.202 -2.2112 2.84215 0
M  V30 6863 C 604.055 -1.53468 4.22809 0
M  V30 6864 C 605.374 -3.22133 2.99864 0
M  V30 6865 H 602.493 -0.431924 0.597169 0
M  V30 6866 H 605.135 -0.481443 1.83799 0
M  V30 6867 H 603.285 -2.81703 2.67537 0
M  V30 6868 H 604.957 -0.962455 4.51148 0
M  V30 6869 H 603.2 -0.837086 4.25647 0
M  V30 6870 H 603.871 -2.27694 5.02852 0
M  V30 6871 H 606.347 -2.71601 3.15233 0
M  V30 6872 H 605.223 -3.90756 3.85488 0
M  V30 6873 H 605.484 -3.88061 2.11804 0
M  V30 6874 N 604.543 -1.41418 -0.695603 0
M  V30 6875 C 605.453 -1.45622 -1.83933 0
M  V30 6876 C 606.469 -0.346825 -1.70508 0
M  V30 6877 O 607.645 -0.59454 -1.92424 0
M  V30 6878 C 604.71 -1.33627 -3.19914 0
M  V30 6879 C 603.771 -2.54882 -3.45447 0
M  V30 6880 C 603.004 -2.43449 -4.7494 0
M  V30 6881 O 603.227 -1.45905 -5.51424 0
M  V30 6882 O 602.161 -3.33206 -5.01256 0
M  V30 6883 H 605.987 -2.42114 -1.83342 0
M  V30 6884 H 603.572 -1.22956 -0.848658 0
M  V30 6885 H 605.454 -1.29221 -4.01098 0
M  V30 6886 H 604.129 -0.402508 -3.21188 0
M  V30 6887 H 603.036 -2.64865 -2.64192 0
M  V30 6888 H 604.369 -3.47087 -3.48987 0
M  V30 6889 N 606.021 0.929856 -1.27246 0
M  V30 6890 C 606.971 2.01629 -1.06442 0
M  V30 6891 C 607.955 1.60899 0.00687842 0
M  V30 6892 O 609.147 1.75733 -0.211407 0
M  V30 6893 C 606.276 3.35849 -0.711361 0
M  V30 6894 C 605.362 3.8303 -1.82069 0
M  V30 6895 N 605.753 4.02743 -3.05993 0
M  V30 6896 C 604.051 4.12046 -1.70687 0
M  V30 6897 C 604.752 4.42001 -3.78167 0
M  V30 6898 N 603.728 4.4935 -3.05918 0
M  V30 6899 H 607.53 2.14898 -2.00489 0
M  V30 6900 H 605.044 1.11654 -1.17929 0
M  V30 6901 H 607.041 4.13343 -0.543442 0
M  V30 6902 H 605.701 3.23944 0.221517 0
M  V30 6903 H 606.712 3.89112 -3.41778 0
M  V30 6904 H 603.389 4.08866 -0.844681 0
M  V30 6905 H 604.779 4.6535 -4.84664 0
M  V30 6906 N 607.499 1.09233 1.13605 0
M  V30 6907 C 608.429 0.751738 2.21068 0
M  V30 6908 C 609.41 -0.269688 1.67948 0
M  V30 6909 O 610.595 -0.13819 1.93708 0
M  V30 6910 C 607.725 0.16935 3.46887 0
M  V30 6911 C 606.679 1.12007 4.13084 0
M  V30 6912 C 606.005 0.399483 5.33206 0
M  V30 6913 C 607.305 2.46168 4.6065 0
M  V30 6914 H 608.999 1.65024 2.49815 0
M  V30 6915 H 606.545 0.794905 1.20072 0
M  V30 6916 H 608.498 -0.0809824 4.21322 0
M  V30 6917 H 607.222 -0.764335 3.1753 0
M  V30 6918 H 605.881 1.35564 3.40614 0
M  V30 6919 H 605.529 -0.538277 5.00112 0
M  V30 6920 H 605.229 1.03337 5.78442 0
M  V30 6921 H 606.753 0.157403 6.10397 0
M  V30 6922 H 608.167 2.26829 5.26518 0
M  V30 6923 H 606.564 3.05326 5.1662 0
M  V30 6924 H 607.634 3.07076 3.75276 0
M  V30 6925 N 608.977 -1.30795 0.87923 0
M  V30 6926 C 610.393 -1.48981 0.57243 0
M  V30 6927 C 610.593 -1.80719 -0.891236 0
M  V30 6928 O 609.649 -1.89136 -1.67283 0
M  V30 6929 C 610.962 -2.61721 1.48063 0
M  V30 6930 C 612.51 -2.75603 1.48365 0
M  V30 6931 C 612.985 -3.91449 2.37763 0
M  V30 6932 N 614.476 -3.98751 2.35695 0
M  V30 6933 C 615.211 -4.87684 3.01583 0
M  V30 6934 N 614.707 -5.81454 3.76674 0
M  V30 6935 N 616.5 -4.81005 2.90844 0
M  V30 6936 H 608.651 -1.08465 1.82617 0
M  V30 6937 H 610.914 -0.536813 0.781368 0
M  V30 6938 H 610.62 -2.45073 2.52254 0
M  V30 6939 H 610.494 -3.58071 1.18596 0
M  V30 6940 H 612.881 -2.9166 0.44927 0
M  V30 6941 H 612.962 -1.79891 1.81859 0
M  V30 6942 H 612.606 -3.76149 3.41283 0
M  V30 6943 H 612.536 -4.86487 2.01589 0
M  V30 6944 H 615.027 -3.31668 1.81121 0
M  V30 6945 H 615.34 -6.46063 4.24054 0
M  V30 6946 H 613.685 -5.81403 3.80782 0
M  V30 6947 H 616.876 -4.06728 2.31711 0
M  V30 6948 H 617.049 -5.50107 3.42471 0
M  V30 6949 N 610.455 -0.639598 -1.44038 0
M  V30 6950 C 611.403 0.0723409 -2.32487 0
M  V30 6951 C 612.397 0.827129 -1.47834 0
M  V30 6952 O 613.603 0.73907 -1.64127 0
M  V30 6953 H 609.978 0.0421696 -0.750817 0
M  V30 6954 H 611.949 -0.691593 -2.90275 0
M  V30 6955 C 610.698 1.03452 -3.31953 0
M  V30 6956 H 610.021 0.46315 -3.97108 0
M  V30 6957 H 611.461 1.502 -3.96505 0
M  V30 6958 C 609.92 2.12392 -2.61518 0
M  V30 6959 O 610.45 3.2059 -2.42044 0
M  V30 6960 N 608.656 1.88563 -2.21116 0
M  V30 6961 H 608.203 1.00577 -2.37154 0
M  V30 6962 H 608.161 2.61651 -1.74316 0
M  V30 6963 N 611.933 1.52934 -0.380664 0
M  V30 6964 C 613.18 2.01467 0.204278 0
M  V30 6965 C 613.508 1.26744 1.47533 0
M  V30 6966 O 612.763 0.353723 1.92477 0
M  V30 6967 C 613.062 3.5349 0.527199 0
M  V30 6968 C 612.728 4.46171 -0.651295 0
M  V30 6969 C 611.39 4.71227 -0.974619 0
M  V30 6970 C 613.742 5.00909 -1.44012 0
M  V30 6971 C 611.07 5.4827 -2.08847 0
M  V30 6972 C 613.422 5.7917 -2.5445 0
M  V30 6973 C 612.086 6.02507 -2.87301 0
M  V30 6974 H 611.356 0.73722 0.0747504 0
M  V30 6975 H 614.003 1.84411 -0.516234 0
M  V30 6976 H 612.308 3.68574 1.32892 0
M  V30 6977 H 614.005 3.88529 0.992283 0
M  V30 6978 H 610.595 4.26829 -0.389276 0
M  V30 6979 H 614.779 4.81485 -1.20357 0
M  V30 6980 H 610.035 5.64567 -2.34679 0
M  V30 6981 H 614.209 6.20588 -3.1598 0
M  V30 6982 H 611.836 6.61989 -3.7373 0
M  V30 6983 N 613.412 0.11024 1.57214 0
M  V30 6984 C 614.637 -0.561179 1.99664 0
M  V30 6985 C 615.062 -1.59985 0.989266 0
M  V30 6986 O 614.42 -1.81255 -0.0402399 0
M  V30 6987 C 614.468 -1.17189 3.41027 0
M  V30 6988 O 613.572 -2.28755 3.4314 0
M  V30 6989 H 612.913 -0.14101 0.648855 0
M  V30 6990 H 615.443 0.196128 2.03658 0
M  V30 6991 H 615.453 -1.50954 3.79047 0
M  V30 6992 H 614.128 -0.411041 4.13864 0
M  V30 6993 H 612.705 -1.96495 3.16929 0
M  V30 6994 N 614.89 -1.56749 -0.16351 0
M  V30 6995 C 615.8 -2.00255 -1.2221 0
M  V30 6996 C 616.816 -0.915194 -1.47987 0
M  V30 6997 O 617.992 -1.22342 -1.59982 0
M  V30 6998 C 615.057 -2.36035 -2.53946 0
M  V30 6999 C 614.118 -3.58637 -2.35962 0
M  V30 7000 C 613.351 -3.92701 -3.61416 0
M  V30 7001 O 613.574 -3.27632 -4.66919 0
M  V30 7002 O 612.508 -4.86019 -3.55062 0
M  V30 7003 H 616.334 -2.90586 -0.882794 0
M  V30 7004 H 613.919 -1.44721 -0.370978 0
M  V30 7005 H 615.801 -2.59982 -3.31643 0
M  V30 7006 H 614.476 -1.48863 -2.8744 0
M  V30 7007 H 613.383 -3.39898 -1.5627 0
M  V30 7008 H 614.716 -4.46374 -2.0739 0
M  V30 7009 N 616.368 0.432326 -1.51554 0
M  V30 7010 C 617.593 1.20824 -1.68571 0
M  V30 7011 C 618.018 1.84126 -0.384596 0
M  V30 7012 O 617.376 1.69025 0.655751 0
M  V30 7013 C 617.424 2.26429 -2.80646 0
M  V30 7014 O 616.528 3.32032 -2.44598 0
M  V30 7015 H 615.869 0.353765 -0.561913 0
M  V30 7016 H 618.399 0.509916 -1.98144 0
M  V30 7017 H 618.409 2.71133 -3.04878 0
M  V30 7018 H 617.084 1.79733 -3.75058 0
M  V30 7019 H 615.661 2.92769 -2.30956 0
M  V30 7020 N 617.846 1.41785 0.688094 0
M  V30 7021 C 619.095 1.4084 1.44385 0
M  V30 7022 C 619.408 0.0234166 1.95586 0
M  V30 7023 O 620.614 -0.108647 2.71283 0
M  V30 7024 C 619.07 2.47675 2.61123 0
M  V30 7025 C 618.678 3.92116 2.16677 0
M  V30 7026 C 620.422 2.55877 3.38714 0
M  V30 7027 C 618.329 4.90487 3.30419 0
M  V30 7028 H 617.259 0.523787 0.542368 0
M  V30 7029 H 619.91 1.6764 0.74627 0
M  V30 7030 H 618.292 2.14018 3.33185 0
M  V30 7031 H 619.466 4.35059 1.51856 0
M  V30 7032 H 617.781 3.87642 1.5206 0
M  V30 7033 H 620.378 3.26553 4.234 0
M  V30 7034 H 620.721 1.59801 3.84408 0
M  V30 7035 H 621.254 2.88662 2.73714 0
M  V30 7036 H 617.993 5.87994 2.89729 0
M  V30 7037 H 617.513 4.52187 3.94065 0
M  V30 7038 H 619.192 5.11591 3.96085 0
M  V30 7039 N 619.324 -0.923095 1.27737 0
M  V30 7040 C 620.254 -2.04124 1.13383 0
M  V30 7041 C 621.235 -1.70066 0.0340658 0
M  V30 7042 O 622.42 -1.93068 0.209383 0
M  V30 7043 C 619.55 -3.3831 0.785097 0
M  V30 7044 C 618.504 -3.86496 1.8386 0
M  V30 7045 C 617.83 -5.1754 1.34373 0
M  V30 7046 C 619.13 -4.09381 3.24353 0
M  V30 7047 H 620.824 -2.1639 2.06919 0
M  V30 7048 H 618.37 -1.03976 0.996243 0
M  V30 7049 H 620.323 -4.16016 0.671485 0
M  V30 7050 H 619.047 -3.2607 -0.185969 0
M  V30 7051 H 617.706 -3.10987 1.9412 0
M  V30 7052 H 617.354 -5.01696 0.361989 0
M  V30 7053 H 617.054 -5.50751 2.04811 0
M  V30 7054 H 618.578 -5.97811 1.24315 0
M  V30 7055 H 619.992 -4.77641 3.17067 0
M  V30 7056 H 618.389 -4.53906 3.92542 0
M  V30 7057 H 619.459 -3.14515 3.69064 0
M  V30 7058 N 620.802 -1.09834 -1.13024 0
M  V30 7059 C 621.712 -0.753731 -2.22162 0
M  V30 7060 C 622.728 0.246105 -1.72251 0
M  V30 7061 O 623.904 0.0864051 -2.01215 0
M  V30 7062 C 620.969 -0.183958 -3.46212 0
M  V30 7063 C 620.03 -1.24028 -4.10993 0
M  V30 7064 C 619.263 -0.697597 -5.29121 0
M  V30 7065 O 619.486 0.478092 -5.68393 0
M  V30 7066 O 618.42 -1.4546 -5.84059 0
M  V30 7067 H 622.246 -1.66456 -2.5402 0
M  V30 7068 H 619.831 -0.873026 -1.21238 0
M  V30 7069 H 621.713 0.130257 -4.21199 0
M  V30 7070 H 620.388 0.699823 -3.16045 0
M  V30 7071 H 619.295 -1.60725 -3.37814 0
M  V30 7072 H 620.628 -2.09685 -4.45301 0
M  V30 7073 N 622.28 1.30327 -0.886154 0
M  V30 7074 C 623.505 2.0079 -0.519425 0
M  V30 7075 C 623.93 1.65979 0.885013 0
M  V30 7076 O 623.288 0.877043 1.58675 0
M  V30 7077 C 623.336 3.53686 -0.702758 0
M  V30 7078 O 622.44 4.11637 0.250828 0
M  V30 7079 H 621.781 0.63171 -0.204544 0
M  V30 7080 H 624.311 1.66145 -1.19402 0
M  V30 7081 H 624.321 4.03531 -0.602207 0
M  V30 7082 H 622.996 3.78361 -1.72673 0
M  V30 7083 H 621.573 3.72755 0.103873 0
M  V30 7084 N 623.758 0.647228 1.43697 0
M  V30 7085 C 624.688 -0.0345631 2.33474 0
M  V30 7086 C 625.669 -0.818193 1.4913 0
M  V30 7087 O 626.854 -0.780867 1.77809 0
M  V30 7088 C 623.984 -1.00576 3.32418 0
M  V30 7089 C 622.938 -0.33266 4.26705 0
M  V30 7090 C 622.264 -1.41489 5.1564 0
M  V30 7091 C 623.564 0.771204 5.16575 0
M  V30 7092 H 625.258 0.715163 2.90733 0
M  V30 7093 H 622.804 0.345364 1.39797 0
M  V30 7094 H 624.757 -1.49159 3.94119 0
M  V30 7095 H 623.481 -1.78657 2.73403 0
M  V30 7096 H 622.14 0.13267 3.6636 0
M  V30 7097 H 621.788 -2.18698 4.52968 0
M  V30 7098 H 621.488 -0.969799 5.79542 0
M  V30 7099 H 623.012 -1.9022 5.80214 0
M  V30 7100 H 624.426 0.36779 5.72119 0
M  V30 7101 H 622.823 1.1404 5.89165 0
M  V30 7102 H 623.893 1.63169 4.56622 0
M  V30 7103 N 625.236 -1.5273 0.388769 0
M  V30 7104 C 626.146 -2.30165 -0.453993 0
M  V30 7105 C 627.162 -1.37058 -1.07197 0
M  V30 7106 O 628.338 -1.70127 -1.0779 0
M  V30 7107 C 625.403 -3.09303 -1.56628 0
M  V30 7108 C 624.464 -4.18117 -0.973467 0
M  V30 7109 C 623.697 -4.93472 -2.03275 0
M  V30 7110 O 623.92 -4.68913 -3.24772 0
M  V30 7111 O 622.854 -5.78833 -1.65034 0
M  V30 7112 H 626.68 -3.03185 0.176816 0
M  V30 7113 H 624.265 -1.4862 0.152501 0
M  V30 7114 H 626.147 -3.58648 -2.21246 0
M  V30 7115 H 624.822 -2.39098 -2.18206 0
M  V30 7116 H 623.729 -3.7297 -0.290556 0
M  V30 7117 H 625.062 -4.90556 -0.401908 0
M  V30 7118 N 626.714 -0.118576 -1.57153 0
M  V30 7119 C 627.942 0.54726 -1.99531 0
M  V30 7120 C 628.357 1.60251 -0.998246 0
M  V30 7121 O 627.714 1.82498 0.00893106 0
M  V30 7122 C 627.765 1.17378 -3.41913 0
M  V30 7123 O 627.486 0.160703 -4.37805 0
M  V30 7124 C 628.987 1.92297 -3.9942 0
M  V30 7125 H 626.207 0.144919 -0.655164 0
M  V30 7126 H 628.751 -0.20479 -2.03472 0
M  V30 7127 H 626.906 1.87661 -3.38913 0
M  V30 7128 H 627.32 0.61586 -5.20872 0
M  V30 7129 H 628.794 2.31462 -5.01128 0
M  V30 7130 H 629.271 2.79801 -3.38538 0
M  V30 7131 H 629.877 1.26777 -4.05965 0
M  V30 7132 N 628.193 1.56834 0.155195 0
M  V30 7133 C 629.156 1.96748 1.17571 0
M  V30 7134 C 630.156 0.853006 1.3631 0
M  V30 7135 O 631.346 1.11978 1.33441 0
M  V30 7136 C 628.478 2.27631 2.53765 0
M  V30 7137 H 629.671 2.88085 0.833498 0
M  V30 7138 H 627.224 1.51141 0.398242 0
M  V30 7139 H 627.959 1.39059 2.92973 0
M  V30 7140 H 627.744 3.0888 2.41527 0
M  V30 7141 H 629.234 2.59377 3.27282 0
M  V30 7142 N 629.671 -0.424282 1.51781 0
M  V30 7143 C 630.92 -1.16961 1.64326 0
M  V30 7144 C 631.233 -1.92035 0.371749 0
M  V30 7145 O 632.439 -2.68873 0.37676 0
M  V30 7146 C 630.895 -2.12782 2.90262 0
M  V30 7147 C 630.503 -1.43295 4.24465 0
M  V30 7148 C 632.247 -2.87667 3.12166 0
M  V30 7149 C 630.154 -2.37676 5.41538 0
M  V30 7150 H 629.084 -0.440293 0.612093 0
M  V30 7151 H 631.735 -0.435431 1.78259 0
M  V30 7152 H 630.117 -2.8969 2.69992 0
M  V30 7153 H 631.291 -0.718564 4.55163 0
M  V30 7154 H 629.606 -0.805118 4.08542 0
M  V30 7155 H 632.203 -3.58395 3.96808 0
M  V30 7156 H 632.546 -3.49758 2.25776 0
M  V30 7157 H 633.079 -2.17863 3.32837 0
M  V30 7158 H 629.818 -1.80255 6.30229 0
M  V30 7159 H 629.338 -3.07132 5.15199 0
M  V30 7160 H 631.017 -2.98529 5.74012 0
M  V30 7161 N 631.149 -1.42148 -0.680565 0
M  V30 7162 C 632.398 -1.41604 -1.43636 0
M  V30 7163 C 632.711 -0.0337887 -1.95571 0
M  V30 7164 O 633.917 0.0942588 -2.71336 0
M  V30 7165 C 632.373 -2.49056 -2.59806 0
M  V30 7166 C 631.981 -3.9326 -2.14594 0
M  V30 7167 C 633.725 -2.5767 -3.37352 0
M  V30 7168 C 631.632 -4.92232 -3.27813 0
M  V30 7169 H 630.562 -0.526656 -0.539583 0
M  V30 7170 H 633.213 -1.68033 -0.737369 0
M  V30 7171 H 631.595 -2.15782 -3.32045 0
M  V30 7172 H 632.769 -4.35858 -1.49546 0
M  V30 7173 H 631.084 -3.88443 -1.50002 0
M  V30 7174 H 633.681 -3.28794 -4.21662 0
M  V30 7175 H 634.024 -1.61837 -3.83555 0
M  V30 7176 H 634.557 -2.90109 -2.72179 0
M  V30 7177 H 631.296 -5.89522 -2.86607 0
M  V30 7178 H 630.816 -4.5427 -3.91661 0
M  V30 7179 H 632.495 -5.13684 -3.93367 0
M  V30 7180 N 632.627 0.916307 -1.28225 0
M  V30 7181 C 633.855 1.69901 -1.18073 0
M  V30 7182 C 634.27 1.86988 0.260968 0
M  V30 7183 O 633.627 1.39505 1.17663 0
M  V30 7184 C 633.678 3.09254 -1.87201 0
M  V30 7185 O 633.399 2.92959 -3.2574 0
M  V30 7186 C 634.9 4.0362 -1.83319 0
M  V30 7187 H 632.12 0.531181 -0.409985 0
M  V30 7188 H 634.664 1.14703 -1.69303 0
M  V30 7189 H 632.819 3.61277 -1.39848 0
M  V30 7190 H 633.233 3.81139 -3.60324 0
M  V30 7191 H 634.707 4.98873 -2.36282 0
M  V30 7192 H 635.184 4.3176 -0.805007 0
M  V30 7193 H 635.79 3.57524 -2.3034 0
M  V30 7194 N 634.105 1.10431 1.1244 0
M  V30 7195 C 635.035 0.775143 2.20258 0
M  V30 7196 C 636.016 -0.25186 1.68225 0
M  V30 7197 O 637.201 -0.117637 1.93843 0
M  V30 7198 C 634.331 0.206133 3.46688 0
M  V30 7199 C 633.285 1.16382 4.11873 0
M  V30 7200 C 632.611 0.456014 5.32752 0
M  V30 7201 C 633.911 2.5104 4.58013 0
M  V30 7202 H 635.605 1.67665 2.4805 0
M  V30 7203 H 633.151 0.807595 1.19222 0
M  V30 7204 H 635.104 -0.036291 4.21384 0
M  V30 7205 H 633.828 -0.730614 3.18323 0
M  V30 7206 H 632.487 1.39169 3.39157 0
M  V30 7207 H 632.135 -0.485203 5.00654 0
M  V30 7208 H 631.835 1.09466 5.77314 0
M  V30 7209 H 633.359 0.222135 6.10196 0
M  V30 7210 H 634.773 2.32401 5.24083 0
M  V30 7211 H 633.17 3.10789 5.13352 0
M  V30 7212 H 634.24 3.11039 3.71998 0
M  V30 7213 N 635.583 -1.29855 0.893053 0
M  V30 7214 C 636.808 -2.00512 0.530066 0
M  V30 7215 C 637.233 -1.66446 -0.876199 0
M  V30 7216 O 636.591 -0.885446 -1.58207 0
M  V30 7217 C 636.639 -3.53308 0.721505 0
M  V30 7218 O 635.743 -4.11764 -0.228994 0
M  V30 7219 H 635.084 -0.630617 0.207891 0
M  V30 7220 H 637.614 -1.6551 1.20282 0
M  V30 7221 H 637.624 -4.03206 0.623599 0
M  V30 7222 H 636.299 -3.77439 1.74678 0
M  V30 7223 H 634.876 -3.72805 -0.0841034 0
M  V30 7224 N 637.061 -0.65484 -1.43351 0
M  V30 7225 C 638.008 0.0357713 -2.30772 0
M  V30 7226 C 638.978 0.813035 -1.44841 0
M  V30 7227 O 640.163 0.789314 -1.73708 0
M  V30 7228 C 637.303 0.995084 -3.30442 0
M  V30 7229 C 636.416 0.21375 -4.31471 0
M  V30 7230 C 635.551 1.16701 -5.18222 0
M  V30 7231 C 634.59 0.376201 -6.10943 0
M  V30 7232 N 633.727 1.28113 -6.90313 0
M  V30 7233 H 638.567 -0.71559 -2.89281 0
M  V30 7234 H 636.104 -0.364645 -1.42509 0
M  V30 7235 H 638.062 1.5649 -3.86739 0
M  V30 7236 H 636.692 1.7133 -2.7358 0
M  V30 7237 H 635.744 -0.472377 -3.77456 0
M  V30 7238 H 637.056 -0.401103 -4.97185 0
M  V30 7239 H 636.21 1.8074 -5.79153 0
M  V30 7240 H 634.949 1.81577 -4.52638 0
M  V30 7241 H 633.954 -0.277534 -5.49099 0
M  V30 7242 H 635.179 -0.268178 -6.7857 0
M  V30 7243 H 633.125 1.91666 -6.27376 0
M  V30 7244 H 633.042 0.720879 -7.52555 0
M  V30 7245 H 634.31 1.90962 -7.55747 0
M  V30 7246 N 638.539 1.52521 -0.396863 0
M  V30 7247 C 639.816 1.94112 0.240842 0
M  V30 7248 C 640.196 1.33288 1.637 0
M  V30 7249 O 639.544 0.503901 2.22875 0
M  V30 7250 C 639.754 3.48033 0.259567 0
M  V30 7251 C 641.102 4.21822 0.484866 0
M  V30 7252 O 642.126 3.54579 0.339453 0
M  V30 7253 O 640.985 5.41042 0.770412 0
M  V30 7254 H 638.079 0.812973 0.151671 0
M  V30 7255 H 640.625 1.63572 -0.451918 0
M  V30 7256 H 639.397 3.84655 -0.718078 0
M  V30 7257 H 639.02 3.84899 0.996937 0
M  V30 7258 N 640.017 0.126909 1.57088 0
M  V30 7259 C 641.265 -0.528123 1.95078 0
M  V30 7260 C 641.586 -1.66708 1.0116 0
M  V30 7261 O 640.856 -1.95777 0.0693527 0
M  V30 7262 H 639.436 -0.198087 0.720257 0
M  V30 7263 H 642.098 0.197703 1.93895 0
M  V30 7264 H 641.194 -0.917507 2.98309 0
M  V30 7265 N 641.495 -1.56914 -0.146875 0
M  V30 7266 C 642.911 -1.51582 -0.499518 0
M  V30 7267 C 643.111 -0.83535 -1.83369 0
M  V30 7268 O 642.167 -0.405932 -2.49216 0
M  V30 7269 C 643.48 -2.96349 -0.509711 0
M  V30 7270 C 645.028 -3.07288 -0.595217 0
M  V30 7271 C 645.503 -4.53562 -0.636071 0
M  V30 7272 N 646.994 -4.57906 -0.69829 0
M  V30 7273 C 647.729 -5.68462 -0.750886 0
M  V30 7274 N 647.225 -6.88588 -0.76282 0
M  V30 7275 N 649.018 -5.56496 -0.791777 0
M  V30 7276 H 641.169 -1.99547 0.727656 0
M  V30 7277 H 643.432 -0.910113 0.265327 0
M  V30 7278 H 643.138 -3.4939 0.402409 0
M  V30 7279 H 643.012 -3.52307 -1.34758 0
M  V30 7280 H 645.399 -2.54266 -1.49776 0
M  V30 7281 H 645.48 -2.54373 0.2698 0
M  V30 7282 H 645.124 -5.07222 0.262313 0
M  V30 7283 H 645.054 -5.04259 -1.51758 0
M  V30 7284 H 647.545 -3.71429 -0.696362 0
M  V30 7285 H 647.858 -7.68598 -0.804804 0
M  V30 7286 H 646.203 -6.91148 -0.730694 0
M  V30 7287 H 649.394 -4.61562 -0.779624 0
M  V30 7288 H 649.567 -6.42671 -0.829301 0
M  V30 7289 N 642.974 0.416227 -1.52004 0
M  V30 7290 C 644.223 1.16088 -1.64944 0
M  V30 7291 C 644.536 1.91835 -0.381928 0
M  V30 7292 O 645.742 2.6867 -0.391013 0
M  V30 7293 C 644.198 2.1124 -2.91386 0
M  V30 7294 C 643.806 1.41042 -4.25219 0
M  V30 7295 C 645.55 2.86008 -3.13688 0
M  V30 7296 C 643.457 2.34801 -5.42791 0
M  V30 7297 H 642.387 0.437041 -0.61442 0
M  V30 7298 H 645.038 0.425971 -1.78487 0
M  V30 7299 H 643.42 2.88254 -2.71525 0
M  V30 7300 H 644.594 0.694416 -4.55538 0
M  V30 7301 H 642.909 0.78344 -4.08964 0
M  V30 7302 H 645.506 3.56286 -3.98703 0
M  V30 7303 H 645.849 3.48556 -2.27628 0
M  V30 7304 H 646.382 2.16095 -3.33988 0
M  V30 7305 H 643.121 1.7691 -6.31176 0
M  V30 7306 H 642.641 3.04395 -5.16821 0
M  V30 7307 H 644.32 2.9548 -5.75587 0
M  V30 7308 N 644.452 1.42507 0.673017 0
M  V30 7309 C 645.68 1.46473 1.46128 0
M  V30 7310 C 646.095 0.0765912 1.88645 0
M  V30 7311 O 645.452 -0.909057 1.58248 0
M  V30 7312 C 645.503 2.39339 2.70923 0
M  V30 7313 O 645.224 3.72752 2.3019 0
M  V30 7314 C 646.725 2.52343 3.64469 0
M  V30 7315 H 643.945 0.49812 0.449575 0
M  V30 7316 H 646.489 1.87041 0.826802 0
M  V30 7317 H 644.644 2.02019 3.30556 0
M  V30 7318 H 645.058 4.22503 3.10791 0
M  V30 7319 H 646.532 3.2144 4.48754 0
M  V30 7320 H 647.009 1.56189 4.1049 0
M  V30 7321 H 647.615 2.90392 3.10729 0
M  V30 7322 N 645.93 -0.909495 1.28709 0
M  V30 7323 C 646.84 -2.04558 1.14861 0
M  V30 7324 C 647.856 -1.73842 0.0741621 0
M  V30 7325 O 649.032 -1.99383 0.2843 0
M  V30 7326 C 646.097 -3.36957 0.816148 0
M  V30 7327 C 645.158 -3.81255 1.97341 0
M  V30 7328 C 644.391 -5.07335 1.65671 0
M  V30 7329 O 644.614 -5.67514 0.573053 0
M  V30 7330 O 643.548 -5.47449 2.50167 0
M  V30 7331 H 647.374 -2.19161 2.10243 0
M  V30 7332 H 644.959 -1.03159 1.08068 0
M  V30 7333 H 646.841 -4.16436 0.644873 0
M  V30 7334 H 645.516 -3.2352 -0.107983 0
M  V30 7335 H 644.423 -3.02584 2.19986 0
M  V30 7336 H 645.756 -3.99261 2.87839 0
M  V30 7337 N 647.408 -1.11026 -1.11852 0
M  V30 7338 C 648.654 -0.867633 -1.83967 0
M  V30 7339 C 649.009 0.600309 -1.82795 0
M  V30 7340 O 648.302 1.43731 -1.26696 0
M  V30 7341 C 648.496 -1.35777 -3.30604 0
M  V30 7342 C 648.325 -2.87183 -3.46058 0
M  V30 7343 C 647.095 -3.55256 -3.59334 0
M  V30 7344 C 649.293 -3.85258 -3.40706 0
M  V30 7345 N 647.275 -4.94923 -3.63215 0
M  V30 7346 C 648.646 -5.1097 -3.51155 0
M  V30 7347 C 650.701 -3.77879 -3.2421 0
M  V30 7348 C 649.404 -6.30171 -3.46809 0
M  V30 7349 C 651.43 -4.96586 -3.2118 0
M  V30 7350 C 650.792 -6.21149 -3.32196 0
M  V30 7351 H 646.891 -0.370574 -0.688621 0
M  V30 7352 H 649.475 -1.41379 -1.33865 0
M  V30 7353 H 647.646 -0.83885 -3.79233 0
M  V30 7354 H 649.378 -1.05874 -3.90606 0
M  V30 7355 H 646.133 -3.05714 -3.61713 0
M  V30 7356 H 646.557 -5.67726 -3.68804 0
M  V30 7357 H 651.199 -2.82485 -3.14582 0
M  V30 7358 H 648.917 -7.25847 -3.55206 0
M  V30 7359 H 652.503 -4.92591 -3.09589 0
M  V30 7360 H 651.383 -7.11463 -3.29834 0
M  V30 7361 N 648.886 1.2938 -0.899927 0
M  V30 7362 C 649.834 2.29675 -0.367698 0
M  V30 7363 C 650.828 1.60787 0.533282 0
M  V30 7364 O 652.034 1.75126 0.416058 0
M  V30 7365 H 648.409 0.745284 -0.100279 0
M  V30 7366 H 650.38 2.72008 -1.22696 0
M  V30 7367 C 649.129 3.45512 0.389483 0
M  V30 7368 H 648.452 3.98713 -0.294575 0
M  V30 7369 H 649.892 4.17725 0.726744 0
M  V30 7370 C 648.351 2.969 1.59223 0
M  V30 7371 O 648.881 2.98195 2.69152 0
M  V30 7372 N 647.087 2.52728 1.43447 0
M  V30 7373 H 646.634 2.51873 0.540148 0
M  V30 7374 H 646.592 2.20561 2.24054 0
M  V30 7375 N 650.364 0.662433 1.43002 0
M  V30 7376 C 651.311 -0.0235324 2.30788 0
M  V30 7377 C 652.281 -0.805342 1.4527 0
M  V30 7378 O 653.466 -0.78009 1.74124 0
M  V30 7379 C 650.606 -0.977545 3.30965 0
M  V30 7380 C 649.719 -0.190865 4.31578 0
M  V30 7381 C 648.854 -1.13951 5.18834 0
M  V30 7382 C 647.893 -0.343796 6.11134 0
M  V30 7383 N 647.03 -1.2445 6.90982 0
M  V30 7384 H 651.87 0.730921 2.88897 0
M  V30 7385 H 649.407 0.372197 1.42313 0
M  V30 7386 H 651.365 -1.54437 3.87563 0
M  V30 7387 H 649.995 -1.69877 2.74484 0
M  V30 7388 H 649.047 0.492388 3.772 0
M  V30 7389 H 650.359 0.427464 4.96965 0
M  V30 7390 H 649.513 -1.77666 5.80103 0
M  V30 7391 H 648.252 -1.79174 4.53595 0
M  V30 7392 H 647.257 0.30665 5.48944 0
M  V30 7393 H 648.482 0.304161 6.78419 0
M  V30 7394 H 646.428 -1.88336 6.28383 0
M  V30 7395 H 646.345 -0.680959 7.52927 0
M  V30 7396 H 647.613 -1.86952 7.56749 0
M  V30 7397 N 651.842 -1.52309 0.404946 0
M  V30 7398 C 652.789 -2.26898 -0.422597 0
M  V30 7399 C 653.759 -1.2914 -1.04461 0
M  V30 7400 O 654.944 -1.57996 -1.06967 0
M  V30 7401 C 652.084 -3.09053 -1.53559 0
M  V30 7402 C 651.197 -4.21762 -0.934908 0
M  V30 7403 C 650.332 -4.91283 -2.02025 0
M  V30 7404 C 649.371 -5.95962 -1.39628 0
M  V30 7405 N 648.508 -6.59017 -2.42159 0
M  V30 7406 H 653.348 -2.97188 0.219903 0
M  V30 7407 H 650.885 -1.46607 0.120282 0
M  V30 7408 H 652.843 -3.54987 -2.19181 0
M  V30 7409 H 651.473 -2.40942 -2.14818 0
M  V30 7410 H 650.525 -3.80029 -0.167854 0
M  V30 7411 H 651.837 -4.96864 -0.439073 0
M  V30 7412 H 650.991 -5.40601 -2.75383 0
M  V30 7413 H 649.73 -4.15741 -2.54973 0
M  V30 7414 H 648.735 -5.45968 -0.648023 0
M  V30 7415 H 649.96 -6.73445 -0.874553 0
M  V30 7416 H 647.906 -5.86306 -2.94247 0
M  V30 7417 H 647.823 -7.2978 -1.97376 0
M  V30 7418 H 649.091 -7.12974 -3.15099 0
M  V30 7419 N 653.32 -0.135238 -1.57019 0
M  V30 7420 C 654.283 0.794707 -2.14981 0
M  V30 7421 C 655.283 1.18342 -1.08866 0
M  V30 7422 O 656.473 1.10627 -1.34563 0
M  V30 7423 C 653.605 2.07685 -2.70333 0
M  V30 7424 H 654.798 0.290696 -2.98488 0
M  V30 7425 H 652.351 0.114128 -1.55883 0
M  V30 7426 H 653.086 2.6248 -1.9046 0
M  V30 7427 H 652.871 1.80745 -3.47957 0
M  V30 7428 H 654.361 2.74127 -3.1503 0
M  V30 7429 N 654.798 1.5699 0.138552 0
M  V30 7430 C 655.708 2.02174 1.19008 0
M  V30 7431 C 656.724 0.938622 1.46512 0
M  V30 7432 O 657.9 1.24872 1.58016 0
M  V30 7433 C 654.965 2.40045 2.50159 0
M  V30 7434 C 654.026 3.62346 2.30226 0
M  V30 7435 C 653.259 3.98401 3.55123 0
M  V30 7436 O 653.482 3.35019 4.61647 0
M  V30 7437 O 652.416 4.91606 3.47285 0
M  V30 7438 H 656.242 2.91954 0.836452 0
M  V30 7439 H 653.827 1.45293 0.347907 0
M  V30 7440 H 655.709 2.65225 3.27465 0
M  V30 7441 H 654.384 1.53417 2.85035 0
M  V30 7442 H 653.291 3.42341 1.50843 0
M  V30 7443 H 654.624 4.49617 2.00262 0
M  V30 7444 N 656.276 -0.40816 1.52223 0
M  V30 7445 C 657.208 -1.51642 1.71864 0
M  V30 7446 C 658.221 -1.51378 0.599056 0
M  V30 7447 O 659.41 -1.55626 0.874239 0
M  V30 7448 C 656.51 -2.90534 1.74481 0
M  V30 7449 C 655.683 -3.14979 3.03491 0
M  V30 7450 C 654.742 -4.33749 2.97907 0
M  V30 7451 O 653.768 -4.30982 3.71811 0
M  V30 7452 N 654.97 -5.38912 2.15764 0
M  V30 7453 H 657.735 -1.35188 2.67478 0
M  V30 7454 H 655.296 -0.597468 1.50472 0
M  V30 7455 H 657.288 -3.68056 1.68275 0
M  V30 7456 H 655.858 -3.00441 0.863363 0
M  V30 7457 H 655.078 -2.25492 3.23337 0
M  V30 7458 H 656.366 -3.28156 3.88833 0
M  V30 7459 H 655.764 -5.44008 1.55152 0
M  V30 7460 H 654.321 -6.15174 2.15415 0
M  V30 7461 N 657.755 -1.42862 -0.66545 0
M  V30 7462 C 658.685 -1.49867 -1.79059 0
M  V30 7463 C 659.666 -0.354394 -1.66367 0
M  V30 7464 O 660.851 -0.569969 -1.85647 0
M  V30 7465 C 657.981 -1.40943 -3.17415 0
M  V30 7466 C 656.935 -2.53495 -3.44854 0
M  V30 7467 C 656.261 -2.29626 -4.82883 0
M  V30 7468 C 657.561 -3.95781 -3.40815 0
M  V30 7469 H 659.255 -2.44037 -1.73453 0
M  V30 7470 H 656.801 -1.17456 -0.833071 0
M  V30 7471 H 658.754 -1.4445 -3.95869 0
M  V30 7472 H 657.478 -0.432716 -3.23721 0
M  V30 7473 H 656.137 -2.4932 -2.68766 0
M  V30 7474 H 655.785 -1.30226 -4.8585 0
M  V30 7475 H 655.485 -3.05065 -5.02204 0
M  V30 7476 H 657.009 -2.34897 -5.63609 0
M  V30 7477 H 658.423 -4.01508 -4.09224 0
M  V30 7478 H 656.82 -4.71148 -3.71672 0
M  V30 7479 H 657.89 -4.21786 -2.39216 0
M  V30 7480 N 659.233 0.902656 -1.29189 0
M  V30 7481 C 660.48 1.65287 -1.16989 0
M  V30 7482 C 660.808 1.92485 0.279232 0
M  V30 7483 O 660.063 1.53143 1.21843 0
M  V30 7484 C 660.362 3.011 -1.92545 0
M  V30 7485 C 660.028 2.93521 -3.42281 0
M  V30 7486 C 658.69 2.91161 -3.83117 0
M  V30 7487 C 661.042 2.82947 -4.3771 0
M  V30 7488 C 658.37 2.76043 -5.17704 0
M  V30 7489 C 660.722 2.69368 -5.72384 0
M  V30 7490 C 659.386 2.65373 -6.12482 0
M  V30 7491 H 658.656 0.604828 -0.428094 0
M  V30 7492 H 661.303 1.05084 -1.60092 0
M  V30 7493 H 659.608 3.65153 -1.42024 0
M  V30 7494 H 661.305 3.58073 -1.80512 0
M  V30 7495 H 657.895 2.96158 -3.09819 0
M  V30 7496 H 662.079 2.83849 -4.07116 0
M  V30 7497 H 657.335 2.71352 -5.47885 0
M  V30 7498 H 661.509 2.60156 -6.45981 0
M  V30 7499 H 659.136 2.53415 -7.16718 0
M  V30 7500 N 660.711 1.11618 1.11262 0
M  V30 7501 C 661.959 0.864469 1.82678 0
M  V30 7502 C 662.28 -0.611564 1.85162 0
M  V30 7503 O 661.55 -1.44429 1.32352 0
M  V30 7504 H 660.13 0.316821 0.676486 0
M  V30 7505 H 662.792 1.40894 1.34666 0
M  V30 7506 H 661.888 1.23832 2.86482 0
M  V30 7507 N 662.189 -1.289 0.906776 0
M  V30 7508 C 663.119 -2.29932 0.406659 0
M  V30 7509 C 664.1 -1.6189 -0.522061 0
M  V30 7510 O 665.285 -1.8935 -0.431283 0
M  V30 7511 C 662.415 -3.45425 -0.360366 0
M  V30 7512 C 661.369 -4.25316 0.478574 0
M  V30 7513 C 660.695 -5.33076 -0.416373 0
M  V30 7514 C 661.995 -4.92739 1.7322 0
M  V30 7515 H 663.689 -2.72013 1.25097 0
M  V30 7516 H 661.235 -1.30768 0.602977 0
M  V30 7517 H 663.188 -4.15186 -0.721029 0
M  V30 7518 H 661.912 -3.02206 -1.23852 0
M  V30 7519 H 660.571 -3.57273 0.821662 0
M  V30 7520 H 660.219 -4.86101 -1.29287 0
M  V30 7521 H 659.919 -5.8743 0.141309 0
M  V30 7522 H 661.443 -6.05686 -0.773072 0
M  V30 7523 H 662.857 -5.54898 1.44086 0
M  V30 7524 H 661.254 -5.57057 2.23175 0
M  V30 7525 H 662.324 -4.17625 2.46408 0
M  V30 7526 N 663.667 -0.670007 -1.42649 0
M  V30 7527 C 664.614 0.0112928 -2.30797 0
M  V30 7528 C 665.584 0.797627 -1.45695 0
M  V30 7529 O 666.769 0.770845 -1.74535 0
M  V30 7530 C 663.909 0.95998 -3.31479 0
M  V30 7531 C 663.022 0.167975 -4.31673 0
M  V30 7532 C 662.157 1.11198 -5.19431 0
M  V30 7533 C 661.196 0.311381 -6.11307 0
M  V30 7534 N 660.333 1.20784 -6.91633 0
M  V30 7535 H 665.173 -0.746231 -2.88505 0
M  V30 7536 H 662.71 -0.379739 -1.42114 0
M  V30 7537 H 664.668 1.52379 -3.88377 0
M  V30 7538 H 663.298 1.68419 -2.75382 0
M  V30 7539 H 662.35 -0.512385 -3.76933 0
M  V30 7540 H 663.662 -0.453814 -4.96731 0
M  V30 7541 H 662.816 1.74587 -5.81037 0
M  V30 7542 H 661.555 1.76766 -4.54538 0
M  V30 7543 H 660.56 -0.335758 -5.48774 0
M  V30 7544 H 661.785 -0.340135 -6.78248 0
M  V30 7545 H 659.731 1.85001 -6.29373 0
M  V30 7546 H 659.648 0.64102 -7.53277 0
M  V30 7547 H 660.916 1.82936 -7.5773 0
M  V30 7548 N 665.145 1.52092 -0.413018 0
M  V30 7549 C 666.092 2.27119 0.410558 0
M  V30 7550 C 667.062 1.29692 1.03774 0
M  V30 7551 O 668.247 1.58561 1.06128 0
M  V30 7552 C 665.387 3.09863 1.51918 0
M  V30 7553 C 664.5 4.22252 0.912528 0
M  V30 7554 C 663.635 4.92348 1.99417 0
M  V30 7555 C 662.674 5.96694 1.36466 0
M  V30 7556 N 661.811 6.60292 2.38661 0
M  V30 7557 H 666.651 2.97067 -0.235661 0
M  V30 7558 H 664.188 1.46542 -0.128055 0
M  V30 7559 H 666.146 3.56144 2.17295 0
M  V30 7560 H 664.776 2.42078 2.13537 0
M  V30 7561 H 663.828 3.80113 0.147697 0
M  V30 7562 H 665.14 4.9709 0.412717 0
M  V30 7563 H 664.294 5.42054 2.72512 0
M  V30 7564 H 663.033 4.17087 2.52764 0
M  V30 7565 H 662.038 5.46304 0.61906 0
M  V30 7566 H 663.263 6.73899 0.838827 0
M  V30 7567 H 661.209 5.87858 2.91134 0
M  V30 7568 H 661.126 7.30816 1.93503 0
M  V30 7569 H 662.394 7.14635 3.11314 0
M  V30 7570 N 666.623 0.143563 1.56945 0
M  V30 7571 C 667.533 -0.810562 2.20152 0
M  V30 7572 C 668.549 -1.27431 1.1848 0
M  V30 7573 O 669.725 -1.33221 1.51044 0
M  V30 7574 C 666.79 -2.03353 2.80799 0
M  V30 7575 C 665.851 -1.61936 3.97587 0
M  V30 7576 C 665.084 -2.78403 4.55332 0
M  V30 7577 O 665.307 -3.94521 4.11958 0
M  V30 7578 O 664.241 -2.54073 5.45647 0
M  V30 7579 H 668.067 -0.30253 3.02189 0
M  V30 7580 H 665.652 -0.0832925 1.49168 0
M  V30 7581 H 667.534 -2.74932 3.19359 0
M  V30 7582 H 666.209 -2.53116 2.01777 0
M  V30 7583 H 665.116 -0.873904 3.6375 0
M  V30 7584 H 666.449 -1.16892 4.78118 0
M  V30 7585 N 668.101 -1.57061 -0.130224 0
M  V30 7586 C 669.049 -2.00486 -1.17933 0
M  V30 7587 C 670.043 -0.899933 -1.43519 0
M  V30 7588 O 671.249 -1.08514 -1.43613 0
M  V30 7589 H 667.624 -0.638441 -0.397363 0
M  V30 7590 H 669.595 -2.87848 -0.786501 0
M  V30 7591 C 668.344 -2.41565 -2.50084 0
M  V30 7592 H 667.667 -3.26148 -2.31231 0
M  V30 7593 H 669.107 -2.75757 -3.22078 0
M  V30 7594 C 667.566 -1.27485 -3.11848 0
M  V30 7595 O 668.096 -0.584688 -3.97422 0
M  V30 7596 N 666.302 -1.03478 -2.71552 0
M  V30 7597 H 665.849 -1.59779 -2.02061 0
M  V30 7598 H 665.807 -0.27341 -3.13209 0
M  V30 7599 N 669.579 0.400081 -1.52437 0
M  V30 7600 C 670.825 1.14788 -1.67187 0
M  V30 7601 C 671.158 1.89928 -0.405074 0
M  V30 7602 O 670.433 1.85118 0.596804 0
M  V30 7603 C 670.716 2.13507 -2.89977 0
M  V30 7604 C 670.569 1.42204 -4.2673 0
M  V30 7605 C 671.888 3.14069 -3.083 0
M  V30 7606 H 669.007 0.415939 -0.608411 0
M  V30 7607 H 671.649 0.432542 -1.85011 0
M  V30 7608 H 669.799 2.7451 -2.74912 0
M  V30 7609 H 671.471 0.842503 -4.53541 0
M  V30 7610 H 669.714 0.723939 -4.27717 0
M  V30 7611 H 670.385 2.14281 -5.08712 0
M  V30 7612 H 672.861 2.63148 -3.22323 0
M  V30 7613 H 671.737 3.80398 -3.95713 0
M  V30 7614 H 671.998 3.82309 -2.22018 0
M  V30 7615 N 671.057 1.43213 0.657864 0
M  V30 7616 C 671.987 1.50815 1.78262 0
M  V30 7617 C 672.968 0.363211 1.66177 0
M  V30 7618 O 674.153 0.579806 1.85343 0
M  V30 7619 C 671.283 1.42625 3.16663 0
M  V30 7620 C 670.237 2.5532 3.43505 0
M  V30 7621 C 669.563 2.32184 4.81658 0
M  V30 7622 C 670.863 3.97583 3.38711 0
M  V30 7623 H 672.557 2.44954 1.72157 0
M  V30 7624 H 670.103 1.17896 0.82683 0
M  V30 7625 H 672.056 1.46548 3.95097 0
M  V30 7626 H 670.78 0.449877 3.23487 0
M  V30 7627 H 669.439 2.50742 2.6744 0
M  V30 7628 H 669.087 1.32801 4.85153 0
M  V30 7629 H 668.787 3.07724 5.00579 0
M  V30 7630 H 670.311 2.37883 5.62356 0
M  V30 7631 H 671.725 4.03673 4.07089 0
M  V30 7632 H 670.122 4.73112 3.69168 0
M  V30 7633 H 671.192 4.23049 2.36976 0
M  V30 7634 N 672.536 -0.895792 1.29666 0
M  V30 7635 C 673.784 -1.64339 1.17631 0
M  V30 7636 C 674.105 -1.93099 -0.271643 0
M  V30 7637 O 673.375 -1.55981 -1.18518 0
M  V30 7638 H 671.955 -0.609162 0.432354 0
M  V30 7639 H 674.617 -1.07389 1.62646 0
M  V30 7640 H 673.713 -2.59815 1.72924 0
M  V30 7641 N 674.014 -1.12206 -1.10668 0
M  V30 7642 C 675.43 -0.857619 -1.346 0
M  V30 7643 C 675.63 0.513542 -1.94846 0
M  V30 7644 O 674.686 1.26273 -2.18658 0
M  V30 7645 C 675.999 -1.97212 -2.26998 0
M  V30 7646 C 677.547 -2.00272 -2.40542 0
M  V30 7647 C 678.022 -3.10948 -3.36267 0
M  V30 7648 N 679.513 -3.10375 -3.43834 0
M  V30 7649 C 680.248 -3.92651 -4.17867 0
M  V30 7650 N 679.744 -4.84911 -4.94807 0
M  V30 7651 N 681.537 -3.80798 -4.1346 0
M  V30 7652 H 673.688 -2.00558 -0.699306 0
M  V30 7653 H 675.951 -0.872612 -0.370477 0
M  V30 7654 H 675.657 -2.96002 -1.89936 0
M  V30 7655 H 675.531 -1.87521 -3.27286 0
M  V30 7656 H 677.918 -1.02103 -2.76874 0
M  V30 7657 H 677.999 -2.14037 -1.40077 0
M  V30 7658 H 677.643 -4.09348 -3.00661 0
M  V30 7659 H 677.573 -2.94421 -4.36605 0
M  V30 7660 H 680.064 -2.43536 -2.88961 0
M  V30 7661 H 680.377 -5.44207 -5.48688 0
M  V30 7662 H 678.722 -4.88926 -4.93939 0
M  V30 7663 H 681.913 -3.08058 -3.52445 0
M  V30 7664 H 682.086 -4.4515 -4.70898 0
M  V30 7665 N 675.492 1.28418 -0.913599 0
M  V30 7666 C 676.908 1.47411 -0.611728 0
M  V30 7667 C 677.108 1.83018 0.843008 0
M  V30 7668 O 676.164 1.93505 1.6221 0
M  V30 7669 C 677.477 2.57703 -1.5495 0
M  V30 7670 C 679.025 2.71572 -1.5562 0
M  V30 7671 C 679.5 3.85008 -2.48058 0
M  V30 7672 N 680.991 3.92361 -2.46184 0
M  V30 7673 C 681.726 4.79516 -3.14407 0
M  V30 7674 N 681.222 5.71262 -3.91958 0
M  V30 7675 N 683.015 4.73125 -3.03495 0
M  V30 7676 H 675.166 1.03585 -1.85429 0
M  V30 7677 H 677.429 0.515907 -0.795326 0
M  V30 7678 H 677.135 2.38298 -2.58663 0
M  V30 7679 H 677.009 3.54801 -1.28048 0
M  V30 7680 H 679.396 2.90366 -0.526441 0
M  V30 7681 H 679.477 1.75006 -1.86565 0
M  V30 7682 H 679.121 3.66969 -3.51136 0
M  V30 7683 H 679.051 4.80971 -2.14416 0
M  V30 7684 H 681.542 3.26749 -1.89851 0
M  V30 7685 H 681.855 6.34593 -4.41034 0
M  V30 7686 H 680.2 5.71103 -3.96063 0
M  V30 7687 H 683.391 4.00442 -2.42413 0
M  V30 7688 H 683.564 5.40834 -3.56935 0
M  V30 7689 N 676.97 0.677563 1.42291 0
M  V30 7690 C 677.9 0.014968 2.33495 0
M  V30 7691 C 678.881 -0.786376 1.50831 0
M  V30 7692 O 680.066 -0.742975 1.79426 0
M  V30 7693 C 677.196 -0.935023 3.34477 0
M  V30 7694 C 676.15 -0.242074 4.27315 0
M  V30 7695 C 675.476 -1.30519 5.18526 0
M  V30 7696 C 676.776 0.880604 5.14823 0
M  V30 7697 H 678.47 0.776671 2.89151 0
M  V30 7698 H 676.016 0.37494 1.39033 0
M  V30 7699 H 677.969 -1.40766 3.97194 0
M  V30 7700 H 676.693 -1.72818 2.77131 0
M  V30 7701 H 675.352 0.210351 3.65996 0
M  V30 7702 H 675 -2.09041 4.57505 0
M  V30 7703 H 674.7 -0.846652 5.81468 0
M  V30 7704 H 676.224 -1.7787 5.84119 0
M  V30 7705 H 677.638 0.489062 5.7121 0
M  V30 7706 H 676.035 1.26511 5.86613 0
M  V30 7707 H 677.105 1.72818 4.53059 0
M  V30 7708 N 678.448 -1.51871 0.421078 0
M  V30 7709 C 679.395 -2.27334 -0.398508 0
M  V30 7710 C 680.365 -1.30241 -1.03085 0
M  V30 7711 O 681.55 -1.59121 -1.05285 0
M  V30 7712 C 678.69 -3.10664 -1.50272 0
M  V30 7713 C 677.803 -4.2273 -0.890122 0
M  V30 7714 C 676.938 -4.93399 -1.96803 0
M  V30 7715 C 675.977 -5.97409 -1.333 0
M  V30 7716 N 675.114 -6.61548 -2.35156 0
M  V30 7717 H 679.954 -2.96938 0.251411 0
M  V30 7718 H 677.491 -1.46472 0.135825 0
M  V30 7719 H 679.449 -3.57292 -2.15403 0
M  V30 7720 H 678.079 -2.43207 -2.1225 0
M  V30 7721 H 677.131 -3.80186 -0.127537 0
M  V30 7722 H 678.443 -4.97302 -0.386349 0
M  V30 7723 H 677.597 -5.43491 -2.69633 0
M  V30 7724 H 676.336 -4.18421 -2.50549 0
M  V30 7725 H 675.341 -5.46624 -0.59008 0
M  V30 7726 H 676.566 -6.74335 -0.803076 0
M  V30 7727 H 674.512 -5.89394 -2.88012 0
M  V30 7728 H 674.429 -7.31832 -1.89624 0
M  V30 7729 H 675.697 -7.16276 -3.0752 0
M  V30 7730 N 679.926 -0.151884 -1.56866 0
M  V30 7731 C 681.203 0.543328 -1.87902 0
M  V30 7732 C 681.583 1.82636 -1.05864 0
M  V30 7733 O 680.931 2.28028 -0.146868 0
M  V30 7734 C 681.141 0.804056 -3.39611 0
M  V30 7735 C 682.489 1.14267 -4.08935 0
M  V30 7736 O 683.513 0.893248 -3.44818 0
M  V30 7737 O 682.372 1.61229 -5.22176 0
M  V30 7738 H 679.466 0.277724 -0.778973 0
M  V30 7739 H 682.012 -0.188862 -1.68646 0
M  V30 7740 H 680.784 -0.103772 -3.91162 0
M  V30 7741 H 680.407 1.59025 -3.64413 0
M  V30 7742 N 681.404 1.57128 0.121893 0
M  V30 7743 C 682.334 2.03165 1.15092 0
M  V30 7744 C 683.315 0.915587 1.43356 0
M  V30 7745 O 684.5 1.1851 1.53847 0
M  V30 7746 C 681.63 2.43352 2.47784 0
M  V30 7747 C 680.584 3.58376 2.33989 0
M  V30 7748 C 679.91 3.84454 3.71617 0
M  V30 7749 C 681.21 4.90199 1.80283 0
M  V30 7750 H 682.904 2.89382 0.768023 0
M  V30 7751 H 680.45 1.39218 0.367998 0
M  V30 7752 H 682.403 2.74163 3.20019 0
M  V30 7753 H 681.127 1.54103 2.87958 0
M  V30 7754 H 679.786 3.2777 1.64202 0
M  V30 7755 H 679.434 2.92414 4.09271 0
M  V30 7756 H 679.134 4.61877 3.6324 0
M  V30 7757 H 680.658 4.17714 4.45362 0
M  V30 7758 H 682.072 5.19565 2.42333 0
M  V30 7759 H 680.469 5.71601 1.82735 0
M  V30 7760 H 681.539 4.78904 0.760184 0
M  V30 7761 N 682.882 -0.391992 1.52647 0
M  V30 7762 C 684.293 -0.970064 1.5952 0
M  V30 7763 C 684.644 -1.91059 0.446207 0
M  V30 7764 O 683.769 -2.12062 -0.431125 0
M  V30 7765 C 684.364 -1.76614 2.89125 0
M  V30 7766 C 682.923 -2.29396 2.9842 0
M  V30 7767 C 682.07 -1.09864 2.54608 0
M  V30 7768 H 685.021 -0.171638 1.57769 0
M  V30 7769 H 685.042 -2.62511 2.75442 0
M  V30 7770 H 684.554 -1.08135 3.72731 0
M  V30 7771 H 682.655 -3.01196 2.19344 0
M  V30 7772 H 682.768 -2.59088 4.03002 0
M  V30 7773 H 681.132 -1.45777 2.08857 0
M  V30 7774 H 681.915 -0.429249 3.40606 0
M  V30 7775 N 684.36 -1.4356 -0.65026 0
M  V30 7776 C 685.637 -1.35811 -1.40765 0
M  V30 7777 C 686.017 -0.00736379 -2.11099 0
M  V30 7778 O 685.365 1.00932 -2.05 0
M  V30 7779 C 685.575 -2.54332 -2.3899 0
M  V30 7780 C 686.923 -2.97551 -3.02901 0
M  V30 7781 O 687.947 -2.544 -2.49317 0
M  V30 7782 O 686.806 -3.72311 -4.00059 0
M  V30 7783 H 683.9 -0.536861 -0.629054 0
M  V30 7784 H 686.446 -1.55615 -0.676919 0
M  V30 7785 H 685.218 -3.44274 -1.85986 0
M  V30 7786 H 684.841 -2.36643 -3.19509 0
M  V30 7787 N 685.838 0.888903 -1.30139 0
M  V30 7788 C 687.085 1.64037 -1.18736 0
M  V30 7789 C 687.413 1.92771 0.258801 0
M  V30 7790 O 686.668 1.54427 1.20212 0
M  V30 7791 C 686.967 2.99041 -1.95728 0
M  V30 7792 C 686.633 2.89874 -3.45375 0
M  V30 7793 C 685.295 2.87082 -3.86183 0
M  V30 7794 C 687.647 2.78289 -4.40687 0
M  V30 7795 C 684.975 2.70536 -5.20603 0
M  V30 7796 C 687.327 2.63282 -5.75209 0
M  V30 7797 C 685.991 2.58861 -6.15262 0
M  V30 7798 H 685.261 0.600253 -0.434485 0
M  V30 7799 H 687.908 1.0338 -1.61198 0
M  V30 7800 H 686.213 3.63626 -1.45888 0
M  V30 7801 H 687.91 3.56139 -1.843 0
M  V30 7802 H 684.5 2.92856 -3.12943 0
M  V30 7803 H 688.684 2.79516 -4.10103 0
M  V30 7804 H 683.94 2.65526 -5.50732 0
M  V30 7805 H 688.114 2.5329 -6.48704 0
M  V30 7806 H 685.741 2.45799 -7.19366 0
M  V30 7807 N 687.317 1.12792 1.10072 0
M  V30 7808 C 688.227 0.812369 2.20086 0
M  V30 7809 C 689.243 -0.200349 1.72843 0
M  V30 7810 O 690.419 -0.0330262 2.01373 0
M  V30 7811 C 687.484 0.275685 3.45602 0
M  V30 7812 C 686.545 1.34881 4.07561 0
M  V30 7813 C 685.778 0.837639 5.27086 0
M  V30 7814 O 686.001 -0.327224 5.69461 0
M  V30 7815 O 684.935 1.60894 5.79997 0
M  V30 7816 H 688.761 1.73133 2.49517 0
M  V30 7817 H 686.346 0.904863 1.18881 0
M  V30 7818 H 688.228 -0.0185375 4.21396 0
M  V30 7819 H 686.903 -0.615783 3.17789 0
M  V30 7820 H 685.81 1.69625 3.33434 0
M  V30 7821 H 687.143 2.21418 4.39585 0
M  V30 7822 N 688.795 -1.27931 0.920396 0
M  V30 7823 C 689.705 -2.30824 0.419212 0
M  V30 7824 C 690.721 -1.66767 -0.496461 0
M  V30 7825 O 691.897 -1.97763 -0.38104 0
M  V30 7826 C 688.962 -3.45158 -0.326601 0
M  V30 7827 C 688.023 -4.24754 0.623098 0
M  V30 7828 C 687.256 -5.33629 -0.0872172 0
M  V30 7829 O 687.479 -5.55204 -1.30784 0
M  V30 7830 O 686.413 -5.99091 0.580875 0
M  V30 7831 H 690.239 -2.75716 1.27337 0
M  V30 7832 H 687.824 -1.32747 0.685465 0
M  V30 7833 H 689.706 -4.14716 -0.747559 0
M  V30 7834 H 688.381 -3.02336 -1.15648 0
M  V30 7835 H 687.288 -3.57759 1.09359 0
M  V30 7836 H 688.621 -4.71272 1.41998 0
M  V30 7837 N 690.273 -0.685099 -1.4193 0
M  V30 7838 C 691.522 -0.208816 -2.00616 0
M  V30 7839 C 691.835 1.19506 -1.54847 0
M  V30 7840 O 693.041 1.76826 -2.06021 0
M  V30 7841 C 691.497 -0.322446 -3.58453 0
M  V30 7842 C 691.105 -1.73102 -4.13206 0
M  V30 7843 C 692.849 0.0945979 -4.24395 0
M  V30 7844 C 690.756 -1.79687 -5.63442 0
M  V30 7845 H 689.686 -0.0743092 -0.750329 0
M  V30 7846 H 692.337 -0.851778 -1.62533 0
M  V30 7847 H 690.719 0.388588 -3.94089 0
M  V30 7848 H 691.893 -2.46997 -3.8901 0
M  V30 7849 H 690.208 -2.09682 -3.59753 0
M  V30 7850 H 692.805 0.0656937 -5.3466 0
M  V30 7851 H 693.148 1.1316 -4.00625 0
M  V30 7852 H 693.681 -0.56579 -3.93756 0
M  V30 7853 H 690.42 -2.81404 -5.92024 0
M  V30 7854 H 689.94 -1.10162 -5.89597 0
M  V30 7855 H 691.619 -1.55498 -6.28036 0
M  V30 7856 N 691.751 1.51645 -0.429126 0
M  V30 7857 C 692.999 2.01616 0.139802 0
M  V30 7858 C 693.32 1.31568 1.43927 0
M  V30 7859 O 692.59 0.447688 1.90716 0
M  V30 7860 H 691.17 0.744998 0.054654 0
M  V30 7861 H 693.832 1.8638 -0.569952 0
M  V30 7862 H 692.928 3.10439 0.321609 0
M  V30 7863 N 693.229 0.160201 1.56784 0
M  V30 7864 C 694.454 -0.497373 2.01348 0
M  V30 7865 C 694.879 -1.56757 1.03966 0
M  V30 7866 O 694.237 -1.81292 0.0174455 0
M  V30 7867 C 694.285 -1.0628 3.44582 0
M  V30 7868 O 693.389 -2.17723 3.50244 0
M  V30 7869 H 692.73 -0.120295 0.653012 0
M  V30 7870 H 695.26 0.260821 2.02931 0
M  V30 7871 H 695.27 -1.38819 3.83658 0
M  V30 7872 H 693.945 -0.279166 4.14962 0
M  V30 7873 H 692.522 -1.86313 3.2302 0
M  V30 7874 N 694.707 -1.5719 -0.113559 0
M  V30 7875 C 695.953 -1.85412 -0.821597 0
M  V30 7876 C 696.286 -0.746722 -1.7927 0
M  V30 7877 O 695.561 0.246971 -1.92926 0
M  V30 7878 C 695.844 -3.24233 -1.56669 0
M  V30 7879 C 695.697 -4.45578 -0.614823 0
M  V30 7880 C 697.016 -3.60697 -2.52161 0
M  V30 7881 H 694.135 -0.674406 -0.29723 0
M  V30 7882 H 696.777 -1.89807 -0.085694 0
M  V30 7883 H 694.927 -3.20617 -2.19401 0
M  V30 7884 H 696.599 -4.613 0.00407137 0
M  V30 7885 H 694.842 -4.33738 0.0732332 0
M  V30 7886 H 695.513 -5.39395 -1.17292 0
M  V30 7887 H 697.989 -3.65139 -1.99532 0
M  V30 7888 H 696.865 -4.58798 -3.01323 0
M  V30 7889 H 697.126 -2.88403 -3.35076 0
M  V30 7890 N 696.185 0.383891 -1.52853 0
M  V30 7891 C 697.148 1.45197 -1.77343 0
M  V30 7892 C 698.148 1.47362 -0.643522 0
M  V30 7893 O 699.338 1.48443 -0.911613 0
M  V30 7894 C 696.47 2.8445 -1.87885 0
M  V30 7895 H 697.663 1.24764 -2.72716 0
M  V30 7896 H 695.216 0.615939 -1.43652 0
M  V30 7897 H 695.951 3.10222 -0.94515 0
M  V30 7898 H 695.736 2.8428 -2.70051 0
M  V30 7899 H 697.226 3.61832 -2.08488 0
M  V30 7900 N 697.663 1.43903 0.642637 0
M  V30 7901 C 698.573 1.52349 1.78401 0
M  V30 7902 C 699.589 0.409869 1.69104 0
M  V30 7903 O 700.765 0.665548 1.90085 0
M  V30 7904 C 697.83 1.45408 3.14734 0
M  V30 7905 C 696.891 2.67528 3.35749 0
M  V30 7906 C 696.124 2.60909 4.65577 0
M  V30 7907 O 696.347 1.6627 5.45628 0
M  V30 7908 O 695.281 3.5158 4.88544 0
M  V30 7909 H 699.107 2.48752 1.7423 0
M  V30 7910 H 696.692 1.26021 0.802439 0
M  V30 7911 H 698.574 1.44019 3.96026 0
M  V30 7912 H 697.249 0.521437 3.19473 0
M  V30 7913 H 696.156 2.74487 2.5418 0
M  V30 7914 H 697.489 3.598 3.35864 0
M  V30 7915 N 699.141 -0.881989 1.30609 0
M  V30 7916 C 700.366 -1.67236 1.22665 0
M  V30 7917 C 700.791 -1.8696 -0.206777 0
M  V30 7918 O 700.149 -1.4027 -1.14865 0
M  V30 7919 C 700.197 -3.02446 1.96363 0
M  V30 7920 O 699.301 -3.91614 1.29276 0
M  V30 7921 H 698.642 -0.510902 0.424117 0
M  V30 7922 H 701.172 -1.10055 1.72479 0
M  V30 7923 H 701.182 -3.52468 2.055 0
M  V30 7924 H 699.857 -2.8741 3.00613 0
M  V30 7925 H 698.434 -3.50055 1.28514 0
M  V30 7926 N 700.619 -1.13374 -1.09472 0
M  V30 7927 C 701.865 -0.896516 -1.81908 0
M  V30 7928 C 702.198 0.575933 -1.85463 0
M  V30 7929 O 701.473 1.42618 -1.32251 0
M  V30 7930 C 701.756 -1.48445 -3.28079 0
M  V30 7931 C 701.609 -3.02598 -3.32798 0
M  V30 7932 C 702.928 -1.15226 -4.24748 0
M  V30 7933 H 700.047 -0.327127 -0.660422 0
M  V30 7934 H 702.689 -1.40195 -1.2824 0
M  V30 7935 H 700.839 -1.0546 -3.73912 0
M  V30 7936 H 702.511 -3.54335 -2.95372 0
M  V30 7937 H 700.754 -3.37613 -2.72397 0
M  V30 7938 H 701.425 -3.38835 -4.3577 0
M  V30 7939 H 703.901 -1.52369 -3.87199 0
M  V30 7940 H 702.777 -1.59012 -5.25363 0
M  V30 7941 H 703.038 -0.0658891 -4.42051 0
M  V30 7942 N 702.098 1.27442 -0.927168 0
M  V30 7943 C 703.345 1.94391 -0.567324 0
M  V30 7944 C 703.673 1.72875 0.891321 0
M  V30 7945 O 702.928 1.05071 1.65102 0
M  V30 7946 C 703.227 3.47413 -0.838994 0
M  V30 7947 C 702.893 3.89049 -2.2793 0
M  V30 7948 C 701.555 4.00127 -2.67305 0
M  V30 7949 C 703.907 4.10154 -3.21595 0
M  V30 7950 C 701.235 4.29697 -3.99471 0
M  V30 7951 C 703.587 4.41208 -4.53341 0
M  V30 7952 C 702.251 4.50499 -4.92551 0
M  V30 7953 H 701.521 0.711325 -0.207598 0
M  V30 7954 H 704.168 1.51523 -1.17103 0
M  V30 7955 H 702.473 3.91503 -0.152609 0
M  V30 7956 H 704.17 3.97354 -0.53955 0
M  V30 7957 H 700.76 3.80962 -1.96381 0
M  V30 7958 H 704.944 4.01036 -2.92377 0
M  V30 7959 H 700.2 4.35099 -4.29533 0
M  V30 7960 H 704.374 4.56486 -5.25922 0
M  V30 7961 H 702.001 4.73167 -5.94994 0
M  V30 7962 N 703.576 0.692616 1.41565 0
M  V30 7963 C 704.486 0.0258451 2.34586 0
M  V30 7964 C 705.502 -0.769324 1.56069 0
M  V30 7965 O 706.678 -0.707563 1.88562 0
M  V30 7966 C 703.743 -0.901289 3.3478 0
M  V30 7967 C 702.804 -0.0986579 4.29187 0
M  V30 7968 C 702.037 -0.981634 5.24595 0
M  V30 7969 O 702.26 -2.22115 5.25377 0
M  V30 7970 O 701.194 -0.432892 6.00341 0
M  V30 7971 H 705.02 0.792537 2.93177 0
M  V30 7972 H 702.605 0.452935 1.42369 0
M  V30 7973 H 704.487 -1.43302 3.96286 0
M  V30 7974 H 703.162 -1.64752 2.78637 0
M  V30 7975 H 702.069 0.477604 3.71039 0
M  V30 7976 H 703.402 0.608848 4.8842 0
M  V30 7977 N 705.054 -1.51416 0.437162 0
M  V30 7978 C 706.002 -2.29328 -0.388765 0
M  V30 7979 C 706.996 -1.35171 -1.02104 0
M  V30 7980 O 708.202 -1.52513 -0.956024 0
M  V30 7981 H 704.577 -0.738048 -0.144183 0
M  V30 7982 H 706.548 -2.96995 0.289212 0
M  V30 7983 C 705.297 -3.14741 -1.47761 0
M  V30 7984 H 704.62 -3.8708 -1.00045 0
M  V30 7985 H 706.06 -3.72313 -2.02877 0
M  V30 7986 C 704.519 -2.30105 -2.46076 0
M  V30 7987 O 705.049 -1.96055 -3.50607 0
M  V30 7988 N 703.255 -1.93331 -2.1696 0
M  V30 7989 H 702.802 -2.2122 -1.31983 0
M  V30 7990 H 702.76 -1.36999 -2.82982 0
M  V30 7991 N 706.532 -0.168513 -1.56696 0
M  V30 7992 C 707.479 0.762875 -2.17828 0
M  V30 7993 C 708.449 1.22892 -1.11745 0
M  V30 7994 O 709.634 1.29759 -1.39883 0
M  V30 7995 C 706.774 1.9879 -2.82093 0
M  V30 7996 C 705.887 1.56568 -4.02629 0
M  V30 7997 C 705.022 2.74416 -4.54829 0
M  V30 7998 C 704.061 2.28671 -5.67782 0
M  V30 7999 N 703.198 3.39602 -6.14504 0
M  V30 8000 H 708.038 0.23479 -2.97074 0
M  V30 8001 H 705.575 0.104163 -1.46731 0
M  V30 8002 H 707.533 2.70636 -3.17509 0
M  V30 8003 H 706.163 2.48973 -2.05456 0
M  V30 8004 H 705.215 0.744067 -3.73052 0
M  V30 8005 H 706.527 1.18988 -4.844 0
M  V30 8006 H 705.681 3.54423 -4.92412 0
M  V30 8007 H 704.42 3.15254 -3.7211 0
M  V30 8008 H 703.425 1.4711 -5.29753 0
M  V30 8009 H 704.65 1.88894 -6.52301 0
M  V30 8010 H 702.596 3.80021 -5.34715 0
M  V30 8011 H 702.513 3.06105 -6.91257 0
M  V30 8012 H 703.781 4.19902 -6.56737 0
M  V30 8013 N 708.01 1.57248 0.105221 0
M  V30 8014 C 708.92 2.04653 1.14693 0
M  V30 8015 C 709.936 0.969488 1.44489 0
M  V30 8016 O 711.112 1.28196 1.55331 0
M  V30 8017 C 708.177 2.45297 2.45011 0
M  V30 8018 C 707.238 3.67148 2.22489 0
M  V30 8019 C 706.471 4.05844 3.46592 0
M  V30 8020 O 706.694 3.44736 4.54437 0
M  V30 8021 O 705.628 4.98862 3.36779 0
M  V30 8022 H 709.454 2.93663 0.774336 0
M  V30 8023 H 707.039 1.45998 0.31701 0
M  V30 8024 H 708.921 2.72112 3.21766 0
M  V30 8025 H 707.596 1.59429 2.81717 0
M  V30 8026 H 706.503 3.45463 1.43547 0
M  V30 8027 H 707.836 4.53764 1.9068 0
M  V30 8028 N 709.488 -0.375779 1.53054 0
M  V30 8029 C 710.899 -0.95309 1.6054 0
M  V30 8030 C 711.25 -1.90575 0.466446 0
M  V30 8031 O 710.375 -2.12507 -0.408609 0
M  V30 8032 C 710.97 -1.73537 2.90982 0
M  V30 8033 C 709.529 -2.26218 3.00836 0
M  V30 8034 C 708.676 -1.07157 2.55759 0
M  V30 8035 H 711.627 -0.154895 1.57942 0
M  V30 8036 H 711.648 -2.59574 2.78211 0
M  V30 8037 H 711.16 -1.04176 3.73857 0
M  V30 8038 H 709.261 -2.98852 2.22527 0
M  V30 8039 H 709.374 -2.54799 4.05727 0
M  V30 8040 H 707.738 -1.43553 2.10391 0
M  V30 8041 H 708.521 -0.393099 3.41042 0
M  V30 8042 N 710.966 -1.44241 -0.634997 0
M  V30 8043 C 712.212 -1.47038 -1.39669 0
M  V30 8044 C 712.545 -0.101122 -1.93937 0
M  V30 8045 O 711.82 0.880699 -1.73418 0
M  V30 8046 C 712.103 -2.52763 -2.56482 0
M  V30 8047 C 711.956 -3.99032 -2.07589 0
M  V30 8048 C 713.275 -2.55031 -3.58674 0
M  V30 8049 H 710.394 -0.53537 -0.506506 0
M  V30 8050 H 713.036 -1.75898 -0.718317 0
M  V30 8051 H 711.186 -2.28284 -3.14354 0
M  V30 8052 H 712.858 -4.3463 -1.54577 0
M  V30 8053 H 711.101 -4.10994 -1.38804 0
M  V30 8054 H 711.772 -4.68649 -2.91671 0
M  V30 8055 H 714.248 -2.76893 -3.10595 0
M  V30 8056 H 713.124 -3.30916 -4.37934 0
M  V30 8057 H 713.385 -1.59085 -4.12486 0
M  V30 8058 N 712.444 0.87505 -1.31075 0
M  V30 8059 C 713.691 1.62768 -1.20469 0
M  V30 8060 C 714.019 1.93034 0.23834 0
M  V30 8061 O 713.274 1.55693 1.18567 0
M  V30 8062 C 713.573 2.96948 -1.98888 0
M  V30 8063 C 713.239 2.86195 -3.4843 0
M  V30 8064 C 711.901 2.82969 -3.89207 0
M  V30 8065 C 714.253 2.73599 -4.43614 0
M  V30 8066 C 711.581 2.64999 -5.23443 0
M  V30 8067 C 713.933 2.57166 -5.77969 0
M  V30 8068 C 712.597 2.52321 -6.17973 0
M  V30 8069 H 711.867 0.595611 -0.440827 0
M  V30 8070 H 714.514 1.01665 -1.62285 0
M  V30 8071 H 712.819 3.62058 -1.49737 0
M  V30 8072 H 714.516 3.54164 -1.88067 0
M  V30 8073 H 711.106 2.8952 -3.16032 0
M  V30 8074 H 715.29 2.7515 -4.13045 0
M  V30 8075 H 710.546 2.5967 -5.53517 0
M  V30 8076 H 714.72 2.46396 -6.51354 0
M  V30 8077 H 712.347 2.38156 -7.21932 0
M  V30 8078 N 713.922 1.13953 1.08869 0
M  V30 8079 C 714.852 0.844824 2.17681 0
M  V30 8080 C 715.833 -0.198213 1.68941 0
M  V30 8081 O 717.018 -0.0559073 1.9412 0
M  V30 8082 C 714.148 0.316325 3.45856 0
M  V30 8083 C 713.102 1.29426 4.07962 0
M  V30 8084 C 712.428 0.625275 5.31031 0
M  V30 8085 C 713.728 2.65484 4.49795 0
M  V30 8086 H 715.422 1.75471 2.42591 0
M  V30 8087 H 712.968 0.845116 1.16592 0
M  V30 8088 H 714.921 0.0977876 4.21287 0
M  V30 8089 H 713.645 -0.628972 3.20486 0
M  V30 8090 H 712.304 1.49889 3.34558 0
M  V30 8091 H 711.952 -0.325678 5.01945 0
M  V30 8092 H 711.652 1.27777 5.73539 0
M  V30 8093 H 713.176 0.416152 6.0918 0
M  V30 8094 H 714.59 2.48957 5.16424 0
M  V30 8095 H 712.987 3.26963 5.03205 0
M  V30 8096 H 714.057 3.22717 3.61914 0
M  V30 8097 N 715.4 -1.26948 0.933913 0
M  V30 8098 C 716.348 -2.2862 0.428463 0
M  V30 8099 C 717.342 -1.62144 -0.490464 0
M  V30 8100 O 718.548 -1.76167 -0.36948 0
M  V30 8101 H 714.923 -0.742363 0.120003 0
M  V30 8102 H 716.894 -2.68659 1.29865 0
M  V30 8103 C 715.643 -3.46423 -0.29774 0
M  V30 8104 H 714.966 -3.97792 0.400183 0
M  V30 8105 H 716.406 -4.19505 -0.615736 0
M  V30 8106 C 714.865 -3.01017 -1.51295 0
M  V30 8107 O 715.395 -3.05226 -2.61151 0
M  V30 8108 N 713.601 -2.56442 -1.36696 0
M  V30 8109 H 713.148 -2.53217 -0.473178 0
M  V30 8110 H 713.106 -2.26424 -2.18127 0
M  V30 8111 N 716.879 -0.700114 -1.41195 0
M  V30 8112 C 718.126 -0.233006 -2.01155 0
M  V30 8113 C 718.454 1.16883 -1.55462 0
M  V30 8114 O 717.709 1.80395 -0.758695 0
M  V30 8115 C 718.008 -0.243986 -3.56566 0
M  V30 8116 C 717.674 -1.59397 -4.21786 0
M  V30 8117 C 716.336 -1.96355 -4.39316 0
M  V30 8118 C 718.688 -2.48192 -4.58312 0
M  V30 8119 C 716.016 -3.21683 -4.9065 0
M  V30 8120 C 718.368 -3.72857 -5.11039 0
M  V30 8121 C 717.032 -4.09951 -5.26779 0
M  V30 8122 H 716.302 -0.085263 -0.736078 0
M  V30 8123 H 718.949 -0.9001 -1.69028 0
M  V30 8124 H 717.254 0.506663 -3.8851 0
M  V30 8125 H 718.951 0.135031 -4.00773 0
M  V30 8126 H 715.541 -1.29654 -4.08519 0
M  V30 8127 H 719.725 -2.20918 -4.4442 0
M  V30 8128 H 714.981 -3.50412 -5.01021 0
M  V30 8129 H 719.155 -4.41844 -5.38282 0
M  V30 8130 H 716.782 -5.07136 -5.66319 0
M  V30 8131 N 718.357 1.51182 -0.445186 0
M  V30 8132 C 719.587 2.06269 0.116922 0
M  V30 8133 C 719.995 1.31188 1.36332 0
M  V30 8134 O 719.338 0.367067 1.79995 0
M  V30 8135 C 719.4 3.56051 0.496757 0
M  V30 8136 C 719.064 4.52441 -0.64394 0
M  V30 8137 C 720.061 4.97233 -1.5184 0
M  V30 8138 C 717.746 4.95447 -0.826905 0
M  V30 8139 C 719.74 5.83712 -2.56046 0
M  V30 8140 C 717.427 5.81714 -1.87222 0
M  V30 8141 C 718.425 6.25745 -2.73738 0
M  V30 8142 O 718.113 7.10298 -3.76474 0
M  V30 8143 H 717.845 0.675954 0.00785733 0
M  V30 8144 H 720.399 1.95648 -0.625371 0
M  V30 8145 H 718.629 3.64483 1.29187 0
M  V30 8146 H 720.318 3.93618 0.990928 0
M  V30 8147 H 721.084 4.64696 -1.38862 0
M  V30 8148 H 716.963 4.60712 -0.163052 0
M  V30 8149 H 720.507 6.18 -3.23607 0
M  V30 8150 H 716.404 6.13664 -2.00218 0
M  V30 8151 H 717.172 7.28493 -3.73149 0
M  V30 8152 N 719.835 0.176821 1.56605 0
M  V30 8153 C 720.782 -0.751312 2.18229 0
M  V30 8154 C 721.752 -1.22297 1.12395 0
M  V30 8155 O 722.937 -1.29015 1.40569 0
M  V30 8156 C 720.077 -1.97291 2.83143 0
M  V30 8157 C 719.19 -1.54431 4.03454 0
M  V30 8158 C 718.325 -2.72 4.56278 0
M  V30 8159 C 717.364 -2.25657 5.68986 0
M  V30 8160 N 716.501 -3.36338 6.16296 0
M  V30 8161 H 721.341 -0.219033 2.97194 0
M  V30 8162 H 718.878 -0.0963803 1.46784 0
M  V30 8163 H 720.836 -2.68949 3.1894 0
M  V30 8164 H 719.466 -2.4788 2.06773 0
M  V30 8165 H 718.518 -0.724273 3.73441 0
M  V30 8166 H 719.83 -1.16417 4.85024 0
M  V30 8167 H 718.984 -3.51806 4.94285 0
M  V30 8168 H 717.723 -3.13277 3.73777 0
M  V30 8169 H 716.728 -1.44299 5.30526 0
M  V30 8170 H 717.953 -1.85432 6.53293 0
M  V30 8171 H 715.899 -3.7718 5.36723 0
M  V30 8172 H 715.816 -3.02435 6.9287 0
M  V30 8173 H 717.084 -4.16413 6.58954 0
M  V30 8174 N 721.313 -1.57302 -0.09688 0
M  V30 8175 C 722.56 -1.85997 -0.800699 0
M  V30 8176 C 722.888 -0.765089 -1.7882 0
M  V30 8177 O 722.143 0.241492 -1.94204 0
M  V30 8178 C 722.442 -3.21272 -1.56586 0
M  V30 8179 C 722.108 -4.45104 -0.72064 0
M  V30 8180 C 720.77 -4.78723 -0.487632 0
M  V30 8181 C 723.122 -5.2103 -0.132948 0
M  V30 8182 C 720.45 -5.85697 0.34296 0
M  V30 8183 C 722.802 -6.28881 0.684957 0
M  V30 8184 C 721.466 -6.61017 0.928073 0
M  V30 8185 H 720.736 -0.680613 -0.292997 0
M  V30 8186 H 723.383 -1.91399 -0.0622474 0
M  V30 8187 H 721.688 -3.11547 -2.37583 0
M  V30 8188 H 723.385 -3.40702 -2.11478 0
M  V30 8189 H 719.975 -4.18777 -0.912359 0
M  V30 8190 H 724.159 -4.95392 -0.300132 0
M  V30 8191 H 719.415 -6.09008 0.540317 0
M  V30 8192 H 723.589 -6.86886 1.14721 0
M  V30 8193 H 721.216 -7.43738 1.57348 0
M  V30 8194 N 722.791 0.367657 -1.53252 0
M  V30 8195 C 724.039 1.10832 -1.68999 0
M  V30 8196 C 724.36 1.89894 -0.443306 0
M  V30 8197 O 723.63 1.88235 0.54262 0
M  V30 8198 H 722.21 0.412153 -0.623008 0
M  V30 8199 H 724.872 0.414775 -1.90435 0
M  V30 8200 H 723.968 1.7993 -2.55013 0
M  V30 8201 N 724.269 1.44576 0.627338 0
M  V30 8202 C 725.179 1.54232 1.76776 0
M  V30 8203 C 726.195 0.427782 1.6866 0
M  V30 8204 O 727.371 0.685671 1.89369 0
M  V30 8205 C 724.436 1.48738 3.13174 0
M  V30 8206 C 723.497 2.71074 3.32893 0
M  V30 8207 C 722.73 2.65832 4.62784 0
M  V30 8208 O 722.953 1.72048 5.43834 0
M  V30 8209 O 721.887 3.56742 4.84787 0
M  V30 8210 H 725.713 2.50586 1.71582 0
M  V30 8211 H 723.298 1.26865 0.789028 0
M  V30 8212 H 725.18 1.48211 3.94476 0
M  V30 8213 H 723.855 0.555292 3.18902 0
M  V30 8214 H 722.762 2.77168 2.51254 0
M  V30 8215 H 724.095 3.63342 3.32029 0
M  V30 8216 N 725.747 -0.868086 1.31537 0
M  V30 8217 C 727.163 -1.15414 1.10235 0
M  V30 8218 C 727.363 -2.01106 -0.125947 0
M  V30 8219 O 726.419 -2.38994 -0.814734 0
M  V30 8220 C 727.732 -1.84445 2.37488 0
M  V30 8221 C 729.28 -1.97139 2.43116 0
M  V30 8222 C 729.755 -2.69585 3.70254 0
M  V30 8223 N 731.246 -2.77119 3.71159 0
M  V30 8224 C 731.981 -3.33791 4.6623 0
M  V30 8225 N 731.477 -3.9138 5.71659 0
M  V30 8226 N 733.27 -3.31767 4.53747 0
M  V30 8227 H 725.421 -0.297109 2.10312 0
M  V30 8228 H 727.684 -0.194227 0.92789 0
M  V30 8229 H 727.39 -1.2893 3.27215 0
M  V30 8230 H 727.264 -2.84709 2.47428 0
M  V30 8231 H 729.651 -2.51818 1.53856 0
M  V30 8232 H 729.732 -0.95912 2.37138 0
M  V30 8233 H 729.376 -2.15572 4.59881 0
M  V30 8234 H 729.306 -3.71223 3.73499 0
M  V30 8235 H 731.797 -2.3625 2.94948 0
M  V30 8236 H 732.11 -4.3274 6.40278 0
M  V30 8237 H 730.455 -3.8975 5.7543 0
M  V30 8238 H 733.646 -2.86016 3.70557 0
M  V30 8239 H 733.819 -3.75636 5.28017 0
M  V30 8240 N 727.225 -1.14528 -1.08264 0
M  V30 8241 C 728.455 -0.936604 -1.8415 0
M  V30 8242 C 728.863 0.518298 -1.81962 0
M  V30 8243 O 728.206 1.37096 -1.22272 0
M  V30 8244 C 728.268 -1.36182 -3.32708 0
M  V30 8245 C 727.932 -2.83257 -3.58629 0
M  V30 8246 C 728.929 -3.81366 -3.5335 0
M  V30 8247 C 726.614 -3.20704 -3.86593 0
M  V30 8248 C 728.608 -5.14929 -3.75668 0
M  V30 8249 C 726.295 -4.54443 -4.08564 0
M  V30 8250 C 727.293 -5.51365 -4.03095 0
M  V30 8251 O 726.981 -6.8269 -4.24488 0
M  V30 8252 H 726.713 -0.333254 -0.588148 0
M  V30 8253 H 729.267 -1.5247 -1.3763 0
M  V30 8254 H 727.497 -0.717063 -3.79994 0
M  V30 8255 H 729.186 -1.12372 -3.90035 0
M  V30 8256 H 729.952 -3.53781 -3.31759 0
M  V30 8257 H 725.831 -2.45857 -3.89969 0
M  V30 8258 H 729.375 -5.90568 -3.71315 0
M  V30 8259 H 725.272 -4.81747 -4.29639 0
M  V30 8260 H 726.04 -6.8897 -4.41886 0
M  V30 8261 N 728.703 1.26451 -0.940633 0
M  V30 8262 C 729.95 1.93778 -0.587909 0
M  V30 8263 C 730.278 1.73811 0.872935 0
M  V30 8264 O 729.533 1.06816 1.63978 0
M  V30 8265 C 729.832 3.46503 -0.875794 0
M  V30 8266 C 729.498 3.86609 -2.32043 0
M  V30 8267 C 728.16 3.97269 -2.71534 0
M  V30 8268 C 730.512 4.0672 -3.25927 0
M  V30 8269 C 727.84 4.25436 -4.04006 0
M  V30 8270 C 730.192 4.36375 -4.57995 0
M  V30 8271 C 728.856 4.45249 -4.97302 0
M  V30 8272 H 728.126 0.709084 -0.215131 0
M  V30 8273 H 730.773 1.50272 -1.18704 0
M  V30 8274 H 729.078 3.91319 -0.194124 0
M  V30 8275 H 730.775 3.96759 -0.581665 0
M  V30 8276 H 727.365 3.78858 -2.00411 0
M  V30 8277 H 731.549 3.97912 -2.96614 0
M  V30 8278 H 726.805 4.30519 -4.34124 0
M  V30 8279 H 730.979 4.50882 -5.30734 0
M  V30 8280 H 728.606 4.66829 -5.99979 0
M  V30 8281 N 730.181 0.707592 1.40822 0
M  V30 8282 C 731.129 0.0386643 2.32568 0
M  V30 8283 C 732.123 -0.755653 1.51612 0
M  V30 8284 O 733.329 -0.659921 1.67467 0
M  V30 8285 H 729.704 -0.00629912 0.751974 0
M  V30 8286 H 731.675 0.8293 2.86645 0
M  V30 8287 C 730.424 -0.87496 3.36511 0
M  V30 8288 H 729.747 -0.273157 3.98866 0
M  V30 8289 H 731.187 -1.31111 4.03219 0
M  V30 8290 C 729.646 -1.99672 2.71353 0
M  V30 8291 O 730.176 -3.08676 2.57064 0
M  V30 8292 N 728.382 -1.77799 2.29861 0
M  V30 8293 H 727.929 -0.89147 2.41683 0
M  V30 8294 H 727.887 -2.53036 1.86601 0
M  V30 8295 N 731.66 -1.50943 0.453197 0
M  V30 8296 C 732.909 -2.01402 -0.10951 0
M  V30 8297 C 733.222 -1.3411 -1.42386 0
M  V30 8298 O 734.428 -1.75626 -2.07045 0
M  V30 8299 C 732.884 -3.5906 -0.245693 0
M  V30 8300 C 732.492 -4.353 1.05916 0
M  V30 8301 C 734.236 -4.17617 -0.761318 0
M  V30 8302 C 732.143 -5.84699 0.887752 0
M  V30 8303 H 731.073 -0.752674 -0.0447013 0
M  V30 8304 H 733.724 -1.73913 0.585375 0
M  V30 8305 H 732.106 -3.83062 -1.00395 0
M  V30 8306 H 733.28 -4.23034 1.82698 0
M  V30 8307 H 731.595 -3.88269 1.50452 0
M  V30 8308 H 734.192 -5.26963 -0.906306 0
M  V30 8309 H 734.535 -3.77824 -1.74799 0
M  V30 8310 H 735.068 -3.97753 -0.0609416 0
M  V30 8311 H 731.807 -6.28933 1.84726 0
M  V30 8312 H 731.327 -5.99587 0.160006 0
M  V30 8313 H 733.006 -6.44682 0.547223 0
M  V30 8314 N 733.138 -0.185124 -1.56509 0
M  V30 8315 C 734.554 0.170865 -1.58683 0
M  V30 8316 C 734.754 1.61799 -1.20098 0
M  V30 8317 O 733.81 2.35181 -0.919038 0
M  V30 8318 C 735.123 -0.122459 -3.00451 0
M  V30 8319 C 736.671 -0.0617699 -3.12939 0
M  V30 8320 C 737.146 -0.328269 -4.56822 0
M  V30 8321 N 738.637 -0.276533 -4.62374 0
M  V30 8322 C 739.372 -0.456722 -5.71578 0
M  V30 8323 N 738.868 -0.69672 -6.89288 0
M  V30 8324 N 740.661 -0.391669 -5.60734 0
M  V30 8325 H 732.812 -1.12956 -1.79874 0
M  V30 8326 H 735.075 -0.45011 -0.834329 0
M  V30 8327 H 734.781 -1.12546 -3.33206 0
M  V30 8328 H 734.655 0.579578 -3.72721 0
M  V30 8329 H 737.042 0.931826 -2.80002 0
M  V30 8330 H 737.123 -0.796732 -2.43076 0
M  V30 8331 H 736.767 -1.31914 -4.9047 0
M  V30 8332 H 736.697 0.427465 -5.24862 0
M  V30 8333 H 739.188 -0.0972458 -3.77775 0
M  V30 8334 H 739.501 -0.823291 -7.68402 0
M  V30 8335 H 737.846 -0.733497 -6.91119 0
M  V30 8336 H 741.037 -0.204663 -4.67652 0
M  V30 8337 H 741.21 -0.535518 -6.45783 0
M  V30 8338 N 734.616 1.57351 0.0885366 0
M  V30 8339 C 735.863 1.86419 0.790824 0
M  V30 8340 C 736.191 0.774561 1.78412 0
M  V30 8341 O 735.446 -0.23119 1.9433 0
M  V30 8342 C 735.745 3.22098 1.5488 0
M  V30 8343 C 735.411 4.4548 0.697025 0
M  V30 8344 C 734.073 4.78975 0.462237 0
M  V30 8345 C 736.425 5.21094 0.105315 0
M  V30 8346 C 733.753 5.85507 -0.374016 0
M  V30 8347 C 736.105 6.28509 -0.718298 0
M  V30 8348 C 734.769 6.60515 -0.963116 0
M  V30 8349 H 734.039 0.682157 0.289383 0
M  V30 8350 H 736.686 1.91429 0.0520961 0
M  V30 8351 H 734.991 3.12803 2.35927 0
M  V30 8352 H 736.688 3.41819 2.09669 0
M  V30 8353 H 733.278 4.19255 0.890137 0
M  V30 8354 H 737.462 4.95544 0.273856 0
M  V30 8355 H 732.718 6.08713 -0.572606 0
M  V30 8356 H 736.892 6.86268 -1.18362 0
M  V30 8357 H 734.519 7.42893 -1.6129 0
M  V30 8358 N 736.094 -0.359525 1.53444 0
M  V30 8359 C 737.319 -1.12644 1.74144 0
M  V30 8360 C 737.744 -1.82082 0.472007 0
M  V30 8361 O 737.102 -1.71962 -0.57436 0
M  V30 8362 C 737.15 -2.12781 2.9113 0
M  V30 8363 O 736.254 -3.19984 2.60162 0
M  V30 8364 H 735.595 -0.326553 0.578152 0
M  V30 8365 H 738.125 -0.414798 2.00351 0
M  V30 8366 H 738.135 -2.56278 3.17467 0
M  V30 8367 H 736.81 -1.61634 3.83207 0
M  V30 8368 H 735.387 -2.81417 2.44661 0
M  V30 8369 N 737.572 -1.44907 -0.619662 0
M  V30 8370 C 738.983 -1.42905 -1.20146 0
M  V30 8371 C 739.334 -0.150341 -1.95623 0
M  V30 8372 O 738.459 0.748732 -2.03034 0
M  V30 8373 C 739.054 -2.58889 -2.18545 0
M  V30 8374 C 737.613 -2.60046 -2.72127 0
M  V30 8375 C 736.76 -2.3493 -1.4732 0
M  V30 8376 H 739.711 -1.53321 -0.409666 0
M  V30 8377 H 739.732 -2.32298 -3.0136 0
M  V30 8378 H 739.244 -3.51941 -1.63583 0
M  V30 8379 H 737.345 -1.70968 -3.3106 0
M  V30 8380 H 737.458 -3.58893 -3.17384 0
M  V30 8381 H 735.822 -1.84248 -1.75855 0
M  V30 8382 H 736.605 -3.3011 -0.942442 0
M  V30 8383 N 739.05 0.861098 -1.31996 0
M  V30 8384 C 740.297 1.61481 -1.22188 0
M  V30 8385 C 740.625 1.93276 0.217853 0
M  V30 8386 O 739.88 1.56942 1.16909 0
M  V30 8387 C 740.179 2.94822 -2.02027 0
M  V30 8388 C 739.845 2.82483 -3.51446 0
M  V30 8389 C 738.507 2.78825 -3.92186 0
M  V30 8390 C 740.859 2.68878 -4.46491 0
M  V30 8391 C 738.187 2.59433 -5.26224 0
M  V30 8392 C 740.539 2.51022 -5.80664 0
M  V30 8393 C 739.203 2.45753 -6.20614 0
M  V30 8394 H 738.473 0.590902 -0.447119 0
M  V30 8395 H 741.12 0.999376 -1.63355 0
M  V30 8396 H 739.425 3.6045 -1.53569 0
M  V30 8397 H 741.122 3.52149 -1.91812 0
M  V30 8398 H 737.712 2.86152 -3.19085 0
M  V30 8399 H 741.896 2.70754 -4.1594 0
M  V30 8400 H 737.152 2.53784 -5.5624 0
M  V30 8401 H 741.326 2.39473 -6.53931 0
M  V30 8402 H 738.953 2.30485 -7.24417 0
M  V30 8403 N 740.528 1.15101 1.07655 0
M  V30 8404 C 741.944 0.893004 1.32279 0
M  V30 8405 C 742.144 -0.461701 1.96139 0
M  V30 8406 O 741.2 -1.20431 2.21929 0
M  V30 8407 C 742.513 2.03161 2.21689 0
M  V30 8408 C 744.061 2.06579 2.35147 0
M  V30 8409 C 744.536 3.19754 3.27905 0
M  V30 8410 N 746.027 3.19382 3.35484 0
M  V30 8411 C 746.762 4.03592 4.07309 0
M  V30 8412 N 746.258 4.97859 4.81776 0
M  V30 8413 N 748.051 3.91626 4.03219 0
M  V30 8414 H 740.202 2.02341 0.645886 0
M  V30 8415 H 742.465 0.882127 0.347211 0
M  V30 8416 H 742.171 3.00934 1.82021 0
M  V30 8417 H 742.045 1.96132 3.22199 0
M  V30 8418 H 744.432 1.09408 2.74069 0
M  V30 8419 H 744.513 2.17676 1.34353 0
M  V30 8420 H 744.157 4.17175 2.89702 0
M  V30 8421 H 744.087 3.05893 4.28645 0
M  V30 8422 H 746.578 2.51112 2.82403 0
M  V30 8423 H 746.891 5.58563 5.34067 0
M  V30 8424 H 745.236 5.0185 4.80803 0
M  V30 8425 H 748.427 3.17295 3.44154 0
M  V30 8426 H 748.6 4.57479 4.5893 0
M  V30 8427 N 742.006 -1.2595 0.947325 0
M  V30 8428 C 742.954 -2.28152 0.452687 0
M  V30 8429 C 743.948 -1.62655 -0.473239 0
M  V30 8430 O 745.154 -1.76549 -0.350774 0
M  V30 8431 H 741.529 -0.741049 0.12787 0
M  V30 8432 H 743.5 -2.67267 1.32707 0
M  V30 8433 C 742.249 -3.46719 -0.26098 0
M  V30 8434 H 741.572 -3.97345 0.442352 0
M  V30 8435 H 743.012 -4.20135 -0.571208 0
M  V30 8436 C 741.471 -3.02605 -1.48094 0
M  V30 8437 O 742.001 -3.07979 -2.57899 0
M  V30 8438 N 740.207 -2.57877 -1.33969 0
M  V30 8439 H 739.754 -2.53704 -0.446295 0
M  V30 8440 H 739.712 -2.28725 -2.15713 0
M  V30 8441 N 743.484 -0.715051 -1.40445 0
M  V30 8442 C 744.447 -0.0708726 -2.2909 0
M  V30 8443 C 745.447 0.687926 -1.45342 0
M  V30 8444 O 746.637 0.519908 -1.66261 0
M  V30 8445 C 743.769 0.909528 -3.28543 0
M  V30 8446 H 744.962 -0.851611 -2.87555 0
M  V30 8447 H 742.515 -0.479674 -1.48758 0
M  V30 8448 H 743.25 1.71734 -2.75096 0
M  V30 8449 H 743.035 0.368318 -3.90366 0
M  V30 8450 H 744.525 1.35744 -3.94922 0
M  V30 8451 N 744.962 1.50701 -0.461195 0
M  V30 8452 C 745.909 2.2831 0.338094 0
M  V30 8453 C 746.879 1.32928 0.995957 0
M  V30 8454 O 748.064 1.61857 1.0103 0
M  V30 8455 C 745.204 3.14539 1.41983 0
M  V30 8456 C 744.317 4.24942 0.77773 0
M  V30 8457 C 743.452 4.98443 1.83652 0
M  V30 8458 C 742.491 6.00733 1.17413 0
M  V30 8459 N 741.628 6.6755 2.17533 0
M  V30 8460 H 746.468 2.96167 -0.330051 0
M  V30 8461 H 744.005 1.4606 -0.174611 0
M  V30 8462 H 745.963 3.62877 2.05855 0
M  V30 8463 H 744.593 2.48749 2.05727 0
M  V30 8464 H 743.645 3.80391 0.0266924 0
M  V30 8465 H 744.957 4.98151 0.254362 0
M  V30 8466 H 744.111 5.50449 2.55129 0
M  V30 8467 H 742.85 4.24917 2.39367 0
M  V30 8468 H 741.855 5.47997 0.444944 0
M  V30 8469 H 743.08 6.76227 0.624006 0
M  V30 8470 H 741.026 5.96823 2.72284 0
M  V30 8471 H 740.943 7.36603 1.70154 0
M  V30 8472 H 742.211 7.24178 2.88421 0
M  V30 8473 N 746.441 0.193421 1.56409 0
M  V30 8474 C 747.669 -0.451438 2.01915 0
M  V30 8475 C 748.084 -1.55306 1.07357 0
M  V30 8476 O 747.441 -1.82333 0.0781512 0
M  V30 8477 C 747.492 -1.00931 3.47124 0
M  V30 8478 O 747.213 0.0483623 4.38073 0
M  V30 8479 C 748.714 -1.73021 4.0814 0
M  V30 8480 H 745.934 -0.113495 0.661332 0
M  V30 8481 H 748.478 0.301636 2.02263 0
M  V30 8482 H 746.633 -1.71277 3.47481 0
M  V30 8483 H 747.047 -0.366644 5.23217 0
M  V30 8484 H 748.521 -2.07289 5.11601 0
M  V30 8485 H 748.998 -2.6333 3.51502 0
M  V30 8486 H 749.604 -1.07264 4.11551 0
M  V30 8487 N 747.919 -1.57396 -0.0801906 0
M  V30 8488 C 748.851 -1.9982 -1.12271 0
M  V30 8489 C 749.864 -0.902902 -1.35468 0
M  V30 8490 O 751.053 -1.18088 -1.33856 0
M  V30 8491 C 748.153 -2.31476 -2.47532 0
M  V30 8492 C 747.326 -3.62745 -2.44407 0
M  V30 8493 C 746.385 -3.82168 -3.6171 0
M  V30 8494 O 745.411 -4.53852 -3.43522 0
M  V30 8495 N 746.613 -3.2388 -4.81749 0
M  V30 8496 H 749.378 -2.89864 -0.761501 0
M  V30 8497 H 746.939 -1.5965 -0.268965 0
M  V30 8498 H 748.931 -2.4165 -3.24634 0
M  V30 8499 H 747.501 -1.47364 -2.75686 0
M  V30 8500 H 746.721 -3.63403 -1.52747 0
M  V30 8501 H 748.009 -4.48954 -2.39412 0
M  V30 8502 H 747.407 -2.6568 -4.9943 0
M  V30 8503 H 745.964 -3.39515 -5.56392 0
M  V30 8504 N 749.397 0.351382 -1.53633 0
M  V30 8505 C 750.327 1.43688 -1.84055 0
M  V30 8506 C 751.308 1.55251 -0.695073 0
M  V30 8507 O 752.493 1.69587 -0.946257 0
M  V30 8508 C 749.623 2.80843 -2.04315 0
M  V30 8509 C 748.577 2.84094 -3.20117 0
M  V30 8510 C 747.903 4.2406 -3.25696 0
M  V30 8511 C 749.203 2.50334 -4.58399 0
M  V30 8512 H 750.897 1.18478 -2.74961 0
M  V30 8513 H 748.443 0.568509 -1.32303 0
M  V30 8514 H 750.396 3.56821 -2.2418 0
M  V30 8515 H 749.12 3.07471 -1.10132 0
M  V30 8516 H 747.779 2.10568 -3.00094 0
M  V30 8517 H 747.427 4.47785 -2.29123 0
M  V30 8518 H 747.127 4.27147 -4.03509 0
M  V30 8519 H 748.651 5.0189 -3.47762 0
M  V30 8520 H 750.065 3.16025 -4.78332 0
M  V30 8521 H 748.462 2.64717 -5.38558 0
M  V30 8522 H 749.532 1.45542 -4.62543 0
M  V30 8523 N 750.875 1.45233 0.611969 0
M  V30 8524 C 751.805 1.5641 1.73373 0
M  V30 8525 C 752.786 0.415896 1.64937 0
M  V30 8526 O 753.971 0.638478 1.83404 0
M  V30 8527 C 751.101 1.52627 3.11965 0
M  V30 8528 C 750.055 2.66119 3.35208 0
M  V30 8529 C 749.381 2.4739 4.74028 0
M  V30 8530 C 750.681 4.08157 3.25891 0
M  V30 8531 H 752.375 2.50307 1.64277 0
M  V30 8532 H 749.921 1.20467 0.788904 0
M  V30 8533 H 751.874 1.59043 3.90235 0
M  V30 8534 H 750.598 0.552564 3.21892 0
M  V30 8535 H 749.257 2.59123 2.59327 0
M  V30 8536 H 748.905 1.48168 4.80682 0
M  V30 8537 H 748.605 3.23494 4.90536 0
M  V30 8538 H 750.129 2.55653 5.54503 0
M  V30 8539 H 751.543 4.1642 3.9404 0
M  V30 8540 H 749.94 4.84617 3.5393 0
M  V30 8541 H 751.01 4.30374 2.23397 0
M  V30 8542 N 752.353 -0.854086 1.3245 0
M  V30 8543 C 753.263 -1.99503 1.23434 0
M  V30 8544 C 754.279 -1.73371 0.147828 0
M  V30 8545 O 755.455 -1.97998 0.368609 0
M  V30 8546 C 752.52 -3.33192 0.958328 0
M  V30 8547 C 751.581 -3.72542 2.13333 0
M  V30 8548 C 750.814 -4.99852 1.8704 0
M  V30 8549 O 751.037 -5.64573 0.813239 0
M  V30 8550 O 749.971 -5.36345 2.73161 0
M  V30 8551 H 753.797 -2.10046 2.1935 0
M  V30 8552 H 751.382 -0.984823 1.12346 0
M  V30 8553 H 753.264 -4.13327 0.820918 0
M  V30 8554 H 751.939 -3.23687 0.0293299 0
M  V30 8555 H 750.846 -2.92981 2.32622 0
M  V30 8556 H 752.179 -3.86694 3.04514 0
M  V30 8557 N 753.831 -1.1567 -1.07043 0
M  V30 8558 C 755.079 -0.931673 -1.79344 0
M  V30 8559 C 755.4 0.542421 -1.87304 0
M  V30 8560 O 754.67 1.39418 -1.37621 0
M  V30 8561 H 753.25 -0.34171 -0.664262 0
M  V30 8562 H 755.912 -1.45795 -1.29344 0
M  V30 8563 H 755.008 -1.34379 -2.81689 0
M  V30 8564 N 755.309 1.25446 -0.953992 0
M  V30 8565 C 756.555 1.9343 -0.60933 0
M  V30 8566 C 756.888 1.74542 0.851388 0
M  V30 8567 O 756.163 1.09014 1.61078 0
M  V30 8568 C 756.446 3.46844 -0.968041 0
M  V30 8569 C 756.299 3.74961 -2.48444 0
M  V30 8570 C 757.618 4.37334 -0.492641 0
M  V30 8571 H 754.737 0.702502 -0.222844 0
M  V30 8572 H 757.379 1.48076 -1.19053 0
M  V30 8573 H 755.529 3.85604 -0.473465 0
M  V30 8574 H 757.201 3.45841 -3.05273 0
M  V30 8575 H 755.444 3.20589 -2.92241 0
M  V30 8576 H 756.115 4.82246 -2.68594 0
M  V30 8577 H 758.591 4.05873 -0.916878 0
M  V30 8578 H 757.467 5.43439 -0.772331 0
M  V30 8579 H 757.728 4.37908 0.607403 0
M  V30 8580 N 756.787 0.722489 1.40064 0
M  V30 8581 C 758.036 0.261932 1.99992 0
M  V30 8582 C 758.349 -1.15358 1.57961 0
M  V30 8583 O 759.555 -1.71301 2.10637 0
M  V30 8584 C 758.011 0.41737 3.57472 0
M  V30 8585 C 757.619 1.83997 4.08472 0
M  V30 8586 C 759.363 0.0179561 4.24496 0
M  V30 8587 C 757.27 1.94563 5.5848 0
M  V30 8588 H 756.2 0.0941768 0.748095 0
M  V30 8589 H 758.851 0.894572 1.60218 0
M  V30 8590 H 757.233 -0.283965 3.94981 0
M  V30 8591 H 758.407 2.57224 3.82325 0
M  V30 8592 H 756.722 2.19147 3.54067 0
M  V30 8593 H 759.319 0.076085 5.34646 0
M  V30 8594 H 759.662 -1.02498 4.03485 0
M  V30 8595 H 760.195 0.669988 3.92117 0
M  V30 8596 H 756.934 2.97001 5.84355 0
M  V30 8597 H 756.454 1.25756 5.86469 0
M  V30 8598 H 758.133 1.72095 6.23692 0
M  V30 8599 N 758.265 -1.50454 0.469181 0
M  V30 8600 C 759.514 -2.01507 -0.0881425 0
M  V30 8601 C 759.827 -1.35613 -1.40956 0
M  V30 8602 O 761.033 -1.77812 -2.05171 0
M  V30 8603 C 759.489 -3.59301 -0.207596 0
M  V30 8604 C 759.097 -4.34152 1.10527 0
M  V30 8605 C 760.841 -4.18401 -0.716981 0
M  V30 8606 C 758.748 -5.83725 0.949717 0
M  V30 8607 H 757.678 -0.753106 -0.0367156 0
M  V30 8608 H 760.329 -1.73282 0.603788 0
M  V30 8609 H 758.711 -3.84106 -0.963265 0
M  V30 8610 H 759.885 -4.21073 1.87175 0
M  V30 8611 H 758.2 -3.86652 1.54562 0
M  V30 8612 H 760.797 -5.27895 -0.850363 0
M  V30 8613 H 761.14 -3.79657 -1.70782 0
M  V30 8614 H 761.673 -3.97796 -0.0187511 0
M  V30 8615 H 758.412 -6.26938 1.91387 0
M  V30 8616 H 757.932 -5.99383 0.223591 0
M  V30 8617 H 759.611 -6.44065 0.61557 0
M  V30 8618 N 759.743 -0.201713 -1.56304 0
M  V30 8619 C 760.971 0.440723 -2.02152 0
M  V30 8620 C 761.386 1.54735 -1.08179 0
M  V30 8621 O 760.743 1.82289 -0.0878196 0
M  V30 8622 C 760.794 0.990884 -3.47655 0
M  V30 8623 O 760.515 -0.0715937 -4.38041 0
M  V30 8624 C 762.016 1.70854 -4.09052 0
M  V30 8625 H 759.236 0.109987 -0.661924 0
M  V30 8626 H 761.78 -0.312358 -2.021 0
M  V30 8627 H 759.935 1.69432 -3.48384 0
M  V30 8628 H 760.349 0.338892 -5.23404 0
M  V30 8629 H 761.823 2.04572 -5.12693 0
M  V30 8630 H 762.3 2.61462 -3.52894 0
M  V30 8631 H 762.906 1.0508 -4.12114 0
M  V30 8632 N 761.222 1.57436 0.0718424 0
M  V30 8633 C 762.471 1.86431 0.769826 0
M  V30 8634 C 762.784 0.794355 1.78744 0
M  V30 8635 O 763.99 0.972148 2.53499 0
M  V30 8636 C 762.446 3.307 1.42006 0
M  V30 8637 C 762.054 4.45824 0.441017 0
M  V30 8638 C 763.798 3.68894 2.10041 0
M  V30 8639 C 761.705 5.81134 1.09717 0
M  V30 8640 H 760.635 0.695474 0.291259 0
M  V30 8641 H 763.286 1.83485 0.0231224 0
M  V30 8642 H 761.668 3.28257 2.21502 0
M  V30 8643 H 762.842 4.59659 -0.32413 0
M  V30 8644 H 761.157 4.16181 -0.134886 0
M  V30 8645 H 763.754 4.67281 2.59908 0
M  V30 8646 H 764.097 2.98692 2.89981 0
M  V30 8647 H 764.63 3.73326 1.37376 0
M  V30 8648 H 761.369 6.54628 0.338095 0
M  V30 8649 H 760.889 5.711 1.83317 0
M  V30 8650 H 762.568 6.26468 1.617 0
M  V30 8651 N 762.7 -0.34323 1.53817 0
M  V30 8652 C 763.977 -1.10047 1.61706 0
M  V30 8653 C 764.357 -2.06495 0.438514 0
M  V30 8654 O 763.705 -2.21297 -0.569188 0
M  V30 8655 C 763.915 -1.81985 2.97796 0
M  V30 8656 C 765.263 -2.35717 3.53161 0
M  V30 8657 O 766.287 -1.9208 2.99973 0
M  V30 8658 O 765.146 -3.15551 4.46195 0
M  V30 8659 H 762.24 -0.506096 0.654061 0
M  V30 8660 H 764.786 -0.344697 1.66162 0
M  V30 8661 H 763.558 -1.11722 3.75012 0
M  V30 8662 H 763.181 -2.64419 2.96931 0
M  V30 8663 N 764.178 -1.45556 -0.604258 0
M  V30 8664 C 765.455 -1.40221 -1.36373 0
M  V30 8665 C 765.835 -0.0745195 -2.10968 0
M  V30 8666 O 765.183 0.943594 -2.08107 0
M  V30 8667 C 765.393 -2.61807 -2.30777 0
M  V30 8668 C 766.741 -3.07037 -2.93281 0
M  V30 8669 O 767.765 -2.62203 -2.41097 0
M  V30 8670 O 766.624 -3.8485 -3.88011 0
M  V30 8671 H 763.718 -0.556602 -0.611656 0
M  V30 8672 H 766.264 -1.57689 -0.627069 0
M  V30 8673 H 765.036 -3.50017 -1.74939 0
M  V30 8674 H 764.659 -2.46688 -3.11818 0
M  V30 8675 N 765.656 0.84705 -1.32902 0
M  V30 8676 C 766.902 1.60414 -1.24078 0
M  V30 8677 C 767.235 1.93217 0.195105 0
M  V30 8678 O 766.51 1.58001 1.13428 0
M  V30 8679 C 766.793 2.91951 -2.108 0
M  V30 8680 C 766.646 2.6588 -3.62805 0
M  V30 8681 C 767.965 3.93299 -1.97494 0
M  V30 8682 H 765.084 0.58206 -0.452079 0
M  V30 8683 H 767.726 0.977562 -1.62922 0
M  V30 8684 H 765.876 3.45425 -1.77802 0
M  V30 8685 H 767.548 2.18902 -4.06054 0
M  V30 8686 H 765.791 1.99716 -3.85092 0
M  V30 8687 H 766.462 3.59574 -4.1882 0
M  V30 8688 H 768.938 3.49105 -2.26417 0
M  V30 8689 H 767.814 4.8318 -2.60438 0
M  V30 8690 H 768.075 4.31887 -0.944782 0
M  V30 8691 N 767.134 1.16236 1.06428 0
M  V30 8692 C 768.362 0.967184 1.82902 0
M  V30 8693 C 768.777 -0.484601 1.82475 0
M  V30 8694 O 768.134 -1.33631 1.24294 0
M  V30 8695 C 768.185 1.48534 3.29576 0
M  V30 8696 O 767.906 2.88026 3.3011 0
M  V30 8697 C 769.407 1.33298 4.22784 0
M  V30 8698 H 766.627 0.342923 0.576754 0
M  V30 8699 H 769.171 1.54232 1.34286 0
M  V30 8700 H 767.326 0.952513 3.75508 0
M  V30 8701 H 767.74 3.11721 4.21818 0
M  V30 8702 H 769.214 1.74385 5.23731 0
M  V30 8703 H 769.691 0.278356 4.38317 0
M  V30 8704 H 770.297 1.85535 3.82697 0
M  V30 8705 N 768.612 -1.24939 0.960631 0
M  V30 8706 C 769.522 -2.29374 0.492435 0
M  V30 8707 C 770.538 -1.68262 -0.443154 0
M  V30 8708 O 771.714 -1.98875 -0.31793 0
M  V30 8709 C 768.779 -3.46023 -0.216626 0
M  V30 8710 C 767.84 -4.22557 0.757915 0
M  V30 8711 C 767.073 -5.33636 0.0825969 0
M  V30 8712 O 767.296 -5.59084 -1.13054 0
M  V30 8713 O 766.23 -5.96939 0.771177 0
M  V30 8714 H 770.056 -2.71525 1.36044 0
M  V30 8715 H 767.641 -1.30499 0.72735 0
M  V30 8716 H 769.523 -4.16885 -0.615241 0
M  V30 8717 H 768.198 -3.05862 -1.05971 0
M  V30 8718 H 767.105 -3.54099 1.20685 0
M  V30 8719 H 768.438 -4.66516 1.5692 0
M  V30 8720 N 770.09 -0.729906 -1.39679 0
M  V30 8721 C 771.02 -0.101618 -2.33279 0
M  V30 8722 C 772.001 0.729854 -1.53646 0
M  V30 8723 O 773.186 0.67587 -1.82059 0
M  V30 8724 C 770.316 0.81024 -3.37716 0
M  V30 8725 C 769.27 0.0833126 -4.27919 0
M  V30 8726 C 768.596 1.11185 -5.23012 0
M  V30 8727 C 769.896 -1.07107 -5.112 0
M  V30 8728 H 771.59 -0.883452 -2.86069 0
M  V30 8729 H 769.136 -0.426283 -1.37546 0
M  V30 8730 H 771.089 1.25927 -4.02145 0
M  V30 8731 H 769.813 1.62413 -2.83354 0
M  V30 8732 H 768.472 -0.346043 -3.64963 0
M  V30 8733 H 768.12 1.91917 -4.64948 0
M  V30 8734 H 767.82 0.63026 -5.8421 0
M  V30 8735 H 769.344 1.56068 -5.90318 0
M  V30 8736 H 770.758 -0.700726 -5.69002 0
M  V30 8737 H 769.155 -1.48196 -5.81514 0
M  V30 8738 H 770.225 -1.89513 -4.46332 0
M  V30 8739 N 771.568 1.50203 -0.477153 0
M  V30 8740 C 772.798 2.0647 0.0731427 0
M  V30 8741 C 773.206 1.3405 1.33518 0
M  V30 8742 O 772.549 0.405164 1.79176 0
M  V30 8743 C 772.611 3.57025 0.421121 0
M  V30 8744 C 772.275 4.50973 -0.739765 0
M  V30 8745 C 773.272 4.939 -1.62353 0
M  V30 8746 C 770.957 4.93581 -0.93181 0
M  V30 8747 C 772.951 5.78149 -2.6837 0
M  V30 8748 C 770.638 5.77612 -1.99519 0
M  V30 8749 C 771.636 6.19798 -2.86949 0
M  V30 8750 O 771.324 7.02152 -3.91456 0
M  V30 8751 H 771.056 0.675969 -0.00648243 0
M  V30 8752 H 773.61 1.94278 -0.66673 0
M  V30 8753 H 771.84 3.67141 1.21426 0
M  V30 8754 H 773.529 3.95632 0.907213 0
M  V30 8755 H 774.295 4.61646 -1.48687 0
M  V30 8756 H 770.174 4.60262 -0.260739 0
M  V30 8757 H 773.718 6.10997 -3.36643 0
M  V30 8758 H 769.615 6.09279 -2.13189 0
M  V30 8759 H 770.383 7.20414 -3.88518 0
M  V30 8760 N 773.046 0.209999 1.56195 0
M  V30 8761 C 773.993 -0.704854 2.19774 0
M  V30 8762 C 774.963 -1.19886 1.14964 0
M  V30 8763 O 776.148 -1.26005 1.43274 0
M  V30 8764 C 773.288 -1.91241 2.87265 0
M  V30 8765 C 772.401 -1.45838 4.06639 0
M  V30 8766 C 771.536 -2.6226 4.61945 0
M  V30 8767 C 770.575 -2.13537 5.73645 0
M  V30 8768 N 769.712 -3.2319 6.23292 0
M  V30 8769 H 774.552 -0.155944 2.97592 0
M  V30 8770 H 772.089 -0.0652235 1.46955 0
M  V30 8771 H 774.047 -2.62123 3.24573 0
M  V30 8772 H 772.677 -2.43439 2.11985 0
M  V30 8773 H 771.729 -0.644897 3.74894 0
M  V30 8774 H 773.041 -1.06103 4.87384 0
M  V30 8775 H 772.195 -3.41243 5.01636 0
M  V30 8776 H 770.934 -3.05278 3.80338 0
M  V30 8777 H 769.939 -1.33013 5.33468 0
M  V30 8778 H 771.164 -1.71533 6.57079 0
M  V30 8779 H 769.11 -3.65711 5.44602 0
M  V30 8780 H 769.027 -2.8767 6.99129 0
M  V30 8781 H 770.295 -4.02342 6.67639 0
M  V30 8782 N 774.524 -1.57472 -0.0634922 0
M  V30 8783 C 775.754 -1.91608 -0.772645 0
M  V30 8784 C 776.162 -0.805019 -1.71219 0
M  V30 8785 O 775.505 0.229941 -1.82255 0
M  V30 8786 C 775.567 -3.21281 -1.61304 0
M  V30 8787 C 775.231 -4.49177 -0.841973 0
M  V30 8788 C 776.228 -5.19661 -0.157494 0
M  V30 8789 C 773.913 -4.9578 -0.80669 0
M  V30 8790 C 775.907 -6.35006 0.551948 0
M  V30 8791 C 773.594 -6.11028 -0.0934812 0
M  V30 8792 C 774.592 -6.80493 0.58463 0
M  V30 8793 O 774.28 -7.93542 1.28633 0
M  V30 8794 H 774.012 -0.637685 -0.224352 0
M  V30 8795 H 776.566 -2.05369 -0.0355279 0
M  V30 8796 H 774.796 -3.03752 -2.39315 0
M  V30 8797 H 776.485 -3.41003 -2.20162 0
M  V30 8798 H 777.251 -4.84681 -0.176006 0
M  V30 8799 H 773.13 -4.41579 -1.32397 0
M  V30 8800 H 776.674 -6.89161 1.0818 0
M  V30 8801 H 772.571 -6.45459 -0.0729258 0
M  V30 8802 H 773.339 -8.09708 1.19646 0
M  V30 8803 N 776.003 0.335068 -1.53997 0
M  V30 8804 C 776.913 1.43511 -1.85585 0
M  V30 8805 C 777.929 1.57162 -0.746726 0
M  V30 8806 O 779.105 1.72477 -1.03988 0
M  V30 8807 C 776.17 2.78386 -2.06646 0
M  V30 8808 C 775.231 2.74007 -3.30483 0
M  V30 8809 C 774.464 4.02449 -3.50529 0
M  V30 8810 O 774.687 5.00147 -2.74242 0
M  V30 8811 O 773.621 4.06405 -4.4398 0
M  V30 8812 H 777.447 1.19731 -2.79102 0
M  V30 8813 H 775.032 0.528033 -1.39758 0
M  V30 8814 H 776.914 3.58247 -2.21894 0
M  V30 8815 H 775.589 3.0208 -1.16317 0
M  V30 8816 H 774.496 1.92736 -3.2063 0
M  V30 8817 H 775.829 2.55267 -4.20832 0
M  V30 8818 N 777.481 1.45874 0.596531 0
M  V30 8819 C 778.391 1.57947 1.73464 0
M  V30 8820 C 779.407 0.463461 1.67714 0
M  V30 8821 O 780.583 0.725685 1.87872 0
M  V30 8822 C 777.648 1.55348 3.09948 0
M  V30 8823 C 776.709 2.78074 3.27068 0
M  V30 8824 C 775.942 2.75589 4.57041 0
M  V30 8825 O 776.165 1.83545 5.40063 0
M  V30 8826 O 775.099 3.66945 4.77111 0
M  V30 8827 H 778.925 2.54169 1.66228 0
M  V30 8828 H 776.51 1.2851 0.76194 0
M  V30 8829 H 778.392 1.56545 3.91244 0
M  V30 8830 H 777.067 0.622811 3.17652 0
M  V30 8831 H 775.974 2.82435 2.45319 0
M  V30 8832 H 777.307 3.70303 3.24248 0
M  V30 8833 N 778.959 -0.83999 1.33349 0
M  V30 8834 C 779.869 -1.98182 1.25543 0
M  V30 8835 C 780.885 -1.73204 0.166208 0
M  V30 8836 O 782.061 -1.97596 0.389589 0
M  V30 8837 C 779.126 -3.32157 0.993614 0
M  V30 8838 C 778.187 -3.70258 2.17273 0
M  V30 8839 C 777.42 -4.9784 1.92331 0
M  V30 8840 O 777.643 -5.63679 0.873074 0
M  V30 8841 O 776.577 -5.33418 2.78835 0
M  V30 8842 H 780.403 -2.07708 2.21565 0
M  V30 8843 H 777.988 -0.972852 1.13384 0
M  V30 8844 H 779.87 -4.12433 0.864711 0
M  V30 8845 H 778.545 -3.23637 0.0636596 0
M  V30 8846 H 777.452 -2.90497 2.35716 0
M  V30 8847 H 778.785 -3.83442 3.08598 0
M  V30 8848 N 780.437 -1.16799 -1.0581 0
M  V30 8849 C 781.853 -0.913935 -1.30841 0
M  V30 8850 C 782.053 0.430439 -1.96849 0
M  V30 8851 O 781.109 1.16885 -2.23817 0
M  V30 8852 C 782.422 -2.06662 -2.18429 0
M  V30 8853 C 783.97 -2.10294 -2.31831 0
M  V30 8854 C 784.445 -3.2493 -3.22776 0
M  V30 8855 N 785.936 -3.24678 -3.30361 0
M  V30 8856 C 786.671 -4.10021 -4.00837 0
M  V30 8857 N 786.167 -5.05461 -4.73795 0
M  V30 8858 N 787.96 -3.97991 -3.96937 0
M  V30 8859 H 780.111 -2.03343 -0.613613 0
M  V30 8860 H 782.374 -0.88754 -0.333133 0
M  V30 8861 H 782.08 -3.03791 -1.77211 0
M  V30 8862 H 781.954 -2.01233 -3.19038 0
M  V30 8863 H 784.341 -1.13754 -2.72294 0
M  V30 8864 H 784.422 -2.19786 -1.30873 0
M  V30 8865 H 784.066 -4.21731 -2.83028 0
M  V30 8866 H 783.996 -3.12674 -4.23725 0
M  V30 8867 H 786.487 -2.55573 -2.78372 0
M  V30 8868 H 786.8 -5.66989 -5.25113 0
M  V30 8869 H 785.145 -5.09436 -4.72758 0
M  V30 8870 H 788.336 -3.2273 -3.39062 0
M  V30 8871 H 788.509 -4.64722 -4.51594 0
M  V30 8872 N 781.915 1.24427 -0.967243 0
M  V30 8873 C 782.862 2.25398 -0.496419 0
M  V30 8874 C 783.832 1.59667 0.457781 0
M  V30 8875 O 785.017 1.87213 0.368246 0
M  V30 8876 C 782.157 3.44474 0.207693 0
M  V30 8877 C 781.27 4.24804 -0.785221 0
M  V30 8878 C 780.405 5.31169 -0.0572631 0
M  V30 8879 C 779.444 6.03195 -1.04027 0
M  V30 8880 N 778.581 7.01265 -0.34235 0
M  V30 8881 H 783.421 2.65039 -1.36229 0
M  V30 8882 H 780.958 1.30288 -0.682902 0
M  V30 8883 H 782.916 4.12376 0.632612 0
M  V30 8884 H 781.546 3.05672 1.03752 0
M  V30 8885 H 780.598 3.56445 -1.32858 0
M  V30 8886 H 781.91 4.74599 -1.53483 0
M  V30 8887 H 781.064 6.05205 0.425674 0
M  V30 8888 H 779.803 4.8228 0.725047 0
M  V30 8889 H 778.808 5.27964 -1.53409 0
M  V30 8890 H 780.033 6.54173 -1.82302 0
M  V30 8891 H 777.979 6.54648 0.420993 0
M  V30 8892 H 777.896 7.48939 -1.03084 0
M  V30 8893 H 779.164 7.7941 0.118634 0
M  V30 8894 N 783.393 0.737304 1.3929 0
M  V30 8895 C 784.809 0.413132 1.5416 0
M  V30 8896 C 785.009 -1.07574 1.70382 0
M  V30 8897 O 784.065 -1.86185 1.70562 0
M  V30 8898 C 785.378 1.19817 2.75798 0
M  V30 8899 C 786.926 1.18662 2.89635 0
M  V30 8900 C 787.401 1.95427 4.14213 0
M  V30 8901 N 788.892 1.92605 4.21257 0
M  V30 8902 C 789.627 2.48808 5.16606 0
M  V30 8903 N 789.123 3.13659 6.1773 0
M  V30 8904 N 790.916 2.38829 5.08839 0
M  V30 8905 H 783.067 1.70243 1.27008 0
M  V30 8906 H 785.33 0.720802 0.61575 0
M  V30 8907 H 785.036 2.25179 2.70161 0
M  V30 8908 H 784.91 0.804144 3.68529 0
M  V30 8909 H 787.297 0.141112 2.94762 0
M  V30 8910 H 787.378 1.62003 1.97961 0
M  V30 8911 H 787.022 2.9998 4.09847 0
M  V30 8912 H 786.952 1.4949 5.04936 0
M  V30 8913 H 789.443 1.45362 3.48824 0
M  V30 8914 H 789.756 3.54006 6.8695 0
M  V30 8915 H 788.101 3.17749 6.1811 0
M  V30 8916 H 791.292 1.87806 4.28773 0
M  V30 8917 H 791.465 2.82929 5.82971 0
M  V30 8918 N 784.871 -1.49948 0.485112 0
M  V30 8919 C 786.287 -1.58984 0.140096 0
M  V30 8920 C 786.487 -1.49194 -1.35438 0
M  V30 8921 O 785.543 -1.35765 -2.12894 0
M  V30 8922 C 786.856 -2.92372 0.702769 0
M  V30 8923 C 788.404 -3.05801 0.66745 0
M  V30 8924 C 788.879 -4.41785 1.20791 0
M  V30 8925 N 790.37 -4.48234 1.16792 0
M  V30 8926 C 791.105 -5.51871 1.55646 0
M  V30 8927 N 790.601 -6.62692 2.02016 0
M  V30 8928 N 792.394 -5.42494 1.47161 0
M  V30 8929 H 784.545 -1.54555 1.45693 0
M  V30 8930 H 786.808 -0.731206 0.603359 0
M  V30 8931 H 786.514 -3.05056 1.75025 0
M  V30 8932 H 786.388 -3.76885 0.154205 0
M  V30 8933 H 788.775 -2.92757 -0.371157 0
M  V30 8934 H 788.856 -2.23011 1.25298 0
M  V30 8935 H 788.5 -4.55579 2.24522 0
M  V30 8936 H 788.43 -5.23188 0.598464 0
M  V30 8937 H 790.921 -3.68718 0.827982 0
M  V30 8938 H 791.234 -7.3785 2.29775 0
M  V30 8939 H 789.579 -6.63775 2.05979 0
M  V30 8940 H 792.77 -4.54806 1.10765 0
M  V30 8941 H 792.943 -6.2314 1.77766 0
M  V30 8942 N 786.349 -0.21828 -1.56081 0
M  V30 8943 C 787.259 0.704602 -2.23769 0
M  V30 8944 C 788.275 1.21633 -1.24425 0
M  V30 8945 O 789.451 1.25862 -1.57228 0
M  V30 8946 C 786.516 1.89725 -2.90182 0
M  V30 8947 C 785.577 1.42782 -4.0486 0
M  V30 8948 C 784.81 2.56361 -4.68097 0
M  V30 8949 O 785.033 3.74417 -4.30312 0
M  V30 8950 O 783.967 2.2775 -5.57148 0
M  V30 8951 H 787.793 0.158007 -3.03289 0
M  V30 8952 H 785.378 0.0120279 -1.49395 0
M  V30 8953 H 787.26 2.59382 -3.32113 0
M  V30 8954 H 785.935 2.432 -2.13624 0
M  V30 8955 H 784.842 0.699359 -3.67505 0
M  V30 8956 H 786.175 0.939474 -4.83151 0
M  V30 8957 N 787.827 1.57504 0.0551401 0
M  V30 8958 C 789.243 1.54236 0.410292 0
M  V30 8959 C 789.443 0.940839 1.78187 0
M  V30 8960 O 788.499 0.550541 2.46425 0
M  V30 8961 C 789.812 2.98816 0.336064 0
M  V30 8962 C 791.36 3.10236 0.415047 0
M  V30 8963 C 791.835 4.56499 0.37055 0
M  V30 8964 N 793.326 4.61199 0.43013 0
M  V30 8965 C 794.061 5.71873 0.418179 0
M  V30 8966 N 793.557 6.91864 0.360056 0
M  V30 8967 N 795.35 5.60165 0.465977 0
M  V30 8968 H 787.501 1.94965 -0.842759 0
M  V30 8969 H 789.764 0.893096 -0.317937 0
M  V30 8970 H 789.47 3.4645 -0.605429 0
M  V30 8971 H 789.344 3.59564 1.13988 0
M  V30 8972 H 791.731 2.62566 1.34697 0
M  V30 8973 H 791.812 2.52367 -0.417648 0
M  V30 8974 H 791.456 5.0483 -0.557592 0
M  V30 8975 H 791.386 5.12249 1.221 0
M  V30 8976 H 793.877 3.74857 0.478623 0
M  V30 8977 H 794.19 7.71983 0.35532 0
M  V30 8978 H 792.535 6.94233 0.326492 0
M  V30 8979 H 795.726 4.65322 0.509194 0
M  V30 8980 H 795.899 6.46413 0.453194 0
M  V30 8981 N 789.305 -0.326896 1.54172 0
M  V30 8982 C 790.235 -1.40741 1.86317 0
M  V30 8983 C 791.216 -1.54125 0.719684 0
M  V30 8984 O 792.401 -1.6806 0.973117 0
M  V30 8985 C 789.531 -2.77557 2.08757 0
M  V30 8986 C 788.485 -2.78965 3.24596 0
M  V30 8987 C 787.811 -4.18824 3.32401 0
M  V30 8988 C 789.111 -2.4301 4.62324 0
M  V30 8989 H 790.805 -1.14088 2.76811 0
M  V30 8990 H 788.351 -0.547389 1.3319 0
M  V30 8991 H 790.304 -3.53209 2.29829 0
M  V30 8992 H 789.028 -3.0568 1.15009 0
M  V30 8993 H 787.687 -2.05767 3.03406 0
M  V30 8994 H 787.335 -4.44083 2.36218 0
M  V30 8995 H 787.035 -4.20673 4.10253 0
M  V30 8996 H 788.559 -4.96294 3.55703 0
M  V30 8997 H 789.973 -3.08375 4.83299 0
M  V30 8998 H 788.37 -2.56116 5.42701 0
M  V30 8999 H 789.44 -1.38165 4.64799 0
M  V30 9000 N 790.784 -1.46188 -0.588786 0
M  V30 9001 C 792.009 -1.5498 -1.37826 0
M  V30 9002 C 792.434 -0.189498 -1.87143 0
M  V30 9003 O 791.792 0.829293 -1.61222 0
M  V30 9004 C 791.84 -2.55369 -2.54596 0
M  V30 9005 O 790.944 -2.08452 -3.55839 0
M  V30 9006 H 790.285 -0.521741 -0.41071 0
M  V30 9007 H 792.815 -1.91708 -0.714779 0
M  V30 9008 H 792.825 -2.74782 -3.01594 0
M  V30 9009 H 791.5 -3.54155 -2.18052 0
M  V30 9010 H 790.077 -1.98999 -3.15363 0
M  V30 9011 N 792.262 0.832906 -1.33792 0
M  V30 9012 C 793.511 1.58351 -1.24932 0
M  V30 9013 C 793.824 1.94754 0.181703 0
M  V30 9014 O 795.03 2.6865 0.392375 0
M  V30 9015 C 793.486 2.85643 -2.18943 0
M  V30 9016 C 793.094 2.56581 -3.67247 0
M  V30 9017 C 794.838 3.63667 -2.18968 0
M  V30 9018 C 792.745 3.80006 -4.53155 0
M  V30 9019 H 791.675 0.594278 -0.464058 0
M  V30 9020 H 794.326 0.91786 -1.58895 0
M  V30 9021 H 792.708 3.53781 -1.77919 0
M  V30 9022 H 793.882 1.96617 -4.16747 0
M  V30 9023 H 792.197 1.91851 -3.6957 0
M  V30 9024 H 794.794 4.55293 -2.80379 0
M  V30 9025 H 795.137 3.99039 -1.18631 0
M  V30 9026 H 795.67 3.0246 -2.58384 0
M  V30 9027 H 792.409 3.4976 -5.5439 0
M  V30 9028 H 791.929 4.39288 -4.08395 0
M  V30 9029 H 793.608 4.47523 -4.6726 0
M  V30 9030 N 793.74 1.17359 1.05189 0
M  V30 9031 C 794.67 0.91365 2.14883 0
M  V30 9032 C 795.651 -0.144365 1.69486 0
M  V30 9033 O 796.836 0.00587861 1.94199 0
M  V30 9034 C 793.966 0.426196 3.44675 0
M  V30 9035 C 792.92 1.4234 4.03638 0
M  V30 9036 C 792.246 0.793902 5.28773 0
M  V30 9037 C 793.546 2.7966 4.41121 0
M  V30 9038 H 795.24 1.831 2.36885 0
M  V30 9039 H 792.786 0.881781 1.13845 0
M  V30 9040 H 794.739 0.231767 4.20762 0
M  V30 9041 H 793.463 -0.526693 3.22325 0
M  V30 9042 H 792.122 1.60457 3.2962 0
M  V30 9043 H 791.77 -0.165824 5.02727 0
M  V30 9044 H 791.47 1.45959 5.69183 0
M  V30 9045 H 792.994 0.609747 6.07548 0
M  V30 9046 H 794.408 2.6526 5.08242 0
M  V30 9047 H 792.805 3.42807 4.92548 0
M  V30 9048 H 793.875 3.34068 3.51464 0
M  V30 9049 N 795.218 -1.23913 0.973828 0
M  V30 9050 C 796.466 -1.91771 0.637817 0
M  V30 9051 C 796.787 -1.76434 -0.830435 0
M  V30 9052 O 796.057 -1.13965 -1.59339 0
M  V30 9053 H 794.637 -0.709761 0.232912 0
M  V30 9054 H 797.299 -1.50677 1.23622 0
M  V30 9055 H 796.395 -2.99327 0.883731 0
M  V30 9056 N 796.696 -0.74468 -1.38897 0
M  V30 9057 C 797.606 -0.112892 -2.34328 0
M  V30 9058 C 798.622 0.71087 -1.58816 0
M  V30 9059 O 799.798 0.637092 -1.91058 0
M  V30 9060 C 796.863 0.776417 -3.37894 0
M  V30 9061 C 795.924 -0.0606999 -4.29257 0
M  V30 9062 C 795.157 0.786258 -5.27877 0
M  V30 9063 O 795.38 2.02463 -5.33259 0
M  V30 9064 O 794.314 0.209781 -6.01534 0
M  V30 9065 H 798.14 -0.900801 -2.90033 0
M  V30 9066 H 795.725 -0.505462 -1.4059 0
M  V30 9067 H 797.607 1.28496 -4.01331 0
M  V30 9068 H 796.282 1.54297 -2.84559 0
M  V30 9069 H 795.189 -0.614984 -3.69011 0
M  V30 9070 H 796.522 -0.789702 -4.85824 0
M  V30 9071 N 798.174 1.49689 -0.493057 0
M  V30 9072 C 799.107 2.25712 0.336062 0
M  V30 9073 C 800.085 1.29953 0.977294 0
M  V30 9074 O 801.269 1.59225 1.00895 0
M  V30 9075 C 798.396 3.0501 1.47263 0
M  V30 9076 C 797.442 4.15863 0.946575 0
M  V30 9077 S 798.275 5.35272 -0.156323 0
M  V30 9078 C 799.431 6.18123 0.983601 0
M  V30 9079 H 799.664 2.95688 -0.309215 0
M  V30 9080 H 797.197 1.51872 -0.278238 0
M  V30 9081 H 799.155 3.51284 2.12391 0
M  V30 9082 H 797.816 2.34519 2.08949 0
M  V30 9083 H 797.009 4.70834 1.7981 0
M  V30 9084 H 796.611 3.72139 0.372647 0
M  V30 9085 H 798.903 6.50588 1.89056 0
M  V30 9086 H 799.846 7.06521 0.472687 0
M  V30 9087 H 800.254 5.50547 1.24735 0
M  V30 9088 N 799.652 0.226554 1.55963 0
M  V30 9089 C 800.88 -0.408507 2.02827 0
M  V30 9090 C 801.295 -1.52994 1.10627 0
M  V30 9091 O 800.652 -1.82126 0.116809 0
M  V30 9092 C 800.703 -0.93545 3.49187 0
M  V30 9093 O 800.424 0.141273 4.37872 0
M  V30 9094 C 801.925 -1.64325 4.11719 0
M  V30 9095 H 799.145 -0.099442 0.66359 0
M  V30 9096 H 801.689 0.344471 2.01578 0
M  V30 9097 H 799.844 -1.63868 3.51036 0
M  V30 9098 H 800.258 -0.25558 5.23877 0
M  V30 9099 H 801.732 -1.9639 5.15883 0
M  V30 9100 H 802.209 -2.55815 3.57009 0
M  V30 9101 H 802.815 -0.9851 4.13734 0
M  V30 9102 N 801.13 -1.57531 -0.0467866 0
M  V30 9103 C 802.093 -2.04379 -1.03738 0
M  V30 9104 C 803.093 -0.944881 -1.3011 0
M  V30 9105 O 804.283 -1.20904 -1.25411 0
M  V30 9106 C 801.415 -2.44572 -2.37482 0
M  V30 9107 H 802.608 -2.93142 -0.633063 0
M  V30 9108 H 800.161 -1.53526 -0.293177 0
M  V30 9109 H 800.896 -1.58911 -2.82697 0
M  V30 9110 H 800.681 -3.24785 -2.19675 0
M  V30 9111 H 802.171 -2.81307 -3.08636 0
M  V30 9112 N 802.608 0.318715 -1.54344 0
M  V30 9113 C 804.024 0.663345 -1.45162 0
M  V30 9114 C 804.224 1.9145 -0.62842 0
M  V30 9115 O 803.28 2.5217 -0.129126 0
M  V30 9116 C 804.593 0.832836 -2.88937 0
M  V30 9117 C 806.141 0.929866 -2.98869 0
M  V30 9118 C 806.616 1.13149 -4.43803 0
M  V30 9119 N 808.107 1.19811 -4.47437 0
M  V30 9120 C 808.842 1.37209 -5.56742 0
M  V30 9121 N 808.338 1.51619 -6.76006 0
M  V30 9122 N 810.131 1.39956 -5.44398 0
M  V30 9123 H 802.282 -0.50357 -2.06344 0
M  V30 9124 H 804.545 -0.163528 -0.933789 0
M  V30 9125 H 804.251 -0.0153519 -3.51697 0
M  V30 9126 H 804.125 1.72721 -3.35332 0
M  V30 9127 H 806.512 1.76855 -2.36233 0
M  V30 9128 H 806.593 0.0118561 -2.55797 0
M  V30 9129 H 806.237 0.297636 -5.07027 0
M  V30 9130 H 806.167 2.06345 -4.84489 0
M  V30 9131 H 808.658 1.101 -3.61506 0
M  V30 9132 H 808.971 1.64599 -7.55067 0
M  V30 9133 H 807.316 1.48708 -6.78904 0
M  V30 9134 H 810.507 1.28298 -4.50175 0
M  V30 9135 H 810.68 1.53172 -6.29637 0
M  V30 9136 N 804.086 1.46499 0.581025 0
M  V30 9137 C 805.332 1.52121 1.34116 0
M  V30 9138 C 805.665 0.173031 1.93428 0
M  V30 9139 O 804.94 -0.815729 1.76568 0
M  V30 9140 C 805.223 2.62108 2.46924 0
M  V30 9141 C 805.076 4.06462 1.92636 0
M  V30 9142 C 806.395 2.68167 3.48962 0
M  V30 9143 H 803.514 0.5538 0.486287 0
M  V30 9144 H 806.156 1.78443 0.652538 0
M  V30 9145 H 804.306 2.39794 3.05665 0
M  V30 9146 H 805.978 4.40068 1.3834 0
M  V30 9147 H 804.221 4.15862 1.23455 0
M  V30 9148 H 804.892 4.79152 2.74076 0
M  V30 9149 H 807.368 2.8823 3.00104 0
M  V30 9150 H 806.244 3.46942 4.2535 0
M  V30 9151 H 806.505 1.74284 4.06297 0
M  V30 9152 N 805.565 -0.825799 1.34232 0
M  V30 9153 C 806.528 -1.91808 1.25468 0
M  V30 9154 C 807.528 -1.59893 0.170567 0
M  V30 9155 O 808.718 -1.68986 0.422996 0
M  V30 9156 C 805.85 -3.27786 0.93644 0
M  V30 9157 H 807.043 -2.01003 2.22571 0
M  V30 9158 H 804.596 -1.01944 1.18479 0
M  V30 9159 H 805.331 -3.24285 -0.0315408 0
M  V30 9160 H 805.116 -3.52333 1.72057 0
M  V30 9161 H 806.606 -4.07782 0.900214 0
M  V30 9162 N 807.043 -1.17915 -1.04565 0
M  V30 9163 C 807.993 -0.869634 -2.10764 0
M  V30 9164 C 808.977 0.158502 -1.60117 0
M  V30 9165 O 810.169 -0.04483 -1.76943 0
M  V30 9166 C 807.298 -0.391642 -3.41059 0
M  V30 9167 C 806.384 -1.45156 -3.98485 0
M  V30 9168 N 806.775 -2.6667 -4.29792 0
M  V30 9169 C 805.073 -1.3109 -4.263 0
M  V30 9170 C 805.774 -3.34823 -4.75677 0
M  V30 9171 N 804.75 -2.62203 -4.76183 0
M  V30 9172 H 808.552 -1.79342 -2.32838 0
M  V30 9173 H 806.066 -1.0688 -1.22272 0
M  V30 9174 H 808.063 -0.151428 -4.16625 0
M  V30 9175 H 806.723 0.525862 -3.20413 0
M  V30 9176 H 807.734 -3.0358 -4.19594 0
M  V30 9177 H 804.411 -0.455545 -4.15007 0
M  V30 9178 H 805.801 -4.38645 -5.0896 0
M  V30 9179 N 808.521 1.23394 -0.980386 0
M  V30 9180 C 809.431 2.28561 -0.528864 0
M  V30 9181 C 810.447 1.68946 0.416329 0
M  V30 9182 O 811.623 1.99355 0.286251 0
M  V30 9183 C 808.688 3.46323 0.16155 0
M  V30 9184 C 807.749 4.21297 -0.825044 0
M  V30 9185 C 806.982 5.33437 -0.167483 0
M  V30 9186 O 807.205 5.60812 1.04146 0
M  V30 9187 O 806.139 5.95637 -0.866047 0
M  V30 9188 H 809.965 2.69326 -1.40346 0
M  V30 9189 H 807.55 1.29325 -0.748019 0
M  V30 9190 H 809.432 4.17811 0.548841 0
M  V30 9191 H 808.107 3.0751 1.01092 0
M  V30 9192 H 807.014 3.52134 -1.26303 0
M  V30 9193 H 808.347 4.6396 -1.64322 0
M  V30 9194 N 809.999 0.752036 1.385 0
M  V30 9195 C 811.248 0.304294 1.99391 0
M  V30 9196 C 811.561 -1.11982 1.60373 0
M  V30 9197 O 812.767 -1.66795 2.14223 0
M  V30 9198 C 811.223 0.493101 3.56506 0
M  V30 9199 C 810.831 1.9262 4.04477 0
M  V30 9200 C 812.575 0.107994 4.24363 0
M  V30 9201 C 810.482 2.06365 5.54227 0
M  V30 9202 H 809.412 0.110024 0.745929 0
M  V30 9203 H 812.063 0.928355 1.58284 0
M  V30 9204 H 810.445 -0.20012 3.95494 0
M  V30 9205 H 811.619 2.65276 3.76783 0
M  V30 9206 H 809.934 2.26608 3.49339 0
M  V30 9207 H 812.531 0.189474 5.34364 0
M  V30 9208 H 812.874 -0.939165 4.05568 0
M  V30 9209 H 813.407 0.753011 3.90608 0
M  V30 9210 H 810.146 3.0933 5.77923 0
M  V30 9211 H 809.666 1.38167 5.83669 0
M  V30 9212 H 811.345 1.85286 6.19902 0
M  V30 9213 N 811.477 -1.49425 0.500989 0
M  V30 9214 C 812.893 -1.58826 0.156951 0
M  V30 9215 C 813.093 -1.50622 -1.33848 0
M  V30 9216 O 812.149 -1.38016 -2.11442 0
M  V30 9217 C 813.462 -2.91611 0.73374 0
M  V30 9218 C 815.01 -3.05076 0.699846 0
M  V30 9219 C 815.485 -4.40479 1.2547 0
M  V30 9220 N 816.976 -4.4697 1.2154 0
M  V30 9221 C 817.711 -5.50189 1.6149 0
M  V30 9222 N 817.207 -6.60512 2.09034 0
M  V30 9223 N 819 -5.40903 1.52907 0
M  V30 9224 H 811.151 -1.53001 1.47324 0
M  V30 9225 H 813.414 -0.724765 0.61108 0
M  V30 9226 H 813.12 -3.03182 1.78251 0
M  V30 9227 H 812.994 -3.767 0.19417 0
M  V30 9228 H 815.381 -2.93134 -0.340085 0
M  V30 9229 H 815.462 -2.2167 1.27656 0
M  V30 9230 H 815.106 -4.53172 2.29341 0
M  V30 9231 H 815.036 -5.22524 0.653921 0
M  V30 9232 H 817.527 -3.67819 0.867043 0
M  V30 9233 H 817.84 -7.35372 2.37588 0
M  V30 9234 H 816.185 -6.61553 2.13008 0
M  V30 9235 H 819.376 -4.53606 1.15583 0
M  V30 9236 H 819.549 -6.21219 1.84365 0
M  V30 9237 N 812.955 -0.234822 -1.55841 0
M  V30 9238 C 813.903 0.686145 -2.22249 0
M  V30 9239 C 814.897 1.18948 -1.20614 0
M  V30 9240 O 816.103 1.14777 -1.38659 0
M  V30 9241 H 812.478 0.239724 -0.712767 0
M  V30 9242 H 814.449 0.102762 -2.98223 0
M  V30 9243 C 813.198 1.8776 -2.92646 0
M  V30 9244 H 812.521 1.49943 -3.70617 0
M  V30 9245 H 813.961 2.4995 -3.42493 0
M  V30 9246 C 812.42 2.74127 -1.95847 0
M  V30 9247 O 812.95 3.7329 -1.48384 0
M  V30 9248 N 811.156 2.4044 -1.63209 0
M  V30 9249 H 810.703 1.59854 -2.02001 0
M  V30 9250 H 810.661 2.98504 -0.987063 0
M  V30 9251 N 814.433 1.57553 0.0384317 0
M  V30 9252 C 815.844 1.77258 0.586211 0
M  V30 9253 C 816.195 0.864706 1.76117 0
M  V30 9254 O 815.32 0.057141 2.16325 0
M  V30 9255 C 815.915 3.21453 1.07021 0
M  V30 9256 C 814.474 3.42387 1.56358 0
M  V30 9257 C 813.621 2.72801 0.497508 0
M  V30 9258 H 816.572 1.57585 -0.187796 0
M  V30 9259 H 816.593 3.27451 1.93794 0
M  V30 9260 H 816.105 3.87505 0.214851 0
M  V30 9261 H 814.206 2.81497 2.44111 0
M  V30 9262 H 814.319 4.50968 1.61754 0
M  V30 9263 H 812.683 2.36305 0.95038 0
M  V30 9264 H 813.466 3.41529 -0.348234 0
M  V30 9265 N 815.911 -0.310526 1.54511 0
M  V30 9266 C 817.16 -1.0445 1.72549 0
M  V30 9267 C 817.473 -1.88748 0.513172 0
M  V30 9268 O 818.679 -2.65338 0.575165 0
M  V30 9269 C 817.135 -1.90665 3.05246 0
M  V30 9270 C 816.743 -1.11415 4.33925 0
M  V30 9271 C 818.487 -2.63719 3.32645 0
M  V30 9272 C 816.394 -1.96852 5.57677 0
M  V30 9273 H 815.324 -0.393676 0.643067 0
M  V30 9274 H 817.975 -0.302003 1.80998 0
M  V30 9275 H 816.357 -2.68864 2.90737 0
M  V30 9276 H 817.531 -0.378956 4.59239 0
M  V30 9277 H 815.846 -0.499853 4.13389 0
M  V30 9278 H 818.443 -3.27974 4.223 0
M  V30 9279 H 818.786 -3.32047 2.51098 0
M  V30 9280 H 819.319 -1.92574 3.48081 0
M  V30 9281 H 816.058 -1.33009 6.41864 0
M  V30 9282 H 815.578 -2.68069 5.36562 0
M  V30 9283 H 817.257 -2.55127 5.94575 0
M  V30 9284 N 817.389 -1.46805 -0.573248 0
M  V30 9285 C 818.617 -1.56191 -1.3569 0
M  V30 9286 C 819.032 -0.206362 -1.87669 0
M  V30 9287 O 818.389 0.797883 -1.64134 0
M  V30 9288 C 818.44 -2.57433 -2.53792 0
M  V30 9289 O 818.161 -3.87724 -2.03965 0
M  V30 9290 C 819.662 -2.76851 -3.4622 0
M  V30 9291 H 816.882 -0.527907 -0.414192 0
M  V30 9292 H 819.426 -1.92292 -0.695989 0
M  V30 9293 H 817.581 -2.24311 -3.15854 0
M  V30 9294 H 817.995 -4.42909 -2.80948 0
M  V30 9295 H 819.469 -3.5159 -4.25545 0
M  V30 9296 H 819.946 -1.84095 -3.98755 0
M  V30 9297 H 820.552 -3.11107 -2.89987 0
M  V30 9298 N 818.867 0.818669 -1.34668 0
M  V30 9299 C 820.116 1.57017 -1.26604 0
M  V30 9300 C 820.429 1.94936 0.161036 0
M  V30 9301 O 821.635 2.69051 0.36386 0
M  V30 9302 C 820.091 2.83305 -2.2196 0
M  V30 9303 C 819.699 2.52671 -3.69948 0
M  V30 9304 C 821.443 3.61324 -2.22813 0
M  V30 9305 C 819.35 3.75178 -4.5716 0
M  V30 9306 H 818.28 0.589323 -0.470335 0
M  V30 9307 H 820.931 0.900956 -1.59859 0
M  V30 9308 H 819.313 3.51874 -1.81661 0
M  V30 9309 H 820.487 1.92186 -4.18809 0
M  V30 9310 H 818.802 1.8792 -3.71584 0
M  V30 9311 H 821.399 4.52294 -2.85192 0
M  V30 9312 H 821.742 3.97759 -1.22857 0
M  V30 9313 H 822.275 2.99703 -2.61578 0
M  V30 9314 H 819.014 3.43861 -5.58068 0
M  V30 9315 H 818.534 4.34931 -4.13031 0
M  V30 9316 H 820.213 4.42542 -4.71981 0
M  V30 9317 N 820.346 1.18468 1.03938 0
M  V30 9318 C 821.595 0.975193 1.76558 0
M  V30 9319 C 821.908 -0.495978 1.89207 0
M  V30 9320 O 823.114 -0.824009 2.58694 0
M  V30 9321 C 821.57 1.69579 3.17444 0
M  V30 9322 C 821.178 3.20636 3.12884 0
M  V30 9323 C 822.922 1.56917 3.94433 0
M  V30 9324 C 820.829 3.8533 4.48636 0
M  V30 9325 H 819.759 0.361244 0.66183 0
M  V30 9326 H 822.41 1.41854 1.16403 0
M  V30 9327 H 820.792 1.18022 3.78004 0
M  V30 9328 H 821.966 3.79228 2.61768 0
M  V30 9329 H 820.281 3.33454 2.49394 0
M  V30 9330 H 822.878 2.02611 4.94826 0
M  V30 9331 H 823.221 0.521638 4.13019 0
M  V30 9332 H 823.754 2.05762 3.40451 0
M  V30 9333 H 820.493 4.90136 4.35255 0
M  V30 9334 H 820.013 3.31526 4.99851 0
M  V30 9335 H 821.692 3.88269 5.17549 0
M  V30 9336 N 821.824 -1.22873 0.986916 0
M  V30 9337 C 823.072 -1.91084 0.658121 0
M  V30 9338 C 823.393 -1.77304 -0.811675 0
M  V30 9339 O 822.663 -1.15649 -1.58121 0
M  V30 9340 H 821.243 -0.707251 0.240427 0
M  V30 9341 H 823.905 -1.49357 1.25213 0
M  V30 9342 H 823.001 -2.98373 0.915428 0
M  V30 9343 N 823.302 -0.75937 -1.38099 0
M  V30 9344 C 824.55 -0.317485 -1.99591 0
M  V30 9345 C 824.871 1.10628 -1.60581 0
M  V30 9346 O 824.141 1.7575 -0.865378 0
M  V30 9347 H 822.721 -0.114397 -0.738189 0
M  V30 9348 H 825.383 -0.974749 -1.68774 0
M  V30 9349 H 824.479 -0.385227 -3.09713 0
M  V30 9350 N 824.78 1.49157 -0.508906 0
M  V30 9351 C 826.027 2.02473 0.0327983 0
M  V30 9352 C 826.355 1.38792 1.36261 0
M  V30 9353 O 825.61 0.515576 1.88786 0
M  V30 9354 C 825.909 3.56687 0.225717 0
M  V30 9355 C 825.575 4.39046 -1.02708 0
M  V30 9356 C 824.237 4.61271 -1.37048 0
M  V30 9357 C 826.589 4.86902 -1.85946 0
M  V30 9358 C 823.917 5.28598 -2.54562 0
M  V30 9359 C 826.269 5.55521 -3.0262 0
M  V30 9360 C 824.933 5.7599 -3.3733 0
M  V30 9361 H 824.203 0.740903 0.0120017 0
M  V30 9362 H 826.85 1.79372 -0.670665 0
M  V30 9363 H 825.155 3.78511 1.01177 0
M  V30 9364 H 826.852 3.95541 0.659433 0
M  V30 9365 H 823.442 4.21994 -0.749615 0
M  V30 9366 H 827.626 4.69553 -1.6073 0
M  V30 9367 H 822.882 5.42646 -2.81682 0
M  V30 9368 H 827.056 5.91576 -3.67438 0
M  V30 9369 H 824.683 6.27934 -4.2849 0
M  V30 9370 N 826.258 0.243083 1.55714 0
M  V30 9371 C 827.507 -0.383188 1.98027 0
M  V30 9372 C 827.82 -1.59347 1.13436 0
M  V30 9373 O 829.026 -2.29065 1.45745 0
M  V30 9374 C 827.482 -0.733135 3.52354 0
M  V30 9375 C 827.09 0.455539 4.45678 0
M  V30 9376 C 828.834 -1.32381 4.03331 0
M  V30 9377 C 826.741 0.0819591 5.91343 0
M  V30 9378 H 825.671 -0.146944 0.739543 0
M  V30 9379 H 828.322 0.342697 1.80272 0
M  V30 9380 H 826.704 -1.51704 3.65789 0
M  V30 9381 H 827.878 1.23291 4.44 0
M  V30 9382 H 826.193 0.960886 4.05162 0
M  V30 9383 H 828.79 -1.61658 5.09677 0
M  V30 9384 H 829.133 -2.24698 3.50452 0
M  V30 9385 H 829.666 -0.602885 3.93205 0
M  V30 9386 H 826.405 0.972171 6.48251 0
M  V30 9387 H 825.925 -0.659291 5.96166 0
M  V30 9388 H 827.604 -0.3372 6.46121 0
M  V30 9389 N 827.736 -1.57571 -0.0300757 0
M  V30 9390 C 828.669 -2.01874 -1.06406 0
M  V30 9391 C 829.647 -0.902901 -1.35227 0
M  V30 9392 O 830.831 -1.16865 -1.47901 0
M  V30 9393 C 827.958 -2.39093 -2.39901 0
M  V30 9394 C 827.004 -3.61108 -2.26943 0
M  V30 9395 S 827.837 -5.10287 -1.62382 0
M  V30 9396 C 828.993 -5.50747 -2.97369 0
M  V30 9397 H 829.226 -2.89261 -0.686703 0
M  V30 9398 H 826.759 -1.52523 -0.240017 0
M  V30 9399 H 828.717 -2.61207 -3.16672 0
M  V30 9400 H 827.378 -1.52159 -2.74784 0
M  V30 9401 H 826.571 -3.84803 -3.25489 0
M  V30 9402 H 826.173 -3.3884 -1.58314 0
M  V30 9403 H 828.465 -5.51369 -3.93698 0
M  V30 9404 H 829.408 -6.51071 -2.78409 0
M  V30 9405 H 829.816 -4.7825 -2.99895 0
M  V30 9406 N 829.214 0.302327 -1.54673 0
M  V30 9407 C 830.63 0.647911 -1.45857 0
M  V30 9408 C 830.83 1.90773 -0.64869 0
M  V30 9409 O 829.886 2.52018 -0.155865 0
M  V30 9410 C 831.199 0.802144 -2.89804 0
M  V30 9411 C 832.747 0.898114 -2.99838 0
M  V30 9412 C 833.222 1.08436 -4.44978 0
M  V30 9413 N 834.713 1.15059 -4.48682 0
M  V30 9414 C 835.448 1.31296 -5.58166 0
M  V30 9415 N 834.944 1.4444 -6.77576 0
M  V30 9416 N 836.737 1.34174 -5.45851 0
M  V30 9417 H 828.888 -0.525428 -2.05798 0
M  V30 9418 H 831.151 -0.173423 -0.932002 0
M  V30 9419 H 830.857 -0.0526531 -3.51661 0
M  V30 9420 H 830.731 1.69155 -3.37145 0
M  V30 9421 H 833.118 1.7434 -2.38096 0
M  V30 9422 H 833.199 -0.0152752 -2.55795 0
M  V30 9423 H 832.843 0.243843 -5.07314 0
M  V30 9424 H 832.773 2.01195 -4.8665 0
M  V30 9425 H 835.264 1.0626 -3.62653 0
M  V30 9426 H 835.577 1.56582 -7.56771 0
M  V30 9427 H 833.922 1.41499 -6.80443 0
M  V30 9428 H 837.113 1.23516 -4.5151 0
M  V30 9429 H 837.286 1.46485 -6.31226 0
M  V30 9430 N 830.692 1.47107 0.565454 0
M  V30 9431 C 831.625 1.53505 1.68853 0
M  V30 9432 C 832.603 0.387806 1.57908 0
M  V30 9433 O 833.787 0.594433 1.78882 0
M  V30 9434 C 830.914 1.42985 3.07039 0
M  V30 9435 C 829.96 2.62109 3.36454 0
M  V30 9436 S 830.793 4.2436 3.26617 0
M  V30 9437 C 831.949 4.16378 4.67312 0
M  V30 9438 H 832.182 2.48522 1.63169 0
M  V30 9439 H 829.715 1.35204 0.745609 0
M  V30 9440 H 831.673 1.37602 3.8675 0
M  V30 9441 H 830.334 0.493671 3.10196 0
M  V30 9442 H 829.527 2.50788 4.37174 0
M  V30 9443 H 829.129 2.64571 2.64345 0
M  V30 9444 H 831.421 3.84123 5.58082 0
M  V30 9445 H 832.364 5.17156 4.83689 0
M  V30 9446 H 832.772 3.47363 4.44971 0
M  V30 9447 N 832.17 -0.811516 1.35101 0
M  V30 9448 C 833.117 -1.92308 1.27617 0
M  V30 9449 C 834.087 -1.6543 0.149091 0
M  V30 9450 O 835.272 -1.8789 0.331974 0
M  V30 9451 C 832.412 -3.28768 1.04908 0
M  V30 9452 C 831.525 -3.67865 2.26493 0
M  V30 9453 C 830.66 -4.9333 1.96974 0
M  V30 9454 C 829.699 -5.25041 3.1464 0
M  V30 9455 N 828.836 -6.41685 2.84929 0
M  V30 9456 H 833.676 -1.98041 2.22674 0
M  V30 9457 H 831.213 -0.968755 1.10696 0
M  V30 9458 H 833.171 -4.07426 0.897749 0
M  V30 9459 H 831.801 -3.22517 0.135151 0
M  V30 9460 H 830.853 -2.84507 2.52507 0
M  V30 9461 H 832.165 -3.87263 3.14371 0
M  V30 9462 H 831.319 -5.79803 1.78643 0
M  V30 9463 H 830.058 -4.75958 1.06374 0
M  V30 9464 H 829.063 -4.3706 3.33554 0
M  V30 9465 H 830.288 -5.44346 4.06035 0
M  V30 9466 H 828.234 -6.25747 1.96918 0
M  V30 9467 H 828.151 -6.6131 3.66341 0
M  V30 9468 H 829.419 -7.31198 2.70128 0
M  V30 9469 N 833.648 -1.19017 -1.03309 0
M  V30 9470 C 834.595 -0.924088 -2.11493 0
M  V30 9471 C 835.565 0.139464 -1.65513 0
M  V30 9472 O 836.75 -0.00178761 -1.908 0
M  V30 9473 C 833.89 -0.464255 -3.41963 0
M  V30 9474 C 833.003 -1.5941 -4.01513 0
M  V30 9475 C 832.138 -1.08622 -5.19976 0
M  V30 9476 C 831.177 -2.19024 -5.71572 0
M  V30 9477 N 830.314 -1.69575 -6.81314 0
M  V30 9478 H 835.154 -1.85039 -2.33591 0
M  V30 9479 H 832.691 -0.922593 -1.14572 0
M  V30 9480 H 834.649 -0.179078 -4.16815 0
M  V30 9481 H 833.279 0.425062 -3.19989 0
M  V30 9482 H 832.331 -1.99458 -3.23915 0
M  V30 9483 H 833.643 -2.42604 -4.35826 0
M  V30 9484 H 832.797 -0.756022 -6.01971 0
M  V30 9485 H 831.536 -0.223955 -4.87186 0
M  V30 9486 H 830.541 -2.5288 -4.88193 0
M  V30 9487 H 831.766 -3.05699 -6.06403 0
M  V30 9488 H 829.712 -0.856494 -6.50385 0
M  V30 9489 H 829.629 -2.46361 -7.14732 0
M  V30 9490 H 830.897 -1.39505 -7.66915 0
M  V30 9491 N 835.127 1.22348 -0.993418 0
M  V30 9492 C 836.077 2.221 -0.515333 0
M  V30 9493 C 837.061 1.55409 0.416762 0
M  V30 9494 O 838.253 1.75317 0.243497 0
M  V30 9495 C 835.382 3.42888 0.168173 0
M  V30 9496 C 834.468 4.16786 -0.784257 0
M  V30 9497 N 834.859 4.67435 -1.93231 0
M  V30 9498 C 833.157 4.41942 -0.600243 0
M  V30 9499 C 833.858 5.23792 -2.53016 0
M  V30 9500 N 832.834 5.12483 -1.8128 0
M  V30 9501 H 836.636 2.58902 -1.39093 0
M  V30 9502 H 834.15 1.38024 -0.855747 0
M  V30 9503 H 836.147 4.13542 0.528069 0
M  V30 9504 H 834.807 3.07598 1.03989 0
M  V30 9505 H 835.818 4.63375 -2.31309 0
M  V30 9506 H 832.495 4.16891 0.225369 0
M  V30 9507 H 833.885 5.73515 -3.50043 0
M  V30 9508 N 836.605 0.766683 1.37694 0
M  V30 9509 C 837.535 0.163432 2.32927 0
M  V30 9510 C 838.516 -0.688861 1.55527 0
M  V30 9511 O 839.701 -0.627363 1.83787 0
M  V30 9512 C 836.831 -0.720416 3.39746 0
M  V30 9513 C 835.785 0.0301718 4.27989 0
M  V30 9514 C 835.111 -0.972788 5.25776 0
M  V30 9515 C 836.411 1.20623 5.0818 0
M  V30 9516 H 838.105 0.958988 2.83626 0
M  V30 9517 H 835.651 0.462601 1.36367 0
M  V30 9518 H 837.604 -1.15221 4.05342 0
M  V30 9519 H 836.328 -1.54844 2.8756 0
M  V30 9520 H 834.987 0.442685 3.63917 0
M  V30 9521 H 834.635 -1.79522 4.69873 0
M  V30 9522 H 834.335 -0.475145 5.85676 0
M  V30 9523 H 835.859 -1.40362 5.94248 0
M  V30 9524 H 837.273 0.851341 5.66944 0
M  V30 9525 H 835.67 1.63561 5.7738 0
M  V30 9526 H 836.74 2.01281 4.41151 0
M  V30 9527 N 838.083 -1.48885 0.516809 0
M  V30 9528 C 839.36 -1.95412 -0.0858293 0
M  V30 9529 C 839.74 -1.45875 -1.5259 0
M  V30 9530 O 839.088 -0.679415 -2.18166 0
M  V30 9531 C 839.298 -3.48995 0.0178194 0
M  V30 9532 C 840.646 -4.24342 -0.14813 0
M  V30 9533 O 841.67 -3.56155 -0.0566125 0
M  V30 9534 O 840.529 -5.45454 -0.338035 0
M  V30 9535 H 837.623 -0.822455 -0.0865884 0
M  V30 9536 H 840.169 -1.59464 0.580472 0
M  V30 9537 H 838.941 -3.77732 1.02147 0
M  V30 9538 H 838.564 -3.91604 -0.687924 0
M  V30 9539 N 839.561 -0.251338 -1.55583 0
M  V30 9540 C 840.838 0.422729 -1.90977 0
M  V30 9541 C 841.218 1.75534 -1.17265 0
M  V30 9542 O 840.566 2.26632 -0.291588 0
M  V30 9543 C 840.776 0.586448 -3.44037 0
M  V30 9544 C 842.124 0.880294 -4.15375 0
M  V30 9545 O 843.148 0.672148 -3.49801 0
M  V30 9546 O 842.007 1.27694 -5.31372 0
M  V30 9547 H 839.101 0.227622 -0.795058 0
M  V30 9548 H 841.647 -0.295733 -1.67103 0
M  V30 9549 H 840.419 -0.352327 -3.89711 0
M  V30 9550 H 840.042 1.35528 -3.73789 0
M  V30 9551 N 841.039 1.57585 0.0217189 0
M  V30 9552 C 842.45 1.7787 0.567377 0
M  V30 9553 C 842.801 0.883337 1.7519 0
M  V30 9554 O 841.926 0.0800819 2.16252 0
M  V30 9555 C 842.521 3.2257 1.03606 0
M  V30 9556 C 841.08 3.44026 1.52718 0
M  V30 9557 C 840.227 2.73313 0.468545 0
M  V30 9558 H 843.178 1.57377 -0.2045 0
M  V30 9559 H 843.199 3.29488 1.9031 0
M  V30 9560 H 842.711 3.87711 0.173739 0
M  V30 9561 H 840.812 2.8407 2.41111 0
M  V30 9562 H 840.925 4.52659 1.56962 0
M  V30 9563 H 839.289 2.37299 0.925263 0
M  V30 9564 H 840.072 3.41141 -0.384438 0
M  V30 9565 N 842.517 -0.29412 1.54831 0
M  V30 9566 C 843.427 -1.3854 1.89325 0
M  V30 9567 C 844.443 -1.55127 0.788133 0
M  V30 9568 O 845.619 -1.6966 1.08524 0
M  V30 9569 C 842.684 -2.72809 2.13954 0
M  V30 9570 C 841.745 -2.65148 3.37631 0
M  V30 9571 C 840.978 -3.93014 3.61076 0
M  V30 9572 O 841.201 -4.927 2.87406 0
M  V30 9573 O 840.135 -3.94491 4.54599 0
M  V30 9574 H 843.961 -1.12289 2.82179 0
M  V30 9575 H 841.546 -0.490793 1.41108 0
M  V30 9576 H 843.428 -3.52238 2.31315 0
M  V30 9577 H 842.103 -2.9889 1.24285 0
M  V30 9578 H 841.01 -1.84168 3.25627 0
M  V30 9579 H 842.343 -2.4402 4.27452 0
M  V30 9580 N 843.995 -1.47404 -0.557645 0
M  V30 9581 C 845.223 -1.57622 -1.34026 0
M  V30 9582 C 845.638 -0.226256 -1.87439 0
M  V30 9583 O 844.995 0.78043 -1.64971 0
M  V30 9584 C 845.046 -2.60111 -2.51047 0
M  V30 9585 O 844.767 -3.89866 -1.99841 0
M  V30 9586 C 846.268 -2.80508 -3.43264 0
M  V30 9587 H 843.488 -0.532271 -0.40857 0
M  V30 9588 H 846.032 -1.93019 -0.675555 0
M  V30 9589 H 844.187 -2.27648 -3.13457 0
M  V30 9590 H 844.601 -4.45864 -2.76234 0
M  V30 9591 H 846.075 -3.56084 -4.21792 0
M  V30 9592 H 846.552 -1.88314 -3.9678 0
M  V30 9593 H 847.158 -3.14166 -2.86671 0
M  V30 9594 N 845.473 0.80434 -1.35529 0
M  V30 9595 C 846.403 1.93086 -1.31301 0
M  V30 9596 C 847.384 1.69068 -0.187044 0
M  V30 9597 O 848.569 1.90399 -0.382359 0
M  V30 9598 C 845.699 3.29867 -1.0865 0
M  V30 9599 C 844.653 3.68373 -2.17911 0
M  V30 9600 C 843.979 5.0334 -1.80423 0
M  V30 9601 C 845.279 3.78516 -3.59893 0
M  V30 9602 H 846.973 1.96882 -2.25561 0
M  V30 9603 H 844.519 0.945841 -1.08581 0
M  V30 9604 H 846.472 4.08281 -1.04331 0
M  V30 9605 H 845.196 3.2642 -0.108359 0
M  V30 9606 H 843.855 2.92247 -2.21331 0
M  V30 9607 H 843.503 4.96399 -0.812213 0
M  V30 9608 H 843.203 5.30074 -2.53565 0
M  V30 9609 H 844.727 5.84191 -1.77633 0
M  V30 9610 H 846.141 4.47155 -3.58783 0
M  V30 9611 H 844.538 4.16721 -4.31814 0
M  V30 9612 H 845.608 2.8001 -3.95882 0
M  V30 9613 N 846.951 1.19563 1.02676 0
M  V30 9614 C 847.898 0.935291 2.11 0
M  V30 9615 C 848.868 -0.130685 1.65585 0
M  V30 9616 O 850.053 0.0119062 1.90796 0
M  V30 9617 C 847.193 0.482384 3.41712 0
M  V30 9618 C 846.306 1.61537 4.00662 0
M  V30 9619 C 845.441 1.11378 5.19392 0
M  V30 9620 C 844.48 2.22052 5.70403 0
M  V30 9621 N 843.617 1.73185 6.80405 0
M  V30 9622 H 848.457 1.86275 2.32606 0
M  V30 9623 H 845.994 0.928656 1.14081 0
M  V30 9624 H 847.952 0.20118 4.16715 0
M  V30 9625 H 846.582 -0.408086 3.2021 0
M  V30 9626 H 845.634 2.01173 3.22852 0
M  V30 9627 H 846.946 2.44912 4.34534 0
M  V30 9628 H 846.1 0.787935 6.01562 0
M  V30 9629 H 844.839 0.249789 4.8706 0
M  V30 9630 H 843.844 2.55465 4.86845 0
M  V30 9631 H 845.069 3.08911 6.04774 0
M  V30 9632 H 843.015 0.890973 6.49921 0
M  V30 9633 H 842.932 2.50148 7.13416 0
M  V30 9634 H 844.2 1.4357 7.66164 0
M  V30 9635 N 848.429 -1.21819 0.999893 0
M  V30 9636 C 849.376 -2.24003 0.556005 0
M  V30 9637 C 850.346 -1.60825 -0.415287 0
M  V30 9638 O 851.531 -1.88123 -0.318481 0
M  V30 9639 C 848.671 -3.44904 -0.116289 0
M  V30 9640 C 847.784 -4.22573 0.897574 0
M  V30 9641 C 846.919 -5.30831 0.198073 0
M  V30 9642 C 845.958 -6.00225 1.19983 0
M  V30 9643 N 845.095 -7.00111 0.528157 0
M  V30 9644 H 849.935 -2.61334 1.43208 0
M  V30 9645 H 847.472 -1.28431 0.717205 0
M  V30 9646 H 849.43 -4.13908 -0.523055 0
M  V30 9647 H 848.06 -3.08315 -0.956108 0
M  V30 9648 H 847.112 -3.52797 1.42262 0
M  V30 9649 H 848.424 -4.70363 1.66013 0
M  V30 9650 H 847.578 -6.06121 -0.265065 0
M  V30 9651 H 846.317 -4.84033 -0.596924 0
M  V30 9652 H 845.322 -5.23711 1.67353 0
M  V30 9653 H 846.547 -6.4911 1.99582 0
M  V30 9654 H 844.493 -6.55534 -0.247276 0
M  V30 9655 H 844.41 -7.45943 1.22904 0
M  V30 9656 H 845.678 -7.7945 0.0880543 0
M  V30 9657 N 849.908 -0.773975 -1.37286 0
M  V30 9658 C 851.138 -0.350249 -2.03609 0
M  V30 9659 C 851.546 1.03313 -1.58502 0
M  V30 9660 O 850.889 1.67118 -0.7627 0
M  V30 9661 C 850.951 -0.317215 -3.58098 0
M  V30 9662 C 850.615 -1.64556 -4.26345 0
M  V30 9663 C 851.612 -2.59839 -4.50311 0
M  V30 9664 C 849.297 -1.92061 -4.64131 0
M  V30 9665 C 851.291 -3.80833 -5.11122 0
M  V30 9666 C 848.978 -3.13325 -5.24663 0
M  V30 9667 C 849.976 -4.0753 -5.48095 0
M  V30 9668 O 849.664 -5.26658 -6.0736 0
M  V30 9669 H 849.396 -0.144456 -0.660385 0
M  V30 9670 H 851.95 -1.0496 -1.76557 0
M  V30 9671 H 850.18 0.438528 -3.84205 0
M  V30 9672 H 851.869 0.0797428 -4.05822 0
M  V30 9673 H 852.635 -2.39872 -4.21529 0
M  V30 9674 H 848.514 -1.19562 -4.45226 0
M  V30 9675 H 852.058 -4.54377 -5.29327 0
M  V30 9676 H 847.955 -3.33177 -5.52869 0
M  V30 9677 H 848.723 -5.27513 -6.25837 0
M  V30 9678 N 851.386 1.48609 -0.524698 0
M  V30 9679 C 852.635 2.01696 0.0132937 0
M  V30 9680 C 852.948 1.40751 1.35825 0
M  V30 9681 O 854.154 1.85304 1.9843 0
M  V30 9682 C 852.61 3.59824 0.0741012 0
M  V30 9683 C 852.218 4.2975 -1.26564 0
M  V30 9684 C 853.962 4.20774 0.5612 0
M  V30 9685 C 851.869 5.79798 -1.16571 0
M  V30 9686 H 850.799 0.753949 0.00873931 0
M  V30 9687 H 853.45 1.70922 -0.667684 0
M  V30 9688 H 851.832 3.87416 0.820043 0
M  V30 9689 H 853.006 4.13836 -2.02674 0
M  V30 9690 H 851.321 3.80649 -1.68806 0
M  V30 9691 H 853.918 5.30687 0.653853 0
M  V30 9692 H 854.261 3.85734 1.56573 0
M  V30 9693 H 854.794 3.97591 -0.128901 0
M  V30 9694 H 851.533 6.19403 -2.14523 0
M  V30 9695 H 851.053 5.9814 -0.445894 0
M  V30 9696 H 852.732 6.41337 -0.854186 0
M  V30 9697 N 852.864 0.259585 1.55447 0
M  V30 9698 C 853.812 -0.6507 2.23313 0
M  V30 9699 C 854.806 -1.17014 1.22491 0
M  V30 9700 O 856.012 -1.12557 1.40467 0
M  V30 9701 H 852.387 -0.228354 0.71649 0
M  V30 9702 H 854.358 -0.0553039 2.98349 0
M  V30 9703 C 853.107 -1.83081 2.95596 0
M  V30 9704 H 852.43 -1.44027 3.72956 0
M  V30 9705 H 853.87 -2.44469 3.46426 0
M  V30 9706 C 852.329 -2.70976 2.00184 0
M  V30 9707 O 852.859 -3.70882 1.54304 0
M  V30 9708 N 851.065 -2.37813 1.67014 0
M  V30 9709 H 850.612 -1.5662 2.04519 0
M  V30 9710 H 850.57 -2.96896 1.03443 0
M  V30 9711 N 854.342 -1.57594 -0.0133615 0
M  V30 9712 C 855.591 -1.8916 -0.700103 0
M  V30 9713 C 855.904 -0.860147 -1.75673 0
M  V30 9714 O 857.11 -1.06556 -2.49716 0
M  V30 9715 C 855.566 -3.35742 -1.29635 0
M  V30 9716 C 855.174 -4.47154 -0.275249 0
M  V30 9717 C 856.918 -3.76436 -1.96205 0
M  V30 9718 C 854.825 -5.84805 -0.880726 0
M  V30 9719 H 853.755 -0.705805 -0.265247 0
M  V30 9720 H 856.406 -1.83445 0.044993 0
M  V30 9721 H 854.788 -3.36252 -2.09167 0
M  V30 9722 H 855.962 -4.58139 0.494506 0
M  V30 9723 H 854.277 -4.15394 0.289256 0
M  V30 9724 H 856.874 -4.76606 -2.42386 0
M  V30 9725 H 857.217 -3.09249 -2.78695 0
M  V30 9726 H 857.75 -3.78168 -1.23426 0
M  V30 9727 H 854.489 -6.55431 -0.0949013 0
M  V30 9728 H 854.009 -5.7751 -1.61995 0
M  V30 9729 H 855.688 -6.32038 -1.38338 0
M  V30 9730 N 855.82 0.285905 -1.54985 0
M  V30 9731 C 857.069 1.01691 -1.74189 0
M  V30 9732 C 857.382 1.87908 -0.543135 0
M  V30 9733 O 858.588 2.64389 -0.617305 0
M  V30 9734 C 857.044 1.85785 -3.0824 0
M  V30 9735 C 856.652 1.04497 -4.35642 0
M  V30 9736 C 858.396 2.58393 -3.36798 0
M  V30 9737 C 856.303 1.87955 -5.60738 0
M  V30 9738 H 855.233 0.383396 -0.649248 0
M  V30 9739 H 857.884 0.27317 -1.81455 0
M  V30 9740 H 856.266 2.64205 -2.94978 0
M  V30 9741 H 857.44 0.305847 -4.59784 0
M  V30 9742 H 855.755 0.434023 -4.14132 0
M  V30 9743 H 858.352 3.21214 -4.27464 0
M  V30 9744 H 858.695 3.28011 -2.56349 0
M  V30 9745 H 859.228 1.87012 -3.511 0
M  V30 9746 H 855.967 1.22781 -6.43898 0
M  V30 9747 H 855.487 2.59499 -5.40759 0
M  V30 9748 H 857.166 2.45636 -5.98558 0
M  V30 9749 N 857.298 1.47698 0.54982 0
M  V30 9750 C 858.526 1.5833 1.33188 0
M  V30 9751 C 858.941 0.236193 1.87317 0
M  V30 9752 O 858.298 -0.77167 1.65383 0
M  V30 9753 C 858.349 2.61438 2.49664 0
M  V30 9754 O 858.07 3.9092 1.97771 0
M  V30 9755 C 859.571 2.82324 3.41772 0
M  V30 9756 H 856.791 0.53443 0.405741 0
M  V30 9757 H 859.335 1.93375 0.665309 0
M  V30 9758 H 857.49 2.29307 3.12245 0
M  V30 9759 H 857.904 4.47323 2.73866 0
M  V30 9760 H 859.378 3.58316 4.19897 0
M  V30 9761 H 859.855 1.90416 3.95776 0
M  V30 9762 H 860.461 3.15682 2.85 0
M  V30 9763 N 858.776 -0.797141 1.35954 0
M  V30 9764 C 859.724 -1.93084 1.29697 0
M  V30 9765 C 860.718 -1.68329 0.190152 0
M  V30 9766 O 861.924 -1.7643 0.3567 0
M  V30 9767 H 858.299 -0.634531 0.403577 0
M  V30 9768 H 860.27 -1.95481 2.25455 0
M  V30 9769 C 859.019 -3.29996 1.09536 0
M  V30 9770 H 858.342 -3.49607 1.93946 0
M  V30 9771 H 859.782 -4.09696 1.09202 0
M  V30 9772 C 858.241 -3.36304 -0.200381 0
M  V30 9773 O 858.771 -3.83579 -1.19291 0
M  V30 9774 N 856.977 -2.89587 -0.242406 0
M  V30 9775 H 856.524 -2.51307 0.565897 0
M  V30 9776 H 856.482 -2.94189 -1.10906 0
M  V30 9777 N 860.254 -1.20106 -1.0204 0
M  V30 9778 C 861.164 -0.962051 -2.13967 0
M  V30 9779 C 862.18 0.0808053 -1.73812 0
M  V30 9780 O 863.356 -0.105774 -2.01122 0
M  V30 9781 C 860.421 -0.513108 -3.42882 0
M  V30 9782 C 859.482 -1.62636 -3.97301 0
M  V30 9783 C 858.715 -1.19875 -5.20063 0
M  V30 9784 O 858.938 -0.0658423 -5.70362 0
M  V30 9785 O 857.872 -2.00467 -5.67536 0
M  V30 9786 H 861.698 -1.8991 -2.36998 0
M  V30 9787 H 859.283 -0.984608 -1.12365 0
M  V30 9788 H 861.165 -0.271797 -4.20523 0
M  V30 9789 H 859.84 0.395402 -3.21276 0
M  V30 9790 H 858.747 -1.92192 -3.20957 0
M  V30 9791 H 860.08 -2.51174 -4.23288 0
M  V30 9792 N 861.732 1.21287 -1.00634 0
M  V30 9793 C 862.662 2.25973 -0.588089 0
M  V30 9794 C 863.643 1.65527 0.391764 0
M  V30 9795 O 864.828 1.92179 0.279452 0
M  V30 9796 C 861.958 3.47197 0.0847336 0
M  V30 9797 C 860.912 4.20168 -0.815039 0
M  V30 9798 C 860.238 5.34699 -0.00855393 0
M  V30 9799 C 861.538 4.77416 -2.11828 0
M  V30 9800 H 863.232 2.61212 -1.46317 0
M  V30 9801 H 860.778 1.25563 -0.704985 0
M  V30 9802 H 862.731 4.19602 0.388821 0
M  V30 9803 H 861.455 3.11092 0.994456 0
M  V30 9804 H 860.114 3.49614 -1.10297 0
M  V30 9805 H 859.762 4.94837 0.902499 0
M  V30 9806 H 859.462 5.84449 -0.607664 0
M  V30 9807 H 860.986 6.09914 0.289317 0
M  V30 9808 H 862.4 5.41694 -1.87725 0
M  V30 9809 H 860.797 5.37561 -2.66736 0
M  V30 9810 H 861.867 3.96724 -2.78816 0
M  V30 9811 N 863.21 0.781244 1.36873 0
M  V30 9812 C 864.435 0.360398 2.04245 0
M  V30 9813 C 864.86 -1.01242 1.58529 0
M  V30 9814 O 864.218 -1.65063 0.749936 0
M  V30 9815 C 864.266 0.42329 3.58107 0
M  V30 9816 O 863.37 -0.572796 4.08403 0
M  V30 9817 H 862.711 0.154386 0.645803 0
M  V30 9818 H 865.241 1.06008 1.74996 0
M  V30 9819 H 865.251 0.283967 4.07011 0
M  V30 9820 H 863.926 1.42477 3.90734 0
M  V30 9821 H 862.503 -0.395809 3.70793 0
M  V30 9822 N 864.689 -1.48329 0.532571 0
M  V30 9823 C 866.105 -1.58458 0.190605 0
M  V30 9824 C 866.305 -1.53427 -1.30623 0
M  V30 9825 O 865.361 -1.4247 -2.08467 0
M  V30 9826 C 866.674 -2.89989 0.79543 0
M  V30 9827 C 868.222 -3.03523 0.7644 0
M  V30 9828 C 868.697 -4.37718 1.34785 0
M  V30 9829 N 870.188 -4.44292 1.30993 0
M  V30 9830 C 870.923 -5.4664 1.73124 0
M  V30 9831 N 870.419 -6.5593 2.22997 0
M  V30 9832 N 872.212 -5.37538 1.64346 0
M  V30 9833 H 864.363 -1.49842 1.50537 0
M  V30 9834 H 866.626 -0.71164 0.626316 0
M  V30 9835 H 866.332 -2.99333 1.84642 0
M  V30 9836 H 866.206 -3.76203 0.27403 0
M  V30 9837 H 868.593 -2.93789 -0.277831 0
M  V30 9838 H 868.674 -2.18912 1.3233 0
M  V30 9839 H 868.318 -4.48206 2.38902 0
M  V30 9840 H 868.248 -5.21019 0.764609 0
M  V30 9841 H 870.739 -3.65897 0.944868 0
M  V30 9842 H 871.052 -7.30167 2.53133 0
M  V30 9843 H 869.397 -6.56886 2.26992 0
M  V30 9844 H 872.588 -4.51052 1.25178 0
M  V30 9845 H 872.761 -6.17169 1.97501 0
M  V30 9846 N 866.167 -0.267825 -1.55308 0
M  V30 9847 C 867.097 0.616585 -2.25212 0
M  V30 9848 C 868.078 1.16472 -1.23969 0
M  V30 9849 O 869.263 1.20021 -1.52672 0
M  V30 9850 C 866.393 1.80412 -2.96764 0
M  V30 9851 C 865.347 1.38784 -4.04874 0
M  V30 9852 C 864.673 2.65789 -4.63961 0
M  V30 9853 C 865.973 0.543415 -5.19465 0
M  V30 9854 H 867.667 0.0336257 -2.99381 0
M  V30 9855 H 865.213 0.0147328 -1.43992 0
M  V30 9856 H 867.166 2.42866 -3.44375 0
M  V30 9857 H 865.89 2.4128 -2.20118 0
M  V30 9858 H 864.549 0.786541 -3.58063 0
M  V30 9859 H 864.197 3.24899 -3.83992 0
M  V30 9860 H 863.897 2.38651 -5.36954 0
M  V30 9861 H 865.421 3.29104 -5.14318 0
M  V30 9862 H 866.835 1.07277 -5.63174 0
M  V30 9863 H 865.232 0.367219 -5.98975 0
M  V30 9864 H 866.302 -0.439534 -4.82904 0
M  V30 9865 N 867.645 1.57599 0.00500368 0
M  V30 9866 C 868.555 2.11532 1.01446 0
M  V30 9867 C 869.571 1.05941 1.3803 0
M  V30 9868 O 870.747 1.37815 1.46864 0
M  V30 9869 C 867.812 2.60382 2.28915 0
M  V30 9870 C 866.873 3.80554 1.98689 0
M  V30 9871 C 866.106 4.27064 3.20081 0
M  V30 9872 O 866.329 3.72939 4.31593 0
M  V30 9873 O 865.263 5.1927 3.04371 0
M  V30 9874 H 869.089 2.97993 0.586011 0
M  V30 9875 H 866.674 1.47718 0.223519 0
M  V30 9876 H 868.556 2.92024 3.03809 0
M  V30 9877 H 867.231 1.77022 2.71007 0
M  V30 9878 H 866.138 3.53893 1.21286 0
M  V30 9879 H 867.471 4.64972 1.61437 0
M  V30 9880 N 869.123 -0.277682 1.55134 0
M  V30 9881 C 870.351 -1.02826 1.7954 0
M  V30 9882 C 870.766 -1.80105 0.566373 0
M  V30 9883 O 870.123 -1.76491 -0.464448 0
M  V30 9884 C 870.174 -1.99053 3.01762 0
M  V30 9885 O 869.895 -1.24906 4.19917 0
M  V30 9886 C 871.396 -2.85961 3.38735 0
M  V30 9887 H 868.616 -0.303958 0.598206 0
M  V30 9888 H 871.16 -0.309884 2.02138 0
M  V30 9889 H 869.315 -2.66359 2.81303 0
M  V30 9890 H 869.729 -1.89725 4.88983 0
M  V30 9891 H 871.203 -3.49286 4.27438 0
M  V30 9892 H 871.68 -3.55486 2.57928 0
M  V30 9893 H 872.286 -2.24152 3.61436 0
M  V30 9894 N 870.601 -1.47988 -0.541979 0
M  V30 9895 C 871.85 -1.5465 -1.29485 0
M  V30 9896 C 872.163 -0.220041 -1.94358 0
M  V30 9897 O 873.369 -0.164792 -2.70999 0
M  V30 9898 C 871.825 -2.72685 -2.34885 0
M  V30 9899 C 871.433 -4.11923 -1.76134 0
M  V30 9900 C 873.177 -2.88651 -3.11257 0
M  V30 9901 C 871.084 -5.21237 -2.79404 0
M  V30 9902 H 870.014 -0.575688 -0.486928 0
M  V30 9903 H 872.665 -1.74296 -0.573853 0
M  V30 9904 H 871.047 -2.46448 -3.09966 0
M  V30 9905 H 872.221 -4.48128 -1.07322 0
M  V30 9906 H 870.536 -4.00972 -1.12295 0
M  V30 9907 H 873.133 -3.67487 -3.88404 0
M  V30 9908 H 873.476 -1.97658 -3.66384 0
M  V30 9909 H 874.009 -3.14731 -2.43288 0
M  V30 9910 H 870.748 -6.14156 -2.29113 0
M  V30 9911 H 870.268 -4.89533 -3.4658 0
M  V30 9912 H 871.947 -5.48839 -3.42615 0
M  V30 9913 N 872.079 0.78992 -1.36375 0
M  V30 9914 C 873.325 1.55007 -1.3077 0
M  V30 9915 C 873.658 1.93871 0.112979 0
M  V30 9916 O 872.933 1.6267 1.06625 0
M  V30 9917 C 873.216 2.82748 -2.22993 0
M  V30 9918 C 873.069 2.50253 -3.73756 0
M  V30 9919 C 874.388 3.84569 -2.13998 0
M  V30 9920 H 871.507 0.562362 -0.476359 0
M  V30 9921 H 874.149 0.907582 -1.66922 0
M  V30 9922 H 872.299 3.37573 -1.92292 0
M  V30 9923 H 873.971 2.01482 -4.14973 0
M  V30 9924 H 872.214 1.83203 -3.93216 0
M  V30 9925 H 872.885 3.41487 -4.33694 0
M  V30 9926 H 875.361 3.39188 -2.4102 0
M  V30 9927 H 874.237 4.717 -2.80697 0
M  V30 9928 H 874.498 4.27491 -1.12711 0
M  V30 9929 N 873.557 1.20646 1.01402 0
M  V30 9930 C 874.504 0.957618 2.09996 0
M  V30 9931 C 875.474 -0.113115 1.65714 0
M  V30 9932 O 876.659 0.032142 1.90773 0
M  V30 9933 C 873.799 0.5186 3.41181 0
M  V30 9934 C 872.912 1.65777 3.98926 0
M  V30 9935 C 872.047 1.16881 5.18182 0
M  V30 9936 C 871.086 2.2809 5.68015 0
M  V30 9937 N 870.223 1.80392 6.7853 0
M  V30 9938 H 875.063 1.88732 2.30617 0
M  V30 9939 H 872.6 0.940703 1.13089 0
M  V30 9940 H 874.558 0.245367 4.16478 0
M  V30 9941 H 873.188 -0.3741 3.20625 0
M  V30 9942 H 872.24 2.04586 3.207 0
M  V30 9943 H 873.552 2.49507 4.31912 0
M  V30 9944 H 872.706 0.851694 6.00692 0
M  V30 9945 H 871.445 0.301434 4.86768 0
M  V30 9946 H 870.45 2.60614 4.84108 0
M  V30 9947 H 871.675 3.15308 6.01463 0
M  V30 9948 H 869.621 0.959856 6.4894 0
M  V30 9949 H 869.538 2.57701 7.10722 0
M  V30 9950 H 870.806 1.51688 7.64598 0
M  V30 9951 N 875.035 -1.20752 1.01276 0
M  V30 9952 C 875.945 -2.27079 0.589277 0
M  V30 9953 C 876.961 -1.6999 -0.371389 0
M  V30 9954 O 878.137 -2.00044 -0.233294 0
M  V30 9955 C 875.202 -3.4663 -0.0696715 0
M  V30 9956 C 874.263 -4.18962 0.936454 0
M  V30 9957 C 873.496 -5.32806 0.308856 0
M  V30 9958 O 873.719 -5.63376 -0.8924 0
M  V30 9959 O 872.653 -5.93131 1.02367 0
M  V30 9960 H 876.479 -2.6551 1.47438 0
M  V30 9961 H 874.064 -1.27297 0.782045 0
M  V30 9962 H 875.946 -4.19119 -0.437873 0
M  V30 9963 H 874.621 -3.10082 -0.929029 0
M  V30 9964 H 873.528 -3.48661 1.35595 0
M  V30 9965 H 874.861 -4.59441 1.76565 0
M  V30 9966 N 876.513 -0.788492 -1.36457 0
M  V30 9967 C 877.762 -0.357052 -1.98515 0
M  V30 9968 C 878.075 1.0769 -1.63285 0
M  V30 9969 O 879.281 1.61057 -2.1857 0
M  V30 9970 C 877.737 -0.587449 -3.55073 0
M  V30 9971 C 877.345 -2.03276 -3.99228 0
M  V30 9972 C 879.089 -0.220468 -4.23927 0
M  V30 9973 C 876.996 -2.20987 -5.48561 0
M  V30 9974 H 875.926 -0.129762 -0.74275 0
M  V30 9975 H 878.577 -0.969995 -1.55767 0
M  V30 9976 H 876.959 0.0951918 -3.95886 0
M  V30 9977 H 878.133 -2.75173 -3.69617 0
M  V30 9978 H 876.448 -2.3579 -3.43208 0
M  V30 9979 H 879.045 -0.331085 -5.33674 0
M  V30 9980 H 879.388 0.831306 -4.07915 0
M  V30 9981 H 879.921 -0.856309 -3.88474 0
M  V30 9982 H 876.66 -3.24543 -5.69519 0
M  V30 9983 H 876.18 -1.53594 -5.79801 0
M  V30 9984 H 877.859 -2.01656 -6.14771 0
M  V30 9985 N 877.991 1.48044 -0.54043 0
M  V30 9986 C 878.921 2.32597 0.205178 0
M  V30 9987 C 879.902 1.42748 0.925041 0
M  V30 9988 O 881.087 1.71624 0.908784 0
M  V30 9989 C 878.217 3.24175 1.24612 0
M  V30 9990 C 877.171 4.23131 0.64376 0
M  V30 9991 C 876.497 5.03915 1.78812 0
M  V30 9992 C 877.797 5.20831 -0.39144 0
M  V30 9993 H 879.491 2.95184 -0.500676 0
M  V30 9994 H 877.037 1.41948 -0.242225 0
M  V30 9995 H 878.99 3.82158 1.77576 0
M  V30 9996 H 877.714 2.59608 1.98169 0
M  V30 9997 H 876.373 3.66349 0.135554 0
M  V30 9998 H 876.021 4.35765 2.51232 0
M  V30 9999 H 875.721 5.709 1.39094 0
M  V30 10000 H 877.245 5.64753 2.32134 0
M  V30 10001 H 878.659 5.73277 0.0515064 0
M  V30 10002 H 877.056 5.95926 -0.706569 0
M  V30 10003 H 878.126 4.6733 -1.29345 0
M  V30 10004 N 879.47 0.276058 1.55163 0
M  V30 10005 C 880.38 -0.621066 2.2623 0
M  V30 10006 C 881.396 -1.16931 1.28853 0
M  V30 10007 O 882.572 -1.1994 1.61791 0
M  V30 10008 C 879.637 -1.78824 2.97023 0
M  V30 10009 C 878.698 -1.27657 4.09881 0
M  V30 10010 C 877.931 -2.38812 4.77289 0
M  V30 10011 O 878.154 -3.58188 4.43912 0
M  V30 10012 O 877.088 -2.06915 5.65217 0
M  V30 10013 H 880.914 -0.0453346 3.03666 0
M  V30 10014 H 878.499 0.0434275 1.49337 0
M  V30 10015 H 880.381 -2.46877 3.41511 0
M  V30 10016 H 879.056 -2.35104 2.22503 0
M  V30 10017 H 877.963 -0.56248 3.69847 0
M  V30 10018 H 879.296 -0.759509 4.86305 0
M  V30 10019 N 880.948 -1.576 0.00335426 0
M  V30 10020 C 882.178 -1.94713 -0.690682 0
M  V30 10021 C 882.586 -0.876915 -1.67651 0
M  V30 10022 O 881.929 0.152434 -1.83066 0
M  V30 10023 C 881.991 -3.27833 -1.47532 0
M  V30 10024 C 881.655 -4.52344 -0.650704 0
M  V30 10025 C 882.652 -5.19862 0.0630537 0
M  V30 10026 C 880.337 -4.98755 -0.595687 0
M  V30 10027 C 882.331 -6.32093 0.820779 0
M  V30 10028 C 880.018 -6.10875 0.165761 0
M  V30 10029 C 881.016 -6.77401 0.872724 0
M  V30 10030 O 880.704 -7.87372 1.62174 0
M  V30 10031 H 880.436 -0.646627 -0.197104 0
M  V30 10032 H 882.99 -2.05335 0.0516082 0
M  V30 10033 H 881.22 -3.13628 -2.26217 0
M  V30 10034 H 882.909 -3.50034 -2.05501 0
M  V30 10035 H 883.675 -4.84991 0.0297223 0
M  V30 10036 H 879.554 -4.46797 -1.13549 0
M  V30 10037 H 883.098 -6.83953 1.37312 0
M  V30 10038 H 878.995 -6.45187 0.200901 0
M  V30 10039 H 879.763 -8.03905 1.5388 0
M  V30 10040 N 882.426 0.269451 -1.5528 0
M  V30 10041 C 883.651 1.02299 -1.80415 0
M  V30 10042 C 884.076 1.7902 -0.577363 0
M  V30 10043 O 883.434 1.75018 0.473125 0
M  V30 10044 C 883.482 1.95445 -3.0304 0
M  V30 10045 O 882.586 3.04271 -2.78375 0
M  V30 10046 H 881.927 0.292289 -0.596207 0
M  V30 10047 H 884.457 0.297282 -2.02429 0
M  V30 10048 H 884.467 2.37333 -3.31869 0
M  V30 10049 H 883.142 1.39017 -3.91978 0
M  V30 10050 H 881.719 2.66673 -2.60653 0
M  V30 10051 N 883.904 1.48273 0.534124 0
M  V30 10052 C 884.851 1.62487 1.6391 0
M  V30 10053 C 885.821 0.467062 1.59398 0
M  V30 10054 O 887.006 0.690029 1.77885 0
M  V30 10055 C 884.146 1.66671 3.02183 0
M  V30 10056 C 883.259 2.9353 3.16961 0
M  V30 10057 C 882.394 2.88902 4.45768 0
M  V30 10058 C 881.433 4.10483 4.54059 0
M  V30 10059 N 880.57 4.03956 5.74251 0
M  V30 10060 H 885.41 2.56851 1.51101 0
M  V30 10061 H 882.947 1.27381 0.735704 0
M  V30 10062 H 884.905 1.67079 3.82283 0
M  V30 10063 H 883.535 0.758011 3.13774 0
M  V30 10064 H 882.587 3.02886 2.3014 0
M  V30 10065 H 883.899 3.83501 3.18949 0
M  V30 10066 H 883.053 2.87688 5.34154 0
M  V30 10067 H 881.792 1.96652 4.46295 0
M  V30 10068 H 880.797 4.11977 3.64081 0
M  V30 10069 H 882.022 5.03887 4.55274 0
M  V30 10070 H 879.968 3.14525 5.75682 0
M  V30 10071 H 879.885 4.87628 5.77715 0
M  V30 10072 H 881.153 4.06795 6.64935 0
M  V30 10073 N 885.382 -0.782676 1.36792 0
M  V30 10074 C 886.292 -1.92679 1.33835 0
M  V30 10075 C 887.308 -1.72344 0.23952 0
M  V30 10076 O 888.484 -1.95766 0.473045 0
M  V30 10077 C 885.549 -3.27644 1.1336 0
M  V30 10078 C 884.61 -3.6071 2.32781 0
M  V30 10079 C 883.843 -4.89234 2.13273 0
M  V30 10080 O 884.066 -5.59468 1.11136 0
M  V30 10081 O 883 -5.21112 3.01208 0
M  V30 10082 H 886.826 -1.98124 2.30175 0
M  V30 10083 H 884.411 -0.923887 1.17408 0
M  V30 10084 H 886.293 -4.08394 1.03886 0
M  V30 10085 H 884.968 -3.23076 0.200868 0
M  V30 10086 H 883.875 -2.80238 2.47825 0
M  V30 10087 H 885.208 -3.70008 3.24584 0
M  V30 10088 N 886.86 -1.21182 -1.00761 0
M  V30 10089 C 888.276 -0.968607 -1.26847 0
M  V30 10090 C 888.476 0.346561 -1.98497 0
M  V30 10091 O 887.532 1.07287 -2.28573 0
M  V30 10092 C 888.845 -2.1574 -2.09467 0
M  V30 10093 C 890.393 -2.19937 -2.22703 0
M  V30 10094 C 890.868 -3.38328 -3.08704 0
M  V30 10095 N 892.359 -3.38398 -3.16293 0
M  V30 10096 C 893.094 -4.26653 -3.83086 0
M  V30 10097 N 892.59 -5.25101 -4.5193 0
M  V30 10098 N 894.383 -4.14469 -3.797 0
M  V30 10099 H 886.534 -2.05763 -0.526816 0
M  V30 10100 H 888.797 -0.90087 -0.29519 0
M  V30 10101 H 888.503 -3.11034 -1.64167 0
M  V30 10102 H 888.377 -2.14584 -3.10216 0
M  V30 10103 H 890.764 -1.25201 -2.67224 0
M  V30 10104 H 890.845 -2.25139 -1.21433 0
M  V30 10105 H 890.489 -4.33356 -2.64886 0
M  V30 10106 H 890.419 -3.30364 -4.10082 0
M  V30 10107 H 892.91 -2.67149 -2.67282 0
M  V30 10108 H 893.223 -5.8875 -5.00592 0
M  V30 10109 H 891.568 -5.29029 -4.50726 0
M  V30 10110 H 894.759 -3.3682 -3.25069 0
M  V30 10111 H 894.932 -4.83458 -4.31477 0
M  V30 10112 N 888.338 1.20213 -1.01915 0
M  V30 10113 C 889.27 2.2251 -0.549725 0
M  V30 10114 C 890.283 1.58558 0.369235 0
M  V30 10115 O 891.472 1.77715 0.167176 0
M  V30 10116 C 888.572 3.38189 0.219432 0
M  V30 10117 C 887.745 4.31729 -0.702066 0
M  V30 10118 C 886.804 5.26196 0.0199624 0
M  V30 10119 O 885.83 5.65993 -0.60339 0
M  V30 10120 N 887.032 5.65895 1.29397 0
M  V30 10121 H 889.797 2.63412 -1.42948 0
M  V30 10122 H 887.358 1.3478 -0.896987 0
M  V30 10123 H 889.35 3.98392 0.711763 0
M  V30 10124 H 887.92 2.96156 1.00051 0
M  V30 10125 H 887.14 3.69455 -1.37466 0
M  V30 10126 H 888.428 4.91145 -1.3287 0
M  V30 10127 H 887.826 5.35579 1.8213 0
M  V30 10128 H 886.383 6.28395 1.73098 0
M  V30 10129 N 889.816 0.795718 1.36037 0
M  V30 10130 C 891.062 0.371574 1.99367 0
M  V30 10131 C 891.395 -1.0557 1.62999 0
M  V30 10132 O 890.67 -1.73051 0.887895 0
M  V30 10133 C 890.953 0.542622 3.55988 0
M  V30 10134 C 890.806 2.01404 4.0219 0
M  V30 10135 C 892.125 -0.0384527 4.40083 0
M  V30 10136 H 889.244 0.136483 0.724252 0
M  V30 10137 H 891.886 1.00323 1.61355 0
M  V30 10138 H 890.036 0.0049053 3.885 0
M  V30 10139 H 891.708 2.6133 3.80137 0
M  V30 10140 H 889.951 2.51439 3.53498 0
M  V30 10141 H 890.622 2.08466 5.11122 0
M  V30 10142 H 893.098 0.420634 4.13968 0
M  V30 10143 H 891.974 0.111214 5.48787 0
M  V30 10144 H 892.235 -1.13116 4.27384 0
M  V30 10145 N 891.294 -1.47756 0.548274 0
M  V30 10146 C 892.224 -2.32702 -0.19284 0
M  V30 10147 C 893.205 -1.43237 -0.917457 0
M  V30 10148 O 894.39 -1.72103 -0.89967 0
M  V30 10149 C 891.52 -3.24831 -1.22891 0
M  V30 10150 C 890.474 -4.23466 -0.621312 0
M  V30 10151 C 889.8 -5.04856 -1.76137 0
M  V30 10152 C 891.1 -5.20616 0.419055 0
M  V30 10153 H 892.794 -2.94914 0.516323 0
M  V30 10154 H 890.34 -1.41818 0.24975 0
M  V30 10155 H 892.293 -3.83094 -1.75547 0
M  V30 10156 H 891.017 -2.60656 -1.9679 0
M  V30 10157 H 889.676 -3.66416 -0.116123 0
M  V30 10158 H 889.324 -4.37091 -2.48918 0
M  V30 10159 H 889.024 -5.71629 -1.36065 0
M  V30 10160 H 890.548 -5.65976 -2.29136 0
M  V30 10161 H 891.962 -5.73296 -0.0211034 0
M  V30 10162 H 890.359 -5.95543 0.738163 0
M  V30 10163 H 891.429 -4.66638 1.31822 0
M  V30 10164 N 892.772 -0.284283 -1.55015 0
M  V30 10165 C 893.682 0.60906 -2.26556 0
M  V30 10166 C 894.698 1.16246 -1.29472 0
M  V30 10167 O 895.874 1.1908 -1.62425 0
M  V30 10168 C 892.939 1.77246 -2.97968 0
M  V30 10169 C 892 1.25482 -4.10552 0
M  V30 10170 C 891.233 2.36277 -4.78549 0
M  V30 10171 O 891.456 3.55829 -4.45805 0
M  V30 10172 O 890.39 2.03914 -5.66306 0
M  V30 10173 H 894.216 0.0292298 -3.03686 0
M  V30 10174 H 891.801 -0.0513466 -1.49312 0
M  V30 10175 H 893.683 2.45062 -3.42815 0
M  V30 10176 H 892.358 2.33921 -2.23747 0
M  V30 10177 H 891.265 0.542859 -3.7014 0
M  V30 10178 H 892.598 0.733708 -4.86701 0
M  V30 10179 N 894.251 1.57596 -0.0117121 0
M  V30 10180 C 895.498 1.91071 0.670667 0
M  V30 10181 C 895.826 0.886457 1.73125 0
M  V30 10182 O 895.081 -0.107135 1.95407 0
M  V30 10183 C 895.38 3.31296 1.34082 0
M  V30 10184 C 895.046 4.49011 0.412305 0
M  V30 10185 C 893.708 4.80945 0.156691 0
M  V30 10186 C 896.06 5.20709 -0.226294 0
M  V30 10187 C 893.388 5.81943 -0.745619 0
M  V30 10188 C 895.74 6.22668 -1.11655 0
M  V30 10189 C 894.404 6.53053 -1.38123 0
M  V30 10190 H 893.674 0.69918 0.245415 0
M  V30 10191 H 896.321 1.91373 -0.0697511 0
M  V30 10192 H 894.626 3.27174 2.15557 0
M  V30 10193 H 896.323 3.54461 1.87506 0
M  V30 10194 H 892.913 4.24067 0.621705 0
M  V30 10195 H 897.097 4.96282 -0.0418456 0
M  V30 10196 H 892.353 6.03839 -0.958566 0
M  V30 10197 H 896.527 6.77351 -1.61767 0
M  V30 10198 H 894.154 7.31132 -2.08208 0
M  V30 10199 N 895.729 -0.261212 1.5542 0
M  V30 10200 C 896.957 -1.00916 1.8062 0
M  V30 10201 C 897.372 -1.79494 0.585444 0
M  V30 10202 O 896.729 -1.76974 -0.445702 0
M  V30 10203 C 896.78 -1.95841 3.03856 0
M  V30 10204 O 896.501 -1.20445 4.21218 0
M  V30 10205 C 898.002 -2.82352 3.41749 0
M  V30 10206 H 895.222 -0.297596 0.601397 0
M  V30 10207 H 897.766 -0.288427 2.02456 0
M  V30 10208 H 895.921 -2.63361 2.84112 0
M  V30 10209 H 896.335 -1.84528 4.90968 0
M  V30 10210 H 897.809 -3.44733 4.31118 0
M  V30 10211 H 898.286 -3.5273 2.61683 0
M  V30 10212 H 898.892 -2.20306 3.63793 0
M  V30 10213 N 897.207 -1.48554 -0.526253 0
M  V30 10214 C 898.117 -1.66044 -1.65731 0
M  V30 10215 C 899.133 -0.542951 -1.65312 0
M  V30 10216 O 900.309 -0.814495 -1.84195 0
M  V30 10217 C 897.374 -1.69959 -3.02184 0
M  V30 10218 C 896.435 -2.93362 -3.13428 0
M  V30 10219 C 895.668 -2.97081 -4.43372 0
M  V30 10220 O 895.891 -2.09103 -5.3069 0
M  V30 10221 O 894.825 -3.8929 -4.59061 0
M  V30 10222 H 898.651 -2.61811 -1.53912 0
M  V30 10223 H 896.236 -1.31999 -0.699759 0
M  V30 10224 H 898.118 -1.75033 -3.83329 0
M  V30 10225 H 896.793 -0.773658 -3.14319 0
M  V30 10226 H 895.7 -2.93818 -2.31564 0
M  V30 10227 H 897.033 -3.85352 -3.06211 0
M  V30 10228 N 898.685 0.775411 -1.37205 0
M  V30 10229 C 899.932 1.53384 -1.32211 0
M  V30 10230 C 900.26 1.9427 0.0944958 0
M  V30 10231 O 899.515 1.64059 1.06692 0
M  V30 10232 C 899.814 2.81377 -2.20367 0
M  V30 10233 C 899.48 2.59561 -3.68699 0
M  V30 10234 C 898.142 2.53319 -4.09124 0
M  V30 10235 C 900.494 2.39939 -4.62686 0
M  V30 10236 C 897.822 2.25442 -5.41658 0
M  V30 10237 C 900.174 2.13586 -5.95453 0
M  V30 10238 C 898.838 2.05786 -6.34987 0
M  V30 10239 H 898.108 0.561271 -0.483793 0
M  V30 10240 H 900.755 0.893466 -1.6938 0
M  V30 10241 H 899.06 3.49954 -1.76181 0
M  V30 10242 H 900.757 3.39238 -2.13819 0
M  V30 10243 H 897.347 2.6528 -3.36637 0
M  V30 10244 H 901.531 2.43753 -4.32317 0
M  V30 10245 H 896.787 2.17896 -5.71254 0
M  V30 10246 H 900.961 1.97401 -6.67837 0
M  V30 10247 H 898.588 1.83948 -7.37609 0
M  V30 10248 N 900.163 1.21714 1.00117 0
M  V30 10249 C 901.111 0.976937 2.11089 0
M  V30 10250 C 902.105 -0.0771295 1.69224 0
M  V30 10251 O 903.311 0.0745945 1.79845 0
M  V30 10252 H 899.686 0.298687 0.690138 0
M  V30 10253 H 901.657 1.91881 2.28526 0
M  V30 10254 C 900.406 0.562369 3.43122 0
M  V30 10255 H 899.729 1.36509 3.75773 0
M  V30 10256 H 901.169 0.433642 4.21777 0
M  V30 10257 C 899.628 -0.727148 3.28959 0
M  V30 10258 O 900.158 -1.78171 3.60025 0
M  V30 10259 N 898.364 -0.695129 2.82164 0
M  V30 10260 H 897.911 0.163346 2.57082 0
M  V30 10261 H 897.869 -1.55822 2.73069 0
M  V30 10262 N 901.641 -1.19671 1.02551 0
M  V30 10263 C 902.571 -2.25009 0.623965 0
M  V30 10264 C 903.552 -1.66129 -0.36538 0
M  V30 10265 O 904.737 -1.92599 -0.248842 0
M  V30 10266 C 901.867 -3.47287 -0.0294869 0
M  V30 10267 C 900.821 -4.18818 0.881781 0
M  V30 10268 C 900.147 -5.34618 0.0936189 0
M  V30 10269 C 901.447 -4.73986 2.19396 0
M  V30 10270 H 903.141 -2.58851 1.50454 0
M  V30 10271 H 900.687 -1.24425 0.724872 0
M  V30 10272 H 902.64 -4.20168 -0.322016 0
M  V30 10273 H 901.364 -3.12635 -0.944838 0
M  V30 10274 H 900.023 -3.47815 1.15845 0
M  V30 10275 H 899.671 -4.9621 -0.823661 0
M  V30 10276 H 899.371 -5.83409 0.700568 0
M  V30 10277 H 900.895 -6.10297 -0.192249 0
M  V30 10278 H 902.309 -5.38639 1.96319 0
M  V30 10279 H 900.706 -5.3325 2.75254 0
M  V30 10280 H 901.776 -3.92238 2.85092 0
M  V30 10281 N 903.119 -0.802921 -1.35613 0
M  V30 10282 C 904.067 -0.198783 -2.31749 0
M  V30 10283 C 905.061 0.649416 -1.56458 0
M  V30 10284 O 906.267 0.542989 -1.71615 0
M  V30 10285 H 902.642 -0.0455177 -0.750621 0
M  V30 10286 H 904.613 -1.02479 -2.80251 0
M  V30 10287 C 903.362 0.641066 -3.41739 0
M  V30 10288 H 902.685 -0.00226244 -3.998 0
M  V30 10289 H 904.125 1.03022 -4.11294 0
M  V30 10290 C 902.584 1.80505 -2.84464 0
M  V30 10291 O 903.114 2.90235 -2.77717 0
M  V30 10292 N 901.32 1.61542 -2.41563 0
M  V30 10293 H 900.867 0.722863 -2.4725 0
M  V30 10294 H 900.825 2.39581 -2.03589 0
M  V30 10295 N 904.597 1.47463 -0.556102 0
M  V30 10296 C 905.507 2.33785 0.195378 0
M  V30 10297 C 906.523 1.48123 0.913 0
M  V30 10298 O 907.699 1.81053 0.882141 0
M  V30 10299 C 904.764 3.24795 1.21282 0
M  V30 10300 C 903.825 4.26346 0.502747 0
M  V30 10301 C 903.058 5.13007 1.47172 0
M  V30 10302 O 903.281 5.02103 2.70646 0
M  V30 10303 O 902.215 5.93588 0.996814 0
M  V30 10304 H 906.041 2.99341 -0.512676 0
M  V30 10305 H 903.626 1.46004 -0.31673 0
M  V30 10306 H 905.508 3.81015 1.80016 0
M  V30 10307 H 904.183 2.61868 1.90282 0
M  V30 10308 H 903.09 3.73889 -0.125757 0
M  V30 10309 H 904.423 4.91984 -0.145779 0
M  V30 10310 N 906.075 0.2925 1.54862 0
M  V30 10311 C 907.005 -0.580677 2.26165 0
M  V30 10312 C 907.986 -1.14485 1.25806 0
M  V30 10313 O 909.171 -1.17577 1.54562 0
M  V30 10314 C 906.301 -1.75668 2.99596 0
M  V30 10315 C 905.255 -1.32325 4.07031 0
M  V30 10316 C 904.581 -2.58374 4.68131 0
M  V30 10317 C 905.881 -0.460703 5.20264 0
M  V30 10318 H 907.575 0.0140075 2.99397 0
M  V30 10319 H 905.121 0.00817706 1.43998 0
M  V30 10320 H 907.074 -2.37356 3.48195 0
M  V30 10321 H 905.798 -2.37747 2.23928 0
M  V30 10322 H 904.457 -0.729477 3.59269 0
M  V30 10323 H 904.105 -3.18749 3.89112 0
M  V30 10324 H 903.805 -2.30078 5.40683 0
M  V30 10325 H 905.329 -3.2088 5.19489 0
M  V30 10326 H 906.743 -0.983037 5.64809 0
M  V30 10327 H 905.14 -0.271881 5.99484 0
M  V30 10328 H 906.21 0.516304 4.82143 0
M  V30 10329 N 907.553 -1.57587 0.0200696 0
M  V30 10330 C 908.802 -1.90602 -0.659822 0
M  V30 10331 C 909.115 -0.897216 -1.73808 0
M  V30 10332 O 910.321 -1.11829 -2.47399 0
M  V30 10333 C 908.777 -3.38416 -1.22484 0
M  V30 10334 C 908.385 -4.47637 -0.180339 0
M  V30 10335 C 910.129 -3.80513 -1.88176 0
M  V30 10336 C 908.036 -5.86542 -0.756482 0
M  V30 10337 H 906.966 -0.711272 -0.250216 0
M  V30 10338 H 909.617 -1.83308 0.0838942 0
M  V30 10339 H 907.999 -3.40613 -2.01987 0
M  V30 10340 H 909.173 -4.56987 0.591573 0
M  V30 10341 H 907.488 -4.14687 0.377302 0
M  V30 10342 H 910.085 -4.8164 -2.32222 0
M  V30 10343 H 910.428 -3.15091 -2.72073 0
M  V30 10344 H 910.961 -3.80701 -1.15377 0
M  V30 10345 H 907.7 -6.55485 0.0441468 0
M  V30 10346 H 907.22 -5.80816 -1.49709 0
M  V30 10347 H 908.899 -6.3483 -1.249 0
M  V30 10348 N 909.032 0.252966 -1.55557 0
M  V30 10349 C 910.448 0.60118 -1.47844 0
M  V30 10350 C 910.648 1.88612 -0.709055 0
M  V30 10351 O 909.704 2.51395 -0.235964 0
M  V30 10352 C 911.017 0.709539 -2.92209 0
M  V30 10353 C 912.565 0.802269 -3.02544 0
M  V30 10354 C 913.04 0.94224 -4.48203 0
M  V30 10355 N 914.531 1.00726 -4.52116 0
M  V30 10356 C 915.266 1.13472 -5.6206 0
M  V30 10357 N 914.762 1.22811 -6.81828 0
M  V30 10358 N 916.555 1.1674 -5.49844 0
M  V30 10359 H 908.706 -0.590635 -2.04023 0
M  V30 10360 H 910.969 -0.202986 -0.926013 0
M  V30 10361 H 910.675 -0.164505 -3.51315 0
M  V30 10362 H 910.549 1.58343 -3.42356 0
M  V30 10363 H 912.936 1.66677 -2.43522 0
M  V30 10364 H 913.017 -0.0966469 -2.55617 0
M  V30 10365 H 912.661 0.0823209 -5.07833 0
M  V30 10366 H 912.591 1.85611 -4.92805 0
M  V30 10367 H 915.082 0.946684 -3.6585 0
M  V30 10368 H 915.395 1.32426 -7.61369 0
M  V30 10369 H 913.74 1.19779 -6.84601 0
M  V30 10370 H 916.931 1.09089 -4.55211 0
M  V30 10371 H 917.104 1.26329 -6.35567 0
M  V30 10372 N 910.51 1.48831 0.518367 0
M  V30 10373 C 911.42 1.6692 1.64848 0
M  V30 10374 C 912.436 0.551711 1.65022 0
M  V30 10375 O 913.612 0.824251 1.83761 0
M  V30 10376 C 910.677 1.71559 3.01278 0
M  V30 10377 C 909.738 2.9502 3.11868 0
M  V30 10378 C 908.971 2.99428 4.4179 0
M  V30 10379 O 909.194 2.11914 5.29574 0
M  V30 10380 O 908.128 3.91719 4.5699 0
M  V30 10381 H 911.954 2.62623 1.52521 0
M  V30 10382 H 909.539 1.32368 0.692749 0
M  V30 10383 H 911.421 1.77064 3.82396 0
M  V30 10384 H 910.096 0.790316 3.13904 0
M  V30 10385 H 909.003 2.95042 2.30003 0
M  V30 10386 H 910.336 3.8697 3.04163 0
M  V30 10387 N 911.988 -0.768124 1.37614 0
M  V30 10388 C 913.234 -1.52907 1.33219 0
M  V30 10389 C 913.567 -1.94026 -0.0821218 0
M  V30 10390 O 912.842 -1.64345 -1.04023 0
M  V30 10391 C 913.125 -2.79164 2.27463 0
M  V30 10392 C 912.978 -2.44276 3.7769 0
M  V30 10393 C 914.297 -3.81115 2.20089 0
M  V30 10394 H 911.416 -0.554712 0.485246 0
M  V30 10395 H 914.058 -0.880911 1.68345 0
M  V30 10396 H 912.208 -3.34472 1.97639 0
M  V30 10397 H 913.88 -1.94855 4.18126 0
M  V30 10398 H 912.123 -1.76925 3.96081 0
M  V30 10399 H 912.794 -3.34544 4.39072 0
M  V30 10400 H 915.27 -3.35311 2.46386 0
M  V30 10401 H 914.146 -4.67174 2.88166 0
M  V30 10402 H 914.407 -4.25644 1.19498 0
M  V30 10403 N 913.466 -1.22244 -0.994698 0
M  V30 10404 C 914.696 -1.07062 -1.76695 0
M  V30 10405 C 915.104 0.381895 -1.85306 0
M  V30 10406 O 914.447 1.27648 -1.32105 0
M  V30 10407 C 914.509 -1.60487 -3.2169 0
M  V30 10408 C 914.173 -3.09079 -3.36629 0
M  V30 10409 C 915.17 -4.06526 -3.24088 0
M  V30 10410 C 912.855 -3.48497 -3.61739 0
M  V30 10411 C 914.849 -5.41377 -3.36437 0
M  V30 10412 C 912.536 -4.83498 -3.73729 0
M  V30 10413 C 913.534 -5.79747 -3.61086 0
M  V30 10414 O 913.222 -7.12297 -3.72678 0
M  V30 10415 H 912.954 -0.375963 -0.561807 0
M  V30 10416 H 915.508 -1.62259 -1.25941 0
M  V30 10417 H 913.738 -0.996957 -3.73628 0
M  V30 10418 H 915.427 -1.40994 -3.80625 0
M  V30 10419 H 916.193 -3.77415 -3.04602 0
M  V30 10420 H 912.072 -2.74106 -3.70657 0
M  V30 10421 H 915.616 -6.16485 -3.26485 0
M  V30 10422 H 911.513 -5.1229 -3.92721 0
M  V30 10423 H 912.281 -7.1985 -3.89562 0
M  V30 10424 N 914.944 1.19125 -1.03184 0
M  V30 10425 C 916.19 1.89163 -0.731111 0
M  V30 10426 C 916.523 1.79604 0.738662 0
M  V30 10427 O 915.798 1.19037 1.53819 0
M  V30 10428 C 916.081 3.39986 -1.18666 0
M  V30 10429 C 915.934 3.58401 -2.71788 0
M  V30 10430 C 917.253 4.33316 -0.769772 0
M  V30 10431 H 914.372 0.686908 -0.267069 0
M  V30 10432 H 917.014 1.40205 -1.28229 0
M  V30 10433 H 915.164 3.81813 -0.717736 0
M  V30 10434 H 916.836 3.25727 -3.26649 0
M  V30 10435 H 915.079 3.01355 -3.12038 0
M  V30 10436 H 915.75 4.64189 -2.98719 0
M  V30 10437 H 918.226 3.9922 -1.17314 0
M  V30 10438 H 917.102 5.37427 -1.11637 0
M  V30 10439 H 917.363 4.40884 0.327681 0
M  V30 10440 N 916.422 0.810101 1.35185 0
M  V30 10441 C 917.352 0.237453 2.32289 0
M  V30 10442 C 918.333 -0.639032 1.5764 0
M  V30 10443 O 919.518 -0.568575 1.8569 0
M  V30 10444 C 916.648 -0.611964 3.41866 0
M  V30 10445 C 915.602 0.166318 4.27677 0
M  V30 10446 C 914.928 -0.805024 5.28605 0
M  V30 10447 C 916.228 1.36729 5.04086 0
M  V30 10448 H 917.922 1.04874 2.80432 0
M  V30 10449 H 915.468 0.505751 1.34826 0
M  V30 10450 H 917.421 -1.02267 4.08802 0
M  V30 10451 H 916.145 -1.45617 2.92341 0
M  V30 10452 H 914.804 0.558238 3.62325 0
M  V30 10453 H 914.452 -1.64483 4.75347 0
M  V30 10454 H 914.152 -0.288577 5.86891 0
M  V30 10455 H 915.676 -1.21386 5.98413 0
M  V30 10456 H 917.09 1.03128 5.63948 0
M  V30 10457 H 915.487 1.81848 5.71884 0
M  V30 10458 H 916.557 2.15214 4.34524 0
M  V30 10459 N 917.9 -1.47166 0.563914 0
M  V30 10460 C 919.147 -2.02456 0.042371 0
M  V30 10461 C 919.475 -1.43753 -1.31016 0
M  V30 10462 O 918.73 -0.585287 -1.86743 0
M  V30 10463 C 919.029 -3.57279 -0.0931797 0
M  V30 10464 C 918.695 -4.34932 1.18933 0
M  V30 10465 C 917.357 -4.55867 1.54073 0
M  V30 10466 C 919.709 -4.79665 2.03889 0
M  V30 10467 C 917.037 -5.18785 2.74005 0
M  V30 10468 C 919.389 -5.43907 3.23029 0
M  V30 10469 C 918.053 -5.63074 3.58475 0
M  V30 10470 H 917.323 -0.740838 0.0155047 0
M  V30 10471 H 919.97 -1.76759 0.736776 0
M  V30 10472 H 918.275 -3.82005 -0.870596 0
M  V30 10473 H 919.972 -3.97716 -0.512176 0
M  V30 10474 H 916.562 -4.18921 0.905718 0
M  V30 10475 H 920.746 -4.63264 1.78046 0
M  V30 10476 H 916.002 -5.31818 3.01628 0
M  V30 10477 H 920.176 -5.77531 3.89141 0
M  V30 10478 H 917.803 -6.11598 4.515 0
M  V30 10479 N 919.378 -0.300708 -1.54705 0
M  V30 10480 C 920.288 0.584996 -2.27189 0
M  V30 10481 C 921.304 1.14866 -1.30697 0
M  V30 10482 O 922.48 1.17351 -1.63679 0
M  V30 10483 C 919.545 1.74076 -2.99831 0
M  V30 10484 C 918.606 1.2112 -4.1186 0
M  V30 10485 C 917.839 2.31188 -4.81028 0
M  V30 10486 O 918.062 3.5108 -4.49554 0
M  V30 10487 O 916.996 1.97897 -5.68437 0
M  V30 10488 H 920.822 -0.00298177 -3.037 0
M  V30 10489 H 918.407 -0.0671802 -1.49249 0
M  V30 10490 H 920.289 2.41413 -3.45395 0
M  V30 10491 H 918.964 2.31535 -2.26215 0
M  V30 10492 H 917.871 0.50357 -3.70695 0
M  V30 10493 H 919.204 0.682046 -4.87452 0
M  V30 10494 N 920.856 1.57574 -0.0284266 0
M  V30 10495 C 921.766 2.13637 0.96936 0
M  V30 10496 C 922.782 1.08845 1.35752 0
M  V30 10497 O 923.958 1.40899 1.43908 0
M  V30 10498 C 921.023 2.65179 2.2334 0
M  V30 10499 C 920.084 3.84683 1.90572 0
M  V30 10500 C 919.317 4.33758 3.1095 0
M  V30 10501 O 919.54 3.82009 4.23586 0
M  V30 10502 O 918.474 5.2561 2.93288 0
M  V30 10503 H 922.3 2.99169 0.52267 0
M  V30 10504 H 919.885 1.48159 0.192135 0
M  V30 10505 H 921.767 2.98402 2.97547 0
M  V30 10506 H 920.442 1.82731 2.67191 0
M  V30 10507 H 919.349 3.56386 1.13753 0
M  V30 10508 H 920.682 4.68292 1.51538 0
M  V30 10509 N 922.334 -0.244713 1.55689 0
M  V30 10510 C 923.281 -1.30301 1.905 0
M  V30 10511 C 924.251 -1.4772 0.759478 0
M  V30 10512 O 925.436 -1.61667 1.01333 0
M  V30 10513 C 922.576 -2.653 2.20703 0
M  V30 10514 C 921.689 -2.55872 3.48071 0
M  V30 10515 C 920.824 -3.83238 3.67834 0
M  V30 10516 C 919.863 -3.68436 4.88796 0
M  V30 10517 N 919 -4.877 5.05068 0
M  V30 10518 H 923.84 -0.999143 2.80751 0
M  V30 10519 H 921.377 -0.482099 1.38976 0
M  V30 10520 H 923.335 -3.43884 2.36219 0
M  V30 10521 H 921.965 -2.93831 1.33653 0
M  V30 10522 H 921.017 -1.68846 3.40874 0
M  V30 10523 H 922.329 -2.40845 4.36801 0
M  V30 10524 H 921.483 -4.70266 3.83321 0
M  V30 10525 H 920.222 -4.01165 2.77341 0
M  V30 10526 H 919.227 -2.79793 4.73282 0
M  V30 10527 H 920.452 -3.52003 5.8075 0
M  V30 10528 H 918.398 -5.05983 4.17513 0
M  V30 10529 H 918.315 -4.75312 5.8789 0
M  V30 10530 H 919.583 -5.76219 5.24969 0
M  V30 10531 N 923.813 -1.49104 -0.510467 0
M  V30 10532 C 925.062 -1.57362 -1.26175 0
M  V30 10533 C 925.375 -0.261218 -1.93848 0
M  V30 10534 O 926.581 -0.222238 -2.70589 0
M  V30 10535 C 925.037 -2.77606 -2.29048 0
M  V30 10536 C 924.645 -4.15567 -1.67357 0
M  V30 10537 C 926.389 -2.95188 -3.05064 0
M  V30 10538 C 924.296 -5.27046 -2.68285 0
M  V30 10539 H 923.226 -0.585887 -0.474608 0
M  V30 10540 H 925.877 -1.75474 -0.536753 0
M  V30 10541 H 924.259 -2.52968 -3.04669 0
M  V30 10542 H 925.433 -4.50304 -0.977924 0
M  V30 10543 H 923.748 -4.03264 -1.03765 0
M  V30 10544 H 926.345 -3.75643 -3.80521 0
M  V30 10545 H 926.688 -2.05385 -3.62108 0
M  V30 10546 H 927.221 -3.19821 -2.36558 0
M  V30 10547 H 923.96 -6.18878 -2.16034 0
M  V30 10548 H 923.48 -4.96774 -3.36118 0
M  V30 10549 H 925.159 -5.55983 -3.30896 0
M  V30 10550 N 925.291 0.760815 -1.38019 0
M  V30 10551 C 926.707 1.06289 -1.19058 0
M  V30 10552 C 926.907 2.01471 -0.0342603 0
M  V30 10553 O 925.963 2.44713 0.62224 0
M  V30 10554 C 927.276 1.6499 -2.51394 0
M  V30 10555 C 928.824 1.77196 -2.58013 0
M  V30 10556 C 929.299 2.3931 -3.90506 0
M  V30 10557 N 930.79 2.46749 -3.92007 0
M  V30 10558 C 931.525 2.95687 -4.91281 0
M  V30 10559 N 931.021 3.44715 -6.00952 0
M  V30 10560 N 932.814 2.94661 -4.78677 0
M  V30 10561 H 924.965 0.129045 -2.12008 0
M  V30 10562 H 927.228 0.119878 -0.94039 0
M  V30 10563 H 926.934 1.0252 -3.36426 0
M  V30 10564 H 926.808 2.64146 -2.6927 0
M  V30 10565 H 929.195 2.38796 -1.7338 0
M  V30 10566 H 929.276 0.767645 -2.4401 0
M  V30 10567 H 928.92 1.78346 -4.75558 0
M  V30 10568 H 928.85 3.40369 -4.01817 0
M  V30 10569 H 931.341 2.12064 -3.12789 0
M  V30 10570 H 931.654 3.80492 -6.72641 0
M  V30 10571 H 929.999 3.42791 -6.04582 0
M  V30 10572 H 933.19 2.55665 -3.92113 0
M  V30 10573 H 933.363 3.32489 -5.56197 0
M  V30 10574 N 926.769 1.22769 0.988202 0
M  V30 10575 C 927.716 1.00195 2.07917 0
M  V30 10576 C 928.686 -0.0779391 1.65917 0
M  V30 10577 O 929.871 0.0726005 1.90662 0
M  V30 10578 C 927.011 0.590853 3.40004 0
M  V30 10579 C 926.124 1.74202 3.9532 0
M  V30 10580 C 925.259 1.27846 5.15586 0
M  V30 10581 C 924.298 2.40087 5.63049 0
M  V30 10582 N 923.435 1.94744 6.74551 0
M  V30 10583 H 928.275 1.93581 2.26562 0
M  V30 10584 H 925.812 0.96448 1.11068 0
M  V30 10585 H 927.77 0.333653 4.15864 0
M  V30 10586 H 926.4 -0.306007 3.21346 0
M  V30 10587 H 925.452 2.11342 3.16289 0
M  V30 10588 H 926.764 2.58612 4.26522 0
M  V30 10589 H 925.918 0.978919 5.9875 0
M  V30 10590 H 924.657 0.404617 4.86019 0
M  V30 10591 H 923.662 2.70824 4.78471 0
M  V30 10592 H 924.887 3.27995 5.9464 0
M  V30 10593 H 922.833 1.09729 6.46758 0
M  V30 10594 H 922.75 2.72718 7.05096 0
M  V30 10595 H 924.018 1.67873 7.61209 0
M  V30 10596 N 928.247 -1.18576 1.03814 0
M  V30 10597 C 929.18 -2.20929 0.571463 0
M  V30 10598 C 930.158 -1.57788 -0.392636 0
M  V30 10599 O 931.342 -1.85974 -0.30754 0
M  V30 10600 C 928.469 -3.38295 -0.165504 0
M  V30 10601 C 927.515 -4.19828 0.751457 0
M  V30 10602 S 928.348 -4.86725 2.23291 0
M  V30 10603 C 929.504 -6.07494 1.50672 0
M  V30 10604 H 929.737 -2.60173 1.43866 0
M  V30 10605 H 927.27 -1.2897 0.84888 0
M  V30 10606 H 929.228 -4.06317 -0.584545 0
M  V30 10607 H 927.889 -2.97468 -1.00855 0
M  V30 10608 H 927.082 -5.03671 0.181986 0
M  V30 10609 H 926.684 -3.57172 1.10923 0
M  V30 10610 H 928.976 -6.72779 0.798377 0
M  V30 10611 H 929.919 -6.68942 2.3221 0
M  V30 10612 H 930.327 -5.55569 1.00016 0
M  V30 10613 N 929.725 -0.817259 -1.34754 0
M  V30 10614 C 930.673 -0.223352 -2.31525 0
M  V30 10615 C 931.667 0.632785 -1.57137 0
M  V30 10616 O 932.873 0.524757 -1.72181 0
M  V30 10617 H 929.248 -0.0534765 -0.750096 0
M  V30 10618 H 931.219 -1.05446 -2.79148 0
M  V30 10619 C 929.968 0.604784 -3.424 0
M  V30 10620 H 929.291 -0.0446664 -3.99775 0
M  V30 10621 H 930.731 0.986543 -4.12363 0
M  V30 10622 C 929.19 1.77478 -2.86362 0
M  V30 10623 O 929.72 2.87273 -2.8078 0
M  V30 10624 N 927.926 1.58971 -2.43263 0
M  V30 10625 H 927.473 0.696598 -2.48003 0
M  V30 10626 H 927.431 2.37408 -2.06119 0
M  V30 10627 N 931.203 1.46865 -0.571711 0
M  V30 10628 C 932.452 2.01636 -0.050881 0
M  V30 10629 C 932.765 1.45001 1.31279 0
M  V30 10630 O 933.971 1.91523 1.92435 0
M  V30 10631 C 932.427 3.59877 -0.0404114 0
M  V30 10632 C 932.035 4.25506 -1.40172 0
M  V30 10633 C 933.779 4.22346 0.42705 0
M  V30 10634 C 931.686 5.75795 -1.34958 0
M  V30 10635 H 930.616 0.753846 -0.0152514 0
M  V30 10636 H 933.267 1.68711 -0.721723 0
M  V30 10637 H 931.649 3.89829 0.696374 0
M  V30 10638 H 932.823 4.07178 -2.15737 0
M  V30 10639 H 931.138 3.75086 -1.8083 0
M  V30 10640 H 933.735 5.32499 0.484688 0
M  V30 10641 H 934.078 3.9052 1.44222 0
M  V30 10642 H 934.611 3.9698 -0.255326 0
M  V30 10643 H 931.35 6.12265 -2.3412 0
M  V30 10644 H 930.87 5.96419 -0.635962 0
M  V30 10645 H 932.549 6.38294 -1.05779 0
M  V30 10646 N 932.681 0.308908 1.54543 0
M  V30 10647 C 933.958 -0.351558 1.92415 0
M  V30 10648 C 934.338 -1.71061 1.23699 0
M  V30 10649 O 933.686 -2.25394 0.3755 0
M  V30 10650 C 933.896 -0.458357 3.45977 0
M  V30 10651 C 935.244 -0.725524 4.18355 0
M  V30 10652 O 936.268 -0.541859 3.52054 0
M  V30 10653 O 935.127 -1.07884 5.35745 0
M  V30 10654 H 932.221 -0.197957 0.802958 0
M  V30 10655 H 934.767 0.357548 1.65891 0
M  V30 10656 H 933.539 0.496723 3.88134 0
M  V30 10657 H 933.162 -1.21562 3.78561 0
M  V30 10658 N 934.159 -1.57557 0.0367827 0
M  V30 10659 C 935.406 -1.92114 -0.640185 0
M  V30 10660 C 935.734 -0.913887 -1.71693 0
M  V30 10661 O 934.989 0.0760343 -1.95552 0
M  V30 10662 C 935.288 -3.33387 -1.28794 0
M  V30 10663 C 934.954 -4.4961 -0.340819 0
M  V30 10664 C 933.616 -4.81133 -0.0801574 0
M  V30 10665 C 935.968 -5.20283 0.309106 0
M  V30 10666 C 933.296 -5.80683 0.838107 0
M  V30 10667 C 935.648 -6.20813 1.21547 0
M  V30 10668 C 934.312 -6.50773 1.48495 0
M  V30 10669 H 933.582 -0.702996 -0.23426 0
M  V30 10670 H 936.229 -1.91238 0.100188 0
M  V30 10671 H 934.534 -3.30561 -2.10324 0
M  V30 10672 H 936.231 -3.57399 -1.81843 0
M  V30 10673 H 932.821 -4.25002 -0.554161 0
M  V30 10674 H 937.005 -4.96153 0.120794 0
M  V30 10675 H 932.261 -6.02238 1.05451 0
M  V30 10676 H 936.435 -6.74692 1.72522 0
M  V30 10677 H 934.062 -7.27727 2.19814 0
M  V30 10678 N 935.637 0.236453 -1.55816 0
M  V30 10679 C 936.877 0.970249 -1.79904 0
M  V30 10680 C 937.241 1.8212 -0.607965 0
M  V30 10681 O 938.442 2.58759 -0.727833 0
M  V30 10682 C 936.713 1.79938 -3.088 0
M  V30 10683 S 938.272 2.59084 -3.54148 0
M  V30 10684 H 935.09 0.32618 -0.631765 0
M  V30 10685 H 937.692 0.237147 -1.94056 0
M  V30 10686 H 936.396 1.16412 -3.93544 0
M  V30 10687 H 935.927 2.57504 -2.97414 0
M  V30 10688 H 937.942 3.82315 -3.16306 0
M  V30 10689 N 937.115 1.49373 0.502552 0
M  V30 10690 C 938.362 1.58781 1.25678 0
M  V30 10691 C 938.69 0.273819 1.92563 0
M  V30 10692 O 937.945 -0.738141 1.81246 0
M  V30 10693 C 938.244 2.69508 2.34735 0
M  V30 10694 C 937.91 4.11057 1.85318 0
M  V30 10695 C 936.572 4.49578 1.7156 0
M  V30 10696 C 938.924 4.99653 1.48312 0
M  V30 10697 C 936.252 5.74469 1.19172 0
M  V30 10698 C 938.604 6.2506 0.97377 0
M  V30 10699 C 937.268 6.62412 0.822573 0
M  V30 10700 H 936.538 0.581021 0.459887 0
M  V30 10701 H 939.185 1.83197 0.557767 0
M  V30 10702 H 937.49 2.39057 3.10418 0
M  V30 10703 H 939.187 2.73997 2.92791 0
M  V30 10704 H 935.777 3.80651 1.96985 0
M  V30 10705 H 939.961 4.70549 1.57789 0
M  V30 10706 H 935.217 6.0211 1.06176 0
M  V30 10707 H 939.391 6.93089 0.678233 0
M  V30 10708 H 937.018 7.59069 0.414453 0
M  V30 10709 N 938.594 -0.753485 1.38421 0
M  V30 10710 C 939.504 -1.89797 1.37892 0
M  V30 10711 C 940.52 -1.71797 0.276023 0
M  V30 10712 O 941.696 -1.94718 0.514464 0
M  V30 10713 C 938.761 -3.25166 1.20284 0
M  V30 10714 C 937.822 -3.55691 2.4038 0
M  V30 10715 C 937.055 -4.84601 2.23602 0
M  V30 10716 O 937.278 -5.56985 1.22979 0
M  V30 10717 O 936.212 -5.14605 3.12194 0
M  V30 10718 H 940.038 -1.93197 2.34326 0
M  V30 10719 H 937.623 -0.898775 1.19342 0
M  V30 10720 H 939.505 -4.06099 1.12525 0
M  V30 10721 H 938.18 -3.22577 0.269352 0
M  V30 10722 H 937.087 -2.74919 2.53714 0
M  V30 10723 H 938.42 -3.6304 3.32359 0
M  V30 10724 N 940.072 -1.23292 -0.981677 0
M  V30 10725 C 941.3 -1.09088 -1.75805 0
M  V30 10726 C 941.715 0.357746 -1.8538 0
M  V30 10727 O 941.072 1.24751 -1.33205 0
M  V30 10728 C 941.123 -1.70885 -3.1856 0
M  V30 10729 O 940.844 -3.10082 -3.09484 0
M  V30 10730 C 942.345 -1.62106 -4.12597 0
M  V30 10731 H 939.565 -0.38184 -0.55176 0
M  V30 10732 H 942.109 -1.63116 -1.23342 0
M  V30 10733 H 940.264 -1.20893 -3.68054 0
M  V30 10734 H 940.678 -3.40039 -3.99342 0
M  V30 10735 H 942.152 -2.10049 -5.10474 0
M  V30 10736 H 942.629 -0.579642 -4.35358 0
M  V30 10737 H 943.235 -2.11457 -3.69007 0
M  V30 10738 N 941.55 1.18024 -1.04442 0
M  V30 10739 C 942.827 1.8398 -0.664125 0
M  V30 10740 C 943.207 1.92961 0.856116 0
M  V30 10741 O 942.555 1.45839 1.75907 0
M  V30 10742 C 942.765 3.22069 -1.34433 0
M  V30 10743 C 944.113 3.98063 -1.47754 0
M  V30 10744 O 945.137 3.31523 -1.30274 0
M  V30 10745 O 943.996 5.17291 -1.76272 0
M  V30 10746 H 941.09 0.793543 -0.23285 0
M  V30 10747 H 943.636 1.25385 -1.14354 0
M  V30 10748 H 942.408 3.10458 -2.38184 0
M  V30 10749 H 942.031 3.88325 -0.853782 0
M  V30 10750 N 943.028 0.824394 1.34319 0
M  V30 10751 C 943.976 0.235628 2.31403 0
M  V30 10752 C 944.97 -0.624443 1.57471 0
M  V30 10753 O 946.176 -0.515618 1.72457 0
M  V30 10754 H 942.551 0.0574537 0.749802 0
M  V30 10755 H 944.522 1.06925 2.78585 0
M  V30 10756 C 943.271 -0.586617 3.42716 0
M  V30 10757 H 942.594 0.0658669 3.99746 0
M  V30 10758 H 944.034 -0.964661 4.1288 0
M  V30 10759 C 942.493 -1.75957 2.87299 0
M  V30 10760 O 943.023 -2.8578 2.82299 0
M  V30 10761 N 941.229 -1.57678 2.44102 0
M  V30 10762 H 940.776 -0.683436 2.48369 0
M  V30 10763 H 940.734 -2.36311 2.07375 0
M  V30 10764 N 944.506 -1.46559 0.579492 0
M  V30 10765 C 945.416 -2.34066 -0.15816 0
M  V30 10766 C 946.432 -1.49556 -0.88932 0
M  V30 10767 O 947.608 -1.82434 -0.853226 0
M  V30 10768 C 944.673 -3.26683 -1.161 0
M  V30 10769 C 943.734 -4.27092 -0.434855 0
M  V30 10770 C 942.967 -5.15283 -1.38992 0
M  V30 10771 O 943.19 -5.06345 -2.62623 0
M  V30 10772 O 942.124 -5.95099 -0.902253 0
M  V30 10773 H 945.95 -2.98488 0.560234 0
M  V30 10774 H 943.535 -1.45482 0.339918 0
M  V30 10775 H 945.417 -3.8383 -1.73932 0
M  V30 10776 H 944.092 -2.64862 -1.86091 0
M  V30 10777 H 942.999 -3.73641 0.185224 0
M  V30 10778 H 944.332 -4.9169 0.224031 0
M  V30 10779 N 945.984 -0.3171 -1.54377 0
M  V30 10780 C 947.261 0.341348 -1.92598 0
M  V30 10781 C 947.641 1.70402 -1.24605 0
M  V30 10782 O 946.989 2.25191 -0.387448 0
M  V30 10783 C 947.199 0.440003 -3.46215 0
M  V30 10784 C 948.547 0.703327 -4.18734 0
M  V30 10785 O 949.571 0.523181 -3.52337 0
M  V30 10786 O 948.43 1.05042 -5.3631 0
M  V30 10787 H 945.524 0.193696 -0.803997 0
M  V30 10788 H 948.07 -0.366341 -1.65699 0
M  V30 10789 H 946.842 -0.517299 -3.87866 0
M  V30 10790 H 946.465 1.19553 -3.792 0
M  V30 10791 N 947.462 1.57535 -0.0451378 0
M  V30 10792 C 948.392 2.14208 0.929372 0
M  V30 10793 C 949.373 1.06221 1.32858 0
M  V30 10794 O 950.558 1.34132 1.40436 0
M  V30 10795 C 947.688 2.68217 2.20629 0
M  V30 10796 C 946.642 3.81134 1.94734 0
M  V30 10797 C 945.968 4.21636 3.28828 0
M  V30 10798 C 947.268 5.06531 1.27374 0
M  V30 10799 H 948.962 2.95886 0.457348 0
M  V30 10800 H 946.508 1.42332 0.218544 0
M  V30 10801 H 948.461 3.06502 2.89196 0
M  V30 10802 H 947.185 1.83722 2.70026 0
M  V30 10803 H 945.844 3.43312 1.28579 0
M  V30 10804 H 945.492 3.34099 3.76014 0
M  V30 10805 H 945.192 4.97736 3.12302 0
M  V30 10806 H 946.716 4.62516 3.98637 0
M  V30 10807 H 948.13 5.423 1.85967 0
M  V30 10808 H 946.527 5.87735 1.21194 0
M  V30 10809 H 947.597 4.84261 0.248913 0
M  V30 10810 N 948.94 -0.228186 1.55939 0
M  V30 10811 C 950.356 -0.577583 1.48782 0
M  V30 10812 C 950.556 -1.87461 0.738972 0
M  V30 10813 O 949.612 -2.50988 0.275929 0
M  V30 10814 C 950.925 -0.662961 2.93301 0
M  V30 10815 C 952.473 -0.754035 3.03782 0
M  V30 10816 C 952.948 -0.870815 4.49645 0
M  V30 10817 N 954.439 -0.935208 4.53661 0
M  V30 10818 C 955.174 -1.04516 5.63794 0
M  V30 10819 N 954.67 -1.11948 6.83696 0
M  V30 10820 N 956.463 -1.07978 5.51631 0
M  V30 10821 H 948.614 0.623018 2.03057 0
M  V30 10822 H 950.877 0.217692 0.922667 0
M  V30 10823 H 950.583 0.220375 3.51009 0
M  V30 10824 H 950.457 -1.52876 3.44831 0
M  V30 10825 H 952.844 -1.62782 2.46143 0
M  V30 10826 H 952.925 0.137301 2.55431 0
M  V30 10827 H 952.569 -0.0015186 5.079 0
M  V30 10828 H 952.499 -1.77747 4.95695 0
M  V30 10829 H 954.99 -0.88836 3.6731 0
M  V30 10830 H 955.303 -1.20297 7.6338 0
M  V30 10831 H 953.648 -1.08873 6.8642 0
M  V30 10832 H 956.839 -1.01833 4.56889 0
M  V30 10833 H 957.012 -1.16202 6.37496 0
M  V30 10834 N 950.418 -1.49637 -0.494624 0
M  V30 10835 C 951.664 -1.59681 -1.25019 0
M  V30 10836 C 951.997 -0.285511 -1.9209 0
M  V30 10837 O 951.272 0.711398 -1.81023 0
M  V30 10838 C 951.555 -2.76058 -2.31222 0
M  V30 10839 C 951.408 -4.17002 -1.68611 0
M  V30 10840 C 952.727 -2.88056 -3.32734 0
M  V30 10841 H 949.846 -0.581209 -0.453172 0
M  V30 10842 H 952.488 -1.81944 -0.547391 0
M  V30 10843 H 950.638 -2.57207 -2.91164 0
M  V30 10844 H 952.31 -4.47385 -1.12447 0
M  V30 10845 H 950.553 -4.22352 -0.989991 0
M  V30 10846 H 951.224 -4.94316 -2.45674 0
M  V30 10847 H 953.7 -3.05237 -2.82789 0
M  V30 10848 H 952.576 -3.71151 -4.04399 0
M  V30 10849 H 952.837 -1.97676 -3.95445 0
M  V30 10850 N 951.896 0.746133 -1.38819 0
M  V30 10851 C 952.806 1.89063 -1.38897 0
M  V30 10852 C 953.822 1.71648 -0.28513 0
M  V30 10853 O 954.998 1.94443 -0.524783 0
M  V30 10854 C 952.063 3.24523 -1.22007 0
M  V30 10855 C 951.124 3.54411 -2.42263 0
M  V30 10856 C 950.357 4.83408 -2.26169 0
M  V30 10857 O 950.58 5.56325 -1.25931 0
M  V30 10858 O 949.514 5.12943 -3.14918 0
M  V30 10859 H 953.34 1.91951 -2.35347 0
M  V30 10860 H 950.925 0.892433 -1.19816 0
M  V30 10861 H 952.807 4.05496 -1.14677 0
M  V30 10862 H 951.482 3.2243 -0.286455 0
M  V30 10863 H 950.389 2.73569 -2.55168 0
M  V30 10864 H 951.722 3.61273 -3.3428 0
M  V30 10865 N 953.375 1.23811 0.975125 0
M  V30 10866 C 954.338 1.02505 2.05001 0
M  V30 10867 C 955.338 -0.0150084 1.60793 0
M  V30 10868 O 956.528 0.225246 1.72738 0
M  V30 10869 C 953.66 0.552087 3.364 0
M  V30 10870 H 954.853 1.979 2.25335 0
M  V30 10871 H 952.406 1.05929 1.1493 0
M  V30 10872 H 953.141 -0.405394 3.21756 0
M  V30 10873 H 952.926 1.30267 3.69828 0
M  V30 10874 H 954.416 0.423828 4.15444 0
M  V30 10875 N 954.853 -1.17469 1.05066 0
M  V30 10876 C 956.13 -1.83625 0.673872 0
M  V30 10877 C 956.51 -1.93412 -0.845871 0
M  V30 10878 O 955.858 -1.4677 -1.75131 0
M  V30 10879 C 956.068 -3.21352 1.36139 0
M  V30 10880 C 957.416 -3.97274 1.49863 0
M  V30 10881 O 958.44 -3.30827 1.3203 0
M  V30 10882 O 957.299 -5.16349 1.79013 0
M  V30 10883 H 954.393 -0.792297 0.237055 0
M  V30 10884 H 956.939 -1.24776 1.15017 0
M  V30 10885 H 955.711 -3.0919 2.39827 0
M  V30 10886 H 955.334 -3.87867 0.874364 0
M  V30 10887 N 956.331 -0.831506 -1.3388 0
M  V30 10888 C 957.747 -0.518349 -1.50948 0
M  V30 10889 C 957.947 0.955807 -1.77388 0
M  V30 10890 O 957.003 1.73993 -1.82983 0
M  V30 10891 C 958.316 -1.38531 -2.66889 0
M  V30 10892 C 959.864 -1.38332 -2.80772 0
M  V30 10893 C 960.339 -2.23497 -3.99766 0
M  V30 10894 N 961.83 -2.21167 -4.06988 0
M  V30 10895 C 962.565 -2.83805 -4.98239 0
M  V30 10896 N 962.061 -3.55468 -5.94655 0
M  V30 10897 N 963.854 -2.73314 -4.91178 0
M  V30 10898 H 956.005 -1.78588 -1.14978 0
M  V30 10899 H 958.268 -0.761508 -0.564633 0
M  V30 10900 H 957.974 -2.43255 -2.54007 0
M  V30 10901 H 957.848 -1.05611 -3.62114 0
M  V30 10902 H 960.235 -0.343832 -2.9309 0
M  V30 10903 H 960.316 -1.75256 -1.86331 0
M  V30 10904 H 959.96 -3.27501 -3.88208 0
M  V30 10905 H 959.89 -1.83919 -4.93438 0
M  V30 10906 H 962.381 -1.69046 -3.37982 0
M  V30 10907 H 962.694 -4.00487 -6.60931 0
M  V30 10908 H 961.039 -3.59575 -5.94753 0
M  V30 10909 H 964.23 -2.16897 -4.14817 0
M  V30 10910 H 964.403 -3.22416 -5.62096 0
M  V30 10911 N 957.809 1.4625 -0.587256 0
M  V30 10912 C 959.037 2.06744 -0.08033 0
M  V30 10913 C 959.452 1.43527 1.2266 0
M  V30 10914 O 958.809 0.542168 1.74261 0
M  V30 10915 C 958.86 3.61394 0.0873469 0
M  V30 10916 O 958.581 4.22247 -1.16785 0
M  V30 10917 C 960.082 4.38828 0.628095 0
M  V30 10918 H 957.302 0.668354 -0.0595301 0
M  V30 10919 H 959.846 1.87808 -0.809217 0
M  V30 10920 H 958.001 3.79742 0.766473 0
M  V30 10921 H 958.415 5.15176 -0.984565 0
M  V30 10922 H 959.889 5.47613 0.694583 0
M  V30 10923 H 960.366 4.07188 1.64606 0
M  V30 10924 H 960.972 4.25297 -0.0163115 0
M  V30 10925 N 959.287 0.325282 1.54207 0
M  V30 10926 C 960.703 -0.0273036 1.59577 0
M  V30 10927 C 960.903 -1.50329 1.34177 0
M  V30 10928 O 959.959 -2.25951 1.12705 0
M  V30 10929 C 961.272 0.392468 2.98128 0
M  V30 10930 C 962.82 0.343269 3.11112 0
M  V30 10931 C 963.295 0.738229 4.52011 0
M  V30 10932 N 964.786 0.691701 4.58006 0
M  V30 10933 C 965.521 0.969479 5.65145 0
M  V30 10934 N 965.017 1.31448 6.80216 0
M  V30 10935 N 966.81 0.894926 5.5493 0
M  V30 10936 H 958.961 1.28692 1.68974 0
M  V30 10937 H 961.224 0.523399 0.790416 0
M  V30 10938 H 960.93 1.42089 3.2172 0
M  V30 10939 H 960.804 -0.241651 3.76425 0
M  V30 10940 H 963.191 -0.675946 2.87254 0
M  V30 10941 H 963.272 1.01235 2.34915 0
M  V30 10942 H 962.916 1.75537 4.76602 0
M  V30 10943 H 962.846 0.0468226 5.26579 0
M  V30 10944 H 965.337 0.436975 3.75365 0
M  V30 10945 H 965.65 1.51177 7.57869 0
M  V30 10946 H 963.995 1.35276 6.81708 0
M  V30 10947 H 967.186 0.624876 4.6391 0
M  V30 10948 H 967.359 1.11476 6.38339 0
M  V30 10949 N 960.765 -1.57509 0.0534917 0
M  V30 10950 C 962.014 -1.91959 -0.619244 0
M  V30 10951 C 962.327 -0.933882 -1.71866 0
M  V30 10952 O 963.533 -1.17052 -2.44972 0
M  V30 10953 C 961.989 -3.40938 -1.15278 0
M  V30 10954 C 961.597 -4.47919 -0.085348 0
M  V30 10955 C 963.341 -3.84419 -1.80063 0
M  V30 10956 C 961.248 -5.88014 -0.631897 0
M  V30 10957 H 960.178 -0.71642 -0.235072 0
M  V30 10958 H 962.829 -1.83089 0.122758 0
M  V30 10959 H 961.211 -3.44821 -1.94717 0
M  V30 10960 H 962.385 -4.55629 0.688374 0
M  V30 10961 H 960.7 -4.13793 0.465178 0
M  V30 10962 H 963.297 -4.86457 -2.21954 0
M  V30 10963 H 963.64 -3.20791 -2.65328 0
M  V30 10964 H 964.173 -3.83062 -1.07275 0
M  V30 10965 H 960.912 -6.55244 0.183175 0
M  V30 10966 H 960.432 -5.83861 -1.37355 0
M  V30 10967 H 962.111 -6.37336 -1.11407 0
M  V30 10968 N 962.243 0.219913 -1.56058 0
M  V30 10969 C 963.19 1.27254 -1.92549 0
M  V30 10970 C 964.16 1.46493 -0.782883 0
M  V30 10971 O 965.345 1.60035 -1.03892 0
M  V30 10972 C 962.485 2.61756 -2.24896 0
M  V30 10973 C 961.598 2.50302 -3.52098 0
M  V30 10974 C 960.733 3.77338 -3.73884 0
M  V30 10975 C 959.772 3.60613 -4.94595 0
M  V30 10976 N 958.909 4.79603 -5.12763 0
M  V30 10977 H 963.749 0.954352 -2.82305 0
M  V30 10978 H 961.286 0.459928 -1.39725 0
M  V30 10979 H 963.244 3.40082 -2.4166 0
M  V30 10980 H 961.874 2.91668 -1.38311 0
M  V30 10981 H 960.926 1.63401 -3.43517 0
M  V30 10982 H 962.238 2.33866 -4.40577 0
M  V30 10983 H 961.392 4.64108 -3.90754 0
M  V30 10984 H 960.131 3.96702 -2.83689 0
M  V30 10985 H 959.136 2.72228 -4.77674 0
M  V30 10986 H 960.361 3.42719 -5.86277 0
M  V30 10987 H 958.307 4.99277 -4.2551 0
M  V30 10988 H 958.224 4.65899 -5.95377 0
M  V30 10989 H 959.492 5.67794 -5.34069 0
M  V30 10990 N 963.721 1.49897 0.486681 0
M  V30 10991 C 964.653 1.63755 1.60365 0
M  V30 10992 C 965.666 0.519614 1.54285 0
M  V30 10993 O 966.855 0.792219 1.59957 0
M  V30 10994 C 963.955 1.59153 2.99205 0
M  V30 10995 C 963.128 2.8672 3.30319 0
M  V30 10996 C 962.187 2.74974 4.48638 0
M  V30 10997 O 961.213 3.48922 4.49714 0
M  V30 10998 N 962.415 1.87479 5.49392 0
M  V30 10999 H 965.18 2.60094 1.48899 0
M  V30 11000 H 962.741 1.47166 0.674825 0
M  V30 11001 H 964.733 1.4893 3.76301 0
M  V30 11002 H 963.303 0.706133 3.0452 0
M  V30 11003 H 962.523 3.11188 2.41983 0
M  V30 11004 H 963.811 3.71262 3.47911 0
M  V30 11005 H 963.209 1.26684 5.51333 0
M  V30 11006 H 961.766 1.83169 6.25534 0
M  V30 11007 N 965.199 -0.738761 1.39212 0
M  V30 11008 C 966.445 -1.50046 1.36433 0
M  V30 11009 C 966.778 -1.94157 -0.0409474 0
M  V30 11010 O 966.053 -1.66515 -1.00514 0
M  V30 11011 C 966.336 -2.74277 2.33333 0
M  V30 11012 C 966.189 -2.36209 3.82786 0
M  V30 11013 C 967.508 -3.76361 2.28123 0
M  V30 11014 H 964.627 -0.544294 0.496903 0
M  V30 11015 H 967.269 -0.845005 1.70175 0
M  V30 11016 H 965.419 -3.30204 2.04689 0
M  V30 11017 H 967.091 -1.85942 4.22165 0
M  V30 11018 H 965.334 -1.68483 3.99745 0
M  V30 11019 H 966.005 -3.25156 4.46069 0
M  V30 11020 H 968.481 -3.30009 2.53443 0
M  V30 11021 H 967.357 -4.60957 2.9801 0
M  V30 11022 H 967.618 -4.23013 1.28499 0
M  V30 11023 N 966.677 -1.24326 -0.968545 0
M  V30 11024 C 967.607 -1.05951 -2.08079 0
M  V30 11025 C 968.588 0.0272666 -1.70078 0
M  V30 11026 O 969.773 -0.139644 -1.93697 0
M  V30 11027 C 966.903 -0.662623 -3.4092 0
M  V30 11028 C 965.857 -1.69807 -3.92873 0
M  V30 11029 C 965.183 -1.15628 -5.22048 0
M  V30 11030 C 966.483 -3.09383 -4.20808 0
M  V30 11031 H 968.177 -1.98984 -2.23709 0
M  V30 11032 H 965.723 -0.958112 -1.075 0
M  V30 11033 H 967.676 -0.521071 -4.18166 0
M  V30 11034 H 966.4 0.303399 -3.25188 0
M  V30 11035 H 965.059 -1.82783 -3.17783 0
M  V30 11036 H 964.707 -0.180888 -5.02675 0
M  V30 11037 H 964.407 -1.84822 -5.57776 0
M  V30 11038 H 965.931 -1.02683 -6.01904 0
M  V30 11039 H 967.345 -2.99642 -4.88761 0
M  V30 11040 H 965.742 -3.75923 -4.67763 0
M  V30 11041 H 966.812 -3.57486 -3.27616 0
M  V30 11042 N 968.156 1.1691 -1.05688 0
M  V30 11043 C 969.405 1.86629 -0.765022 0
M  V30 11044 C 969.718 1.82223 0.710918 0
M  V30 11045 O 970.924 2.47462 1.11691 0
M  V30 11046 C 969.38 3.34886 -1.3183 0
M  V30 11047 C 968.988 3.47781 -2.82404 0
M  V30 11048 C 970.732 4.099 -1.10372 0
M  V30 11049 C 968.639 4.9009 -3.31008 0
M  V30 11050 H 967.569 0.699082 -0.282491 0
M  V30 11051 H 970.22 1.31989 -1.27481 0
M  V30 11052 H 968.602 3.89094 -0.736312 0
M  V30 11053 H 969.776 3.03765 -3.46502 0
M  V30 11054 H 968.091 2.86193 -3.02461 0
M  V30 11055 H 970.688 5.14894 -1.4418 0
M  V30 11056 H 971.031 4.16279 -0.0417372 0
M  V30 11057 H 971.564 3.61913 -1.65117 0
M  V30 11058 H 968.303 4.88887 -4.36657 0
M  V30 11059 H 967.823 5.34756 -2.71655 0
M  V30 11060 H 969.502 5.58881 -3.25977 0
M  V30 11061 N 969.634 0.838594 1.33437 0
M  V30 11062 C 970.582 0.260158 2.31141 0
M  V30 11063 C 971.576 -0.607706 1.58124 0
M  V30 11064 O 972.782 -0.497298 1.72994 0
M  V30 11065 H 969.157 0.0654031 0.74915 0
M  V30 11066 H 971.128 1.09874 2.77435 0
M  V30 11067 C 969.877 -0.550234 3.43319 0
M  V30 11068 H 969.2 0.108262 3.99653 0
M  V30 11069 H 970.64 -0.920815 4.1388 0
M  V30 11070 C 969.099 -1.729 2.89149 0
M  V30 11071 O 969.629 -2.82769 2.85315 0
M  V30 11072 N 967.835 -1.5508 2.45761 0
M  V30 11073 H 967.382 -0.657055 2.49079 0
M  V30 11074 H 967.34 -2.34099 2.0987 0
M  V30 11075 N 971.112 -1.45937 0.595003 0
M  V30 11076 C 972.042 -2.33198 -0.11871 0
M  V30 11077 C 973.023 -1.46083 -0.871423 0
M  V30 11078 O 974.208 -1.74879 -0.844461 0
M  V30 11079 C 971.338 -3.28576 -1.12495 0
M  V30 11080 C 970.292 -4.25229 -0.486275 0
M  V30 11081 C 969.618 -5.10204 -1.59986 0
M  V30 11082 C 970.918 -5.19019 0.584473 0
M  V30 11083 H 972.612 -2.93122 0.609886 0
M  V30 11084 H 970.158 -1.40951 0.294742 0
M  V30 11085 H 972.111 -3.88485 -1.6327 0
M  V30 11086 H 970.835 -2.66784 -1.88398 0
M  V30 11087 H 969.494 -3.666 0.000507962 0
M  V30 11088 H 969.142 -4.44789 -2.34886 0
M  V30 11089 H 968.842 -5.75669 -1.1781 0
M  V30 11090 H 970.366 -5.7298 -2.11014 0
M  V30 11091 H 971.78 -5.73073 0.161297 0
M  V30 11092 H 970.177 -5.92893 0.927256 0
M  V30 11093 H 971.247 -4.62208 1.46601 0
M  V30 11094 N 972.59 -0.333456 -1.54032 0
M  V30 11095 C 973.836 0.266527 -2.01041 0
M  V30 11096 C 974.169 1.51006 -1.2211 0
M  V30 11097 O 973.444 1.92078 -0.306016 0
M  V30 11098 C 973.727 0.59078 -3.55221 0
M  V30 11099 C 973.58 -0.664143 -4.4487 0
M  V30 11100 C 974.899 1.40447 -4.17088 0
M  V30 11101 H 972.018 0.0953979 -0.7308 0
M  V30 11102 H 974.66 -0.451995 -1.84545 0
M  V30 11103 H 972.81 1.20292 -3.69408 0
M  V30 11104 H 974.482 -1.30227 -4.42537 0
M  V30 11105 H 972.725 -1.29106 -4.14143 0
M  V30 11106 H 973.396 -0.392664 -5.50602 0
M  V30 11107 H 975.872 0.886946 -4.06537 0
M  V30 11108 H 974.748 1.6001 -5.2506 0
M  V30 11109 H 975.009 2.40357 -3.71054 0
M  V30 11110 N 974.068 1.57479 -0.061844 0
M  V30 11111 C 975 2.09116 0.938245 0
M  V30 11112 C 976.013 1.0212 1.26788 0
M  V30 11113 O 977.202 1.2966 1.22681 0
M  V30 11114 C 974.302 2.52822 2.25686 0
M  V30 11115 C 973.475 3.83277 2.10755 0
M  V30 11116 C 972.534 4.13182 3.25833 0
M  V30 11117 O 971.56 4.82937 3.01265 0
M  V30 11118 N 972.762 3.65938 4.50633 0
M  V30 11119 H 975.527 2.95543 0.497433 0
M  V30 11120 H 973.088 1.61423 0.124134 0
M  V30 11121 H 975.08 2.69896 3.01559 0
M  V30 11122 H 973.65 1.71586 2.61299 0
M  V30 11123 H 972.87 3.7568 1.19409 0
M  V30 11124 H 974.158 4.68686 1.98018 0
M  V30 11125 H 973.556 3.09566 4.73482 0
M  V30 11126 H 972.113 3.8823 5.23565 0
M  V30 11127 N 975.546 -0.211634 1.56173 0
M  V30 11128 C 976.494 -1.28188 1.94089 0
M  V30 11129 C 977.488 -1.47999 0.824167 0
M  V30 11130 O 978.694 -1.49056 1.00907 0
M  V30 11131 H 975.069 -0.42999 0.616938 0
M  V30 11132 H 977.04 -0.934962 2.83374 0
M  V30 11133 C 975.789 -2.62294 2.28248 0
M  V30 11134 H 975.112 -2.4786 3.13696 0
M  V30 11135 H 976.552 -3.35967 2.58655 0
M  V30 11136 C 975.011 -3.18049 1.11113 0
M  V30 11137 O 975.541 -3.99923 0.377458 0
M  V30 11138 N 973.747 -2.76561 0.892321 0
M  V30 11139 H 973.294 -2.10088 1.49067 0
M  V30 11140 H 973.252 -3.14206 0.110344 0
M  V30 11141 N 977.024 -1.50153 -0.478725 0
M  V30 11142 C 977.987 -1.67916 -1.56003 0
M  V30 11143 C 978.987 -0.550111 -1.51097 0
M  V30 11144 O 980.177 -0.817001 -1.53853 0
M  V30 11145 C 977.309 -1.6973 -2.95643 0
M  V30 11146 H 978.502 -2.6438 -1.41573 0
M  V30 11147 H 976.055 -1.39519 -0.704565 0
M  V30 11148 H 976.79 -0.749306 -3.15525 0
M  V30 11149 H 976.575 -2.51745 -3.00611 0
M  V30 11150 H 978.065 -1.85453 -3.74162 0
M  V30 11151 N 978.502 0.731368 -1.39602 0
M  V30 11152 C 979.751 1.48647 -1.36334 0
M  V30 11153 C 980.064 1.95565 0.0367383 0
M  V30 11154 O 981.27 2.7082 0.192017 0
M  V30 11155 C 979.726 2.68616 -2.39528 0
M  V30 11156 C 979.334 2.28632 -3.85268 0
M  V30 11157 C 981.078 3.46422 -2.45341 0
M  V30 11158 C 978.985 3.45345 -4.80095 0
M  V30 11159 H 977.915 0.558218 -0.506861 0
M  V30 11160 H 980.566 0.797467 -1.65266 0
M  V30 11161 H 978.948 3.39609 -2.03671 0
M  V30 11162 H 980.122 1.65162 -4.30184 0
M  V30 11163 H 978.437 1.63909 -3.82783 0
M  V30 11164 H 981.034 4.33241 -3.13379 0
M  V30 11165 H 981.377 3.8914 -1.47904 0
M  V30 11166 H 981.91 2.82461 -2.80108 0
M  V30 11167 H 978.649 3.07674 -5.78807 0
M  V30 11168 H 978.169 4.07784 -4.39855 0
M  V30 11169 H 979.848 4.1163 -4.99169 0
M  V30 11170 N 979.98 1.24838 0.961938 0
M  V30 11171 C 980.89 1.06304 2.09133 0
M  V30 11172 C 981.906 0.00221475 1.74 0
M  V30 11173 O 983.082 0.201611 2.00388 0
M  V30 11174 C 980.147 0.676117 3.40043 0
M  V30 11175 C 979.208 1.81407 3.89089 0
M  V30 11176 C 978.441 1.44551 5.13752 0
M  V30 11177 O 978.664 0.337894 5.69398 0
M  V30 11178 O 977.598 2.27316 5.57325 0
M  V30 11179 H 981.424 2.01001 2.27667 0
M  V30 11180 H 979.009 1.0371 1.07539 0
M  V30 11181 H 980.891 0.472124 4.18747 0
M  V30 11182 H 979.566 -0.241667 3.22797 0
M  V30 11183 H 978.473 2.07286 3.11421 0
M  V30 11184 H 979.806 2.71083 4.10822 0
M  V30 11185 N 981.458 -1.16348 1.06306 0
M  V30 11186 C 982.421 -2.18941 0.678053 0
M  V30 11187 C 983.421 -1.58409 -0.276277 0
M  V30 11188 O 984.611 -1.74101 -0.0586435 0
M  V30 11189 C 981.743 -3.409 -0.00228684 0
M  V30 11190 H 982.936 -2.54516 1.58624 0
M  V30 11191 H 980.489 -1.30625 0.858298 0
M  V30 11192 H 981.224 -3.10881 -0.923212 0
M  V30 11193 H 981.009 -3.86089 0.683949 0
M  V30 11194 H 982.499 -4.16806 -0.257374 0
M  V30 11195 N 982.937 -0.845659 -1.3299 0
M  V30 11196 C 984.165 -0.45835 -2.01759 0
M  V30 11197 C 984.58 0.94239 -1.63598 0
M  V30 11198 O 983.937 1.61353 -0.852738 0
M  V30 11199 C 983.988 -0.577311 -3.5686 0
M  V30 11200 O 983.709 -1.92287 -3.93646 0
M  V30 11201 C 985.21 -0.187839 -4.42902 0
M  V30 11202 H 982.43 -0.181165 -0.646081 0
M  V30 11203 H 984.974 -1.14011 -1.6977 0
M  V30 11204 H 983.129 0.0566146 -3.87359 0
M  V30 11205 H 983.543 -1.91322 -4.88361 0
M  V30 11206 H 985.017 -0.322105 -5.51059 0
M  V30 11207 H 985.494 0.870896 -4.30479 0
M  V30 11208 H 986.1 -0.796473 -4.17776 0
M  V30 11209 N 984.415 1.45619 -0.602734 0
M  V30 11210 C 985.663 2.01873 -0.095844 0
M  V30 11211 C 985.984 1.47427 1.27633 0
M  V30 11212 O 985.254 0.666652 1.84208 0
M  V30 11213 H 983.834 0.746295 -0.0324408 0
M  V30 11214 H 986.496 1.78478 -0.783037 0
M  V30 11215 H 985.592 3.12072 -0.0419507 0
M  V30 11216 N 985.893 0.34162 1.53853 0
M  V30 11217 C 986.803 -0.524555 2.2866 0
M  V30 11218 C 987.819 -1.1136 1.33697 0
M  V30 11219 O 988.995 -1.1297 1.66732 0
M  V30 11220 C 986.06 -1.66065 3.04341 0
M  V30 11221 C 985.121 -1.10158 4.14926 0
M  V30 11222 C 984.354 -2.18353 4.86988 0
M  V30 11223 O 984.577 -3.39038 4.58704 0
M  V30 11224 O 983.511 -1.82756 5.73484 0
M  V30 11225 H 987.337 0.0835014 3.03585 0
M  V30 11226 H 984.922 0.106727 1.49018 0
M  V30 11227 H 986.804 -2.3217 3.51674 0
M  V30 11228 H 985.479 -2.25456 2.32275 0
M  V30 11229 H 984.386 -0.405109 3.719 0
M  V30 11230 H 985.719 -0.552567 4.89088 0
M  V30 11231 N 987.371 -1.57444 0.0701946 0
M  V30 11232 C 988.319 -2.13834 -0.915302 0
M  V30 11233 C 989.313 -1.07483 -1.30934 0
M  V30 11234 O 990.519 -1.25865 -1.28678 0
M  V30 11235 H 986.894 -0.683716 -0.313108 0
M  V30 11236 H 988.865 -2.95503 -0.414758 0
M  V30 11237 C 987.614 -2.71355 -2.17398 0
M  V30 11238 H 986.937 -3.52861 -1.87961 0
M  V30 11239 H 988.377 -3.1441 -2.84469 0
M  V30 11240 C 986.836 -1.66038 -2.93143 0
M  V30 11241 O 987.366 -1.08443 -3.86786 0
M  V30 11242 N 985.572 -1.3711 -2.56221 0
M  V30 11243 H 985.119 -1.84135 -1.80145 0
M  V30 11244 H 985.077 -0.66877 -3.07205 0
M  V30 11245 N 988.849 0.203349 -1.56283 0
M  V30 11246 C 990.097 0.923183 -1.79782 0
M  V30 11247 C 990.418 1.84134 -0.64185 0
M  V30 11248 O 989.688 1.92922 0.340292 0
M  V30 11249 H 988.268 0.343881 -0.66314 0
M  V30 11250 H 990.93 0.210837 -1.93756 0
M  V30 11251 H 990.026 1.51921 -2.72629 0
M  V30 11252 N 990.327 1.50405 0.470755 0
M  V30 11253 C 991.274 1.69293 1.56871 0
M  V30 11254 C 992.244 0.534248 1.57274 0
M  V30 11255 O 993.429 0.764855 1.74799 0
M  V30 11256 C 990.569 1.79338 2.94842 0
M  V30 11257 C 989.682 3.06709 3.04226 0
M  V30 11258 C 988.817 3.07548 4.33114 0
M  V30 11259 C 987.856 4.29372 4.36241 0
M  V30 11260 N 986.993 4.27949 5.56601 0
M  V30 11261 H 991.833 2.63029 1.40071 0
M  V30 11262 H 989.37 1.30386 0.681016 0
M  V30 11263 H 991.328 1.83143 3.74853 0
M  V30 11264 H 989.958 0.890411 3.10277 0
M  V30 11265 H 989.01 3.12374 2.17086 0
M  V30 11266 H 990.322 3.96684 3.02396 0
M  V30 11267 H 989.476 3.10084 5.21472 0
M  V30 11268 H 988.215 2.15404 4.37553 0
M  V30 11269 H 987.22 4.27048 3.4628 0
M  V30 11270 H 988.445 5.22743 4.33493 0
M  V30 11271 H 986.391 3.38658 5.61824 0
M  V30 11272 H 986.308 5.11692 5.56513 0
M  V30 11273 H 987.576 4.34631 6.47083 0
M  V30 11274 N 991.805 -0.723954 1.39988 0
M  V30 11275 C 993.054 -1.47922 1.3712 0
M  V30 11276 C 993.367 -1.95582 -0.0263665 0
M  V30 11277 O 994.573 -2.70918 -0.177652 0
M  V30 11278 C 993.029 -2.67342 2.40949 0
M  V30 11279 C 992.637 -2.26586 3.86475 0
M  V30 11280 C 994.381 -3.45116 2.47174 0
M  V30 11281 C 992.288 -3.42794 4.81919 0
M  V30 11282 H 991.218 -0.555522 0.509815 0
M  V30 11283 H 993.869 -0.788692 1.65686 0
M  V30 11284 H 992.251 -3.38524 2.0547 0
M  V30 11285 H 993.425 -1.62878 4.31054 0
M  V30 11286 H 991.74 -1.61876 3.83647 0
M  V30 11287 H 994.337 -4.31573 3.15672 0
M  V30 11288 H 994.68 -3.8835 1.49966 0
M  V30 11289 H 995.213 -2.80971 2.81602 0
M  V30 11290 H 991.952 -3.046 5.8043 0
M  V30 11291 H 991.472 -4.05445 4.42012 0
M  V30 11292 H 993.151 -4.08977 5.01345 0
M  V30 11293 N 993.283 -1.25346 -0.955304 0
M  V30 11294 C 994.23 -1.05672 -2.05188 0
M  V30 11295 C 995.2 0.0339217 -1.66065 0
M  V30 11296 O 996.385 -0.123126 -1.90402 0
M  V30 11297 C 993.525 -0.680791 -3.38318 0
M  V30 11298 C 992.638 -1.84622 -3.90562 0
M  V30 11299 C 991.773 -1.41471 -5.12015 0
M  V30 11300 C 990.812 -2.54931 -5.56486 0
M  V30 11301 N 989.949 -2.1256 -6.69151 0
M  V30 11302 H 994.789 -1.9952 -2.2135 0
M  V30 11303 H 992.326 -0.993588 -1.08472 0
M  V30 11304 H 994.284 -0.443794 -4.14833 0
M  V30 11305 H 992.914 0.2207 -3.22045 0
M  V30 11306 H 991.966 -2.19654 -3.10574 0
M  V30 11307 H 993.278 -2.6983 -4.19515 0
M  V30 11308 H 992.432 -1.13732 -5.95945 0
M  V30 11309 H 991.171 -0.533334 -4.84775 0
M  V30 11310 H 990.176 -2.83415 -4.71122 0
M  V30 11311 H 991.401 -3.43645 -5.85734 0
M  V30 11312 H 989.347 -1.26838 -6.43621 0
M  V30 11313 H 989.264 -2.91317 -6.97618 0
M  V30 11314 H 990.532 -1.87996 -7.5649 0
M  V30 11315 N 994.761 1.15782 -1.06922 0
M  V30 11316 C 996.01 1.85807 -0.784774 0
M  V30 11317 C 996.323 1.82967 0.691551 0
M  V30 11318 O 997.529 2.48632 1.0906 0
M  V30 11319 C 995.985 3.33469 -1.35375 0
M  V30 11320 C 995.593 3.44766 -2.86077 0
M  V30 11321 C 997.337 4.08707 -1.14713 0
M  V30 11322 C 995.244 4.86551 -3.36187 0
M  V30 11323 H 994.174 0.696046 -0.28989 0
M  V30 11324 H 996.825 1.30629 -1.28873 0
M  V30 11325 H 995.207 3.88292 -0.77754 0
M  V30 11326 H 996.381 3.00073 -3.49704 0
M  V30 11327 H 994.696 2.82969 -3.05479 0
M  V30 11328 H 997.293 5.13336 -1.49633 0
M  V30 11329 H 997.636 4.16211 -0.0858868 0
M  V30 11330 H 998.169 3.60142 -1.68946 0
M  V30 11331 H 994.908 4.84229 -4.41818 0
M  V30 11332 H 994.428 5.31844 -2.77312 0
M  V30 11333 H 996.107 5.55392 -3.31887 0
M  V30 11334 N 996.239 0.8527 1.3254 0
M  V30 11335 C 997.467 0.469044 2.01513 0
M  V30 11336 C 997.882 -0.933701 1.64096 0
M  V30 11337 O 997.239 -1.60898 0.861283 0
M  V30 11338 C 997.29 0.596228 3.56549 0
M  V30 11339 O 997.011 1.94371 3.92621 0
M  V30 11340 C 998.512 0.211324 4.42796 0
M  V30 11341 H 995.732 0.184589 0.645111 0
M  V30 11342 H 998.276 1.1491 1.69163 0
M  V30 11343 H 996.431 -0.0360712 3.87383 0
M  V30 11344 H 996.845 1.93909 4.87339 0
M  V30 11345 H 998.319 0.351324 5.50881 0
M  V30 11346 H 998.796 -0.848055 4.30935 0
M  V30 11347 H 999.402 0.818617 4.17347 0
M  V30 11348 N 997.718 -1.45297 0.610449 0
M  V30 11349 C 998.943 -2.07101 0.111414 0
M  V30 11350 C 999.368 -1.45161 -1.19625 0
M  V30 11351 O 998.726 -0.545368 -1.72903 0
M  V30 11352 C 998.774 -3.60598 -0.0117372 0
M  V30 11353 O 997.878 -3.98512 -1.06122 0
M  V30 11354 H 997.219 -0.659709 0.075364 0
M  V30 11355 H 999.749 -1.86504 0.841269 0
M  V30 11356 H 999.759 -4.07464 -0.209028 0
M  V30 11357 H 998.434 -4.05067 0.943076 0
M  V30 11358 H 997.011 -3.63312 -0.840158 0
M  V30 11359 N 999.196 -0.349774 -1.5367 0
M  V30 11360 C 1000.11 0.512421 -2.28935 0
M  V30 11361 C 1001.12 1.1065 -1.34286 0
M  V30 11362 O 1002.3 1.12084 -1.67329 0
M  V30 11363 C 999.363 1.64449 -3.05217 0
M  V30 11364 C 998.424 1.07956 -4.15505 0
M  V30 11365 C 997.657 2.15768 -4.88139 0
M  V30 11366 O 997.88 3.366 -4.60496 0
M  V30 11367 O 996.814 1.79712 -5.74445 0
M  V30 11368 H 1000.64 -0.0996001 -3.03537 0
M  V30 11369 H 998.225 -0.114629 -1.4896 0
M  V30 11370 H 1000.11 2.30302 -3.52901 0
M  V30 11371 H 998.782 2.24221 -2.33467 0
M  V30 11372 H 997.689 0.385381 -3.7211 0
M  V30 11373 H 999.022 0.526621 -4.89375 0
M  V30 11374 N 1000.67 1.57404 -0.0785433 0
M  V30 11375 C 1001.95 1.85163 0.630389 0
M  V30 11376 C 1002.33 0.972295 1.87376 0
M  V30 11377 O 1001.68 0.0403375 2.28464 0
M  V30 11378 C 1001.89 3.35491 0.961604 0
M  V30 11379 C 1003.24 4.0316 1.33219 0
M  V30 11380 O 1004.26 3.40276 1.05313 0
M  V30 11381 O 1003.12 5.14086 1.85412 0
M  V30 11382 H 1000.21 0.765169 0.31376 0
M  V30 11383 H 1002.76 1.69343 -0.109986 0
M  V30 11384 H 1001.53 3.91221 0.0788113 0
M  V30 11385 H 1001.15 3.56598 1.75852 0
M  V30 11386 N 1002.15 -0.195058 1.56388 0
M  V30 11387 C 1003.08 -1.26978 1.8961 0
M  V30 11388 C 1004.06 -1.43946 0.756199 0
M  V30 11389 O 1005.25 -1.59335 1.0072 0
M  V30 11390 C 1002.37 -2.63638 2.12632 0
M  V30 11391 C 1001.42 -2.6354 3.35334 0
M  V30 11392 S 1002.25 -2.1497 4.90457 0
M  V30 11393 C 1003.41 -3.53454 5.16547 0
M  V30 11394 H 1003.64 -0.986091 2.8047 0
M  V30 11395 H 1001.17 -0.398552 1.49167 0
M  V30 11396 H 1003.13 -3.42304 2.26579 0
M  V30 11397 H 1001.79 -2.89218 1.22522 0
M  V30 11398 H 1000.99 -3.64027 3.48569 0
M  V30 11399 H 1000.59 -1.92956 3.20381 0
M  V30 11400 H 1002.88 -4.49318 5.0707 0
M  V30 11401 H 1003.82 -3.45113 6.18306 0
M  V30 11402 H 1004.23 -3.48368 4.44185 0
M  V30 11403 N 1003.63 -1.50653 -0.462772 0
M  V30 11404 C 1004.86 -1.65586 -1.23551 0
M  V30 11405 C 1005.27 -0.342012 -1.86083 0
M  V30 11406 O 1004.61 0.686893 -1.70374 0
M  V30 11407 C 1004.67 -2.69555 -2.37867 0
M  V30 11408 C 1004.34 -4.1288 -1.95906 0
M  V30 11409 C 1005.33 -4.98483 -1.47685 0
M  V30 11410 C 1003.02 -4.58843 -2.04373 0
M  V30 11411 C 1005.01 -6.281 -1.08484 0
M  V30 11412 C 1002.7 -5.88464 -1.64783 0
M  V30 11413 C 1003.7 -6.72918 -1.16918 0
M  V30 11414 O 1003.39 -8.00119 -0.778798 0
M  V30 11415 H 1003.12 -0.559438 -0.37948 0
M  V30 11416 H 1005.67 -1.9768 -0.557816 0
M  V30 11417 H 1003.9 -2.3272 -3.08834 0
M  V30 11418 H 1005.59 -2.73624 -2.99808 0
M  V30 11419 H 1006.36 -4.64186 -1.40558 0
M  V30 11420 H 1002.24 -3.93247 -2.40577 0
M  V30 11421 H 1005.78 -6.93972 -0.710524 0
M  V30 11422 H 1001.68 -6.22281 -1.71571 0
M  V30 11423 H 1002.44 -8.1346 -0.906911 0
M  V30 11424 N 1005.11 0.71652 -1.4037 0
M  V30 11425 C 1006.34 1.50563 -1.4191 0
M  V30 11426 C 1006.75 1.88791 -0.0185456 0
M  V30 11427 O 1006.11 1.55378 0.957289 0
M  V30 11428 C 1006.16 2.78155 -2.30894 0
M  V30 11429 O 1005.88 2.41543 -3.65497 0
M  V30 11430 C 1007.38 3.72057 -2.41016 0
M  V30 11431 H 1004.6 0.464679 -0.48406 0
M  V30 11432 H 1007.15 0.883927 -1.8441 0
M  V30 11433 H 1005.3 3.36611 -1.91759 0
M  V30 11434 H 1005.71 3.23636 -4.12747 0
M  V30 11435 H 1007.19 4.58426 -3.07489 0
M  V30 11436 H 1007.67 4.15098 -1.43492 0
M  V30 11437 H 1008.27 3.19512 -2.80699 0
M  V30 11438 N 1006.59 1.25851 0.948643 0
M  V30 11439 C 1007.53 1.06759 2.04625 0
M  V30 11440 C 1008.5 -0.0251144 1.66081 0
M  V30 11441 O 1009.69 0.133221 1.90334 0
M  V30 11442 C 1006.83 0.698724 3.37952 0
M  V30 11443 C 1005.94 1.8669 3.89578 0
M  V30 11444 C 1005.08 1.44184 5.11258 0
M  V30 11445 C 1004.12 2.57878 5.55126 0
M  V30 11446 N 1003.25 2.16106 6.68014 0
M  V30 11447 H 1008.09 2.00691 2.20289 0
M  V30 11448 H 1005.63 0.999327 1.07944 0
M  V30 11449 H 1007.59 0.465788 4.14592 0
M  V30 11450 H 1006.22 -0.203618 3.22157 0
M  V30 11451 H 1005.27 2.21298 3.09405 0
M  V30 11452 H 1006.58 2.72051 4.18079 0
M  V30 11453 H 1005.74 1.16891 5.95333 0
M  V30 11454 H 1004.47 0.559035 4.84485 0
M  V30 11455 H 1003.48 2.85909 4.69612 0
M  V30 11456 H 1004.7 3.46747 5.83904 0
M  V30 11457 H 1002.65 1.3025 6.42939 0
M  V30 11458 H 1002.57 2.95012 6.96063 0
M  V30 11459 H 1003.84 1.92005 7.55483 0
M  V30 11460 N 1008.06 -1.15214 1.07534 0
M  V30 11461 C 1009.31 -1.86319 0.800814 0
M  V30 11462 C 1009.64 -1.82221 -0.671494 0
M  V30 11463 O 1008.92 -1.24664 -1.49295 0
M  V30 11464 C 1009.2 -3.35347 1.31203 0
M  V30 11465 C 1009.05 -3.48067 2.84902 0
M  V30 11466 C 1010.37 -4.3016 0.930064 0
M  V30 11467 H 1007.49 -0.676523 0.292379 0
M  V30 11468 H 1010.13 -1.35349 1.33344 0
M  V30 11469 H 1008.28 -3.78886 0.858949 0
M  V30 11470 H 1009.96 -3.13379 3.38514 0
M  V30 11471 H 1008.2 -2.89566 3.23008 0
M  V30 11472 H 1008.87 -4.52782 3.15741 0
M  V30 11473 H 1011.35 -3.94591 1.3205 0
M  V30 11474 H 1010.22 -5.32914 1.31507 0
M  V30 11475 H 1010.48 -4.41796 -0.163824 0
M  V30 11476 N 1009.54 -0.859717 -1.32086 0
M  V30 11477 C 1010.96 -0.55025 -1.49815 0
M  V30 11478 C 1011.16 0.917966 -1.79376 0
M  V30 11479 O 1010.21 1.70073 -1.86632 0
M  V30 11480 C 1011.53 -1.44161 -2.6389 0
M  V30 11481 C 1013.08 -1.44257 -2.77775 0
M  V30 11482 C 1013.55 -2.31926 -3.94936 0
M  V30 11483 N 1015.04 -2.2975 -4.02206 0
M  V30 11484 C 1015.78 -2.9431 -4.92107 0
M  V30 11485 N 1015.27 -3.68001 -5.86981 0
M  V30 11486 N 1017.07 -2.83671 -4.8527 0
M  V30 11487 H 1009.22 -1.80987 -1.11164 0
M  V30 11488 H 1011.48 -0.773313 -0.548353 0
M  V30 11489 H 1011.19 -2.48588 -2.4879 0
M  V30 11490 H 1011.06 -1.13268 -3.59792 0
M  V30 11491 H 1013.45 -0.405923 -2.92295 0
M  V30 11492 H 1013.53 -1.79169 -1.82571 0
M  V30 11493 H 1013.17 -3.35661 -3.81174 0
M  V30 11494 H 1013.1 -1.94344 -4.89426 0
M  V30 11495 H 1015.59 -1.76177 -3.3432 0
M  V30 11496 H 1015.91 -4.14417 -6.52287 0
M  V30 11497 H 1014.25 -3.72109 -5.86992 0
M  V30 11498 H 1017.44 -2.25647 -4.10123 0
M  V30 11499 H 1017.61 -3.34267 -5.5513 0
M  V30 11500 N 1011.02 1.44971 -0.618145 0
M  V30 11501 C 1012.27 2.02458 -0.117656 0
M  V30 11502 C 1012.6 1.48413 1.25248 0
M  V30 11503 O 1011.87 0.662997 1.82851 0
M  V30 11504 C 1012.16 3.59987 -0.0901897 0
M  V30 11505 C 1012.01 4.24343 -1.49175 0
M  V30 11506 C 1013.33 4.36099 0.592121 0
M  V30 11507 H 1010.45 0.735672 -0.0442291 0
M  V30 11508 H 1013.09 1.727 -0.792138 0
M  V30 11509 H 1011.24 3.85471 0.484175 0
M  V30 11510 H 1012.91 4.10009 -2.114 0
M  V30 11511 H 1011.16 3.82337 -2.04941 0
M  V30 11512 H 1011.83 5.33298 -1.42468 0
M  V30 11513 H 1014.3 4.1597 0.103813 0
M  V30 11514 H 1013.18 5.45822 0.580481 0
M  V30 11515 H 1013.44 4.09746 1.66015 0
M  V30 11516 N 1012.5 0.357919 1.53482 0
M  V30 11517 C 1013.72 -0.237769 2.06033 0
M  V30 11518 C 1014.15 -1.42292 1.23023 0
M  V30 11519 O 1013.51 -1.79604 0.247427 0
M  V30 11520 C 1013.55 -0.616806 3.55286 0
M  V30 11521 O 1012.66 -1.71503 3.75047 0
M  V30 11522 H 1012 -0.0364322 0.663 0
M  V30 11523 H 1014.53 0.516301 1.97979 0
M  V30 11524 H 1014.54 -0.88996 3.98175 0
M  V30 11525 H 1013.21 0.249825 4.15149 0
M  V30 11526 H 1011.79 -1.43803 3.44057 0
M  V30 11527 N 1013.98 -1.5736 0.0868897 0
M  V30 11528 C 1015.22 -1.94341 -0.579598 0
M  V30 11529 C 1015.56 -0.968238 -1.68341 0
M  V30 11530 O 1014.83 8.29649e-05 -1.945 0
M  V30 11531 C 1015.11 -3.41497 -1.14245 0
M  V30 11532 C 1014.97 -4.49778 -0.044255 0
M  V30 11533 C 1016.29 -3.89788 -2.04336 0
M  V30 11534 H 1013.4 -0.70668 -0.20922 0
M  V30 11535 H 1016.05 -1.89359 0.15593 0
M  V30 11536 H 1014.2 -3.45873 -1.76929 0
M  V30 11537 H 1015.87 -4.57517 0.58959 0
M  V30 11538 H 1014.11 -4.293 0.623207 0
M  V30 11539 H 1014.78 -5.4992 -0.478749 0
M  V30 11540 H 1017.26 -3.87513 -1.51569 0
M  V30 11541 H 1016.13 -4.93335 -2.40648 0
M  V30 11542 H 1016.4 -3.28603 -2.95757 0
M  V30 11543 N 1015.45 0.186762 -1.56489 0
M  V30 11544 C 1016.7 0.902594 -1.82277 0
M  V30 11545 C 1017.06 1.80536 -0.665179 0
M  V30 11546 O 1016.35 1.88573 0.339224 0
M  V30 11547 C 1016.54 1.74719 -3.11782 0
M  V30 11548 C 1016.37 0.92769 -4.40027 0
M  V30 11549 C 1015.14 0.608832 -5.01619 0
M  V30 11550 C 1017.34 0.276471 -5.13556 0
M  V30 11551 N 1015.32 -0.228425 -6.13475 0
M  V30 11552 C 1016.69 -0.42262 -6.18558 0
M  V30 11553 C 1018.75 0.19305 -4.97526 0
M  V30 11554 C 1017.45 -1.1972 -7.09267 0
M  V30 11555 C 1019.48 -0.568152 -5.88665 0
M  V30 11556 C 1018.84 -1.25566 -6.93118 0
M  V30 11557 H 1014.94 0.309403 -0.718188 0
M  V30 11558 H 1017.52 0.170693 -1.9395 0
M  V30 11559 H 1015.69 2.45063 -3.01328 0
M  V30 11560 H 1017.42 2.40314 -3.25625 0
M  V30 11561 H 1014.18 0.935247 -4.64274 0
M  V30 11562 H 1014.6 -0.636908 -6.73997 0
M  V30 11563 H 1019.25 0.71023 -4.16792 0
M  V30 11564 H 1016.96 -1.72578 -7.89457 0
M  V30 11565 H 1020.55 -0.634164 -5.78333 0
M  V30 11566 H 1019.43 -1.83524 -7.62423 0
M  V30 11567 N 1016.93 1.50896 0.454776 0
M  V30 11568 C 1017.88 1.71497 1.57136 0
M  V30 11569 C 1018.87 0.58098 1.59126 0
M  V30 11570 O 1020.08 0.761916 1.63079 0
M  V30 11571 H 1016.46 0.54158 0.521724 0
M  V30 11572 H 1018.43 2.65129 1.36928 0
M  V30 11573 C 1017.18 1.84125 2.94947 0
M  V30 11574 H 1016.5 2.7078 2.9414 0
M  V30 11575 H 1017.94 2.02558 3.72487 0
M  V30 11576 C 1016.4 0.596752 3.31573 0
M  V30 11577 O 1016.93 -0.256632 4.00879 0
M  V30 11578 N 1015.13 0.445958 2.87158 0
M  V30 11579 H 1014.68 1.14146 2.30929 0
M  V30 11580 H 1014.64 -0.385519 3.12027 0
M  V30 11581 N 1018.41 -0.709066 1.40748 0
M  V30 11582 C 1019.64 -1.50313 1.42901 0
M  V30 11583 C 1020.06 -1.88072 0.032213 0
M  V30 11584 O 1019.42 -1.53716 -0.96131 0
M  V30 11585 C 1019.47 -2.75074 2.33166 0
M  V30 11586 O 1018.57 -3.72036 1.7794 0
M  V30 11587 H 1017.91 -0.452934 0.485538 0
M  V30 11588 H 1020.44 -0.872712 1.85054 0
M  V30 11589 H 1020.45 -3.23532 2.48578 0
M  V30 11590 H 1019.13 -2.46927 3.34664 0
M  V30 11591 H 1017.7 -3.30911 1.71908 0
M  V30 11592 N 1019.89 -1.26353 -0.941956 0
M  V30 11593 C 1021.14 -1.1163 -1.68473 0
M  V30 11594 C 1021.46 0.34108 -1.91994 0
M  V30 11595 O 1020.73 1.24065 -1.51607 0
M  V30 11596 H 1019.31 -0.410113 -0.624353 0
M  V30 11597 H 1021.97 -1.58669 -1.13182 0
M  V30 11598 H 1021.07 -1.63445 -2.6588 0
M  V30 11599 N 1021.37 1.14642 -1.08144 0
M  V30 11600 C 1022.78 1.6719 -0.830923 0
M  V30 11601 C 1023.13 1.85373 0.642749 0
M  V30 11602 O 1022.25 1.56293 1.49671 0
M  V30 11603 C 1022.85 3.03697 -1.50179 0
M  V30 11604 C 1021.41 3.5329 -1.29858 0
M  V30 11605 C 1020.56 2.28828 -1.5663 0
M  V30 11606 H 1023.51 0.987441 -1.24239 0
M  V30 11607 H 1023.53 3.69023 -0.9275 0
M  V30 11608 H 1023.04 2.90431 -2.57432 0
M  V30 11609 H 1021.14 3.71783 -0.246626 0
M  V30 11610 H 1021.25 4.34231 -2.02436 0
M  V30 11611 H 1019.62 2.34769 -0.987716 0
M  V30 11612 H 1020.4 2.18141 -2.65084 0
M  V30 11613 N 1022.85 0.866709 1.31628 0
M  V30 11614 C 1024.26 0.529032 1.79048 0
M  V30 11615 C 1024.61 -0.953871 1.71452 0
M  V30 11616 O 1023.73 -1.74462 1.28031 0
M  V30 11617 C 1024.33 0.953522 3.25105 0
M  V30 11618 C 1022.89 0.667554 3.70433 0
M  V30 11619 C 1022.03 1.14664 2.52483 0
M  V30 11620 H 1024.98 1.05275 1.18756 0
M  V30 11621 H 1025.01 0.274844 3.79506 0
M  V30 11622 H 1024.52 2.03283 3.30602 0
M  V30 11623 H 1022.62 -0.400532 3.70441 0
M  V30 11624 H 1022.73 1.2423 4.62714 0
M  V30 11625 H 1021.1 0.566502 2.4832 0
M  V30 11626 H 1021.88 2.2333 2.60727 0
M  V30 11627 N 1024.32 -1.44642 0.625825 0
M  V30 11628 C 1025.57 -2.01308 0.125682 0
M  V30 11629 C 1025.89 -1.49773 -1.25807 0
M  V30 11630 O 1027.09 -1.98533 -1.85194 0
M  V30 11631 C 1025.55 -3.59479 0.17395 0
M  V30 11632 C 1025.16 -4.20011 1.55868 0
M  V30 11633 C 1026.9 -4.2364 -0.270005 0
M  V30 11634 C 1024.81 -5.7039 1.56235 0
M  V30 11635 H 1023.74 -0.75276 0.0432194 0
M  V30 11636 H 1026.39 -1.65916 0.783842 0
M  V30 11637 H 1024.77 -3.92145 -0.551212 0
M  V30 11638 H 1025.94 -3.98891 2.307 0
M  V30 11639 H 1024.26 -3.68116 1.94627 0
M  V30 11640 H 1026.86 -5.33931 -0.28672 0
M  V30 11641 H 1027.2 -3.95603 -1.29629 0
M  V30 11642 H 1027.73 -3.95759 0.402487 0
M  V30 11643 H 1024.47 -6.03154 2.56683 0
M  V30 11644 H 1023.99 -5.93648 0.856881 0
M  V30 11645 H 1025.67 -6.33929 1.29396 0
M  V30 11646 N 1025.8 -0.366053 -1.5329 0
M  V30 11647 C 1027.21 0.113056 -1.86357 0
M  V30 11648 C 1027.56 1.48123 -1.28662 0
M  V30 11649 O 1026.69 2.07658 -0.608849 0
M  V30 11650 C 1027.28 0.211923 -3.38137 0
M  V30 11651 C 1025.84 0.635289 -3.71 0
M  V30 11652 C 1024.99 -0.217203 -2.76448 0
M  V30 11653 H 1027.94 -0.584829 -1.47531 0
M  V30 11654 H 1027.96 1.0354 -3.66142 0
M  V30 11655 H 1027.47 -0.783994 -3.80099 0
M  V30 11656 H 1025.57 1.63942 -3.34595 0
M  V30 11657 H 1025.69 0.409571 -4.77346 0
M  V30 11658 H 1024.05 0.313988 -2.52757 0
M  V30 11659 H 1024.83 -1.21067 -3.21244 0
M  V30 11660 N 1027.28 1.57312 -0.0952337 0
M  V30 11661 C 1028.19 2.17556 0.877877 0
M  V30 11662 C 1029.21 1.14505 1.31014 0
M  V30 11663 O 1030.38 1.46876 1.37802 0
M  V30 11664 C 1027.45 2.74413 2.11892 0
M  V30 11665 C 1026.51 3.92419 1.74085 0
M  V30 11666 C 1025.74 4.46556 2.92273 0
M  V30 11667 O 1025.96 3.99631 4.07002 0
M  V30 11668 O 1024.9 5.37576 2.70732 0
M  V30 11669 H 1028.72 3.01116 0.395312 0
M  V30 11670 H 1026.31 1.48841 0.129123 0
M  V30 11671 H 1028.19 3.10754 2.84622 0
M  V30 11672 H 1026.87 1.93899 2.59201 0
M  V30 11673 H 1025.77 3.6089 0.985346 0
M  V30 11674 H 1027.11 4.74298 1.31539 0
M  V30 11675 N 1028.76 -0.17846 1.56586 0
M  V30 11676 C 1029.67 -1.24115 1.9908 0
M  V30 11677 C 1030.68 -1.48854 0.901031 0
M  V30 11678 O 1031.86 -1.61142 1.2081 0
M  V30 11679 C 1028.92 -2.56187 2.33601 0
M  V30 11680 C 1027.99 -2.39373 3.56369 0
M  V30 11681 C 1027.22 -3.65147 3.89234 0
M  V30 11682 O 1027.44 -4.70024 3.23162 0
M  V30 11683 O 1026.38 -3.59683 4.82609 0
M  V30 11684 H 1030.2 -0.910482 2.89731 0
M  V30 11685 H 1027.79 -0.38477 1.4436 0
M  V30 11686 H 1029.67 -3.34109 2.56806 0
M  V30 11687 H 1028.34 -2.88847 1.46113 0
M  V30 11688 H 1027.25 -1.59506 3.38391 0
M  V30 11689 H 1028.58 -2.1164 4.44375 0
M  V30 11690 N 1030.24 -1.51135 -0.446768 0
M  V30 11691 C 1031.17 -1.74709 -1.54916 0
M  V30 11692 C 1032.15 -0.596628 -1.59293 0
M  V30 11693 O 1033.33 -0.838356 -1.75172 0
M  V30 11694 C 1030.46 -1.86353 -2.9307 0
M  V30 11695 C 1029.42 -3.01725 -3.03556 0
M  V30 11696 C 1028.74 -2.9854 -4.43597 0
M  V30 11697 C 1030.04 -4.41848 -2.7851 0
M  V30 11698 H 1031.74 -2.67014 -1.3544 0
M  V30 11699 H 1029.28 -1.28489 -0.650131 0
M  V30 11700 H 1031.23 -2.01428 -3.70141 0
M  V30 11701 H 1029.96 -0.906887 -3.13756 0
M  V30 11702 H 1028.62 -2.86339 -2.28922 0
M  V30 11703 H 1028.27 -2.00673 -4.61237 0
M  V30 11704 H 1027.97 -3.76008 -4.51544 0
M  V30 11705 H 1029.49 -3.15696 -5.22655 0
M  V30 11706 H 1030.9 -4.57633 -3.45319 0
M  V30 11707 H 1029.3 -5.2095 -2.97877 0
M  V30 11708 H 1030.37 -4.52536 -1.74182 0
M  V30 11709 N 1031.71 0.701592 -1.41122 0
M  V30 11710 C 1032.66 1.81559 -1.42495 0
M  V30 11711 C 1033.63 1.63722 -0.280078 0
M  V30 11712 O 1034.82 1.84658 -0.480231 0
M  V30 11713 C 1031.96 3.19392 -1.30702 0
M  V30 11714 C 1031.07 3.48704 -2.55009 0
M  V30 11715 C 1030.2 4.76118 -2.35554 0
M  V30 11716 C 1029.24 4.98378 -3.55367 0
M  V30 11717 N 1028.38 6.17014 -3.3502 0
M  V30 11718 H 1033.22 1.7972 -2.37707 0
M  V30 11719 H 1030.76 0.877727 -1.18044 0
M  V30 11720 H 1032.71 3.99004 -1.21867 0
M  V30 11721 H 1031.34 3.20423 -0.391012 0
M  V30 11722 H 1030.4 2.63542 -2.74317 0
M  V30 11723 H 1031.71 3.61057 -3.44151 0
M  V30 11724 H 1030.86 5.63774 -2.24152 0
M  V30 11725 H 1029.6 4.66 -1.43859 0
M  V30 11726 H 1028.61 4.09172 -3.6723 0
M  V30 11727 H 1029.83 5.10359 -4.48007 0
M  V30 11728 H 1027.78 6.0812 -2.4602 0
M  V30 11729 H 1027.69 6.30107 -4.17733 0
M  V30 11730 H 1028.96 7.0742 -3.27379 0
M  V30 11731 N 1033.19 1.2685 0.935242 0
M  V30 11732 C 1034.1 1.10716 2.06831 0
M  V30 11733 C 1035.12 0.0391222 1.73956 0
M  V30 11734 O 1036.29 0.244071 1.99916 0
M  V30 11735 C 1033.36 0.748093 3.38533 0
M  V30 11736 C 1032.42 1.89619 3.85153 0
M  V30 11737 C 1031.65 1.55416 5.1057 0
M  V30 11738 O 1031.88 0.458596 5.68553 0
M  V30 11739 O 1030.81 2.39087 5.52378 0
M  V30 11740 H 1034.64 2.05785 2.23352 0
M  V30 11741 H 1032.22 1.05967 1.05315 0
M  V30 11742 H 1034.1 0.560841 4.17651 0
M  V30 11743 H 1032.78 -0.173142 3.23237 0
M  V30 11744 H 1031.68 2.13845 3.06954 0
M  V30 11745 H 1033.02 2.79737 4.04979 0
M  V30 11746 N 1034.67 -1.14067 1.0875 0
M  V30 11747 C 1035.62 -2.19261 0.720633 0
M  V30 11748 C 1036.59 -1.63462 -0.294847 0
M  V30 11749 O 1037.77 -1.89967 -0.178058 0
M  V30 11750 C 1034.91 -3.44816 0.139873 0
M  V30 11751 C 1034.03 -4.1475 1.20856 0
M  V30 11752 C 1033.16 -5.27899 0.591285 0
M  V30 11753 C 1032.2 -5.89672 1.64176 0
M  V30 11754 N 1031.34 -6.94264 1.04603 0
M  V30 11755 H 1036.18 -2.49991 1.62198 0
M  V30 11756 H 1033.71 -1.22757 0.810497 0
M  V30 11757 H 1035.67 -4.16648 -0.214587 0
M  V30 11758 H 1034.3 -3.14558 -0.724774 0
M  V30 11759 H 1033.35 -3.41272 1.6804 0
M  V30 11760 H 1034.67 -4.56753 2.00446 0
M  V30 11761 H 1033.82 -6.06417 0.185271 0
M  V30 11762 H 1032.56 -4.87128 -0.236236 0
M  V30 11763 H 1031.56 -5.09854 2.05739 0
M  V30 11764 H 1032.79 -6.32517 2.47182 0
M  V30 11765 H 1030.73 -6.55562 0.239664 0
M  V30 11766 H 1030.65 -7.34771 1.77898 0
M  V30 11767 H 1031.92 -7.7665 0.665989 0
M  V30 11768 N 1036.15 -0.873678 -1.31166 0
M  V30 11769 C 1037.4 -0.482577 -1.95842 0
M  V30 11770 C 1037.71 0.970881 -1.69804 0
M  V30 11771 O 1038.92 1.4683 -2.28371 0
M  V30 11772 C 1037.37 -0.812074 -3.50619 0
M  V30 11773 C 1036.98 -2.28254 -3.85492 0
M  V30 11774 C 1038.72 -0.489624 -4.21667 0
M  V30 11775 C 1036.63 -2.55426 -5.33396 0
M  V30 11776 H 1035.56 -0.176736 -0.732994 0
M  V30 11777 H 1038.21 -1.06709 -1.49283 0
M  V30 11778 H 1036.59 -0.156769 -3.9569 0
M  V30 11779 H 1037.77 -2.98122 -3.51369 0
M  V30 11780 H 1036.08 -2.5714 -3.27518 0
M  V30 11781 H 1038.68 -0.669811 -5.30488 0
M  V30 11782 H 1039.02 0.570204 -4.12376 0
M  V30 11783 H 1039.56 -1.10163 -3.82242 0
M  V30 11784 H 1036.3 -3.60106 -5.47726 0
M  V30 11785 H 1035.82 -1.90156 -5.68859 0
M  V30 11786 H 1037.49 -2.40345 -6.00702 0
M  V30 11787 N 1037.63 1.44308 -0.633487 0
M  V30 11788 C 1038.87 2.02023 -0.138917 0
M  V30 11789 C 1039.2 1.49841 1.24008 0
M  V30 11790 O 1038.46 0.673718 1.83738 0
M  V30 11791 C 1038.76 3.57316 -0.0773886 0
M  V30 11792 C 1038.42 4.28762 -1.39548 0
M  V30 11793 C 1037.08 4.47997 -1.75648 0
M  V30 11794 C 1039.44 4.69391 -2.26542 0
M  V30 11795 C 1036.76 5.05121 -2.98445 0
M  V30 11796 C 1039.12 5.27876 -3.48612 0
M  V30 11797 C 1037.78 5.45329 -3.84932 0
M  V30 11798 H 1037.05 0.739254 -0.0508333 0
M  V30 11799 H 1039.7 1.73043 -0.820271 0
M  V30 11800 H 1038 3.85724 0.687345 0
M  V30 11801 H 1039.7 3.99706 0.321837 0
M  V30 11802 H 1036.29 4.14122 -1.10456 0
M  V30 11803 H 1040.47 4.54241 -1.99946 0
M  V30 11804 H 1035.73 5.16821 -3.26658 0
M  V30 11805 H 1039.9 5.58307 -4.16253 0
M  V30 11806 H 1037.53 5.8936 -4.80166 0
M  V30 11807 N 1039.1 0.374177 1.53094 0
M  V30 11808 C 1040.33 -0.215903 2.06273 0
M  V30 11809 C 1040.75 -1.40979 1.24526 0
M  V30 11810 O 1040.11 -1.79331 0.266462 0
M  V30 11811 C 1040.16 -0.579089 3.5592 0
M  V30 11812 O 1039.26 -1.67516 3.76845 0
M  V30 11813 H 1038.61 -0.0293981 0.663349 0
M  V30 11814 H 1041.14 0.537271 1.9742 0
M  V30 11815 H 1041.15 -0.847678 3.99097 0
M  V30 11816 H 1039.82 0.293843 4.14861 0
M  V30 11817 H 1038.4 -1.40146 3.45563 0
M  V30 11818 N 1040.58 -1.57259 0.103575 0
M  V30 11819 C 1041.99 -1.81816 -0.424239 0
M  V30 11820 C 1042.34 -1.01976 -1.67617 0
M  V30 11821 O 1041.47 -0.251673 -2.14932 0
M  V30 11822 C 1042.06 -3.29783 -0.776453 0
M  V30 11823 C 1040.62 -3.55074 -1.24897 0
M  V30 11824 C 1039.77 -2.76172 -0.249875 0
M  V30 11825 H 1042.72 -1.55254 0.328913 0
M  V30 11826 H 1042.74 -3.43569 -1.63526 0
M  V30 11827 H 1042.25 -3.87865 0.134906 0
M  V30 11828 H 1040.36 -3.02332 -2.17775 0
M  V30 11829 H 1040.47 -4.637 -1.20495 0
M  V30 11830 H 1038.83 -2.43902 -0.733767 0
M  V30 11831 H 1039.62 -3.37007 0.65431 0
M  V30 11832 N 1042.06 0.170153 -1.56679 0
M  V30 11833 C 1043.31 0.886592 -1.8206 0
M  V30 11834 C 1043.64 1.82194 -0.680839 0
M  V30 11835 O 1042.89 1.92866 0.331822 0
M  V30 11836 C 1043.19 1.71402 -3.13618 0
M  V30 11837 C 1042.86 0.927489 -4.41258 0
M  V30 11838 C 1041.52 0.710417 -4.75927 0
M  V30 11839 C 1043.87 0.375855 -5.19843 0
M  V30 11840 C 1041.2 -0.0693691 -5.86659 0
M  V30 11841 C 1043.55 -0.390849 -6.31391 0
M  V30 11842 C 1042.21 -0.61871 -6.64626 0
M  V30 11843 H 1041.48 0.324427 -0.666204 0
M  V30 11844 H 1044.13 0.151464 -1.909 0
M  V30 11845 H 1042.44 2.51858 -3.00125 0
M  V30 11846 H 1044.13 2.27141 -3.30466 0
M  V30 11847 H 1040.72 1.10672 -4.14065 0
M  V30 11848 H 1044.91 0.530897 -4.93452 0
M  V30 11849 H 1040.16 -0.255637 -6.10865 0
M  V30 11850 H 1044.34 -0.825544 -6.9149 0
M  V30 11851 H 1041.96 -1.22482 -7.50268 0
M  V30 11852 N 1043.54 1.5137 0.438746 0
M  V30 11853 C 1044.79 1.63969 1.1883 0
M  V30 11854 C 1045.11 0.355245 1.91228 0
M  V30 11855 O 1044.37 -0.660605 1.84213 0
M  V30 11856 C 1044.67 2.79221 2.23093 0
M  V30 11857 C 1044.33 4.18547 1.67717 0
M  V30 11858 C 1043 4.5645 1.52337 0
M  V30 11859 C 1045.35 5.05494 1.26986 0
M  V30 11860 C 1042.68 5.79007 0.946996 0
M  V30 11861 C 1045.03 6.28628 0.707785 0
M  V30 11862 C 1043.69 6.65305 0.540881 0
M  V30 11863 H 1042.96 0.600003 0.43483 0
M  V30 11864 H 1045.61 1.85398 0.479565 0
M  V30 11865 H 1043.91 2.52008 2.99999 0
M  V30 11866 H 1045.61 2.86168 2.80907 0
M  V30 11867 H 1042.2 3.88663 1.80663 0
M  V30 11868 H 1046.38 4.76818 1.37689 0
M  V30 11869 H 1041.64 6.06072 0.805432 0
M  V30 11870 H 1045.81 6.95342 0.38366 0
M  V30 11871 H 1043.44 7.60144 0.0921324 0
M  V30 11872 N 1045.02 -0.694098 1.41492 0
M  V30 11873 C 1046.24 -1.48286 1.44288 0
M  V30 11874 C 1046.66 -1.88737 0.0485783 0
M  V30 11875 O 1046.02 -1.56881 -0.932449 0
M  V30 11876 C 1046.07 -2.74446 2.3529 0
M  V30 11877 O 1045.79 -2.35698 3.69294 0
M  V30 11878 C 1047.29 -3.68175 2.46905 0
M  V30 11879 H 1044.51 -0.45692 0.491391 0
M  V30 11880 H 1047.05 -0.854477 1.85793 0
M  V30 11881 H 1045.21 -3.33518 1.9709 0
M  V30 11882 H 1045.62 -3.17029 4.17843 0
M  V30 11883 H 1047.1 -4.53476 3.14743 0
M  V30 11884 H 1047.57 -4.12763 1.50078 0
M  V30 11885 H 1048.18 -3.15006 2.85747 0
M  V30 11886 N 1046.49 -1.27344 -0.928501 0
M  V30 11887 C 1047.72 -1.16447 -1.7102 0
M  V30 11888 C 1048.14 0.278799 -1.8673 0
M  V30 11889 O 1047.49 1.18989 -1.38376 0
M  V30 11890 C 1047.55 -1.84242 -3.11026 0
M  V30 11891 O 1047.27 -3.2293 -2.96054 0
M  V30 11892 C 1048.77 -1.7946 -4.05351 0
M  V30 11893 H 1045.99 -0.404898 -0.535069 0
M  V30 11894 H 1048.53 -1.68201 -1.16313 0
M  V30 11895 H 1046.69 -1.36395 -3.62595 0
M  V30 11896 H 1047.1 -3.5667 -3.8456 0
M  V30 11897 H 1048.57 -2.31511 -5.01105 0
M  V30 11898 H 1049.05 -0.763771 -4.32508 0
M  V30 11899 H 1049.66 -2.26918 -3.59706 0
M  V30 11900 N 1047.97 1.13488 -1.09353 0
M  V30 11901 C 1048.92 2.18876 -0.732251 0
M  V30 11902 C 1049.89 1.63616 0.286175 0
M  V30 11903 O 1051.07 1.90059 0.167981 0
M  V30 11904 C 1048.21 3.44737 -0.158157 0
M  V30 11905 C 1047.33 4.14104 -1.23053 0
M  V30 11906 C 1046.46 5.27578 -0.619272 0
M  V30 11907 C 1045.5 5.88793 -1.67301 0
M  V30 11908 N 1044.64 6.937 -1.08283 0
M  V30 11909 H 1049.48 2.49128 -1.63522 0
M  V30 11910 H 1047.02 1.22326 -0.816995 0
M  V30 11911 H 1048.97 4.16756 0.192488 0
M  V30 11912 H 1047.6 3.14938 0.708082 0
M  V30 11913 H 1046.66 3.40376 -1.69847 0
M  V30 11914 H 1047.97 4.55683 -2.02865 0
M  V30 11915 H 1047.12 6.0631 -0.217428 0
M  V30 11916 H 1045.86 4.87246 0.210399 0
M  V30 11917 H 1044.87 5.08756 -2.0844 0
M  V30 11918 H 1046.09 6.31197 -2.50533 0
M  V30 11919 H 1044.04 6.55426 -0.274426 0
M  V30 11920 H 1043.95 7.33817 -1.81792 0
M  V30 11921 H 1045.22 7.76286 -0.707167 0
M  V30 11922 N 1049.45 0.880621 1.30701 0
M  V30 11923 C 1050.68 0.511682 2.00473 0
M  V30 11924 C 1051.09 -0.898684 1.6604 0
M  V30 11925 O 1050.45 -1.59035 0.895218 0
M  V30 11926 C 1050.5 0.671723 3.55204 0
M  V30 11927 O 1050.22 2.02656 3.8841 0
M  V30 11928 C 1051.72 0.3052 4.42248 0
M  V30 11929 H 1048.94 0.198231 0.64105 0
M  V30 11930 H 1051.49 1.18472 1.66687 0
M  V30 11931 H 1049.64 0.0461066 3.87373 0
M  V30 11932 H 1050.06 2.04202 4.83117 0
M  V30 11933 H 1051.53 0.468095 5.50012 0
M  V30 11934 H 1052.01 -0.756456 4.32637 0
M  V30 11935 H 1052.61 0.906959 4.15517 0
M  V30 11936 N 1050.93 -1.4397 0.641131 0
M  V30 11937 C 1051.86 -2.28997 -0.0963315 0
M  V30 11938 C 1052.87 -1.4184 -0.799071 0
M  V30 11939 O 1054.06 -1.65896 -0.658846 0
M  V30 11940 C 1051.16 -3.18465 -1.15903 0
M  V30 11941 C 1050.34 -4.34093 -0.536828 0
M  V30 11942 C 1049.4 -5.04522 -1.4948 0
M  V30 11943 O 1048.42 -5.60202 -1.00807 0
M  V30 11944 N 1049.62 -5.06899 -2.82901 0
M  V30 11945 H 1052.39 -2.9293 0.633422 0
M  V30 11946 H 1049.95 -1.54527 0.48302 0
M  V30 11947 H 1051.94 -3.62445 -1.80044 0
M  V30 11948 H 1050.51 -2.56214 -1.79089 0
M  V30 11949 H 1049.73 -3.9318 0.283414 0
M  V30 11950 H 1051.02 -5.08698 -0.101966 0
M  V30 11951 H 1050.42 -4.63012 -3.25017 0
M  V30 11952 H 1048.97 -5.54637 -3.42376 0
M  V30 11953 N 1052.41 -0.382291 -1.52893 0
M  V30 11954 C 1053.66 0.201734 -2.01091 0
M  V30 11955 C 1053.98 1.47905 -1.2708 0
M  V30 11956 O 1053.25 1.92002 -0.38883 0
M  V30 11957 H 1051.83 0.0775373 -0.742965 0
M  V30 11958 H 1054.49 -0.512369 -1.88045 0
M  V30 11959 H 1053.58 0.416919 -3.09303 0
M  V30 11960 N 1053.89 1.57202 -0.111913 0
M  V30 11961 C 1055.11 1.99297 0.555713 0
M  V30 11962 C 1055.53 0.991444 1.60673 0
M  V30 11963 O 1054.89 -0.0166672 1.82492 0
M  V30 11964 C 1054.94 3.41413 1.18826 0
M  V30 11965 O 1054.66 4.37733 0.179261 0
M  V30 11966 C 1056.16 3.98602 1.93989 0
M  V30 11967 H 1053.38 0.654543 0.147695 0
M  V30 11968 H 1055.92 2.03557 -0.196163 0
M  V30 11969 H 1054.08 3.38115 1.89096 0
M  V30 11970 H 1054.49 5.20606 0.637935 0
M  V30 11971 H 1055.97 5.00143 2.33584 0
M  V30 11972 H 1056.44 3.37349 2.81233 0
M  V30 11973 H 1057.05 4.05424 1.28497 0
M  V30 11974 N 1055.36 -0.161842 1.56767 0
M  V30 11975 C 1056.61 -0.875192 1.82167 0
M  V30 11976 C 1056.93 -1.82367 0.690444 0
M  V30 11977 O 1056.2 -1.93756 -0.289023 0
M  V30 11978 H 1054.78 -0.326178 0.672024 0
M  V30 11979 H 1057.44 -0.159392 1.94247 0
M  V30 11980 H 1056.54 -1.44639 2.76561 0
M  V30 11981 N 1056.84 -1.516 -0.430713 0
M  V30 11982 C 1057.77 -1.76342 -1.53054 0
M  V30 11983 C 1058.75 -0.61349 -1.58652 0
M  V30 11984 O 1059.94 -0.856888 -1.74273 0
M  V30 11985 C 1057.07 -1.8945 -2.91077 0
M  V30 11986 C 1056.02 -3.04928 -3.00339 0
M  V30 11987 C 1055.35 -3.03228 -4.40405 0
M  V30 11988 C 1056.65 -4.44777 -2.73808 0
M  V30 11989 H 1058.34 -2.68435 -1.326 0
M  V30 11990 H 1055.89 -1.29171 -0.636466 0
M  V30 11991 H 1057.84 -2.05343 -3.67984 0
M  V30 11992 H 1056.56 -0.940114 -3.12777 0
M  V30 11993 H 1055.22 -2.88751 -2.25872 0
M  V30 11994 H 1054.87 -2.05553 -4.59083 0
M  V30 11995 H 1054.57 -3.80776 -4.47531 0
M  V30 11996 H 1056.1 -3.21222 -5.19277 0
M  V30 11997 H 1057.51 -4.6127 -3.40445 0
M  V30 11998 H 1055.91 -5.2408 -2.92335 0
M  V30 11999 H 1056.98 -4.54358 -1.69372 0
M  V30 12000 N 1058.32 0.686584 -1.41858 0
M  V30 12001 C 1059.57 1.44379 -1.41418 0
M  V30 12002 C 1059.89 1.94981 -0.0273696 0
M  V30 12003 O 1059.16 1.72296 0.932248 0
M  V30 12004 H 1057.74 0.53574 -0.520568 0
M  V30 12005 H 1060.4 0.812056 -1.77177 0
M  V30 12006 H 1059.5 2.30258 -2.10684 0
M  V30 12007 N 1059.8 1.27835 0.921735 0
M  V30 12008 C 1060.73 1.136 2.04003 0
M  V30 12009 C 1061.71 0.0358756 1.70062 0
M  V30 12010 O 1062.89 0.211438 1.93046 0
M  V30 12011 C 1060.02 0.788697 3.38226 0
M  V30 12012 C 1058.98 1.84272 3.863 0
M  V30 12013 C 1058.3 1.34923 5.17397 0
M  V30 12014 C 1059.6 3.24788 4.09035 0
M  V30 12015 H 1061.3 2.07149 2.1617 0
M  V30 12016 H 1058.84 0.997349 1.0387 0
M  V30 12017 H 1060.8 0.675911 4.15944 0
M  V30 12018 H 1059.52 -0.182499 3.2609 0
M  V30 12019 H 1058.18 1.94451 3.1078 0
M  V30 12020 H 1057.83 0.367328 5.01657 0
M  V30 12021 H 1057.53 2.05397 5.50532 0
M  V30 12022 H 1059.05 1.24951 5.97678 0
M  V30 12023 H 1060.47 3.17575 4.77304 0
M  V30 12024 H 1058.86 3.93025 4.53488 0
M  V30 12025 H 1059.93 3.69398 3.14122 0
M  V30 12026 N 1061.28 -1.12907 1.09954 0
M  V30 12027 C 1062.5 -1.88679 0.861099 0
M  V30 12028 C 1062.93 -1.78853 -0.582499 0
M  V30 12029 O 1062.28 -1.13992 -1.4098 0
M  V30 12030 C 1062.33 -3.36047 1.30785 0
M  V30 12031 O 1061.44 -4.09716 0.469728 0
M  V30 12032 H 1060.78 -0.586447 0.31141 0
M  V30 12033 H 1063.31 -1.42818 1.46507 0
M  V30 12034 H 1063.32 -3.86882 1.29562 0
M  V30 12035 H 1061.99 -3.42516 2.35914 0
M  V30 12036 H 1060.57 -3.6887 0.54674 0
M  V30 12037 N 1062.75 -0.88754 -1.30232 0
M  V30 12038 C 1064 -0.503322 -1.95319 0
M  V30 12039 C 1064.32 0.952817 -1.70824 0
M  V30 12040 O 1065.52 1.444 -2.29915 0
M  V30 12041 C 1063.98 -0.849216 -3.49738 0
M  V30 12042 C 1063.59 -2.3233 -3.83049 0
M  V30 12043 C 1065.33 -0.53432 -4.21124 0
M  V30 12044 C 1063.24 -2.61069 -5.30657 0
M  V30 12045 H 1062.17 -0.1845 -0.731078 0
M  V30 12046 H 1064.82 -1.08287 -1.48143 0
M  V30 12047 H 1063.2 -0.198729 -3.95501 0
M  V30 12048 H 1064.37 -3.01832 -3.48187 0
M  V30 12049 H 1062.69 -2.60599 -3.24773 0
M  V30 12050 H 1065.29 -0.726039 -5.29748 0
M  V30 12051 H 1065.63 0.526434 -4.12958 0
M  V30 12052 H 1066.16 -1.14211 -3.81052 0
M  V30 12053 H 1062.9 -3.65895 -5.43876 0
M  V30 12054 H 1062.42 -1.96179 -5.6681 0
M  V30 12055 H 1064.1 -2.46703 -5.98119 0
M  V30 12056 N 1064.23 1.43628 -0.648757 0
M  V30 12057 C 1065.47 2.03742 -0.163878 0
M  V30 12058 C 1065.84 1.50047 1.19791 0
M  V30 12059 O 1067.04 2.01777 1.77594 0
M  V30 12060 C 1065.31 3.57001 -0.168849 0
M  V30 12061 S 1066.87 4.38094 0.248835 0
M  V30 12062 H 1063.69 0.70757 -0.0697515 0
M  V30 12063 H 1066.29 1.75759 -0.856094 0
M  V30 12064 H 1064.99 3.93583 -1.16277 0
M  V30 12065 H 1064.52 3.8962 0.544048 0
M  V30 12066 H 1066.54 4.73338 1.48882 0
M  V30 12067 N 1065.71 0.390394 1.52688 0
M  V30 12068 C 1067.13 0.0404028 1.59549 0
M  V30 12069 C 1067.33 -1.44503 1.40432 0
M  V30 12070 O 1066.38 -2.20968 1.22187 0
M  V30 12071 C 1067.7 0.518561 2.96195 0
M  V30 12072 C 1069.24 0.474913 3.09376 0
M  V30 12073 C 1069.72 0.929278 4.48473 0
M  V30 12074 N 1071.21 0.885335 4.5466 0
M  V30 12075 C 1071.94 1.2083 5.60524 0
M  V30 12076 N 1071.44 1.6018 6.74028 0
M  V30 12077 N 1073.23 1.12949 5.50635 0
M  V30 12078 H 1065.38 1.35743 1.63363 0
M  V30 12079 H 1067.65 0.556453 0.767505 0
M  V30 12080 H 1067.35 1.55606 3.15404 0
M  V30 12081 H 1067.23 -0.081779 3.77111 0
M  V30 12082 H 1069.61 -0.553503 2.89863 0
M  V30 12083 H 1069.7 1.11107 2.3041 0
M  V30 12084 H 1069.34 1.95593 4.68728 0
M  V30 12085 H 1069.27 0.270121 5.25907 0
M  V30 12086 H 1071.76 0.595787 3.73174 0
M  V30 12087 H 1072.07 1.83184 7.50775 0
M  V30 12088 H 1070.42 1.64067 6.75357 0
M  V30 12089 H 1073.61 0.821074 4.60843 0
M  V30 12090 H 1073.78 1.3845 6.33037 0
M  V30 12091 N 1067.19 -1.57141 0.120249 0
M  V30 12092 C 1068.14 -2.15379 -0.829497 0
M  V30 12093 C 1069.11 -1.07913 -1.2627 0
M  V30 12094 O 1070.29 -1.35827 -1.33999 0
M  V30 12095 C 1067.43 -2.75847 -2.0737 0
M  V30 12096 C 1066.54 -3.97624 -1.68875 0
M  V30 12097 C 1065.68 -4.46175 -2.88272 0
M  V30 12098 C 1064.72 -5.60481 -2.46023 0
M  V30 12099 N 1063.85 -6.0377 -3.58337 0
M  V30 12100 H 1068.69 -2.96211 -0.326031 0
M  V30 12101 H 1066.23 -1.46341 -0.149235 0
M  V30 12102 H 1068.19 -3.09037 -2.80272 0
M  V30 12103 H 1066.82 -1.97703 -2.55174 0
M  V30 12104 H 1065.87 -3.70588 -0.858431 0
M  V30 12105 H 1067.18 -4.80512 -1.33827 0
M  V30 12106 H 1066.34 -4.8128 -3.69397 0
M  V30 12107 H 1065.08 -3.6224 -3.26548 0
M  V30 12108 H 1064.08 -5.24979 -1.63331 0
M  V30 12109 H 1065.31 -6.46184 -2.08863 0
M  V30 12110 H 1063.25 -5.22776 -3.96284 0
M  V30 12111 H 1063.17 -6.81517 -3.27217 0
M  V30 12112 H 1064.44 -6.43514 -4.39898 0
M  V30 12113 N 1068.67 0.153526 -1.5685 0
M  V30 12114 C 1069.92 0.865628 -1.82181 0
M  V30 12115 C 1070.23 1.82629 -0.700434 0
M  V30 12116 O 1071.43 2.58206 -0.839155 0
M  V30 12117 C 1069.89 1.58993 -3.22877 0
M  V30 12118 C 1069.5 0.672006 -4.42931 0
M  V30 12119 C 1071.24 2.2892 -3.57486 0
M  V30 12120 C 1069.15 1.39755 -5.7465 0
M  V30 12121 H 1068.08 0.326993 -0.679406 0
M  V30 12122 H 1070.73 0.118403 -1.83118 0
M  V30 12123 H 1069.11 2.38255 -3.16308 0
M  V30 12124 H 1070.29 -0.0849226 -4.60722 0
M  V30 12125 H 1068.6 0.0814825 -4.1632 0
M  V30 12126 H 1071.2 2.8383 -4.5315 0
M  V30 12127 H 1071.54 3.05105 -2.83226 0
M  V30 12128 H 1072.07 1.56583 -3.65686 0
M  V30 12129 H 1068.81 0.677686 -6.51987 0
M  V30 12130 H 1068.33 2.12736 -5.60806 0
M  V30 12131 H 1070.01 1.94024 -6.17223 0
M  V30 12132 N 1070.14 1.51827 0.422667 0
M  V30 12133 C 1071.39 1.6445 1.16786 0
M  V30 12134 C 1071.71 0.373792 1.91995 0
M  V30 12135 O 1072.91 0.379621 2.68833 0
M  V30 12136 C 1071.37 2.90488 2.12473 0
M  V30 12137 C 1070.98 4.24617 1.42844 0
M  V30 12138 C 1072.72 3.12472 2.87335 0
M  V30 12139 C 1070.63 5.41791 2.371 0
M  V30 12140 H 1069.56 0.612561 0.439641 0
M  V30 12141 H 1072.21 1.78305 0.433534 0
M  V30 12142 H 1070.59 2.703 2.89402 0
M  V30 12143 H 1071.76 4.55239 0.71372 0
M  V30 12144 H 1070.08 4.08628 0.800769 0
M  V30 12145 H 1072.68 3.9719 3.57973 0
M  V30 12146 H 1073.02 2.26148 3.49518 0
M  V30 12147 H 1073.55 3.33069 2.17509 0
M  V30 12148 H 1070.29 6.3042 1.79584 0
M  V30 12149 H 1069.81 5.15526 3.06583 0
M  V30 12150 H 1071.49 5.74329 2.97918 0
M  V30 12151 N 1071.62 -0.679052 1.4222 0
M  V30 12152 C 1072.53 -1.82221 1.47759 0
M  V30 12153 C 1073.55 -1.70092 0.3667 0
M  V30 12154 O 1074.72 -1.91718 0.616957 0
M  V30 12155 C 1071.79 -3.18332 1.37351 0
M  V30 12156 C 1070.85 -3.42449 2.58896 0
M  V30 12157 C 1070.08 -4.72067 2.48976 0
M  V30 12158 O 1070.31 -5.49683 1.5233 0
M  V30 12159 O 1069.24 -4.97333 3.39033 0
M  V30 12160 H 1073.07 -1.80504 2.44238 0
M  V30 12161 H 1070.65 -0.834251 1.23938 0
M  V30 12162 H 1072.53 -3.99563 1.33893 0
M  V30 12163 H 1071.21 -3.20696 0.439965 0
M  V30 12164 H 1070.12 -2.61083 2.6793 0
M  V30 12165 H 1071.45 -3.44912 3.51136 0
M  V30 12166 N 1073.1 -1.28322 -0.914942 0
M  V30 12167 C 1074.38 -1.06111 -1.64316 0
M  V30 12168 C 1074.76 0.399934 -2.07277 0
M  V30 12169 O 1074.11 1.38577 -1.81683 0
M  V30 12170 C 1074.32 -2.03461 -2.83557 0
M  V30 12171 C 1075.66 -2.33541 -3.54604 0
M  V30 12172 O 1076.69 -2.01536 -2.93704 0
M  V30 12173 O 1075.55 -2.88158 -4.64357 0
M  V30 12174 H 1072.64 -0.405451 -0.72079 0
M  V30 12175 H 1075.19 -1.39636 -0.964352 0
M  V30 12176 H 1073.96 -3.01938 -2.48896 0
M  V30 12177 H 1073.58 -1.70574 -3.59152 0
M  V30 12178 N 1074.58 1.12322 -1.10551 0
M  V30 12179 C 1075.49 2.21678 -0.767862 0
M  V30 12180 C 1076.5 1.72404 0.235132 0
M  V30 12181 O 1077.68 2.01266 0.0735912 0
M  V30 12182 C 1074.75 3.46087 -0.205999 0
M  V30 12183 C 1073.81 4.10195 -1.26642 0
M  V30 12184 C 1073.04 5.28666 -0.731274 0
M  V30 12185 O 1073.26 5.68686 0.44189 0
M  V30 12186 O 1072.2 5.83121 -1.49176 0
M  V30 12187 H 1076.02 2.52955 -1.6807 0
M  V30 12188 H 1073.61 1.2068 -0.880728 0
M  V30 12189 H 1075.49 4.21273 0.103435 0
M  V30 12190 H 1074.16 3.16484 0.679685 0
M  V30 12191 H 1073.07 3.36784 -1.62873 0
M  V30 12192 H 1074.4 4.43957 -2.12516 0
M  V30 12193 N 1076.06 0.894434 1.2976 0
M  V30 12194 C 1077.01 0.339611 2.25457 0
M  V30 12195 C 1077.99 -0.537326 1.51663 0
M  V30 12196 O 1079.18 -0.380204 1.72868 0
M  V30 12197 C 1076.31 -0.436494 3.40514 0
M  V30 12198 C 1075.4 0.455065 4.21651 0
M  V30 12199 N 1075.79 1.55988 4.81146 0
M  V30 12200 C 1074.09 0.251893 4.45288 0
M  V30 12201 C 1074.79 2.1117 5.42017 0
M  V30 12202 N 1073.76 1.40541 5.25118 0
M  V30 12203 H 1077.57 1.18365 2.69011 0
M  V30 12204 H 1075.08 0.744895 1.44309 0
M  V30 12205 H 1077.08 -0.850678 4.08129 0
M  V30 12206 H 1075.74 -1.27786 2.98498 0
M  V30 12207 H 1076.75 1.94266 4.80084 0
M  V30 12208 H 1073.42 -0.551536 4.13841 0
M  V30 12209 H 1074.81 3.04 5.99194 0
M  V30 12210 N 1077.53 -1.43282 0.656365 0
M  V30 12211 C 1078.78 -2.01378 0.170702 0
M  V30 12212 C 1079.1 -1.52063 -1.22073 0
M  V30 12213 O 1078.37 -0.73456 -1.81607 0
M  V30 12214 H 1076.95 -0.744577 0.0601168 0
M  V30 12215 H 1079.62 -1.75449 0.848739 0
M  V30 12216 H 1078.71 -3.11701 0.157745 0
M  V30 12217 N 1079.01 -0.398486 -1.52479 0
M  V30 12218 C 1080.26 0.180394 -2.01293 0
M  V30 12219 C 1080.58 1.46548 -1.28641 0
M  V30 12220 O 1079.85 1.91579 -0.409173 0
M  V30 12221 H 1078.43 0.0696528 -0.743746 0
M  V30 12222 H 1081.09 -0.532285 -1.87491 0
M  V30 12223 H 1080.19 0.38409 -3.09728 0
M  V30 12224 N 1080.49 1.57075 -0.12858 0
M  V30 12225 C 1081.44 2.15816 0.818064 0
M  V30 12226 C 1082.41 1.08581 1.25696 0
M  V30 12227 O 1083.59 1.36535 1.33277 0
M  V30 12228 C 1080.73 2.76943 2.05905 0
M  V30 12229 C 1079.85 3.98514 1.66764 0
M  V30 12230 C 1078.98 4.47698 2.85902 0
M  V30 12231 C 1078.02 5.61778 2.43047 0
M  V30 12232 N 1077.16 6.05662 3.5513 0
M  V30 12233 H 1082 2.9638 0.310318 0
M  V30 12234 H 1079.53 1.46418 0.141472 0
M  V30 12235 H 1081.49 3.10519 2.78629 0
M  V30 12236 H 1080.12 1.99053 2.54122 0
M  V30 12237 H 1079.17 3.71038 0.838766 0
M  V30 12238 H 1080.49 4.81215 1.31277 0
M  V30 12239 H 1079.64 4.83233 3.66839 0
M  V30 12240 H 1078.38 3.63967 3.24622 0
M  V30 12241 H 1077.38 5.25838 1.60544 0
M  V30 12242 H 1078.61 6.47282 2.05433 0
M  V30 12243 H 1076.56 5.2487 3.93506 0
M  V30 12244 H 1076.47 6.83242 3.23598 0
M  V30 12245 H 1077.74 6.45838 4.36479 0
M  V30 12246 N 1081.97 -0.145205 1.5693 0
M  V30 12247 C 1083.22 -0.855955 1.82637 0
M  V30 12248 C 1083.53 -1.82255 0.710109 0
M  V30 12249 O 1084.74 -2.57758 0.852837 0
M  V30 12250 C 1083.19 -1.57278 3.23715 0
M  V30 12251 C 1082.8 -0.648507 4.43281 0
M  V30 12252 C 1084.55 -2.27021 3.58695 0
M  V30 12253 C 1082.45 -1.36706 5.75383 0
M  V30 12254 H 1081.38 -0.323385 0.68113 0
M  V30 12255 H 1084.03 -0.10869 1.83178 0
M  V30 12256 H 1082.42 -2.36574 3.17567 0
M  V30 12257 H 1083.59 0.109355 4.6067 0
M  V30 12258 H 1081.9 -0.0594029 4.16358 0
M  V30 12259 H 1084.5 -2.81423 4.54648 0
M  V30 12260 H 1084.84 -3.03598 2.8484 0
M  V30 12261 H 1085.38 -1.54642 3.66512 0
M  V30 12262 H 1082.12 -0.6431 6.52338 0
M  V30 12263 H 1081.64 -2.09759 5.61926 0
M  V30 12264 H 1083.32 -1.90748 6.18243 0
M  V30 12265 N 1083.45 -1.52049 -0.414609 0
M  V30 12266 C 1084.69 -1.67041 -1.16056 0
M  V30 12267 C 1085.05 -0.392768 -1.88348 0
M  V30 12268 O 1084.34 0.612547 -1.81545 0
M  V30 12269 C 1084.54 -2.82735 -2.18622 0
M  V30 12270 C 1084.36 -4.21627 -1.564 0
M  V30 12271 C 1083.13 -4.87234 -1.33907 0
M  V30 12272 C 1085.33 -5.03924 -1.02785 0
M  V30 12273 N 1083.31 -6.10175 -0.67521 0
M  V30 12274 C 1084.69 -6.18056 -0.490589 0
M  V30 12275 C 1086.74 -4.89293 -0.921791 0
M  V30 12276 C 1085.44 -7.19159 0.14234 0
M  V30 12277 C 1087.47 -5.90625 -0.302724 0
M  V30 12278 C 1086.83 -7.04044 0.223891 0
M  V30 12279 H 1082.93 -0.664947 -0.411544 0
M  V30 12280 H 1085.51 -1.89339 -0.453743 0
M  V30 12281 H 1083.69 -2.62062 -2.86668 0
M  V30 12282 H 1085.42 -2.86792 -2.85539 0
M  V30 12283 H 1082.17 -4.45499 -1.60709 0
M  V30 12284 H 1082.6 -6.76042 -0.360062 0
M  V30 12285 H 1087.24 -4.01838 -1.31477 0
M  V30 12286 H 1084.96 -8.06244 0.547392 0
M  V30 12287 H 1088.54 -5.81375 -0.222252 0
M  V30 12288 H 1087.42 -7.81111 0.695377 0
M  V30 12289 N 1084.93 0.6715 -1.42579 0
M  V30 12290 C 1086.15 1.45972 -1.46628 0
M  V30 12291 C 1086.57 1.88636 -0.0785986 0
M  V30 12292 O 1085.93 1.58345 0.907372 0
M  V30 12293 C 1085.98 2.70668 -2.39627 0
M  V30 12294 O 1085.7 2.29793 -3.72997 0
M  V30 12295 C 1087.2 3.64201 -2.52731 0
M  V30 12296 H 1084.42 0.449044 -0.498598 0
M  V30 12297 H 1086.96 0.824811 -1.87129 0
M  V30 12298 H 1085.12 3.3034 -2.02371 0
M  V30 12299 H 1085.53 3.10341 -4.22834 0
M  V30 12300 H 1087.01 4.48412 -3.21918 0
M  V30 12301 H 1087.48 4.10323 -1.56626 0
M  V30 12302 H 1088.09 3.1042 -2.90722 0
M  V30 12303 N 1086.4 1.28806 0.908124 0
M  V30 12304 C 1087.31 1.15079 2.04436 0
M  V30 12305 C 1088.33 0.076012 1.73834 0
M  V30 12306 O 1089.51 0.286421 1.99353 0
M  V30 12307 C 1086.57 0.819733 3.3687 0
M  V30 12308 C 1085.63 1.97746 3.81045 0
M  V30 12309 C 1084.86 1.66211 5.07158 0
M  V30 12310 O 1085.09 0.579092 5.67453 0
M  V30 12311 O 1084.02 2.5075 5.47182 0
M  V30 12312 H 1087.85 2.10477 2.18937 0
M  V30 12313 H 1085.43 1.08177 1.03044 0
M  V30 12314 H 1087.31 0.649304 4.16368 0
M  V30 12315 H 1085.99 -0.10454 3.23531 0
M  V30 12316 H 1084.9 2.20308 3.02349 0
M  V30 12317 H 1086.23 2.88264 3.98955 0
M  V30 12318 N 1087.88 -1.11734 1.11145 0
M  V30 12319 C 1088.83 -2.19765 0.761982 0
M  V30 12320 C 1089.82 -1.67616 -0.24518 0
M  V30 12321 O 1091.03 -1.79695 -0.104781 0
M  V30 12322 H 1087.4 -0.71644 0.228513 0
M  V30 12323 H 1089.38 -2.4649 1.68183 0
M  V30 12324 C 1088.12 -3.47016 0.218057 0
M  V30 12325 H 1087.45 -3.87494 0.984299 0
M  V30 12326 H 1088.89 -4.23998 0.0116825 0
M  V30 12327 C 1087.35 -3.20088 -1.05096 0
M  V30 12328 O 1087.88 -3.40503 -2.1312 0
M  V30 12329 N 1086.08 -2.73844 -0.972523 0
M  V30 12330 H 1085.63 -2.57431 -0.0933459 0
M  V30 12331 H 1085.59 -2.56204 -1.82228 0
M  V30 12332 N 1089.36 -0.901303 -1.29284 0
M  V30 12333 C 1090.78 -0.597634 -1.47988 0
M  V30 12334 C 1090.98 0.860434 -1.82205 0
M  V30 12335 O 1090.03 1.64049 -1.91948 0
M  V30 12336 C 1091.34 -1.52484 -2.5917 0
M  V30 12337 C 1092.89 -1.53021 -2.73045 0
M  V30 12338 C 1093.37 -2.44373 -3.87357 0
M  V30 12339 N 1094.86 -2.42429 -3.94693 0
M  V30 12340 C 1095.59 -3.09817 -4.82495 0
M  V30 12341 N 1095.09 -3.86489 -5.74976 0
M  V30 12342 N 1096.88 -2.98966 -4.76 0
M  V30 12343 H 1089.03 -1.84432 -1.0535 0
M  V30 12344 H 1091.3 -0.790367 -0.523473 0
M  V30 12345 H 1091 -2.56378 -2.40756 0
M  V30 12346 H 1090.88 -1.24657 -3.56006 0
M  V30 12347 H 1093.26 -0.498709 -2.90855 0
M  V30 12348 H 1093.34 -1.84886 -1.76779 0
M  V30 12349 H 1092.99 -3.47618 -3.70302 0
M  V30 12350 H 1092.92 -2.09817 -4.82995 0
M  V30 12351 H 1095.41 -1.86724 -3.28546 0
M  V30 12352 H 1095.72 -4.34959 -6.38773 0
M  V30 12353 H 1094.07 -3.90596 -5.74857 0
M  V30 12354 H 1097.26 -2.38581 -4.02737 0
M  V30 12355 H 1097.43 -3.51758 -5.44215 0
M  V30 12356 N 1090.84 1.42931 -0.663954 0
M  V30 12357 C 1091.75 2.3459 0.0214234 0
M  V30 12358 C 1092.76 1.54487 0.800611 0
M  V30 12359 O 1093.94 1.87098 0.74541 0
M  V30 12360 C 1091 3.32896 0.968556 0
M  V30 12361 C 1090.07 4.28901 0.185108 0
M  V30 12362 C 1089.3 5.2251 1.08713 0
M  V30 12363 O 1089.52 5.20795 2.32655 0
M  V30 12364 O 1088.46 5.99347 0.553758 0
M  V30 12365 H 1092.28 2.94714 -0.733308 0
M  V30 12366 H 1089.87 1.43252 -0.424159 0
M  V30 12367 H 1091.75 3.93318 1.51257 0
M  V30 12368 H 1090.42 2.75261 1.70333 0
M  V30 12369 H 1089.33 3.71926 -0.402752 0
M  V30 12370 H 1090.66 4.89547 -0.510319 0
M  V30 12371 N 1092.32 0.406567 1.52266 0
M  V30 12372 C 1093.26 -0.43489 2.28498 0
M  V30 12373 C 1094.26 -1.04806 1.33086 0
M  V30 12374 O 1095.46 -0.986557 1.50556 0
M  V30 12375 H 1091.84 -0.159023 0.734994 0
M  V30 12376 H 1093.81 0.229316 2.97518 0
M  V30 12377 C 1092.56 -1.54073 3.117 0
M  V30 12378 H 1091.88 -1.07824 3.84986 0
M  V30 12379 H 1093.32 -2.10337 3.6815 0
M  V30 12380 C 1091.78 -2.50662 2.251 0
M  V30 12381 O 1092.31 -3.54486 1.88951 0
M  V30 12382 N 1090.52 -2.20811 1.8892 0
M  V30 12383 H 1090.06 -1.36413 2.18516 0
M  V30 12384 H 1090.02 -2.85684 1.3127 0
M  V30 12385 N 1093.79 -1.57004 0.136909 0
M  V30 12386 C 1095.04 -1.9541 -0.51569 0
M  V30 12387 C 1095.36 -1.02219 -1.66061 0
M  V30 12388 O 1094.63 -0.0818172 -1.95729 0
M  V30 12389 H 1093.21 -0.721504 -0.193497 0
M  V30 12390 H 1095.88 -1.93765 0.210046 0
M  V30 12391 H 1094.97 -2.98887 -0.898494 0
M  V30 12392 N 1095.27 0.136881 -1.57004 0
M  V30 12393 C 1096.52 0.849031 -1.84172 0
M  V30 12394 C 1096.85 1.80359 -0.720027 0
M  V30 12395 O 1096.13 1.92538 0.275584 0
M  V30 12396 C 1096.41 1.61465 -3.21871 0
M  V30 12397 C 1096.26 0.680902 -4.44616 0
M  V30 12398 C 1097.58 2.57488 -3.56914 0
M  V30 12399 H 1094.7 0.307209 -0.669919 0
M  V30 12400 H 1097.34 0.113862 -1.89659 0
M  V30 12401 H 1095.49 2.24137 -3.17325 0
M  V30 12402 H 1097.16 0.0644094 -4.61255 0
M  V30 12403 H 1095.41 -0.00883629 -4.33799 0
M  V30 12404 H 1096.08 1.25286 -5.37594 0
M  V30 12405 H 1098.55 2.0493 -3.62136 0
M  V30 12406 H 1097.43 3.08101 -4.54274 0
M  V30 12407 H 1097.69 3.39321 -2.83397 0
M  V30 12408 N 1096.75 1.52266 0.40654 0
M  V30 12409 C 1098 1.66699 1.15496 0
M  V30 12410 C 1098.33 0.397019 1.90098 0
M  V30 12411 O 1097.6 -0.604646 1.84863 0
M  V30 12412 C 1097.89 2.8907 2.14734 0
M  V30 12413 C 1097.74 4.26123 1.44012 0
M  V30 12414 C 1099.06 3.06966 3.15373 0
M  V30 12415 H 1096.18 0.606642 0.418515 0
M  V30 12416 H 1098.82 1.84826 0.440381 0
M  V30 12417 H 1096.97 2.73745 2.75673 0
M  V30 12418 H 1098.64 4.5318 0.861722 0
M  V30 12419 H 1096.89 4.27406 0.742064 0
M  V30 12420 H 1097.56 5.07799 2.16436 0
M  V30 12421 H 1100.03 3.21205 2.64512 0
M  V30 12422 H 1098.91 3.94097 3.82072 0
M  V30 12423 H 1099.17 2.20395 3.83247 0
M  V30 12424 N 1098.23 -0.663929 1.42933 0
M  V30 12425 C 1099.48 -1.42393 1.43981 0
M  V30 12426 C 1099.8 -1.94407 0.0601802 0
M  V30 12427 O 1099.06 -1.72019 -0.933172 0
M  V30 12428 C 1099.36 -2.62976 2.4203 0
M  V30 12429 C 1099.02 -2.29441 3.88159 0
M  V30 12430 C 1097.69 -2.20007 4.27961 0
M  V30 12431 C 1100.04 -2.02413 4.8029 0
M  V30 12432 C 1097.37 -1.81686 5.57859 0
M  V30 12433 C 1099.72 -1.65592 6.10542 0
M  V30 12434 C 1098.38 -1.54676 6.49332 0
M  V30 12435 H 1097.65 -0.521051 0.526865 0
M  V30 12436 H 1100.3 -0.756042 1.75944 0
M  V30 12437 H 1098.6 -3.34847 2.03433 0
M  V30 12438 H 1100.3 -3.21174 2.40101 0
M  V30 12439 H 1096.89 -2.3769 3.56653 0
M  V30 12440 H 1101.07 -2.08628 4.5032 0
M  V30 12441 H 1096.33 -1.71812 5.86763 0
M  V30 12442 H 1100.5 -1.43707 6.81411 0
M  V30 12443 H 1098.13 -1.24752 7.49894 0
M  V30 12444 N 1099.71 -1.29285 -0.901281 0
M  V30 12445 C 1100.96 -1.16538 -1.64626 0
M  V30 12446 C 1101.27 0.282623 -1.93547 0
M  V30 12447 O 1102.47 0.531396 -2.66249 0
M  V30 12448 C 1100.93 -2.03809 -2.96631 0
M  V30 12449 C 1100.54 -3.53423 -2.75311 0
M  V30 12450 C 1102.28 -1.99782 -3.7455 0
M  V30 12451 C 1100.19 -4.32804 -4.03032 0
M  V30 12452 H 1099.12 -0.432561 -0.617581 0
M  V30 12453 H 1101.77 -1.53912 -0.999159 0
M  V30 12454 H 1100.15 -1.59302 -3.62545 0
M  V30 12455 H 1101.33 -4.05971 -2.18 0
M  V30 12456 H 1099.64 -3.59106 -2.10789 0
M  V30 12457 H 1102.24 -2.5635 -4.69243 0
M  V30 12458 H 1102.58 -0.97743 -4.04663 0
M  V30 12459 H 1103.11 -2.42324 -3.15474 0
M  V30 12460 H 1099.85 -5.35473 -3.78086 0
M  V30 12461 H 1099.37 -3.85025 -4.59909 0
M  V30 12462 H 1101.05 -4.43383 -4.71191 0
M  V30 12463 N 1101.18 1.11143 -1.11736 0
M  V30 12464 C 1102.43 1.82948 -0.868127 0
M  V30 12465 C 1102.76 1.84813 0.606182 0
M  V30 12466 O 1102.01 1.29901 1.4637 0
M  V30 12467 C 1102.31 3.29733 -1.3788 0
M  V30 12468 C 1101.98 3.48025 -2.86687 0
M  V30 12469 C 1100.64 3.52725 -3.2732 0
M  V30 12470 C 1102.99 3.54024 -3.82513 0
M  V30 12471 C 1100.32 3.60983 -4.62502 0
M  V30 12472 C 1102.67 3.63814 -5.17515 0
M  V30 12473 C 1101.34 3.66776 -5.57702 0
M  V30 12474 H 1100.61 0.669452 -0.31767 0
M  V30 12475 H 1103.25 1.31057 -1.3963 0
M  V30 12476 H 1101.56 3.8414 -0.77093 0
M  V30 12477 H 1103.26 3.83787 -1.16225 0
M  V30 12478 H 1099.85 3.45039 -2.54256 0
M  V30 12479 H 1104.03 3.4965 -3.52219 0
M  V30 12480 H 1099.29 3.61554 -4.9304 0
M  V30 12481 H 1103.46 3.674 -5.916 0
M  V30 12482 H 1101.09 3.72927 -6.62442 0
M  V30 12483 N 1102.66 0.908147 1.28804 0
M  V30 12484 C 1103.57 0.397167 2.31214 0
M  V30 12485 C 1104.59 -0.512352 1.66286 0
M  V30 12486 O 1105.76 -0.399893 1.9739 0
M  V30 12487 C 1102.83 -0.359522 3.44831 0
M  V30 12488 C 1101.89 0.582539 4.25329 0
M  V30 12489 C 1101.12 -0.138133 5.33521 0
M  V30 12490 O 1101.35 -1.36076 5.53931 0
M  V30 12491 O 1100.28 0.523682 5.99618 0
M  V30 12492 H 1104.11 1.247 2.76918 0
M  V30 12493 H 1101.69 0.672766 1.33395 0
M  V30 12494 H 1103.57 -0.787098 4.13984 0
M  V30 12495 H 1102.25 -1.18528 3.01219 0
M  V30 12496 H 1101.16 1.0594 3.58786 0
M  V30 12497 H 1102.49 1.37495 4.72605 0
M  V30 12498 N 1104.14 -1.42577 0.671525 0
M  V30 12499 C 1105.39 -2.00806 0.189663 0
M  V30 12500 C 1105.7 -1.537 -1.20978 0
M  V30 12501 O 1106.91 -2.04325 -1.78784 0
M  V30 12502 C 1105.36 -3.58744 0.288227 0
M  V30 12503 C 1104.97 -4.14839 1.69152 0
M  V30 12504 C 1106.72 -4.24285 -0.13509 0
M  V30 12505 C 1104.62 -5.65131 1.74302 0
M  V30 12506 H 1103.55 -0.751004 0.067146 0
M  V30 12507 H 1106.2 -1.63338 0.83623 0
M  V30 12508 H 1104.59 -3.937 -0.426175 0
M  V30 12509 H 1105.76 -3.91349 2.43274 0
M  V30 12510 H 1104.08 -3.61738 2.0624 0
M  V30 12511 H 1106.67 -5.34573 -0.116709 0
M  V30 12512 H 1107.02 -3.99527 -1.16977 0
M  V30 12513 H 1107.55 -3.94278 0.528191 0
M  V30 12514 H 1104.29 -5.94682 2.75742 0
M  V30 12515 H 1103.81 -5.90621 1.04531 0
M  V30 12516 H 1105.49 -6.29491 1.49498 0
M  V30 12517 N 1105.62 -0.414636 -1.52048 0
M  V30 12518 C 1107.03 0.0537107 -1.86623 0
M  V30 12519 C 1107.38 1.43955 -1.3331 0
M  V30 12520 O 1106.51 2.05616 -0.674606 0
M  V30 12521 C 1107.1 0.104241 -3.3864 0
M  V30 12522 C 1105.66 0.516936 -3.72833 0
M  V30 12523 C 1104.81 -0.305042 -2.75617 0
M  V30 12524 H 1107.76 -0.631469 -1.45596 0
M  V30 12525 H 1107.78 0.918395 -3.6925 0
M  V30 12526 H 1107.29 -0.904523 -3.77412 0
M  V30 12527 H 1105.39 1.53214 -3.39641 0
M  V30 12528 H 1105.5 0.2575 -4.78408 0
M  V30 12529 H 1103.87 0.233416 -2.53628 0
M  V30 12530 H 1104.65 -1.31226 -3.1723 0
M  V30 12531 N 1107.1 1.56929 -0.145233 0
M  V30 12532 C 1108.04 2.16671 0.795128 0
M  V30 12533 C 1109.01 1.09908 1.24537 0
M  V30 12534 O 1110.2 1.37941 1.31821 0
M  V30 12535 C 1107.34 2.79111 2.02956 0
M  V30 12536 C 1106.45 4.00261 1.62528 0
M  V30 12537 C 1105.59 4.50705 2.81137 0
M  V30 12538 C 1104.63 5.64324 2.37075 0
M  V30 12539 N 1103.76 6.09395 3.48687 0
M  V30 12540 H 1108.6 2.96692 0.278865 0
M  V30 12541 H 1106.14 1.4656 0.125934 0
M  V30 12542 H 1108.1 3.13456 2.7532 0
M  V30 12543 H 1106.73 2.01737 2.51996 0
M  V30 12544 H 1105.78 3.71906 0.799365 0
M  V30 12545 H 1107.09 4.8258 1.26166 0
M  V30 12546 H 1106.25 4.87096 3.61693 0
M  V30 12547 H 1104.98 3.67389 3.20744 0
M  V30 12548 H 1103.99 5.27511 1.54958 0
M  V30 12549 H 1105.21 6.49425 1.98556 0
M  V30 12550 H 1103.16 5.29014 3.87917 0
M  V30 12551 H 1103.08 6.86636 3.16333 0
M  V30 12552 H 1104.35 6.50431 4.29605 0
M  V30 12553 N 1108.58 -0.128553 1.57075 0
M  V30 12554 C 1109.8 -0.85245 1.88523 0
M  V30 12555 C 1110.22 -1.73886 0.735459 0
M  V30 12556 O 1109.58 -1.80114 -0.294113 0
M  V30 12557 C 1109.63 -1.69384 3.19361 0
M  V30 12558 O 1109.35 -0.84313 4.2991 0
M  V30 12559 C 1110.85 -2.52373 3.64449 0
M  V30 12560 H 1108.07 -0.245556 0.624454 0
M  V30 12561 H 1110.61 -0.115807 2.04172 0
M  V30 12562 H 1108.77 -2.38335 3.0541 0
M  V30 12563 H 1109.18 -1.42255 5.0484 0
M  V30 12564 H 1110.66 -3.06955 4.58784 0
M  V30 12565 H 1111.13 -3.29283 2.90636 0
M  V30 12566 H 1111.74 -1.88681 3.81155 0
M  V30 12567 N 1110.05 -1.5248 -0.398459 0
M  V30 12568 C 1111.46 -1.59107 -0.976817 0
M  V30 12569 C 1111.82 -0.438104 -1.91246 0
M  V30 12570 O 1110.94 0.440111 -2.11877 0
M  V30 12571 C 1111.54 -2.88373 -1.77838 0
M  V30 12572 C 1110.09 -2.97445 -2.30659 0
M  V30 12573 C 1109.24 -2.5414 -1.10942 0
M  V30 12574 H 1112.19 -1.57695 -0.178324 0
M  V30 12575 H 1112.21 -2.74327 -2.63676 0
M  V30 12576 H 1111.73 -3.72269 -1.09714 0
M  V30 12577 H 1109.83 -2.18066 -3.02123 0
M  V30 12578 H 1109.94 -4.019 -2.60794 0
M  V30 12579 H 1108.3 -2.08237 -1.46661 0
M  V30 12580 H 1109.09 -3.40421 -0.443684 0
M  V30 12581 N 1111.53 0.65634 -1.43283 0
M  V30 12582 C 1112.44 1.79847 -1.50639 0
M  V30 12583 C 1113.46 1.69487 -0.393714 0
M  V30 12584 O 1114.63 1.90712 -0.647379 0
M  V30 12585 C 1111.7 3.16107 -1.42398 0
M  V30 12586 C 1110.76 3.38287 -2.64312 0
M  V30 12587 C 1109.99 4.68046 -2.56454 0
M  V30 12588 O 1110.22 5.4719 -1.61056 0
M  V30 12589 O 1109.15 4.91877 -3.46902 0
M  V30 12590 H 1112.98 1.76596 -2.47078 0
M  V30 12591 H 1110.56 0.814428 -1.25249 0
M  V30 12592 H 1112.44 3.97382 -1.40233 0
M  V30 12593 H 1111.12 3.19956 -0.490929 0
M  V30 12594 H 1110.02 2.56788 -2.72049 0
M  V30 12595 H 1111.36 3.39282 -3.56579 0
M  V30 12596 N 1113.01 1.29761 0.894412 0
M  V30 12597 C 1113.96 1.15341 1.99912 0
M  V30 12598 C 1114.93 0.0453488 1.66038 0
M  V30 12599 O 1116.11 0.213829 1.89598 0
M  V30 12600 C 1113.25 0.841432 3.34685 0
M  V30 12601 C 1112.36 2.03046 3.81309 0
M  V30 12602 C 1111.5 1.65739 5.04682 0
M  V30 12603 C 1110.54 2.81191 5.43689 0
M  V30 12604 N 1109.68 2.44244 6.58247 0
M  V30 12605 H 1114.52 2.09854 2.11578 0
M  V30 12606 H 1112.05 1.04421 1.03608 0
M  V30 12607 H 1114.01 0.641211 4.12243 0
M  V30 12608 H 1112.64 -0.066797 3.22731 0
M  V30 12609 H 1111.69 2.34222 2.9974 0
M  V30 12610 H 1113 2.89538 4.06164 0
M  V30 12611 H 1112.16 1.42036 5.8984 0
M  V30 12612 H 1110.9 0.764019 4.81678 0
M  V30 12613 H 1109.9 3.0557 4.57064 0
M  V30 12614 H 1111.13 3.712 5.68672 0
M  V30 12615 H 1109.07 1.57402 6.36837 0
M  V30 12616 H 1108.99 3.24269 6.82924 0
M  V30 12617 H 1110.26 2.23875 7.46659 0
M  V30 12618 N 1114.49 -1.10549 1.12324 0
M  V30 12619 C 1115.9 -1.34508 0.85905 0
M  V30 12620 C 1116.1 -1.94901 -0.511468 0
M  V30 12621 O 1115.16 -2.18793 -1.2604 0
M  V30 12622 C 1116.47 -2.26788 1.97453 0
M  V30 12623 C 1118.02 -2.40328 2.00528 0
M  V30 12624 C 1118.5 -3.35936 3.11305 0
M  V30 12625 N 1119.99 -3.43504 3.1074 0
M  V30 12626 C 1120.72 -4.17449 3.93096 0
M  V30 12627 N 1120.22 -4.9429 4.85437 0
M  V30 12628 N 1122.01 -4.13055 3.81237 0
M  V30 12629 H 1114.16 -0.697171 2.00632 0
M  V30 12630 H 1116.42 -0.369548 0.873005 0
M  V30 12631 H 1116.13 -1.89621 2.96204 0
M  V30 12632 H 1116 -3.27086 1.87869 0
M  V30 12633 H 1118.39 -2.76765 1.02397 0
M  V30 12634 H 1118.47 -1.39849 2.14186 0
M  V30 12635 H 1118.12 -3.00225 4.09667 0
M  V30 12636 H 1118.05 -4.36291 2.94886 0
M  V30 12637 H 1120.54 -2.88702 2.43843 0
M  V30 12638 H 1120.85 -5.48109 5.4479 0
M  V30 12639 H 1119.2 -4.93419 4.89452 0
M  V30 12640 H 1122.39 -3.52117 3.08433 0
M  V30 12641 H 1122.56 -4.70424 4.45651 0
M  V30 12642 O 1116 -1.04677 -1.22984 0
M  V30 12643 H 1116.7 -0.720556 -1.79799 0
M  V30 END ATOM
M  V30 BEGIN BOND
M  V30 END BOND
M  V30 END CTAB
M  END
$$$$
