drugbank_target|Q9X286 N utilization substance protein B homolog (DB04272)
 OpenBabel12092120293D

  0  0  0     0  0            999 V3000
M  V30 BEGIN CTAB
M  V30 COUNTS 2421 2438 0 0 0
M  V30 BEGIN ATOM
M  V30 1 H -0.908 1.98254 -0.117106 0
M  V30 2 N 0 1.576 0 0
M  V30 3 C 0.933 2.03868 1.02534 0
M  V30 4 C 1.911 0.928543 1.3348 0
M  V30 5 O 3.095 1.19667 1.45644 0
M  V30 6 C 0.222 2.43627 2.35294 0
M  V30 7 C -0.732 3.65373 2.2001 0
M  V30 8 S 0.101 5.13292 1.52614 0
M  V30 9 C 1.257 5.56322 2.86805 0
M  V30 10 H 1.49 2.90518 0.631377 0
M  V30 11 H -0.977 1.52953 0.210867 0
M  V30 12 H 0.981 2.67203 3.11629 0
M  V30 13 H -0.358 1.57376 2.7183 0
M  V30 14 H -1.165 3.90944 3.18086 0
M  V30 15 H -1.563 3.418 1.51819 0
M  V30 16 H 0.729 5.58782 3.83104 0
M  V30 17 H 1.672 6.56266 2.65933 0
M  V30 18 H 2.08 4.83886 2.90714 0
M  V30 19 N 1.4781 -0.272755 1.55222 0
M  V30 20 C 2.4251 -1.33716 1.88119 0
M  V30 21 C 3.3951 -1.49066 0.73271 0
M  V30 22 O 4.5801 -1.63469 0.984002 0
M  V30 23 C 1.7201 -2.69238 2.15882 0
M  V30 24 C 0.8331 -2.62108 3.43399 0
M  V30 25 C -0.0319 -3.89811 3.60861 0
M  V30 26 C -0.9929 -3.77193 4.8207 0
M  V30 27 N -1.8559 -4.9673 4.96189 0
M  V30 28 H 2.9841 -1.04962 2.78903 0
M  V30 29 H 0.5211 -0.507088 1.38083 0
M  V30 30 H 2.4791 -3.48089 2.29978 0
M  V30 31 H 1.1091 -2.96194 1.28331 0
M  V30 32 H 0.1611 -1.74967 3.37773 0
M  V30 33 H 1.4731 -2.48685 4.32386 0
M  V30 34 H 0.6271 -4.77103 3.74777 0
M  V30 35 H -0.6339 -4.06102 2.7006 0
M  V30 36 H -1.6289 -2.88284 4.68159 0
M  V30 37 H -0.4039 -3.62421 5.74307 0
M  V30 38 H -2.4579 -5.13431 4.08319 0
M  V30 39 H -2.5409 -4.85839 5.79221 0
M  V30 40 H -1.2729 -5.85594 5.1449 0
M  V30 41 N 2.9562 -1.48159 -0.537278 0
M  V30 42 C 4.1842 -1.59454 -1.31841 0
M  V30 43 C 4.5992 -0.252065 -1.8711 0
M  V30 44 O 3.9562 0.757621 -1.66031 0
M  V30 45 C 4.0072 -2.63546 -2.47439 0
M  V30 46 O 3.7282 -3.92583 -1.94449 0
M  V30 47 C 5.2292 -2.85212 -3.39366 0
M  V30 48 H 2.4492 -0.53785 -0.401196 0
M  V30 49 H 4.9932 -1.93932 -0.648891 0
M  V30 50 H 3.1482 -2.31946 -3.1029 0
M  V30 51 H 3.5622 -4.49629 -2.70063 0
M  V30 52 H 5.0362 -3.61863 -4.16844 0
M  V30 53 H 5.5132 -1.93765 -3.94147 0
M  V30 54 H 6.1192 -3.18086 -2.82314 0
M  V30 55 N 4.4343 0.785586 -1.36625 0
M  V30 56 C 5.8453 1.36101 -1.27803 0
M  V30 57 C 6.1963 1.96035 0.0804875 0
M  V30 58 O 5.3213 1.92834 0.982042 0
M  V30 59 C 5.9163 2.47442 -2.31426 0
M  V30 60 C 4.4753 3.00789 -2.26281 0
M  V30 61 C 3.6223 1.73896 -2.15999 0
M  V30 62 H 6.5733 0.586928 -1.47448 0
M  V30 63 H 6.5943 3.2656 -1.95291 0
M  V30 64 H 6.1063 2.03791 -3.30289 0
M  V30 65 H 4.2073 3.48851 -1.30896 0
M  V30 66 H 4.3203 3.57343 -3.19128 0
M  V30 67 H 2.6843 1.9628 -1.62316 0
M  V30 68 H 3.4673 1.32368 -3.16755 0
M  V30 69 N 5.9124 1.20967 1.01018 0
M  V30 70 C 7.3284 0.965905 1.27053 0
M  V30 71 C 7.5284 -0.350785 1.98423 0
M  V30 72 O 6.5844 -1.07773 2.28344 0
M  V30 73 C 7.8974 2.15294 2.09926 0
M  V30 74 C 9.4454 2.19463 2.23171 0
M  V30 75 C 9.9204 3.3767 3.09424 0
M  V30 76 N 11.4114 3.37724 3.17012 0
M  V30 77 C 12.1464 4.25837 3.83993 0
M  V30 78 N 11.6424 5.24138 4.53047 0
M  V30 79 N 13.4354 4.1366 3.80581 0
M  V30 80 H 5.5864 2.0565 0.531194 0
M  V30 81 H 7.8494 0.90024 0.297106 0
M  V30 82 H 7.5554 3.10684 1.64828 0
M  V30 83 H 7.4294 2.13923 3.10672 0
M  V30 84 H 9.8164 1.24632 2.6749 0
M  V30 85 H 9.8974 2.2488 1.21912 0
M  V30 86 H 9.5414 4.32791 2.65808 0
M  V30 87 H 9.4714 3.29491 4.10784 0
M  V30 88 H 11.9624 2.6658 2.6785 0
M  V30 89 H 12.2754 5.87684 5.01844 0
M  V30 90 H 10.6204 5.28068 4.5185 0
M  V30 91 H 13.8114 3.36127 3.25785 0
M  V30 92 H 13.9844 4.82538 4.32505 0
M  V30 93 N 7.3905 -1.2043 1.01659 0
M  V30 94 C 8.8065 -1.41852 0.731442 0
M  V30 95 C 9.0065 -1.89358 -0.688898 0
M  V30 96 O 8.0625 -2.06247 -1.45666 0
M  V30 97 C 9.3755 -2.44019 1.75714 0
M  V30 98 C 10.9235 -2.57785 1.77527 0
M  V30 99 C 11.3985 -3.63194 2.79023 0
M  V30 100 N 12.8895 -3.70678 2.77763 0
M  V30 101 C 13.6245 -4.51897 3.52954 0
M  V30 102 N 13.1205 -5.36921 4.37821 0
M  V30 103 N 14.9135 -4.4643 3.41551 0
M  V30 104 H 7.0645 -0.879093 1.93354 0
M  V30 105 H 9.3275 -0.448425 0.835236 0
M  V30 106 H 9.0335 -2.1611 2.77469 0
M  V30 107 H 8.9075 -3.43007 1.56927 0
M  V30 108 H 11.2945 -2.85023 0.764569 0
M  V30 109 H 11.3755 -1.58992 2.00387 0
M  V30 110 H 11.0195 -3.36699 3.80258 0
M  V30 111 H 10.9495 -4.61609 2.53425 0
M  V30 112 H 13.4405 -3.09944 2.16201 0
M  V30 113 H 13.7535 -5.95981 4.91962 0
M  V30 114 H 12.0985 -5.36424 4.41899 0
M  V30 115 H 15.2895 -3.79042 2.74672 0
M  V30 116 H 15.4625 -5.09491 4.00404 0
M  V30 117 N 8.8686 -0.792821 -1.36206 0
M  V30 118 C 10.2846 -0.474903 -1.52371 0
M  V30 119 C 10.4846 1.00622 -1.74578 0
M  V30 120 O 9.5406 1.79162 -1.77924 0
M  V30 121 C 10.8536 -1.3083 -2.70747 0
M  V30 122 C 12.4016 -1.30234 -2.84619 0
M  V30 123 C 12.8766 -2.11956 -4.06004 0
M  V30 124 N 14.3676 -2.09419 -4.13156 0
M  V30 125 C 15.1026 -2.69419 -5.06163 0
M  V30 126 N 14.5986 -3.3829 -6.04592 0
M  V30 127 N 16.3916 -2.59134 -4.98804 0
M  V30 128 H 8.5426 -1.75222 -1.20046 0
M  V30 129 H 10.8056 -0.745024 -0.586211 0
M  V30 130 H 10.5116 -2.35881 -2.6087 0
M  V30 131 H 10.3856 -0.95196 -3.6499 0
M  V30 132 H 12.7726 -0.259748 -2.93955 0
M  V30 133 H 12.8536 -1.69847 -1.91274 0
M  V30 134 H 12.4976 -3.16248 -3.97429 0
M  V30 135 H 12.4276 -1.69711 -4.98503 0
M  V30 136 H 14.9186 -1.59297 -3.42685 0
M  V30 137 H 15.2316 -3.81394 -6.7213 0
M  V30 138 H 13.5766 -3.42393 -6.04807 0
M  V30 139 H 16.7676 -2.04927 -4.20859 0
M  V30 140 H 16.9406 -3.06185 -5.711 0
M  V30 141 N 10.3467 1.47872 -0.545128 0
M  V30 142 C 11.2797 2.2675 0.256885 0
M  V30 143 C 12.2577 1.33293 0.931228 0
M  V30 144 O 13.4417 1.62657 0.95262 0
M  V30 145 C 10.5687 3.09976 1.36501 0
M  V30 146 C 9.6147 4.1892 0.800496 0
M  V30 147 S 10.4477 5.34397 -0.343505 0
M  V30 148 C 11.6037 6.21186 0.766733 0
M  V30 149 H 11.8367 2.94425 -0.412479 0
M  V30 150 H 9.3697 1.50806 -0.331204 0
M  V30 151 H 11.3277 3.585 1.9997 0
M  V30 152 H 9.9887 2.41686 2.00616 0
M  V30 153 H 9.1817 4.76836 1.63227 0
M  V30 154 H 8.7837 3.73215 0.242217 0
M  V30 155 H 11.0757 6.56804 1.66178 0
M  V30 156 H 12.0187 7.07742 0.225204 0
M  V30 157 H 12.4267 5.54574 1.05396 0
M  V30 158 N 11.8248 0.280983 1.55075 0
M  V30 159 C 13.2408 -0.0729964 1.59433 0
M  V30 160 C 13.4408 -1.5411 1.29817 0
M  V30 161 O 12.4968 -2.29086 1.06187 0
M  V30 162 C 13.8098 0.306921 2.9913 0
M  V30 163 C 15.3578 0.254023 3.11968 0
M  V30 164 C 15.8328 0.608467 4.5394 0
M  V30 165 N 17.3238 0.560241 4.59799 0
M  V30 166 C 18.0588 0.80722 5.6769 0
M  V30 167 N 17.5548 1.11912 6.83701 0
M  V30 168 N 19.3478 0.735623 5.57266 0
M  V30 169 H 11.4988 1.238 1.7259 0
M  V30 170 H 13.7618 0.500547 0.805082 0
M  V30 171 H 13.4678 1.32816 3.25657 0
M  V30 172 H 13.3418 -0.349363 3.75579 0
M  V30 173 H 15.7288 -0.75794 2.852 0
M  V30 174 H 15.8098 0.944649 2.37718 0
M  V30 175 H 15.4538 1.61814 4.81434 0
M  V30 176 H 15.3838 -0.104013 5.26497 0
M  V30 177 H 17.8748 0.329288 3.76463 0
M  V30 178 H 18.1878 1.29409 7.61888 0
M  V30 179 H 16.5328 1.15695 6.85303 0
M  V30 180 H 19.7238 0.491752 4.6551 0
M  V30 181 H 19.8968 0.931482 6.4127 0
M  V30 182 N 13.3029 -1.57598 0.00835791 0
M  V30 183 C 14.2329 -2.1198 -0.979113 0
M  V30 184 C 15.2139 -1.03091 -1.35301 0
M  V30 185 O 16.3989 -1.30818 -1.43528 0
M  V30 186 C 13.5289 -2.62995 -2.26828 0
M  V30 187 C 12.4829 -3.76485 -2.03576 0
M  V30 188 C 11.8089 -4.13846 -3.38579 0
M  V30 189 C 13.1089 -5.0342 -1.39161 0
M  V30 190 H 14.8029 -2.94738 -0.526281 0
M  V30 191 H 12.3489 -1.41783 -0.251704 0
M  V30 192 H 14.3019 -2.99669 -2.96271 0
M  V30 193 H 13.0259 -1.7737 -2.7424 0
M  V30 194 H 11.6849 -3.40217 -1.36557 0
M  V30 195 H 11.3329 -3.25232 -3.83709 0
M  V30 196 H 11.0329 -4.90312 -3.23834 0
M  V30 197 H 12.5569 -4.53086 -4.09323 0
M  V30 198 H 13.9709 -5.37812 -1.98573 0
M  V30 199 H 12.3679 -5.84746 -1.34878 0
M  V30 200 H 13.4379 -4.83548 -0.361868 0
M  V30 201 N 14.781 0.264519 -1.55364 0
M  V30 202 C 15.744 1.31046 -1.88042 0
M  V30 203 C 16.744 1.41943 -0.755569 0
M  V30 204 O 17.934 1.40947 -1.02369 0
M  V30 205 C 15.066 2.69067 -2.09323 0
M  V30 206 H 16.259 1.03297 -2.81549 0
M  V30 207 H 13.812 0.502989 -1.47986 0
M  V30 208 H 14.547 3.01982 -1.18226 0
M  V30 209 H 14.332 2.62542 -2.91229 0
M  V30 210 H 15.822 3.44623 -2.35848 0
M  V30 211 N 16.2591 1.48442 0.529413 0
M  V30 212 C 17.5051 1.5672 1.28711 0
M  V30 213 C 17.8381 0.2406 1.92704 0
M  V30 214 O 17.1131 -0.753454 1.79313 0
M  V30 215 C 17.3961 2.70587 2.37603 0
M  V30 216 C 17.2491 4.12953 1.78297 0
M  V30 217 C 18.5681 2.80212 3.39366 0
M  V30 218 H 15.6871 0.570474 0.466613 0
M  V30 219 H 18.3291 1.80617 0.589706 0
M  V30 220 H 16.4791 2.50342 2.97088 0
M  V30 221 H 18.1511 4.44639 1.22858 0
M  V30 222 H 16.3941 4.19927 1.0883 0
M  V30 223 H 17.0651 4.88448 2.57144 0
M  V30 224 H 19.5411 2.98553 2.89836 0
M  V30 225 H 18.4171 3.61611 4.12951 0
M  V30 226 H 18.6781 1.88393 3.99951 0
M  V30 227 N 17.7372 -0.778329 1.37039 0
M  V30 228 C 18.9842 -1.53665 1.31884 0
M  V30 229 C 19.3122 -1.9425 -0.0986303 0
M  V30 230 O 18.5672 -1.63832 -1.07041 0
M  V30 231 C 18.8662 -2.81845 2.19768 0
M  V30 232 C 18.5322 -2.60345 3.68146 0
M  V30 233 C 17.1942 -2.5419 4.08584 0
M  V30 234 C 19.5462 -2.40923 4.62175 0
M  V30 235 C 16.8742 -2.26594 5.41177 0
M  V30 236 C 19.2262 -2.14852 5.94997 0
M  V30 237 C 17.8902 -2.07137 6.34547 0
M  V30 238 H 17.1602 -0.562299 0.482598 0
M  V30 239 H 19.8072 -0.897069 1.69189 0
M  V30 240 H 18.1122 -3.50328 1.75436 0
M  V30 241 H 19.8092 -3.39692 2.13097 0
M  V30 242 H 16.3992 -2.65996 3.36072 0
M  V30 243 H 20.5832 -2.44673 4.31797 0
M  V30 244 H 15.8392 -2.19111 5.70789 0
M  V30 245 H 20.0132 -1.98822 6.67415 0
M  V30 246 H 17.6402 -1.85518 7.37216 0
M  V30 247 N 19.2153 -1.21501 -1.00376 0
M  V30 248 C 20.1623 -0.975387 -2.09177 0
M  V30 249 C 21.1323 0.0990615 -1.65804 0
M  V30 250 O 22.3173 -0.0483147 -1.90739 0
M  V30 251 C 19.4573 -0.547507 -3.40729 0
M  V30 252 C 18.5703 -1.69153 -3.97506 0
M  V30 253 C 17.7053 -1.2127 -5.17172 0
M  V30 254 C 16.7443 -2.32897 -5.66061 0
M  V30 255 N 15.8813 -1.86138 -6.76976 0
M  V30 256 H 20.7213 -1.9068 -2.29009 0
M  V30 257 H 18.2583 -0.950257 -1.12288 0
M  V30 258 H 20.2163 -0.280667 -4.16255 0
M  V30 259 H 18.8463 0.346904 -3.20931 0
M  V30 260 H 17.8983 -2.07298 -3.18954 0
M  V30 261 H 19.2103 -2.5316 -4.29781 0
M  V30 262 H 18.3643 -0.902591 -5.99948 0
M  V30 263 H 17.1033 -0.342692 -4.86495 0
M  V30 264 H 16.1083 -2.64709 -4.81881 0
M  V30 265 H 17.3333 -3.20396 -5.98768 0
M  V30 266 H 15.2793 -1.01484 -6.48103 0
M  V30 267 H 15.1963 -2.63717 -7.08512 0
M  V30 268 H 16.4643 -1.58165 -7.63285 0
M  V30 269 N 20.6934 1.19889 -1.02296 0
M  V30 270 C 21.6564 2.21116 -0.603351 0
M  V30 271 C 22.6564 1.5738 0.329884 0
M  V30 272 O 23.8464 1.73802 0.117702 0
M  V30 273 C 20.9784 3.40696 0.117992 0
M  V30 274 H 22.1714 2.59754 -1.49893 0
M  V30 275 H 19.7244 1.33463 -0.813468 0
M  V30 276 H 20.4594 3.07569 1.0282 0
M  V30 277 H 20.2444 3.88188 -0.552511 0
M  V30 278 H 21.7344 4.15692 0.398696 0
M  V30 279 N 22.1715 0.800033 1.35784 0
M  V30 280 C 23.1015 0.220184 2.3246 0
M  V30 281 C 24.0825 -0.65073 1.57161 0
M  V30 282 O 25.2675 -0.582359 1.85263 0
M  V30 283 C 22.3975 -0.637353 3.41402 0
M  V30 284 C 21.3515 0.134531 4.27789 0
M  V30 285 C 20.6775 -0.844285 5.27992 0
M  V30 286 C 21.9775 1.32979 5.05088 0
M  V30 287 H 23.6715 1.02787 2.81203 0
M  V30 288 H 21.2175 0.495717 1.35199 0
M  V30 289 H 23.1705 -1.05302 4.08031 0
M  V30 290 H 21.8945 -1.47785 2.91251 0
M  V30 291 H 20.5535 0.531296 3.6273 0
M  V30 292 H 20.2015 -1.68011 4.74111 0
M  V30 293 H 19.9015 -0.332184 5.8666 0
M  V30 294 H 21.4255 -1.2583 5.97494 0
M  V30 295 H 22.8395 0.98934 5.64699 0
M  V30 296 H 21.2365 1.77593 5.7322 0
M  V30 297 H 22.3065 2.11978 4.36111 0
M  V30 298 N 23.6496 -1.47581 0.552962 0
M  V30 299 C 24.8966 -2.02482 0.0273243 0
M  V30 300 C 25.2246 -1.42776 -1.32081 0
M  V30 301 O 24.4796 -0.571393 -1.87173 0
M  V30 302 C 24.7786 -3.57199 -0.119728 0
M  V30 303 C 24.4446 -4.35804 1.15697 0
M  V30 304 C 23.1066 -4.57 1.50681 0
M  V30 305 C 25.4586 -4.81167 2.00319 0
M  V30 306 C 22.7866 -5.20807 2.70142 0
M  V30 307 C 25.1386 -5.46293 3.18978 0
M  V30 308 C 23.8026 -5.65722 3.54281 0
M  V30 309 H 23.0726 -0.740933 0.00999866 0
M  V30 310 H 25.7196 -1.77302 0.72362 0
M  V30 311 H 24.0246 -3.81348 -0.89896 0
M  V30 312 H 25.7216 -3.97324 -0.541718 0
M  V30 313 H 22.3116 -4.19582 0.874561 0
M  V30 314 H 26.4956 -4.64574 1.74599 0
M  V30 315 H 21.7516 -5.34045 2.97668 0
M  V30 316 H 25.9256 -5.80407 3.84838 0
M  V30 317 H 23.5526 -6.14936 4.46942 0
M  V30 318 N 25.1277 -0.289203 -1.54924 0
M  V30 319 C 26.0597 0.625583 -2.20497 0
M  V30 320 C 27.0727 1.10667 -1.19402 0
M  V30 321 O 28.2617 1.02615 -1.46056 0
M  V30 322 C 25.3617 1.86702 -2.82835 0
M  V30 323 C 24.5347 1.5304 -4.09753 0
M  V30 324 C 23.5937 2.62576 -4.56005 0
M  V30 325 O 22.6197 2.28167 -5.21468 0
M  V30 326 N 23.8217 3.92901 -4.27328 0
M  V30 327 H 26.5867 0.0642801 -2.99631 0
M  V30 328 H 24.1477 -0.110896 -1.6152 0
M  V30 329 H 26.1397 2.59304 -3.10715 0
M  V30 330 H 24.7097 2.33702 -2.07611 0
M  V30 331 H 23.9297 0.637564 -3.8901 0
M  V30 332 H 25.2177 1.28072 -4.92418 0
M  V30 333 H 24.6157 4.23671 -3.74859 0
M  V30 334 H 23.1727 4.61837 -4.59946 0
M  V30 335 N 26.6058 1.57591 -0.0167156 0
M  V30 336 C 27.5558 2.05953 0.978137 0
M  V30 337 C 28.5398 0.957532 1.29306 0
M  V30 338 O 29.7318 1.22119 1.28125 0
M  V30 339 C 26.8608 2.58006 2.26468 0
M  V30 340 C 25.9468 3.75113 1.97867 0
M  V30 341 N 26.3378 4.86187 1.39486 0
M  V30 342 C 24.6358 3.83363 2.27924 0
M  V30 343 C 25.3368 5.67502 1.27735 0
M  V30 344 N 24.3128 5.14023 1.76866 0
M  V30 345 H 28.1148 2.89236 0.521522 0
M  V30 346 H 25.6288 1.61301 0.188596 0
M  V30 347 H 27.6258 2.90937 2.98599 0
M  V30 348 H 26.2858 1.76148 2.72767 0
M  V30 349 H 27.2968 5.06695 1.07147 0
M  V30 350 H 23.9738 3.1239 2.76982 0
M  V30 351 H 25.3638 6.66791 0.826978 0
M  V30 352 N 28.0839 -0.256276 1.55502 0
M  V30 353 C 28.9939 -1.33882 1.92647 0
M  V30 354 C 30.0099 -1.53159 0.825727 0
M  V30 355 O 31.1859 -1.66963 1.12629 0
M  V30 356 C 28.2509 -2.6751 2.20543 0
M  V30 357 C 27.3119 -2.56836 3.43997 0
M  V30 358 C 26.5449 -3.84092 3.70553 0
M  V30 359 O 26.7679 -4.85545 2.99336 0
M  V30 360 O 25.7019 -3.83288 4.64084 0
M  V30 361 H 29.5279 -1.05374 2.84833 0
M  V30 362 H 27.1129 -0.456237 1.42263 0
M  V30 363 H 28.9949 -3.46492 2.39835 0
M  V30 364 H 27.6699 -2.9577 1.31536 0
M  V30 365 H 26.5769 -1.76172 3.30021 0
M  V30 366 H 27.9099 -2.33523 4.33275 0
M  V30 367 N 29.562 -1.4872 -0.521534 0
M  V30 368 C 30.809 -1.57168 -1.27689 0
M  V30 369 C 31.137 -0.249275 -1.92896 0
M  V30 370 O 30.392 0.761162 -1.80291 0
M  V30 371 C 30.691 -2.66497 -2.38148 0
M  V30 372 C 30.357 -4.08664 -1.90538 0
M  V30 373 C 29.019 -4.47357 -1.77271 0
M  V30 374 C 31.371 -4.97724 -1.54663 0
M  V30 375 C 28.699 -5.72905 -1.26478 0
M  V30 376 C 31.051 -6.2377 -1.05329 0
M  V30 377 C 29.715 -6.61311 -0.906861 0
M  V30 378 H 28.985 -0.575117 -0.467249 0
M  V30 379 H 31.632 -1.82472 -0.581051 0
M  V30 380 H 29.937 -2.35085 -3.13437 0
M  V30 381 H 31.634 -2.70246 -2.96257 0
M  V30 382 H 28.224 -3.78111 -2.01816 0
M  V30 383 H 32.408 -4.68501 -1.63768 0
M  V30 384 H 27.664 -6.00709 -1.13835 0
M  V30 385 H 31.838 -6.9217 -0.76644 0
M  V30 386 H 29.465 -7.5848 -0.511083 0
M  V30 387 N 31.0401 0.771051 -1.3745 0
M  V30 388 C 32.4561 1.07171 -1.18265 0
M  V30 389 C 32.6561 2.01491 -0.019287 0
M  V30 390 O 31.7121 2.44244 0.640408 0
M  V30 391 C 33.0251 1.66854 -2.50161 0
M  V30 392 C 34.5731 1.79109 -2.56689 0
M  V30 393 C 35.0481 2.42205 -3.88717 0
M  V30 394 N 36.5391 2.49655 -3.90162 0
M  V30 395 C 37.2741 2.9933 -4.8907 0
M  V30 396 N 36.7701 3.49172 -5.98374 0
M  V30 397 N 38.5631 2.9821 -4.76474 0
M  V30 398 H 30.7141 0.144796 -2.11906 0
M  V30 399 H 32.9771 0.126863 -0.939473 0
M  V30 400 H 32.6831 1.05017 -3.35655 0
M  V30 401 H 32.5571 2.6614 -2.673 0
M  V30 402 H 34.9441 2.40077 -1.71601 0
M  V30 403 H 35.0251 0.785757 -2.43433 0
M  V30 404 H 34.6691 1.81875 -4.74219 0
M  V30 405 H 34.5991 3.43345 -3.99276 0
M  V30 406 H 37.0901 2.14383 -3.11205 0
M  V30 407 H 37.4031 3.8548 -6.69795 0
M  V30 408 H 35.7481 3.47275 -6.02018 0
M  V30 409 H 38.9391 2.58572 -3.90203 0
M  V30 410 H 39.1121 3.36613 -5.53711 0
M  V30 411 N 32.5182 1.22032 0.997298 0
M  V30 412 C 33.9342 0.979326 1.26021 0
M  V30 413 C 34.1342 -0.32972 1.98784 0
M  V30 414 O 33.1902 -1.05345 2.29475 0
M  V30 415 C 34.5032 2.17509 2.07631 0
M  V30 416 C 36.0512 2.21817 2.2083 0
M  V30 417 C 36.5262 3.40933 3.05825 0
M  V30 418 N 38.0172 3.41067 3.13412 0
M  V30 419 C 38.7522 4.29885 3.79455 0
M  V30 420 N 38.2482 5.28914 4.47462 0
M  V30 421 N 40.0412 4.17673 3.76173 0
M  V30 422 H 32.1922 2.06202 0.509352 0
M  V30 423 H 34.4552 0.90334 0.287541 0
M  V30 424 H 34.1612 3.12415 1.61524 0
M  V30 425 H 34.0352 2.17206 3.08385 0
M  V30 426 H 36.4222 1.27462 2.66153 0
M  V30 427 H 36.5032 2.2616 1.1952 0
M  V30 428 H 36.1472 4.35586 2.61203 0
M  V30 429 H 36.0772 3.33829 4.07266 0
M  V30 430 H 38.5682 2.69406 2.65007 0
M  V30 431 H 38.8812 5.92973 4.95583 0
M  V30 432 H 37.2262 5.32831 4.46224 0
M  V30 433 H 40.4172 3.39564 3.22202 0
M  V30 434 H 40.5902 4.87098 4.27363 0
M  V30 435 N 33.9963 -1.19345 1.0293 0
M  V30 436 C 35.2733 -1.84811 0.640642 0
M  V30 437 C 35.6533 -1.91855 -0.88062 0
M  V30 438 O 35.0013 -1.43587 -1.7775 0
M  V30 439 C 35.2113 -3.23755 1.30321 0
M  V30 440 C 36.5593 -3.99912 1.42673 0
M  V30 441 O 37.5833 -3.33155 1.26041 0
M  V30 442 O 36.4423 -5.19494 1.6967 0
M  V30 443 H 33.5363 -0.796443 0.222726 0
M  V30 444 H 36.0823 -1.26831 1.12748 0
M  V30 445 H 34.8543 -3.13466 2.34211 0
M  V30 446 H 34.4773 -3.89381 0.804261 0
M  V30 447 N 35.4744 -0.807222 -1.35358 0
M  V30 448 C 36.3844 -0.219594 -2.3357 0
M  V30 449 C 37.4004 0.637734 -1.61892 0
M  V30 450 O 38.5764 0.549336 -1.93763 0
M  V30 451 C 35.6414 0.62158 -3.41083 0
M  V30 452 C 34.7024 -0.256315 -4.28534 0
M  V30 453 C 33.9354 0.544807 -5.30912 0
M  V30 454 O 34.1584 1.77944 -5.41934 0
M  V30 455 O 33.0924 -0.0646478 -6.01865 0
M  V30 456 H 36.9184 -1.03208 -2.85625 0
M  V30 457 H 34.5034 -0.569025 -1.38139 0
M  V30 458 H 36.3854 1.10067 -4.06772 0
M  V30 459 H 35.0604 1.41165 -2.91297 0
M  V30 460 H 33.9674 -0.782559 -3.65823 0
M  V30 461 H 35.3004 -1.01034 -4.81719 0
M  V30 462 N 36.9525 1.47285 -0.560781 0
M  V30 463 C 38.2295 1.9558 0.0277798 0
M  V30 464 C 38.6095 1.5034 1.48192 0
M  V30 465 O 37.9575 0.743882 2.16052 0
M  V30 466 C 38.1675 3.48789 -0.121418 0
M  V30 467 C 39.5155 4.24594 0.0220912 0
M  V30 468 O 40.5395 3.56166 -0.0491439 0
M  V30 469 O 39.3985 5.46217 0.175958 0
M  V30 470 H 36.4925 0.824663 0.0621342 0
M  V30 471 H 39.0385 1.5767 -0.627556 0
M  V30 472 H 37.8105 3.74533 -1.13316 0
M  V30 473 H 37.4335 3.93473 0.571366 0
M  V30 474 N 38.4306 0.297415 1.54768 0
M  V30 475 C 39.3606 -0.573494 2.26348 0
M  V30 476 C 40.3416 -1.14085 1.26169 0
M  V30 477 O 41.5266 -1.17086 1.54934 0
M  V30 478 C 38.6566 -1.74716 3.00153 0
M  V30 479 C 37.6106 -1.31032 4.07449 0
M  V30 480 C 36.9366 -2.56887 4.68949 0
M  V30 481 C 38.2366 -0.444183 5.20408 0
M  V30 482 H 39.9306 0.0235131 2.99391 0
M  V30 483 H 37.4766 0.0127488 1.43994 0
M  V30 484 H 39.4296 -2.3625 3.48947 0
M  V30 485 H 38.1536 -2.37035 2.24682 0
M  V30 486 H 36.8126 -0.718066 3.59499 0
M  V30 487 H 36.4606 -3.17512 3.90122 0
M  V30 488 H 36.1606 -2.2836 5.41411 0
M  V30 489 H 37.6846 -3.19229 5.20505 0
M  V30 490 H 39.0986 -0.9651 5.65118 0
M  V30 491 H 37.4956 -0.252846 5.99567 0
M  V30 492 H 38.5656 0.531609 4.81977 0
M  V30 493 N 39.9087 -1.5758 0.0250728 0
M  V30 494 C 40.8187 -2.1343 -0.973905 0
M  V30 495 C 41.8347 -1.08556 -1.35984 0
M  V30 496 O 43.0107 -1.40592 -1.44207 0
M  V30 497 C 40.0757 -2.64703 -2.23904 0
M  V30 498 C 39.1367 -3.84276 -1.91391 0
M  V30 499 C 38.3697 -4.33095 -3.11873 0
M  V30 500 O 38.5927 -3.81107 -4.24398 0
M  V30 501 O 37.5267 -5.24984 -2.94406 0
M  V30 502 H 41.3527 -2.99057 -0.529036 0
M  V30 503 H 38.9377 -1.48118 -0.195288 0
M  V30 504 H 40.8197 -2.97769 -2.98181 0
M  V30 505 H 39.4947 -1.82161 -2.6758 0
M  V30 506 H 38.4017 -3.56143 -1.14511 0
M  V30 507 H 39.7347 -4.67968 -1.52534 0
M  V30 508 N 41.3868 0.248026 -1.55636 0
M  V30 509 C 42.3188 1.32993 -1.8667 0
M  V30 510 C 43.3318 1.44345 -0.752877 0
M  V30 511 O 44.5208 1.45715 -1.03098 0
M  V30 512 C 41.6208 2.70863 -2.03682 0
M  V30 513 C 40.7938 2.81792 -3.34532 0
M  V30 514 C 39.8528 4.005 -3.41301 0
M  V30 515 O 38.8788 3.9008 -4.14519 0
M  V30 516 N 40.0808 5.13618 -2.70512 0
M  V30 517 H 42.8458 1.06707 -2.8006 0
M  V30 518 H 40.4068 0.438129 -1.55859 0
M  V30 519 H 42.3988 3.48612 -2.05553 0
M  V30 520 H 40.9688 2.89862 -1.17041 0
M  V30 521 H 40.1888 1.90729 -3.44987 0
M  V30 522 H 41.4768 2.86043 -4.20781 0
M  V30 523 H 40.8748 5.24975 -2.10755 0
M  V30 524 H 39.4318 5.89505 -2.78077 0
M  V30 525 N 42.8649 1.48995 0.513639 0
M  V30 526 C 44.1139 1.57093 1.2651 0
M  V30 527 C 44.4269 0.257091 1.93903 0
M  V30 528 O 45.6329 0.216478 2.70636 0
M  V30 529 C 44.0889 2.77118 2.29638 0
M  V30 530 C 43.6969 4.15209 1.68241 0
M  V30 531 C 45.4409 2.94538 3.05692 0
M  V30 532 C 43.3479 5.26474 2.69406 0
M  V30 533 H 42.2779 0.584876 0.475854 0
M  V30 534 H 44.9289 1.7536 0.540487 0
M  V30 535 H 43.3109 2.52319 3.05207 0
M  V30 536 H 44.4849 4.50094 0.987505 0
M  V30 537 H 42.7999 4.03042 1.04623 0
M  V30 538 H 45.3969 3.74832 3.8132 0
M  V30 539 H 45.7399 2.04614 3.62545 0
M  V30 540 H 46.2729 3.19316 2.37238 0
M  V30 541 H 43.0119 6.18417 2.17351 0
M  V30 542 H 42.5319 4.96058 3.37175 0
M  V30 543 H 44.2109 5.55277 3.32078 0
M  V30 544 N 44.343 -0.763751 1.37857 0
M  V30 545 C 45.273 -1.89103 1.36975 0
M  V30 546 C 46.254 -1.68439 0.237152 0
M  V30 547 O 47.439 -1.8918 0.438713 0
M  V30 548 C 44.569 -3.26496 1.18395 0
M  V30 549 C 43.523 -3.61741 2.28751 0
M  V30 550 C 42.849 -4.97762 1.95286 0
M  V30 551 C 44.149 -3.67665 3.70972 0
M  V30 552 H 45.843 -1.90099 2.31307 0
M  V30 553 H 43.389 -0.91319 1.11341 0
M  V30 554 H 45.342 -4.05003 1.16406 0
M  V30 555 H 44.066 -3.25955 0.205215 0
M  V30 556 H 42.725 -2.85547 2.29909 0
M  V30 557 H 42.373 -4.93769 0.959221 0
M  V30 558 H 42.073 -5.22313 2.69189 0
M  V30 559 H 43.597 -5.7866 1.94898 0
M  V30 560 H 45.011 -4.36307 3.719 0
M  V30 561 H 43.408 -4.03718 4.43995 0
M  V30 562 H 44.478 -2.68134 4.0402 0
M  V30 563 N 45.8211 -1.22559 -0.990812 0
M  V30 564 C 46.7311 -1.01394 -2.11557 0
M  V30 565 C 47.7471 0.0383962 -1.73958 0
M  V30 566 O 48.9231 -0.154787 -2.00804 0
M  V30 567 C 45.9881 -0.596569 -3.41529 0
M  V30 568 C 45.0491 -1.72276 -3.93217 0
M  V30 569 C 44.2821 -1.32521 -5.16985 0
M  V30 570 O 44.5051 -0.204909 -5.70032 0
M  V30 571 O 43.4391 -2.14247 -5.62478 0
M  V30 572 H 47.2651 -1.95633 -2.32296 0
M  V30 573 H 44.8501 -1.01172 -1.0993 0
M  V30 574 H 46.7321 -0.374263 -4.19735 0
M  V30 575 H 45.4071 0.316939 -3.22145 0
M  V30 576 H 44.3141 -1.99961 -3.16174 0
M  V30 577 H 45.6471 -2.61421 -4.17037 0
M  V30 578 N 47.2992 1.18797 -1.03562 0
M  V30 579 C 48.2092 2.25913 -0.632505 0
M  V30 580 C 49.2252 1.70668 0.338882 0
M  V30 581 O 50.4012 2.00453 0.195076 0
M  V30 582 C 47.4662 3.467 0.00350942 0
M  V30 583 C 46.5272 4.17098 -1.01624 0
M  V30 584 C 45.7602 5.32119 -0.410478 0
M  V30 585 O 45.9832 5.64976 0.784725 0
M  V30 586 O 44.9172 5.9107 -1.13667 0
M  V30 587 H 48.7432 2.62648 -1.52478 0
M  V30 588 H 46.3282 1.25781 -0.806195 0
M  V30 589 H 48.2102 4.19878 0.35781 0
M  V30 590 H 46.8852 3.11798 0.869686 0
M  V30 591 H 45.7922 3.4601 -1.42224 0
M  V30 592 H 47.1252 4.55987 -1.85301 0
M  V30 593 N 48.7773 0.814389 1.34928 0
M  V30 594 C 50.0263 0.394871 1.97797 0
M  V30 595 C 50.3393 -1.04555 1.65311 0
M  V30 596 O 51.5453 -1.56856 2.21604 0
M  V30 597 C 50.0013 0.655103 3.53888 0
M  V30 598 C 49.6093 2.10858 3.95276 0
M  V30 599 C 51.3533 0.301329 4.23429 0
M  V30 600 C 49.2603 2.31415 5.44244 0
M  V30 601 H 48.1903 0.143913 0.740139 0
M  V30 602 H 50.8413 0.999544 1.53888 0
M  V30 603 H 49.2233 -0.0196253 3.95995 0
M  V30 604 H 50.3973 2.82176 3.64298 0
M  V30 605 H 48.7123 2.42297 3.38646 0
M  V30 606 H 51.3093 0.432869 5.32945 0
M  V30 607 H 51.6523 -0.75331 4.09428 0
M  V30 608 H 52.1853 0.930288 3.86769 0
M  V30 609 H 48.9243 3.35353 5.63222 0
M  V30 610 H 48.4443 1.6463 5.76764 0
M  V30 611 H 50.1233 2.13352 6.10811 0
M  V30 612 N 50.2554 -1.46986 0.568584 0
M  V30 613 C 51.1854 -2.32946 -0.160753 0
M  V30 614 C 52.1664 -1.44487 -0.897631 0
M  V30 615 O 53.3514 -1.73327 -0.875867 0
M  V30 616 C 50.4814 -3.26494 -1.18403 0
M  V30 617 C 49.4354 -4.24282 -0.562895 0
M  V30 618 C 48.7614 -5.07236 -1.69163 0
M  V30 619 C 50.0614 -5.19989 0.490761 0
M  V30 620 H 51.7554 -2.94175 0.556916 0
M  V30 621 H 49.3014 -1.4146 0.26927 0
M  V30 622 H 51.2544 -3.85477 -1.70251 0
M  V30 623 H 49.9784 -2.63343 -1.93179 0
M  V30 624 H 48.6374 -3.66541 -0.0656164 0
M  V30 625 H 48.2854 -4.4048 -2.42871 0
M  V30 626 H 47.9854 -5.7345 -1.28174 0
M  V30 627 H 49.5094 -5.6908 -2.21314 0
M  V30 628 H 50.9234 -5.73271 0.0579047 0
M  V30 629 H 49.3204 -5.94469 0.820165 0
M  V30 630 H 50.3904 -4.64777 1.3824 0
M  V30 631 N 51.7335 -0.305618 -1.54608 0
M  V30 632 C 53.0105 0.355652 -1.92339 0
M  V30 633 C 53.3905 1.71324 -1.23335 0
M  V30 634 O 52.7385 2.25473 -0.370702 0
M  V30 635 C 52.9485 0.46572 -3.45879 0
M  V30 636 C 54.2965 0.734426 -4.182 0
M  V30 637 O 55.3205 0.54935 -3.51938 0
M  V30 638 O 54.1795 1.09024 -5.35515 0
M  V30 639 H 51.2735 0.199666 -0.802535 0
M  V30 640 H 53.8195 -0.354017 -1.65966 0
M  V30 641 H 52.5915 -0.488461 -3.88239 0
M  V30 642 H 52.2145 1.22367 -3.78301 0
M  V30 643 N 53.2116 1.57565 -0.0334293 0
M  V30 644 C 54.1216 2.13943 0.962572 0
M  V30 645 C 55.1376 1.09276 1.35406 0
M  V30 646 O 56.3136 1.41355 1.4346 0
M  V30 647 C 53.3786 2.65887 2.22497 0
M  V30 648 C 52.4396 3.85286 1.8935 0
M  V30 649 C 51.6726 4.34743 3.09571 0
M  V30 650 O 51.8956 3.83352 4.22371 0
M  V30 651 O 50.8296 5.26538 2.91618 0
M  V30 652 H 54.6556 2.99333 0.513169 0
M  V30 653 H 52.2406 1.4822 0.18743 0
M  V30 654 H 54.1226 2.99346 2.96598 0
M  V30 655 H 52.7976 1.83578 2.6661 0
M  V30 656 H 51.7046 3.56746 1.1262 0
M  V30 657 H 53.0376 4.68771 1.5005 0
M  V30 658 N 54.6897 -0.239769 1.55765 0
M  V30 659 C 55.9177 -0.98417 1.81994 0
M  V30 660 C 56.3327 -1.7867 0.610124 0
M  V30 661 O 55.6897 -1.77571 -0.421271 0
M  V30 662 C 55.7407 -1.91635 3.06526 0
M  V30 663 O 55.4617 -1.14629 4.22838 0
M  V30 664 C 56.9627 -2.77616 3.45607 0
M  V30 665 H 54.1827 -0.28928 0.605441 0
M  V30 666 H 56.7267 -0.260499 2.02834 0
M  V30 667 H 54.8817 -2.5942 2.87715 0
M  V30 668 H 55.2957 -1.77745 4.93464 0
M  V30 669 H 56.7697 -3.38759 4.35828 0
M  V30 670 H 57.2467 -3.4909 2.6652 0
M  V30 671 H 57.8527 -2.15271 3.66795 0
M  V30 672 N 56.1678 -1.49265 -0.50573 0
M  V30 673 C 57.3978 -1.61979 -1.28243 0
M  V30 674 C 57.8058 -0.288576 -1.86986 0
M  V30 675 O 57.1488 0.735408 -1.68337 0
M  V30 676 C 57.2108 -2.62632 -2.45489 0
M  V30 677 C 56.8748 -4.071 -2.07651 0
M  V30 678 C 57.8718 -4.94049 -1.61901 0
M  V30 679 C 55.5568 -4.52801 -2.17431 0
M  V30 680 C 57.5508 -6.24736 -1.26428 0
M  V30 681 C 55.2378 -5.83503 -1.8157 0
M  V30 682 C 56.2358 -6.69294 -1.36142 0
M  V30 683 O 55.9238 -7.9756 -1.00764 0
M  V30 684 H 55.6558 -0.54834 -0.395347 0
M  V30 685 H 58.2098 -1.96002 -0.614204 0
M  V30 686 H 56.4398 -2.2378 -3.15372 0
M  V30 687 H 58.1288 -2.64925 -3.07522 0
M  V30 688 H 58.8948 -4.5997 -1.53795 0
M  V30 689 H 54.7738 -3.86196 -2.51742 0
M  V30 690 H 58.3178 -6.91652 -0.908992 0
M  V30 691 H 54.2148 -6.17112 -1.89324 0
M  V30 692 H 54.9828 -8.10529 -1.13952 0
M  V30 693 N 57.6459 0.756429 -1.3826 0
M  V30 694 C 58.9229 1.50584 -1.24835 0
M  V30 695 C 59.3029 2.10556 0.151485 0
M  V30 696 O 58.6509 1.96825 1.1607 0
M  V30 697 C 58.8609 2.57448 -2.3563 0
M  V30 698 C 60.2089 3.24429 -2.73917 0
M  V30 699 O 61.2329 2.67751 -2.34921 0
M  V30 700 O 60.0919 4.26937 -3.41156 0
M  V30 701 H 57.1859 0.667664 -0.48801 0
M  V30 702 H 59.7319 0.792083 -1.5008 0
M  V30 703 H 58.5039 2.11362 -3.29305 0
M  V30 704 H 58.1269 3.36408 -2.11933 0
M  V30 705 N 59.124 1.23083 0.984299 0
M  V30 706 C 60.071 1.00854 2.07598 0
M  V30 707 C 61.041 -0.0726709 1.65941 0
M  V30 708 O 62.226 0.0786535 1.90638 0
M  V30 709 C 59.366 0.601645 3.39815 0
M  V30 710 C 58.479 1.75456 3.94765 0
M  V30 711 C 57.614 1.29482 5.15177 0
M  V30 712 C 56.653 2.41873 5.62284 0
M  V30 713 N 55.79 1.96885 6.73929 0
M  V30 714 H 60.63 1.943 2.25946 0
M  V30 715 H 58.167 0.968001 1.10762 0
M  V30 716 H 60.125 0.346854 4.15756 0
M  V30 717 H 58.755 -0.295803 3.21442 0
M  V30 718 H 57.807 2.12346 3.15616 0
M  V30 719 H 59.119 2.59965 4.25699 0
M  V30 720 H 58.273 0.997923 5.98437 0
M  V30 721 H 57.012 0.420046 4.85888 0
M  V30 722 H 56.017 2.72342 4.77608 0
M  V30 723 H 57.242 3.29881 5.93595 0
M  V30 724 H 55.188 1.11782 6.46406 0
M  V30 725 H 55.105 2.74956 7.04227 0
M  V30 726 H 56.373 1.70289 7.60672 0
M  V30 727 N 60.6021 -1.18246 1.0419 0
M  V30 728 C 61.5491 -2.2192 0.634037 0
M  V30 729 C 62.5191 -1.62179 -0.358765 0
M  V30 730 O 63.7041 -1.89122 -0.252466 0
M  V30 731 C 60.8441 -3.451 0.00445535 0
M  V30 732 C 59.9571 -4.19174 1.04487 0
M  V30 733 C 59.0921 -5.29813 0.383676 0
M  V30 734 C 58.1311 -5.9566 1.4091 0
M  V30 735 N 57.2681 -6.97834 0.772784 0
M  V30 736 H 62.1081 -2.56164 1.52263 0
M  V30 737 H 59.6451 -1.25843 0.761701 0
M  V30 738 H 61.6031 -4.15485 -0.377919 0
M  V30 739 H 60.2331 -3.11472 -0.847652 0
M  V30 740 H 59.2851 -3.47604 1.54518 0
M  V30 741 H 60.5971 -4.64267 1.82368 0
M  V30 742 H 59.7511 -6.06677 -0.0528366 0
M  V30 743 H 58.4901 -4.85825 -0.427208 0
M  V30 744 H 57.4951 -5.17535 1.85574 0
M  V30 745 H 58.7201 -6.4173 2.22171 0
M  V30 746 H 56.6661 -6.55998 -0.0177708 0
M  V30 747 H 56.5831 -7.41186 1.48928 0
M  V30 748 H 57.8511 -7.78665 0.36071 0
M  V30 749 N 62.0802 -0.821533 -1.34494 0
M  V30 750 C 63.0432 -0.247847 -2.27856 0
M  V30 751 C 64.0432 0.573453 -1.50227 0
M  V30 752 O 65.2332 0.389759 -1.69784 0
M  V30 753 C 62.3652 0.652698 -3.34593 0
M  V30 754 H 63.5582 -1.07146 -2.80107 0
M  V30 755 H 61.1112 -0.593291 -1.44602 0
M  V30 756 H 61.8462 1.49943 -2.87555 0
M  V30 757 H 61.6312 0.065292 -3.92046 0
M  V30 758 H 63.1212 1.04793 -4.04238 0
M  V30 759 N 63.5583 1.46682 -0.576371 0
M  V30 760 C 64.5053 2.30241 0.160499 0
M  V30 761 C 65.4753 1.40233 0.890162 0
M  V30 762 O 66.6603 1.69186 0.882084 0
M  V30 763 C 63.8003 3.24578 1.1723 0
M  V30 764 C 62.9133 4.29684 0.446736 0
M  V30 765 C 62.0483 5.11154 1.44551 0
M  V30 766 C 61.0873 6.08015 0.70599 0
M  V30 767 N 60.2243 6.82376 1.65251 0
M  V30 768 H 65.0643 2.92727 -0.558127 0
M  V30 769 H 62.6013 1.44272 -0.287056 0
M  V30 770 H 64.5593 3.77711 1.77172 0
M  V30 771 H 63.1893 2.63916 1.85872 0
M  V30 772 H 62.2413 3.79458 -0.267594 0
M  V30 773 H 63.5533 4.98626 -0.131686 0
M  V30 774 H 62.7073 5.68533 2.11791 0
M  V30 775 H 61.4463 4.42158 2.05786 0
M  V30 776 H 60.4513 5.49796 0.0197725 0
M  V30 777 H 61.6763 6.79028 0.09912 0
M  V30 778 H 59.6223 6.16094 2.25308 0
M  V30 779 H 59.5393 7.47556 1.12673 0
M  V30 780 H 60.8073 7.44316 2.31546 0
M  V30 781 N 65.0364 0.313813 1.54444 0
M  V30 782 C 65.9464 -0.565714 2.27677 0
M  V30 783 C 66.9624 -1.13754 1.31666 0
M  V30 784 O 68.1384 -1.15959 1.64668 0
M  V30 785 C 65.2034 -1.71528 3.01296 0
M  V30 786 C 64.2644 -1.17624 4.12872 0
M  V30 787 C 63.4974 -2.27102 4.8297 0
M  V30 788 O 63.7204 -3.47256 4.52514 0
M  V30 789 O 62.6544 -1.9307 5.70094 0
M  V30 790 H 66.4804 0.0287296 3.03686 0
M  V30 791 H 64.0654 0.0798312 1.49187 0
M  V30 792 H 65.9474 -2.38476 3.4743 0
M  V30 793 H 64.6224 -2.29608 2.2817 0
M  V30 794 H 63.5294 -0.472124 3.71109 0
M  V30 795 H 64.8624 -0.640695 4.88012 0
M  V30 796 N 66.5145 -1.57545 0.0417849 0
M  V30 797 C 67.7915 -1.83642 -0.673433 0
M  V30 798 C 68.1715 -0.928298 -1.89594 0
M  V30 799 O 67.5195 0.0129955 -2.28496 0
M  V30 800 C 67.7295 -3.33155 -1.03964 0
M  V30 801 C 69.0775 -3.99941 -1.42592 0
M  V30 802 O 70.1015 -3.37725 -1.13226 0
M  V30 803 O 68.9605 -5.09619 -1.9736 0
M  V30 804 H 66.0545 -0.757638 -0.331533 0
M  V30 805 H 68.6005 -1.69554 0.070433 0
M  V30 806 H 67.3725 -3.9093 -0.170098 0
M  V30 807 H 66.9955 -3.52396 -1.84126 0
M  V30 808 N 67.9926 0.231505 -1.5589 0
M  V30 809 C 68.9556 1.27028 -1.90779 0
M  V30 810 C 69.9556 1.40308 -0.785507 0
M  V30 811 O 71.1456 1.38744 -1.05336 0
M  V30 812 C 68.2776 2.64566 -2.14983 0
M  V30 813 H 69.4706 0.973017 -2.83677 0
M  V30 814 H 67.0236 0.471486 -1.49019 0
M  V30 815 H 67.7586 2.99406 -1.24604 0
M  V30 816 H 67.5436 2.56305 -2.96732 0
M  V30 817 H 69.0336 3.39543 -2.43105 0
M  V30 818 N 69.4707 1.49531 0.497807 0
M  V30 819 C 70.8867 1.36365 0.829266 0
M  V30 820 C 71.0867 0.399184 1.97506 0
M  V30 821 O 70.1427 -0.167977 2.51941 0
M  V30 822 C 71.4557 2.77153 1.16647 0
M  V30 823 C 73.0037 2.85877 1.27449 0
M  V30 824 C 73.4787 4.2744 1.64497 0
M  V30 825 N 74.9697 4.30265 1.7154 0
M  V30 826 C 75.7047 5.3677 2.01656 0
M  V30 827 N 75.2007 6.53516 2.29976 0
M  V30 828 N 76.9937 5.24189 2.02934 0
M  V30 829 H 69.1447 2.10831 -0.257703 0
M  V30 830 H 71.4077 0.946534 -0.0527091 0
M  V30 831 H 71.1137 3.49442 0.397872 0
M  V30 832 H 70.9877 3.12722 2.10915 0
M  V30 833 H 73.3747 2.13824 2.0338 0
M  V30 834 H 73.4557 2.53887 0.312244 0
M  V30 835 H 73.0997 5.00021 0.891151 0
M  V30 836 H 73.0297 4.56896 2.61827 0
M  V30 837 H 75.5207 3.4607 1.51802 0
M  V30 838 H 75.8337 7.30506 2.52153 0
M  V30 839 H 74.1787 6.56737 2.27425 0
M  V30 840 H 77.3697 4.31988 1.80289 0
M  V30 841 H 77.5427 6.07286 2.26071 0
M  V30 842 N 70.9488 -0.749086 1.3866 0
M  V30 843 C 72.3648 -1.05276 1.19955 0
M  V30 844 C 72.5648 -2.01435 0.05134 0
M  V30 845 O 71.6208 -2.45232 -0.60147 0
M  V30 846 C 72.9338 -1.62853 2.52783 0
M  V30 847 C 74.4818 -1.75002 2.59506 0
M  V30 848 C 74.9568 -2.35991 3.92521 0
M  V30 849 N 76.4478 -2.43416 3.94085 0
M  V30 850 C 77.1828 -2.91511 4.9377 0
M  V30 851 N 76.6788 -3.39608 6.03853 0
M  V30 852 N 78.4718 -2.90592 4.81157 0
M  V30 853 H 70.6228 -0.111066 2.12109 0
M  V30 854 H 72.8858 -0.111901 0.941373 0
M  V30 855 H 72.5918 -0.99664 3.37283 0
M  V30 856 H 72.4658 -2.61854 2.715 0
M  V30 857 H 74.8528 -2.37317 1.75398 0
M  V30 858 H 74.9338 -0.74693 2.44652 0
M  V30 859 H 74.5778 -1.74308 4.77053 0
M  V30 860 H 74.5078 -3.3695 4.04688 0
M  V30 861 H 76.9988 -2.09405 3.14576 0
M  V30 862 H 77.3118 -3.74775 6.75843 0
M  V30 863 H 75.6568 -3.37653 6.07466 0
M  V30 864 H 78.8478 -2.52332 3.94267 0
M  V30 865 H 79.0208 -3.27762 5.58996 0
M  V30 866 N 72.4269 -1.23603 -0.977757 0
M  V30 867 C 73.6569 -1.09487 -1.75203 0
M  V30 868 C 74.0649 0.356321 -1.85814 0
M  V30 869 O 73.4079 1.25816 -1.33851 0
M  V30 870 C 73.4699 -1.64905 -3.19447 0
M  V30 871 C 73.1339 -3.13688 -3.32338 0
M  V30 872 C 74.1309 -4.10953 -3.18455 0
M  V30 873 C 71.8159 -3.53449 -3.56902 0
M  V30 874 C 73.8099 -5.45962 -3.28944 0
M  V30 875 C 71.4969 -4.88602 -3.6703 0
M  V30 876 C 72.4949 -5.84668 -3.53062 0
M  V30 877 O 72.1829 -7.17365 -3.62826 0
M  V30 878 H 71.9149 -0.38367 -0.556573 0
M  V30 879 H 74.4689 -1.6398 -1.23693 0
M  V30 880 H 72.6989 -1.04835 -3.72218 0
M  V30 881 H 74.3879 -1.46226 -3.78646 0
M  V30 882 H 75.1539 -3.81577 -2.99372 0
M  V30 883 H 71.0329 -2.79188 -3.66844 0
M  V30 884 H 74.5769 -6.20925 -3.17958 0
M  V30 885 H 70.4739 -5.17653 -3.85623 0
M  V30 886 H 71.2419 -7.2515 -3.79605 0
M  V30 887 N 73.905 1.17692 -1.04816 0
M  V30 888 C 75.154 1.87192 -0.751132 0
M  V30 889 C 75.467 1.8169 0.724441 0
M  V30 890 O 76.673 2.46625 1.13527 0
M  V30 891 C 75.129 3.35857 -1.29338 0
M  V30 892 C 74.737 3.4987 -2.79812 0
M  V30 893 C 76.481 4.10709 -1.07322 0
M  V30 894 C 74.388 4.92536 -3.27356 0
M  V30 895 H 73.318 0.701162 -0.277288 0
M  V30 896 H 75.969 1.32932 -1.26496 0
M  V30 897 H 74.351 3.89631 -0.707376 0
M  V30 898 H 75.525 3.06332 -3.44235 0
M  V30 899 H 73.84 2.88433 -3.00325 0
M  V30 900 H 76.437 5.15952 -1.4035 0
M  V30 901 H 76.78 4.16299 -0.0108001 0
M  V30 902 H 77.313 3.6313 -1.62423 0
M  V30 903 H 74.052 4.92119 -4.33012 0
M  V30 904 H 73.572 5.3676 -2.67673 0
M  V30 905 H 75.251 5.61288 -3.21815 0
M  V30 906 N 75.3831 0.828654 1.34056 0
M  V30 907 C 76.7991 0.515135 1.51058 0
M  V30 908 C 76.9991 -0.959581 1.77184 0
M  V30 909 O 76.0551 -1.74382 1.82612 0
M  V30 910 C 77.3681 1.37963 2.67183 0
M  V30 911 C 78.9161 1.37735 2.81066 0
M  V30 912 C 79.3911 2.22645 4.00241 0
M  V30 913 N 80.8821 2.203 4.07458 0
M  V30 914 C 81.6171 2.82744 4.98842 0
M  V30 915 N 81.1131 3.54201 5.9541 0
M  V30 916 N 82.9061 2.72268 4.91759 0
M  V30 917 H 75.0571 1.78343 1.15358 0
M  V30 918 H 77.3201 0.760304 0.566252 0
M  V30 919 H 77.0261 2.42714 2.54525 0
M  V30 920 H 76.9001 1.0484 3.62338 0
M  V30 921 H 79.2871 0.337593 2.93163 0
M  V30 922 H 79.3681 1.74859 1.86703 0
M  V30 923 H 79.0121 3.26674 3.88905 0
M  V30 924 H 78.9421 1.82869 4.93829 0
M  V30 925 H 81.4331 1.68327 3.38341 0
M  V30 926 H 81.7461 3.9908 6.61782 0
M  V30 927 H 80.0911 3.58308 5.95517 0
M  V30 928 H 83.2821 2.16014 4.15278 0
M  V30 929 H 83.4551 3.21219 5.62781 0
M  V30 930 N 76.8612 -1.46375 0.584142 0
M  V30 931 C 78.1092 -2.01978 0.0701287 0
M  V30 932 C 78.4302 -1.4579 -1.295 0
M  V30 933 O 77.7002 -0.64314 -1.85042 0
M  V30 934 H 76.2802 -0.746648 0.0229345 0
M  V30 935 H 78.9422 -1.79461 0.760245 0
M  V30 936 H 78.0382 -3.121 0.0022064 0
M  V30 937 N 78.3393 -0.321999 -1.54275 0
M  V30 938 C 79.5883 0.281931 -1.9972 0
M  V30 939 C 79.9013 1.53369 -1.21397 0
M  V30 940 O 81.1073 2.21352 -1.57211 0
M  V30 941 C 79.5633 0.5529 -3.55628 0
M  V30 942 C 79.1713 -0.681721 -4.42783 0
M  V30 943 C 80.9153 1.11687 -4.09544 0
M  V30 944 C 78.8223 -0.382742 -5.9016 0
M  V30 945 H 77.7523 0.109124 -0.746062 0
M  V30 946 H 80.4033 -0.43398 -1.78294 0
M  V30 947 H 78.7853 1.32896 -3.73035 0
M  V30 948 H 79.9593 -1.45723 -4.37151 0
M  V30 949 H 78.2743 -1.1658 -3.99748 0
M  V30 950 H 80.8713 1.35515 -5.17242 0
M  V30 951 H 81.2143 2.06575 -3.61431 0
M  V30 952 H 81.7473 0.402032 -3.95763 0
M  V30 953 H 78.4863 -1.30076 -6.42464 0
M  V30 954 H 78.0063 0.355094 -5.98748 0
M  V30 955 H 79.6853 0.00800157 -6.47 0
M  V30 956 N 79.8174 1.5752 -0.0501392 0
M  V30 957 C 80.7644 2.1147 0.924603 0
M  V30 958 C 81.7344 1.02182 1.30951 0
M  V30 959 O 82.9194 1.29723 1.39916 0
M  V30 960 C 80.0594 2.66337 2.19451 0
M  V30 961 C 79.1724 3.89708 1.86418 0
M  V30 962 C 78.3074 4.32893 3.07859 0
M  V30 963 C 77.3464 5.48967 2.70742 0
M  V30 964 N 76.4834 5.87211 3.84874 0
M  V30 965 H 81.3234 2.94465 0.457639 0
M  V30 966 H 78.8604 1.45531 0.214266 0
M  V30 967 H 80.8184 2.96247 2.93758 0
M  V30 968 H 79.4484 1.86141 2.63726 0
M  V30 969 H 78.5004 3.66396 1.02264 0
M  V30 970 H 79.8124 4.74074 1.55096 0
M  V30 971 H 78.9664 4.6435 3.90466 0
M  V30 972 H 77.7054 3.47336 3.42358 0
M  V30 973 H 76.7104 5.17183 1.86551 0
M  V30 974 H 77.9354 6.3624 2.37436 0
M  V30 975 H 75.8814 5.04607 4.19175 0
M  V30 976 H 75.7984 6.66266 3.57247 0
M  V30 977 H 77.0664 6.23282 4.68123 0
M  V30 978 N 81.2955 -0.223234 1.56011 0
M  V30 979 C 82.2055 -1.29766 1.95443 0
M  V30 980 C 83.2215 -1.51373 0.858028 0
M  V30 981 O 84.3975 -1.64536 1.16146 0
M  V30 982 C 81.4625 -2.62772 2.26167 0
M  V30 983 C 80.5235 -2.49482 3.49367 0
M  V30 984 C 79.7565 -3.76145 3.78616 0
M  V30 985 O 79.9795 -4.79087 3.09568 0
M  V30 986 O 78.9135 -3.73358 4.72109 0
M  V30 987 H 82.7395 -0.99309 2.87004 0
M  V30 988 H 80.3245 -0.425958 1.43199 0
M  V30 989 H 82.2065 -3.41327 2.47131 0
M  V30 990 H 80.8815 -2.92913 1.37781 0
M  V30 991 H 79.7885 -1.69133 3.33684 0
M  V30 992 H 81.1215 -2.2428 4.38131 0
M  V30 993 N 82.7736 -1.49793 -0.48987 0
M  V30 994 C 83.7216 -1.67783 -1.61095 0
M  V30 995 C 84.7156 -0.543683 -1.60438 0
M  V30 996 O 85.9216 -0.723647 -1.64813 0
M  V30 997 H 82.2966 -0.529255 -0.534222 0
M  V30 998 H 84.2676 -2.61861 -1.43078 0
M  V30 999 C 83.0166 -1.77191 -2.99164 0
M  V30 1000 H 82.3396 -2.63841 -3.0038 0
M  V30 1001 H 83.7796 -1.93809 -3.77113 0
M  V30 1002 C 82.2386 -0.519203 -3.32875 0
M  V30 1003 O 82.7686 0.350124 -4.00171 0
M  V30 1004 N 80.9746 -0.378816 -2.8812 0
M  V30 1005 H 80.5216 -1.08725 -2.33531 0
M  V30 1006 H 80.4796 0.458239 -3.11043 0
M  V30 1007 N 84.2517 0.741722 -1.39055 0
M  V30 1008 C 85.1817 1.869 -1.39966 0
M  V30 1009 C 86.1627 1.6804 -0.26392 0
M  V30 1010 O 87.3477 1.88458 -0.468755 0
M  V30 1011 C 84.4777 3.24572 -1.23574 0
M  V30 1012 C 83.4317 3.58056 -2.34477 0
M  V30 1013 C 82.7577 4.94593 -2.0318 0
M  V30 1014 C 84.0577 3.61716 -3.76774 0
M  V30 1015 H 85.7517 1.86395 -2.34302 0
M  V30 1016 H 83.2977 0.895361 -1.1278 0
M  V30 1017 H 85.2507 4.031 -1.22834 0
M  V30 1018 H 83.9747 3.25587 -0.257045 0
M  V30 1019 H 82.6337 2.81854 -2.34423 0
M  V30 1020 H 82.2817 4.92181 -1.03765 0
M  V30 1021 H 81.9817 5.17964 -2.77465 0
M  V30 1022 H 83.5057 5.75486 -2.04079 0
M  V30 1023 H 84.9197 4.30335 -3.78794 0
M  V30 1024 H 83.3167 3.96603 -4.50362 0
M  V30 1025 H 84.3867 2.61672 -4.08235 0
M  V30 1026 N 85.7298 1.2412 0.971189 0
M  V30 1027 C 86.9548 1.10667 1.75407 0
M  V30 1028 C 87.3798 -0.337048 1.85056 0
M  V30 1029 O 86.7378 -1.24396 1.31892 0
M  V30 1030 C 86.7858 1.74726 3.15441 0
M  V30 1031 O 85.8898 1.01566 3.99697 0
M  V30 1032 H 85.2308 0.387341 0.539317 0
M  V30 1033 H 87.7608 1.64358 1.2185 0
M  V30 1034 H 87.7708 1.80341 3.6598 0
M  V30 1035 H 86.4458 2.79773 3.07734 0
M  V30 1036 H 85.0228 1.03713 3.58187 0
M  V30 1037 N 87.2079 -1.17134 1.05439 0
M  V30 1038 C 88.1409 -2.2012 0.601855 0
M  V30 1039 C 89.1189 -1.58314 -0.370854 0
M  V30 1040 O 90.3029 -1.8638 -0.281882 0
M  V30 1041 C 87.4299 -3.38491 -0.118868 0
M  V30 1042 C 86.4759 -4.18752 0.809242 0
M  V30 1043 S 87.3089 -4.83602 2.29977 0
M  V30 1044 C 88.4649 -6.0536 1.59029 0
M  V30 1045 H 88.6979 -2.58165 1.47438 0
M  V30 1046 H 86.2309 -1.27788 0.866573 0
M  V30 1047 H 88.1889 -4.07084 -0.528495 0
M  V30 1048 H 86.8499 -2.98829 -0.967465 0
M  V30 1049 H 86.0429 -5.03373 0.251379 0
M  V30 1050 H 85.6449 -3.5561 1.15835 0
M  V30 1051 H 87.9369 -6.71615 0.891017 0
M  V30 1052 H 88.8799 -6.65679 2.41407 0
M  V30 1053 H 89.2879 -5.54138 1.07663 0
M  V30 1054 N 88.686 -0.835752 -1.33615 0
M  V30 1055 C 89.935 -0.426289 -1.97144 0
M  V30 1056 C 90.248 1.01912 -1.66953 0
M  V30 1057 O 91.454 1.53311 -2.24072 0
M  V30 1058 C 89.91 -0.711321 -3.52801 0
M  V30 1059 C 89.518 -2.1712 -3.91871 0
M  V30 1060 C 91.262 -0.368654 -4.22896 0
M  V30 1061 C 89.169 -2.40044 -5.40493 0
M  V30 1062 H 88.099 -0.15567 -0.737755 0
M  V30 1063 H 90.75 -1.0239 -1.52278 0
M  V30 1064 H 89.132 -0.0433766 -3.95976 0
M  V30 1065 H 90.306 -2.87936 -3.59763 0
M  V30 1066 H 88.621 -2.47654 -3.34749 0
M  V30 1067 H 91.218 -0.517601 -5.32189 0
M  V30 1068 H 91.561 0.688078 -4.10574 0
M  V30 1069 H 92.094 -0.991702 -3.8524 0
M  V30 1070 H 88.833 -3.44271 -5.57815 0
M  V30 1071 H 88.353 -1.73785 -5.74072 0
M  V30 1072 H 90.032 -2.23042 -6.0734 0
M  V30 1073 N 90.1641 1.46063 -0.591896 0
M  V30 1074 C 91.4411 1.95595 -0.0137119 0
M  V30 1075 C 91.8211 1.5345 1.4497 0
M  V30 1076 O 91.1691 0.789543 2.14426 0
M  V30 1077 C 91.3791 3.48453 -0.195373 0
M  V30 1078 C 92.7271 4.24546 -0.0679765 0
M  V30 1079 O 93.7511 3.55982 -0.124681 0
M  V30 1080 O 92.6101 5.46467 0.0600579 0
M  V30 1081 H 89.7041 0.825795 0.0446279 0
M  V30 1082 H 92.2501 1.56303 -0.660859 0
M  V30 1083 H 91.0221 3.72045 -1.21235 0
M  V30 1084 H 90.6451 3.94597 0.487775 0
M  V30 1085 N 91.6422 0.330177 1.54103 0
M  V30 1086 C 92.9192 -0.325007 1.92881 0
M  V30 1087 C 93.2992 -1.6934 1.26045 0
M  V30 1088 O 92.6472 -2.24855 0.406526 0
M  V30 1089 C 92.8572 -0.410634 3.46576 0
M  V30 1090 C 94.2052 -0.667801 4.19316 0
M  V30 1091 O 95.2292 -0.49329 3.52768 0
M  V30 1092 O 94.0882 -1.00491 5.37181 0
M  V30 1093 H 91.1822 -0.186873 0.80561 0
M  V30 1094 H 93.7282 0.380376 1.65382 0
M  V30 1095 H 92.5002 0.550164 3.87413 0
M  V30 1096 H 92.1232 -1.16333 3.802 0
M  V30 1097 N 93.1203 -1.57491 0.0584922 0
M  V30 1098 C 94.0503 -2.14988 -0.911178 0
M  V30 1099 C 95.0313 -1.07343 -1.31952 0
M  V30 1100 O 96.2163 -1.35318 -1.39294 0
M  V30 1101 C 93.3463 -2.70078 -2.18347 0
M  V30 1102 C 92.3003 -3.82771 -1.91495 0
M  V30 1103 C 91.6263 -4.24408 -3.25241 0
M  V30 1104 C 92.9263 -5.07592 -1.23075 0
M  V30 1105 H 94.6203 -2.96263 -0.432246 0
M  V30 1106 H 92.1663 -1.42512 -0.206469 0
M  V30 1107 H 94.1193 -3.08943 -2.86587 0
M  V30 1108 H 92.8433 -1.86005 -2.68458 0
M  V30 1109 H 91.5023 -3.44389 -1.25664 0
M  V30 1110 H 91.1503 -3.37275 -3.73168 0
M  V30 1111 H 90.8503 -5.00366 -3.08071 0
M  V30 1112 H 92.3743 -4.65879 -3.94701 0
M  V30 1113 H 93.7883 -5.43857 -1.81362 0
M  V30 1114 H 92.1853 -5.88741 -1.16207 0
M  V30 1115 H 93.2553 -4.84454 -0.207847 0
M  V30 1116 N 94.5984 0.214957 -1.56127 0
M  V30 1117 C 95.8474 0.936451 -1.78643 0
M  V30 1118 C 96.1604 1.85237 -0.628229 0
M  V30 1119 O 97.3664 2.613 -0.737186 0
M  V30 1120 C 95.8224 1.7154 -3.16389 0
M  V30 1121 C 95.4304 0.845299 -4.39953 0
M  V30 1122 C 97.1744 2.42772 -3.48227 0
M  V30 1123 C 95.0814 1.62198 -5.68723 0
M  V30 1124 H 94.0114 0.353401 -0.666051 0
M  V30 1125 H 96.6624 0.190169 -1.82512 0
M  V30 1126 H 95.0444 2.50484 -3.06715 0
M  V30 1127 H 96.2184 0.0959353 -4.607 0
M  V30 1128 H 94.5334 0.244789 -4.1568 0
M  V30 1129 H 97.1304 3.01394 -4.41663 0
M  V30 1130 H 97.4734 3.15984 -2.71035 0
M  V30 1131 H 98.0064 1.70813 -3.5926 0
M  V30 1132 H 94.7454 0.933011 -6.48826 0
M  V30 1133 H 94.2654 2.34579 -5.52026 0
M  V30 1134 H 95.9444 2.18095 -6.09133 0
M  V30 1135 N 96.0765 1.50051 0.48192 0
M  V30 1136 C 97.3015 1.64508 1.26301 0
M  V30 1137 C 97.7265 0.323851 1.85291 0
M  V30 1138 O 97.0845 -0.710969 1.66778 0
M  V30 1139 C 97.1325 2.7305 2.35533 0
M  V30 1140 O 96.2365 2.3355 3.39895 0
M  V30 1141 H 95.5775 0.549978 0.372048 0
M  V30 1142 H 98.1075 1.9636 0.574786 0
M  V30 1143 H 98.1175 2.95799 2.8101 0
M  V30 1144 H 96.7925 3.68946 1.91967 0
M  V30 1145 H 95.3695 2.21205 3.00204 0
M  V30 1146 N 97.5546 -0.734337 1.39446 0
M  V30 1147 C 98.9706 -1.03997 1.21065 0
M  V30 1148 C 99.1706 -2.01369 0.0727019 0
M  V30 1149 O 98.2266 -2.45856 -0.575426 0
M  V30 1150 C 99.5396 -1.60163 2.54496 0
M  V30 1151 C 101.088 -1.7224 2.61347 0
M  V30 1152 C 101.563 -2.31814 3.95002 0
M  V30 1153 N 103.054 -2.39223 3.96644 0
M  V30 1154 C 103.789 -2.86258 4.96834 0
M  V30 1155 N 103.285 -3.33184 6.07421 0
M  V30 1156 N 105.078 -2.85473 4.84213 0
M  V30 1157 H 97.2286 -0.0885624 2.12215 0
M  V30 1158 H 99.4916 -0.10191 0.942506 0
M  V30 1159 H 99.1976 -0.960811 3.38321 0
M  V30 1160 H 99.0716 -2.5896 2.74262 0
M  V30 1161 H 101.459 -2.35443 1.77906 0
M  V30 1162 H 101.54 -0.720939 2.4543 0
M  V30 1163 H 101.184 -1.69238 4.78875 0
M  V30 1164 H 101.114 -3.32638 4.08239 0
M  V30 1165 H 103.605 -2.06057 3.16779 0
M  V30 1166 H 103.918 -3.67586 6.7978 0
M  V30 1167 H 102.263 -3.31191 6.11013 0
M  V30 1168 H 105.454 -2.48136 3.96921 0
M  V30 1169 H 105.627 -3.21814 5.62441 0
M  V30 1170 N 99.0327 -1.24633 -0.964593 0
M  V30 1171 C 100.263 -1.11339 -1.74032 0
M  V30 1172 C 100.671 0.336593 -1.86182 0
M  V30 1173 O 100.014 1.24389 -1.35178 0
M  V30 1174 C 100.076 -1.68284 -3.1768 0
M  V30 1175 C 99.7397 -3.17196 -3.28992 0
M  V30 1176 C 100.737 -4.14308 -3.14078 0
M  V30 1177 C 98.4217 -3.57215 -3.53133 0
M  V30 1178 C 100.416 -5.4942 -3.23135 0
M  V30 1179 C 98.1027 -4.92468 -3.61827 0
M  V30 1180 C 99.1007 -5.8838 -3.46841 0
M  V30 1181 O 98.7887 -7.21173 -3.55197 0
M  V30 1182 H 98.5207 -0.389551 -0.552472 0
M  V30 1183 H 101.075 -1.65282 -1.21946 0
M  V30 1184 H 99.3047 -1.08777 -3.71085 0
M  V30 1185 H 100.994 -1.50234 -3.77074 0
M  V30 1186 H 101.76 -3.84731 -2.95308 0
M  V30 1187 H 97.6387 -2.83063 -3.63863 0
M  V30 1188 H 101.183 -6.24263 -3.11355 0
M  V30 1189 H 97.0797 -5.21714 -3.80111 0
M  V30 1190 H 97.8477 -7.29135 -3.71892 0
M  V30 1191 N 100.511 1.16574 -1.06058 0
M  V30 1192 C 101.441 2.23057 -0.690488 0
M  V30 1193 C 102.422 1.67141 0.315901 0
M  V30 1194 O 103.607 1.93253 0.191556 0
M  V30 1195 C 100.737 3.47222 -0.073625 0
M  V30 1196 C 99.6908 4.16016 -1.00573 0
M  V30 1197 C 99.0168 5.34104 -0.252289 0
M  V30 1198 C 100.317 4.67264 -2.33371 0
M  V30 1199 H 102.011 2.54271 -1.58072 0
M  V30 1200 H 99.5568 1.22218 -0.76149 0
M  V30 1201 H 101.51 4.20939 0.19714 0
M  V30 1202 H 100.234 3.15302 0.85161 0
M  V30 1203 H 98.8928 3.44223 -1.2612 0
M  V30 1204 H 98.5408 4.98437 0.675988 0
M  V30 1205 H 98.2408 5.81072 -0.873455 0
M  V30 1206 H 99.7648 6.10599 0.0109857 0
M  V30 1207 H 101.179 5.32573 -2.12223 0
M  V30 1208 H 99.5758 5.24843 -2.90963 0
M  V30 1209 H 100.646 3.83602 -2.96611 0
M  V30 1210 N 101.989 0.842826 1.3317 0
M  V30 1211 C 102.899 0.281444 2.32906 0
M  V30 1212 C 103.915 -0.594587 1.63526 0
M  V30 1213 O 105.091 -0.49777 1.95152 0
M  V30 1214 C 102.156 -0.530929 3.42611 0
M  V30 1215 C 101.217 0.369843 4.27704 0
M  V30 1216 C 100.45 -0.403853 5.3217 0
M  V30 1217 O 100.673 -1.63513 5.46461 0
M  V30 1218 O 99.6069 0.224199 6.01482 0
M  V30 1219 H 103.433 1.10744 2.82789 0
M  V30 1220 H 101.018 0.60545 1.36582 0
M  V30 1221 H 102.9 -0.992437 4.09547 0
M  V30 1222 H 101.575 -1.33392 2.94938 0
M  V30 1223 H 100.482 0.879275 3.6362 0
M  V30 1224 H 101.815 1.13771 4.78871 0
M  V30 1225 N 103.467 -1.45747 0.599634 0
M  V30 1226 C 104.414 -2.30467 -0.123849 0
M  V30 1227 C 105.384 -1.41632 -0.86774 0
M  V30 1228 O 106.569 -1.70568 -0.855056 0
M  V30 1229 C 103.709 -3.26402 -1.12051 0
M  V30 1230 C 102.822 -4.3034 -0.37832 0
M  V30 1231 C 101.957 -5.13389 -1.364 0
M  V30 1232 C 100.996 -6.09061 -0.609171 0
M  V30 1233 N 100.133 -6.84918 -1.54374 0
M  V30 1234 H 104.973 -2.91802 0.604627 0
M  V30 1235 H 102.51 -1.43797 0.309972 0
M  V30 1236 H 104.468 -3.80482 -1.7114 0
M  V30 1237 H 103.098 -2.66839 -1.8165 0
M  V30 1238 H 102.15 -3.78984 0.327929 0
M  V30 1239 H 103.462 -4.98354 0.210997 0
M  V30 1240 H 102.616 -5.7183 -2.02719 0
M  V30 1241 H 101.355 -4.45376 -1.98725 0
M  V30 1242 H 100.36 -5.49758 0.0676979 0
M  V30 1243 H 101.585 -6.79099 0.00891991 0
M  V30 1244 H 99.531 -6.19601 -2.15478 0
M  V30 1245 H 99.448 -7.49254 -1.00766 0
M  V30 1246 H 100.716 -7.47906 -2.19676 0
M  V30 1247 N 104.945 -0.338344 -1.53925 0
M  V30 1248 C 106.191 0.252842 -2.01822 0
M  V30 1249 C 106.546 1.48612 -1.22197 0
M  V30 1250 O 105.839 1.89238 -0.299892 0
M  V30 1251 C 106.033 0.62448 -3.51902 0
M  V30 1252 C 105.862 -0.571235 -4.46057 0
M  V30 1253 C 104.632 -1.07493 -4.93734 0
M  V30 1254 C 106.83 -1.42807 -4.94076 0
M  V30 1255 N 104.812 -2.23351 -5.71828 0
M  V30 1256 C 106.183 -2.43362 -5.70241 0
M  V30 1257 C 108.238 -1.45412 -4.76193 0
M  V30 1258 C 106.941 -3.46346 -6.30426 0
M  V30 1259 C 108.967 -2.47274 -5.37224 0
M  V30 1260 C 108.329 -3.46555 -6.13253 0
M  V30 1261 H 104.428 0.0559669 -0.779995 0
M  V30 1262 H 107.012 -0.476732 -1.88773 0
M  V30 1263 H 105.183 1.32317 -3.65167 0
M  V30 1264 H 106.915 1.19841 -3.86549 0
M  V30 1265 H 103.67 -0.643848 -4.69203 0
M  V30 1266 H 104.094 -2.81834 -6.15548 0
M  V30 1267 H 108.736 -0.700171 -4.16962 0
M  V30 1268 H 106.454 -4.22638 -6.88769 0
M  V30 1269 H 110.04 -2.50109 -5.25297 0
M  V30 1270 H 108.92 -4.24083 -6.59638 0
M  V30 1271 N 106.423 1.57458 -0.0668435 0
M  V30 1272 C 107.648 1.9804 0.616027 0
M  V30 1273 C 108.073 0.944771 1.62652 0
M  V30 1274 O 107.431 -0.0902094 1.81075 0
M  V30 1275 C 107.479 3.37665 1.26549 0
M  V30 1276 O 106.583 3.36701 2.38131 0
M  V30 1277 H 105.924 0.644719 0.158849 0
M  V30 1278 H 108.454 2.04121 -0.139891 0
M  V30 1279 H 108.464 3.7474 1.6135 0
M  V30 1280 H 107.139 4.12573 0.525016 0
M  V30 1281 H 105.716 3.1139 2.0516 0
M  V30 1282 N 107.901 -0.206675 1.56239 0
M  V30 1283 C 108.831 -1.25909 1.96645 0
M  V30 1284 C 109.812 -1.48097 0.836734 0
M  V30 1285 O 110.997 -1.6003 1.10019 0
M  V30 1286 C 108.127 -2.6058 2.29599 0
M  V30 1287 C 107.081 -2.53024 3.452 0
M  V30 1288 C 106.407 -3.91861 3.63798 0
M  V30 1289 C 107.707 -2.06524 4.79734 0
M  V30 1290 H 109.401 -0.923369 2.84806 0
M  V30 1291 H 106.947 -0.442735 1.37025 0
M  V30 1292 H 108.9 -3.34375 2.56459 0
M  V30 1293 H 107.624 -2.95869 1.38307 0
M  V30 1294 H 106.283 -1.81684 3.18412 0
M  V30 1295 H 105.931 -4.24483 2.69857 0
M  V30 1296 H 105.631 -3.87683 4.4156 0
M  V30 1297 H 107.155 -4.67296 3.93022 0
M  V30 1298 H 108.569 -2.70072 5.05702 0
M  V30 1299 H 106.966 -2.13374 5.60885 0
M  V30 1300 H 108.036 -1.01802 4.74093 0
M  V30 1301 N 109.379 -1.50304 -0.473955 0
M  V30 1302 C 110.327 -1.69482 -1.59307 0
M  V30 1303 C 111.321 -0.560669 -1.59853 0
M  V30 1304 O 112.527 -0.741087 -1.64036 0
M  V30 1305 H 108.902 -0.534892 -0.528578 0
M  V30 1306 H 110.873 -2.63364 -1.40293 0
M  V30 1307 C 109.622 -1.80354 -2.97267 0
M  V30 1308 H 108.945 -2.67012 -2.97564 0
M  V30 1309 H 110.385 -1.97798 -3.75036 0
M  V30 1310 C 108.844 -0.55448 -3.32306 0
M  V30 1311 O 109.374 0.307661 -4.0052 0
M  V30 1312 N 107.58 -0.409354 -2.87702 0
M  V30 1313 H 107.127 -1.11196 -2.32364 0
M  V30 1314 H 107.085 0.425223 -3.11511 0
M  V30 1315 N 110.857 0.726932 -1.39834 0
M  V30 1316 C 112.273 1.03354 -1.21615 0
M  V30 1317 C 112.473 2.01327 -0.08338 0
M  V30 1318 O 111.529 2.46158 0.56238 0
M  V30 1319 C 112.842 1.58811 -2.55342 0
M  V30 1320 C 114.39 1.70851 -2.62257 0
M  V30 1321 C 114.865 2.29716 -3.96225 0
M  V30 1322 N 116.356 2.37116 -3.97907 0
M  V30 1323 C 117.091 2.83619 -4.98345 0
M  V30 1324 N 116.587 3.29958 -6.09179 0
M  V30 1325 N 118.38 2.82901 -4.8572 0
M  V30 1326 H 110.531 0.0773069 -2.12259 0
M  V30 1327 H 112.794 0.0969102 -0.943034 0
M  V30 1328 H 112.5 0.942855 -3.38826 0
M  V30 1329 H 112.374 2.57502 -2.75632 0
M  V30 1330 H 114.761 2.34497 -1.79152 0
M  V30 1331 H 114.842 0.707913 -2.45809 0
M  V30 1332 H 114.486 1.66696 -4.79765 0
M  V30 1333 H 114.416 3.30469 -4.09997 0
M  V30 1334 H 116.907 2.04374 -3.17868 0
M  V30 1335 H 117.22 3.63976 -6.8172 0
M  V30 1336 H 115.565 3.27946 -6.12761 0
M  V30 1337 H 118.756 2.46027 -3.98231 0
M  V30 1338 H 118.929 3.18827 -5.6414 0
M  V30 1339 N 112.336 1.25143 0.95797 0
M  V30 1340 C 113.266 1.07711 2.07173 0
M  V30 1341 C 114.247 -0.0128462 1.70095 0
M  V30 1342 O 115.432 0.156061 1.93572 0
M  V30 1343 C 112.562 0.691503 3.40346 0
M  V30 1344 C 111.516 1.73132 3.9142 0
M  V30 1345 C 110.842 1.20049 5.21049 0
M  V30 1346 C 112.142 3.1294 4.1817 0
M  V30 1347 H 113.836 2.00873 2.22014 0
M  V30 1348 H 111.382 0.967191 1.06684 0
M  V30 1349 H 113.335 0.556505 4.17709 0
M  V30 1350 H 112.059 -0.275819 3.25433 0
M  V30 1351 H 110.718 1.8547 3.16222 0
M  V30 1352 H 110.366 0.223499 5.02503 0
M  V30 1353 H 110.066 1.89545 5.56189 0
M  V30 1354 H 111.59 1.07782 6.01012 0
M  V30 1355 H 113.004 3.03775 4.86203 0
M  V30 1356 H 111.401 3.79875 4.64559 0
M  V30 1357 H 112.471 3.6025 3.24573 0
M  V30 1358 N 113.814 -1.1601 1.06675 0
M  V30 1359 C 115.039 -1.91068 0.806706 0
M  V30 1360 C 115.464 -1.77112 -0.633485 0
M  V30 1361 O 114.822 -1.09908 -1.44187 0
M  V30 1362 C 114.87 -3.39655 1.21106 0
M  V30 1363 O 113.974 -4.10893 0.352189 0
M  V30 1364 H 113.315 -0.595125 0.294486 0
M  V30 1365 H 115.845 -1.46955 1.42356 0
M  V30 1366 H 115.855 -3.90434 1.18428 0
M  V30 1367 H 114.53 -3.49132 2.26008 0
M  V30 1368 H 113.107 -3.70285 0.440868 0
M  V30 1369 N 115.292 -0.849877 -1.32721 0
M  V30 1370 C 116.538 -0.451591 -1.97708 0
M  V30 1371 C 116.871 0.989175 -1.6712 0
M  V30 1372 O 116.146 1.69334 -0.956891 0
M  V30 1373 C 116.429 -0.685598 -3.53513 0
M  V30 1374 C 116.282 -2.17444 -3.93749 0
M  V30 1375 C 117.601 -0.138874 -4.39881 0
M  V30 1376 H 114.72 -0.16555 -0.718166 0
M  V30 1377 H 117.362 -1.06742 -1.57182 0
M  V30 1378 H 115.512 -0.161416 -3.88165 0
M  V30 1379 H 117.184 -2.76433 -3.693 0
M  V30 1380 H 115.427 -2.65476 -3.43081 0
M  V30 1381 H 116.098 -2.28888 -5.02309 0
M  V30 1382 H 118.574 -0.587068 -4.11938 0
M  V30 1383 H 117.45 -0.332213 -5.47894 0
M  V30 1384 H 117.711 0.95806 -4.31594 0
M  V30 1385 N 116.77 1.45427 -0.607355 0
M  V30 1386 C 118.016 2.0254 -0.102607 0
M  V30 1387 C 118.349 1.47478 1.26348 0
M  V30 1388 O 117.624 0.64939 1.83339 0
M  V30 1389 C 117.907 3.60044 -0.0634347 0
M  V30 1390 C 117.76 4.2544 -1.46017 0
M  V30 1391 C 119.079 4.35646 0.624514 0
M  V30 1392 H 116.198 0.73598 -0.0387607 0
M  V30 1393 H 118.84 1.73284 -0.779282 0
M  V30 1394 H 116.99 3.85101 0.512808 0
M  V30 1395 H 118.662 4.11569 -2.08347 0
M  V30 1396 H 116.905 3.83849 -2.02094 0
M  V30 1397 H 117.576 5.34342 -1.385 0
M  V30 1398 H 120.052 4.15882 0.134723 0
M  V30 1399 H 118.928 5.45376 0.621028 0
M  V30 1400 H 119.189 4.08501 1.69055 0
M  V30 1401 N 118.248 0.346503 1.53744 0
M  V30 1402 C 119.525 -0.304532 1.93215 0
M  V30 1403 C 119.905 -1.67993 1.27834 0
M  V30 1404 O 119.253 -2.24411 0.430352 0
M  V30 1405 C 119.463 -0.373852 3.46992 0
M  V30 1406 C 120.811 -0.62329 4.2 0
M  V30 1407 O 121.835 -0.455847 3.53271 0
M  V30 1408 O 120.694 -0.947879 5.38217 0
M  V30 1409 H 117.788 -0.178318 0.807547 0
M  V30 1410 H 120.334 0.397895 1.64969 0
M  V30 1411 H 119.106 0.591224 3.86808 0
M  V30 1412 H 118.729 -1.12294 3.81413 0
M  V30 1413 N 119.726 -1.57421 0.075193 0
M  V30 1414 C 121.142 -1.57099 -0.281444 0
M  V30 1415 C 121.342 -1.08486 -1.69803 0
M  V30 1416 O 120.398 -0.752279 -2.41033 0
M  V30 1417 C 121.711 -3.00571 -0.0880041 0
M  V30 1418 C 123.259 -3.12605 -0.157281 0
M  V30 1419 C 123.734 -4.57999 0.0079207 0
M  V30 1420 N 125.225 -4.63176 -0.0475725 0
M  V30 1421 C 125.96 -5.73373 0.0557876 0
M  V30 1422 N 125.456 -6.92473 0.21286 0
M  V30 1423 N 127.249 -5.621 -0.00152098 0
M  V30 1424 H 119.4 -1.87335 1.00098 0
M  V30 1425 H 121.663 -0.86377 0.390646 0
M  V30 1426 H 121.369 -3.40262 0.889629 0
M  V30 1427 H 121.243 -3.67754 -0.838875 0
M  V30 1428 H 123.63 -2.72798 -1.1254 0
M  V30 1429 H 123.711 -2.48053 0.62475 0
M  V30 1430 H 123.355 -4.98496 0.972824 0
M  V30 1431 H 123.285 -5.20586 -0.793556 0
M  V30 1432 H 125.776 -3.7753 -0.167244 0
M  V30 1433 H 126.089 -7.72279 0.283781 0
M  V30 1434 H 124.434 -6.94556 0.248267 0
M  V30 1435 H 127.625 -4.67938 -0.122958 0
M  V30 1436 H 127.798 -6.47948 0.0824844 0
M  V30 1437 N 121.204 0.198386 -1.56346 0
M  V30 1438 C 122.152 1.26538 -1.95169 0
M  V30 1439 C 123.146 1.47295 -0.836685 0
M  V30 1440 O 124.352 1.48195 -1.02167 0
M  V30 1441 H 120.727 0.424744 -0.620561 0
M  V30 1442 H 122.698 0.910904 -2.84157 0
M  V30 1443 C 121.447 2.6035 -2.30463 0
M  V30 1444 H 120.77 2.45192 -3.15786 0
M  V30 1445 H 122.21 3.33762 -2.61494 0
M  V30 1446 C 120.669 3.17096 -1.13806 0
M  V30 1447 O 121.199 3.99588 -0.41135 0
M  V30 1448 N 119.405 2.75795 -0.915736 0
M  V30 1449 H 118.952 2.08816 -1.50843 0
M  V30 1450 H 118.91 3.14101 -0.136979 0
M  V30 1451 N 122.682 1.50554 0.465978 0
M  V30 1452 C 123.928 1.62038 1.21949 0
M  V30 1453 C 124.261 0.322116 1.9151 0
M  V30 1454 O 123.536 -0.676723 1.82348 0
M  V30 1455 C 123.819 2.80421 2.25912 0
M  V30 1456 C 123.672 4.20144 1.60622 0
M  V30 1457 C 124.991 2.94354 3.27176 0
M  V30 1458 H 122.11 0.589752 0.441998 0
M  V30 1459 H 124.752 1.82956 0.51257 0
M  V30 1460 H 122.902 2.62717 2.86203 0
M  V30 1461 H 124.574 4.49449 1.03889 0
M  V30 1462 H 122.817 4.24165 0.909211 0
M  V30 1463 H 123.488 4.98914 2.36196 0
M  V30 1464 H 125.964 3.10578 2.76913 0
M  V30 1465 H 124.84 3.788 3.97242 0
M  V30 1466 H 125.101 2.05186 3.916 0
M  V30 1467 N 124.16 -0.719506 1.40217 0
M  V30 1468 C 125.09 -1.8465 1.42922 0
M  V30 1469 C 126.071 -1.67599 0.29062 0
M  V30 1470 O 127.256 -1.87688 0.498677 0
M  V30 1471 C 124.386 -3.22565 1.28722 0
M  V30 1472 C 123.34 -3.54281 2.40144 0
M  V30 1473 C 122.666 -4.91298 2.11023 0
M  V30 1474 C 123.966 -3.55676 3.82481 0
M  V30 1475 H 125.66 -1.82644 2.37237 0
M  V30 1476 H 123.206 -0.877305 1.1419 0
M  V30 1477 H 125.159 -4.01095 1.29232 0
M  V30 1478 H 123.883 -3.25137 0.308811 0
M  V30 1479 H 122.542 -2.78088 2.38877 0
M  V30 1480 H 122.19 -4.90468 1.11582 0
M  V30 1481 H 121.89 -5.13485 2.8567 0
M  V30 1482 H 123.414 -5.72166 2.13209 0
M  V30 1483 H 124.828 -4.24254 3.85592 0
M  V30 1484 H 123.225 -3.89388 4.56614 0
M  V30 1485 H 124.295 -2.55144 4.12346 0
M  V30 1486 N 125.638 -1.25649 -0.95132 0
M  V30 1487 C 127.054 -1.02542 -1.223 0
M  V30 1488 C 127.254 0.255715 -1.99871 0
M  V30 1489 O 126.31 0.967558 -2.33226 0
M  V30 1490 C 127.623 -2.25065 -1.99415 0
M  V30 1491 C 129.171 -2.29861 -2.12446 0
M  V30 1492 C 129.646 -3.52048 -2.92961 0
M  V30 1493 N 131.137 -3.52465 -3.00538 0
M  V30 1494 C 131.872 -4.43672 -3.63239 0
M  V30 1495 N 131.368 -5.45157 -4.27523 0
M  V30 1496 N 133.161 -4.31346 -3.60412 0
M  V30 1497 H 125.312 -2.07951 -0.432471 0
M  V30 1498 H 127.575 -0.91339 -0.253816 0
M  V30 1499 H 127.281 -3.18194 -1.49817 0
M  V30 1500 H 127.155 -2.28502 -3.00111 0
M  V30 1501 H 129.542 -1.37252 -2.61239 0
M  V30 1502 H 129.623 -2.3044 -1.11044 0
M  V30 1503 H 129.267 -4.44981 -2.44856 0
M  V30 1504 H 129.197 -3.48715 -3.94596 0
M  V30 1505 H 131.688 -2.79056 -2.54826 0
M  V30 1506 H 132.001 -6.10958 -4.73234 0
M  V30 1507 H 130.346 -5.49025 -4.26141 0
M  V30 1508 H 133.537 -3.51288 -3.09377 0
M  V30 1509 H 133.71 -5.02624 -4.0899 0
M  V30 1510 N 127.117 1.15442 -1.07289 0
M  V30 1511 C 128.047 2.22312 -0.714107 0
M  V30 1512 C 129.028 1.67467 0.298155 0
M  V30 1513 O 130.213 1.93445 0.171048 0
M  V30 1514 C 127.343 3.47124 -0.110448 0
M  V30 1515 C 126.297 4.14926 -1.04979 0
M  V30 1516 C 125.623 5.33807 -0.308924 0
M  V30 1517 C 126.923 4.64762 -2.38314 0
M  V30 1518 H 128.617 2.5258 -1.6076 0
M  V30 1519 H 126.163 1.21404 -0.77441 0
M  V30 1520 H 128.116 4.21124 0.152482 0
M  V30 1521 H 126.84 3.16187 0.81812 0
M  V30 1522 H 125.499 3.42866 -1.29764 0
M  V30 1523 H 125.147 4.99126 0.623084 0
M  V30 1524 H 124.847 5.80113 -0.935036 0
M  V30 1525 H 126.371 6.10576 -0.0537771 0
M  V30 1526 H 127.785 5.30292 -2.1786 0
M  V30 1527 H 126.182 5.21728 -2.96514 0
M  V30 1528 H 127.252 3.80434 -3.00663 0
M  V30 1529 N 128.595 0.856903 1.32268 0
M  V30 1530 C 129.558 0.308171 2.27119 0
M  V30 1531 C 130.558 -0.533421 1.51695 0
M  V30 1532 O 131.748 -0.344607 1.70757 0
M  V30 1533 C 128.88 -0.563757 3.36206 0
M  V30 1534 H 130.073 1.14535 2.77167 0
M  V30 1535 H 127.626 0.631421 1.42978 0
M  V30 1536 H 128.361 -1.42266 2.91429 0
M  V30 1537 H 128.146 0.0386749 3.92081 0
M  V30 1538 H 129.636 -0.940386 4.06874 0
M  V30 1539 N 130.073 -1.45103 0.615059 0
M  V30 1540 C 131.301 -2.06553 0.11977 0
M  V30 1541 C 131.716 -1.45842 -1.19898 0
M  V30 1542 O 131.073 -0.575325 -1.73194 0
M  V30 1543 C 131.124 -3.61495 -0.018364 0
M  V30 1544 O 130.845 -4.19942 1.24822 0
M  V30 1545 C 132.346 -4.39947 -0.544237 0
M  V30 1546 H 129.566 -0.667096 0.0722739 0
M  V30 1547 H 132.11 -1.8623 0.84491 0
M  V30 1548 H 130.265 -3.81135 -0.693865 0
M  V30 1549 H 130.679 -5.13204 1.0827 0
M  V30 1550 H 132.153 -5.48838 -0.589953 0
M  V30 1551 H 132.63 -4.10255 -1.56805 0
M  V30 1552 H 133.236 -4.25188 0.0974703 0
M  V30 1553 N 131.551 -0.354651 -1.53558 0
M  V30 1554 C 132.781 0.239167 -2.05211 0
M  V30 1555 C 133.189 1.43879 -1.22863 0
M  V30 1556 O 132.532 1.81857 -0.259565 0
M  V30 1557 C 132.594 0.707251 -3.52474 0
M  V30 1558 C 132.258 -0.374212 -4.55465 0
M  V30 1559 C 133.255 -1.22054 -5.0537 0
M  V30 1560 C 130.94 -0.531323 -4.99482 0
M  V30 1561 C 132.934 -2.20942 -5.97882 0
M  V30 1562 C 130.621 -1.52358 -5.91802 0
M  V30 1563 C 131.619 -2.36108 -6.40892 0
M  V30 1564 O 131.307 -3.33643 -7.31394 0
M  V30 1565 H 131.039 0.0479716 -0.674296 0
M  V30 1566 H 133.593 -0.508121 -1.99016 0
M  V30 1567 H 131.823 1.50596 -3.56171 0
M  V30 1568 H 133.512 1.22285 -3.87042 0
M  V30 1569 H 134.278 -1.1103 -4.7212 0
M  V30 1570 H 130.157 0.110738 -4.60867 0
M  V30 1571 H 133.701 -2.86348 -6.36121 0
M  V30 1572 H 129.598 -1.63434 -6.24467 0
M  V30 1573 H 130.366 -3.29244 -7.4936 0
M  V30 1574 N 133.029 1.57378 -0.0835403 0
M  V30 1575 C 133.939 2.16897 0.894021 0
M  V30 1576 C 134.955 1.13528 1.31861 0
M  V30 1577 O 136.131 1.45848 1.3889 0
M  V30 1578 C 133.196 2.72831 2.13925 0
M  V30 1579 C 132.257 3.91115 1.76997 0
M  V30 1580 C 131.49 4.44371 2.95584 0
M  V30 1581 O 131.713 3.96596 4.09961 0
M  V30 1582 O 130.647 5.35549 2.74719 0
M  V30 1583 H 134.473 3.00814 0.417679 0
M  V30 1584 H 132.058 1.48741 0.140181 0
M  V30 1585 H 133.94 3.0863 2.86924 0
M  V30 1586 H 132.615 1.91967 2.60635 0
M  V30 1587 H 131.522 3.60148 1.01214 0
M  V30 1588 H 132.855 4.73307 1.3506 0
M  V30 1589 N 134.507 -0.190092 1.56449 0
M  V30 1590 C 135.437 -1.23816 1.97969 0
M  V30 1591 C 136.418 -1.47201 0.852395 0
M  V30 1592 O 137.603 -1.58854 1.1171 0
M  V30 1593 C 134.733 -2.5813 2.3235 0
M  V30 1594 C 133.687 -2.49348 3.47864 0
M  V30 1595 C 133.013 -3.8798 3.67934 0
M  V30 1596 C 134.313 -2.01424 4.81898 0
M  V30 1597 H 136.007 -0.89311 2.85769 0
M  V30 1598 H 133.553 -0.428177 1.37487 0
M  V30 1599 H 135.506 -3.31637 2.59991 0
M  V30 1600 H 134.23 -2.94386 1.41438 0
M  V30 1601 H 132.889 -1.78297 3.20321 0
M  V30 1602 H 132.537 -4.21597 2.74344 0
M  V30 1603 H 132.237 -3.82978 4.45648 0
M  V30 1604 H 133.761 -4.63101 3.97957 0
M  V30 1605 H 135.175 -2.64693 5.08538 0
M  V30 1606 H 133.572 -2.07413 5.63116 0
M  V30 1607 H 134.642 -0.967677 4.75146 0
M  V30 1608 N 135.985 -1.50799 -0.457987 0
M  V30 1609 C 136.915 -1.73553 -1.5621 0
M  V30 1610 C 137.896 -0.584774 -1.59732 0
M  V30 1611 O 139.081 -0.825314 -1.7579 0
M  V30 1612 C 136.211 -1.84169 -2.94447 0
M  V30 1613 C 135.165 -2.99461 -3.0579 0
M  V30 1614 C 134.491 -2.95235 -4.45803 0
M  V30 1615 C 135.791 -4.39766 -2.81786 0
M  V30 1616 H 137.485 -2.66 -1.37421 0
M  V30 1617 H 135.031 -1.28002 -0.659662 0
M  V30 1618 H 136.984 -1.98672 -3.71628 0
M  V30 1619 H 135.708 -0.883545 -3.14422 0
M  V30 1620 H 134.367 -2.8463 -2.31044 0
M  V30 1621 H 134.015 -1.97239 -4.62715 0
M  V30 1622 H 133.715 -3.72642 -4.54326 0
M  V30 1623 H 135.239 -3.11803 -5.24987 0
M  V30 1624 H 136.653 -4.55054 -3.4871 0
M  V30 1625 H 135.05 -5.18722 -3.0174 0
M  V30 1626 H 136.12 -4.51229 -1.7754 0
M  V30 1627 N 137.463 0.71206 -1.40597 0
M  V30 1628 C 138.71 1.47197 -1.39065 0
M  V30 1629 C 139.038 1.94499 0.00583891 0
M  V30 1630 O 138.293 1.68752 0.99102 0
M  V30 1631 C 138.592 2.71039 -2.32965 0
M  V30 1632 C 138.258 2.42484 -3.80148 0
M  V30 1633 C 136.92 2.34406 -4.20247 0
M  V30 1634 C 139.272 2.18598 -4.73143 0
M  V30 1635 C 136.6 2.00516 -5.51371 0
M  V30 1636 C 138.952 1.8622 -6.0457 0
M  V30 1637 C 137.616 1.76626 -6.43708 0
M  V30 1638 H 136.886 0.538634 -0.508876 0
M  V30 1639 H 139.533 0.815325 -1.73276 0
M  V30 1640 H 137.838 3.41558 -1.91951 0
M  V30 1641 H 139.535 3.29138 -2.29061 0
M  V30 1642 H 136.125 2.49659 -3.4838 0
M  V30 1643 H 140.309 2.23793 -4.42979 0
M  V30 1644 H 135.565 1.91628 -5.80593 0
M  V30 1645 H 139.739 1.66752 -6.76141 0
M  V30 1646 H 137.366 1.50133 -7.45228 0
M  V30 1647 N 138.941 1.26152 0.944643 0
M  V30 1648 C 139.851 1.09176 2.07648 0
M  V30 1649 C 140.867 0.0261935 1.7398 0
M  V30 1650 O 142.043 0.229208 2.00091 0
M  V30 1651 C 139.108 0.722915 3.39079 0
M  V30 1652 C 138.169 1.86752 3.86552 0
M  V30 1653 C 137.402 1.51617 5.11711 0
M  V30 1654 O 137.625 0.416331 5.68879 0
M  V30 1655 O 136.559 2.34975 5.54139 0
M  V30 1656 H 140.385 2.0412 2.24875 0
M  V30 1657 H 137.97 1.05182 1.061 0
M  V30 1658 H 139.852 0.529787 4.18056 0
M  V30 1659 H 138.527 -0.197159 3.23099 0
M  V30 1660 H 137.434 2.11558 3.08535 0
M  V30 1661 H 138.767 2.76719 4.07047 0
M  V30 1662 N 140.419 -1.14872 1.07899 0
M  V30 1663 C 141.366 -2.19791 0.704319 0
M  V30 1664 C 142.336 -1.63238 -0.306987 0
M  V30 1665 O 143.521 -1.8983 -0.192171 0
M  V30 1666 C 140.661 -3.44911 0.114244 0
M  V30 1667 C 139.774 -4.15637 1.1777 0
M  V30 1668 C 138.909 -5.28324 0.552037 0
M  V30 1669 C 137.948 -5.90875 1.59789 0
M  V30 1670 N 137.085 -6.95022 0.994404 0
M  V30 1671 H 141.925 -2.5119 1.60336 0
M  V30 1672 H 139.462 -1.23356 0.801352 0
M  V30 1673 H 141.42 -4.16477 -0.245544 0
M  V30 1674 H 140.05 -3.14011 -0.74813 0
M  V30 1675 H 139.102 -3.42512 1.65499 0
M  V30 1676 H 140.414 -4.5823 1.97046 0
M  V30 1677 H 139.568 -6.06538 0.1402 0
M  V30 1678 H 138.307 -4.86939 -0.272431 0
M  V30 1679 H 137.312 -5.11369 2.01945 0
M  V30 1680 H 138.537 -6.34337 2.42474 0
M  V30 1681 H 136.483 -6.55722 0.190939 0
M  V30 1682 H 136.4 -7.36073 1.72432 0
M  V30 1683 H 137.668 -7.77123 0.608253 0
M  V30 1684 N 141.898 -0.863906 -1.31812 0
M  V30 1685 C 143.175 -0.39275 -1.91616 0
M  V30 1686 C 143.555 1.12461 -1.7865 0
M  V30 1687 O 142.903 1.95045 -1.19037 0
M  V30 1688 C 143.113 -0.867385 -3.38049 0
M  V30 1689 C 144.461 -0.889966 -4.15168 0
M  V30 1690 O 145.485 -0.812635 -3.46806 0
M  V30 1691 O 144.344 -1.00079 -5.37258 0
M  V30 1692 H 141.438 -0.116358 -0.818773 0
M  V30 1693 H 143.984 -0.951418 -1.40521 0
M  V30 1694 H 142.756 -1.91081 -3.41473 0
M  V30 1695 H 142.379 -0.286687 -3.96565 0
M  V30 1696 N 143.376 1.44774 -0.622745 0
M  V30 1697 C 144.625 2.01334 -0.121397 0
M  V30 1698 C 144.938 1.49505 1.26125 0
M  V30 1699 O 146.144 1.98139 1.85616 0
M  V30 1700 C 144.6 3.59516 -0.166298 0
M  V30 1701 C 144.208 4.20342 -1.54974 0
M  V30 1702 C 145.952 4.23582 0.279021 0
M  V30 1703 C 143.859 5.70721 -1.55021 0
M  V30 1704 H 142.789 0.752851 -0.0416172 0
M  V30 1705 H 145.44 1.66083 -0.780309 0
M  V30 1706 H 143.822 3.92027 0.559557 0
M  V30 1707 H 144.996 3.99381 -2.29851 0
M  V30 1708 H 143.311 3.68529 -1.93843 0
M  V30 1709 H 145.908 5.33868 0.298083 0
M  V30 1710 H 146.251 3.95327 1.30471 0
M  V30 1711 H 146.784 3.95843 -0.394063 0
M  V30 1712 H 143.523 6.03698 -2.55399 0
M  V30 1713 H 143.043 5.93829 -0.844245 0
M  V30 1714 H 144.722 6.34203 -1.28047 0
M  V30 1715 N 144.854 0.36279 1.53368 0
M  V30 1716 C 146.265 -0.117022 1.86333 0
M  V30 1717 C 146.616 -1.48397 1.28347 0
M  V30 1718 O 145.741 -2.07787 0.604428 0
M  V30 1719 C 146.336 -0.21912 3.38091 0
M  V30 1720 C 144.895 -0.643184 3.70864 0
M  V30 1721 C 144.042 0.211318 2.76494 0
M  V30 1722 H 146.993 0.581687 1.47655 0
M  V30 1723 H 147.014 -1.04319 3.6592 0
M  V30 1724 H 146.526 0.775902 3.80265 0
M  V30 1725 H 144.627 -1.64654 3.34245 0
M  V30 1726 H 144.74 -0.41973 4.77258 0
M  V30 1727 H 143.104 -0.319367 2.5269 0
M  V30 1728 H 143.887 1.20383 3.21501 0
M  V30 1729 N 146.332 -1.57332 0.0918853 0
M  V30 1730 C 147.581 -1.93412 -0.572249 0
M  V30 1731 C 147.894 -0.975515 -1.69538 0
M  V30 1732 O 149.1 -1.22991 -2.42045 0
M  V30 1733 C 147.556 -3.43648 -1.0693 0
M  V30 1734 C 147.164 -4.47994 0.0239049 0
M  V30 1735 C 148.908 -3.88695 -1.70635 0
M  V30 1736 C 146.815 -5.89381 -0.488319 0
M  V30 1737 H 145.745 -0.721939 -0.217532 0
M  V30 1738 H 148.396 -1.82735 0.167369 0
M  V30 1739 H 146.778 -3.49466 -1.8625 0
M  V30 1740 H 147.952 -4.53815 0.799277 0
M  V30 1741 H 146.267 -4.12536 0.565946 0
M  V30 1742 H 148.864 -4.91725 -2.10025 0
M  V30 1743 H 149.207 -3.27166 -2.57426 0
M  V30 1744 H 149.74 -3.85564 -0.979023 0
M  V30 1745 H 146.479 -6.54602 0.342906 0
M  V30 1746 H 145.999 -5.87037 -1.23077 0
M  V30 1747 H 147.678 -6.39863 -0.958317 0
M  V30 1748 N 147.81 0.181792 -1.56548 0
M  V30 1749 C 148.72 1.24538 -1.98815 0
M  V30 1750 C 149.736 1.49045 -0.897861 0
M  V30 1751 O 150.912 1.61399 -1.20467 0
M  V30 1752 C 147.977 2.56683 -2.33055 0
M  V30 1753 C 147.038 2.40131 -3.55859 0
M  V30 1754 C 146.271 3.65975 -3.88456 0
M  V30 1755 O 146.494 4.70711 -3.22161 0
M  V30 1756 O 145.428 3.6071 -4.81842 0
M  V30 1757 H 149.254 0.916647 -2.89536 0
M  V30 1758 H 146.839 0.387842 -1.44278 0
M  V30 1759 H 148.721 3.34655 -2.56094 0
M  V30 1760 H 147.396 2.89157 -1.45498 0
M  V30 1761 H 146.303 1.60226 -3.38051 0
M  V30 1762 H 147.636 2.12585 -4.43924 0
M  V30 1763 N 149.288 1.51039 0.449983 0
M  V30 1764 C 150.534 1.63322 1.20223 0
M  V30 1765 C 150.867 0.34241 1.91158 0
M  V30 1766 O 150.142 -0.657344 1.83055 0
M  V30 1767 C 150.425 2.82801 2.22925 0
M  V30 1768 C 150.278 4.21823 1.56157 0
M  V30 1769 C 151.597 2.97807 3.24035 0
M  V30 1770 H 148.716 0.594407 0.435718 0
M  V30 1771 H 151.358 1.83489 0.493136 0
M  V30 1772 H 149.508 2.65738 2.834 0
M  V30 1773 H 151.18 4.50526 0.991162 0
M  V30 1774 H 149.423 4.25105 0.864172 0
M  V30 1775 H 150.094 5.01391 2.30891 0
M  V30 1776 H 152.57 3.13497 2.73603 0
M  V30 1777 H 151.446 3.82992 3.93202 0
M  V30 1778 H 151.707 2.09328 3.89402 0
M  V30 1779 N 150.766 -0.704594 1.40972 0
M  V30 1780 C 151.994 -1.49354 1.43182 0
M  V30 1781 C 152.409 -1.88768 0.0345508 0
M  V30 1782 O 151.766 -1.56184 -0.944081 0
M  V30 1783 C 151.817 -2.76187 2.33244 0
M  V30 1784 O 151.538 -2.38436 3.67532 0
M  V30 1785 C 153.039 -3.7 2.44162 0
M  V30 1786 H 150.259 -0.460559 0.487982 0
M  V30 1787 H 152.803 -0.868261 1.85153 0
M  V30 1788 H 150.958 -3.34974 1.94606 0
M  V30 1789 H 151.372 -3.20126 4.15475 0
M  V30 1790 H 152.846 -4.55803 3.11364 0
M  V30 1791 H 153.323 -4.13867 1.47006 0
M  V30 1792 H 153.929 -3.17121 2.83398 0
M  V30 1793 N 152.244 -1.26651 -0.937939 0
M  V30 1794 C 153.493 -1.11775 -1.67897 0
M  V30 1795 C 153.806 0.33794 -1.92659 0
M  V30 1796 O 155.012 0.607434 -2.64618 0
M  V30 1797 C 153.468 -1.9523 -3.02346 0
M  V30 1798 C 153.076 -3.45393 -2.8532 0
M  V30 1799 C 154.82 -1.88972 -3.80118 0
M  V30 1800 C 152.727 -4.21083 -4.15263 0
M  V30 1801 H 151.657 -0.414696 -0.629717 0
M  V30 1802 H 154.308 -1.50988 -1.04283 0
M  V30 1803 H 152.69 -1.48853 -3.66959 0
M  V30 1804 H 153.864 -3.99561 -2.29537 0
M  V30 1805 H 152.179 -3.52921 -2.20988 0
M  V30 1806 H 154.776 -2.42805 -4.76392 0
M  V30 1807 H 155.119 -0.86113 -4.07296 0
M  V30 1808 H 155.652 -2.33189 -3.22285 0
M  V30 1809 H 152.391 -5.24425 -3.93267 0
M  V30 1810 H 151.911 -3.71695 -4.70747 0
M  V30 1811 H 153.59 -4.29706 -4.83696 0
M  V30 1812 N 153.722 1.14298 -1.08507 0
M  V30 1813 C 154.999 1.81544 -0.728088 0
M  V30 1814 C 155.379 1.95838 0.78808 0
M  V30 1815 O 154.727 1.51904 1.70697 0
M  V30 1816 C 154.937 3.17169 -1.45619 0
M  V30 1817 C 156.285 3.9265 -1.61591 0
M  V30 1818 O 157.309 3.26762 -1.41793 0
M  V30 1819 O 156.168 5.10807 -1.94263 0
M  V30 1820 H 153.262 0.78491 -0.260471 0
M  V30 1821 H 155.808 1.21307 -1.18671 0
M  V30 1822 H 154.58 3.01934 -2.489 0
M  V30 1823 H 154.203 3.851 -0.989124 0
M  V30 1824 N 155.201 0.870884 1.31352 0
M  V30 1825 C 156.111 0.330783 2.32256 0
M  V30 1826 C 157.127 -0.559767 1.6475 0
M  V30 1827 O 158.303 -0.456263 1.96164 0
M  V30 1828 C 155.368 -0.458137 3.4366 0
M  V30 1829 C 154.429 0.460482 4.26823 0
M  V30 1830 C 153.662 -0.290881 5.32907 0
M  V30 1831 O 153.885 -1.51885 5.49806 0
M  V30 1832 O 152.819 0.351732 6.00871 0
M  V30 1833 H 156.645 1.16718 2.80376 0
M  V30 1834 H 154.23 0.634285 1.35267 0
M  V30 1835 H 156.112 -0.905343 4.1156 0
M  V30 1836 H 154.787 -1.27106 2.97701 0
M  V30 1837 H 153.694 0.956207 3.61673 0
M  V30 1838 H 155.027 1.23903 4.7635 0
M  V30 1839 N 156.679 -1.44442 0.630414 0
M  V30 1840 C 157.642 -2.29107 -0.0652523 0
M  V30 1841 C 158.642 -1.41002 -0.772995 0
M  V30 1842 O 159.832 -1.62881 -0.617692 0
M  V30 1843 C 156.964 -3.22564 -1.10296 0
M  V30 1844 H 158.157 -2.92103 0.679401 0
M  V30 1845 H 155.71 -1.51343 0.390517 0
M  V30 1846 H 156.445 -2.64416 -1.87762 0
M  V30 1847 H 156.23 -3.87491 -0.59941 0
M  V30 1848 H 157.72 -3.86167 -1.5895 0
M  V30 1849 N 158.157 -0.370918 -1.53173 0
M  V30 1850 C 159.406 0.218249 -2.00516 0
M  V30 1851 C 159.719 1.49429 -1.26215 0
M  V30 1852 O 160.925 2.16239 -1.64174 0
M  V30 1853 C 159.381 0.43948 -3.57207 0
M  V30 1854 C 158.989 -0.822244 -4.4039 0
M  V30 1855 C 160.733 0.986012 -4.1289 0
M  V30 1856 C 158.64 -0.570304 -5.88644 0
M  V30 1857 H 157.57 0.0853333 -0.749156 0
M  V30 1858 H 160.221 -0.490483 -1.76823 0
M  V30 1859 H 158.603 1.20961 -3.77074 0
M  V30 1860 H 159.777 -1.59557 -4.32294 0
M  V30 1861 H 158.092 -1.29238 -3.95836 0
M  V30 1862 H 160.689 1.18991 -5.21292 0
M  V30 1863 H 161.032 1.94972 -3.6782 0
M  V30 1864 H 161.565 0.27592 -3.96842 0
M  V30 1865 H 158.304 -1.50449 -6.38001 0
M  V30 1866 H 157.824 0.164427 -5.99575 0
M  V30 1867 H 159.503 -0.19784 -6.46697 0
M  V30 1868 N 159.635 1.57281 -0.100228 0
M  V30 1869 C 160.545 2.17833 0.870965 0
M  V30 1870 C 161.561 1.14921 1.30649 0
M  V30 1871 O 162.737 1.47313 1.37335 0
M  V30 1872 C 159.802 2.75085 2.1102 0
M  V30 1873 C 158.863 3.9297 1.72838 0
M  V30 1874 C 158.096 4.47482 2.90854 0
M  V30 1875 O 158.319 4.00922 4.05731 0
M  V30 1876 O 157.253 5.38433 2.69023 0
M  V30 1877 H 161.079 3.0124 0.38575 0
M  V30 1878 H 158.664 1.48881 0.124397 0
M  V30 1879 H 160.546 3.11656 2.83634 0
M  V30 1880 H 159.221 1.94721 2.58584 0
M  V30 1881 H 158.128 3.61201 0.973883 0
M  V30 1882 H 159.461 4.74713 1.30033 0
M  V30 1883 N 161.113 -0.173488 1.56642 0
M  V30 1884 C 162.362 -0.888758 1.81063 0
M  V30 1885 C 162.675 -1.83506 0.67712 0
M  V30 1886 O 163.881 -2.59254 0.806206 0
M  V30 1887 C 162.337 -1.63091 3.20826 0
M  V30 1888 C 161.945 -0.728357 4.4204 0
M  V30 1889 C 163.689 -2.33454 3.54541 0
M  V30 1890 C 161.596 -1.47062 5.72823 0
M  V30 1891 H 160.526 -0.335618 0.675186 0
M  V30 1892 H 163.177 -0.141712 1.82952 0
M  V30 1893 H 161.559 -2.42263 3.13248 0
M  V30 1894 H 162.733 0.0262449 4.60793 0
M  V30 1895 H 161.048 -0.134492 4.16183 0
M  V30 1896 H 163.645 -2.89578 4.49498 0
M  V30 1897 H 163.988 -3.08687 2.79317 0
M  V30 1898 H 164.521 -1.61227 3.63663 0
M  V30 1899 H 161.26 -0.760658 6.51072 0
M  V30 1900 H 160.78 -2.1986 5.58052 0
M  V30 1901 H 162.459 -2.01868 6.14702 0
M  V30 1902 N 162.591 -1.51276 -0.441967 0
M  V30 1903 C 163.554 -1.7167 -1.51862 0
M  V30 1904 C 164.554 -0.586793 -1.49711 0
M  V30 1905 O 165.744 -0.854276 -1.51815 0
M  V30 1906 C 162.876 -1.76889 -2.91416 0
M  V30 1907 H 164.069 -2.67754 -1.35084 0
M  V30 1908 H 161.622 -1.41196 -0.670333 0
M  V30 1909 H 162.357 -0.826026 -3.13604 0
M  V30 1910 H 162.142 -2.59001 -2.94382 0
M  V30 1911 H 163.632 -1.94522 -3.69528 0
M  V30 1912 N 164.069 0.697108 -1.41344 0
M  V30 1913 C 165.016 1.81106 -1.43071 0
M  V30 1914 C 165.986 1.63632 -0.285275 0
M  V30 1915 O 167.171 1.84504 -0.486091 0
M  V30 1916 C 164.311 3.18975 -1.31715 0
M  V30 1917 C 163.424 3.47892 -2.56115 0
M  V30 1918 C 162.559 4.75367 -2.37064 0
M  V30 1919 C 161.598 4.97247 -3.56948 0
M  V30 1920 N 160.735 6.15947 -3.36977 0
M  V30 1921 H 165.575 1.78965 -2.38276 0
M  V30 1922 H 163.112 0.873975 -1.18322 0
M  V30 1923 H 165.07 3.98615 -1.23133 0
M  V30 1924 H 163.7 3.20297 -0.401183 0
M  V30 1925 H 162.752 2.62669 -2.75153 0
M  V30 1926 H 164.064 3.59962 -3.45295 0
M  V30 1927 H 163.218 5.63059 -2.25941 0
M  V30 1928 H 161.957 4.65541 -1.45338 0
M  V30 1929 H 160.962 4.08004 -3.68527 0
M  V30 1930 H 162.187 5.08934 -4.49626 0
M  V30 1931 H 160.133 6.07336 -2.47949 0
M  V30 1932 H 160.05 6.28777 -4.19732 0
M  V30 1933 H 161.318 7.06377 -3.29623 0
M  V30 1934 N 165.547 1.27147 0.931209 0
M  V30 1935 C 166.963 1.04475 1.20653 0
M  V30 1936 C 167.163 -0.223885 2.00252 0
M  V30 1937 O 166.219 -0.930332 2.34736 0
M  V30 1938 C 167.532 2.28209 1.95809 0
M  V30 1939 C 169.08 2.33211 2.08762 0
M  V30 1940 C 169.555 3.56665 2.87323 0
M  V30 1941 N 171.046 3.57201 2.94892 0
M  V30 1942 C 171.781 4.49395 3.56134 0
M  V30 1943 N 171.277 5.51889 4.18796 0
M  V30 1944 N 173.07 4.37026 3.53504 0
M  V30 1945 H 165.221 2.08612 0.399333 0
M  V30 1946 H 167.484 0.917312 0.239253 0
M  V30 1947 H 167.19 3.20538 1.44736 0
M  V30 1948 H 167.064 2.33247 2.96438 0
M  V30 1949 H 169.451 1.41391 2.59023 0
M  V30 1950 H 169.532 2.32178 1.07364 0
M  V30 1951 H 169.176 4.4882 2.37746 0
M  V30 1952 H 169.106 3.54948 3.88998 0
M  V30 1953 H 171.597 2.83074 2.50354 0
M  V30 1954 H 171.91 6.18409 4.63454 0
M  V30 1955 H 170.255 5.55735 4.17353 0
M  V30 1956 H 173.446 3.56166 3.03749 0
M  V30 1957 H 173.619 5.09067 4.00942 0
M  V30 1958 N 167.025 -1.13721 1.09112 0
M  V30 1959 C 168.255 -1.88499 0.845671 0
M  V30 1960 C 168.663 -1.79218 -0.606432 0
M  V30 1961 O 168.006 -1.1544 -1.42896 0
M  V30 1962 C 168.068 -3.38954 1.19793 0
M  V30 1963 C 167.732 -3.72018 2.65428 0
M  V30 1964 C 168.729 -3.7153 3.63677 0
M  V30 1965 C 166.414 -4.01775 3.01467 0
M  V30 1966 C 168.408 -4.00336 4.95994 0
M  V30 1967 C 166.095 -4.30243 4.33975 0
M  V30 1968 C 167.093 -4.29508 5.31048 0
M  V30 1969 O 166.781 -4.5728 6.61173 0
M  V30 1970 H 166.513 -0.603702 0.304171 0
M  V30 1971 H 169.067 -1.44903 1.45576 0
M  V30 1972 H 167.297 -3.83039 0.530871 0
M  V30 1973 H 168.986 -3.95052 0.932146 0
M  V30 1974 H 169.752 -3.4862 3.37179 0
M  V30 1975 H 165.631 -4.01496 2.26544 0
M  V30 1976 H 169.175 -3.99678 5.71755 0
M  V30 1977 H 165.072 -4.52625 4.60219 0
M  V30 1978 H 165.84 -4.74964 6.66597 0
M  V30 1979 N 168.503 -0.877838 -1.30888 0
M  V30 1980 C 169.751 -0.491723 -1.96027 0
M  V30 1981 C 170.072 0.960827 -1.69685 0
M  V30 1982 O 169.342 1.67462 -1.01654 0
M  V30 1983 H 167.922 -0.17885 -0.725273 0
M  V30 1984 H 170.584 -1.11935 -1.59551 0
M  V30 1985 H 169.68 -0.656016 -3.05128 0
M  V30 1986 N 169.982 1.44106 -0.638065 0
M  V30 1987 C 171.21 2.06336 -0.152615 0
M  V30 1988 C 171.625 1.47731 1.17563 0
M  V30 1989 O 170.982 0.602806 1.72257 0
M  V30 1990 C 171.033 3.61479 -0.0391491 0
M  V30 1991 O 170.754 4.17903 -1.31487 0
M  V30 1992 C 172.255 4.40757 0.474176 0
M  V30 1993 H 169.475 0.665862 -0.0828776 0
M  V30 1994 H 172.019 1.84862 -0.87443 0
M  V30 1995 H 170.174 3.82191 0.633142 0
M  V30 1996 H 170.588 5.11416 -1.16421 0
M  V30 1997 H 172.062 5.49707 0.502562 0
M  V30 1998 H 172.539 4.12697 1.50258 0
M  V30 1999 H 173.145 4.24979 -0.165102 0
M  V30 2000 N 171.46 0.379036 1.52974 0
M  V30 2001 C 172.37 -0.468639 2.29872 0
M  V30 2002 C 173.386 -1.08067 1.36373 0
M  V30 2003 O 174.562 -1.08871 1.69438 0
M  V30 2004 C 171.627 -1.58594 3.083 0
M  V30 2005 C 170.688 -1.00007 4.17489 0
M  V30 2006 C 169.921 -2.06413 4.92168 0
M  V30 2007 O 170.144 -3.27751 4.66835 0
M  V30 2008 O 169.078 -1.68717 5.7777 0
M  V30 2009 H 172.904 0.157508 3.03291 0
M  V30 2010 H 170.489 0.143035 1.48714 0
M  V30 2011 H 172.371 -2.23525 3.57232 0
M  V30 2012 H 171.046 -2.19724 2.37703 0
M  V30 2013 H 169.953 -0.314299 3.72777 0
M  V30 2014 H 171.286 -0.433135 4.90291 0
M  V30 2015 N 172.938 -1.57226 0.108567 0
M  V30 2016 C 173.886 -2.16002 -0.862885 0
M  V30 2017 C 174.88 -1.10644 -1.28274 0
M  V30 2018 O 176.086 -1.28966 -1.2557 0
M  V30 2019 H 172.461 -0.691148 -0.296342 0
M  V30 2020 H 174.432 -2.96427 -0.342575 0
M  V30 2021 C 173.181 -2.76576 -2.10716 0
M  V30 2022 H 172.504 -3.5734 -1.793 0
M  V30 2023 H 173.944 -3.21253 -2.76717 0
M  V30 2024 C 172.403 -1.73137 -2.89007 0
M  V30 2025 O 172.933 -1.17842 -3.84026 0
M  V30 2026 N 171.139 -1.43317 -2.52801 0
M  V30 2027 H 170.686 -1.88473 -1.75601 0
M  V30 2028 H 170.644 -0.743485 -3.05483 0
M  V30 2029 N 174.416 0.165178 -1.56732 0
M  V30 2030 C 175.641 0.900253 -1.86843 0
M  V30 2031 C 176.066 1.74766 -0.695596 0
M  V30 2032 O 175.424 1.77786 0.35522 0
M  V30 2033 C 175.472 1.74777 -3.15413 0
M  V30 2034 O 174.576 2.85007 -2.98068 0
M  V30 2035 H 173.917 0.251832 -0.614391 0
M  V30 2036 H 176.447 0.161468 -2.03962 0
M  V30 2037 H 176.457 2.14646 -3.46974 0
M  V30 2038 H 175.132 1.12537 -4.00385 0
M  V30 2039 H 173.709 2.48676 -2.77875 0
M  V30 2040 N 175.894 1.51508 0.433938 0
M  V30 2041 C 177.142 1.6402 1.18075 0
M  V30 2042 C 177.463 0.360328 1.91642 0
M  V30 2043 O 176.733 -0.623945 1.85698 0
M  V30 2044 H 175.313 0.6045 0.43885 0
M  V30 2045 H 177.975 1.88452 0.497178 0
M  V30 2046 H 177.071 2.46949 1.90847 0
M  V30 2047 N 177.372 -0.689602 1.41712 0
M  V30 2048 C 178.319 -1.80345 1.44029 0
M  V30 2049 C 179.289 -1.63478 0.293948 0
M  V30 2050 O 180.474 -1.84244 0.495869 0
M  V30 2051 C 177.614 -3.18272 1.33405 0
M  V30 2052 C 176.727 -3.46529 2.57956 0
M  V30 2053 C 175.862 -4.74103 2.39582 0
M  V30 2054 C 174.901 -4.95347 3.5958 0
M  V30 2055 N 174.038 -6.14151 3.40239 0
M  V30 2056 H 178.878 -1.77698 2.39222 0
M  V30 2057 H 176.415 -0.867688 1.18784 0
M  V30 2058 H 178.373 -3.97956 1.25246 0
M  V30 2059 H 177.003 -3.2008 0.418164 0
M  V30 2060 H 176.055 -2.61207 2.76542 0
M  V30 2061 H 177.367 -3.58126 3.47199 0
M  V30 2062 H 176.521 -5.61853 2.28924 0
M  V30 2063 H 175.26 -4.64763 1.47805 0
M  V30 2064 H 174.265 -4.06044 3.70686 0
M  V30 2065 H 175.49 -5.06542 4.52318 0
M  V30 2066 H 173.436 -6.06013 2.51167 0
M  V30 2067 H 173.353 -6.26543 4.23061 0
M  V30 2068 H 174.621 -7.04619 3.33365 0
M  V30 2069 N 178.85 -1.27639 -0.924453 0
M  V30 2070 C 180.097 -1.14167 -1.67249 0
M  V30 2071 C 180.425 0.311863 -1.91984 0
M  V30 2072 O 179.68 1.24425 -1.51053 0
M  V30 2073 C 179.979 -1.87407 -3.04325 0
M  V30 2074 C 179.645 -3.37249 -2.99289 0
M  V30 2075 C 178.307 -3.7812 -2.97622 0
M  V30 2076 C 180.659 -4.32845 -2.90336 0
M  V30 2077 C 177.987 -5.12944 -2.8479 0
M  V30 2078 C 180.339 -5.6773 -2.79045 0
M  V30 2079 C 179.003 -6.07889 -2.7573 0
M  V30 2080 H 178.273 -0.417766 -0.612007 0
M  V30 2081 H 180.92 -1.58286 -1.07786 0
M  V30 2082 H 179.225 -1.35805 -3.67511 0
M  V30 2083 H 180.922 -1.74408 -3.61086 0
M  V30 2084 H 177.512 -3.04748 -3.01374 0
M  V30 2085 H 181.696 -4.02239 -2.90719 0
M  V30 2086 H 176.952 -5.432 -2.80612 0
M  V30 2087 H 181.126 -6.41472 -2.71083 0
M  V30 2088 H 178.753 -7.12314 -2.65544 0
M  V30 2089 N 180.328 1.1314 -1.09713 0
M  V30 2090 C 181.574 1.84757 -0.836224 0
M  V30 2091 C 181.907 1.8347 0.636598 0
M  V30 2092 O 181.182 1.27491 1.46889 0
M  V30 2093 C 181.465 3.32782 -1.37578 0
M  V30 2094 C 181.318 3.42567 -2.91493 0
M  V30 2095 C 182.637 4.28307 -1.01198 0
M  V30 2096 H 179.756 0.67082 -0.305236 0
M  V30 2097 H 182.398 1.3278 -1.35903 0
M  V30 2098 H 180.548 3.77177 -0.931097 0
M  V30 2099 H 182.22 3.06862 -3.44432 0
M  V30 2100 H 180.463 2.83349 -3.28475 0
M  V30 2101 H 181.134 4.46674 -3.24324 0
M  V30 2102 H 183.61 3.91999 -1.39556 0
M  V30 2103 H 182.486 5.30307 -1.41653 0
M  V30 2104 H 182.747 4.42029 0.0794833 0
M  V30 2105 N 181.806 0.884767 1.30421 0
M  V30 2106 C 182.754 0.340869 2.30089 0
M  V30 2107 C 183.748 -0.55201 1.60154 0
M  V30 2108 O 184.954 -0.436467 1.74628 0
M  V30 2109 H 181.329 0.0915739 0.746404 0
M  V30 2110 H 183.3 1.19513 2.73421 0
M  V30 2111 C 182.049 -0.429779 3.45034 0
M  V30 2112 H 181.372 0.248024 3.9903 0
M  V30 2113 H 182.812 -0.775445 4.16849 0
M  V30 2114 C 181.271 -1.62677 2.95022 0
M  V30 2115 O 181.801 -2.72614 2.95033 0
M  V30 2116 N 180.007 -1.46387 2.51036 0
M  V30 2117 H 179.554 -0.569506 2.51226 0
M  V30 2118 H 179.512 -2.26612 2.17932 0
M  V30 2119 N 183.284 -1.43765 0.645699 0
M  V30 2120 C 184.532 -2.01499 0.155731 0
M  V30 2121 C 184.853 -1.51151 -1.232 0
M  V30 2122 O 184.123 -0.721044 -1.82148 0
M  V30 2123 H 182.703 -0.745003 0.0545817 0
M  V30 2124 H 185.365 -1.76075 0.835677 0
M  V30 2125 H 184.461 -3.1181 0.134577 0
M  V30 2126 N 184.763 -0.387143 -1.52771 0
M  V30 2127 C 186.012 0.19697 -2.00736 0
M  V30 2128 C 186.325 1.48082 -1.27793 0
M  V30 2129 O 187.531 2.14485 -1.66458 0
M  V30 2130 C 185.987 0.401568 -3.57653 0
M  V30 2131 C 185.595 -0.868907 -4.39493 0
M  V30 2132 C 187.339 0.942164 -4.13912 0
M  V30 2133 C 185.246 -0.632705 -5.88006 0
M  V30 2134 H 184.176 0.0773827 -0.750019 0
M  V30 2135 H 186.827 -0.50921 -1.76293 0
M  V30 2136 H 185.209 1.16954 -3.78335 0
M  V30 2137 H 186.383 -1.64133 -4.30577 0
M  V30 2138 H 184.698 -1.33429 -3.94443 0
M  V30 2139 H 187.295 1.13455 -5.22525 0
M  V30 2140 H 187.638 1.9106 -3.69867 0
M  V30 2141 H 188.171 0.233814 -3.97112 0
M  V30 2142 H 184.91 -1.57208 -6.36369 0
M  V30 2143 H 184.43 0.100825 -5.99715 0
M  V30 2144 H 186.109 -0.26642 -6.46451 0
M  V30 2145 N 186.241 1.57166 -0.116904 0
M  V30 2146 C 187.171 2.18222 0.830759 0
M  V30 2147 C 188.152 1.12167 1.27877 0
M  V30 2148 O 189.337 1.40394 1.34176 0
M  V30 2149 C 186.467 2.77996 2.08172 0
M  V30 2150 C 185.421 3.89614 1.77157 0
M  V30 2151 C 184.747 4.36187 3.09265 0
M  V30 2152 C 186.047 5.1181 1.04151 0
M  V30 2153 H 187.741 2.97664 0.321992 0
M  V30 2154 H 185.287 1.4318 0.153434 0
M  V30 2155 H 187.24 3.19366 2.74924 0
M  V30 2156 H 185.964 1.9584 2.6137 0
M  V30 2157 H 184.623 3.48816 1.12796 0
M  V30 2158 H 184.271 3.50893 3.60393 0
M  V30 2159 H 183.971 5.11455 2.89288 0
M  V30 2160 H 185.495 4.80207 3.77139 0
M  V30 2161 H 186.909 5.50214 1.61052 0
M  V30 2162 H 185.306 5.92648 0.942762 0
M  V30 2163 H 186.376 4.84892 0.0279022 0
M  V30 2164 N 187.719 -0.156864 1.56817 0
M  V30 2165 C 188.996 -0.899244 1.73704 0
M  V30 2166 C 189.376 -1.99771 0.682254 0
M  V30 2167 O 188.724 -2.26515 -0.300522 0
M  V30 2168 C 188.934 -1.45075 3.17418 0
M  V30 2169 C 190.282 -1.91802 3.7881 0
M  V30 2170 O 191.306 -1.54838 3.20786 0
M  V30 2171 O 190.165 -2.5994 4.80722 0
M  V30 2172 H 187.259 -0.424267 0.709878 0
M  V30 2173 H 189.805 -0.143561 1.69092 0
M  V30 2174 H 188.577 -0.660846 3.85679 0
M  V30 2175 H 188.2 -2.27021 3.26416 0
M  V30 2176 N 189.197 -1.51736 -0.425897 0
M  V30 2177 C 190.613 -1.40166 -0.76326 0
M  V30 2178 C 190.813 -0.492962 -1.95377 0
M  V30 2179 O 189.869 0.0475815 -2.52455 0
M  V30 2180 C 191.182 -2.82403 -1.03291 0
M  V30 2181 C 192.73 -2.91632 -1.13665 0
M  V30 2182 C 193.205 -4.34801 -1.43916 0
M  V30 2183 N 194.696 -4.3796 -1.50816 0
M  V30 2184 C 195.431 -5.4578 -1.75817 0
M  V30 2185 N 194.927 -6.63744 -1.98534 0
M  V30 2186 N 196.72 -5.33274 -1.77694 0
M  V30 2187 H 188.871 -2.09361 0.358 0
M  V30 2188 H 191.134 -0.942941 0.0978094 0
M  V30 2189 H 190.84 -3.50943 -0.230696 0
M  V30 2190 H 190.714 -3.22428 -1.95754 0
M  V30 2191 H 193.101 -2.23284 -1.92947 0
M  V30 2192 H 193.182 -2.55088 -0.190756 0
M  V30 2193 H 192.826 -5.03703 -0.65157 0
M  V30 2194 H 192.756 -4.68868 -2.39729 0
M  V30 2195 H 195.247 -3.52919 -1.35118 0
M  V30 2196 H 195.56 -7.41704 -2.17013 0
M  V30 2197 H 193.905 -6.66839 -1.95832 0
M  V30 2198 H 197.096 -4.40098 -1.59473 0
M  V30 2199 H 197.269 -6.1738 -1.9684 0
M  V30 2200 N 190.675 0.682077 -1.42076 0
M  V30 2201 C 191.924 1.43786 -1.41451 0
M  V30 2202 C 192.237 1.95574 -0.0317074 0
M  V30 2203 O 193.443 2.71326 0.0971462 0
M  V30 2204 C 191.899 2.60071 -2.48779 0
M  V30 2205 C 191.507 2.15013 -3.93031 0
M  V30 2206 C 193.251 3.37626 -2.57311 0
M  V30 2207 C 191.158 3.28336 -4.91883 0
M  V30 2208 H 190.088 0.540143 -0.526082 0
M  V30 2209 H 192.739 0.739157 -1.67955 0
M  V30 2210 H 191.121 3.32275 -2.15429 0
M  V30 2211 H 192.295 1.5001 -4.35699 0
M  V30 2212 H 190.61 1.50416 -3.88284 0
M  V30 2213 H 193.207 4.22012 -3.28345 0
M  V30 2214 H 193.55 3.83727 -1.61429 0
M  V30 2215 H 194.083 2.72488 -2.89819 0
M  V30 2216 H 190.822 2.87234 -5.89217 0
M  V30 2217 H 190.342 3.92145 -4.53853 0
M  V30 2218 H 192.021 3.93913 -5.13265 0
M  V30 2219 N 192.153 1.28127 0.917671 0
M  V30 2220 C 193.116 1.11744 2.00115 0
M  V30 2221 C 194.116 0.0583052 1.60694 0
M  V30 2222 O 195.306 0.303755 1.71531 0
M  V30 2223 C 192.438 0.704862 3.33533 0
M  V30 2224 H 193.631 2.07966 2.16079 0
M  V30 2225 H 191.184 1.11058 1.09981 0
M  V30 2226 H 191.919 -0.258299 3.2327 0
M  V30 2227 H 191.704 1.4699 3.63505 0
M  V30 2228 H 193.194 0.612768 4.1308 0
M  V30 2229 N 193.631 -1.12557 1.10312 0
M  V30 2230 C 194.578 -2.18247 0.750781 0
M  V30 2231 C 195.548 -1.63853 -0.272293 0
M  V30 2232 O 196.733 -1.90195 -0.151862 0
M  V30 2233 C 193.873 -3.44591 0.187379 0
M  V30 2234 C 192.986 -4.13046 1.2656 0
M  V30 2235 C 192.121 -5.27034 0.663978 0
M  V30 2236 C 191.16 -5.87353 1.72287 0
M  V30 2237 N 190.297 -6.92757 1.1416 0
M  V30 2238 H 195.137 -2.47732 1.65628 0
M  V30 2239 H 192.674 -1.21629 0.827337 0
M  V30 2240 H 194.632 -4.16904 -0.157148 0
M  V30 2241 H 193.262 -3.15527 -0.681355 0
M  V30 2242 H 192.314 -3.38924 1.72727 0
M  V30 2243 H 193.626 -4.53947 2.06721 0
M  V30 2244 H 192.78 -6.06104 0.268824 0
M  V30 2245 H 191.519 -4.87407 -0.169082 0
M  V30 2246 H 190.524 -5.06971 2.12746 0
M  V30 2247 H 191.749 -6.29051 2.55875 0
M  V30 2248 H 189.695 -6.5517 0.329984 0
M  V30 2249 H 189.612 -7.3225 1.88007 0
M  V30 2250 H 190.88 -7.75658 0.772956 0
M  V30 2251 N 195.109 -0.891671 -1.2995 0
M  V30 2252 C 196.019 -0.367691 -2.31701 0
M  V30 2253 C 197.035 0.533486 -1.6562 0
M  V30 2254 O 198.211 0.424997 -1.96865 0
M  V30 2255 C 195.276 0.403406 -3.44345 0
M  V30 2256 C 194.337 -0.528328 -4.26037 0
M  V30 2257 C 193.57 0.206063 -5.33302 0
M  V30 2258 O 193.793 1.43119 -5.52153 0
M  V30 2259 O 192.727 -0.447281 -6.00236 0
M  V30 2260 H 196.553 -1.21163 -2.78484 0
M  V30 2261 H 194.138 -0.655725 -1.34241 0
M  V30 2262 H 196.02 0.839753 -4.12948 0
M  V30 2263 H 194.695 1.22354 -2.99685 0
M  V30 2264 H 193.602 -1.01362 -3.60106 0
M  V30 2265 H 194.935 -1.31465 -4.74318 0
M  V30 2266 N 196.587 1.43421 -0.653314 0
M  V30 2267 C 197.537 2.2792 0.060558 0
M  V30 2268 C 198.521 1.39906 0.794677 0
M  V30 2269 O 199.713 1.63536 0.677128 0
M  V30 2270 C 196.842 3.27603 1.0262 0
M  V30 2271 C 195.928 4.23104 0.290551 0
M  V30 2272 N 196.319 5.01031 -0.692967 0
M  V30 2273 C 194.617 4.42816 0.531984 0
M  V30 2274 C 195.318 5.70626 -1.12963 0
M  V30 2275 N 194.294 5.41617 -0.463867 0
M  V30 2276 H 198.096 2.85585 -0.694143 0
M  V30 2277 H 195.61 1.55126 -0.480602 0
M  V30 2278 H 197.607 3.86918 1.55242 0
M  V30 2279 H 196.267 2.71499 1.78096 0
M  V30 2280 H 197.278 5.0669 -1.07169 0
M  V30 2281 H 193.955 3.97782 1.26791 0
M  V30 2282 H 195.345 6.4318 -1.94343 0
M  V30 2283 N 198.065 0.39524 1.52563 0
M  V30 2284 C 199.028 -0.425001 2.25225 0
M  V30 2285 C 200.028 -0.985266 1.27079 0
M  V30 2286 O 201.218 -0.866332 1.5113 0
M  V30 2287 C 198.35 -1.59686 3.01186 0
M  V30 2288 H 199.543 0.211233 2.99155 0
M  V30 2289 H 197.096 0.147472 1.55603 0
M  V30 2290 H 197.831 -2.27035 2.31572 0
M  V30 2291 H 197.616 -1.20176 3.73229 0
M  V30 2292 H 199.106 -2.17743 3.5634 0
M  V30 2293 N 199.544 -1.57102 0.125237 0
M  V30 2294 C 200.955 -1.82384 -0.399142 0
M  V30 2295 C 201.306 -1.04276 -1.66195 0
M  V30 2296 O 200.431 -0.281269 -2.14564 0
M  V30 2297 C 201.026 -3.30821 -0.730932 0
M  V30 2298 C 199.585 -3.56762 -1.19992 0
M  V30 2299 C 198.732 -2.7649 -0.211792 0
M  V30 2300 H 201.683 -1.54786 0.350277 0
M  V30 2301 H 201.704 -3.4579 -1.58775 0
M  V30 2302 H 201.216 -3.87643 0.188345 0
M  V30 2303 H 199.317 -3.05305 -2.13588 0
M  V30 2304 H 199.43 -4.65317 -1.14093 0
M  V30 2305 H 197.794 -2.4489 -0.700085 0
M  V30 2306 H 198.577 -3.36073 0.700691 0
M  V30 2307 N 201.022 0.148545 -1.56898 0
M  V30 2308 C 201.969 1.18345 -1.98149 0
M  V30 2309 C 202.939 1.42772 -0.848848 0
M  V30 2310 O 204.124 1.55132 -1.11079 0
M  V30 2311 C 201.264 2.51231 -2.36594 0
M  V30 2312 C 200.377 2.33991 -3.63142 0
M  V30 2313 C 199.512 3.59902 -3.90697 0
M  V30 2314 C 198.551 3.37692 -5.1052 0
M  V30 2315 N 197.688 4.5573 -5.34092 0
M  V30 2316 H 202.528 0.82467 -2.86362 0
M  V30 2317 H 200.065 0.395756 -1.41676 0
M  V30 2318 H 202.023 3.28713 -2.56912 0
M  V30 2319 H 200.653 2.85059 -1.51463 0
M  V30 2320 H 199.705 1.47572 -3.50609 0
M  V30 2321 H 201.017 2.13539 -4.5078 0
M  V30 2322 H 200.171 4.45813 -4.11505 0
M  V30 2323 H 198.91 3.83357 -3.01477 0
M  V30 2324 H 197.915 2.5017 -4.89587 0
M  V30 2325 H 199.14 3.15637 -6.0129 0
M  V30 2326 H 197.086 4.79361 -4.47827 0
M  V30 2327 H 197.003 4.38274 -6.15996 0
M  V30 2328 H 198.271 5.42858 -5.59397 0
M  V30 2329 N 202.5 1.5196 0.417844 0
M  V30 2330 C 203.41 1.77554 1.53336 0
M  V30 2331 C 204.426 0.660655 1.6097 0
M  V30 2332 O 205.602 0.945099 1.77848 0
M  V30 2333 C 202.667 1.91291 2.89152 0
M  V30 2334 C 201.728 3.15183 2.91475 0
M  V30 2335 C 200.961 3.28256 4.20813 0
M  V30 2336 O 201.184 2.46798 5.14244 0
M  V30 2337 O 200.118 4.21356 4.29817 0
M  V30 2338 H 203.944 2.7222 1.34647 0
M  V30 2339 H 201.529 1.36698 0.602828 0
M  V30 2340 H 203.411 2.02199 3.69721 0
M  V30 2341 H 202.086 0.998129 3.07927 0
M  V30 2342 H 200.993 3.09739 2.09791 0
M  V30 2343 H 202.326 4.06414 2.77648 0
M  V30 2344 N 203.978 -0.674533 1.42435 0
M  V30 2345 C 204.925 -1.78807 1.45934 0
M  V30 2346 C 205.895 -1.63157 0.311271 0
M  V30 2347 O 207.08 -1.83707 0.515383 0
M  V30 2348 C 204.22 -3.16839 1.36773 0
M  V30 2349 C 203.333 -3.43774 2.61617 0
M  V30 2350 C 202.468 -4.71536 2.44597 0
M  V30 2351 C 201.507 -4.91505 3.64814 0
M  V30 2352 N 200.644 -6.10508 3.46734 0
M  V30 2353 H 205.484 -1.75151 2.41093 0
M  V30 2354 H 203.021 -0.85504 1.19697 0
M  V30 2355 H 204.979 -3.96606 1.29459 0
M  V30 2356 H 203.609 -3.19619 0.452089 0
M  V30 2357 H 202.661 -2.58259 2.79297 0
M  V30 2358 H 203.973 -3.54423 3.50978 0
M  V30 2359 H 203.127 -5.59393 2.3487 0
M  V30 2360 H 201.866 -4.6317 1.52726 0
M  V30 2361 H 200.871 -4.0209 3.74972 0
M  V30 2362 H 202.096 -5.01716 4.57665 0
M  V30 2363 H 200.042 -6.03315 2.5758 0
M  V30 2364 H 199.959 -6.2202 4.29682 0
M  V30 2365 H 201.227 -7.01044 3.40819 0
M  V30 2366 N 205.456 -1.28612 -0.910864 0
M  V30 2367 C 206.703 -1.15934 -1.66029 0
M  V30 2368 C 207.031 0.291483 -1.92303 0
M  V30 2369 O 206.286 1.22816 -1.52364 0
M  V30 2370 C 206.585 -1.90624 -3.0232 0
M  V30 2371 C 206.251 -3.40405 -2.95695 0
M  V30 2372 C 204.913 -3.81255 -2.93595 0
M  V30 2373 C 207.265 -4.359 -2.85728 0
M  V30 2374 C 204.593 -5.15936 -2.79334 0
M  V30 2375 C 206.945 -5.70657 -2.73007 0
M  V30 2376 C 205.609 -6.10779 -2.69267 0
M  V30 2377 H 204.879 -0.424234 -0.607541 0
M  V30 2378 H 207.526 -1.5942 -1.06101 0
M  V30 2379 H 205.831 -1.39696 -3.6605 0
M  V30 2380 H 207.528 -1.78228 -3.59215 0
M  V30 2381 H 204.118 -3.07927 -2.98125 0
M  V30 2382 H 208.302 -4.053 -2.86436 0
M  V30 2383 H 203.558 -5.46146 -2.74835 0
M  V30 2384 H 207.732 -6.44311 -2.64264 0
M  V30 2385 H 205.359 -7.1509 -2.57974 0
M  V30 2386 N 206.934 1.1197 -1.10907 0
M  V30 2387 C 207.844 2.21433 -0.774896 0
M  V30 2388 C 208.86 1.72478 0.229657 0
M  V30 2389 O 210.036 2.01288 0.0672008 0
M  V30 2390 C 207.101 3.4602 -0.216986 0
M  V30 2391 C 206.162 4.09791 -1.27944 0
M  V30 2392 C 205.395 5.28431 -0.748055 0
M  V30 2393 O 205.618 5.68823 0.423833 0
M  V30 2394 O 204.552 5.82644 -1.51027 0
M  V30 2395 H 208.378 2.5242 -1.68873 0
M  V30 2396 H 205.963 1.20399 -0.884555 0
M  V30 2397 H 207.845 4.21304 0.090059 0
M  V30 2398 H 206.52 3.16698 0.669633 0
M  V30 2399 H 205.427 3.36265 -1.63941 0
M  V30 2400 H 206.76 4.4328 -2.13925 0
M  V30 2401 N 208.412 0.89855 1.29475 0
M  V30 2402 C 209.342 0.39201 2.30186 0
M  V30 2403 C 210.323 -0.532359 1.61555 0
M  V30 2404 O 211.508 -0.443331 1.89072 0
M  V30 2405 C 208.638 -0.382353 3.45189 0
M  V30 2406 C 207.592 0.451483 4.25612 0
M  V30 2407 C 206.918 -0.450307 5.328 0
M  V30 2408 C 208.218 1.70079 4.93832 0
M  V30 2409 H 209.912 1.23362 2.72804 0
M  V30 2410 H 207.458 0.594638 1.31149 0
M  V30 2411 H 209.411 -0.747451 4.14718 0
M  V30 2412 H 208.135 -1.25774 3.01411 0
M  V30 2413 H 206.794 0.798897 3.57789 0
M  V30 2414 H 206.442 -1.32379 4.85268 0
M  V30 2415 H 206.142 0.103902 5.87508 0
M  V30 2416 H 207.666 -0.811623 6.05182 0
M  V30 2417 H 209.08 1.40549 5.55805 0
M  V30 2418 H 207.477 2.19623 5.58467 0
M  V30 2419 H 208.547 2.43744 4.19186 0
M  V30 2420 O 209.929 -1.40275 0.80033 0
M  V30 2421 H 210.62 -1.90048 0.374337 0
M  V30 END ATOM
M  V30 BEGIN BOND
M  V30 END BOND
M  V30 END CTAB
M  END
$$$$
