drugbank_target|Q9X2W8 PPH (DB04066)
 OpenBabel12092120283D

  0  0  0     0  0            999 V3000
M  V30 BEGIN CTAB
M  V30 COUNTS 13462 13613 0 0 0
M  V30 BEGIN ATOM
M  V30 1 H -0.908 1.98254 -0.117106 0
M  V30 2 N 0 1.576 0 0
M  V30 3 C 0.933 2.03868 1.02534 0
M  V30 4 C 1.911 0.928543 1.3348 0
M  V30 5 O 3.095 1.19667 1.45644 0
M  V30 6 C 0.222 2.43627 2.35294 0
M  V30 7 C -0.732 3.65373 2.2001 0
M  V30 8 S 0.101 5.13292 1.52614 0
M  V30 9 C 1.257 5.56322 2.86805 0
M  V30 10 H 1.49 2.90518 0.631377 0
M  V30 11 H -0.977 1.52953 0.210867 0
M  V30 12 H 0.981 2.67203 3.11629 0
M  V30 13 H -0.358 1.57376 2.7183 0
M  V30 14 H -1.165 3.90944 3.18086 0
M  V30 15 H -1.563 3.418 1.51819 0
M  V30 16 H 0.729 5.58782 3.83104 0
M  V30 17 H 1.672 6.56266 2.65933 0
M  V30 18 H 2.08 4.83886 2.90714 0
M  V30 19 N 1.4781 -0.272755 1.55222 0
M  V30 20 C 2.8891 -0.84378 1.66545 0
M  V30 21 C 3.2401 -1.87035 0.592641 0
M  V30 22 O 2.3651 -2.14761 -0.265818 0
M  V30 23 C 2.9601 -1.53723 3.01918 0
M  V30 24 C 1.5191 -2.05628 3.15268 0
M  V30 25 C 0.6661 -0.898424 2.62343 0
M  V30 26 H 3.6171 -0.0490998 1.58624 0
M  V30 27 H 3.6381 -2.40421 2.94921 0
M  V30 28 H 3.1501 -0.78983 3.79978 0
M  V30 29 H 1.2511 -2.83329 2.41983 0
M  V30 30 H 1.3641 -2.27142 4.21833 0
M  V30 31 H -0.2719 -1.29186 2.19506 0
M  V30 32 H 0.5111 -0.164528 3.42906 0
M  V30 33 N 2.9562 -1.48159 -0.537278 0
M  V30 34 C 4.2332 -1.46291 -1.29839 0
M  V30 35 C 4.6132 -0.170613 -2.10409 0
M  V30 36 O 3.9612 0.847746 -2.12192 0
M  V30 37 C 4.1712 -2.72055 -2.18603 0
M  V30 38 C 5.5192 -3.20087 -2.7898 0
M  V30 39 O 6.5432 -2.72921 -2.28894 0
M  V30 40 O 5.4022 -4.02138 -3.70064 0
M  V30 41 H 2.4962 -0.583906 -0.585647 0
M  V30 42 H 5.0422 -1.60384 -0.554534 0
M  V30 43 H 3.8142 -3.57628 -1.58801 0
M  V30 44 H 3.4372 -2.60646 -3.00249 0
M  V30 45 N 4.4343 0.785586 -1.36625 0
M  V30 46 C 5.8503 1.08419 -1.17122 0
M  V30 47 C 6.0503 2.015 0.00208491 0
M  V30 48 O 5.1063 2.43551 0.666278 0
M  V30 49 C 6.4193 1.69498 -2.48377 0
M  V30 50 C 7.9673 1.81821 -2.54775 0
M  V30 51 C 8.4423 2.46315 -3.86126 0
M  V30 52 N 9.9333 2.53779 -3.87492 0
M  V30 53 C 10.6683 3.045 -4.85868 0
M  V30 54 N 10.1643 3.55499 -5.94637 0
M  V30 55 N 11.9573 3.03247 -4.73284 0
M  V30 56 H 4.1083 0.167264 -2.1174 0
M  V30 57 H 6.3713 0.13682 -0.938075 0
M  V30 58 H 6.0773 1.08571 -3.34522 0
M  V30 59 H 5.9513 2.6896 -2.64462 0
M  V30 60 H 8.3383 2.41884 -1.69045 0
M  V30 61 H 8.4193 0.811532 -2.42586 0
M  V30 62 H 8.0633 1.86895 -4.72263 0
M  V30 63 H 7.9933 3.47561 -3.95612 0
M  V30 64 H 10.4843 2.17672 -3.08913 0
M  V30 65 H 10.7973 3.92562 -6.65669 0
M  V30 66 H 9.1423 3.5364 -5.98301 0
M  V30 67 H 12.3333 2.62696 -3.87438 0
M  V30 68 H 12.5063 3.42467 -5.50109 0
M  V30 69 N 5.9124 1.20967 1.01018 0
M  V30 70 C 7.1404 1.04956 1.78303 0
M  V30 71 C 7.5554 -0.400915 1.84494 0
M  V30 72 O 6.9124 -1.27826 1.30257 0
M  V30 73 C 6.9634 1.63403 3.22462 0
M  V30 74 O 6.6844 3.02775 3.16637 0
M  V30 75 C 8.1854 1.52432 4.16268 0
M  V30 76 H 5.4054 0.368858 0.560522 0
M  V30 77 H 7.9494 1.60193 1.27116 0
M  V30 78 H 6.1044 1.1227 3.70775 0
M  V30 79 H 6.5184 3.30626 4.07169 0
M  V30 80 H 7.9924 1.98078 5.15237 0
M  V30 81 H 8.4694 0.477875 4.36592 0
M  V30 82 H 9.0754 2.02787 3.73841 0
M  V30 83 N 7.3905 -1.2043 1.01659 0
M  V30 84 C 8.6185 -1.93777 0.725132 0
M  V30 85 C 9.0335 -1.74772 -0.714166 0
M  V30 86 O 8.3905 -1.06169 -1.4844 0
M  V30 87 C 8.4415 -3.45876 1.05129 0
M  V30 88 O 8.1625 -3.6426 2.43406 0
M  V30 89 C 9.6635 -4.36368 0.780891 0
M  V30 90 H 6.8835 -0.615901 0.266284 0
M  V30 91 H 9.4275 -1.52922 1.35776 0
M  V30 92 H 7.5825 -3.8461 0.464065 0
M  V30 93 H 7.9965 -4.58246 2.55169 0
M  V30 94 H 9.4705 -5.41743 1.05918 0
M  V30 95 H 9.9475 -4.38275 -0.284937 0
M  V30 96 H 10.5535 -4.03296 1.35027 0
M  V30 97 N 8.8686 -0.792821 -1.36206 0
M  V30 98 C 10.1456 -0.290627 -1.93429 0
M  V30 99 C 10.5256 1.21773 -1.72437 0
M  V30 100 O 9.8736 2.0108 -1.08531 0
M  V30 101 C 10.0836 -0.686973 -3.42172 0
M  V30 102 C 11.4316 -0.668643 -4.19302 0
M  V30 103 O 12.4556 -0.627658 -3.50626 0
M  V30 104 O 11.3146 -0.714597 -5.41808 0
M  V30 105 H 8.4086 -0.0727927 -0.82379 0
M  V30 106 H 10.9546 -0.875593 -1.45367 0
M  V30 107 H 9.7266 -1.72711 -3.51122 0
M  V30 108 H 9.3496 -0.0760733 -3.97527 0
M  V30 109 N 10.3467 1.47872 -0.545128 0
M  V30 110 C 11.6237 1.9554 0.0485222 0
M  V30 111 C 12.0037 1.4876 1.49779 0
M  V30 112 O 11.3517 0.720925 2.16829 0
M  V30 113 C 11.5617 3.48898 -0.084417 0
M  V30 114 C 12.9097 4.24547 0.0671239 0
M  V30 115 O 13.9337 3.56198 -0.0113649 0
M  V30 116 O 12.7927 5.45999 0.233882 0
M  V30 117 H 9.8867 0.823957 0.0708773 0
M  V30 118 H 12.4327 1.58327 -0.610798 0
M  V30 119 H 11.2047 3.75714 -1.09337 0
M  V30 120 H 10.8277 3.92845 0.613066 0
M  V30 121 N 11.8248 0.280983 1.55075 0
M  V30 122 C 13.0718 -0.334115 1.99725 0
M  V30 123 C 13.3998 -1.5542 1.1694 0
M  V30 124 O 12.6548 -1.94361 0.228531 0
M  V30 125 C 12.9538 -0.754656 3.49342 0
M  V30 126 C 12.6198 0.361445 4.49449 0
M  V30 127 C 11.2818 0.667893 4.76542 0
M  V30 128 C 13.6338 1.11322 5.09173 0
M  V30 129 C 10.9618 1.7296 5.60626 0
M  V30 130 C 13.3138 2.1647 5.9441 0
M  V30 131 C 11.9778 2.47742 6.19822 0
M  V30 132 H 11.2478 -0.122261 0.730844 0
M  V30 133 H 13.8948 0.395917 1.87363 0
M  V30 134 H 12.1998 -1.56446 3.5921 0
M  V30 135 H 13.8968 -1.24142 3.813 0
M  V30 136 H 10.4868 0.112481 4.28452 0
M  V30 137 H 14.6708 0.88973 4.8826 0
M  V30 138 H 9.9268 1.97684 5.78559 0
M  V30 139 H 14.1008 2.75193 6.3972 0
M  V30 140 H 11.7278 3.30145 6.84769 0
M  V30 141 N 13.3029 -1.57598 0.00835791 0
M  V30 142 C 14.5509 -1.90551 -0.6734 0
M  V30 143 C 14.8719 -0.883301 -1.73847 0
M  V30 144 O 14.1419 0.0781442 -1.95744 0
M  V30 145 H 12.7219 -0.703312 -0.251717 0
M  V30 146 H 15.3839 -1.94833 0.0512592 0
M  V30 147 H 14.4799 -2.9056 -1.13935 0
M  V30 148 N 14.781 0.264519 -1.55364 0
M  V30 149 C 16.192 0.834936 -1.6699 0
M  V30 150 C 16.543 1.86718 -0.602552 0
M  V30 151 O 15.668 2.14899 0.254425 0
M  V30 152 C 16.263 1.5212 -3.02729 0
M  V30 153 C 14.822 2.03954 -3.16354 0
M  V30 154 C 13.969 0.884498 -2.62815 0
M  V30 155 H 16.92 0.0406869 -1.58648 0
M  V30 156 H 16.941 2.38853 -2.96191 0
M  V30 157 H 16.453 0.769668 -3.80392 0
M  V30 158 H 14.554 2.82041 -2.43482 0
M  V30 159 H 14.667 2.24902 -4.23032 0
M  V30 160 H 13.031 1.2802 -2.20188 0
M  V30 161 H 13.814 0.14634 -3.42988 0
M  V30 162 N 16.2591 1.48442 0.529413 0
M  V30 163 C 17.5061 1.56488 1.28521 0
M  V30 164 C 17.8341 0.239042 1.93025 0
M  V30 165 O 17.0891 -0.770713 1.79885 0
M  V30 166 C 17.3881 2.6523 2.39558 0
M  V30 167 C 17.0541 4.07648 1.92702 0
M  V30 168 C 15.7161 4.46411 1.79641 0
M  V30 169 C 18.0681 4.96896 1.573 0
M  V30 170 C 15.3961 5.72226 1.29514 0
M  V30 171 C 17.7481 6.23202 1.08636 0
M  V30 172 C 16.4121 6.60821 0.941919 0
M  V30 173 H 15.6821 0.572631 0.470292 0
M  V30 174 H 18.3291 1.82161 0.59072 0
M  V30 175 H 16.6341 2.33419 3.14679 0
M  V30 176 H 18.3311 2.68671 2.97686 0
M  V30 177 H 14.9211 3.77036 2.03819 0
M  V30 178 H 19.1051 4.67626 1.66251 0
M  V30 179 H 14.3611 6.00097 1.17019 0
M  V30 180 H 18.5351 6.91753 0.803136 0
M  V30 181 H 16.1621 7.58198 0.5513 0
M  V30 182 N 17.7372 -0.778329 1.37039 0
M  V30 183 C 18.9652 -1.56734 1.35063 0
M  V30 184 C 19.3802 -1.88686 -0.0655597 0
M  V30 185 O 18.7372 -1.5096 -1.02554 0
M  V30 186 C 18.7882 -2.88163 2.18276 0
M  V30 187 O 18.5092 -2.57583 3.54376 0
M  V30 188 C 20.0102 -3.82422 2.24206 0
M  V30 189 H 17.2302 -0.485778 0.462883 0
M  V30 190 H 19.7742 -0.965185 1.8029 0
M  V30 191 H 17.9292 -3.44818 1.76576 0
M  V30 192 H 18.3432 -3.41699 3.97922 0
M  V30 193 H 19.8172 -4.71667 2.86765 0
M  V30 194 H 20.2942 -4.21078 1.24861 0
M  V30 195 H 20.9002 -3.31697 2.6619 0
M  V30 196 N 19.2153 -1.21501 -1.00376 0
M  V30 197 C 20.1253 -0.991447 -2.12621 0
M  V30 198 C 21.1413 0.0568446 -1.73907 0
M  V30 199 O 22.3173 -0.13348 -2.00957 0
M  V30 200 C 19.3823 -0.560312 -3.42142 0
M  V30 201 C 18.4433 -1.68096 -3.95022 0
M  V30 202 C 17.6763 -1.2703 -5.18362 0
M  V30 203 O 17.8993 -0.144438 -5.70217 0
M  V30 204 O 16.8333 -2.08269 -5.64719 0
M  V30 205 H 20.6593 -1.93158 -2.34358 0
M  V30 206 H 18.2443 -0.999999 -1.10997 0
M  V30 207 H 20.1263 -0.329724 -4.20108 0
M  V30 208 H 18.8013 0.351089 -3.2179 0
M  V30 209 H 17.7083 -1.96597 -3.18278 0
M  V30 210 H 19.0413 -2.56983 -4.19786 0
M  V30 211 N 20.6934 1.19889 -1.02296 0
M  V30 212 C 21.6254 2.22334 -0.556787 0
M  V30 213 C 22.6384 1.58674 0.364199 0
M  V30 214 O 23.8274 1.77768 0.161533 0
M  V30 215 C 20.9274 3.38257 0.208694 0
M  V30 216 C 20.1004 4.31504 -0.71577 0
M  V30 217 C 19.1594 5.262 0.00325597 0
M  V30 218 O 18.1854 5.65798 -0.621357 0
M  V30 219 N 19.3874 5.66303 1.27599 0
M  V30 220 H 22.1524 2.62957 -1.43784 0
M  V30 221 H 19.7134 1.34495 -0.901261 0
M  V30 222 H 21.7054 3.98616 0.699111 0
M  V30 223 H 20.2754 2.96472 0.991102 0
M  V30 224 H 19.4954 3.69016 -1.38638 0
M  V30 225 H 20.7834 4.9072 -1.34428 0
M  V30 226 H 20.1814 5.36155 1.80429 0
M  V30 227 H 18.7384 6.28942 1.71102 0
M  V30 228 N 22.1715 0.800033 1.35784 0
M  V30 229 C 23.4205 0.37387 1.98205 0
M  V30 230 C 23.7335 -1.06302 1.64193 0
M  V30 231 O 24.9395 -1.59198 2.19928 0
M  V30 232 C 23.3955 0.617532 3.54562 0
M  V30 233 C 23.0035 2.06654 3.9749 0
M  V30 234 C 24.7475 0.256401 4.23725 0
M  V30 235 C 22.6545 2.2563 5.46667 0
M  V30 236 H 21.5845 0.136055 0.741623 0
M  V30 237 H 24.2355 0.983166 1.54939 0
M  V30 238 H 22.6175 -0.0616248 3.95952 0
M  V30 239 H 23.7915 2.78296 3.67271 0
M  V30 240 H 22.1065 2.38691 3.41197 0
M  V30 241 H 24.7035 0.376318 5.33374 0
M  V30 242 H 25.0465 -0.796692 4.08606 0
M  V30 243 H 25.5795 0.889214 3.87734 0
M  V30 244 H 22.3185 3.2936 5.66747 0
M  V30 245 H 21.8385 1.58504 5.78478 0
M  V30 246 H 23.5175 2.06861 6.1304 0
M  V30 247 N 23.6496 -1.47581 0.552962 0
M  V30 248 C 25.0656 -1.5818 0.212424 0
M  V30 249 C 25.2656 -1.55213 -1.28496 0
M  V30 250 O 24.3216 -1.45329 -2.06484 0
M  V30 251 C 25.6346 -2.88865 0.835318 0
M  V30 252 C 27.1826 -3.0244 0.806156 0
M  V30 253 C 27.6576 -4.35819 1.40804 0
M  V30 254 N 29.1486 -4.42444 1.37103 0
M  V30 255 C 29.8836 -5.44202 1.80641 0
M  V30 256 N 29.3796 -6.52795 2.32015 0
M  V30 257 N 31.1726 -5.35222 1.71738 0
M  V30 258 H 23.3236 -1.47753 1.52587 0
M  V30 259 H 25.5866 -0.702941 0.636064 0
M  V30 260 H 25.2926 -2.9676 1.88749 0
M  V30 261 H 25.1666 -3.7579 0.325848 0
M  V30 262 H 27.5536 -2.94144 -0.237317 0
M  V30 263 H 27.6346 -2.17068 1.35334 0
M  V30 264 H 27.2786 -4.44871 2.45056 0
M  V30 265 H 27.2086 -5.19916 0.836338 0
M  V30 266 H 29.6996 -3.6456 0.995202 0
M  V30 267 H 30.0126 -7.26609 2.63171 0
M  V30 268 H 28.3576 -6.53696 2.36023 0
M  V30 269 H 31.5486 -4.49284 1.31382 0
M  V30 270 H 31.7216 -6.14389 2.05987 0
M  V30 271 N 25.1277 -0.289203 -1.54924 0
M  V30 272 C 26.3757 0.322879 -1.99504 0
M  V30 273 C 26.6967 1.55313 -1.1791 0
M  V30 274 O 25.9667 1.94001 -0.272097 0
M  V30 275 H 24.5467 0.122291 -0.736922 0
M  V30 276 H 27.2087 -0.397802 -1.90797 0
M  V30 277 H 26.3047 0.603061 -3.06218 0
M  V30 278 N 26.6058 1.57591 -0.0167156 0
M  V30 279 C 27.8338 1.95575 0.675128 0
M  V30 280 C 28.2488 0.892542 1.6637 0
M  V30 281 O 27.6058 -0.126912 1.82058 0
M  V30 282 C 27.6568 3.33608 1.39239 0
M  V30 283 O 27.3778 4.3585 0.443444 0
M  V30 284 C 28.8788 3.86151 2.17721 0
M  V30 285 H 26.0988 0.644423 0.186978 0
M  V30 286 H 28.6428 2.0437 -0.0728 0
M  V30 287 H 26.7978 3.2607 2.09182 0
M  V30 288 H 27.2118 5.158 0.951358 0
M  V30 289 H 28.6858 4.85114 2.63379 0
M  V30 290 H 29.1628 3.19738 3.01105 0
M  V30 291 H 29.7688 3.96918 1.52761 0
M  V30 292 N 28.0839 -0.256276 1.55502 0
M  V30 293 C 29.3329 -0.983486 1.76098 0
M  V30 294 C 29.6459 -1.86837 0.578896 0
M  V30 295 O 30.8519 -2.63163 0.667648 0
M  V30 296 C 29.3079 -1.79868 3.1173 0
M  V30 297 C 28.9159 -0.961648 4.37557 0
M  V30 298 C 30.6599 -2.51919 3.41668 0
M  V30 299 C 28.5669 -1.77219 5.64223 0
M  V30 300 H 27.4969 -0.370936 0.656447 0
M  V30 301 H 30.1479 -0.238492 1.81944 0
M  V30 302 H 28.5299 -2.58527 2.99966 0
M  V30 303 H 29.7039 -0.218048 4.60284 0
M  V30 304 H 28.0189 -0.354913 4.14885 0
M  V30 305 H 30.6159 -3.12998 4.33516 0
M  V30 306 H 30.9589 -3.23059 2.62562 0
M  V30 307 H 31.4919 -1.80278 3.54605 0
M  V30 308 H 28.2309 -1.10471 6.46124 0
M  V30 309 H 27.7509 -2.49132 5.45613 0
M  V30 310 H 29.4299 -2.34169 6.03137 0
M  V30 311 N 29.562 -1.4872 -0.521534 0
M  V30 312 C 30.839 -1.4766 -1.2828 0
M  V30 313 C 31.219 -0.19292 -2.10217 0
M  V30 314 O 30.567 0.825193 -2.13079 0
M  V30 315 C 30.777 -2.74358 -2.15705 0
M  V30 316 C 32.125 -3.23028 -2.75569 0
M  V30 317 O 33.149 -2.75333 -2.25987 0
M  V30 318 O 32.008 -4.0604 -3.65778 0
M  V30 319 H 29.102 -0.590085 -0.579421 0
M  V30 320 H 31.648 -1.60963 -0.537492 0
M  V30 321 H 30.42 -3.59292 -1.54999 0
M  V30 322 H 30.043 -2.63816 -2.97467 0
M  V30 323 N 31.0401 0.771051 -1.3745 0
M  V30 324 C 32.2881 1.52661 -1.32435 0
M  V30 325 C 32.6091 1.9479 0.0905024 0
M  V30 326 O 31.8791 1.66348 1.03466 0
M  V30 327 H 30.4591 0.566218 -0.487244 0
M  V30 328 H 33.1211 0.917636 -1.71946 0
M  V30 329 H 32.2171 2.42568 -1.96385 0
M  V30 330 N 32.5182 1.22032 0.997298 0
M  V30 331 C 33.4512 0.929735 2.08401 0
M  V30 332 C 34.4292 -0.125681 1.62114 0
M  V30 333 O 35.6132 0.00495409 1.88499 0
M  V30 334 C 32.7402 0.397488 3.3636 0
M  V30 335 C 31.7862 1.4369 4.01566 0
M  V30 336 S 32.6192 3.00874 4.42984 0
M  V30 337 C 33.7752 2.49276 5.74119 0
M  V30 338 H 34.0082 1.84998 2.32729 0
M  V30 339 H 31.5412 1.0509 1.13117 0
M  V30 340 H 33.4992 0.0969846 4.10385 0
M  V30 341 H 32.1602 -0.501571 3.10069 0
M  V30 342 H 31.3532 1.01427 4.93689 0
M  V30 343 H 30.9552 1.68588 3.33847 0
M  V30 344 H 33.2472 1.90242 6.50242 0
M  V30 345 H 34.1902 3.39872 6.21203 0
M  V30 346 H 34.5982 1.90714 5.31308 0
M  V30 347 N 33.9963 -1.19345 1.0293 0
M  V30 348 C 35.2443 -1.88665 0.724574 0
M  V30 349 C 35.5653 -1.80036 -0.749144 0
M  V30 350 O 34.8353 -1.2111 -1.53978 0
M  V30 351 H 33.4153 -0.698406 0.265025 0
M  V30 352 H 36.0773 -1.44885 1.30362 0
M  V30 353 H 35.1733 -2.94987 1.01926 0
M  V30 354 N 35.4744 -0.807222 -1.35358 0
M  V30 355 C 36.7024 -0.400377 -2.02989 0
M  V30 356 C 37.1174 0.988859 -1.60832 0
M  V30 357 O 36.4744 1.63729 -0.806175 0
M  V30 358 C 36.5254 -0.474867 -3.58368 0
M  V30 359 O 36.2464 -1.80933 -3.98992 0
M  V30 360 C 37.7474 -0.0609112 -4.43258 0
M  V30 361 H 34.9674 -0.162587 -0.651004 0
M  V30 362 H 37.5114 -1.09102 -1.72965 0
M  V30 363 H 35.6664 0.167534 -3.87038 0
M  V30 364 H 36.0804 -1.77256 -4.9364 0
M  V30 365 H 37.5544 -0.164145 -5.51756 0
M  V30 366 H 38.0314 0.993831 -4.27808 0
M  V30 367 H 38.6374 -0.676492 -4.19885 0
M  V30 368 N 36.9525 1.47285 -0.560781 0
M  V30 369 C 37.9155 2.28535 0.174488 0
M  V30 370 C 38.9155 1.37153 0.839388 0
M  V30 371 O 40.1055 1.59748 0.694702 0
M  V30 372 C 37.2375 3.16934 1.25561 0
M  V30 373 H 38.4305 2.95012 -0.539262 0
M  V30 374 H 35.9835 1.53034 -0.317865 0
M  V30 375 H 36.7185 2.55157 2.00164 0
M  V30 376 H 36.5035 3.8419 0.783604 0
M  V30 377 H 37.9935 3.78143 1.77193 0
M  V30 378 N 38.4306 0.297415 1.54768 0
M  V30 379 C 39.3406 -0.58983 2.27064 0
M  V30 380 C 40.3566 -1.15144 1.30453 0
M  V30 381 O 41.5326 -1.17699 1.63428 0
M  V30 382 C 38.5976 -1.74714 2.9946 0
M  V30 383 C 37.6586 -1.21997 4.11601 0
M  V30 384 C 36.8916 -2.32212 4.80535 0
M  V30 385 O 37.1146 -3.52036 4.48806 0
M  V30 386 O 36.0486 -1.99106 5.68014 0
M  V30 387 H 39.8746 -0.00348199 3.037 0
M  V30 388 H 37.4596 0.0640035 1.49263 0
M  V30 389 H 39.3416 -2.42147 3.44881 0
M  V30 390 H 38.0166 -2.32016 2.25722 0
M  V30 391 H 36.9236 -0.511458 3.70587 0
M  V30 392 H 38.2566 -0.692419 4.87305 0
M  V30 393 N 39.9087 -1.5758 0.0250728 0
M  V30 394 C 41.1557 -1.91633 -0.654444 0
M  V30 395 C 41.4837 -0.901103 -1.72367 0
M  V30 396 O 40.7387 0.0905647 -1.9549 0
M  V30 397 C 41.0377 -3.32421 -1.31268 0
M  V30 398 C 40.7037 -4.49344 -0.374223 0
M  V30 399 C 39.3657 -4.8106 -0.115911 0
M  V30 400 C 41.7177 -5.20498 0.270432 0
M  V30 401 C 39.0457 -5.8129 0.79493 0
M  V30 402 C 41.3977 -6.21699 1.1693 0
M  V30 403 C 40.0617 -6.51859 1.43655 0
M  V30 404 H 39.3317 -0.701236 -0.239478 0
M  V30 405 H 41.9787 -1.91307 0.0859734 0
M  V30 406 H 40.2837 -3.28989 -2.12775 0
M  V30 407 H 41.9807 -3.56038 -1.84494 0
M  V30 408 H 38.5707 -4.24579 -0.58573 0
M  V30 409 H 42.7547 -4.96229 0.0839194 0
M  V30 410 H 38.0107 -6.03005 1.00973 0
M  V30 411 H 42.1847 -6.75955 1.67504 0
M  V30 412 H 39.8117 -7.2934 2.144 0
M  V30 413 N 41.3868 0.248026 -1.55636 0
M  V30 414 C 42.6638 0.998988 -1.68165 0
M  V30 415 C 43.0438 2.03409 -0.564621 0
M  V30 416 O 42.3918 2.24378 0.432076 0
M  V30 417 C 42.6018 1.63334 -3.0842 0
M  V30 418 C 43.9498 2.13562 -3.66983 0
M  V30 419 O 44.9738 1.73277 -3.11213 0
M  V30 420 O 43.8328 2.87526 -4.64749 0
M  V30 421 H 40.9268 0.464933 -0.683935 0
M  V30 422 H 43.4728 0.241902 -1.67967 0
M  V30 423 H 42.2448 0.884583 -3.8117 0
M  V30 424 H 41.8678 2.45666 -3.12624 0
M  V30 425 N 42.8649 1.48995 0.513639 0
M  V30 426 C 43.8279 1.64229 1.59879 0
M  V30 427 C 44.8279 0.514696 1.5234 0
M  V30 428 O 46.0179 0.78087 1.55718 0
M  V30 429 C 43.1499 1.62783 2.99524 0
M  V30 430 H 44.3429 2.61004 1.47705 0
M  V30 431 H 41.8959 1.37837 0.736936 0
M  V30 432 H 42.6309 0.675461 3.17188 0
M  V30 433 H 42.4159 2.4466 3.06404 0
M  V30 434 H 43.9059 1.76669 3.78388 0
M  V30 435 N 44.343 -0.763751 1.37857 0
M  V30 436 C 45.273 -1.89103 1.36975 0
M  V30 437 C 46.254 -1.68439 0.237152 0
M  V30 438 O 47.439 -1.8918 0.438713 0
M  V30 439 C 44.569 -3.26496 1.18395 0
M  V30 440 C 43.523 -3.61741 2.28751 0
M  V30 441 C 42.849 -4.97762 1.95286 0
M  V30 442 C 44.149 -3.67665 3.70972 0
M  V30 443 H 45.843 -1.90099 2.31307 0
M  V30 444 H 43.389 -0.91319 1.11341 0
M  V30 445 H 45.342 -4.05003 1.16406 0
M  V30 446 H 44.066 -3.25955 0.205215 0
M  V30 447 H 42.725 -2.85547 2.29909 0
M  V30 448 H 42.373 -4.93769 0.959221 0
M  V30 449 H 42.073 -5.22313 2.69189 0
M  V30 450 H 43.597 -5.7866 1.94898 0
M  V30 451 H 45.011 -4.36307 3.719 0
M  V30 452 H 43.408 -4.03718 4.43995 0
M  V30 453 H 44.478 -2.68134 4.0402 0
M  V30 454 N 45.8211 -1.22559 -0.990812 0
M  V30 455 C 47.2321 -1.04791 -1.54518 0
M  V30 456 C 47.5831 0.387998 -1.92325 0
M  V30 457 O 46.7081 1.27328 -1.74976 0
M  V30 458 C 47.3031 -1.896 -2.80779 0
M  V30 459 C 45.8621 -1.76124 -3.32652 0
M  V30 460 C 45.0091 -1.8594 -2.05722 0
M  V30 461 H 47.9601 -1.36374 -0.811662 0
M  V30 462 H 47.9811 -1.41464 -3.53225 0
M  V30 463 H 47.4931 -2.94101 -2.53231 0
M  V30 464 H 45.5941 -0.743643 -3.65104 0
M  V30 465 H 45.7071 -2.58913 -4.03114 0
M  V30 466 H 44.0711 -1.29403 -2.19379 0
M  V30 467 H 44.8541 -2.91976 -1.80568 0
M  V30 468 N 47.2992 1.18797 -1.03562 0
M  V30 469 C 48.5452 1.8893 -0.737113 0
M  V30 470 C 48.8782 1.79837 0.732956 0
M  V30 471 O 48.1532 1.19525 1.5344 0
M  V30 472 C 48.4362 3.39607 -1.19745 0
M  V30 473 C 48.2892 3.57537 -2.72924 0
M  V30 474 C 49.6082 4.33069 -0.783526 0
M  V30 475 H 46.7272 0.686057 -0.269249 0
M  V30 476 H 49.3692 1.39797 -1.28673 0
M  V30 477 H 47.5192 3.81583 -0.729855 0
M  V30 478 H 49.1912 3.24688 -3.27682 0
M  V30 479 H 47.4342 3.00363 -3.12993 0
M  V30 480 H 48.1052 4.63238 -3.00191 0
M  V30 481 H 50.5812 3.98846 -1.18581 0
M  V30 482 H 49.4572 5.3707 -1.13343 0
M  V30 483 H 49.7182 4.40986 0.313681 0
M  V30 484 N 48.7773 0.814389 1.34928 0
M  V30 485 C 50.0253 0.397636 1.9815 0
M  V30 486 C 50.3463 -1.04069 1.64908 0
M  V30 487 O 49.6163 -1.72121 0.93548 0
M  V30 488 H 48.1963 0.144043 0.732981 0
M  V30 489 H 50.8583 1.04195 1.6471 0
M  V30 490 H 49.9543 0.509688 3.0791 0
M  V30 491 N 50.2554 -1.46986 0.568584 0
M  V30 492 C 51.2184 -2.28624 -0.162366 0
M  V30 493 C 52.2184 -1.37596 -0.832103 0
M  V30 494 O 53.4084 -1.60115 -0.68622 0
M  V30 495 C 50.5404 -3.17596 -1.23878 0
M  V30 496 H 51.7334 -2.94722 0.554899 0
M  V30 497 H 49.2864 -1.52863 0.325976 0
M  V30 498 H 50.0214 -2.56214 -1.98808 0
M  V30 499 H 49.8064 -3.846 -0.763219 0
M  V30 500 H 51.2964 -3.79078 -1.75185 0
M  V30 501 N 51.7335 -0.305618 -1.54608 0
M  V30 502 C 52.9825 0.303098 -1.9941 0
M  V30 503 C 53.2955 1.54648 -1.19764 0
M  V30 504 O 54.5015 2.23007 -1.54855 0
M  V30 505 C 52.9575 0.590588 -3.55021 0
M  V30 506 C 52.5655 -0.634719 -4.43481 0
M  V30 507 C 54.3095 1.16025 -4.08336 0
M  V30 508 C 52.2165 -0.320126 -5.90533 0
M  V30 509 H 51.1465 0.117031 -0.744862 0
M  V30 510 H 53.7975 -0.415045 -1.78745 0
M  V30 511 H 52.1795 1.36845 -3.71604 0
M  V30 512 H 53.3535 -1.41079 -4.38672 0
M  V30 513 H 51.6685 -1.12333 -4.00962 0
M  V30 514 H 54.2655 1.40994 -5.15776 0
M  V30 515 H 54.6085 2.10397 -3.5922 0
M  V30 516 H 55.1415 0.443985 -3.95315 0
M  V30 517 H 51.8805 -1.23254 -6.43808 0
M  V30 518 H 51.4005 0.418579 -5.98338 0
M  V30 519 H 53.0795 0.0766241 -6.46955 0
M  V30 520 N 53.2116 1.57565 -0.0334293 0
M  V30 521 C 54.1436 2.0739 0.975811 0
M  V30 522 C 55.1566 0.998166 1.2861 0
M  V30 523 O 56.3456 1.27426 1.25 0
M  V30 524 C 53.4456 2.4871 2.30209 0
M  V30 525 C 52.6186 3.79413 2.17634 0
M  V30 526 C 51.6776 4.07237 3.33233 0
M  V30 527 O 50.7036 4.77425 3.09927 0
M  V30 528 N 51.9056 3.5775 4.5716 0
M  V30 529 H 54.6706 2.94598 0.55066 0
M  V30 530 H 52.2316 1.61173 0.15323 0
M  V30 531 H 54.2236 2.64413 3.06378 0
M  V30 532 H 52.7936 1.66845 2.64351 0
M  V30 533 H 52.0136 3.73465 1.26165 0
M  V30 534 H 53.3016 4.65038 2.0644 0
M  V30 535 H 52.6996 3.00976 4.78989 0
M  V30 536 H 51.2566 3.78724 5.30482 0
M  V30 537 N 54.6897 -0.239769 1.55765 0
M  V30 538 C 55.9357 -0.968234 1.78194 0
M  V30 539 C 56.2687 -1.84701 0.599938 0
M  V30 540 O 55.5437 -1.9031 -0.401524 0
M  V30 541 C 55.8267 -1.8227 3.10564 0
M  V30 542 C 55.6797 -0.971633 4.3918 0
M  V30 543 C 56.9987 -2.80388 3.39221 0
M  V30 544 H 54.1177 -0.350572 0.648281 0
M  V30 545 H 56.7597 -0.238259 1.885 0
M  V30 546 H 54.9097 -2.44507 3.01908 0
M  V30 547 H 56.5817 -0.367408 4.59835 0
M  V30 548 H 54.8247 -0.276276 4.32919 0
M  V30 549 H 55.4957 -1.60346 5.28198 0
M  V30 550 H 57.9717 -2.28287 3.47885 0
M  V30 551 H 56.8477 -3.3729 4.33044 0
M  V30 552 H 57.1087 -3.57212 2.60484 0
M  V30 553 N 56.1678 -1.49265 -0.50573 0
M  V30 554 C 57.4448 -1.49012 -1.26707 0
M  V30 555 C 57.8248 -0.215205 -2.1 0
M  V30 556 O 57.1728 0.802547 -2.13943 0
M  V30 557 C 57.3828 -2.7663 -2.12783 0
M  V30 558 C 58.7308 -3.25932 -2.72127 0
M  V30 559 O 59.7548 -2.77715 -2.23054 0
M  V30 560 O 58.6138 -4.09897 -3.61451 0
M  V30 561 H 55.7078 -0.596197 -0.57313 0
M  V30 562 H 58.2538 -1.61524 -0.52039 0
M  V30 563 H 57.0258 -3.60916 -1.5118 0
M  V30 564 H 56.6488 -2.66956 -2.94653 0
M  V30 565 N 57.6459 0.756429 -1.3826 0
M  V30 566 C 58.8939 1.51248 -1.34047 0
M  V30 567 C 59.2149 1.94875 0.0698372 0
M  V30 568 O 58.4849 1.67436 1.01696 0
M  V30 569 H 57.0649 0.561018 -0.493222 0
M  V30 570 H 59.7269 0.899347 -1.7291 0
M  V30 571 H 58.8229 2.40472 -1.98947 0
M  V30 572 N 59.124 1.23083 0.984299 0
M  V30 573 C 60.349 1.088 1.76571 0
M  V30 574 C 60.774 -0.356657 1.84688 0
M  V30 575 O 60.132 -1.25788 1.30565 0
M  V30 576 C 60.18 1.71371 3.17277 0
M  V30 577 O 59.284 0.973213 4.00752 0
M  V30 578 H 58.625 0.381599 0.543395 0
M  V30 579 H 61.155 1.63057 1.23587 0
M  V30 580 H 61.165 1.76449 3.67872 0
M  V30 581 H 59.84 2.76493 3.10684 0
M  V30 582 H 58.417 0.999078 3.59267 0
M  V30 583 N 60.6021 -1.18246 1.0419 0
M  V30 584 C 61.8501 -1.87886 0.744543 0
M  V30 585 C 62.1711 -1.8082 -0.730006 0
M  V30 586 O 61.4411 -1.22736 -1.52685 0
M  V30 587 H 60.0211 -0.695556 0.272417 0
M  V30 588 H 62.6831 -1.43494 1.31892 0
M  V30 589 H 61.7791 -2.9389 1.05049 0
M  V30 590 N 62.0802 -0.821533 -1.34494 0
M  V30 591 C 63.3262 -0.409552 -1.98622 0
M  V30 592 C 63.6592 1.0244 -1.64984 0
M  V30 593 O 62.9342 1.71325 -0.920758 0
M  V30 594 C 63.2172 -0.610458 -3.54888 0
M  V30 595 C 63.0702 -2.09043 -3.98273 0
M  V30 596 C 64.3892 -0.0455379 -4.40076 0
M  V30 597 H 61.5082 -0.15028 -0.721516 0
M  V30 598 H 64.1502 -1.03384 -1.59411 0
M  V30 599 H 62.3002 -0.079044 -3.8842 0
M  V30 600 H 63.9722 -2.68537 -3.75081 0
M  V30 601 H 62.2152 -2.58139 -3.48635 0
M  V30 602 H 62.8862 -2.18182 -5.07051 0
M  V30 603 H 65.3622 -0.499557 -4.1309 0
M  V30 604 H 64.2382 -0.215922 -5.48475 0
M  V30 605 H 64.4992 1.04939 -4.29465 0
M  V30 606 N 63.5583 1.46682 -0.576371 0
M  V30 607 C 64.8073 2.01619 -0.0572825 0
M  V30 608 C 65.1203 1.45417 1.30818 0
M  V30 609 O 66.3263 1.92133 1.91825 0
M  V30 610 C 64.7823 3.59863 -0.0518371 0
M  V30 611 C 64.3903 4.25059 -1.41523 0
M  V30 612 C 66.1343 4.2248 0.413639 0
M  V30 613 C 64.0413 5.75364 -1.36785 0
M  V30 614 H 62.9713 0.753794 -0.0176448 0
M  V30 615 H 65.6223 1.68481 -0.727076 0
M  V30 616 H 64.0043 3.90048 0.683994 0
M  V30 617 H 65.1783 4.06491 -2.17029 0
M  V30 618 H 63.4933 3.7451 -1.8202 0
M  V30 619 H 66.0903 5.3265 0.467779 0
M  V30 620 H 66.4333 3.90976 1.42982 0
M  V30 621 H 66.9663 3.96897 -0.267929 0
M  V30 622 H 63.7053 6.11518 -2.36063 0
M  V30 623 H 63.2253 5.96214 -0.654895 0
M  V30 624 H 64.9043 6.37955 -1.07805 0
M  V30 625 N 65.0364 0.313813 1.54444 0
M  V30 626 C 65.9864 -0.571898 2.20711 0
M  V30 627 C 66.9704 -1.08913 1.18435 0
M  V30 628 O 68.1624 -1.02777 1.44104 0
M  V30 629 C 65.2914 -1.7371 2.96108 0
M  V30 630 C 64.3774 -1.23522 4.05713 0
M  V30 631 N 64.7684 -0.452288 5.03774 0
M  V30 632 C 63.0664 -1.51482 4.19487 0
M  V30 633 C 63.7674 -0.183438 5.81411 0
M  V30 634 N 62.7434 -0.766845 5.38164 0
M  V30 635 H 66.5454 0.0336802 2.93881 0
M  V30 636 H 64.0594 0.119192 1.61962 0
M  V30 637 H 66.0564 -2.38329 3.4206 0
M  V30 638 H 64.7164 -2.34625 2.24458 0
M  V30 639 H 65.7274 -0.0960131 5.17811 0
M  V30 640 H 62.4044 -2.13053 3.59047 0
M  V30 641 H 63.7944 0.446216 6.70417 0
M  V30 642 N 66.5145 -1.57545 0.0417849 0
M  V30 643 C 67.9305 -1.56467 -0.314704 0
M  V30 644 C 68.1305 -1.04859 -1.72066 0
M  V30 645 O 67.1865 -0.700983 -2.42575 0
M  V30 646 C 68.4995 -3.00317 -0.15174 0
M  V30 647 C 70.0475 -3.12201 -0.223553 0
M  V30 648 C 70.5225 -4.57913 -0.0892295 0
M  V30 649 N 72.0135 -4.6297 -0.145808 0
M  V30 650 C 72.7485 -5.73362 -0.0658459 0
M  V30 651 N 72.2445 -6.92769 0.0659282 0
M  V30 652 N 74.0375 -5.6197 -0.12075 0
M  V30 653 H 66.1885 -1.89416 0.961014 0
M  V30 654 H 68.4515 -0.871862 0.372237 0
M  V30 655 H 68.1575 -3.42073 0.817254 0
M  V30 656 H 68.0315 -3.65892 -0.916692 0
M  V30 657 H 70.4185 -2.70349 -1.18301 0
M  V30 658 H 70.4995 -2.49323 0.571994 0
M  V30 659 H 70.1435 -5.00448 0.866867 0
M  V30 660 H 70.0735 -5.18786 -0.903802 0
M  V30 661 H 72.5645 -3.7709 -0.247286 0
M  V30 662 H 72.8775 -7.72707 0.119905 0
M  V30 663 H 71.2225 -6.94927 0.100885 0
M  V30 664 H 74.4135 -4.67572 -0.222187 0
M  V30 665 H 74.5865 -6.47977 -0.0549735 0
M  V30 666 N 67.9926 0.231505 -1.5589 0
M  V30 667 C 69.2226 0.973092 -1.82248 0
M  V30 668 C 69.6306 1.78845 -0.617328 0
M  V30 669 O 68.9736 1.78752 0.423499 0
M  V30 670 C 69.0356 1.94732 -3.02192 0
M  V30 671 C 68.6996 1.31743 -4.37599 0
M  V30 672 C 69.6966 0.712238 -5.14998 0
M  V30 673 C 67.3816 1.33218 -4.84312 0
M  V30 674 C 69.3756 0.130195 -6.37267 0
M  V30 675 C 67.0626 0.746286 -6.06526 0
M  V30 676 C 68.0606 0.146337 -6.82843 0
M  V30 677 O 67.7486 -0.430465 -8.02747 0
M  V30 678 H 67.4806 0.29125 -0.61004 0
M  V30 679 H 70.0346 0.254915 -2.03812 0
M  V30 680 H 68.2646 2.70422 -2.76422 0
M  V30 681 H 69.9536 2.55362 -3.15508 0
M  V30 682 H 70.7196 0.69324 -4.8002 0
M  V30 683 H 66.5986 1.78854 -4.24891 0
M  V30 684 H 70.1426 -0.33871 -6.96777 0
M  V30 685 H 66.0396 0.762663 -6.40979 0
M  V30 686 H 66.8076 -0.323818 -8.17859 0
M  V30 687 N 69.4707 1.49531 0.497807 0
M  V30 688 C 70.4187 1.66926 1.61983 0
M  V30 689 C 71.4127 0.535167 1.60724 0
M  V30 690 O 72.6187 0.714896 1.65195 0
M  V30 691 H 68.9937 0.526415 0.537021 0
M  V30 692 H 70.9647 2.61098 1.44465 0
M  V30 693 C 69.7137 1.75602 3.00099 0
M  V30 694 H 69.0367 2.62244 3.01775 0
M  V30 695 H 70.4767 1.91807 3.78135 0
M  V30 696 C 68.9357 0.501543 3.33146 0
M  V30 697 O 69.4657 -0.371342 3.9998 0
M  V30 698 N 67.6717 0.363531 2.88317 0
M  V30 699 H 67.2187 1.07485 2.34104 0
M  V30 700 H 67.1767 -0.474728 3.10795 0
M  V30 701 N 70.9488 -0.749086 1.3866 0
M  V30 702 C 72.3648 -1.05276 1.19955 0
M  V30 703 C 72.5648 -2.01435 0.05134 0
M  V30 704 O 71.6208 -2.45232 -0.60147 0
M  V30 705 C 72.9338 -1.62853 2.52783 0
M  V30 706 C 74.4818 -1.75002 2.59506 0
M  V30 707 C 74.9568 -2.35991 3.92521 0
M  V30 708 N 76.4478 -2.43416 3.94085 0
M  V30 709 C 77.1828 -2.91511 4.9377 0
M  V30 710 N 76.6788 -3.39608 6.03853 0
M  V30 711 N 78.4718 -2.90592 4.81157 0
M  V30 712 H 70.6228 -0.111066 2.12109 0
M  V30 713 H 72.8858 -0.111901 0.941373 0
M  V30 714 H 72.5918 -0.99664 3.37283 0
M  V30 715 H 72.4658 -2.61854 2.715 0
M  V30 716 H 74.8528 -2.37317 1.75398 0
M  V30 717 H 74.9338 -0.74693 2.44652 0
M  V30 718 H 74.5778 -1.74308 4.77053 0
M  V30 719 H 74.5078 -3.3695 4.04688 0
M  V30 720 H 76.9988 -2.09405 3.14576 0
M  V30 721 H 77.3118 -3.74775 6.75843 0
M  V30 722 H 75.6568 -3.37653 6.07466 0
M  V30 723 H 78.8478 -2.52332 3.94267 0
M  V30 724 H 79.0208 -3.27762 5.58996 0
M  V30 725 N 72.4269 -1.23603 -0.977757 0
M  V30 726 C 73.6549 -1.09646 -1.75458 0
M  V30 727 C 74.0699 0.351859 -1.85492 0
M  V30 728 O 73.4269 1.24327 -1.336 0
M  V30 729 C 73.4779 -1.71895 -3.18016 0
M  V30 730 O 73.1989 -3.11063 -3.08498 0
M  V30 731 C 74.6999 -1.63415 -4.12081 0
M  V30 732 H 71.9199 -0.38359 -0.550545 0
M  V30 733 H 74.4639 -1.63507 -1.22824 0
M  V30 734 H 72.6189 -1.22061 -3.67668 0
M  V30 735 H 73.0329 -3.41305 -3.9826 0
M  V30 736 H 74.5069 -2.11669 -5.09804 0
M  V30 737 H 74.9839 -0.593462 -4.35172 0
M  V30 738 H 75.5899 -2.12628 -3.68334 0
M  V30 739 N 73.905 1.17692 -1.04816 0
M  V30 740 C 74.815 2.25229 -0.65643 0
M  V30 741 C 75.831 1.71018 0.320761 0
M  V30 742 O 77.007 2.00649 0.173805 0
M  V30 743 C 74.072 3.46684 -0.0332629 0
M  V30 744 C 73.133 4.15997 -1.06042 0
M  V30 745 C 72.366 5.31654 -0.466893 0
M  V30 746 O 72.589 5.65777 0.724758 0
M  V30 747 O 71.523 5.89831 -1.1993 0
M  V30 748 H 75.349 2.61016 -1.55255 0
M  V30 749 H 72.934 1.24919 -0.81949 0
M  V30 750 H 74.816 4.20234 0.313256 0
M  V30 751 H 73.491 3.12703 0.836566 0
M  V30 752 H 72.398 3.44482 -1.45886 0
M  V30 753 H 73.731 4.53996 -1.90127 0
M  V30 754 N 75.3831 0.828654 1.34056 0
M  V30 755 C 76.6081 0.431637 2.02859 0
M  V30 756 C 77.0331 -0.956339 1.61975 0
M  V30 757 O 76.3911 -1.62338 0.807228 0
M  V30 758 C 76.4391 0.548323 3.56407 0
M  V30 759 O 75.5431 -0.429556 4.10157 0
M  V30 760 H 74.8841 0.176886 0.640006 0
M  V30 761 H 77.4141 1.12066 1.71179 0
M  V30 762 H 77.4241 0.426196 4.05768 0
M  V30 763 H 76.0991 1.5606 3.8551 0
M  V30 764 H 74.6761 -0.265836 3.71951 0
M  V30 765 N 76.8612 -1.46375 0.584142 0
M  V30 766 C 78.2772 -1.57694 0.245929 0
M  V30 767 C 78.4772 -1.57903 -1.25175 0
M  V30 768 O 77.5332 -1.49676 -2.03355 0
M  V30 769 C 78.8462 -2.87028 0.896402 0
M  V30 770 C 80.3942 -3.00662 0.870127 0
M  V30 771 C 80.8692 -4.32734 1.50017 0
M  V30 772 N 82.3602 -4.39436 1.46458 0
M  V30 773 C 83.0952 -5.40248 1.92144 0
M  V30 774 N 82.5912 -6.47726 2.4581 0
M  V30 775 N 84.3842 -5.31459 1.83052 0
M  V30 776 H 76.5352 -1.44483 1.55687 0
M  V30 777 H 78.7982 -0.689291 0.650831 0
M  V30 778 H 78.5042 -2.9269 1.95002 0
M  V30 779 H 78.3782 -3.75014 0.405486 0
M  V30 780 H 80.7652 -2.94581 -0.174871 0
M  V30 781 H 80.8462 -2.14148 1.39908 0
M  V30 782 H 80.4902 -4.39573 2.54437 0
M  V30 783 H 80.4202 -5.18025 0.946432 0
M  V30 784 H 82.9112 -3.62367 1.07231 0
M  V30 785 H 83.2242 -7.20863 2.78525 0
M  V30 786 H 81.5692 -6.48542 2.49836 0
M  V30 787 H 84.7602 -4.46396 1.40883 0
M  V30 788 H 84.9332 -6.09881 2.18973 0
M  V30 789 N 78.3393 -0.321999 -1.54275 0
M  V30 790 C 79.2693 0.537411 -2.27231 0
M  V30 791 C 80.2503 1.12064 -1.27968 0
M  V30 792 O 81.4353 1.14606 -1.56777 0
M  V30 793 C 78.5653 1.69919 -3.02894 0
M  V30 794 C 77.5193 1.24534 -4.09482 0
M  V30 795 C 76.8453 2.49394 -4.72977 0
M  V30 796 C 78.1453 0.361335 -5.21049 0
M  V30 797 H 79.8393 -0.0711406 -2.99315 0
M  V30 798 H 77.3853 -0.0356555 -1.43956 0
M  V30 799 H 79.3383 2.30668 -3.52662 0
M  V30 800 H 78.0623 2.33431 -2.28424 0
M  V30 801 H 76.7213 0.660782 -3.60596 0
M  V30 802 H 76.3693 3.11265 -3.95124 0
M  V30 803 H 76.0693 2.19718 -5.44975 0
M  V30 804 H 77.5933 3.10908 -5.25517 0
M  V30 805 H 79.0073 0.875072 -5.66582 0
M  V30 806 H 77.4043 0.157428 -5.99893 0
M  V30 807 H 78.4743 -0.60822 -4.8107 0
M  V30 808 N 79.8174 1.5752 -0.0501392 0
M  V30 809 C 81.0424 1.97376 0.636997 0
M  V30 810 C 81.4674 0.927466 1.63645 0
M  V30 811 O 80.8254 -0.10941 1.8097 0
M  V30 812 C 80.8734 3.36304 1.30123 0
M  V30 813 O 79.9774 3.34156 2.41689 0
M  V30 814 H 79.3184 0.642998 0.165679 0
M  V30 815 H 81.8484 2.04258 -0.118233 0
M  V30 816 H 81.8584 3.73008 1.65315 0
M  V30 817 H 80.5334 4.11993 0.568746 0
M  V30 818 H 79.1104 3.09196 2.08451 0
M  V30 819 N 81.2955 -0.223234 1.56011 0
M  V30 820 C 82.5435 -0.946003 1.78592 0
M  V30 821 C 82.8645 -1.84936 0.618349 0
M  V30 822 O 82.1345 -1.92473 -0.364833 0
M  V30 823 H 80.7145 -0.352298 0.658707 0
M  V30 824 H 83.3765 -0.235494 1.93472 0
M  V30 825 H 82.4725 -1.55381 2.70672 0
M  V30 826 N 82.7736 -1.49793 -0.48987 0
M  V30 827 C 84.1896 -1.36803 -0.822022 0
M  V30 828 C 84.3896 -0.409652 -1.97292 0
M  V30 829 O 83.4456 0.154614 -2.52026 0
M  V30 830 C 84.7586 -2.77768 -1.15175 0
M  V30 831 C 86.3066 -2.86549 -1.25931 0
M  V30 832 C 86.7816 -4.28306 -1.62228 0
M  V30 833 N 88.2726 -4.31169 -1.69256 0
M  V30 834 C 89.0076 -5.37832 -1.98807 0
M  V30 835 N 88.5036 -6.54726 -2.26507 0
M  V30 836 N 90.2966 -5.25258 -2.00152 0
M  V30 837 H 82.4476 -2.10691 0.268881 0
M  V30 838 H 84.7106 -0.946241 0.057728 0
M  V30 839 H 84.4166 -3.49648 -0.379335 0
M  V30 840 H 84.2906 -3.13836 -2.09253 0
M  V30 841 H 86.6776 -2.14899 -2.02243 0
M  V30 842 H 86.7586 -2.54049 -0.298776 0
M  V30 843 H 86.4026 -5.00486 -0.864622 0
M  V30 844 H 86.3326 -4.58279 -2.594 0
M  V30 845 H 88.8236 -3.4687 -1.49965 0
M  V30 846 H 89.1366 -7.31833 -2.48276 0
M  V30 847 H 87.4816 -6.57933 -2.23939 0
M  V30 848 H 90.6726 -4.32938 -1.77996 0
M  V30 849 H 90.8456 -6.08476 -2.22848 0
M  V30 850 N 84.2517 0.741722 -1.39055 0
M  V30 851 C 85.5007 1.49656 -1.35225 0
M  V30 852 C 85.8137 1.95533 0.0512708 0
M  V30 853 O 87.0197 2.7067 0.212138 0
M  V30 854 C 85.4757 2.70389 -2.37525 0
M  V30 855 C 85.0837 2.31489 -3.83558 0
M  V30 856 C 86.8277 3.48236 -2.42759 0
M  V30 857 C 84.7347 3.48903 -4.77515 0
M  V30 858 H 83.6647 0.56197 -0.502699 0
M  V30 859 H 86.3157 0.809727 -1.64668 0
M  V30 860 H 84.6977 3.41113 -2.01142 0
M  V30 861 H 85.8717 1.68354 -4.28945 0
M  V30 862 H 84.1867 1.66749 -3.81554 0
M  V30 863 H 86.7837 4.35558 -3.1015 0
M  V30 864 H 87.1267 3.90229 -1.45008 0
M  V30 865 H 87.6597 2.84535 -2.78002 0
M  V30 866 H 84.3987 3.11966 -5.76504 0
M  V30 867 H 83.9187 4.11041 -4.36813 0
M  V30 868 H 85.5977 4.15328 -4.96096 0
M  V30 869 N 85.7298 1.2412 0.971189 0
M  V30 870 C 87.1408 1.07236 1.52831 0
M  V30 871 C 87.4918 -0.357352 1.92918 0
M  V30 872 O 86.6168 -1.24528 1.76979 0
M  V30 873 C 87.2118 1.94043 2.77728 0
M  V30 874 C 85.7708 1.81394 3.29808 0
M  V30 875 C 84.9178 1.89189 2.02738 0
M  V30 876 H 87.8688 1.37648 0.789864 0
M  V30 877 H 87.8898 1.47066 3.5093 0
M  V30 878 H 87.4018 2.98093 2.4852 0
M  V30 879 H 85.5028 0.801634 3.63874 0
M  V30 880 H 85.6158 2.65294 3.98944 0
M  V30 881 H 83.9798 1.32877 2.17292 0
M  V30 882 H 84.7628 2.94812 1.759 0
M  V30 883 N 87.2079 -1.17134 1.05439 0
M  V30 884 C 88.1179 -2.24878 0.668365 0
M  V30 885 C 89.1339 -1.71186 -0.311687 0
M  V30 886 O 90.3099 -2.00738 -0.163161 0
M  V30 887 C 87.3749 -3.46662 0.051648 0
M  V30 888 C 86.4359 -4.15429 1.08246 0
M  V30 889 C 85.6689 -5.31399 0.495082 0
M  V30 890 O 85.8919 -5.66153 -0.694743 0
M  V30 891 O 84.8259 -5.89187 1.23056 0
M  V30 892 H 88.6519 -2.60189 1.56637 0
M  V30 893 H 86.2369 -1.24482 0.826104 0
M  V30 894 H 88.1189 -4.20394 -0.290966 0
M  V30 895 H 86.7939 -3.13142 -0.819971 0
M  V30 896 H 85.7009 -3.43704 1.47711 0
M  V30 897 H 87.0339 -4.52982 1.92532 0
M  V30 898 N 88.686 -0.835752 -1.33615 0
M  V30 899 C 90.102 -0.523139 -1.50783 0
M  V30 900 C 90.302 0.950171 -1.77691 0
M  V30 901 O 89.358 1.73411 -1.83534 0
M  V30 902 C 90.671 -1.39378 -2.66448 0
M  V30 903 C 92.219 -1.39223 -2.80332 0
M  V30 904 C 92.694 -2.24765 -3.99055 0
M  V30 905 N 94.185 -2.22458 -4.06284 0
M  V30 906 C 94.92 -2.85386 -4.97336 0
M  V30 907 N 94.416 -3.57354 -5.93523 0
M  V30 908 N 96.209 -2.74872 -4.90308 0
M  V30 909 H 88.36 -1.78952 -1.14411 0
M  V30 910 H 90.623 -0.763297 -0.562212 0
M  V30 911 H 90.329 -2.44061 -2.53234 0
M  V30 912 H 90.203 -1.0676 -3.61776 0
M  V30 913 H 92.59 -0.353136 -2.92979 0
M  V30 914 H 92.671 -1.75846 -1.85773 0
M  V30 915 H 92.315 -3.28732 -3.87167 0
M  V30 916 H 92.245 -1.85485 -4.92852 0
M  V30 917 H 94.736 -1.70119 -3.37443 0
M  V30 918 H 95.049 -4.02584 -6.59656 0
M  V30 919 H 93.394 -3.61461 -5.93608 0
M  V30 920 H 96.585 -2.18213 -4.14126 0
M  V30 921 H 96.758 -3.24199 -5.61069 0
M  V30 922 N 90.1641 1.46063 -0.591896 0
M  V30 923 C 91.4101 2.02638 -0.0811191 0
M  V30 924 C 91.7431 1.4613 1.27905 0
M  V30 925 O 91.0181 0.629908 1.84017 0
M  V30 926 C 91.3011 3.60091 -0.0252436 0
M  V30 927 C 91.1541 4.26965 -1.41496 0
M  V30 928 C 92.4731 4.3496 0.670685 0
M  V30 929 H 89.5921 0.73635 -0.0309524 0
M  V30 930 H 92.2341 1.741 -0.760859 0
M  V30 931 H 90.3841 3.84535 0.553624 0
M  V30 932 H 92.0561 4.13756 -2.0397 0
M  V30 933 H 90.2991 3.85971 -1.98011 0
M  V30 934 H 90.9701 5.35781 -1.32825 0
M  V30 935 H 93.4461 4.15716 0.178825 0
M  V30 936 H 92.3221 5.44686 0.678837 0
M  V30 937 H 92.5831 4.06685 1.73379 0
M  V30 938 N 91.6422 0.330177 1.54103 0
M  V30 939 C 92.8912 -0.271336 1.99867 0
M  V30 940 C 93.2042 -1.52723 1.22209 0
M  V30 941 O 94.4102 -2.20515 1.58383 0
M  V30 942 C 92.8662 -0.534032 3.55916 0
M  V30 943 C 92.4742 0.705193 4.42415 0
M  V30 944 C 94.2182 -1.09514 4.1013 0
M  V30 945 C 92.1252 0.414035 5.89949 0
M  V30 946 H 91.0552 -0.105166 0.74663 0
M  V30 947 H 93.7062 0.443429 1.78062 0
M  V30 948 H 92.0882 -1.30915 3.73734 0
M  V30 949 H 93.2622 1.4804 4.36372 0
M  V30 950 H 91.5772 1.18698 3.99124 0
M  V30 951 H 94.1742 -1.3277 5.17954 0
M  V30 952 H 94.5172 -2.04656 3.62521 0
M  V30 953 H 95.0502 -0.381038 3.95971 0
M  V30 954 H 91.7892 1.33481 6.41766 0
M  V30 955 H 91.3092 -0.323336 5.98928 0
M  V30 956 H 92.9882 0.0263105 6.46995 0
M  V30 957 N 93.1203 -1.57491 0.0584922 0
M  V30 958 C 94.3683 -1.92597 -0.612436 0
M  V30 959 C 94.6893 -0.938162 -1.70949 0
M  V30 960 O 93.9593 0.0158301 -1.95894 0
M  V30 961 H 92.5393 -0.710964 -0.229214 0
M  V30 962 H 95.2013 -1.94571 0.113218 0
M  V30 963 H 94.2973 -2.94038 -1.04633 0
M  V30 964 N 94.5984 0.214957 -1.56127 0
M  V30 965 C 96.0144 0.564948 -1.49267 0
M  V30 966 C 96.2144 1.86827 -0.754838 0
M  V30 967 O 95.2704 2.50745 -0.297198 0
M  V30 968 C 96.5834 0.638071 -2.93852 0
M  V30 969 C 98.1314 0.728253 -3.0441 0
M  V30 970 C 98.6064 0.832663 -4.50367 0
M  V30 971 N 100.097 0.896712 -4.54437 0
M  V30 972 C 100.832 0.997324 -5.6466 0
M  V30 973 N 100.328 1.06147 -6.8462 0
M  V30 974 N 102.121 1.03297 -5.52527 0
M  V30 975 H 94.2724 -0.640211 -2.02522 0
M  V30 976 H 96.5354 -0.225507 -0.920788 0
M  V30 977 H 96.2414 -0.250126 -3.50809 0
M  V30 978 H 96.1154 1.49947 -3.46115 0
M  V30 979 H 98.5024 1.60689 -2.47514 0
M  V30 980 H 98.5834 -0.158952 -2.55306 0
M  V30 981 H 98.2274 -0.0415417 -5.07883 0
M  V30 982 H 98.1574 1.73538 -4.97184 0
M  V30 983 H 100.648 0.857188 -3.6805 0
M  V30 984 H 100.961 1.1382 -7.64372 0
M  V30 985 H 99.3064 1.03049 -6.87318 0
M  V30 986 H 102.497 0.979558 -4.57736 0
M  V30 987 H 102.67 1.10793 -6.38458 0
M  V30 988 N 96.0765 1.50051 0.48192 0
M  V30 989 C 97.0245 1.68635 1.60203 0
M  V30 990 C 98.0185 0.552184 1.60148 0
M  V30 991 O 99.2245 0.732377 1.64427 0
M  V30 992 H 95.5995 0.532081 0.531407 0
M  V30 993 H 97.5705 2.62616 1.41688 0
M  V30 994 C 96.3195 1.78775 2.9822 0
M  V30 995 H 95.6425 2.6543 2.98976 0
M  V30 996 H 97.0825 1.95806 3.7608 0
M  V30 997 C 95.5415 0.536849 3.32595 0
M  V30 998 O 96.0715 -0.328897 4.00351 0
M  V30 999 N 94.2775 0.394091 2.87915 0
M  V30 1000 H 93.8245 1.09962 2.32951 0
M  V30 1001 H 93.7825 -0.441737 3.11281 0
M  V30 1002 N 97.5546 -0.734337 1.39446 0
M  V30 1003 C 98.8016 -1.49391 1.36706 0
M  V30 1004 C 99.1296 -1.94465 -0.0367813 0
M  V30 1005 O 98.3846 -1.67154 -1.01774 0
M  V30 1006 C 98.6836 -2.74711 2.28623 0
M  V30 1007 C 98.3496 -2.48501 3.76242 0
M  V30 1008 C 97.0116 -2.41062 4.16464 0
M  V30 1009 C 99.3636 -2.26098 4.69606 0
M  V30 1010 C 96.6916 -2.09262 5.48112 0
M  V30 1011 C 99.0436 -1.95814 6.01531 0
M  V30 1012 C 97.7076 -1.86845 6.40816 0
M  V30 1013 H 96.9776 -0.546661 0.500243 0
M  V30 1014 H 99.6246 -0.842788 1.71957 0
M  V30 1015 H 97.9296 -3.44569 1.86492 0
M  V30 1016 H 99.6266 -3.32741 2.23796 0
M  V30 1017 H 96.2166 -2.55169 3.44364 0
M  V30 1018 H 100.401 -2.30812 4.39363 0
M  V30 1019 H 95.6566 -2.00841 5.77471 0
M  V30 1020 H 99.8306 -1.77488 6.73403 0
M  V30 1021 H 97.4576 -1.6197 7.42745 0
M  V30 1022 N 99.0327 -1.24633 -0.964593 0
M  V30 1023 C 100.28 -1.08788 -1.70796 0
M  V30 1024 C 100.608 0.372783 -1.90894 0
M  V30 1025 O 99.8627 1.29167 -1.47018 0
M  V30 1026 C 100.162 -1.7763 -3.10133 0
M  V30 1027 C 99.8277 -3.27557 -3.09866 0
M  V30 1028 C 98.4897 -3.6846 -3.09501 0
M  V30 1029 C 100.842 -4.23389 -3.03959 0
M  V30 1030 C 98.1697 -5.03624 -3.00965 0
M  V30 1031 C 100.522 -5.58565 -2.96965 0
M  V30 1032 C 99.1857 -5.98809 -2.9493 0
M  V30 1033 H 98.4557 -0.398084 -0.624988 0
M  V30 1034 H 101.103 -1.54777 -1.12767 0
M  V30 1035 H 99.4077 -1.24044 -3.71645 0
M  V30 1036 H 101.105 -1.62832 -3.66451 0
M  V30 1037 H 97.6947 -2.95006 -3.10917 0
M  V30 1038 H 101.879 -3.92787 -3.03368 0
M  V30 1039 H 97.1347 -5.33998 -2.97752 0
M  V30 1040 H 101.309 -6.32523 -2.91354 0
M  V30 1041 H 98.9357 -7.03505 -2.88071 0
M  V30 1042 N 100.511 1.16574 -1.06058 0
M  V30 1043 C 101.739 1.90952 -0.796552 0
M  V30 1044 C 102.154 1.77302 0.648808 0
M  V30 1045 O 101.511 1.11605 1.44397 0
M  V30 1046 C 101.562 3.41736 -1.17894 0
M  V30 1047 O 101.283 3.54975 -2.56758 0
M  V30 1048 C 102.784 4.33169 -0.942308 0
M  V30 1049 H 100.004 0.605594 -0.288959 0
M  V30 1050 H 102.548 1.47777 -1.41358 0
M  V30 1051 H 100.703 3.82623 -0.606491 0
M  V30 1052 H 101.117 4.4846 -2.72 0
M  V30 1053 H 102.591 5.37439 -1.25952 0
M  V30 1054 H 103.068 4.3903 0.122078 0
M  V30 1055 H 103.674 3.98007 -1.49902 0
M  V30 1056 N 101.989 0.842826 1.3317 0
M  V30 1057 C 102.899 0.281444 2.32906 0
M  V30 1058 C 103.915 -0.594587 1.63526 0
M  V30 1059 O 105.091 -0.49777 1.95152 0
M  V30 1060 C 102.156 -0.530929 3.42611 0
M  V30 1061 C 101.217 0.369843 4.27704 0
M  V30 1062 C 100.45 -0.403853 5.3217 0
M  V30 1063 O 100.673 -1.63513 5.46461 0
M  V30 1064 O 99.6069 0.224199 6.01482 0
M  V30 1065 H 103.433 1.10744 2.82789 0
M  V30 1066 H 101.018 0.60545 1.36582 0
M  V30 1067 H 102.9 -0.992437 4.09547 0
M  V30 1068 H 101.575 -1.33392 2.94938 0
M  V30 1069 H 100.482 0.879275 3.6362 0
M  V30 1070 H 101.815 1.13771 4.78871 0
M  V30 1071 N 103.467 -1.45747 0.599634 0
M  V30 1072 C 104.713 -2.02592 0.0918643 0
M  V30 1073 C 105.046 -1.46806 -1.27128 0
M  V30 1074 O 104.321 -0.639658 -1.83681 0
M  V30 1075 C 104.604 -3.60073 0.0443398 0
M  V30 1076 C 104.457 -4.26208 1.43759 0
M  V30 1077 C 105.776 -4.35309 -0.647608 0
M  V30 1078 H 102.895 -0.736175 0.034857 0
M  V30 1079 H 105.537 -1.73694 0.770081 0
M  V30 1080 H 103.687 -3.84823 -0.533224 0
M  V30 1081 H 105.359 -4.12668 2.06162 0
M  V30 1082 H 103.602 -3.84916 2.00056 0
M  V30 1083 H 104.273 -5.35069 1.35665 0
M  V30 1084 H 106.749 -4.15805 -0.156776 0
M  V30 1085 H 105.625 -5.45038 -0.649942 0
M  V30 1086 H 105.886 -4.07598 -1.71219 0
M  V30 1087 N 104.945 -0.338344 -1.53925 0
M  V30 1088 C 105.908 0.508299 -2.23493 0
M  V30 1089 C 106.908 1.03175 -1.23335 0
M  V30 1090 O 108.098 0.921826 -1.47811 0
M  V30 1091 C 105.23 1.70754 -2.95052 0
M  V30 1092 H 106.423 -0.100058 -2.99733 0
M  V30 1093 H 103.976 -0.0896198 -1.56043 0
M  V30 1094 H 104.711 2.35474 -2.22986 0
M  V30 1095 H 104.496 1.33946 -3.68512 0
M  V30 1096 H 105.986 2.30818 -3.48013 0
M  V30 1097 N 106.423 1.57458 -0.0668435 0
M  V30 1098 C 107.834 1.80776 0.466558 0
M  V30 1099 C 108.185 0.980361 1.69951 0
M  V30 1100 O 107.31 0.201441 2.1546 0
M  V30 1101 C 107.905 3.27881 0.85321 0
M  V30 1102 C 106.464 3.52062 1.3315 0
M  V30 1103 C 105.611 2.75513 0.314264 0
M  V30 1104 H 108.562 1.5598 -0.292588 0
M  V30 1105 H 108.583 3.39659 1.715 0
M  V30 1106 H 108.095 3.88075 -0.0443439 0
M  V30 1107 H 106.196 2.97167 2.24772 0
M  V30 1108 H 106.309 4.60762 1.31285 0
M  V30 1109 H 104.673 2.42123 0.790492 0
M  V30 1110 H 105.456 3.38442 -0.575477 0
M  V30 1111 N 107.901 -0.206675 1.56239 0
M  V30 1112 C 109.141 -0.93574 1.81723 0
M  V30 1113 C 109.505 -1.80927 0.642609 0
M  V30 1114 O 110.706 -2.57323 0.777081 0
M  V30 1115 C 108.977 -1.74012 3.12177 0
M  V30 1116 S 110.536 -2.52279 3.59028 0
M  V30 1117 H 107.354 -0.314065 0.637875 0
M  V30 1118 H 109.956 -0.200071 1.94474 0
M  V30 1119 H 108.66 -1.0888 3.95693 0
M  V30 1120 H 108.191 -2.51782 3.02274 0
M  V30 1121 H 110.206 -3.76209 3.23545 0
M  V30 1122 N 109.379 -1.50304 -0.473955 0
M  V30 1123 C 110.607 -1.64902 -1.24959 0
M  V30 1124 C 111.022 -0.331198 -1.85872 0
M  V30 1125 O 110.379 0.68652 -1.69095 0
M  V30 1126 C 110.43 -2.73803 -2.36038 0
M  V30 1127 O 110.151 -4.00477 -1.77624 0
M  V30 1128 C 111.652 -2.99349 -3.26964 0
M  V30 1129 H 108.872 -0.554383 -0.378022 0
M  V30 1130 H 111.416 -1.9651 -0.566054 0
M  V30 1131 H 109.571 -2.44898 -3.00173 0
M  V30 1132 H 109.985 -4.60678 -2.5075 0
M  V30 1133 H 111.459 -3.79217 -4.01121 0
M  V30 1134 H 111.936 -2.10307 -3.85574 0
M  V30 1135 H 112.542 -3.29774 -2.68569 0
M  V30 1136 N 110.857 0.726932 -1.39834 0
M  V30 1137 C 111.805 1.86235 -1.39353 0
M  V30 1138 C 112.799 1.67144 -0.275555 0
M  V30 1139 O 114.005 1.74387 -0.44601 0
M  V30 1140 H 110.38 0.613174 -0.43534 0
M  V30 1141 H 112.351 1.83756 -2.35109 0
M  V30 1142 C 111.1 3.23995 -1.26185 0
M  V30 1143 H 110.423 3.39285 -2.11484 0
M  V30 1144 H 111.863 4.03609 -1.29907 0
M  V30 1145 C 110.322 3.36888 0.0290018 0
M  V30 1146 O 110.852 3.89152 0.99619 0
M  V30 1147 N 109.058 2.90446 0.0947437 0
M  V30 1148 H 108.605 2.48102 -0.693035 0
M  V30 1149 H 108.563 2.99451 0.957932 0
M  V30 1150 N 112.336 1.25143 0.95797 0
M  V30 1151 C 113.585 1.0909 1.69654 0
M  V30 1152 C 113.898 -0.368548 1.92097 0
M  V30 1153 O 115.104 -0.649455 2.63618 0
M  V30 1154 C 113.56 1.90395 3.05414 0
M  V30 1155 C 113.168 3.4081 2.90779 0
M  V30 1156 C 114.912 1.82901 3.83076 0
M  V30 1157 C 112.819 4.14423 4.21909 0
M  V30 1158 H 111.749 0.404625 0.636235 0
M  V30 1159 H 114.4 1.4931 1.06672 0
M  V30 1160 H 112.782 1.42996 3.69281 0
M  V30 1161 H 113.956 3.95859 2.35865 0
M  V30 1162 H 112.271 3.49361 2.26575 0
M  V30 1163 H 114.868 2.35196 4.80195 0
M  V30 1164 H 115.211 0.796224 4.08615 0
M  V30 1165 H 115.744 2.28033 3.25954 0
M  V30 1166 H 112.483 5.18102 4.01561 0
M  V30 1167 H 112.003 3.64159 4.76601 0
M  V30 1168 H 113.682 4.21956 4.90471 0
M  V30 1169 N 113.814 -1.1601 1.06675 0
M  V30 1170 C 115.225 -1.68235 0.809565 0
M  V30 1171 C 115.576 -1.8454 -0.666303 0
M  V30 1172 O 114.701 -1.54374 -1.5165 0
M  V30 1173 C 115.296 -3.05585 1.46299 0
M  V30 1174 C 113.855 -3.54915 1.25349 0
M  V30 1175 C 113.002 -2.30804 1.53703 0
M  V30 1176 H 115.953 -1.00318 1.22971 0
M  V30 1177 H 115.974 -3.70174 0.880431 0
M  V30 1178 H 115.486 -2.93686 2.53713 0
M  V30 1179 H 113.587 -3.72067 0.199261 0
M  V30 1180 H 113.7 -4.36774 1.9689 0
M  V30 1181 H 112.064 -2.36007 0.957739 0
M  V30 1182 H 112.847 -2.21499 2.62284 0
M  V30 1183 N 115.292 -0.849877 -1.32721 0
M  V30 1184 C 116.255 -0.296122 -2.27279 0
M  V30 1185 C 117.255 0.541458 -1.5141 0
M  V30 1186 O 118.445 0.353658 -1.70572 0
M  V30 1187 C 115.577 0.581579 -3.35902 0
M  V30 1188 H 116.77 -1.13064 -2.77771 0
M  V30 1189 H 114.323 -0.62383 -1.43311 0
M  V30 1190 H 115.058 1.43809 -2.9067 0
M  V30 1191 H 114.843 -0.0178814 -3.92096 0
M  V30 1192 H 116.333 0.961951 -4.0637 0
M  V30 1193 N 116.77 1.45427 -0.607355 0
M  V30 1194 C 118.017 2.02241 -0.102455 0
M  V30 1195 C 118.345 1.4758 1.26691 0
M  V30 1196 O 117.6 0.640468 1.84923 0
M  V30 1197 C 117.899 3.57398 -0.0129263 0
M  V30 1198 C 117.565 4.3121 -1.31792 0
M  V30 1199 C 116.227 4.51092 -1.67539 0
M  V30 1200 C 118.579 4.73401 -2.18039 0
M  V30 1201 C 115.907 5.10422 -2.89285 0
M  V30 1202 C 118.259 5.34078 -3.39034 0
M  V30 1203 C 116.923 5.52184 -3.75033 0
M  V30 1204 H 116.193 0.740051 -0.037491 0
M  V30 1205 H 118.84 1.74494 -0.788926 0
M  V30 1206 H 117.145 3.84421 0.756806 0
M  V30 1207 H 118.842 3.99061 0.393881 0
M  V30 1208 H 115.432 4.16047 -1.02968 0
M  V30 1209 H 119.616 4.57774 -1.91721 0
M  V30 1210 H 114.872 5.22629 -3.17283 0
M  V30 1211 H 119.046 5.65724 -4.06115 0
M  V30 1212 H 116.673 5.97925 -4.69457 0
M  V30 1213 N 118.248 0.346503 1.53744 0
M  V30 1214 C 119.473 -0.253074 2.0585 0
M  V30 1215 C 119.898 -1.43202 1.21962 0
M  V30 1216 O 119.256 -1.79783 0.234073 0
M  V30 1217 C 119.304 -0.643193 3.54817 0
M  V30 1218 O 118.408 -1.74286 3.73762 0
M  V30 1219 H 117.749 -0.0413583 0.662711 0
M  V30 1220 H 120.279 0.501574 1.98357 0
M  V30 1221 H 120.289 -0.919526 3.97503 0
M  V30 1222 H 118.964 0.218966 4.15323 0
M  V30 1223 H 117.541 -1.46356 3.42979 0
M  V30 1224 N 119.726 -1.57421 0.075193 0
M  V30 1225 C 120.974 -1.93236 -0.591974 0
M  V30 1226 C 121.295 -0.956241 -1.69944 0
M  V30 1227 O 120.565 -0.00494792 -1.95899 0
M  V30 1228 H 119.145 -0.713355 -0.22166 0
M  V30 1229 H 121.807 -1.9444 0.133848 0
M  V30 1230 H 120.903 -2.95131 -1.01509 0
M  V30 1231 N 121.204 0.198386 -1.56346 0
M  V30 1232 C 122.62 0.549085 -1.49857 0
M  V30 1233 C 122.82 1.86016 -0.774611 0
M  V30 1234 O 121.876 2.50416 -0.323776 0
M  V30 1235 C 123.189 0.606868 -2.94512 0
M  V30 1236 C 124.737 0.695925 -3.05165 0
M  V30 1237 C 125.212 0.784848 -4.51225 0
M  V30 1238 N 126.703 0.848463 -4.55363 0
M  V30 1239 C 127.438 0.937378 -5.65686 0
M  V30 1240 N 126.934 0.9888 -6.85707 0
M  V30 1241 N 128.727 0.974312 -5.53592 0
M  V30 1242 H 120.878 -0.661655 -2.01831 0
M  V30 1243 H 123.141 -0.235261 -0.918344 0
M  V30 1244 H 122.847 -0.28732 -3.50524 0
M  V30 1245 H 122.721 1.46268 -3.47686 0
M  V30 1246 H 125.108 1.58055 -2.49204 0
M  V30 1247 H 125.189 -0.186022 -2.55123 0
M  V30 1248 H 124.833 -0.0954072 -5.0781 0
M  V30 1249 H 124.763 1.68255 -4.98997 0
M  V30 1250 H 127.254 0.818103 -3.68938 0
M  V30 1251 H 127.567 1.05707 -7.65536 0
M  V30 1252 H 125.912 0.957534 -6.88372 0
M  V30 1253 H 129.103 0.930954 -4.58749 0
M  V30 1254 H 129.276 1.04015 -6.39597 0
M  V30 1255 N 122.682 1.50554 0.465978 0
M  V30 1256 C 123.929 1.61798 1.21768 0
M  V30 1257 C 124.257 0.320696 1.91838 0
M  V30 1258 O 123.512 -0.693724 1.82992 0
M  V30 1259 C 123.811 2.75152 2.28093 0
M  V30 1260 C 123.477 4.15454 1.75239 0
M  V30 1261 C 122.139 4.53628 1.60546 0
M  V30 1262 C 124.491 5.03121 1.36083 0
M  V30 1263 C 121.819 5.77204 1.05128 0
M  V30 1264 C 124.171 6.27249 0.821056 0
M  V30 1265 C 122.835 6.64221 0.660795 0
M  V30 1266 H 122.105 0.592063 0.445582 0
M  V30 1267 H 124.752 1.84503 0.512927 0
M  V30 1268 H 123.057 2.46556 3.04496 0
M  V30 1269 H 124.754 2.81055 2.86023 0
M  V30 1270 H 121.344 3.85341 1.87644 0
M  V30 1271 H 125.528 4.74257 1.46267 0
M  V30 1272 H 120.784 6.0452 0.91462 0
M  V30 1273 H 124.958 6.94537 0.509018 0
M  V30 1274 H 122.585 7.59854 0.229226 0
M  V30 1275 N 124.16 -0.719506 1.40217 0
M  V30 1276 C 125.093 -1.84298 1.34571 0
M  V30 1277 C 126.071 -1.61149 0.216741 0
M  V30 1278 O 127.255 -1.84212 0.399756 0
M  V30 1279 C 124.382 -3.20568 1.09335 0
M  V30 1280 C 123.428 -3.62551 2.24631 0
M  V30 1281 S 124.261 -3.7012 3.87004 0
M  V30 1282 C 125.417 -5.09154 3.64024 0
M  V30 1283 H 125.65 -1.88807 2.2965 0
M  V30 1284 H 123.183 -0.885901 1.26456 0
M  V30 1285 H 125.141 -3.99246 0.954602 0
M  V30 1286 H 123.802 -3.13696 0.159164 0
M  V30 1287 H 122.995 -4.61483 2.02606 0
M  V30 1288 H 122.597 -2.91119 2.34789 0
M  V30 1289 H 124.889 -5.95955 3.22248 0
M  V30 1290 H 125.832 -5.36213 4.62473 0
M  V30 1291 H 126.24 -4.79562 2.97793 0
M  V30 1292 N 125.638 -1.25649 -0.95132 0
M  V30 1293 C 126.915 -1.01361 -1.67288 0
M  V30 1294 C 127.295 0.459135 -2.06046 0
M  V30 1295 O 126.643 1.43723 -1.7764 0
M  V30 1296 C 126.853 -1.95256 -2.89268 0
M  V30 1297 C 128.201 -2.23289 -3.61147 0
M  V30 1298 O 129.225 -1.93041 -2.99355 0
M  V30 1299 O 128.084 -2.74741 -4.72419 0
M  V30 1300 H 125.178 -0.38464 -0.732107 0
M  V30 1301 H 127.724 -1.36817 -1.00395 0
M  V30 1302 H 126.496 -2.94685 -2.57442 0
M  V30 1303 H 126.119 -1.60218 -3.6389 0
M  V30 1304 N 127.117 1.15442 -1.07289 0
M  V30 1305 C 128.365 1.85845 -0.794096 0
M  V30 1306 C 128.686 1.82692 0.681809 0
M  V30 1307 O 127.956 1.26741 1.49377 0
M  V30 1308 H 126.536 0.688089 -0.290763 0
M  V30 1309 H 129.198 1.39947 -1.3565 0
M  V30 1310 H 128.294 2.91001 -1.12804 0
M  V30 1311 N 128.595 0.856903 1.32268 0
M  V30 1312 C 129.841 0.462069 1.97466 0
M  V30 1313 C 130.174 -0.980298 1.67642 0
M  V30 1314 O 129.449 -1.68824 0.965858 0
M  V30 1315 C 129.732 0.704336 3.53145 0
M  V30 1316 C 129.585 2.19529 3.9259 0
M  V30 1317 C 130.904 0.1622 4.39801 0
M  V30 1318 H 128.023 0.169357 0.717278 0
M  V30 1319 H 130.665 1.07574 1.56614 0
M  V30 1320 H 128.815 0.181999 3.88073 0
M  V30 1321 H 130.487 2.78387 3.67829 0
M  V30 1322 H 128.73 2.67292 3.41668 0
M  V30 1323 H 129.401 2.31549 5.01088 0
M  V30 1324 H 131.877 0.608905 4.11621 0
M  V30 1325 H 130.753 0.361265 5.4771 0
M  V30 1326 H 131.014 -0.935158 4.32096 0
M  V30 1327 N 130.073 -1.45103 0.615059 0
M  V30 1328 C 131.301 -2.06553 0.11977 0
M  V30 1329 C 131.716 -1.45842 -1.19898 0
M  V30 1330 O 131.073 -0.575325 -1.73194 0
M  V30 1331 C 131.124 -3.61495 -0.018364 0
M  V30 1332 O 130.845 -4.19942 1.24822 0
M  V30 1333 C 132.346 -4.39947 -0.544237 0
M  V30 1334 H 129.566 -0.667096 0.0722739 0
M  V30 1335 H 132.11 -1.8623 0.84491 0
M  V30 1336 H 130.265 -3.81135 -0.693865 0
M  V30 1337 H 130.679 -5.13204 1.0827 0
M  V30 1338 H 132.153 -5.48838 -0.589953 0
M  V30 1339 H 132.63 -4.10255 -1.56805 0
M  V30 1340 H 133.236 -4.25188 0.0974703 0
M  V30 1341 N 131.551 -0.354651 -1.53558 0
M  V30 1342 C 132.776 0.242153 -2.05981 0
M  V30 1343 C 133.201 1.42553 -1.2272 0
M  V30 1344 O 132.559 1.79656 -0.243604 0
M  V30 1345 C 132.607 0.624367 -3.55154 0
M  V30 1346 O 131.711 1.72301 -3.74681 0
M  V30 1347 H 131.052 0.0378432 -0.662921 0
M  V30 1348 H 133.582 -0.512087 -1.98088 0
M  V30 1349 H 133.592 0.898433 -3.97985 0
M  V30 1350 H 132.267 -0.240989 -4.15201 0
M  V30 1351 H 130.844 1.44535 -3.4375 0
M  V30 1352 N 133.029 1.57378 -0.0835403 0
M  V30 1353 C 134.277 1.93547 0.581718 0
M  V30 1354 C 134.598 0.96524 1.69435 0
M  V30 1355 O 133.868 0.0153369 1.95894 0
M  V30 1356 H 132.448 0.714521 0.217874 0
M  V30 1357 H 135.11 1.94366 -0.144158 0
M  V30 1358 H 134.206 2.95665 0.999423 0
M  V30 1359 N 134.507 -0.190092 1.56449 0
M  V30 1360 C 135.735 -0.925772 1.85033 0
M  V30 1361 C 136.15 -1.76638 0.666658 0
M  V30 1362 O 135.507 -1.78822 -0.364565 0
M  V30 1363 C 135.558 -1.81786 3.12468 0
M  V30 1364 O 135.279 -1.01118 4.26271 0
M  V30 1365 C 136.78 -2.6648 3.54265 0
M  V30 1366 H 134 -0.269872 0.614337 0
M  V30 1367 H 136.544 -0.195837 2.0356 0
M  V30 1368 H 134.699 -2.50136 2.95822 0
M  V30 1369 H 135.113 -1.61956 4.98869 0
M  V30 1370 H 136.587 -3.24722 4.46385 0
M  V30 1371 H 137.064 -3.40434 2.77491 0
M  V30 1372 H 137.67 -2.03493 3.73458 0
M  V30 1373 N 135.985 -1.50799 -0.457987 0
M  V30 1374 C 136.915 -1.73553 -1.5621 0
M  V30 1375 C 137.896 -0.584774 -1.59732 0
M  V30 1376 O 139.081 -0.825314 -1.7579 0
M  V30 1377 C 136.211 -1.84169 -2.94447 0
M  V30 1378 C 135.165 -2.99461 -3.0579 0
M  V30 1379 C 134.491 -2.95235 -4.45803 0
M  V30 1380 C 135.791 -4.39766 -2.81786 0
M  V30 1381 H 137.485 -2.66 -1.37421 0
M  V30 1382 H 135.031 -1.28002 -0.659662 0
M  V30 1383 H 136.984 -1.98672 -3.71628 0
M  V30 1384 H 135.708 -0.883545 -3.14422 0
M  V30 1385 H 134.367 -2.8463 -2.31044 0
M  V30 1386 H 134.015 -1.97239 -4.62715 0
M  V30 1387 H 133.715 -3.72642 -4.54326 0
M  V30 1388 H 135.239 -3.11803 -5.24987 0
M  V30 1389 H 136.653 -4.55054 -3.4871 0
M  V30 1390 H 135.05 -5.18722 -3.0174 0
M  V30 1391 H 136.12 -4.51229 -1.7754 0
M  V30 1392 N 137.463 0.71206 -1.40597 0
M  V30 1393 C 138.74 1.46536 -1.29563 0
M  V30 1394 C 139.12 2.10931 0.0844217 0
M  V30 1395 O 138.468 2.00418 1.0975 0
M  V30 1396 C 138.678 2.49821 -2.43701 0
M  V30 1397 C 140.026 3.15551 -2.841 0
M  V30 1398 O 141.05 2.60142 -2.4332 0
M  V30 1399 O 139.909 4.15867 -3.54566 0
M  V30 1400 H 137.003 0.651801 -0.509004 0
M  V30 1401 H 139.549 0.743935 -1.52524 0
M  V30 1402 H 138.321 2.00778 -3.35863 0
M  V30 1403 H 137.944 3.29495 -2.22528 0
M  V30 1404 N 138.941 1.26152 0.944643 0
M  V30 1405 C 139.904 1.07474 2.0244 0
M  V30 1406 C 140.904 0.0242064 1.60782 0
M  V30 1407 O 142.094 0.267302 1.72137 0
M  V30 1408 C 139.226 0.633956 3.34953 0
M  V30 1409 H 140.419 2.03336 2.20442 0
M  V30 1410 H 137.972 1.087 1.12312 0
M  V30 1411 H 138.707 -0.326811 3.22649 0
M  V30 1412 H 138.492 1.39247 3.66542 0
M  V30 1413 H 139.982 0.52501 4.14287 0
M  V30 1414 N 140.419 -1.14872 1.07899 0
M  V30 1415 C 141.835 -1.37776 0.805606 0
M  V30 1416 C 142.035 -1.92743 -0.587555 0
M  V30 1417 O 141.091 -2.13678 -1.34528 0
M  V30 1418 C 142.404 -2.34361 1.88402 0
M  V30 1419 C 143.952 -2.48012 1.90942 0
M  V30 1420 C 144.427 -3.47893 2.97883 0
M  V30 1421 N 145.918 -3.55433 2.97021 0
M  V30 1422 C 146.653 -4.32553 3.76412 0
M  V30 1423 N 146.149 -5.12959 4.65666 0
M  V30 1424 N 147.942 -4.27697 3.64735 0
M  V30 1425 H 140.093 -0.775365 1.97742 0
M  V30 1426 H 142.356 -0.403521 0.857831 0
M  V30 1427 H 142.062 -2.01098 2.88535 0
M  V30 1428 H 141.936 -3.34206 1.74889 0
M  V30 1429 H 144.323 -2.8057 0.914579 0
M  V30 1430 H 144.404 -1.48147 2.08534 0
M  V30 1431 H 144.048 -3.16069 3.97571 0
M  V30 1432 H 143.978 -4.47527 2.77538 0
M  V30 1433 H 146.469 -2.98048 2.32326 0
M  V30 1434 H 146.782 -5.69065 5.22862 0
M  V30 1435 H 145.127 -5.12245 4.69712 0
M  V30 1436 H 148.318 -3.63949 2.94378 0
M  V30 1437 H 148.491 -4.8755 4.26848 0
M  V30 1438 N 141.898 -0.863906 -1.31812 0
M  V30 1439 C 143.145 -0.471836 -1.96926 0
M  V30 1440 C 143.473 0.974578 -1.68322 0
M  V30 1441 O 142.728 1.7003 -0.968933 0
M  V30 1442 C 143.027 -0.668547 -3.51091 0
M  V30 1443 C 142.693 -2.08683 -3.99703 0
M  V30 1444 C 141.355 -2.47471 -4.12688 0
M  V30 1445 C 143.707 -3.01207 -4.25351 0
M  V30 1446 C 141.035 -3.78037 -4.4867 0
M  V30 1447 C 143.387 -4.31282 -4.62794 0
M  V30 1448 C 142.051 -4.69992 -4.73987 0
M  V30 1449 H 141.321 -0.172657 -0.720604 0
M  V30 1450 H 143.968 -1.09573 -1.57054 0
M  V30 1451 H 142.273 0.0385252 -3.91781 0
M  V30 1452 H 143.97 -0.345102 -3.99512 0
M  V30 1453 H 140.56 -1.77566 -3.90087 0
M  V30 1454 H 144.744 -2.72469 -4.14819 0
M  V30 1455 H 140 -4.078 -4.55532 0
M  V30 1456 H 144.174 -5.03031 -4.81594 0
M  V30 1457 H 141.801 -5.71207 -5.01624 0
M  V30 1458 N 143.376 1.44774 -0.622745 0
M  V30 1459 C 144.653 1.95522 -0.0551974 0
M  V30 1460 C 145.033 1.5649 1.41683 0
M  V30 1461 O 144.381 0.834848 2.12703 0
M  V30 1462 C 144.591 3.4796 -0.269242 0
M  V30 1463 C 145.939 4.24306 -0.158014 0
M  V30 1464 O 146.963 3.55637 -0.200162 0
M  V30 1465 O 145.822 5.46471 -0.0558693 0
M  V30 1466 H 142.916 0.826556 0.0271015 0
M  V30 1467 H 145.462 1.54866 -0.693864 0
M  V30 1468 H 144.234 3.6939 -1.29099 0
M  V30 1469 H 143.857 3.95543 0.403966 0
M  V30 1470 N 144.854 0.36279 1.53368 0
M  V30 1471 C 146.101 -0.227776 2.01215 0
M  V30 1472 C 146.429 -1.49003 1.25014 0
M  V30 1473 O 145.684 -1.92876 0.331236 0
M  V30 1474 C 145.983 -0.568417 3.52851 0
M  V30 1475 C 145.649 0.59918 4.46901 0
M  V30 1476 C 144.311 0.919559 4.72332 0
M  V30 1477 C 146.663 1.38156 5.02556 0
M  V30 1478 C 143.991 2.02434 5.5067 0
M  V30 1479 C 146.343 2.47674 5.821 0
M  V30 1480 C 145.007 2.8025 6.05819 0
M  V30 1481 H 144.277 -0.083349 0.736297 0
M  V30 1482 H 146.924 0.494677 1.85001 0
M  V30 1483 H 145.229 -1.37185 3.66998 0
M  V30 1484 H 146.926 -1.03756 3.87344 0
M  V30 1485 H 143.516 0.339437 4.27254 0
M  V30 1486 H 147.7 1.14729 4.82857 0
M  V30 1487 H 142.956 2.28075 5.67267 0
M  V30 1488 H 147.13 3.08716 6.24234 0
M  V30 1489 H 144.757 3.65979 6.66306 0
M  V30 1490 N 146.332 -1.57332 0.0918853 0
M  V30 1491 C 147.578 -1.94524 -0.573425 0
M  V30 1492 C 147.911 -0.973578 -1.68033 0
M  V30 1493 O 147.186 -0.00609226 -1.94499 0
M  V30 1494 C 147.469 -3.41858 -1.13161 0
M  V30 1495 C 147.322 -4.4979 -0.0299747 0
M  V30 1496 C 148.641 -3.90435 -2.03098 0
M  V30 1497 H 145.76 -0.70734 -0.206975 0
M  V30 1498 H 148.402 -1.89309 0.161942 0
M  V30 1499 H 146.552 -3.46433 -1.7583 0
M  V30 1500 H 148.224 -4.57327 0.604112 0
M  V30 1501 H 146.467 -4.291 0.636833 0
M  V30 1502 H 147.138 -5.50069 -0.461287 0
M  V30 1503 H 149.614 -3.87992 -1.50338 0
M  V30 1504 H 148.49 -4.94097 -2.39081 0
M  V30 1505 H 148.751 -3.29541 -2.94712 0
M  V30 1506 N 147.81 0.181792 -1.56548 0
M  V30 1507 C 149.057 0.900097 -1.81396 0
M  V30 1508 C 149.385 1.82695 -0.667281 0
M  V30 1509 O 148.64 1.92614 0.346146 0
M  V30 1510 C 148.939 1.73728 -3.12335 0
M  V30 1511 C 148.605 0.960255 -4.40556 0
M  V30 1512 C 147.267 0.745766 -4.75386 0
M  V30 1513 C 149.619 0.414477 -5.19549 0
M  V30 1514 C 146.947 -0.0257694 -5.86694 0
M  V30 1515 C 149.299 -0.343916 -6.31664 0
M  V30 1516 C 147.963 -0.569301 -6.65068 0
M  V30 1517 H 147.233 0.329369 -0.663775 0
M  V30 1518 H 149.88 0.165647 -1.90782 0
M  V30 1519 H 148.185 2.54081 -2.98245 0
M  V30 1520 H 149.882 2.29591 -3.28769 0
M  V30 1521 H 146.472 1.13746 -4.13231 0
M  V30 1522 H 150.656 0.567554 -4.93044 0
M  V30 1523 H 145.912 -0.210233 -6.11038 0
M  V30 1524 H 150.086 -0.774133 -6.92084 0
M  V30 1525 H 147.713 -1.16903 -7.51158 0
M  V30 1526 N 149.288 1.51039 0.449983 0
M  V30 1527 C 150.565 1.53612 1.21089 0
M  V30 1528 C 150.945 0.292997 2.09057 0
M  V30 1529 O 150.293 -0.72259 2.16774 0
M  V30 1530 C 150.503 2.84337 2.0237 0
M  V30 1531 C 151.851 3.35807 2.59843 0
M  V30 1532 O 152.875 2.85802 2.12593 0
M  V30 1533 O 151.734 4.23029 3.45989 0
M  V30 1534 H 148.828 0.617057 0.550608 0
M  V30 1535 H 151.374 1.63344 0.460082 0
M  V30 1536 H 150.146 3.66278 1.37681 0
M  V30 1537 H 149.769 2.77708 2.84542 0
M  V30 1538 N 150.766 -0.704594 1.40972 0
M  V30 1539 C 152.013 -1.46458 1.39844 0
M  V30 1540 C 152.341 -1.94499 0.00447594 0
M  V30 1541 O 151.596 -1.69275 -0.982057 0
M  V30 1542 C 151.895 -2.698 2.34399 0
M  V30 1543 C 151.561 -2.40464 3.81429 0
M  V30 1544 C 150.223 -2.32174 4.21484 0
M  V30 1545 C 152.575 -2.16086 4.74296 0
M  V30 1546 C 149.903 -1.97589 5.52427 0
M  V30 1547 C 152.255 -1.83011 6.05549 0
M  V30 1548 C 150.919 -1.7321 6.44635 0
M  V30 1549 H 150.189 -0.535927 0.511725 0
M  V30 1550 H 152.836 -0.806124 1.73706 0
M  V30 1551 H 151.141 -3.40536 1.93759 0
M  V30 1552 H 152.838 -3.27919 2.30804 0
M  V30 1553 H 149.428 -2.47808 3.49699 0
M  V30 1554 H 153.612 -2.2144 4.4416 0
M  V30 1555 H 148.868 -1.88547 5.81601 0
M  V30 1556 H 153.042 -1.63164 6.77016 0
M  V30 1557 H 150.669 -1.46179 7.46013 0
M  V30 1558 N 152.244 -1.26651 -0.937939 0
M  V30 1559 C 153.176 -1.04283 -2.04102 0
M  V30 1560 C 154.189 -0.00221014 -1.628 0
M  V30 1561 O 155.378 -0.242645 -1.76843 0
M  V30 1562 C 152.478 -0.557846 -3.34277 0
M  V30 1563 C 151.651 -1.66843 -4.04329 0
M  V30 1564 C 150.71 -1.18095 -5.12777 0
M  V30 1565 O 149.736 -1.87865 -5.37304 0
M  V30 1566 N 150.938 -0.0311006 -5.80492 0
M  V30 1567 H 153.703 -1.9927 -2.23856 0
M  V30 1568 H 151.264 -1.1808 -1.10764 0
M  V30 1569 H 153.256 -0.215836 -4.04124 0
M  V30 1570 H 151.826 0.298523 -3.11171 0
M  V30 1571 H 151.046 -2.18123 -3.28353 0
M  V30 1572 H 152.334 -2.41408 -4.47883 0
M  V30 1573 H 151.732 0.551486 -5.63005 0
M  V30 1574 H 150.289 0.251809 -6.51313 0
M  V30 1575 N 153.722 1.14298 -1.08507 0
M  V30 1576 C 154.655 2.18447 -0.660004 0
M  V30 1577 C 155.633 1.59242 0.328749 0
M  V30 1578 O 156.817 1.87062 0.232367 0
M  V30 1579 C 153.944 3.38688 0.0290807 0
M  V30 1580 C 152.99 4.1646 -0.919982 0
M  V30 1581 S 153.823 4.77334 -2.42718 0
M  V30 1582 C 154.979 6.00931 -1.75024 0
M  V30 1583 H 155.212 2.54166 -1.54231 0
M  V30 1584 H 152.745 1.25446 -0.900149 0
M  V30 1585 H 154.703 4.08342 0.420378 0
M  V30 1586 H 153.364 3.01289 0.887895 0
M  V30 1587 H 152.557 5.02529 -0.384751 0
M  V30 1588 H 152.159 3.52414 -1.25223 0
M  V30 1589 H 154.451 6.69017 -1.06877 0
M  V30 1590 H 155.394 6.59044 -2.58971 0
M  V30 1591 H 155.802 5.51089 -1.22317 0
M  V30 1592 N 155.201 0.870884 1.31352 0
M  V30 1593 C 156.164 0.332243 2.26779 0
M  V30 1594 C 157.164 -0.517302 1.52252 0
M  V30 1595 O 158.354 -0.326477 1.71113 0
M  V30 1596 C 155.486 -0.528066 3.36785 0
M  V30 1597 H 156.679 1.17469 2.75937 0
M  V30 1598 H 154.232 0.64655 1.423 0
M  V30 1599 H 154.967 -1.39167 2.92922 0
M  V30 1600 H 154.752 0.0802582 3.92018 0
M  V30 1601 H 156.242 -0.897179 4.07849 0
M  V30 1602 N 156.679 -1.44442 0.630414 0
M  V30 1603 C 158.09 -1.85434 0.217063 0
M  V30 1604 C 158.441 -1.52748 -1.23136 0
M  V30 1605 O 157.566 -0.965205 -1.93682 0
M  V30 1606 C 158.161 -3.36581 0.387168 0
M  V30 1607 C 156.72 -3.76389 0.0283297 0
M  V30 1608 C 155.867 -2.68296 0.700889 0
M  V30 1609 H 158.818 -1.34919 0.83562 0
M  V30 1610 H 158.839 -3.78657 -0.374086 0
M  V30 1611 H 158.351 -3.60339 1.44144 0
M  V30 1612 H 156.452 -3.58246 -1.02423 0
M  V30 1613 H 156.565 -4.77095 0.437892 0
M  V30 1614 H 154.929 -2.54335 0.136267 0
M  V30 1615 H 155.712 -2.94887 1.75774 0
M  V30 1616 N 158.157 -0.370918 -1.53173 0
M  V30 1617 C 159.403 0.217423 -2.01631 0
M  V30 1618 C 159.736 1.47983 -1.25756 0
M  V30 1619 O 159.011 1.91274 -0.352764 0
M  V30 1620 C 159.294 0.503982 -3.56556 0
M  V30 1621 C 159.147 -0.77243 -4.43118 0
M  V30 1622 C 160.466 1.30234 -4.20389 0
M  V30 1623 H 157.585 0.0775486 -0.732909 0
M  V30 1624 H 160.227 -0.496863 -1.83388 0
M  V30 1625 H 158.377 1.11248 -3.72231 0
M  V30 1626 H 160.049 -1.4098 -4.39229 0
M  V30 1627 H 158.292 -1.39167 -4.10871 0
M  V30 1628 H 158.963 -0.526815 -5.4948 0
M  V30 1629 H 161.439 0.787546 -4.08579 0
M  V30 1630 H 160.315 1.47158 -5.28806 0
M  V30 1631 H 160.576 2.31237 -3.76805 0
M  V30 1632 N 159.635 1.57281 -0.100228 0
M  V30 1633 C 161.051 1.57527 0.256416 0
M  V30 1634 C 161.251 1.11173 1.68056 0
M  V30 1635 O 160.307 0.79053 2.39806 0
M  V30 1636 C 161.62 3.00673 0.0401747 0
M  V30 1637 C 163.168 3.12815 0.107528 0
M  V30 1638 C 163.643 4.57929 -0.0807834 0
M  V30 1639 N 165.134 4.63193 -0.0261207 0
M  V30 1640 C 165.869 5.73212 -0.146999 0
M  V30 1641 N 165.365 6.92047 -0.322999 0
M  V30 1642 N 167.158 5.62031 -0.0879044 0
M  V30 1643 H 159.309 1.85718 -1.03065 0
M  V30 1644 H 161.572 0.857446 -0.404339 0
M  V30 1645 H 161.278 3.38804 -0.943649 0
M  V30 1646 H 161.152 3.69042 0.780262 0
M  V30 1647 H 163.539 2.74554 1.08186 0
M  V30 1648 H 163.62 2.47028 -0.664134 0
M  V30 1649 H 163.264 4.96886 -1.05201 0
M  V30 1650 H 163.194 5.21783 0.710635 0
M  V30 1651 H 165.685 3.77748 0.107161 0
M  V30 1652 H 165.998 7.7173 -0.406608 0
M  V30 1653 H 164.343 6.94074 -0.358733 0
M  V30 1654 H 167.534 4.68075 0.048498 0
M  V30 1655 H 167.707 6.47734 -0.185557 0
M  V30 1656 N 161.113 -0.173488 1.56642 0
M  V30 1657 C 162.359 -0.891784 1.8214 0
M  V30 1658 C 162.692 -1.8199 0.677736 0
M  V30 1659 O 161.967 -1.91842 -0.320446 0
M  V30 1660 C 162.25 -1.68933 3.18015 0
M  V30 1661 C 162.103 -0.784487 4.42906 0
M  V30 1662 C 163.422 -2.65748 3.50808 0
M  V30 1663 H 160.541 -0.322761 0.662567 0
M  V30 1664 H 163.183 -0.158095 1.89341 0
M  V30 1665 H 161.333 -2.31482 3.12007 0
M  V30 1666 H 163.005 -0.172046 4.60979 0
M  V30 1667 H 161.248 -0.0924117 4.33702 0
M  V30 1668 H 161.919 -1.37799 5.34524 0
M  V30 1669 H 164.395 -2.13327 3.57255 0
M  V30 1670 H 163.271 -3.18619 4.4696 0
M  V30 1671 H 163.532 -3.45842 2.75401 0
M  V30 1672 N 162.591 -1.51276 -0.441967 0
M  V30 1673 C 163.523 -1.68444 -1.55433 0
M  V30 1674 C 164.536 -0.565187 -1.52674 0
M  V30 1675 O 165.725 -0.839356 -1.57534 0
M  V30 1676 C 162.825 -1.67966 -2.94348 0
M  V30 1677 C 161.998 -2.964 -3.21661 0
M  V30 1678 C 161.057 -2.88171 -4.40277 0
M  V30 1679 O 160.083 -3.62119 -4.39157 0
M  V30 1680 N 161.285 -2.03706 -5.43584 0
M  V30 1681 H 164.05 -2.644 -1.41112 0
M  V30 1682 H 161.611 -1.49104 -0.630838 0
M  V30 1683 H 163.603 -1.60035 -3.71713 0
M  V30 1684 H 162.173 -0.796225 -3.0229 0
M  V30 1685 H 161.393 -3.18234 -2.32638 0
M  V30 1686 H 162.681 -3.81427 -3.36736 0
M  V30 1687 H 162.079 -1.42995 -5.47329 0
M  V30 1688 H 160.636 -2.01658 -6.1982 0
M  V30 1689 N 164.069 0.697108 -1.41344 0
M  V30 1690 C 165.318 1.45279 -1.39918 0
M  V30 1691 C 165.631 1.95597 -0.0109624 0
M  V30 1692 O 166.837 2.71208 0.125919 0
M  V30 1693 C 165.293 2.62695 -2.46007 0
M  V30 1694 C 164.901 2.19169 -3.90729 0
M  V30 1695 C 166.645 3.40336 -2.53715 0
M  V30 1696 C 164.552 3.33535 -4.88373 0
M  V30 1697 H 163.482 0.545692 -0.520323 0
M  V30 1698 H 166.133 0.756929 -1.67161 0
M  V30 1699 H 164.515 3.34541 -2.11892 0
M  V30 1700 H 165.689 1.54623 -4.34083 0
M  V30 1701 H 164.004 1.54525 -3.86666 0
M  V30 1702 H 166.601 4.2547 -3.2385 0
M  V30 1703 H 166.944 3.85418 -1.5735 0
M  V30 1704 H 167.477 2.75546 -2.86913 0
M  V30 1705 H 164.216 2.93468 -5.86137 0
M  V30 1706 H 163.736 3.96936 -4.49668 0
M  V30 1707 H 165.415 3.99335 -5.09059 0
M  V30 1708 N 165.547 1.27147 0.931209 0
M  V30 1709 C 166.963 1.04475 1.20653 0
M  V30 1710 C 167.163 -0.223885 2.00252 0
M  V30 1711 O 166.219 -0.930332 2.34736 0
M  V30 1712 C 167.532 2.28209 1.95809 0
M  V30 1713 C 169.08 2.33211 2.08762 0
M  V30 1714 C 169.555 3.56665 2.87323 0
M  V30 1715 N 171.046 3.57201 2.94892 0
M  V30 1716 C 171.781 4.49395 3.56134 0
M  V30 1717 N 171.277 5.51889 4.18796 0
M  V30 1718 N 173.07 4.37026 3.53504 0
M  V30 1719 H 165.221 2.08612 0.399333 0
M  V30 1720 H 167.484 0.917312 0.239253 0
M  V30 1721 H 167.19 3.20538 1.44736 0
M  V30 1722 H 167.064 2.33247 2.96438 0
M  V30 1723 H 169.451 1.41391 2.59023 0
M  V30 1724 H 169.532 2.32178 1.07364 0
M  V30 1725 H 169.176 4.4882 2.37746 0
M  V30 1726 H 169.106 3.54948 3.88998 0
M  V30 1727 H 171.597 2.83074 2.50354 0
M  V30 1728 H 171.91 6.18409 4.63454 0
M  V30 1729 H 170.255 5.55735 4.17353 0
M  V30 1730 H 173.446 3.56166 3.03749 0
M  V30 1731 H 173.619 5.09067 4.00942 0
M  V30 1732 N 167.025 -1.13721 1.09112 0
M  V30 1733 C 167.958 -2.18094 0.67158 0
M  V30 1734 C 168.936 -1.59414 -0.320299 0
M  V30 1735 O 170.12 -1.87183 -0.222444 0
M  V30 1736 C 167.247 -3.38698 -0.0111189 0
M  V30 1737 C 166.293 -4.15966 0.942055 0
M  V30 1738 S 167.126 -4.7604 2.45246 0
M  V30 1739 C 168.282 -5.99994 1.78208 0
M  V30 1740 H 168.515 -2.53344 1.55577 0
M  V30 1741 H 166.048 -1.24967 0.906789 0
M  V30 1742 H 168.006 -4.08559 -0.398716 0
M  V30 1743 H 166.667 -3.01756 -0.871905 0
M  V30 1744 H 165.86 -5.02318 0.411396 0
M  V30 1745 H 165.462 -3.51745 1.2709 0
M  V30 1746 H 167.754 -6.68441 1.10424 0
M  V30 1747 H 168.697 -6.57662 2.62463 0
M  V30 1748 H 169.105 -5.50432 1.25238 0
M  V30 1749 N 168.503 -0.877838 -1.30888 0
M  V30 1750 C 169.435 -0.296607 -2.27273 0
M  V30 1751 C 170.448 0.544799 -1.53414 0
M  V30 1752 O 171.637 0.365511 -1.74718 0
M  V30 1753 C 168.737 0.597481 -3.33592 0
M  V30 1754 C 167.91 -0.213251 -4.3688 0
M  V30 1755 C 166.969 0.610208 -5.2265 0
M  V30 1756 O 165.995 0.035441 -5.69189 0
M  V30 1757 N 167.197 1.92071 -5.47804 0
M  V30 1758 H 169.962 -1.12492 -2.77787 0
M  V30 1759 H 167.523 -0.740105 -1.43993 0
M  V30 1760 H 169.515 1.15425 -3.87891 0
M  V30 1761 H 168.085 1.32647 -2.83061 0
M  V30 1762 H 167.305 -0.951466 -3.82545 0
M  V30 1763 H 168.593 -0.769262 -5.02951 0
M  V30 1764 H 167.991 2.4107 -5.11763 0
M  V30 1765 H 166.548 2.42508 -6.05007 0
M  V30 1766 N 169.982 1.44106 -0.638065 0
M  V30 1767 C 170.93 2.3248 0.0748149 0
M  V30 1768 C 171.924 1.47746 0.828702 0
M  V30 1769 O 173.13 1.64049 0.740816 0
M  V30 1770 H 169.505 0.750771 0.0429686 0
M  V30 1771 H 171.476 2.90348 -0.688504 0
M  V30 1772 C 170.225 3.31843 1.03805 0
M  V30 1773 H 169.548 3.97059 0.467375 0
M  V30 1774 H 170.988 3.96345 1.50622 0
M  V30 1775 C 169.447 2.61291 2.1267 0
M  V30 1776 O 169.977 2.41702 3.20847 0
M  V30 1777 N 168.183 2.20915 1.88798 0
M  V30 1778 H 167.73 2.37047 1.00829 0
M  V30 1779 H 167.688 1.74038 2.61836 0
M  V30 1780 N 171.46 0.379036 1.52974 0
M  V30 1781 C 172.423 -0.448865 2.24762 0
M  V30 1782 C 173.423 -0.998689 1.26027 0
M  V30 1783 O 174.613 -0.882313 1.50203 0
M  V30 1784 C 171.745 -1.62872 2.99476 0
M  V30 1785 H 172.938 0.179491 2.99362 0
M  V30 1786 H 170.491 0.13096 1.5575 0
M  V30 1787 H 171.226 -2.29479 2.29151 0
M  V30 1788 H 171.011 -1.24128 3.71934 0
M  V30 1789 H 172.501 -2.2151 3.5401 0
M  V30 1790 N 172.938 -1.57226 0.108567 0
M  V30 1791 C 174.186 -1.94448 -0.550853 0
M  V30 1792 C 174.507 -0.992074 -1.67878 0
M  V30 1793 O 173.777 -0.0465 -1.95845 0
M  V30 1794 H 172.357 -0.717897 -0.206479 0
M  V30 1795 H 175.019 -1.94112 0.175062 0
M  V30 1796 H 174.115 -2.97218 -0.952259 0
M  V30 1797 N 174.416 0.165178 -1.56732 0
M  V30 1798 C 175.662 0.882112 -1.82611 0
M  V30 1799 C 175.995 1.81628 -0.687378 0
M  V30 1800 O 175.27 1.92009 0.310267 0
M  V30 1801 C 175.553 1.67245 -3.18906 0
M  V30 1802 C 175.406 0.760987 -4.43316 0
M  V30 1803 C 176.725 2.63884 -3.52212 0
M  V30 1804 H 173.844 0.319242 -0.664269 0
M  V30 1805 H 176.486 0.148052 -1.89422 0
M  V30 1806 H 174.636 2.29824 -3.1323 0
M  V30 1807 H 176.308 0.147596 -4.61064 0
M  V30 1808 H 174.551 0.0694102 -4.33744 0
M  V30 1809 H 175.222 1.34962 -5.35247 0
M  V30 1810 H 177.698 2.11429 -3.58381 0
M  V30 1811 H 176.574 3.16245 -4.48643 0
M  V30 1812 H 176.835 3.44377 -2.77231 0
M  V30 1813 N 175.894 1.51508 0.433938 0
M  V30 1814 C 177.305 1.56784 1.01369 0
M  V30 1815 C 177.656 0.393349 1.92217 0
M  V30 1816 O 176.781 -0.489441 2.10792 0
M  V30 1817 C 177.376 2.84144 1.8452 0
M  V30 1818 C 175.935 2.9198 2.37539 0
M  V30 1819 C 175.082 2.51482 1.16843 0
M  V30 1820 H 178.033 1.57236 0.215081 0
M  V30 1821 H 178.054 2.68098 2.70007 0
M  V30 1822 H 177.566 3.69607 1.18373 0
M  V30 1823 H 175.667 2.10955 3.0713 0
M  V30 1824 H 175.78 3.95704 2.70103 0
M  V30 1825 H 174.144 2.04758 1.51481 0
M  V30 1826 H 174.927 3.39293 0.523015 0
M  V30 1827 N 177.372 -0.689602 1.41712 0
M  V30 1828 C 178.649 -1.44457 1.31877 0
M  V30 1829 C 179.029 -2.11039 -0.0508537 0
M  V30 1830 O 178.377 -2.02138 -1.06547 0
M  V30 1831 C 178.587 -2.45913 2.47645 0
M  V30 1832 C 179.935 -3.10991 2.89084 0
M  V30 1833 O 180.959 -2.56238 2.47428 0
M  V30 1834 O 179.818 -4.10174 3.61137 0
M  V30 1835 H 176.912 -0.64362 0.519309 0
M  V30 1836 H 179.458 -0.719576 1.53689 0
M  V30 1837 H 178.23 -1.95409 3.39015 0
M  V30 1838 H 177.853 -3.25913 2.27742 0
M  V30 1839 N 178.85 -1.27639 -0.924453 0
M  V30 1840 C 180.266 -1.05113 -1.20097 0
M  V30 1841 C 180.466 0.213262 -2.00368 0
M  V30 1842 O 179.522 0.91787 -2.35226 0
M  V30 1843 C 180.835 -2.29244 -1.94596 0
M  V30 1844 C 182.383 -2.34315 -2.07522 0
M  V30 1845 C 182.858 -3.58183 -2.85427 0
M  V30 1846 N 184.349 -3.5876 -2.92994 0
M  V30 1847 C 185.084 -4.51277 -3.53746 0
M  V30 1848 N 184.58 -5.54102 -4.15863 0
M  V30 1849 N 186.373 -4.38894 -3.51181 0
M  V30 1850 H 178.524 -2.08821 -0.388264 0
M  V30 1851 H 180.787 -0.918568 -0.234385 0
M  V30 1852 H 180.493 -3.21301 -1.43034 0
M  V30 1853 H 180.367 -2.34816 -2.95197 0
M  V30 1854 H 182.754 -1.42762 -2.58269 0
M  V30 1855 H 182.835 -2.32744 -1.06131 0
M  V30 1856 H 182.479 -4.50074 -2.35363 0
M  V30 1857 H 182.409 -3.57006 -3.8711 0
M  V30 1858 H 184.9 -2.84398 -2.4885 0
M  V30 1859 H 185.213 -6.20859 -4.60168 0
M  V30 1860 H 183.558 -5.57941 -4.144 0
M  V30 1861 H 186.749 -3.57772 -3.01856 0
M  V30 1862 H 186.922 -5.11186 -3.98237 0
M  V30 1863 N 180.328 1.1314 -1.09713 0
M  V30 1864 C 181.558 1.88048 -0.855656 0
M  V30 1865 C 181.966 1.79537 0.596919 0
M  V30 1866 O 181.309 1.16196 1.42282 0
M  V30 1867 C 181.371 3.38314 -1.21589 0
M  V30 1868 C 181.035 3.70605 -2.67397 0
M  V30 1869 C 182.032 3.69596 -3.65643 0
M  V30 1870 C 179.717 4.0017 -3.03593 0
M  V30 1871 C 181.711 3.977 -4.9811 0
M  V30 1872 C 179.398 4.27935 -4.36251 0
M  V30 1873 C 180.396 4.26685 -5.33318 0
M  V30 1874 O 180.084 4.53767 -6.63589 0
M  V30 1875 H 179.816 0.60208 -0.307368 0
M  V30 1876 H 182.37 1.44128 -1.46343 0
M  V30 1877 H 180.6 3.82752 -0.551177 0
M  V30 1878 H 182.289 3.94552 -0.953083 0
M  V30 1879 H 183.055 3.46826 -3.39023 0
M  V30 1880 H 178.934 4.00289 -2.2867 0
M  V30 1881 H 182.478 3.9664 -5.73866 0
M  V30 1882 H 178.375 4.50178 -4.62613 0
M  V30 1883 H 179.143 4.71422 -6.69107 0
M  V30 1884 N 181.806 0.884767 1.30421 0
M  V30 1885 C 183.052 0.513218 1.96819 0
M  V30 1886 C 183.407 -0.927347 1.68577 0
M  V30 1887 O 182.7 -1.64644 0.979941 0
M  V30 1888 C 182.894 0.724318 3.49983 0
M  V30 1889 C 182.723 2.18385 3.93113 0
M  V30 1890 C 181.493 2.82839 4.18725 0
M  V30 1891 C 183.691 3.15763 4.05953 0
M  V30 1892 N 181.673 4.1939 4.48314 0
M  V30 1893 C 183.044 4.37387 4.39423 0
M  V30 1894 C 185.099 3.11555 3.88379 0
M  V30 1895 C 183.802 5.55343 4.5715 0
M  V30 1896 C 185.828 4.28782 4.07308 0
M  V30 1897 C 185.19 5.49172 4.41123 0
M  V30 1898 H 181.289 0.237123 0.745182 0
M  V30 1899 H 183.873 1.14246 1.57658 0
M  V30 1900 H 182.044 0.124565 3.882 0
M  V30 1901 H 183.776 0.31969 4.03435 0
M  V30 1902 H 180.531 2.33708 4.11919 0
M  V30 1903 H 180.955 4.89911 4.67243 0
M  V30 1904 H 185.597 2.19576 3.61312 0
M  V30 1905 H 183.315 6.47826 4.8306 0
M  V30 1906 H 186.901 4.26995 3.95179 0
M  V30 1907 H 185.781 6.38371 4.55469 0
M  V30 1908 N 183.284 -1.43765 0.645699 0
M  V30 1909 C 184.533 -2.01116 0.153412 0
M  V30 1910 C 184.846 -1.51493 -1.23731 0
M  V30 1911 O 186.052 -2.01067 -1.8244 0
M  V30 1912 C 184.508 -3.59206 0.223473 0
M  V30 1913 C 184.116 -4.17823 1.61642 0
M  V30 1914 C 185.86 -4.23972 -0.211597 0
M  V30 1915 C 183.767 -5.68183 1.64081 0
M  V30 1916 H 182.697 -0.752093 0.0535891 0
M  V30 1917 H 185.348 -1.6482 0.806633 0
M  V30 1918 H 183.73 -3.92867 -0.497118 0
M  V30 1919 H 184.904 -3.95674 2.36176 0
M  V30 1920 H 183.219 -3.65399 1.99681 0
M  V30 1921 H 185.816 -5.34275 -0.213112 0
M  V30 1922 H 186.159 -3.97352 -1.24165 0
M  V30 1923 H 186.692 -3.95166 0.456988 0
M  V30 1924 H 183.431 -5.99559 2.64971 0
M  V30 1925 H 182.951 -5.9241 0.938611 0
M  V30 1926 H 184.63 -6.32085 1.3812 0
M  V30 1927 N 184.763 -0.387143 -1.52771 0
M  V30 1928 C 186.01 0.195735 -2.01552 0
M  V30 1929 C 186.338 1.46995 -1.27369 0
M  V30 1930 O 185.593 1.92325 -0.361879 0
M  V30 1931 C 185.892 0.512209 -3.53711 0
M  V30 1932 C 185.558 -0.670202 -4.45891 0
M  V30 1933 C 184.22 -0.994586 -4.70809 0
M  V30 1934 C 186.572 -1.46134 -5.00294 0
M  V30 1935 C 183.9 -2.11169 -5.4738 0
M  V30 1936 C 186.252 -2.56903 -5.78086 0
M  V30 1937 C 184.916 -2.89852 -6.01284 0
M  V30 1938 H 184.186 0.0716246 -0.73753 0
M  V30 1939 H 186.833 -0.524046 -1.8419 0
M  V30 1940 H 185.138 1.31329 -3.69134 0
M  V30 1941 H 186.835 0.975804 -3.88946 0
M  V30 1942 H 183.425 -0.407366 -4.2666 0
M  V30 1943 H 187.609 -1.22397 -4.80971 0
M  V30 1944 H 182.865 -2.3707 -5.63567 0
M  V30 1945 H 187.039 -3.18608 -6.19243 0
M  V30 1946 H 184.666 -3.76533 -6.60399 0
M  V30 1947 N 186.241 1.57166 -0.116904 0
M  V30 1948 C 187.487 1.95412 0.542405 0
M  V30 1949 C 187.82 1.00019 1.66463 0
M  V30 1950 O 187.095 0.0370346 1.94465 0
M  V30 1951 C 187.378 3.43615 1.07708 0
M  V30 1952 C 187.231 4.49781 -0.0415868 0
M  V30 1953 C 188.55 3.93616 1.96861 0
M  V30 1954 H 185.669 0.710543 0.195696 0
M  V30 1955 H 188.311 1.89027 -0.192038 0
M  V30 1956 H 186.461 3.49187 1.70296 0
M  V30 1957 H 188.133 4.56308 -0.676793 0
M  V30 1958 H 186.376 4.28033 -0.705019 0
M  V30 1959 H 187.047 5.50733 0.373717 0
M  V30 1960 H 189.523 3.90335 1.44146 0
M  V30 1961 H 188.399 4.97838 2.3119 0
M  V30 1962 H 188.66 3.34188 2.89432 0
M  V30 1963 N 187.719 -0.156864 1.56817 0
M  V30 1964 C 189.135 -0.50916 1.5126 0
M  V30 1965 C 189.335 -1.83897 0.823658 0
M  V30 1966 O 188.391 -2.49469 0.390055 0
M  V30 1967 C 189.704 -0.52857 2.96018 0
M  V30 1968 C 191.252 -0.614771 3.06903 0
M  V30 1969 C 191.727 -0.664938 4.53147 0
M  V30 1970 N 193.218 -0.727433 4.57452 0
M  V30 1971 C 193.953 -0.787067 5.67973 0
M  V30 1972 N 193.449 -0.806649 6.88088 0
M  V30 1973 N 195.242 -0.827195 5.5598 0
M  V30 1974 H 187.393 0.714935 2.00006 0
M  V30 1975 H 189.656 0.259526 0.911784 0
M  V30 1976 H 189.362 0.380154 3.49639 0
M  V30 1977 H 189.236 -1.36998 3.51442 0
M  V30 1978 H 191.623 -1.51392 2.53307 0
M  V30 1979 H 191.704 0.253597 2.5454 0
M  V30 1980 H 191.348 0.230011 5.07379 0
M  V30 1981 H 191.278 -1.54966 5.03282 0
M  V30 1982 H 193.769 -0.719998 3.70978 0
M  V30 1983 H 194.082 -0.853727 7.6807 0
M  V30 1984 H 192.427 -0.774687 6.90669 0
M  V30 1985 H 195.618 -0.808998 4.61056 0
M  V30 1986 H 195.791 -0.870206 6.4213 0
M  V30 1987 N 189.197 -1.51736 -0.425897 0
M  V30 1988 C 190.144 -1.73875 -1.51776 0
M  V30 1989 C 191.114 -0.580702 -1.55618 0
M  V30 1990 O 192.299 -0.81641 -1.72451 0
M  V30 1991 C 189.439 -1.88012 -2.89388 0
M  V30 1992 C 188.552 -3.15606 -2.94986 0
M  V30 1993 C 187.687 -3.20271 -4.23793 0
M  V30 1994 C 186.726 -4.42134 -4.23302 0
M  V30 1995 N 185.863 -4.44284 -5.43651 0
M  V30 1996 H 190.703 -2.67071 -1.32201 0
M  V30 1997 H 188.24 -1.32351 -0.642008 0
M  V30 1998 H 190.198 -1.9419 -3.69251 0
M  V30 1999 H 188.828 -0.98213 -3.07496 0
M  V30 2000 H 187.88 -3.18681 -2.07717 0
M  V30 2001 H 189.192 -4.05486 -2.90486 0
M  V30 2002 H 188.346 -3.25428 -5.12036 0
M  V30 2003 H 187.085 -2.28299 -4.30965 0
M  V30 2004 H 186.09 -4.3714 -3.3345 0
M  V30 2005 H 187.315 -5.35382 -4.17783 0
M  V30 2006 H 185.261 -3.55188 -5.51523 0
M  V30 2007 H 185.178 -5.27988 -5.41078 0
M  V30 2008 H 186.446 -4.53649 -6.33895 0
M  V30 2009 N 190.675 0.682077 -1.42076 0
M  V30 2010 C 191.605 1.80796 -1.47767 0
M  V30 2011 C 192.586 1.6677 -0.334954 0
M  V30 2012 O 193.771 1.863 -0.548264 0
M  V30 2013 C 190.901 3.19038 -1.37229 0
M  V30 2014 C 189.855 3.47789 -2.49453 0
M  V30 2015 C 189.181 4.8553 -2.23975 0
M  V30 2016 C 190.481 3.45411 -3.91776 0
M  V30 2017 H 192.175 1.7629 -2.41997 0
M  V30 2018 H 189.721 0.846721 -1.16476 0
M  V30 2019 H 191.674 3.97528 -1.39821 0
M  V30 2020 H 190.398 3.24204 -0.394907 0
M  V30 2021 H 189.057 2.71657 -2.46166 0
M  V30 2022 H 188.705 4.87337 -1.24547 0
M  V30 2023 H 188.405 5.0573 -2.99184 0
M  V30 2024 H 189.929 5.66312 -2.28304 0
M  V30 2025 H 191.343 4.13882 -3.96705 0
M  V30 2026 H 189.74 3.77145 -4.66778 0
M  V30 2027 H 190.81 2.44122 -4.18966 0
M  V30 2028 N 192.153 1.28127 0.917671 0
M  V30 2029 C 193.063 1.13556 2.05286 0
M  V30 2030 C 194.079 0.0630914 1.73886 0
M  V30 2031 O 195.255 0.271598 1.9956 0
M  V30 2032 C 192.32 0.794676 3.3747 0
M  V30 2033 C 191.381 1.94909 3.82504 0
M  V30 2034 C 190.614 1.62437 5.0838 0
M  V30 2035 O 190.837 0.536905 5.67867 0
M  V30 2036 O 189.771 2.46677 5.4903 0
M  V30 2037 H 193.597 2.08844 2.20495 0
M  V30 2038 H 191.182 1.07409 1.03845 0
M  V30 2039 H 193.064 0.618344 4.16839 0
M  V30 2040 H 191.739 -0.128581 3.23445 0
M  V30 2041 H 190.646 2.18055 3.03978 0
M  V30 2042 H 191.979 2.85291 4.01086 0
M  V30 2043 N 193.631 -1.12557 1.10312 0
M  V30 2044 C 194.908 -1.80363 0.756878 0
M  V30 2045 C 195.288 -1.97067 -0.756824 0
M  V30 2046 O 194.636 -1.54601 -1.68259 0
M  V30 2047 C 194.846 -3.14812 1.50647 0
M  V30 2048 C 196.194 -3.90029 1.67817 0
M  V30 2049 O 197.218 -3.24464 1.46974 0
M  V30 2050 O 196.077 -5.07652 2.02365 0
M  V30 2051 H 193.171 -0.780667 0.272926 0
M  V30 2052 H 195.717 -1.19404 1.20586 0
M  V30 2053 H 194.489 -2.97936 2.53672 0
M  V30 2054 H 194.112 -3.83478 1.05026 0
M  V30 2055 N 195.109 -0.891671 -1.2995 0
M  V30 2056 C 196.039 -0.379797 -2.30391 0
M  V30 2057 C 197.02 0.540919 -1.6127 0
M  V30 2058 O 198.205 0.453352 -1.88834 0
M  V30 2059 C 195.335 0.400654 -3.44981 0
M  V30 2060 C 194.289 -0.428905 -4.25846 0
M  V30 2061 C 193.615 0.478557 -5.32554 0
M  V30 2062 C 194.915 -1.67458 -4.94727 0
M  V30 2063 H 196.609 -1.21914 -2.73454 0
M  V30 2064 H 194.155 -0.587675 -1.31462 0
M  V30 2065 H 196.108 0.769434 -4.14316 0
M  V30 2066 H 194.832 1.27371 -3.0074 0
M  V30 2067 H 193.491 -0.779911 -3.58208 0
M  V30 2068 H 193.139 1.34951 -4.84559 0
M  V30 2069 H 192.839 -0.0727433 -5.87555 0
M  V30 2070 H 194.363 0.843705 -6.04743 0
M  V30 2071 H 195.777 -1.376 -5.56542 0
M  V30 2072 H 194.174 -2.16659 -5.59624 0
M  V30 2073 H 195.244 -2.41518 -4.20473 0
M  V30 2074 N 196.587 1.43421 -0.653314 0
M  V30 2075 C 198.003 1.56341 -0.320886 0
M  V30 2076 C 198.203 1.63696 1.17499 0
M  V30 2077 O 197.259 1.59208 1.95982 0
M  V30 2078 C 198.572 2.82424 -1.03233 0
M  V30 2079 C 200.12 2.96168 -1.01259 0
M  V30 2080 C 200.595 4.25084 -1.70492 0
M  V30 2081 N 202.086 4.31948 -1.67257 0
M  V30 2082 C 202.821 5.30466 -2.17701 0
M  V30 2083 N 202.317 6.35261 -2.76434 0
M  V30 2084 N 204.11 5.2212 -2.082 0
M  V30 2085 H 196.261 1.3689 -1.62403 0
M  V30 2086 H 198.524 0.657455 -0.682977 0
M  V30 2087 H 198.23 2.83053 -2.08744 0
M  V30 2088 H 198.104 3.72653 -0.583948 0
M  V30 2089 H 200.491 2.9508 0.0341235 0
M  V30 2090 H 200.572 2.07229 -1.49966 0
M  V30 2091 H 200.216 4.26932 -2.7512 0
M  V30 2092 H 200.146 5.1292 -1.19251 0
M  V30 2093 H 202.637 3.56838 -1.24398 0
M  V30 2094 H 202.95 7.06754 -3.12601 0
M  V30 2095 H 201.295 6.35884 -2.80495 0
M  V30 2096 H 204.486 4.39166 -1.62021 0
M  V30 2097 H 204.659 5.98739 -2.47822 0
M  V30 2098 N 198.065 0.39524 1.52563 0
M  V30 2099 C 199.476 -0.0774719 1.86539 0
M  V30 2100 C 199.827 -1.45641 1.31466 0
M  V30 2101 O 198.952 -2.06459 0.648367 0
M  V30 2102 C 199.547 -0.147356 3.38479 0
M  V30 2103 C 198.106 -0.564373 3.72145 0
M  V30 2104 C 197.253 0.269919 2.75983 0
M  V30 2105 H 200.204 0.612876 1.46388 0
M  V30 2106 H 200.225 -0.965343 3.68051 0
M  V30 2107 H 199.737 0.856387 3.78534 0
M  V30 2108 H 197.838 -1.57527 3.37663 0
M  V30 2109 H 197.951 -0.318402 4.78041 0
M  V30 2110 H 196.315 -0.265696 2.5331 0
M  V30 2111 H 197.098 1.27175 3.18875 0
M  V30 2112 N 199.544 -1.57102 0.125237 0
M  V30 2113 C 200.955 -1.82384 -0.399142 0
M  V30 2114 C 201.306 -1.04276 -1.66195 0
M  V30 2115 O 200.431 -0.281269 -2.14564 0
M  V30 2116 C 201.026 -3.30821 -0.730932 0
M  V30 2117 C 199.585 -3.56762 -1.19992 0
M  V30 2118 C 198.732 -2.7649 -0.211792 0
M  V30 2119 H 201.683 -1.54786 0.350277 0
M  V30 2120 H 201.704 -3.4579 -1.58775 0
M  V30 2121 H 201.216 -3.87643 0.188345 0
M  V30 2122 H 199.317 -3.05305 -2.13588 0
M  V30 2123 H 199.43 -4.65317 -1.14093 0
M  V30 2124 H 197.794 -2.4489 -0.700085 0
M  V30 2125 H 198.577 -3.36073 0.700691 0
M  V30 2126 N 201.022 0.148545 -1.56898 0
M  V30 2127 C 202.27 0.859717 -1.82902 0
M  V30 2128 C 202.591 1.81775 -0.70588 0
M  V30 2129 O 201.861 1.93994 0.272586 0
M  V30 2130 H 200.441 0.320469 -0.674766 0
M  V30 2131 H 203.103 0.142918 -1.94375 0
M  V30 2132 H 202.199 1.4229 -2.77777 0
M  V30 2133 N 202.5 1.5196 0.417844 0
M  V30 2134 C 203.911 1.57851 0.997 0
M  V30 2135 C 204.262 0.413714 1.91789 0
M  V30 2136 O 203.387 -0.467057 2.113 0
M  V30 2137 C 203.982 2.86085 1.81496 0
M  V30 2138 C 202.541 2.94483 2.34428 0
M  V30 2139 C 201.688 2.52707 1.14169 0
M  V30 2140 H 204.639 1.57455 0.198392 0
M  V30 2141 H 204.66 2.70947 2.67148 0
M  V30 2142 H 204.172 3.70842 1.14446 0
M  V30 2143 H 202.273 2.142 3.04875 0
M  V30 2144 H 202.386 3.98546 2.65891 0
M  V30 2145 H 200.75 2.06353 1.49301 0
M  V30 2146 H 201.533 3.39828 0.486999 0
M  V30 2147 N 203.978 -0.674533 1.42435 0
M  V30 2148 C 204.941 -1.76986 1.45632 0
M  V30 2149 C 205.941 -1.5708 0.343871 0
M  V30 2150 O 207.131 -1.63367 0.604709 0
M  V30 2151 C 204.263 -3.15623 1.28822 0
M  V30 2152 H 205.456 -1.75539 2.43158 0
M  V30 2153 H 203.009 -0.884189 1.28887 0
M  V30 2154 H 203.744 -3.22696 0.322193 0
M  V30 2155 H 203.529 -3.31475 2.09444 0
M  V30 2156 H 205.019 -3.95537 1.33942 0
M  V30 2157 N 205.456 -1.28612 -0.910864 0
M  V30 2158 C 206.867 -1.14406 -1.47541 0
M  V30 2159 C 207.218 0.264901 -1.94403 0
M  V30 2160 O 206.343 1.15942 -1.82719 0
M  V30 2161 C 206.938 -2.07073 -2.68153 0
M  V30 2162 C 205.497 -1.96923 -3.20778 0
M  V30 2163 C 204.644 -1.98646 -1.93481 0
M  V30 2164 H 207.595 -1.41259 -0.723291 0
M  V30 2165 H 207.616 -1.63642 -3.43514 0
M  V30 2166 H 207.128 -3.09611 -2.34015 0
M  V30 2167 H 205.229 -0.97433 -3.59635 0
M  V30 2168 H 205.342 -2.84026 -3.85832 0
M  V30 2169 H 203.706 -1.43093 -2.10705 0
M  V30 2170 H 204.489 -3.02868 -1.61634 0
M  V30 2171 N 206.934 1.1197 -1.10907 0
M  V30 2172 C 207.844 2.21433 -0.774896 0
M  V30 2173 C 208.86 1.72478 0.229657 0
M  V30 2174 O 210.036 2.01288 0.0672008 0
M  V30 2175 C 207.101 3.4602 -0.216986 0
M  V30 2176 C 206.162 4.09791 -1.27944 0
M  V30 2177 C 205.395 5.28431 -0.748055 0
M  V30 2178 O 205.618 5.68823 0.423833 0
M  V30 2179 O 204.552 5.82644 -1.51027 0
M  V30 2180 H 208.378 2.5242 -1.68873 0
M  V30 2181 H 205.963 1.20399 -0.884555 0
M  V30 2182 H 207.845 4.21304 0.090059 0
M  V30 2183 H 206.52 3.16698 0.669633 0
M  V30 2184 H 205.427 3.36265 -1.63941 0
M  V30 2185 H 206.76 4.4328 -2.13925 0
M  V30 2186 N 208.412 0.89855 1.29475 0
M  V30 2187 C 209.375 0.380272 2.26023 0
M  V30 2188 C 210.375 -0.484891 1.53315 0
M  V30 2189 O 211.565 -0.290108 1.71767 0
M  V30 2190 C 208.697 -0.45651 3.3783 0
M  V30 2191 H 209.89 1.23295 2.73383 0
M  V30 2192 H 207.443 0.676589 1.40897 0
M  V30 2193 H 208.178 -1.32922 2.95808 0
M  V30 2194 H 207.963 0.163393 3.91759 0
M  V30 2195 H 209.453 -0.810466 4.0966 0
M  V30 2196 N 209.89 -1.43072 0.660911 0
M  V30 2197 C 211.301 -1.84932 0.256348 0
M  V30 2198 C 211.652 -1.55325 -1.19868 0
M  V30 2199 O 210.777 -1.00607 -1.91591 0
M  V30 2200 C 211.372 -3.35684 0.458475 0
M  V30 2201 C 209.931 -3.76245 0.108161 0
M  V30 2202 C 209.078 -2.66749 0.757641 0
M  V30 2203 H 212.029 -1.33116 0.864051 0
M  V30 2204 H 212.05 -3.79365 -0.293683 0
M  V30 2205 H 211.562 -3.572 1.51755 0
M  V30 2206 H 209.663 -3.60338 -0.948014 0
M  V30 2207 H 209.776 -4.76058 0.538992 0
M  V30 2208 H 208.14 -2.53989 0.190185 0
M  V30 2209 H 208.923 -2.91092 1.81989 0
M  V30 2210 N 211.368 -0.403325 -1.52352 0
M  V30 2211 C 212.331 0.413051 -2.25447 0
M  V30 2212 C 213.331 0.978513 -1.276 0
M  V30 2213 O 214.521 0.858305 -1.51587 0
M  V30 2214 C 211.653 1.58087 -3.02029 0
M  V30 2215 H 212.846 -0.227094 -2.99039 0
M  V30 2216 H 210.399 -0.155722 -1.55522 0
M  V30 2217 H 211.134 2.25804 -2.32772 0
M  V30 2218 H 210.919 1.18195 -3.73861 0
M  V30 2219 H 212.409 2.1585 -3.57489 0
M  V30 2220 N 212.846 1.57033 -0.133567 0
M  V30 2221 C 213.809 2.14897 0.796995 0
M  V30 2222 C 214.809 1.0874 1.18458 0
M  V30 2223 O 215.999 1.34446 1.1077 0
M  V30 2224 C 213.131 2.70112 2.07973 0
M  V30 2225 H 214.324 2.98457 0.293873 0
M  V30 2226 H 211.877 1.55871 0.115787 0
M  V30 2227 H 212.612 1.9018 2.62682 0
M  V30 2228 H 212.397 3.47764 1.81115 0
M  V30 2229 H 213.887 3.14738 2.74462 0
M  V30 2230 N 214.325 -0.140222 1.56975 0
M  V30 2231 C 215.275 -1.17827 1.95194 0
M  V30 2232 C 216.259 -1.38195 0.824075 0
M  V30 2233 O 217.451 -1.39643 1.0876 0
M  V30 2234 C 214.58 -2.51024 2.34184 0
M  V30 2235 C 213.666 -2.3422 3.53556 0
M  V30 2236 N 214.057 -1.87185 4.69889 0
M  V30 2237 C 212.355 -2.64949 3.58773 0
M  V30 2238 C 213.056 -1.83586 5.5197 0
M  V30 2239 N 212.032 -2.2715 4.93866 0
M  V30 2240 H 215.834 -0.806817 2.82609 0
M  V30 2241 H 213.348 -0.348208 1.58623 0
M  V30 2242 H 215.345 -3.26074 2.59772 0
M  V30 2243 H 214.005 -2.88945 1.48124 0
M  V30 2244 H 215.016 -1.57048 4.93514 0
M  V30 2245 H 211.693 -3.067 2.8327 0
M  V30 2246 H 213.083 -1.48655 6.55249 0
M  V30 2247 N 215.803 -1.52179 -0.40978 0
M  V30 2248 C 217.031 -1.70054 -1.17853 0
M  V30 2249 C 217.446 -0.409735 -1.843 0
M  V30 2250 O 216.803 0.614183 -1.71855 0
M  V30 2251 C 216.854 -2.83568 -2.24213 0
M  V30 2252 O 216.575 -4.0765 -1.60478 0
M  V30 2253 C 218.076 -3.12947 -3.13973 0
M  V30 2254 H 215.296 -0.569917 -0.354169 0
M  V30 2255 H 217.84 -1.98734 -0.482198 0
M  V30 2256 H 215.995 -2.57409 -2.89516 0
M  V30 2257 H 216.409 -4.70899 -2.30986 0
M  V30 2258 H 217.883 -3.95889 -3.84677 0
M  V30 2259 H 218.36 -2.26472 -3.76307 0
M  V30 2260 H 218.966 -3.40868 -2.5434 0
M  V30 2261 N 217.281 0.66697 -1.42791 0
M  V30 2262 C 218.244 1.76211 -1.46568 0
M  V30 2263 C 219.244 1.56896 -0.352196 0
M  V30 2264 O 220.434 1.63044 -0.613364 0
M  V30 2265 C 217.566 3.14935 -1.30494 0
M  V30 2266 H 218.759 1.74247 -2.44086 0
M  V30 2267 H 216.312 0.877342 -1.29354 0
M  V30 2268 H 217.047 3.2252 -0.339301 0
M  V30 2269 H 216.832 3.30359 -2.11199 0
M  V30 2270 H 218.322 3.94821 -1.36038 0
M  V30 2271 N 218.759 1.29093 0.90403 0
M  V30 2272 C 219.984 1.19809 1.69294 0
M  V30 2273 C 220.409 -0.238481 1.86582 0
M  V30 2274 O 219.767 -1.1723 1.383 0
M  V30 2275 C 219.815 1.91202 3.05736 0
M  V30 2276 O 218.919 1.22611 3.93752 0
M  V30 2277 H 218.26 0.415385 0.518027 0
M  V30 2278 H 220.79 1.70586 1.12967 0
M  V30 2279 H 220.8 1.99487 3.55906 0
M  V30 2280 H 219.475 2.95692 2.92471 0
M  V30 2281 H 218.052 1.22554 3.52186 0
M  V30 2282 N 220.237 -1.11381 1.11499 0
M  V30 2283 C 221.483 -1.83403 0.865512 0
M  V30 2284 C 221.816 -1.84459 -0.607329 0
M  V30 2285 O 221.091 -1.29811 -1.44842 0
M  V30 2286 C 221.374 -3.30552 1.42855 0
M  V30 2287 C 221.227 -3.37886 2.96906 0
M  V30 2288 C 222.546 -4.26643 1.08 0
M  V30 2289 H 219.665 -0.665879 0.31587 0
M  V30 2290 H 222.307 -1.30601 1.37998 0
M  V30 2291 H 220.457 -3.75648 0.990985 0
M  V30 2292 H 222.129 -3.01343 3.49271 0
M  V30 2293 H 220.372 -2.78088 3.32941 0
M  V30 2294 H 221.043 -4.41458 3.31389 0
M  V30 2295 H 223.519 -3.89729 1.45775 0
M  V30 2296 H 222.395 -5.27986 1.50072 0
M  V30 2297 H 222.656 -4.42099 -0.00915037 0
M  V30 2298 N 221.715 -0.905404 -1.28997 0
M  V30 2299 C 222.943 -0.549846 -1.9946 0
M  V30 2300 C 223.358 0.866834 -1.67724 0
M  V30 2301 O 222.715 1.57298 -0.925404 0
M  V30 2302 C 222.766 -0.739387 -3.53858 0
M  V30 2303 O 222.487 -2.10031 -3.84472 0
M  V30 2304 C 223.988 -0.389541 -4.41585 0
M  V30 2305 H 221.208 -0.210429 -0.637151 0
M  V30 2306 H 223.752 -1.21632 -1.64396 0
M  V30 2307 H 221.907 -0.120023 -3.87214 0
M  V30 2308 H 222.321 -2.13385 -4.79132 0
M  V30 2309 H 223.795 -0.572972 -5.49018 0
M  V30 2310 H 224.272 0.673756 -4.34001 0
M  V30 2311 H 224.878 -0.986089 -4.1371 0
M  V30 2312 N 223.193 1.4272 -0.668489 0
M  V30 2313 C 224.441 2.01226 -0.187769 0
M  V30 2314 C 224.762 1.53092 1.2078 0
M  V30 2315 O 224.032 0.74993 1.80977 0
M  V30 2316 H 222.612 0.744041 -0.0664272 0
M  V30 2317 H 225.274 1.74723 -0.863583 0
M  V30 2318 H 224.37 3.11556 -0.184166 0
M  V30 2319 N 224.671 0.411399 1.52136 0
M  V30 2320 C 225.581 -0.419774 2.30814 0
M  V30 2321 C 226.597 -1.0515 1.38634 0
M  V30 2322 O 227.773 -1.05252 1.71709 0
M  V30 2323 C 224.838 -1.52019 3.11594 0
M  V30 2324 C 223.899 -0.91129 4.19516 0
M  V30 2325 C 223.132 -1.95927 4.96436 0
M  V30 2326 O 223.355 -3.17775 4.73683 0
M  V30 2327 O 222.289 -1.56423 5.81219 0
M  V30 2328 H 226.115 0.221805 3.02889 0
M  V30 2329 H 223.7 0.174547 1.48377 0
M  V30 2330 H 225.582 -2.15898 3.61892 0
M  V30 2331 H 224.257 -2.14633 2.42311 0
M  V30 2332 H 223.164 -0.235157 3.7336 0
M  V30 2333 H 224.497 -0.32904 4.91099 0
M  V30 2334 N 226.149 -1.5696 0.141893 0
M  V30 2335 C 227.395 -1.9625 -0.511248 0
M  V30 2336 C 227.728 -1.02654 -1.64851 0
M  V30 2337 O 227.003 -0.0679676 -1.94381 0
M  V30 2338 C 227.286 -3.45285 -1.02227 0
M  V30 2339 C 227.139 -4.49658 0.113138 0
M  V30 2340 C 228.458 -3.96698 -1.90574 0
M  V30 2341 H 225.577 -0.713567 -0.184367 0
M  V30 2342 H 228.219 -1.88698 0.222087 0
M  V30 2343 H 226.369 -3.51852 -1.64719 0
M  V30 2344 H 228.041 -4.55174 0.749302 0
M  V30 2345 H 226.284 -4.26857 0.773026 0
M  V30 2346 H 226.955 -5.51258 -0.286053 0
M  V30 2347 H 229.431 -3.92578 -1.37918 0
M  V30 2348 H 228.307 -5.01453 -2.2324 0
M  V30 2349 H 228.568 -3.3875 -2.84079 0
M  V30 2350 N 227.627 0.131896 -1.57047 0
M  V30 2351 C 228.873 0.843179 -1.84441 0
M  V30 2352 C 229.206 1.80129 -0.725749 0
M  V30 2353 O 228.481 1.92624 0.269469 0
M  V30 2354 C 228.764 1.60442 -3.22382 0
M  V30 2355 C 228.617 0.666782 -4.4483 0
M  V30 2356 C 229.936 2.56354 -3.5773 0
M  V30 2357 H 227.055 0.305081 -0.670891 0
M  V30 2358 H 229.697 0.107839 -1.89694 0
M  V30 2359 H 227.847 2.23128 -3.18035 0
M  V30 2360 H 229.519 0.0497646 -4.61273 0
M  V30 2361 H 227.762 -0.022609 -4.33794 0
M  V30 2362 H 228.433 1.23579 -5.37989 0
M  V30 2363 H 230.909 2.0378 -3.62785 0
M  V30 2364 H 229.785 3.06657 -4.5525 0
M  V30 2365 H 230.046 3.38419 -2.84473 0
M  V30 2366 N 229.106 1.52395 0.401703 0
M  V30 2367 C 230.383 1.57387 1.16141 0
M  V30 2368 C 230.763 0.359359 2.08019 0
M  V30 2369 O 230.111 -0.65326 2.18963 0
M  V30 2370 C 230.321 2.90631 1.93221 0
M  V30 2371 C 231.669 3.43904 2.49028 0
M  V30 2372 O 232.693 2.92421 2.03393 0
M  V30 2373 O 231.552 4.33823 3.32356 0
M  V30 2374 H 228.646 0.634262 0.530698 0
M  V30 2375 H 231.192 1.64725 0.407883 0
M  V30 2376 H 229.964 3.70473 1.25958 0
M  V30 2377 H 229.587 2.8662 2.75563 0
M  V30 2378 N 230.584 -0.659388 1.43143 0
M  V30 2379 C 231.831 -1.41935 1.44433 0
M  V30 2380 C 232.159 -1.94387 0.0663522 0
M  V30 2381 O 231.414 -1.72314 -0.927706 0
M  V30 2382 C 231.713 -2.62206 2.42864 0
M  V30 2383 C 231.379 -2.28208 3.88886 0
M  V30 2384 C 230.041 -2.18647 4.28657 0
M  V30 2385 C 232.393 -2.00887 4.8093 0
M  V30 2386 C 229.721 -1.79914 5.58433 0
M  V30 2387 C 232.073 -1.63653 6.11065 0
M  V30 2388 C 230.737 -1.52614 6.49819 0
M  V30 2389 H 230.007 -0.519376 0.528517 0
M  V30 2390 H 232.654 -0.750453 1.76183 0
M  V30 2391 H 230.959 -3.34199 2.04495 0
M  V30 2392 H 232.656 -3.2041 2.41119 0
M  V30 2393 H 229.246 -2.36557 3.57406 0
M  V30 2394 H 233.43 -2.07198 4.5098 0
M  V30 2395 H 228.686 -1.69948 5.87305 0
M  V30 2396 H 232.86 -1.41543 6.81864 0
M  V30 2397 H 230.487 -1.22371 7.50286 0
M  V30 2398 N 232.062 -1.29571 -0.897171 0
M  V30 2399 C 233.287 -1.20705 -1.68656 0
M  V30 2400 C 233.712 0.228582 -1.86706 0
M  V30 2401 O 233.07 1.16494 -1.3892 0
M  V30 2402 C 233.118 -1.9282 -3.04717 0
M  V30 2403 O 232.222 -1.24697 -3.93096 0
M  V30 2404 H 231.563 -0.418126 -0.515816 0
M  V30 2405 H 234.093 -1.71183 -1.12061 0
M  V30 2406 H 234.103 -2.01372 -3.54843 0
M  V30 2407 H 232.778 -2.97239 -2.90899 0
M  V30 2408 H 231.355 -1.2442 -3.51531 0
M  V30 2409 N 233.54 1.10788 -1.12088 0
M  V30 2410 C 234.786 1.82942 -0.875226 0
M  V30 2411 C 235.119 1.84779 0.597538 0
M  V30 2412 O 234.394 1.30578 1.44152 0
M  V30 2413 C 234.677 3.29789 -1.44606 0
M  V30 2414 C 234.53 3.36307 -2.98693 0
M  V30 2415 C 235.849 4.26064 -1.10261 0
M  V30 2416 H 232.968 0.664195 -0.319397 0
M  V30 2417 H 235.61 1.29867 -1.38689 0
M  V30 2418 H 233.76 3.75118 -1.01089 0
M  V30 2419 H 235.432 2.99487 -3.50864 0
M  V30 2420 H 233.675 2.76318 -3.34411 0
M  V30 2421 H 234.346 4.39694 -3.33726 0
M  V30 2422 H 236.822 3.88951 -1.4784 0
M  V30 2423 H 235.698 5.27183 -1.52869 0
M  V30 2424 H 235.959 4.42098 -0.0142953 0
M  V30 2425 N 235.018 0.912232 1.28515 0
M  V30 2426 C 236.258 0.551677 1.96814 0
M  V30 2427 C 236.622 -0.887825 1.7024 0
M  V30 2428 O 237.823 -1.35588 2.32098 0
M  V30 2429 C 236.094 0.850555 3.47132 0
M  V30 2430 S 237.653 0.59619 4.34731 0
M  V30 2431 H 234.471 0.204191 0.681049 0
M  V30 2432 H 237.073 1.17736 1.56072 0
M  V30 2433 H 235.777 1.8962 3.63968 0
M  V30 2434 H 235.308 0.213471 3.9282 0
M  V30 2435 H 237.323 -0.553154 4.93107 0
M  V30 2436 N 236.496 -1.42363 0.676048 0
M  V30 2437 C 237.406 -2.346 -0.00153389 0
M  V30 2438 C 238.422 -1.5516 -0.787485 0
M  V30 2439 O 239.598 -1.87723 -0.729521 0
M  V30 2440 C 236.663 -3.33705 -0.940298 0
M  V30 2441 C 235.724 -4.29042 -0.148739 0
M  V30 2442 C 234.957 -5.23413 -1.04279 0
M  V30 2443 O 235.18 -5.22749 -2.28232 0
M  V30 2444 O 234.114 -5.99795 -0.502925 0
M  V30 2445 H 237.94 -2.94082 0.758268 0
M  V30 2446 H 235.525 -1.42888 0.436289 0
M  V30 2447 H 237.407 -3.94586 -1.47917 0
M  V30 2448 H 236.082 -2.76695 -1.67993 0
M  V30 2449 H 234.989 -3.71571 0.43427 0
M  V30 2450 H 236.322 -4.89097 0.551805 0
M  V30 2451 N 237.974 -0.419461 -1.51915 0
M  V30 2452 C 238.906 0.43646 -2.25006 0
M  V30 2453 C 239.919 1.00149 -1.28351 0
M  V30 2454 O 241.108 0.898674 -1.54227 0
M  V30 2455 C 238.208 1.6206 -2.9764 0
M  V30 2456 C 237.381 1.17763 -4.21249 0
M  V30 2457 C 236.44 2.22985 -4.76617 0
M  V30 2458 O 235.466 1.83151 -5.38929 0
M  V30 2459 N 236.668 3.55271 -4.59089 0
M  V30 2460 H 239.433 -0.18989 -2.99098 0
M  V30 2461 H 236.994 -0.247386 -1.59999 0
M  V30 2462 H 238.986 2.32038 -3.31573 0
M  V30 2463 H 237.556 2.15266 -2.2667 0
M  V30 2464 H 236.776 0.305582 -3.93014 0
M  V30 2465 H 238.064 0.858781 -5.015 0
M  V30 2466 H 237.462 3.90377 -4.09417 0
M  V30 2467 H 236.019 4.21195 -4.97432 0
M  V30 2468 N 239.452 1.56882 -0.150215 0
M  V30 2469 C 240.362 2.20494 0.801222 0
M  V30 2470 C 241.378 1.19019 1.26927 0
M  V30 2471 O 242.554 1.51607 1.32579 0
M  V30 2472 C 239.619 2.81659 2.02161 0
M  V30 2473 C 238.68 3.9827 1.60249 0
M  V30 2474 C 237.913 4.56508 2.7647 0
M  V30 2475 O 238.136 4.13627 3.92771 0
M  V30 2476 O 237.07 5.46719 2.51757 0
M  V30 2477 H 240.896 3.02315 0.289717 0
M  V30 2478 H 238.481 1.49202 0.0769684 0
M  V30 2479 H 240.363 3.20522 2.73576 0
M  V30 2480 H 239.038 2.02849 2.52258 0
M  V30 2481 H 237.945 3.64117 0.858477 0
M  V30 2482 H 239.278 4.78609 1.14864 0
M  V30 2483 N 240.93 -0.123565 1.57115 0
M  V30 2484 C 242.207 -0.862196 1.75572 0
M  V30 2485 C 242.587 -1.98279 0.724475 0
M  V30 2486 O 241.935 -2.27102 -0.252407 0
M  V30 2487 C 242.145 -1.38309 3.20424 0
M  V30 2488 C 243.493 -1.83724 3.82793 0
M  V30 2489 O 244.517 -1.47999 3.23998 0
M  V30 2490 O 243.376 -2.49685 4.86127 0
M  V30 2491 H 240.47 -0.409113 0.718718 0
M  V30 2492 H 243.016 -0.107661 1.69358 0
M  V30 2493 H 241.788 -0.578889 3.86994 0
M  V30 2494 H 241.411 -2.20046 3.31158 0
M  V30 2495 N 242.408 -1.52605 -0.393616 0
M  V30 2496 C 243.657 -1.66649 -1.13627 0
M  V30 2497 C 243.97 -0.410364 -1.91247 0
M  V30 2498 O 245.176 -0.430854 -2.68059 0
M  V30 2499 C 243.632 -2.9449 -2.06891 0
M  V30 2500 C 243.24 -4.27266 -1.34714 0
M  V30 2501 C 244.984 -3.17899 -2.81319 0
M  V30 2502 C 242.891 -5.46217 -2.26717 0
M  V30 2503 H 241.821 -0.62084 -0.427871 0
M  V30 2504 H 244.472 -1.791 -0.399428 0
M  V30 2505 H 242.854 -2.75774 -2.84191 0
M  V30 2506 H 244.028 -4.56518 -0.626714 0
M  V30 2507 H 242.343 -4.10081 -0.722643 0
M  V30 2508 H 244.94 -4.03949 -3.50328 0
M  V30 2509 H 245.283 -2.32777 -3.45139 0
M  V30 2510 H 245.816 -3.37159 -2.11113 0
M  V30 2511 H 242.555 -6.33733 -1.67521 0
M  V30 2512 H 242.075 -5.21283 -2.96689 0
M  V30 2513 H 243.754 -5.7991 -2.86903 0
M  V30 2514 N 243.887 0.651787 -1.4349 0
M  V30 2515 C 245.303 0.96762 -1.26922 0
M  V30 2516 C 245.503 2.00602 -0.189982 0
M  V30 2517 O 244.559 2.48793 0.431107 0
M  V30 2518 C 245.872 1.45052 -2.63401 0
M  V30 2519 C 247.42 1.5671 -2.70945 0
M  V30 2520 C 247.895 2.0839 -4.07845 0
M  V30 2521 N 249.386 2.1569 -4.09917 0
M  V30 2522 C 250.121 2.56804 -5.12679 0
M  V30 2523 N 249.617 2.97203 -6.25813 0
M  V30 2524 N 251.41 2.56756 -5.00033 0
M  V30 2525 H 243.561 -0.0353158 -2.12371 0
M  V30 2526 H 245.824 0.0467858 -0.946845 0
M  V30 2527 H 245.53 0.761926 -3.43348 0
M  V30 2528 H 245.404 2.42529 -2.88894 0
M  V30 2529 H 247.791 2.2467 -1.9133 0
M  V30 2530 H 247.872 0.57662 -2.49216 0
M  V30 2531 H 247.516 1.41031 -4.87927 0
M  V30 2532 H 247.446 3.08271 -4.26938 0
M  V30 2533 H 249.937 1.87237 -3.28254 0
M  V30 2534 H 250.25 3.27328 -7.00055 0
M  V30 2535 H 248.595 2.95004 -6.29283 0
M  V30 2536 H 251.786 2.24572 -4.10713 0
M  V30 2537 H 251.959 2.88475 -5.80247 0
M  V30 2538 N 245.365 1.30045 0.890287 0
M  V30 2539 C 246.781 1.08261 1.17268 0
M  V30 2540 C 246.981 -0.160063 2.00863 0
M  V30 2541 O 246.037 -0.855181 2.37577 0
M  V30 2542 C 247.35 2.34323 1.8845 0
M  V30 2543 C 248.898 2.39735 2.01237 0
M  V30 2544 C 249.373 3.65625 2.7583 0
M  V30 2545 N 250.864 3.66402 2.83379 0
M  V30 2546 C 251.599 4.60498 3.41657 0
M  V30 2547 N 251.095 5.64933 4.01026 0
M  V30 2548 N 252.888 4.48051 3.39421 0
M  V30 2549 H 245.039 2.09777 0.332762 0
M  V30 2550 H 247.302 0.92446 0.209948 0
M  V30 2551 H 247.008 3.2498 1.34465 0
M  V30 2552 H 246.882 2.4256 2.88867 0
M  V30 2553 H 249.269 1.4956 2.54393 0
M  V30 2554 H 249.35 2.35476 0.999232 0
M  V30 2555 H 248.994 4.56156 2.23347 0
M  V30 2556 H 248.924 3.67144 3.77509 0
M  V30 2557 H 251.415 2.90896 2.41222 0
M  V30 2558 H 251.728 6.32841 4.43545 0
M  V30 2559 H 250.073 5.68732 3.99461 0
M  V30 2560 H 253.264 3.65649 2.92264 0
M  V30 2561 H 253.437 5.21565 3.84544 0
M  V30 2562 N 246.843 -1.10192 1.12674 0
M  V30 2563 C 248.089 -1.82475 0.884915 0
M  V30 2564 C 248.422 -1.85093 -0.58773 0
M  V30 2565 O 247.697 -1.3134 -1.43457 0
M  V30 2566 C 247.98 -3.29018 1.46353 0
M  V30 2567 C 247.833 -3.34718 3.00473 0
M  V30 2568 C 249.152 -4.25473 1.12519 0
M  V30 2569 H 246.271 -0.662492 0.322915 0
M  V30 2570 H 248.913 -1.2913 1.39375 0
M  V30 2571 H 247.063 -3.74576 1.03077 0
M  V30 2572 H 248.735 -2.97622 3.52447 0
M  V30 2573 H 246.978 -2.74541 3.35872 0
M  V30 2574 H 247.649 -4.37918 3.36053 0
M  V30 2575 H 250.125 -3.88161 1.499 0
M  V30 2576 H 249.001 -5.26365 1.55663 0
M  V30 2577 H 249.262 -4.42084 0.0377407 0
M  V30 2578 N 248.321 -0.919034 -1.28029 0
M  V30 2579 C 249.569 -0.553838 -1.94363 0
M  V30 2580 C 249.89 0.906357 -1.72656 0
M  V30 2581 O 249.16 1.64143 -1.0693 0
M  V30 2582 H 247.74 -0.201834 -0.719216 0
M  V30 2583 H 250.402 -1.16954 -1.55909 0
M  V30 2584 H 249.498 -0.752758 -3.02886 0
M  V30 2585 N 249.799 1.42003 -0.683588 0
M  V30 2586 C 250.762 2.29191 -0.0198243 0
M  V30 2587 C 251.762 1.43773 0.72013 0
M  V30 2588 O 252.952 1.65061 0.556815 0
M  V30 2589 C 250.084 3.26435 0.982487 0
M  V30 2590 H 251.277 2.8938 -0.787345 0
M  V30 2591 H 248.83 1.49789 -0.446418 0
M  V30 2592 H 249.565 2.71203 1.77819 0
M  V30 2593 H 249.35 3.89449 0.455182 0
M  V30 2594 H 250.84 3.918 1.44508 0
M  V30 2595 N 251.277 0.427512 1.51691 0
M  V30 2596 C 252.526 -0.143679 2.01188 0
M  V30 2597 C 252.839 -1.44642 1.31674 0
M  V30 2598 O 254.045 -2.09997 1.72086 0
M  V30 2599 C 252.501 -0.306602 3.58592 0
M  V30 2600 C 252.109 0.985125 4.37035 0
M  V30 2601 C 253.853 -0.832091 4.16265 0
M  V30 2602 C 251.76 0.788382 5.86122 0
M  V30 2603 H 250.69 -0.0574701 0.751807 0
M  V30 2604 H 253.341 0.555772 1.74881 0
M  V30 2605 H 251.723 -1.06882 3.81303 0
M  V30 2606 H 252.897 1.75492 4.26074 0
M  V30 2607 H 251.212 1.4384 3.90767 0
M  V30 2608 H 253.809 -0.995617 5.25349 0
M  V30 2609 H 254.152 -1.81186 3.74803 0
M  V30 2610 H 254.685 -0.128444 3.97593 0
M  V30 2611 H 251.424 1.74025 6.31978 0
M  V30 2612 H 250.944 0.0582143 5.99772 0
M  V30 2613 H 252.623 0.437722 6.45518 0
M  V30 2614 N 252.755 -1.56801 0.158532 0
M  V30 2615 C 253.687 -2.14488 -0.807923 0
M  V30 2616 C 254.7 -1.09721 -1.20271 0
M  V30 2617 O 255.889 -1.36956 -1.14478 0
M  V30 2618 C 252.989 -2.66217 -2.09718 0
M  V30 2619 C 252.162 -3.95507 -1.86796 0
M  V30 2620 C 251.221 -4.3243 -2.99818 0
M  V30 2621 O 250.247 -5.00543 -2.71008 0
M  V30 2622 N 251.449 -3.92947 -4.27285 0
M  V30 2623 H 254.214 -2.98042 -0.314816 0
M  V30 2624 H 251.775 -1.61881 -0.0246692 0
M  V30 2625 H 253.767 -2.87924 -2.84398 0
M  V30 2626 H 252.337 -1.87324 -2.50257 0
M  V30 2627 H 251.557 -3.82309 -0.96089 0
M  V30 2628 H 252.845 -4.79972 -1.68833 0
M  V30 2629 H 252.243 -3.38087 -4.53557 0
M  V30 2630 H 250.8 -4.19681 -4.9871 0
M  V30 2631 N 254.233 0.115231 -1.57178 0
M  V30 2632 C 255.644 0.67197 -1.74188 0
M  V30 2633 C 255.995 1.80125 -0.777777 0
M  V30 2634 O 255.12 2.16346 0.0484376 0
M  V30 2635 C 255.715 1.22573 -3.1585 0
M  V30 2636 C 254.274 1.72872 -3.34353 0
M  V30 2637 C 253.421 0.629972 -2.70049 0
M  V30 2638 H 256.372 -0.110712 -1.58313 0
M  V30 2639 H 256.393 2.09535 -3.17609 0
M  V30 2640 H 255.905 0.403598 -3.85996 0
M  V30 2641 H 254.006 2.5755 -2.69256 0
M  V30 2642 H 254.119 1.83557 -4.42542 0
M  V30 2643 H 252.483 1.0645 -2.31388 0
M  V30 2644 H 253.266 -0.181241 -3.42821 0
M  V30 2645 N 255.711 1.52812 0.385517 0
M  V30 2646 C 256.957 1.69225 1.12847 0
M  V30 2647 C 257.312 0.42864 1.87564 0
M  V30 2648 O 256.605 -0.57779 1.8268 0
M  V30 2649 C 256.799 2.86856 2.13187 0
M  V30 2650 C 256.628 4.24535 1.48325 0
M  V30 2651 C 255.398 4.89701 1.24585 0
M  V30 2652 C 257.596 5.05794 0.931501 0
M  V30 2653 N 255.578 6.11353 0.558644 0
M  V30 2654 C 256.949 6.1888 0.372552 0
M  V30 2655 C 259.004 4.90963 0.828248 0
M  V30 2656 C 257.707 7.18757 -0.279556 0
M  V30 2657 C 259.733 5.91095 0.189956 0
M  V30 2658 C 259.095 7.03489 -0.358207 0
M  V30 2659 H 255.194 0.67268 0.39878 0
M  V30 2660 H 257.778 1.9017 0.417528 0
M  V30 2661 H 255.949 2.67484 2.81614 0
M  V30 2662 H 257.681 2.92188 2.80014 0
M  V30 2663 H 254.436 4.48485 1.52178 0
M  V30 2664 H 254.86 6.76606 0.230983 0
M  V30 2665 H 259.502 4.04274 1.23784 0
M  V30 2666 H 257.22 8.05052 -0.701152 0
M  V30 2667 H 260.806 5.81694 0.111264 0
M  V30 2668 H 259.686 7.79642 -0.844314 0
M  V30 2669 N 257.189 -0.644168 1.43834 0
M  V30 2670 C 258.437 -1.40117 1.45642 0
M  V30 2671 C 258.758 -1.94814 0.0852413 0
M  V30 2672 O 258.028 -1.74988 -0.880688 0
M  V30 2673 H 256.608 -0.52005 0.536243 0
M  V30 2674 H 259.27 -0.7591 1.7951 0
M  V30 2675 H 258.366 -2.23902 2.17427 0
M  V30 2676 N 258.668 -1.30515 -0.883378 0
M  V30 2677 C 259.631 -1.1701 -1.97082 0
M  V30 2678 C 260.631 -0.10089 -1.60483 0
M  V30 2679 O 261.821 -0.349127 -1.70666 0
M  V30 2680 C 258.953 -0.793045 -3.31547 0
M  V30 2681 H 260.146 -2.13622 -2.10489 0
M  V30 2682 H 257.699 -1.13935 -1.06998 0
M  V30 2683 H 258.434 0.172499 -3.23841 0
M  V30 2684 H 258.219 -1.56576 -3.5948 0
M  V30 2685 H 259.709 -0.722073 -4.1131 0
M  V30 2686 N 260.146 1.09593 -1.13257 0
M  V30 2687 C 261.392 1.82003 -0.89458 0
M  V30 2688 C 261.725 1.85402 0.577906 0
M  V30 2689 O 261 1.32099 1.42759 0
M  V30 2690 C 261.283 3.28237 -1.48096 0
M  V30 2691 C 261.136 3.3312 -3.02244 0
M  V30 2692 C 262.455 4.24871 -1.14774 0
M  V30 2693 H 259.574 0.66077 -0.326424 0
M  V30 2694 H 262.216 1.28389 -1.40058 0
M  V30 2695 H 260.366 3.74024 -1.05062 0
M  V30 2696 H 262.038 2.95748 -3.54021 0
M  V30 2697 H 260.281 2.72756 -3.37323 0
M  V30 2698 H 260.952 4.3613 -3.38371 0
M  V30 2699 H 263.428 3.87361 -1.51957 0
M  V30 2700 H 262.304 5.25532 -1.58452 0
M  V30 2701 H 262.565 4.42058 -0.0611849 0
M  V30 2702 N 261.624 0.925811 1.2754 0
M  V30 2703 C 262.554 0.440748 2.29303 0
M  V30 2704 C 263.535 -0.497971 1.62648 0
M  V30 2705 O 264.72 -0.403126 1.8997 0
M  V30 2706 C 261.85 -0.309048 3.45922 0
M  V30 2707 C 260.804 0.54166 4.24559 0
M  V30 2708 C 260.13 -0.337191 5.33636 0
M  V30 2709 C 261.43 1.80516 4.90114 0
M  V30 2710 H 263.124 1.29121 2.70126 0
M  V30 2711 H 260.67 0.622323 1.29858 0
M  V30 2712 H 262.623 -0.659315 4.1621 0
M  V30 2713 H 261.347 -1.19352 3.04011 0
M  V30 2714 H 260.006 0.874609 3.56014 0
M  V30 2715 H 259.654 -1.22056 4.87966 0
M  V30 2716 H 259.354 0.228497 5.87156 0
M  V30 2717 H 260.878 -0.683072 6.06767 0
M  V30 2718 H 262.292 1.52307 5.52698 0
M  V30 2719 H 260.689 2.3142 5.53683 0
M  V30 2720 H 261.759 2.52581 4.13921 0
M  V30 2721 N 263.102 -1.41638 0.69111 0
M  V30 2722 C 264.065 -2.29178 0.0319786 0
M  V30 2723 C 265.065 -1.44153 -0.712496 0
M  V30 2724 O 266.255 -1.65354 -0.548053 0
M  V30 2725 C 263.387 -3.26952 -0.965161 0
M  V30 2726 H 264.58 -2.88959 0.802681 0
M  V30 2727 H 262.133 -1.4955 0.454356 0
M  V30 2728 H 262.868 -2.72142 -1.76378 0
M  V30 2729 H 262.653 -3.89685 -0.434522 0
M  V30 2730 H 264.143 -3.92561 -1.42428 0
M  V30 2731 N 264.58 -0.43555 -1.51462 0
M  V30 2732 C 265.826 0.131709 -2.02372 0
M  V30 2733 C 266.159 1.42516 -1.3192 0
M  V30 2734 O 265.434 1.89606 -0.433573 0
M  V30 2735 C 265.717 0.352301 -3.58373 0
M  V30 2736 C 265.57 -0.959676 -4.39443 0
M  V30 2737 C 266.889 1.12286 -4.25535 0
M  V30 2738 H 264.008 0.0463936 -0.735538 0
M  V30 2739 H 266.65 -0.574197 -1.81116 0
M  V30 2740 H 264.8 0.9536 -3.76615 0
M  V30 2741 H 266.472 -1.59482 -4.32855 0
M  V30 2742 H 264.715 -1.56468 -4.04599 0
M  V30 2743 H 265.386 -0.759394 -5.46752 0
M  V30 2744 H 267.862 0.613545 -4.11552 0
M  V30 2745 H 266.738 1.24598 -5.34571 0
M  V30 2746 H 266.999 2.15048 -3.86273 0
M  V30 2747 N 266.058 1.56714 -0.166846 0
M  V30 2748 C 267.335 1.88412 0.525373 0
M  V30 2749 C 267.715 1.07602 1.81618 0
M  V30 2750 O 267.063 0.168621 2.27877 0
M  V30 2751 C 267.273 3.40363 0.771613 0
M  V30 2752 C 268.621 4.10007 1.1036 0
M  V30 2753 O 269.645 3.45655 0.860304 0
M  V30 2754 O 268.504 5.2369 1.56239 0
M  V30 2755 H 265.598 0.781587 0.270278 0
M  V30 2756 H 268.144 1.68458 -0.204946 0
M  V30 2757 H 266.916 3.91046 -0.141093 0
M  V30 2758 H 266.539 3.65914 1.55541 0
M  V30 2759 N 267.536 -0.106894 1.57237 0
M  V30 2760 C 268.947 -0.662723 1.74542 0
M  V30 2761 C 269.298 -1.7971 0.787319 0
M  V30 2762 O 268.423 -2.16368 -0.0369636 0
M  V30 2763 C 269.018 -1.20896 3.16496 0
M  V30 2764 C 267.577 -1.71096 3.35266 0
M  V30 2765 C 266.724 -0.615642 2.7038 0
M  V30 2766 H 269.675 0.119106 1.58252 0
M  V30 2767 H 269.696 -2.07847 3.18716 0
M  V30 2768 H 269.208 -0.383122 3.86204 0
M  V30 2769 H 267.309 -2.56119 2.70618 0
M  V30 2770 H 267.422 -1.81208 4.43509 0
M  V30 2771 H 265.786 -1.05222 2.31949 0
M  V30 2772 H 266.569 0.199419 3.4272 0
M  V30 2773 N 269.014 -1.53014 -0.377408 0
M  V30 2774 C 270.43 -1.42523 -0.718281 0
M  V30 2775 C 270.63 -0.55487 -1.9371 0
M  V30 2776 O 269.686 -0.0327593 -2.52479 0
M  V30 2777 C 270.999 -2.85546 -0.942539 0
M  V30 2778 C 272.547 -2.95101 -1.04329 0
M  V30 2779 C 273.022 -4.3916 -1.3001 0
M  V30 2780 N 274.513 -4.42536 -1.36806 0
M  V30 2781 C 275.248 -5.51097 -1.58364 0
M  V30 2782 N 274.744 -6.69724 -1.77317 0
M  V30 2783 N 276.537 -5.38657 -1.60638 0
M  V30 2784 H 268.688 -2.08116 0.424426 0
M  V30 2785 H 270.951 -0.939352 0.127759 0
M  V30 2786 H 270.657 -3.51499 -0.118929 0
M  V30 2787 H 270.531 -3.28493 -1.85397 0
M  V30 2788 H 272.918 -2.29309 -1.85745 0
M  V30 2789 H 272.999 -2.55566 -0.109505 0
M  V30 2790 H 272.643 -5.05521 -0.490991 0
M  V30 2791 H 272.573 -4.76258 -2.24691 0
M  V30 2792 H 275.064 -3.57039 -1.23821 0
M  V30 2793 H 275.377 -7.48233 -1.93306 0
M  V30 2794 H 273.722 -6.72732 -1.74518 0
M  V30 2795 H 276.913 -4.44948 -1.45391 0
M  V30 2796 H 277.086 -6.2333 -1.77098 0
M  V30 2797 N 270.492 0.636531 -1.44174 0
M  V30 2798 C 271.769 1.39463 -1.37148 0
M  V30 2799 C 272.149 2.11082 -0.027507 0
M  V30 2800 O 271.497 2.05954 0.989716 0
M  V30 2801 C 271.707 2.36552 -2.56601 0
M  V30 2802 C 273.055 3.00048 -3.00427 0
M  V30 2803 O 274.079 2.46878 -2.56767 0
M  V30 2804 O 272.938 3.96488 -3.76111 0
M  V30 2805 H 270.032 0.623903 -0.542839 0
M  V30 2806 H 272.578 0.662039 -1.56253 0
M  V30 2807 H 271.35 1.82692 -3.46034 0
M  V30 2808 H 270.973 3.17236 -2.39681 0
M  V30 2809 N 271.97 1.30982 0.876444 0
M  V30 2810 C 273.216 1.21484 1.63136 0
M  V30 2811 C 273.571 -0.226339 1.91064 0
M  V30 2812 O 272.864 -1.15788 1.52656 0
M  V30 2813 C 273.058 1.98572 2.9716 0
M  V30 2814 C 272.887 3.50039 2.82317 0
M  V30 2815 C 271.657 4.19393 2.81847 0
M  V30 2816 C 273.855 4.45111 2.57644 0
M  V30 2817 N 271.837 5.57061 2.57985 0
M  V30 2818 C 273.208 5.70402 2.42986 0
M  V30 2819 C 275.263 4.3461 2.42937 0
M  V30 2820 C 273.966 6.8638 2.15115 0
M  V30 2821 C 275.992 5.50365 2.16454 0
M  V30 2822 C 275.354 6.74642 2.02578 0
M  V30 2823 H 271.453 0.499632 0.601575 0
M  V30 2824 H 274.037 1.65094 1.03209 0
M  V30 2825 H 272.208 1.5734 3.55104 0
M  V30 2826 H 273.94 1.81146 3.61895 0
M  V30 2827 H 270.695 3.71303 2.93991 0
M  V30 2828 H 271.119 6.29529 2.49043 0
M  V30 2829 H 275.761 3.39199 2.52396 0
M  V30 2830 H 273.479 7.81824 2.04394 0
M  V30 2831 H 277.065 5.44154 2.05884 0
M  V30 2832 H 275.945 7.62699 1.82374 0
M  V30 2833 N 273.449 -1.08991 1.13837 0
M  V30 2834 C 274.677 -1.85011 0.926202 0
M  V30 2835 C 275.092 -1.8135 -0.525127 0
M  V30 2836 O 274.449 -1.21287 -1.36366 0
M  V30 2837 C 274.5 -3.32802 1.41155 0
M  V30 2838 O 274.221 -3.36444 2.80601 0
M  V30 2839 C 275.722 -4.25649 1.23847 0
M  V30 2840 H 272.942 -0.584249 0.32999 0
M  V30 2841 H 275.486 -1.37688 1.51202 0
M  V30 2842 H 273.641 -3.77536 0.868631 0
M  V30 2843 H 274.055 -4.28657 3.02248 0
M  V30 2844 H 275.529 -5.27485 1.62675 0
M  V30 2845 H 276.006 -4.38828 0.18065 0
M  V30 2846 H 276.612 -3.86735 1.76964 0
M  V30 2847 N 274.927 -0.932562 -1.27047 0
M  V30 2848 C 276.173 -0.576412 -1.94436 0
M  V30 2849 C 276.506 0.880891 -1.73072 0
M  V30 2850 O 275.781 1.62905 -1.06264 0
M  V30 2851 C 276.064 -0.909031 -3.48437 0
M  V30 2852 C 275.917 -2.42044 -3.79123 0
M  V30 2853 C 277.236 -0.418341 -4.38107 0
M  V30 2854 H 274.355 -0.210888 -0.706184 0
M  V30 2855 H 276.997 -1.16522 -1.50075 0
M  V30 2856 H 275.147 -0.407947 -3.86352 0
M  V30 2857 H 276.819 -2.99359 -3.50973 0
M  V30 2858 H 275.062 -2.86758 -3.25503 0
M  V30 2859 H 275.733 -2.6037 -4.86736 0
M  V30 2860 H 278.209 -0.847856 -4.0737 0
M  V30 2861 H 277.085 -0.679981 -5.44672 0
M  V30 2862 H 277.346 0.681642 -4.36814 0
M  V30 2863 N 276.405 1.4127 -0.698611 0
M  V30 2864 C 277.645 2.03044 -0.235062 0
M  V30 2865 C 278.009 1.54146 1.14468 0
M  V30 2866 O 279.21 2.07867 1.70425 0
M  V30 2867 C 277.481 3.56192 -0.293651 0
M  V30 2868 S 279.04 4.38696 0.0954053 0
M  V30 2869 H 275.858 0.704697 -0.0944648 0
M  V30 2870 H 278.46 1.72656 -0.917064 0
M  V30 2871 H 277.164 3.89274 -1.29977 0
M  V30 2872 H 276.695 3.91285 0.407397 0
M  V30 2873 H 278.71 4.78257 1.3223 0
M  V30 2874 N 277.883 0.443576 1.51229 0
M  V30 2875 C 278.846 -0.353132 2.26463 0
M  V30 2876 C 279.846 -0.944338 1.3015 0
M  V30 2877 O 281.036 -0.817813 1.5381 0
M  V30 2878 C 278.168 -1.50023 3.06114 0
M  V30 2879 H 279.361 0.3063 2.98332 0
M  V30 2880 H 276.914 0.196902 1.55055 0
M  V30 2881 H 277.649 -2.19553 2.38677 0
M  V30 2882 H 277.434 -1.08241 3.76864 0
M  V30 2883 H 278.924 -2.06296 3.63087 0
M  V30 2884 N 279.361 -1.56624 0.175154 0
M  V30 2885 C 280.324 -2.16934 -0.739738 0
M  V30 2886 C 281.324 -1.11842 -1.15533 0
M  V30 2887 O 282.514 -1.37335 -1.07167 0
M  V30 2888 C 279.646 -2.75531 -2.00738 0
M  V30 2889 H 280.839 -2.99131 -0.214639 0
M  V30 2890 H 278.392 -1.56123 -0.0744197 0
M  V30 2891 H 279.127 -1.97078 -2.57548 0
M  V30 2892 H 278.912 -3.52444 -1.71831 0
M  V30 2893 H 280.402 -3.21904 -2.66021 0
M  V30 2894 N 280.839 0.0985539 -1.57292 0
M  V30 2895 C 282.064 0.820196 -1.90493 0
M  V30 2896 C 282.489 1.71658 -0.769094 0
M  V30 2897 O 281.847 1.79133 0.279495 0
M  V30 2898 C 281.895 1.61242 -3.22542 0
M  V30 2899 O 280.999 2.72108 -3.09888 0
M  V30 2900 H 280.34 0.225547 -0.62452 0
M  V30 2901 H 282.87 0.0748159 -2.04463 0
M  V30 2902 H 282.88 1.99737 -3.55766 0
M  V30 2903 H 281.555 0.954535 -4.04798 0
M  V30 2904 H 280.132 2.36667 -2.88172 0
M  V30 2905 N 282.317 1.53212 0.369288 0
M  V30 2906 C 283.594 1.59815 1.12776 0
M  V30 2907 C 283.974 0.403402 2.0721 0
M  V30 2908 O 283.322 -0.606667 2.20299 0
M  V30 2909 C 283.532 2.94664 1.87013 0
M  V30 2910 C 284.88 3.49109 2.41677 0
M  V30 2911 O 285.904 2.96669 1.97144 0
M  V30 2912 O 284.763 4.40775 3.23079 0
M  V30 2913 H 281.857 0.645376 0.517125 0
M  V30 2914 H 284.403 1.65553 0.37285 0
M  V30 2915 H 283.175 3.73061 1.18071 0
M  V30 2916 H 282.798 2.92401 2.69421 0
M  V30 2917 N 283.795 -0.628877 1.44509 0
M  V30 2918 C 284.743 -1.76193 1.51852 0
M  V30 2919 C 285.737 -1.64849 0.390042 0
M  V30 2920 O 286.943 -1.709 0.565082 0
M  V30 2921 H 283.318 -0.581728 0.476547 0
M  V30 2922 H 285.289 -1.67123 2.47209 0
M  V30 2923 C 284.038 -3.14533 1.48204 0
M  V30 2924 H 283.361 -3.23911 2.34354 0
M  V30 2925 H 284.801 -3.93701 1.57402 0
M  V30 2926 C 283.26 -3.36287 0.203142 0
M  V30 2927 O 283.79 -3.9509 -0.725745 0
M  V30 2928 N 281.996 -2.90408 0.105563 0
M  V30 2929 H 281.543 -2.42739 0.862301 0
M  V30 2930 H 281.501 -3.05339 -0.749371 0
M  V30 2931 N 285.273 -1.31445 -0.869486 0
M  V30 2932 C 286.236 -1.19094 -1.9583 0
M  V30 2933 C 287.236 -0.117906 -1.60367 0
M  V30 2934 O 288.426 -0.367208 -1.70286 0
M  V30 2935 C 285.558 -0.828165 -3.30688 0
M  V30 2936 H 286.751 -2.15842 -2.08212 0
M  V30 2937 H 284.304 -1.15063 -1.05784 0
M  V30 2938 H 285.039 0.138142 -3.24006 0
M  V30 2939 H 284.824 -1.6038 -3.578 0
M  V30 2940 H 286.314 -0.765658 -4.10521 0
M  V30 2941 N 286.751 1.08385 -1.14413 0
M  V30 2942 C 287.683 2.1519 -0.789036 0
M  V30 2943 C 288.696 1.61638 0.19417 0
M  V30 2944 O 289.885 1.78479 -0.0275711 0
M  V30 2945 C 286.985 3.38565 -0.15058 0
M  V30 2946 C 286.158 4.21501 -1.16857 0
M  V30 2947 C 285.217 5.23277 -0.553832 0
M  V30 2948 O 284.243 5.56041 -1.21686 0
M  V30 2949 N 285.445 5.76629 0.669296 0
M  V30 2950 H 288.21 2.46257 -1.70814 0
M  V30 2951 H 285.771 1.24198 -1.03858 0
M  V30 2952 H 287.763 4.03777 0.273181 0
M  V30 2953 H 286.333 3.05299 0.671667 0
M  V30 2954 H 285.553 3.52265 -1.76926 0
M  V30 2955 H 286.841 4.73731 -1.85624 0
M  V30 2956 H 286.239 5.52243 1.22654 0
M  V30 2957 H 284.796 6.43521 1.03556 0
M  V30 2958 N 288.23 0.939286 1.26551 0
M  V30 2959 C 289.193 0.451987 2.24699 0
M  V30 2960 C 290.193 -0.435869 1.5478 0
M  V30 2961 O 291.383 -0.235314 1.72603 0
M  V30 2962 C 288.515 -0.348801 3.39111 0
M  V30 2963 H 289.708 1.3193 2.69322 0
M  V30 2964 H 287.261 0.721072 1.38673 0
M  V30 2965 H 287.996 -1.23444 2.99887 0
M  V30 2966 H 287.781 0.287945 3.91041 0
M  V30 2967 H 289.271 -0.679726 4.12031 0
M  V30 2968 N 289.708 -1.40897 0.706093 0
M  V30 2969 C 290.638 -2.33418 0.0620085 0
M  V30 2970 C 291.619 -1.52385 -0.755827 0
M  V30 2971 O 292.804 -1.80886 -0.706674 0
M  V30 2972 C 289.934 -3.36293 -0.867445 0
M  V30 2973 C 288.888 -4.27716 -0.155932 0
M  V30 2974 C 288.214 -5.2105 -1.20046 0
M  V30 2975 C 289.514 -5.12944 0.984149 0
M  V30 2976 H 291.208 -2.87527 0.83477 0
M  V30 2977 H 288.754 -1.38249 0.402875 0
M  V30 2978 H 290.707 -3.99949 -1.32735 0
M  V30 2979 H 289.431 -2.80556 -1.67199 0
M  V30 2980 H 288.09 -3.65498 0.284047 0
M  V30 2981 H 287.738 -4.61624 -1.99781 0
M  V30 2982 H 287.438 -5.83056 -0.729328 0
M  V30 2983 H 288.962 -5.87584 -1.66066 0
M  V30 2984 H 290.376 -5.70109 0.604048 0
M  V30 2985 H 288.773 -5.83945 1.38304 0
M  V30 2986 H 289.843 -4.49485 1.81911 0
M  V30 2987 N 291.186 -0.45159 -1.50991 0
M  V30 2988 C 292.116 0.342898 -2.30969 0
M  V30 2989 C 293.097 1.00815 -1.37005 0
M  V30 2990 O 294.282 1.00907 -1.65926 0
M  V30 2991 C 291.412 1.43637 -3.16205 0
M  V30 2992 C 290.366 0.893818 -4.18563 0
M  V30 2993 C 289.692 2.08411 -4.92411 0
M  V30 2994 C 290.992 -0.0815568 -5.22236 0
M  V30 2995 H 292.686 -0.324556 -2.97636 0
M  V30 2996 H 290.232 -0.157531 -1.43136 0
M  V30 2997 H 292.185 1.9995 -3.70942 0
M  V30 2998 H 290.909 2.13232 -2.47386 0
M  V30 2999 H 289.568 0.352798 -3.64898 0
M  V30 3000 H 289.216 2.76658 -4.20082 0
M  V30 3001 H 288.916 1.72741 -5.61636 0
M  V30 3002 H 290.44 2.65251 -5.49976 0
M  V30 3003 H 291.854 0.391742 -5.7196 0
M  V30 3004 H 290.251 -0.351551 -5.99069 0
M  V30 3005 H 291.321 -1.01374 -4.74185 0
M  V30 3006 N 292.664 1.56529 -0.183458 0
M  V30 3007 C 293.941 1.88959 0.50536 0
M  V30 3008 C 294.321 1.09523 1.80466 0
M  V30 3009 O 293.669 0.19278 2.27685 0
M  V30 3010 C 293.879 3.41162 0.73547 0
M  V30 3011 C 295.227 4.11155 1.06005 0
M  V30 3012 O 296.251 3.46548 0.823594 0
M  V30 3013 O 295.11 5.25318 1.50675 0
M  V30 3014 H 292.204 0.78441 0.261973 0
M  V30 3015 H 294.75 1.68231 -0.222802 0
M  V30 3016 H 293.522 3.90874 -0.182561 0
M  V30 3017 H 293.145 3.67543 1.51651 0
M  V30 3018 N 294.142 -0.090211 1.57342 0
M  V30 3019 C 295.382 -0.798365 1.88163 0
M  V30 3020 C 295.746 -1.75662 0.775046 0
M  V30 3021 O 296.947 -2.50849 0.965816 0
M  V30 3022 C 295.218 -1.50376 3.24225 0
M  V30 3023 S 296.777 -2.24952 3.76752 0
M  V30 3024 H 293.595 -0.265883 0.659414 0
M  V30 3025 H 296.197 -0.055264 1.95422 0
M  V30 3026 H 294.901 -0.792286 4.0268 0
M  V30 3027 H 294.432 -2.28666 3.20118 0
M  V30 3028 H 296.447 -3.51173 3.5056 0
M  V30 3029 N 295.62 -1.53406 -0.361157 0
M  V30 3030 C 296.583 -1.79479 -1.42548 0
M  V30 3031 C 297.583 -0.665327 -1.4639 0
M  V30 3032 O 298.773 -0.933549 -1.47073 0
M  V30 3033 C 295.905 -1.92087 -2.8163 0
M  V30 3034 H 297.098 -2.74538 -1.20701 0
M  V30 3035 H 294.651 -1.4455 -0.594546 0
M  V30 3036 H 295.386 -0.991099 -3.08784 0
M  V30 3037 H 295.171 -2.74241 -2.80239 0
M  V30 3038 H 296.661 -2.13836 -3.58697 0
M  V30 3039 N 297.098 0.621204 -1.44841 0
M  V30 3040 C 298.514 0.94048 -1.28946 0
M  V30 3041 C 298.714 2.00154 -0.23249 0
M  V30 3042 O 297.77 2.49651 0.378237 0
M  V30 3043 C 299.083 1.39433 -2.66419 0
M  V30 3044 C 300.631 1.50927 -2.74208 0
M  V30 3045 C 301.106 1.99692 -4.12174 0
M  V30 3046 N 302.597 2.06947 -4.144 0
M  V30 3047 C 303.332 2.45871 -5.1801 0
M  V30 3048 N 302.828 2.83862 -6.31977 0
M  V30 3049 N 304.621 2.46092 -5.05366 0
M  V30 3050 H 296.772 -0.0803548 -2.12248 0
M  V30 3051 H 299.035 0.0266913 -0.947624 0
M  V30 3052 H 298.741 0.688925 -3.44887 0
M  V30 3053 H 298.615 2.36347 -2.93973 0
M  V30 3054 H 301.002 2.20561 -1.96053 0
M  V30 3055 H 301.083 0.523627 -2.50383 0
M  V30 3056 H 300.727 1.30649 -4.90809 0
M  V30 3057 H 300.657 2.99146 -4.33381 0
M  V30 3058 H 303.148 1.80232 -3.32152 0
M  V30 3059 H 303.461 3.12405 -7.0684 0
M  V30 3060 H 301.806 2.8159 -6.35399 0
M  V30 3061 H 304.997 2.1581 -4.15384 0
M  V30 3062 H 305.17 2.76102 -5.86235 0
M  V30 3063 N 298.576 1.31904 0.862503 0
M  V30 3064 C 299.987 1.19803 1.43193 0
M  V30 3065 C 300.338 -0.192567 1.95253 0
M  V30 3066 O 299.463 -1.09081 1.86896 0
M  V30 3067 C 300.058 2.16883 2.60283 0
M  V30 3068 C 298.617 2.08692 3.13248 0
M  V30 3069 C 297.764 2.05691 1.85975 0
M  V30 3070 H 300.715 1.43846 0.670365 0
M  V30 3071 H 300.736 1.76278 3.37204 0
M  V30 3072 H 300.248 3.18083 2.22363 0
M  V30 3073 H 298.349 1.10713 3.55771 0
M  V30 3074 H 298.462 2.9815 3.75025 0
M  V30 3075 H 296.826 1.50814 2.05249 0
M  V30 3076 H 297.609 3.08659 1.50282 0
M  V30 3077 N 300.054 -1.07777 1.14986 0
M  V30 3078 C 301.465 -1.61766 0.932127 0
M  V30 3079 C 301.816 -1.88974 -0.527581 0
M  V30 3080 O 300.941 -1.65198 -1.39781 0
M  V30 3081 C 301.536 -2.93891 1.68563 0
M  V30 3082 C 300.095 -3.44639 1.5133 0
M  V30 3083 C 299.242 -2.18767 1.704 0
M  V30 3084 H 302.193 -0.909201 1.30074 0
M  V30 3085 H 302.214 -3.62623 1.15259 0
M  V30 3086 H 301.726 -2.74057 2.74799 0
M  V30 3087 H 299.827 -3.69564 0.474702 0
M  V30 3088 H 299.94 -4.20966 2.28746 0
M  V30 3089 H 298.304 -2.28253 1.13016 0
M  V30 3090 H 299.087 -2.01433 2.77992 0
M  V30 3091 N 301.532 -0.945985 -1.26051 0
M  V30 3092 C 302.462 -0.477172 -2.28572 0
M  V30 3093 C 303.443 0.472032 -1.63419 0
M  V30 3094 O 304.628 0.372853 -1.90587 0
M  V30 3095 C 301.758 0.253975 -3.4637 0
M  V30 3096 C 300.712 -0.609135 -4.23643 0
M  V30 3097 C 300.038 0.252252 -5.34105 0
M  V30 3098 C 301.338 -1.8829 -4.8718 0
M  V30 3099 H 303.032 -1.33402 -2.68038 0
M  V30 3100 H 300.578 -0.642904 -1.28852 0
M  V30 3101 H 302.531 0.593016 -4.17207 0
M  V30 3102 H 301.255 1.145 -3.05871 0
M  V30 3103 H 299.914 -0.931138 -3.54578 0
M  V30 3104 H 299.562 1.14278 -4.89846 0
M  V30 3105 H 299.262 -0.32188 -5.86718 0
M  V30 3106 H 300.786 0.586454 -6.07777 0
M  V30 3107 H 302.2 -1.61081 -5.50205 0
M  V30 3108 H 300.597 -2.40199 -5.49931 0
M  V30 3109 H 301.667 -2.59134 -4.09851 0
M  V30 3110 N 303.011 1.40521 -0.713556 0
M  V30 3111 C 304.259 2.00527 -0.251692 0
M  V30 3112 C 304.58 1.56857 1.15848 0
M  V30 3113 O 303.85 0.807127 1.785 0
M  V30 3114 H 302.43 0.741551 -0.0900646 0
M  V30 3115 H 305.092 1.71887 -0.918733 0
M  V30 3116 H 304.188 3.10813 -0.283192 0
M  V30 3117 N 304.489 0.459591 1.5075 0
M  V30 3118 C 305.905 0.113092 1.59199 0
M  V30 3119 C 306.105 -1.37951 1.46874 0
M  V30 3120 O 305.161 -2.15168 1.32132 0
M  V30 3121 C 306.474 0.653043 2.93523 0
M  V30 3122 C 308.022 0.615449 3.0689 0
M  V30 3123 C 308.497 1.13275 4.43771 0
M  V30 3124 N 309.988 1.09167 4.50152 0
M  V30 3125 C 310.723 1.46256 5.54434 0
M  V30 3126 N 310.219 1.90739 6.66026 0
M  V30 3127 N 312.012 1.37932 5.44914 0
M  V30 3128 H 304.163 1.43049 1.57005 0
M  V30 3129 H 306.426 0.590861 0.741341 0
M  V30 3130 H 306.132 1.69822 3.07983 0
M  V30 3131 H 306.006 0.0902132 3.77092 0
M  V30 3132 H 308.393 -0.420793 2.92084 0
M  V30 3133 H 308.474 1.21495 2.25106 0
M  V30 3134 H 308.118 2.16757 4.59324 0
M  V30 3135 H 308.048 0.509576 5.24129 0
M  V30 3136 H 310.539 0.76528 3.7007 0
M  V30 3137 H 310.852 2.17218 7.41644 0
M  V30 3138 H 309.197 1.94683 6.67176 0
M  V30 3139 H 312.388 1.0303 4.56621 0
M  V30 3140 H 312.561 1.67164 6.26067 0
M  V30 3141 N 305.967 -1.56429 0.191757 0
M  V30 3142 C 307.378 -1.83912 -0.321428 0
M  V30 3143 C 307.729 -1.11231 -1.61623 0
M  V30 3144 O 306.854 -0.37202 -2.13178 0
M  V30 3145 C 307.449 -3.33624 -0.589961 0
M  V30 3146 C 306.008 -3.6153 -1.04753 0
M  V30 3147 C 305.155 -2.7714 -0.0943327 0
M  V30 3148 H 308.106 -1.53161 0.415612 0
M  V30 3149 H 308.127 -3.52213 -1.43966 0
M  V30 3150 H 307.639 -3.86495 0.352588 0
M  V30 3151 H 305.74 -3.14089 -2.00447 0
M  V30 3152 H 305.853 -4.69737 -0.942549 0
M  V30 3153 H 304.217 -2.47638 -0.595589 0
M  V30 3154 H 305 -3.32799 0.842601 0
M  V30 3155 N 307.445 0.0818655 -1.57387 0
M  V30 3156 C 308.375 1.09885 -2.06028 0
M  V30 3157 C 309.356 1.4098 -0.951774 0
M  V30 3158 O 310.541 1.50781 -1.22387 0
M  V30 3159 C 307.671 2.4151 -2.4958 0
M  V30 3160 C 306.625 2.24792 -3.64215 0
M  V30 3161 C 305.951 3.61712 -3.93787 0
M  V30 3162 C 307.251 1.67749 -4.94629 0
M  V30 3163 H 308.945 0.694128 -2.91243 0
M  V30 3164 H 306.491 0.332448 -1.4011 0
M  V30 3165 H 308.444 3.12939 -2.82219 0
M  V30 3166 H 307.168 2.83943 -1.61381 0
M  V30 3167 H 305.827 1.55807 -3.31843 0
M  V30 3168 H 305.475 4.01697 -3.02735 0
M  V30 3169 H 305.175 3.51368 -4.70971 0
M  V30 3170 H 306.699 4.34587 -4.28913 0
M  V30 3171 H 308.113 2.29032 -5.25564 0
M  V30 3172 H 306.51 1.68128 -5.76067 0
M  V30 3173 H 307.58 0.638059 -4.80684 0
M  V30 3174 N 308.923 1.53595 0.353017 0
M  V30 3175 C 310.171 1.70049 1.09215 0
M  V30 3176 C 310.492 0.461406 1.89463 0
M  V30 3177 O 309.762 -0.524633 1.88744 0
M  V30 3178 H 308.342 0.626912 0.40619 0
M  V30 3179 H 311.004 1.90822 0.396585 0
M  V30 3180 H 310.1 2.56718 1.77488 0
M  V30 3181 N 310.401 -0.613514 1.45168 0
M  V30 3182 C 311.311 -1.75296 1.55912 0
M  V30 3183 C 312.327 -1.68244 0.443856 0
M  V30 3184 O 313.503 -1.88706 0.70371 0
M  V30 3185 C 310.568 -3.1174 1.5172 0
M  V30 3186 C 309.629 -3.30291 2.74238 0
M  V30 3187 C 308.862 -4.60226 2.70236 0
M  V30 3188 O 309.085 -5.42168 1.77229 0
M  V30 3189 O 308.019 -4.81361 3.61352 0
M  V30 3190 H 311.845 -1.69183 2.52212 0
M  V30 3191 H 309.43 -0.776886 1.27612 0
M  V30 3192 H 311.312 -3.93044 1.51968 0
M  V30 3193 H 309.987 -3.18357 0.585697 0
M  V30 3194 H 308.894 -2.48598 2.79553 0
M  V30 3195 H 310.227 -3.28547 3.66494 0
M  V30 3196 N 311.879 -1.3236 -0.855495 0
M  V30 3197 C 313.125 -1.23054 -1.612 0
M  V30 3198 C 313.458 0.207404 -1.93089 0
M  V30 3199 O 312.733 1.14432 -1.57275 0
M  V30 3200 C 313.016 -2.08937 -2.93287 0
M  V30 3201 C 312.869 -3.61105 -2.68185 0
M  V30 3202 C 314.188 -1.94986 -3.94549 0
M  V30 3203 H 311.307 -0.448364 -0.584926 0
M  V30 3204 H 313.949 -1.62297 -0.987917 0
M  V30 3205 H 312.099 -1.75599 -3.46551 0
M  V30 3206 H 313.771 -4.04652 -2.21483 0
M  V30 3207 H 312.014 -3.83813 -2.02164 0
M  V30 3208 H 312.685 -4.16522 -3.62234 0
M  V30 3209 H 315.161 -2.24189 -3.5054 0
M  V30 3210 H 314.037 -2.57356 -4.84829 0
M  V30 3211 H 314.298 -0.917263 -4.3248 0
M  V30 3212 N 313.357 1.07166 -1.15556 0
M  V30 3213 C 314.287 2.16403 -0.877046 0
M  V30 3214 C 315.268 1.69217 0.173111 0
M  V30 3215 O 316.453 1.94181 0.027084 0
M  V30 3216 C 313.583 3.45349 -0.367632 0
M  V30 3217 C 312.537 4.05995 -1.35468 0
M  V30 3218 C 311.863 5.30045 -0.704038 0
M  V30 3219 C 313.163 4.45804 -2.72132 0
M  V30 3220 H 314.857 2.39959 -1.79053 0
M  V30 3221 H 312.403 1.15325 -0.862331 0
M  V30 3222 H 314.356 4.21095 -0.160317 0
M  V30 3223 H 313.08 3.21385 0.581326 0
M  V30 3224 H 311.739 3.32296 -1.54839 0
M  V30 3225 H 311.387 5.02373 0.251128 0
M  V30 3226 H 311.087 5.71579 -1.36277 0
M  V30 3227 H 312.611 6.08495 -0.50654 0
M  V30 3228 H 314.025 5.12671 -2.56595 0
M  V30 3229 H 312.422 4.98296 -3.34397 0
M  V30 3230 H 313.492 3.57083 -3.28054 0
M  V30 3231 N 314.835 0.952656 1.25548 0
M  V30 3232 C 316.112 0.523818 1.88456 0
M  V30 3233 C 316.492 -0.998871 1.85973 0
M  V30 3234 O 315.84 -1.86381 1.3219 0
M  V30 3235 C 316.05 1.0982 3.31271 0
M  V30 3236 C 317.398 1.17385 4.08051 0
M  V30 3237 O 318.422 1.04961 3.40384 0
M  V30 3238 O 317.281 1.36852 5.29088 0
M  V30 3239 H 314.375 0.172485 0.808813 0
M  V30 3240 H 316.921 1.04596 1.33633 0
M  V30 3241 H 315.693 2.1415 3.27499 0
M  V30 3242 H 315.316 0.559191 3.93648 0
M  V30 3243 N 316.313 -1.40141 0.720998 0
M  V30 3244 C 317.276 -2.29058 0.0805834 0
M  V30 3245 C 318.276 -1.45632 -0.681758 0
M  V30 3246 O 319.466 -1.6648 -0.512856 0
M  V30 3247 C 316.598 -3.28925 -0.895593 0
M  V30 3248 H 317.791 -2.87191 0.863793 0
M  V30 3249 H 315.344 -1.48553 0.485975 0
M  V30 3250 H 316.079 -2.75822 -1.70566 0
M  V30 3251 H 315.864 -3.90519 -0.351766 0
M  V30 3252 H 317.354 -3.95494 -1.34069 0
M  V30 3253 N 317.792 -0.46758 -1.50504 0
M  V30 3254 C 319.04 0.0884469 -2.01906 0
M  V30 3255 C 319.361 1.40532 -1.35188 0
M  V30 3256 O 318.631 1.89515 -0.496079 0
M  V30 3257 H 317.211 0.0356765 -0.746148 0
M  V30 3258 H 319.873 -0.6172 -1.84869 0
M  V30 3259 H 318.969 0.2425 -3.11156 0
M  V30 3260 N 319.27 1.56325 -0.20005 0
M  V30 3261 C 320.681 1.8408 0.31167 0
M  V30 3262 C 321.032 1.12087 1.61031 0
M  V30 3263 O 320.157 0.38332 2.12978 0
M  V30 3264 C 320.752 3.33932 0.57226 0
M  V30 3265 C 319.311 3.6208 1.02834 0
M  V30 3266 C 318.458 2.77186 0.079634 0
M  V30 3267 H 321.409 1.52939 -0.423729 0
M  V30 3268 H 321.43 3.52971 1.42096 0
M  V30 3269 H 320.942 3.86303 -0.37308 0
M  V30 3270 H 319.043 3.15147 1.98778 0
M  V30 3271 H 319.156 4.7023 0.917624 0
M  V30 3272 H 317.52 2.47951 0.582448 0
M  V30 3273 H 318.303 3.32347 -0.860238 0
M  V30 3274 N 320.748 -0.0735177 1.57428 0
M  V30 3275 C 321.678 -1.0879 2.06608 0
M  V30 3276 C 322.659 -1.40473 0.959237 0
M  V30 3277 O 323.844 -1.5013 1.23185 0
M  V30 3278 C 320.974 -2.40183 2.50857 0
M  V30 3279 C 319.928 -2.22858 3.65402 0
M  V30 3280 C 319.254 -3.59619 3.957 0
M  V30 3281 C 320.554 -1.65123 4.95511 0
M  V30 3282 H 322.248 -0.678673 2.91607 0
M  V30 3283 H 319.794 -0.325013 1.40284 0
M  V30 3284 H 321.747 -3.11437 2.83874 0
M  V30 3285 H 320.471 -2.83083 1.62885 0
M  V30 3286 H 319.13 -1.54045 3.32664 0
M  V30 3287 H 318.778 -4.00086 3.04861 0
M  V30 3288 H 318.478 -3.48866 4.72828 0
M  V30 3289 H 320.002 -4.32306 4.31212 0
M  V30 3290 H 321.416 -2.26241 5.26771 0
M  V30 3291 H 319.813 -1.65071 5.7695 0
M  V30 3292 H 320.883 -0.612559 4.81015 0
M  V30 3293 N 322.226 -1.5378 -0.344866 0
M  V30 3294 C 323.189 -1.80981 -1.40637 0
M  V30 3295 C 324.189 -0.680816 -1.45676 0
M  V30 3296 O 325.379 -0.949095 -1.46075 0
M  V30 3297 C 322.511 -1.95063 -2.79577 0
M  V30 3298 H 323.704 -2.75803 -1.17783 0
M  V30 3299 H 321.257 -1.45173 -0.579181 0
M  V30 3300 H 321.992 -1.02379 -3.07716 0
M  V30 3301 H 321.777 -2.77198 -2.77315 0
M  V30 3302 H 323.267 -2.17629 -3.56409 0
M  V30 3303 N 323.704 0.605807 -1.45491 0
M  V30 3304 C 324.667 1.69836 -1.5391 0
M  V30 3305 C 325.667 1.55261 -0.418424 0
M  V30 3306 O 326.857 1.60296 -0.681965 0
M  V30 3307 C 323.989 3.09117 -1.43734 0
M  V30 3308 H 325.182 1.63738 -2.51257 0
M  V30 3309 H 322.735 0.821689 -1.32959 0
M  V30 3310 H 323.47 3.20791 -0.475788 0
M  V30 3311 H 323.255 3.21104 -2.25021 0
M  V30 3312 H 324.745 3.88696 -1.52661 0
M  V30 3313 N 325.182 1.32811 0.848464 0
M  V30 3314 C 326.112 1.24882 1.97299 0
M  V30 3315 C 327.093 0.131357 1.69592 0
M  V30 3316 O 328.278 0.319553 1.91553 0
M  V30 3317 C 325.408 0.97746 3.33261 0
M  V30 3318 C 324.362 2.05682 3.75338 0
M  V30 3319 C 323.688 1.63777 5.09 0
M  V30 3320 C 324.988 3.47254 3.90144 0
M  V30 3321 H 326.682 2.18966 2.04191 0
M  V30 3322 H 324.228 1.05413 0.981029 0
M  V30 3323 H 326.181 0.908513 4.1149 0
M  V30 3324 H 324.905 0.000980011 3.266 0
M  V30 3325 H 323.564 2.11603 2.99366 0
M  V30 3326 H 323.212 0.648569 4.98801 0
M  V30 3327 H 322.912 2.36 5.38124 0
M  V30 3328 H 324.436 1.5833 5.89715 0
M  V30 3329 H 325.85 3.43888 4.58709 0
M  V30 3330 H 324.247 4.1788 4.30693 0
M  V30 3331 H 325.317 3.86462 2.92874 0
M  V30 3332 N 326.66 -1.06551 1.16123 0
M  V30 3333 C 328.076 -1.3142 0.905585 0
M  V30 3334 C 328.276 -1.96571 -0.442964 0
M  V30 3335 O 327.332 -2.23068 -1.18308 0
M  V30 3336 C 328.645 -2.19741 2.05267 0
M  V30 3337 C 330.193 -2.33165 2.08813 0
M  V30 3338 C 330.668 -3.24838 3.22868 0
M  V30 3339 N 332.159 -3.32421 3.22568 0
M  V30 3340 C 332.894 -4.0344 4.0746 0
M  V30 3341 N 332.39 -4.77003 5.02434 0
M  V30 3342 N 334.183 -3.99464 3.95456 0
M  V30 3343 H 326.334 -0.626548 2.02949 0
M  V30 3344 H 328.597 -0.338777 0.8854 0
M  V30 3345 H 328.303 -1.79142 3.02657 0
M  V30 3346 H 328.177 -3.20313 1.99198 0
M  V30 3347 H 330.564 -2.73013 1.12018 0
M  V30 3348 H 330.645 -1.3227 2.18948 0
M  V30 3349 H 330.289 -2.85708 4.19921 0
M  V30 3350 H 330.219 -4.25707 3.0997 0
M  V30 3351 H 332.71 -2.79994 2.53795 0
M  V30 3352 H 333.023 -5.28712 5.63634 0
M  V30 3353 H 331.368 -4.75992 5.06415 0
M  V30 3354 H 334.559 -3.4111 3.20564 0
M  V30 3355 H 334.732 -4.54544 4.61837 0
M  V30 3356 N 328.138 -0.959301 -1.25041 0
M  V30 3357 C 329.415 -0.533805 -1.88175 0
M  V30 3358 C 329.795 0.988994 -1.865 0
M  V30 3359 O 329.143 1.85677 -1.33177 0
M  V30 3360 C 329.353 -1.11575 -3.30684 0
M  V30 3361 C 330.701 -1.19548 -4.07423 0
M  V30 3362 O 331.725 -1.06765 -3.39823 0
M  V30 3363 O 330.584 -1.39656 -5.28354 0
M  V30 3364 H 327.678 -0.176772 -0.807887 0
M  V30 3365 H 330.224 -1.05303 -1.33076 0
M  V30 3366 H 328.996 -2.15884 -3.26358 0
M  V30 3367 H 328.619 -0.580059 -3.93346 0
M  V30 3368 N 329.616 1.39756 -0.72842 0
M  V30 3369 C 330.862 2.01425 -0.282761 0
M  V30 3370 C 331.217 1.56754 1.11561 0
M  V30 3371 O 330.51 0.783482 1.74849 0
M  V30 3372 C 330.704 3.56002 -0.315776 0
M  V30 3373 C 330.533 4.1568 -1.71582 0
M  V30 3374 C 329.303 4.48555 -2.32651 0
M  V30 3375 C 331.501 4.39667 -2.66829 0
M  V30 3376 N 329.483 4.93698 -3.64877 0
M  V30 3377 C 330.854 4.86942 -3.8378 0
M  V30 3378 C 332.909 4.21724 -2.64675 0
M  V30 3379 C 331.612 5.18158 -4.98904 0
M  V30 3380 C 333.638 4.54049 -3.78937 0
M  V30 3381 C 333 5.01525 -4.94623 0
M  V30 3382 H 329.099 0.76756 -0.149583 0
M  V30 3383 H 331.683 1.69784 -0.952976 0
M  V30 3384 H 329.854 3.87046 0.324057 0
M  V30 3385 H 331.586 4.0443 0.147808 0
M  V30 3386 H 328.341 4.36128 -1.84633 0
M  V30 3387 H 328.765 5.20635 -4.32744 0
M  V30 3388 H 333.407 3.84228 -1.76433 0
M  V30 3389 H 331.125 5.54562 -5.87781 0
M  V30 3390 H 334.711 4.41795 -3.78561 0
M  V30 3391 H 333.591 5.26065 -5.81572 0
M  V30 3392 N 331.094 0.475555 1.50254 0
M  V30 3393 C 332.024 -0.30611 2.31485 0
M  V30 3394 C 333.005 -0.986228 1.38591 0
M  V30 3395 O 334.19 -0.982541 1.67511 0
M  V30 3396 C 331.32 -1.38588 3.1845 0
M  V30 3397 C 330.274 -0.827115 4.19932 0
M  V30 3398 C 329.6 -2.00551 4.95665 0
M  V30 3399 C 330.9 0.16463 5.2204 0
M  V30 3400 H 332.594 0.371866 2.97082 0
M  V30 3401 H 330.14 0.180282 1.42867 0
M  V30 3402 H 332.093 -1.94023 3.74076 0
M  V30 3403 H 330.817 -2.09269 2.50747 0
M  V30 3404 H 329.476 -0.294702 3.65414 0
M  V30 3405 H 329.124 -2.6994 4.2443 0
M  V30 3406 H 328.824 -1.63784 5.64313 0
M  V30 3407 H 330.348 -2.56468 5.54127 0
M  V30 3408 H 331.762 -0.300699 5.72511 0
M  V30 3409 H 330.159 0.446813 5.98434 0
M  V30 3410 H 331.229 1.08905 4.72512 0
M  V30 3411 N 332.573 -1.56217 0.208337 0
M  V30 3412 C 333.984 -1.84243 -0.301904 0
M  V30 3413 C 334.335 -1.12939 -1.60434 0
M  V30 3414 O 333.46 -0.39461 -2.12772 0
M  V30 3415 C 334.055 -3.34231 -0.554543 0
M  V30 3416 C 332.614 -3.62621 -1.00912 0
M  V30 3417 C 331.761 -2.77224 -0.064933 0
M  V30 3418 H 334.712 -1.52712 0.431833 0
M  V30 3419 H 334.733 -3.5372 -1.40223 0
M  V30 3420 H 334.245 -3.86099 0.393561 0
M  V30 3421 H 332.346 -3.16197 -1.97104 0
M  V30 3422 H 332.459 -4.7071 -0.892674 0
M  V30 3423 H 330.823 -2.48256 -0.56929 0
M  V30 3424 H 331.606 -3.31887 0.877851 0
M  V30 3425 N 334.051 0.0651679 -1.57465 0
M  V30 3426 C 335.328 0.79644 -1.78651 0
M  V30 3427 C 335.708 1.95454 -0.797566 0
M  V30 3428 O 335.056 2.27882 0.167946 0
M  V30 3429 C 335.266 1.26322 -3.25337 0
M  V30 3430 C 336.614 1.6939 -3.89348 0
M  V30 3431 O 337.638 1.35872 -3.29268 0
M  V30 3432 O 336.497 2.31471 -4.95059 0
M  V30 3433 H 333.591 0.382157 -0.733407 0
M  V30 3434 H 336.137 0.0447311 -1.69641 0
M  V30 3435 H 334.909 0.434859 -3.88876 0
M  V30 3436 H 334.532 2.07604 -3.39096 0
M  V30 3437 N 335.529 1.53961 0.336706 0
M  V30 3438 C 336.945 1.44378 0.680241 0
M  V30 3439 C 337.145 0.606034 1.9217 0
M  V30 3440 O 336.201 0.099688 2.52303 0
M  V30 3441 C 337.514 2.87945 0.8665 0
M  V30 3442 C 339.062 2.97763 0.964682 0
M  V30 3443 C 339.537 4.42453 1.18321 0
M  V30 3444 N 341.028 4.46008 1.25025 0
M  V30 3445 C 341.763 5.55102 1.43697 0
M  V30 3446 N 341.259 6.7419 1.59498 0
M  V30 3447 N 343.052 5.42727 1.463 0
M  V30 3448 H 335.203 2.06918 -0.479455 0
M  V30 3449 H 337.466 0.935634 -0.152619 0
M  V30 3450 H 337.172 3.51691 0.0256937 0
M  V30 3451 H 337.046 3.33293 1.76623 0
M  V30 3452 H 339.433 2.34153 1.796 0
M  V30 3453 H 339.514 2.55766 0.041708 0
M  V30 3454 H 339.158 5.06645 0.356788 0
M  V30 3455 H 339.088 4.82048 2.11985 0
M  V30 3456 H 341.579 3.60196 1.14312 0
M  V30 3457 H 341.892 7.53095 1.734 0
M  V30 3458 H 340.237 6.77123 1.56621 0
M  V30 3459 H 343.428 4.48647 1.33543 0
M  V30 3460 H 343.601 6.27806 1.6051 0
M  V30 3461 N 337.007 -0.598083 1.45811 0
M  V30 3462 C 338.235 -1.38322 1.53866 0
M  V30 3463 C 338.65 -1.87992 0.174479 0
M  V30 3464 O 338.007 -1.62756 -0.825627 0
M  V30 3465 C 338.058 -2.58125 2.53089 0
M  V30 3466 O 337.779 -2.10516 3.84206 0
M  V30 3467 C 339.28 -3.50869 2.70935 0
M  V30 3468 H 336.5 -0.423093 0.520801 0
M  V30 3469 H 339.044 -0.728527 1.91083 0
M  V30 3470 H 337.199 -3.19615 2.18917 0
M  V30 3471 H 337.613 -2.88425 4.38077 0
M  V30 3472 H 339.087 -4.31451 3.44317 0
M  V30 3473 H 339.564 -4.01822 1.77301 0
M  V30 3474 H 340.17 -2.95225 3.06141 0
M  V30 3475 N 338.485 -1.33259 -0.841409 0
M  V30 3476 C 339.71 -1.2775 -1.63385 0
M  V30 3477 C 340.135 0.149188 -1.87507 0
M  V30 3478 O 339.493 1.10498 -1.43736 0
M  V30 3479 C 339.541 -2.05571 -2.96265 0
M  V30 3480 O 338.645 -1.41257 -3.87453 0
M  V30 3481 H 337.986 -0.439627 -0.497618 0
M  V30 3482 H 340.516 -1.75782 -1.04699 0
M  V30 3483 H 340.526 -2.16241 -3.45982 0
M  V30 3484 H 339.201 -3.09309 -2.7803 0
M  V30 3485 H 337.778 -1.39217 -3.45938 0
M  V30 3486 N 339.963 1.05934 -1.16686 0
M  V30 3487 C 341.379 1.30938 -0.912542 0
M  V30 3488 C 341.579 1.96803 0.432533 0
M  V30 3489 O 340.635 2.23693 1.17123 0
M  V30 3490 C 341.948 2.18649 -2.06429 0
M  V30 3491 C 343.496 2.32055 -2.10047 0
M  V30 3492 C 343.971 3.23122 -3.24586 0
M  V30 3493 N 345.462 3.30706 -3.24327 0
M  V30 3494 C 346.197 4.01273 -4.09594 0
M  V30 3495 N 345.693 4.74332 -5.04956 0
M  V30 3496 N 347.486 3.97361 -3.97569 0
M  V30 3497 H 339.637 0.615777 -2.03278 0
M  V30 3498 H 341.9 0.334077 -0.887185 0
M  V30 3499 H 341.606 1.77534 -3.03603 0
M  V30 3500 H 341.48 3.19252 -2.00894 0
M  V30 3501 H 343.867 2.72415 -1.13464 0
M  V30 3502 H 343.948 1.31107 -2.19647 0
M  V30 3503 H 343.592 2.83477 -4.2143 0
M  V30 3504 H 343.522 4.24057 -3.12223 0
M  V30 3505 H 346.013 2.78644 -2.55276 0
M  V30 3506 H 346.326 5.25716 -5.6643 0
M  V30 3507 H 344.671 4.733 -5.08933 0
M  V30 3508 H 347.862 3.39405 -3.22369 0
M  V30 3509 H 348.035 4.52089 -4.64241 0
M  V30 3510 N 341.441 0.965919 1.2453 0
M  V30 3511 C 342.666 0.643971 1.97149 0
M  V30 3512 C 343.091 -0.779487 1.71189 0
M  V30 3513 O 342.449 -1.5288 0.974553 0
M  V30 3514 C 342.497 0.922557 3.48599 0
M  V30 3515 O 341.601 0.00707672 4.12399 0
M  V30 3516 H 340.942 0.243647 0.617683 0
M  V30 3517 H 343.472 1.29558 1.58353 0
M  V30 3518 H 343.482 0.853373 3.98976 0
M  V30 3519 H 342.157 1.95996 3.66822 0
M  V30 3520 H 340.734 0.12943 3.72675 0
M  V30 3521 N 342.919 -1.39368 0.735821 0
M  V30 3522 C 344.165 -2.01272 0.293439 0
M  V30 3523 C 344.52 -1.57344 -1.10728 0
M  V30 3524 O 343.813 -0.792744 -1.74431 0
M  V30 3525 C 344.007 -3.5583 0.334651 0
M  V30 3526 C 343.836 -4.14764 1.73784 0
M  V30 3527 C 342.606 -4.47315 2.35026 0
M  V30 3528 C 344.804 -4.38246 2.69157 0
M  V30 3529 N 342.786 -4.91756 3.6749 0
M  V30 3530 C 344.157 -4.849 3.86357 0
M  V30 3531 C 346.212 -4.20315 2.66908 0
M  V30 3532 C 344.915 -5.15505 5.01645 0
M  V30 3533 C 346.941 -4.52033 3.8134 0
M  V30 3534 C 346.303 -4.98895 4.97276 0
M  V30 3535 H 342.402 -0.766756 0.153652 0
M  V30 3536 H 344.986 -1.69276 0.961967 0
M  V30 3537 H 343.157 -3.87212 -0.303527 0
M  V30 3538 H 344.889 -4.04503 -0.126358 0
M  V30 3539 H 341.644 -4.35143 1.86943 0
M  V30 3540 H 342.068 -5.18333 4.35499 0
M  V30 3541 H 346.71 -3.83287 1.78468 0
M  V30 3542 H 344.428 -5.51437 5.90713 0
M  V30 3543 H 348.014 -4.39781 3.80899 0
M  V30 3544 H 346.894 -5.22973 5.84353 0
M  V30 3545 N 344.397 -0.483516 -1.5 0
M  V30 3546 C 345.813 -0.138404 -1.58999 0
M  V30 3547 C 346.013 1.35597 -1.4905 0
M  V30 3548 O 345.069 2.13039 -1.35539 0
M  V30 3549 C 346.382 -0.699658 -2.92447 0
M  V30 3550 C 347.93 -0.664195 -3.05872 0
M  V30 3551 C 348.405 -1.20321 -4.41913 0
M  V30 3552 N 349.896 -1.16315 -4.48358 0
M  V30 3553 C 350.631 -1.55058 -5.52037 0
M  V30 3554 N 350.127 -2.01311 -6.62907 0
M  V30 3555 N 351.92 -1.46584 -5.42651 0
M  V30 3556 H 344.071 -1.45529 -1.5471 0
M  V30 3557 H 346.334 -0.60258 -0.731848 0
M  V30 3558 H 346.04 -1.747 -3.05242 0
M  V30 3559 H 345.914 -0.150194 -3.76901 0
M  V30 3560 H 348.301 0.374272 -2.92717 0
M  V30 3561 H 348.382 -1.25061 -2.23144 0
M  V30 3562 H 348.026 -2.24037 -4.55818 0
M  V30 3563 H 347.956 -0.592896 -5.23252 0
M  V30 3564 H 350.447 -0.824058 -3.68806 0
M  V30 3565 H 350.76 -2.2899 -7.38095 0
M  V30 3566 H 349.105 -2.05273 -6.63994 0
M  V30 3567 H 352.296 -1.10281 -4.54924 0
M  V30 3568 H 352.469 -1.77103 -6.23329 0
M  V30 3569 N 345.875 1.56104 -0.216619 0
M  V30 3570 C 347.123 1.97781 0.415593 0
M  V30 3571 C 347.444 1.10536 1.60645 0
M  V30 3572 O 346.714 0.181303 1.95059 0
M  V30 3573 H 345.294 0.730415 0.156534 0
M  V30 3574 H 347.956 1.92445 -0.308366 0
M  V30 3575 H 347.052 3.03072 0.74525 0
M  V30 3576 N 347.353 -0.0568162 1.57498 0
M  V30 3577 C 348.263 -1.08346 2.08083 0
M  V30 3578 C 349.279 -1.41439 1.01346 0
M  V30 3579 O 350.455 -1.51316 1.32912 0
M  V30 3580 C 347.52 -2.37352 2.52715 0
M  V30 3581 C 346.581 -2.11093 3.73816 0
M  V30 3582 C 345.814 -3.33949 4.1631 0
M  V30 3583 O 346.037 -4.43622 3.58547 0
M  V30 3584 O 344.971 -3.21279 5.08983 0
M  V30 3585 H 348.797 -0.683667 2.95905 0
M  V30 3586 H 346.382 -0.271965 1.46904 0
M  V30 3587 H 348.264 -3.13246 2.81877 0
M  V30 3588 H 346.939 -2.76681 1.68016 0
M  V30 3589 H 345.846 -1.32856 3.49714 0
M  V30 3590 H 347.179 -1.76637 4.59413 0
M  V30 3591 N 348.832 -1.54138 -0.328536 0
M  V30 3592 C 349.765 -1.78014 -1.4278 0
M  V30 3593 C 350.743 -0.629889 -1.49904 0
M  V30 3594 O 351.927 -0.866763 -1.6739 0
M  V30 3595 C 349.054 -1.89225 -2.80912 0
M  V30 3596 C 348.1 -3.11483 -2.91343 0
M  V30 3597 S 348.933 -4.70201 -2.56263 0
M  V30 3598 C 350.089 -4.84312 -3.96476 0
M  V30 3599 H 350.322 -2.70974 -1.22313 0
M  V30 3600 H 347.855 -1.45197 -0.525084 0
M  V30 3601 H 349.813 -1.9637 -3.60485 0
M  V30 3602 H 348.474 -0.972518 -2.98665 0
M  V30 3603 H 347.667 -3.16046 -3.92595 0
M  V30 3604 H 347.269 -3.02642 -2.19736 0
M  V30 3605 H 349.561 -4.66643 -4.91173 0
M  V30 3606 H 350.504 -5.86411 -3.96898 0
M  V30 3607 H 350.912 -4.12652 -3.85199 0
M  V30 3608 N 350.31 0.590341 -1.46126 0
M  V30 3609 C 351.273 1.68194 -1.55703 0
M  V30 3610 C 352.273 1.54808 -0.434868 0
M  V30 3611 O 353.463 1.59564 -0.698928 0
M  V30 3612 C 350.595 3.07575 -1.47005 0
M  V30 3613 H 351.788 1.61064 -2.52979 0
M  V30 3614 H 349.341 0.807541 -1.33823 0
M  V30 3615 H 350.076 3.20268 -0.509785 0
M  V30 3616 H 349.861 3.187 -2.28414 0
M  V30 3617 H 351.351 3.87055 -1.56776 0
M  V30 3618 N 351.788 1.33704 0.83433 0
M  V30 3619 C 353.204 1.13137 1.12571 0
M  V30 3620 C 353.404 -0.0747261 2.01361 0
M  V30 3621 O 352.46 -0.753647 2.4099 0
M  V30 3622 C 353.773 2.42105 1.78342 0
M  V30 3623 C 355.321 2.48054 1.90888 0
M  V30 3624 C 355.796 3.76995 2.60075 0
M  V30 3625 N 357.287 3.78092 2.67584 0
M  V30 3626 C 358.022 4.74574 3.21818 0
M  V30 3627 N 357.518 5.81434 3.76705 0
M  V30 3628 N 359.311 4.62044 3.20112 0
M  V30 3629 H 351.462 2.11 0.243489 0
M  V30 3630 H 353.725 0.932532 0.17055 0
M  V30 3631 H 353.431 3.30391 1.20561 0
M  V30 3632 H 353.305 2.54594 2.7832 0
M  V30 3633 H 355.692 1.60215 2.47821 0
M  V30 3634 H 355.773 2.39502 0.898459 0
M  V30 3635 H 355.417 4.65219 2.03799 0
M  V30 3636 H 355.347 3.82825 3.61597 0
M  V30 3637 H 357.838 3.00865 2.28667 0
M  V30 3638 H 358.151 6.51084 4.16305 0
M  V30 3639 H 356.496 5.85163 3.7498 0
M  V30 3640 H 359.687 3.77716 2.76493 0
M  V30 3641 H 359.86 5.37406 3.62076 0
M  V30 3642 N 353.266 -1.05314 1.17247 0
M  V30 3643 C 354.514 -1.77941 0.958194 0
M  V30 3644 C 354.835 -1.88089 -0.514556 0
M  V30 3645 O 354.105 -1.39676 -1.37359 0
M  V30 3646 H 352.685 -0.659116 0.351533 0
M  V30 3647 H 355.347 -1.27166 1.47699 0
M  V30 3648 H 354.443 -2.79663 1.38546 0
M  V30 3649 N 354.744 -0.972509 -1.24016 0
M  V30 3650 C 356.16 -0.679827 -1.44397 0
M  V30 3651 C 356.36 0.756716 -1.86751 0
M  V30 3652 O 355.416 1.53007 -2.00861 0
M  V30 3653 C 356.729 -1.66803 -2.50195 0
M  V30 3654 C 358.277 -1.68119 -2.64017 0
M  V30 3655 C 358.752 -2.65748 -3.73017 0
M  V30 3656 N 360.243 -2.64219 -3.8045 0
M  V30 3657 C 360.978 -3.36433 -4.64328 0
M  V30 3658 N 360.474 -4.1818 -5.52356 0
M  V30 3659 N 362.267 -3.25235 -4.58453 0
M  V30 3660 H 354.418 -1.90059 -0.948228 0
M  V30 3661 H 356.681 -0.818527 -0.478245 0
M  V30 3662 H 356.387 -2.69498 -2.25973 0
M  V30 3663 H 356.261 -1.4446 -3.48441 0
M  V30 3664 H 358.648 -0.661319 -2.87594 0
M  V30 3665 H 358.729 -1.94525 -1.66113 0
M  V30 3666 H 358.373 -3.67872 -3.50189 0
M  V30 3667 H 358.303 -2.36619 -4.70446 0
M  V30 3668 H 360.794 -2.04887 -3.17537 0
M  V30 3669 H 361.107 -4.70157 -6.13329 0
M  V30 3670 H 359.452 -4.22273 -5.52006 0
M  V30 3671 H 362.643 -2.60829 -3.88698 0
M  V30 3672 H 362.816 -3.81776 -5.23594 0
M  V30 3673 N 356.222 1.38976 -0.743202 0
M  V30 3674 C 357.638 1.53984 -0.419664 0
M  V30 3675 C 357.838 1.70837 1.0685 0
M  V30 3676 O 356.894 1.7135 1.8546 0
M  V30 3677 C 358.207 2.75287 -1.20985 0
M  V30 3678 C 359.755 2.89129 -1.19889 0
M  V30 3679 C 360.23 4.13381 -1.97181 0
M  V30 3680 N 361.721 4.20437 -1.94389 0
M  V30 3681 C 362.456 5.15547 -2.50996 0
M  V30 3682 N 361.952 6.16395 -3.16274 0
M  V30 3683 N 363.745 5.07822 -2.40984 0
M  V30 3684 H 355.896 1.26285 -1.7078 0
M  V30 3685 H 358.159 0.612689 -0.723406 0
M  V30 3686 H 357.865 2.69204 -2.26323 0
M  V30 3687 H 357.739 3.68184 -0.819759 0
M  V30 3688 H 360.126 2.947 -0.153606 0
M  V30 3689 H 360.207 1.97272 -1.62841 0
M  V30 3690 H 359.851 4.08572 -3.01714 0
M  V30 3691 H 359.781 5.04298 -1.51629 0
M  V30 3692 H 362.272 3.48205 -1.46839 0
M  V30 3693 H 362.585 6.85443 -3.56915 0
M  V30 3694 H 360.93 6.16758 -3.20367 0
M  V30 3695 H 364.121 4.27973 -1.89622 0
M  V30 3696 H 364.294 5.81767 -2.85397 0
M  V30 3697 N 357.7 0.491464 1.49741 0
M  V30 3698 C 358.949 -0.0582189 2.01616 0
M  V30 3699 C 359.262 -1.38927 1.3769 0
M  V30 3700 O 360.468 -2.02509 1.80838 0
M  V30 3701 C 358.924 -0.154235 3.59569 0
M  V30 3702 C 358.532 1.1696 4.32463 0
M  V30 3703 C 360.276 -0.65479 4.1942 0
M  V30 3704 C 358.183 1.03627 5.8225 0
M  V30 3705 H 357.113 -0.0255317 0.753568 0
M  V30 3706 H 359.764 0.629445 1.72367 0
M  V30 3707 H 358.146 -0.906138 3.85493 0
M  V30 3708 H 359.32 1.93405 4.18248 0
M  V30 3709 H 357.635 1.60285 3.84315 0
M  V30 3710 H 360.232 -0.771903 5.29099 0
M  V30 3711 H 360.575 -1.65127 3.8215 0
M  V30 3712 H 361.108 0.040304 3.9778 0
M  V30 3713 H 357.847 2.00672 6.24028 0
M  V30 3714 H 357.367 0.312546 5.98985 0
M  V30 3715 H 359.046 0.711114 6.4308 0
M  V30 3716 N 359.178 -1.55987 0.224894 0
M  V30 3717 C 360.455 -1.90232 -0.455083 0
M  V30 3718 C 360.835 -1.14269 -1.77499 0
M  V30 3719 O 360.183 -0.253079 -2.27094 0
M  V30 3720 C 360.393 -3.42993 -0.644758 0
M  V30 3721 C 361.741 -4.13821 -0.950669 0
M  V30 3722 O 362.765 -3.4861 -0.731423 0
M  V30 3723 O 361.624 -5.29128 -1.36695 0
M  V30 3724 H 358.718 -0.79108 -0.241084 0
M  V30 3725 H 361.264 -1.67581 0.267327 0
M  V30 3726 H 360.036 -3.90252 0.28613 0
M  V30 3727 H 359.659 -3.71434 -1.41853 0
M  V30 3728 N 360.656 0.0484629 -1.57525 0
M  V30 3729 C 361.905 0.742065 -1.87553 0
M  V30 3730 C 362.218 1.77545 -0.820802 0
M  V30 3731 O 363.424 2.52027 -1.00967 0
M  V30 3732 C 361.88 1.37081 -3.32771 0
M  V30 3733 C 361.488 0.374786 -4.4643 0
M  V30 3734 C 363.232 2.04542 -3.71972 0
M  V30 3735 C 361.139 1.01077 -5.82698 0
M  V30 3736 H 360.069 0.280903 -0.699721 0
M  V30 3737 H 362.72 -0.00411877 -1.835 0
M  V30 3738 H 361.102 2.16605 -3.31509 0
M  V30 3739 H 362.276 -0.392331 -4.59127 0
M  V30 3740 H 360.591 -0.196653 -4.15935 0
M  V30 3741 H 363.188 2.52943 -4.71088 0
M  V30 3742 H 363.531 2.85515 -3.02964 0
M  V30 3743 H 364.064 1.31819 -3.75325 0
M  V30 3744 H 360.803 0.240878 -6.55057 0
M  V30 3745 H 360.323 1.74819 -5.73758 0
M  V30 3746 H 362.002 1.52383 -6.28799 0
M  V30 3747 N 362.134 1.5431 0.320358 0
M  V30 3748 C 363.55 1.45091 0.664889 0
M  V30 3749 C 363.75 0.626382 1.91517 0
M  V30 3750 O 362.806 0.126443 2.52183 0
M  V30 3751 C 364.119 2.88848 0.83591 0
M  V30 3752 C 365.667 2.9877 0.933046 0
M  V30 3753 C 366.142 4.43683 1.13621 0
M  V30 3754 N 367.633 4.47309 1.20287 0
M  V30 3755 C 368.368 5.56595 1.37801 0
M  V30 3756 N 367.864 6.75844 1.52338 0
M  V30 3757 N 369.657 5.44248 1.40535 0
M  V30 3758 H 361.808 2.06398 -0.501374 0
M  V30 3759 H 364.071 0.933963 -0.162534 0
M  V30 3760 H 363.777 3.51698 -0.0116092 0
M  V30 3761 H 363.651 3.35148 1.73078 0
M  V30 3762 H 366.038 2.36045 1.77107 0
M  V30 3763 H 366.119 2.55796 0.0145782 0
M  V30 3764 H 365.763 5.06995 0.303032 0
M  V30 3765 H 365.693 4.84269 2.0686 0
M  V30 3766 H 368.184 3.61388 1.10485 0
M  V30 3767 H 368.497 7.54892 1.65403 0
M  V30 3768 H 366.842 6.78746 1.4943 0
M  V30 3769 H 370.033 4.50038 1.28777 0
M  V30 3770 H 370.206 6.29473 1.53842 0
M  V30 3771 N 363.613 -0.582584 1.46437 0
M  V30 3772 C 364.576 -1.67366 1.56592 0
M  V30 3773 C 365.576 -1.54575 0.443072 0
M  V30 3774 O 366.766 -1.59191 0.707381 0
M  V30 3775 C 363.898 -3.06791 1.48634 0
M  V30 3776 H 365.091 -1.5972 2.5383 0
M  V30 3777 H 362.644 -0.800432 1.34249 0
M  V30 3778 H 363.379 -3.19993 0.526763 0
M  V30 3779 H 363.164 -3.17484 2.30101 0
M  V30 3780 H 364.654 -3.86218 1.58826 0
M  V30 3781 N 365.091 -1.34144 -0.827227 0
M  V30 3782 C 366.041 -1.21923 -1.92663 0
M  V30 3783 C 367.025 -0.119294 -1.60457 0
M  V30 3784 O 368.217 -0.348539 -1.73534 0
M  V30 3785 C 365.346 -0.972492 -3.29238 0
M  V30 3786 C 364.432 -2.1154 -3.67576 0
M  V30 3787 N 364.823 -3.36627 -3.77512 0
M  V30 3788 C 363.121 -2.02468 -3.97395 0
M  V30 3789 C 363.822 -4.11658 -4.1099 0
M  V30 3790 N 362.798 -3.40207 -4.23981 0
M  V30 3791 H 366.6 -2.16721 -1.98517 0
M  V30 3792 H 364.114 -1.2632 -1.02064 0
M  V30 3793 H 366.111 -0.865847 -4.0781 0
M  V30 3794 H 364.771 -0.0331509 -3.24683 0
M  V30 3795 H 365.782 -3.71234 -3.61118 0
M  V30 3796 H 362.459 -1.16265 -4.00985 0
M  V30 3797 H 363.849 -5.19657 -4.25918 0
M  V30 3798 N 366.569 1.04691 -1.17803 0
M  V30 3799 C 367.985 1.29963 -0.926379 0
M  V30 3800 C 368.185 1.97251 0.411635 0
M  V30 3801 O 367.241 2.24922 1.14744 0
M  V30 3802 C 368.554 2.16447 -2.08737 0
M  V30 3803 C 370.102 2.29814 -2.12496 0
M  V30 3804 C 370.577 3.19661 -3.27995 0
M  V30 3805 N 372.068 3.27247 -3.27816 0
M  V30 3806 C 372.803 3.96906 -4.13827 0
M  V30 3807 N 372.299 4.6895 -5.09959 0
M  V30 3808 N 374.092 3.93122 -4.01761 0
M  V30 3809 H 366.243 0.594182 -2.0392 0
M  V30 3810 H 368.506 0.324649 -0.890678 0
M  V30 3811 H 368.212 1.74304 -3.05469 0
M  V30 3812 H 368.086 3.17103 -2.04268 0
M  V30 3813 H 370.473 2.71196 -1.16347 0
M  V30 3814 H 370.554 1.2877 -2.21025 0
M  V30 3815 H 370.198 2.78991 -4.24413 0
M  V30 3816 H 370.128 4.20722 -3.16703 0
M  V30 3817 H 372.619 2.75921 -2.58217 0
M  V30 3818 H 372.932 5.19679 -5.71974 0
M  V30 3819 H 371.277 4.67875 -5.13924 0
M  V30 3820 H 374.468 3.35967 -3.2595 0
M  V30 3821 H 374.641 4.47139 -4.6901 0
M  V30 3822 N 368.047 0.979072 1.23499 0
M  V30 3823 C 369.272 0.664845 1.96455 0
M  V30 3824 C 369.697 -0.761287 1.72006 0
M  V30 3825 O 369.055 -1.51837 0.990713 0
M  V30 3826 C 369.103 0.959479 3.47601 0
M  V30 3827 O 368.207 0.0508168 4.12369 0
M  V30 3828 H 367.548 0.250185 0.615064 0
M  V30 3829 H 370.078 1.31231 1.5697 0
M  V30 3830 H 370.088 0.895642 3.98048 0
M  V30 3831 H 368.763 1.99876 3.64723 0
M  V30 3832 H 367.34 0.16895 3.72517 0
M  V30 3833 N 369.525 -1.3858 0.750561 0
M  V30 3834 C 370.773 -1.99789 0.30477 0
M  V30 3835 C 371.094 -1.59874 -1.11649 0
M  V30 3836 O 370.364 -0.85417 -1.76297 0
M  V30 3837 H 368.944 -0.738902 0.109694 0
M  V30 3838 H 371.606 -1.69391 0.963983 0
M  V30 3839 H 370.702 -3.09952 0.365499 0
M  V30 3840 N 371.003 -0.499398 -1.49478 0
M  V30 3841 C 372.251 0.0455996 -2.02049 0
M  V30 3842 C 372.572 1.37633 -1.38138 0
M  V30 3843 O 371.842 1.8842 -0.536166 0
M  V30 3844 H 370.422 0.0198416 -0.746736 0
M  V30 3845 H 373.084 -0.656274 -1.83519 0
M  V30 3846 H 372.18 0.176445 -3.11601 0
M  V30 3847 N 372.481 1.55866 -0.233164 0
M  V30 3848 C 373.721 2.00506 0.397078 0
M  V30 3849 C 374.085 1.1176 1.56121 0
M  V30 3850 O 375.286 1.45796 2.25825 0
M  V30 3851 C 373.557 3.4811 0.809601 0
M  V30 3852 S 375.116 4.14765 1.43231 0
M  V30 3853 H 371.934 0.699828 0.125547 0
M  V30 3854 H 374.536 1.92429 -0.345177 0
M  V30 3855 H 373.24 4.10373 -0.0471601 0
M  V30 3856 H 372.771 3.60085 1.58438 0
M  V30 3857 H 374.786 4.14914 2.7214 0
M  V30 3858 N 373.959 -0.0401083 1.57549 0
M  V30 3859 C 375.205 -0.734211 1.89043 0
M  V30 3860 C 375.538 -1.75591 0.829535 0
M  V30 3861 O 374.813 -1.93868 -0.156706 0
M  V30 3862 C 375.096 -1.41374 3.31188 0
M  V30 3863 C 374.949 -0.406299 4.47961 0
M  V30 3864 C 376.268 -2.35061 3.72068 0
M  V30 3865 H 373.387 -0.265447 0.687537 0
M  V30 3866 H 376.029 0.00294087 1.9 0
M  V30 3867 H 374.179 -2.04206 3.30503 0
M  V30 3868 H 375.851 0.219255 4.60779 0
M  V30 3869 H 374.094 0.275485 4.32924 0
M  V30 3870 H 374.765 -0.920022 5.44279 0
M  V30 3871 H 377.241 -1.82282 3.74049 0
M  V30 3872 H 376.117 -2.79593 4.72355 0
M  V30 3873 H 376.378 -3.21258 3.0372 0
M  V30 3874 N 375.437 -1.54477 -0.31217 0
M  V30 3875 C 376.683 -1.73483 -1.0503 0
M  V30 3876 C 377.016 -0.513125 -1.87298 0
M  V30 3877 O 376.291 0.489864 -1.8823 0
M  V30 3878 C 376.574 -3.01723 -1.96558 0
M  V30 3879 C 376.427 -4.3417 -1.17545 0
M  V30 3880 C 377.746 -3.25772 -2.95907 0
M  V30 3881 H 374.865 -0.631222 -0.380432 0
M  V30 3882 H 377.507 -1.87184 -0.325932 0
M  V30 3883 H 375.657 -2.90174 -2.58324 0
M  V30 3884 H 377.329 -4.5762 -0.581513 0
M  V30 3885 H 375.572 -4.31159 -0.477925 0
M  V30 3886 H 376.243 -5.20143 -1.84811 0
M  V30 3887 H 378.719 -3.36857 -2.44267 0
M  V30 3888 H 377.595 -4.16838 -3.57123 0
M  V30 3889 H 377.856 -2.43537 -3.68974 0
M  V30 3890 N 376.915 0.57481 -1.46744 0
M  V30 3891 C 377.845 1.69337 -1.60771 0
M  V30 3892 C 378.826 1.63825 -0.457736 0
M  V30 3893 O 380.011 1.8172 -0.684947 0
M  V30 3894 C 377.141 3.0798 -1.60517 0
M  V30 3895 C 376.095 3.28327 -2.74564 0
M  V30 3896 C 375.421 4.67578 -2.59373 0
M  V30 3897 C 376.721 3.15398 -4.16319 0
M  V30 3898 H 378.415 1.57853 -2.54407 0
M  V30 3899 H 375.961 0.75799 -1.22436 0
M  V30 3900 H 377.914 3.86061 -1.68923 0
M  V30 3901 H 376.638 3.20381 -0.634305 0
M  V30 3902 H 375.297 2.52649 -2.65639 0
M  V30 3903 H 374.945 4.76755 -1.60353 0
M  V30 3904 H 374.645 4.82144 -3.35873 0
M  V30 3905 H 376.169 5.47817 -2.69682 0
M  V30 3906 H 377.583 3.83315 -4.26313 0
M  V30 3907 H 375.98 3.41482 -4.93468 0
M  V30 3908 H 377.05 2.12372 -4.3592 0
M  V30 3909 N 378.394 1.34581 0.820102 0
M  V30 3910 C 379.671 1.17675 1.56244 0
M  V30 3911 C 380.051 -0.249541 2.0962 0
M  V30 3912 O 379.399 -1.25125 1.91196 0
M  V30 3913 C 379.609 2.23364 2.6816 0
M  V30 3914 C 380.957 2.58485 3.36854 0
M  V30 3915 O 381.981 2.22175 2.78418 0
M  V30 3916 O 380.84 3.20868 4.42386 0
M  V30 3917 H 377.934 0.456333 0.689702 0
M  V30 3918 H 380.48 1.46222 0.861231 0
M  V30 3919 H 379.252 3.19087 2.26493 0
M  V30 3920 H 378.875 1.96009 3.45928 0
M  V30 3921 N 379.872 -1.04064 1.18357 0
M  V30 3922 C 380.802 -2.14001 0.934113 0
M  V30 3923 C 381.783 -1.69616 -0.128186 0
M  V30 3924 O 382.968 -1.94185 0.0244093 0
M  V30 3925 C 380.098 -3.44253 0.459066 0
M  V30 3926 C 379.052 -4.02261 1.46185 0
M  V30 3927 C 378.378 -5.27992 0.844322 0
M  V30 3928 C 379.678 -4.38432 2.83856 0
M  V30 3929 H 381.372 -2.35127 1.85352 0
M  V30 3930 H 378.918 -1.12998 0.892604 0
M  V30 3931 H 380.871 -4.20522 0.271907 0
M  V30 3932 H 379.595 -3.22813 -0.495912 0
M  V30 3933 H 378.254 -3.28074 1.63595 0
M  V30 3934 H 377.902 -5.02862 -0.117845 0
M  V30 3935 H 377.602 -5.67765 1.51384 0
M  V30 3936 H 379.126 -6.06938 0.667693 0
M  V30 3937 H 380.54 -5.05688 2.70098 0
M  V30 3938 H 378.937 -4.89254 3.47491 0
M  V30 3939 H 380.007 -3.4826 3.37406 0
M  V30 3940 N 381.35 -0.985608 -1.22978 0
M  V30 3941 C 382.26 -0.538548 -2.28335 0
M  V30 3942 C 383.276 0.409163 -1.69121 0
M  V30 3943 O 384.452 0.277797 -1.99475 0
M  V30 3944 C 381.517 0.146867 -3.46389 0
M  V30 3945 C 380.578 -0.842896 -4.20944 0
M  V30 3946 C 379.811 -0.190095 -5.33361 0
M  V30 3947 O 380.034 1.01767 -5.61248 0
M  V30 3948 O 378.968 -0.891289 -5.95264 0
M  V30 3949 H 382.794 -1.41487 -2.68729 0
M  V30 3950 H 380.379 -0.753495 -1.29007 0
M  V30 3951 H 382.261 0.531125 -4.1804 0
M  V30 3952 H 380.936 0.997871 -3.07935 0
M  V30 3953 H 379.843 -1.27795 -3.51595 0
M  V30 3954 H 381.176 -1.66287 -4.6326 0
M  V30 3955 N 382.828 1.3818 -0.7579 0
M  V30 3956 C 384.239 1.82726 -0.383134 0
M  V30 3957 C 384.59 1.63214 1.08884 0
M  V30 3958 O 383.715 1.13566 1.84205 0
M  V30 3959 C 384.31 3.31728 -0.688631 0
M  V30 3960 C 382.869 3.74606 -0.367091 0
M  V30 3961 C 382.016 2.60896 -0.939599 0
M  V30 3962 H 384.967 1.26847 -0.953699 0
M  V30 3963 H 384.988 3.80487 0.0316492 0
M  V30 3964 H 384.5 3.45898 -1.76001 0
M  V30 3965 H 382.601 3.66013 0.697532 0
M  V30 3966 H 382.714 4.71215 -0.865658 0
M  V30 3967 H 381.078 2.52075 -0.3647 0
M  V30 3968 H 381.861 2.77864 -2.0161 0
M  V30 3969 N 384.306 0.507319 1.49211 0
M  V30 3970 C 385.236 -0.256939 2.32082 0
M  V30 3971 C 386.217 -0.956609 1.40652 0
M  V30 3972 O 387.402 -0.946788 1.69557 0
M  V30 3973 C 384.532 -1.31802 3.21318 0
M  V30 3974 C 383.486 -0.737855 4.21592 0
M  V30 3975 C 382.812 -1.89992 4.99807 0
M  V30 3976 C 384.112 0.275325 5.21574 0
M  V30 3977 H 385.806 0.434798 2.96226 0
M  V30 3978 H 383.352 0.210546 1.42452 0
M  V30 3979 H 385.305 -1.86045 3.78107 0
M  V30 3980 H 384.029 -2.03903 2.5513 0
M  V30 3981 H 382.688 -0.217126 3.65956 0
M  V30 3982 H 382.336 -2.60877 4.30061 0
M  V30 3983 H 382.036 -1.51777 5.6766 0
M  V30 3984 H 383.56 -2.44657 5.59442 0
M  V30 3985 H 384.974 -0.179193 5.7302 0
M  V30 3986 H 383.371 0.573649 5.97352 0
M  V30 3987 H 384.441 1.18903 4.70096 0
M  V30 3988 N 385.784 -1.5574 0.241426 0
M  V30 3989 C 387.012 -2.03208 -0.389134 0
M  V30 3990 C 387.427 -1.12082 -1.51931 0
M  V30 3991 O 386.784 -0.134183 -1.82006 0
M  V30 3992 C 386.835 -3.50064 -0.902087 0
M  V30 3993 O 386.556 -4.37717 0.18305 0
M  V30 3994 C 388.057 -4.13268 -1.60389 0
M  V30 3995 H 385.277 -0.664509 -0.0931053 0
M  V30 3996 H 387.821 -2.0124 0.36369 0
M  V30 3997 H 385.976 -3.52583 -1.60511 0
M  V30 3998 H 386.39 -5.24097 -0.205579 0
M  V30 3999 H 387.864 -5.17733 -1.91458 0
M  V30 4000 H 388.341 -3.59434 -2.52397 0
M  V30 4001 H 388.947 -4.14655 -0.945576 0
M  V30 4002 N 387.262 0.0317525 -1.57568 0
M  V30 4003 C 388.225 1.01783 -2.0536 0
M  V30 4004 C 389.225 1.29203 -0.957253 0
M  V30 4005 O 390.415 1.24251 -1.22095 0
M  V30 4006 C 387.547 2.35137 -2.46827 0
M  V30 4007 H 388.74 0.605062 -2.93733 0
M  V30 4008 H 386.293 0.278514 -1.53799 0
M  V30 4009 H 387.028 2.81168 -1.61602 0
M  V30 4010 H 386.813 2.16566 -3.26866 0
M  V30 4011 H 388.303 3.05938 -2.84239 0
M  V30 4012 N 388.74 1.54641 0.303973 0
M  V30 4013 C 390.156 1.45788 0.649463 0
M  V30 4014 C 390.356 0.64666 1.90842 0
M  V30 4015 O 389.412 0.153183 2.52035 0
M  V30 4016 C 390.725 2.89718 0.805227 0
M  V30 4017 C 392.273 2.99742 0.901305 0
M  V30 4018 C 392.748 4.44863 1.08909 0
M  V30 4019 N 394.239 4.48559 1.15536 0
M  V30 4020 C 394.974 5.58026 1.3189 0
M  V30 4021 N 394.47 6.77422 1.45161 0
M  V30 4022 N 396.263 5.45708 1.34755 0
M  V30 4023 H 388.414 2.05854 -0.523237 0
M  V30 4024 H 390.677 0.932186 -0.172431 0
M  V30 4025 H 390.383 3.51666 -0.0489108 0
M  V30 4026 H 390.257 3.36964 1.69513 0
M  V30 4027 H 392.644 2.3791 1.74593 0
M  V30 4028 H 392.725 2.55797 -0.0125531 0
M  V30 4029 H 392.369 5.07288 0.249241 0
M  V30 4030 H 392.299 4.86436 2.01713 0
M  V30 4031 H 394.79 3.6254 1.06646 0
M  V30 4032 H 395.103 7.56604 1.57387 0
M  V30 4033 H 393.448 6.80292 1.42223 0
M  V30 4034 H 396.639 4.51378 1.23996 0
M  V30 4035 H 396.812 6.3107 1.47157 0
M  V30 4036 N 390.218 -0.567019 1.47046 0
M  V30 4037 C 391.629 -1.14916 1.47143 0
M  V30 4038 C 391.98 -1.94954 0.220767 0
M  V30 4039 O 391.105 -2.05602 -0.67505 0
M  V30 4040 C 391.7 -2.09069 2.666 0
M  V30 4041 C 390.259 -2.62575 2.69687 0
M  V30 4042 C 389.406 -1.38755 2.40088 0
M  V30 4043 H 392.357 -0.354126 1.54699 0
M  V30 4044 H 392.378 -2.92789 2.43011 0
M  V30 4045 H 391.89 -1.50789 3.57609 0
M  V30 4046 H 389.991 -3.24681 1.82792 0
M  V30 4047 H 390.104 -3.04239 3.70102 0
M  V30 4048 H 388.468 -1.69098 1.90468 0
M  V30 4049 H 389.251 -0.822822 3.33293 0
M  V30 4050 N 391.696 -1.35014 -0.812953 0
M  V30 4051 C 392.944 -1.27678 -1.56661 0
M  V30 4052 C 393.265 0.150359 -1.94419 0
M  V30 4053 O 392.535 1.08532 -1.63088 0
M  V30 4054 H 391.115 -0.469602 -0.580933 0
M  V30 4055 H 393.777 -1.69043 -0.970076 0
M  V30 4056 H 392.873 -1.88833 -2.48492 0
M  V30 4057 N 393.175 1.03435 -1.18907 0
M  V30 4058 C 394.085 2.15075 -0.937015 0
M  V30 4059 C 395.101 1.73706 0.101085 0
M  V30 4060 O 396.277 2.01232 -0.0822948 0
M  V30 4061 C 393.342 3.43458 -0.473057 0
M  V30 4062 C 392.403 3.99172 -1.57989 0
M  V30 4063 C 391.636 5.21427 -1.13797 0
M  V30 4064 O 391.859 5.704 0.000725941 0
M  V30 4065 O 390.793 5.69837 -1.9383 0
M  V30 4066 H 394.619 2.39198 -1.87131 0
M  V30 4067 H 392.204 1.13506 -0.971427 0
M  V30 4068 H 394.086 4.20811 -0.222702 0
M  V30 4069 H 392.761 3.20793 0.432869 0
M  V30 4070 H 391.668 3.23178 -1.88433 0
M  V30 4071 H 393.001 4.2619 -2.46217 0
M  V30 4072 N 394.653 0.992116 1.22453 0
M  V30 4073 C 395.616 0.546883 2.2258 0
M  V30 4074 C 396.616 -0.369829 1.56489 0
M  V30 4075 O 397.806 -0.161896 1.73446 0
M  V30 4076 C 394.938 -0.204659 3.40285 0
M  V30 4077 H 396.131 1.43234 2.63484 0
M  V30 4078 H 393.684 0.779239 1.3549 0
M  V30 4079 H 394.419 -1.10614 3.04853 0
M  V30 4080 H 394.204 0.45354 3.89468 0
M  V30 4081 H 395.694 -0.504358 4.14543 0
M  V30 4082 N 396.131 -1.37776 0.765217 0
M  V30 4083 C 397.542 -1.82521 0.392819 0
M  V30 4084 C 397.893 -1.63789 -1.08017 0
M  V30 4085 O 397.018 -1.14542 -1.83601 0
M  V30 4086 C 397.613 -3.31358 0.706214 0
M  V30 4087 C 396.172 -3.74406 0.386952 0
M  V30 4088 C 395.319 -2.60394 0.953422 0
M  V30 4089 H 398.27 -1.2634 0.960412 0
M  V30 4090 H 398.291 -3.80498 -0.0114706 0
M  V30 4091 H 397.803 -3.44959 1.77833 0
M  V30 4092 H 395.904 -3.66377 -0.678112 0
M  V30 4093 H 396.017 -4.70749 0.890636 0
M  V30 4094 H 394.381 -2.51878 0.378064 0
M  V30 4095 H 395.164 -2.76791 2.03081 0
M  V30 4096 N 397.609 -0.515225 -1.4894 0
M  V30 4097 C 398.855 0.0242508 -2.02785 0
M  V30 4098 C 399.188 1.35323 -1.39289 0
M  V30 4099 O 398.463 1.87041 -0.533469 0
M  V30 4100 C 398.746 0.16184 -3.59736 0
M  V30 4101 C 398.599 -1.19127 -4.33738 0
M  V30 4102 C 399.918 0.895719 -4.30888 0
M  V30 4103 H 397.037 0.00733914 -0.736963 0
M  V30 4104 H 399.679 -0.669395 -1.77818 0
M  V30 4105 H 397.829 0.752624 -3.8114 0
M  V30 4106 H 399.501 -1.82202 -4.23792 0
M  V30 4107 H 397.744 -1.77695 -3.95736 0
M  V30 4108 H 398.415 -1.04815 -5.41957 0
M  V30 4109 H 400.891 0.394528 -4.14225 0
M  V30 4110 H 399.767 0.960859 -5.40425 0
M  V30 4111 H 400.028 1.9427 -3.97129 0
M  V30 4112 N 399.087 1.5561 -0.249682 0
M  V30 4113 C 400.327 2.00916 0.37579 0
M  V30 4114 C 400.691 1.13409 1.54927 0
M  V30 4115 O 401.892 1.48183 2.24266 0
M  V30 4116 C 400.163 3.48949 0.772633 0
M  V30 4117 S 401.722 4.16261 1.38824 0
M  V30 4118 H 398.54 0.70112 0.118117 0
M  V30 4119 H 401.142 1.92052 -0.365567 0
M  V30 4120 H 399.846 4.103 -0.090683 0
M  V30 4121 H 399.377 3.61745 1.5461 0
M  V30 4122 H 401.392 4.17778 2.67724 0
M  V30 4123 N 400.565 -0.0233959 1.57583 0
M  V30 4124 C 401.79 -0.728376 1.94189 0
M  V30 4125 C 402.215 -1.67793 0.850119 0
M  V30 4126 O 401.573 -1.80262 -0.19371 0
M  V30 4127 C 401.621 -1.45669 3.29868 0
M  V30 4128 O 400.725 -2.57013 3.22518 0
M  V30 4129 H 400.066 -0.195493 0.63457 0
M  V30 4130 H 402.596 0.0228214 2.04587 0
M  V30 4131 H 402.606 -1.82535 3.6489 0
M  V30 4132 H 401.281 -0.760314 4.08891 0
M  V30 4133 H 399.858 -2.22648 2.99136 0
M  V30 4134 N 402.043 -1.548 -0.295768 0
M  V30 4135 C 402.973 -1.89115 -1.36959 0
M  V30 4136 C 403.954 -0.75059 -1.52644 0
M  V30 4137 O 405.139 -1.00678 -1.66065 0
M  V30 4138 C 402.269 -2.14307 -2.73295 0
M  V30 4139 C 401.223 -3.30151 -2.72368 0
M  V30 4140 C 400.549 -3.40772 -4.12042 0
M  V30 4141 C 401.849 -4.67126 -2.33646 0
M  V30 4142 H 403.543 -2.79053 -1.08488 0
M  V30 4143 H 401.089 -1.34266 -0.520443 0
M  V30 4144 H 403.042 -2.36898 -3.48507 0
M  V30 4145 H 401.766 -1.21145 -3.03301 0
M  V30 4146 H 400.425 -3.0749 -1.99613 0
M  V30 4147 H 400.073 -2.45117 -4.39234 0
M  V30 4148 H 399.773 -4.18645 -4.12322 0
M  V30 4149 H 401.297 -3.6563 -4.89027 0
M  V30 4150 H 402.711 -4.89414 -2.98575 0
M  V30 4151 H 401.108 -5.47751 -2.45129 0
M  V30 4152 H 402.178 -4.67489 -1.28772 0
M  V30 4153 N 403.521 0.559213 -1.47345 0
M  V30 4154 C 404.451 1.67622 -1.62558 0
M  V30 4155 C 405.432 1.63331 -0.475087 0
M  V30 4156 O 406.617 1.80983 -0.704182 0
M  V30 4157 C 403.747 3.0626 -1.63774 0
M  V30 4158 C 402.701 3.25397 -2.7803 0
M  V30 4159 C 402.027 4.64801 -2.64318 0
M  V30 4160 C 403.327 3.10965 -4.19641 0
M  V30 4161 H 405.021 1.55146 -2.56067 0
M  V30 4162 H 402.567 0.744961 -1.23233 0
M  V30 4163 H 404.52 3.84247 -1.73008 0
M  V30 4164 H 403.244 3.1969 -0.66825 0
M  V30 4165 H 401.903 2.49817 -2.68304 0
M  V30 4166 H 401.551 4.75028 -1.65401 0
M  V30 4167 H 401.251 4.78555 -3.40968 0
M  V30 4168 H 402.775 5.44926 -2.75478 0
M  V30 4169 H 404.189 3.78772 -4.30354 0
M  V30 4170 H 402.586 3.36229 -4.97062 0
M  V30 4171 H 403.656 2.07736 -4.38148 0
M  V30 4172 N 404.999 1.35443 0.805782 0
M  V30 4173 C 405.962 1.28301 1.89925 0
M  V30 4174 C 406.962 0.194285 1.59622 0
M  V30 4175 O 408.152 0.448036 1.6834 0
M  V30 4176 C 405.284 0.984997 3.2636 0
M  V30 4177 H 406.477 2.2553 1.97677 0
M  V30 4178 H 404.03 1.19979 1.00173 0
M  V30 4179 H 404.765 0.016603 3.24296 0
M  V30 4180 H 404.55 1.77269 3.4974 0
M  V30 4181 H 406.04 0.960651 4.064 0
M  V30 4182 N 406.477 -1.02803 1.19454 0
M  V30 4183 C 407.44 -2.09264 0.934955 0
M  V30 4184 C 408.44 -1.60576 -0.0849015 0
M  V30 4185 O 409.63 -1.73554 0.149933 0
M  V30 4186 C 406.762 -3.38482 0.40531 0
M  V30 4187 H 407.955 -2.33726 1.87916 0
M  V30 4188 H 405.508 -1.19426 1.00832 0
M  V30 4189 H 406.243 -3.19689 -0.544899 0
M  V30 4190 H 406.028 -3.75142 1.14065 0
M  V30 4191 H 407.518 -4.16894 0.242806 0
M  V30 4192 N 407.956 -0.998596 -1.21925 0
M  V30 4193 C 409.202 -0.678667 -1.91107 0
M  V30 4194 C 409.535 0.78791 -1.77498 0
M  V30 4195 O 408.81 1.57043 -1.1475 0
M  V30 4196 C 409.093 -1.09245 -3.43129 0
M  V30 4197 C 408.946 -2.61801 -3.6576 0
M  V30 4198 C 410.265 -0.649984 -4.35274 0
M  V30 4199 H 407.384 -0.248025 -0.694012 0
M  V30 4200 H 410.026 -1.24314 -1.43688 0
M  V30 4201 H 408.176 -0.612171 -3.83647 0
M  V30 4202 H 409.848 -3.17543 -3.34611 0
M  V30 4203 H 408.091 -3.03609 -3.09845 0
M  V30 4204 H 408.762 -2.85804 -4.7225 0
M  V30 4205 H 411.238 -1.0626 -4.02303 0
M  V30 4206 H 410.114 -0.967743 -5.40302 0
M  V30 4207 H 410.375 0.449139 -4.39813 0
M  V30 4208 N 409.434 1.37368 -0.772513 0
M  V30 4209 C 410.344 2.34053 -0.160081 0
M  V30 4210 C 411.36 1.60216 0.678728 0
M  V30 4211 O 412.536 1.92303 0.59847 0
M  V30 4212 C 409.601 3.3939 0.708182 0
M  V30 4213 C 408.662 4.29048 -0.147172 0
M  V30 4214 C 407.895 5.29354 0.679744 0
M  V30 4215 O 408.118 5.3723 1.91678 0
M  V30 4216 O 407.052 6.01835 0.0885444 0
M  V30 4217 H 410.878 2.88159 -0.959053 0
M  V30 4218 H 408.463 1.39543 -0.533685 0
M  V30 4219 H 410.345 4.03839 1.20384 0
M  V30 4220 H 409.02 2.8761 1.48533 0
M  V30 4221 H 407.927 3.67697 -0.689205 0
M  V30 4222 H 409.26 4.84134 -0.887423 0
M  V30 4223 N 410.912 0.523116 1.48665 0
M  V30 4224 C 411.875 -0.232592 2.28017 0
M  V30 4225 C 412.875 -0.874021 1.34972 0
M  V30 4226 O 414.065 -0.735132 1.57929 0
M  V30 4227 C 411.197 -1.33586 3.13636 0
M  V30 4228 H 412.39 0.464008 2.96289 0
M  V30 4229 H 409.943 0.278816 1.53793 0
M  V30 4230 H 410.678 -2.06593 2.4998 0
M  V30 4231 H 410.463 -0.881125 3.82071 0
M  V30 4232 H 411.953 -1.86759 3.73511 0
M  V30 4233 N 412.39 -1.55475 0.257931 0
M  V30 4234 C 413.667 -1.91155 -0.414629 0
M  V30 4235 C 414.047 -1.18008 -1.75035 0
M  V30 4236 O 413.395 -0.301193 -2.26506 0
M  V30 4237 C 413.605 -3.44283 -0.571859 0
M  V30 4238 C 414.953 -4.15744 -0.862678 0
M  V30 4239 O 415.977 -3.50083 -0.657314 0
M  V30 4240 O 414.836 -5.31909 -1.2544 0
M  V30 4241 H 411.93 -0.796016 -0.22425 0
M  V30 4242 H 414.476 -1.66976 0.302814 0
M  V30 4243 H 413.248 -3.89558 0.368844 0
M  V30 4244 H 412.871 -3.7436 -1.33943 0
M  V30 4245 N 413.868 0.0150385 -1.57593 0
M  V30 4246 C 415.114 0.704043 -1.90187 0
M  V30 4247 C 415.447 1.74249 -0.857366 0
M  V30 4248 O 414.722 1.94092 0.125843 0
M  V30 4249 C 415.005 1.36087 -3.33395 0
M  V30 4250 C 414.858 0.334981 -4.48551 0
M  V30 4251 C 416.177 2.29112 -3.7576 0
M  V30 4252 H 413.296 0.254475 -0.691673 0
M  V30 4253 H 415.938 -0.0331678 -1.89971 0
M  V30 4254 H 414.088 1.98922 -3.3371 0
M  V30 4255 H 415.76 -0.292534 -4.60372 0
M  V30 4256 H 414.003 -0.344325 -4.32431 0
M  V30 4257 H 414.674 0.833316 -5.45674 0
M  V30 4258 H 417.15 1.76308 -3.76902 0
M  V30 4259 H 416.026 2.72043 -4.76743 0
M  V30 4260 H 416.287 3.16385 -3.08793 0
M  V30 4261 N 415.346 1.54954 0.287554 0
M  V30 4262 C 416.309 1.86076 1.33823 0
M  V30 4263 C 417.309 0.734414 1.43049 0
M  V30 4264 O 418.499 1.00266 1.42452 0
M  V30 4265 C 415.631 2.05305 2.72144 0
M  V30 4266 H 416.824 2.79984 1.07465 0
M  V30 4267 H 414.377 1.47223 0.524902 0
M  V30 4268 H 415.112 1.1373 3.03704 0
M  V30 4269 H 414.897 2.873 2.66836 0
M  V30 4270 H 416.387 2.30706 3.48087 0
M  V30 4271 N 416.824 -0.551391 1.4764 0
M  V30 4272 C 418.07 -1.31024 1.54792 0
M  V30 4273 C 418.403 -1.9304 0.211967 0
M  V30 4274 O 417.678 -1.78175 -0.77999 0
M  V30 4275 C 417.961 -2.41593 2.67029 0
M  V30 4276 C 417.814 -1.84408 4.10261 0
M  V30 4277 C 419.133 -3.43488 2.75143 0
M  V30 4278 H 416.252 -0.475031 0.563485 0
M  V30 4279 H 418.894 -0.616454 1.79722 0
M  V30 4280 H 417.044 -3.00772 2.45904 0
M  V30 4281 H 418.716 -1.29445 4.42766 0
M  V30 4282 H 416.959 -1.15051 4.18265 0
M  V30 4283 H 417.63 -2.64367 4.84576 0
M  V30 4284 H 420.106 -2.94236 2.94218 0
M  V30 4285 H 418.982 -4.18274 3.55441 0
M  V30 4286 H 419.243 -4.02703 1.82435 0
M  V30 4287 N 418.302 -1.35869 -0.798587 0
M  V30 4288 C 419.551 -1.28921 -1.5512 0
M  V30 4289 C 419.864 0.13208 -1.95154 0
M  V30 4290 O 421.07 0.323879 -2.69561 0
M  V30 4291 C 419.526 -2.26141 -2.79979 0
M  V30 4292 C 419.134 -3.73658 -2.47151 0
M  V30 4293 C 420.878 -2.28152 -3.57976 0
M  V30 4294 C 418.785 -4.62679 -3.6835 0
M  V30 4295 H 417.715 -0.479031 -0.582276 0
M  V30 4296 H 420.366 -1.61179 -0.877125 0
M  V30 4297 H 418.748 -1.86865 -3.49138 0
M  V30 4298 H 419.922 -4.21616 -1.85947 0
M  V30 4299 H 418.237 -3.74333 -1.82383 0
M  V30 4300 H 420.834 -2.91875 -4.4801 0
M  V30 4301 H 421.177 -1.28748 -3.95891 0
M  V30 4302 H 421.71 -2.65998 -2.95787 0
M  V30 4303 H 418.449 -5.63111 -3.35538 0
M  V30 4304 H 417.969 -4.19442 -4.28752 0
M  V30 4305 H 419.648 -4.78498 -4.35487 0
M  V30 4306 N 419.78 1.02168 -1.19998 0
M  V30 4307 C 421.196 1.27969 -0.953737 0
M  V30 4308 C 421.396 1.98079 0.369703 0
M  V30 4309 O 420.452 2.27306 1.09947 0
M  V30 4310 C 421.765 2.11971 -2.13281 0
M  V30 4311 C 423.313 2.25255 -2.17323 0
M  V30 4312 C 423.788 3.12632 -3.34702 0
M  V30 4313 N 425.279 3.2022 -3.34684 0
M  V30 4314 C 426.014 3.88039 -4.22153 0
M  V30 4315 N 425.51 4.58027 -5.19791 0
M  V30 4316 N 427.303 3.84511 -4.10009 0
M  V30 4317 H 419.454 0.550794 -2.05134 0
M  V30 4318 H 421.717 0.305683 -0.897364 0
M  V30 4319 H 421.423 1.67785 -3.09097 0
M  V30 4320 H 421.297 3.12699 -2.10949 0
M  V30 4321 H 423.684 2.68667 -1.22073 0
M  V30 4322 H 423.765 1.24053 -2.23706 0
M  V30 4323 H 423.409 2.69926 -4.30235 0
M  V30 4324 H 423.339 4.13909 -3.25556 0
M  V30 4325 H 425.83 2.70382 -2.64012 0
M  V30 4326 H 426.143 5.07429 -5.82868 0
M  V30 4327 H 424.488 4.56869 -5.23733 0
M  V30 4328 H 427.679 3.28978 -3.33003 0
M  V30 4329 H 427.852 4.3709 -4.78389 0
M  V30 4330 N 421.258 1.00505 1.21394 0
M  V30 4331 C 422.19 0.52372 2.23136 0
M  V30 4332 C 423.203 -0.387714 1.58116 0
M  V30 4333 O 424.392 -0.187905 1.77508 0
M  V30 4334 C 421.492 -0.258885 3.3791 0
M  V30 4335 C 420.665 0.651634 4.32519 0
M  V30 4336 C 419.724 -0.0813705 5.26137 0
M  V30 4337 O 418.75 0.537295 5.66658 0
M  V30 4338 N 419.952 -1.35992 5.64346 0
M  V30 4339 H 422.717 1.39865 2.65062 0
M  V30 4340 H 420.278 0.881196 1.35818 0
M  V30 4341 H 422.27 -0.758208 3.97534 0
M  V30 4342 H 420.84 -1.035 2.94968 0
M  V30 4343 H 420.06 1.33145 3.71034 0
M  V30 4344 H 421.348 1.27129 4.92662 0
M  V30 4345 H 420.746 -1.88368 5.33417 0
M  V30 4346 H 419.303 -1.8042 6.26332 0
M  V30 4347 N 422.737 -1.36956 0.779787 0
M  V30 4348 C 423.7 -2.2851 0.177662 0
M  V30 4349 C 424.7 -1.48393 -0.619377 0
M  V30 4350 O 425.89 -1.68505 -0.441785 0
M  V30 4351 C 423.022 -3.32428 -0.755279 0
M  V30 4352 H 424.215 -2.83269 0.984823 0
M  V30 4353 H 421.768 -1.46358 0.548544 0
M  V30 4354 H 422.503 -2.82808 -1.58714 0
M  V30 4355 H 422.288 -3.91659 -0.185817 0
M  V30 4356 H 423.778 -4.00824 -1.17174 0
M  V30 4357 N 424.215 -0.530993 -1.48385 0
M  V30 4358 C 425.44 0.000729535 -2.074 0
M  V30 4359 C 425.865 1.27298 -1.3848 0
M  V30 4360 O 425.223 1.75599 -0.451081 0
M  V30 4361 C 425.271 0.206697 -3.60007 0
M  V30 4362 O 424.375 1.27514 -3.92191 0
M  V30 4363 H 423.716 -0.039583 -0.662819 0
M  V30 4364 H 426.246 -0.739194 -1.9078 0
M  V30 4365 H 426.256 0.42904 -4.05738 0
M  V30 4366 H 424.931 -0.722675 -4.09573 0
M  V30 4367 H 423.508 1.03537 -3.58238 0
M  V30 4368 N 425.693 1.55336 -0.266172 0
M  V30 4369 C 426.918 2.04258 0.359661 0
M  V30 4370 C 427.343 1.14359 1.49344 0
M  V30 4371 O 426.701 0.140369 1.80756 0
M  V30 4372 C 426.749 3.50997 0.826635 0
M  V30 4373 O 425.853 3.64204 1.93466 0
M  V30 4374 H 425.194 0.659668 0.075727 0
M  V30 4375 H 427.724 2.00694 -0.39786 0
M  V30 4376 H 427.734 3.9219 1.12477 0
M  V30 4377 H 426.409 4.159 -0.00293032 0
M  V30 4378 H 424.986 3.34913 1.63974 0
M  V30 4379 N 427.171 -0.0066808 1.57599 0
M  V30 4380 C 428.101 -0.999296 2.11036 0
M  V30 4381 C 429.082 -1.36278 1.01795 0
M  V30 4382 O 430.267 -1.4477 1.29442 0
M  V30 4383 C 427.397 -2.29328 2.60818 0
M  V30 4384 C 426.351 -2.07159 3.74525 0
M  V30 4385 C 425.677 -3.42512 4.10596 0
M  V30 4386 C 426.977 -1.43959 5.02069 0
M  V30 4387 H 428.671 -0.554382 2.94223 0
M  V30 4388 H 426.217 -0.265221 1.41536 0
M  V30 4389 H 428.17 -2.99117 2.96828 0
M  V30 4390 H 426.894 -2.7592 1.74745 0
M  V30 4391 H 425.553 -1.39797 3.38899 0
M  V30 4392 H 425.201 -3.86795 3.21556 0
M  V30 4393 H 424.901 -3.28498 4.87199 0
M  V30 4394 H 426.425 -4.13628 4.4916 0
M  V30 4395 H 427.839 -2.03696 5.35893 0
M  V30 4396 H 426.236 -1.40452 5.83432 0
M  V30 4397 H 427.306 -0.407992 4.83181 0
M  V30 4398 N 428.649 -1.55105 -0.279332 0
M  V30 4399 C 429.877 -1.7943 -1.03017 0
M  V30 4400 C 430.292 -0.564456 -1.80165 0
M  V30 4401 O 429.649 0.466326 -1.76442 0
M  V30 4402 C 429.7 -3.0155 -1.99374 0
M  V30 4403 O 429.421 -4.19784 -1.25352 0
M  V30 4404 C 430.922 -3.3843 -2.86321 0
M  V30 4405 H 428.142 -0.597882 -0.304594 0
M  V30 4406 H 430.686 -2.02105 -0.312035 0
M  V30 4407 H 428.841 -2.81019 -2.66659 0
M  V30 4408 H 429.255 -4.88781 -1.90246 0
M  V30 4409 H 430.729 -4.27066 -3.49741 0
M  V30 4410 H 431.206 -2.57549 -3.5576 0
M  V30 4411 H 431.812 -3.61197 -2.24536 0
M  V30 4412 N 430.127 0.543554 -1.4793 0
M  V30 4413 C 431.375 1.29752 -1.54948 0
M  V30 4414 C 431.696 1.93764 -0.219242 0
M  V30 4415 O 430.966 1.80639 0.75805 0
M  V30 4416 H 429.546 0.481874 -0.570795 0
M  V30 4417 H 432.208 0.633636 -1.84312 0
M  V30 4418 H 431.304 2.08392 -2.32334 0
M  V30 4419 N 431.605 1.3629 0.791371 0
M  V30 4420 C 432.535 1.33137 1.91825 0
M  V30 4421 C 433.516 0.203168 1.68882 0
M  V30 4422 O 434.701 0.400509 1.90025 0
M  V30 4423 C 431.831 1.11793 3.28816 0
M  V30 4424 C 430.785 2.21417 3.66277 0
M  V30 4425 C 430.111 1.85218 5.01596 0
M  V30 4426 C 431.411 3.63489 3.75064 0
M  V30 4427 H 433.105 2.2743 1.9472 0
M  V30 4428 H 430.651 1.09479 0.935437 0
M  V30 4429 H 432.604 1.08222 4.07266 0
M  V30 4430 H 431.328 0.139501 3.26302 0
M  V30 4431 H 429.987 2.2411 2.90121 0
M  V30 4432 H 429.635 0.859544 4.95602 0
M  V30 4433 H 429.335 2.58611 5.27631 0
M  V30 4434 H 430.859 1.832 5.82469 0
M  V30 4435 H 432.273 3.63034 4.43711 0
M  V30 4436 H 430.67 4.35771 4.12582 0
M  V30 4437 H 431.74 3.98536 2.76219 0
M  V30 4438 N 433.083 -1.0153 1.20538 0
M  V30 4439 C 434.046 -2.0826 0.957098 0
M  V30 4440 C 435.046 -1.60657 -0.0678655 0
M  V30 4441 O 436.236 -1.73385 0.168332 0
M  V30 4442 C 433.368 -3.38033 0.441188 0
M  V30 4443 H 434.561 -2.31719 1.90384 0
M  V30 4444 H 432.114 -1.1835 1.02093 0
M  V30 4445 H 432.849 -3.20249 -0.510961 0
M  V30 4446 H 432.634 -3.73911 1.18038 0
M  V30 4447 H 434.124 -4.16613 0.287009 0
M  V30 4448 N 434.561 -1.01147 -1.20859 0
M  V30 4449 C 435.493 -0.535546 -2.22855 0
M  V30 4450 C 436.506 0.379323 -1.58319 0
M  V30 4451 O 437.695 0.178489 -1.77605 0
M  V30 4452 C 434.795 0.240962 -3.38042 0
M  V30 4453 C 433.968 -0.674562 -4.32167 0
M  V30 4454 C 433.027 0.053467 -5.26173 0
M  V30 4455 O 432.053 -0.567339 -5.66366 0
M  V30 4456 N 433.255 1.32997 -5.65059 0
M  V30 4457 H 436.02 -1.41268 -2.64317 0
M  V30 4458 H 433.581 -0.888386 -1.35349 0
M  V30 4459 H 435.573 0.737115 -3.97931 0
M  V30 4460 H 434.143 1.01935 -2.95513 0
M  V30 4461 H 433.363 -1.35111 -3.70322 0
M  V30 4462 H 434.651 -1.2974 -4.91981 0
M  V30 4463 H 434.049 1.85536 -5.34409 0
M  V30 4464 H 432.606 1.77095 -6.2728 0
M  V30 4465 N 436.039 1.36541 -0.78704 0
M  V30 4466 C 437.002 2.28413 -0.189778 0
M  V30 4467 C 438.002 1.48719 0.611499 0
M  V30 4468 O 439.192 1.68737 0.432842 0
M  V30 4469 C 436.324 3.32824 0.737638 0
M  V30 4470 H 437.517 2.82743 -0.999831 0
M  V30 4471 H 435.07 1.46065 -0.556298 0
M  V30 4472 H 435.805 2.83646 1.57212 0
M  V30 4473 H 435.59 3.91752 0.165044 0
M  V30 4474 H 437.08 4.0144 1.15047 0
M  V30 4475 N 437.518 0.538854 1.48102 0
M  V30 4476 C 438.758 0.0101209 2.04397 0
M  V30 4477 C 439.122 -1.30741 1.40609 0
M  V30 4478 O 440.323 -1.92272 1.87843 0
M  V30 4479 C 438.594 -0.100232 3.57259 0
M  V30 4480 S 440.153 -0.577746 4.3498 0
M  V30 4481 H 436.971 0.0163171 0.710813 0
M  V30 4482 H 439.573 0.721429 1.81702 0
M  V30 4483 H 438.277 0.863351 4.01216 0
M  V30 4484 H 437.808 -0.835651 3.84422 0
M  V30 4485 H 439.823 -1.84073 4.60794 0
M  V30 4486 N 438.996 -1.55193 0.274407 0
M  V30 4487 C 439.959 -2.212 -0.600279 0
M  V30 4488 C 440.959 -1.18963 -1.08187 0
M  V30 4489 O 442.149 -1.43873 -0.982158 0
M  V30 4490 C 439.281 -2.87739 -1.82809 0
M  V30 4491 H 440.474 -2.9989 -0.0239682 0
M  V30 4492 H 438.027 -1.5628 0.0250192 0
M  V30 4493 H 438.762 -2.13058 -2.44493 0
M  V30 4494 H 438.547 -3.62658 -1.49069 0
M  V30 4495 H 440.037 -3.38171 -2.45011 0
M  V30 4496 N 440.474 -0.00167713 -1.576 0
M  V30 4497 C 441.89 0.354422 -1.55615 0
M  V30 4498 C 442.09 1.74679 -1.00447 0
M  V30 4499 O 441.146 2.4428 -0.639022 0
M  V30 4500 C 442.459 0.22812 -2.99833 0
M  V30 4501 C 444.007 0.302934 -3.11531 0
M  V30 4502 C 444.482 0.205737 -4.57538 0
M  V30 4503 N 445.973 0.263584 -4.62449 0
M  V30 4504 C 446.708 0.211742 -5.73009 0
M  V30 4505 N 446.204 0.110399 -6.92712 0
M  V30 4506 N 447.997 0.263729 -5.61481 0
M  V30 4507 H 440.148 -0.912498 -1.918 0
M  V30 4508 H 442.411 -0.349928 -0.881053 0
M  V30 4509 H 442.117 -0.729934 -3.44042 0
M  V30 4510 H 441.991 1.00951 -3.6344 0
M  V30 4511 H 444.378 1.25143 -2.67251 0
M  V30 4512 H 444.459 -0.508357 -2.50698 0
M  V30 4513 H 444.103 -0.739225 -5.02492 0
M  V30 4514 H 444.033 1.03554 -5.16318 0
M  V30 4515 H 446.524 0.343173 -3.76339 0
M  V30 4516 H 446.837 0.0767828 -7.72762 0
M  V30 4517 H 445.182 0.0760025 -6.94958 0
M  V30 4518 H 448.373 0.34111 -4.66855 0
M  V30 4519 H 448.546 0.219862 -6.47627 0
M  V30 4520 N 441.952 1.55251 0.271103 0
M  V30 4521 C 443.177 1.80306 1.02491 0
M  V30 4522 C 443.602 0.575457 1.79081 0
M  V30 4523 O 442.96 -0.474987 1.74967 0
M  V30 4524 C 443.008 3.02832 1.95768 0
M  V30 4525 O 442.112 2.78051 3.04568 0
M  V30 4526 H 441.453 0.595896 0.292923 0
M  V30 4527 H 443.983 2.02397 0.299436 0
M  V30 4528 H 443.993 3.31616 2.37686 0
M  V30 4529 H 442.668 3.9183 1.39434 0
M  V30 4530 H 441.245 2.60369 2.66951 0
M  V30 4531 N 443.43 -0.535701 1.48216 0
M  V30 4532 C 444.676 -1.29375 1.56173 0
M  V30 4533 C 445.009 -1.92804 0.232429 0
M  V30 4534 O 444.284 -1.78992 -0.761048 0
M  V30 4535 C 444.567 -2.38747 2.69577 0
M  V30 4536 C 444.42 -1.80046 4.12193 0
M  V30 4537 C 445.739 -3.40551 2.78771 0
M  V30 4538 H 442.858 -0.469027 0.568491 0
M  V30 4539 H 445.5 -0.597358 1.80365 0
M  V30 4540 H 443.65 -2.98147 2.4908 0
M  V30 4541 H 445.322 -1.24742 4.44114 0
M  V30 4542 H 443.565 -1.10609 4.19462 0
M  V30 4543 H 444.236 -2.59212 4.87353 0
M  V30 4544 H 446.712 -2.91099 2.97322 0
M  V30 4545 H 445.588 -4.1448 3.59857 0
M  V30 4546 H 445.849 -4.00746 1.86696 0
M  V30 4547 N 444.908 -1.36708 -0.784132 0
M  V30 4548 C 446.324 -1.17237 -1.08294 0
M  V30 4549 C 446.524 -5.93947e-05 -2.015 0
M  V30 4550 O 445.58 0.663686 -2.43622 0
M  V30 4551 C 446.893 -2.48557 -1.69233 0
M  V30 4552 C 448.441 -2.54968 -1.8155 0
M  V30 4553 C 448.916 -3.86388 -2.45904 0
M  V30 4554 N 450.407 -3.87762 -2.53367 0
M  V30 4555 C 451.142 -4.86191 -3.03983 0
M  V30 4556 N 450.638 -5.95015 -3.54866 0
M  V30 4557 N 452.431 -4.73606 -3.02743 0
M  V30 4558 H 444.582 -2.11758 -0.16501 0
M  V30 4559 H 446.845 -0.93822 -0.135822 0
M  V30 4560 H 446.551 -3.34638 -1.08215 0
M  V30 4561 H 446.425 -2.64748 -2.68679 0
M  V30 4562 H 448.812 -1.69302 -2.41704 0
M  V30 4563 H 448.893 -2.42672 -0.80895 0
M  V30 4564 H 448.537 -4.72462 -1.86392 0
M  V30 4565 H 448.467 -3.95982 -3.4714 0
M  V30 4566 H 450.958 -3.09145 -2.17343 0
M  V30 4567 H 451.271 -6.66086 -3.91854 0
M  V30 4568 H 449.616 -5.98676 -3.53003 0
M  V30 4569 H 452.807 -3.87717 -2.62284 0
M  V30 4570 H 452.98 -5.50473 -3.41881 0
M  V30 4571 N 446.386 1.0089 -1.21074 0
M  V30 4572 C 447.632 1.74866 -1.02712 0
M  V30 4573 C 447.965 1.89178 0.438787 0
M  V30 4574 O 447.24 1.42325 1.32567 0
M  V30 4575 C 447.523 3.16347 -1.72036 0
M  V30 4576 C 447.376 3.09782 -3.26121 0
M  V30 4577 C 448.695 4.15187 -1.45973 0
M  V30 4578 H 445.814 0.634736 -0.374539 0
M  V30 4579 H 448.456 1.17646 -1.49196 0
M  V30 4580 H 446.606 3.65201 -1.32517 0
M  V30 4581 H 448.278 2.68673 -3.74983 0
M  V30 4582 H 446.521 2.46982 -3.56626 0
M  V30 4583 H 447.192 4.09829 -3.6979 0
M  V30 4584 H 449.668 3.75022 -1.80272 0
M  V30 4585 H 448.544 5.12331 -1.96999 0
M  V30 4586 H 448.805 4.40386 -0.388924 0
M  V30 4587 N 447.864 1.01787 1.20321 0
M  V30 4588 C 448.794 0.609625 2.25401 0
M  V30 4589 C 449.775 -0.375951 1.65893 0
M  V30 4590 O 450.96 -0.261101 1.92437 0
M  V30 4591 C 448.09 -0.0515995 3.47262 0
M  V30 4592 C 447.044 0.855095 4.19371 0
M  V30 4593 C 446.37 0.0595757 5.34667 0
M  V30 4594 C 447.67 2.16374 4.75373 0
M  V30 4595 H 449.364 1.48803 2.59804 0
M  V30 4596 H 446.91 0.716934 1.24884 0
M  V30 4597 H 448.863 -0.348764 4.19954 0
M  V30 4598 H 447.587 -0.964726 3.12027 0
M  V30 4599 H 446.246 1.13628 3.48546 0
M  V30 4600 H 445.894 -0.85524 4.95676 0
M  V30 4601 H 445.594 0.663406 5.83843 0
M  V30 4602 H 447.118 -0.231105 6.10162 0
M  V30 4603 H 448.532 1.92885 5.39878 0
M  V30 4604 H 446.929 2.71853 5.34991 0
M  V30 4605 H 447.999 2.82589 3.94045 0
M  V30 4606 N 449.342 -1.36122 0.79427 0
M  V30 4607 C 450.57 -2.03362 0.380989 0
M  V30 4608 C 450.985 -1.59881 -1.00416 0
M  V30 4609 O 450.342 -0.790515 -1.6449 0
M  V30 4610 C 450.393 -3.58804 0.440649 0
M  V30 4611 O 450.114 -4.007 1.77118 0
M  V30 4612 C 451.615 -4.43296 0.0186117 0
M  V30 4613 H 448.835 -0.652526 0.156367 0
M  V30 4614 H 451.379 -1.73998 1.07447 0
M  V30 4615 H 449.534 -3.8686 -0.204458 0
M  V30 4616 H 449.948 -4.95309 1.72538 0
M  V30 4617 H 451.422 -5.51887 0.111488 0
M  V30 4618 H 451.899 -4.2684 -1.03461 0
M  V30 4619 H 452.505 -4.20512 0.636395 0
M  V30 4620 N 450.82 -0.546701 -1.47814 0
M  V30 4621 C 452.068 -0.0187037 -2.02091 0
M  V30 4622 C 452.389 1.33168 -1.42447 0
M  V30 4623 O 451.659 1.86619 -0.595839 0
M  V30 4624 H 450.239 -0.00392531 -0.74699 0
M  V30 4625 H 452.901 -0.714327 -1.81338 0
M  V30 4626 H 451.997 0.0772219 -3.12004 0
M  V30 4627 N 452.299 1.55045 -0.282633 0
M  V30 4628 C 453.546 1.9976 0.33199 0
M  V30 4629 C 453.874 1.17105 1.55295 0
M  V30 4630 O 453.129 0.230599 1.94337 0
M  V30 4631 C 453.428 3.49422 0.750938 0
M  V30 4632 C 453.094 4.4941 -0.366228 0
M  V30 4633 C 451.756 4.76471 -0.672964 0
M  V30 4634 C 454.108 5.09054 -1.11864 0
M  V30 4635 C 451.436 5.60442 -1.73556 0
M  V30 4636 C 453.788 5.9418 -2.17102 0
M  V30 4637 C 452.452 6.19558 -2.48402 0
M  V30 4638 H 451.722 0.730974 0.121484 0
M  V30 4639 H 454.369 1.8732 -0.39791 0
M  V30 4640 H 452.674 3.59377 1.56063 0
M  V30 4641 H 454.371 3.81432 1.23736 0
M  V30 4642 H 450.961 4.2844 -0.117041 0
M  V30 4643 H 455.145 4.88165 -0.894925 0
M  V30 4644 H 450.401 5.78349 -1.983 0
M  V30 4645 H 454.575 6.39427 -2.75873 0
M  V30 4646 H 452.202 6.84417 -3.30874 0
M  V30 4647 N 453.777 0.010035 1.57597 0
M  V30 4648 C 454.687 -0.994226 2.12491 0
M  V30 4649 C 455.703 -1.37013 1.07254 0
M  V30 4650 O 456.879 -1.45542 1.3921 0
M  V30 4651 C 453.944 -2.2642 2.62555 0
M  V30 4652 C 453.005 -1.95049 3.82432 0
M  V30 4653 C 452.238 -3.15991 4.30099 0
M  V30 4654 O 452.461 -4.28015 3.7704 0
M  V30 4655 O 451.395 -2.99403 5.22151 0
M  V30 4656 H 455.221 -0.557549 2.98538 0
M  V30 4657 H 452.806 -0.209413 1.47925 0
M  V30 4658 H 454.688 -3.01009 2.9491 0
M  V30 4659 H 453.363 -2.69306 1.796 0
M  V30 4660 H 452.27 -1.17904 3.55034 0
M  V30 4661 H 453.603 -1.56992 4.66491 0
M  V30 4662 N 455.255 -1.55392 -0.262866 0
M  V30 4663 C 456.671 -1.47459 -0.610582 0
M  V30 4664 C 456.871 -0.697031 -1.8906 0
M  V30 4665 O 455.927 -0.219952 -2.5154 0
M  V30 4666 C 457.24 -2.91751 -0.728131 0
M  V30 4667 C 458.788 -3.02027 -0.821517 0
M  V30 4668 C 459.263 -4.47594 -0.97076 0
M  V30 4669 N 460.754 -4.51465 -1.03603 0
M  V30 4670 C 461.489 -5.61326 -1.17049 0
M  V30 4671 N 460.985 -6.81032 -1.2715 0
M  V30 4672 N 462.778 -5.49089 -1.20239 0
M  V30 4673 H 454.929 -2.04395 0.577632 0
M  V30 4674 H 457.192 -0.927287 0.197086 0
M  V30 4675 H 456.898 -3.51413 0.142132 0
M  V30 4676 H 456.772 -3.4134 -1.6052 0
M  V30 4677 H 459.159 -2.42456 -1.68224 0
M  V30 4678 H 459.24 -2.55674 0.0803688 0
M  V30 4679 H 458.884 -5.07771 -0.114655 0
M  V30 4680 H 458.814 -4.91613 -1.88745 0
M  V30 4681 H 461.305 -3.6524 -0.96996 0
M  V30 4682 H 461.618 -7.60511 -1.37271 0
M  V30 4683 H 459.963 -6.83824 -1.24136 0
M  V30 4684 H 463.154 -4.54507 -1.11985 0
M  V30 4685 H 463.327 -6.34749 -1.30373 0
M  V30 4686 N 456.733 0.527833 -1.48498 0
M  V30 4687 C 457.696 1.61439 -1.62696 0
M  V30 4688 C 458.696 1.52824 -0.500136 0
M  V30 4689 O 459.886 1.56456 -0.765976 0
M  V30 4690 C 457.018 3.01063 -1.59918 0
M  V30 4691 H 458.211 1.50189 -2.59583 0
M  V30 4692 H 455.764 0.750055 -1.37127 0
M  V30 4693 H 456.499 3.17818 -0.645163 0
M  V30 4694 H 456.284 3.08725 -2.41726 0
M  V30 4695 H 457.774 3.80057 -1.73051 0
M  V30 4696 N 458.211 1.37122 0.776871 0
M  V30 4697 C 459.46 1.31373 1.53049 0
M  V30 4698 C 459.773 -0.101016 1.95339 0
M  V30 4699 O 460.979 -0.280953 2.70042 0
M  V30 4700 C 459.435 2.30567 2.76346 0
M  V30 4701 C 459.043 3.77543 2.41175 0
M  V30 4702 C 460.787 2.33818 3.54301 0
M  V30 4703 C 458.694 4.68481 3.60943 0
M  V30 4704 H 457.624 0.488234 0.574581 0
M  V30 4705 H 460.275 1.62554 0.851372 0
M  V30 4706 H 458.657 1.92396 3.46121 0
M  V30 4707 H 459.831 4.24521 1.79216 0
M  V30 4708 H 458.146 3.77187 1.76405 0
M  V30 4709 H 460.743 2.98965 4.4331 0
M  V30 4710 H 461.086 1.3503 3.93793 0
M  V30 4711 H 461.619 2.7067 2.91518 0
M  V30 4712 H 458.358 5.68378 3.26537 0
M  V30 4713 H 457.878 4.2621 4.22025 0
M  V30 4714 H 459.557 4.85366 4.27819 0
M  V30 4715 N 459.689 -1.00246 1.21608 0
M  V30 4716 C 460.935 -1.74319 1.03638 0
M  V30 4717 C 461.268 -1.89408 -0.428749 0
M  V30 4718 O 460.543 -1.43026 -1.3181 0
M  V30 4719 C 460.826 -3.15431 1.73711 0
M  V30 4720 C 460.679 -3.08049 3.27759 0
M  V30 4721 C 461.998 -4.14407 1.48173 0
M  V30 4722 H 459.117 -0.632741 0.377899 0
M  V30 4723 H 461.759 -1.16853 1.49818 0
M  V30 4724 H 459.909 -3.64493 1.34452 0
M  V30 4725 H 461.581 -2.66681 3.76403 0
M  V30 4726 H 459.824 -2.45088 3.57931 0
M  V30 4727 H 460.495 -4.07862 3.71958 0
M  V30 4728 H 462.971 -3.74061 1.82258 0
M  V30 4729 H 461.847 -5.11279 1.99713 0
M  V30 4730 H 462.108 -4.40174 0.412273 0
M  V30 4731 N 461.167 -1.02423 -1.1978 0
M  V30 4732 C 462.397 -0.736387 -1.93031 0
M  V30 4733 C 462.805 0.708023 -1.75453 0
M  V30 4734 O 462.148 1.4927 -1.07071 0
M  V30 4735 C 462.21 -1.00194 -3.45255 0
M  V30 4736 C 461.874 -2.43698 -3.86601 0
M  V30 4737 C 462.871 -3.41814 -3.91738 0
M  V30 4738 C 460.556 -2.77975 -4.18372 0
M  V30 4739 C 462.55 -4.72265 -4.28071 0
M  V30 4740 C 460.237 -4.08636 -4.54378 0
M  V30 4741 C 461.235 -5.05592 -4.59201 0
M  V30 4742 O 460.923 -6.33914 -4.94376 0
M  V30 4743 H 460.655 -0.269116 -0.620123 0
M  V30 4744 H 463.209 -1.37043 -1.52998 0
M  V30 4745 H 461.439 -0.310747 -3.85449 0
M  V30 4746 H 463.128 -0.704488 -3.9974 0
M  V30 4747 H 463.894 -3.16671 -3.67348 0
M  V30 4748 H 459.773 -2.0319 -4.13805 0
M  V30 4749 H 463.317 -5.4794 -4.3175 0
M  V30 4750 H 459.214 -4.33556 -4.78226 0
M  V30 4751 H 459.982 -6.38317 -5.12341 0
M  V30 4752 N 462.645 1.35699 -0.801477 0
M  V30 4753 C 464.061 1.52065 -0.484596 0
M  V30 4754 C 464.261 1.75215 0.995084 0
M  V30 4755 O 463.317 1.79061 1.78026 0
M  V30 4756 C 464.63 2.69908 -1.32552 0
M  V30 4757 C 466.178 2.83784 -1.32044 0
M  V30 4758 C 466.653 4.04646 -2.14536 0
M  V30 4759 N 468.144 4.11814 -2.12046 0
M  V30 4760 C 468.879 5.04437 -2.72636 0
M  V30 4761 N 468.375 6.02426 -3.42133 0
M  V30 4762 N 470.168 4.97144 -2.62305 0
M  V30 4763 H 462.319 1.18928 -1.75983 0
M  V30 4764 H 464.582 0.581455 -0.748741 0
M  V30 4765 H 464.288 2.59363 -2.37537 0
M  V30 4766 H 464.162 3.64376 -0.975181 0
M  V30 4767 H 466.549 2.93783 -0.27846 0
M  V30 4768 H 466.63 1.90188 -1.71062 0
M  V30 4769 H 466.274 3.95407 -3.18772 0
M  V30 4770 H 466.204 4.97413 -1.72882 0
M  V30 4771 H 468.695 3.41664 -1.61476 0
M  V30 4772 H 469.008 6.69688 -3.85666 0
M  V30 4773 H 467.353 6.02615 -3.46237 0
M  V30 4774 H 470.544 4.19546 -2.07603 0
M  V30 4775 H 470.717 5.69138 -3.09815 0
M  V30 4776 N 464.123 0.554532 1.47522 0
M  V30 4777 C 465.37 0.029479 2.02479 0
M  V30 4778 C 465.698 -1.31929 1.42916 0
M  V30 4779 O 464.953 -1.87112 0.573385 0
M  V30 4780 C 465.252 -0.115927 3.57212 0
M  V30 4781 C 464.918 1.16161 4.3568 0
M  V30 4782 C 463.58 1.51168 4.56839 0
M  V30 4783 C 465.932 2.0083 4.80954 0
M  V30 4784 C 463.26 2.70696 5.2052 0
M  V30 4785 C 465.612 3.19559 5.45953 0
M  V30 4786 C 464.276 3.54882 5.65345 0
M  V30 4787 H 463.546 0.0107871 0.740921 0
M  V30 4788 H 466.193 0.725506 1.77225 0
M  V30 4789 H 464.498 -0.894902 3.81443 0
M  V30 4790 H 466.195 -0.53749 3.97381 0
M  V30 4791 H 462.785 0.879026 4.19489 0
M  V30 4792 H 466.969 1.75093 4.64388 0
M  V30 4793 H 462.225 2.98236 5.33728 0
M  V30 4794 H 466.399 3.85456 5.79997 0
M  V30 4795 H 464.026 4.47596 6.1446 0
M  V30 4796 N 465.601 -1.54893 0.290851 0
M  V30 4797 C 466.878 -1.91991 -0.373989 0
M  V30 4798 C 467.258 -1.21694 -1.72493 0
M  V30 4799 O 466.606 -0.34917 -2.25816 0
M  V30 4800 C 466.816 -3.45419 -0.498703 0
M  V30 4801 C 468.164 -4.1748 -0.774298 0
M  V30 4802 O 469.188 -3.51398 -0.582908 0
M  V30 4803 O 468.047 -5.3445 -1.14129 0
M  V30 4804 H 465.141 -0.800593 -0.207315 0
M  V30 4805 H 467.687 -1.66297 0.338164 0
M  V30 4806 H 466.459 -3.88688 0.451392 0
M  V30 4807 H 466.082 -3.77117 -1.25972 0
M  V30 4808 N 467.08 -0.0183926 -1.57589 0
M  V30 4809 C 468.043 0.951986 -2.08494 0
M  V30 4810 C 469.043 1.26092 -0.997874 0
M  V30 4811 O 470.233 1.20304 -1.25987 0
M  V30 4812 C 467.365 2.27165 -2.54182 0
M  V30 4813 H 468.558 0.511307 -2.95509 0
M  V30 4814 H 466.111 0.229444 -1.54607 0
M  V30 4815 H 466.846 2.75884 -1.70465 0
M  V30 4816 H 466.631 2.06057 -3.33591 0
M  V30 4817 H 468.121 2.9674 -2.93828 0
M  V30 4818 N 468.558 1.5553 0.254621 0
M  V30 4819 C 469.835 1.6774 1.00611 0
M  V30 4820 C 470.215 0.555993 2.03647 0
M  V30 4821 O 469.563 -0.441583 2.24193 0
M  V30 4822 C 469.773 3.07725 1.6464 0
M  V30 4823 C 471.121 3.66074 2.15116 0
M  V30 4824 O 472.145 3.10476 1.74595 0
M  V30 4825 O 471.004 4.63526 2.89493 0
M  V30 4826 H 468.098 0.681958 0.467828 0
M  V30 4827 H 470.644 1.67863 0.24902 0
M  V30 4828 H 469.416 3.80792 0.900734 0
M  V30 4829 H 469.039 3.1158 2.46989 0
M  V30 4830 N 470.036 -0.519951 1.48776 0
M  V30 4831 C 471.282 -1.27456 1.58514 0
M  V30 4832 C 471.637 -1.90634 0.260057 0
M  V30 4833 O 470.93 -1.76815 -0.738036 0
M  V30 4834 C 471.124 -2.37864 2.6675 0
M  V30 4835 C 470.953 -1.85509 4.09654 0
M  V30 4836 C 469.723 -1.67661 4.76674 0
M  V30 4837 C 471.921 -1.37783 4.955 0
M  V30 4838 N 469.903 -1.10037 6.03958 0
M  V30 4839 C 471.274 -0.921714 6.1311 0
M  V30 4840 C 473.329 -1.26179 4.81646 0
M  V30 4841 C 472.032 -0.361057 7.18393 0
M  V30 4842 C 474.058 -0.715121 5.8706 0
M  V30 4843 C 473.42 -0.269132 7.03886 0
M  V30 4844 H 469.519 -0.457049 0.634531 0
M  V30 4845 H 472.103 -0.585073 1.85701 0
M  V30 4846 H 470.274 -3.04296 2.41367 0
M  V30 4847 H 472.006 -3.04901 2.66116 0
M  V30 4848 H 468.761 -1.91478 4.33166 0
M  V30 4849 H 469.185 -0.832067 6.71867 0
M  V30 4850 H 473.827 -1.59263 3.91657 0
M  V30 4851 H 471.545 -0.0179127 8.08098 0
M  V30 4852 H 475.131 -0.628376 5.78397 0
M  V30 4853 H 474.011 0.14729 7.84062 0
M  V30 4854 N 471.514 -1.37532 -0.769588 0
M  V30 4855 C 472.464 -1.29984 -1.87318 0
M  V30 4856 C 473.448 -0.187242 -1.59807 0
M  V30 4857 O 474.64 -0.421827 -1.719 0
M  V30 4858 C 471.769 -1.11126 -3.24817 0
M  V30 4859 C 470.855 -2.26939 -3.58273 0
M  V30 4860 N 471.246 -3.52336 -3.62895 0
M  V30 4861 C 469.544 -2.19141 -3.8845 0
M  V30 4862 C 470.245 -4.28719 -3.9316 0
M  V30 4863 N 469.221 -3.57884 -4.0917 0
M  V30 4864 H 473.023 -2.24946 -1.89147 0
M  V30 4865 H 470.537 -1.30535 -0.966143 0
M  V30 4866 H 472.534 -1.03803 -4.0377 0
M  V30 4867 H 471.194 -0.17083 -3.2425 0
M  V30 4868 H 472.205 -3.86216 -3.45048 0
M  V30 4869 H 468.882 -1.33167 -3.95693 0
M  V30 4870 H 470.272 -5.37254 -4.03494 0
M  V30 4871 N 472.992 0.995999 -1.22138 0
M  V30 4872 C 474.24 1.73167 -1.042 0
M  V30 4873 C 474.561 1.90329 0.42423 0
M  V30 4874 O 473.831 1.4607 1.30539 0
M  V30 4875 H 472.411 0.641593 -0.38258 0
M  V30 4876 H 475.073 1.19974 -1.53598 0
M  V30 4877 H 474.169 2.72734 -1.51731 0
M  V30 4878 N 474.47 1.03057 1.19235 0
M  V30 4879 C 475.38 0.622922 2.26179 0
M  V30 4880 C 476.396 -0.346113 1.70523 0
M  V30 4881 O 477.572 -0.203572 2.00369 0
M  V30 4882 C 474.637 -0.0182063 3.46695 0
M  V30 4883 C 473.698 0.998546 4.17526 0
M  V30 4884 C 472.931 0.387917 5.32288 0
M  V30 4885 O 473.154 -0.808668 5.64639 0
M  V30 4886 O 472.088 1.1116 5.91546 0
M  V30 4887 H 475.914 1.51363 2.63292 0
M  V30 4888 H 473.499 0.800856 1.26122 0
M  V30 4889 H 475.381 -0.375606 4.19723 0
M  V30 4890 H 474.056 -0.882895 3.11427 0
M  V30 4891 H 472.963 1.40756 3.4661 0
M  V30 4892 H 474.296 1.83366 4.56769 0
M  V30 4893 N 475.948 -1.35272 0.808662 0
M  V30 4894 C 477.194 -1.99003 0.390581 0
M  V30 4895 C 477.527 -1.63999 -1.0401 0
M  V30 4896 O 476.802 -0.904368 -1.72196 0
M  V30 4897 C 477.085 -3.55454 0.576566 0
M  V30 4898 C 476.938 -4.00249 2.05233 0
M  V30 4899 C 478.257 -4.401 0.00354277 0
M  V30 4900 H 475.376 -0.722917 0.143388 0
M  V30 4901 H 478.018 -1.6039 1.01858 0
M  V30 4902 H 476.168 -3.88477 0.0419766 0
M  V30 4903 H 477.84 -3.77626 2.64946 0
M  V30 4904 H 476.083 -3.51082 2.54801 0
M  V30 4905 H 476.754 -5.0911 2.13333 0
M  V30 4906 H 479.23 -4.13548 0.460117 0
M  V30 4907 H 478.106 -5.48656 0.163575 0
M  V30 4908 H 478.367 -4.28444 -1.09032 0
M  V30 4909 N 477.426 -0.562348 -1.47226 0
M  V30 4910 C 478.675 -0.038041 -2.01664 0
M  V30 4911 C 478.988 1.32199 -1.44162 0
M  V30 4912 O 480.194 1.9365 -1.90294 0
M  V30 4913 C 478.65 -0.0174958 -3.59896 0
M  V30 4914 C 478.258 -1.3746 -4.2639 0
M  V30 4915 C 480.002 0.453934 -4.22066 0
M  V30 4916 C 477.909 -1.31289 -5.76643 0
M  V30 4917 H 476.839 -0.0104511 -0.753928 0
M  V30 4918 H 479.49 -0.710966 -1.69167 0
M  V30 4919 H 477.872 0.721182 -3.89378 0
M  V30 4920 H 479.046 -2.1314 -4.08544 0
M  V30 4921 H 477.361 -1.78438 -3.7623 0
M  V30 4922 H 479.958 0.518584 -5.32179 0
M  V30 4923 H 480.301 1.46706 -3.89594 0
M  V30 4924 H 480.834 -0.230044 -3.97134 0
M  V30 4925 H 477.573 -2.30217 -6.13743 0
M  V30 4926 H 477.093 -0.597973 -5.96812 0
M  V30 4927 H 478.772 -1.01713 -6.38955 0
M  V30 4928 N 478.904 1.54736 -0.299062 0
M  V30 4929 C 479.867 2.22127 0.565012 0
M  V30 4930 C 480.867 1.20669 1.06281 0
M  V30 4931 O 482.057 1.45417 0.959145 0
M  V30 4932 C 479.189 2.90611 1.78208 0
M  V30 4933 H 480.382 2.99891 -0.0237448 0
M  V30 4934 H 477.935 1.5622 -0.0498788 0
M  V30 4935 H 478.67 2.16921 2.41072 0
M  V30 4936 H 478.455 3.64984 1.43281 0
M  V30 4937 H 479.945 3.42026 2.396 0
M  V30 4938 N 480.382 0.0267497 1.57577 0
M  V30 4939 C 481.292 -0.971633 2.13533 0
M  V30 4940 C 482.308 -1.35868 1.08701 0
M  V30 4941 O 483.484 -1.44058 1.40746 0
M  V30 4942 C 480.549 -2.23622 2.64941 0
M  V30 4943 C 479.61 -1.90982 3.8448 0
M  V30 4944 C 478.843 -3.11411 4.33427 0
M  V30 4945 O 479.066 -4.23992 3.81558 0
M  V30 4946 O 478 -2.93848 5.25297 0
M  V30 4947 H 481.826 -0.525853 2.99113 0
M  V30 4948 H 479.411 -0.193712 1.48139 0
M  V30 4949 H 481.293 -2.97864 2.98086 0
M  V30 4950 H 479.968 -2.67386 1.82446 0
M  V30 4951 H 478.875 -1.14132 3.56265 0
M  V30 4952 H 480.208 -1.52036 4.6813 0
M  V30 4953 N 481.861 -1.55662 -0.24637 0
M  V30 4954 C 483.138 -1.68272 -0.997198 0
M  V30 4955 C 483.518 -0.566785 -2.03349 0
M  V30 4956 O 482.866 0.429688 -2.24424 0
M  V30 4957 C 483.076 -3.08594 -1.63006 0
M  V30 4958 C 484.424 -3.6721 -2.13171 0
M  V30 4959 O 485.448 -3.11397 -1.72946 0
M  V30 4960 O 484.307 -4.65054 -2.87031 0
M  V30 4961 H 481.401 -0.684429 -0.464205 0
M  V30 4962 H 483.947 -1.67993 -0.240114 0
M  V30 4963 H 482.719 -3.81264 -0.880527 0
M  V30 4964 H 482.342 -3.12886 -2.45333 0
M  V30 4965 N 483.339 0.512053 -1.4905 0
M  V30 4966 C 484.286 1.6148 -1.64902 0
M  V30 4967 C 485.256 1.58687 -0.490673 0
M  V30 4968 O 486.441 1.76842 -0.71636 0
M  V30 4969 C 483.581 2.99676 -1.71139 0
M  V30 4970 C 482.694 3.12568 -2.98203 0
M  V30 4971 C 481.829 4.4143 -2.95487 0
M  V30 4972 C 480.868 4.47916 -4.17179 0
M  V30 4973 N 480.005 5.68191 -4.12437 0
M  V30 4974 H 484.845 1.47271 -2.59066 0
M  V30 4975 H 482.382 0.716713 -1.28459 0
M  V30 4976 H 484.34 3.79761 -1.72736 0
M  V30 4977 H 482.97 3.12614 -0.804508 0
M  V30 4978 H 482.022 2.25618 -3.06269 0
M  V30 4979 H 483.334 3.1322 -3.88194 0
M  V30 4980 H 482.488 5.29825 -2.95585 0
M  V30 4981 H 481.227 4.43326 -2.03256 0
M  V30 4982 H 480.232 3.57925 -4.17337 0
M  V30 4983 H 481.457 4.47744 -5.1059 0
M  V30 4984 H 479.403 5.7095 -3.23036 0
M  V30 4985 H 479.32 5.70413 -4.96151 0
M  V30 4986 H 480.588 6.58823 -4.16621 0
M  V30 4987 N 484.817 1.37938 0.762283 0
M  V30 4988 C 486.063 1.33866 1.52341 0
M  V30 4989 C 486.396 -0.0738961 1.94059 0
M  V30 4990 O 485.671 -1.03326 1.64785 0
M  V30 4991 C 485.954 2.28644 2.78197 0
M  V30 4992 C 485.807 3.78722 2.42672 0
M  V30 4993 C 487.126 2.21702 3.80179 0
M  V30 4994 H 484.245 0.487593 0.55265 0
M  V30 4995 H 486.887 1.68717 0.873767 0
M  V30 4996 H 485.037 1.99055 3.33631 0
M  V30 4997 H 486.709 4.18948 1.93081 0
M  V30 4998 H 484.952 3.96827 1.75244 0
M  V30 4999 H 485.623 4.40486 3.3268 0
M  V30 5000 H 488.099 2.47805 3.34263 0
M  V30 5001 H 486.975 2.90143 4.65949 0
M  V30 5002 H 487.236 1.21301 4.25133 0
M  V30 5003 N 486.295 -0.989507 1.22664 0
M  V30 5004 C 487.205 -2.11449 1.01619 0
M  V30 5005 C 488.221 -1.73962 -0.036545 0
M  V30 5006 O 489.397 -2.00788 0.156924 0
M  V30 5007 C 486.462 -3.41465 0.600204 0
M  V30 5008 C 485.523 -3.93033 1.72695 0
M  V30 5009 C 484.756 -5.16844 1.33071 0
M  V30 5010 O 484.979 -5.7001 0.210975 0
M  V30 5011 O 483.913 -5.6225 2.14845 0
M  V30 5012 H 487.739 -2.32088 1.9588 0
M  V30 5013 H 485.324 -1.09823 1.01289 0
M  V30 5014 H 487.206 -4.19695 0.37873 0
M  V30 5015 H 485.881 -3.22178 -0.313511 0
M  V30 5016 H 484.788 -3.15961 2.00298 0
M  V30 5017 H 486.121 -4.16758 2.61865 0
M  V30 5018 N 487.773 -1.03688 -1.18687 0
M  V30 5019 C 489.05 -0.652397 -1.84399 0
M  V30 5020 C 489.43 0.868386 -1.92412 0
M  V30 5021 O 488.778 1.76832 -1.44716 0
M  V30 5022 C 488.988 -1.3238 -3.22919 0
M  V30 5023 C 490.336 -1.45216 -3.98996 0
M  V30 5024 O 491.36 -1.2816 -3.32345 0
M  V30 5025 O 490.219 -1.72975 -5.18403 0
M  V30 5026 H 487.313 -0.227793 -0.795009 0
M  V30 5027 H 489.859 -1.13553 -1.2611 0
M  V30 5028 H 488.631 -2.36202 -3.11968 0
M  V30 5029 H 488.254 -0.829039 -3.88861 0
M  V30 5030 N 489.251 1.34841 -0.815825 0
M  V30 5031 C 490.497 1.99219 -0.410288 0
M  V30 5032 C 490.852 1.63532 1.01366 0
M  V30 5033 O 490.145 0.893093 1.69512 0
M  V30 5034 C 490.339 3.53273 -0.541541 0
M  V30 5035 C 490.168 4.03927 -1.9767 0
M  V30 5036 C 488.938 4.32852 -2.60706 0
M  V30 5037 C 491.136 4.21808 -2.9425 0
M  V30 5038 N 489.118 4.69494 -3.95536 0
M  V30 5039 C 490.489 4.6155 -4.13971 0
M  V30 5040 C 492.544 4.04038 -2.9096 0
M  V30 5041 C 491.247 4.85381 -5.30847 0
M  V30 5042 C 493.273 4.29031 -4.07046 0
M  V30 5043 C 492.635 4.69054 -5.25517 0
M  V30 5044 H 488.734 0.756494 -0.198094 0
M  V30 5045 H 491.318 1.63379 -1.05902 0
M  V30 5046 H 489.489 3.88323 0.0772544 0
M  V30 5047 H 491.221 4.04551 -0.109694 0
M  V30 5048 H 487.976 4.23503 -2.11995 0
M  V30 5049 H 488.4 4.92061 -4.64979 0
M  V30 5050 H 493.042 3.7223 -2.00512 0
M  V30 5051 H 490.76 5.16059 -6.21859 0
M  V30 5052 H 494.346 4.16826 -4.05891 0
M  V30 5053 H 493.226 4.88014 -6.1385 0
M  V30 5054 N 490.729 0.570148 1.46925 0
M  V30 5055 C 492.14 0.1402 1.86173 0
M  V30 5056 C 492.491 -1.29347 1.47526 0
M  V30 5057 O 491.616 -1.97508 0.884292 0
M  V30 5058 C 492.211 0.247661 3.37894 0
M  V30 5059 C 490.77 -0.127332 3.76185 0
M  V30 5060 C 489.917 0.589349 2.70965 0
M  V30 5061 H 492.868 0.779117 1.38259 0
M  V30 5062 H 492.889 -0.530341 3.76786 0
M  V30 5063 H 492.401 1.29121 3.65991 0
M  V30 5064 H 490.502 -1.17149 3.53704 0
M  V30 5065 H 490.615 0.240238 4.78497 0
M  V30 5066 H 488.979 0.0309824 2.54681 0
M  V30 5067 H 489.762 1.6343 3.01903 0
M  V30 5068 N 492.207 -1.54576 0.307264 0
M  V30 5069 C 493.139 -2.21212 -0.599807 0
M  V30 5070 C 494.152 -1.20685 -1.09266 0
M  V30 5071 O 495.341 -1.47244 -1.00903 0
M  V30 5072 C 492.441 -2.84994 -1.83389 0
M  V30 5073 C 491.614 -4.11511 -1.48248 0
M  V30 5074 C 490.673 -4.59038 -2.57237 0
M  V30 5075 O 489.699 -5.24095 -2.22065 0
M  V30 5076 N 490.901 -4.31884 -3.87887 0
M  V30 5077 H 493.666 -2.99686 -0.0293075 0
M  V30 5078 H 491.227 -1.61379 0.129738 0
M  V30 5079 H 493.219 -3.1372 -2.5566 0
M  V30 5080 H 491.789 -2.10324 -2.31263 0
M  V30 5081 H 491.009 -3.89728 -0.592122 0
M  V30 5082 H 492.297 -4.93879 -1.22316 0
M  V30 5083 H 491.695 -3.79778 -4.19268 0
M  V30 5084 H 490.252 -4.65304 -4.56438 0
M  V30 5085 N 493.685 -0.035106 -1.57561 0
M  V30 5086 C 494.91 0.655802 -1.96759 0
M  V30 5087 C 495.335 1.64523 -0.911809 0
M  V30 5088 O 494.693 1.80857 0.126673 0
M  V30 5089 C 494.741 1.33326 -3.35047 0
M  V30 5090 O 493.845 2.44866 -3.31835 0
M  V30 5091 H 493.186 0.171807 -0.641388 0
M  V30 5092 H 495.716 -0.0987369 -2.04362 0
M  V30 5093 H 495.726 1.68867 -3.71413 0
M  V30 5094 H 494.401 0.608033 -4.11431 0
M  V30 5095 H 492.978 2.11392 -3.07193 0
M  V30 5096 N 495.163 1.55791 0.238111 0
M  V30 5097 C 496.41 1.78033 0.964907 0
M  V30 5098 C 496.738 0.600984 1.84982 0
M  V30 5099 O 495.993 -0.41536 1.91241 0
M  V30 5100 C 496.292 3.05869 1.84875 0
M  V30 5101 C 495.958 4.36808 1.11846 0
M  V30 5102 C 494.62 4.72388 0.916662 0
M  V30 5103 C 496.972 5.17717 0.60151 0
M  V30 5104 C 494.3 5.86406 0.185756 0
M  V30 5105 C 496.652 6.32494 -0.115972 0
M  V30 5106 C 495.316 6.66688 -0.329168 0
M  V30 5107 H 494.586 0.651469 0.353085 0
M  V30 5108 H 497.233 1.90061 0.234318 0
M  V30 5109 H 495.538 2.88891 2.64668 0
M  V30 5110 H 497.235 3.20278 2.41294 0
M  V30 5111 H 493.825 4.08862 1.28569 0
M  V30 5112 H 498.009 4.90678 0.744932 0
M  V30 5113 H 493.265 6.11399 0.0101886 0
M  V30 5114 H 497.439 6.94425 -0.524127 0
M  V30 5115 H 495.066 7.54884 -0.897474 0
M  V30 5116 N 496.642 -0.504142 1.49319 0
M  V30 5117 C 497.605 -1.5883 1.65244 0
M  V30 5118 C 498.605 -1.52009 0.524386 0
M  V30 5119 O 499.795 -1.55218 0.79077 0
M  V30 5120 C 496.927 -2.98481 1.64687 0
M  V30 5121 H 498.12 -1.4604 2.61939 0
M  V30 5122 H 495.673 -0.728144 1.38303 0
M  V30 5123 H 496.408 -3.16751 0.695644 0
M  V30 5124 H 496.193 -3.0484 2.46607 0
M  V30 5125 H 497.683 -3.77256 1.79075 0
M  V30 5126 N 498.12 -1.38341 -0.754957 0
M  V30 5127 C 499.368 -1.34208 -1.51105 0
M  V30 5128 C 499.689 0.0677634 -1.94882 0
M  V30 5129 O 498.959 1.01517 -1.67544 0
M  V30 5130 H 497.539 -0.493819 -0.560493 0
M  V30 5131 H 500.201 -1.73005 -0.897507 0
M  V30 5132 H 499.297 -1.99203 -2.4026 0
M  V30 5133 N 499.598 0.982988 -1.23187 0
M  V30 5134 C 500.528 2.09301 -1.03515 0
M  V30 5135 C 501.509 1.70035 0.0471136 0
M  V30 5136 O 502.694 1.93847 -0.117029 0
M  V30 5137 C 499.824 3.4167 -0.622791 0
M  V30 5138 C 498.778 3.94828 -1.65211 0
M  V30 5139 C 498.104 5.23362 -1.09527 0
M  V30 5140 C 499.404 4.2439 -3.04451 0
M  V30 5141 H 501.098 2.26016 -1.96359 0
M  V30 5142 H 498.644 1.08611 -0.945501 0
M  V30 5143 H 500.597 4.18746 -0.472233 0
M  V30 5144 H 499.321 3.24811 0.341329 0
M  V30 5145 H 497.98 3.19895 -1.79061 0
M  V30 5146 H 497.628 5.02852 -0.122211 0
M  V30 5147 H 497.328 5.59895 -1.783 0
M  V30 5148 H 498.852 6.03062 -0.956511 0
M  V30 5149 H 500.266 4.92225 -2.93917 0
M  V30 5150 H 498.663 4.72118 -3.70438 0
M  V30 5151 H 499.733 3.31765 -3.53638 0
M  V30 5152 N 501.076 1.04316 1.18135 0
M  V30 5153 C 502.026 0.606731 2.19779 0
M  V30 5154 C 503.01 -0.352144 1.56999 0
M  V30 5155 O 504.202 -0.170795 1.76174 0
M  V30 5156 C 501.331 -0.0262443 3.4329 0
M  V30 5157 C 500.417 0.955928 4.13186 0
M  V30 5158 N 500.808 2.12395 4.59045 0
M  V30 5159 C 499.106 0.782473 4.39082 0
M  V30 5160 C 499.807 2.74458 5.12882 0
M  V30 5161 N 498.783 2.02316 5.04548 0
M  V30 5162 H 502.585 1.49679 2.5293 0
M  V30 5163 H 500.099 0.912088 1.34368 0
M  V30 5164 H 502.096 -0.356617 4.15372 0
M  V30 5165 H 500.756 -0.911811 3.11635 0
M  V30 5166 H 501.767 2.50272 4.53414 0
M  V30 5167 H 498.444 -0.0527906 4.17467 0
M  V30 5168 H 499.834 3.73459 5.5855 0
M  V30 5169 N 502.554 -1.34406 0.822964 0
M  V30 5170 C 503.801 -1.98284 0.411057 0
M  V30 5171 C 504.129 -1.65245 -1.02588 0
M  V30 5172 O 503.384 -0.91619 -1.72929 0
M  V30 5173 C 503.683 -3.52981 0.560268 0
M  V30 5174 C 503.349 -4.05931 1.96293 0
M  V30 5175 C 502.011 -4.20103 2.34664 0
M  V30 5176 C 504.363 -4.34412 2.87985 0
M  V30 5177 C 501.691 -4.60082 3.64062 0
M  V30 5178 C 504.043 -4.75838 4.16847 0
M  V30 5179 C 502.707 -4.88215 4.55195 0
M  V30 5180 H 501.977 -0.725573 0.150416 0
M  V30 5181 H 504.624 -1.60349 1.04692 0
M  V30 5182 H 502.929 -3.91477 -0.158982 0
M  V30 5183 H 504.626 -4.00385 0.222087 0
M  V30 5184 H 501.216 -3.95363 1.65487 0
M  V30 5185 H 505.4 -4.23001 2.59584 0
M  V30 5186 H 500.656 -4.67856 3.93599 0
M  V30 5187 H 504.83 -4.96834 4.87984 0
M  V30 5188 H 502.457 -5.18952 5.55512 0
M  V30 5189 N 504.032 -0.577932 -1.46621 0
M  V30 5190 C 505.443 -0.150071 -1.86096 0
M  V30 5191 C 505.794 1.28563 -1.48209 0
M  V30 5192 O 504.919 1.97036 -0.894754 0
M  V30 5193 C 505.514 -0.265576 -3.37758 0
M  V30 5194 C 504.073 0.10738 -3.76247 0
M  V30 5195 C 503.22 -0.603711 -2.70649 0
M  V30 5196 H 506.171 -0.786438 -1.37844 0
M  V30 5197 H 506.192 0.510352 -3.77062 0
M  V30 5198 H 505.704 -1.3106 -3.65301 0
M  V30 5199 H 503.805 1.15272 -3.54321 0
M  V30 5200 H 503.918 -0.26561 -4.78363 0
M  V30 5201 H 502.282 -0.0444884 -2.54661 0
M  V30 5202 H 503.065 -1.65029 -3.01032 0
M  V30 5203 N 505.51 1.54411 -0.315457 0
M  V30 5204 C 506.473 2.22713 0.54142 0
M  V30 5205 C 507.473 1.2179 1.04995 0
M  V30 5206 O 508.663 1.46426 0.943667 0
M  V30 5207 C 505.795 2.92485 1.75116 0
M  V30 5208 H 506.988 2.99849 -0.0555508 0
M  V30 5209 H 504.541 1.56159 -0.0664453 0
M  V30 5210 H 505.276 2.19466 2.38758 0
M  V30 5211 H 505.061 3.66483 1.39401 0
M  V30 5212 H 506.551 3.44548 2.35959 0
M  V30 5213 N 506.988 0.0434614 1.5754 0
M  V30 5214 C 508.213 -0.645358 1.97104 0
M  V30 5215 C 508.638 -1.64037 0.920521 0
M  V30 5216 O 507.996 -1.80922 -0.11708 0
M  V30 5217 C 508.044 -1.31547 3.35749 0
M  V30 5218 O 507.148 -2.43103 3.33129 0
M  V30 5219 H 506.489 -0.168403 0.64229 0
M  V30 5220 H 509.019 0.109573 2.04306 0
M  V30 5221 H 509.029 -1.66895 3.72304 0
M  V30 5222 H 507.704 -0.586205 4.11748 0
M  V30 5223 H 506.281 -2.0976 3.0831 0
M  V30 5224 N 508.466 -1.55915 -0.229846 0
M  V30 5225 C 509.743 -1.6932 -0.979295 0
M  V30 5226 C 510.123 -0.588321 -2.02736 0
M  V30 5227 O 509.471 0.40586 -2.24867 0
M  V30 5228 C 509.681 -3.10305 -1.59724 0
M  V30 5229 C 511.029 -3.6945 -2.09264 0
M  V30 5230 O 512.053 -3.13214 -1.69633 0
M  V30 5231 O 510.912 -4.68072 -2.82082 0
M  V30 5232 H 508.006 -0.689314 -0.456919 0
M  V30 5233 H 510.552 -1.68238 -0.222283 0
M  V30 5234 H 509.324 -3.82177 -0.840039 0
M  V30 5235 H 508.947 -3.1547 -2.42001 0
M  V30 5236 N 509.944 0.496216 -1.49584 0
M  V30 5237 C 511.193 1.24668 -1.58558 0
M  V30 5238 C 511.506 1.9359 -0.279703 0
M  V30 5239 O 512.712 2.70365 -0.248048 0
M  V30 5240 C 511.168 2.26388 -2.79779 0
M  V30 5241 C 510.776 1.63384 -4.17145 0
M  V30 5242 C 512.52 3.02233 -2.98086 0
M  V30 5243 C 510.427 2.63243 -5.29582 0
M  V30 5244 H 509.357 0.468995 -0.590389 0
M  V30 5245 H 512.008 0.519985 -1.75978 0
M  V30 5246 H 510.39 3.02241 -2.55863 0
M  V30 5247 H 511.564 0.93491 -4.51216 0
M  V30 5248 H 509.879 0.999121 -4.04236 0
M  V30 5249 H 512.476 3.76919 -3.79257 0
M  V30 5250 H 512.819 3.60132 -2.08831 0
M  V30 5251 H 513.352 2.33495 -3.22063 0
M  V30 5252 H 510.091 2.10119 -6.20911 0
M  V30 5253 H 509.611 3.31363 -4.99959 0
M  V30 5254 H 511.29 3.25575 -5.59115 0
M  V30 5255 N 511.423 1.38739 0.74761 0
M  V30 5256 C 512.834 1.31507 1.32524 0
M  V30 5257 C 513.185 -0.0263963 1.96182 0
M  V30 5258 O 512.31 -0.92849 1.95469 0
M  V30 5259 C 512.905 2.38162 2.40966 0
M  V30 5260 C 511.464 2.34489 2.94434 0
M  V30 5261 C 510.611 2.20712 1.67873 0
M  V30 5262 H 513.562 1.4901 0.546043 0
M  V30 5263 H 513.583 2.04222 3.21051 0
M  V30 5264 H 513.095 3.35783 1.94605 0
M  V30 5265 H 511.196 1.40467 3.45108 0
M  V30 5266 H 511.309 3.28861 3.48407 0
M  V30 5267 H 509.673 1.67667 1.91729 0
M  V30 5268 H 510.456 3.20285 1.23582 0
M  V30 5269 N 512.901 -0.976442 1.23707 0
M  V30 5270 C 514.317 -1.24341 1.00058 0
M  V30 5271 C 514.517 -1.99315 -0.295932 0
M  V30 5272 O 513.573 -2.3123 -1.01435 0
M  V30 5273 C 514.886 -2.03909 2.21001 0
M  V30 5274 C 516.434 -2.17034 2.25534 0
M  V30 5275 C 516.909 -2.99994 3.46075 0
M  V30 5276 N 518.4 -3.07578 3.46338 0
M  V30 5277 C 519.135 -3.72104 4.36264 0
M  V30 5278 N 518.631 -4.3842 5.36432 0
M  V30 5279 N 520.424 -3.69029 4.23998 0
M  V30 5280 H 512.575 -0.47428 2.07037 0
M  V30 5281 H 514.838 -0.272167 0.908091 0
M  V30 5282 H 514.544 -1.56198 3.15111 0
M  V30 5283 H 514.418 -3.04654 2.22409 0
M  V30 5284 H 516.805 -2.63951 1.31961 0
M  V30 5285 H 516.886 -1.15664 2.28156 0
M  V30 5286 H 516.53 -2.53772 4.39957 0
M  V30 5287 H 516.46 -4.01541 3.40694 0
M  V30 5288 H 518.951 -2.60397 2.73865 0
M  V30 5289 H 519.264 -4.85447 6.013 0
M  V30 5290 H 517.609 -4.37116 5.40328 0
M  V30 5291 H 520.8 -3.16392 3.44984 0
M  V30 5292 H 520.973 -4.19034 4.94282 0
M  V30 5293 N 514.379 -1.04941 -1.1758 0
M  V30 5294 C 515.311 -0.606174 -2.21039 0
M  V30 5295 C 516.324 0.328763 -1.59446 0
M  V30 5296 O 517.513 0.121895 -1.78083 0
M  V30 5297 C 514.613 0.133294 -3.38638 0
M  V30 5298 C 513.786 -0.811711 -4.29802 0
M  V30 5299 C 512.845 -0.113958 -5.26077 0
M  V30 5300 O 511.871 -0.747237 -5.64274 0
M  V30 5301 N 513.073 1.14953 -5.69004 0
M  V30 5302 H 515.838 -1.49606 -2.59689 0
M  V30 5303 H 513.399 -0.930997 -1.32454 0
M  V30 5304 H 515.391 0.610144 -4.00074 0
M  V30 5305 H 513.961 0.924816 -2.98607 0
M  V30 5306 H 513.181 -1.46824 -3.65837 0
M  V30 5307 H 514.469 -1.45326 -4.87604 0
M  V30 5308 H 513.867 1.68441 -5.40041 0
M  V30 5309 H 512.424 1.57049 -6.32597 0
M  V30 5310 N 515.857 1.33968 -0.830081 0
M  V30 5311 C 516.82 2.27694 -0.26235 0
M  V30 5312 C 517.82 1.50589 0.563876 0
M  V30 5313 O 519.01 1.70028 0.378941 0
M  V30 5314 C 516.142 3.35002 0.63138 0
M  V30 5315 H 517.335 2.79419 -1.08928 0
M  V30 5316 H 514.888 1.44221 -0.602486 0
M  V30 5317 H 515.623 2.88504 1.48109 0
M  V30 5318 H 515.408 3.92079 0.0403276 0
M  V30 5319 H 516.898 4.04897 1.02217 0
M  V30 5320 N 517.335 0.585699 1.46312 0
M  V30 5321 C 518.751 0.247607 1.57668 0
M  V30 5322 C 518.951 -1.25007 1.58037 0
M  V30 5323 O 518.007 -2.03196 1.49893 0
M  V30 5324 C 519.32 0.899456 2.86933 0
M  V30 5325 C 520.868 0.873326 3.00569 0
M  V30 5326 C 521.343 1.50477 4.32574 0
M  V30 5327 N 522.834 1.46925 4.3928 0
M  V30 5328 C 523.569 1.92719 5.40044 0
M  V30 5329 N 523.065 2.46499 6.47464 0
M  V30 5330 N 524.858 1.83617 5.31264 0
M  V30 5331 H 517.009 1.55841 1.44317 0
M  V30 5332 H 519.272 0.651564 0.688599 0
M  V30 5333 H 518.978 1.95313 2.92482 0
M  V30 5334 H 518.852 0.409476 3.74971 0
M  V30 5335 H 521.239 -0.171736 2.946 0
M  V30 5336 H 521.32 1.40136 2.13999 0
M  V30 5337 H 520.964 2.54905 4.39302 0
M  V30 5338 H 520.894 0.951944 5.17924 0
M  V30 5339 H 523.385 1.07616 3.62253 0
M  V30 5340 H 523.698 2.79291 7.20567 0
M  V30 5341 H 522.043 2.50526 6.48276 0
M  V30 5342 H 525.234 1.41358 4.46246 0
M  V30 5343 H 525.407 2.19622 6.09648 0
M  V30 5344 N 518.813 -1.54241 0.323641 0
M  V30 5345 C 519.723 -2.28033 -0.551205 0
M  V30 5346 C 520.739 -1.32388 -1.12913 0
M  V30 5347 O 521.915 -1.65403 -1.14908 0
M  V30 5348 C 518.98 -3.02382 -1.69606 0
M  V30 5349 C 518.041 -4.13612 -1.14993 0
M  V30 5350 C 517.274 -4.84407 -2.24022 0
M  V30 5351 O 517.497 -4.54716 -3.44368 0
M  V30 5352 O 516.431 -5.71312 -1.89436 0
M  V30 5353 H 520.257 -3.03662 0.048066 0
M  V30 5354 H 517.842 -1.49133 0.0893289 0
M  V30 5355 H 519.724 -3.48941 -2.36259 0
M  V30 5356 H 518.399 -2.29628 -2.28151 0
M  V30 5357 H 517.306 -3.71402 -0.448484 0
M  V30 5358 H 518.639 -4.8841 -0.609608 0
M  V30 5359 N 520.291 -0.0518155 -1.57515 0
M  V30 5360 C 521.221 0.920283 -2.146 0
M  V30 5361 C 522.202 1.32406 -1.06783 0
M  V30 5362 O 523.387 1.39866 -1.34726 0
M  V30 5363 C 520.517 2.1949 -2.6915 0
M  V30 5364 C 519.471 1.93116 -3.81956 0
M  V30 5365 C 518.797 3.27037 -4.23026 0
M  V30 5366 C 520.097 1.25225 -5.07066 0
M  V30 5367 H 521.791 0.444801 -2.96077 0
M  V30 5368 H 519.337 0.212508 -1.42423 0
M  V30 5369 H 521.29 2.87894 -3.07725 0
M  V30 5370 H 520.014 2.69244 -1.84865 0
M  V30 5371 H 518.673 1.27123 -3.43854 0
M  V30 5372 H 518.321 3.74595 -3.3569 0
M  V30 5373 H 518.021 3.10189 -4.99056 0
M  V30 5374 H 519.545 3.96673 -4.64202 0
M  V30 5375 H 520.959 1.83666 -5.43083 0
M  V30 5376 H 519.356 1.18702 -5.88243 0
M  V30 5377 H 520.426 0.228382 -4.84362 0
M  V30 5378 N 521.769 1.56035 0.221574 0
M  V30 5379 C 522.999 1.82864 0.961468 0
M  V30 5380 C 523.407 0.628703 1.78449 0
M  V30 5381 O 522.75 -0.412109 1.79018 0
M  V30 5382 C 522.812 3.03425 1.92804 0
M  V30 5383 C 522.476 4.38429 1.28954 0
M  V30 5384 C 523.473 5.15441 0.679431 0
M  V30 5385 C 521.158 4.85151 1.30131 0
M  V30 5386 C 523.152 6.37337 0.0896148 0
M  V30 5387 C 520.839 6.06989 0.707651 0
M  V30 5388 C 521.837 6.82923 0.102855 0
M  V30 5389 O 521.525 8.02456 -0.48157 0
M  V30 5390 H 521.257 0.611883 0.28736 0
M  V30 5391 H 523.811 2.0397 0.241932 0
M  V30 5392 H 522.041 2.78138 2.68656 0
M  V30 5393 H 523.73 3.17127 2.53348 0
M  V30 5394 H 524.496 4.80452 0.662661 0
M  V30 5395 H 520.375 4.26021 1.76145 0
M  V30 5396 H 523.919 6.96547 -0.383069 0
M  V30 5397 H 519.816 6.41451 0.721834 0
M  V30 5398 H 520.584 8.17636 -0.375887 0
M  V30 5399 N 523.247 -0.488276 1.49845 0
M  V30 5400 C 524.472 -1.26997 1.63971 0
M  V30 5401 C 524.897 -1.85427 0.315994 0
M  V30 5402 O 524.255 -1.66475 -0.718032 0
M  V30 5403 C 524.303 -2.36689 2.72049 0
M  V30 5404 O 523.407 -3.40882 2.32107 0
M  V30 5405 H 522.748 -0.374376 0.548396 0
M  V30 5406 H 525.278 -0.583104 1.96115 0
M  V30 5407 H 525.288 -2.82262 2.94605 0
M  V30 5408 H 523.963 -1.93529 3.68129 0
M  V30 5409 H 522.54 -3.01139 2.19931 0
M  V30 5410 N 524.725 -1.39134 -0.740242 0
M  V30 5411 C 525.657 -1.33332 -1.86428 0
M  V30 5412 C 526.67 -0.243042 -1.60976 0
M  V30 5413 O 527.859 -0.501608 -1.71307 0
M  V30 5414 C 524.959 -1.04626 -3.22346 0
M  V30 5415 C 524.132 -2.24826 -3.75196 0
M  V30 5416 C 523.191 -1.92659 -4.89662 0
M  V30 5417 O 522.217 -2.6529 -5.03597 0
M  V30 5418 N 523.419 -0.889575 -5.73643 0
M  V30 5419 H 526.184 -2.30196 -1.91911 0
M  V30 5420 H 523.745 -1.33168 -0.920756 0
M  V30 5421 H 525.737 -0.811347 -3.96484 0
M  V30 5422 H 524.307 -0.165129 -3.12164 0
M  V30 5423 H 523.527 -2.64301 -2.9247 0
M  V30 5424 H 524.815 -3.05015 -4.07239 0
M  V30 5425 H 524.213 -0.287529 -5.64969 0
M  V30 5426 H 522.77 -0.714557 -6.47871 0
M  V30 5427 N 526.204 0.969867 -1.24223 0
M  V30 5428 C 527.429 1.75289 -1.10853 0
M  V30 5429 C 527.854 1.85091 0.335079 0
M  V30 5430 O 527.212 1.32024 1.24255 0
M  V30 5431 C 527.26 3.15255 -1.75062 0
M  V30 5432 O 526.364 3.99589 -1.01992 0
M  V30 5433 H 525.705 0.538904 -0.387915 0
M  V30 5434 H 528.235 1.21675 -1.64488 0
M  V30 5435 H 528.245 3.65787 -1.80731 0
M  V30 5436 H 526.92 3.07436 -2.801 0
M  V30 5437 H 525.497 3.58077 -1.04094 0
M  V30 5438 N 527.682 1.05563 1.17022 0
M  V30 5439 C 528.612 0.681026 2.23348 0
M  V30 5440 C 529.593 -0.322983 1.67005 0
M  V30 5441 O 530.778 -0.199746 1.9317 0
M  V30 5442 C 527.908 0.0589053 3.4725 0
M  V30 5443 C 526.862 0.988082 4.16438 0
M  V30 5444 C 526.188 0.229646 5.34207 0
M  V30 5445 C 527.488 2.31388 4.68249 0
M  V30 5446 H 529.182 1.56993 2.54938 0
M  V30 5447 H 526.728 0.756302 1.2254 0
M  V30 5448 H 528.681 -0.214982 4.20851 0
M  V30 5449 H 527.405 -0.864968 3.14938 0
M  V30 5450 H 526.064 1.24659 3.44754 0
M  V30 5451 H 525.712 -0.697111 4.98146 0
M  V30 5452 H 525.412 0.848815 5.81437 0
M  V30 5453 H 526.936 -0.0368694 6.10589 0
M  V30 5454 H 528.35 2.09964 5.33468 0
M  V30 5455 H 526.747 2.88736 5.26072 0
M  V30 5456 H 527.817 2.94982 3.84855 0
M  V30 5457 N 529.16 -1.33526 0.837174 0
M  V30 5458 C 530.385 -2.0258 0.444545 0
M  V30 5459 C 530.81 -1.6258 -0.946006 0
M  V30 5460 O 530.168 -0.817548 -1.6182 0
M  V30 5461 C 530.216 -3.5605 0.571006 0
M  V30 5462 O 529.32 -4.10422 -0.403431 0
M  V30 5463 H 528.661 -0.638866 0.180958 0
M  V30 5464 H 531.191 -1.70462 1.13154 0
M  V30 5465 H 531.201 -4.05488 0.452024 0
M  V30 5466 H 529.876 -3.84509 1.58512 0
M  V30 5467 H 528.453 -3.72113 -0.242147 0
M  V30 5468 N 530.638 -0.59345 -1.46 0
M  V30 5469 C 532.054 -0.255965 -1.57534 0
M  V30 5470 C 532.254 1.24167 -1.58697 0
M  V30 5471 O 531.31 2.02398 -1.50968 0
M  V30 5472 C 532.623 -0.91466 -2.86451 0
M  V30 5473 C 534.171 -0.889253 -3.00102 0
M  V30 5474 C 534.646 -1.52769 -4.3177 0
M  V30 5475 N 536.137 -1.49253 -4.38495 0
M  V30 5476 C 536.872 -1.9558 -5.39014 0
M  V30 5477 N 536.368 -2.49929 -6.46148 0
M  V30 5478 N 538.161 -1.86432 -5.30282 0
M  V30 5479 H 530.312 -1.56604 -1.43489 0
M  V30 5480 H 532.575 -0.655207 -0.685133 0
M  V30 5481 H 532.281 -1.96861 -2.91442 0
M  V30 5482 H 532.155 -0.429356 -3.74748 0
M  V30 5483 H 534.542 0.156111 -2.94687 0
M  V30 5484 H 534.623 -1.41268 -2.13253 0
M  V30 5485 H 534.267 -2.57231 -4.37944 0
M  V30 5486 H 534.197 -0.979398 -5.17412 0
M  V30 5487 H 536.688 -1.09536 -3.61677 0
M  V30 5488 H 537.001 -2.83109 -7.19075 0
M  V30 5489 H 535.346 -2.53961 -6.46938 0
M  V30 5490 H 538.537 -1.43722 -4.4549 0
M  V30 5491 H 538.71 -2.22852 -6.08474 0
M  V30 5492 N 532.116 1.54067 -0.331816 0
M  V30 5493 C 533.066 2.21363 0.546101 0
M  V30 5494 C 534.05 1.19698 1.07523 0
M  V30 5495 O 535.242 1.45293 1.01088 0
M  V30 5496 C 532.371 2.98115 1.70242 0
M  V30 5497 C 531.457 4.07127 1.18779 0
M  V30 5498 N 531.848 5.04267 0.393465 0
M  V30 5499 C 530.146 4.21226 1.46576 0
M  V30 5500 C 530.847 5.81585 0.115572 0
M  V30 5501 N 529.823 5.39022 0.703987 0
M  V30 5502 H 533.625 2.93821 -0.0679751 0
M  V30 5503 H 531.139 1.61812 -0.138085 0
M  V30 5504 H 533.136 3.44818 2.34321 0
M  V30 5505 H 531.796 2.27181 2.31989 0
M  V30 5506 H 532.807 5.17888 0.0355757 0
M  V30 5507 H 529.484 3.61509 2.08848 0
M  V30 5508 H 530.874 6.6985 -0.524426 0
M  V30 5509 N 533.594 0.0601682 1.57485 0
M  V30 5510 C 534.84 -0.612501 1.93329 0
M  V30 5511 C 535.173 -1.6996 0.939526 0
M  V30 5512 O 534.448 -1.94472 -0.0330957 0
M  V30 5513 C 534.731 -1.20025 3.39508 0
M  V30 5514 C 534.584 -0.12059 4.49638 0
M  V30 5515 C 535.903 -2.10923 3.86264 0
M  V30 5516 H 533.022 -0.221185 0.703027 0
M  V30 5517 H 535.664 0.123768 1.89596 0
M  V30 5518 H 533.814 -1.82774 3.42821 0
M  V30 5519 H 535.486 0.51185 4.58452 0
M  V30 5520 H 533.729 0.550251 4.30296 0
M  V30 5521 H 534.4 -0.572019 5.49028 0
M  V30 5522 H 536.876 -1.58124 3.84884 0
M  V30 5523 H 535.752 -2.48987 4.8918 0
M  V30 5524 H 536.013 -3.01292 3.23536 0
M  V30 5525 N 535.072 -1.5615 -0.213296 0
M  V30 5526 C 536.483 -1.69645 -0.779582 0
M  V30 5527 C 536.834 -0.663615 -1.84636 0
M  V30 5528 O 535.959 0.183633 -2.15619 0
M  V30 5529 C 536.554 -3.07567 -1.42084 0
M  V30 5530 C 535.113 -3.22889 -1.93442 0
M  V30 5531 C 534.26 -2.65581 -0.797612 0
M  V30 5532 H 537.211 -1.58696 0.0114951 0
M  V30 5533 H 537.232 -3.03884 -2.28986 0
M  V30 5534 H 536.744 -3.82716 -0.644187 0
M  V30 5535 H 534.845 -2.52623 -2.73884 0
M  V30 5536 H 534.958 -4.30197 -2.10872 0
M  V30 5537 H 533.322 -2.24278 -1.20712 0
M  V30 5538 H 534.105 -3.43284 -0.033494 0
M  V30 5539 N 536.55 0.480323 -1.50102 0
M  V30 5540 C 537.827 1.24159 -1.51142 0
M  V30 5541 C 538.207 2.09605 -0.250818 0
M  V30 5542 O 537.555 2.15274 0.766118 0
M  V30 5543 C 537.765 2.08057 -2.80202 0
M  V30 5544 C 539.113 2.66556 -3.30504 0
M  V30 5545 O 540.137 2.18308 -2.81461 0
M  V30 5546 O 538.996 3.54442 -4.15973 0
M  V30 5547 H 536.09 0.562928 -0.605839 0
M  V30 5548 H 538.636 0.492899 -1.62384 0
M  V30 5549 H 537.408 1.45032 -3.6343 0
M  V30 5550 H 537.031 2.90079 -2.71919 0
M  V30 5551 N 538.028 1.39524 0.732853 0
M  V30 5552 C 539.444 1.21176 1.03868 0
M  V30 5553 C 539.644 0.0748448 2.01361 0
M  V30 5554 O 538.7 -0.57281 2.45917 0
M  V30 5555 C 540.013 2.54667 1.59892 0
M  V30 5556 C 541.561 2.6153 1.71962 0
M  V30 5557 C 542.036 3.95248 2.31394 0
M  V30 5558 N 543.527 3.96899 2.38801 0
M  V30 5559 C 544.262 4.97138 2.85729 0
M  V30 5560 N 543.758 6.07775 3.32537 0
M  V30 5561 N 545.551 4.84516 2.84957 0
M  V30 5562 H 537.702 2.12225 0.086304 0
M  V30 5563 H 539.965 0.942614 0.100907 0
M  V30 5564 H 539.671 3.38423 0.95721 0
M  V30 5565 H 539.545 2.74538 2.58668 0
M  V30 5566 H 541.932 1.78156 2.35254 0
M  V30 5567 H 542.013 2.45507 0.718327 0
M  V30 5568 H 541.657 4.79054 1.68729 0
M  V30 5569 H 541.587 4.08593 3.32204 0
M  V30 5570 H 544.078 3.16998 2.05719 0
M  V30 5571 H 544.391 6.8017 3.66862 0
M  V30 5572 H 542.736 6.11366 3.30541 0
M  V30 5573 H 545.927 3.97185 2.47713 0
M  V30 5574 H 546.1 5.62783 3.21215 0
M  V30 5575 N 539.506 -0.963266 1.24736 0
M  V30 5576 C 540.783 -1.68248 0.9976 0
M  V30 5577 C 541.163 -2.05599 -0.478776 0
M  V30 5578 O 540.511 -1.7626 -1.45412 0
M  V30 5579 C 540.721 -2.91118 1.92487 0
M  V30 5580 C 542.069 -3.63261 2.19833 0
M  V30 5581 O 543.093 -3.01184 1.90176 0
M  V30 5582 O 541.952 -4.75019 2.7022 0
M  V30 5583 H 539.046 -0.735744 0.377637 0
M  V30 5584 H 541.592 -1.01696 1.35853 0
M  V30 5585 H 540.364 -2.60242 2.92215 0
M  V30 5586 H 539.987 -3.65402 1.56738 0
M  V30 5587 N 540.985 -1.06182 -1.16461 0
M  V30 5588 C 542.215 -0.797425 -1.9059 0
M  V30 5589 C 542.623 0.651845 -1.77616 0
M  V30 5590 O 541.966 1.45788 -1.11766 0
M  V30 5591 C 542.028 -1.11128 -3.41893 0
M  V30 5592 C 541.692 -2.55874 -3.78652 0
M  V30 5593 C 542.689 -3.54104 -3.80665 0
M  V30 5594 C 540.374 -2.91144 -4.09317 0
M  V30 5595 C 542.368 -4.85645 -4.12829 0
M  V30 5596 C 540.055 -4.22885 -4.41148 0
M  V30 5597 C 541.053 -5.19945 -4.42883 0
M  V30 5598 O 540.741 -6.49322 -4.73959 0
M  V30 5599 H 540.473 -0.288709 -0.611247 0
M  V30 5600 H 543.027 -1.41841 -1.4856 0
M  V30 5601 H 541.257 -0.433217 -3.84266 0
M  V30 5602 H 542.946 -0.831306 -3.97296 0
M  V30 5603 H 543.712 -3.28197 -3.57088 0
M  V30 5604 H 539.591 -2.16252 -4.07131 0
M  V30 5605 H 543.135 -5.61398 -4.14099 0
M  V30 5606 H 539.032 -4.48551 -4.6419 0
M  V30 5607 H 539.8 -6.54294 -4.91774 0
M  V30 5608 N 542.463 1.3308 -0.844243 0
M  V30 5609 C 543.709 1.97898 -0.443206 0
M  V30 5610 C 544.042 1.66699 0.99625 0
M  V30 5611 O 543.317 0.949704 1.69738 0
M  V30 5612 C 543.6 3.53801 -0.670606 0
M  V30 5613 C 543.453 3.94667 -2.15772 0
M  V30 5614 C 544.772 4.39936 -0.120226 0
M  V30 5615 H 541.891 0.718861 -0.162504 0
M  V30 5616 H 544.533 1.57633 -1.06075 0
M  V30 5617 H 542.683 3.88229 -0.14496 0
M  V30 5618 H 544.355 3.70469 -2.74865 0
M  V30 5619 H 542.598 3.44203 -2.6402 0
M  V30 5620 H 543.269 5.03275 -2.26757 0
M  V30 5621 H 545.745 4.12183 -0.5696 0
M  V30 5622 H 544.621 5.4803 -0.308984 0
M  V30 5623 H 544.882 4.31184 0.976347 0
M  V30 5624 N 543.941 0.601185 1.45683 0
M  V30 5625 C 545.352 0.179659 1.85834 0
M  V30 5626 C 545.703 -1.26189 1.50236 0
M  V30 5627 O 544.828 -1.95587 0.925987 0
M  V30 5628 C 545.423 0.319277 3.37292 0
M  V30 5629 C 543.982 -0.0475092 3.7637 0
M  V30 5630 C 543.129 0.646692 2.69654 0
M  V30 5631 H 546.08 0.808268 1.36575 0
M  V30 5632 H 546.101 -0.4503 3.77826 0
M  V30 5633 H 545.613 1.36855 3.6317 0
M  V30 5634 H 543.714 -1.0962 3.5611 0
M  V30 5635 H 543.827 0.34168 4.7788 0
M  V30 5636 H 542.191 0.0849971 2.54558 0
M  V30 5637 H 542.974 1.69797 2.98369 0
M  V30 5638 N 545.419 -1.53889 0.339982 0
M  V30 5639 C 546.665 -2.01152 -0.258003 0
M  V30 5640 C 546.998 -1.22749 -1.50487 0
M  V30 5641 O 546.273 -0.314156 -1.91946 0
M  V30 5642 C 546.556 -3.55468 -0.575717 0
M  V30 5643 C 546.409 -4.44584 0.682996 0
M  V30 5644 C 547.728 -4.1768 -1.38677 0
M  V30 5645 H 544.847 -0.731198 -0.0922992 0
M  V30 5646 H 547.489 -1.84352 0.459814 0
M  V30 5647 H 545.639 -3.69914 -1.18725 0
M  V30 5648 H 547.311 -4.41981 1.32102 0
M  V30 5649 H 545.554 -4.13592 1.3086 0
M  V30 5650 H 546.225 -5.5043 0.416001 0
M  V30 5651 H 548.701 -4.0691 -0.869705 0
M  V30 5652 H 547.577 -5.25734 -1.57783 0
M  V30 5653 H 547.838 -3.72069 -2.38782 0
M  V30 5654 N 546.897 -0.0685191 -1.57451 0
M  V30 5655 C 548.308 0.464634 -1.80826 0
M  V30 5656 C 548.659 1.69847 -0.982169 0
M  V30 5657 O 547.784 2.15439 -0.203734 0
M  V30 5658 C 548.379 0.849721 -3.27971 0
M  V30 5659 C 546.938 1.32776 -3.52204 0
M  V30 5660 C 546.085 0.311332 -2.75547 0
M  V30 5661 H 549.036 -0.294248 -1.55948 0
M  V30 5662 H 549.057 1.71138 -3.39841 0
M  V30 5663 H 548.569 -0.0484736 -3.8807 0
M  V30 5664 H 546.67 2.24456 -2.97406 0
M  V30 5665 H 546.783 1.30794 -4.60901 0
M  V30 5666 H 545.147 0.787915 -2.42206 0
M  V30 5667 H 545.93 -0.579078 -3.38381 0
M  V30 5668 N 548.375 1.56261 0.205012 0
M  V30 5669 C 549.621 1.80306 0.9283 0
M  V30 5670 C 549.954 0.640932 1.83319 0
M  V30 5671 O 549.229 -0.359032 1.91158 0
M  V30 5672 C 549.512 3.14547 1.75306 0
M  V30 5673 C 549.365 4.41236 0.873562 0
M  V30 5674 C 550.684 3.45382 2.72762 0
M  V30 5675 H 547.803 0.655929 0.336044 0
M  V30 5676 H 550.445 1.88984 0.196211 0
M  V30 5677 H 548.595 3.0728 2.37721 0
M  V30 5678 H 550.267 4.60539 0.264887 0
M  V30 5679 H 548.51 4.33427 0.179773 0
M  V30 5680 H 549.181 5.31639 1.48541 0
M  V30 5681 H 551.657 3.52884 2.20481 0
M  V30 5682 H 550.533 4.40449 3.2756 0
M  V30 5683 H 550.794 2.68377 3.51321 0
M  V30 5684 N 549.853 -0.472356 1.50355 0
M  V30 5685 C 550.803 -1.56809 1.65514 0
M  V30 5686 C 551.787 -1.5261 0.509801 0
M  V30 5687 O 552.979 -1.59655 0.764145 0
M  V30 5688 C 550.108 -2.9526 1.75146 0
M  V30 5689 C 549.194 -3.04348 2.95353 0
M  V30 5690 N 549.585 -2.83253 4.19048 0
M  V30 5691 C 547.883 -3.35482 2.93884 0
M  V30 5692 C 548.584 -2.97273 5.00003 0
M  V30 5693 N 547.56 -3.27418 4.33934 0
M  V30 5694 H 551.362 -1.39197 2.58846 0
M  V30 5695 H 548.876 -0.67906 1.47521 0
M  V30 5696 H 550.873 -3.74044 1.8411 0
M  V30 5697 H 549.533 -3.1392 0.829717 0
M  V30 5698 H 550.544 -2.5886 4.48567 0
M  V30 5699 H 547.221 -3.60138 2.11204 0
M  V30 5700 H 548.611 -2.85214 6.08361 0
M  V30 5701 N 551.331 -1.39911 -0.725443 0
M  V30 5702 C 552.747 -1.21725 -1.03224 0
M  V30 5703 C 552.947 -0.0855224 -2.01318 0
M  V30 5704 O 552.003 0.55976 -2.46217 0
M  V30 5705 C 553.316 -2.55511 -1.58539 0
M  V30 5706 C 554.864 -2.62439 -1.70572 0
M  V30 5707 C 555.339 -3.9647 -2.29294 0
M  V30 5708 N 556.83 -3.98159 -2.36692 0
M  V30 5709 C 557.565 -4.98647 -2.83088 0
M  V30 5710 N 557.061 -6.0953 -3.2931 0
M  V30 5711 N 558.854 -4.8602 -2.82384 0
M  V30 5712 H 551.005 -2.12267 -0.075048 0
M  V30 5713 H 553.268 -0.943136 -0.0959066 0
M  V30 5714 H 552.974 -3.38926 -0.939249 0
M  V30 5715 H 552.848 -2.75905 -2.57208 0
M  V30 5716 H 555.235 -1.79401 -2.34306 0
M  V30 5717 H 555.316 -2.45885 -0.705297 0
M  V30 5718 H 554.96 -4.79942 -1.66186 0
M  V30 5719 H 554.89 -4.10349 -3.30032 0
M  V30 5720 H 557.381 -3.18085 -2.04035 0
M  V30 5721 H 557.694 -6.82106 -3.6325 0
M  V30 5722 H 556.039 -6.1311 -3.27294 0
M  V30 5723 H 559.23 -3.98493 -2.45603 0
M  V30 5724 H 559.403 -5.64478 -3.18226 0
M  V30 5725 N 552.809 0.956637 -1.25245 0
M  V30 5726 C 554.058 1.69537 -1.0927 0
M  V30 5727 C 554.371 1.92136 0.366503 0
M  V30 5728 O 555.577 2.63687 0.64665 0
M  V30 5729 C 554.033 3.05211 -1.9072 0
M  V30 5730 C 553.641 2.90416 -3.41119 0
M  V30 5731 C 555.385 3.82882 -1.83308 0
M  V30 5732 C 553.292 4.21468 -4.14872 0
M  V30 5733 H 552.222 0.635804 -0.405302 0
M  V30 5734 H 554.873 1.06513 -1.49423 0
M  V30 5735 H 553.255 3.69128 -1.43389 0
M  V30 5736 H 554.429 2.35444 -3.9611 0
M  V30 5737 H 552.744 2.26203 -3.49602 0
M  V30 5738 H 555.341 4.79944 -2.35706 0
M  V30 5739 H 555.684 4.0853 -0.800572 0
M  V30 5740 H 556.217 3.25711 -2.28379 0
M  V30 5741 H 552.956 4.01009 -5.18529 0
M  V30 5742 H 552.476 4.76213 -3.64665 0
M  V30 5743 H 554.155 4.90022 -4.22478 0
M  V30 5744 N 554.287 1.06798 1.15896 0
M  V30 5745 C 555.197 0.694564 2.24083 0
M  V30 5746 C 556.213 -0.291687 1.71538 0
M  V30 5747 O 557.389 -0.139723 2.00915 0
M  V30 5748 C 554.454 0.0921014 3.46578 0
M  V30 5749 C 553.515 1.13087 4.14137 0
M  V30 5750 C 552.748 0.557064 5.30785 0
M  V30 5751 O 552.971 -0.628623 5.66925 0
M  V30 5752 O 551.905 1.29924 5.8771 0
M  V30 5753 H 555.731 1.59663 2.58344 0
M  V30 5754 H 553.316 0.840575 1.2351 0
M  V30 5755 H 555.198 -0.241884 4.20705 0
M  V30 5756 H 553.873 -0.78337 3.14078 0
M  V30 5757 H 552.78 1.51712 3.41957 0
M  V30 5758 H 554.113 1.97805 4.50704 0
M  V30 5759 N 555.766 -1.3263 0.851289 0
M  V30 5760 C 557.014 -1.96978 0.452128 0
M  V30 5761 C 557.335 -1.67715 -0.99482 0
M  V30 5762 O 556.605 -0.98259 -1.69476 0
M  V30 5763 H 555.185 -0.72873 0.164202 0
M  V30 5764 H 557.847 -1.61774 1.08698 0
M  V30 5765 H 556.943 -3.06387 0.594407 0
M  V30 5766 N 557.244 -0.608902 -1.45362 0
M  V30 5767 C 558.472 -0.111013 -2.06602 0
M  V30 5768 C 558.887 1.20516 -1.45332 0
M  V30 5769 O 558.244 1.73437 -0.567978 0
M  V30 5770 C 558.295 0.033688 -3.61484 0
M  V30 5771 O 558.016 -1.23041 -4.20467 0
M  V30 5772 C 559.517 0.562882 -4.39712 0
M  V30 5773 H 556.737 -0.0694453 -0.667397 0
M  V30 5774 H 559.281 -0.837008 -1.86586 0
M  V30 5775 H 557.436 0.710016 -3.80838 0
M  V30 5776 H 557.85 -1.06094 -5.13658 0
M  V30 5777 H 559.324 0.613213 -5.48583 0
M  V30 5778 H 559.801 1.58543 -4.09586 0
M  V30 5779 H 560.407 -0.0794454 -4.25226 0
M  V30 5780 N 558.722 1.53707 -0.348139 0
M  V30 5781 C 559.632 2.28881 0.514857 0
M  V30 5782 C 560.648 1.34168 1.10793 0
M  V30 5783 O 561.824 1.6721 1.12262 0
M  V30 5784 C 558.889 3.05042 1.64774 0
M  V30 5785 C 557.95 4.15389 1.08398 0
M  V30 5786 C 557.183 4.87909 2.16287 0
M  V30 5787 O 557.406 4.60137 3.3709 0
M  V30 5788 O 556.34 5.74254 1.80323 0
M  V30 5789 H 560.166 3.03547 -0.0963699 0
M  V30 5790 H 557.751 1.48972 -0.113043 0
M  V30 5791 H 559.633 3.52656 2.30677 0
M  V30 5792 H 558.308 2.33228 2.24469 0
M  V30 5793 H 557.215 3.72068 0.389341 0
M  V30 5794 H 558.548 4.89318 0.531829 0
M  V30 5795 N 560.2 0.0768682 1.57412 0
M  V30 5796 C 561.611 -0.455037 1.8107 0
M  V30 5797 C 561.962 -1.69323 0.991162 0
M  V30 5798 O 561.087 -2.15328 0.215156 0
M  V30 5799 C 561.682 -0.832316 3.28417 0
M  V30 5800 C 560.241 -1.30906 3.52903 0
M  V30 5801 C 559.388 -0.296714 2.75708 0
M  V30 5802 H 562.339 0.302514 1.5579 0
M  V30 5803 H 562.36 -1.69333 3.40744 0
M  V30 5804 H 561.872 0.0690532 3.88039 0
M  V30 5805 H 559.973 -2.22875 2.98592 0
M  V30 5806 H 560.086 -1.28348 4.61588 0
M  V30 5807 H 558.45 -0.775059 2.42621 0
M  V30 5808 H 559.233 0.597015 3.38069 0
M  V30 5809 N 561.678 -1.56367 -0.196722 0
M  V30 5810 C 562.608 -1.97442 -1.24655 0
M  V30 5811 C 563.589 -0.846147 -1.47561 0
M  V30 5812 O 564.774 -1.11035 -1.59326 0
M  V30 5813 C 561.904 -2.31253 -2.59112 0
M  V30 5814 C 560.858 -3.46804 -2.50821 0
M  V30 5815 C 560.184 -3.66286 -3.89536 0
M  V30 5816 C 561.484 -4.8104 -2.03465 0
M  V30 5817 H 563.178 -2.85388 -0.905216 0
M  V30 5818 H 560.724 -1.37304 -0.434002 0
M  V30 5819 H 562.677 -2.58583 -3.32736 0
M  V30 5820 H 561.401 -1.40188 -2.94983 0
M  V30 5821 H 560.06 -3.19563 -1.79653 0
M  V30 5822 H 559.708 -2.72555 -4.22756 0
M  V30 5823 H 559.408 -4.4402 -3.84864 0
M  V30 5824 H 560.932 -3.9599 -4.64784 0
M  V30 5825 H 562.346 -5.07411 -2.66846 0
M  V30 5826 H 560.743 -5.62232 -2.09798 0
M  V30 5827 H 561.813 -4.74732 -0.98781 0
M  V30 5828 N 563.156 0.464375 -1.50603 0
M  V30 5829 C 564.433 1.22549 -1.5245 0
M  V30 5830 C 564.813 2.09327 -0.273035 0
M  V30 5831 O 564.161 2.16074 0.743242 0
M  V30 5832 C 564.371 2.05074 -2.82393 0
M  V30 5833 C 565.719 2.63036 -3.33313 0
M  V30 5834 O 566.743 2.1531 -2.8376 0
M  V30 5835 O 565.602 3.5001 -4.19709 0
M  V30 5836 H 562.696 0.556471 -0.611775 0
M  V30 5837 H 565.242 0.475648 -1.62898 0
M  V30 5838 H 564.014 1.41169 -3.64948 0
M  V30 5839 H 563.637 2.87179 -2.7498 0
M  V30 5840 N 564.634 1.40294 0.718013 0
M  V30 5841 C 565.564 1.43118 1.84498 0
M  V30 5842 C 566.545 0.292403 1.67568 0
M  V30 5843 O 567.73 0.500675 1.87635 0
M  V30 5844 C 564.86 1.29065 3.22427 0
M  V30 5845 C 563.814 2.40521 3.54025 0
M  V30 5846 C 563.14 2.11546 4.91073 0
M  V30 5847 C 564.44 3.82859 3.55269 0
M  V30 5848 H 566.134 2.37432 1.82391 0
M  V30 5849 H 563.68 1.14283 0.87609 0
M  V30 5850 H 565.633 1.29658 4.00957 0
M  V30 5851 H 564.357 0.312271 3.25104 0
M  V30 5852 H 563.016 2.39173 2.77834 0
M  V30 5853 H 562.664 1.12104 4.90348 0
M  V30 5854 H 562.364 2.86216 5.1318 0
M  V30 5855 H 563.888 2.13817 5.71939 0
M  V30 5856 H 565.302 3.86044 4.23843 0
M  V30 5857 H 563.699 4.57029 3.88902 0
M  V30 5858 H 564.769 4.12617 2.54706 0
M  V30 5859 N 566.112 -0.949982 1.2575 0
M  V30 5860 C 567.337 -1.73503 1.13628 0
M  V30 5861 C 567.762 -1.85601 -0.30559 0
M  V30 5862 O 567.12 -1.33984 -1.22139 0
M  V30 5863 C 567.168 -3.1243 1.80055 0
M  V30 5864 O 566.272 -3.97916 1.08336 0
M  V30 5865 H 565.613 -0.532665 0.396439 0
M  V30 5866 H 568.143 -1.19043 1.66403 0
M  V30 5867 H 568.153 -3.62866 1.86527 0
M  V30 5868 H 566.828 -3.02941 2.84956 0
M  V30 5869 H 565.405 -3.56375 1.09777 0
M  V30 5870 N 567.59 -1.07411 -1.15328 0
M  V30 5871 C 568.837 -0.797649 -1.86128 0
M  V30 5872 C 569.165 0.676298 -1.82364 0
M  V30 5873 O 568.42 1.51223 -1.24218 0
M  V30 5874 C 568.719 -1.25191 -3.34757 0
M  V30 5875 C 568.385 -2.73191 -3.58716 0
M  V30 5876 C 567.047 -3.13616 -3.64964 0
M  V30 5877 C 569.399 -3.68718 -3.6837 0
M  V30 5878 C 566.727 -4.48383 -3.78377 0
M  V30 5879 C 569.079 -5.03248 -3.83306 0
M  V30 5880 C 567.743 -5.43293 -3.878 0
M  V30 5881 H 567.013 -0.29188 -0.681092 0
M  V30 5882 H 569.66 -1.34524 -1.36292 0
M  V30 5883 H 567.965 -0.623712 -3.86804 0
M  V30 5884 H 569.662 -1.01489 -3.87945 0
M  V30 5885 H 566.252 -2.40898 -3.54494 0
M  V30 5886 H 570.436 -3.38614 -3.62842 0
M  V30 5887 H 565.692 -4.78877 -3.80114 0
M  V30 5888 H 569.866 -5.77142 -3.89718 0
M  V30 5889 H 567.493 -6.47721 -3.97946 0
M  V30 5890 N 569.068 1.32177 -0.85831 0
M  V30 5891 C 570.293 2.01847 -0.476718 0
M  V30 5892 C 570.718 1.64065 0.920021 0
M  V30 5893 O 570.076 0.843189 1.60499 0
M  V30 5894 C 570.124 3.55097 -0.627578 0
M  V30 5895 O 569.228 4.11012 0.338086 0
M  V30 5896 H 568.569 0.635907 -0.191099 0
M  V30 5897 H 571.099 1.68641 -1.15851 0
M  V30 5898 H 571.109 4.04718 -0.516476 0
M  V30 5899 H 569.784 3.81938 -1.64609 0
M  V30 5900 H 568.361 3.72451 0.182917 0
M  V30 5901 N 570.547 0.616602 1.45037 0
M  V30 5902 C 571.963 0.280994 1.57107 0
M  V30 5903 C 572.163 -1.21627 1.60653 0
M  V30 5904 O 571.219 -1.9997 1.54169 0
M  V30 5905 C 572.532 0.960116 2.8496 0
M  V30 5906 C 574.08 0.936884 2.98649 0
M  V30 5907 C 574.555 1.59619 4.29285 0
M  V30 5908 N 576.046 1.5621 4.36065 0
M  V30 5909 C 576.781 2.04131 5.35834 0
M  V30 5910 N 576.277 2.60177 6.4209 0
M  V30 5911 N 578.07 1.94845 5.27249 0
M  V30 5912 H 570.221 1.58867 1.40979 0
M  V30 5913 H 572.484 0.666024 0.674623 0
M  V30 5914 H 572.19 2.01473 2.88273 0
M  V30 5915 H 572.064 0.488921 3.74018 0
M  V30 5916 H 574.451 -0.109209 2.94898 0
M  V30 5917 H 574.532 1.44643 2.10979 0
M  V30 5918 H 574.176 2.64166 4.33796 0
M  V30 5919 H 574.106 1.06159 5.15789 0
M  V30 5920 H 576.597 1.15276 3.59889 0
M  V30 5921 H 576.91 2.94513 7.1448 0
M  V30 5922 H 575.255 2.64221 6.42816 0
M  V30 5923 H 578.446 1.50792 4.43147 0
M  V30 5924 H 578.619 2.32504 6.04852 0
M  V30 5925 N 572.025 -1.5352 0.356285 0
M  V30 5926 C 572.975 -2.22204 -0.510815 0
M  V30 5927 C 573.959 -1.21393 -1.05605 0
M  V30 5928 O 575.151 -1.46883 -0.987639 0
M  V30 5929 C 572.28 -3.00786 -1.65478 0
M  V30 5930 C 571.366 -4.08965 -1.12287 0
M  V30 5931 N 571.757 -5.04829 -0.313191 0
M  V30 5932 C 570.055 -4.23505 -1.39856 0
M  V30 5933 C 570.756 -5.81695 -0.0230322 0
M  V30 5934 N 569.732 -5.40074 -0.618144 0
M  V30 5935 H 573.534 -2.93676 0.114711 0
M  V30 5936 H 571.048 -1.61572 0.163811 0
M  V30 5937 H 573.045 -3.48502 -2.28806 0
M  V30 5938 H 571.705 -2.30843 -2.28345 0
M  V30 5939 H 572.716 -5.17879 0.0468202 0
M  V30 5940 H 569.393 -3.64786 -2.0307 0
M  V30 5941 H 570.783 -6.68931 0.630927 0
M  V30 5942 N 573.503 -0.0852151 -1.57369 0
M  V30 5943 C 574.919 0.271436 -1.57275 0
M  V30 5944 C 575.119 1.69109 -1.09565 0
M  V30 5945 O 574.175 2.40549 -0.767611 0
M  V30 5946 C 575.488 0.0688638 -3.00621 0
M  V30 5947 C 577.036 0.137373 -3.12698 0
M  V30 5948 C 577.511 -0.0370832 -4.57985 0
M  V30 5949 N 579.002 0.0180794 -4.63196 0
M  V30 5950 C 579.737 -0.0922953 -5.73326 0
M  V30 5951 N 579.233 -0.256948 -6.92323 0
M  V30 5952 N 581.026 -0.0342702 -5.6209 0
M  V30 5953 H 573.177 -1.01288 -1.86693 0
M  V30 5954 H 575.44 -0.396138 -0.861266 0
M  V30 5955 H 575.146 -0.911277 -3.39689 0
M  V30 5956 H 575.02 0.815442 -3.6828 0
M  V30 5957 H 577.407 1.10801 -2.73509 0
M  V30 5958 H 577.488 -0.640532 -2.47651 0
M  V30 5959 H 577.132 -1.00455 -4.97867 0
M  V30 5960 H 577.062 0.760392 -5.21081 0
M  V30 5961 H 579.553 0.143202 -3.77629 0
M  V30 5962 H 579.866 -0.332949 -7.72082 0
M  V30 5963 H 578.211 -0.292487 -6.94384 0
M  V30 5964 H 581.402 0.0931605 -4.68007 0
M  V30 5965 H 581.575 -0.12374 -6.47882 0
M  V30 5966 N 574.981 1.5647 0.188427 0
M  V30 5967 C 576.206 1.85486 0.927891 0
M  V30 5968 C 576.631 0.669575 1.75779 0
M  V30 5969 O 575.989 -0.381573 1.77239 0
M  V30 5970 C 576.037 3.12784 1.7944 0
M  V30 5971 O 575.141 2.93805 2.894 0
M  V30 5972 H 574.482 0.610585 0.260925 0
M  V30 5973 H 577.012 2.037 0.191729 0
M  V30 5974 H 577.022 3.43749 2.19774 0
M  V30 5975 H 575.697 3.98671 1.18468 0
M  V30 5976 H 574.274 2.74153 2.52774 0
M  V30 5977 N 576.459 -0.456382 1.50847 0
M  V30 5978 C 577.389 -1.56025 1.73719 0
M  V30 5979 C 578.37 -1.5967 0.586473 0
M  V30 5980 O 579.555 -1.75702 0.827185 0
M  V30 5981 C 576.685 -2.94251 1.84483 0
M  V30 5982 C 575.639 -3.05471 2.99786 0
M  V30 5983 C 574.965 -4.45489 2.95709 0
M  V30 5984 C 576.265 -2.81318 4.40065 0
M  V30 5985 H 577.959 -1.37138 2.66146 0
M  V30 5986 H 575.505 -0.658299 1.28072 0
M  V30 5987 H 577.458 -3.71417 1.99067 0
M  V30 5988 H 576.182 -3.14328 0.886891 0
M  V30 5989 H 574.841 -2.30741 2.84876 0
M  V30 5990 H 574.489 -4.62505 1.97732 0
M  V30 5991 H 574.189 -4.53929 3.73125 0
M  V30 5992 H 575.713 -5.24655 3.12362 0
M  V30 5993 H 577.127 -3.48226 4.55425 0
M  V30 5994 H 575.524 -3.01188 5.19043 0
M  V30 5995 H 576.594 -1.7706 4.51418 0
M  V30 5996 N 577.937 -1.40673 -0.710563 0
M  V30 5997 C 579.162 -1.42741 -1.50465 0
M  V30 5998 C 579.587 -0.0302116 -1.88076 0
M  V30 5999 O 578.945 0.962945 -1.53613 0
M  V30 6000 C 578.993 -2.32873 -2.75322 0
M  V30 6001 O 578.097 -1.77544 -3.72226 0
M  V30 6002 H 577.438 -0.485056 -0.45345 0
M  V30 6003 H 579.968 -1.84961 -0.874681 0
M  V30 6004 H 579.978 -2.48233 -3.23797 0
M  V30 6005 H 578.653 -3.34401 -2.47283 0
M  V30 6006 H 577.23 -1.71556 -3.31093 0
M  V30 6007 N 579.415 0.9433 -1.26252 0
M  V30 6008 C 580.826 1.50404 -1.10614 0
M  V30 6009 C 581.177 1.93666 0.31429 0
M  V30 6010 O 580.302 1.79709 1.20555 0
M  V30 6011 C 580.897 2.73336 -2.00182 0
M  V30 6012 C 579.456 3.25686 -1.88695 0
M  V30 6013 C 578.603 1.98474 -1.93658 0
M  V30 6014 H 581.554 0.759006 -1.39373 0
M  V30 6015 H 581.575 3.47567 -1.54847 0
M  V30 6016 H 581.087 2.41818 -3.03555 0
M  V30 6017 H 579.188 3.61998 -0.882489 0
M  V30 6018 H 579.301 3.92935 -2.74115 0
M  V30 6019 H 577.665 2.14278 -1.37684 0
M  V30 6020 H 578.448 1.6929 -2.98657 0
M  V30 6021 N 580.893 1.08022 1.14757 0
M  V30 6022 C 582.139 0.808705 1.85978 0
M  V30 6023 C 582.472 -0.663764 1.82504 0
M  V30 6024 O 581.747 -1.48765 1.25296 0
M  V30 6025 C 582.03 1.32623 3.34788 0
M  V30 6026 C 581.883 2.86375 3.46856 0
M  V30 6027 C 583.202 0.948291 4.29762 0
M  V30 6028 H 580.321 0.295244 0.675278 0
M  V30 6029 H 582.963 1.33917 1.34783 0
M  V30 6030 H 581.113 0.875002 3.78518 0
M  V30 6031 H 582.785 3.39839 3.11941 0
M  V30 6032 H 581.028 3.24232 2.88194 0
M  V30 6033 H 581.699 3.17658 4.51439 0
M  V30 6034 H 584.175 1.33722 3.94028 0
M  V30 6035 H 583.051 1.33765 5.32352 0
M  V30 6036 H 583.312 -0.145094 4.41862 0
M  V30 6037 N 582.371 -1.3172 0.865308 0
M  V30 6038 C 583.321 -2.26157 0.289305 0
M  V30 6039 C 584.305 -1.50428 -0.570977 0
M  V30 6040 O 585.497 -1.71978 -0.418617 0
M  V30 6041 C 582.626 -3.39457 -0.512237 0
M  V30 6042 C 581.712 -4.22561 0.361028 0
M  V30 6043 N 582.103 -4.84501 1.45231 0
M  V30 6044 C 580.401 -4.45739 0.152641 0
M  V30 6045 C 581.102 -5.46586 1.99043 0
M  V30 6046 N 580.078 -5.28119 1.28809 0
M  V30 6047 H 583.88 -2.71581 1.12344 0
M  V30 6048 H 581.394 -1.45932 0.712565 0
M  V30 6049 H 583.391 -4.06133 -0.941379 0
M  V30 6050 H 582.051 -2.95577 -1.34404 0
M  V30 6051 H 583.062 -4.84293 1.83524 0
M  V30 6052 H 579.739 -4.1251 -0.643583 0
M  V30 6053 H 581.129 -6.05817 2.90577 0
M  V30 6054 N 583.85 -0.624285 -1.44708 0
M  V30 6055 C 584.779 0.0717025 -2.3339 0
M  V30 6056 C 585.76 0.841814 -1.47809 0
M  V30 6057 O 586.946 0.809056 -1.76544 0
M  V30 6058 C 584.076 1.05852 -3.30776 0
M  V30 6059 C 583.029 0.400503 -4.26122 0
M  V30 6060 C 582.356 1.49674 -5.13324 0
M  V30 6061 C 583.656 -0.688924 -5.17737 0
M  V30 6062 H 585.35 -0.668819 -2.91834 0
M  V30 6063 H 582.896 -0.32308 -1.40329 0
M  V30 6064 H 584.849 1.5541 -3.91696 0
M  V30 6065 H 583.572 1.82984 -2.70526 0
M  V30 6066 H 582.231 -0.0743687 -3.66525 0
M  V30 6067 H 581.88 2.25877 -4.49431 0
M  V30 6068 H 581.58 1.06188 -5.77926 0
M  V30 6069 H 583.104 1.99427 -5.77115 0
M  V30 6070 H 584.518 -0.276724 -5.72632 0
M  V30 6071 H 582.915 -1.04652 -5.90904 0
M  V30 6072 H 583.985 -1.55884 -4.5916 0
M  V30 6073 N 585.328 1.53329 -0.364422 0
M  V30 6074 C 586.26 2.23286 0.517293 0
M  V30 6075 C 587.273 1.24657 1.04711 0
M  V30 6076 O 588.462 1.50887 0.95369 0
M  V30 6077 C 585.562 2.91604 1.72685 0
M  V30 6078 C 584.735 4.1673 1.32873 0
M  V30 6079 C 583.794 4.68269 2.40022 0
M  V30 6080 O 582.82 5.31976 2.02461 0
M  V30 6081 N 584.022 4.45983 3.7159 0
M  V30 6082 H 586.787 2.99588 -0.0819391 0
M  V30 6083 H 584.348 1.60787 -0.189544 0
M  V30 6084 H 586.34 3.22992 2.4384 0
M  V30 6085 H 584.91 2.18763 2.23297 0
M  V30 6086 H 584.13 3.91657 0.447069 0
M  V30 6087 H 585.418 4.98078 1.03902 0
M  V30 6088 H 584.816 3.95077 4.04883 0
M  V30 6089 H 583.373 4.81924 4.38854 0
M  V30 6090 N 586.806 0.0935595 1.57322 0
M  V30 6091 C 588.036 -0.578095 1.98347 0
M  V30 6092 C 588.444 -1.62357 0.971441 0
M  V30 6093 O 587.787 -1.83639 -0.0473959 0
M  V30 6094 C 587.849 -1.28525 3.3574 0
M  V30 6095 C 587.513 -0.390714 4.55327 0
M  V30 6096 C 588.51 0.360522 5.18648 0
M  V30 6097 C 586.195 -0.309221 5.01347 0
M  V30 6098 C 588.189 1.18125 6.26359 0
M  V30 6099 C 585.876 0.515157 6.08925 0
M  V30 6100 C 586.874 1.25904 6.71295 0
M  V30 6101 O 586.562 2.06978 7.76798 0
M  V30 6102 H 586.294 -0.159767 0.656849 0
M  V30 6103 H 588.848 0.169058 2.04703 0
M  V30 6104 H 587.078 -2.07894 3.26063 0
M  V30 6105 H 588.767 -1.85128 3.61223 0
M  V30 6106 H 589.533 0.307285 4.84026 0
M  V30 6107 H 585.412 -0.877881 4.52564 0
M  V30 6108 H 588.956 1.76236 6.74971 0
M  V30 6109 H 584.853 0.56988 6.42979 0
M  V30 6110 H 585.621 1.99644 7.93779 0
M  V30 6111 N 588.284 -1.56567 -0.180126 0
M  V30 6112 C 589.214 -1.98753 -1.22553 0
M  V30 6113 C 590.195 -0.86175 -1.46656 0
M  V30 6114 O 591.38 -1.12719 -1.58139 0
M  V30 6115 C 588.51 -2.33988 -2.56645 0
M  V30 6116 C 587.464 -3.49445 -2.47128 0
M  V30 6117 C 586.79 -3.70397 -3.8563 0
M  V30 6118 C 588.09 -4.83171 -1.98352 0
M  V30 6119 H 589.784 -2.86332 -0.874896 0
M  V30 6120 H 587.33 -1.37757 -0.419414 0
M  V30 6121 H 589.283 -2.62097 -3.29974 0
M  V30 6122 H 588.007 -1.43309 -2.93479 0
M  V30 6123 H 586.666 -3.2145 -1.76254 0
M  V30 6124 H 586.314 -2.77023 -4.19842 0
M  V30 6125 H 586.014 -4.48077 -3.80132 0
M  V30 6126 H 587.538 -4.00897 -4.60558 0
M  V30 6127 H 588.952 -5.10213 -2.61449 0
M  V30 6128 H 587.349 -5.64425 -2.03823 0
M  V30 6129 H 588.419 -4.75753 -0.937402 0
M  V30 6130 N 589.762 0.448376 -1.51087 0
M  V30 6131 C 591.178 0.783984 -1.39017 0
M  V30 6132 C 591.378 1.96087 -0.463904 0
M  V30 6133 O 590.434 2.52357 0.0850534 0
M  V30 6134 C 591.747 1.07471 -2.80839 0
M  V30 6135 C 593.295 1.17981 -2.89913 0
M  V30 6136 C 593.77 1.50354 -4.32617 0
M  V30 6137 N 595.261 1.57301 -4.35673 0
M  V30 6138 C 595.996 1.839 -5.4311 0
M  V30 6139 N 595.492 2.08365 -6.60724 0
M  V30 6140 N 597.285 1.8559 -5.30578 0
M  V30 6141 H 589.436 -0.326881 -2.0987 0
M  V30 6142 H 591.699 -0.0838006 -0.944289 0
M  V30 6143 H 591.405 0.282768 -3.50561 0
M  V30 6144 H 591.279 2.00519 -3.19487 0
M  V30 6145 H 593.666 1.9624 -2.20395 0
M  V30 6146 H 593.747 0.228603 -2.54776 0
M  V30 6147 H 593.391 0.726273 -5.0268 0
M  V30 6148 H 593.321 2.46663 -4.65258 0
M  V30 6149 H 595.812 1.40342 -3.50874 0
M  V30 6150 H 596.125 2.27999 -7.38401 0
M  V30 6151 H 594.47 2.0571 -6.63859 0
M  V30 6152 H 597.661 1.65989 -4.37682 0
M  V30 6153 H 597.834 2.05983 -6.1439 0
M  V30 6154 N 591.24 1.41047 0.703093 0
M  V30 6155 C 592.188 1.42494 1.83843 0
M  V30 6156 C 593.182 0.303885 1.66652 0
M  V30 6157 O 594.388 0.475544 1.73605 0
M  V30 6158 H 590.763 0.445685 0.605697 0
M  V30 6159 H 592.734 2.38194 1.79739 0
M  V30 6160 C 591.483 1.31666 3.21807 0
M  V30 6161 H 590.806 2.17212 3.35647 0
M  V30 6162 H 592.246 1.36738 4.01346 0
M  V30 6163 C 590.705 0.0281828 3.36888 0
M  V30 6164 O 591.235 -0.929995 3.90786 0
M  V30 6165 N 589.441 -0.0454322 2.90564 0
M  V30 6166 H 588.988 0.735046 2.4689 0
M  V30 6167 H 588.946 -0.906968 3.01034 0
M  V30 6168 N 592.718 -0.936591 1.26751 0
M  V30 6169 C 593.651 -2.03619 1.03027 0
M  V30 6170 C 594.629 -1.62534 -0.0464619 0
M  V30 6171 O 595.813 -1.88251 0.0968873 0
M  V30 6172 C 592.94 -3.3402 0.561072 0
M  V30 6173 C 591.986 -3.9408 1.63105 0
M  V30 6174 S 592.819 -4.27782 3.22122 0
M  V30 6175 C 593.975 -5.61277 2.76982 0
M  V30 6176 H 594.208 -2.23429 1.96129 0
M  V30 6177 H 591.741 -1.07857 1.10482 0
M  V30 6178 H 593.699 -4.09424 0.297031 0
M  V30 6179 H 592.36 -3.12147 -0.349741 0
M  V30 6180 H 591.553 -4.88154 1.25386 0
M  V30 6181 H 591.155 -3.25227 1.84671 0
M  V30 6182 H 593.447 -6.40189 2.21731 0
M  V30 6183 H 594.39 -6.03887 3.69766 0
M  V30 6184 H 594.798 -5.21374 2.16402 0
M  V30 6185 N 594.196 -1.08629 -1.14182 0
M  V30 6186 C 595.444 -0.815731 -1.84906 0
M  V30 6187 C 595.765 0.660441 -1.83475 0
M  V30 6188 O 595.035 1.47888 -1.28476 0
M  V30 6189 H 593.615 -0.298773 -0.684648 0
M  V30 6190 H 596.277 -1.37274 -1.38354 0
M  V30 6191 H 595.373 -1.16193 -2.89665 0
M  V30 6192 N 595.674 1.31259 -0.872281 0
M  V30 6193 C 596.92 1.96913 -0.485083 0
M  V30 6194 C 597.253 1.68774 0.960667 0
M  V30 6195 O 596.528 0.985495 1.67685 0
M  V30 6196 C 596.811 3.52299 -0.745502 0
M  V30 6197 C 596.664 3.90002 -2.24095 0
M  V30 6198 C 597.983 4.39582 -0.213516 0
M  V30 6199 H 595.102 0.715252 -0.177716 0
M  V30 6200 H 597.744 1.55347 -1.09395 0
M  V30 6201 H 595.894 3.87835 -0.227276 0
M  V30 6202 H 597.566 3.64555 -2.82661 0
M  V30 6203 H 595.809 3.38526 -2.71261 0
M  V30 6204 H 596.48 4.98352 -2.37381 0
M  V30 6205 H 598.956 4.10882 -0.656902 0
M  V30 6206 H 597.832 5.47251 -0.42516 0
M  V30 6207 H 598.093 4.33158 0.884666 0
M  V30 6208 N 597.152 0.631951 1.44375 0
M  V30 6209 C 598.38 0.143867 2.06399 0
M  V30 6210 C 598.795 -1.18188 1.47231 0
M  V30 6211 O 598.152 -1.72511 0.595498 0
M  V30 6212 C 598.203 0.0238253 3.61492 0
M  V30 6213 O 597.924 1.29715 4.18456 0
M  V30 6214 C 599.425 -0.492856 4.40552 0
M  V30 6215 H 596.645 0.0800542 0.666207 0
M  V30 6216 H 599.189 0.866586 1.85231 0
M  V30 6217 H 597.344 -0.649338 3.81919 0
M  V30 6218 H 597.758 1.14252 5.11905 0
M  V30 6219 H 599.232 -0.525861 5.49489 0
M  V30 6220 H 599.709 -1.52006 4.12057 0
M  V30 6221 H 600.315 0.147085 4.25046 0
M  V30 6222 N 598.631 -1.53133 0.372548 0
M  V30 6223 C 599.594 -2.24569 -0.458389 0
M  V30 6224 C 600.594 -1.25603 -1.00402 0
M  V30 6225 O 601.784 -1.49827 -0.888672 0
M  V30 6226 C 598.916 -2.98783 -1.6414 0
M  V30 6227 H 600.109 -2.99436 0.166799 0
M  V30 6228 H 597.662 -1.55805 0.124357 0
M  V30 6229 H 598.397 -2.28176 -2.30448 0
M  V30 6230 H 598.182 -3.71404 -1.25704 0
M  V30 6231 H 599.672 -3.53068 -2.23008 0
M  V30 6232 N 600.109 -0.101901 -1.5727 0
M  V30 6233 C 601.334 0.571759 -1.99363 0
M  V30 6234 C 601.759 1.60507 -0.980768 0
M  V30 6235 O 601.117 1.81231 0.0498517 0
M  V30 6236 C 601.165 1.18996 -3.404 0
M  V30 6237 O 600.269 2.30572 -3.41922 0
M  V30 6238 H 599.61 0.144449 -0.648098 0
M  V30 6239 H 602.14 -0.185325 -2.03759 0
M  V30 6240 H 602.15 1.52962 -3.78241 0
M  V30 6241 H 600.825 0.432984 -4.1364 0
M  V30 6242 H 599.402 1.98173 -3.15883 0
M  V30 6243 N 601.587 1.56661 0.17182 0
M  V30 6244 C 602.52 1.91474 1.24149 0
M  V30 6245 C 603.498 0.777485 1.42807 0
M  V30 6246 O 604.682 1.03075 1.57822 0
M  V30 6247 C 601.809 2.16523 2.60453 0
M  V30 6248 C 600.855 3.39209 2.58533 0
M  V30 6249 S 601.688 4.93594 2.07665 0
M  V30 6250 C 602.844 5.21737 3.45747 0
M  V30 6251 H 603.077 2.81903 0.944346 0
M  V30 6252 H 600.61 1.49743 0.376364 0
M  V30 6253 H 602.568 2.31635 3.38903 0
M  V30 6254 H 601.229 1.26802 2.87368 0
M  V30 6255 H 600.422 3.53935 3.58812 0
M  V30 6256 H 600.024 3.2321 1.88178 0
M  V30 6257 H 602.316 5.13684 4.41741 0
M  V30 6258 H 603.259 6.23361 3.35896 0
M  V30 6259 H 603.667 4.49307 3.41736 0
M  V30 6260 N 603.065 -0.440357 1.51323 0
M  V30 6261 C 604.29 -1.21716 1.67928 0
M  V30 6262 C 604.715 -1.84328 0.374826 0
M  V30 6263 O 604.073 -1.68675 -0.664706 0
M  V30 6264 C 604.121 -2.27914 2.79442 0
M  V30 6265 O 603.225 -3.33325 2.42834 0
M  V30 6266 H 602.566 -0.35674 0.560029 0
M  V30 6267 H 605.096 -0.520417 1.97871 0
M  V30 6268 H 605.106 -2.72746 3.03436 0
M  V30 6269 H 603.781 -1.8172 3.741 0
M  V30 6270 H 602.358 -2.9399 2.294 0
M  V30 6271 N 604.543 -1.41418 -0.695603 0
M  V30 6272 C 605.79 -1.40774 -1.45564 0
M  V30 6273 C 606.118 -0.0168604 -1.94493 0
M  V30 6274 O 605.373 0.971259 -1.69897 0
M  V30 6275 C 605.672 -2.36112 -2.68302 0
M  V30 6276 C 605.338 -3.82952 -2.38031 0
M  V30 6277 C 604 -4.22954 -2.29486 0
M  V30 6278 C 606.352 -4.75662 -2.13061 0
M  V30 6279 C 603.68 -5.53674 -1.94067 0
M  V30 6280 C 606.032 -6.06702 -1.79151 0
M  V30 6281 C 604.696 -6.45725 -1.69102 0
M  V30 6282 H 603.966 -0.515128 -0.532658 0
M  V30 6283 H 606.613 -1.74216 -0.795047 0
M  V30 6284 H 604.918 -1.95924 -3.39295 0
M  V30 6285 H 606.615 -2.32887 -3.26442 0
M  V30 6286 H 603.205 -3.5127 -2.45576 0
M  V30 6287 H 607.389 -4.45561 -2.18608 0
M  V30 6288 H 602.645 -5.8279 -1.8484 0
M  V30 6289 H 606.819 -6.78041 -1.5885 0
M  V30 6290 H 604.446 -7.46929 -1.41426 0
M  V30 6291 N 606.021 0.929856 -1.27246 0
M  V30 6292 C 607.246 1.71674 -1.16374 0
M  V30 6293 C 607.671 1.86064 0.276024 0
M  V30 6294 O 607.029 1.3591 1.19992 0
M  V30 6295 C 607.077 3.09526 -1.85003 0
M  V30 6296 O 606.181 3.96142 -1.14653 0
M  V30 6297 H 605.522 0.52629 -0.404863 0
M  V30 6298 H 608.052 1.16381 -1.68276 0
M  V30 6299 H 608.062 3.59852 -1.92276 0
M  V30 6300 H 606.737 2.98369 -2.89739 0
M  V30 6301 H 605.314 3.54584 -1.15433 0
M  V30 6302 N 607.499 1.09233 1.13605 0
M  V30 6303 C 608.748 0.82205 1.84188 0
M  V30 6304 C 609.061 -0.654548 1.84323 0
M  V30 6305 O 610.267 -1.04029 2.50779 0
M  V30 6306 C 608.723 1.42066 3.30674 0
M  V30 6307 C 608.331 2.92965 3.38933 0
M  V30 6308 C 610.075 1.22924 4.06313 0
M  V30 6309 C 607.982 3.45922 4.79679 0
M  V30 6310 H 606.912 0.303854 0.690064 0
M  V30 6311 H 609.563 1.31479 1.28006 0
M  V30 6312 H 607.945 0.855613 3.86646 0
M  V30 6313 H 609.119 3.55679 2.92966 0
M  V30 6314 H 607.434 3.11118 2.76757 0
M  V30 6315 H 610.031 1.59945 5.10217 0
M  V30 6316 H 610.374 0.169726 4.15954 0
M  V30 6317 H 610.907 1.76168 3.56665 0
M  V30 6318 H 607.646 4.51484 4.75229 0
M  V30 6319 H 607.166 2.87971 5.26149 0
M  V30 6320 H 608.845 3.43009 5.48592 0
M  V30 6321 N 608.977 -1.30795 0.87923 0
M  V30 6322 C 609.907 -2.30742 0.357796 0
M  V30 6323 C 610.888 -1.60747 -0.556283 0
M  V30 6324 O 612.073 -1.88393 -0.47135 0
M  V30 6325 C 609.203 -3.44583 -0.433555 0
M  V30 6326 C 608.157 -4.26235 0.388251 0
M  V30 6327 C 607.483 -5.32073 -0.529352 0
M  V30 6328 C 608.783 -4.96303 1.62729 0
M  V30 6329 H 610.477 -2.74605 1.19299 0
M  V30 6330 H 608.023 -1.32017 0.575104 0
M  V30 6331 H 609.976 -4.13563 -0.808934 0
M  V30 6332 H 608.7 -2.99511 -1.30234 0
M  V30 6333 H 607.359 -3.58936 0.745695 0
M  V30 6334 H 607.007 -4.83249 -1.39569 0
M  V30 6335 H 606.707 -5.87598 0.0166741 0
M  V30 6336 H 608.231 -6.0391 -0.901373 0
M  V30 6337 H 609.645 -5.5783 1.32283 0
M  V30 6338 H 608.042 -5.61666 2.11309 0
M  V30 6339 H 609.112 -4.22758 2.37494 0
M  V30 6340 N 610.455 -0.639598 -1.44038 0
M  V30 6341 C 611.701 -0.147698 -2.02261 0
M  V30 6342 C 612.034 1.23031 -1.50256 0
M  V30 6343 O 611.309 1.81847 -0.690068 0
M  V30 6344 C 611.592 -0.14362 -3.59813 0
M  V30 6345 C 611.445 -1.55458 -4.22082 0
M  V30 6346 C 612.764 0.527317 -4.36929 0
M  V30 6347 H 609.883 -0.0551453 -0.734934 0
M  V30 6348 H 612.525 -0.817688 -1.71505 0
M  V30 6349 H 610.675 0.426898 -3.86147 0
M  V30 6350 H 612.347 -2.17464 -4.06826 0
M  V30 6351 H 610.59 -2.10594 -3.79253 0
M  V30 6352 H 611.261 -1.50369 -5.31124 0
M  V30 6353 H 613.737 0.0420504 -4.16079 0
M  V30 6354 H 612.613 0.499389 -5.46624 0
M  V30 6355 H 612.874 1.59914 -4.12165 0
M  V30 6356 N 611.933 1.52934 -0.380664 0
M  V30 6357 C 612.843 2.29921 0.466192 0
M  V30 6358 C 613.859 1.36488 1.07922 0
M  V30 6359 O 615.035 1.69553 1.0869 0
M  V30 6360 C 612.1 3.08468 1.58266 0
M  V30 6361 C 611.161 4.17595 0.995627 0
M  V30 6362 C 610.394 4.92387 2.05889 0
M  V30 6363 O 610.617 4.67184 3.27254 0
M  V30 6364 O 609.551 5.77949 1.68102 0
M  V30 6365 H 613.377 3.03274 -0.160735 0
M  V30 6366 H 610.962 1.48698 -0.144617 0
M  V30 6367 H 612.844 3.57469 2.23145 0
M  V30 6368 H 611.519 2.37937 2.19471 0
M  V30 6369 H 610.426 3.72811 0.310332 0
M  V30 6370 H 611.759 4.90336 0.427918 0
M  V30 6371 N 613.412 0.11024 1.57214 0
M  V30 6372 C 614.66 -0.548783 1.94506 0
M  V30 6373 C 614.981 -1.67772 0.99386 0
M  V30 6374 O 614.251 -1.9584 0.0485841 0
M  V30 6375 H 612.831 -0.205715 0.718116 0
M  V30 6376 H 615.493 0.177127 1.94093 0
M  V30 6377 H 614.589 -0.949096 2.97319 0
M  V30 6378 N 614.89 -1.56749 -0.16351 0
M  V30 6379 C 616.306 -1.51043 -0.515567 0
M  V30 6380 C 616.506 -0.815855 -1.84245 0
M  V30 6381 O 615.562 -0.379477 -2.49632 0
M  V30 6382 C 616.875 -2.95791 -0.541114 0
M  V30 6383 C 618.423 -3.0664 -0.627776 0
M  V30 6384 C 618.898 -4.52861 -0.684141 0
M  V30 6385 N 620.389 -4.5714 -0.746818 0
M  V30 6386 C 621.124 -5.67634 -0.811137 0
M  V30 6387 N 620.62 -6.8774 -0.835811 0
M  V30 6388 N 622.413 -5.55624 -0.850756 0
M  V30 6389 H 614.564 -2.00307 0.70645 0
M  V30 6390 H 616.827 -0.912876 0.255659 0
M  V30 6391 H 616.533 -3.49797 0.365329 0
M  V30 6392 H 616.407 -3.50858 -1.38487 0
M  V30 6393 H 618.794 -2.52663 -1.52464 0
M  V30 6394 H 618.875 -2.54645 0.242805 0
M  V30 6395 H 618.519 -5.07472 0.2085 0
M  V30 6396 H 618.449 -5.02621 -1.57098 0
M  V30 6397 H 620.94 -3.70669 -0.735717 0
M  V30 6398 H 621.253 -7.67701 -0.886279 0
M  V30 6399 H 619.598 -6.90334 -0.803958 0
M  V30 6400 H 622.789 -4.60709 -0.828535 0
M  V30 6401 H 622.962 -6.41756 -0.897418 0
M  V30 6402 N 616.368 0.432326 -1.51554 0
M  V30 6403 C 617.298 1.53242 -1.76179 0
M  V30 6404 C 618.279 1.58717 -0.611801 0
M  V30 6405 O 619.464 1.74364 -0.855033 0
M  V30 6406 C 616.594 2.91278 -1.89141 0
M  V30 6407 C 615.548 3.00663 -3.04608 0
M  V30 6408 C 614.874 4.40728 -3.02759 0
M  V30 6409 C 616.174 2.74281 -4.44485 0
M  V30 6410 H 617.868 1.32886 -2.68294 0
M  V30 6411 H 615.414 0.637841 -1.29103 0
M  V30 6412 H 617.367 3.68203 -2.04951 0
M  V30 6413 H 616.091 3.12877 -0.936785 0
M  V30 6414 H 614.75 2.26179 -2.88511 0
M  V30 6415 H 614.398 4.59301 -2.05065 0
M  V30 6416 H 614.098 4.47936 -3.80299 0
M  V30 6417 H 615.622 5.19619 -3.20669 0
M  V30 6418 H 617.036 3.40936 -4.60907 0
M  V30 6419 H 615.433 2.92893 -5.23769 0
M  V30 6420 H 616.503 1.69856 -4.54177 0
M  V30 6421 N 617.846 1.41785 0.688094 0
M  V30 6422 C 619.092 1.42753 1.4489 0
M  V30 6423 C 619.447 0.0384235 1.92362 0
M  V30 6424 O 618.74 -0.937066 1.67122 0
M  V30 6425 C 618.934 2.37532 2.67046 0
M  V30 6426 C 618.763 3.85521 2.31525 0
M  V30 6427 C 617.533 4.54152 2.21527 0
M  V30 6428 C 619.731 4.76299 1.94019 0
M  V30 6429 N 617.713 5.87233 1.78969 0
M  V30 6430 C 619.084 5.98386 1.62279 0
M  V30 6431 C 621.139 4.63877 1.80895 0
M  V30 6432 C 619.842 7.09433 1.18732 0
M  V30 6433 C 621.868 5.74893 1.38752 0
M  V30 6434 C 621.23 6.96083 1.07927 0
M  V30 6435 H 617.329 0.577575 0.527192 0
M  V30 6436 H 619.913 1.77713 0.795375 0
M  V30 6437 H 618.084 2.04656 3.30107 0
M  V30 6438 H 619.816 2.29169 3.33562 0
M  V30 6439 H 616.571 4.08188 2.40166 0
M  V30 6440 H 616.995 6.57785 1.60151 0
M  V30 6441 H 621.637 3.70671 2.03378 0
M  V30 6442 H 619.355 8.02497 0.949937 0
M  V30 6443 H 622.941 5.67287 1.29136 0
M  V30 6444 H 621.821 7.80527 0.758111 0
M  V30 6445 N 619.324 -0.923095 1.27737 0
M  V30 6446 C 620.572 -1.66797 1.14119 0
M  V30 6447 C 620.893 -1.92479 -0.312541 0
M  V30 6448 O 620.163 -1.53432 -1.218 0
M  V30 6449 H 618.743 -0.618196 0.419336 0
M  V30 6450 H 621.405 -1.10815 1.60331 0
M  V30 6451 H 620.501 -2.63424 1.67374 0
M  V30 6452 N 620.802 -1.09834 -1.13024 0
M  V30 6453 C 621.735 -0.685453 -2.17662 0
M  V30 6454 C 622.713 0.310142 -1.59615 0
M  V30 6455 O 623.897 0.21052 -1.87321 0
M  V30 6456 C 621.024 -0.0104476 -3.38698 0
M  V30 6457 C 620.07 -0.968522 -4.15358 0
M  V30 6458 S 620.903 -2.48272 -4.74469 0
M  V30 6459 C 622.059 -1.82025 -5.98847 0
M  V30 6460 H 622.292 -1.57187 -2.52348 0
M  V30 6461 H 619.825 -0.914728 -1.24387 0
M  V30 6462 H 621.783 0.372694 -4.08805 0
M  V30 6463 H 620.444 0.852673 -3.02305 0
M  V30 6464 H 619.637 -0.443373 -5.02046 0
M  V30 6465 H 619.239 -1.29327 -3.50928 0
M  V30 6466 H 621.531 -1.14678 -6.67724 0
M  V30 6467 H 622.474 -2.66645 -6.55977 0
M  V30 6468 H 622.882 -1.2874 -5.49624 0
M  V30 6469 N 622.28 1.30327 -0.886154 0
M  V30 6470 C 623.526 1.96388 -0.505941 0
M  V30 6471 C 623.859 1.69784 0.942712 0
M  V30 6472 O 623.134 1.00322 1.6663 0
M  V30 6473 C 623.417 3.51488 -0.782826 0
M  V30 6474 C 623.27 3.87603 -2.28219 0
M  V30 6475 C 624.589 4.39331 -0.260128 0
M  V30 6476 H 621.708 0.713327 -0.185292 0
M  V30 6477 H 624.35 1.54178 -1.11036 0
M  V30 6478 H 622.5 3.87572 -0.268399 0
M  V30 6479 H 624.172 3.61537 -2.86512 0
M  V30 6480 H 622.415 3.3563 -2.74837 0
M  V30 6481 H 623.086 4.95806 -2.42653 0
M  V30 6482 H 625.562 4.10162 -0.700444 0
M  V30 6483 H 624.438 5.46769 -0.483179 0
M  V30 6484 H 624.699 4.34072 0.838674 0
M  V30 6485 N 623.758 0.647228 1.43697 0
M  V30 6486 C 624.721 -0.0385101 2.29168 0
M  V30 6487 C 625.721 -0.756487 1.41894 0
M  V30 6488 O 626.911 -0.598641 1.63591 0
M  V30 6489 C 624.043 -1.06524 3.23829 0
M  V30 6490 H 625.236 0.713445 2.9129 0
M  V30 6491 H 622.789 0.408153 1.50877 0
M  V30 6492 H 623.524 -1.84664 2.66589 0
M  V30 6493 H 623.309 -0.554147 3.88164 0
M  V30 6494 H 624.799 -1.54432 3.87996 0
M  V30 6495 N 625.236 -1.5273 0.388769 0
M  V30 6496 C 626.199 -2.25043 -0.434544 0
M  V30 6497 C 627.199 -1.26661 -0.990644 0
M  V30 6498 O 628.389 -1.50762 -0.872731 0
M  V30 6499 C 625.521 -3.00507 -1.60961 0
M  V30 6500 H 626.714 -2.99242 0.198549 0
M  V30 6501 H 624.267 -1.55664 0.140875 0
M  V30 6502 H 625.002 -2.30607 -2.28015 0
M  V30 6503 H 624.787 -3.72716 -1.21757 0
M  V30 6504 H 626.277 -3.55413 -2.19251 0
M  V30 6505 N 626.714 -0.118576 -1.57153 0
M  V30 6506 C 627.664 0.842924 -2.11846 0
M  V30 6507 C 628.648 1.22845 -1.03914 0
M  V30 6508 O 629.84 1.19961 -1.30148 0
M  V30 6509 C 626.969 2.09312 -2.72109 0
M  V30 6510 C 626.055 1.73198 -3.87122 0
M  V30 6511 N 626.446 1.07758 -4.94188 0
M  V30 6512 C 624.744 2.02659 -3.97298 0
M  V30 6513 C 625.445 0.907741 -5.74574 0
M  V30 6514 N 624.421 1.4326 -5.24383 0
M  V30 6515 H 628.223 0.333416 -2.92003 0
M  V30 6516 H 625.737 0.0839073 -1.62183 0
M  V30 6517 H 627.734 2.79162 -3.09635 0
M  V30 6518 H 626.394 2.60807 -1.93416 0
M  V30 6519 H 627.405 0.741613 -5.12563 0
M  V30 6520 H 624.082 2.56204 -3.29645 0
M  V30 6521 H 625.472 0.394112 -6.70743 0
M  V30 6522 N 628.193 1.56834 0.155195 0
M  V30 6523 C 629.143 1.94061 1.19684 0
M  V30 6524 C 630.127 0.810851 1.38975 0
M  V30 6525 O 631.319 1.07422 1.40675 0
M  V30 6526 C 628.448 2.31778 2.53247 0
M  V30 6527 C 627.534 3.51305 2.37583 0
M  V30 6528 N 627.925 4.68081 1.9166 0
M  V30 6529 C 626.223 3.56228 2.6836 0
M  V30 6530 C 626.924 5.50193 1.88845 0
M  V30 6531 N 625.9 4.91676 2.31852 0
M  V30 6532 H 629.702 2.81826 0.833747 0
M  V30 6533 H 627.216 1.58284 0.363328 0
M  V30 6534 H 629.213 2.56649 3.28538 0
M  V30 6535 H 627.873 1.4536 2.90346 0
M  V30 6536 H 628.884 4.91993 1.6175 0
M  V30 6537 H 625.561 2.8033 3.09389 0
M  V30 6538 H 626.951 6.53801 1.54901 0
M  V30 6539 N 629.671 -0.424282 1.51781 0
M  V30 6540 C 631.087 -0.761768 1.40247 0
M  V30 6541 C 631.287 -1.95324 0.495041 0
M  V30 6542 O 630.343 -2.5246 -0.0448949 0
M  V30 6543 C 631.656 -1.0299 2.82513 0
M  V30 6544 C 633.204 -1.13354 2.91753 0
M  V30 6545 C 633.679 -1.43453 4.34954 0
M  V30 6546 N 635.17 -1.5035 4.3812 0
M  V30 6547 C 635.905 -1.75236 5.45967 0
M  V30 6548 N 635.401 -1.97827 6.63955 0
M  V30 6549 N 637.194 -1.77126 5.33463 0
M  V30 6550 H 629.345 0.360228 2.09323 0
M  V30 6551 H 631.608 0.0988128 0.942836 0
M  V30 6552 H 631.314 -0.226961 3.50967 0
M  V30 6553 H 631.188 -1.95411 3.22637 0
M  V30 6554 H 633.575 -1.92709 2.23489 0
M  V30 6555 H 633.656 -0.188041 2.55108 0
M  V30 6556 H 633.3 -0.646209 5.03772 0
M  V30 6557 H 633.23 -2.3923 4.69123 0
M  V30 6558 H 635.721 -1.34742 3.53062 0
M  V30 6559 H 636.034 -2.16223 7.41935 0
M  V30 6560 H 634.379 -1.95123 6.67047 0
M  V30 6561 H 637.57 -1.59005 4.40267 0
M  V30 6562 H 637.743 -1.96182 6.17589 0
M  V30 6563 N 631.149 -1.42148 -0.680565 0
M  V30 6564 C 632.081 -1.41119 -1.80605 0
M  V30 6565 C 633.094 -0.311099 -1.598 0
M  V30 6566 O 634.283 -0.573813 -1.69026 0
M  V30 6567 C 631.383 -1.18204 -3.17618 0
M  V30 6568 C 630.556 -2.40537 -3.65322 0
M  V30 6569 C 629.615 -2.13254 -4.8105 0
M  V30 6570 O 628.641 -2.8641 -4.91892 0
M  V30 6571 N 629.843 -1.13208 -5.69354 0
M  V30 6572 H 632.608 -2.38128 -1.81975 0
M  V30 6573 H 630.169 -1.36953 -0.863446 0
M  V30 6574 H 632.161 -0.97878 -3.92686 0
M  V30 6575 H 630.731 -0.29738 -3.11182 0
M  V30 6576 H 629.951 -2.76468 -2.80996 0
M  V30 6577 H 631.239 -3.22012 -3.93936 0
M  V30 6578 H 630.637 -0.526893 -5.63241 0
M  V30 6579 H 629.194 -0.988699 -6.44258 0
M  V30 6580 N 632.627 0.916307 -1.28225 0
M  V30 6581 C 634.038 1.48024 -1.13779 0
M  V30 6582 C 634.389 1.94289 0.273139 0
M  V30 6583 O 633.514 1.82226 1.16716 0
M  V30 6584 C 634.109 2.69029 -2.05935 0
M  V30 6585 C 632.668 3.2161 -1.95561 0
M  V30 6586 C 631.815 1.94321 -1.97825 0
M  V30 6587 H 634.766 0.729272 -1.40951 0
M  V30 6588 H 634.787 3.44204 -1.62184 0
M  V30 6589 H 634.299 2.35325 -3.08616 0
M  V30 6590 H 632.4 3.60045 -0.959076 0
M  V30 6591 H 632.513 3.87032 -2.82388 0
M  V30 6592 H 630.877 2.1131 -1.42198 0
M  V30 6593 H 631.66 1.62917 -3.0218 0
M  V30 6594 N 634.105 1.10431 1.1244 0
M  V30 6595 C 635.055 0.722378 2.16254 0
M  V30 6596 C 636.039 -0.268427 1.58645 0
M  V30 6597 O 637.231 -0.077169 1.76832 0
M  V30 6598 C 634.36 0.155763 3.42946 0
M  V30 6599 C 633.446 1.17361 4.07538 0
M  V30 6600 N 633.837 2.36429 4.47141 0
M  V30 6601 C 632.135 1.01412 4.34317 0
M  V30 6602 C 632.836 3.01259 4.97612 0
M  V30 6603 N 631.812 2.28777 4.93115 0
M  V30 6604 H 635.614 1.62876 2.4464 0
M  V30 6605 H 633.128 0.982031 1.29344 0
M  V30 6606 H 635.125 -0.135936 4.16678 0
M  V30 6607 H 633.785 -0.745339 3.1603 0
M  V30 6608 H 634.796 2.73954 4.39511 0
M  V30 6609 H 631.473 0.168574 4.1716 0
M  V30 6610 H 632.863 4.02541 5.37968 0
M  V30 6611 N 635.583 -1.29855 0.893053 0
M  V30 6612 C 636.533 -2.25493 0.337211 0
M  V30 6613 C 637.517 -1.51606 -0.53894 0
M  V30 6614 O 638.709 -1.72828 -0.382043 0
M  V30 6615 C 635.838 -3.40467 -0.440117 0
M  V30 6616 C 634.924 -4.217 0.450578 0
M  V30 6617 N 635.315 -4.81312 1.55476 0
M  V30 6618 C 633.613 -4.45315 0.247154 0
M  V30 6619 C 634.314 -5.42241 2.10593 0
M  V30 6620 N 633.29 -5.25267 1.39982 0
M  V30 6621 H 637.092 -2.69137 1.18079 0
M  V30 6622 H 634.606 -1.44388 0.743359 0
M  V30 6623 H 636.603 -4.08038 -0.855021 0
M  V30 6624 H 635.263 -2.98361 -1.28104 0
M  V30 6625 H 636.274 -4.80291 1.93755 0
M  V30 6626 H 632.951 -4.13782 -0.555939 0
M  V30 6627 H 634.341 -5.99517 3.03362 0
M  V30 6628 N 637.061 -0.65484 -1.43351 0
M  V30 6629 C 638.307 -0.169142 -2.02093 0
M  V30 6630 C 638.64 1.21431 -1.51553 0
M  V30 6631 O 637.915 1.81105 -0.709317 0
M  V30 6632 C 638.198 -0.181775 -3.59641 0
M  V30 6633 C 638.051 -1.59926 -4.20409 0
M  V30 6634 C 639.37 0.480945 -4.37464 0
M  V30 6635 H 636.489 -0.0629371 -0.734308 0
M  V30 6636 H 639.131 -0.835833 -1.70628 0
M  V30 6637 H 637.281 0.385918 -3.86578 0
M  V30 6638 H 638.953 -2.21766 -4.04497 0
M  V30 6639 H 637.196 -2.14605 -3.76998 0
M  V30 6640 H 637.867 -1.55994 -5.295 0
M  V30 6641 H 640.343 -0.00208273 -4.161 0
M  V30 6642 H 639.219 0.441384 -5.47122 0
M  V30 6643 H 639.48 1.55533 -4.13838 0
M  V30 6644 N 638.539 1.52521 -0.396863 0
M  V30 6645 C 639.502 2.2527 0.422604 0
M  V30 6646 C 640.502 1.27184 0.983913 0
M  V30 6647 O 641.692 1.51222 0.864723 0
M  V30 6648 C 638.824 3.01356 1.59365 0
M  V30 6649 H 640.017 2.99133 -0.214416 0
M  V30 6650 H 637.57 1.55587 -0.149128 0
M  V30 6651 H 638.305 2.31813 2.26789 0
M  V30 6652 H 638.09 3.73357 1.19779 0
M  V30 6653 H 639.58 3.56571 2.17363 0
M  V30 6654 N 640.017 0.126909 1.57088 0
M  V30 6655 C 641.266 -0.529024 1.94639 0
M  V30 6656 C 641.579 -1.67323 1.01304 0
M  V30 6657 O 642.785 -2.39245 1.28352 0
M  V30 6658 C 641.241 -0.992483 3.45945 0
M  V30 6659 C 640.849 0.123691 4.47829 0
M  V30 6660 C 642.593 -1.61934 3.924 0
M  V30 6661 C 640.5 -0.356911 5.90322 0
M  V30 6662 H 639.43 -0.201397 0.726605 0
M  V30 6663 H 642.081 0.208032 1.82317 0
M  V30 6664 H 640.463 -1.7842 3.53528 0
M  V30 6665 H 641.637 0.900168 4.51922 0
M  V30 6666 H 639.952 0.657699 4.11173 0
M  V30 6667 H 642.549 -1.9902 4.96281 0
M  V30 6668 H 642.892 -2.50075 3.32819 0
M  V30 6669 H 643.425 -0.892894 3.8765 0
M  V30 6670 H 640.164 0.488636 6.53676 0
M  V30 6671 H 639.684 -1.0997 5.89633 0
M  V30 6672 H 641.363 -0.815547 6.41839 0
M  V30 6673 N 641.495 -1.56914 -0.146875 0
M  V30 6674 C 642.906 -1.72799 -0.706928 0
M  V30 6675 C 643.257 -0.741329 -1.81656 0
M  V30 6676 O 642.382 0.0920162 -2.16204 0
M  V30 6677 C 642.977 -3.13317 -1.28911 0
M  V30 6678 C 641.536 -3.30803 -1.79573 0
M  V30 6679 C 640.683 -2.68725 -0.684252 0
M  V30 6680 H 643.634 -1.58504 0.0787931 0
M  V30 6681 H 643.655 -3.13323 -2.15891 0
M  V30 6682 H 643.167 -3.85104 -0.481284 0
M  V30 6683 H 641.268 -2.64012 -2.62923 0
M  V30 6684 H 641.381 -4.38754 -1.92436 0
M  V30 6685 H 639.745 -2.29196 -1.11091 0
M  V30 6686 H 640.528 -3.43117 0.112134 0
M  V30 6687 N 642.974 0.416227 -1.52004 0
M  V30 6688 C 644.39 0.754319 -1.40649 0
M  V30 6689 C 644.59 1.95059 -0.505392 0
M  V30 6690 O 643.646 2.5248 0.0315057 0
M  V30 6691 C 644.959 1.0149 -2.83055 0
M  V30 6692 C 646.507 1.11805 -2.9235 0
M  V30 6693 C 646.982 1.41144 -4.35709 0
M  V30 6694 N 648.473 1.48024 -4.38911 0
M  V30 6695 C 649.208 1.72338 -5.46889 0
M  V30 6696 N 648.704 1.94303 -6.64995 0
M  V30 6697 N 650.497 1.74294 -5.34395 0
M  V30 6698 H 642.648 -0.371324 -2.09129 0
M  V30 6699 H 644.911 -0.103811 -0.942299 0
M  V30 6700 H 644.617 0.208345 -3.51082 0
M  V30 6701 H 644.491 1.93697 -3.23668 0
M  V30 6702 H 646.878 1.91521 -2.24508 0
M  V30 6703 H 646.959 0.17451 -2.55204 0
M  V30 6704 H 646.603 0.619484 -5.04108 0
M  V30 6705 H 646.533 2.36739 -4.70385 0
M  V30 6706 H 649.024 1.32868 -3.53772 0
M  V30 6707 H 649.337 2.12286 -7.43071 0
M  V30 6708 H 647.682 1.91582 -6.68073 0
M  V30 6709 H 650.873 1.56667 -4.41104 0
M  V30 6710 H 651.046 1.92904 -6.18621 0
M  V30 6711 N 644.452 1.42507 0.673017 0
M  V30 6712 C 645.868 1.25472 0.986355 0
M  V30 6713 C 646.068 0.160181 2.00862 0
M  V30 6714 O 645.124 -0.467993 2.48125 0
M  V30 6715 C 646.437 2.61219 1.48947 0
M  V30 6716 C 647.985 2.68589 1.60715 0
M  V30 6717 C 648.46 4.04707 2.14422 0
M  V30 6718 N 649.951 4.0667 2.21752 0
M  V30 6719 C 650.686 5.0881 2.64386 0
M  V30 6720 N 650.182 6.21332 3.0646 0
M  V30 6721 N 651.975 4.96166 2.64151 0
M  V30 6722 H 644.126 2.124 -0.00378532 0
M  V30 6723 H 646.389 0.946046 0.0608367 0
M  V30 6724 H 646.095 3.42179 0.812812 0
M  V30 6725 H 645.969 2.85261 2.46791 0
M  V30 6726 H 648.356 1.87974 2.27486 0
M  V30 6727 H 648.437 2.48333 0.613552 0
M  V30 6728 H 648.081 4.8578 1.48258 0
M  V30 6729 H 648.011 4.22315 3.14575 0
M  V30 6730 H 650.502 3.25438 1.92089 0
M  V30 6731 H 650.815 6.95118 3.37684 0
M  V30 6732 H 649.16 6.24835 3.04313 0
M  V30 6733 H 652.351 4.07334 2.30644 0
M  V30 6734 H 652.524 5.759 2.97057 0
M  V30 6735 N 645.93 -0.909495 1.28709 0
M  V30 6736 C 647.155 -1.69801 1.1909 0
M  V30 6737 C 647.58 -1.86479 -0.246388 0
M  V30 6738 O 646.938 -1.37802 -1.17815 0
M  V30 6739 C 646.986 -3.06543 1.89904 0
M  V30 6740 O 646.09 -3.94268 1.2094 0
M  V30 6741 H 645.431 -0.519783 0.413185 0
M  V30 6742 H 647.961 -1.13689 1.70106 0
M  V30 6743 H 647.971 -3.56748 1.97977 0
M  V30 6744 H 646.646 -2.93722 2.94449 0
M  V30 6745 H 645.223 -3.52702 1.2106 0
M  V30 6746 N 647.408 -1.11026 -1.11852 0
M  V30 6747 C 648.371 -0.768006 -2.1595 0
M  V30 6748 C 649.371 0.210538 -1.59416 0
M  V30 6749 O 650.561 -0.0133978 -1.74195 0
M  V30 6750 C 647.693 -0.138678 -3.40618 0
M  V30 6751 H 648.886 -1.69012 -2.4774 0
M  V30 6752 H 646.439 -0.911578 -1.26964 0
M  V30 6753 H 647.174 0.793872 -3.14433 0
M  V30 6754 H 646.959 -0.843012 -3.8293 0
M  V30 6755 H 648.449 0.0848039 -4.17514 0
M  V30 6756 N 648.886 1.2938 -0.899927 0
M  V30 6757 C 649.849 2.25983 -0.382677 0
M  V30 6758 C 650.849 1.53366 0.483259 0
M  V30 6759 O 652.039 1.71798 0.28828 0
M  V30 6760 C 649.171 3.37878 0.452915 0
M  V30 6761 H 650.364 2.73252 -1.23586 0
M  V30 6762 H 647.917 1.40825 -0.678088 0
M  V30 6763 H 648.652 2.95949 1.32608 0
M  V30 6764 H 648.437 3.91742 -0.167562 0
M  V30 6765 H 649.927 4.09746 0.806107 0
M  V30 6766 N 650.364 0.662433 1.43002 0
M  V30 6767 C 651.297 -0.073459 2.28082 0
M  V30 6768 C 652.275 -0.820869 1.40358 0
M  V30 6769 O 653.459 -0.818545 1.698 0
M  V30 6770 C 650.586 -1.11097 3.19961 0
M  V30 6771 C 649.632 -0.460557 4.24006 0
M  V30 6772 S 650.465 0.772717 5.29896 0
M  V30 6773 C 651.621 -0.264028 6.25343 0
M  V30 6774 H 651.854 0.648227 2.90147 0
M  V30 6775 H 649.387 0.451566 1.47649 0
M  V30 6776 H 651.345 -1.70452 3.73439 0
M  V30 6777 H 650.006 -1.80503 2.57056 0
M  V30 6778 H 649.199 -1.24299 4.88432 0
M  V30 6779 H 648.801 0.0591038 3.73953 0
M  V30 6780 H 651.093 -1.12748 6.68052 0
M  V30 6781 H 652.036 0.345443 7.07257 0
M  V30 6782 H 652.444 -0.603964 5.6126 0
M  V30 6783 N 651.842 -1.52309 0.404946 0
M  V30 6784 C 653.07 -2.06185 -0.171818 0
M  V30 6785 C 653.485 -1.27536 -1.39212 0
M  V30 6786 O 652.842 -0.326112 -1.79563 0
M  V30 6787 C 652.893 -3.57647 -0.526417 0
M  V30 6788 O 652.614 -4.3332 0.645417 0
M  V30 6789 C 654.115 -4.27925 -1.15736 0
M  V30 6790 H 651.335 -0.670632 -0.0222328 0
M  V30 6791 H 653.879 -1.96259 0.574692 0
M  V30 6792 H 652.034 -3.67595 -1.22282 0
M  V30 6793 H 652.448 -5.23328 0.35042 0
M  V30 6794 H 653.922 -5.35093 -1.35572 0
M  V30 6795 H 654.399 -3.84134 -2.12926 0
M  V30 6796 H 655.005 -4.22335 -0.501281 0
M  V30 6797 N 653.32 -0.135238 -1.57019 0
M  V30 6798 C 654.566 0.519563 -1.96032 0
M  V30 6799 C 654.899 1.65284 -1.01955 0
M  V30 6800 O 654.174 1.94408 -0.059727 0
M  V30 6801 C 654.457 1.0369 -3.44848 0
M  V30 6802 C 654.31 -0.0940754 -4.49702 0
M  V30 6803 C 655.629 1.92254 -3.95887 0
M  V30 6804 H 652.748 0.18739 -0.712779 0
M  V30 6805 H 655.39 -0.214086 -1.8879 0
M  V30 6806 H 653.54 1.66209 -3.5115 0
M  V30 6807 H 655.212 -0.73 -4.55487 0
M  V30 6808 H 653.455 -0.754924 -4.27181 0
M  V30 6809 H 654.126 0.309419 -5.51132 0
M  V30 6810 H 656.602 1.39581 -3.9199 0
M  V30 6811 H 655.478 2.25364 -5.00502 0
M  V30 6812 H 655.739 2.85513 -3.37543 0
M  V30 6813 N 654.798 1.5699 0.138552 0
M  V30 6814 C 656.044 1.84081 0.85099 0
M  V30 6815 C 656.377 0.718107 1.80435 0
M  V30 6816 O 655.652 -0.277633 1.92508 0
M  V30 6817 C 655.935 3.21699 1.61808 0
M  V30 6818 C 655.788 4.44544 0.685633 0
M  V30 6819 C 657.107 3.5664 2.57868 0
M  V30 6820 H 654.226 0.669592 0.307922 0
M  V30 6821 H 656.868 1.89646 0.11588 0
M  V30 6822 H 655.018 3.17086 2.24474 0
M  V30 6823 H 656.69 4.61248 0.0693179 0
M  V30 6824 H 654.933 4.338 -0.00421993 0
M  V30 6825 H 655.604 5.3746 1.25858 0
M  V30 6826 H 658.08 3.61918 2.05316 0
M  V30 6827 H 656.956 4.53946 3.08584 0
M  V30 6828 H 657.217 2.83036 3.39622 0
M  V30 6829 N 656.276 -0.40816 1.52223 0
M  V30 6830 C 657.186 -1.52202 1.78526 0
M  V30 6831 C 658.202 -1.60546 0.670892 0
M  V30 6832 O 659.378 -1.77242 0.956404 0
M  V30 6833 C 656.443 -2.87928 1.93128 0
M  V30 6834 C 655.504 -2.89463 3.17033 0
M  V30 6835 C 654.737 -4.18715 3.30929 0
M  V30 6836 O 654.96 -5.12662 2.50067 0
M  V30 6837 O 653.894 -4.27125 4.24084 0
M  V30 6838 H 657.72 -1.32911 2.73072 0
M  V30 6839 H 655.305 -0.594112 1.37079 0
M  V30 6840 H 657.187 -3.68426 2.04549 0
M  V30 6841 H 655.862 -3.07285 1.01772 0
M  V30 6842 H 654.769 -2.07815 3.11069 0
M  V30 6843 H 656.102 -2.75055 4.08174 0
M  V30 6844 N 657.755 -1.42862 -0.66545 0
M  V30 6845 C 658.718 -1.46756 -1.76055 0
M  V30 6846 C 659.718 -0.353866 -1.56858 0
M  V30 6847 O 660.908 -0.615099 -1.62979 0
M  V30 6848 C 658.04 -1.30829 -3.14796 0
M  V30 6849 H 659.233 -2.44271 -1.73987 0
M  V30 6850 H 656.786 -1.29447 -0.875965 0
M  V30 6851 H 657.521 -0.342733 -3.22484 0
M  V30 6852 H 657.306 -2.11551 -3.30134 0
M  V30 6853 H 658.796 -1.36458 -3.94676 0
M  V30 6854 N 659.233 0.902656 -1.29189 0
M  V30 6855 C 660.479 1.65532 -1.17163 0
M  V30 6856 C 660.812 1.92216 0.276879 0
M  V30 6857 O 660.087 1.53048 1.20027 0
M  V30 6858 C 660.37 3.00629 -1.98228 0
M  V30 6859 C 660.223 2.81029 -3.51202 0
M  V30 6860 C 661.542 4.01321 -1.80635 0
M  V30 6861 H 658.661 0.60071 -0.426985 0
M  V30 6862 H 661.303 1.04578 -1.5863 0
M  V30 6863 H 659.453 3.52656 -1.62991 0
M  V30 6864 H 661.125 2.35927 -3.96404 0
M  V30 6865 H 659.368 2.1587 -3.76275 0
M  V30 6866 H 660.039 3.77014 -4.03192 0
M  V30 6867 H 662.515 3.58394 -2.11406 0
M  V30 6868 H 661.391 4.93792 -2.3971 0
M  V30 6869 H 661.652 4.35505 -0.760754 0
M  V30 6870 N 660.711 1.11618 1.11262 0
M  V30 6871 C 661.674 0.779447 2.15539 0
M  V30 6872 C 662.674 -0.202081 1.59525 0
M  V30 6873 O 663.864 0.0226356 1.74185 0
M  V30 6874 C 660.996 0.15674 3.40539 0
M  V30 6875 H 662.189 1.70324 2.4684 0
M  V30 6876 H 659.742 0.918298 1.26479 0
M  V30 6877 H 660.477 -0.777186 3.1485 0
M  V30 6878 H 660.262 0.863308 3.82478 0
M  V30 6879 H 661.752 -0.062661 4.17553 0
M  V30 6880 N 662.189 -1.289 0.906776 0
M  V30 6881 C 663.119 -2.29932 0.406659 0
M  V30 6882 C 664.1 -1.6189 -0.522061 0
M  V30 6883 O 665.285 -1.8935 -0.431283 0
M  V30 6884 C 662.415 -3.45425 -0.360366 0
M  V30 6885 C 661.369 -4.25316 0.478574 0
M  V30 6886 C 660.695 -5.33076 -0.416373 0
M  V30 6887 C 661.995 -4.92739 1.7322 0
M  V30 6888 H 663.689 -2.72013 1.25097 0
M  V30 6889 H 661.235 -1.30768 0.602977 0
M  V30 6890 H 663.188 -4.15186 -0.721029 0
M  V30 6891 H 661.912 -3.02206 -1.23852 0
M  V30 6892 H 660.571 -3.57273 0.821662 0
M  V30 6893 H 660.219 -4.86101 -1.29287 0
M  V30 6894 H 659.919 -5.8743 0.141309 0
M  V30 6895 H 661.443 -6.05686 -0.773072 0
M  V30 6896 H 662.857 -5.54898 1.44086 0
M  V30 6897 H 661.254 -5.57057 2.23175 0
M  V30 6898 H 662.324 -4.17625 2.46408 0
M  V30 6899 N 663.667 -0.670007 -1.42649 0
M  V30 6900 C 664.892 -0.196955 -2.06463 0
M  V30 6901 C 665.317 1.1352 -1.49983 0
M  V30 6902 O 664.675 1.705 -0.616397 0
M  V30 6903 C 664.723 -0.137381 -3.60338 0
M  V30 6904 O 663.827 0.895523 -4.02559 0
M  V30 6905 H 663.168 -0.102579 -0.656029 0
M  V30 6906 H 665.698 -0.917669 -1.82866 0
M  V30 6907 H 665.708 0.0403625 -4.0798 0
M  V30 6908 H 664.383 -1.10977 -4.0082 0
M  V30 6909 H 662.96 0.689209 -3.66476 0
M  V30 6910 N 665.145 1.52092 -0.413018 0
M  V30 6911 C 666.394 2.01041 0.16287 0
M  V30 6912 C 666.707 1.30288 1.45892 0
M  V30 6913 O 667.913 1.70075 2.11629 0
M  V30 6914 C 666.369 3.58283 0.340806 0
M  V30 6915 C 665.977 4.37955 -0.943377 0
M  V30 6916 C 667.721 4.15452 0.871774 0
M  V30 6917 C 665.628 5.86847 -0.732417 0
M  V30 6918 H 664.558 0.751224 0.0646414 0
M  V30 6919 H 667.209 1.75404 -0.539059 0
M  V30 6920 H 665.591 3.80266 1.10516 0
M  V30 6921 H 666.765 4.2773 -1.71418 0
M  V30 6922 H 665.08 3.92122 -1.40105 0
M  V30 6923 H 667.677 5.24375 1.0457 0
M  V30 6924 H 668.02 3.73057 1.84755 0
M  V30 6925 H 668.553 3.97452 0.166377 0
M  V30 6926 H 665.292 6.33609 -1.67986 0
M  V30 6927 H 664.812 5.998 -0.000980058 0
M  V30 6928 H 666.491 6.45906 -0.376105 0
M  V30 6929 N 666.623 0.143563 1.56945 0
M  V30 6930 C 667.586 -0.783295 2.154 0
M  V30 6931 C 668.586 -1.17763 1.09492 0
M  V30 6932 O 669.776 -1.09912 1.35148 0
M  V30 6933 C 666.908 -2.06248 2.7143 0
M  V30 6934 H 668.101 -0.274863 2.98638 0
M  V30 6935 H 665.654 -0.105859 1.55941 0
M  V30 6936 H 666.389 -2.61466 1.91849 0
M  V30 6937 H 666.174 -1.78897 3.4891 0
M  V30 6938 H 667.664 -2.72453 3.16479 0
M  V30 6939 N 668.101 -1.57061 -0.130224 0
M  V30 6940 C 669.064 -1.98593 -1.14426 0
M  V30 6941 C 670.064 -0.874584 -1.34936 0
M  V30 6942 O 671.254 -1.14086 -1.31643 0
M  V30 6943 C 668.386 -2.31639 -2.50112 0
M  V30 6944 H 669.579 -2.89374 -0.787561 0
M  V30 6945 H 667.132 -1.51756 -0.374146 0
M  V30 6946 H 667.867 -1.43703 -2.90723 0
M  V30 6947 H 667.652 -3.12684 -2.36583 0
M  V30 6948 H 669.142 -2.64551 -3.23114 0
M  V30 6949 N 669.579 0.400081 -1.52437 0
M  V30 6950 C 670.825 1.14788 -1.67187 0
M  V30 6951 C 671.158 1.89928 -0.405074 0
M  V30 6952 O 670.433 1.85118 0.596804 0
M  V30 6953 C 670.716 2.13507 -2.89977 0
M  V30 6954 C 670.569 1.42204 -4.2673 0
M  V30 6955 C 671.888 3.14069 -3.083 0
M  V30 6956 H 669.007 0.415939 -0.608411 0
M  V30 6957 H 671.649 0.432542 -1.85011 0
M  V30 6958 H 669.799 2.7451 -2.74912 0
M  V30 6959 H 671.471 0.842503 -4.53541 0
M  V30 6960 H 669.714 0.723939 -4.27717 0
M  V30 6961 H 670.385 2.14281 -5.08712 0
M  V30 6962 H 672.861 2.63148 -3.22323 0
M  V30 6963 H 671.737 3.80398 -3.95713 0
M  V30 6964 H 671.998 3.82309 -2.22018 0
M  V30 6965 N 671.057 1.43213 0.657864 0
M  V30 6966 C 671.967 1.50448 1.80007 0
M  V30 6967 C 672.983 0.39191 1.69529 0
M  V30 6968 O 674.159 0.645349 1.90781 0
M  V30 6969 C 671.224 1.42062 3.16258 0
M  V30 6970 C 670.285 2.63951 3.38568 0
M  V30 6971 C 669.518 2.55956 4.68318 0
M  V30 6972 O 669.741 1.60473 5.47361 0
M  V30 6973 O 668.675 3.46378 4.92245 0
M  V30 6974 H 672.501 2.4689 1.76858 0
M  V30 6975 H 670.086 1.25163 0.81576 0
M  V30 6976 H 671.968 1.3981 3.97531 0
M  V30 6977 H 670.643 0.487524 3.20008 0
M  V30 6978 H 669.55 2.71776 2.57077 0
M  V30 6979 H 670.883 3.56217 3.39662 0
M  V30 6980 N 672.536 -0.895792 1.29666 0
M  V30 6981 C 673.952 -1.17726 1.07763 0
M  V30 6982 C 674.152 -2.00794 -0.168576 0
M  V30 6983 O 673.208 -2.37213 -0.865244 0
M  V30 6984 C 674.521 -1.89441 2.33522 0
M  V30 6985 C 676.069 -2.02251 2.3888 0
M  V30 6986 C 676.544 -2.77378 3.64452 0
M  V30 6987 N 678.035 -2.8493 3.65198 0
M  V30 6988 C 678.77 -3.43606 4.59045 0
M  V30 6989 N 678.266 -4.03417 5.63228 0
M  V30 6990 N 680.059 -3.41317 4.46608 0
M  V30 6991 H 672.21 -0.341652 2.09634 0
M  V30 6992 H 674.473 -0.213865 0.923561 0
M  V30 6993 H 674.179 -1.35842 3.24407 0
M  V30 6994 H 674.053 -2.89893 2.41334 0
M  V30 6995 H 676.44 -2.55025 1.4848 0
M  V30 6996 H 676.521 -1.0092 2.3505 0
M  V30 6997 H 676.165 -2.25279 4.55205 0
M  V30 6998 H 676.095 -3.79062 3.65541 0
M  V30 6999 H 678.586 -2.42453 2.89871 0
M  V30 7000 H 678.899 -4.46224 6.30955 0
M  V30 7001 H 677.244 -4.01868 5.67033 0
M  V30 7002 H 680.435 -2.93812 3.64407 0
M  V30 7003 H 680.608 -3.86751 5.1993 0
M  V30 7004 N 674.014 -1.12206 -1.10668 0
M  V30 7005 C 674.977 -0.790867 -2.15123 0
M  V30 7006 C 675.977 0.193618 -1.5963 0
M  V30 7007 O 677.167 -0.0318728 -1.74171 0
M  V30 7008 C 674.299 -0.174797 -3.40452 0
M  V30 7009 H 675.492 -1.7163 -2.45933 0
M  V30 7010 H 673.045 -0.924993 -1.2599 0
M  V30 7011 H 673.78 0.760478 -3.15257 0
M  V30 7012 H 673.565 -0.88358 -3.82015 0
M  V30 7013 H 675.055 0.0405162 -4.1758 0
M  V30 7014 N 675.492 1.28418 -0.913599 0
M  V30 7015 C 676.402 2.31043 -0.406965 0
M  V30 7016 C 677.418 1.66501 0.505298 0
M  V30 7017 O 678.594 1.97558 0.391522 0
M  V30 7018 C 675.659 3.4498 0.344901 0
M  V30 7019 C 674.72 4.25078 -0.600563 0
M  V30 7020 C 673.953 5.33575 0.115516 0
M  V30 7021 O 674.176 5.54503 1.33727 0
M  V30 7022 O 673.11 5.9939 -0.549095 0
M  V30 7023 H 676.936 2.76387 -1.25873 0
M  V30 7024 H 674.521 1.33109 -0.678415 0
M  V30 7025 H 676.403 4.14314 0.769542 0
M  V30 7026 H 675.078 3.01719 1.1725 0
M  V30 7027 H 673.985 3.58334 -1.0746 0
M  V30 7028 H 675.318 4.72018 -1.39497 0
M  V30 7029 N 676.97 0.677563 1.42291 0
M  V30 7030 C 677.933 0.0101085 2.29198 0
M  V30 7031 C 678.933 -0.726219 1.43467 0
M  V30 7032 O 680.123 -0.563807 1.64824 0
M  V30 7033 C 677.255 -0.996316 3.26016 0
M  V30 7034 H 678.448 0.775071 2.89711 0
M  V30 7035 H 676.001 0.440065 1.49977 0
M  V30 7036 H 676.736 -1.78967 2.70446 0
M  V30 7037 H 676.521 -0.471687 3.89253 0
M  V30 7038 H 678.011 -1.46167 3.91184 0
M  V30 7039 N 678.448 -1.51871 0.421078 0
M  V30 7040 C 679.381 -2.23851 -0.443369 0
M  V30 7041 C 680.359 -1.25142 -1.03818 0
M  V30 7042 O 681.543 -1.5423 -1.08377 0
M  V30 7043 C 678.67 -2.97637 -1.61648 0
M  V30 7044 C 677.716 -4.10873 -1.14391 0
M  V30 7045 S 678.549 -5.35408 -0.0992403 0
M  V30 7046 C 679.705 -6.12726 -1.27739 0
M  V30 7047 H 679.938 -2.96826 0.167786 0
M  V30 7048 H 677.471 -1.53027 0.205461 0
M  V30 7049 H 679.429 -3.40751 -2.28909 0
M  V30 7050 H 678.09 -2.24282 -2.199 0
M  V30 7051 H 677.283 -4.61718 -2.02069 0
M  V30 7052 H 676.885 -3.69937 -0.549775 0
M  V30 7053 H 679.177 -6.40827 -2.19881 0
M  V30 7054 H 680.12 -7.03461 -0.809239 0
M  V30 7055 H 680.528 -5.43968 -1.5086 0
M  V30 7056 N 679.926 -0.151884 -1.56866 0
M  V30 7057 C 681.342 0.204486 -1.58285 0
M  V30 7058 C 681.542 1.6431 -1.16639 0
M  V30 7059 O 680.598 2.37077 -0.868946 0
M  V30 7060 C 681.911 -0.0587019 -3.00643 0
M  V30 7061 C 683.459 0.00462303 -3.13 0
M  V30 7062 C 683.934 -0.231297 -4.57416 0
M  V30 7063 N 685.425 -0.178394 -4.62856 0
M  V30 7064 C 686.16 -0.335379 -5.72418 0
M  V30 7065 N 685.656 -0.550355 -6.90611 0
M  V30 7066 N 687.449 -0.272641 -5.61438 0
M  V30 7067 H 679.6 -1.09116 -1.82229 0
M  V30 7068 H 681.863 -0.432311 -0.843689 0
M  V30 7069 H 681.569 -1.05453 -3.35518 0
M  V30 7070 H 681.443 0.658508 -3.71407 0
M  V30 7071 H 683.83 0.991009 -2.77962 0
M  V30 7072 H 683.911 -0.744992 -2.44711 0
M  V30 7073 H 683.555 -1.2148 -4.93158 0
M  V30 7074 H 683.485 0.5387 -5.23837 0
M  V30 7075 H 685.976 -0.0170923 -3.77896 0
M  V30 7076 H 686.289 -0.660116 -7.69976 0
M  V30 7077 H 684.634 -0.586736 -6.92519 0
M  V30 7078 H 687.825 -0.105421 -4.67981 0
M  V30 7079 H 687.998 -0.398418 -6.46774 0
M  V30 7080 N 681.404 1.57128 0.121893 0
M  V30 7081 C 682.652 1.84335 0.828548 0
M  V30 7082 C 682.973 0.736632 1.80551 0
M  V30 7083 O 682.243 -0.23962 1.94429 0
M  V30 7084 H 680.823 0.680108 0.30897 0
M  V30 7085 H 683.485 1.9459 0.109906 0
M  V30 7086 H 682.581 2.80152 1.37554 0
M  V30 7087 N 682.882 -0.391992 1.52647 0
M  V30 7088 C 684.298 -0.731848 1.41831 0
M  V30 7089 C 684.498 -1.9423 0.536361 0
M  V30 7090 O 683.554 -2.52499 0.00866571 0
M  V30 7091 C 684.867 -0.969743 2.84634 0
M  V30 7092 C 686.415 -1.0714 2.94092 0
M  V30 7093 C 686.89 -1.34195 4.37899 0
M  V30 7094 N 688.381 -1.41023 4.41211 0
M  V30 7095 C 689.116 -1.63616 5.49561 0
M  V30 7096 N 688.612 -1.83699 6.68002 0
M  V30 7097 N 690.405 -1.65771 5.371 0
M  V30 7098 H 682.556 0.404547 2.08512 0
M  V30 7099 H 684.819 0.11879 0.940528 0
M  V30 7100 H 684.525 -0.152465 3.51369 0
M  V30 7101 H 684.399 -1.88523 3.26709 0
M  V30 7102 H 686.786 -1.87925 2.27526 0
M  V30 7103 H 686.867 -0.133887 2.55449 0
M  V30 7104 H 686.511 -0.539207 5.0503 0
M  V30 7105 H 686.441 -2.29226 4.74092 0
M  V30 7106 H 688.932 -1.27223 3.55841 0
M  V30 7107 H 689.245 -2.00437 7.46354 0
M  V30 7108 H 687.59 -1.8093 6.71036 0
M  V30 7109 H 690.781 -1.4963 4.43541 0
M  V30 7110 H 690.954 -1.83038 6.21612 0
M  V30 7111 N 684.36 -1.4356 -0.65026 0
M  V30 7112 C 685.292 -1.44918 -1.77571 0
M  V30 7113 C 686.305 -0.344925 -1.59104 0
M  V30 7114 O 687.494 -0.609537 -1.6777 0
M  V30 7115 C 684.594 -1.24914 -3.15039 0
M  V30 7116 C 683.767 -2.48232 -3.60138 0
M  V30 7117 C 682.826 -2.23409 -4.76419 0
M  V30 7118 O 681.852 -2.9678 -4.85706 0
M  V30 7119 N 683.054 -1.25259 -5.66825 0
M  V30 7120 H 685.819 -2.41935 -1.76883 0
M  V30 7121 H 683.38 -1.38754 -0.834202 0
M  V30 7122 H 685.372 -1.06185 -3.90521 0
M  V30 7123 H 683.942 -0.363319 -3.10481 0
M  V30 7124 H 683.162 -2.82366 -2.75069 0
M  V30 7125 H 684.45 -3.30296 -3.87017 0
M  V30 7126 H 683.848 -0.646246 -5.61997 0
M  V30 7127 H 682.405 -1.12513 -6.42016 0
M  V30 7128 N 685.838 0.888903 -1.30139 0
M  V30 7129 C 687.084 1.6428 -1.18912 0
M  V30 7130 C 687.417 1.92499 0.256477 0
M  V30 7131 O 686.692 1.54312 1.18397 0
M  V30 7132 C 686.975 2.9851 -2.01405 0
M  V30 7133 C 686.828 2.77288 -3.54163 0
M  V30 7134 C 688.147 3.99383 -1.84882 0
M  V30 7135 H 685.266 0.596148 -0.433333 0
M  V30 7136 H 687.908 1.0289 -1.5973 0
M  V30 7137 H 686.058 3.50907 -1.66722 0
M  V30 7138 H 687.73 2.31709 -3.98884 0
M  V30 7139 H 685.973 2.11867 -3.78543 0
M  V30 7140 H 686.644 3.72717 -4.07168 0
M  V30 7141 H 689.12 3.56132 -2.15196 0
M  V30 7142 H 687.996 4.91222 -2.44934 0
M  V30 7143 H 688.257 4.34674 -0.806902 0
M  V30 7144 N 687.317 1.12792 1.10072 0
M  V30 7145 C 688.594 0.796867 1.78632 0
M  V30 7146 C 688.974 -0.712739 1.98704 0
M  V30 7147 O 688.322 -1.64773 1.5831 0
M  V30 7148 C 688.532 1.57622 3.11378 0
M  V30 7149 C 689.88 1.76463 3.86194 0
M  V30 7150 O 690.904 1.54165 3.2111 0
M  V30 7151 O 689.763 2.13623 5.03018 0
M  V30 7152 H 686.857 0.290248 0.774394 0
M  V30 7153 H 689.403 1.23215 1.16688 0
M  V30 7154 H 688.175 2.60246 2.92212 0
M  V30 7155 H 687.798 1.13543 3.81043 0
M  V30 7156 N 688.795 -1.27931 0.920396 0
M  V30 7157 C 689.745 -2.24727 0.384966 0
M  V30 7158 C 690.729 -1.52715 -0.506661 0
M  V30 7159 O 691.921 -1.73599 -0.345298 0
M  V30 7160 C 689.05 -3.41324 -0.3678 0
M  V30 7161 C 688.136 -4.20649 0.539925 0
M  V30 7162 N 688.527 -4.77906 1.6565 0
M  V30 7163 C 686.825 -4.4469 0.341557 0
M  V30 7164 C 687.526 -5.37652 2.22047 0
M  V30 7165 N 686.502 -5.2218 1.51093 0
M  V30 7166 H 690.304 -2.66572 1.23761 0
M  V30 7167 H 687.818 -1.42779 0.773819 0
M  V30 7168 H 689.815 -4.0976 -0.768277 0
M  V30 7169 H 688.475 -3.01012 -1.21746 0
M  V30 7170 H 689.486 -4.76073 2.03899 0
M  V30 7171 H 686.163 -4.14868 -0.468045 0
M  V30 7172 H 687.553 -5.92948 3.1601 0
M  V30 7173 N 690.273 -0.685099 -1.4193 0
M  V30 7174 C 691.236 -0.0222632 -2.29189 0
M  V30 7175 C 692.236 0.7186 -1.4385 0
M  V30 7176 O 693.426 0.555058 -1.6512 0
M  V30 7177 C 690.558 0.979013 -3.2654 0
M  V30 7178 H 691.751 -0.790424 -2.89296 0
M  V30 7179 H 689.304 -0.448012 -1.49742 0
M  V30 7180 H 690.039 1.77531 -2.71392 0
M  V30 7181 H 689.824 0.451037 -3.89497 0
M  V30 7182 H 691.314 1.44091 -3.91954 0
M  V30 7183 N 691.751 1.51645 -0.429126 0
M  V30 7184 C 692.997 2.02314 0.140286 0
M  V30 7185 C 693.33 1.31314 1.43074 0
M  V30 7186 O 692.605 0.425531 1.89788 0
M  V30 7187 C 692.888 3.5822 0.36749 0
M  V30 7188 C 692.741 4.39846 -0.941039 0
M  V30 7189 C 694.06 4.25055 1.14089 0
M  V30 7190 H 691.179 0.735335 0.0495112 0
M  V30 7191 H 693.821 1.81358 -0.566514 0
M  V30 7192 H 691.971 3.76207 0.969556 0
M  V30 7193 H 693.643 4.33527 -1.57646 0
M  V30 7194 H 691.886 4.05259 -1.54751 0
M  V30 7195 H 692.557 5.47069 -0.73621 0
M  V30 7196 H 695.033 4.11288 0.630986 0
M  V30 7197 H 693.909 5.34038 1.26863 0
M  V30 7198 H 694.17 3.85358 2.16683 0
M  V30 7199 N 693.229 0.160201 1.56784 0
M  V30 7200 C 694.159 -0.770264 2.2043 0
M  V30 7201 C 695.14 -1.24736 1.15651 0
M  V30 7202 O 696.325 -1.30253 1.44041 0
M  V30 7203 C 693.455 -2.00427 2.83631 0
M  V30 7204 C 692.409 -1.66345 3.94352 0
M  V30 7205 C 691.735 -2.97119 4.4455 0
M  V30 7206 C 693.035 -0.899972 5.14488 0
M  V30 7207 H 694.729 -0.239783 2.98438 0
M  V30 7208 H 692.275 -0.113891 1.43549 0
M  V30 7209 H 694.228 -2.66012 3.26827 0
M  V30 7210 H 692.952 -2.5587 2.02973 0
M  V30 7211 H 691.611 -1.03133 3.51794 0
M  V30 7212 H 691.259 -3.5058 3.60698 0
M  V30 7213 H 690.959 -2.75073 5.19238 0
M  V30 7214 H 692.483 -3.63753 4.90425 0
M  V30 7215 H 693.897 -1.45818 5.54446 0
M  V30 7216 H 692.294 -0.778968 5.95023 0
M  V30 7217 H 693.364 0.105827 4.84785 0
M  V30 7218 N 694.707 -1.5719 -0.113559 0
M  V30 7219 C 695.935 -1.89328 -0.834422 0
M  V30 7220 C 696.35 -0.752018 -1.73177 0
M  V30 7221 O 695.707 0.276912 -1.80387 0
M  V30 7222 C 695.758 -3.20962 -1.66329 0
M  V30 7223 O 695.479 -4.30695 -0.802069 0
M  V30 7224 C 696.98 -3.6684 -2.48884 0
M  V30 7225 H 694.2 -0.626769 -0.239587 0
M  V30 7226 H 696.744 -2.04273 -0.0963195 0
M  V30 7227 H 694.899 -3.0767 -2.35409 0
M  V30 7228 H 695.313 -5.06175 -1.37431 0
M  V30 7229 H 696.787 -4.61692 -3.02563 0
M  V30 7230 H 697.264 -2.93765 -3.26495 0
M  V30 7231 H 697.87 -3.82938 -1.85036 0
M  V30 7232 N 696.185 0.383891 -1.52853 0
M  V30 7233 C 697.148 1.45197 -1.77343 0
M  V30 7234 C 698.148 1.47362 -0.643522 0
M  V30 7235 O 699.338 1.48443 -0.911613 0
M  V30 7236 C 696.47 2.8445 -1.87885 0
M  V30 7237 H 697.663 1.24764 -2.72716 0
M  V30 7238 H 695.216 0.615939 -1.43652 0
M  V30 7239 H 695.951 3.10222 -0.94515 0
M  V30 7240 H 695.736 2.8428 -2.70051 0
M  V30 7241 H 697.226 3.61832 -2.08488 0
M  V30 7242 N 697.663 1.43903 0.642637 0
M  V30 7243 C 698.593 1.52697 1.76652 0
M  V30 7244 C 699.574 0.380816 1.65782 0
M  V30 7245 O 700.759 0.599432 1.84717 0
M  V30 7246 C 697.889 1.45975 3.15133 0
M  V30 7247 C 696.843 2.58949 3.40778 0
M  V30 7248 C 696.169 2.37279 4.79169 0
M  V30 7249 C 697.469 4.01153 3.34475 0
M  V30 7250 H 699.163 2.46766 1.69549 0
M  V30 7251 H 696.709 1.18767 0.814279 0
M  V30 7252 H 698.662 1.5073 3.93521 0
M  V30 7253 H 697.386 0.484162 3.22991 0
M  V30 7254 H 696.045 2.53564 2.64765 0
M  V30 7255 H 695.693 1.37939 4.83717 0
M  V30 7256 H 695.393 3.13016 4.97287 0
M  V30 7257 H 696.917 2.43834 5.59801 0
M  V30 7258 H 698.331 4.07968 4.02784 0
M  V30 7259 H 696.728 4.77001 3.64129 0
M  V30 7260 H 697.798 4.25539 2.32475 0
M  V30 7261 N 699.141 -0.881989 1.30609 0
M  V30 7262 C 700.074 -1.99066 1.11571 0
M  V30 7263 C 701.052 -1.62584 0.022516 0
M  V30 7264 O 702.236 -1.87671 0.176644 0
M  V30 7265 C 699.363 -3.3134 0.702237 0
M  V30 7266 C 698.409 -3.86807 1.79673 0
M  V30 7267 S 699.242 -4.13735 3.39976 0
M  V30 7268 C 700.398 -5.49024 3.00538 0
M  V30 7269 H 700.631 -2.1491 2.05429 0
M  V30 7270 H 698.164 -1.03074 1.14957 0
M  V30 7271 H 700.122 -4.07796 0.470415 0
M  V30 7272 H 698.783 -3.13349 -0.217034 0
M  V30 7273 H 697.976 -4.82397 1.45977 0
M  V30 7274 H 697.578 -3.17102 1.98298 0
M  V30 7275 H 699.87 -6.30208 2.48684 0
M  V30 7276 H 700.813 -5.8766 3.95046 0
M  V30 7277 H 701.221 -5.11726 2.3832 0
M  V30 7278 N 700.619 -1.13374 -1.09472 0
M  V30 7279 C 701.865 -0.896516 -1.81908 0
M  V30 7280 C 702.198 0.575933 -1.85463 0
M  V30 7281 O 701.473 1.42618 -1.32251 0
M  V30 7282 C 701.756 -1.48445 -3.28079 0
M  V30 7283 C 701.609 -3.02598 -3.32798 0
M  V30 7284 C 702.928 -1.15226 -4.24748 0
M  V30 7285 H 700.047 -0.327127 -0.660422 0
M  V30 7286 H 702.689 -1.40195 -1.2824 0
M  V30 7287 H 700.839 -1.0546 -3.73912 0
M  V30 7288 H 702.511 -3.54335 -2.95372 0
M  V30 7289 H 700.754 -3.37613 -2.72397 0
M  V30 7290 H 701.425 -3.38835 -4.3577 0
M  V30 7291 H 703.901 -1.52369 -3.87199 0
M  V30 7292 H 702.777 -1.59012 -5.25363 0
M  V30 7293 H 703.038 -0.0658891 -4.42051 0
M  V30 7294 N 702.098 1.27442 -0.927168 0
M  V30 7295 C 703.03 2.25975 -0.383158 0
M  V30 7296 C 704.043 1.55382 0.485832 0
M  V30 7297 O 705.232 1.75986 0.298541 0
M  V30 7298 C 702.332 3.35629 0.469688 0
M  V30 7299 C 701.505 4.35747 -0.379886 0
M  V30 7300 C 700.564 5.24598 0.410227 0
M  V30 7301 O 699.59 5.68909 -0.181888 0
M  V30 7302 N 700.792 5.54737 1.71017 0
M  V30 7303 H 703.557 2.7329 -1.23015 0
M  V30 7304 H 701.118 1.41063 -0.794539 0
M  V30 7305 H 703.11 3.92015 1.00532 0
M  V30 7306 H 701.68 2.87919 1.21744 0
M  V30 7307 H 700.9 3.78634 -1.09682 0
M  V30 7308 H 702.188 4.99648 -0.960717 0
M  V30 7309 H 701.586 5.20594 2.21356 0
M  V30 7310 H 700.143 6.13824 2.19234 0
M  V30 7311 N 703.576 0.692616 1.41565 0
M  V30 7312 C 704.509 -0.025063 2.28186 0
M  V30 7313 C 705.487 -0.790912 1.42068 0
M  V30 7314 O 706.671 -0.782344 1.71498 0
M  V30 7315 C 703.798 -1.04285 3.22246 0
M  V30 7316 C 702.844 -0.370515 4.24888 0
M  V30 7317 S 703.677 0.884942 5.28137 0
M  V30 7318 C 704.833 -0.131324 6.25762 0
M  V30 7319 H 705.066 0.709626 2.88707 0
M  V30 7320 H 702.599 0.482783 1.46658 0
M  V30 7321 H 704.557 -1.62493 3.7697 0
M  V30 7322 H 703.218 -1.7501 2.60827 0
M  V30 7323 H 702.411 -1.13911 4.90959 0
M  V30 7324 H 702.013 0.138411 3.73744 0
M  V30 7325 H 704.305 -0.985527 6.70294 0
M  V30 7326 H 705.248 0.495384 7.06365 0
M  V30 7327 H 705.656 -0.484777 5.62415 0
M  V30 7328 N 705.054 -1.51416 0.437162 0
M  V30 7329 C 706.017 -2.26312 -0.362729 0
M  V30 7330 C 707.017 -1.29748 -0.949847 0
M  V30 7331 O 708.207 -1.53462 -0.824325 0
M  V30 7332 C 705.339 -3.05475 -1.5132 0
M  V30 7333 H 706.532 -2.98459 0.29365 0
M  V30 7334 H 704.085 -1.55137 0.190327 0
M  V30 7335 H 704.82 -2.37744 -2.20563 0
M  V30 7336 H 704.605 -3.76401 -1.09838 0
M  V30 7337 H 706.095 -3.62209 -2.07833 0
M  V30 7338 N 706.532 -0.168513 -1.56696 0
M  V30 7339 C 707.757 0.486688 -2.01609 0
M  V30 7340 C 708.182 1.56203 -1.04796 0
M  V30 7341 O 707.54 1.8128 -0.0270596 0
M  V30 7342 C 707.588 1.04451 -3.45141 0
M  V30 7343 O 706.692 2.15862 -3.51393 0
M  V30 7344 H 706.033 0.116831 -0.653641 0
M  V30 7345 H 708.563 -0.271579 -2.0279 0
M  V30 7346 H 708.573 1.36782 -3.84389 0
M  V30 7347 H 707.248 0.257155 -4.15104 0
M  V30 7348 H 705.825 1.84597 -3.24004 0
M  V30 7349 N 708.01 1.57248 0.105221 0
M  V30 7350 C 709.235 1.90143 0.828264 0
M  V30 7351 C 709.66 0.761811 1.71983 0
M  V30 7352 O 709.018 -0.287086 1.79013 0
M  V30 7353 C 709.066 3.21856 1.62608 0
M  V30 7354 O 708.17 3.08732 2.7342 0
M  V30 7355 H 707.511 0.623558 0.228192 0
M  V30 7356 H 710.041 2.0443 0.0834826 0
M  V30 7357 H 710.051 3.54916 2.01243 0
M  V30 7358 H 708.726 4.0439 0.971687 0
M  V30 7359 H 707.303 2.87167 2.37886 0
M  V30 7360 N 709.488 -0.375779 1.53054 0
M  V30 7361 C 710.765 -1.13453 1.59336 0
M  V30 7362 C 711.145 -2.07379 0.394614 0
M  V30 7363 O 710.493 -2.2004 -0.616 0
M  V30 7364 C 710.703 -1.8826 2.93869 0
M  V30 7365 C 712.051 -2.43155 3.48081 0
M  V30 7366 O 713.075 -1.984 2.95831 0
M  V30 7367 O 711.934 -3.24944 4.39401 0
M  V30 7368 H 709.028 -0.519856 0.643179 0
M  V30 7369 H 711.574 -0.379865 1.65394 0
M  V30 7370 H 710.346 -1.19652 3.72558 0
M  V30 7371 H 709.969 -2.70658 2.91256 0
M  V30 7372 N 710.966 -1.44241 -0.634997 0
M  V30 7373 C 711.929 -1.50457 -1.72903 0
M  V30 7374 C 712.929 -0.387058 -1.56072 0
M  V30 7375 O 714.119 -0.649531 -1.61638 0
M  V30 7376 C 711.251 -1.37477 -3.1195 0
M  V30 7377 H 712.444 -2.47907 -1.68767 0
M  V30 7378 H 709.997 -1.31276 -0.84831 0
M  V30 7379 H 710.732 -0.41106 -3.21684 0
M  V30 7380 H 710.517 -2.18506 -3.25573 0
M  V30 7381 H 712.007 -1.44799 -3.91692 0
M  V30 7382 N 712.444 0.87505 -1.31075 0
M  V30 7383 C 713.69 1.63009 -1.20647 0
M  V30 7384 C 714.023 1.9276 0.236045 0
M  V30 7385 O 713.298 1.55559 1.16754 0
M  V30 7386 C 713.581 2.96357 -2.0456 0
M  V30 7387 C 713.434 2.73516 -3.57084 0
M  V30 7388 C 714.753 3.974 -1.89107 0
M  V30 7389 H 711.872 0.591518 -0.439631 0
M  V30 7390 H 714.514 1.0119 -1.60812 0
M  V30 7391 H 712.664 3.49119 -1.70435 0
M  V30 7392 H 714.336 2.27465 -4.01319 0
M  V30 7393 H 712.579 2.0784 -3.80769 0
M  V30 7394 H 713.25 3.68377 -4.11099 0
M  V30 7395 H 715.726 3.5383 -2.18961 0
M  V30 7396 H 714.602 4.88596 -2.5013 0
M  V30 7397 H 714.863 4.33794 -0.85296 0
M  V30 7398 N 713.922 1.13953 1.08869 0
M  V30 7399 C 714.832 0.835666 2.19212 0
M  V30 7400 C 715.848 -0.182005 1.73045 0
M  V30 7401 O 717.024 -0.0116661 2.01397 0
M  V30 7402 C 714.089 0.312325 3.4529 0
M  V30 7403 C 713.15 1.39196 4.06107 0
M  V30 7404 C 712.383 0.893496 5.26168 0
M  V30 7405 O 712.606 -0.266807 5.69776 0
M  V30 7406 O 711.54 1.67037 5.78258 0
M  V30 7407 H 715.366 1.75769 2.47667 0
M  V30 7408 H 712.951 0.917421 1.17914 0
M  V30 7409 H 714.833 0.0261582 4.21392 0
M  V30 7410 H 713.508 -0.582042 3.18424 0
M  V30 7411 H 712.415 1.73152 3.31616 0
M  V30 7412 H 713.748 2.26068 4.37212 0
M  V30 7413 N 715.4 -1.26948 0.933913 0
M  V30 7414 C 716.811 -1.76058 0.621324 0
M  V30 7415 C 717.162 -1.76175 -0.863522 0
M  V30 7416 O 716.287 -1.36921 -1.67576 0
M  V30 7417 C 716.882 -3.19713 1.12111 0
M  V30 7418 C 715.441 -3.66465 0.859074 0
M  V30 7419 C 714.588 -2.46186 1.27624 0
M  V30 7420 H 717.539 -1.13127 1.11301 0
M  V30 7421 H 717.56 -3.77566 0.471608 0
M  V30 7422 H 717.072 -3.19596 2.20182 0
M  V30 7423 H 715.173 -3.72021 -0.207566 0
M  V30 7424 H 715.286 -4.55636 1.48098 0
M  V30 7425 H 713.65 -2.45042 0.694727 0
M  V30 7426 H 714.433 -2.48774 2.36572 0
M  V30 7427 N 716.879 -0.700114 -1.41195 0
M  V30 7428 C 717.842 -0.0465706 -2.29153 0
M  V30 7429 C 718.842 0.703302 -1.44604 0
M  V30 7430 O 720.032 0.537513 -1.657 0
M  V30 7431 C 717.164 0.944324 -3.2756 0
M  V30 7432 H 718.357 -0.821064 -2.88442 0
M  V30 7433 H 715.91 -0.463869 -1.49258 0
M  V30 7434 H 716.645 1.74642 -2.73259 0
M  V30 7435 H 716.43 0.409701 -3.89954 0
M  V30 7436 H 717.92 1.39925 -3.9346 0
M  V30 7437 N 718.357 1.51182 -0.445186 0
M  V30 7438 C 719.287 2.30821 0.352686 0
M  V30 7439 C 720.268 1.36576 1.01395 0
M  V30 7440 O 721.453 1.65497 1.01609 0
M  V30 7441 C 718.583 3.15593 1.44976 0
M  V30 7442 C 717.537 4.1818 0.911553 0
M  V30 7443 C 716.863 4.91523 2.10497 0
M  V30 7444 C 718.163 5.22266 -0.059418 0
M  V30 7445 H 719.857 2.97771 -0.311936 0
M  V30 7446 H 717.403 1.43201 -0.151461 0
M  V30 7447 H 719.356 3.70091 2.01521 0
M  V30 7448 H 718.08 2.4648 2.14278 0
M  V30 7449 H 716.739 3.64746 0.368264 0
M  V30 7450 H 716.387 4.18906 2.78437 0
M  V30 7451 H 716.087 5.60898 1.7512 0
M  V30 7452 H 717.611 5.48847 2.6758 0
M  V30 7453 H 719.025 5.71789 0.415985 0
M  V30 7454 H 717.422 5.99213 -0.326152 0
M  V30 7455 H 718.492 4.7461 -0.993631 0
M  V30 7456 N 719.835 0.176821 1.56605 0
M  V30 7457 C 721.063 -0.472828 2.01425 0
M  V30 7458 C 721.478 -1.56436 1.05703 0
M  V30 7459 O 720.835 -1.82405 0.058808 0
M  V30 7460 C 720.886 -1.04607 3.46034 0
M  V30 7461 O 720.607 0.00189608 4.381 0
M  V30 7462 C 722.108 -1.7734 4.06282 0
M  V30 7463 H 719.328 -0.120503 0.660091 0
M  V30 7464 H 721.872 0.280166 2.02572 0
M  V30 7465 H 720.027 -1.74953 3.45645 0
M  V30 7466 H 720.441 -0.422118 5.22799 0
M  V30 7467 H 721.915 -2.12703 5.09374 0
M  V30 7468 H 722.392 -2.67043 3.4869 0
M  V30 7469 H 722.998 -1.11623 4.10391 0
M  V30 7470 N 721.313 -1.57302 -0.09688 0
M  V30 7471 C 722.245 -1.98618 -1.14384 0
M  V30 7472 C 723.258 -0.888483 -1.36418 0
M  V30 7473 O 724.447 -1.16661 -1.35101 0
M  V30 7474 C 721.547 -2.28838 -2.49973 0
M  V30 7475 C 720.72 -3.60132 -2.48241 0
M  V30 7476 C 719.779 -3.7831 -3.65743 0
M  V30 7477 O 718.805 -4.50183 -3.48316 0
M  V30 7478 N 720.007 -3.18752 -4.85157 0
M  V30 7479 H 722.772 -2.8904 -0.792202 0
M  V30 7480 H 720.333 -1.59356 -0.285883 0
M  V30 7481 H 722.325 -2.38193 -3.27179 0
M  V30 7482 H 720.895 -1.44431 -2.77233 0
M  V30 7483 H 720.115 -3.61763 -1.56593 0
M  V30 7484 H 721.403 -4.46389 -2.4416 0
M  V30 7485 H 720.801 -2.60368 -5.0222 0
M  V30 7486 H 719.358 -3.33595 -5.59962 0
M  V30 7487 N 722.791 0.367657 -1.53252 0
M  V30 7488 C 723.723 1.47032 -1.75824 0
M  V30 7489 C 724.736 1.49736 -0.63898 0
M  V30 7490 O 725.925 1.53253 -0.915193 0
M  V30 7491 C 723.025 2.85805 -1.82122 0
M  V30 7492 C 722.198 3.06822 -3.11736 0
M  V30 7493 C 721.257 4.25698 -3.09302 0
M  V30 7494 O 720.283 4.20972 -3.83107 0
M  V30 7495 N 721.485 5.33002 -2.29977 0
M  V30 7496 H 724.25 1.28048 -2.70968 0
M  V30 7497 H 721.811 0.557363 -1.52004 0
M  V30 7498 H 723.803 3.63465 -1.77975 0
M  V30 7499 H 722.373 2.98046 -0.942716 0
M  V30 7500 H 721.593 2.1684 -3.29202 0
M  V30 7501 H 722.881 3.17731 -3.97397 0
M  V30 7502 H 722.279 5.39703 -1.69521 0
M  V30 7503 H 720.836 6.09247 -2.3165 0
M  V30 7504 N 724.269 1.44576 0.627338 0
M  V30 7505 C 725.232 1.51372 1.72102 0
M  V30 7506 C 726.232 0.395329 1.55865 0
M  V30 7507 O 727.422 0.658094 1.61291 0
M  V30 7508 C 724.554 1.39129 3.11217 0
M  V30 7509 H 725.747 2.48798 1.6745 0
M  V30 7510 H 723.3 1.31724 0.841336 0
M  V30 7511 H 724.035 0.428114 3.21462 0
M  V30 7512 H 723.82 2.20229 3.24409 0
M  V30 7513 H 725.31 1.46874 3.90919 0
M  V30 7514 N 725.747 -0.868086 1.31537 0
M  V30 7515 C 726.975 -1.65402 1.24298 0
M  V30 7516 C 727.39 -1.87827 -0.191389 0
M  V30 7517 O 726.747 -1.43776 -1.12404 0
M  V30 7518 C 726.798 -3.02093 1.9855 0
M  V30 7519 O 726.519 -2.80668 3.36388 0
M  V30 7520 C 728.02 -3.96538 1.98173 0
M  V30 7521 H 725.24 -0.515598 0.429417 0
M  V30 7522 H 727.784 -1.0834 1.73444 0
M  V30 7523 H 725.939 -3.55838 1.53161 0
M  V30 7524 H 726.353 -3.67504 3.74221 0
M  V30 7525 H 727.827 -4.8976 2.54635 0
M  V30 7526 H 728.304 -4.28474 0.964697 0
M  V30 7527 H 728.91 -3.48729 2.4345 0
M  V30 7528 N 727.225 -1.14528 -1.08264 0
M  V30 7529 C 728.641 -0.885976 -1.3275 0
M  V30 7530 C 728.841 0.472096 -1.95892 0
M  V30 7531 O 727.897 1.21606 -2.21288 0
M  V30 7532 C 729.21 -2.01982 -2.22764 0
M  V30 7533 C 730.758 -2.05329 -2.36239 0
M  V30 7534 C 731.233 -3.1801 -3.29596 0
M  V30 7535 N 732.724 -3.17598 -3.37173 0
M  V30 7536 C 733.459 -4.01426 -4.09444 0
M  V30 7537 N 732.955 -4.95297 -4.8441 0
M  V30 7538 N 734.748 -3.89482 -4.0529 0
M  V30 7539 H 726.899 -2.01996 -0.656607 0
M  V30 7540 H 729.162 -0.880274 -0.351884 0
M  V30 7541 H 728.868 -2.99964 -1.83615 0
M  V30 7542 H 728.742 -1.94421 -3.23234 0
M  V30 7543 H 731.129 -1.07953 -2.74646 0
M  V30 7544 H 731.21 -2.1696 -1.35506 0
M  V30 7545 H 730.854 -4.15633 -2.9191 0
M  V30 7546 H 730.784 -3.03616 -4.30261 0
M  V30 7547 H 733.275 -2.4961 -2.83731 0
M  V30 7548 H 733.588 -5.55723 -5.37021 0
M  V30 7549 H 731.933 -4.99293 -4.83457 0
M  V30 7550 H 735.124 -3.15465 -3.45832 0
M  V30 7551 H 735.297 -4.55039 -4.6135 0
M  V30 7552 N 728.703 1.26451 -0.940633 0
M  V30 7553 C 729.633 2.28773 -0.467479 0
M  V30 7554 C 730.614 1.63218 0.478955 0
M  V30 7555 O 731.799 1.90427 0.380929 0
M  V30 7556 C 728.929 3.46259 0.268656 0
M  V30 7557 C 727.883 4.23898 -0.591171 0
M  V30 7558 C 727.209 5.33993 0.274891 0
M  V30 7559 C 728.509 4.87974 -1.86223 0
M  V30 7560 H 730.203 2.68601 -1.32265 0
M  V30 7561 H 727.749 1.29123 -0.637436 0
M  V30 7562 H 729.702 4.16951 0.610696 0
M  V30 7563 H 728.426 3.05383 1.15796 0
M  V30 7564 H 727.085 3.54969 -0.916098 0
M  V30 7565 H 726.733 4.89358 1.16353 0
M  V30 7566 H 726.433 5.86849 -0.297006 0
M  V30 7567 H 727.957 6.07523 0.612213 0
M  V30 7568 H 729.371 5.50883 -1.58747 0
M  V30 7569 H 727.768 5.50945 -2.37866 0
M  V30 7570 H 728.838 4.10945 -2.57394 0
M  V30 7571 N 730.181 0.707592 1.40822 0
M  V30 7572 C 731.409 0.253073 2.05346 0
M  V30 7573 C 731.824 -1.10218 1.53289 0
M  V30 7574 O 731.181 -1.69112 0.686105 0
M  V30 7575 C 731.232 0.215411 3.60858 0
M  V30 7576 O 730.953 1.51714 4.10992 0
M  V30 7577 C 732.454 -0.258636 4.42545 0
M  V30 7578 H 729.674 0.115256 0.661027 0
M  V30 7579 H 732.218 0.963555 1.80377 0
M  V30 7580 H 730.373 -0.445978 3.84824 0
M  V30 7581 H 730.787 1.41226 5.05129 0
M  V30 7582 H 732.261 -0.233849 5.51504 0
M  V30 7583 H 732.738 -1.2995 4.19535 0
M  V30 7584 H 733.344 0.372186 4.23668 0
M  V30 7585 N 731.66 -1.50943 0.453197 0
M  V30 7586 C 732.937 -1.94872 -0.168633 0
M  V30 7587 C 733.317 -1.39272 -1.5864 0
M  V30 7588 O 732.665 -0.586272 -2.20851 0
M  V30 7589 C 732.875 -3.48757 -0.130217 0
M  V30 7590 C 734.223 -4.23331 -0.327975 0
M  V30 7591 O 735.247 -3.55594 -0.207619 0
M  V30 7592 O 734.106 -5.43529 -0.569077 0
M  V30 7593 H 731.2 -0.818042 -0.121394 0
M  V30 7594 H 733.746 -1.61782 0.512316 0
M  V30 7595 H 732.518 -3.81725 0.860346 0
M  V30 7596 H 732.141 -3.88333 -0.853397 0
M  V30 7597 N 733.138 -0.185124 -1.56509 0
M  V30 7598 C 734.068 0.735098 -2.21627 0
M  V30 7599 C 735.049 1.2288 -1.1762 0
M  V30 7600 O 736.234 1.27945 -1.46095 0
M  V30 7601 C 733.364 1.95889 -2.86783 0
M  V30 7602 C 732.318 1.6005 -3.96948 0
M  V30 7603 C 731.644 2.90009 -4.4922 0
M  V30 7604 C 732.944 0.818008 -5.15855 0
M  V30 7605 H 734.638 0.192274 -2.98782 0
M  V30 7606 H 732.184 0.0910393 -1.43712 0
M  V30 7607 H 734.137 2.60779 -3.31017 0
M  V30 7608 H 732.861 2.52608 -2.07018 0
M  V30 7609 H 731.52 0.975237 -3.5339 0
M  V30 7610 H 731.168 3.44797 -3.6623 0
M  V30 7611 H 730.868 2.66778 -5.23549 0
M  V30 7612 H 732.392 3.55904 -4.9615 0
M  V30 7613 H 733.806 1.36979 -5.56695 0
M  V30 7614 H 732.203 0.684207 -5.96187 0
M  V30 7615 H 733.273 -0.182939 -4.84555 0
M  V30 7616 N 734.616 1.57351 0.0885366 0
M  V30 7617 C 735.863 1.86419 0.790824 0
M  V30 7618 C 736.191 0.774561 1.78412 0
M  V30 7619 O 735.446 -0.23119 1.9433 0
M  V30 7620 C 735.745 3.22098 1.5488 0
M  V30 7621 C 735.411 4.4548 0.697025 0
M  V30 7622 C 734.073 4.78975 0.462237 0
M  V30 7623 C 736.425 5.21094 0.105315 0
M  V30 7624 C 733.753 5.85507 -0.374016 0
M  V30 7625 C 736.105 6.28509 -0.718298 0
M  V30 7626 C 734.769 6.60515 -0.963116 0
M  V30 7627 H 734.039 0.682157 0.289383 0
M  V30 7628 H 736.686 1.91429 0.0520961 0
M  V30 7629 H 734.991 3.12803 2.35927 0
M  V30 7630 H 736.688 3.41819 2.09669 0
M  V30 7631 H 733.278 4.19255 0.890137 0
M  V30 7632 H 737.462 4.95544 0.273856 0
M  V30 7633 H 732.718 6.08713 -0.572606 0
M  V30 7634 H 736.892 6.86268 -1.18362 0
M  V30 7635 H 734.519 7.42893 -1.6129 0
M  V30 7636 N 736.094 -0.359525 1.53444 0
M  V30 7637 C 737.342 -1.09935 1.69584 0
M  V30 7638 C 737.663 -1.89656 0.453371 0
M  V30 7639 O 736.933 -1.8852 -0.53263 0
M  V30 7640 H 735.513 -0.408843 0.625185 0
M  V30 7641 H 738.175 -0.40467 1.90653 0
M  V30 7642 H 737.271 -1.78575 2.55964 0
M  V30 7643 N 737.572 -1.44907 -0.619662 0
M  V30 7644 C 738.535 -1.52282 -1.71297 0
M  V30 7645 C 739.535 -0.40359 -1.55653 0
M  V30 7646 O 740.725 -0.666638 -1.6094 0
M  V30 7647 C 737.857 -1.40778 -3.10474 0
M  V30 7648 H 739.05 -2.49683 -1.66128 0
M  V30 7649 H 736.603 -1.32168 -0.834339 0
M  V30 7650 H 737.338 -0.445156 -3.2123 0
M  V30 7651 H 737.123 -2.21947 -3.23237 0
M  V30 7652 H 738.613 -1.48946 -3.90135 0
M  V30 7653 N 739.05 0.861098 -1.31996 0
M  V30 7654 C 740.278 1.6474 -1.25173 0
M  V30 7655 C 740.693 1.87926 0.181425 0
M  V30 7656 O 740.05 1.4437 1.1164 0
M  V30 7657 C 740.101 3.01036 -2.0015 0
M  V30 7658 O 739.822 2.7888 -3.37872 0
M  V30 7659 C 741.323 3.95481 -2.00273 0
M  V30 7660 H 738.543 0.513314 -0.432146 0
M  V30 7661 H 741.087 1.07419 -1.74016 0
M  V30 7662 H 739.242 3.55021 -1.55046 0
M  V30 7663 H 739.656 3.65514 -3.76165 0
M  V30 7664 H 741.13 4.88403 -2.57229 0
M  V30 7665 H 741.607 4.27957 -0.987407 0
M  V30 7666 H 742.213 3.47433 -2.45296 0
M  V30 7667 N 740.528 1.15101 1.07655 0
M  V30 7668 C 741.776 0.922149 1.79836 0
M  V30 7669 C 742.097 -0.552346 1.87014 0
M  V30 7670 O 741.367 -1.40145 1.3688 0
M  V30 7671 H 739.947 0.338182 0.666064 0
M  V30 7672 H 742.609 1.45107 1.30115 0
M  V30 7673 H 741.705 1.32883 2.82398 0
M  V30 7674 N 742.006 -1.2595 0.947325 0
M  V30 7675 C 742.969 -2.24407 0.466285 0
M  V30 7676 C 743.969 -1.55054 -0.426005 0
M  V30 7677 O 745.159 -1.7275 -0.224319 0
M  V30 7678 C 742.291 -3.39326 -0.327201 0
M  V30 7679 H 743.484 -2.68477 1.33642 0
M  V30 7680 H 741.037 -1.38211 0.729887 0
M  V30 7681 H 741.772 -3.00667 -1.21532 0
M  V30 7682 H 741.557 -3.9085 0.312839 0
M  V30 7683 H 743.047 -4.12455 -0.653477 0
M  V30 7684 N 743.484 -0.715051 -1.40445 0
M  V30 7685 C 744.447 -0.0708726 -2.2909 0
M  V30 7686 C 745.447 0.687926 -1.45342 0
M  V30 7687 O 746.637 0.519908 -1.66261 0
M  V30 7688 C 743.769 0.909528 -3.28543 0
M  V30 7689 H 744.962 -0.851611 -2.87555 0
M  V30 7690 H 742.515 -0.479674 -1.48758 0
M  V30 7691 H 743.25 1.71734 -2.75096 0
M  V30 7692 H 743.035 0.368318 -3.90366 0
M  V30 7693 H 744.525 1.35744 -3.94922 0
M  V30 7694 N 744.962 1.50701 -0.461195 0
M  V30 7695 C 745.892 2.31182 0.328184 0
M  V30 7696 C 746.873 1.37644 0.999408 0
M  V30 7697 O 748.058 1.66565 0.99848 0
M  V30 7698 C 745.188 3.17113 1.41621 0
M  V30 7699 C 744.142 4.19124 0.867148 0
M  V30 7700 C 743.468 4.93728 2.05272 0
M  V30 7701 C 744.768 5.22174 -0.114808 0
M  V30 7702 H 746.462 2.97423 -0.343501 0
M  V30 7703 H 744.008 1.43033 -0.166641 0
M  V30 7704 H 745.961 3.72208 1.97584 0
M  V30 7705 H 744.685 2.48739 2.11652 0
M  V30 7706 H 743.344 3.65116 0.329557 0
M  V30 7707 H 742.992 4.21835 2.73978 0
M  V30 7708 H 742.692 5.62724 1.69161 0
M  V30 7709 H 744.216 5.51654 2.61744 0
M  V30 7710 H 745.63 5.72198 0.355316 0
M  V30 7711 H 744.027 5.98833 -0.389689 0
M  V30 7712 H 745.097 4.7353 -1.04391 0
M  V30 7713 N 746.441 0.193421 1.56409 0
M  V30 7714 C 747.666 -0.454552 2.02358 0
M  V30 7715 C 748.091 -1.54516 1.07268 0
M  V30 7716 O 747.449 -1.81214 0.0558962 0
M  V30 7717 C 747.497 -0.989469 3.46759 0
M  V30 7718 O 746.601 -2.10244 3.54783 0
M  V30 7719 H 745.942 -0.106417 0.655417 0
M  V30 7720 H 748.472 0.303807 2.02332 0
M  V30 7721 H 748.482 -1.30649 3.86516 0
M  V30 7722 H 747.157 -0.191083 4.15461 0
M  V30 7723 H 745.734 -1.79419 3.26899 0
M  V30 7724 N 747.919 -1.57396 -0.0801906 0
M  V30 7725 C 749.168 -1.8602 -0.779702 0
M  V30 7726 C 749.481 -0.784864 -1.79163 0
M  V30 7727 O 750.687 -0.958691 -2.54011 0
M  V30 7728 C 749.143 -3.29942 -1.43758 0
M  V30 7729 C 748.751 -4.45584 -0.464654 0
M  V30 7730 C 750.495 -3.67775 -2.11995 0
M  V30 7731 C 748.402 -5.80544 -1.12797 0
M  V30 7732 H 747.332 -0.69392 -0.294943 0
M  V30 7733 H 749.983 -1.83471 -0.0328527 0
M  V30 7734 H 748.365 -3.27078 -2.2324 0
M  V30 7735 H 749.539 -4.59824 0.299749 0
M  V30 7736 H 747.854 -4.16247 0.112813 0
M  V30 7737 H 750.451 -4.65896 -2.62383 0
M  V30 7738 H 750.794 -2.9715 -2.91561 0
M  V30 7739 H 751.327 -3.72593 -1.39354 0
M  V30 7740 H 748.066 -6.54439 -0.372807 0
M  V30 7741 H 747.586 -5.70119 -1.86344 0
M  V30 7742 H 749.265 -6.25602 -1.6502 0
M  V30 7743 N 749.397 0.351382 -1.53633 0
M  V30 7744 C 750.674 1.10903 -1.6112 0
M  V30 7745 C 751.054 2.06725 -0.427556 0
M  V30 7746 O 750.402 2.20992 0.580916 0
M  V30 7747 C 750.612 1.83561 -2.96827 0
M  V30 7748 C 751.96 2.37587 -3.51906 0
M  V30 7749 O 752.984 1.93669 -2.9895 0
M  V30 7750 O 751.843 3.17913 -4.44515 0
M  V30 7751 H 748.937 0.509558 -0.651368 0
M  V30 7752 H 751.483 0.353504 -1.65977 0
M  V30 7753 H 750.255 1.1371 -3.74414 0
M  V30 7754 H 749.878 2.6599 -2.95525 0
M  V30 7755 N 750.875 1.45233 0.611969 0
M  V30 7756 C 752.123 1.48727 1.36838 0
M  V30 7757 C 752.444 0.128616 1.94575 0
M  V30 7758 O 751.714 -0.84149 1.76906 0
M  V30 7759 H 750.294 0.547695 0.507976 0
M  V30 7760 H 752.956 1.81156 0.718925 0
M  V30 7761 H 752.052 2.2236 2.19003 0
M  V30 7762 N 752.353 -0.854086 1.3245 0
M  V30 7763 C 753.303 -1.9508 1.18016 0
M  V30 7764 C 754.287 -1.60665 0.0869417 0
M  V30 7765 O 755.479 -1.74201 0.313505 0
M  V30 7766 C 752.608 -3.3113 0.905961 0
M  V30 7767 C 751.694 -3.71763 2.04091 0
M  V30 7768 N 752.085 -3.84218 3.28953 0
M  V30 7769 C 750.383 -4.01393 1.94421 0
M  V30 7770 C 751.084 -4.192 4.03294 0
M  V30 7771 N 750.06 -4.30749 3.31596 0
M  V30 7772 H 753.862 -2.02843 2.12678 0
M  V30 7773 H 751.376 -1.04588 1.24238 0
M  V30 7774 H 753.373 -4.09471 0.783508 0
M  V30 7775 H 752.033 -3.24684 -0.0322715 0
M  V30 7776 H 753.044 -3.68524 3.63883 0
M  V30 7777 H 749.721 -4.03246 1.08162 0
M  V30 7778 H 751.111 -4.36301 5.1097 0
M  V30 7779 N 753.831 -1.1567 -1.07043 0
M  V30 7780 C 754.761 -0.879348 -2.16309 0
M  V30 7781 C 755.742 0.171311 -1.69235 0
M  V30 7782 O 756.927 0.0250175 -1.94184 0
M  V30 7783 C 754.057 -0.371307 -3.45309 0
M  V30 7784 C 753.011 -1.359 -4.05851 0
M  V30 7785 C 752.337 -0.709678 -5.29969 0
M  V30 7786 C 753.637 -2.72606 -4.45514 0
M  V30 7787 H 755.331 -1.79308 -2.39768 0
M  V30 7788 H 752.877 -0.863558 -1.15233 0
M  V30 7789 H 754.83 -0.164798 -4.21078 0
M  V30 7790 H 753.554 0.577906 -3.21446 0
M  V30 7791 H 752.213 -1.55193 -3.32131 0
M  V30 7792 H 751.861 0.245782 -5.02399 0
M  V30 7793 H 751.561 -1.36886 -5.71433 0
M  V30 7794 H 753.085 -0.513015 -6.08441 0
M  V30 7795 H 754.499 -2.57141 -5.12398 0
M  V30 7796 H 752.896 -3.34927 -4.97939 0
M  V30 7797 H 753.966 -3.28434 -3.56734 0
M  V30 7798 N 755.309 1.25446 -0.953992 0
M  V30 7799 C 756.239 2.28264 -0.491717 0
M  V30 7800 C 757.22 1.63717 0.461617 0
M  V30 7801 O 758.405 1.90821 0.36071 0
M  V30 7802 C 755.535 3.46525 0.231915 0
M  V30 7803 C 754.489 4.23247 -0.636098 0
M  V30 7804 C 753.815 5.34254 0.218238 0
M  V30 7805 C 755.115 4.85971 -1.91389 0
M  V30 7806 H 756.809 2.67183 -1.35106 0
M  V30 7807 H 754.355 1.2844 -0.651095 0
M  V30 7808 H 756.308 4.17576 0.566439 0
M  V30 7809 H 755.032 3.06594 1.12551 0
M  V30 7810 H 753.691 3.53978 -0.953696 0
M  V30 7811 H 753.339 4.90564 1.11156 0
M  V30 7812 H 753.039 5.86501 -0.359232 0
M  V30 7813 H 754.563 6.08138 0.547743 0
M  V30 7814 H 755.977 5.49168 -1.64581 0
M  V30 7815 H 754.374 5.48391 -2.43696 0
M  V30 7816 H 755.444 4.08192 -2.61738 0
M  V30 7817 N 756.787 0.722489 1.40064 0
M  V30 7818 C 758.015 0.274838 2.05066 0
M  V30 7819 C 758.43 -1.08586 1.54449 0
M  V30 7820 O 757.787 -1.68375 0.704003 0
M  V30 7821 C 757.838 0.253673 3.60609 0
M  V30 7822 O 757.559 1.56064 4.0936 0
M  V30 7823 C 759.06 -0.211684 4.42794 0
M  V30 7824 H 756.28 0.12226 0.659768 0
M  V30 7825 H 758.824 0.982632 1.79345 0
M  V30 7826 H 756.979 -0.405137 3.85276 0
M  V30 7827 H 757.393 1.46576 5.03603 0
M  V30 7828 H 758.867 -0.175341 5.51721 0
M  V30 7829 H 759.344 -1.25493 4.2089 0
M  V30 7830 H 759.95 0.4171 4.2325 0
M  V30 7831 N 758.265 -1.50454 0.469181 0
M  V30 7832 C 759.511 -2.02615 -0.0865971 0
M  V30 7833 C 759.844 -1.35062 -1.39542 0
M  V30 7834 O 759.119 -0.475701 -1.88593 0
M  V30 7835 C 759.402 -3.59068 -0.272385 0
M  V30 7836 C 759.255 -4.37196 1.05733 0
M  V30 7837 C 760.574 -4.2793 -1.0278 0
M  V30 7838 H 757.693 -0.736389 -0.0299977 0
M  V30 7839 H 760.335 -1.79792 0.614399 0
M  V30 7840 H 758.485 -3.78646 -0.869471 0
M  V30 7841 H 760.157 -4.29195 1.69084 0
M  V30 7842 H 758.4 -4.01013 1.65442 0
M  V30 7843 H 759.071 -5.44924 0.880997 0
M  V30 7844 H 761.547 -4.12816 -0.521718 0
M  V30 7845 H 760.423 -5.37214 -1.12659 0
M  V30 7846 H 760.684 -3.90968 -2.0639 0
M  V30 7847 N 759.743 -0.201713 -1.56304 0
M  V30 7848 C 760.991 0.434447 -1.97375 0
M  V30 7849 C 761.312 1.61692 -1.08998 0
M  V30 7850 O 760.582 1.95223 -0.162682 0
M  V30 7851 H 759.162 0.163497 -0.728888 0
M  V30 7852 H 761.824 -0.289988 -1.92731 0
M  V30 7853 H 760.92 0.774136 -3.02347 0
M  V30 7854 N 761.222 1.57436 0.0718424 0
M  V30 7855 C 762.499 1.78312 0.804006 0
M  V30 7856 C 762.879 0.789273 1.9579 0
M  V30 7857 O 762.227 -0.177605 2.27809 0
M  V30 7858 C 762.437 3.24798 1.277 0
M  V30 7859 C 763.785 3.88627 1.71039 0
M  V30 7860 O 764.809 3.28689 1.37266 0
M  V30 7861 O 763.668 4.94073 2.33567 0
M  V30 7862 H 760.762 0.73178 0.385262 0
M  V30 7863 H 763.308 1.69621 0.0519219 0
M  V30 7864 H 762.08 3.88688 0.45134 0
M  V30 7865 H 761.703 3.38213 2.0904 0
M  V30 7866 N 762.7 -0.34323 1.53817 0
M  V30 7867 C 763.946 -1.08137 1.72273 0
M  V30 7868 C 764.301 -1.86311 0.480201 0
M  V30 7869 O 763.594 -1.84204 -0.527192 0
M  V30 7870 C 763.788 -2.05195 2.92626 0
M  V30 7871 C 763.617 -1.36561 4.28464 0
M  V30 7872 C 762.387 -1.11033 4.9295 0
M  V30 7873 C 764.585 -0.791663 5.0817 0
M  V30 7874 N 762.567 -0.389839 6.12661 0
M  V30 7875 C 763.938 -0.201742 6.19672 0
M  V30 7876 C 765.993 -0.692541 4.9306 0
M  V30 7877 C 764.696 0.477661 7.17712 0
M  V30 7878 C 766.722 -0.0268775 5.91394 0
M  V30 7879 C 766.084 0.552072 7.02233 0
M  V30 7880 H 762.183 -0.380078 0.683421 0
M  V30 7881 H 764.767 -0.364925 1.9125 0
M  V30 7882 H 762.938 -2.74131 2.75149 0
M  V30 7883 H 764.67 -2.7185 2.99799 0
M  V30 7884 H 761.425 -1.39752 4.52511 0
M  V30 7885 H 761.849 -0.0443076 6.76986 0
M  V30 7886 H 766.491 -1.12589 4.07534 0
M  V30 7887 H 764.209 0.922895 8.02813 0
M  V30 7888 H 767.795 0.0491921 5.81779 0
M  V30 7889 H 766.675 1.05899 7.77017 0
M  V30 7890 N 764.178 -1.45556 -0.604258 0
M  V30 7891 C 765.589 -1.44171 -1.18624 0
M  V30 7892 C 765.94 -0.171081 -1.95453 0
M  V30 7893 O 765.065 0.727156 -2.03817 0
M  V30 7894 C 765.66 -2.61193 -2.15786 0
M  V30 7895 C 764.219 -2.62918 -2.69353 0
M  V30 7896 C 763.366 -2.36479 -1.4482 0
M  V30 7897 H 766.317 -1.53747 -0.393381 0
M  V30 7898 H 766.338 -2.35481 -2.98879 0
M  V30 7899 H 765.85 -3.53656 -1.59841 0
M  V30 7900 H 763.951 -1.7447 -3.29228 0
M  V30 7901 H 764.064 -3.6224 -3.13559 0
M  V30 7902 H 762.428 -1.86103 -1.73891 0
M  V30 7903 H 763.211 -3.31091 -0.907376 0
M  V30 7904 N 765.656 0.84705 -1.32902 0
M  V30 7905 C 767.067 1.41785 -1.21466 0
M  V30 7906 C 767.418 1.95464 0.169767 0
M  V30 7907 O 766.543 1.88157 1.06892 0
M  V30 7908 C 767.138 2.57734 -2.19906 0
M  V30 7909 C 765.697 3.10791 -2.12334 0
M  V30 7910 C 764.844 1.83562 -2.07847 0
M  V30 7911 H 767.795 0.653532 -1.44619 0
M  V30 7912 H 767.816 3.35123 -1.80202 0
M  V30 7913 H 767.328 2.18635 -3.20656 0
M  V30 7914 H 765.429 3.54455 -1.14858 0
M  V30 7915 H 765.542 3.71519 -3.02506 0
M  V30 7916 H 763.906 2.03475 -1.53199 0
M  V30 7917 H 764.689 1.4667 -3.10392 0
M  V30 7918 N 767.134 1.16236 1.06428 0
M  V30 7919 C 768.545 0.950942 1.60667 0
M  V30 7920 C 768.896 -0.505491 1.89576 0
M  V30 7921 O 768.021 -1.37843 1.66818 0
M  V30 7922 C 768.616 1.71982 2.91904 0
M  V30 7923 C 767.175 1.55342 3.4285 0
M  V30 7924 C 766.322 1.72942 2.16763 0
M  V30 7925 H 769.273 1.31126 0.893959 0
M  V30 7926 H 769.294 1.19483 3.61253 0
M  V30 7927 H 768.806 2.77978 2.70831 0
M  V30 7928 H 766.907 0.5178 3.68985 0
M  V30 7929 H 767.02 2.33643 4.18267 0
M  V30 7930 H 765.384 1.15673 2.26918 0
M  V30 7931 H 766.167 2.80324 1.98175 0
M  V30 7932 N 768.612 -1.24939 0.960631 0
M  V30 7933 C 769.575 -2.239 0.49006 0
M  V30 7934 C 770.575 -1.55497 -0.409535 0
M  V30 7935 O 771.765 -1.72978 -0.205984 0
M  V30 7936 C 768.897 -3.39654 -0.291193 0
M  V30 7937 H 770.09 -2.67044 1.36482 0
M  V30 7938 H 767.643 -1.37429 0.744505 0
M  V30 7939 H 768.378 -3.01939 -1.18336 0
M  V30 7940 H 768.163 -3.90496 0.354276 0
M  V30 7941 H 769.653 -4.13125 -0.609693 0
M  V30 7942 N 770.09 -0.729906 -1.39679 0
M  V30 7943 C 771 -0.0880322 -2.34435 0
M  V30 7944 C 772.016 0.727674 -1.58053 0
M  V30 7945 O 773.192 0.657321 -1.90371 0
M  V30 7946 C 770.257 0.812211 -3.37052 0
M  V30 7947 C 769.318 -0.0151681 -4.29297 0
M  V30 7948 C 768.551 0.842202 -5.27013 0
M  V30 7949 O 768.774 2.08108 -5.31081 0
M  V30 7950 O 767.708 0.27357 -6.01278 0
M  V30 7951 H 771.534 -0.869989 -2.90972 0
M  V30 7952 H 769.119 -0.490522 -1.41118 0
M  V30 7953 H 771.001 1.32745 -3.99946 0
M  V30 7954 H 769.676 1.57307 -2.82907 0
M  V30 7955 H 768.583 -0.575811 -3.69642 0
M  V30 7956 H 769.916 -0.738129 -4.86634 0
M  V30 7957 N 771.568 1.50203 -0.477153 0
M  V30 7958 C 772.814 2.02658 0.0758507 0
M  V30 7959 C 773.147 1.358 1.38824 0
M  V30 7960 O 772.422 0.485696 1.88338 0
M  V30 7961 C 772.705 3.59208 0.253339 0
M  V30 7962 C 772.558 4.36629 -1.0805 0
M  V30 7963 C 773.877 4.28469 1.00509 0
M  V30 7964 H 770.996 0.736538 0.0260921 0
M  V30 7965 H 773.638 1.79464 -0.623925 0
M  V30 7966 H 771.788 3.79101 0.849378 0
M  V30 7967 H 773.46 4.28292 -1.71358 0
M  V30 7968 H 771.703 4.0013 -1.67566 0
M  V30 7969 H 772.374 5.44449 -0.909883 0
M  V30 7970 H 774.85 4.13087 0.499818 0
M  V30 7971 H 773.726 5.37804 1.09808 0
M  V30 7972 H 773.987 3.92057 2.04314 0
M  V30 7973 N 773.046 0.209999 1.56195 0
M  V30 7974 C 774.009 -0.691232 2.18528 0
M  V30 7975 C 775.009 -1.13013 1.14388 0
M  V30 7976 O 776.199 -1.04081 1.39688 0
M  V30 7977 C 773.331 -1.94551 2.79934 0
M  V30 7978 H 774.524 -0.147953 2.99535 0
M  V30 7979 H 772.077 -0.0396243 1.5625 0
M  V30 7980 H 772.812 -2.53094 2.02766 0
M  V30 7981 H 772.597 -1.63938 3.56184 0
M  V30 7982 H 774.087 -2.58785 3.2775 0
M  V30 7983 N 774.524 -1.57472 -0.0634922 0
M  V30 7984 C 775.487 -2.03268 -1.059 0
M  V30 7985 C 776.487 -0.931028 -1.31105 0
M  V30 7986 O 777.677 -1.19567 -1.26686 0
M  V30 7987 C 774.809 -2.42039 -2.40062 0
M  V30 7988 H 776.002 -2.92454 -0.664119 0
M  V30 7989 H 773.555 -1.53206 -0.309444 0
M  V30 7990 H 774.29 -1.55904 -2.84367 0
M  V30 7991 H 774.075 -3.22437 -2.23108 0
M  V30 7992 H 775.565 -2.78017 -3.11603 0
M  V30 7993 N 776.003 0.335068 -1.53997 0
M  V30 7994 C 776.933 1.41727 -1.85568 0
M  V30 7995 C 777.914 1.54505 -0.7115 0
M  V30 7996 O 779.099 1.68573 -0.964191 0
M  V30 7997 C 776.229 2.7866 -2.07282 0
M  V30 7998 C 775.183 2.80682 -3.23112 0
M  V30 7999 C 774.509 4.20581 -3.30175 0
M  V30 8000 C 775.809 2.45458 -4.61029 0
M  V30 8001 H 777.503 1.15555 -2.76202 0
M  V30 8002 H 775.049 0.554445 -1.32898 0
M  V30 8003 H 777.002 3.54423 -2.27952 0
M  V30 8004 H 775.726 3.06286 -1.13387 0
M  V30 8005 H 774.385 2.07373 -3.02311 0
M  V30 8006 H 774.033 4.4533 -2.33859 0
M  V30 8007 H 773.733 4.22843 -4.08016 0
M  V30 8008 H 775.257 4.98174 -3.53066 0
M  V30 8009 H 776.671 3.10934 -4.81656 0
M  V30 8010 H 775.068 2.5899 -5.41336 0
M  V30 8011 H 776.138 1.40628 -4.6406 0
M  V30 8012 N 777.481 1.45874 0.596531 0
M  V30 8013 C 778.897 1.30524 0.918459 0
M  V30 8014 C 779.097 0.266429 1.99731 0
M  V30 8015 O 778.153 -0.335809 2.50257 0
M  V30 8016 C 779.466 2.68747 1.3489 0
M  V30 8017 C 781.014 2.7673 1.46251 0
M  V30 8018 C 781.489 4.15504 1.92667 0
M  V30 8019 N 782.98 4.17853 1.99883 0
M  V30 8020 C 783.715 5.22109 2.37044 0
M  V30 8021 N 783.211 6.36704 2.73094 0
M  V30 8022 N 785.004 5.09471 2.37479 0
M  V30 8023 H 777.155 2.12081 -0.116368 0
M  V30 8024 H 779.418 0.947941 0.0106033 0
M  V30 8025 H 779.124 3.46006 0.630288 0
M  V30 8026 H 778.998 2.97942 2.31323 0
M  V30 8027 H 781.385 1.99768 2.17202 0
M  V30 8028 H 781.466 2.51236 0.481054 0
M  V30 8029 H 781.11 4.92956 1.223 0
M  V30 8030 H 781.04 4.38396 2.91747 0
M  V30 8031 H 783.531 3.35163 1.74568 0
M  V30 8032 H 783.844 7.12041 3.00362 0
M  V30 8033 H 782.189 6.40087 2.70764 0
M  V30 8034 H 785.38 4.18987 2.08728 0
M  V30 8035 H 785.553 5.90837 2.66112 0
M  V30 8036 N 778.959 -0.83999 1.33349 0
M  V30 8037 C 779.922 -1.93128 1.23426 0
M  V30 8038 C 780.922 -1.60065 0.153599 0
M  V30 8039 O 782.112 -1.69425 0.405049 0
M  V30 8040 C 779.244 -3.28761 0.901622 0
M  V30 8041 H 780.437 -2.03352 2.20427 0
M  V30 8042 H 777.99 -1.03194 1.17391 0
M  V30 8043 H 778.725 -3.24233 -0.0659337 0
M  V30 8044 H 778.51 -3.54138 1.68311 0
M  V30 8045 H 780 -4.08714 0.856913 0
M  V30 8046 N 780.437 -1.16799 -1.0581 0
M  V30 8047 C 781.683 -0.963929 -1.79109 0
M  V30 8048 C 782.038 0.502569 -1.8572 0
M  V30 8049 O 781.331 1.36813 -1.34137 0
M  V30 8050 C 781.525 -1.53111 -3.22942 0
M  V30 8051 C 781.354 -3.05123 -3.30348 0
M  V30 8052 C 780.124 -3.73804 -3.39998 0
M  V30 8053 C 782.322 -4.02777 -3.19805 0
M  V30 8054 N 780.304 -5.1348 -3.36469 0
M  V30 8055 C 781.675 -5.28866 -3.23576 0
M  V30 8056 C 783.73 -3.94533 -3.03724 0
M  V30 8057 C 782.433 -6.47669 -3.12918 0
M  V30 8058 C 784.459 -5.12913 -2.94405 0
M  V30 8059 C 783.821 -6.37884 -2.98803 0
M  V30 8060 H 779.92 -0.406555 -0.66801 0
M  V30 8061 H 782.504 -1.48277 -1.26183 0
M  V30 8062 H 780.675 -1.03869 -3.74254 0
M  V30 8063 H 782.407 -1.2643 -3.84444 0
M  V30 8064 H 779.162 -3.24457 -3.44999 0
M  V30 8065 H 779.586 -5.86477 -3.38191 0
M  V30 8066 H 784.228 -2.98763 -2.99166 0
M  V30 8067 H 781.946 -7.43656 -3.16231 0
M  V30 8068 H 785.532 -5.08309 -2.83042 0
M  V30 8069 H 784.412 -7.27946 -2.91657 0
M  V30 8070 N 781.915 1.24427 -0.967243 0
M  V30 8071 C 782.845 2.2773 -0.515899 0
M  V30 8072 C 783.826 1.64197 0.444227 0
M  V30 8073 O 785.011 1.91193 0.340451 0
M  V30 8074 C 782.141 3.46751 0.195149 0
M  V30 8075 C 781.095 4.22548 -0.680953 0
M  V30 8076 C 780.421 5.34456 0.161561 0
M  V30 8077 C 781.721 4.83914 -1.96532 0
M  V30 8078 H 783.415 2.65735 -1.37933 0
M  V30 8079 H 780.961 1.27742 -0.664681 0
M  V30 8080 H 782.914 4.18153 0.522117 0
M  V30 8081 H 781.638 3.07771 1.09292 0
M  V30 8082 H 780.297 3.52946 -0.991186 0
M  V30 8083 H 779.945 4.91716 1.05947 0
M  V30 8084 H 779.645 5.86087 -0.421418 0
M  V30 8085 H 781.169 6.08685 0.483211 0
M  V30 8086 H 782.583 5.47392 -1.70396 0
M  V30 8087 H 780.98 5.45775 -2.49499 0
M  V30 8088 H 782.05 4.05393 -2.66053 0
M  V30 8089 N 783.393 0.737304 1.3929 0
M  V30 8090 C 784.303 0.100464 2.34385 0
M  V30 8091 C 785.319 -0.719282 1.58437 0
M  V30 8092 O 786.495 -0.647216 1.90717 0
M  V30 8093 C 783.56 -0.794325 3.37478 0
M  V30 8094 C 782.621 0.0379345 4.29283 0
M  V30 8095 C 781.854 -0.814241 5.27452 0
M  V30 8096 O 782.077 -2.05288 5.32177 0
M  V30 8097 O 781.011 -0.241679 6.01415 0
M  V30 8098 H 784.837 0.885407 2.90507 0
M  V30 8099 H 782.422 0.497999 1.40856 0
M  V30 8100 H 784.304 -1.30622 4.00644 0
M  V30 8101 H 782.979 -1.55804 2.83737 0
M  V30 8102 H 781.886 0.595405 3.69331 0
M  V30 8103 H 783.219 0.763926 4.86236 0
M  V30 8104 N 784.871 -1.49948 0.485112 0
M  V30 8105 C 786.282 -1.8667 0.0334041 0
M  V30 8106 C 786.633 -1.3988 -1.37579 0
M  V30 8107 O 785.758 -0.769788 -2.02245 0
M  V30 8108 C 786.353 -3.38757 0.0538426 0
M  V30 8109 C 784.912 -3.74839 -0.342453 0
M  V30 8110 C 784.059 -2.73894 0.433281 0
M  V30 8111 H 787.01 -1.42492 0.698699 0
M  V30 8112 H 787.031 -3.73132 -0.745146 0
M  V30 8113 H 786.543 -3.72782 1.07959 0
M  V30 8114 H 784.644 -3.46419 -1.37203 0
M  V30 8115 H 784.757 -4.79088 -0.0340503 0
M  V30 8116 H 783.121 -2.54441 -0.114849 0
M  V30 8117 H 783.904 -3.10763 1.45881 0
M  V30 8118 N 786.349 -0.21828 -1.56081 0
M  V30 8119 C 787.765 0.137168 -1.59009 0
M  V30 8120 C 787.965 1.59215 -1.23503 0
M  V30 8121 O 787.021 2.33178 -0.968716 0
M  V30 8122 C 788.334 -0.186162 -3.00123 0
M  V30 8123 C 789.882 -0.128135 -3.12738 0
M  V30 8124 C 790.357 -0.425094 -4.56023 0
M  V30 8125 N 791.848 -0.374547 -4.61683 0
M  V30 8126 C 792.583 -0.57786 -5.70481 0
M  V30 8127 N 792.079 -0.842771 -6.87655 0
M  V30 8128 N 793.872 -0.510521 -5.59777 0
M  V30 8129 H 786.023 -1.16746 -1.77437 0
M  V30 8130 H 788.286 -0.467706 -0.824594 0
M  V30 8131 H 787.992 -1.19589 -3.30744 0
M  V30 8132 H 787.866 0.500388 -3.73866 0
M  V30 8133 H 790.253 0.872224 -2.81915 0
M  V30 8134 H 790.334 -0.848112 -2.41331 0
M  V30 8135 H 789.978 -1.42288 -4.87562 0
M  V30 8136 H 789.908 0.316038 -5.25651 0
M  V30 8137 H 792.399 -0.177356 -3.77484 0
M  V30 8138 H 792.712 -0.986095 -7.66483 0
M  V30 8139 H 791.057 -0.879929 -6.89407 0
M  V30 8140 H 794.248 -0.303813 -4.67113 0
M  V30 8141 H 794.421 -0.672378 -6.44502 0
M  V30 8142 N 787.827 1.57504 0.0551401 0
M  V30 8143 C 789.073 1.89191 0.74688 0
M  V30 8144 C 789.428 0.813936 1.74335 0
M  V30 8145 O 788.721 -0.180217 1.90751 0
M  V30 8146 C 788.915 3.25311 1.48013 0
M  V30 8147 C 788.744 4.46247 0.556176 0
M  V30 8148 C 787.514 5.04954 0.186891 0
M  V30 8149 C 789.712 5.14068 -0.154295 0
M  V30 8150 N 787.694 6.09411 -0.741041 0
M  V30 8151 C 789.065 6.12851 -0.938809 0
M  V30 8152 C 791.12 4.97396 -0.224007 0
M  V30 8153 C 789.823 6.96759 -1.78658 0
M  V30 8154 C 791.849 5.81845 -1.05881 0
M  V30 8155 C 791.211 6.80178 -1.83133 0
M  V30 8156 H 787.31 0.741562 0.248213 0
M  V30 8157 H 789.894 1.94698 0.00777734 0
M  V30 8158 H 788.065 3.20781 2.18985 0
M  V30 8159 H 789.797 3.44594 2.12219 0
M  V30 8160 H 786.552 4.70472 0.543415 0
M  V30 8161 H 786.976 6.66303 -1.19874 0
M  V30 8162 H 791.618 4.21274 0.358924 0
M  V30 8163 H 789.336 7.72245 -2.38042 0
M  V30 8164 H 792.922 5.70997 -1.11595 0
M  V30 8165 H 791.802 7.44389 -2.46687 0
M  V30 8166 N 789.305 -0.326896 1.54172 0
M  V30 8167 C 790.553 -1.06313 1.71878 0
M  V30 8168 C 790.874 -1.88652 0.493498 0
M  V30 8169 O 790.144 -1.89608 -0.492522 0
M  V30 8170 H 788.724 -0.39549 0.633716 0
M  V30 8171 H 791.386 -0.364139 1.91468 0
M  V30 8172 H 790.482 -1.73105 2.59694 0
M  V30 8173 N 790.784 -1.46188 -0.588786 0
M  V30 8174 C 792.009 -1.5498 -1.37826 0
M  V30 8175 C 792.434 -0.189498 -1.87143 0
M  V30 8176 O 791.792 0.829293 -1.61222 0
M  V30 8177 C 791.84 -2.55369 -2.54596 0
M  V30 8178 O 790.944 -2.08452 -3.55839 0
M  V30 8179 H 790.285 -0.521741 -0.41071 0
M  V30 8180 H 792.815 -1.91708 -0.714779 0
M  V30 8181 H 792.825 -2.74782 -3.01594 0
M  V30 8182 H 791.5 -3.54155 -2.18052 0
M  V30 8183 H 790.077 -1.98999 -3.15363 0
M  V30 8184 N 792.262 0.832906 -1.33792 0
M  V30 8185 C 793.225 1.92471 -1.24449 0
M  V30 8186 C 794.225 1.59981 -0.162085 0
M  V30 8187 O 795.415 1.69208 -0.414029 0
M  V30 8188 C 792.547 3.28278 -0.919044 0
M  V30 8189 H 793.74 2.0218 -2.21502 0
M  V30 8190 H 791.293 1.0257 -1.17936 0
M  V30 8191 H 792.028 3.24263 0.048738 0
M  V30 8192 H 791.813 3.53241 -1.70187 0
M  V30 8193 H 793.303 4.08253 -0.878576 0
M  V30 8194 N 793.74 1.17359 1.05189 0
M  V30 8195 C 794.988 0.960087 1.77839 0
M  V30 8196 C 795.309 -0.512554 1.88143 0
M  V30 8197 O 794.579 -1.3721 1.39822 0
M  V30 8198 H 793.159 0.352234 0.658741 0
M  V30 8199 H 795.821 1.47834 1.27008 0
M  V30 8200 H 794.917 1.38843 2.79516 0
M  V30 8201 N 795.218 -1.23913 0.973828 0
M  V30 8202 C 796.148 -2.27453 0.527969 0
M  V30 8203 C 797.129 -1.6443 -0.435513 0
M  V30 8204 O 798.314 -1.9137 -0.330306 0
M  V30 8205 C 795.444 -3.4685 -0.176757 0
M  V30 8206 C 794.398 -4.22181 0.703352 0
M  V30 8207 C 793.724 -5.34534 -0.133215 0
M  V30 8208 C 795.024 -4.82865 1.99096 0
M  V30 8209 H 796.718 -2.65 1.3934 0
M  V30 8210 H 794.264 -1.27388 0.671446 0
M  V30 8211 H 796.217 -4.18424 -0.499934 0
M  V30 8212 H 794.941 -3.08346 -1.07659 0
M  V30 8213 H 793.6 -3.52416 1.00989 0
M  V30 8214 H 793.248 -4.92271 -1.03338 0
M  V30 8215 H 792.948 -5.85855 0.452494 0
M  V30 8216 H 794.472 -6.08933 -0.450924 0
M  V30 8217 H 795.886 -5.46481 1.73297 0
M  V30 8218 H 794.283 -5.44444 2.52389 0
M  V30 8219 H 795.353 -4.03977 2.68199 0
M  V30 8220 N 796.696 -0.74468 -1.38897 0
M  V30 8221 C 797.943 -0.296884 -2.00312 0
M  V30 8222 C 798.271 1.11878 -1.59102 0
M  V30 8223 O 797.526 1.7789 -0.815702 0
M  V30 8224 C 797.825 -0.357302 -3.55609 0
M  V30 8225 C 797.491 -1.72736 -4.16501 0
M  V30 8226 C 796.153 -2.10232 -4.32846 0
M  V30 8227 C 798.505 -2.62647 -4.50184 0
M  V30 8228 C 795.833 -3.3713 -4.80167 0
M  V30 8229 C 798.185 -3.88926 -4.98918 0
M  V30 8230 C 796.849 -4.26503 -5.1347 0
M  V30 8231 H 796.119 -0.108638 -0.732993 0
M  V30 8232 H 798.766 -0.953419 -1.66079 0
M  V30 8233 H 797.071 0.382805 -3.89925 0
M  V30 8234 H 798.768 0.0074596 -4.00999 0
M  V30 8235 H 795.358 -1.42585 -4.04187 0
M  V30 8236 H 799.542 -2.34945 -4.37166 0
M  V30 8237 H 794.798 -3.66174 -4.89619 0
M  V30 8238 H 798.972 -4.58745 -5.23952 0
M  V30 8239 H 796.599 -5.24896 -5.49898 0
M  V30 8240 N 798.174 1.49689 -0.493057 0
M  V30 8241 C 799.59 1.58907 -0.148526 0
M  V30 8242 C 799.79 1.4991 1.34645 0
M  V30 8243 O 798.846 1.36893 2.12171 0
M  V30 8244 C 800.159 2.91996 -0.718265 0
M  V30 8245 C 801.707 3.05443 -0.683658 0
M  V30 8246 C 802.182 4.41138 -1.23132 0
M  V30 8247 N 803.673 4.47608 -1.19167 0
M  V30 8248 C 804.408 5.51038 -1.5857 0
M  V30 8249 N 803.904 6.61612 -2.05528 0
M  V30 8250 N 805.697 5.41706 -1.50036 0
M  V30 8251 H 797.848 1.5378 -1.46511 0
M  V30 8252 H 800.111 0.727996 -0.607228 0
M  V30 8253 H 799.817 3.04123 -1.7664 0
M  V30 8254 H 799.691 3.76798 -0.17419 0
M  V30 8255 H 802.078 2.92949 0.355626 0
M  V30 8256 H 802.159 2.22344 -1.26479 0
M  V30 8257 H 801.803 4.54382 -2.26935 0
M  V30 8258 H 801.733 5.22864 -0.626201 0
M  V30 8259 H 804.224 3.68274 -0.847524 0
M  V30 8260 H 804.537 7.36622 -2.33685 0
M  V30 8261 H 802.882 6.62674 -2.09497 0
M  V30 8262 H 806.073 4.54212 -1.13176 0
M  V30 8263 H 806.246 6.22188 -1.81068 0
M  V30 8264 N 799.652 0.226554 1.55963 0
M  V30 8265 C 800.88 -0.408507 2.02827 0
M  V30 8266 C 801.295 -1.52994 1.10627 0
M  V30 8267 O 800.652 -1.82126 0.116809 0
M  V30 8268 C 800.703 -0.93545 3.49187 0
M  V30 8269 O 800.424 0.141273 4.37872 0
M  V30 8270 C 801.925 -1.64325 4.11719 0
M  V30 8271 H 799.145 -0.099442 0.66359 0
M  V30 8272 H 801.689 0.344471 2.01578 0
M  V30 8273 H 799.844 -1.63868 3.51036 0
M  V30 8274 H 800.258 -0.25558 5.23877 0
M  V30 8275 H 801.732 -1.9639 5.15883 0
M  V30 8276 H 802.209 -2.55815 3.57009 0
M  V30 8277 H 802.815 -0.9851 4.13734 0
M  V30 8278 N 801.13 -1.57531 -0.0467866 0
M  V30 8279 C 802.355 -1.93087 -0.757123 0
M  V30 8280 C 802.78 -0.825116 -1.69037 0
M  V30 8281 O 802.138 0.220449 -1.79955 0
M  V30 8282 C 802.186 -3.27669 -1.5055 0
M  V30 8283 O 801.29 -3.18667 -2.61773 0
M  V30 8284 H 800.631 -0.631597 -0.204892 0
M  V30 8285 H 803.161 -2.04599 -0.00755232 0
M  V30 8286 H 803.171 -3.6214 -1.87932 0
M  V30 8287 H 801.846 -4.07717 -0.820931 0
M  V30 8288 H 800.423 -2.95798 -2.27064 0
M  V30 8289 N 802.608 0.318715 -1.54344 0
M  V30 8290 C 803.833 1.07987 -1.77069 0
M  V30 8291 C 804.258 1.80766 -0.520117 0
M  V30 8292 O 803.616 1.73424 0.528566 0
M  V30 8293 C 803.664 2.04987 -2.96669 0
M  V30 8294 O 802.768 3.12974 -2.68554 0
M  V30 8295 H 802.109 0.311109 -0.586606 0
M  V30 8296 H 804.639 0.361533 -2.0138 0
M  V30 8297 H 804.649 2.47771 -3.2415 0
M  V30 8298 H 803.324 1.51417 -3.87357 0
M  V30 8299 H 801.901 2.74831 -2.52037 0
M  V30 8300 N 804.086 1.46499 0.581025 0
M  V30 8301 C 805.016 1.60052 1.70017 0
M  V30 8302 C 805.997 0.450788 1.64018 0
M  V30 8303 O 807.182 0.677237 1.82009 0
M  V30 8304 C 804.312 1.5921 3.08658 0
M  V30 8305 C 803.266 2.73169 3.29488 0
M  V30 8306 C 802.592 2.57389 4.68674 0
M  V30 8307 C 803.892 4.14978 3.1716 0
M  V30 8308 H 805.586 2.53735 1.5893 0
M  V30 8309 H 803.132 1.22113 0.763173 0
M  V30 8310 H 805.085 1.67285 3.86773 0
M  V30 8311 H 803.809 0.620718 3.20647 0
M  V30 8312 H 802.468 2.64566 2.53773 0
M  V30 8313 H 802.116 1.58331 4.77431 0
M  V30 8314 H 801.816 3.33826 4.83564 0
M  V30 8315 H 803.34 2.67358 5.48956 0
M  V30 8316 H 804.754 4.24684 3.85119 0
M  V30 8317 H 803.151 4.92016 3.4357 0
M  V30 8318 H 804.221 4.35016 2.14218 0
M  V30 8319 N 805.565 -0.825799 1.34232 0
M  V30 8320 C 806.79 -1.61883 1.29648 0
M  V30 8321 C 807.215 -1.87669 -0.127295 0
M  V30 8322 O 806.573 -1.45016 -1.08813 0
M  V30 8323 C 806.621 -2.93846 2.09014 0
M  V30 8324 O 805.725 -3.85778 1.4577 0
M  V30 8325 H 805.066 -0.492454 0.445405 0
M  V30 8326 H 807.596 -1.02641 1.76992 0
M  V30 8327 H 807.606 -3.43435 2.20264 0
M  V30 8328 H 806.281 -2.74401 3.12533 0
M  V30 8329 H 804.858 -3.4429 1.43245 0
M  V30 8330 N 807.043 -1.17915 -1.04565 0
M  V30 8331 C 808.268 -0.996749 -1.81878 0
M  V30 8332 C 808.693 0.450169 -1.82634 0
M  V30 8333 O 808.051 1.32268 -1.23995 0
M  V30 8334 C 808.099 -1.55005 -3.25585 0
M  V30 8335 O 807.203 -0.76804 -4.05185 0
M  V30 8336 H 806.544 -0.353456 -0.562108 0
M  V30 8337 H 809.074 -1.56557 -1.31723 0
M  V30 8338 H 809.084 -1.57503 -3.76373 0
M  V30 8339 H 807.759 -2.60327 -3.2435 0
M  V30 8340 H 806.336 -0.81498 -3.63885 0
M  V30 8341 N 808.521 1.23394 -0.980386 0
M  V30 8342 C 809.767 1.92094 -0.650223 0
M  V30 8343 C 810.1 1.76309 0.814173 0
M  V30 8344 O 809.375 1.12406 1.5873 0
M  V30 8345 C 809.658 3.44713 -1.04139 0
M  V30 8346 C 809.511 3.69606 -2.56342 0
M  V30 8347 C 810.83 4.36191 -0.585296 0
M  V30 8348 H 807.949 0.697618 -0.237695 0
M  V30 8349 H 810.591 1.45517 -1.22167 0
M  V30 8350 H 808.741 3.84513 -0.55515 0
M  V30 8351 H 810.413 3.39288 -3.1254 0
M  V30 8352 H 808.656 3.14318 -2.98976 0
M  V30 8353 H 809.327 4.76441 -2.78762 0
M  V30 8354 H 811.803 4.03836 -1.00276 0
M  V30 8355 H 810.679 5.41679 -0.887428 0
M  V30 8356 H 810.94 4.39097 0.51438 0
M  V30 8357 N 809.999 0.752036 1.385 0
M  V30 8358 C 811.246 0.307503 2.00152 0
M  V30 8359 C 811.574 -1.11033 1.59693 0
M  V30 8360 O 810.829 -1.77455 0.825125 0
M  V30 8361 C 811.128 0.376155 3.55415 0
M  V30 8362 C 810.794 1.74942 4.15579 0
M  V30 8363 C 809.456 2.12525 4.31725 0
M  V30 8364 C 811.808 2.65031 4.48785 0
M  V30 8365 C 809.136 3.39671 4.78373 0
M  V30 8366 C 811.488 3.91567 4.96848 0
M  V30 8367 C 810.152 4.2922 5.11201 0
M  V30 8368 H 809.422 0.112523 0.732407 0
M  V30 8369 H 812.069 0.962213 1.65571 0
M  V30 8370 H 810.374 -0.362121 3.90123 0
M  V30 8371 H 812.071 0.0138065 4.00998 0
M  V30 8372 H 808.661 1.44726 4.03426 0
M  V30 8373 H 812.845 2.3726 4.35914 0
M  V30 8374 H 808.101 3.68765 4.8767 0
M  V30 8375 H 812.275 4.61517 5.21512 0
M  V30 8376 H 809.902 5.27805 5.47107 0
M  V30 8377 N 811.477 -1.49425 0.500989 0
M  V30 8378 C 812.888 -1.86624 0.0532011 0
M  V30 8379 C 813.239 -1.41331 -1.36088 0
M  V30 8380 O 812.364 -0.791195 -2.01418 0
M  V30 8381 C 812.959 -3.38681 0.0897693 0
M  V30 8382 C 811.518 -3.75181 -0.302677 0
M  V30 8383 C 810.665 -2.73419 0.462307 0
M  V30 8384 H 813.616 -1.41743 0.713773 0
M  V30 8385 H 813.637 -3.73902 -0.705528 0
M  V30 8386 H 813.149 -3.71616 1.11907 0
M  V30 8387 H 811.25 -3.47855 -1.33521 0
M  V30 8388 H 811.363 -4.79097 0.0167653 0
M  V30 8389 H 809.727 -2.54548 -0.0878557 0
M  V30 8390 H 810.51 -3.09198 1.49169 0
M  V30 8391 N 812.955 -0.234822 -1.55841 0
M  V30 8392 C 814.232 0.442961 -1.90518 0
M  V30 8393 C 814.612 1.76768 -1.15397 0
M  V30 8394 O 813.96 2.26928 -0.267534 0
M  V30 8395 C 814.17 0.622905 -3.43396 0
M  V30 8396 C 815.518 0.9243 -4.14417 0
M  V30 8397 O 816.542 0.709211 -3.49068 0
M  V30 8398 O 815.401 1.33323 -5.29988 0
M  V30 8399 H 812.495 0.236042 -0.792599 0
M  V30 8400 H 815.041 -0.277992 -1.67408 0
M  V30 8401 H 813.813 -0.310973 -3.90062 0
M  V30 8402 H 813.436 1.39485 -3.7233 0
M  V30 8403 N 814.433 1.57553 0.0384317 0
M  V30 8404 C 815.396 2.04927 1.02653 0
M  V30 8405 C 816.396 0.951768 1.29607 0
M  V30 8406 O 817.586 1.21568 1.24768 0
M  V30 8407 C 814.718 2.45828 2.36181 0
M  V30 8408 H 815.911 2.93474 0.617508 0
M  V30 8409 H 813.464 1.53679 0.285031 0
M  V30 8410 H 814.199 1.60408 2.8185 0
M  V30 8411 H 813.984 3.25945 2.1795 0
M  V30 8412 H 815.474 2.82939 3.0714 0
M  V30 8413 N 815.911 -0.310526 1.54511 0
M  V30 8414 C 817.139 -1.06611 1.77318 0
M  V30 8415 C 817.554 -1.81265 0.528043 0
M  V30 8416 O 816.911 -1.75466 -0.50178 0
M  V30 8417 C 816.962 -2.05409 2.97472 0
M  V30 8418 O 816.683 -1.33785 4.17173 0
M  V30 8419 C 818.184 -2.93082 3.32593 0
M  V30 8420 H 815.404 -0.316578 0.591624 0
M  V30 8421 H 817.948 -0.352691 2.01436 0
M  V30 8422 H 816.103 -2.72266 2.7559 0
M  V30 8423 H 816.517 -2.00055 4.84849 0
M  V30 8424 H 817.991 -3.58274 4.19933 0
M  V30 8425 H 818.468 -3.60877 2.50329 0
M  V30 8426 H 819.074 -2.31768 3.566 0
M  V30 8427 N 817.389 -1.46805 -0.573248 0
M  V30 8428 C 818.352 -1.57655 -1.66366 0
M  V30 8429 C 819.352 -0.452905 -1.5429 0
M  V30 8430 O 820.542 -0.717502 -1.58737 0
M  V30 8431 C 817.674 -1.50584 -3.05839 0
M  V30 8432 H 818.867 -2.54842 -1.581 0
M  V30 8433 H 816.42 -1.34756 -0.791868 0
M  V30 8434 H 817.155 -0.547127 -3.19651 0
M  V30 8435 H 816.94 -2.32118 -3.16012 0
M  V30 8436 H 818.43 -1.61282 -3.85199 0
M  V30 8437 N 818.867 0.818669 -1.34668 0
M  V30 8438 C 820.097 1.60441 -1.30162 0
M  V30 8439 C 820.505 1.88783 0.125579 0
M  V30 8440 O 819.848 1.48281 1.08437 0
M  V30 8441 C 819.91 2.96794 -2.02864 0
M  V30 8442 C 819.574 2.91327 -3.52105 0
M  V30 8443 C 820.571 2.65611 -4.4693 0
M  V30 8444 C 818.256 3.10825 -3.9458 0
M  V30 8445 C 820.25 2.59452 -5.82206 0
M  V30 8446 C 817.937 3.0429 -5.29954 0
M  V30 8447 C 818.935 2.78637 -6.23579 0
M  V30 8448 O 818.623 2.72042 -7.56471 0
M  V30 8449 H 818.355 0.505278 -0.449077 0
M  V30 8450 H 820.909 1.02632 -1.77921 0
M  V30 8451 H 819.139 3.56538 -1.49725 0
M  V30 8452 H 820.828 3.57837 -1.91592 0
M  V30 8453 H 821.594 2.50278 -4.15434 0
M  V30 8454 H 817.473 3.29807 -3.221 0
M  V30 8455 H 821.017 2.39349 -6.55254 0
M  V30 8456 H 816.914 3.19177 -5.61067 0
M  V30 8457 H 817.682 2.87738 -7.66257 0
M  V30 8458 N 820.346 1.18468 1.03938 0
M  V30 8459 C 821.762 0.934635 1.29371 0
M  V30 8460 C 821.962 -0.399067 1.97509 0
M  V30 8461 O 821.018 -1.13309 2.25648 0
M  V30 8462 C 822.331 2.10111 2.15114 0
M  V30 8463 C 823.879 2.13955 2.28456 0
M  V30 8464 C 824.354 3.30024 3.17566 0
M  V30 8465 N 825.845 3.29893 3.25153 0
M  V30 8466 C 826.58 4.16346 3.94263 0
M  V30 8467 N 826.076 5.12934 4.65693 0
M  V30 8468 N 827.869 4.04256 3.90556 0
M  V30 8469 H 820.02 2.04294 0.581185 0
M  V30 8470 H 822.283 0.892727 0.318971 0
M  V30 8471 H 821.989 3.06572 1.72355 0
M  V30 8472 H 821.863 2.06283 3.15796 0
M  V30 8473 H 824.25 1.18072 2.7045 0
M  V30 8474 H 824.331 2.2184 1.2736 0
M  V30 8475 H 823.975 4.26181 2.76283 0
M  V30 8476 H 823.905 3.19376 4.18697 0
M  V30 8477 H 826.396 2.59969 2.74271 0
M  V30 8478 H 826.709 5.75271 5.16026 0
M  V30 8479 H 825.054 5.16893 4.64593 0
M  V30 8480 H 828.245 3.28083 3.33885 0
M  V30 8481 H 828.418 4.71848 4.44144 0
M  V30 8482 N 821.824 -1.22873 0.986916 0
M  V30 8483 C 822.756 -2.23889 0.490537 0
M  V30 8484 C 823.769 -1.57523 -0.411144 0
M  V30 8485 O 824.958 -1.7721 -0.214236 0
M  V30 8486 C 822.058 -3.37488 -0.30902 0
M  V30 8487 C 821.231 -4.33438 0.587354 0
M  V30 8488 C 820.29 -5.25958 -0.159467 0
M  V30 8489 O 819.316 -5.67394 0.453115 0
M  V30 8490 N 820.518 -5.62265 -1.44355 0
M  V30 8491 H 823.283 -2.67109 1.35914 0
M  V30 8492 H 820.844 -1.37111 0.860937 0
M  V30 8493 H 822.836 -3.96365 -0.817139 0
M  V30 8494 H 821.406 -2.934 -1.07868 0
M  V30 8495 H 820.626 -3.72969 1.27622 0
M  V30 8496 H 821.914 -4.94495 1.19801 0
M  V30 8497 H 821.312 -5.30562 -1.96266 0
M  V30 8498 H 819.869 -6.23585 -1.89698 0
M  V30 8499 N 823.302 -0.75937 -1.38099 0
M  V30 8500 C 824.249 -0.135508 -2.30402 0
M  V30 8501 C 825.219 0.703356 -1.50473 0
M  V30 8502 O 826.404 0.658287 -1.79084 0
M  V30 8503 C 823.544 0.747228 -3.36913 0
M  V30 8504 C 822.657 -0.106893 -4.31868 0
M  V30 8505 C 821.792 0.779388 -5.25451 0
M  V30 8506 C 820.831 -0.0780179 -6.1205 0
M  V30 8507 N 819.968 0.765545 -6.97914 0
M  V30 8508 H 824.808 -0.9282 -2.83176 0
M  V30 8509 H 822.345 -0.46935 -1.39411 0
M  V30 8510 H 824.303 1.27371 -3.97281 0
M  V30 8511 H 822.933 1.50565 -2.85535 0
M  V30 8512 H 821.985 -0.751063 -3.72912 0
M  V30 8513 H 823.297 -0.768798 -4.9284 0
M  V30 8514 H 822.451 1.37282 -5.90964 0
M  V30 8515 H 821.19 1.47501 -4.6486 0
M  V30 8516 H 820.195 -0.684078 -5.45528 0
M  V30 8517 H 821.42 -0.770786 -6.74712 0
M  V30 8518 H 819.366 1.44601 -6.39864 0
M  V30 8519 H 819.283 0.160666 -7.55829 0
M  V30 8520 H 820.551 1.34377 -7.6783 0
M  V30 8521 N 824.78 1.49157 -0.508906 0
M  V30 8522 C 825.743 2.27784 0.25434 0
M  V30 8523 C 826.743 1.34132 0.88686 0
M  V30 8524 O 827.933 1.5722 0.750168 0
M  V30 8525 C 825.065 3.12347 1.36573 0
M  V30 8526 H 826.258 2.96718 -0.435714 0
M  V30 8527 H 823.811 1.54052 -0.264128 0
M  V30 8528 H 824.546 2.47997 2.08969 0
M  V30 8529 H 824.331 3.81213 0.917543 0
M  V30 8530 H 825.821 3.71712 1.90315 0
M  V30 8531 N 826.258 0.243083 1.55714 0
M  V30 8532 C 827.483 -0.389944 2.03701 0
M  V30 8533 C 827.908 -1.51025 1.12129 0
M  V30 8534 O 827.266 -1.80944 0.11352 0
M  V30 8535 C 827.314 -0.878649 3.49731 0
M  V30 8536 O 826.418 -1.98851 3.61292 0
M  V30 8537 H 825.759 -0.0855115 0.658471 0
M  V30 8538 H 828.289 0.368023 2.01263 0
M  V30 8539 H 828.299 -1.18287 3.90477 0
M  V30 8540 H 826.974 -0.0588107 4.15858 0
M  V30 8541 H 825.551 -1.68928 3.32442 0
M  V30 8542 N 827.736 -1.57571 -0.0300757 0
M  V30 8543 C 828.984 -1.88852 -0.719666 0
M  V30 8544 C 829.305 -0.840645 -1.75949 0
M  V30 8545 O 828.575 0.125854 -1.95495 0
M  V30 8546 H 827.155 -0.696965 -0.268792 0
M  V30 8547 H 829.817 -1.949 0.00373285 0
M  V30 8548 H 828.913 -2.87695 -1.20987 0
M  V30 8549 N 829.214 0.302327 -1.54673 0
M  V30 8550 C 830.454 1.04568 -1.75627 0
M  V30 8551 C 830.818 1.84535 -0.530175 0
M  V30 8552 O 832.019 2.61613 -0.61743 0
M  V30 8553 C 830.29 1.92873 -3.0089 0
M  V30 8554 S 831.849 2.73872 -3.4284 0
M  V30 8555 H 828.667 0.352682 -0.617362 0
M  V30 8556 H 831.269 0.319239 -1.92876 0
M  V30 8557 H 829.973 1.32998 -3.88252 0
M  V30 8558 H 829.504 2.69887 -2.86225 0
M  V30 8559 H 831.519 3.95386 -2.99807 0
M  V30 8560 N 830.692 1.47107 0.565454 0
M  V30 8561 C 831.622 1.61846 1.68309 0
M  V30 8562 C 832.603 0.468159 1.63531 0
M  V30 8563 O 833.788 0.696504 1.8128 0
M  V30 8564 C 830.918 1.62474 3.06952 0
M  V30 8565 C 829.872 2.76649 3.26572 0
M  V30 8566 C 829.198 2.62345 4.65917 0
M  V30 8567 C 830.498 4.18319 3.12741 0
M  V30 8568 H 832.192 2.55407 1.5623 0
M  V30 8569 H 829.738 1.22916 0.750179 0
M  V30 8570 H 831.691 1.71378 3.84977 0
M  V30 8571 H 830.415 0.654692 3.19971 0
M  V30 8572 H 829.074 2.67242 2.50952 0
M  V30 8573 H 828.722 1.63386 4.75725 0
M  V30 8574 H 828.422 3.38936 4.79996 0
M  V30 8575 H 829.946 2.73165 5.46089 0
M  V30 8576 H 831.36 4.28745 3.80593 0
M  V30 8577 H 829.757 4.95632 3.38333 0
M  V30 8578 H 830.827 4.37263 2.09592 0
M  V30 8579 N 832.17 -0.811516 1.35101 0
M  V30 8580 C 833.133 -1.90467 1.27495 0
M  V30 8581 C 834.133 -1.59703 0.187516 0
M  V30 8582 O 835.323 -1.68528 0.440896 0
M  V30 8583 C 832.455 -3.26774 0.971154 0
M  V30 8584 H 833.648 -1.98631 2.2469 0
M  V30 8585 H 831.201 -1.00681 1.19553 0
M  V30 8586 H 831.936 -3.243 0.0028557 0
M  V30 8587 H 831.721 -3.50488 1.75785 0
M  V30 8588 H 833.211 -4.06804 0.943414 0
M  V30 8589 N 833.648 -1.19017 -1.03309 0
M  V30 8590 C 834.578 -0.94772 -2.13402 0
M  V30 8591 C 835.559 0.117383 -1.69694 0
M  V30 8592 O 836.744 -0.0367733 -1.94165 0
M  V30 8593 C 833.874 -0.480977 -3.43953 0
M  V30 8594 C 832.828 -1.48743 -4.01322 0
M  V30 8595 C 832.154 -0.877924 -5.27443 0
M  V30 8596 C 833.454 -2.86642 -4.36616 0
M  V30 8597 H 835.148 -1.86846 -2.33942 0
M  V30 8598 H 832.694 -0.899781 -1.12427 0
M  V30 8599 H 834.647 -0.298677 -4.2034 0
M  V30 8600 H 833.371 0.475348 -3.23122 0
M  V30 8601 H 832.03 -1.65681 -3.27025 0
M  V30 8602 H 831.678 0.0858232 -5.02927 0
M  V30 8603 H 831.378 -1.54996 -5.66789 0
M  V30 8604 H 832.902 -0.706326 -6.06501 0
M  V30 8605 H 834.316 -2.73312 -5.03958 0
M  V30 8606 H 832.713 -3.50599 -4.87032 0
M  V30 8607 H 833.783 -3.39617 -3.46105 0
M  V30 8608 N 835.127 1.22348 -0.993418 0
M  V30 8609 C 836.543 1.43222 -0.704238 0
M  V30 8610 C 836.743 1.88009 0.724909 0
M  V30 8611 O 835.799 2.03429 1.49575 0
M  V30 8612 C 837.112 2.47328 -1.71025 0
M  V30 8613 C 838.66 2.61126 -1.72576 0
M  V30 8614 C 839.135 3.68453 -2.72041 0
M  V30 8615 N 840.626 3.75911 -2.70639 0
M  V30 8616 C 841.361 4.58551 -3.44266 0
M  V30 8617 N 840.857 5.45179 -4.27495 0
M  V30 8618 N 842.65 4.52866 -3.32969 0
M  V30 8619 H 834.801 0.915832 -1.91641 0
M  V30 8620 H 837.064 0.464283 -0.826526 0
M  V30 8621 H 836.77 2.21366 -2.73295 0
M  V30 8622 H 836.644 3.45939 -1.50353 0
M  V30 8623 H 839.031 2.86431 -0.710037 0
M  V30 8624 H 839.112 1.62787 -1.97317 0
M  V30 8625 H 838.756 3.43895 -3.73763 0
M  V30 8626 H 838.686 4.66362 -2.4457 0
M  V30 8627 H 841.177 3.14014 -2.10247 0
M  V30 8628 H 841.49 6.0526 -4.80499 0
M  V30 8629 H 839.835 5.44759 -4.31582 0
M  V30 8630 H 843.026 3.84215 -2.67389 0
M  V30 8631 H 843.199 5.17039 -3.90608 0
M  V30 8632 N 836.605 0.766683 1.37694 0
M  V30 8633 C 837.535 0.163432 2.32927 0
M  V30 8634 C 838.516 -0.688861 1.55527 0
M  V30 8635 O 839.701 -0.627363 1.83787 0
M  V30 8636 C 836.831 -0.720416 3.39746 0
M  V30 8637 C 835.785 0.0301718 4.27989 0
M  V30 8638 C 835.111 -0.972788 5.25776 0
M  V30 8639 C 836.411 1.20623 5.0818 0
M  V30 8640 H 838.105 0.958988 2.83626 0
M  V30 8641 H 835.651 0.462601 1.36367 0
M  V30 8642 H 837.604 -1.15221 4.05342 0
M  V30 8643 H 836.328 -1.54844 2.8756 0
M  V30 8644 H 834.987 0.442685 3.63917 0
M  V30 8645 H 834.635 -1.79522 4.69873 0
M  V30 8646 H 834.335 -0.475145 5.85676 0
M  V30 8647 H 835.859 -1.40362 5.94248 0
M  V30 8648 H 837.273 0.851341 5.66944 0
M  V30 8649 H 835.67 1.63561 5.7738 0
M  V30 8650 H 836.74 2.01281 4.41151 0
M  V30 8651 N 838.083 -1.48885 0.516809 0
M  V30 8652 C 839.308 -2.0739 -0.0205201 0
M  V30 8653 C 839.733 -1.37259 -1.28614 0
M  V30 8654 O 839.091 -0.434304 -1.76021 0
M  V30 8655 C 839.139 -3.59793 -0.24104 0
M  V30 8656 O 838.243 -3.90957 -1.31251 0
M  V30 8657 H 837.584 -0.663167 0.0332564 0
M  V30 8658 H 840.114 -1.91477 0.720956 0
M  V30 8659 H 840.124 -4.0531 -0.467737 0
M  V30 8660 H 838.799 -4.10244 0.68356 0
M  V30 8661 H 837.376 -3.57234 -1.06951 0
M  V30 8662 N 839.561 -0.251338 -1.55583 0
M  V30 8663 C 840.809 0.371434 -1.98657 0
M  V30 8664 C 841.13 1.58143 -1.14087 0
M  V30 8665 O 840.4 1.94607 -0.224708 0
M  V30 8666 H 838.98 0.140225 -0.733721 0
M  V30 8667 H 841.642 -0.351157 -1.9171 0
M  V30 8668 H 840.738 0.677554 -3.04657 0
M  V30 8669 N 841.039 1.57585 0.0217189 0
M  V30 8670 C 842.287 1.89231 0.709641 0
M  V30 8671 C 842.608 0.849964 1.75501 0
M  V30 8672 O 841.878 -0.115485 1.95559 0
M  V30 8673 H 840.458 0.69838 0.265092 0
M  V30 8674 H 843.12 1.94895 -0.0140688 0
M  V30 8675 H 842.216 2.88333 1.19459 0
M  V30 8676 N 842.517 -0.29412 1.54831 0
M  V30 8677 C 843.794 -1.04847 1.65126 0
M  V30 8678 C 844.174 -2.04996 0.503986 0
M  V30 8679 O 843.522 -2.22996 -0.498496 0
M  V30 8680 C 843.732 -1.72418 3.03435 0
M  V30 8681 C 845.08 -2.24362 3.60481 0
M  V30 8682 O 846.104 -1.8244 3.05932 0
M  V30 8683 O 844.963 -3.01196 4.56008 0
M  V30 8684 H 842.057 -0.485032 0.669831 0
M  V30 8685 H 844.603 -0.291659 1.67175 0
M  V30 8686 H 843.375 -0.997351 3.78376 0
M  V30 8687 H 842.998 -2.54839 3.05193 0
M  V30 8688 N 843.995 -1.47404 -0.557645 0
M  V30 8689 C 845.242 -1.54007 -1.31484 0
M  V30 8690 C 845.57 -0.202162 -1.93447 0
M  V30 8691 O 844.825 0.804901 -1.78381 0
M  V30 8692 C 845.124 -2.6061 -2.44575 0
M  V30 8693 C 844.79 -4.03896 -2.00446 0
M  V30 8694 C 843.452 -4.42901 -1.88127 0
M  V30 8695 C 845.804 -4.93804 -1.66754 0
M  V30 8696 C 843.132 -5.6965 -1.40411 0
M  V30 8697 C 845.484 -6.21016 -1.20509 0
M  V30 8698 C 844.148 -6.58903 -1.06786 0
M  V30 8699 H 843.418 -0.563552 -0.481134 0
M  V30 8700 H 846.065 -1.81001 -0.625375 0
M  V30 8701 H 844.37 -2.27371 -3.19076 0
M  V30 8702 H 846.067 -2.62941 -3.02759 0
M  V30 8703 H 842.657 -3.73077 -2.10977 0
M  V30 8704 H 846.841 -4.64369 -1.75144 0
M  V30 8705 H 842.097 -5.97755 -1.2845 0
M  V30 8706 H 846.271 -6.90095 -0.935001 0
M  V30 8707 H 843.898 -7.57008 -0.695891 0
M  V30 8708 N 845.473 0.80434 -1.35529 0
M  V30 8709 C 846.719 1.56385 -1.29118 0
M  V30 8710 C 847.052 1.9374 0.133536 0
M  V30 8711 O 846.327 1.6153 1.08344 0
M  V30 8712 C 846.61 2.85097 -2.19981 0
M  V30 8713 C 846.463 2.54204 -3.7108 0
M  V30 8714 C 847.782 3.86817 -2.09907 0
M  V30 8715 H 844.901 0.567382 -0.470368 0
M  V30 8716 H 847.543 0.925235 -1.6595 0
M  V30 8717 H 845.693 3.39594 -1.88701 0
M  V30 8718 H 847.365 2.05872 -4.12813 0
M  V30 8719 H 845.608 1.87364 -3.91251 0
M  V30 8720 H 846.279 3.46068 -4.30048 0
M  V30 8721 H 848.755 3.41725 -2.37409 0
M  V30 8722 H 847.631 4.7465 -2.75678 0
M  V30 8723 H 847.892 4.28663 -1.08171 0
M  V30 8724 N 846.951 1.19563 1.02676 0
M  V30 8725 C 847.884 0.878638 2.10607 0
M  V30 8726 C 848.862 -0.165176 1.61759 0
M  V30 8727 O 850.046 -0.041014 1.88455 0
M  V30 8728 C 847.173 0.315347 3.37229 0
M  V30 8729 C 846.219 1.33855 4.04951 0
M  V30 8730 S 847.052 2.89982 4.50189 0
M  V30 8731 C 848.208 2.35202 5.80027 0
M  V30 8732 H 848.441 1.79268 2.37171 0
M  V30 8733 H 845.974 1.023 1.15646 0
M  V30 8734 H 847.932 -0.00311911 4.105 0
M  V30 8735 H 846.593 -0.577035 3.08754 0
M  V30 8736 H 845.786 0.893581 4.96015 0
M  V30 8737 H 845.388 1.60397 3.37859 0
M  V30 8738 H 847.68 1.74329 6.54687 0
M  V30 8739 H 848.623 3.24622 6.29306 0
M  V30 8740 H 849.031 1.77702 5.35801 0
M  V30 8741 N 848.429 -1.21819 0.999893 0
M  V30 8742 C 849.675 -1.91325 0.690373 0
M  V30 8743 C 850.03 -1.76323 -0.769929 0
M  V30 8744 O 849.323 -1.12585 -1.55033 0
M  V30 8745 C 849.517 -3.4193 1.04012 0
M  V30 8746 C 849.346 -3.71585 2.53287 0
M  V30 8747 C 848.116 -3.91219 3.19806 0
M  V30 8748 C 850.314 -3.75502 3.5143 0
M  V30 8749 N 848.296 -4.08246 4.58485 0
M  V30 8750 C 849.667 -3.97753 4.75597 0
M  V30 8751 C 851.722 -3.58383 3.45638 0
M  V30 8752 C 850.425 -4.04662 5.94677 0
M  V30 8753 C 852.451 -3.66555 4.64103 0
M  V30 8754 C 851.813 -3.89263 5.87072 0
M  V30 8755 H 847.912 -0.720484 0.304018 0
M  V30 8756 H 850.496 -1.46595 1.28133 0
M  V30 8757 H 848.667 -3.85452 0.477671 0
M  V30 8758 H 850.399 -3.98846 0.685864 0
M  V30 8759 H 847.154 -3.88917 2.7026 0
M  V30 8760 H 847.578 -4.20673 5.30437 0
M  V30 8761 H 852.22 -3.39807 2.51576 0
M  V30 8762 H 849.938 -4.22039 6.89136 0
M  V30 8763 H 853.524 -3.54639 4.61218 0
M  V30 8764 H 852.404 -3.95424 6.77207 0
M  V30 8765 N 849.908 -0.773975 -1.37286 0
M  V30 8766 C 851.136 -0.350758 -2.03905 0
M  V30 8767 C 851.551 1.02779 -1.58373 0
M  V30 8768 O 850.908 1.65646 -0.766009 0
M  V30 8769 C 850.959 -0.387335 -3.59419 0
M  V30 8770 O 850.68 -1.7115 -4.03286 0
M  V30 8771 C 852.181 0.047198 -4.43275 0
M  V30 8772 H 849.401 -0.146663 -0.654775 0
M  V30 8773 H 851.945 -1.04852 -1.75574 0
M  V30 8774 H 850.1 0.261865 -3.86514 0
M  V30 8775 H 850.514 -1.65166 -4.97816 0
M  V30 8776 H 851.988 -0.0295474 -5.51992 0
M  V30 8777 H 852.465 1.09786 -4.25257 0
M  V30 8778 H 853.071 -0.573899 -4.2141 0
M  V30 8779 N 851.386 1.48609 -0.524698 0
M  V30 8780 C 852.802 1.58557 -0.182199 0
M  V30 8781 C 853.002 1.52732 1.31435 0
M  V30 8782 O 852.058 1.41362 2.0922 0
M  V30 8783 C 853.371 2.90406 -0.78004 0
M  V30 8784 C 854.919 3.03924 -0.748293 0
M  V30 8785 C 855.394 4.38427 -1.32462 0
M  V30 8786 N 856.885 4.4498 -1.28635 0
M  V30 8787 C 857.62 5.47551 -1.70223 0
M  V30 8788 N 857.116 6.57103 -2.19515 0
M  V30 8789 N 858.909 5.38402 -1.61493 0
M  V30 8790 H 851.06 1.50638 -1.4974 0
M  V30 8791 H 853.323 0.714952 -0.622533 0
M  V30 8792 H 853.029 3.00308 -1.83052 0
M  V30 8793 H 852.903 3.76343 -0.254075 0
M  V30 8794 H 855.29 2.93638 0.293407 0
M  V30 8795 H 855.371 2.19611 -1.31167 0
M  V30 8796 H 855.015 4.49466 -2.36522 0
M  V30 8797 H 854.945 5.21418 -0.736967 0
M  V30 8798 H 857.436 3.66393 -0.92545 0
M  V30 8799 H 857.749 7.31499 -2.49257 0
M  V30 8800 H 856.094 6.58081 -2.23506 0
M  V30 8801 H 859.285 4.5171 -1.22785 0
M  V30 8802 H 859.458 6.18208 -1.94225 0
M  V30 8803 N 852.864 0.259585 1.55447 0
M  V30 8804 C 854.275 -0.241165 1.85136 0
M  V30 8805 C 854.626 -1.56634 1.18153 0
M  V30 8806 O 853.751 -2.11359 0.464351 0
M  V30 8807 C 854.346 -0.444355 3.35873 0
M  V30 8808 C 852.905 -0.889354 3.65742 0
M  V30 8809 C 852.052 0.0262474 2.77288 0
M  V30 8810 H 855.003 0.481808 1.51209 0
M  V30 8811 H 855.024 -1.28517 3.58139 0
M  V30 8812 H 854.536 0.520289 3.84597 0
M  V30 8813 H 852.637 -1.86602 3.22507 0
M  V30 8814 H 852.75 -0.737432 4.73391 0
M  V30 8815 H 851.114 -0.487361 2.49994 0
M  V30 8816 H 851.897 0.986494 3.28821 0
M  V30 8817 N 854.342 -1.57594 -0.0133615 0
M  V30 8818 C 855.252 -2.10991 -1.02566 0
M  V30 8819 C 856.268 -1.05208 -1.3859 0
M  V30 8820 O 857.444 -1.37034 -1.47593 0
M  V30 8821 C 854.509 -2.59165 -2.30292 0
M  V30 8822 C 853.57 -3.79495 -2.00704 0
M  V30 8823 C 852.803 -4.25361 -3.22341 0
M  V30 8824 O 853.026 -3.70645 -4.33565 0
M  V30 8825 O 851.96 -5.17649 -3.07121 0
M  V30 8826 H 855.786 -2.97678 -0.601806 0
M  V30 8827 H 853.371 -1.47598 -0.23135 0
M  V30 8828 H 855.253 -2.90409 -3.05354 0
M  V30 8829 H 853.928 -1.75582 -2.71942 0
M  V30 8830 H 852.835 -3.53245 -1.23161 0
M  V30 8831 H 854.168 -4.64109 -1.639 0
M  V30 8832 N 855.82 0.285905 -1.54985 0
M  V30 8833 C 856.73 1.37534 -1.90057 0
M  V30 8834 C 857.746 1.54707 -0.796348 0
M  V30 8835 O 858.922 1.69082 -1.09423 0
M  V30 8836 C 855.987 2.7167 -2.15398 0
M  V30 8837 C 855.048 2.63354 -3.39033 0
M  V30 8838 C 854.281 3.91093 -3.63155 0
M  V30 8839 O 854.504 4.91169 -2.90015 0
M  V30 8840 O 853.438 3.92075 -4.56685 0
M  V30 8841 H 857.264 1.10791 -2.8277 0
M  V30 8842 H 854.849 0.483303 -1.41367 0
M  V30 8843 H 856.731 3.51006 -2.33179 0
M  V30 8844 H 855.406 2.98226 -1.25868 0
M  V30 8845 H 854.313 1.82438 -3.26599 0
M  V30 8846 H 855.646 2.41749 -4.2874 0
M  V30 8847 N 857.298 1.47698 0.54982 0
M  V30 8848 C 858.709 1.48474 1.13191 0
M  V30 8849 C 859.06 0.243504 1.94683 0
M  V30 8850 O 858.185 -0.651009 2.06375 0
M  V30 8851 C 858.78 2.69022 2.05944 0
M  V30 8852 C 857.339 2.72733 2.5941 0
M  V30 8853 C 856.486 2.41691 1.35944 0
M  V30 8854 H 859.437 1.55101 0.336048 0
M  V30 8855 H 859.458 2.46412 2.89934 0
M  V30 8856 H 858.97 3.59345 1.46605 0
M  V30 8857 H 857.071 1.86568 3.22526 0
M  V30 8858 H 857.184 3.73628 2.99899 0
M  V30 8859 H 855.548 1.92428 1.66864 0
M  V30 8860 H 856.331 3.34231 0.783869 0
M  V30 8861 N 858.776 -0.797141 1.35954 0
M  V30 8862 C 860.192 -1.09408 1.16198 0
M  V30 8863 C 860.392 -2.01491 -0.0191682 0
M  V30 8864 O 859.448 -2.42977 -0.686902 0
M  V30 8865 C 860.761 -1.71597 2.46931 0
M  V30 8866 C 862.309 -1.83974 2.53224 0
M  V30 8867 C 862.784 -2.49579 3.84024 0
M  V30 8868 N 864.275 -2.57055 3.85327 0
M  V30 8869 C 865.01 -3.08608 4.83268 0
M  V30 8870 N 864.506 -3.60527 5.91601 0
M  V30 8871 N 866.299 -3.07249 4.70696 0
M  V30 8872 H 858.45 -0.185209 2.11591 0
M  V30 8873 H 860.713 -0.144768 0.936881 0
M  V30 8874 H 860.419 -1.11404 3.3359 0
M  V30 8875 H 860.293 -2.71193 2.62172 0
M  V30 8876 H 862.68 -2.43308 1.66988 0
M  V30 8877 H 862.761 -0.83207 2.41889 0
M  V30 8878 H 862.405 -1.90892 4.70662 0
M  V30 8879 H 862.335 -3.50902 3.92651 0
M  V30 8880 H 864.826 -2.20283 3.07057 0
M  V30 8881 H 865.139 -3.98192 6.62317 0
M  V30 8882 H 863.484 -3.587 5.95281 0
M  V30 8883 H 866.675 -2.65972 3.85197 0
M  V30 8884 H 866.848 -3.47119 5.47186 0
M  V30 8885 N 860.254 -1.20106 -1.0204 0
M  V30 8886 C 861.186 -0.904236 -2.10609 0
M  V30 8887 C 862.199 0.106487 -1.62451 0
M  V30 8888 O 863.388 -0.124035 -1.78069 0
M  V30 8889 C 860.488 -0.333423 -3.37256 0
M  V30 8890 C 859.661 -1.39476 -4.14566 0
M  V30 8891 C 858.72 -0.835961 -5.19517 0
M  V30 8892 O 857.746 -1.51573 -5.48648 0
M  V30 8893 N 858.948 0.356531 -5.79404 0
M  V30 8894 H 861.713 -1.8388 -2.36661 0
M  V30 8895 H 859.274 -1.10422 -1.184 0
M  V30 8896 H 861.266 0.0544571 -4.04663 0
M  V30 8897 H 859.836 0.505608 -3.08484 0
M  V30 8898 H 859.056 -1.95714 -3.42184 0
M  V30 8899 H 860.344 -2.10967 -4.63001 0
M  V30 8900 H 859.742 0.926143 -5.58067 0
M  V30 8901 H 858.299 0.686093 -6.48179 0
M  V30 8902 N 861.732 1.21287 -1.00634 0
M  V30 8903 C 862.981 1.89706 -0.685178 0
M  V30 8904 C 863.294 1.79044 0.787566 0
M  V30 8905 O 864.5 2.42502 1.22086 0
M  V30 8906 C 862.956 3.40176 -1.17508 0
M  V30 8907 C 862.564 3.59446 -2.674 0
M  V30 8908 C 864.308 4.14213 -0.928869 0
M  V30 8909 C 862.215 5.03688 -3.09923 0
M  V30 8910 H 861.145 0.710434 -0.252586 0
M  V30 8911 H 863.796 1.37277 -1.21768 0
M  V30 8912 H 862.178 3.91867 -0.570622 0
M  V30 8913 H 863.352 3.18188 -3.33306 0
M  V30 8914 H 861.667 2.98764 -2.9005 0
M  V30 8915 H 864.264 5.20546 -1.22212 0
M  V30 8916 H 864.607 4.16082 0.134859 0
M  V30 8917 H 865.14 3.68591 -1.49619 0
M  V30 8918 H 861.879 5.06968 -4.15529 0
M  V30 8919 H 861.399 5.45796 -2.4873 0
M  V30 8920 H 863.078 5.72204 -3.0198 0
M  V30 8921 N 863.21 0.781244 1.36873 0
M  V30 8922 C 864.438 0.361566 2.03716 0
M  V30 8923 C 864.853 -1.01937 1.58916 0
M  V30 8924 O 864.21 -1.65237 0.774783 0
M  V30 8925 C 864.261 0.406391 3.59208 0
M  V30 8926 O 863.982 1.73286 4.02372 0
M  V30 8927 C 865.483 -0.0236894 4.43294 0
M  V30 8928 H 862.703 0.150133 0.653988 0
M  V30 8929 H 865.247 1.05781 1.75016 0
M  V30 8930 H 863.402 -0.241364 3.86647 0
M  V30 8931 H 863.816 1.67804 4.96933 0
M  V30 8932 H 865.29 0.0588205 5.51969 0
M  V30 8933 H 865.767 -1.07529 4.25833 0
M  V30 8934 H 866.373 0.59624 4.211 0
M  V30 8935 N 864.689 -1.48329 0.532571 0
M  V30 8936 C 865.935 -2.03399 0.00755104 0
M  V30 8937 C 866.29 -1.40213 -1.3175 0
M  V30 8938 O 865.583 -0.539633 -1.83844 0
M  V30 8939 C 865.777 -3.57 -0.168943 0
M  V30 8940 C 865.606 -4.35077 1.13745 0
M  V30 8941 C 864.376 -4.75915 1.69803 0
M  V30 8942 C 866.574 -4.71734 2.04869 0
M  V30 8943 N 864.556 -5.38538 2.94703 0
M  V30 8944 C 865.927 -5.34403 3.14346 0
M  V30 8945 C 867.982 -4.53665 2.05164 0
M  V30 8946 C 866.685 -5.80912 4.24186 0
M  V30 8947 C 868.711 -5.01157 3.13999 0
M  V30 8948 C 868.073 -5.63853 4.22195 0
M  V30 8949 H 864.172 -0.780743 0.0443253 0
M  V30 8950 H 866.756 -1.81119 0.714423 0
M  V30 8951 H 864.927 -3.79099 -0.844903 0
M  V30 8952 H 866.659 -3.98708 -0.693804 0
M  V30 8953 H 863.414 -4.57103 1.23909 0
M  V30 8954 H 863.838 -5.74413 3.583 0
M  V30 8955 H 868.48 -4.04571 1.22808 0
M  V30 8956 H 866.198 -6.2901 5.07318 0
M  V30 8957 H 869.784 -4.88965 3.15285 0
M  V30 8958 H 868.664 -5.99935 5.05023 0
M  V30 8959 N 866.167 -0.267825 -1.55308 0
M  V30 8960 C 867.415 0.350343 -1.9904 0
M  V30 8961 C 867.736 1.56924 -1.15758 0
M  V30 8962 O 867.006 1.94358 -0.245336 0
M  V30 8963 H 865.586 0.132435 -0.735167 0
M  V30 8964 H 868.248 -0.371471 -1.91327 0
M  V30 8965 H 867.344 0.645203 -3.05358 0
M  V30 8966 N 867.645 1.57599 0.00500368 0
M  V30 8967 C 868.893 1.89973 0.68953 0
M  V30 8968 C 869.214 0.868531 1.7459 0
M  V30 8969 O 868.484 -0.0947367 1.95671 0
M  V30 8970 H 867.064 0.701153 0.25767 0
M  V30 8971 H 869.726 1.94869 -0.0347392 0
M  V30 8972 H 868.822 2.89584 1.16394 0
M  V30 8973 N 869.123 -0.277682 1.55134 0
M  V30 8974 C 870.4 -1.0309 1.66228 0
M  V30 8975 C 870.78 -2.0445 0.525701 0
M  V30 8976 O 870.128 -2.23512 -0.474816 0
M  V30 8977 C 870.338 -1.6919 3.05247 0
M  V30 8978 C 871.686 -2.20526 3.62841 0
M  V30 8979 O 872.71 -1.79185 3.07849 0
M  V30 8980 O 871.569 -2.96342 4.59177 0
M  V30 8981 H 868.663 -0.4779 0.674937 0
M  V30 8982 H 871.209 -0.273912 1.67475 0
M  V30 8983 H 869.981 -0.957163 3.79413 0
M  V30 8984 H 869.604 -2.51587 3.07879 0
M  V30 8985 N 870.601 -1.47988 -0.541979 0
M  V30 8986 C 872.012 -1.49073 -1.12402 0
M  V30 8987 C 872.363 -0.253825 -1.94551 0
M  V30 8988 O 871.488 0.640056 -2.06718 0
M  V30 8989 C 872.083 -2.7011 -2.04514 0
M  V30 8990 C 870.642 -2.74105 -2.5796 0
M  V30 8991 C 869.789 -2.42409 -1.3466 0
M  V30 8992 H 872.74 -1.55277 -0.327818 0
M  V30 8993 H 872.761 -2.47946 -2.88623 0
M  V30 8994 H 872.273 -3.60117 -1.44697 0
M  V30 8995 H 870.374 -1.88276 -3.21532 0
M  V30 8996 H 870.487 -3.75213 -2.97913 0
M  V30 8997 H 868.851 -1.9331 -1.65841 0
M  V30 8998 H 869.634 -3.34642 -0.766133 0
M  V30 8999 N 872.079 0.78992 -1.36375 0
M  V30 9000 C 873.042 1.88414 -1.30509 0
M  V30 9001 C 874.042 1.59384 -0.2129 0
M  V30 9002 O 875.232 1.67805 -0.467651 0
M  V30 9003 C 872.364 3.25188 -1.02302 0
M  V30 9004 H 873.557 1.95031 -2.27822 0
M  V30 9005 H 871.11 0.987664 -1.2114 0
M  V30 9006 H 871.845 3.24254 -0.0544486 0
M  V30 9007 H 871.63 3.47647 -1.81338 0
M  V30 9008 H 873.12 4.05252 -1.00801 0
M  V30 9009 N 873.557 1.20646 1.01402 0
M  V30 9010 C 874.504 0.957618 2.09996 0
M  V30 9011 C 875.474 -0.113115 1.65714 0
M  V30 9012 O 876.659 0.032142 1.90773 0
M  V30 9013 C 873.799 0.5186 3.41181 0
M  V30 9014 C 872.912 1.65777 3.98926 0
M  V30 9015 C 872.047 1.16881 5.18182 0
M  V30 9016 C 871.086 2.2809 5.68015 0
M  V30 9017 N 870.223 1.80392 6.7853 0
M  V30 9018 H 875.063 1.88732 2.30617 0
M  V30 9019 H 872.6 0.940703 1.13089 0
M  V30 9020 H 874.558 0.245367 4.16478 0
M  V30 9021 H 873.188 -0.3741 3.20625 0
M  V30 9022 H 872.24 2.04586 3.207 0
M  V30 9023 H 873.552 2.49507 4.31912 0
M  V30 9024 H 872.706 0.851694 6.00692 0
M  V30 9025 H 871.445 0.301434 4.86768 0
M  V30 9026 H 870.45 2.60614 4.84108 0
M  V30 9027 H 871.675 3.15308 6.01463 0
M  V30 9028 H 869.621 0.959856 6.4894 0
M  V30 9029 H 869.538 2.57701 7.10722 0
M  V30 9030 H 870.806 1.51688 7.64598 0
M  V30 9031 N 875.035 -1.20752 1.01276 0
M  V30 9032 C 875.998 -2.2162 0.584583 0
M  V30 9033 C 876.998 -1.57094 -0.343215 0
M  V30 9034 O 878.188 -1.73696 -0.132433 0
M  V30 9035 C 875.32 -3.40583 -0.146872 0
M  V30 9036 H 876.513 -2.61015 1.47686 0
M  V30 9037 H 874.066 -1.34148 0.802123 0
M  V30 9038 H 874.801 -3.06686 -1.05424 0
M  V30 9039 H 874.586 -3.88642 0.51958 0
M  V30 9040 H 876.076 -4.15339 -0.433924 0
M  V30 9041 N 876.513 -0.788492 -1.36457 0
M  V30 9042 C 877.443 -0.200468 -2.32638 0
M  V30 9043 C 878.424 0.664031 -1.56603 0
M  V30 9044 O 879.609 0.598045 -1.84762 0
M  V30 9045 C 876.739 0.666274 -3.40849 0
M  V30 9046 C 875.693 -0.0982574 -4.27887 0
M  V30 9047 C 875.019 0.889018 -5.27258 0
M  V30 9048 C 876.319 -1.28692 -5.06197 0
M  V30 9049 H 878.013 -1.00399 -2.82065 0
M  V30 9050 H 875.559 -0.484237 -1.35614 0
M  V30 9051 H 877.512 1.08757 -4.07124 0
M  V30 9052 H 876.236 1.50249 -2.89987 0
M  V30 9053 H 874.895 -0.500525 -3.63167 0
M  V30 9054 H 874.543 1.72024 -4.7267 0
M  V30 9055 H 874.243 0.381909 -5.86358 0
M  V30 9056 H 875.767 1.30891 -5.96406 0
M  V30 9057 H 877.181 -0.941429 -5.65517 0
M  V30 9058 H 875.578 -1.72726 -5.74705 0
M  V30 9059 H 876.648 -2.08273 -4.37893 0
M  V30 9060 N 877.991 1.48044 -0.54043 0
M  V30 9061 C 879.239 2.02097 -0.0101367 0
M  V30 9062 C 879.56 1.41881 1.33771 0
M  V30 9063 O 878.83 0.587923 1.8687 0
M  V30 9064 H 877.41 0.747 -0.000758716 0
M  V30 9065 H 880.072 1.81639 -0.706634 0
M  V30 9066 H 879.168 3.11969 0.0904474 0
M  V30 9067 N 879.47 0.276058 1.55163 0
M  V30 9068 C 880.433 -0.597924 2.21263 0
M  V30 9069 C 881.433 -1.0806 1.19078 0
M  V30 9070 O 882.623 -0.980626 1.43977 0
M  V30 9071 C 879.755 -1.82503 2.87933 0
M  V30 9072 H 880.948 -0.0207769 2.99893 0
M  V30 9073 H 878.501 0.0266823 1.56277 0
M  V30 9074 H 879.236 -2.44266 2.13318 0
M  V30 9075 H 879.021 -1.48683 3.62816 0
M  V30 9076 H 880.511 -2.44651 3.38431 0
M  V30 9077 N 880.948 -1.576 0.00335426 0
M  V30 9078 C 881.911 -2.07576 -0.971838 0
M  V30 9079 C 882.911 -0.985796 -1.27038 0
M  V30 9080 O 884.101 -1.24833 -1.21501 0
M  V30 9081 C 881.233 -2.52003 -2.29581 0
M  V30 9082 H 882.426 -2.95008 -0.539481 0
M  V30 9083 H 879.979 -1.54381 -0.244186 0
M  V30 9084 H 880.714 -1.67825 -2.77498 0
M  V30 9085 H 880.499 -3.31609 -2.09231 0
M  V30 9086 H 881.989 -2.90983 -2.99531 0
M  V30 9087 N 882.426 0.269451 -1.5528 0
M  V30 9088 C 883.674 0.998604 -1.75705 0
M  V30 9089 C 883.995 1.86691 -0.563175 0
M  V30 9090 O 883.265 1.91305 0.421811 0
M  V30 9091 H 881.845 0.371698 -0.647958 0
M  V30 9092 H 884.507 0.292826 -1.92688 0
M  V30 9093 H 883.603 1.63348 -2.6594 0
M  V30 9094 N 883.904 1.48273 0.534124 0
M  V30 9095 C 884.836 1.5857 1.65494 0
M  V30 9096 C 885.849 0.470266 1.5586 0
M  V30 9097 O 887.038 0.740928 1.62396 0
M  V30 9098 C 884.138 1.49554 3.04117 0
M  V30 9099 C 883.311 2.76066 3.39273 0
M  V30 9100 C 882.37 2.60562 4.57159 0
M  V30 9101 O 881.396 3.34438 4.60587 0
M  V30 9102 N 882.598 1.69906 5.55079 0
M  V30 9103 H 885.363 2.55226 1.57099 0
M  V30 9104 H 882.924 1.44944 0.721303 0
M  V30 9105 H 884.916 1.36882 3.80848 0
M  V30 9106 H 883.486 0.608895 3.06613 0
M  V30 9107 H 882.706 3.03332 2.51761 0
M  V30 9108 H 883.994 3.60006 3.59546 0
M  V30 9109 H 883.392 1.09079 5.55084 0
M  V30 9110 H 881.949 1.63175 6.31044 0
M  V30 9111 N 885.382 -0.782676 1.36792 0
M  V30 9112 C 886.798 -1.08169 1.17352 0
M  V30 9113 C 886.998 -2.015 0.0022037 0
M  V30 9114 O 886.054 -2.43692 -0.661093 0
M  V30 9115 C 887.367 -1.68969 2.48737 0
M  V30 9116 C 888.915 -1.81278 2.55161 0
M  V30 9117 C 889.39 -2.45492 3.86649 0
M  V30 9118 N 890.881 -2.52954 3.88032 0
M  V30 9119 C 891.616 -3.03465 4.86515 0
M  V30 9120 N 891.112 -3.54232 5.95392 0
M  V30 9121 N 892.905 -3.02239 4.73928 0
M  V30 9122 H 885.056 -0.162757 2.11775 0
M  V30 9123 H 887.319 -0.134823 0.938364 0
M  V30 9124 H 887.025 -1.07859 3.34753 0
M  V30 9125 H 886.899 -2.68397 2.65034 0
M  V30 9126 H 889.286 -2.41524 1.69559 0
M  V30 9127 H 889.367 -0.806367 2.42758 0
M  V30 9128 H 889.011 -1.85889 4.7266 0
M  V30 9129 H 888.941 -3.46718 3.96351 0
M  V30 9130 H 891.432 -2.17014 3.09376 0
M  V30 9131 H 891.745 -3.91145 6.66503 0
M  V30 9132 H 890.09 -3.52366 5.99052 0
M  V30 9133 H 893.281 -2.61871 3.87996 0
M  V30 9134 H 893.454 -3.41295 5.50837 0
M  V30 9135 N 886.86 -1.21182 -1.00761 0
M  V30 9136 C 888.271 -1.02652 -1.55947 0
M  V30 9137 C 888.622 0.414466 -1.91772 0
M  V30 9138 O 887.747 1.29727 -1.73204 0
M  V30 9139 C 888.342 -1.85713 -2.83366 0
M  V30 9140 C 886.901 -1.71523 -3.35048 0
M  V30 9141 C 886.048 -1.83087 -2.08265 0
M  V30 9142 H 888.999 -1.35242 -0.830379 0
M  V30 9143 H 889.02 -1.36583 -3.55141 0
M  V30 9144 H 888.532 -2.90584 -2.5726 0
M  V30 9145 H 886.633 -0.693257 -3.66094 0
M  V30 9146 H 886.746 -2.53333 -4.06644 0
M  V30 9147 H 885.11 -1.26367 -2.21141 0
M  V30 9148 H 885.893 -2.8946 -1.84575 0
M  V30 9149 N 888.338 1.20213 -1.01915 0
M  V30 9150 C 889.271 2.2181 -0.536243 0
M  V30 9151 C 890.249 1.57144 0.417689 0
M  V30 9152 O 891.433 1.85461 0.337088 0
M  V30 9153 C 888.56 3.37989 0.219303 0
M  V30 9154 C 887.606 4.2097 -0.684571 0
M  V30 9155 S 888.439 4.90216 -2.15519 0
M  V30 9156 C 889.595 6.09814 -1.40988 0
M  V30 9157 H 889.828 2.62429 -1.39709 0
M  V30 9158 H 887.361 1.30305 -0.828254 0
M  V30 9159 H 889.319 4.05335 0.649112 0
M  V30 9160 H 887.98 2.95825 1.05575 0
M  V30 9161 H 887.173 5.03897 -0.101833 0
M  V30 9162 H 886.775 3.58892 -1.05227 0
M  V30 9163 H 889.067 6.73964 -0.691243 0
M  V30 9164 H 890.01 6.72552 -2.21539 0
M  V30 9165 H 890.418 5.5709 -0.911645 0
M  V30 9166 N 889.816 0.795718 1.36037 0
M  V30 9167 C 891.227 0.433379 1.816 0
M  V30 9168 C 891.578 -1.04341 1.66155 0
M  V30 9169 O 890.703 -1.81004 1.18603 0
M  V30 9170 C 891.298 0.77985 3.29703 0
M  V30 9171 C 889.857 0.470256 3.73451 0
M  V30 9172 C 889.004 1.01119 2.58206 0
M  V30 9173 H 891.955 0.988317 1.24169 0
M  V30 9174 H 891.976 0.0732898 3.80429 0
M  V30 9175 H 891.488 1.85473 3.40913 0
M  V30 9176 H 889.589 -0.596332 3.67797 0
M  V30 9177 H 889.702 0.995276 4.68648 0
M  V30 9178 H 888.066 0.434077 2.50974 0
M  V30 9179 H 888.849 2.09196 2.72198 0
M  V30 9180 N 891.294 -1.47756 0.548274 0
M  V30 9181 C 892.71 -1.58247 0.207401 0
M  V30 9182 C 892.91 -1.54804 -1.28988 0
M  V30 9183 O 891.966 -1.44673 -2.06944 0
M  V30 9184 C 893.279 -2.89129 0.826142 0
M  V30 9185 C 894.827 -3.02695 0.79655 0
M  V30 9186 C 895.302 -4.36264 1.3942 0
M  V30 9187 N 896.793 -4.42877 1.35698 0
M  V30 9188 C 897.528 -5.44773 1.78913 0
M  V30 9189 N 897.024 -6.53528 2.29942 0
M  V30 9190 N 898.817 -5.35765 1.70038 0
M  V30 9191 H 890.968 -1.48236 1.52117 0
M  V30 9192 H 893.231 -0.704957 0.633829 0
M  V30 9193 H 892.937 -2.97358 1.87806 0
M  V30 9194 H 892.811 -3.75891 0.313916 0
M  V30 9195 H 895.198 -2.94067 -0.246655 0
M  V30 9196 H 895.279 -2.17496 1.34644 0
M  V30 9197 H 894.923 -4.45646 2.43642 0
M  V30 9198 H 894.853 -5.20179 0.819827 0
M  V30 9199 H 897.344 -3.64874 0.983623 0
M  V30 9200 H 897.657 -7.27441 2.60863 0
M  V30 9201 H 896.002 -6.54442 2.33947 0
M  V30 9202 H 899.193 -4.49699 1.29955 0
M  V30 9203 H 899.366 -6.1504 2.04035 0
M  V30 9204 N 892.772 -0.284283 -1.55015 0
M  V30 9205 C 894.021 0.33055 -1.98973 0
M  V30 9206 C 894.334 1.56284 -1.17621 0
M  V30 9207 O 895.54 2.2512 -1.51767 0
M  V30 9208 C 893.996 0.639457 -3.54174 0
M  V30 9209 C 893.604 -0.573543 -4.44313 0
M  V30 9210 C 895.348 1.21641 -4.06699 0
M  V30 9211 C 893.255 -0.238715 -5.90918 0
M  V30 9212 H 892.185 0.127285 -0.743179 0
M  V30 9213 H 894.836 -0.390372 -1.793 0
M  V30 9214 H 893.218 1.41953 -3.69683 0
M  V30 9215 H 894.392 -1.3502 -4.40575 0
M  V30 9216 H 892.707 -1.06797 -4.02472 0
M  V30 9217 H 895.304 1.48088 -5.13784 0
M  V30 9218 H 895.647 2.15328 -3.56286 0
M  V30 9219 H 896.18 0.498422 -3.94665 0
M  V30 9220 H 892.919 -1.1437 -6.45445 0
M  V30 9221 H 892.439 0.500997 -5.97704 0
M  V30 9222 H 894.118 0.165774 -6.46788 0
M  V30 9223 N 894.251 1.57596 -0.0117121 0
M  V30 9224 C 895.476 1.95764 0.684938 0
M  V30 9225 C 895.901 0.887285 1.65858 0
M  V30 9226 O 895.259 -0.153508 1.80649 0
M  V30 9227 C 895.307 3.33031 1.38285 0
M  V30 9228 O 894.411 3.28163 2.49765 0
M  V30 9229 H 893.752 0.638767 0.181309 0
M  V30 9230 H 896.282 2.04486 -0.0683883 0
M  V30 9231 H 896.292 3.68866 1.74362 0
M  V30 9232 H 894.967 4.10483 0.669043 0
M  V30 9233 H 893.544 3.04021 2.15929 0
M  V30 9234 N 895.729 -0.261212 1.5542 0
M  V30 9235 C 896.976 -0.99123 1.76581 0
M  V30 9236 C 897.304 -1.85854 0.573457 0
M  V30 9237 O 896.559 -1.90604 -0.443705 0
M  V30 9238 C 896.858 -1.89395 3.03091 0
M  V30 9239 C 896.524 -1.18318 4.351 0
M  V30 9240 C 895.186 -0.986688 4.70975 0
M  V30 9241 C 897.538 -0.678299 5.16767 0
M  V30 9242 C 894.866 -0.272788 5.86065 0
M  V30 9243 C 897.218 0.0220646 6.32596 0
M  V30 9244 C 895.882 0.230161 6.67103 0
M  V30 9245 H 895.152 -0.362717 0.646156 0
M  V30 9246 H 897.799 -0.262506 1.89692 0
M  V30 9247 H 896.104 -2.68927 2.8493 0
M  V30 9248 H 897.801 -2.46022 3.16661 0
M  V30 9249 H 894.391 -1.34625 4.06908 0
M  V30 9250 H 898.575 -0.817691 4.89518 0
M  V30 9251 H 893.831 -0.10095 6.11317 0
M  V30 9252 H 898.005 0.420981 6.95126 0
M  V30 9253 H 895.632 0.785312 7.56133 0
M  V30 9254 N 897.207 -1.48554 -0.526253 0
M  V30 9255 C 898.484 -1.47252 -1.28748 0
M  V30 9256 C 898.864 -0.186245 -2.10277 0
M  V30 9257 O 898.212 0.831954 -2.12816 0
M  V30 9258 C 898.422 -2.73672 -2.16575 0
M  V30 9259 C 899.77 -3.22151 -2.76593 0
M  V30 9260 O 900.794 -2.74614 -2.2686 0
M  V30 9261 O 899.653 -4.04877 -3.67066 0
M  V30 9262 H 896.747 -0.588242 -0.581292 0
M  V30 9263 H 899.293 -1.60792 -0.5426 0
M  V30 9264 H 898.065 -3.58798 -1.56139 0
M  V30 9265 H 897.688 -2.6287 -2.98304 0
M  V30 9266 N 898.685 0.775411 -1.37205 0
M  V30 9267 C 900.101 1.07546 -1.17924 0
M  V30 9268 C 900.301 2.01496 -0.0128897 0
M  V30 9269 O 899.357 2.44039 0.64816 0
M  V30 9270 C 900.67 1.67647 -2.49629 0
M  V30 9271 C 902.218 1.79923 -2.56119 0
M  V30 9272 C 902.693 2.43438 -3.87946 0
M  V30 9273 N 904.184 2.50893 -3.89368 0
M  V30 9274 C 904.919 3.00881 -4.88117 0
M  V30 9275 N 904.415 3.5107 -5.97262 0
M  V30 9276 N 906.208 2.99722 -4.75524 0
M  V30 9277 H 898.359 0.151524 -2.11859 0
M  V30 9278 H 900.622 0.129845 -0.939066 0
M  V30 9279 H 900.328 1.06082 -3.3532 0
M  V30 9280 H 900.202 2.66988 -2.66453 0
M  V30 9281 H 902.589 2.40621 -1.70838 0
M  V30 9282 H 902.67 0.793482 -2.43182 0
M  V30 9283 H 902.314 1.8338 -4.73639 0
M  V30 9284 H 902.244 3.44611 -3.98184 0
M  V30 9285 H 904.735 2.1537 -3.10522 0
M  V30 9286 H 905.048 3.87604 -6.68568 0
M  V30 9287 H 903.393 3.49184 -6.00912 0
M  V30 9288 H 906.584 2.5981 -3.8938 0
M  V30 9289 H 906.757 3.38369 -5.52639 0
M  V30 9290 N 900.163 1.21714 1.00117 0
M  V30 9291 C 901.409 1.04829 1.74306 0
M  V30 9292 C 901.764 -0.413387 1.87907 0
M  V30 9293 O 901.057 -1.30258 1.40512 0
M  V30 9294 C 901.251 1.68345 3.15269 0
M  V30 9295 C 901.08 3.20537 3.15414 0
M  V30 9296 C 899.85 3.896 3.21776 0
M  V30 9297 C 902.048 4.17576 3.00224 0
M  V30 9298 N 900.03 5.28949 3.11587 0
M  V30 9299 C 901.401 5.43701 2.97974 0
M  V30 9300 C 903.456 4.08575 2.84554 0
M  V30 9301 C 902.159 6.61861 2.8166 0
M  V30 9302 C 904.185 5.26375 2.69598 0
M  V30 9303 C 903.547 6.51414 2.68028 0
M  V30 9304 H 899.646 0.437964 0.647852 0
M  V30 9305 H 902.23 1.54128 1.18965 0
M  V30 9306 H 900.401 1.21607 3.68872 0
M  V30 9307 H 902.133 1.44629 3.77974 0
M  V30 9308 H 898.888 3.40548 3.29126 0
M  V30 9309 H 899.312 6.01945 3.09825 0
M  V30 9310 H 903.954 3.12696 2.84571 0
M  V30 9311 H 901.672 7.57896 2.8039 0
M  V30 9312 H 905.258 5.21235 2.58468 0
M  V30 9313 H 904.138 7.41033 2.56593 0
M  V30 9314 N 901.641 -1.19671 1.02551 0
M  V30 9315 C 902.887 -1.89548 0.721069 0
M  V30 9316 C 903.22 -1.79209 -0.748176 0
M  V30 9317 O 902.495 -1.1822 -1.54448 0
M  V30 9318 C 902.778 -3.4061 1.16861 0
M  V30 9319 C 902.631 -3.59838 2.69883 0
M  V30 9320 C 903.95 -4.33718 0.746782 0
M  V30 9321 H 901.069 -0.688315 0.263422 0
M  V30 9322 H 903.711 -1.40883 1.27483 0
M  V30 9323 H 901.861 -3.82188 0.697477 0
M  V30 9324 H 903.533 -3.27454 3.24917 0
M  V30 9325 H 901.776 -3.03005 3.10435 0
M  V30 9326 H 902.447 -4.65766 2.96253 0
M  V30 9327 H 904.923 -3.99837 1.15195 0
M  V30 9328 H 903.799 -5.38012 1.08786 0
M  V30 9329 H 904.06 -4.40704 -0.351057 0
M  V30 9330 N 903.119 -0.802921 -1.35613 0
M  V30 9331 C 904.029 -0.212177 -2.33639 0
M  V30 9332 C 905.045 0.642871 -1.61689 0
M  V30 9333 O 906.221 0.555485 -1.93588 0
M  V30 9334 C 903.286 0.632406 -3.40883 0
M  V30 9335 C 902.347 -0.242708 -4.28613 0
M  V30 9336 C 901.58 0.56166 -5.30736 0
M  V30 9337 O 901.803 1.79664 -5.41366 0
M  V30 9338 O 900.737 -0.0455387 -6.01883 0
M  V30 9339 H 904.563 -1.023 -2.85952 0
M  V30 9340 H 902.148 -0.564636 -1.38319 0
M  V30 9341 H 904.03 1.11358 -4.0642 0
M  V30 9342 H 902.705 1.42089 -2.90848 0
M  V30 9343 H 901.612 -0.77094 -3.6607 0
M  V30 9344 H 902.945 -0.995046 -4.82037 0
M  V30 9345 N 904.597 1.47463 -0.556102 0
M  V30 9346 C 905.507 2.33785 0.195378 0
M  V30 9347 C 906.523 1.48123 0.913 0
M  V30 9348 O 907.699 1.81053 0.882141 0
M  V30 9349 C 904.764 3.24795 1.21282 0
M  V30 9350 C 903.825 4.26346 0.502747 0
M  V30 9351 C 903.058 5.13007 1.47172 0
M  V30 9352 O 903.281 5.02103 2.70646 0
M  V30 9353 O 902.215 5.93588 0.996814 0
M  V30 9354 H 906.041 2.99341 -0.512676 0
M  V30 9355 H 903.626 1.46004 -0.31673 0
M  V30 9356 H 905.508 3.81015 1.80016 0
M  V30 9357 H 904.183 2.61868 1.90282 0
M  V30 9358 H 903.09 3.73889 -0.125757 0
M  V30 9359 H 904.423 4.91984 -0.145779 0
M  V30 9360 N 906.075 0.2925 1.54862 0
M  V30 9361 C 907.491 -0.0611461 1.59483 0
M  V30 9362 C 907.691 -1.53141 1.30958 0
M  V30 9363 O 906.747 -2.28291 1.07887 0
M  V30 9364 C 908.06 0.329143 2.98893 0
M  V30 9365 C 909.608 0.2772 3.1177 0
M  V30 9366 C 910.083 0.642185 4.53475 0
M  V30 9367 N 911.574 0.594396 4.5937 0
M  V30 9368 C 912.309 0.849385 5.67074 0
M  V30 9369 N 911.805 1.1699 6.82851 0
M  V30 9370 N 913.598 0.777016 5.56704 0
M  V30 9371 H 905.749 1.25079 1.71665 0
M  V30 9372 H 908.012 0.506516 0.80134 0
M  V30 9373 H 907.718 1.35233 3.24661 0
M  V30 9374 H 907.592 -0.321442 3.75828 0
M  V30 9375 H 909.979 -0.736725 2.85756 0
M  V30 9376 H 910.06 0.962289 2.3701 0
M  V30 9377 H 909.704 1.65388 4.80218 0
M  V30 9378 H 909.634 -0.0648831 5.2656 0
M  V30 9379 H 912.125 0.357256 3.76208 0
M  V30 9380 H 912.438 1.35067 7.60905 0
M  V30 9381 H 910.783 1.20785 6.84424 0
M  V30 9382 H 913.974 0.526333 4.65132 0
M  V30 9383 H 914.147 0.979113 6.4056 0
M  V30 9384 N 907.553 -1.57587 0.0200696 0
M  V30 9385 C 908.969 -1.56018 -0.336237 0
M  V30 9386 C 909.169 -1.02478 -1.73495 0
M  V30 9387 O 908.225 -0.667487 -2.43518 0
M  V30 9388 C 909.538 -3.00079 -0.193112 0
M  V30 9389 C 911.086 -3.11863 -0.266557 0
M  V30 9390 C 911.561 -4.57747 -0.152326 0
M  V30 9391 N 913.052 -4.62726 -0.209596 0
M  V30 9392 C 913.787 -5.73217 -0.144855 0
M  V30 9393 N 913.283 -6.92794 -0.0295487 0
M  V30 9394 N 915.076 -5.61751 -0.198184 0
M  V30 9395 H 907.227 -1.90722 0.93482 0
M  V30 9396 H 909.49 -0.876909 0.360186 0
M  V30 9397 H 909.196 -3.43167 0.770036 0
M  V30 9398 H 909.07 -3.64593 -0.967029 0
M  V30 9399 H 911.457 -2.68693 -1.22016 0
M  V30 9400 H 911.538 -2.50087 0.53758 0
M  V30 9401 H 911.182 -5.01595 0.797817 0
M  V30 9402 H 911.112 -5.17491 -0.97521 0
M  V30 9403 H 913.603 -3.76713 -0.299229 0
M  V30 9404 H 913.916 -7.72799 0.0134071 0
M  V30 9405 H 912.261 -6.95 0.00510737 0
M  V30 9406 H 915.452 -4.67222 -0.286603 0
M  V30 9407 H 915.625 -6.47839 -0.144266 0
M  V30 9408 N 909.032 0.252966 -1.55557 0
M  V30 9409 C 910.28 0.979912 -1.76754 0
M  V30 9410 C 910.601 1.86083 -0.582944 0
M  V30 9411 O 909.871 1.91742 0.401497 0
M  V30 9412 H 908.451 0.364805 -0.651864 0
M  V30 9413 H 911.113 0.272372 -1.92987 0
M  V30 9414 H 910.209 1.60518 -2.67657 0
M  V30 9415 N 910.51 1.48831 0.518367 0
M  V30 9416 C 911.46 1.60614 1.61824 0
M  V30 9417 C 912.444 0.462631 1.54106 0
M  V30 9418 O 913.636 0.714689 1.6193 0
M  V30 9419 C 910.765 1.65984 3.00507 0
M  V30 9420 C 909.851 2.85854 3.13286 0
M  V30 9421 N 910.242 4.1014 2.96005 0
M  V30 9422 C 908.54 2.83429 3.4436 0
M  V30 9423 C 909.241 4.90626 3.12508 0
M  V30 9424 N 908.217 4.2366 3.40607 0
M  V30 9425 H 912.019 2.54443 1.47091 0
M  V30 9426 H 909.533 1.45363 0.724102 0
M  V30 9427 H 911.53 1.72521 3.79529 0
M  V30 9428 H 910.19 0.732792 3.16323 0
M  V30 9429 H 911.201 4.40395 2.72531 0
M  V30 9430 H 907.878 2.0003 3.66462 0
M  V30 9431 H 909.268 5.99302 3.03786 0
M  V30 9432 N 911.988 -0.768124 1.37614 0
M  V30 9433 C 912.951 -1.86314 1.3349 0
M  V30 9434 C 913.951 -1.59025 0.23823 0
M  V30 9435 O 915.141 -1.6704 0.494288 0
M  V30 9436 C 912.273 -3.23519 1.07462 0
M  V30 9437 H 913.466 -1.91382 2.30896 0
M  V30 9438 H 911.019 -0.968267 1.22696 0
M  V30 9439 H 911.754 -3.24127 0.106028 0
M  V30 9440 H 911.539 -3.44719 1.86846 0
M  V30 9441 H 913.029 -4.03597 1.07236 0
M  V30 9442 N 913.466 -1.22244 -0.994698 0
M  V30 9443 C 914.429 -0.992308 -2.06606 0
M  V30 9444 C 915.429 0.0405872 -1.60749 0
M  V30 9445 O 916.619 -0.197737 -1.73074 0
M  V30 9446 C 913.751 -0.498499 -3.37236 0
M  V30 9447 H 914.944 -1.9429 -2.28455 0
M  V30 9448 H 912.497 -1.04087 -1.166 0
M  V30 9449 H 913.232 0.456531 -3.21071 0
M  V30 9450 H 913.017 -1.24367 -3.71854 0
M  V30 9451 H 914.507 -0.35768 -4.16065 0
M  V30 9452 N 914.944 1.19125 -1.03184 0
M  V30 9453 C 916.355 1.70564 -0.759264 0
M  V30 9454 C 916.706 1.8248 0.720794 0
M  V30 9455 O 915.831 1.49804 1.56166 0
M  V30 9456 C 916.426 3.09793 -1.37163 0
M  V30 9457 C 914.985 3.5848 -1.14757 0
M  V30 9458 C 914.132 2.35265 -1.46784 0
M  V30 9459 H 917.083 1.03925 -1.19939 0
M  V30 9460 H 917.104 3.72624 -0.77015 0
M  V30 9461 H 916.616 3.01088 -2.44882 0
M  V30 9462 H 914.717 3.72494 -0.0887182 0
M  V30 9463 H 914.83 4.42426 -1.83836 0
M  V30 9464 H 913.194 2.38747 -0.887254 0
M  V30 9465 H 913.977 2.29188 -2.55593 0
M  V30 9466 N 916.422 0.810101 1.35185 0
M  V30 9467 C 917.668 0.401839 1.99391 0
M  V30 9468 C 918.023 -1.02059 1.63101 0
M  V30 9469 O 917.316 -1.69889 0.8859 0
M  V30 9470 C 917.51 0.526561 3.535 0
M  V30 9471 C 917.339 1.95956 4.04761 0
M  V30 9472 C 916.109 2.58869 4.33953 0
M  V30 9473 C 918.307 2.92459 4.23051 0
M  V30 9474 N 916.289 3.93542 4.71166 0
M  V30 9475 C 917.66 4.12011 4.633 0
M  V30 9476 C 919.715 2.89244 4.05268 0
M  V30 9477 C 918.418 5.28784 4.87627 0
M  V30 9478 C 920.444 4.05223 4.30753 0
M  V30 9479 C 919.806 5.23524 4.71277 0
M  V30 9480 H 915.905 0.194886 0.757327 0
M  V30 9481 H 918.489 1.05209 1.63827 0
M  V30 9482 H 916.66 -0.0937151 3.88287 0
M  V30 9483 H 918.392 0.0925434 4.04594 0
M  V30 9484 H 915.147 2.10198 4.24398 0
M  V30 9485 H 915.571 4.62889 4.94027 0
M  V30 9486 H 920.213 1.98932 3.73076 0
M  V30 9487 H 917.931 6.19666 5.18691 0
M  V30 9488 H 921.517 4.04121 4.18542 0
M  V30 9489 H 920.397 6.11776 4.90612 0
M  V30 9490 N 917.9 -1.47166 0.563914 0
M  V30 9491 C 919.311 -1.86231 0.132307 0
M  V30 9492 C 919.662 -1.46976 -1.29971 0
M  V30 9493 O 918.787 -0.875911 -1.97881 0
M  V30 9494 C 919.382 -3.37996 0.233335 0
M  V30 9495 C 917.941 -3.76127 -0.143278 0
M  V30 9496 C 917.088 -2.71212 0.577857 0
M  V30 9497 H 920.039 -1.38588 0.773249 0
M  V30 9498 H 920.06 -3.76558 -0.546309 0
M  V30 9499 H 919.572 -3.66535 1.27568 0
M  V30 9500 H 917.673 -3.53205 -1.18648 0
M  V30 9501 H 917.786 -4.78595 0.219952 0
M  V30 9502 H 916.15 -2.54692 0.020186 0
M  V30 9503 H 916.933 -3.02593 1.62149 0
M  V30 9504 N 919.378 -0.300708 -1.54705 0
M  V30 9505 C 920.606 0.31127 -2.04545 0
M  V30 9506 C 921.021 1.47542 -1.178 0
M  V30 9507 O 920.378 1.81361 -0.203571 0
M  V30 9508 C 920.429 0.767783 -3.53253 0
M  V30 9509 O 920.15 -0.350027 -4.36699 0
M  V30 9510 C 921.651 1.44494 -4.1909 0
M  V30 9511 H 918.871 0.067668 -0.667579 0
M  V30 9512 H 921.415 -0.440254 -1.99705 0
M  V30 9513 H 919.57 1.46933 -3.58454 0
M  V30 9514 H 919.984 0.00534038 -5.245 0
M  V30 9515 H 921.458 1.71553 -5.24665 0
M  V30 9516 H 921.935 2.3849 -3.68808 0
M  V30 9517 H 922.541 0.786581 -4.17963 0
M  V30 9518 N 920.856 1.57574 -0.0284266 0
M  V30 9519 C 922.102 1.92884 0.645544 0
M  V30 9520 C 922.457 0.905203 1.69776 0
M  V30 9521 O 921.75 -0.0788509 1.91438 0
M  V30 9522 C 921.944 3.32699 1.3056 0
M  V30 9523 C 921.773 4.48568 0.318848 0
M  V30 9524 C 920.543 5.05235 -0.0810373 0
M  V30 9525 C 922.741 5.12528 -0.426575 0
M  V30 9526 N 920.723 6.04626 -1.06303 0
M  V30 9527 C 922.094 6.07013 -1.26235 0
M  V30 9528 C 924.149 4.95509 -0.48735 0
M  V30 9529 C 922.852 6.8631 -2.15341 0
M  V30 9530 C 924.878 5.75414 -1.36575 0
M  V30 9531 C 924.24 6.69514 -2.1893 0
M  V30 9532 H 920.339 0.753677 0.208555 0
M  V30 9533 H 922.923 1.94466 -0.095439 0
M  V30 9534 H 921.094 3.31938 2.01673 0
M  V30 9535 H 922.826 3.55359 1.93655 0
M  V30 9536 H 919.581 4.72691 0.293264 0
M  V30 9537 H 920.005 6.59012 -1.55025 0
M  V30 9538 H 924.647 4.22584 0.135112 0
M  V30 9539 H 922.365 7.58541 -2.78642 0
M  V30 9540 H 925.951 5.64279 -1.41705 0
M  V30 9541 H 924.831 7.30266 -2.85799 0
M  V30 9542 N 922.334 -0.244713 1.55689 0
M  V30 9543 C 923.297 -1.2864 1.89695 0
M  V30 9544 C 924.297 -1.40969 0.773583 0
M  V30 9545 O 925.487 -1.39632 1.04156 0
M  V30 9546 C 922.619 -2.66379 2.12732 0
M  V30 9547 H 923.812 -0.997033 2.82841 0
M  V30 9548 H 921.365 -0.484103 1.48614 0
M  V30 9549 H 922.1 -3.00452 1.22062 0
M  V30 9550 H 921.885 -2.58812 2.94549 0
M  V30 9551 H 923.375 -3.41592 2.40218 0
M  V30 9552 N 923.813 -1.49104 -0.510467 0
M  V30 9553 C 925.09 -1.48609 -1.27179 0
M  V30 9554 C 925.47 -0.208537 -2.10067 0
M  V30 9555 O 924.818 0.809335 -2.13687 0
M  V30 9556 C 925.028 -2.75953 -2.1366 0
M  V30 9557 C 926.376 -3.25067 -2.73161 0
M  V30 9558 O 927.4 -2.77005 -2.23934 0
M  V30 9559 O 926.259 -4.08747 -3.62751 0
M  V30 9560 H 923.353 -0.594374 -0.57502 0
M  V30 9561 H 925.899 -1.61358 -0.525515 0
M  V30 9562 H 924.671 -3.60434 -1.52325 0
M  V30 9563 H 924.294 -2.66019 -2.95499 0
M  V30 9564 N 925.291 0.760815 -1.38019 0
M  V30 9565 C 926.201 1.90526 -1.36884 0
M  V30 9566 C 927.217 1.71941 -0.266908 0
M  V30 9567 O 928.393 1.94988 -0.50413 0
M  V30 9568 C 925.458 3.25799 -1.18558 0
M  V30 9569 C 924.519 3.56961 -2.3849 0
M  V30 9570 C 923.752 4.8578 -2.21029 0
M  V30 9571 O 923.975 5.57629 -1.20023 0
M  V30 9572 O 922.909 5.16254 -3.0946 0
M  V30 9573 H 926.735 1.94437 -2.33298 0
M  V30 9574 H 924.32 0.905091 -1.18863 0
M  V30 9575 H 926.202 4.0669 -1.1037 0
M  V30 9576 H 924.877 3.22716 -0.252241 0
M  V30 9577 H 923.784 2.7626 -2.52252 0
M  V30 9578 H 925.117 3.64798 -3.30429 0
M  V30 9579 N 926.769 1.22769 0.988202 0
M  V30 9580 C 928.018 1.0492 1.72263 0
M  V30 9581 C 928.331 -0.415282 1.91141 0
M  V30 9582 O 929.537 -0.713547 2.61956 0
M  V30 9583 C 927.993 1.82891 3.09966 0
M  V30 9584 C 927.601 3.33618 2.99003 0
M  V30 9585 C 929.345 1.73505 3.87423 0
M  V30 9586 C 927.252 4.04012 4.3189 0
M  V30 9587 H 926.182 0.38899 0.645912 0
M  V30 9588 H 928.833 1.46664 1.10281 0
M  V30 9589 H 927.215 1.33948 3.72658 0
M  V30 9590 H 928.389 3.8999 2.45448 0
M  V30 9591 H 926.704 3.43732 2.35027 0
M  V30 9592 H 929.301 2.23416 4.85787 0
M  V30 9593 H 929.644 0.696344 4.10435 0
M  V30 9594 H 930.177 2.20016 3.31418 0
M  V30 9595 H 926.916 5.08155 4.14075 0
M  V30 9596 H 926.436 3.52428 4.8534 0
M  V30 9597 H 928.115 4.0987 5.00615 0
M  V30 9598 N 928.247 -1.18576 1.03814 0
M  V30 9599 C 929.21 -2.2033 0.63146 0
M  V30 9600 C 930.21 -1.57787 -0.309816 0
M  V30 9601 O 931.4 -1.73938 -0.0955598 0
M  V30 9602 C 928.532 -3.40818 -0.0745963 0
M  V30 9603 H 929.725 -2.57824 1.53189 0
M  V30 9604 H 927.278 -1.32416 0.830398 0
M  V30 9605 H 928.013 -3.08853 -0.988947 0
M  V30 9606 H 927.798 -3.87453 0.6019 0
M  V30 9607 H 929.288 -4.16166 -0.345727 0
M  V30 9608 N 929.725 -0.817259 -1.34754 0
M  V30 9609 C 930.953 -0.415451 -2.02686 0
M  V30 9610 C 931.368 0.97688 -1.61563 0
M  V30 9611 O 930.725 1.63125 -0.818321 0
M  V30 9612 C 930.776 -0.501486 -3.58005 0
M  V30 9613 O 930.497 -1.83893 -3.97637 0
M  V30 9614 C 931.998 -0.0938504 -4.43201 0
M  V30 9615 H 929.218 -0.16742 -0.649778 0
M  V30 9616 H 931.762 -1.10384 -1.7215 0
M  V30 9617 H 929.917 0.138766 -3.87151 0
M  V30 9618 H 930.331 -1.8092 -4.92309 0
M  V30 9619 H 931.805 -0.205145 -5.51619 0
M  V30 9620 H 932.282 0.962011 -4.28535 0
M  V30 9621 H 932.888 -0.707677 -4.19371 0
M  V30 9622 N 931.203 1.46865 -0.571711 0
M  V30 9623 C 932.428 2.07323 -0.0564655 0
M  V30 9624 C 932.853 1.41938 1.23431 0
M  V30 9625 O 932.211 0.499334 1.74288 0
M  V30 9626 C 932.259 3.6044 0.107339 0
M  V30 9627 O 931.363 3.95558 1.1665 0
M  V30 9628 H 930.704 0.661475 -0.0578465 0
M  V30 9629 H 933.234 1.88669 -0.791524 0
M  V30 9630 H 933.244 4.06767 0.316987 0
M  V30 9631 H 931.919 4.07425 -0.835348 0
M  V30 9632 H 930.496 3.60957 0.936189 0
M  V30 9633 N 932.681 0.308908 1.54543 0
M  V30 9634 C 933.611 -0.556657 2.26768 0
M  V30 9635 C 934.592 -1.13145 1.27013 0
M  V30 9636 O 935.777 -1.15931 1.558 0
M  V30 9637 C 932.907 -1.72481 3.01443 0
M  V30 9638 C 931.861 -1.28001 4.08411 0
M  V30 9639 C 931.187 -2.53395 4.70845 0
M  V30 9640 C 932.487 -0.405497 5.20724 0
M  V30 9641 H 934.181 0.0457618 2.99365 0
M  V30 9642 H 931.727 0.0234495 1.43981 0
M  V30 9643 H 933.68 -2.3365 3.50693 0
M  V30 9644 H 932.404 -2.35359 2.26437 0
M  V30 9645 H 931.063 -0.69133 3.60022 0
M  V30 9646 H 930.711 -3.14604 3.92471 0
M  V30 9647 H 930.411 -2.2433 5.43093 0
M  V30 9648 H 931.935 -3.15352 5.22863 0
M  V30 9649 H 933.349 -0.923076 5.6582 0
M  V30 9650 H 931.746 -0.208282 5.99738 0
M  V30 9651 H 932.816 0.567412 4.81569 0
M  V30 9652 N 934.159 -1.57557 0.0367827 0
M  V30 9653 C 935.575 -1.56366 -0.31967 0
M  V30 9654 C 935.775 -1.04313 -1.72398 0
M  V30 9655 O 934.831 -0.693278 -2.42796 0
M  V30 9656 C 936.144 -3.00267 -0.161274 0
M  V30 9657 C 937.692 -3.12128 -0.233464 0
M  V30 9658 C 938.167 -4.57882 -0.103767 0
M  V30 9659 N 939.658 -4.62922 -0.160506 0
M  V30 9660 C 940.393 -5.73338 -0.0840493 0
M  V30 9661 N 939.889 -6.92786 0.043933 0
M  V30 9662 N 941.682 -5.61929 -0.138592 0
M  V30 9663 H 933.833 -1.8972 0.954996 0
M  V30 9664 H 936.096 -0.87304 0.369467 0
M  V30 9665 H 935.802 -3.42331 0.80639 0
M  V30 9666 H 935.676 -3.65599 -0.928304 0
M  V30 9667 H 938.063 -2.69972 -1.19159 0
M  V30 9668 H 938.144 -2.49503 0.564075 0
M  V30 9669 H 937.788 -5.0072 0.850973 0
M  V30 9670 H 937.718 -5.18496 -0.920268 0
M  V30 9671 H 940.209 -3.7701 -0.259257 0
M  V30 9672 H 940.522 -7.72741 0.095372 0
M  V30 9673 H 938.867 -6.94955 0.0788211 0
M  V30 9674 H 942.058 -4.67499 -0.237031 0
M  V30 9675 H 942.231 -6.47956 -0.075546 0
M  V30 9676 N 935.637 0.236453 -1.55816 0
M  V30 9677 C 936.587 1.29603 -1.87582 0
M  V30 9678 C 937.571 1.42999 -0.737566 0
M  V30 9679 O 938.763 1.46065 -0.999701 0
M  V30 9680 C 935.892 2.64945 -2.1831 0
M  V30 9681 C 934.978 2.55511 -3.38489 0
M  V30 9682 N 935.369 2.15716 -4.57494 0
M  V30 9683 C 933.667 2.86502 -3.41808 0
M  V30 9684 C 934.368 2.17169 -5.39641 0
M  V30 9685 N 933.344 2.5708 -4.78969 0
M  V30 9686 H 937.146 0.979016 -2.77115 0
M  V30 9687 H 934.66 0.445058 -1.56183 0
M  V30 9688 H 936.657 3.41426 -2.39236 0
M  V30 9689 H 935.317 2.97504 -1.30082 0
M  V30 9690 H 936.328 1.87089 -4.82927 0
M  V30 9691 H 933.005 3.23533 -2.6388 0
M  V30 9692 H 934.395 1.88653 -6.44872 0
M  V30 9693 N 937.115 1.49373 0.502552 0
M  V30 9694 C 938.078 1.65413 1.58654 0
M  V30 9695 C 939.078 0.526003 1.51953 0
M  V30 9696 O 940.268 0.792421 1.55133 0
M  V30 9697 C 937.4 1.65005 2.98306 0
M  V30 9698 H 938.593 2.62095 1.45762 0
M  V30 9699 H 936.146 1.38381 0.726672 0
M  V30 9700 H 936.881 0.699014 3.16677 0
M  V30 9701 H 936.666 2.46931 3.04578 0
M  V30 9702 H 938.156 1.79477 3.77065 0
M  V30 9703 N 938.594 -0.753485 1.38421 0
M  V30 9704 C 939.843 -1.50797 1.33952 0
M  V30 9705 C 940.156 -1.95482 -0.0678464 0
M  V30 9706 O 941.362 -2.7048 -0.235078 0
M  V30 9707 C 939.818 -2.72393 2.35224 0
M  V30 9708 C 939.426 -2.34733 3.81582 0
M  V30 9709 C 941.17 -3.50281 2.39798 0
M  V30 9710 C 939.077 -3.52939 4.7454 0
M  V30 9711 H 938.007 -0.566211 0.497916 0
M  V30 9712 H 940.658 -0.823659 1.63976 0
M  V30 9713 H 939.04 -3.42806 1.98243 0
M  V30 9714 H 940.214 -1.71985 4.27502 0
M  V30 9715 H 938.529 -1.69978 3.80127 0
M  V30 9716 H 941.126 -4.38172 3.06447 0
M  V30 9717 H 941.469 -3.91444 1.41695 0
M  V30 9718 H 942.002 -2.86881 2.75579 0
M  V30 9719 H 938.741 -3.16843 5.73839 0
M  V30 9720 H 938.261 -4.1473 4.33312 0
M  V30 9721 H 939.94 -4.19519 4.92557 0
M  V30 9722 N 940.072 -1.23292 -0.981677 0
M  V30 9723 C 941.297 -1.09176 -1.76339 0
M  V30 9724 C 941.722 0.352726 -1.84763 0
M  V30 9725 O 941.08 1.25509 -1.30832 0
M  V30 9726 C 941.128 -1.72046 -3.16911 0
M  V30 9727 O 940.232 -0.98174 -4.00544 0
M  V30 9728 H 939.573 -0.382755 -0.542581 0
M  V30 9729 H 942.103 -1.63319 -1.23239 0
M  V30 9730 H 942.113 -1.77232 -3.67495 0
M  V30 9731 H 940.788 -2.77154 -3.10095 0
M  V30 9732 H 939.365 -1.00672 -3.59054 0
M  V30 9733 N 941.55 1.18024 -1.04442 0
M  V30 9734 C 942.827 1.8398 -0.664125 0
M  V30 9735 C 943.207 1.92961 0.856116 0
M  V30 9736 O 942.555 1.45839 1.75907 0
M  V30 9737 C 942.765 3.22069 -1.34433 0
M  V30 9738 C 944.113 3.98063 -1.47754 0
M  V30 9739 O 945.137 3.31523 -1.30274 0
M  V30 9740 O 943.996 5.17291 -1.76272 0
M  V30 9741 H 941.09 0.793543 -0.23285 0
M  V30 9742 H 943.636 1.25385 -1.14354 0
M  V30 9743 H 942.408 3.10458 -2.38184 0
M  V30 9744 H 942.031 3.88325 -0.853782 0
M  V30 9745 N 943.028 0.824394 1.34319 0
M  V30 9746 C 943.961 0.192544 2.27386 0
M  V30 9747 C 944.939 -0.651901 1.4896 0
M  V30 9748 O 946.123 -0.615321 1.78174 0
M  V30 9749 C 943.25 -0.730958 3.30718 0
M  V30 9750 C 942.296 0.0361484 4.26485 0
M  V30 9751 S 943.129 1.3843 5.17298 0
M  V30 9752 C 944.285 0.465713 6.24165 0
M  V30 9753 H 944.518 0.981573 2.80629 0
M  V30 9754 H 942.051 0.620371 1.41389 0
M  V30 9755 H 944.009 -1.25822 3.90742 0
M  V30 9756 H 942.67 -1.49352 2.7632 0
M  V30 9757 H 941.863 -0.665969 4.99581 0
M  V30 9758 H 941.465 0.494011 3.70723 0
M  V30 9759 H 943.757 -0.342157 6.76635 0
M  V30 9760 H 944.7 1.16639 6.98427 0
M  V30 9761 H 945.108 0.0534895 5.64475 0
M  V30 9762 N 944.506 -1.46559 0.579492 0
M  V30 9763 C 945.439 -2.27287 -0.203894 0
M  V30 9764 C 946.417 -1.3543 -0.899865 0
M  V30 9765 O 947.601 -1.64836 -0.914398 0
M  V30 9766 C 944.728 -3.13077 -1.2923 0
M  V30 9767 C 943.774 -4.20675 -0.702505 0
M  V30 9768 S 944.607 -5.3345 0.468136 0
M  V30 9769 C 945.763 -6.22806 -0.621544 0
M  V30 9770 H 945.996 -2.93382 0.481083 0
M  V30 9771 H 943.529 -1.49992 0.366311 0
M  V30 9772 H 945.487 -3.63069 -1.91548 0
M  V30 9773 H 944.148 -2.46302 -1.94921 0
M  V30 9774 H 943.341 -4.80516 -1.52053 0
M  V30 9775 H 942.943 -3.73678 -0.155046 0
M  V30 9776 H 945.235 -6.60503 -1.50803 0
M  V30 9777 H 946.178 -7.08075 -0.059961 0
M  V30 9778 H 946.586 -5.56882 -0.924242 0
M  V30 9779 N 945.984 -0.3171 -1.54377 0
M  V30 9780 C 946.914 0.544623 -2.2706 0
M  V30 9781 C 947.895 1.12469 -1.27611 0
M  V30 9782 O 949.08 1.15103 -1.56413 0
M  V30 9783 C 946.21 1.70879 -3.02353 0
M  V30 9784 C 945.164 1.25833 -4.09084 0
M  V30 9785 C 944.49 2.50894 -4.72182 0
M  V30 9786 C 945.79 0.377876 -5.20931 0
M  V30 9787 H 947.484 -0.0616372 -2.99337 0
M  V30 9788 H 945.03 -0.0310848 -1.43966 0
M  V30 9789 H 946.983 2.31787 -3.51927 0
M  V30 9790 H 945.707 2.34155 -2.27682 0
M  V30 9791 H 944.366 0.672228 -3.60384 0
M  V30 9792 H 944.014 3.12518 -3.94134 0
M  V30 9793 H 943.714 2.21447 -5.44275 0
M  V30 9794 H 945.238 3.12575 -5.24528 0
M  V30 9795 H 946.652 0.893056 -5.66302 0
M  V30 9796 H 945.049 0.176474 -5.9984 0
M  V30 9797 H 946.119 -0.592943 -4.81261 0
M  V30 9798 N 947.462 1.57535 -0.0451378 0
M  V30 9799 C 948.878 1.56533 0.311373 0
M  V30 9800 C 949.078 1.05225 1.71843 0
M  V30 9801 O 948.134 0.706144 2.42425 0
M  V30 9802 C 949.447 3.00349 0.145348 0
M  V30 9803 C 950.995 3.12248 0.216908 0
M  V30 9804 C 951.47 4.57931 0.0794834 0
M  V30 9805 N 952.961 4.63 0.135954 0
M  V30 9806 C 953.696 5.73375 0.0536426 0
M  V30 9807 N 953.192 6.92753 -0.0806725 0
M  V30 9808 N 954.985 5.61995 0.108789 0
M  V30 9809 H 947.136 1.89211 -0.965044 0
M  V30 9810 H 949.399 0.871068 -0.374091 0
M  V30 9811 H 949.105 3.41898 -0.824533 0
M  V30 9812 H 948.979 3.66086 0.908903 0
M  V30 9813 H 951.366 2.70601 1.17726 0
M  V30 9814 H 951.447 2.49201 -0.577299 0
M  V30 9815 H 951.091 5.00262 -0.877516 0
M  V30 9816 H 951.021 5.18977 0.892758 0
M  V30 9817 H 953.512 3.77142 0.23926 0
M  V30 9818 H 953.825 7.7268 -0.136351 0
M  V30 9819 H 952.17 6.94904 -0.115675 0
M  V30 9820 H 955.361 4.67619 0.212235 0
M  V30 9821 H 955.534 6.47987 0.0411822 0
M  V30 9822 N 948.94 -0.228186 1.55939 0
M  V30 9823 C 949.89 -1.28607 1.88267 0
M  V30 9824 C 950.874 -1.42606 0.745139 0
M  V30 9825 O 952.066 -1.45533 1.00743 0
M  V30 9826 C 949.195 -2.63783 2.19712 0
M  V30 9827 C 948.281 -2.53712 3.3984 0
M  V30 9828 N 948.672 -2.13287 4.58631 0
M  V30 9829 C 946.97 -2.84686 3.43322 0
M  V30 9830 C 947.671 -2.14305 5.40785 0
M  V30 9831 N 946.647 -2.54536 4.80325 0
M  V30 9832 H 950.449 -0.964307 2.7763 0
M  V30 9833 H 947.963 -0.436769 1.56416 0
M  V30 9834 H 949.96 -3.40152 2.41044 0
M  V30 9835 H 948.62 -2.9681 1.31657 0
M  V30 9836 H 949.631 -1.84525 4.83912 0
M  V30 9837 H 946.308 -3.22129 2.65592 0
M  V30 9838 H 947.698 -1.85231 6.45863 0
M  V30 9839 N 950.418 -1.49637 -0.494624 0
M  V30 9840 C 951.348 -1.69692 -1.60396 0
M  V30 9841 C 952.329 -0.545648 -1.61111 0
M  V30 9842 O 953.514 -0.782202 -1.77751 0
M  V30 9843 C 950.644 -1.76934 -2.9885 0
M  V30 9844 C 949.598 -2.91915 -3.13001 0
M  V30 9845 C 948.924 -2.84276 -4.5287 0
M  V30 9846 C 950.224 -4.32764 -2.92426 0
M  V30 9847 H 951.918 -2.6257 -1.43866 0
M  V30 9848 H 949.464 -1.26355 -0.690679 0
M  V30 9849 H 951.417 -1.8955 -3.76362 0
M  V30 9850 H 950.141 -0.806609 -3.16483 0
M  V30 9851 H 948.8 -2.78911 -2.37916 0
M  V30 9852 H 948.448 -1.85897 -4.67388 0
M  V30 9853 H 948.148 -3.61452 -4.63278 0
M  V30 9854 H 949.672 -2.98909 -5.32434 0
M  V30 9855 H 951.086 -4.46415 -3.59703 0
M  V30 9856 H 949.483 -5.1121 -3.143 0
M  V30 9857 H 950.553 -4.46765 -1.88491 0
M  V30 9858 N 951.896 0.746133 -1.38819 0
M  V30 9859 C 953.312 1.0502 -1.20179 0
M  V30 9860 C 953.512 2.01423 -0.0556271 0
M  V30 9861 O 952.568 2.45359 0.59625 0
M  V30 9862 C 953.881 1.62315 -2.53129 0
M  V30 9863 C 955.429 1.74449 -2.59878 0
M  V30 9864 C 955.904 2.35155 -3.93022 0
M  V30 9865 N 957.395 2.42577 -3.94602 0
M  V30 9866 C 958.13 2.9046 -4.94389 0
M  V30 9867 N 957.626 3.38322 -6.04574 0
M  V30 9868 N 959.419 2.89568 -4.81775 0
M  V30 9869 H 951.57 0.106551 -2.12133 0
M  V30 9870 H 953.833 0.109897 -0.941609 0
M  V30 9871 H 953.539 0.98946 -3.37495 0
M  V30 9872 H 953.413 2.61276 -2.72057 0
M  V30 9873 H 955.8 2.36943 -1.75903 0
M  V30 9874 H 955.881 0.741721 -2.4481 0
M  V30 9875 H 955.525 1.73292 -4.77422 0
M  V30 9876 H 955.455 3.36088 -4.05404 0
M  V30 9877 H 957.946 2.08735 -3.15021 0
M  V30 9878 H 958.259 3.73336 -6.76639 0
M  V30 9879 H 956.604 3.3636 -6.08184 0
M  V30 9880 H 959.795 2.51492 -3.94803 0
M  V30 9881 H 959.968 3.26571 -5.59692 0
M  V30 9882 N 953.375 1.23811 0.975125 0
M  V30 9883 C 954.325 0.991036 2.05335 0
M  V30 9884 C 955.309 -0.0648793 1.60769 0
M  V30 9885 O 956.501 0.147917 1.76381 0
M  V30 9886 C 953.63 0.589822 3.38195 0
M  V30 9887 C 952.716 1.68142 3.89344 0
M  V30 9888 N 953.107 2.91274 4.13513 0
M  V30 9889 C 951.405 1.55722 4.17931 0
M  V30 9890 C 952.106 3.61987 4.55347 0
M  V30 9891 N 951.082 2.8952 4.60086 0
M  V30 9892 H 954.884 1.92612 2.21986 0
M  V30 9893 H 952.398 1.13827 1.15832 0
M  V30 9894 H 954.395 0.394075 4.15033 0
M  V30 9895 H 953.055 -0.338157 3.22934 0
M  V30 9896 H 954.066 3.27528 4.01181 0
M  V30 9897 H 950.743 0.696732 4.11645 0
M  V30 9898 H 952.133 4.67572 4.8252 0
M  V30 9899 N 954.853 -1.17469 1.05066 0
M  V30 9900 C 956.099 -1.87976 0.761113 0
M  V30 9901 C 956.432 -1.80756 -0.709995 0
M  V30 9902 O 955.707 -1.21469 -1.51906 0
M  V30 9903 C 955.99 -3.38055 1.2406 0
M  V30 9904 C 955.843 -3.54032 2.77455 0
M  V30 9905 C 957.162 -4.32036 0.838612 0
M  V30 9906 H 954.281 -0.682573 0.277963 0
M  V30 9907 H 956.923 -1.38147 1.30443 0
M  V30 9908 H 955.073 -3.80622 0.778388 0
M  V30 9909 H 956.745 -3.20489 3.3179 0
M  V30 9910 H 954.988 -2.96352 3.16793 0
M  V30 9911 H 955.659 -4.59377 3.06066 0
M  V30 9912 H 958.135 -3.97303 1.23651 0
M  V30 9913 H 957.011 -5.35583 1.20173 0
M  V30 9914 H 957.272 -4.41349 -0.257498 0
M  V30 9915 N 956.331 -0.831506 -1.3388 0
M  V30 9916 C 957.278 -0.257449 -2.2936 0
M  V30 9917 C 958.248 0.622604 -1.5399 0
M  V30 9918 O 959.433 0.562432 -1.82322 0
M  V30 9919 C 956.573 0.567587 -3.404 0
M  V30 9920 C 955.686 -0.335666 -4.30694 0
M  V30 9921 C 954.821 0.499762 -5.28844 0
M  V30 9922 C 953.86 -0.402343 -6.10776 0
M  V30 9923 N 952.997 0.39452 -7.00991 0
M  V30 9924 H 957.837 -1.077 -2.77857 0
M  V30 9925 H 955.374 -0.542589 -1.36727 0
M  V30 9926 H 957.332 1.06133 -4.03474 0
M  V30 9927 H 955.962 1.35217 -2.93115 0
M  V30 9928 H 955.014 -0.94768 -3.68406 0
M  V30 9929 H 956.326 -1.02896 -4.88072 0
M  V30 9930 H 955.48 1.05763 -5.9741 0
M  V30 9931 H 954.219 1.22652 -4.72025 0
M  V30 9932 H 953.224 -0.972288 -5.41135 0
M  V30 9933 H 954.449 -1.12735 -6.69677 0
M  V30 9934 H 952.395 1.1048 -6.4663 0
M  V30 9935 H 952.312 -0.240209 -7.55618 0
M  V30 9936 H 953.58 0.934867 -7.73874 0
M  V30 9937 N 957.809 1.4625 -0.587256 0
M  V30 9938 C 958.719 2.34147 0.145744 0
M  V30 9939 C 959.735 1.50026 0.881376 0
M  V30 9940 O 960.911 1.82884 0.843539 0
M  V30 9941 C 957.976 3.27294 1.14366 0
M  V30 9942 C 957.037 4.27317 0.412199 0
M  V30 9943 C 956.27 5.16013 1.36257 0
M  V30 9944 O 956.493 5.0773 2.59934 0
M  V30 9945 O 955.427 5.95569 0.870681 0
M  V30 9946 H 959.253 2.98187 -0.576055 0
M  V30 9947 H 956.838 1.45299 -0.347628 0
M  V30 9948 H 958.72 3.84747 1.71894 0
M  V30 9949 H 957.395 2.65845 1.84684 0
M  V30 9950 H 956.302 3.73538 -0.205036 0
M  V30 9951 H 957.635 4.91564 -0.250104 0
M  V30 9952 N 959.287 0.325282 1.54207 0
M  V30 9953 C 960.217 -0.532574 2.27345 0
M  V30 9954 C 961.198 -1.11791 1.28206 0
M  V30 9955 O 962.383 -1.14272 1.57021 0
M  V30 9956 C 959.513 -1.69274 3.03255 0
M  V30 9957 C 958.467 -1.23662 4.09746 0
M  V30 9958 C 957.793 -2.48386 4.73506 0
M  V30 9959 C 959.093 -0.350244 5.21124 0
M  V30 9960 H 960.787 0.0775108 2.993 0
M  V30 9961 H 958.333 0.0387193 1.43948 0
M  V30 9962 H 960.286 -2.29917 3.53152 0
M  V30 9963 H 959.01 -2.32944 2.28921 0
M  V30 9964 H 957.669 -0.653106 3.60735 0
M  V30 9965 H 957.317 -3.10424 3.95786 0
M  V30 9966 H 957.017 -2.18558 5.45441 0
M  V30 9967 H 958.541 -3.09789 5.26178 0
M  V30 9968 H 959.955 -0.863011 5.66767 0
M  V30 9969 H 958.352 -0.14466 5.99926 0
M  V30 9970 H 959.422 0.618457 4.8094 0
M  V30 9971 N 960.765 -1.57509 0.0534917 0
M  V30 9972 C 961.99 -1.97511 -0.632794 0
M  V30 9973 C 962.415 -0.930947 -1.63447 0
M  V30 9974 O 961.773 0.105558 -1.80992 0
M  V30 9975 C 961.821 -3.3658 -1.29407 0
M  V30 9976 O 960.925 -3.3467 -2.40977 0
M  V30 9977 H 960.266 -0.643349 -0.16431 0
M  V30 9978 H 962.796 -2.04232 0.12258 0
M  V30 9979 H 962.806 -3.73359 -1.64521 0
M  V30 9980 H 961.481 -4.12113 -0.559976 0
M  V30 9981 H 960.058 -3.09639 -2.07793 0
M  V30 9982 N 962.243 0.219913 -1.56058 0
M  V30 9983 C 963.52 0.968493 -1.6994 0
M  V30 9984 C 963.9 2.02358 -0.601219 0
M  V30 9985 O 963.248 2.25121 0.391534 0
M  V30 9986 C 963.458 1.57745 -3.11316 0
M  V30 9987 C 964.806 2.06908 -3.70775 0
M  V30 9988 O 965.83 1.67636 -3.14288 0
M  V30 9989 O 964.689 2.79096 -4.69859 0
M  V30 9990 H 961.783 0.452521 -0.692209 0
M  V30 9991 H 964.329 0.211566 -1.68376 0
M  V30 9992 H 963.101 0.815687 -3.82704 0
M  V30 9993 H 962.724 2.39987 -3.17005 0
M  V30 9994 N 963.721 1.49897 0.486681 0
M  V30 9995 C 964.653 1.63755 1.60365 0
M  V30 9996 C 965.666 0.519614 1.54285 0
M  V30 9997 O 966.855 0.792219 1.59957 0
M  V30 9998 C 963.955 1.59153 2.99205 0
M  V30 9999 C 963.128 2.8672 3.30319 0
M  V30 10000 C 962.187 2.74974 4.48638 0
M  V30 10001 O 961.213 3.48922 4.49714 0
M  V30 10002 N 962.415 1.87479 5.49392 0
M  V30 10003 H 965.18 2.60094 1.48899 0
M  V30 10004 H 962.741 1.47166 0.674825 0
M  V30 10005 H 964.733 1.4893 3.76301 0
M  V30 10006 H 963.303 0.706133 3.0452 0
M  V30 10007 H 962.523 3.11188 2.41983 0
M  V30 10008 H 963.811 3.71262 3.47911 0
M  V30 10009 H 963.209 1.26684 5.51333 0
M  V30 10010 H 961.766 1.83169 6.25534 0
M  V30 10011 N 965.199 -0.738761 1.39212 0
M  V30 10012 C 966.129 -1.86602 1.40364 0
M  V30 10013 C 967.11 -1.67984 0.267495 0
M  V30 10014 O 968.295 -1.88358 0.472765 0
M  V30 10015 C 965.425 -3.24308 1.24265 0
M  V30 10016 C 964.379 -3.57557 2.35239 0
M  V30 10017 C 963.705 -4.94159 2.04233 0
M  V30 10018 C 965.005 -3.60914 3.77543 0
M  V30 10019 H 966.699 -1.85896 2.34698 0
M  V30 10020 H 964.245 -0.892959 1.1297 0
M  V30 10021 H 966.198 -4.02838 1.23692 0
M  V30 10022 H 964.922 -3.25531 0.263974 0
M  V30 10023 H 963.581 -2.81354 2.35022 0
M  V30 10024 H 963.229 -4.91959 1.04813 0
M  V30 10025 H 962.929 -5.17373 2.78567 0
M  V30 10026 H 964.453 -5.7505 2.05303 0
M  V30 10027 H 965.867 -4.29528 3.79709 0
M  V30 10028 H 964.264 -3.95644 4.51205 0
M  V30 10029 H 965.334 -2.60803 4.08791 0
M  V30 10030 N 966.677 -1.24326 -0.968545 0
M  V30 10031 C 967.64 -1.03591 -2.04454 0
M  V30 10032 C 968.64 0.0064809 -1.60799 0
M  V30 10033 O 969.83 -0.234404 -1.72616 0
M  V30 10034 C 966.962 -0.56992 -3.36102 0
M  V30 10035 H 968.155 -1.99092 -2.24282 0
M  V30 10036 H 965.708 -1.06537 -1.14366 0
M  V30 10037 H 966.443 0.388325 -3.21967 0
M  V30 10038 H 966.228 -1.32227 -3.69132 0
M  V30 10039 H 967.718 -0.445854 -4.15213 0
M  V30 10040 N 968.156 1.1691 -1.05688 0
M  V30 10041 C 969.119 2.19297 -0.666433 0
M  V30 10042 C 970.119 1.5826 0.284674 0
M  V30 10043 O 971.309 1.74068 0.0678757 0
M  V30 10044 C 968.441 3.40894 0.0203656 0
M  V30 10045 H 969.634 2.55354 -1.57272 0
M  V30 10046 H 967.187 1.31078 -0.851359 0
M  V30 10047 H 967.922 3.10388 0.939686 0
M  V30 10048 H 967.707 3.86446 -0.663464 0
M  V30 10049 H 969.197 4.16664 0.279475 0
M  V30 10050 N 969.634 0.838594 1.33437 0
M  V30 10051 C 970.859 0.446701 2.02532 0
M  V30 10052 C 971.284 -0.944275 1.62681 0
M  V30 10053 O 970.642 -1.61733 0.81927 0
M  V30 10054 C 970.69 0.574794 3.55989 0
M  V30 10055 O 969.794 -0.399063 4.10465 0
M  V30 10056 H 969.135 0.181637 0.638674 0
M  V30 10057 H 971.665 1.13335 1.70342 0
M  V30 10058 H 971.675 0.456339 4.0544 0
M  V30 10059 H 970.35 1.58921 3.8434 0
M  V30 10060 H 968.927 -0.238187 3.72139 0
M  V30 10061 N 971.112 -1.45937 0.595003 0
M  V30 10062 C 972.06 -2.32155 -0.143798 0
M  V30 10063 C 973.054 -1.45221 -0.872198 0
M  V30 10064 O 974.26 -1.61777 -0.789191 0
M  V30 10065 H 970.635 -0.749165 -0.0652377 0
M  V30 10066 H 972.606 -2.92264 0.602005 0
M  V30 10067 C 971.355 -3.28615 -1.13611 0
M  V30 10068 H 970.678 -3.95496 -0.585044 0
M  V30 10069 H 972.118 -3.91699 -1.62321 0
M  V30 10070 C 970.577 -2.54863 -2.20333 0
M  V30 10071 O 971.107 -2.32071 -3.27881 0
M  V30 10072 N 969.313 -2.15213 -1.95274 0
M  V30 10073 H 968.86 -2.33949 -1.07822 0
M  V30 10074 H 968.818 -1.66188 -2.66888 0
M  V30 10075 N 972.59 -0.333456 -1.54032 0
M  V30 10076 C 973.5 0.536674 -2.28379 0
M  V30 10077 C 974.516 1.12068 -1.33104 0
M  V30 10078 O 975.692 1.13853 -1.66131 0
M  V30 10079 C 972.757 1.67677 -3.03456 0
M  V30 10080 C 971.818 1.12357 -4.14336 0
M  V30 10081 C 971.051 2.20933 -4.85823 0
M  V30 10082 O 971.274 3.41466 -4.569 0
M  V30 10083 O 970.208 1.85795 -5.72507 0
M  V30 10084 H 974.034 -0.0674003 -3.03625 0
M  V30 10085 H 971.619 -0.098823 -1.49073 0
M  V30 10086 H 973.501 2.34032 -3.50438 0
M  V30 10087 H 972.176 2.26684 -2.31076 0
M  V30 10088 H 971.083 0.424827 -3.7168 0
M  V30 10089 H 972.416 0.578497 -4.88789 0
M  V30 10090 N 974.068 1.57479 -0.061844 0
M  V30 10091 C 975.031 2.1104 0.894127 0
M  V30 10092 C 976.031 1.03227 1.23292 0
M  V30 10093 O 977.221 1.29256 1.16784 0
M  V30 10094 C 974.353 2.6035 2.20069 0
M  V30 10095 H 975.546 2.96807 0.429619 0
M  V30 10096 H 973.099 1.55181 0.18672 0
M  V30 10097 H 973.834 1.78008 2.71079 0
M  V30 10098 H 973.619 3.39146 1.9678 0
M  V30 10099 H 975.109 3.019 2.88525 0
M  V30 10100 N 975.546 -0.211634 1.56173 0
M  V30 10101 C 976.493 -1.26231 1.93221 0
M  V30 10102 C 977.463 -1.46076 0.790641 0
M  V30 10103 O 978.648 -1.59482 1.04739 0
M  V30 10104 C 975.788 -2.60559 2.26281 0
M  V30 10105 C 974.901 -2.48431 3.5342 0
M  V30 10106 C 974.036 -3.7535 3.7588 0
M  V30 10107 C 973.075 -3.57985 4.96501 0
M  V30 10108 N 972.212 -4.76877 5.15299 0
M  V30 10109 H 977.052 -0.939367 2.82807 0
M  V30 10110 H 974.589 -0.452511 1.39967 0
M  V30 10111 H 976.547 -3.38796 2.43461 0
M  V30 10112 H 975.177 -2.9093 1.39855 0
M  V30 10113 H 974.229 -1.61577 3.44379 0
M  V30 10114 H 975.541 -2.31526 4.41811 0
M  V30 10115 H 974.695 -4.62029 3.9321 0
M  V30 10116 H 973.434 -3.95191 2.85788 0
M  V30 10117 H 972.439 -2.69691 4.79111 0
M  V30 10118 H 973.664 -3.39605 5.88086 0
M  V30 10119 H 971.61 -4.97013 4.28152 0
M  V30 10120 H 971.527 -4.62735 5.9784 0
M  V30 10121 H 972.795 -5.64954 5.37073 0
M  V30 10122 N 977.024 -1.50153 -0.478725 0
M  V30 10123 C 978.249 -1.64776 -1.2595 0
M  V30 10124 C 978.674 -0.327794 -1.85222 0
M  V30 10125 O 978.032 0.707418 -1.66929 0
M  V30 10126 C 978.08 -2.73551 -2.34952 0
M  V30 10127 O 977.184 -2.34273 -3.39397 0
M  V30 10128 H 976.525 -0.550769 -0.370877 0
M  V30 10129 H 979.055 -1.96482 -0.570605 0
M  V30 10130 H 979.065 -2.96397 -2.8038 0
M  V30 10131 H 977.74 -3.69354 -1.91181 0
M  V30 10132 H 976.317 -2.21844 -2.99733 0
M  V30 10133 N 978.502 0.731368 -1.39602 0
M  V30 10134 C 979.918 1.03739 -1.21286 0
M  V30 10135 C 980.118 2.01353 -0.0769875 0
M  V30 10136 O 979.174 2.45978 0.570193 0
M  V30 10137 C 980.487 1.59621 -2.54837 0
M  V30 10138 C 982.035 1.71683 -2.61713 0
M  V30 10139 C 982.51 2.30973 -3.95494 0
M  V30 10140 N 984.001 2.38378 -3.97153 0
M  V30 10141 C 984.736 2.852 -4.97442 0
M  V30 10142 N 984.232 3.31891 -6.08129 0
M  V30 10143 N 986.025 2.84441 -4.84819 0
M  V30 10144 H 978.176 0.0840456 -2.12234 0
M  V30 10145 H 980.439 0.0999038 -0.942721 0
M  V30 10146 H 980.145 0.953608 -3.38525 0
M  V30 10147 H 980.019 2.58375 -2.74813 0
M  V30 10148 H 982.406 2.35064 -1.78406 0
M  V30 10149 H 982.487 0.715714 -2.45583 0
M  V30 10150 H 982.131 1.68219 -4.79234 0
M  V30 10151 H 982.061 3.31769 -4.08946 0
M  V30 10152 H 984.552 2.05382 -3.17217 0
M  V30 10153 H 984.865 3.66138 -6.8056 0
M  V30 10154 H 983.21 3.2989 -6.11717 0
M  V30 10155 H 986.401 2.4729 -3.97448 0
M  V30 10156 H 986.574 3.20616 -5.63124 0
M  V30 10157 N 979.98 1.24838 0.961938 0
M  V30 10158 C 981.227 1.09151 1.70564 0
M  V30 10159 C 981.555 -0.368719 1.90973 0
M  V30 10160 O 980.81 -1.28854 1.47293 0
M  V30 10161 C 981.109 1.78289 3.09754 0
M  V30 10162 C 980.775 3.28216 3.09169 0
M  V30 10163 C 979.437 3.69118 3.08716 0
M  V30 10164 C 981.789 4.24035 3.03058 0
M  V30 10165 C 979.117 5.04263 2.99892 0
M  V30 10166 C 981.469 5.59195 2.95776 0
M  V30 10167 C 980.133 5.99436 2.93655 0
M  V30 10168 H 979.403 0.399414 0.624139 0
M  V30 10169 H 982.05 1.55016 1.12438 0
M  V30 10170 H 980.355 1.24835 3.7138 0
M  V30 10171 H 982.052 1.63612 3.66104 0
M  V30 10172 H 978.642 2.95667 3.10289 0
M  V30 10173 H 982.826 3.93431 3.02532 0
M  V30 10174 H 978.082 5.3463 2.96615 0
M  V30 10175 H 982.256 6.33142 2.90007 0
M  V30 10176 H 979.883 7.04116 2.86573 0
M  V30 10177 N 981.458 -1.16348 1.06306 0
M  V30 10178 C 982.388 -2.2291 0.695234 0
M  V30 10179 C 983.369 -1.67208 -0.312343 0
M  V30 10180 O 984.554 -1.93293 -0.187442 0
M  V30 10181 C 981.684 -3.47205 0.0810149 0
M  V30 10182 C 980.638 -4.15801 1.01458 0
M  V30 10183 C 979.964 -5.3405 0.263656 0
M  V30 10184 C 981.264 -4.66766 2.34365 0
M  V30 10185 H 982.958 -2.53934 1.58613 0
M  V30 10186 H 980.504 -1.22056 0.76409 0
M  V30 10187 H 982.457 -4.2098 -0.18818 0
M  V30 10188 H 981.181 -3.15482 -0.844897 0
M  V30 10189 H 979.84 -3.43954 1.26852 0
M  V30 10190 H 979.488 -4.9858 -0.665378 0
M  V30 10191 H 979.188 -5.80885 0.88582 0
M  V30 10192 H 980.712 -6.106 0.00200994 0
M  V30 10193 H 982.126 -5.3212 2.13356 0
M  V30 10194 H 980.523 -5.24223 2.9208 0
M  V30 10195 H 981.593 -3.82969 2.97426 0
M  V30 10196 N 982.937 -0.845659 -1.3299 0
M  V30 10197 C 983.9 -0.288905 -2.27372 0
M  V30 10198 C 984.9 0.546263 -1.51237 0
M  V30 10199 O 986.09 0.359072 -1.70459 0
M  V30 10200 C 983.222 0.59224 -3.35716 0
M  V30 10201 H 984.415 -1.12181 -2.78128 0
M  V30 10202 H 981.968 -0.619276 -1.43508 0
M  V30 10203 H 982.703 1.44732 -2.90212 0
M  V30 10204 H 982.488 -0.00543255 -3.921 0
M  V30 10205 H 983.978 0.974848 -4.06062 0
M  V30 10206 N 984.415 1.45619 -0.602734 0
M  V30 10207 C 985.363 2.32228 0.131484 0
M  V30 10208 C 986.357 1.45681 0.864484 0
M  V30 10209 O 987.563 1.62193 0.7806 0
M  V30 10210 H 983.938 0.7495 0.0612638 0
M  V30 10211 H 985.909 2.91941 -0.617496 0
M  V30 10212 C 984.658 3.29213 1.11866 0
M  V30 10213 H 983.981 3.95801 0.564061 0
M  V30 10214 H 985.421 3.92554 1.60242 0
M  V30 10215 C 983.88 2.56028 2.18978 0
M  V30 10216 O 984.41 2.33806 3.26646 0
M  V30 10217 N 982.616 2.16245 1.94129 0
M  V30 10218 H 982.163 2.34518 1.06579 0
M  V30 10219 H 982.121 1.67601 2.66003 0
M  V30 10220 N 985.893 0.34162 1.53853 0
M  V30 10221 C 986.826 -0.559051 2.21246 0
M  V30 10222 C 987.804 -1.10179 1.1958 0
M  V30 10223 O 988.988 -1.16242 1.48392 0
M  V30 10224 C 986.115 -1.7689 2.88838 0
M  V30 10225 C 985.161 -1.3558 4.04377 0
M  V30 10226 S 985.994 -0.377225 5.3417 0
M  V30 10227 C 987.15 -1.59395 6.05264 0
M  V30 10228 H 987.383 0.013373 2.97297 0
M  V30 10229 H 984.916 0.125694 1.53888 0
M  V30 10230 H 986.874 -2.463 3.284 0
M  V30 10231 H 985.535 -2.31254 2.12557 0
M  V30 10232 H 984.728 -2.25781 4.50599 0
M  V30 10233 H 984.33 -0.741197 3.66582 0
M  V30 10234 H 986.622 -2.52872 6.2854 0
M  V30 10235 H 987.565 -1.17356 6.98307 0
M  V30 10236 H 987.973 -1.78913 5.35397 0
M  V30 10237 N 987.371 -1.57444 0.0701946 0
M  V30 10238 C 988.596 -1.98171 -0.61181 0
M  V30 10239 C 989.021 -0.94823 -1.62451 0
M  V30 10240 O 988.379 0.0863553 -1.81094 0
M  V30 10241 C 988.427 -3.37934 -1.2583 0
M  V30 10242 O 987.531 -3.37207 -2.37414 0
M  V30 10243 H 986.872 -0.645056 -0.157477 0
M  V30 10244 H 989.402 -2.04091 0.144235 0
M  V30 10245 H 989.412 -3.75083 -1.60552 0
M  V30 10246 H 988.087 -4.12684 -0.516234 0
M  V30 10247 H 986.664 -3.11826 -2.04497 0
M  V30 10248 N 988.849 0.203349 -1.56283 0
M  V30 10249 C 989.799 1.25595 -1.90289 0
M  V30 10250 C 990.783 1.41403 -0.767732 0
M  V30 10251 O 991.975 1.43912 -1.03046 0
M  V30 10252 C 989.104 2.60255 -2.23881 0
M  V30 10253 C 988.19 2.48274 -3.43833 0
M  V30 10254 N 988.581 2.05963 -4.61966 0
M  V30 10255 C 986.879 2.79188 -3.47808 0
M  V30 10256 C 987.58 2.05674 -5.44126 0
M  V30 10257 N 986.556 2.46862 -4.84314 0
M  V30 10258 H 990.358 0.920016 -2.79129 0
M  V30 10259 H 987.872 0.411829 -1.57091 0
M  V30 10260 H 989.869 3.36274 -2.46425 0
M  V30 10261 H 988.529 2.94678 -1.36363 0
M  V30 10262 H 989.54 1.76803 -4.86787 0
M  V30 10263 H 986.217 3.17863 -2.70684 0
M  V30 10264 H 987.607 1.74932 -6.48728 0
M  V30 10265 N 990.327 1.50405 0.470755 0
M  V30 10266 C 991.237 1.7208 1.59454 0
M  V30 10267 C 992.253 0.603932 1.63183 0
M  V30 10268 O 993.429 0.882296 1.81046 0
M  V30 10269 C 990.494 1.81057 2.95667 0
M  V30 10270 C 989.555 3.04792 3.02324 0
M  V30 10271 C 988.788 3.13332 4.3204 0
M  V30 10272 O 989.011 2.28655 5.22564 0
M  V30 10273 O 987.945 4.0606 4.44296 0
M  V30 10274 H 991.771 2.67343 1.44089 0
M  V30 10275 H 989.356 1.34505 0.650286 0
M  V30 10276 H 991.238 1.8914 3.76569 0
M  V30 10277 H 989.913 0.889782 3.11231 0
M  V30 10278 H 988.82 3.0221 2.205 0
M  V30 10279 H 990.153 3.96451 2.91698 0
M  V30 10280 N 991.805 -0.723954 1.39988 0
M  V30 10281 C 992.735 -1.85103 1.42335 0
M  V30 10282 C 993.716 -1.6769 0.285297 0
M  V30 10283 O 994.901 -1.87846 0.492716 0
M  V30 10284 C 992.031 -3.22972 1.27697 0
M  V30 10285 C 990.985 -3.55041 2.39018 0
M  V30 10286 C 990.311 -4.91965 2.09462 0
M  V30 10287 C 991.611 -3.56889 3.8135 0
M  V30 10288 H 993.305 -1.83396 2.36656 0
M  V30 10289 H 990.851 -0.880926 1.13911 0
M  V30 10290 H 992.804 -4.01503 1.27958 0
M  V30 10291 H 991.528 -3.25233 0.298487 0
M  V30 10292 H 990.187 -2.78845 2.37993 0
M  V30 10293 H 989.835 -4.90819 1.10025 0
M  V30 10294 H 989.535 -5.14389 2.84038 0
M  V30 10295 H 991.059 -5.7284 2.11391 0
M  V30 10296 H 992.473 -4.25476 3.84243 0
M  V30 10297 H 990.87 -3.90836 4.55376 0
M  V30 10298 H 991.94 -2.56452 4.11534 0
M  V30 10299 N 993.283 -1.25346 -0.955304 0
M  V30 10300 C 994.699 -1.02154 -1.22625 0
M  V30 10301 C 994.899 0.26206 -1.99789 0
M  V30 10302 O 993.955 0.974958 -2.32918 0
M  V30 10303 C 995.268 -2.2443 -2.00129 0
M  V30 10304 C 996.816 -2.29185 -2.13174 0
M  V30 10305 C 997.291 -3.51117 -2.94077 0
M  V30 10306 N 998.782 -3.51509 -3.01655 0
M  V30 10307 C 999.517 -4.42517 -3.64645 0
M  V30 10308 N 999.013 -5.43796 -4.29252 0
M  V30 10309 N 1000.81 -4.302 -3.61779 0
M  V30 10310 H 992.957 -2.07812 -0.439071 0
M  V30 10311 H 995.22 -0.91258 -0.256715 0
M  V30 10312 H 994.926 -3.17717 -1.50827 0
M  V30 10313 H 994.8 -2.27548 -3.00835 0
M  V30 10314 H 997.187 -1.36422 -2.61674 0
M  V30 10315 H 997.268 -2.30087 -1.11775 0
M  V30 10316 H 996.912 -4.44201 -2.46268 0
M  V30 10317 H 996.842 -3.4746 -3.95701 0
M  V30 10318 H 999.333 -2.78245 -2.55711 0
M  V30 10319 H 999.646 -6.09453 -4.75171 0
M  V30 10320 H 997.991 -5.4767 -4.27882 0
M  V30 10321 H 1001.18 -3.50304 -3.10491 0
M  V30 10322 H 1001.36 -5.01323 -4.10584 0
M  V30 10323 N 994.761 1.15782 -1.06922 0
M  V30 10324 C 995.989 1.90355 -0.81072 0
M  V30 10325 C 996.404 1.77779 0.635614 0
M  V30 10326 O 995.761 1.12675 1.43564 0
M  V30 10327 C 995.812 3.4085 -1.2043 0
M  V30 10328 O 995.533 3.53057 -2.59388 0
M  V30 10329 C 997.034 4.32457 -0.974473 0
M  V30 10330 H 994.254 0.60343 -0.293451 0
M  V30 10331 H 996.798 1.46723 -1.42452 0
M  V30 10332 H 994.953 3.82162 -0.634909 0
M  V30 10333 H 995.367 4.46426 -2.75326 0
M  V30 10334 H 996.841 5.36488 -1.29942 0
M  V30 10335 H 997.318 4.39109 0.0894481 0
M  V30 10336 H 997.924 3.96882 -1.52856 0
M  V30 10337 N 996.239 0.8527 1.3254 0
M  V30 10338 C 997.65 0.510012 1.79599 0
M  V30 10339 C 998.001 -0.972002 1.70431 0
M  V30 10340 O 997.126 -1.7581 1.26173 0
M  V30 10341 C 997.721 0.918986 3.26098 0
M  V30 10342 C 996.28 0.628227 3.7112 0
M  V30 10343 C 995.427 1.11979 2.53685 0
M  V30 10344 H 998.378 1.04009 1.19866 0
M  V30 10345 H 998.399 0.234577 3.79776 0
M  V30 10346 H 997.911 1.99765 3.32739 0
M  V30 10347 H 996.012 -0.4398 3.69995 0
M  V30 10348 H 996.125 1.19315 4.64005 0
M  V30 10349 H 994.489 0.540133 2.48907 0
M  V30 10350 H 995.272 2.20552 2.63081 0
M  V30 10351 N 997.718 -1.45297 0.610449 0
M  V30 10352 C 998.648 -2.33311 -0.0939698 0
M  V30 10353 C 999.629 -1.46999 -0.85588 0
M  V30 10354 O 1000.81 -1.75764 -0.825865 0
M  V30 10355 C 997.944 -3.29751 -1.09003 0
M  V30 10356 C 996.898 -4.2572 -0.441146 0
M  V30 10357 C 996.224 -5.11873 -1.54566 0
M  V30 10358 C 997.524 -5.1837 0.639489 0
M  V30 10359 H 999.218 -2.92459 0.640941 0
M  V30 10360 H 996.764 -1.40631 0.309675 0
M  V30 10361 H 998.717 -3.90195 -1.59141 0
M  V30 10362 H 997.441 -2.68768 -1.85557 0
M  V30 10363 H 996.1 -3.66579 0.0393908 0
M  V30 10364 H 995.748 -4.47256 -2.30155 0
M  V30 10365 H 995.448 -5.76886 -1.11698 0
M  V30 10366 H 996.972 -5.75185 -2.04925 0
M  V30 10367 H 998.386 -5.7287 0.22207 0
M  V30 10368 H 996.783 -5.91876 0.990089 0
M  V30 10369 H 997.853 -4.60627 1.51495 0
M  V30 10370 N 999.196 -0.349774 -1.5367 0
M  V30 10371 C 1000.14 0.519396 -2.26727 0
M  V30 10372 C 1001.14 1.09673 -1.29105 0
M  V30 10373 O 1002.34 1.04176 -1.46791 0
M  V30 10374 H 998.719 0.186192 -0.728585 0
M  V30 10375 H 1000.69 -0.118736 -2.98164 0
M  V30 10376 C 999.439 1.65535 -3.05767 0
M  V30 10377 H 998.762 1.22038 -3.80719 0
M  V30 10378 H 1000.2 2.23856 -3.6009 0
M  V30 10379 C 998.661 2.58844 -2.15642 0
M  V30 10380 O 999.191 3.61254 -1.75665 0
M  V30 10381 N 997.397 2.27671 -1.80595 0
M  V30 10382 H 996.944 1.44429 -2.13302 0
M  V30 10383 H 996.902 2.90359 -1.20577 0
M  V30 10384 N 1000.67 1.57404 -0.0785433 0
M  V30 10385 C 1001.64 2.11977 0.871693 0
M  V30 10386 C 1002.64 1.04529 1.2219 0
M  V30 10387 O 1003.83 1.30488 1.15406 0
M  V30 10388 C 1000.96 2.6267 2.17296 0
M  V30 10389 H 1002.15 2.97246 0.398115 0
M  V30 10390 H 999.705 1.5537 0.170251 0
M  V30 10391 H 1000.44 1.80873 2.69175 0
M  V30 10392 H 1000.22 3.41214 1.93171 0
M  V30 10393 H 1001.71 3.04943 2.85306 0
M  V30 10394 N 1002.15 -0.195058 1.56388 0
M  V30 10395 C 1003.4 -0.913626 1.79821 0
M  V30 10396 C 1003.71 -1.84422 0.651767 0
M  V30 10397 O 1004.92 -2.6034 0.770402 0
M  V30 10398 C 1003.38 -1.67497 3.18548 0
M  V30 10399 C 1002.98 -0.789205 4.40994 0
M  V30 10400 C 1004.73 -2.38318 3.5129 0
M  V30 10401 C 1002.63 -1.54942 5.70742 0
M  V30 10402 H 1001.56 -0.344891 0.670497 0
M  V30 10403 H 1004.22 -0.166912 1.82739 0
M  V30 10404 H 1002.6 -2.46557 3.0988 0
M  V30 10405 H 1003.77 -0.0372595 4.60785 0
M  V30 10406 H 1002.09 -0.191834 4.15958 0
M  V30 10407 H 1004.68 -2.95745 4.45465 0
M  V30 10408 H 1005.03 -3.12507 2.75037 0
M  V30 10409 H 1005.56 -1.66224 3.61406 0
M  V30 10410 H 1002.3 -0.85031 6.49962 0
M  V30 10411 H 1001.82 -2.2753 5.54969 0
M  V30 10412 H 1003.5 -2.1032 6.11861 0
M  V30 10413 N 1003.63 -1.50653 -0.462772 0
M  V30 10414 C 1004.88 -1.61296 -1.21105 0
M  V30 10415 C 1005.19 -0.322757 -1.92919 0
M  V30 10416 O 1006.4 -0.308211 -2.69745 0
M  V30 10417 C 1004.85 -2.84752 -2.201 0
M  V30 10418 C 1004.46 -4.20681 -1.54051 0
M  V30 10419 C 1006.21 -3.04744 -2.95518 0
M  V30 10420 C 1004.11 -5.35314 -2.51381 0
M  V30 10421 H 1003.04 -0.60069 -0.455728 0
M  V30 10422 H 1005.69 -1.77093 -0.480656 0
M  V30 10423 H 1004.08 -2.62532 -2.96467 0
M  V30 10424 H 1005.25 -4.53187 -0.834168 0
M  V30 10425 H 1003.56 -4.06361 -0.908828 0
M  V30 10426 H 1006.16 -3.87559 -3.68378 0
M  V30 10427 H 1006.5 -2.16802 -3.55391 0
M  V30 10428 H 1007.04 -3.27185 -2.26263 0
M  V30 10429 H 1003.78 -6.25437 -1.96235 0
M  V30 10430 H 1003.3 -5.07216 -3.20144 0
M  V30 10431 H 1004.98 -5.66229 -3.1304 0
M  V30 10432 N 1005.11 0.71652 -1.4037 0
M  V30 10433 C 1006.36 1.47347 -1.38324 0
M  V30 10434 C 1006.68 1.94995 0.0139949 0
M  V30 10435 O 1005.95 1.7028 0.968585 0
M  V30 10436 H 1004.53 0.546662 -0.509087 0
M  V30 10437 H 1007.19 0.849455 -1.75415 0
M  V30 10438 H 1006.29 2.34675 -2.05752 0
M  V30 10439 N 1006.59 1.25851 0.948643 0
M  V30 10440 C 1007.83 1.10954 1.69397 0
M  V30 10441 C 1008.16 -0.348443 1.91353 0
M  V30 10442 O 1007.42 -1.27285 1.48651 0
M  V30 10443 C 1007.72 1.81565 3.07846 0
M  V30 10444 C 1007.38 3.31477 3.0567 0
M  V30 10445 C 1006.04 3.72371 3.04784 0
M  V30 10446 C 1008.4 4.27225 2.98543 0
M  V30 10447 C 1005.72 5.07416 2.94527 0
M  V30 10448 C 1008.08 5.62301 2.89828 0
M  V30 10449 C 1006.74 6.02516 2.87281 0
M  V30 10450 H 1006.01 0.406011 0.619868 0
M  V30 10451 H 1008.66 1.562 1.10787 0
M  V30 10452 H 1006.96 1.28767 3.70035 0
M  V30 10453 H 1008.66 1.67486 3.64348 0
M  V30 10454 H 1005.25 2.98941 3.07135 0
M  V30 10455 H 1009.43 3.96618 2.98342 0
M  V30 10456 H 1004.69 5.37746 2.90928 0
M  V30 10457 H 1008.86 6.36182 2.83276 0
M  V30 10458 H 1006.49 7.07116 2.79089 0
M  V30 10459 N 1008.06 -1.15214 1.07534 0
M  V30 10460 C 1009.29 -1.90463 0.820883 0
M  V30 10461 C 1009.71 -1.77578 -0.620305 0
M  V30 10462 O 1009.07 -1.10976 -1.43366 0
M  V30 10463 C 1009.12 -3.38746 1.23627 0
M  V30 10464 O 1008.22 -4.1062 0.382715 0
M  V30 10465 H 1007.57 -0.59292 0.298901 0
M  V30 10466 H 1010.1 -1.45893 1.43445 0
M  V30 10467 H 1010.11 -3.89543 1.21327 0
M  V30 10468 H 1008.78 -3.47443 2.28596 0
M  V30 10469 H 1007.36 -3.69947 0.468374 0
M  V30 10470 N 1009.54 -0.859717 -1.32086 0
M  V30 10471 C 1010.82 -0.386665 -1.9174 0
M  V30 10472 C 1011.2 1.13028 -1.78292 0
M  V30 10473 O 1010.55 1.95422 -1.18417 0
M  V30 10474 C 1010.76 -0.856648 -3.38323 0
M  V30 10475 C 1012.11 -0.87678 -4.15449 0
M  V30 10476 O 1013.13 -0.80162 -3.47063 0
M  V30 10477 O 1011.99 -0.98373 -5.37573 0
M  V30 10478 H 1009.08 -0.113758 -0.819139 0
M  V30 10479 H 1011.63 -0.946952 -1.40822 0
M  V30 10480 H 1010.4 -1.89996 -3.42078 0
M  V30 10481 H 1010.02 -0.274095 -3.96654 0
M  V30 10482 N 1011.02 1.44971 -0.618145 0
M  V30 10483 C 1011.95 2.33357 0.0815955 0
M  V30 10484 C 1012.93 1.47451 0.848072 0
M  V30 10485 O 1014.12 1.762 0.816532 0
M  V30 10486 C 1011.25 3.30324 1.07253 0
M  V30 10487 C 1010.2 4.25948 0.418563 0
M  V30 10488 C 1009.53 5.12685 1.51849 0
M  V30 10489 C 1010.83 5.18024 -0.66697 0
M  V30 10490 H 1012.52 2.92115 -0.656442 0
M  V30 10491 H 1010.07 1.40465 -0.317129 0
M  V30 10492 H 1012.02 3.91033 1.57069 0
M  V30 10493 H 1010.74 2.69748 1.8413 0
M  V30 10494 H 1009.4 3.66553 -0.0588308 0
M  V30 10495 H 1009.05 4.4847 2.2778 0
M  V30 10496 H 1008.75 5.7747 1.08637 0
M  V30 10497 H 1010.27 5.76264 2.01871 0
M  V30 10498 H 1011.69 5.72744 -0.252448 0
M  V30 10499 H 1010.09 5.91343 -1.02146 0
M  V30 10500 H 1011.16 4.59817 -1.53936 0
M  V30 10501 N 1012.5 0.357919 1.53482 0
M  V30 10502 C 1013.43 -0.535553 2.21827 0
M  V30 10503 C 1014.41 -1.08904 1.20742 0
M  V30 10504 O 1015.59 -1.14661 1.49616 0
M  V30 10505 C 1012.72 -1.73817 2.90698 0
M  V30 10506 C 1011.77 -1.31283 4.05792 0
M  V30 10507 S 1012.6 -0.320548 5.3454 0
M  V30 10508 C 1013.76 -1.52967 6.0692 0
M  V30 10509 H 1013.99 0.0449045 2.97266 0
M  V30 10510 H 1011.52 0.142009 1.53746 0
M  V30 10511 H 1013.48 -2.42803 3.30994 0
M  V30 10512 H 1012.14 -2.28987 2.14998 0
M  V30 10513 H 1011.33 -2.20989 4.52968 0
M  V30 10514 H 1010.94 -0.702275 3.67347 0
M  V30 10515 H 1013.23 -2.46191 6.31186 0
M  V30 10516 H 1014.17 -1.09943 6.99513 0
M  V30 10517 H 1014.58 -1.73224 5.37265 0
M  V30 10518 N 1013.98 -1.5736 0.0868897 0
M  V30 10519 C 1014.91 -2.09211 -0.911382 0
M  V30 10520 C 1015.89 -1.00072 -1.28157 0
M  V30 10521 O 1017.07 -1.27514 -1.38825 0
M  V30 10522 C 1014.2 -2.56229 -2.21504 0
M  V30 10523 C 1013.24 -3.76948 -1.99531 0
M  V30 10524 S 1014.08 -5.20926 -1.24083 0
M  V30 10525 C 1015.23 -5.71288 -2.55697 0
M  V30 10526 H 1015.47 -2.93557 -0.470245 0
M  V30 10527 H 1013 -1.53883 -0.126218 0
M  V30 10528 H 1014.96 -2.83978 -2.96424 0
M  V30 10529 H 1013.62 -1.72123 -2.6274 0
M  V30 10530 H 1012.81 -4.07887 -2.96048 0
M  V30 10531 H 1012.41 -3.4965 -1.32744 0
M  V30 10532 H 1014.71 -5.79054 -3.51714 0
M  V30 10533 H 1015.65 -6.6993 -2.29347 0
M  V30 10534 H 1016.06 -4.99178 -2.63594 0
M  V30 10535 N 1015.45 0.186762 -1.56489 0
M  V30 10536 C 1016.68 0.925916 -1.85584 0
M  V30 10537 C 1017.1 1.75708 -0.671446 0
M  V30 10538 O 1016.46 1.7728 0.379687 0
M  V30 10539 C 1016.51 1.79107 -3.12975 0
M  V30 10540 O 1015.61 2.89088 -2.94112 0
M  V30 10541 H 1014.96 0.260275 -0.610863 0
M  V30 10542 H 1017.49 0.189561 -2.0372 0
M  V30 10543 H 1017.5 2.19408 -3.43983 0
M  V30 10544 H 1016.17 1.18044 -3.98796 0
M  V30 10545 H 1014.75 2.52482 -2.74422 0
M  V30 10546 N 1016.93 1.50896 0.454776 0
M  V30 10547 C 1018.18 1.62378 1.20324 0
M  V30 10548 C 1018.5 0.333883 1.9212 0
M  V30 10549 O 1017.77 -0.649477 1.8482 0
M  V30 10550 H 1016.35 0.598395 0.447139 0
M  V30 10551 H 1019.01 1.87749 0.523102 0
M  V30 10552 H 1018.11 2.44296 1.94232 0
M  V30 10553 N 1018.41 -0.709066 1.40748 0
M  V30 10554 C 1019.34 -1.83293 1.35937 0
M  V30 10555 C 1020.32 -1.60983 0.22871 0
M  V30 10556 O 1021.51 -1.8391 0.413435 0
M  V30 10557 C 1018.63 -3.19746 1.11714 0
M  V30 10558 C 1017.68 -3.60872 2.27319 0
M  V30 10559 S 1018.51 -3.67233 3.89743 0
M  V30 10560 C 1019.67 -5.06434 3.67797 0
M  V30 10561 H 1019.9 -1.87095 2.31047 0
M  V30 10562 H 1017.43 -0.876479 1.27111 0
M  V30 10563 H 1019.39 -3.98526 0.984245 0
M  V30 10564 H 1018.05 -3.1357 0.182472 0
M  V30 10565 H 1017.25 -4.59965 2.06029 0
M  V30 10566 H 1016.85 -2.89366 2.36946 0
M  V30 10567 H 1019.14 -5.93544 3.26668 0
M  V30 10568 H 1020.08 -5.32761 4.66445 0
M  V30 10569 H 1020.49 -4.77336 3.01348 0
M  V30 10570 N 1019.89 -1.26353 -0.941956 0
M  V30 10571 C 1020.85 -1.07904 -2.02211 0
M  V30 10572 C 1021.85 -0.0276283 -1.60776 0
M  V30 10573 O 1023.04 -0.270965 -1.7208 0
M  V30 10574 C 1020.17 -0.641084 -3.34818 0
M  V30 10575 H 1021.37 -2.03804 -2.20009 0
M  V30 10576 H 1018.92 -1.08939 -1.12081 0
M  V30 10577 H 1019.66 0.319943 -3.22718 0
M  V30 10578 H 1019.44 -1.40027 -3.66244 0
M  V30 10579 H 1020.93 -0.533826 -4.14174 0
M  V30 10580 N 1021.37 1.14642 -1.08144 0
M  V30 10581 C 1022.62 1.8525 -0.807885 0
M  V30 10582 C 1022.94 1.83194 0.668213 0
M  V30 10583 O 1022.21 1.27848 1.48431 0
M  V30 10584 H 1020.79 0.685909 -0.295868 0
M  V30 10585 H 1023.45 1.38935 -1.36686 0
M  V30 10586 H 1022.54 2.90155 -1.14964 0
M  V30 10587 N 1022.85 0.866709 1.31628 0
M  V30 10588 C 1024.07 0.49039 2.01004 0
M  V30 10589 C 1024.49 -0.916244 1.65077 0
M  V30 10590 O 1023.85 -1.59975 0.8783 0
M  V30 10591 C 1023.9 0.634011 3.55897 0
M  V30 10592 O 1023.62 1.98525 3.90537 0
M  V30 10593 C 1025.12 0.258277 4.42547 0
M  V30 10594 H 1022.34 0.191421 0.643117 0
M  V30 10595 H 1024.88 1.16698 1.67934 0
M  V30 10596 H 1023.04 0.00501801 3.874 0
M  V30 10597 H 1023.45 1.99067 4.85255 0
M  V30 10598 H 1024.93 0.409733 5.50477 0
M  V30 10599 H 1025.4 -0.802301 4.3181 0
M  V30 10600 H 1026.01 0.862837 4.16456 0
M  V30 10601 N 1024.32 -1.44642 0.625825 0
M  V30 10602 C 1025.25 -2.33397 -0.0692188 0
M  V30 10603 C 1026.23 -1.47898 -0.840241 0
M  V30 10604 O 1027.42 -1.7663 -0.807176 0
M  V30 10605 C 1024.55 -3.30888 -1.055 0
M  V30 10606 C 1023.5 -4.26164 -0.395968 0
M  V30 10607 C 1022.83 -5.13483 -1.49128 0
M  V30 10608 C 1024.13 -5.17663 0.694433 0
M  V30 10609 H 1025.82 -2.91763 0.671925 0
M  V30 10610 H 1023.37 -1.40294 0.324573 0
M  V30 10611 H 1025.32 -3.91861 -1.54993 0
M  V30 10612 H 1024.05 -2.7072 -1.82696 0
M  V30 10613 H 1022.71 -3.66516 0.0782691 0
M  V30 10614 H 1022.35 -4.49672 -2.25399 0
M  V30 10615 H 1022.05 -5.78038 -1.05573 0
M  V30 10616 H 1023.58 -5.77327 -1.98813 0
M  V30 10617 H 1024.99 -5.72602 0.282818 0
M  V30 10618 H 1023.39 -5.90793 1.05281 0
M  V30 10619 H 1024.46 -4.58994 1.56372 0
M  V30 10620 N 1025.8 -0.366053 -1.5329 0
M  V30 10621 C 1027.21 0.113056 -1.86357 0
M  V30 10622 C 1027.56 1.48123 -1.28662 0
M  V30 10623 O 1026.69 2.07658 -0.608849 0
M  V30 10624 C 1027.28 0.211923 -3.38137 0
M  V30 10625 C 1025.84 0.635289 -3.71 0
M  V30 10626 C 1024.99 -0.217203 -2.76448 0
M  V30 10627 H 1027.94 -0.584829 -1.47531 0
M  V30 10628 H 1027.96 1.0354 -3.66142 0
M  V30 10629 H 1027.47 -0.783994 -3.80099 0
M  V30 10630 H 1025.57 1.63942 -3.34595 0
M  V30 10631 H 1025.69 0.409571 -4.77346 0
M  V30 10632 H 1024.05 0.313988 -2.52757 0
M  V30 10633 H 1024.83 -1.21067 -3.21244 0
M  V30 10634 N 1027.28 1.57312 -0.0952337 0
M  V30 10635 C 1028.69 1.81589 0.433875 0
M  V30 10636 C 1029.04 1.01086 1.68155 0
M  V30 10637 O 1028.17 0.240272 2.15062 0
M  V30 10638 C 1028.76 3.29366 0.793931 0
M  V30 10639 C 1027.32 3.54407 1.26778 0
M  V30 10640 C 1026.47 2.76035 0.264518 0
M  V30 10641 H 1029.42 1.55426 -0.320675 0
M  V30 10642 H 1029.44 3.42697 1.65345 0
M  V30 10643 H 1028.95 3.87932 -0.114334 0
M  V30 10644 H 1027.05 3.01173 2.19376 0
M  V30 10645 H 1027.17 4.63055 1.22952 0
M  V30 10646 H 1025.53 2.43509 0.746691 0
M  V30 10647 H 1026.31 3.37349 -0.636429 0
M  V30 10648 N 1028.76 -0.17846 1.56586 0
M  V30 10649 C 1030.17 -0.529957 1.50544 0
M  V30 10650 C 1030.37 -1.85015 0.798237 0
M  V30 10651 O 1029.43 -2.49983 0.355639 0
M  V30 10652 C 1030.74 -0.569314 2.95261 0
M  V30 10653 C 1032.29 -0.657008 3.06027 0
M  V30 10654 C 1032.77 -0.727323 4.52188 0
M  V30 10655 N 1034.26 -0.790406 4.56406 0
M  V30 10656 C 1034.99 -0.865265 5.66834 0
M  V30 10657 N 1034.49 -0.901398 6.86911 0
M  V30 10658 N 1036.28 -0.903736 5.54787 0
M  V30 10659 H 1028.43 0.687304 2.00972 0
M  V30 10660 H 1030.69 0.246936 0.915274 0
M  V30 10661 H 1030.4 0.331934 3.5013 0
M  V30 10662 H 1030.27 -1.41828 3.4952 0
M  V30 10663 H 1032.66 -1.54868 2.51197 0
M  V30 10664 H 1032.74 0.218495 2.54865 0
M  V30 10665 H 1032.39 0.160067 5.07648 0
M  V30 10666 H 1032.32 -1.61887 5.01099 0
M  V30 10667 H 1034.81 -0.771054 3.6995 0
M  V30 10668 H 1035.12 -0.959494 7.6682 0
M  V30 10669 H 1033.47 -0.869795 6.89536 0
M  V30 10670 H 1036.66 -0.872459 4.59898 0
M  V30 10671 H 1036.83 -0.958615 6.4087 0
M  V30 10672 N 1030.24 -1.51135 -0.446768 0
M  V30 10673 C 1031.48 -1.62571 -1.19388 0
M  V30 10674 C 1031.8 -0.3432 -1.92566 0
M  V30 10675 O 1033 -0.336804 -2.69403 0
M  V30 10676 C 1031.46 -2.87071 -2.17068 0
M  V30 10677 C 1031.07 -4.22291 -1.49581 0
M  V30 10678 C 1032.81 -3.07862 -2.9227 0
M  V30 10679 C 1030.72 -5.3795 -2.45689 0
M  V30 10680 H 1029.65 -0.60549 -0.449331 0
M  V30 10681 H 1032.3 -1.77593 -0.461846 0
M  V30 10682 H 1030.68 -2.65662 -2.93666 0
M  V30 10683 H 1031.86 -4.54046 -0.786054 0
M  V30 10684 H 1030.17 -4.07302 -0.865677 0
M  V30 10685 H 1032.77 -3.91444 -3.64246 0
M  V30 10686 H 1033.11 -2.20559 -3.53072 0
M  V30 10687 H 1033.64 -3.29566 -2.2278 0
M  V30 10688 H 1030.38 -6.27484 -1.89591 0
M  V30 10689 H 1029.9 -5.10583 -3.14746 0
M  V30 10690 H 1031.58 -5.69517 -3.07017 0
M  V30 10691 N 1031.71 0.701592 -1.41122 0
M  V30 10692 C 1032.65 1.8268 -1.38422 0
M  V30 10693 C 1033.66 1.60244 -0.287342 0
M  V30 10694 O 1034.85 1.69859 -0.548658 0
M  V30 10695 C 1031.95 3.19338 -1.13475 0
M  V30 10696 C 1031.12 3.68853 -2.35088 0
M  V30 10697 C 1030.18 4.84163 -2.06089 0
M  V30 10698 O 1029.21 4.9609 -2.79077 0
M  V30 10699 N 1030.41 5.70972 -1.04743 0
M  V30 10700 H 1033.17 1.8549 -2.35401 0
M  V30 10701 H 1030.73 0.883682 -1.35656 0
M  V30 10702 H 1032.73 3.94095 -0.920377 0
M  V30 10703 H 1031.3 3.11589 -0.251152 0
M  V30 10704 H 1030.52 2.8507 -2.72266 0
M  V30 10705 H 1031.8 3.98673 -3.16129 0
M  V30 10706 H 1031.2 5.63961 -0.443221 0
M  V30 10707 H 1029.76 6.45654 -0.892949 0
M  V30 10708 N 1033.19 1.2685 0.935242 0
M  V30 10709 C 1034.47 1.03483 1.65984 0
M  V30 10710 C 1034.85 -0.432859 2.06614 0
M  V30 10711 O 1034.2 -1.4145 1.79455 0
M  V30 10712 C 1034.41 1.98924 2.86758 0
M  V30 10713 C 1035.75 2.2787 3.58274 0
M  V30 10714 O 1036.78 1.96838 2.96873 0
M  V30 10715 O 1035.64 2.80734 4.68882 0
M  V30 10716 H 1032.73 0.393932 0.72715 0
M  V30 10717 H 1035.28 1.38085 0.986445 0
M  V30 10718 H 1034.05 2.9794 2.53668 0
M  V30 10719 H 1033.67 1.64839 3.6182 0
M  V30 10720 N 1034.67 -1.14067 1.0875 0
M  V30 10721 C 1035.9 -1.88767 0.839682 0
M  V30 10722 C 1036.31 -1.79024 -0.612119 0
M  V30 10723 O 1035.65 -1.14986 -1.43262 0
M  V30 10724 C 1035.71 -3.39333 1.18716 0
M  V30 10725 C 1035.38 -3.72858 2.64245 0
M  V30 10726 C 1036.37 -3.72683 3.62496 0
M  V30 10727 C 1034.06 -4.0273 3.0019 0
M  V30 10728 C 1036.05 -4.01909 4.9472 0
M  V30 10729 C 1033.74 -4.31618 4.32607 0
M  V30 10730 C 1034.74 -4.31192 5.29682 0
M  V30 10731 O 1034.43 -4.59377 6.59718 0
M  V30 10732 H 1034.16 -0.604665 0.302253 0
M  V30 10733 H 1036.71 -1.45364 1.45115 0
M  V30 10734 H 1034.94 -3.83205 0.518707 0
M  V30 10735 H 1036.63 -3.95346 0.919599 0
M  V30 10736 H 1037.4 -3.49688 3.3607 0
M  V30 10737 H 1033.28 -4.02213 2.25268 0
M  V30 10738 H 1036.82 -4.01491 5.70483 0
M  V30 10739 H 1032.72 -4.54083 4.58779 0
M  V30 10740 H 1033.49 -4.77078 6.65086 0
M  V30 10741 N 1036.15 -0.873678 -1.31166 0
M  V30 10742 C 1037.39 -0.487178 -1.96861 0
M  V30 10743 C 1037.73 0.95887 -1.68877 0
M  V30 10744 O 1037 1.6758 -0.987279 0
M  V30 10745 C 1037.29 -0.74925 -3.52219 0
M  V30 10746 C 1037.14 -2.2451 -3.89763 0
M  V30 10747 C 1038.46 -0.218194 -4.39559 0
M  V30 10748 H 1035.58 -0.178477 -0.715063 0
M  V30 10749 H 1038.22 -1.0956 -1.55231 0
M  V30 10750 H 1036.37 -0.231403 -3.8781 0
M  V30 10751 H 1038.04 -2.83049 -3.64254 0
M  V30 10752 H 1036.28 -2.71621 -3.38237 0
M  V30 10753 H 1036.95 -2.37911 -4.98099 0
M  V30 10754 H 1039.43 -0.661274 -4.10812 0
M  V30 10755 H 1038.31 -0.430983 -5.47205 0
M  V30 10756 H 1038.57 0.880056 -4.33252 0
M  V30 10757 N 1037.63 1.44308 -0.633487 0
M  V30 10758 C 1038.56 2.28943 0.108474 0
M  V30 10759 C 1039.57 1.41415 0.806582 0
M  V30 10760 O 1040.76 1.65544 0.667634 0
M  V30 10761 C 1037.86 3.17845 1.1759 0
M  V30 10762 C 1037.03 4.33802 0.559842 0
M  V30 10763 C 1036.09 5.03722 1.52154 0
M  V30 10764 O 1035.12 5.5966 1.03776 0
M  V30 10765 N 1036.32 5.05392 2.85586 0
M  V30 10766 H 1039.09 2.93262 -0.617879 0
M  V30 10767 H 1036.65 1.54781 -0.474819 0
M  V30 10768 H 1038.64 3.61485 1.81963 0
M  V30 10769 H 1037.21 2.55261 1.80445 0
M  V30 10770 H 1036.43 3.93325 -0.262559 0
M  V30 10771 H 1037.72 5.08637 0.128942 0
M  V30 10772 H 1037.11 4.61282 3.27468 0
M  V30 10773 H 1035.67 5.52813 3.45313 0
M  V30 10774 N 1039.1 0.374177 1.53094 0
M  V30 10775 C 1040.33 -0.215903 2.06273 0
M  V30 10776 C 1040.75 -1.40979 1.24526 0
M  V30 10777 O 1040.11 -1.79331 0.266462 0
M  V30 10778 C 1040.16 -0.579089 3.5592 0
M  V30 10779 O 1039.26 -1.67516 3.76845 0
M  V30 10780 H 1038.61 -0.0293981 0.663349 0
M  V30 10781 H 1041.14 0.537271 1.9742 0
M  V30 10782 H 1041.15 -0.847678 3.99097 0
M  V30 10783 H 1039.82 0.293843 4.14861 0
M  V30 10784 H 1038.4 -1.40146 3.45563 0
M  V30 10785 N 1040.58 -1.57259 0.103575 0
M  V30 10786 C 1041.83 -1.93832 -0.55786 0
M  V30 10787 C 1042.14 -0.988087 -1.68808 0
M  V30 10788 O 1043.35 -1.24786 -2.41124 0
M  V30 10789 C 1041.81 -3.44433 -1.04373 0
M  V30 10790 C 1041.41 -4.47963 0.0571971 0
M  V30 10791 C 1043.16 -3.89953 -1.67742 0
M  V30 10792 C 1041.07 -5.89727 -0.444505 0
M  V30 10793 H 1040 -0.723536 -0.212161 0
M  V30 10794 H 1042.65 -1.82606 0.180944 0
M  V30 10795 H 1041.03 -3.50841 -1.83648 0
M  V30 10796 H 1042.2 -4.53209 0.83298 0
M  V30 10797 H 1040.52 -4.12104 0.596588 0
M  V30 10798 H 1043.11 -4.93272 -2.06365 0
M  V30 10799 H 1043.46 -3.2907 -2.54988 0
M  V30 10800 H 1043.99 -3.86281 -0.950342 0
M  V30 10801 H 1040.73 -6.5433 0.391543 0
M  V30 10802 H 1040.25 -5.87935 -1.18711 0
M  V30 10803 H 1041.93 -6.40558 -0.910739 0
M  V30 10804 N 1042.06 0.170153 -1.56679 0
M  V30 10805 C 1043.01 1.21531 -1.9291 0
M  V30 10806 C 1043.99 1.39742 -0.797553 0
M  V30 10807 O 1045.19 1.41693 -1.06075 0
M  V30 10808 C 1042.32 2.55447 -2.29351 0
M  V30 10809 C 1041.4 2.40925 -3.49022 0
M  V30 10810 N 1041.79 1.96118 -4.66231 0
M  V30 10811 C 1040.09 2.71747 -3.53652 0
M  V30 10812 C 1040.79 1.94086 -5.48366 0
M  V30 10813 N 1039.77 2.36533 -4.89441 0
M  V30 10814 H 1043.57 0.860602 -2.81018 0
M  V30 10815 H 1041.08 0.378415 -1.5793 0
M  V30 10816 H 1043.08 3.30972 -2.53502 0
M  V30 10817 H 1041.74 2.9172 -1.42583 0
M  V30 10818 H 1042.75 1.66438 -4.90427 0
M  V30 10819 H 1039.43 3.1205 -2.77365 0
M  V30 10820 H 1040.82 1.61132 -6.52293 0
M  V30 10821 N 1043.54 1.5137 0.438746 0
M  V30 10822 C 1044.5 1.71993 1.51496 0
M  V30 10823 C 1045.5 0.589978 1.49586 0
M  V30 10824 O 1046.69 0.857505 1.51633 0
M  V30 10825 C 1043.82 1.77508 2.91039 0
M  V30 10826 H 1045.02 2.68041 1.34514 0
M  V30 10827 H 1042.57 1.41338 0.667326 0
M  V30 10828 H 1043.3 0.832698 3.13427 0
M  V30 10829 H 1043.09 2.59627 2.9383 0
M  V30 10830 H 1044.58 1.95308 3.69113 0
M  V30 10831 N 1045.02 -0.694098 1.41492 0
M  V30 10832 C 1046.24 -1.48789 1.44488 0
M  V30 10833 C 1046.67 -1.88028 0.0521588 0
M  V30 10834 O 1046.02 -1.54727 -0.944952 0
M  V30 10835 C 1046.07 -2.72586 2.3607 0
M  V30 10836 O 1045.18 -3.70128 1.81876 0
M  V30 10837 H 1044.52 -0.447758 0.490315 0
M  V30 10838 H 1047.05 -0.853036 1.85969 0
M  V30 10839 H 1047.06 -3.20877 2.51995 0
M  V30 10840 H 1045.73 -2.43363 3.37264 0
M  V30 10841 H 1044.31 -3.29069 1.75408 0
M  V30 10842 N 1046.49 -1.27344 -0.928501 0
M  V30 10843 C 1047.74 -1.13411 -1.67279 0
M  V30 10844 C 1048.06 0.320698 -1.92345 0
M  V30 10845 O 1047.33 1.2245 -1.52915 0
M  V30 10846 H 1045.91 -0.416712 -0.619968 0
M  V30 10847 H 1048.58 -1.5986 -1.11493 0
M  V30 10848 H 1047.67 -1.66256 -2.64131 0
M  V30 10849 N 1047.97 1.13488 -1.09353 0
M  V30 10850 C 1048.88 2.2248 -0.744307 0
M  V30 10851 C 1049.9 1.72145 0.253404 0
M  V30 10852 O 1051.07 2.01176 0.0949339 0
M  V30 10853 C 1048.14 3.46286 -0.16928 0
M  V30 10854 C 1047.2 4.11516 -1.22284 0
M  V30 10855 C 1046.43 5.29412 -0.675161 0
M  V30 10856 O 1046.66 5.68185 0.502182 0
M  V30 10857 O 1045.59 5.8467 -1.42983 0
M  V30 10858 H 1049.42 2.54723 -1.65378 0
M  V30 10859 H 1047 1.21607 -0.867879 0
M  V30 10860 H 1048.88 4.2114 0.14811 0
M  V30 10861 H 1047.56 3.15745 0.713214 0
M  V30 10862 H 1046.47 3.38492 -1.59292 0
M  V30 10863 H 1047.8 4.46186 -2.07796 0
M  V30 10864 N 1049.45 0.880621 1.30701 0
M  V30 10865 C 1050.4 0.315679 2.25804 0
M  V30 10866 C 1051.39 -0.553382 1.51084 0
M  V30 10867 O 1052.58 -0.398518 1.72455 0
M  V30 10868 C 1049.71 -0.472586 3.40032 0
M  V30 10869 C 1048.79 0.410318 4.2211 0
M  V30 10870 N 1049.18 1.50876 4.82773 0
M  V30 10871 C 1047.48 0.20465 4.4553 0
M  V30 10872 C 1048.18 2.05409 5.44226 0
M  V30 10873 N 1047.16 1.34964 5.26579 0
M  V30 10874 H 1050.96 1.15505 2.70251 0
M  V30 10875 H 1048.47 0.729547 1.45091 0
M  V30 10876 H 1050.47 -0.893918 4.07204 0
M  V30 10877 H 1049.13 -1.30945 2.97125 0
M  V30 10878 H 1050.14 1.89163 4.82118 0
M  V30 10879 H 1046.82 -0.595398 4.13233 0
M  V30 10880 H 1048.21 2.97627 6.02385 0
M  V30 10881 N 1050.93 -1.4397 0.641131 0
M  V30 10882 C 1051.86 -2.33458 -0.04446 0
M  V30 10883 C 1052.84 -1.48781 -0.824507 0
M  V30 10884 O 1054.03 -1.77477 -0.788397 0
M  V30 10885 C 1051.16 -3.31989 -1.01984 0
M  V30 10886 C 1050.11 -4.2656 -0.350745 0
M  V30 10887 C 1049.44 -5.15036 -1.43673 0
M  V30 10888 C 1050.74 -5.16897 0.749299 0
M  V30 10889 H 1052.43 -2.91034 0.702832 0
M  V30 10890 H 1049.98 -1.39942 0.339435 0
M  V30 10891 H 1051.93 -3.93483 -1.50828 0
M  V30 10892 H 1050.65 -2.72643 -1.79815 0
M  V30 10893 H 1049.31 -3.66413 0.117139 0
M  V30 10894 H 1048.96 -4.52037 -2.20617 0
M  V30 10895 H 1048.66 -5.79125 -0.994358 0
M  V30 10896 H 1050.18 -5.79403 -1.92678 0
M  V30 10897 H 1051.6 -5.7227 0.343534 0
M  V30 10898 H 1049.99 -5.89643 1.11541 0
M  V30 10899 H 1051.06 -4.5731 1.61232 0
M  V30 10900 N 1052.41 -0.382291 -1.52893 0
M  V30 10901 C 1053.34 0.447829 -2.29165 0
M  V30 10902 C 1054.32 1.06956 -1.32267 0
M  V30 10903 O 1055.5 1.08365 -1.61154 0
M  V30 10904 C 1052.63 1.57902 -3.09329 0
M  V30 10905 C 1051.59 1.08369 -4.14053 0
M  V30 10906 C 1050.91 2.30641 -4.82399 0
M  V30 10907 C 1052.21 0.156591 -5.22065 0
M  V30 10908 H 1053.91 -0.188541 -2.98806 0
M  V30 10909 H 1051.45 -0.0921179 -1.43705 0
M  V30 10910 H 1053.41 2.16652 -3.61442 0
M  V30 10911 H 1052.13 2.24287 -2.37409 0
M  V30 10912 H 1050.79 0.518772 -3.62911 0
M  V30 10913 H 1050.44 2.9552 -4.07034 0
M  V30 10914 H 1050.14 1.98163 -5.53177 0
M  V30 10915 H 1051.66 2.90047 -5.37313 0
M  V30 10916 H 1053.08 0.652065 -5.6958 0
M  V30 10917 H 1051.47 -0.0780978 -6.00049 0
M  V30 10918 H 1052.54 -0.796529 -4.78313 0
M  V30 10919 N 1053.89 1.57202 -0.111913 0
M  V30 10920 C 1055.3 1.57713 0.244702 0
M  V30 10921 C 1055.5 1.12419 1.67225 0
M  V30 10922 O 1054.56 0.808329 2.39212 0
M  V30 10923 C 1055.87 3.00695 0.0178289 0
M  V30 10924 C 1057.42 3.12887 0.0842781 0
M  V30 10925 C 1057.89 4.57856 -0.114812 0
M  V30 10926 N 1059.38 4.6316 -0.0605423 0
M  V30 10927 C 1060.12 5.73086 -0.189594 0
M  V30 10928 N 1059.62 6.91787 -0.37442 0
M  V30 10929 N 1061.41 5.6195 -0.12967 0
M  V30 10930 H 1053.56 1.84947 -1.04443 0
M  V30 10931 H 1055.82 0.854418 -0.4107 0
M  V30 10932 H 1055.53 3.38093 -0.968802 0
M  V30 10933 H 1055.4 3.69611 0.752815 0
M  V30 10934 H 1057.79 2.7535 1.06143 0
M  V30 10935 H 1057.87 2.46528 -0.682474 0
M  V30 10936 H 1057.51 4.9609 -1.0889 0
M  V30 10937 H 1057.44 5.22297 0.671839 0
M  V30 10938 H 1059.94 3.77817 0.0790856 0
M  V30 10939 H 1060.25 7.71406 -0.463948 0
M  V30 10940 H 1058.59 6.93788 -0.410303 0
M  V30 10941 H 1061.78 4.68098 0.0137115 0
M  V30 10942 H 1061.96 6.47578 -0.233688 0
M  V30 10943 N 1055.36 -0.161842 1.56767 0
M  V30 10944 C 1056.3 -1.22927 1.9226 0
M  V30 10945 C 1057.27 -1.42309 0.786562 0
M  V30 10946 O 1058.46 -1.57163 1.04078 0
M  V30 10947 C 1055.59 -2.59069 2.18177 0
M  V30 10948 C 1054.63 -2.56368 3.40849 0
M  V30 10949 S 1055.46 -2.04518 4.94907 0
M  V30 10950 C 1056.62 -3.42418 5.23928 0
M  V30 10951 H 1056.85 -0.926377 2.82499 0
M  V30 10952 H 1054.39 -0.366822 1.49979 0
M  V30 10953 H 1056.34 -3.37421 2.33789 0
M  V30 10954 H 1055.01 -2.86554 1.28629 0
M  V30 10955 H 1054.2 -3.56551 3.56213 0
M  V30 10956 H 1053.8 -1.86116 3.24402 0
M  V30 10957 H 1056.09 -4.38461 5.16486 0
M  V30 10958 H 1057.04 -3.3192 6.25487 0
M  V30 10959 H 1057.44 -3.38868 4.51474 0
M  V30 10960 N 1056.84 -1.516 -0.430713 0
M  V30 10961 C 1058.09 -1.6484 -1.18134 0
M  V30 10962 C 1058.42 -0.366725 -1.90706 0
M  V30 10963 O 1057.7 0.63398 -1.83878 0
M  V30 10964 C 1057.98 -2.85617 -2.19306 0
M  V30 10965 C 1057.83 -4.23778 -1.50773 0
M  V30 10966 C 1059.15 -3.01909 -3.20217 0
M  V30 10967 H 1056.27 -0.599907 -0.428113 0
M  V30 10968 H 1058.91 -1.84102 -0.46973 0
M  V30 10969 H 1057.06 -2.69325 -2.79993 0
M  V30 10970 H 1058.73 -4.51752 -0.93371 0
M  V30 10971 H 1056.98 -4.26171 -0.809966 0
M  V30 10972 H 1057.65 -5.04291 -2.24487 0
M  V30 10973 H 1060.12 -3.16956 -2.69589 0
M  V30 10974 H 1059 -3.87968 -3.88293 0
M  V30 10975 H 1059.26 -2.1427 -3.86705 0
M  V30 10976 N 1058.32 0.686584 -1.41858 0
M  V30 10977 C 1059.57 1.44879 -1.41908 0
M  V30 10978 C 1059.9 1.94175 -0.0311408 0
M  V30 10979 O 1059.17 1.70131 0.942646 0
M  V30 10980 C 1059.46 2.65428 -2.43352 0
M  V30 10981 C 1059.31 2.2184 -3.91289 0
M  V30 10982 C 1060.63 3.67635 -2.41934 0
M  V30 10983 H 1057.75 0.525477 -0.516762 0
M  V30 10984 H 1060.39 0.781263 -1.73194 0
M  V30 10985 H 1058.54 3.2238 -2.16803 0
M  V30 10986 H 1060.21 1.70146 -4.28775 0
M  V30 10987 H 1058.45 1.53531 -4.05722 0
M  V30 10988 H 1059.13 3.08376 -4.5783 0
M  V30 10989 H 1061.6 3.20376 -2.65516 0
M  V30 10990 H 1060.48 4.49579 -3.14913 0
M  V30 10991 H 1060.74 4.17953 -1.44111 0
M  V30 10992 N 1059.8 1.27835 0.921735 0
M  V30 10993 C 1060.75 1.1092 2.04449 0
M  V30 10994 C 1061.74 0.0306469 1.69372 0
M  V30 10995 O 1062.95 0.188818 1.79007 0
M  V30 10996 H 1059.32 0.341973 0.669745 0
M  V30 10997 H 1061.29 2.06026 2.1586 0
M  V30 10998 C 1060.04 0.779443 3.38851 0
M  V30 10999 H 1059.36 1.60131 3.66331 0
M  V30 11000 H 1060.8 0.700999 4.18165 0
M  V30 11001 C 1059.26 -0.51647 3.32918 0
M  V30 11002 O 1059.79 -1.54914 3.70627 0
M  V30 11003 N 1058 -0.514276 2.86013 0
M  V30 11004 H 1057.55 0.32651 2.55522 0
M  V30 11005 H 1057.5 -1.38141 2.82426 0
M  V30 11006 N 1061.28 -1.12907 1.09954 0
M  V30 11007 C 1062.55 -1.80602 0.751148 0
M  V30 11008 C 1062.93 -1.96826 -0.763077 0
M  V30 11009 O 1062.28 -1.54066 -1.68749 0
M  V30 11010 C 1062.49 -3.15289 1.49646 0
M  V30 11011 C 1063.84 -3.9056 1.66578 0
M  V30 11012 O 1064.86 -3.24929 1.45943 0
M  V30 11013 O 1063.72 -5.08292 2.00752 0
M  V30 11014 H 1060.82 -0.781529 0.270446 0
M  V30 11015 H 1063.36 -1.19786 1.20206 0
M  V30 11016 H 1062.13 -2.9874 2.52725 0
M  V30 11017 H 1061.76 -3.83809 1.03808 0
M  V30 11018 N 1062.75 -0.88754 -1.30232 0
M  V30 11019 C 1064 -0.508031 -1.96334 0
M  V30 11020 C 1064.33 0.940905 -1.69884 0
M  V30 11021 O 1063.61 1.66523 -1.005 0
M  V30 11022 C 1063.89 -0.786566 -3.51405 0
M  V30 11023 C 1063.74 -2.28632 -3.8736 0
M  V30 11024 C 1065.06 -0.264803 -4.39303 0
M  V30 11025 H 1062.18 -0.186051 -0.71313 0
M  V30 11026 H 1064.82 -1.112 -1.5406 0
M  V30 11027 H 1062.97 -0.272523 -3.87543 0
M  V30 11028 H 1064.65 -2.86896 -3.61231 0
M  V30 11029 H 1062.89 -2.75194 -3.35337 0
M  V30 11030 H 1063.56 -2.43181 -4.95547 0
M  V30 11031 H 1066.04 -0.704809 -4.10087 0
M  V30 11032 H 1064.91 -0.488998 -5.46717 0
M  V30 11033 H 1065.17 0.834055 -4.34161 0
M  V30 11034 N 1064.23 1.43628 -0.648757 0
M  V30 11035 C 1065.16 2.33478 0.0320785 0
M  V30 11036 C 1066.14 1.49217 0.816605 0
M  V30 11037 O 1067.33 1.77892 0.778974 0
M  V30 11038 C 1064.46 3.32525 1.00222 0
M  V30 11039 C 1063.41 4.2674 0.328119 0
M  V30 11040 C 1062.74 5.15791 1.4094 0
M  V30 11041 C 1064.04 5.16493 -0.776701 0
M  V30 11042 H 1065.73 2.90657 -0.718257 0
M  V30 11043 H 1063.28 1.3976 -0.346852 0
M  V30 11044 H 1065.23 3.94277 1.4874 0
M  V30 11045 H 1063.96 2.73593 1.78366 0
M  V30 11046 H 1062.61 3.66346 -0.136569 0
M  V30 11047 H 1062.26 4.53201 2.18216 0
M  V30 11048 H 1061.96 5.79645 0.963631 0
M  V30 11049 H 1063.49 5.80416 1.89603 0
M  V30 11050 H 1064.9 5.7208 -0.373878 0
M  V30 11051 H 1063.3 5.89043 -1.14667 0
M  V30 11052 H 1064.37 4.56448 -1.63654 0
M  V30 11053 N 1065.71 0.390394 1.52688 0
M  V30 11054 C 1066.99 -0.249068 1.94008 0
M  V30 11055 C 1067.37 -1.64263 1.32593 0
M  V30 11056 O 1066.72 -2.23086 0.494448 0
M  V30 11057 C 1066.93 -0.274318 3.4792 0
M  V30 11058 C 1068.27 -0.502743 4.21613 0
M  V30 11059 O 1069.3 -0.35448 3.54432 0
M  V30 11060 O 1068.16 -0.79334 5.40711 0
M  V30 11061 H 1065.25 -0.155116 0.812323 0
M  V30 11062 H 1067.8 0.44498 1.63762 0
M  V30 11063 H 1066.57 0.701766 3.84956 0
M  V30 11064 H 1066.19 -1.01324 3.84473 0
M  V30 11065 N 1067.19 -1.57141 0.120249 0
M  V30 11066 C 1068.12 -2.18398 -0.826112 0
M  V30 11067 C 1069.1 -1.12439 -1.27638 0
M  V30 11068 O 1070.28 -1.40679 -1.33877 0
M  V30 11069 C 1067.41 -2.78438 -2.0758 0
M  V30 11070 C 1066.37 -3.89991 -1.76327 0
M  V30 11071 C 1065.69 -4.36844 -3.08336 0
M  V30 11072 C 1066.99 -5.12031 -1.03062 0
M  V30 11073 H 1068.69 -2.97731 -0.315656 0
M  V30 11074 H 1066.23 -1.43213 -0.150387 0
M  V30 11075 H 1068.19 -3.19951 -2.74243 0
M  V30 11076 H 1066.91 -1.96396 -2.60953 0
M  V30 11077 H 1065.57 -3.49055 -1.12053 0
M  V30 11078 H 1065.22 -3.51659 -3.59646 0
M  V30 11079 H 1064.92 -5.1207 -2.88199 0
M  V30 11080 H 1066.44 -4.81009 -3.76116 0
M  V30 11081 H 1067.86 -5.50555 -1.59881 0
M  V30 11082 H 1066.25 -5.92848 -0.930146 0
M  V30 11083 H 1067.32 -4.84897 -0.017582 0
M  V30 11084 N 1068.67 0.153526 -1.5685 0
M  V30 11085 C 1069.89 0.886343 -1.87507 0
M  V30 11086 C 1070.32 1.74244 -0.708565 0
M  V30 11087 O 1069.67 1.78045 0.341997 0
M  V30 11088 C 1069.72 1.72428 -3.16703 0
M  V30 11089 O 1068.83 2.82784 -3.00178 0
M  V30 11090 H 1068.17 0.247259 -0.616246 0
M  V30 11091 H 1070.7 0.146306 -2.04076 0
M  V30 11092 H 1070.71 2.12062 -3.4856 0
M  V30 11093 H 1069.38 1.09558 -4.01211 0
M  V30 11094 H 1067.96 2.46604 -2.79716 0
M  V30 11095 N 1070.14 1.51827 0.422667 0
M  V30 11096 C 1071.56 1.40328 0.760275 0
M  V30 11097 C 1071.76 0.497119 1.95272 0
M  V30 11098 O 1070.82 -0.0422083 2.52465 0
M  V30 11099 C 1072.13 2.82622 1.02689 0
M  V30 11100 C 1073.68 2.91874 1.13044 0
M  V30 11101 C 1074.15 4.35107 1.4299 0
M  V30 11102 N 1075.64 4.3828 1.49883 0
M  V30 11103 C 1076.38 5.46153 1.74655 0
M  V30 11104 N 1075.87 6.64165 1.9712 0
M  V30 11105 N 1077.67 5.33651 1.76558 0
M  V30 11106 H 1069.82 2.09285 -0.362455 0
M  V30 11107 H 1072.08 0.94273 -0.0998161 0
M  V30 11108 H 1071.79 3.50991 0.223226 0
M  V30 11109 H 1071.66 3.22844 1.95068 0
M  V30 11110 H 1074.05 2.23694 1.92471 0
M  V30 11111 H 1074.13 2.55128 0.185326 0
M  V30 11112 H 1073.77 5.03841 0.640848 0
M  V30 11113 H 1073.7 4.69377 2.38731 0
M  V30 11114 H 1076.19 3.53206 1.34366 0
M  V30 11115 H 1076.51 7.42165 2.15434 0
M  V30 11116 H 1074.85 6.67255 1.94413 0
M  V30 11117 H 1078.04 4.40436 1.58536 0
M  V30 11118 H 1078.22 6.17798 1.95525 0
M  V30 11119 N 1071.62 -0.679052 1.4222 0
M  V30 11120 C 1072.87 -1.43485 1.41757 0
M  V30 11121 C 1073.18 -1.95567 0.0358698 0
M  V30 11122 O 1074.39 -2.71346 -0.0913713 0
M  V30 11123 C 1072.85 -2.59541 2.49332 0
M  V30 11124 C 1072.45 -2.14176 3.93488 0
M  V30 11125 C 1074.2 -3.37078 2.58029 0
M  V30 11126 C 1072.11 -3.27289 4.92581 0
M  V30 11127 H 1071.04 -0.539022 0.52723 0
M  V30 11128 H 1073.69 -0.735581 1.68111 0
M  V30 11129 H 1072.07 -3.31815 2.16135 0
M  V30 11130 H 1073.24 -1.49082 4.36017 0
M  V30 11131 H 1071.56 -1.49589 3.88603 0
M  V30 11132 H 1074.15 -4.21312 3.29242 0
M  V30 11133 H 1074.5 -3.83383 1.62245 0
M  V30 11134 H 1075.03 -2.7187 2.90399 0
M  V30 11135 H 1071.77 -2.8598 5.89827 0
M  V30 11136 H 1071.29 -3.91178 4.54687 0
M  V30 11137 H 1072.97 -3.9282 5.14103 0
M  V30 11138 N 1073.1 -1.28322 -0.914942 0
M  V30 11139 C 1074.01 -1.13993 -2.05043 0
M  V30 11140 C 1075.03 -0.0667921 -1.73872 0
M  V30 11141 O 1076.2 -0.275845 -1.99502 0
M  V30 11142 C 1073.27 -0.801856 -3.373 0
M  V30 11143 C 1072.33 -1.95723 -3.82088 0
M  V30 11144 C 1071.56 -1.63519 -5.08033 0
M  V30 11145 O 1071.78 -0.54899 -5.67752 0
M  V30 11146 O 1070.72 -2.47844 -5.48504 0
M  V30 11147 H 1074.54 -2.09313 -2.2005 0
M  V30 11148 H 1072.13 -1.0763 -1.03616 0
M  V30 11149 H 1074.01 -0.627214 -4.16706 0
M  V30 11150 H 1072.69 0.121696 -3.23471 0
M  V30 11151 H 1071.59 -2.18702 -3.03514 0
M  V30 11152 H 1072.93 -2.86144 -4.00478 0
M  V30 11153 N 1074.58 1.12322 -1.10551 0
M  V30 11154 C 1075.54 2.16273 -0.758844 0
M  V30 11155 C 1076.54 1.59325 0.217294 0
M  V30 11156 O 1077.73 1.74199 -0.00601346 0
M  V30 11157 C 1074.86 3.40674 -0.124238 0
M  V30 11158 H 1076.06 2.48454 -1.6796 0
M  V30 11159 H 1073.61 1.2735 -0.906188 0
M  V30 11160 H 1074.34 3.14094 0.807194 0
M  V30 11161 H 1074.13 3.83284 -0.826772 0
M  V30 11162 H 1075.62 4.17474 0.102502 0
M  V30 11163 N 1076.06 0.894434 1.2976 0
M  V30 11164 C 1077.3 0.516646 1.95385 0
M  V30 11165 C 1077.63 -0.939141 1.70895 0
M  V30 11166 O 1076.9 -1.66153 1.03778 0
M  V30 11167 H 1075.48 0.188072 0.722937 0
M  V30 11168 H 1078.14 1.13958 1.58113 0
M  V30 11169 H 1077.23 0.694819 3.04267 0
M  V30 11170 N 1077.53 -1.43282 0.656365 0
M  V30 11171 C 1078.95 -1.56272 0.324213 0
M  V30 11172 C 1079.15 -1.63946 -1.1715 0
M  V30 11173 O 1078.21 -1.59625 -1.95643 0
M  V30 11174 C 1079.52 -2.82204 1.03833 0
M  V30 11175 C 1081.07 -2.95952 1.01889 0
M  V30 11176 C 1081.54 -4.2472 1.71397 0
M  V30 11177 N 1083.03 -4.31591 1.68176 0
M  V30 11178 C 1083.77 -5.30001 2.1883 0
M  V30 11179 N 1083.26 -6.34671 2.77785 0
M  V30 11180 N 1085.06 -5.21676 2.09311 0
M  V30 11181 H 1077.21 -1.36544 1.62694 0
M  V30 11182 H 1079.47 -0.655999 0.684375 0
M  V30 11183 H 1079.18 -2.82608 2.09346 0
M  V30 11184 H 1079.05 -3.72527 0.591878 0
M  V30 11185 H 1081.44 -2.95087 -0.0278431 0
M  V30 11186 H 1081.52 -2.0691 1.50406 0
M  V30 11187 H 1081.16 -4.26346 2.76028 0
M  V30 11188 H 1081.09 -5.12665 1.20342 0
M  V30 11189 H 1083.58 -3.56573 1.25157 0
M  V30 11190 H 1083.9 -7.06087 3.14104 0
M  V30 11191 H 1082.24 -6.35285 2.81847 0
M  V30 11192 H 1085.43 -4.3882 1.62955 0
M  V30 11193 H 1085.61 -5.9821 2.49095 0
M  V30 11194 N 1079.01 -0.398486 -1.52479 0
M  V30 11195 C 1079.95 0.476551 -2.23169 0
M  V30 11196 C 1080.92 1.05665 -1.23587 0
M  V30 11197 O 1082.11 1.10654 -1.52604 0
M  V30 11198 C 1079.24 1.66048 -2.95204 0
M  V30 11199 C 1078.28 1.20478 -4.0913 0
M  V30 11200 S 1079.11 0.178711 -5.35202 0
M  V30 11201 C 1080.27 1.36821 -6.10762 0
M  V30 11202 H 1080.5 -0.123704 -2.97043 0
M  V30 11203 H 1078.04 -0.182722 -1.53315 0
M  V30 11204 H 1079.99 2.33942 -3.37315 0
M  V30 11205 H 1078.66 2.23206 -2.20993 0
M  V30 11206 H 1077.85 2.08901 -4.58668 0
M  V30 11207 H 1077.45 0.604632 -3.6908 0
M  V30 11208 H 1079.74 2.2937 -6.37492 0
M  V30 11209 H 1080.69 0.913579 -7.02182 0
M  V30 11210 H 1081.09 1.58919 -5.41669 0
M  V30 11211 N 1080.49 1.57075 -0.12858 0
M  V30 11212 C 1081.4 2.19369 0.831533 0
M  V30 11213 C 1082.42 1.17258 1.28555 0
M  V30 11214 O 1083.59 1.49766 1.34656 0
M  V30 11215 C 1080.66 2.78846 2.06024 0
M  V30 11216 C 1079.72 3.96024 1.65722 0
M  V30 11217 C 1078.95 4.52655 2.82735 0
M  V30 11218 O 1079.18 4.08175 3.98434 0
M  V30 11219 O 1078.11 5.43198 2.59268 0
M  V30 11220 H 1081.94 3.01887 0.331352 0
M  V30 11221 H 1079.52 1.49081 0.0975226 0
M  V30 11222 H 1081.4 3.16721 2.77967 0
M  V30 11223 H 1080.08 1.99353 2.5503 0
M  V30 11224 H 1078.98 3.62899 0.908574 0
M  V30 11225 H 1080.32 4.76981 1.21449 0
M  V30 11226 N 1081.97 -0.145205 1.5693 0
M  V30 11227 C 1082.9 -1.18096 2.01434 0
M  V30 11228 C 1083.88 -1.447 0.894204 0
M  V30 11229 O 1085.07 -1.55589 1.16214 0
M  V30 11230 C 1082.2 -2.51369 2.39647 0
M  V30 11231 C 1081.15 -2.39283 3.54863 0
M  V30 11232 C 1080.48 -3.77283 3.78895 0
M  V30 11233 C 1081.78 -1.8754 4.87469 0
M  V30 11234 H 1083.47 -0.810897 2.8821 0
M  V30 11235 H 1081.02 -0.388624 1.38657 0
M  V30 11236 H 1082.97 -3.24054 2.69382 0
M  V30 11237 H 1081.69 -2.90214 1.49811 0
M  V30 11238 H 1080.35 -1.6905 3.25296 0
M  V30 11239 H 1080 -4.13567 2.86307 0
M  V30 11240 H 1079.7 -3.70057 4.56433 0
M  V30 11241 H 1081.22 -4.51514 4.11057 0
M  V30 11242 H 1082.64 -2.50019 5.1591 0
M  V30 11243 H 1081.03 -1.912 5.68826 0
M  V30 11244 H 1082.1 -0.831194 4.77723 0
M  V30 11245 N 1083.45 -1.52049 -0.414609 0
M  V30 11246 C 1084.67 -1.6997 -1.18848 0
M  V30 11247 C 1085.1 -0.406058 -1.83665 0
M  V30 11248 O 1084.46 0.635981 -1.69779 0
M  V30 11249 C 1084.5 -2.8327 -2.23138 0
M  V30 11250 O 1083.61 -2.48457 -3.29155 0
M  V30 11251 H 1082.95 -0.566003 -0.347183 0
M  V30 11252 H 1085.48 -1.98726 -0.486757 0
M  V30 11253 H 1085.49 -3.08022 -2.67557 0
M  V30 11254 H 1084.16 -3.7713 -1.75344 0
M  V30 11255 H 1082.74 -2.34357 -2.90054 0
M  V30 11256 N 1084.93 0.6715 -1.42579 0
M  V30 11257 C 1086.34 1.2522 -1.38481 0
M  V30 11258 C 1086.69 1.96038 -0.079719 0
M  V30 11259 O 1085.81 2.00203 0.821441 0
M  V30 11260 C 1086.41 2.27736 -2.50842 0
M  V30 11261 C 1084.97 2.81325 -2.50067 0
M  V30 11262 C 1084.11 1.55694 -2.29466 0
M  V30 11263 H 1087.06 0.464673 -1.51745 0
M  V30 11264 H 1087.09 3.09539 -2.21283 0
M  V30 11265 H 1086.6 1.76164 -3.45815 0
M  V30 11266 H 1084.7 3.37008 -1.58922 0
M  V30 11267 H 1084.81 3.30116 -3.47218 0
M  V30 11268 H 1083.18 1.82383 -1.77788 0
M  V30 11269 H 1083.96 1.06084 -3.26498 0
M  V30 11270 N 1086.4 1.28806 0.908124 0
M  V30 11271 C 1087.31 1.15079 2.04436 0
M  V30 11272 C 1088.33 0.076012 1.73834 0
M  V30 11273 O 1089.51 0.286421 1.99353 0
M  V30 11274 C 1086.57 0.819733 3.3687 0
M  V30 11275 C 1085.63 1.97746 3.81045 0
M  V30 11276 C 1084.86 1.66211 5.07158 0
M  V30 11277 O 1085.09 0.579092 5.67453 0
M  V30 11278 O 1084.02 2.5075 5.47182 0
M  V30 11279 H 1087.85 2.10477 2.18937 0
M  V30 11280 H 1085.43 1.08177 1.03044 0
M  V30 11281 H 1087.31 0.649304 4.16368 0
M  V30 11282 H 1085.99 -0.10454 3.23531 0
M  V30 11283 H 1084.9 2.20308 3.02349 0
M  V30 11284 H 1086.23 2.88264 3.98955 0
M  V30 11285 N 1087.88 -1.11734 1.11145 0
M  V30 11286 C 1089.11 -1.87755 0.881062 0
M  V30 11287 C 1089.53 -1.79461 -0.563496 0
M  V30 11288 O 1088.89 -1.15481 -1.39763 0
M  V30 11289 C 1088.94 -3.34641 1.34342 0
M  V30 11290 O 1088.04 -4.09195 0.513157 0
M  V30 11291 H 1087.38 -0.583111 0.317613 0
M  V30 11292 H 1089.91 -1.41256 1.48013 0
M  V30 11293 H 1089.92 -3.85486 1.33658 0
M  V30 11294 H 1088.6 -3.39994 2.39534 0
M  V30 11295 H 1087.17 -3.68269 0.585833 0
M  V30 11296 N 1089.36 -0.901303 -1.29284 0
M  V30 11297 C 1090.29 -0.396909 -2.30102 0
M  V30 11298 C 1091.27 0.528919 -1.61668 0
M  V30 11299 O 1092.46 0.439306 -1.89166 0
M  V30 11300 C 1089.59 0.375006 -3.45269 0
M  V30 11301 C 1088.54 -0.46054 -4.25515 0
M  V30 11302 C 1087.87 0.438967 -5.32895 0
M  V30 11303 C 1089.17 -1.7113 -4.93469 0
M  V30 11304 H 1090.86 -1.23943 -2.72541 0
M  V30 11305 H 1088.41 -0.597428 -1.31022 0
M  V30 11306 H 1090.36 0.738622 -4.14876 0
M  V30 11307 H 1089.08 1.25132 -3.01678 0
M  V30 11308 H 1087.74 -0.80651 -3.57618 0
M  V30 11309 H 1087.39 1.31346 -4.85548 0
M  V30 11310 H 1087.09 -0.116406 -5.87485 0
M  V30 11311 H 1088.61 0.79874 -6.05353 0
M  V30 11312 H 1090.03 -1.41732 -5.55504 0
M  V30 11313 H 1088.42 -2.20811 -5.57999 0
M  V30 11314 H 1089.49 -2.44636 -4.18666 0
M  V30 11315 N 1090.84 1.42931 -0.663954 0
M  V30 11316 C 1092.11 1.95284 -0.111174 0
M  V30 11317 C 1092.49 1.60484 1.37142 0
M  V30 11318 O 1091.84 0.895425 2.10225 0
M  V30 11319 C 1092.05 3.47046 -0.368789 0
M  V30 11320 C 1093.4 4.23679 -0.279473 0
M  V30 11321 O 1094.42 3.54918 -0.301937 0
M  V30 11322 O 1093.28 5.46087 -0.21236 0
M  V30 11323 H 1090.38 0.826993 0.00341718 0
M  V30 11324 H 1092.92 1.52816 -0.737935 0
M  V30 11325 H 1091.7 3.65541 -1.39626 0
M  V30 11326 H 1091.32 3.96537 0.290514 0
M  V30 11327 N 1092.32 0.406567 1.52266 0
M  V30 11328 C 1093.28 -0.408251 2.25535 0
M  V30 11329 C 1094.28 -0.975795 1.27808 0
M  V30 11330 O 1095.47 -0.855077 1.5177 0
M  V30 11331 C 1092.6 -1.57443 3.02365 0
M  V30 11332 H 1093.79 0.233459 2.9899 0
M  V30 11333 H 1091.35 0.159032 1.55489 0
M  V30 11334 H 1092.08 -2.25308 2.33252 0
M  V30 11335 H 1091.87 -1.17399 3.74112 0
M  V30 11336 H 1093.36 -2.15088 3.57948 0
M  V30 11337 N 1093.79 -1.57004 0.136909 0
M  V30 11338 C 1095.04 -1.9541 -0.51569 0
M  V30 11339 C 1095.36 -1.02219 -1.66061 0
M  V30 11340 O 1094.63 -0.0818172 -1.95729 0
M  V30 11341 H 1093.21 -0.721504 -0.193497 0
M  V30 11342 H 1095.88 -1.93765 0.210046 0
M  V30 11343 H 1094.97 -2.98887 -0.898494 0
M  V30 11344 N 1095.27 0.136881 -1.57004 0
M  V30 11345 C 1096.52 0.846257 -1.83088 0
M  V30 11346 C 1096.83 1.81876 -0.719765 0
M  V30 11347 O 1098.04 2.57302 -0.866494 0
M  V30 11348 C 1096.5 1.55559 -3.24545 0
M  V30 11349 C 1096.1 0.624989 -4.43619 0
M  V30 11350 C 1097.85 2.25115 -3.59893 0
M  V30 11351 C 1095.76 1.33653 -5.761 0
M  V30 11352 H 1094.69 0.319768 -0.682836 0
M  V30 11353 H 1097.34 0.0989741 -1.83233 0
M  V30 11354 H 1095.72 2.34887 -3.18817 0
M  V30 11355 H 1096.89 -0.133783 -4.60606 0
M  V30 11356 H 1095.21 0.0373216 -4.16383 0
M  V30 11357 H 1097.8 2.79008 -4.56134 0
M  V30 11358 H 1098.15 3.02084 -2.86446 0
M  V30 11359 H 1098.68 1.52696 -3.67327 0
M  V30 11360 H 1095.42 0.608495 -6.5267 0
M  V30 11361 H 1094.94 2.06776 -5.63031 0
M  V30 11362 H 1096.62 1.87467 -6.19246 0
M  V30 11363 N 1096.75 1.52266 0.40654 0
M  V30 11364 C 1097.68 1.78755 1.50229 0
M  V30 11365 C 1098.66 0.638652 1.57655 0
M  V30 11366 O 1099.85 0.884505 1.72888 0
M  V30 11367 C 1096.98 1.94057 2.88026 0
M  V30 11368 C 1095.93 3.09667 2.95449 0
M  V30 11369 C 1095.26 3.10196 4.35526 0
M  V30 11370 C 1096.56 4.49077 2.66697 0
M  V30 11371 H 1098.25 2.70511 1.28313 0
M  V30 11372 H 1095.8 1.30167 0.615836 0
M  V30 11373 H 1097.75 2.11171 3.64671 0
M  V30 11374 H 1096.47 0.989755 3.11242 0
M  V30 11375 H 1095.13 2.92308 2.2125 0
M  V30 11376 H 1094.78 2.12831 4.55754 0
M  V30 11377 H 1094.48 3.87847 4.41416 0
M  V30 11378 H 1096 3.29443 5.14101 0
M  V30 11379 H 1097.42 4.66628 3.33064 0
M  V30 11380 H 1095.82 5.28665 2.8396 0
M  V30 11381 H 1096.89 4.56995 1.62122 0
M  V30 11382 N 1098.23 -0.663929 1.42933 0
M  V30 11383 C 1099.19 -1.75899 1.46943 0
M  V30 11384 C 1100.19 -1.5682 0.355535 0
M  V30 11385 O 1101.38 -1.62914 0.616833 0
M  V30 11386 C 1098.51 -3.14657 1.31164 0
M  V30 11387 H 1099.71 -1.73727 2.44456 0
M  V30 11388 H 1097.26 -0.874587 1.2954 0
M  V30 11389 H 1097.99 -3.22447 0.346165 0
M  V30 11390 H 1097.78 -3.29909 2.11902 0
M  V30 11391 H 1099.27 -3.9453 1.36878 0
M  V30 11392 N 1099.71 -1.29285 -0.901281 0
M  V30 11393 C 1100.67 -1.14283 -1.98676 0
M  V30 11394 C 1101.67 -0.0787641 -1.60607 0
M  V30 11395 O 1102.86 -0.325574 -1.71131 0
M  V30 11396 C 1099.99 -0.747279 -3.32609 0
M  V30 11397 H 1101.18 -2.10701 -2.13413 0
M  V30 11398 H 1098.74 -1.12449 -1.08558 0
M  V30 11399 H 1099.47 0.217111 -3.23572 0
M  V30 11400 H 1099.26 -1.51608 -3.61604 0
M  V30 11401 H 1100.75 -0.665322 -4.12266 0
M  V30 11402 N 1101.18 1.11143 -1.11736 0
M  V30 11403 C 1102.09 2.20851 -0.791331 0
M  V30 11404 C 1103.11 1.72644 0.216833 0
M  V30 11405 O 1104.29 2.01332 0.0522401 0
M  V30 11406 C 1101.35 3.4585 -0.242694 0
M  V30 11407 C 1100.41 4.08829 -1.30986 0
M  V30 11408 C 1099.65 5.27861 -0.787305 0
M  V30 11409 O 1099.87 5.69122 0.381549 0
M  V30 11410 O 1098.8 5.81506 -1.55352 0
M  V30 11411 H 1102.63 2.51158 -1.70744 0
M  V30 11412 H 1100.21 1.19739 -0.893478 0
M  V30 11413 H 1102.1 4.21359 0.0587472 0
M  V30 11414 H 1100.77 3.17187 0.646079 0
M  V30 11415 H 1099.68 3.35037 -1.66436 0
M  V30 11416 H 1101.01 4.41678 -2.17213 0
M  V30 11417 N 1102.66 0.908147 1.28804 0
M  V30 11418 C 1103.9 0.545425 1.96989 0
M  V30 11419 C 1104.27 -0.893226 1.69957 0
M  V30 11420 O 1105.47 -1.36324 2.31666 0
M  V30 11421 C 1103.74 0.83953 3.474 0
M  V30 11422 S 1105.3 0.582385 4.34918 0
M  V30 11423 H 1102.12 0.202027 0.681693 0
M  V30 11424 H 1104.72 1.1724 1.56445 0
M  V30 11425 H 1103.42 1.88463 3.64568 0
M  V30 11426 H 1102.95 0.200999 3.92886 0
M  V30 11427 H 1104.97 -0.568807 4.92929 0
M  V30 11428 N 1104.14 -1.42577 0.671525 0
M  V30 11429 C 1105.39 -2.01882 0.192716 0
M  V30 11430 C 1105.72 -1.52959 -1.19654 0
M  V30 11431 O 1104.99 -0.730404 -1.80265 0
M  V30 11432 C 1105.28 -3.59404 0.223734 0
M  V30 11433 C 1105.13 -4.18514 1.64821 0
M  V30 11434 C 1106.45 -4.37996 -0.429858 0
M  V30 11435 H 1103.57 -0.733523 0.0715026 0
M  V30 11436 H 1106.21 -1.69641 0.855689 0
M  V30 11437 H 1104.36 -3.87003 -0.340776 0
M  V30 11438 H 1106.03 -4.01881 2.26472 0
M  V30 11439 H 1104.28 -3.74467 2.1899 0
M  V30 11440 H 1104.95 -5.27643 1.62162 0
M  V30 11441 H 1107.42 -4.16069 0.0506433 0
M  V30 11442 H 1106.3 -5.476 -0.377503 0
M  V30 11443 H 1106.56 -4.15625 -1.50693 0
M  V30 11444 N 1105.62 -0.414636 -1.52048 0
M  V30 11445 C 1106.87 0.159034 -2.01473 0
M  V30 11446 C 1107.19 1.45176 -1.30188 0
M  V30 11447 O 1106.46 1.91134 -0.429469 0
M  V30 11448 H 1105.04 0.0617604 -0.744443 0
M  V30 11449 H 1107.7 -0.552141 -1.86916 0
M  V30 11450 H 1106.8 0.351217 -3.10118 0
M  V30 11451 N 1107.1 1.56929 -0.145233 0
M  V30 11452 C 1108.03 2.12449 0.833107 0
M  V30 11453 C 1109.01 1.0476 1.24355 0
M  V30 11454 O 1110.19 1.32579 1.33997 0
M  V30 11455 C 1107.32 2.64274 2.11842 0
M  V30 11456 C 1106.36 3.84093 1.85404 0
M  V30 11457 S 1107.2 5.25172 1.04663 0
M  V30 11458 C 1108.35 5.80384 2.34318 0
M  V30 11459 H 1108.59 2.951 0.360969 0
M  V30 11460 H 1106.12 1.54246 0.0690187 0
M  V30 11461 H 1108.08 2.94783 2.8568 0
M  V30 11462 H 1106.74 1.81756 2.56171 0
M  V30 11463 H 1105.93 4.18593 2.80706 0
M  V30 11464 H 1105.53 3.54336 1.19675 0
M  V30 11465 H 1107.83 5.91709 3.29981 0
M  V30 11466 H 1108.77 6.7798 2.04325 0
M  V30 11467 H 1109.18 5.08617 2.44885 0
M  V30 11468 N 1108.58 -0.128553 1.57075 0
M  V30 11469 C 1109.51 -1.15953 2.02675 0
M  V30 11470 C 1110.49 -1.43743 0.909501 0
M  V30 11471 O 1111.67 -1.54348 1.17857 0
M  V30 11472 C 1108.8 -2.48813 2.423 0
M  V30 11473 C 1107.76 -2.35506 3.57381 0
M  V30 11474 C 1107.08 -3.73243 3.82875 0
M  V30 11475 C 1108.38 -1.82359 4.89431 0
M  V30 11476 H 1110.08 -0.780283 2.89054 0
M  V30 11477 H 1107.62 -0.373896 1.39061 0
M  V30 11478 H 1109.57 -3.21179 2.72804 0
M  V30 11479 H 1108.3 -2.88609 1.52881 0
M  V30 11480 H 1106.96 -1.6559 3.27071 0
M  V30 11481 H 1106.61 -4.10507 2.90677 0
M  V30 11482 H 1106.31 -3.65195 4.60333 0
M  V30 11483 H 1107.83 -4.47128 4.15823 0
M  V30 11484 H 1109.24 -2.44533 5.18533 0
M  V30 11485 H 1107.64 -1.85156 5.70822 0
M  V30 11486 H 1108.71 -0.780478 4.78578 0
M  V30 11487 N 1110.05 -1.5248 -0.398459 0
M  V30 11488 C 1110.98 -1.79549 -1.49279 0
M  V30 11489 C 1111.96 -0.647004 -1.57315 0
M  V30 11490 O 1113.15 -0.893661 -1.72416 0
M  V30 11491 C 1110.28 -1.95582 -2.86993 0
M  V30 11492 C 1109.23 -3.1123 -2.93803 0
M  V30 11493 C 1108.56 -3.12501 -4.33874 0
M  V30 11494 C 1109.86 -4.50485 -2.64312 0
M  V30 11495 H 1111.55 -2.71187 -1.26877 0
M  V30 11496 H 1109.1 -1.30492 -0.608924 0
M  V30 11497 H 1111.05 -2.13102 -3.63546 0
M  V30 11498 H 1109.78 -1.00625 -3.10712 0
M  V30 11499 H 1108.44 -2.93477 -2.19697 0
M  V30 11500 H 1108.08 -2.15245 -4.54619 0
M  V30 11501 H 1107.78 -3.90183 -4.39353 0
M  V30 11502 H 1109.31 -3.32164 -5.12347 0
M  V30 11503 H 1110.72 -4.68387 -3.30585 0
M  V30 11504 H 1109.12 -5.30163 -2.81153 0
M  V30 11505 H 1110.19 -4.57848 -1.59696 0
M  V30 11506 N 1111.53 0.65634 -1.43283 0
M  V30 11507 C 1112.94 1.23744 -1.39801 0
M  V30 11508 C 1113.29 1.95942 -0.100507 0
M  V30 11509 O 1112.42 2.01063 0.800161 0
M  V30 11510 C 1113.01 2.25062 -2.53244 0
M  V30 11511 C 1111.57 2.78657 -2.53036 0
M  V30 11512 C 1110.72 1.53251 -2.31105 0
M  V30 11513 H 1113.67 0.448553 -1.52229 0
M  V30 11514 H 1113.69 3.07174 -2.24553 0
M  V30 11515 H 1113.2 1.72487 -3.47664 0
M  V30 11516 H 1111.3 3.35304 -1.62487 0
M  V30 11517 H 1111.42 3.26414 -3.507 0
M  V30 11518 H 1109.78 1.80487 -1.79713 0
M  V30 11519 H 1110.56 1.02615 -3.27605 0
M  V30 11520 N 1113.01 1.29761 0.894412 0
M  V30 11521 C 1114.43 1.07888 1.17611 0
M  V30 11522 C 1114.63 -0.16644 2.00811 0
M  V30 11523 O 1113.68 -0.86272 2.37304 0
M  V30 11524 C 1114.99 2.33723 1.89193 0
M  V30 11525 C 1116.54 2.39095 2.01997 0
M  V30 11526 C 1117.02 3.64747 2.7699 0
M  V30 11527 N 1118.51 3.65501 2.84541 0
M  V30 11528 C 1119.24 4.59411 3.43117 0
M  V30 11529 N 1118.74 5.63657 4.02818 0
M  V30 11530 N 1120.53 4.46971 3.40842 0
M  V30 11531 H 1112.68 2.0967 0.339421 0
M  V30 11532 H 1114.95 0.923788 0.212882 0
M  V30 11533 H 1114.65 3.24551 1.35496 0
M  V30 11534 H 1114.53 2.41642 2.89636 0
M  V30 11535 H 1116.91 1.48751 2.54867 0
M  V30 11536 H 1116.99 2.35158 1.0067 0
M  V30 11537 H 1116.64 4.55445 2.24794 0
M  V30 11538 H 1116.57 3.65944 3.78672 0
M  V30 11539 H 1119.06 2.90129 2.42144 0
M  V30 11540 H 1119.37 6.31429 4.45552 0
M  V30 11541 H 1117.72 5.67461 4.01265 0
M  V30 11542 H 1120.91 3.64719 2.93424 0
M  V30 11543 H 1121.08 5.20341 3.86198 0
M  V30 11544 N 1114.49 -1.10549 1.12324 0
M  V30 11545 C 1115.45 -2.15039 0.793156 0
M  V30 11546 C 1116.45 -1.59651 -0.19192 0
M  V30 11547 O 1117.64 -1.74167 0.0337262 0
M  V30 11548 C 1114.77 -3.40433 0.17842 0
M  V30 11549 H 1115.97 -2.4575 1.71892 0
M  V30 11550 H 1113.52 -1.25892 0.926333 0
M  V30 11551 H 1114.25 -3.15338 -0.757122 0
M  V30 11552 H 1114.04 -3.81921 0.887645 0
M  V30 11553 H 1115.53 -4.17584 -0.0360724 0
M  V30 11554 N 1115.97 -0.914965 -1.28321 0
M  V30 11555 C 1117.21 -0.549562 -1.95212 0
M  V30 11556 C 1117.54 0.904658 -1.71842 0
M  V30 11557 O 1116.82 1.64354 -1.04009 0
M  V30 11558 C 1117.1 -0.860927 -3.49657 0
M  V30 11559 C 1116.96 -2.36797 -3.82423 0
M  V30 11560 C 1118.27 -0.357926 -4.38642 0
M  V30 11561 H 1115.39 -0.201136 -0.709023 0
M  V30 11562 H 1118.04 -1.14443 -1.51667 0
M  V30 11563 H 1116.19 -0.354665 -3.86878 0
M  V30 11564 H 1117.86 -2.94494 -3.55065 0
M  V30 11565 H 1116.1 -2.82245 -3.29424 0
M  V30 11566 H 1116.77 -2.53637 -4.90278 0
M  V30 11567 H 1119.25 -0.791636 -4.085 0
M  V30 11568 H 1118.12 -0.604855 -5.45557 0
M  V30 11569 H 1118.38 0.741775 -4.35833 0
M  V30 11570 N 1117.44 1.42219 -0.679077 0
M  V30 11571 C 1118.86 1.55737 -0.349034 0
M  V30 11572 C 1119.06 1.65789 1.14527 0
M  V30 11573 O 1118.12 1.62717 1.93079 0
M  V30 11574 C 1119.43 2.80516 -1.0831 0
M  V30 11575 C 1120.98 2.94294 -1.06584 0
M  V30 11576 C 1121.45 4.2194 -1.78132 0
M  V30 11577 N 1122.94 4.28861 -1.75021 0
M  V30 11578 C 1123.68 5.26453 -2.27234 0
M  V30 11579 N 1123.17 6.30171 -2.87847 0
M  V30 11580 N 1124.97 5.1828 -2.17584 0
M  V30 11581 H 1117.12 1.33939 -1.64846 0
M  V30 11582 H 1119.38 0.645029 -0.694725 0
M  V30 11583 H 1119.09 2.79241 -2.13816 0
M  V30 11584 H 1118.96 3.71539 -0.651069 0
M  V30 11585 H 1121.35 2.95094 -0.0191061 0
M  V30 11586 H 1121.43 2.04491 -1.53679 0
M  V30 11587 H 1121.07 4.21901 -2.82776 0
M  V30 11588 H 1121 5.10685 -1.28483 0
M  V30 11589 H 1123.49 3.54537 -1.30814 0
M  V30 11590 H 1123.81 7.01 -3.25298 0
M  V30 11591 H 1122.15 6.30721 -2.91918 0
M  V30 11592 H 1125.34 4.36172 -1.69916 0
M  V30 11593 H 1125.52 5.94172 -2.58581 0
M  V30 11594 N 1118.92 0.422693 1.51826 0
M  V30 11595 C 1120.17 -0.148348 2.01555 0
M  V30 11596 C 1120.49 -1.44483 1.30956 0
M  V30 11597 O 1119.76 -1.90904 0.439599 0
M  V30 11598 H 1118.34 -0.0578116 0.74476 0
M  V30 11599 H 1121 0.562046 1.8662 0
M  V30 11600 H 1120.1 -0.334766 3.10299 0
M  V30 11601 N 1120.4 -1.5685 0.153553 0
M  V30 11602 C 1121.31 -2.20664 -0.796528 0
M  V30 11603 C 1122.33 -1.19289 -1.26674 0
M  V30 11604 O 1123.5 -1.51889 -1.32256 0
M  V30 11605 C 1120.57 -2.82088 -2.01561 0
M  V30 11606 C 1119.63 -3.9861 -1.59401 0
M  V30 11607 C 1118.86 -4.57096 -2.75498 0
M  V30 11608 O 1119.08 -4.14462 -3.9189 0
M  V30 11609 O 1118.02 -5.47254 -2.50593 0
M  V30 11610 H 1121.84 -3.02376 -0.283282 0
M  V30 11611 H 1119.43 -1.49218 -0.0737927 0
M  V30 11612 H 1121.31 -3.21103 -2.72893 0
M  V30 11613 H 1119.99 -2.03385 -2.51826 0
M  V30 11614 H 1118.89 -3.64299 -0.850725 0
M  V30 11615 H 1120.23 -4.78853 -1.13845 0
M  V30 11616 N 1121.88 0.120221 -1.57141 0
M  V30 11617 C 1123.12 0.829449 -1.85062 0
M  V30 11618 C 1123.46 1.79585 -0.739116 0
M  V30 11619 O 1122.73 1.92819 0.255147 0
M  V30 11620 C 1123.01 1.58042 -3.23566 0
M  V30 11621 C 1122.87 0.633706 -4.45314 0
M  V30 11622 C 1124.19 2.53688 -3.59625 0
M  V30 11623 H 1121.31 0.300086 -0.67314 0
M  V30 11624 H 1123.95 0.0937393 -1.89769 0
M  V30 11625 H 1122.1 2.20758 -3.19684 0
M  V30 11626 H 1123.77 0.0154836 -4.61297 0
M  V30 11627 H 1122.01 -0.054846 -4.33765 0
M  V30 11628 H 1122.68 1.19577 -5.38893 0
M  V30 11629 H 1125.16 2.01078 -3.6429 0
M  V30 11630 H 1124.04 3.03265 -4.57516 0
M  V30 11631 H 1124.3 3.36296 -2.8698 0
M  V30 11632 N 1123.36 1.52689 0.390367 0
M  V30 11633 C 1124.29 1.80338 1.48325 0
M  V30 11634 C 1125.27 0.655338 1.56969 0
M  V30 11635 O 1126.45 0.902792 1.7194 0
M  V30 11636 C 1123.58 1.97101 2.85952 0
M  V30 11637 C 1122.54 3.12783 2.92148 0
M  V30 11638 C 1121.86 3.14798 4.32211 0
M  V30 11639 C 1123.16 4.5188 2.61919 0
M  V30 11640 H 1124.86 2.71857 1.25437 0
M  V30 11641 H 1122.4 1.30813 0.601995 0
M  V30 11642 H 1124.36 2.15027 3.62411 0
M  V30 11643 H 1123.08 1.02271 3.10174 0
M  V30 11644 H 1121.74 2.94638 2.18137 0
M  V30 11645 H 1121.39 2.17653 4.53471 0
M  V30 11646 H 1121.09 3.92507 4.37278 0
M  V30 11647 H 1122.61 3.34877 5.10578 0
M  V30 11648 H 1124.02 4.70134 3.28096 0
M  V30 11649 H 1122.42 5.31647 2.78337 0
M  V30 11650 H 1123.49 4.58689 1.57266 0
M  V30 11651 N 1124.83 -0.648732 1.43629 0
M  V30 11652 C 1125.76 -1.77298 1.51947 0
M  V30 11653 C 1126.75 -1.65942 0.373785 0
M  V30 11654 O 1127.93 -1.8497 0.591596 0
M  V30 11655 C 1125.06 -3.15749 1.44638 0
M  V30 11656 C 1124.01 -3.41872 2.57502 0
M  V30 11657 C 1123.34 -4.8017 2.35246 0
M  V30 11658 C 1124.64 -3.36173 3.99731 0
M  V30 11659 H 1126.33 -1.70594 2.46045 0
M  V30 11660 H 1123.88 -0.819306 1.1842 0
M  V30 11661 H 1125.83 -3.94156 1.4906 0
M  V30 11662 H 1124.56 -3.23194 0.470466 0
M  V30 11663 H 1123.22 -2.65838 2.5244 0
M  V30 11664 H 1122.86 -4.84297 1.35887 0
M  V30 11665 H 1122.56 -4.9861 3.10906 0
M  V30 11666 H 1124.09 -5.6083 2.41459 0
M  V30 11667 H 1125.5 -4.0451 4.06257 0
M  V30 11668 H 1123.9 -3.66148 4.75453 0
M  V30 11669 H 1124.97 -2.34277 4.24549 0
M  V30 11670 N 1126.31 -1.30234 -0.887518 0
M  V30 11671 C 1127.22 -1.18316 -2.02579 0
M  V30 11672 C 1128.24 -0.103658 -1.73691 0
M  V30 11673 O 1129.41 -0.3181 -1.98872 0
M  V30 11674 C 1126.48 -0.873222 -3.35523 0
M  V30 11675 C 1125.54 -2.03783 -3.7785 0
M  V30 11676 C 1124.77 -1.74258 -5.0445 0
M  V30 11677 O 1125 -0.669295 -5.6646 0
M  V30 11678 O 1123.93 -2.59423 -5.43124 0
M  V30 11679 H 1127.76 -2.13933 -2.15561 0
M  V30 11680 H 1125.34 -1.09803 -1.0131 0
M  V30 11681 H 1127.22 -0.715463 -4.15282 0
M  V30 11682 H 1125.9 0.053056 -3.23657 0
M  V30 11683 H 1124.81 -2.2509 -2.98806 0
M  V30 11684 H 1126.14 -2.94574 -3.94318 0
M  V30 11685 N 1127.79 1.09952 -1.12909 0
M  V30 11686 C 1129.04 1.82286 -0.888797 0
M  V30 11687 C 1129.37 1.85218 0.58379 0
M  V30 11688 O 1128.64 1.31645 1.43177 0
M  V30 11689 C 1128.93 3.28706 -1.47053 0
M  V30 11690 C 1128.78 3.34078 -3.01184 0
M  V30 11691 C 1130.1 4.25233 -1.13424 0
M  V30 11692 H 1127.22 0.661803 -0.324324 0
M  V30 11693 H 1129.86 1.28833 -1.3965 0
M  V30 11694 H 1128.01 3.74356 -1.03874 0
M  V30 11695 H 1129.68 2.96871 -3.5308 0
M  V30 11696 H 1127.93 2.73825 -3.36455 0
M  V30 11697 H 1128.6 4.37202 -3.36984 0
M  V30 11698 H 1131.07 3.87841 -1.50726 0
M  V30 11699 H 1129.95 5.26033 -1.56783 0
M  V30 11700 H 1130.21 4.42075 -0.0471496 0
M  V30 11701 N 1129.27 0.921757 1.27833 0
M  V30 11702 C 1130.2 0.373575 2.26135 0
M  V30 11703 C 1131.21 -0.492414 1.55174 0
M  V30 11704 O 1132.4 -0.305998 1.75858 0
M  V30 11705 C 1129.5 -0.483911 3.35427 0
M  V30 11706 C 1128.68 0.361411 4.35904 0
M  V30 11707 C 1127.73 -0.432461 5.2442 0
M  V30 11708 O 1126.76 0.15777 5.68981 0
M  V30 11709 N 1127.96 -1.73367 5.54007 0
M  V30 11710 H 1130.73 1.21856 2.73809 0
M  V30 11711 H 1128.29 0.788552 1.41398 0
M  V30 11712 H 1130.28 -1.02193 3.91585 0
M  V30 11713 H 1128.85 -1.22963 2.874 0
M  V30 11714 H 1128.07 1.08076 3.79095 0
M  V30 11715 H 1129.36 0.939528 5.0005 0
M  V30 11716 H 1128.76 -2.23561 5.19651 0
M  V30 11717 H 1127.31 -2.21834 6.12889 0
M  V30 11718 N 1130.75 -1.41857 0.686609 0
M  V30 11719 C 1131.71 -2.29187 0.0247022 0
M  V30 11720 C 1132.71 -1.43926 -0.717069 0
M  V30 11721 O 1133.9 -1.65179 -0.5533 0
M  V30 11722 C 1131.03 -3.26644 -0.975537 0
M  V30 11723 H 1132.22 -2.89212 0.793503 0
M  V30 11724 H 1129.78 -1.49694 0.449605 0
M  V30 11725 H 1130.51 -2.7158 -1.77242 0
M  V30 11726 H 1130.3 -3.89545 -0.446892 0
M  V30 11727 H 1131.79 -3.92107 -1.43673 0
M  V30 11728 N 1132.22 -0.430739 -1.51599 0
M  V30 11729 C 1133.13 0.390347 -2.3133 0
M  V30 11730 C 1134.15 1.03376 -1.39962 0
M  V30 11731 O 1135.33 1.03057 -1.73035 0
M  V30 11732 C 1132.39 1.48039 -3.13505 0
M  V30 11733 C 1131.45 0.857792 -4.20643 0
M  V30 11734 C 1130.69 1.89589 -4.9889 0
M  V30 11735 O 1130.91 3.11717 -4.77691 0
M  V30 11736 O 1129.84 1.49009 -5.83164 0
M  V30 11737 H 1133.67 -0.260358 -3.02582 0
M  V30 11738 H 1131.25 -0.193428 -1.48143 0
M  V30 11739 H 1133.14 2.11272 -3.64612 0
M  V30 11740 H 1131.81 2.1153 -2.45024 0
M  V30 11741 H 1130.72 0.187592 -3.73629 0
M  V30 11742 H 1132.05 0.266474 -4.91478 0
M  V30 11743 N 1133.7 1.56767 -0.161869 0
M  V30 11744 C 1134.93 2.01401 0.49523 0
M  V30 11745 C 1135.35 1.04133 1.56646 0
M  V30 11746 O 1134.71 0.0193747 1.8129 0
M  V30 11747 C 1134.76 3.44695 1.05913 0
M  V30 11748 O 1133.86 3.50475 2.1735 0
M  V30 11749 H 1133.2 0.65314 0.1196 0
M  V30 11750 H 1135.73 2.02903 -0.26298 0
M  V30 11751 H 1135.74 3.83805 1.3841 0
M  V30 11752 H 1134.42 4.14991 0.274749 0
M  V30 11753 H 1133 3.23218 1.85969 0
M  V30 11754 N 1135.18 -0.111886 1.57202 0
M  V30 11755 C 1136.59 -0.668261 1.74331 0
M  V30 11756 C 1136.94 -1.79959 0.781609 0
M  V30 11757 O 1136.07 -2.16356 -0.043833 0
M  V30 11758 C 1136.66 -1.219 3.1611 0
M  V30 11759 C 1135.22 -1.7216 3.34721 0
M  V30 11760 C 1134.37 -0.624223 2.70183 0
M  V30 11761 H 1137.32 0.114081 1.58289 0
M  V30 11762 H 1137.34 -2.08858 3.18054 0
M  V30 11763 H 1136.85 -0.395381 3.86081 0
M  V30 11764 H 1134.95 -2.56976 2.69803 0
M  V30 11765 H 1135.07 -1.82615 4.42932 0
M  V30 11766 H 1133.43 -1.05958 2.31614 0
M  V30 11767 H 1134.21 0.188537 3.42782 0
M  V30 11768 N 1136.66 -1.52894 -0.382264 0
M  V30 11769 C 1137.59 -1.81122 -1.47367 0
M  V30 11770 C 1138.57 -0.663653 -1.56619 0
M  V30 11771 O 1139.75 -0.911898 -1.71459 0
M  V30 11772 C 1136.88 -1.98615 -2.84902 0
M  V30 11773 C 1135.84 -3.14328 -2.90485 0
M  V30 11774 C 1135.16 -3.17086 -4.30535 0
M  V30 11775 C 1136.46 -4.53263 -2.59519 0
M  V30 11776 H 1138.16 -2.72518 -1.23993 0
M  V30 11777 H 1135.7 -1.3113 -0.595049 0
M  V30 11778 H 1137.66 -2.16946 -3.61265 0
M  V30 11779 H 1136.38 -1.03915 -3.09628 0
M  V30 11780 H 1135.04 -2.95791 -2.16572 0
M  V30 11781 H 1134.69 -2.20055 -4.52311 0
M  V30 11782 H 1134.39 -3.94821 -4.3519 0
M  V30 11783 H 1135.91 -3.3758 -5.08795 0
M  V30 11784 H 1137.33 -4.71867 -3.25598 0
M  V30 11785 H 1135.72 -5.33115 -2.75514 0
M  V30 11786 H 1136.79 -4.59516 -1.54831 0
M  V30 11787 N 1138.14 0.641106 -1.43971 0
M  V30 11788 C 1139.55 1.22254 -1.41106 0
M  V30 11789 C 1139.9 1.95825 -0.121284 0
M  V30 11790 O 1139.02 2.01901 0.77879 0
M  V30 11791 C 1139.62 2.22364 -2.55617 0
M  V30 11792 C 1138.18 2.75957 -2.55978 0
M  V30 11793 C 1137.33 1.50792 -2.32717 0
M  V30 11794 H 1140.28 0.432381 -1.52696 0
M  V30 11795 H 1140.3 3.04775 -2.27799 0
M  V30 11796 H 1139.81 1.68789 -3.49474 0
M  V30 11797 H 1137.91 3.33562 -1.66034 0
M  V30 11798 H 1138.02 3.22676 -3.54142 0
M  V30 11799 H 1136.39 1.7857 -1.81617 0
M  V30 11800 H 1137.17 0.991343 -3.28675 0
M  V30 11801 N 1139.62 1.30703 0.880598 0
M  V30 11802 C 1140.55 1.20033 2.00286 0
M  V30 11803 C 1141.53 0.0899614 1.69862 0
M  V30 11804 O 1142.71 0.272747 1.92275 0
M  V30 11805 C 1139.84 0.895902 3.35546 0
M  V30 11806 C 1138.8 1.96468 3.80242 0
M  V30 11807 C 1138.12 1.51316 5.12843 0
M  V30 11808 C 1139.42 3.37637 3.98496 0
M  V30 11809 H 1141.12 2.13922 2.0947 0
M  V30 11810 H 1138.66 1.02989 1.00644 0
M  V30 11811 H 1140.61 0.807899 4.13583 0
M  V30 11812 H 1139.34 -0.0786636 3.26505 0
M  V30 11813 H 1138 2.0424 3.04437 0
M  V30 11814 H 1137.65 0.52674 5.00234 0
M  V30 11815 H 1137.35 2.22807 5.43719 0
M  V30 11816 H 1138.87 1.43903 5.93401 0
M  V30 11817 H 1140.28 3.326 4.66959 0
M  V30 11818 H 1138.68 4.07253 4.40755 0
M  V30 11819 H 1139.75 3.79205 3.02211 0
M  V30 11820 N 1141.09 -1.09351 1.1349 0
M  V30 11821 C 1142.32 -1.85304 0.920324 0
M  V30 11822 C 1142.74 -1.81182 -0.530883 0
M  V30 11823 O 1142.09 -1.20853 -1.36751 0
M  V30 11824 C 1142.14 -3.33249 1.40098 0
M  V30 11825 O 1141.87 -3.37333 2.79531 0
M  V30 11826 C 1143.37 -4.2604 1.22495 0
M  V30 11827 H 1140.59 -0.585294 0.328134 0
M  V30 11828 H 1143.13 -1.38168 1.50765 0
M  V30 11829 H 1141.29 -3.7781 0.85664 0
M  V30 11830 H 1141.7 -4.29614 3.00885 0
M  V30 11831 H 1143.17 -5.27999 1.61 0
M  V30 11832 H 1143.65 -4.38883 0.166717 0
M  V30 11833 H 1144.26 -3.87295 1.75735 0
M  V30 11834 N 1142.57 -0.928524 -1.27343 0
M  V30 11835 C 1143.53 -0.43292 -2.25074 0
M  V30 11836 C 1144.53 0.448976 -1.54405 0
M  V30 11837 O 1145.72 0.249939 -1.72398 0
M  V30 11838 C 1142.86 0.377539 -3.38803 0
M  V30 11839 H 1144.05 -1.29642 -2.70431 0
M  V30 11840 H 1141.6 -0.709289 -1.3928 0
M  V30 11841 H 1142.34 1.25982 -2.98829 0
M  V30 11842 H 1142.12 -0.254782 -3.91271 0
M  V30 11843 H 1143.61 0.714634 -4.1144 0
M  V30 11844 N 1144.05 1.41491 -0.694123 0
M  V30 11845 C 1145.33 1.95004 -0.152571 0
M  V30 11846 C 1145.71 1.63357 1.33707 0
M  V30 11847 O 1145.05 0.939815 2.08278 0
M  V30 11848 C 1145.26 3.46186 -0.44232 0
M  V30 11849 C 1146.61 4.22991 -0.369279 0
M  V30 11850 O 1147.64 3.54198 -0.377152 0
M  V30 11851 O 1146.5 5.45514 -0.328145 0
M  V30 11852 H 1143.59 0.826879 -0.0141253 0
M  V30 11853 H 1146.14 1.51216 -0.770183 0
M  V30 11854 H 1144.91 3.62497 -1.47348 0
M  V30 11855 H 1144.53 3.97064 0.206337 0
M  V30 11856 N 1145.53 0.438773 1.51369 0
M  V30 11857 C 1146.49 -0.36032 2.2635 0
M  V30 11858 C 1147.49 -0.948465 1.29849 0
M  V30 11859 O 1148.68 -0.822692 1.53549 0
M  V30 11860 C 1145.81 -1.50994 3.05636 0
M  V30 11861 H 1147.01 0.296826 2.98427 0
M  V30 11862 H 1144.56 0.191978 1.55117 0
M  V30 11863 H 1145.29 -2.2031 2.37979 0
M  V30 11864 H 1145.08 -1.09437 3.76518 0
M  V30 11865 H 1146.57 -2.07447 3.6243 0
M  V30 11866 N 1147.01 -1.56678 0.170181 0
M  V30 11867 C 1147.94 -2.20916 -0.756213 0
M  V30 11868 C 1148.92 -1.16442 -1.23997 0
M  V30 11869 O 1150.1 -1.44867 -1.29333 0
M  V30 11870 C 1147.23 -2.84901 -1.98617 0
M  V30 11871 C 1146.19 -3.95403 -1.63831 0
M  V30 11872 C 1145.51 -4.46432 -2.94282 0
M  V30 11873 C 1146.81 -5.15051 -0.867195 0
M  V30 11874 H 1148.51 -2.98585 -0.220776 0
M  V30 11875 H 1146.05 -1.43619 -0.104748 0
M  V30 11876 H 1148 -3.28514 -2.63926 0
M  V30 11877 H 1146.73 -2.04598 -2.54572 0
M  V30 11878 H 1145.39 -3.52444 -1.00891 0
M  V30 11879 H 1145.04 -3.62923 -3.48276 0
M  V30 11880 H 1144.74 -5.20979 -2.71762 0
M  V30 11881 H 1146.26 -4.92731 -3.60622 0
M  V30 11882 H 1147.67 -5.55363 -1.42285 0
M  V30 11883 H 1146.07 -5.95507 -0.741065 0
M  V30 11884 H 1147.14 -4.84707 0.136693 0
M  V30 11885 N 1148.48 0.103547 -1.57259 0
M  V30 11886 C 1149.9 0.457527 -1.52901 0
M  V30 11887 C 1150.1 1.80995 -0.8856 0
M  V30 11888 O 1149.16 2.48001 -0.474504 0
M  V30 11889 C 1150.47 0.427793 -2.97641 0
M  V30 11890 C 1152.02 0.51025 -3.08813 0
M  V30 11891 C 1152.49 0.51075 -4.55143 0
M  V30 11892 N 1153.98 0.571748 -4.59658 0
M  V30 11893 C 1154.72 0.593836 -5.70317 0
M  V30 11894 N 1154.21 0.572638 -6.90429 0
M  V30 11895 N 1156.01 0.638011 -5.58467 0
M  V30 11896 H 1148.16 -0.782408 -1.97464 0
M  V30 11897 H 1150.42 -0.290324 -0.90245 0
M  V30 11898 H 1150.13 -0.498608 -3.48148 0
M  V30 11899 H 1150 1.24991 -3.55889 0
M  V30 11900 H 1152.39 1.42707 -2.583 0
M  V30 11901 H 1152.47 -0.339846 -2.53532 0
M  V30 11902 H 1152.11 -0.40209 -5.06306 0
M  V30 11903 H 1152.04 1.37794 -5.08252 0
M  V30 11904 H 1154.53 0.593668 -3.73208 0
M  V30 11905 H 1154.85 0.592542 -7.70525 0
M  V30 11906 H 1153.19 0.539818 -6.929 0
M  V30 11907 H 1156.38 0.652042 -4.63536 0
M  V30 11908 H 1156.56 0.651756 -6.44714 0
M  V30 11909 N 1149.96 1.53094 0.37415 0
M  V30 11910 C 1150.89 1.81901 1.46404 0
M  V30 11911 C 1151.87 0.671949 1.56265 0
M  V30 11912 O 1153.06 0.920978 1.70973 0
M  V30 11913 C 1150.19 2.00123 2.83845 0
M  V30 11914 C 1149.14 3.15864 2.88814 0
M  V30 11915 C 1148.47 3.19364 4.28848 0
M  V30 11916 C 1149.77 4.54633 2.57112 0
M  V30 11917 H 1151.46 2.73172 1.22546 0
M  V30 11918 H 1149.01 1.31444 0.588087 0
M  V30 11919 H 1150.96 2.18859 3.6011 0
M  V30 11920 H 1149.68 1.05555 3.09072 0
M  V30 11921 H 1148.34 2.96935 2.15 0
M  V30 11922 H 1147.99 2.2245 4.51137 0
M  V30 11923 H 1147.69 3.97123 4.3309 0
M  V30 11924 H 1149.22 3.40273 5.06997 0
M  V30 11925 H 1150.63 4.73587 3.23091 0
M  V30 11926 H 1149.03 5.34569 2.72683 0
M  V30 11927 H 1150.1 4.60331 1.52392 0
M  V30 11928 N 1151.44 -0.633461 1.44309 0
M  V30 11929 C 1152.86 -0.951379 1.28144 0
M  V30 11930 C 1153.06 -2.00344 0.215512 0
M  V30 11931 O 1152.11 -2.49321 -0.399389 0
M  V30 11932 C 1153.42 -1.41686 2.65227 0
M  V30 11933 C 1154.97 -1.53247 2.72918 0
M  V30 11934 C 1155.45 -2.03179 4.10466 0
M  V30 11935 N 1156.94 -2.10453 4.1263 0
M  V30 11936 C 1157.67 -2.50254 5.15907 0
M  V30 11937 N 1157.17 -2.89209 6.29547 0
M  V30 11938 N 1158.96 -2.50368 5.03262 0
M  V30 11939 H 1151.11 0.0623574 2.12308 0
M  V30 11940 H 1153.38 -0.0347244 0.947364 0
M  V30 11941 H 1153.08 -0.71814 3.4429 0
M  V30 11942 H 1152.96 -2.3883 2.91959 0
M  V30 11943 H 1155.34 -2.22216 1.94176 0
M  V30 11944 H 1155.42 -0.544836 2.4993 0
M  V30 11945 H 1155.07 -1.34806 4.89683 0
M  V30 11946 H 1155 -3.02809 4.3083 0
M  V30 11947 H 1157.49 -1.83042 3.30612 0
M  V30 11948 H 1157.8 -3.18386 7.04166 0
M  V30 11949 H 1156.15 -2.86966 6.32989 0
M  V30 11950 H 1159.34 -2.19324 4.13539 0
M  V30 11951 H 1159.51 -2.81062 5.83873 0
M  V30 11952 N 1152.92 -1.31168 -0.873655 0
M  V30 11953 C 1153.85 -1.14325 -1.98651 0
M  V30 11954 C 1154.86 -0.0833421 -1.62587 0
M  V30 11955 O 1156.05 -0.330477 -1.75414 0
M  V30 11956 C 1153.15 -0.723747 -3.31082 0
M  V30 11957 C 1152.33 -1.86787 -3.95512 0
M  V30 11958 C 1151.38 -1.43503 -5.06254 0
M  V30 11959 O 1150.41 -2.14409 -5.27273 0
M  V30 11960 N 1151.61 -0.320362 -5.79615 0
M  V30 11961 H 1154.38 -2.10179 -2.13647 0
M  V30 11962 H 1151.94 -1.23454 -1.04742 0
M  V30 11963 H 1153.93 -0.416971 -4.02546 0
M  V30 11964 H 1152.5 0.143073 -3.12272 0
M  V30 11965 H 1151.72 -2.34216 -3.17075 0
M  V30 11966 H 1153.01 -2.6343 -4.35296 0
M  V30 11967 H 1152.41 0.270215 -5.65054 0
M  V30 11968 H 1150.96 -0.0731 -6.51759 0
M  V30 11969 N 1154.4 1.08748 -1.14068 0
M  V30 11970 C 1155.65 1.8044 -0.901352 0
M  V30 11971 C 1155.96 1.86995 0.573791 0
M  V30 11972 O 1157.16 2.55065 0.930275 0
M  V30 11973 C 1155.62 3.24185 -1.56308 0
M  V30 11974 C 1155.23 3.25875 -3.07424 0
M  V30 11975 C 1156.97 4.00584 -1.40473 0
M  V30 11976 C 1154.88 4.64186 -3.66449 0
M  V30 11977 H 1153.81 0.676201 -0.333569 0
M  V30 11978 H 1156.46 1.22169 -1.3692 0
M  V30 11979 H 1154.84 3.82561 -1.0229 0
M  V30 11980 H 1156.02 2.77225 -3.6808 0
M  V30 11981 H 1154.33 2.62969 -3.22856 0
M  V30 11982 H 1156.93 5.02781 -1.81976 0
M  V30 11983 H 1157.27 4.14823 -0.350408 0
M  V30 11984 H 1157.8 3.48668 -1.91508 0
M  V30 11985 H 1154.54 4.5515 -4.71719 0
M  V30 11986 H 1154.06 5.13132 -3.10574 0
M  V30 11987 H 1155.74 5.33161 -3.66536 0
M  V30 11988 N 1155.87 0.935264 1.26849 0
M  V30 11989 C 1156.8 0.457776 2.28969 0
M  V30 11990 C 1157.79 -0.48587 1.63013 0
M  V30 11991 O 1158.97 -0.388998 1.90264 0
M  V30 11992 C 1156.1 -0.283332 3.46142 0
M  V30 11993 C 1155.05 0.573196 4.24144 0
M  V30 11994 C 1154.38 -0.297525 5.33872 0
M  V30 11995 C 1155.68 1.84153 4.88759 0
M  V30 11996 H 1157.37 1.31125 2.69159 0
M  V30 11997 H 1154.92 0.631956 1.29392 0
M  V30 11998 H 1156.87 -0.628366 4.16689 0
M  V30 11999 H 1155.6 -1.1709 3.04889 0
M  V30 12000 H 1154.26 0.901043 3.55354 0
M  V30 12001 H 1153.9 -1.18427 4.8886 0
M  V30 12002 H 1153.6 0.272126 5.8697 0
M  V30 12003 H 1155.13 -0.637961 6.07258 0
M  V30 12004 H 1156.54 1.5641 5.51551 0
M  V30 12005 H 1154.94 2.35528 5.51948 0
M  V30 12006 H 1156.01 2.5565 4.12033 0
M  V30 12007 N 1157.35 -1.41121 0.701616 0
M  V30 12008 C 1158.28 -2.33436 0.0545974 0
M  V30 12009 C 1159.26 -1.52144 -0.760662 0
M  V30 12010 O 1160.45 -1.80661 -0.712414 0
M  V30 12011 C 1157.58 -3.36015 -0.878117 0
M  V30 12012 C 1156.53 -4.27664 -0.169511 0
M  V30 12013 C 1155.86 -5.20666 -1.21699 0
M  V30 12014 C 1157.16 -5.13254 0.967859 0
M  V30 12015 H 1158.85 -2.87791 0.825637 0
M  V30 12016 H 1156.4 -1.38377 0.398484 0
M  V30 12017 H 1158.35 -3.99526 -1.34004 0
M  V30 12018 H 1157.08 -2.80024 -1.68089 0
M  V30 12019 H 1155.73 -3.65586 0.272441 0
M  V30 12020 H 1155.38 -4.60987 -2.01246 0
M  V30 12021 H 1155.08 -5.82822 -0.747836 0
M  V30 12022 H 1156.61 -5.87053 -1.6793 0
M  V30 12023 H 1158.02 -5.70298 0.585944 0
M  V30 12024 H 1156.42 -5.84381 1.3645 0
M  V30 12025 H 1157.49 -4.5006 1.80483 0
M  V30 12026 N 1158.83 -0.446794 -1.51134 0
M  V30 12027 C 1159.78 0.374154 -2.29571 0
M  V30 12028 C 1160.77 1.01241 -1.35818 0
M  V30 12029 O 1161.98 0.946293 -1.53119 0
M  V30 12030 H 1158.35 0.13948 -0.738951 0
M  V30 12031 H 1160.32 -0.308117 -2.96805 0
M  V30 12032 C 1159.07 1.45754 -3.15675 0
M  V30 12033 H 1158.4 0.975787 -3.87709 0
M  V30 12034 H 1159.84 2.00502 -3.73597 0
M  V30 12035 C 1158.3 2.44606 -2.31667 0
M  V30 12036 O 1158.83 3.49352 -1.98284 0
M  V30 12037 N 1157.03 2.15725 -1.94708 0
M  V30 12038 H 1156.58 1.30572 -2.22056 0
M  V30 12039 H 1156.54 2.82103 -1.38798 0
M  V30 12040 N 1160.31 1.56586 -0.178487 0
M  V30 12041 C 1161.56 1.96273 0.464745 0
M  V30 12042 C 1161.87 1.0675 1.63902 0
M  V30 12043 O 1163.08 1.36148 2.34896 0
M  V30 12044 C 1161.53 3.49021 0.878207 0
M  V30 12045 C 1161.14 4.4718 -0.270861 0
M  V30 12046 C 1162.88 3.97512 1.48946 0
M  V30 12047 C 1160.79 5.91176 0.162632 0
M  V30 12048 H 1159.72 0.732834 0.177398 0
M  V30 12049 H 1162.37 1.81534 -0.267861 0
M  V30 12050 H 1160.75 3.59203 1.667 0
M  V30 12051 H 1161.93 4.48718 -1.04826 0
M  V30 12052 H 1160.24 4.08788 -0.792529 0
M  V30 12053 H 1162.84 5.02556 1.82595 0
M  V30 12054 H 1163.18 3.40861 2.38997 0
M  V30 12055 H 1163.72 3.90376 0.76496 0
M  V30 12056 H 1160.46 6.51716 -0.703286 0
M  V30 12057 H 1159.98 5.9293 0.905243 0
M  V30 12058 H 1161.65 6.44174 0.604084 0
M  V30 12059 N 1161.79 -0.095206 1.57312 0
M  V30 12060 C 1163.04 -0.797417 1.85268 0
M  V30 12061 C 1163.35 -1.79903 0.767733 0
M  V30 12062 O 1164.55 -2.54914 0.934409 0
M  V30 12063 C 1163.01 -1.469 3.28555 0
M  V30 12064 C 1162.62 -0.507152 4.4512 0
M  V30 12065 C 1164.36 -2.15494 3.65735 0
M  V30 12066 C 1162.27 -1.18331 5.79441 0
M  V30 12067 H 1161.2 -0.301552 0.691074 0
M  V30 12068 H 1163.85 -0.0503584 1.83431 0
M  V30 12069 H 1162.23 -2.26351 3.24933 0
M  V30 12070 H 1163.41 0.255858 4.60089 0
M  V30 12071 H 1161.72 0.0730882 4.16336 0
M  V30 12072 H 1164.32 -2.66816 4.63371 0
M  V30 12073 H 1164.66 -2.94383 2.94354 0
M  V30 12074 H 1165.19 -1.42903 3.71246 0
M  V30 12075 H 1161.93 -0.435238 6.54053 0
M  V30 12076 H 1161.45 -1.91775 5.68315 0
M  V30 12077 H 1163.13 -1.70983 6.23998 0
M  V30 12078 N 1163.26 -1.53291 -0.366026 0
M  V30 12079 C 1164.51 -1.69117 -1.10653 0
M  V30 12080 C 1164.83 -0.445327 -1.89847 0
M  V30 12081 O 1164.1 0.540616 -1.88293 0
M  V30 12082 H 1162.68 -0.623446 -0.41149 0
M  V30 12083 H 1165.35 -1.90479 -0.412749 0
M  V30 12084 H 1164.44 -2.55205 -1.79658 0
M  V30 12085 N 1164.74 0.6258 -1.44643 0
M  V30 12086 C 1165.69 1.75869 -1.52226 0
M  V30 12087 C 1166.68 1.64765 -0.39355 0
M  V30 12088 O 1167.89 1.70779 -0.568718 0
M  V30 12089 H 1164.27 0.580712 -0.477784 0
M  V30 12090 H 1166.24 1.66596 -2.47565 0
M  V30 12091 C 1164.99 3.14217 -1.48873 0
M  V30 12092 H 1164.31 3.23411 -2.35043 0
M  V30 12093 H 1165.75 3.93365 -1.58239 0
M  V30 12094 C 1164.21 3.36243 -0.210299 0
M  V30 12095 O 1164.74 3.95243 0.717335 0
M  V30 12096 N 1162.94 2.90385 -0.111744 0
M  V30 12097 H 1162.49 2.42555 -0.867466 0
M  V30 12098 H 1162.45 3.05498 0.742871 0
M  V30 12099 N 1166.22 1.31629 0.866686 0
M  V30 12100 C 1167.18 1.1951 1.95576 0
M  V30 12101 C 1168.18 0.121319 1.60342 0
M  V30 12102 O 1169.37 0.370832 1.70207 0
M  V30 12103 C 1166.51 0.835201 3.30511 0
M  V30 12104 H 1167.7 2.16285 2.07752 0
M  V30 12105 H 1165.25 1.15288 1.05539 0
M  V30 12106 H 1165.99 -0.131245 3.24034 0
M  V30 12107 H 1165.77 1.61142 3.57457 0
M  V30 12108 H 1167.26 0.774393 4.10357 0
M  V30 12109 N 1167.7 -1.08142 1.14644 0
M  V30 12110 C 1168.95 -1.80849 0.917685 0
M  V30 12111 C 1169.28 -1.86123 -0.554249 0
M  V30 12112 O 1168.55 -1.33907 -1.41065 0
M  V30 12113 C 1168.84 -3.26325 1.52264 0
M  V30 12114 C 1168.69 -3.29244 3.06461 0
M  V30 12115 C 1170.01 -4.23375 1.20175 0
M  V30 12116 H 1167.13 -0.656559 0.334812 0
M  V30 12117 H 1169.77 -1.26595 1.41682 0
M  V30 12118 H 1167.92 -3.72656 1.09817 0
M  V30 12119 H 1169.59 -2.91216 3.57758 0
M  V30 12120 H 1167.83 -2.68438 3.40769 0
M  V30 12121 H 1168.51 -4.31785 3.43897 0
M  V30 12122 H 1170.98 -3.85394 1.56877 0
M  V30 12123 H 1169.86 -5.23472 1.65132 0
M  V30 12124 H 1170.12 -4.41944 0.117474 0
M  V30 12125 N 1169.18 -0.941978 -1.26351 0
M  V30 12126 C 1170.12 -0.450906 -2.26353 0
M  V30 12127 C 1171.09 0.489857 -1.58712 0
M  V30 12128 O 1172.28 0.40589 -1.86433 0
M  V30 12129 C 1169.42 0.277054 -3.43986 0
M  V30 12130 C 1168.53 -0.699474 -4.263 0
M  V30 12131 C 1167.67 0.0497661 -5.31177 0
M  V30 12132 C 1166.71 -0.918531 -6.05169 0
M  V30 12133 N 1165.84 -0.200993 -7.01812 0
M  V30 12134 H 1170.68 -1.30861 -2.6773 0
M  V30 12135 H 1168.22 -0.656514 -1.31637 0
M  V30 12136 H 1170.18 0.715567 -4.11018 0
M  V30 12137 H 1168.81 1.09889 -3.0352 0
M  V30 12138 H 1167.86 -1.2565 -3.59049 0
M  V30 12139 H 1169.17 -1.4389 -4.77595 0
M  V30 12140 H 1168.33 0.547521 -6.04224 0
M  V30 12141 H 1167.07 0.822068 -4.80722 0
M  V30 12142 H 1166.07 -1.4274 -5.30947 0
M  V30 12143 H 1167.3 -1.69085 -6.57713 0
M  V30 12144 H 1165.24 0.552803 -6.53667 0
M  V30 12145 H 1165.16 -0.879735 -7.50864 0
M  V30 12146 H 1166.43 0.275642 -7.79012 0
M  V30 12147 N 1170.66 1.40747 -0.709091 0
M  V30 12148 C 1171.9 2.01003 -0.24581 0
M  V30 12149 C 1172.23 1.56203 1.15891 0
M  V30 12150 O 1171.49 0.770166 1.79908 0
M  V30 12151 C 1171.78 3.56404 -0.266685 0
M  V30 12152 C 1171.45 4.20762 -1.6208 0
M  V30 12153 C 1170.11 4.38056 -1.99148 0
M  V30 12154 C 1172.46 4.56723 -2.51105 0
M  V30 12155 C 1169.79 4.88591 -3.248 0
M  V30 12156 C 1172.14 5.08654 -3.76103 0
M  V30 12157 C 1170.81 5.24158 -4.13297 0
M  V30 12158 H 1170.08 0.73552 -0.0899481 0
M  V30 12159 H 1172.73 1.68451 -0.910844 0
M  V30 12160 H 1171.03 3.88825 0.481915 0
M  V30 12161 H 1172.73 4.0085 0.109509 0
M  V30 12162 H 1169.32 4.07685 -1.32252 0
M  V30 12163 H 1173.5 4.43004 -2.23744 0
M  V30 12164 H 1168.76 4.98779 -3.53595 0
M  V30 12165 H 1172.93 5.35457 -4.45262 0
M  V30 12166 H 1170.56 5.63079 -5.10731 0
M  V30 12167 N 1172.13 0.454803 1.50895 0
M  V30 12168 C 1173.36 -0.103936 2.06639 0
M  V30 12169 C 1173.78 -1.34943 1.32044 0
M  V30 12170 O 1173.13 -1.78393 0.384972 0
M  V30 12171 C 1173.18 -0.408546 3.59184 0
M  V30 12172 O 1172.91 0.787535 4.30963 0
M  V30 12173 C 1174.41 -1.01605 4.31499 0
M  V30 12174 H 1171.63 -0.000171839 0.671 0
M  V30 12175 H 1174.17 0.638907 1.94263 0
M  V30 12176 H 1172.33 -1.1013 3.71416 0
M  V30 12177 H 1172.74 0.52229 5.21893 0
M  V30 12178 H 1174.21 -1.17906 5.39261 0
M  V30 12179 H 1174.69 -2.00182 3.90927 0
M  V30 12180 H 1175.3 -0.362155 4.23755 0
M  V30 12181 N 1173.61 -1.56489 0.186789 0
M  V30 12182 C 1175.02 -1.83809 -0.327265 0
M  V30 12183 C 1175.37 -1.10718 -1.61976 0
M  V30 12184 O 1174.5 -0.36525 -2.13295 0
M  V30 12185 C 1175.09 -3.33435 -0.600551 0
M  V30 12186 C 1173.65 -3.61195 -1.059 0
M  V30 12187 C 1172.8 -2.77108 -0.103131 0
M  V30 12188 H 1175.75 -1.53292 0.410747 0
M  V30 12189 H 1175.77 -3.51754 -1.45084 0
M  V30 12190 H 1175.28 -3.86605 0.340315 0
M  V30 12191 H 1173.38 -3.13451 -2.01443 0
M  V30 12192 H 1173.5 -4.69435 -0.957458 0
M  V30 12193 H 1171.86 -2.47448 -0.603449 0
M  V30 12194 H 1172.64 -3.33065 0.832031 0
M  V30 12195 N 1175.09 0.086862 -1.5736 0
M  V30 12196 C 1176.5 0.640442 -1.75372 0
M  V30 12197 C 1176.85 1.78693 -0.81014 0
M  V30 12198 O 1175.98 2.16398 0.00940712 0
M  V30 12199 C 1176.57 1.16856 -3.1801 0
M  V30 12200 C 1175.13 1.66813 -3.37417 0
M  V30 12201 C 1174.28 0.58116 -2.71142 0
M  V30 12202 H 1177.23 -0.139249 -1.58088 0
M  V30 12203 H 1177.25 2.03772 -3.21337 0
M  V30 12204 H 1176.76 0.333909 -3.86661 0
M  V30 12205 H 1174.86 2.52652 -2.73858 0
M  V30 12206 H 1174.98 1.75545 -4.45781 0
M  V30 12207 H 1173.34 1.0226 -2.3327 0
M  V30 12208 H 1174.12 -0.243047 -3.42439 0
M  V30 12209 N 1176.57 1.53483 0.357892 0
M  V30 12210 C 1177.82 1.69701 1.09754 0
M  V30 12211 C 1178.14 0.455389 1.89608 0
M  V30 12212 O 1177.41 -0.530623 1.88577 0
M  V30 12213 H 1175.99 0.62562 0.408178 0
M  V30 12214 H 1178.65 1.90696 0.402641 0
M  V30 12215 H 1177.74 2.56154 1.78302 0
M  V30 12216 N 1178.05 -0.61812 1.44973 0
M  V30 12217 C 1179.29 -1.37468 1.48145 0
M  V30 12218 C 1179.61 -1.94628 0.120366 0
M  V30 12219 O 1178.88 -1.76548 -0.848982 0
M  V30 12220 H 1177.46 -0.510293 0.545536 0
M  V30 12221 H 1180.13 -0.726598 1.8085 0
M  V30 12222 H 1179.22 -2.19944 2.2143 0
M  V30 12223 N 1179.52 -1.32087 -0.859693 0
M  V30 12224 C 1180.94 -1.10968 -1.14709 0
M  V30 12225 C 1181.14 0.113139 -2.01182 0
M  V30 12226 O 1180.2 0.799499 -2.39508 0
M  V30 12227 C 1181.51 -2.38657 -1.8293 0
M  V30 12228 C 1183.06 -2.44366 -1.95587 0
M  V30 12229 C 1183.53 -3.71963 -2.67222 0
M  V30 12230 N 1185.02 -3.72916 -2.7475 0
M  V30 12231 C 1185.76 -4.68346 -3.30816 0
M  V30 12232 N 1185.25 -5.74139 -3.87732 0
M  V30 12233 N 1187.05 -4.55851 -3.28872 0
M  V30 12234 H 1179.2 -2.10497 -0.283711 0
M  V30 12235 H 1181.46 -0.929108 -0.188315 0
M  V30 12236 H 1181.17 -3.2803 -1.26844 0
M  V30 12237 H 1181.04 -2.49236 -2.83128 0
M  V30 12238 H 1183.43 -1.55456 -2.50833 0
M  V30 12239 H 1183.51 -2.37744 -0.944001 0
M  V30 12240 H 1183.15 -4.61245 -2.1264 0
M  V30 12241 H 1183.08 -3.75855 -3.68837 0
M  V30 12242 H 1185.57 -2.96447 -2.34367 0
M  V30 12243 H 1185.89 -6.43021 -4.28654 0
M  V30 12244 H 1184.23 -5.779 -3.86078 0
M  V30 12245 H 1187.42 -3.72371 -2.83651 0
M  V30 12246 H 1187.6 -5.30398 -3.72266 0
M  V30 12247 N 1181 1.07532 -1.15215 0
M  V30 12248 C 1182.25 1.8036 -0.927263 0
M  V30 12249 C 1182.58 1.86414 0.544371 0
M  V30 12250 O 1181.86 1.34653 1.40353 0
M  V30 12251 C 1182.14 3.25512 -1.53992 0
M  V30 12252 C 1181.99 3.27614 -3.08203 0
M  V30 12253 C 1183.31 4.22731 -1.22418 0
M  V30 12254 H 1180.43 0.654775 -0.338289 0
M  V30 12255 H 1183.07 1.25842 -1.42351 0
M  V30 12256 H 1181.22 3.72068 -1.11791 0
M  V30 12257 H 1182.89 2.89315 -3.59297 0
M  V30 12258 H 1181.14 2.66627 -3.42188 0
M  V30 12259 H 1181.81 4.29956 -3.46182 0
M  V30 12260 H 1184.28 3.84557 -1.58919 0
M  V30 12261 H 1183.16 5.22589 -1.67906 0
M  V30 12262 H 1183.42 4.41875 -0.14091 0
M  V30 12263 N 1182.48 0.948665 1.2585 0
M  V30 12264 C 1183.76 0.517832 1.88621 0
M  V30 12265 C 1184.14 -1.00477 1.85654 0
M  V30 12266 O 1183.49 -1.868 1.31598 0
M  V30 12267 C 1183.7 1.08768 3.31618 0
M  V30 12268 C 1185.04 1.16089 4.08422 0
M  V30 12269 O 1186.07 1.0388 3.40716 0
M  V30 12270 O 1184.93 1.35172 5.29519 0
M  V30 12271 H 1182.02 0.169916 0.809356 0
M  V30 12272 H 1184.57 1.04171 1.33964 0
M  V30 12273 H 1183.34 2.13109 3.28177 0
M  V30 12274 H 1182.96 0.54669 3.93824 0
M  V30 12275 N 1183.96 -1.40369 0.716545 0
M  V30 12276 C 1185.2 -2.01167 0.256846 0
M  V30 12277 C 1185.54 -1.56689 -1.14727 0
M  V30 12278 O 1184.81 -0.787384 -1.7785 0
M  V30 12279 C 1185.1 -3.58511 0.337963 0
M  V30 12280 C 1184.95 -4.13059 1.78052 0
M  V30 12281 C 1186.27 -4.39142 -0.290295 0
M  V30 12282 H 1183.39 -0.730877 0.0948028 0
M  V30 12283 H 1186.03 -1.66833 0.909225 0
M  V30 12284 H 1184.18 -3.87891 -0.217482 0
M  V30 12285 H 1185.85 -3.94472 2.39143 0
M  V30 12286 H 1184.09 -3.67311 2.30793 0
M  V30 12287 H 1184.76 -5.22217 1.78867 0
M  V30 12288 H 1187.24 -4.15697 0.182987 0
M  V30 12289 H 1186.12 -5.48524 -0.203097 0
M  V30 12290 H 1186.38 -4.20209 -1.37394 0
M  V30 12291 N 1185.44 -0.462799 -1.50652 0
M  V30 12292 C 1186.85 -0.11648 -1.59174 0
M  V30 12293 C 1187.05 1.37638 -1.47167 0
M  V30 12294 O 1186.11 2.14886 -1.3259 0
M  V30 12295 C 1187.42 -0.659289 -2.93383 0
M  V30 12296 C 1188.97 -0.62198 -3.06758 0
M  V30 12297 C 1189.44 -1.14219 -4.43529 0
M  V30 12298 N 1190.94 -1.10125 -4.49919 0
M  V30 12299 C 1191.67 -1.47436 -5.54121 0
M  V30 12300 N 1191.17 -1.92156 -6.65618 0
M  V30 12301 N 1192.96 -1.39091 -5.44619 0
M  V30 12302 H 1185.11 -1.43383 -1.56701 0
M  V30 12303 H 1187.37 -0.592438 -0.740082 0
M  V30 12304 H 1187.08 -1.70477 -3.07621 0
M  V30 12305 H 1186.95 -0.0982388 -3.77072 0
M  V30 12306 H 1189.34 0.414576 -2.92173 0
M  V30 12307 H 1189.42 -1.21974 -2.24847 0
M  V30 12308 H 1189.07 -2.17734 -4.58862 0
M  V30 12309 H 1189 -0.52073 -5.24019 0
M  V30 12310 H 1191.49 -0.773154 -3.69906 0
M  V30 12311 H 1191.8 -2.18796 -7.4118 0
M  V30 12312 H 1190.14 -1.96103 -6.6676 0
M  V30 12313 H 1193.34 -1.04001 -4.564 0
M  V30 12314 H 1193.51 -1.68496 -6.2571 0
M  V30 12315 N 1186.91 1.56388 -0.195085 0
M  V30 12316 C 1187.88 2.17859 0.712053 0
M  V30 12317 C 1188.88 1.13304 1.141 0
M  V30 12318 O 1190.07 1.38689 1.05409 0
M  V30 12319 C 1187.2 2.78065 1.97213 0
M  V30 12320 H 1188.39 2.9938 0.176529 0
M  V30 12321 H 1185.95 1.56205 0.0545322 0
M  V30 12322 H 1186.68 2.00342 2.55017 0
M  V30 12323 H 1186.47 3.54603 1.67329 0
M  V30 12324 H 1187.96 3.25266 2.619 0
M  V30 12325 N 1188.39 -0.0785156 1.57404 0
M  V30 12326 C 1189.81 -0.433143 1.5361 0
M  V30 12327 C 1190.01 -1.79564 0.914283 0
M  V30 12328 O 1189.06 -2.47215 0.513899 0
M  V30 12329 C 1190.38 -0.380387 2.98284 0
M  V30 12330 C 1191.93 -0.461056 3.09586 0
M  V30 12331 C 1192.4 -0.438276 4.55898 0
M  V30 12332 N 1193.89 -0.498548 4.60509 0
M  V30 12333 C 1194.63 -0.503028 5.71189 0
M  V30 12334 N 1194.12 -0.462724 6.91253 0
M  V30 12335 N 1195.92 -0.549083 5.59412 0
M  V30 12336 H 1188.07 0.813724 1.96195 0
M  V30 12337 H 1190.33 0.304644 0.897717 0
M  V30 12338 H 1190.04 0.553932 3.4731 0
M  V30 12339 H 1189.91 -1.19313 3.57833 0
M  V30 12340 H 1192.3 -1.3858 2.60537 0
M  V30 12341 H 1192.38 0.380138 2.5296 0
M  V30 12342 H 1192.02 0.482588 5.05602 0
M  V30 12343 H 1191.95 -1.29691 5.1038 0
M  V30 12344 H 1194.44 -0.534219 3.74105 0
M  V30 12345 H 1194.76 -0.469883 7.7137 0
M  V30 12346 H 1193.1 -0.429515 6.93672 0
M  V30 12347 H 1196.29 -0.578215 4.64515 0
M  V30 12348 H 1196.46 -0.549105 6.45669 0
M  V30 12349 N 1189.87 -1.5367 -0.349747 0
M  V30 12350 C 1190.83 -1.80533 -1.41211 0
M  V30 12351 C 1191.83 -0.676188 -1.45892 0
M  V30 12352 O 1193.02 -0.944453 -1.46375 0
M  V30 12353 C 1190.16 -1.94175 -2.80195 0
M  V30 12354 H 1191.35 -2.75428 -1.18658 0
M  V30 12355 H 1188.9 -1.44988 -0.583787 0
M  V30 12356 H 1189.64 -1.01402 -3.08039 0
M  V30 12357 H 1189.42 -2.76316 -2.78194 0
M  V30 12358 H 1190.91 -2.16496 -3.57098 0
M  V30 12359 N 1191.35 0.610423 -1.45298 0
M  V30 12360 C 1192.28 1.73207 -1.56594 0
M  V30 12361 C 1193.26 1.64893 -0.417651 0
M  V30 12362 O 1194.44 1.83336 -0.64043 0
M  V30 12363 C 1191.57 3.11803 -1.52959 0
M  V30 12364 C 1190.53 3.34925 -2.66475 0
M  V30 12365 C 1189.85 4.73764 -2.47894 0
M  V30 12366 C 1191.15 3.25456 -4.08504 0
M  V30 12367 H 1192.85 1.6401 -2.50482 0
M  V30 12368 H 1190.39 0.787621 -1.20551 0
M  V30 12369 H 1192.35 3.90065 -1.59458 0
M  V30 12370 H 1191.07 3.21833 -0.55599 0
M  V30 12371 H 1189.73 2.59051 -2.59399 0
M  V30 12372 H 1189.38 4.80524 -1.4868 0
M  V30 12373 H 1189.08 4.90191 -3.24016 0
M  V30 12374 H 1190.6 5.54231 -2.56243 0
M  V30 12375 H 1192.02 3.93597 -4.16839 0
M  V30 12376 H 1190.41 3.53414 -4.84994 0
M  V30 12377 H 1191.48 2.22939 -4.30612 0
M  V30 12378 N 1192.83 1.32541 0.852676 0
M  V30 12379 C 1193.79 1.21578 1.94297 0
M  V30 12380 C 1194.79 0.138318 1.60204 0
M  V30 12381 O 1195.98 0.388864 1.69804 0
M  V30 12382 C 1193.11 0.870209 3.29606 0
M  V30 12383 H 1194.3 2.18476 2.05446 0
M  V30 12384 H 1191.86 1.16401 1.0431 0
M  V30 12385 H 1192.59 -0.0968698 3.24155 0
M  V30 12386 H 1192.38 1.64924 3.55728 0
M  V30 12387 H 1193.87 0.817874 4.09513 0
M  V30 12388 N 1194.3 -1.0692 1.15784 0
M  V30 12389 C 1195.55 -1.79245 0.933581 0
M  V30 12390 C 1195.87 -1.87362 -0.540427 0
M  V30 12391 O 1195.14 -1.37769 -1.39271 0
M  V30 12392 H 1193.72 -0.663898 0.342416 0
M  V30 12393 H 1196.39 -1.29189 1.45932 0
M  V30 12394 H 1195.48 -2.81546 1.34679 0
M  V30 12395 N 1195.78 -0.955326 -1.25345 0
M  V30 12396 C 1197.03 -0.609278 -1.92697 0
M  V30 12397 C 1197.35 0.856535 -1.75181 0
M  V30 12398 O 1196.62 1.61013 -1.11587 0
M  V30 12399 H 1195.2 -0.22235 -0.713141 0
M  V30 12400 H 1197.86 -1.21372 -1.52496 0
M  V30 12401 H 1196.96 -0.839198 -3.00606 0
M  V30 12402 N 1197.26 1.39987 -0.723979 0
M  V30 12403 C 1198.51 2.00334 -0.266587 0
M  V30 12404 C 1198.83 1.57714 1.14679 0
M  V30 12405 O 1198.1 0.82037 1.77895 0
M  V30 12406 H 1196.68 0.740861 -0.095573 0
M  V30 12407 H 1199.34 1.712 -0.931481 0
M  V30 12408 H 1198.44 3.10594 -0.306282 0
M  V30 12409 N 1198.74 0.470782 1.50404 0
M  V30 12410 C 1199.7 -0.312227 2.27063 0
M  V30 12411 C 1200.7 -0.920709 1.31832 0
M  V30 12412 O 1201.89 -0.789937 1.5526 0
M  V30 12413 C 1199.02 -1.44477 3.0877 0
M  V30 12414 H 1200.22 0.36006 2.97731 0
M  V30 12415 H 1197.77 0.224837 1.54674 0
M  V30 12416 H 1198.51 -2.15212 2.42599 0
M  V30 12417 H 1198.29 -1.01426 3.78755 0
M  V30 12418 H 1199.78 -1.99713 3.66749 0
M  V30 12419 N 1200.22 -1.56282 0.203376 0
M  V30 12420 C 1201.46 -1.98105 -0.433844 0
M  V30 12421 C 1201.8 -1.09044 -1.60695 0
M  V30 12422 O 1201.07 -0.144193 -1.93965 0
M  V30 12423 C 1201.35 -3.4903 -0.885992 0
M  V30 12424 C 1201.21 -4.48867 0.289501 0
M  V30 12425 C 1202.53 -4.03871 -1.7486 0
M  V30 12426 H 1199.65 -0.720252 -0.156224 0
M  V30 12427 H 1202.29 -1.87681 0.295963 0
M  V30 12428 H 1200.44 -3.58045 -1.50785 0
M  V30 12429 H 1202.11 -4.51883 0.92734 0
M  V30 12430 H 1200.35 -4.23495 0.939934 0
M  V30 12431 H 1201.02 -5.51956 -0.0695128 0
M  V30 12432 H 1203.5 -3.97688 -1.22407 0
M  V30 12433 H 1202.38 -5.09827 -2.03391 0
M  V30 12434 H 1202.64 -3.49637 -2.70567 0
M  V30 12435 N 1201.7 0.070167 -1.57444 0
M  V30 12436 C 1202.94 0.769014 -1.8733 0
M  V30 12437 C 1203.27 1.77496 -0.79533 0
M  V30 12438 O 1202.53 1.94586 0.208495 0
M  V30 12439 C 1202.82 1.5111 -3.23883 0
M  V30 12440 C 1202.49 0.644988 -4.46263 0
M  V30 12441 C 1201.15 0.406307 -4.79482 0
M  V30 12442 C 1203.5 0.0444938 -5.21181 0
M  V30 12443 C 1200.83 -0.442322 -5.8503 0
M  V30 12444 C 1203.18 -0.791599 -6.27628 0
M  V30 12445 C 1201.85 -1.04014 -6.59346 0
M  V30 12446 H 1201.12 0.281402 -0.685488 0
M  V30 12447 H 1203.77 0.029752 -1.91477 0
M  V30 12448 H 1202.07 2.32261 -3.15535 0
M  V30 12449 H 1203.77 2.05665 -3.44242 0
M  V30 12450 H 1200.36 0.841148 -4.20265 0
M  V30 12451 H 1204.54 0.216005 -4.9583 0
M  V30 12452 H 1199.8 -0.643607 -6.08003 0
M  V30 12453 H 1203.97 -1.26363 -6.8484 0
M  V30 12454 H 1201.6 -1.69949 -7.4096 0
M  V30 12455 N 1203.17 1.53854 0.341593 0
M  V30 12456 C 1204.4 1.75134 1.10162 0
M  V30 12457 C 1204.82 0.491415 1.82292 0
M  V30 12458 O 1204.17 -0.53703 1.7442 0
M  V30 12459 C 1204.22 2.93273 2.1136 0
M  V30 12460 O 1203.95 4.14393 1.42162 0
M  V30 12461 C 1205.45 3.26621 2.99723 0
M  V30 12462 H 1202.67 0.585126 0.328434 0
M  V30 12463 H 1205.21 2.00684 0.393204 0
M  V30 12464 H 1203.37 2.70048 2.77764 0
M  V30 12465 H 1203.78 4.8072 2.09783 0
M  V30 12466 H 1205.25 4.12629 3.66662 0
M  V30 12467 H 1205.73 2.43008 3.65847 0
M  V30 12468 H 1206.34 3.51858 2.38906 0
M  V30 12469 N 1204.65 -0.602709 1.4562 0
M  V30 12470 C 1205.9 -1.36359 1.50113 0
M  V30 12471 C 1206.23 -1.93663 0.144297 0
M  V30 12472 O 1205.51 -1.75337 -0.841851 0
M  V30 12473 C 1205.79 -2.50788 2.58413 0
M  V30 12474 C 1205.64 -1.98649 4.03557 0
M  V30 12475 C 1206.96 -3.52905 2.62957 0
M  V30 12476 H 1204.08 -0.494455 0.54652 0
M  V30 12477 H 1206.72 -0.678957 1.77455 0
M  V30 12478 H 1204.87 -3.09191 2.3523 0
M  V30 12479 H 1206.54 -1.44857 4.37966 0
M  V30 12480 H 1204.79 -1.29615 4.13984 0
M  V30 12481 H 1205.46 -2.81159 4.7503 0
M  V30 12482 H 1207.93 -3.0435 2.83743 0
M  V30 12483 H 1206.81 -4.30454 3.40589 0
M  V30 12484 H 1207.07 -4.0884 1.68233 0
M  V30 12485 N 1206.13 -1.32992 -0.845635 0
M  V30 12486 C 1207.55 -1.12179 -1.13526 0
M  V30 12487 C 1207.75 0.091795 -2.01291 0
M  V30 12488 O 1206.8 0.774051 -2.40343 0
M  V30 12489 C 1208.11 -2.40584 -1.80388 0
M  V30 12490 C 1209.66 -2.46427 -1.92984 0
M  V30 12491 C 1210.14 -3.74776 -2.63261 0
M  V30 12492 N 1211.63 -3.75809 -2.7078 0
M  V30 12493 C 1212.36 -4.71829 -3.2583 0
M  V30 12494 N 1211.86 -5.78219 -3.81621 0
M  V30 12495 N 1213.65 -4.59313 -3.24018 0
M  V30 12496 H 1205.8 -2.10786 -0.261369 0
M  V30 12497 H 1208.07 -0.931053 -0.17845 0
M  V30 12498 H 1207.77 -3.29357 -1.23357 0
M  V30 12499 H 1207.65 -2.52225 -2.80468 0
M  V30 12500 H 1210.03 -1.58108 -2.4917 0
M  V30 12501 H 1210.11 -2.38732 -0.918732 0
M  V30 12502 H 1209.76 -4.63474 -2.07736 0
M  V30 12503 H 1209.69 -3.79746 -3.6483 0
M  V30 12504 H 1212.18 -2.98916 -2.31209 0
M  V30 12505 H 1212.49 -6.47531 -4.2181 0
M  V30 12506 H 1210.84 -5.81962 -3.79927 0
M  V30 12507 H 1214.03 -3.75358 -2.79685 0
M  V30 12508 H 1214.2 -5.34316 -3.6662 0
M  V30 12509 N 1207.61 1.06304 -1.1635 0
M  V30 12510 C 1208.88 1.75916 -0.855166 0
M  V30 12511 C 1209.26 2.0094 0.647024 0
M  V30 12512 O 1208.61 1.63642 1.59479 0
M  V30 12513 C 1208.82 3.06028 -1.67774 0
M  V30 12514 C 1210.17 3.80184 -1.89065 0
M  V30 12515 O 1211.19 3.15868 -1.64639 0
M  V30 12516 O 1210.05 4.95723 -2.30045 0
M  V30 12517 H 1207.15 0.764432 -0.315551 0
M  V30 12518 H 1209.69 1.12574 -1.26985 0
M  V30 12519 H 1208.47 2.83498 -2.69712 0
M  V30 12520 H 1208.09 3.77104 -1.26009 0
M  V30 12521 N 1209.09 0.96196 1.24836 0
M  V30 12522 C 1210.31 0.63814 1.96813 0
M  V30 12523 C 1210.73 -0.79127 1.71419 0
M  V30 12524 O 1210.09 -1.5302 0.994546 0
M  V30 12525 C 1210.14 0.89626 3.50213 0
M  V30 12526 O 1209.86 2.26947 3.74735 0
M  V30 12527 C 1211.36 0.585836 4.39412 0
M  V30 12528 H 1208.58 0.238598 0.627146 0
M  V30 12529 H 1211.12 1.28833 1.58815 0
M  V30 12530 H 1209.28 0.292368 3.86295 0
M  V30 12531 H 1209.69 2.34514 4.69152 0
M  V30 12532 H 1211.17 0.816935 5.45921 0
M  V30 12533 H 1211.64 -0.479784 4.36572 0
M  V30 12534 H 1212.25 1.16938 4.08908 0
M  V30 12535 N 1210.56 -1.39601 0.731392 0
M  V30 12536 C 1211.81 -2.0019 0.277208 0
M  V30 12537 C 1212.13 -1.5832 -1.13841 0
M  V30 12538 O 1211.4 -0.829793 -1.77458 0
M  V30 12539 H 1209.98 -0.740344 0.0995006 0
M  V30 12540 H 1212.64 -1.70704 0.940547 0
M  V30 12541 H 1211.74 -3.10427 0.322749 0
M  V30 12542 N 1212.04 -0.478751 -1.50152 0
M  V30 12543 C 1213.45 -0.0254907 -1.86683 0
M  V30 12544 C 1213.8 1.38171 -1.39295 0
M  V30 12545 O 1212.93 2.0257 -0.761207 0
M  V30 12546 C 1213.52 -0.0394819 -3.38777 0
M  V30 12547 C 1212.08 0.35834 -3.7469 0
M  V30 12548 C 1211.23 -0.421667 -2.74075 0
M  V30 12549 H 1214.18 -0.692653 -1.42787 0
M  V30 12550 H 1214.2 0.760957 -3.72813 0
M  V30 12551 H 1213.71 -1.06378 -3.73236 0
M  V30 12552 H 1211.82 1.38671 -3.45834 0
M  V30 12553 H 1211.93 0.0543589 -4.79069 0
M  V30 12554 H 1210.29 0.125634 -2.5439 0
M  V30 12555 H 1211.08 -1.44562 -3.11379 0
M  V30 12556 N 1213.52 1.56172 -0.211661 0
M  V30 12557 C 1214.77 1.97648 0.421871 0
M  V30 12558 C 1215.09 1.10026 1.60995 0
M  V30 12559 O 1214.36 0.175109 1.95116 0
M  V30 12560 H 1212.94 0.729914 0.158852 0
M  V30 12561 H 1215.6 1.92542 -0.302254 0
M  V30 12562 H 1214.7 3.02834 0.754868 0
M  V30 12563 N 1215 -0.0618163 1.57479 0
M  V30 12564 C 1215.93 -1.10452 1.99689 0
M  V30 12565 C 1216.91 -1.37019 0.875473 0
M  V30 12566 O 1218.09 -1.50226 1.13862 0
M  V30 12567 C 1215.22 -2.44669 2.34211 0
M  V30 12568 C 1214.27 -2.34172 3.56463 0
M  V30 12569 S 1215.1 -1.7263 5.06911 0
M  V30 12570 C 1216.26 -3.08405 5.44644 0
M  V30 12571 H 1216.49 -0.744843 2.87818 0
M  V30 12572 H 1214.02 -0.270698 1.52008 0
M  V30 12573 H 1215.98 -3.2187 2.54774 0
M  V30 12574 H 1214.64 -2.77794 1.46592 0
M  V30 12575 H 1213.83 -3.33175 3.78167 0
M  V30 12576 H 1213.44 -1.65109 3.35582 0
M  V30 12577 H 1215.73 -4.04727 5.43325 0
M  V30 12578 H 1216.67 -2.9147 6.4533 0
M  V30 12579 H 1217.08 -3.0947 4.72111 0
M  V30 12580 N 1216.48 -1.54033 -0.333429 0
M  V30 12581 C 1217.7 -1.75716 -1.09232 0
M  V30 12582 C 1218.12 -0.501076 -1.82029 0
M  V30 12583 O 1217.48 0.527772 -1.74702 0
M  V30 12584 C 1217.53 -2.9439 -2.09802 0
M  V30 12585 O 1217.25 -4.15141 -1.39963 0
M  V30 12586 C 1218.75 -3.28206 -2.97987 0
M  V30 12587 H 1215.97 -0.586859 -0.325326 0
M  V30 12588 H 1218.51 -2.0089 -0.382555 0
M  V30 12589 H 1216.67 -2.71518 -2.76327 0
M  V30 12590 H 1217.08 -4.81826 -2.0723 0
M  V30 12591 H 1218.56 -4.14568 -3.64469 0
M  V30 12592 H 1219.03 -2.44944 -3.64553 0
M  V30 12593 H 1219.64 -3.5312 -2.37036 0
M  V30 12594 N 1217.95 0.594978 -1.45938 0
M  V30 12595 C 1219.37 1.17703 -1.44924 0
M  V30 12596 C 1219.72 1.9534 -0.183522 0
M  V30 12597 O 1218.84 2.04276 0.714163 0
M  V30 12598 C 1219.44 2.14119 -2.62561 0
M  V30 12599 C 1218 2.67674 -2.64627 0
M  V30 12600 C 1217.14 1.43312 -2.37397 0
M  V30 12601 H 1220.09 0.383583 -1.53995 0
M  V30 12602 H 1220.11 2.97374 -2.3738 0
M  V30 12603 H 1219.63 1.57586 -3.54667 0
M  V30 12604 H 1217.73 3.28111 -1.76562 0
M  V30 12605 H 1217.84 3.11246 -3.64229 0
M  V30 12606 H 1216.2 1.72702 -1.87206 0
M  V30 12607 H 1216.99 0.886276 -3.31663 0
M  V30 12608 N 1219.43 1.33438 0.838571 0
M  V30 12609 C 1220.34 1.25753 1.98049 0
M  V30 12610 C 1221.36 0.168051 1.73187 0
M  V30 12611 O 1222.53 0.391691 1.97554 0
M  V30 12612 C 1219.6 0.997148 3.32051 0
M  V30 12613 C 1218.66 2.17667 3.70027 0
M  V30 12614 C 1217.89 1.92861 4.97635 0
M  V30 12615 O 1218.12 0.879072 5.63585 0
M  V30 12616 O 1217.05 2.79402 5.33121 0
M  V30 12617 H 1220.88 2.21786 2.07472 0
M  V30 12618 H 1218.46 1.13488 0.971645 0
M  V30 12619 H 1220.34 0.869099 4.1234 0
M  V30 12620 H 1219.02 0.0671036 3.2363 0
M  V30 12621 H 1217.93 2.36025 2.90246 0
M  V30 12622 H 1219.26 3.09006 3.83114 0
M  V30 12623 N 1220.91 -1.05686 1.16912 0
M  V30 12624 C 1221.82 -2.16824 0.8958 0
M  V30 12625 C 1222.84 -1.73482 -0.134215 0
M  V30 12626 O 1224.01 -2.01352 0.0438776 0
M  V30 12627 C 1221.08 -3.44298 0.407427 0
M  V30 12628 C 1220.14 -4.02114 1.50342 0
M  V30 12629 C 1219.37 -5.23503 1.03826 0
M  V30 12630 O 1219.59 -5.70295 -0.109579 0
M  V30 12631 O 1218.53 -5.73432 1.8292 0
M  V30 12632 H 1222.35 -2.42725 1.82533 0
M  V30 12633 H 1219.94 -1.15339 0.949589 0
M  V30 12634 H 1221.82 -4.21159 0.142356 0
M  V30 12635 H 1220.5 -3.19908 -0.494009 0
M  V30 12636 H 1219.4 -3.26715 1.82231 0
M  V30 12637 H 1220.74 -4.30811 2.38039 0
M  V30 12638 N 1222.39 -0.968567 -1.24324 0
M  V30 12639 C 1223.63 -0.631863 -1.92705 0
M  V30 12640 C 1223.97 0.83096 -1.75524 0
M  V30 12641 O 1223.24 1.59795 -1.10887 0
M  V30 12642 C 1223.53 -1.00845 -3.45691 0
M  V30 12643 C 1223.38 -2.52803 -3.72036 0
M  V30 12644 C 1224.7 -0.543647 -4.36729 0
M  V30 12645 H 1221.82 -0.231027 -0.699854 0
M  V30 12646 H 1224.46 -1.20773 -1.46676 0
M  V30 12647 H 1222.61 -0.518434 -3.85025 0
M  V30 12648 H 1224.28 -3.09289 -3.42255 0
M  V30 12649 H 1222.52 -2.95963 -3.17157 0
M  V30 12650 H 1223.19 -2.74203 -4.79079 0
M  V30 12651 H 1225.67 -0.964182 -4.04775 0
M  V30 12652 H 1224.55 -0.8357 -5.42501 0
M  V30 12653 H 1224.81 0.556256 -4.38587 0
M  V30 12654 N 1223.87 1.39211 -0.738786 0
M  V30 12655 C 1224.8 2.33209 -0.11647 0
M  V30 12656 C 1225.78 1.54108 0.720056 0
M  V30 12657 O 1226.96 1.82486 0.664264 0
M  V30 12658 C 1224.09 3.38226 0.78872 0
M  V30 12659 C 1223.05 4.27963 0.0560636 0
M  V30 12660 C 1222.37 5.2371 1.07852 0
M  V30 12661 C 1223.67 5.10508 -1.1036 0
M  V30 12662 H 1225.37 2.85501 -0.901649 0
M  V30 12663 H 1222.91 1.37272 -0.435032 0
M  V30 12664 H 1224.87 4.02938 1.23364 0
M  V30 12665 H 1223.59 2.84382 1.60606 0
M  V30 12666 H 1222.25 3.64735 -0.369274 0
M  V30 12667 H 1221.9 4.66161 1.88953 0
M  V30 12668 H 1221.6 5.846 0.593048 0
M  V30 12669 H 1223.12 5.91299 1.52307 0
M  V30 12670 H 1224.53 5.68544 -0.736943 0
M  V30 12671 H 1222.93 5.80558 -1.51895 0
M  V30 12672 H 1224 4.45117 -1.92352 0
M  V30 12673 N 1225.34 0.486708 1.49896 0
M  V30 12674 C 1226.57 -0.0600816 2.06813 0
M  V30 12675 C 1226.99 -1.32112 1.34877 0
M  V30 12676 O 1226.34 -1.77537 0.422725 0
M  V30 12677 C 1226.4 -0.332266 3.5997 0
M  V30 12678 O 1226.12 0.878771 4.29196 0
M  V30 12679 C 1227.62 -0.924289 4.33557 0
M  V30 12680 H 1224.84 0.0140611 0.670853 0
M  V30 12681 H 1227.38 0.67997 1.92864 0
M  V30 12682 H 1225.54 -1.02227 3.73669 0
M  V30 12683 H 1225.95 0.632873 5.20668 0
M  V30 12684 H 1227.42 -1.06441 5.4164 0
M  V30 12685 H 1227.9 -1.91844 3.95085 0
M  V30 12686 H 1228.51 -0.272189 4.24428 0
M  V30 12687 N 1226.82 -1.56058 0.219941 0
M  V30 12688 C 1227.79 -2.18964 -0.677303 0
M  V30 12689 C 1228.79 -1.15105 -1.12283 0
M  V30 12690 O 1229.98 -1.40348 -1.03189 0
M  V30 12691 C 1227.11 -2.81167 -1.92764 0
M  V30 12692 H 1228.3 -2.99623 -0.128877 0
M  V30 12693 H 1225.85 -1.56272 -0.0296744 0
M  V30 12694 H 1226.59 -2.04374 -2.51797 0
M  V30 12695 H 1226.37 -3.5722 -1.61666 0
M  V30 12696 H 1227.86 -3.29391 -2.56693 0
M  V30 12697 N 1228.3 0.053464 -1.57509 0
M  V30 12698 C 1229.23 1.09391 -2.00272 0
M  V30 12699 C 1230.21 1.36553 -0.882727 0
M  V30 12700 O 1231.4 1.4962 -1.14657 0
M  V30 12701 C 1228.52 2.43424 -2.35505 0
M  V30 12702 C 1227.57 2.32278 -3.577 0
M  V30 12703 S 1228.4 1.69939 -5.0782 0
M  V30 12704 C 1229.56 3.05512 -5.46272 0
M  V30 12705 H 1229.79 0.729569 -2.88209 0
M  V30 12706 H 1227.32 0.262633 -1.5215 0
M  V30 12707 H 1229.28 3.20515 -2.56477 0
M  V30 12708 H 1227.94 2.77013 -1.48064 0
M  V30 12709 H 1227.14 3.31165 -3.79928 0
M  V30 12710 H 1226.74 1.63327 -3.36453 0
M  V30 12711 H 1229.03 4.0184 -5.45464 0
M  V30 12712 H 1229.97 2.88043 -6.46867 0
M  V30 12713 H 1230.38 3.06962 -4.73745 0
M  V30 12714 N 1229.78 1.54207 0.325255 0
M  V30 12715 C 1230.69 1.86495 1.42326 0
M  V30 12716 C 1231.71 0.756718 1.56684 0
M  V30 12717 O 1232.88 1.05084 1.71812 0
M  V30 12718 C 1229.95 2.08414 2.77064 0
M  V30 12719 C 1229.01 3.32221 2.71897 0
M  V30 12720 C 1228.24 3.53085 4.00209 0
M  V30 12721 O 1228.46 2.77421 4.98391 0
M  V30 12722 O 1227.4 4.46559 4.0357 0
M  V30 12723 H 1231.22 2.79859 1.17951 0
M  V30 12724 H 1228.81 1.40091 0.519124 0
M  V30 12725 H 1230.69 2.24171 3.56827 0
M  V30 12726 H 1229.37 1.18238 3.01333 0
M  V30 12727 H 1228.27 3.21851 1.90691 0
M  V30 12728 H 1229.61 4.22449 2.52582 0
M  V30 12729 N 1231.26 -0.58723 1.46251 0
M  V30 12730 C 1232.67 -1.16933 1.45546 0
M  V30 12731 C 1233.02 -1.9524 0.193879 0
M  V30 12732 O 1232.14 -2.04652 -0.70332 0
M  V30 12733 C 1232.74 -2.12723 2.63693 0
M  V30 12734 C 1231.3 -2.66267 2.66043 0
M  V30 12735 C 1230.45 -1.42051 2.38153 0
M  V30 12736 H 1233.4 -0.375411 1.54196 0
M  V30 12737 H 1233.42 -2.96111 2.38953 0
M  V30 12738 H 1232.93 -1.55703 3.55497 0
M  V30 12739 H 1231.03 -3.2717 1.783 0
M  V30 12740 H 1231.14 -3.0931 3.65874 0
M  V30 12741 H 1229.51 -1.71707 1.88119 0
M  V30 12742 H 1230.29 -0.868675 3.32128 0
M  V30 12743 N 1232.74 -1.33881 -0.831482 0
M  V30 12744 C 1233.98 -1.25755 -1.58719 0
M  V30 12745 C 1234.31 0.174746 -1.93713 0
M  V30 12746 O 1233.57 1.13384 -1.59507 0
M  V30 12747 C 1233.86 -2.08544 -2.90249 0
M  V30 12748 C 1233.53 -3.57651 -2.74585 0
M  V30 12749 C 1232.19 -3.983 -2.7002 0
M  V30 12750 C 1234.54 -4.52369 -2.58866 0
M  V30 12751 C 1231.87 -5.31872 -2.47647 0
M  V30 12752 C 1234.22 -5.86112 -2.38025 0
M  V30 12753 C 1232.89 -6.25934 -2.31867 0
M  V30 12754 H 1232.16 -0.460171 -0.580796 0
M  V30 12755 H 1234.81 -1.6554 -0.96274 0
M  V30 12756 H 1233.11 -1.6156 -3.56939 0
M  V30 12757 H 1234.81 -1.99609 -3.47789 0
M  V30 12758 H 1231.4 -3.2538 -2.78973 0
M  V30 12759 H 1235.58 -4.21868 -2.61421 0
M  V30 12760 H 1230.84 -5.61756 -2.41331 0
M  V30 12761 H 1235.01 -6.59103 -2.24847 0
M  V30 12762 H 1232.64 -7.29372 -2.14291 0
M  V30 12763 N 1234.21 1.05064 -1.1747 0
M  V30 12764 C 1235.63 1.30256 -0.922248 0
M  V30 12765 C 1235.83 1.97119 0.417896 0
M  V30 12766 O 1234.89 2.24557 1.15457 0
M  V30 12767 C 1236.2 2.17109 -2.08049 0
M  V30 12768 C 1237.75 2.30487 -2.11766 0
M  V30 12769 C 1238.22 3.20701 -3.26979 0
M  V30 12770 N 1239.71 3.28287 -3.26775 0
M  V30 12771 C 1240.45 3.98218 -4.12565 0
M  V30 12772 N 1239.94 4.70567 -5.08467 0
M  V30 12773 N 1241.74 3.94395 -4.00511 0
M  V30 12774 H 1233.89 0.600653 -2.0373 0
M  V30 12775 H 1236.15 0.327475 -0.889643 0
M  V30 12776 H 1235.86 1.75273 -3.04914 0
M  V30 12777 H 1235.73 3.1775 -2.03261 0
M  V30 12778 H 1238.12 2.71564 -1.15486 0
M  V30 12779 H 1238.2 1.29471 -2.20615 0
M  V30 12780 H 1237.84 2.80337 -4.23525 0
M  V30 12781 H 1237.77 4.21725 -3.15366 0
M  V30 12782 H 1240.26 2.76739 -2.5734 0
M  V30 12783 H 1240.58 5.21492 -5.70321 0
M  V30 12784 H 1238.92 4.69505 -5.12436 0
M  V30 12785 H 1242.11 3.37 -3.24882 0
M  V30 12786 H 1242.29 4.48626 -4.67588 0
M  V30 12787 N 1235.69 0.975146 1.23809 0
M  V30 12788 C 1236.62 0.469151 2.24347 0
M  V30 12789 C 1237.64 -0.426156 1.57123 0
M  V30 12790 O 1238.83 -0.231136 1.76997 0
M  V30 12791 C 1235.93 -0.34121 3.37178 0
M  V30 12792 C 1235.1 0.545968 4.33979 0
M  V30 12793 C 1234.16 -0.209648 5.25782 0
M  V30 12794 O 1233.18 0.398953 5.678 0
M  V30 12795 N 1234.39 -1.49713 5.60862 0
M  V30 12796 H 1237.15 1.33359 2.68394 0
M  V30 12797 H 1234.71 0.847814 1.37927 0
M  V30 12798 H 1236.7 -0.854924 3.95567 0
M  V30 12799 H 1235.27 -1.10663 2.92357 0
M  V30 12800 H 1234.49 1.24057 3.7417 0
M  V30 12801 H 1235.78 1.15077 4.95615 0
M  V30 12802 H 1235.18 -2.0132 5.28665 0
M  V30 12803 H 1233.74 -1.95639 6.21746 0
M  V30 12804 N 1237.17 -1.38817 0.746158 0
M  V30 12805 C 1238.42 -2.00577 0.299458 0
M  V30 12806 C 1238.75 -1.59087 -1.11378 0
M  V30 12807 O 1238.02 -0.824932 -1.7614 0
M  V30 12808 C 1238.31 -3.57713 0.413932 0
M  V30 12809 C 1238.16 -4.09189 1.86774 0
M  V30 12810 C 1239.48 -4.39659 -0.197082 0
M  V30 12811 H 1236.6 -0.728702 0.110285 0
M  V30 12812 H 1239.24 -1.64866 0.944408 0
M  V30 12813 H 1237.39 -3.88265 -0.135155 0
M  V30 12814 H 1239.06 -3.89311 2.47456 0
M  V30 12815 H 1237.3 -3.62333 2.38532 0
M  V30 12816 H 1237.98 -5.18305 1.89904 0
M  V30 12817 H 1240.45 -4.15216 0.271121 0
M  V30 12818 H 1239.33 -5.48832 -0.0867011 0
M  V30 12819 H 1239.59 -4.23028 -1.2845 0
M  V30 12820 N 1238.65 -0.49465 -1.49636 0
M  V30 12821 C 1239.61 0.276064 -2.27531 0
M  V30 12822 C 1240.61 0.899619 -1.3328 0
M  V30 12823 O 1241.8 0.765136 -1.56497 0
M  V30 12824 C 1238.93 1.39547 -3.1103 0
M  V30 12825 H 1240.13 -0.407381 -2.9712 0
M  V30 12826 H 1237.68 -0.249416 -1.54297 0
M  V30 12827 H 1238.41 2.11326 -2.45992 0
M  V30 12828 H 1238.2 0.953877 -3.8032 0
M  V30 12829 H 1239.69 1.93853 -3.69879 0
M  V30 12830 N 1240.13 1.55939 -0.228214 0
M  V30 12831 C 1241.06 2.17874 0.711589 0
M  V30 12832 C 1242.07 1.14969 1.15265 0
M  V30 12833 O 1243.26 1.41919 1.08265 0
M  V30 12834 C 1240.36 2.75294 1.97652 0
M  V30 12835 C 1239.53 4.03435 1.68994 0
M  V30 12836 C 1238.59 4.45354 2.8026 0
M  V30 12837 O 1237.62 5.12117 2.48445 0
M  V30 12838 N 1238.82 4.11588 4.0936 0
M  V30 12839 H 1241.58 2.99148 0.181757 0
M  V30 12840 H 1239.15 1.6183 -0.0474567 0
M  V30 12841 H 1241.14 3.00305 2.71292 0
M  V30 12842 H 1239.71 1.98285 2.41665 0
M  V30 12843 H 1238.93 3.8621 0.789657 0
M  V30 12844 H 1240.22 4.87015 1.47287 0
M  V30 12845 H 1239.61 3.57953 4.38048 0
M  V30 12846 H 1238.17 4.41477 4.79522 0
M  V30 12847 N 1241.6 -0.0451101 1.57535 0
M  V30 12848 C 1242.83 -0.75132 1.92777 0
M  V30 12849 C 1243.25 -1.69743 0.826599 0
M  V30 12850 O 1242.6 -1.8142 -0.198224 0
M  V30 12851 C 1242.66 -1.52218 3.2789 0
M  V30 12852 O 1242.38 -0.614059 4.33775 0
M  V30 12853 C 1243.88 -2.32699 3.77314 0
M  V30 12854 H 1241.1 -0.21211 0.636593 0
M  V30 12855 H 1243.64 -0.0074174 2.04499 0
M  V30 12856 H 1241.8 -2.2181 3.17614 0
M  V30 12857 H 1242.21 -1.15294 5.11671 0
M  V30 12858 H 1243.68 -2.82205 4.7441 0
M  V30 12859 H 1244.16 -3.13414 3.07682 0
M  V30 12860 H 1244.77 -1.68212 3.90621 0
M  V30 12861 N 1243.08 -1.54377 -0.317073 0
M  V30 12862 C 1244.5 -1.45232 -0.6618 0
M  V30 12863 C 1244.7 -0.630457 -1.91383 0
M  V30 12864 O 1243.75 -0.13181 -2.52156 0
M  V30 12865 C 1245.07 -2.89025 -0.829761 0
M  V30 12866 C 1246.62 -2.98967 -0.926685 0
M  V30 12867 C 1247.09 -4.43923 -1.12677 0
M  V30 12868 N 1248.58 -4.47564 -1.19335 0
M  V30 12869 C 1249.32 -5.56887 -1.36617 0
M  V30 12870 N 1248.81 -6.76167 -1.50899 0
M  V30 12871 N 1250.61 -5.44546 -1.39377 0
M  V30 12872 H 1242.76 -2.0629 0.505766 0
M  V30 12873 H 1245.02 -0.933615 0.164522 0
M  V30 12874 H 1244.73 -3.51695 0.0190945 0
M  V30 12875 H 1244.6 -3.35515 -1.72364 0
M  V30 12876 H 1246.99 -2.36421 -1.76604 0
M  V30 12877 H 1247.07 -2.55798 -0.00913402 0
M  V30 12878 H 1246.71 -5.07059 -0.29224 0
M  V30 12879 H 1246.64 -4.84708 -2.05829 0
M  V30 12880 H 1249.13 -3.61623 -1.09715 0
M  V30 12881 H 1249.45 -7.55242 -1.63796 0
M  V30 12882 H 1247.79 -6.79062 -1.47985 0
M  V30 12883 H 1250.98 -4.50311 -1.27819 0
M  V30 12884 H 1251.15 -6.29799 -1.52502 0
M  V30 12885 N 1244.56 0.579466 -1.4656 0
M  V30 12886 C 1245.52 1.67033 -1.56948 0
M  V30 12887 C 1246.52 1.54481 -0.446361 0
M  V30 12888 O 1247.71 1.5904 -0.710767 0
M  V30 12889 C 1244.85 3.06474 -1.49286 0
M  V30 12890 H 1246.04 1.59179 -2.54169 0
M  V30 12891 H 1243.59 0.797573 -1.34419 0
M  V30 12892 H 1244.33 3.1988 -0.533572 0
M  V30 12893 H 1244.11 3.16993 -2.30776 0
M  V30 12894 H 1245.6 3.85879 -1.59648 0
M  V30 12895 N 1246.04 1.3432 0.824371 0
M  V30 12896 C 1247 1.25672 1.91675 0
M  V30 12897 C 1248 0.172269 1.59875 0
M  V30 12898 O 1249.19 0.424794 1.68941 0
M  V30 12899 C 1246.32 0.939928 3.27686 0
M  V30 12900 H 1247.52 2.22785 2.00766 0
M  V30 12901 H 1245.07 1.18587 1.01817 0
M  V30 12902 H 1245.8 -0.0280898 3.24288 0
M  V30 12903 H 1245.59 1.72432 3.5215 0
M  V30 12904 H 1247.08 0.904553 4.07686 0
M  V30 12905 N 1247.52 -1.0444 1.18026 0
M  V30 12906 C 1248.76 -1.77838 0.974756 0
M  V30 12907 C 1249.1 -1.87792 -0.494755 0
M  V30 12908 O 1248.37 -1.38327 -1.36733 0
M  V30 12909 C 1248.65 -3.21315 1.62569 0
M  V30 12910 C 1248.51 -3.19327 3.16781 0
M  V30 12911 C 1249.83 -4.19337 1.33583 0
M  V30 12912 H 1246.94 -0.645575 0.35553 0
M  V30 12913 H 1249.59 -1.22023 1.45638 0
M  V30 12914 H 1247.74 -3.68974 1.21617 0
M  V30 12915 H 1249.41 -2.79687 3.66842 0
M  V30 12916 H 1247.65 -2.57461 3.49137 0
M  V30 12917 H 1248.32 -4.20626 3.5746 0
M  V30 12918 H 1250.8 -3.80208 1.69059 0
M  V30 12919 H 1249.67 -5.17953 1.81702 0
M  V30 12920 H 1249.94 -4.41346 0.258016 0
M  V30 12921 N 1248.99 -0.981699 -1.2329 0
M  V30 12922 C 1249.9 -0.531296 -2.28505 0
M  V30 12923 C 1250.92 0.414531 -1.6899 0
M  V30 12924 O 1252.1 0.284129 -1.99386 0
M  V30 12925 C 1249.16 0.157864 -3.4634 0
M  V30 12926 C 1248.22 -0.829527 -4.21209 0
M  V30 12927 C 1247.46 -0.17316 -5.33419 0
M  V30 12928 O 1247.68 1.03549 -5.60922 0
M  V30 12929 O 1246.61 -0.872385 -5.95544 0
M  V30 12930 H 1250.44 -1.40633 -2.69177 0
M  V30 12931 H 1248.02 -0.749395 -1.29246 0
M  V30 12932 H 1249.91 0.544394 -4.17869 0
M  V30 12933 H 1248.58 1.00764 -3.07617 0
M  V30 12934 H 1247.49 -1.26678 -3.51999 0
M  V30 12935 H 1248.82 -1.64815 -4.63785 0
M  V30 12936 N 1250.47 1.3842 -0.753509 0
M  V30 12937 C 1251.72 1.99723 -0.309021 0
M  V30 12938 C 1252.04 1.60111 1.11308 0
M  V30 12939 O 1251.31 0.85792 1.76115 0
M  V30 12940 H 1249.89 0.738667 -0.111266 0
M  V30 12941 H 1252.55 1.69186 -0.967586 0
M  V30 12942 H 1251.65 3.09874 -0.372095 0
M  V30 12943 N 1251.95 0.502579 1.49372 0
M  V30 12944 C 1253.18 -0.0381429 2.06865 0
M  V30 12945 C 1253.59 -1.30674 1.36271 0
M  V30 12946 O 1252.95 -1.77078 0.441532 0
M  V30 12947 C 1253 -0.294068 3.60302 0
M  V30 12948 O 1252.72 0.924244 4.2824 0
M  V30 12949 C 1254.22 -0.878253 4.34513 0
M  V30 12950 H 1251.44 0.0211756 0.670666 0
M  V30 12951 H 1253.99 0.700387 1.92132 0
M  V30 12952 H 1252.14 -0.982583 3.74732 0
M  V30 12953 H 1252.56 0.688062 5.19967 0
M  V30 12954 H 1254.03 -1.0069 5.42739 0
M  V30 12955 H 1254.51 -1.87643 3.97098 0
M  V30 12956 H 1255.11 -0.227157 4.24693 0
M  V30 12957 N 1253.43 -1.55816 0.23648 0
M  V30 12958 C 1254.68 -1.98294 -0.390373 0
M  V30 12959 C 1255 -1.12573 -1.59224 0
M  V30 12960 O 1254.27 -0.206128 -1.94813 0
M  V30 12961 H 1252.85 -0.732349 -0.14722 0
M  V30 12962 H 1255.51 -1.92037 0.332848 0
M  V30 12963 H 1254.61 -3.03996 -0.706595 0
M  V30 12964 N 1254.91 0.036755 -1.57557 0
M  V30 12965 C 1255.84 1.03939 -2.09091 0
M  V30 12966 C 1256.82 1.38196 -0.991761 0
M  V30 12967 O 1258 1.47214 -1.26656 0
M  V30 12968 C 1255.13 2.34263 -2.56394 0
M  V30 12969 C 1254.09 2.14269 -3.70504 0
M  V30 12970 C 1253.41 3.50286 -4.03985 0
M  V30 12971 C 1254.71 1.53514 -4.9923 0
M  V30 12972 H 1256.41 0.610429 -2.93111 0
M  V30 12973 H 1253.95 0.292183 -1.41005 0
M  V30 12974 H 1255.91 3.04727 -2.91066 0
M  V30 12975 H 1254.63 2.79205 -1.69447 0
M  V30 12976 H 1253.29 1.46239 -3.36169 0
M  V30 12977 H 1252.94 3.92861 -3.14116 0
M  V30 12978 H 1252.64 3.37735 -4.80842 0
M  V30 12979 H 1254.16 4.22124 -4.41184 0
M  V30 12980 H 1255.57 2.13885 -5.31908 0
M  V30 12981 H 1253.97 1.51561 -5.80646 0
M  V30 12982 H 1255.04 0.500126 -4.82314 0
M  V30 12983 N 1256.39 1.54543 0.308881 0
M  V30 12984 C 1257.63 1.73107 1.043 0
M  V30 12985 C 1257.95 0.515481 1.88063 0
M  V30 12986 O 1257.22 -0.47036 1.90169 0
M  V30 12987 H 1255.8 0.638289 0.388068 0
M  V30 12988 H 1258.47 1.9188 0.341769 0
M  V30 12989 H 1257.56 2.61697 1.70063 0
M  V30 12990 N 1257.86 -0.571685 1.46866 0
M  V30 12991 C 1258.79 -1.68994 1.61131 0
M  V30 12992 C 1259.77 -1.63728 0.461222 0
M  V30 12993 O 1260.96 -1.81574 0.688813 0
M  V30 12994 C 1258.09 -3.07638 1.61172 0
M  V30 12995 C 1257.04 -3.27742 2.75262 0
M  V30 12996 C 1256.37 -4.67025 2.60368 0
M  V30 12997 C 1257.67 -3.14511 4.16989 0
M  V30 12998 H 1259.36 -1.57311 2.54742 0
M  V30 12999 H 1256.91 -0.755382 1.22597 0
M  V30 13000 H 1258.86 -3.857 1.69744 0
M  V30 13001 H 1257.59 -3.20245 0.641122 0
M  V30 13002 H 1256.25 -2.52083 2.66176 0
M  V30 13003 H 1255.89 -4.76413 1.61368 0
M  V30 13004 H 1255.59 -4.81428 3.36899 0
M  V30 13005 H 1257.12 -5.47242 2.70848 0
M  V30 13006 H 1258.53 -3.82407 4.27128 0
M  V30 13007 H 1256.93 -3.40431 4.94193 0
M  V30 13008 H 1258 -2.11443 4.36371 0
M  V30 13009 N 1259.34 -1.34755 -0.817236 0
M  V30 13010 C 1260.75 -1.24594 -1.39044 0
M  V30 13011 C 1261.1 0.126184 -1.95794 0
M  V30 13012 O 1260.23 1.02675 -1.90491 0
M  V30 13013 C 1260.82 -2.25592 -2.52772 0
M  V30 13014 C 1259.38 -2.19204 -3.05984 0
M  V30 13015 C 1258.53 -2.11884 -1.78886 0
M  V30 13016 H 1261.48 -1.46039 -0.621155 0
M  V30 13017 H 1261.5 -1.87622 -3.31026 0
M  V30 13018 H 1261.01 -3.25447 -2.11438 0
M  V30 13019 H 1259.11 -1.22725 -3.51809 0
M  V30 13020 H 1259.23 -3.10707 -3.64689 0
M  V30 13021 H 1257.59 -1.57694 -2.00012 0
M  V30 13022 H 1258.37 -3.13582 -1.39719 0
M  V30 13023 N 1260.82 1.03812 -1.18578 0
M  V30 13024 C 1262.07 1.76455 -0.977071 0
M  V30 13025 C 1262.38 1.8926 0.493964 0
M  V30 13026 O 1263.59 2.58781 0.821256 0
M  V30 13027 C 1262.04 3.17264 -1.69917 0
M  V30 13028 C 1261.65 3.12543 -3.20969 0
M  V30 13029 C 1263.4 3.94266 -1.57337 0
M  V30 13030 C 1261.3 4.48226 -3.85807 0
M  V30 13031 H 1260.23 0.661445 -0.361949 0
M  V30 13032 H 1262.88 1.16252 -1.41978 0
M  V30 13033 H 1261.27 3.77878 -1.18424 0
M  V30 13034 H 1262.44 2.61364 -3.79507 0
M  V30 13035 H 1260.75 2.49039 -3.33719 0
M  V30 13036 H 1263.35 4.9461 -2.03137 0
M  V30 13037 H 1263.69 4.12963 -0.526033 0
M  V30 13038 H 1264.23 3.40232 -2.06124 0
M  V30 13039 H 1260.97 4.34734 -4.90599 0
M  V30 13040 H 1260.49 4.99497 -3.32058 0
M  V30 13041 H 1262.17 5.17135 -3.88819 0
M  V30 13042 N 1262.3 0.988223 1.22768 0
M  V30 13043 C 1263.26 0.539813 2.22752 0
M  V30 13044 C 1264.26 -0.374796 1.56371 0
M  V30 13045 O 1265.45 -0.167402 1.73394 0
M  V30 13046 C 1262.58 -0.215461 3.40218 0
M  V30 13047 H 1263.78 1.42397 2.63938 0
M  V30 13048 H 1261.33 0.774933 1.35737 0
M  V30 13049 H 1262.06 -1.11581 3.045 0
M  V30 13050 H 1261.85 0.441173 3.8961 0
M  V30 13051 H 1263.34 -0.517517 4.14381 0
M  V30 13052 N 1263.78 -1.38018 0.760839 0
M  V30 13053 C 1264.72 -2.30387 0.13796 0
M  V30 13054 C 1265.69 -1.50548 -0.701754 0
M  V30 13055 O 1266.88 -1.79154 -0.656381 0
M  V30 13056 C 1264.02 -3.36993 -0.743642 0
M  V30 13057 C 1263.13 -4.31856 0.111489 0
M  V30 13058 C 1262.27 -5.25534 -0.773796 0
M  V30 13059 C 1261.3 -6.12042 0.0845311 0
M  V30 13060 N 1260.44 -6.97995 -0.758118 0
M  V30 13061 H 1265.28 -2.83077 0.931212 0
M  V30 13062 H 1262.82 -1.39361 0.470833 0
M  V30 13063 H 1264.78 -3.97417 -1.26948 0
M  V30 13064 H 1263.41 -2.85695 -1.50261 0
M  V30 13065 H 1262.46 -3.72832 0.755031 0
M  V30 13066 H 1263.77 -4.92758 0.774042 0
M  V30 13067 H 1262.92 -5.9111 -1.36653 0
M  V30 13068 H 1261.66 -4.65017 -1.47006 0
M  V30 13069 H 1260.67 -5.45455 0.689883 0
M  V30 13070 H 1261.89 -6.74629 0.777966 0
M  V30 13071 H 1259.84 -6.40018 -1.4392 0
M  V30 13072 H 1259.76 -7.55846 -0.152623 0
M  V30 13073 H 1261.02 -7.67973 -1.33559 0
M  V30 13074 N 1265.25 -0.510493 -1.49103 0
M  V30 13075 C 1266.48 0.0293113 -2.07379 0
M  V30 13076 C 1266.9 1.29195 -1.36713 0
M  V30 13077 O 1266.26 1.76204 -0.426838 0
M  V30 13078 C 1266.31 0.25629 -3.59688 0
M  V30 13079 O 1265.41 1.32907 -3.90397 0
M  V30 13080 H 1264.75 -0.0304449 -0.663302 0
M  V30 13081 H 1267.28 -0.712832 -1.91781 0
M  V30 13082 H 1267.29 0.484915 -4.05108 0
M  V30 13083 H 1265.97 -0.666163 -4.1053 0
M  V30 13084 H 1264.55 1.08464 -3.56777 0
M  V30 13085 N 1266.73 1.55688 -0.24474 0
M  V30 13086 C 1267.66 2.24272 0.64995 0
M  V30 13087 C 1268.64 1.22226 1.183 0
M  V30 13088 O 1269.83 1.50873 1.22274 0
M  V30 13089 C 1266.96 2.94053 1.84798 0
M  V30 13090 C 1265.91 4.02769 1.44779 0
M  V30 13091 C 1265.24 4.59965 2.72647 0
M  V30 13092 C 1266.54 5.18601 0.62047 0
M  V30 13093 H 1268.23 2.99298 0.0780654 0
M  V30 13094 H 1265.78 1.43955 0.0361069 0
M  V30 13095 H 1267.73 3.40732 2.47951 0
M  V30 13096 H 1266.45 2.16511 2.44521 0
M  V30 13097 H 1265.11 3.56856 0.839609 0
M  V30 13098 H 1264.76 3.79126 3.30564 0
M  V30 13099 H 1264.46 5.33352 2.46596 0
M  V30 13100 H 1265.99 5.09376 3.36703 0
M  V30 13101 H 1267.4 5.61519 1.15625 0
M  V30 13102 H 1265.8 5.98364 0.456097 0
M  V30 13103 H 1266.87 4.83503 -0.367798 0
M  V30 13104 N 1268.21 -0.0283989 1.57574 0
M  V30 13105 C 1269.46 -0.720142 1.89583 0
M  V30 13106 C 1269.79 -1.7497 0.842562 0
M  V30 13107 O 1269.06 -1.93979 -0.142294 0
M  V30 13108 C 1269.35 -1.38909 3.32229 0
M  V30 13109 C 1269.2 -0.372998 4.48251 0
M  V30 13110 C 1270.52 -2.32289 3.73804 0
M  V30 13111 H 1267.64 -0.26033 0.689491 0
M  V30 13112 H 1270.28 0.0170607 1.89992 0
M  V30 13113 H 1268.43 -2.01744 3.32011 0
M  V30 13114 H 1270.1 0.253492 4.60603 0
M  V30 13115 H 1268.34 0.30765 4.32708 0
M  V30 13116 H 1269.02 -0.879549 5.44948 0
M  V30 13117 H 1271.49 -1.79497 3.75393 0
M  V30 13118 H 1270.37 -2.76075 4.74419 0
M  V30 13119 H 1270.63 -3.18992 3.06099 0
M  V30 13120 N 1269.69 -1.54705 -0.300681 0
M  V30 13121 C 1270.96 -1.6468 -1.05546 0
M  V30 13122 C 1271.34 -0.495292 -2.05207 0
M  V30 13123 O 1270.69 0.507944 -2.22783 0
M  V30 13124 C 1270.9 -3.02702 -1.73703 0
M  V30 13125 C 1272.25 -3.59527 -2.25888 0
M  V30 13126 O 1273.27 -3.05156 -1.83735 0
M  V30 13127 O 1272.13 -4.54727 -3.03126 0
M  V30 13128 H 1269.23 -0.667769 -0.487867 0
M  V30 13129 H 1271.77 -1.6705 -0.298743 0
M  V30 13130 H 1270.55 -3.7795 -1.01338 0
M  V30 13131 H 1270.17 -3.0411 -2.5613 0
M  V30 13132 N 1271.17 0.563888 -1.47167 0
M  V30 13133 C 1272.1 1.68137 -1.62025 0
M  V30 13134 C 1273.08 1.63481 -0.469899 0
M  V30 13135 O 1274.26 1.81206 -0.698432 0
M  V30 13136 C 1271.39 3.06779 -1.62801 0
M  V30 13137 C 1270.35 3.26278 -2.76996 0
M  V30 13138 C 1269.67 4.65638 -2.62841 0
M  V30 13139 C 1270.97 3.12295 -4.18651 0
M  V30 13140 H 1272.67 1.55958 -2.55573 0
M  V30 13141 H 1270.21 0.74887 -1.22996 0
M  V30 13142 H 1272.17 3.84795 -1.71787 0
M  V30 13143 H 1270.89 3.19901 -0.658097 0
M  V30 13144 H 1269.55 2.50668 -2.67509 0
M  V30 13145 H 1269.2 4.75551 -1.63892 0
M  V30 13146 H 1268.9 4.79635 -3.39447 0
M  V30 13147 H 1270.42 5.45798 -2.73746 0
M  V30 13148 H 1271.83 3.80136 -4.2915 0
M  V30 13149 H 1270.23 3.37805 -4.95992 0
M  V30 13150 H 1271.3 2.09126 -4.37486 0
M  V30 13151 N 1272.64 1.35187 0.810078 0
M  V30 13152 C 1273.59 1.24366 1.91094 0
M  V30 13153 C 1274.58 0.139718 1.60292 0
M  V30 13154 O 1275.77 0.370609 1.73077 0
M  V30 13155 C 1272.9 1.01434 3.27973 0
M  V30 13156 C 1271.99 2.16203 3.64852 0
M  V30 13157 N 1272.38 3.41408 3.73195 0
M  V30 13158 C 1270.67 2.07512 3.94784 0
M  V30 13159 C 1271.38 4.16858 4.05714 0
M  V30 13160 N 1270.35 3.45579 4.19614 0
M  V30 13161 H 1274.15 2.19232 1.95741 0
M  V30 13162 H 1271.67 1.2761 1.00447 0
M  V30 13163 H 1273.66 0.91771 4.06674 0
M  V30 13164 H 1272.32 0.074495 3.24615 0
M  V30 13165 H 1273.34 3.75802 3.56361 0
M  V30 13166 H 1270.01 1.21362 3.99472 0
M  V30 13167 H 1271.4 5.25039 4.19266 0
M  V30 13168 N 1274.12 -1.03182 1.19127 0
M  V30 13169 C 1275.09 -2.09559 0.928307 0
M  V30 13170 C 1276.09 -1.60548 -0.0899992 0
M  V30 13171 O 1277.28 -1.736 0.144422 0
M  V30 13172 C 1274.41 -3.38609 0.394561 0
M  V30 13173 H 1275.6 -2.34321 1.87173 0
M  V30 13174 H 1273.15 -1.19746 1.00452 0
M  V30 13175 H 1273.89 -3.19515 -0.555046 0
M  V30 13176 H 1273.67 -3.75502 1.12873 0
M  V30 13177 H 1275.16 -4.16969 0.229569 0
M  V30 13178 N 1275.6 -0.99472 -1.22242 0
M  V30 13179 C 1276.85 -0.670275 -1.90661 0
M  V30 13180 C 1277.17 0.800369 -1.77818 0
M  V30 13181 O 1276.44 1.57381 -1.16653 0
M  V30 13182 H 1275.02 -0.244925 -0.705706 0
M  V30 13183 H 1277.68 -1.26162 -1.48557 0
M  V30 13184 H 1276.78 -0.934408 -2.97784 0
M  V30 13185 N 1277.08 1.37613 -0.768148 0
M  V30 13186 C 1278.03 2.3218 -0.13974 0
M  V30 13187 C 1279.02 1.54754 0.689023 0
M  V30 13188 O 1280.23 1.70177 0.586489 0
M  V30 13189 H 1276.6 0.751536 -0.0264001 0
M  V30 13190 H 1278.57 2.82768 -0.953139 0
M  V30 13191 C 1277.32 3.39997 0.727829 0
M  V30 13192 H 1276.64 3.99676 0.0994851 0
M  V30 13193 H 1278.08 4.08538 1.13456 0
M  V30 13194 C 1276.54 2.79778 1.87686 0
M  V30 13195 O 1277.07 2.70241 2.97208 0
M  V30 13196 N 1275.28 2.37373 1.67637 0
M  V30 13197 H 1274.83 2.4533 0.785552 0
M  V30 13198 H 1274.78 1.97426 2.44684 0
M  V30 13199 N 1278.56 0.518393 1.4883 0
M  V30 13200 C 1279.49 -0.239685 2.32267 0
M  V30 13201 C 1280.47 -0.94613 1.41359 0
M  V30 13202 O 1281.65 -0.934162 1.70256 0
M  V30 13203 C 1278.78 -1.29411 3.22289 0
M  V30 13204 C 1277.74 -0.706504 4.22129 0
M  V30 13205 C 1277.06 -1.86273 5.01205 0
M  V30 13206 C 1278.36 0.314079 5.21355 0
M  V30 13207 H 1280.06 0.4568 2.95895 0
M  V30 13208 H 1277.6 0.221126 1.42292 0
M  V30 13209 H 1279.56 -1.8323 3.7948 0
M  V30 13210 H 1278.28 -2.02001 2.56638 0
M  V30 13211 H 1276.94 -0.189924 3.66108 0
M  V30 13212 H 1276.59 -2.57674 4.31988 0
M  V30 13213 H 1276.29 -1.47554 5.68772 0
M  V30 13214 H 1277.81 -2.40492 5.61245 0
M  V30 13215 H 1279.22 -0.136604 5.73137 0
M  V30 13216 H 1277.62 0.618026 5.96909 0
M  V30 13217 H 1278.69 1.22394 4.69199 0
M  V30 13218 N 1280.03 -1.55556 0.252993 0
M  V30 13219 C 1281 -2.20351 -0.630705 0
M  V30 13220 C 1282 -1.17461 -1.09816 0
M  V30 13221 O 1283.19 -1.42505 -1.00189 0
M  V30 13222 C 1280.32 -2.85192 -1.86757 0
M  V30 13223 H 1281.51 -2.99829 -0.0652939 0
M  V30 13224 H 1279.07 -1.563 0.00347982 0
M  V30 13225 H 1279.8 -2.09669 -2.47406 0
M  V30 13226 H 1279.59 -3.60569 -1.54053 0
M  V30 13227 H 1281.08 -3.34762 -2.49648 0
M  V30 13228 N 1281.51 0.0200419 -1.57587 0
M  V30 13229 C 1282.76 0.708115 -1.88861 0
M  V30 13230 C 1283.07 1.76036 -0.852693 0
M  V30 13231 O 1284.28 2.50165 -1.05497 0
M  V30 13232 C 1282.74 1.31057 -3.3519 0
M  V30 13233 C 1282.34 0.294202 -4.47033 0
M  V30 13234 C 1284.09 1.97799 -3.756 0
M  V30 13235 C 1282 0.905508 -5.84427 0
M  V30 13236 H 1280.93 0.268236 -0.704674 0
M  V30 13237 H 1283.58 -0.0372162 -1.83462 0
M  V30 13238 H 1281.96 2.1059 -3.35362 0
M  V30 13239 H 1283.13 -0.475081 -4.58344 0
M  V30 13240 H 1281.45 -0.271644 -4.15513 0
M  V30 13241 H 1284.04 2.44404 -4.75574 0
M  V30 13242 H 1284.39 2.80004 -3.08064 0
M  V30 13243 H 1284.92 1.25028 -3.77641 0
M  V30 13244 H 1281.66 0.122685 -6.55385 0
M  V30 13245 H 1281.18 1.64442 -5.76818 0
M  V30 13246 H 1282.86 1.41016 -6.31446 0
M  V30 13247 N 1282.99 1.54862 0.292472 0
M  V30 13248 C 1283.9 1.89472 1.38339 0
M  V30 13249 C 1284.92 0.789783 1.55043 0
M  V30 13250 O 1286.09 1.08705 1.69544 0
M  V30 13251 C 1283.16 2.14244 2.72581 0
M  V30 13252 C 1282.22 3.37913 2.64789 0
M  V30 13253 C 1281.45 3.61494 3.92629 0
M  V30 13254 O 1281.67 2.87931 4.92394 0
M  V30 13255 O 1280.61 4.55019 3.94007 0
M  V30 13256 H 1284.43 2.82298 1.11989 0
M  V30 13257 H 1282.02 1.41161 0.489291 0
M  V30 13258 H 1283.9 2.31689 3.51991 0
M  V30 13259 H 1282.58 1.24603 2.98757 0
M  V30 13260 H 1281.48 3.25823 1.83821 0
M  V30 13261 H 1282.82 4.27711 2.43565 0
M  V30 13262 N 1284.47 -0.556076 1.47464 0
M  V30 13263 C 1285.7 -1.33858 1.57764 0
M  V30 13264 C 1286.11 -1.87415 0.22825 0
M  V30 13265 O 1285.47 -1.65054 -0.778674 0
M  V30 13266 C 1285.52 -2.5077 2.60378 0
M  V30 13267 O 1285.24 -1.99426 3.90078 0
M  V30 13268 C 1286.74 -3.42965 2.80873 0
M  V30 13269 H 1283.96 -0.408003 0.532705 0
M  V30 13270 H 1286.51 -0.673501 1.93091 0
M  V30 13271 H 1284.66 -3.13214 2.27982 0
M  V30 13272 H 1285.07 -2.75759 4.46158 0
M  V30 13273 H 1286.55 -4.21412 3.56533 0
M  V30 13274 H 1287.03 -3.96579 1.88737 0
M  V30 13275 H 1287.63 -2.86336 3.14471 0
M  V30 13276 N 1285.95 -1.35615 -0.802897 0
M  V30 13277 C 1286.91 -1.28705 -1.89651 0
M  V30 13278 C 1287.91 -0.197681 -1.5958 0
M  V30 13279 O 1289.1 -0.451618 -1.68244 0
M  V30 13280 C 1286.23 -0.991941 -3.26149 0
M  V30 13281 H 1287.43 -2.25951 -1.97196 0
M  V30 13282 H 1284.98 -1.20192 -0.999179 0
M  V30 13283 H 1285.71 -0.0235051 -3.24291 0
M  V30 13284 H 1285.5 -1.78013 -3.49362 0
M  V30 13285 H 1286.99 -0.969298 -4.06195 0
M  V30 13286 N 1287.43 1.02549 -1.19673 0
M  V30 13287 C 1288.84 1.57454 -1.00325 0
M  V30 13288 C 1289.19 1.91136 0.442889 0
M  V30 13289 O 1288.31 1.7126 1.32284 0
M  V30 13290 C 1288.91 2.86091 -1.81486 0
M  V30 13291 C 1287.47 3.37557 -1.6653 0
M  V30 13292 C 1286.61 2.1096 -1.79975 0
M  V30 13293 H 1289.56 0.850364 -1.33994 0
M  V30 13294 H 1289.59 3.5713 -1.31296 0
M  V30 13295 H 1289.1 2.61546 -2.86733 0
M  V30 13296 H 1287.2 3.67083 -0.638834 0
M  V30 13297 H 1287.31 4.1036 -2.47269 0
M  V30 13298 H 1285.68 2.22993 -1.23071 0
M  V30 13299 H 1286.46 1.88852 -2.86688 0
M  V30 13300 N 1288.9 1.00119 1.21713 0
M  V30 13301 C 1290.15 0.680377 1.90303 0
M  V30 13302 C 1290.47 -0.790927 1.7824 0
M  V30 13303 O 1289.74 -1.5676 1.17486 0
M  V30 13304 H 1288.32 0.248665 0.704397 0
M  V30 13305 H 1290.98 1.26948 1.47886 0
M  V30 13306 H 1290.08 0.950188 2.97284 0
M  V30 13307 N 1290.38 -1.37203 0.775435 0
M  V30 13308 C 1291.31 -2.32819 0.17826 0
M  V30 13309 C 1292.29 -1.55963 -0.678944 0
M  V30 13310 O 1293.48 -1.84183 -0.615648 0
M  V30 13311 C 1290.61 -3.40198 -0.698768 0
M  V30 13312 C 1289.56 -4.27961 0.057423 0
M  V30 13313 C 1288.89 -5.26385 -0.93929 0
M  V30 13314 C 1290.19 -5.07402 1.23856 0
M  V30 13315 H 1291.88 -2.8301 0.977028 0
M  V30 13316 H 1289.43 -1.3607 0.471274 0
M  V30 13317 H 1291.38 -4.06067 -1.12637 0
M  V30 13318 H 1290.1 -2.88541 -1.53009 0
M  V30 13319 H 1288.76 -3.63628 0.465848 0
M  V30 13320 H 1288.41 -4.71007 -1.76527 0
M  V30 13321 H 1288.11 -5.85966 -0.437844 0
M  V30 13322 H 1289.64 -5.9513 -1.36576 0
M  V30 13323 H 1291.05 -5.6639 0.887423 0
M  V30 13324 H 1289.45 -5.76327 1.67234 0
M  V30 13325 H 1290.52 -4.3986 2.04085 0
M  V30 13326 N 1291.86 -0.526279 -1.48553 0
M  V30 13327 C 1293.11 0.00914839 -2.02098 0
M  V30 13328 C 1293.43 1.35119 -1.40598 0
M  V30 13329 O 1292.7 1.87422 -0.570065 0
M  V30 13330 H 1291.28 0.00636935 -0.746973 0
M  V30 13331 H 1293.94 -0.689269 -1.82305 0
M  V30 13332 H 1293.04 0.120212 -3.11868 0
M  V30 13333 N 1293.34 1.5542 -0.261239 0
M  V30 13334 C 1294.57 2.03687 0.363225 0
M  V30 13335 C 1294.98 1.14007 1.50492 0
M  V30 13336 O 1294.34 0.157349 1.8182 0
M  V30 13337 C 1294.39 3.51184 0.857435 0
M  V30 13338 O 1294.11 4.37449 -0.238776 0
M  V30 13339 C 1295.61 4.15277 1.55113 0
M  V30 13340 H 1292.83 0.665641 0.0846356 0
M  V30 13341 H 1295.37 2.00761 -0.389288 0
M  V30 13342 H 1293.53 3.54599 1.56008 0
M  V30 13343 H 1293.94 5.24316 0.138821 0
M  V30 13344 H 1295.42 5.20129 1.8485 0
M  V30 13345 H 1295.89 3.62619 2.47799 0
M  V30 13346 H 1296.5 4.15826 0.892695 0
M  V30 13347 N 1294.82 -0.0116844 1.57596 0
M  V30 13348 C 1296.04 -0.71026 1.94327 0
M  V30 13349 C 1296.46 -1.67952 0.862418 0
M  V30 13350 O 1295.82 -1.818 -0.159698 0
M  V30 13351 C 1295.87 -1.45228 3.31045 0
M  V30 13352 O 1295.59 -0.52191 4.3498 0
M  V30 13353 C 1297.09 -2.24644 3.82165 0
M  V30 13354 H 1294.31 -0.198559 0.640949 0
M  V30 13355 H 1296.85 0.0359615 2.04468 0
M  V30 13356 H 1295.01 -2.15023 3.22248 0
M  V30 13357 H 1295.42 -1.04415 5.14002 0
M  V30 13358 H 1296.9 -2.72078 4.80289 0
M  V30 13359 H 1297.37 -3.06817 3.14261 0
M  V30 13360 H 1297.98 -1.59888 3.94101 0
M  V30 13361 N 1296.29 -1.55015 -0.284256 0
M  V30 13362 C 1297.54 -1.7535 -1.01884 0
M  V30 13363 C 1297.87 -0.546825 -1.86342 0
M  V30 13364 O 1297.15 0.455832 -1.89083 0
M  V30 13365 C 1297.43 -3.05219 -1.91084 0
M  V30 13366 C 1297.28 -4.36219 -1.09694 0
M  V30 13367 C 1298.6 -3.31056 -2.89983 0
M  V30 13368 H 1295.72 -0.637981 -0.368984 0
M  V30 13369 H 1298.36 -1.87741 -0.292116 0
M  V30 13370 H 1296.51 -2.94786 -2.53048 0
M  V30 13371 H 1298.19 -4.58594 -0.498876 0
M  V30 13372 H 1296.43 -4.31951 -0.400078 0
M  V30 13373 H 1297.1 -5.23392 -1.75399 0
M  V30 13374 H 1299.58 -3.41209 -2.38151 0
M  V30 13375 H 1298.45 -4.23212 -3.49547 0
M  V30 13376 H 1298.71 -2.50153 -3.64521 0
M  V30 13377 N 1297.77 0.548248 -1.47757 0
M  V30 13378 C 1299 1.3302 -1.58472 0
M  V30 13379 C 1299.41 1.87292 -0.238186 0
M  V30 13380 O 1298.77 1.65465 0.76991 0
M  V30 13381 C 1298.82 2.49386 -2.61704 0
M  V30 13382 O 1298.54 1.97355 -3.9113 0
M  V30 13383 C 1300.04 3.41471 -2.82688 0
M  V30 13384 H 1297.26 0.405172 -0.534861 0
M  V30 13385 H 1299.81 0.663251 -1.93446 0
M  V30 13386 H 1297.96 3.12001 -2.29639 0
M  V30 13387 H 1298.38 2.7339 -4.47614 0
M  V30 13388 H 1299.85 4.19516 -3.58762 0
M  V30 13389 H 1300.33 3.95573 -1.90837 0
M  V30 13390 H 1300.93 2.84664 -3.15985 0
M  V30 13391 N 1299.25 1.36039 0.795694 0
M  V30 13392 C 1300.5 1.29251 1.54845 0
M  V30 13393 C 1300.81 -0.127926 1.95181 0
M  V30 13394 O 1302.02 -0.318141 2.6963 0
M  V30 13395 C 1300.47 2.26736 2.79497 0
M  V30 13396 C 1300.08 3.74183 2.46355 0
M  V30 13397 C 1301.83 2.28913 3.5749 0
M  V30 13398 C 1299.73 4.63462 3.67365 0
M  V30 13399 H 1298.66 0.48027 0.581255 0
M  V30 13400 H 1301.31 1.61366 0.873693 0
M  V30 13401 H 1299.7 1.87608 3.4874 0
M  V30 13402 H 1300.87 4.22011 1.8505 0
M  V30 13403 H 1299.18 3.7472 1.81586 0
M  V30 13404 H 1301.78 2.92828 4.47388 0
M  V30 13405 H 1302.12 1.2959 3.95616 0
M  V30 13406 H 1302.66 2.66627 2.9522 0
M  V30 13407 H 1299.4 5.63824 3.34339 0
M  V30 13408 H 1298.92 4.20354 4.27858 0
M  V30 13409 H 1300.6 4.79424 4.34467 0
M  V30 13410 N 1300.73 -1.01913 1.20215 0
M  V30 13411 C 1301.64 -2.13864 0.964328 0
M  V30 13412 C 1302.65 -1.73821 -0.0789556 0
M  V30 13413 O 1303.83 -2.01111 0.107914 0
M  V30 13414 C 1300.9 -3.42827 0.516757 0
M  V30 13415 C 1299.96 -3.97127 1.63059 0
M  V30 13416 C 1299.19 -5.19935 1.20428 0
M  V30 13417 O 1299.41 -5.70355 0.0719119 0
M  V30 13418 O 1298.35 -5.67322 2.01071 0
M  V30 13419 H 1302.17 -2.36795 1.90162 0
M  V30 13420 H 1299.76 -1.1226 0.985803 0
M  V30 13421 H 1301.64 -4.20493 0.276272 0
M  V30 13422 H 1300.31 -3.21318 -0.391983 0
M  V30 13423 H 1299.22 -3.20752 1.92533 0
M  V30 13424 H 1300.55 -4.2302 2.51624 0
M  V30 13425 N 1302.21 -1.00763 -1.2118 0
M  V30 13426 C 1303.46 -0.687197 -1.89633 0
M  V30 13427 C 1303.77 0.78566 -1.79128 0
M  V30 13428 O 1304.97 1.21828 -2.42632 0
M  V30 13429 C 1303.43 -1.1787 -3.40051 0
M  V30 13430 C 1303.04 -2.67782 -3.59161 0
M  V30 13431 C 1304.78 -0.933277 -4.14114 0
M  V30 13432 C 1302.69 -3.10459 -5.03358 0
M  V30 13433 H 1301.62 -0.253342 -0.710165 0
M  V30 13434 H 1304.27 -1.21914 -1.37147 0
M  V30 13435 H 1302.65 -0.574791 -3.91806 0
M  V30 13436 H 1303.83 -3.33645 -3.17833 0
M  V30 13437 H 1302.14 -2.90368 -2.98455 0
M  V30 13438 H 1304.74 -1.22766 -5.20416 0
M  V30 13439 H 1305.08 0.130431 -4.16096 0
M  V30 13440 H 1305.61 -1.50011 -3.68431 0
M  V30 13441 H 1302.35 -4.16068 -5.06525 0
M  V30 13442 H 1301.87 -2.4931 -5.45531 0
M  V30 13443 H 1303.55 -3.02589 -5.71882 0
M  V30 13444 N 1303.68 1.3679 -0.7827 0
M  V30 13445 C 1304.93 1.99023 -0.351316 0
M  V30 13446 C 1305.25 1.62436 1.07887 0
M  V30 13447 O 1304.52 0.895084 1.74256 0
M  V30 13448 H 1303.1 0.736141 -0.126909 0
M  V30 13449 H 1305.77 1.67095 -1.00325 0
M  V30 13450 H 1304.86 3.09015 -0.43774 0
M  V30 13451 N 1305.16 0.53415 1.48272 0
M  V30 13452 C 1306.13 -0.215641 2.28183 0
M  V30 13453 C 1307.13 -0.863966 1.35618 0
M  V30 13454 O 1308.32 -0.723375 1.58471 0
M  V30 13455 C 1305.45 -1.31251 3.1462 0
M  V30 13456 H 1306.64 0.486014 2.95936 0
M  V30 13457 H 1304.19 0.290237 1.53582 0
M  V30 13458 H 1304.93 -2.04729 2.51508 0
M  V30 13459 H 1304.71 -0.852706 3.82716 0
M  V30 13460 H 1306.2 -1.83978 3.74889 0
M  V30 13461 O 1306.68 -1.56172 0.411396 0
M  V30 13462 H 1307.37 -1.93273 -0.128575 0
M  V30 END ATOM
M  V30 BEGIN BOND
M  V30 END BOND
M  V30 END CTAB
M  END
$$$$
