drugbank_target|Q9X4K7 Propionyl-CoA carboxylase complex B subunit (DB02912)
 OpenBabel12092120253D

  0  0  0     0  0            999 V3000
M  V30 BEGIN CTAB
M  V30 COUNTS 7971 8053 0 0 0
M  V30 BEGIN ATOM
M  V30 1 H -0.908 1.98254 -0.117106 0
M  V30 2 N 0 1.576 0 0
M  V30 3 C 0.933 2.03868 1.02534 0
M  V30 4 C 1.911 0.928543 1.3348 0
M  V30 5 O 3.095 1.19667 1.45644 0
M  V30 6 C 0.222 2.43627 2.35294 0
M  V30 7 C -0.732 3.65373 2.2001 0
M  V30 8 S 0.101 5.13292 1.52614 0
M  V30 9 C 1.257 5.56322 2.86805 0
M  V30 10 H 1.49 2.90518 0.631377 0
M  V30 11 H -0.977 1.52953 0.210867 0
M  V30 12 H 0.981 2.67203 3.11629 0
M  V30 13 H -0.358 1.57376 2.7183 0
M  V30 14 H -1.165 3.90944 3.18086 0
M  V30 15 H -1.563 3.418 1.51819 0
M  V30 16 H 0.729 5.58782 3.83104 0
M  V30 17 H 1.672 6.56266 2.65933 0
M  V30 18 H 2.08 4.83886 2.90714 0
M  V30 19 N 1.4781 -0.272755 1.55222 0
M  V30 20 C 2.7031 -1.02683 1.80197 0
M  V30 21 C 3.1281 -1.79142 0.573551 0
M  V30 22 O 2.4861 -1.74917 -0.476849 0
M  V30 23 C 2.5341 -1.9609 3.02624 0
M  V30 24 O 1.6381 -3.04863 2.77727 0
M  V30 25 H 0.9791 -0.293557 0.595584 0
M  V30 26 H 3.5091 -0.30159 2.02365 0
M  V30 27 H 3.5191 -2.38039 3.31363 0
M  V30 28 H 2.1941 -1.39851 3.91682 0
M  V30 29 H 0.7711 -2.67228 2.60084 0
M  V30 30 N 2.9562 -1.48159 -0.537278 0
M  V30 31 C 3.8662 -1.64807 -1.6696 0
M  V30 32 C 4.8822 -0.530651 -1.65711 0
M  V30 33 O 6.0582 -0.800784 -1.84796 0
M  V30 34 C 3.1232 -1.67708 -3.03438 0
M  V30 35 C 2.1842 -2.91025 -3.156 0
M  V30 36 C 1.4172 -2.93778 -4.45567 0
M  V30 37 O 1.6402 -2.05153 -5.3223 0
M  V30 38 O 0.5742 -3.85868 -4.61941 0
M  V30 39 H 4.4002 -2.6066 -1.55853 0
M  V30 40 H 1.9852 -1.31475 -0.709549 0
M  V30 41 H 3.8672 -1.7218 -3.84619 0
M  V30 42 H 2.5422 -0.750278 -3.14885 0
M  V30 43 H 1.4492 -2.92089 -2.33741 0
M  V30 44 H 2.7822 -3.83065 -3.09066 0
M  V30 45 N 4.4343 0.785586 -1.36625 0
M  V30 46 C 5.8453 1.36101 -1.27803 0
M  V30 47 C 6.1963 1.96035 0.0804875 0
M  V30 48 O 5.3213 1.92834 0.982042 0
M  V30 49 C 5.9163 2.47442 -2.31426 0
M  V30 50 C 4.4753 3.00789 -2.26281 0
M  V30 51 C 3.6223 1.73896 -2.15999 0
M  V30 52 H 6.5733 0.586928 -1.47448 0
M  V30 53 H 6.5943 3.2656 -1.95291 0
M  V30 54 H 6.1063 2.03791 -3.30289 0
M  V30 55 H 4.2073 3.48851 -1.30896 0
M  V30 56 H 4.3203 3.57343 -3.19128 0
M  V30 57 H 2.6843 1.9628 -1.62316 0
M  V30 58 H 3.4673 1.32368 -3.16755 0
M  V30 59 N 5.9124 1.20967 1.01018 0
M  V30 60 C 6.8224 0.980157 2.13143 0
M  V30 61 C 7.8384 -0.0660665 1.73875 0
M  V30 62 O 9.0144 0.122821 2.01025 0
M  V30 63 C 6.0794 0.54216 3.42435 0
M  V30 64 C 5.1404 1.65999 3.95908 0
M  V30 65 C 4.3734 1.2428 5.19028 0
M  V30 66 O 4.5964 0.114196 5.70286 0
M  V30 67 O 3.5304 2.05271 5.65816 0
M  V30 68 H 7.3564 1.91913 2.35379 0
M  V30 69 H 4.9414 0.994099 1.11526 0
M  V30 70 H 6.8234 0.30744 4.20277 0
M  V30 71 H 5.4984 -0.36815 3.216 0
M  V30 72 H 4.4054 1.94906 3.19316 0
M  V30 73 H 5.7384 2.54753 4.21143 0
M  V30 74 N 7.3905 -1.2043 1.01659 0
M  V30 75 C 8.3005 -2.2689 0.596484 0
M  V30 76 C 9.3165 -1.70107 -0.36599 0
M  V30 77 O 10.4925 -2.00117 -0.226942 0
M  V30 78 C 7.5575 -3.4665 -0.0586659 0
M  V30 79 C 6.6185 -4.18662 0.949751 0
M  V30 80 C 5.8515 -5.32705 0.32577 0
M  V30 81 O 6.0745 -5.63656 -0.874509 0
M  V30 82 O 5.0085 -5.92803 1.04249 0
M  V30 83 H 8.8345 -2.65041 1.4828 0
M  V30 84 H 6.4195 -1.27048 0.786082 0
M  V30 85 H 8.3015 -4.19256 -0.424564 0
M  V30 86 H 6.9765 -3.10375 -0.91918 0
M  V30 87 H 5.8835 -3.48229 1.36702 0
M  V30 88 H 7.2165 -4.58878 1.78023 0
M  V30 89 N 8.8686 -0.792821 -1.36206 0
M  V30 90 C 9.8006 -0.151469 -2.28699 0
M  V30 91 C 10.8136 0.641262 -1.49638 0
M  V30 92 O 12.0026 0.475885 -1.72039 0
M  V30 93 C 9.1026 0.808424 -3.29117 0
M  V30 94 C 8.2756 0.0650202 -4.37352 0
M  V30 95 C 7.3346 0.941358 -5.17711 0
M  V30 96 O 6.3606 0.397352 -5.67811 0
M  V30 97 N 7.5626 2.2652 -5.3448 0
M  V30 98 H 10.3276 -0.945982 -2.84379 0
M  V30 99 H 7.8886 -0.647032 -1.48409 0
M  V30 100 H 9.8806 1.3986 -3.79765 0
M  V30 101 H 8.4506 1.5038 -2.74052 0
M  V30 102 H 7.6706 -0.706255 -3.87822 0
M  V30 103 H 8.9586 -0.447847 -5.06825 0
M  V30 104 H 8.3566 2.73128 -4.95396 0
M  V30 105 H 6.9136 2.80493 -5.88359 0
M  V30 106 N 10.3467 1.47872 -0.545128 0
M  V30 107 C 11.2787 2.27869 0.246621 0
M  V30 108 C 12.2917 1.36282 0.890561 0
M  V30 109 O 13.4807 1.61207 0.766449 0
M  V30 110 C 10.5807 3.10159 1.36582 0
M  V30 111 C 9.7537 4.29627 0.820954 0
M  V30 112 C 8.8127 4.93607 1.82314 0
M  V30 113 O 7.8387 5.52366 1.37406 0
M  V30 114 N 9.0407 4.87211 3.15603 0
M  V30 115 H 11.8057 2.96459 -0.439539 0
M  V30 116 H 9.3667 1.57367 -0.380421 0
M  V30 117 H 11.3587 3.49829 2.03474 0
M  V30 118 H 9.9287 2.43891 1.9554 0
M  V30 119 H 9.1487 3.94192 -0.0244032 0
M  V30 120 H 10.4367 5.06928 0.436063 0
M  V30 121 H 9.8347 4.40651 3.54744 0
M  V30 122 H 8.3917 5.30937 3.78087 0
M  V30 123 N 11.8248 0.280983 1.55075 0
M  V30 124 C 13.2358 -0.215629 1.85451 0
M  V30 125 C 13.5868 -1.54991 1.203 0
M  V30 126 O 12.7118 -2.10699 0.493435 0
M  V30 127 C 13.3068 -0.398026 3.36454 0
M  V30 128 C 11.8658 -0.838866 3.66933 0
M  V30 129 C 11.0128 0.064458 2.77225 0
M  V30 130 H 13.9638 0.502601 1.50531 0
M  V30 131 H 13.9848 -1.23569 3.59876 0
M  V30 132 H 13.4968 0.573241 3.83843 0
M  V30 133 H 11.5978 -1.8214 3.25048 0
M  V30 134 H 11.7108 -0.672123 4.74362 0
M  V30 135 H 10.0748 -0.452863 2.50642 0
M  V30 136 H 10.8578 1.03172 3.2743 0
M  V30 137 N 13.3029 -1.57598 0.00835791 0
M  V30 138 C 14.5799 -1.82172 -0.712235 0
M  V30 139 C 14.9599 -0.887873 -1.9152 0
M  V30 140 O 14.3079 0.06146 -2.28417 0
M  V30 141 C 14.5179 -3.30875 -1.11008 0
M  V30 142 C 15.8659 -3.96826 -1.51044 0
M  V30 143 O 16.8899 -3.35248 -1.20364 0
M  V30 144 O 15.7489 -5.05318 -2.08125 0
M  V30 145 H 12.8429 -0.750435 -0.347529 0
M  V30 146 H 15.3889 -1.69665 0.0344523 0
M  V30 147 H 14.1609 -3.90481 -0.252982 0
M  V30 148 H 13.7839 -3.48412 -1.9156 0
M  V30 149 N 14.781 0.264519 -1.55364 0
M  V30 150 C 16.03 0.992812 -1.75574 0
M  V30 151 C 16.343 1.87142 -0.568979 0
M  V30 152 O 17.549 2.63513 -0.653682 0
M  V30 153 C 16.005 1.81519 -3.10771 0
M  V30 154 C 15.613 0.984839 -4.37041 0
M  V30 155 C 17.357 2.53727 -3.40327 0
M  V30 156 C 15.264 1.80209 -5.63275 0
M  V30 157 H 14.194 0.374412 -0.65447 0
M  V30 158 H 16.845 0.248138 -1.81815 0
M  V30 159 H 15.227 2.60115 -2.98591 0
M  V30 160 H 16.401 0.242455 -4.60162 0
M  V30 161 H 14.716 0.37691 -4.14691 0
M  V30 162 H 17.313 3.15292 -4.3185 0
M  V30 163 H 17.656 3.24447 -2.60845 0
M  V30 164 H 18.189 1.82156 -3.53644 0
M  V30 165 H 14.928 1.13896 -6.45529 0
M  V30 166 H 14.448 2.52022 -5.44284 0
M  V30 167 H 16.127 2.37364 -6.01887 0
M  V30 168 N 16.2591 1.48442 0.529413 0
M  V30 169 C 17.2091 1.59407 1.63014 0
M  V30 170 C 18.1931 0.451166 1.54445 0
M  V30 171 O 19.3851 0.702635 1.62456 0
M  V30 172 C 16.5141 1.63746 3.01732 0
M  V30 173 C 15.6001 2.83518 3.15402 0
M  V30 174 N 15.9911 4.07929 2.99045 0
M  V30 175 C 14.2891 2.80862 3.46457 0
M  V30 176 C 14.9901 4.8829 3.16146 0
M  V30 177 N 13.9661 4.21117 3.43746 0
M  V30 178 H 17.7681 2.53343 1.48978 0
M  V30 179 H 15.2821 1.44821 0.734885 0
M  V30 180 H 17.2791 1.69695 3.80801 0
M  V30 181 H 15.9391 0.709264 3.16859 0
M  V30 182 H 16.9501 4.38357 2.75796 0
M  V30 183 H 13.6271 1.97301 3.67938 0
M  V30 184 H 15.0171 5.97028 3.08232 0
M  V30 185 N 17.7372 -0.778329 1.37039 0
M  V30 186 C 18.9652 -1.56734 1.35063 0
M  V30 187 C 19.3802 -1.88686 -0.0655597 0
M  V30 188 O 18.7372 -1.5096 -1.02554 0
M  V30 189 C 18.7882 -2.88163 2.18276 0
M  V30 190 O 18.5092 -2.57583 3.54376 0
M  V30 191 C 20.0102 -3.82422 2.24206 0
M  V30 192 H 17.2302 -0.485778 0.462883 0
M  V30 193 H 19.7742 -0.965185 1.8029 0
M  V30 194 H 17.9292 -3.44818 1.76576 0
M  V30 195 H 18.3432 -3.41699 3.97922 0
M  V30 196 H 19.8172 -4.71667 2.86765 0
M  V30 197 H 20.2942 -4.21078 1.24861 0
M  V30 198 H 20.9002 -3.31697 2.6619 0
M  V30 199 N 19.2153 -1.21501 -1.00376 0
M  V30 200 C 20.4433 -1.059 -1.77744 0
M  V30 201 C 20.8583 0.391125 -1.84704 0
M  V30 202 O 20.2153 1.27133 -1.30933 0
M  V30 203 C 20.2663 -1.65111 -3.21591 0
M  V30 204 O 19.9873 -3.0445 -3.15027 0
M  V30 205 C 21.4883 -1.54637 -4.15454 0
M  V30 206 H 18.7083 -0.371825 -0.558558 0
M  V30 207 H 21.2523 -1.60865 -1.26264 0
M  V30 208 H 19.4073 -1.14235 -3.70175 0
M  V30 209 H 19.8213 -3.3278 -4.0541 0
M  V30 210 H 21.2953 -2.00808 -5.14179 0
M  V30 211 H 21.7723 -0.501022 -4.36333 0
M  V30 212 H 22.3783 -2.04767 -3.72761 0
M  V30 213 N 20.6934 1.19889 -1.02296 0
M  V30 214 C 21.6564 2.21116 -0.603351 0
M  V30 215 C 22.6564 1.5738 0.329884 0
M  V30 216 O 23.8464 1.73802 0.117702 0
M  V30 217 C 20.9784 3.40696 0.117992 0
M  V30 218 H 22.1714 2.59754 -1.49893 0
M  V30 219 H 19.7244 1.33463 -0.813468 0
M  V30 220 H 20.4594 3.07569 1.0282 0
M  V30 221 H 20.2444 3.88188 -0.552511 0
M  V30 222 H 21.7344 4.15692 0.398696 0
M  V30 223 N 22.1715 0.800033 1.35784 0
M  V30 224 C 23.4195 0.376597 1.9856 0
M  V30 225 C 23.7405 -1.05812 1.63795 0
M  V30 226 O 23.0105 -1.73103 0.917171 0
M  V30 227 H 21.5905 0.136261 0.734467 0
M  V30 228 H 24.2525 1.02442 1.65806 0
M  V30 229 H 23.3485 0.477002 3.08433 0
M  V30 230 N 23.6496 -1.47581 0.552962 0
M  V30 231 C 24.5966 -2.29957 -0.197108 0
M  V30 232 C 25.5666 -1.38799 -0.912359 0
M  V30 233 O 26.7516 -1.67761 -0.908888 0
M  V30 234 C 23.8916 -3.22672 -1.22379 0
M  V30 235 C 23.0046 -4.28919 -0.515038 0
M  V30 236 C 22.1396 -5.0879 -1.52664 0
M  V30 237 C 21.1786 -6.06815 -0.802631 0
M  V30 238 N 20.3156 -6.7966 -1.76086 0
M  V30 239 H 25.1556 -2.93578 0.511486 0
M  V30 240 H 22.6926 -1.4471 0.264067 0
M  V30 241 H 24.6506 -3.74845 -1.83159 0
M  V30 242 H 23.2806 -2.60925 -1.90047 0
M  V30 243 H 22.3326 -3.79835 0.207192 0
M  V30 244 H 23.6446 -4.98773 0.0523425 0
M  V30 245 H 22.7986 -5.65091 -2.20809 0
M  V30 246 H 21.5376 -4.38828 -2.12794 0
M  V30 247 H 20.5426 -5.49695 -0.107238 0
M  V30 248 H 21.7676 -6.78784 -0.207135 0
M  V30 249 H 19.7136 -6.12432 -2.35081 0
M  V30 250 H 19.6306 -7.45669 -1.24552 0
M  V30 251 H 20.8986 -7.40538 -2.43359 0
M  V30 252 N 25.1277 -0.289203 -1.54924 0
M  V30 253 C 26.0577 0.58549 -2.2604 0
M  V30 254 C 27.0387 1.14753 -1.25562 0
M  V30 255 O 28.2237 1.17906 -1.54311 0
M  V30 256 C 25.3537 1.76305 -2.99222 0
M  V30 257 C 24.3077 1.33191 -4.06748 0
M  V30 258 C 23.6337 2.5937 -4.6758 0
M  V30 259 C 24.9337 0.471775 -5.20165 0
M  V30 260 H 26.6277 -0.00763532 -2.99399 0
M  V30 261 H 24.1737 -0.00511229 -1.43999 0
M  V30 262 H 26.1267 2.38097 -3.47689 0
M  V30 263 H 24.8507 2.38223 -2.23422 0
M  V30 264 H 23.5097 0.737121 -3.59113 0
M  V30 265 H 23.1577 3.19576 -3.88433 0
M  V30 266 H 22.8577 2.31228 -5.40192 0
M  V30 267 H 24.3817 3.21985 -5.18804 0
M  V30 268 H 25.7957 0.995056 -5.64599 0
M  V30 269 H 24.1927 0.284639 -5.99425 0
M  V30 270 H 25.2627 -0.506041 -4.82252 0
M  V30 271 N 26.6058 1.57591 -0.0167156 0
M  V30 272 C 27.5688 2.08393 0.954204 0
M  V30 273 C 28.5688 0.996531 1.26198 0
M  V30 274 O 29.7588 1.25858 1.20438 0
M  V30 275 C 26.8908 2.5394 2.27436 0
M  V30 276 H 28.0838 2.95455 0.514451 0
M  V30 277 H 25.6368 1.54582 0.231089 0
M  V30 278 H 26.3718 1.70171 2.76066 0
M  V30 279 H 26.1568 3.33371 2.06412 0
M  V30 280 H 27.6468 2.93512 2.97053 0
M  V30 281 N 28.0839 -0.256276 1.55502 0
M  V30 282 C 29.3609 -1.00789 1.67633 0
M  V30 283 C 29.7409 -2.03706 0.553826 0
M  V30 284 O 29.0889 -2.24145 -0.443969 0
M  V30 285 C 29.2989 -1.64968 3.07549 0
M  V30 286 C 30.6469 -2.15505 3.65845 0
M  V30 287 O 31.6709 -1.74925 3.1029 0
M  V30 288 O 30.5299 -2.89986 4.63217 0
M  V30 289 H 27.6239 -0.468553 0.681459 0
M  V30 290 H 30.1699 -0.250806 1.67836 0
M  V30 291 H 28.9419 -0.904785 3.80696 0
M  V30 292 H 28.5649 -2.47321 3.11317 0
M  V30 293 N 29.562 -1.4872 -0.521534 0
M  V30 294 C 30.492 -1.66771 -1.63431 0
M  V30 295 C 31.473 -0.516499 -1.62069 0
M  V30 296 O 32.658 -0.750013 -1.79132 0
M  V30 297 C 29.788 -1.71515 -3.01993 0
M  V30 298 C 28.742 -2.86222 -3.18216 0
M  V30 299 C 28.068 -2.76061 -4.57924 0
M  V30 300 C 29.368 -4.27419 -3.00184 0
M  V30 301 H 31.062 -2.59932 -1.48579 0
M  V30 302 H 28.608 -1.25089 -0.713358 0
M  V30 303 H 30.561 -1.82731 -3.7972 0
M  V30 304 H 29.285 -0.749393 -3.17886 0
M  V30 305 H 27.944 -2.74575 -2.42908 0
M  V30 306 H 27.592 -1.77437 -4.70665 0
M  V30 307 H 27.292 -3.53037 -4.69722 0
M  V30 308 H 28.816 -2.89256 -5.37739 0
M  V30 309 H 30.23 -4.39855 -3.67697 0
M  V30 310 H 28.627 -5.05458 -3.2347 0
M  V30 311 H 29.697 -4.43293 -1.96518 0
M  V30 312 N 31.0401 0.771051 -1.3745 0
M  V30 313 C 32.4561 1.07171 -1.18265 0
M  V30 314 C 32.6561 2.01491 -0.019287 0
M  V30 315 O 31.7121 2.44244 0.640408 0
M  V30 316 C 33.0251 1.66854 -2.50161 0
M  V30 317 C 34.5731 1.79109 -2.56689 0
M  V30 318 C 35.0481 2.42205 -3.88717 0
M  V30 319 N 36.5391 2.49655 -3.90162 0
M  V30 320 C 37.2741 2.9933 -4.8907 0
M  V30 321 N 36.7701 3.49172 -5.98374 0
M  V30 322 N 38.5631 2.9821 -4.76474 0
M  V30 323 H 30.7141 0.144796 -2.11906 0
M  V30 324 H 32.9771 0.126863 -0.939473 0
M  V30 325 H 32.6831 1.05017 -3.35655 0
M  V30 326 H 32.5571 2.6614 -2.673 0
M  V30 327 H 34.9441 2.40077 -1.71601 0
M  V30 328 H 35.0251 0.785757 -2.43433 0
M  V30 329 H 34.6691 1.81875 -4.74219 0
M  V30 330 H 34.5991 3.43345 -3.99276 0
M  V30 331 H 37.0901 2.14383 -3.11205 0
M  V30 332 H 37.4031 3.8548 -6.69795 0
M  V30 333 H 35.7481 3.47275 -6.02018 0
M  V30 334 H 38.9391 2.58572 -3.90203 0
M  V30 335 H 39.1121 3.36613 -5.53711 0
M  V30 336 N 32.5182 1.22032 0.997298 0
M  V30 337 C 33.9342 0.979326 1.26021 0
M  V30 338 C 34.1342 -0.32972 1.98784 0
M  V30 339 O 33.1902 -1.05345 2.29475 0
M  V30 340 C 34.5032 2.17509 2.07631 0
M  V30 341 C 36.0512 2.21817 2.2083 0
M  V30 342 C 36.5262 3.40933 3.05825 0
M  V30 343 N 38.0172 3.41067 3.13412 0
M  V30 344 C 38.7522 4.29885 3.79455 0
M  V30 345 N 38.2482 5.28914 4.47462 0
M  V30 346 N 40.0412 4.17673 3.76173 0
M  V30 347 H 32.1922 2.06202 0.509352 0
M  V30 348 H 34.4552 0.90334 0.287541 0
M  V30 349 H 34.1612 3.12415 1.61524 0
M  V30 350 H 34.0352 2.17206 3.08385 0
M  V30 351 H 36.4222 1.27462 2.66153 0
M  V30 352 H 36.5032 2.2616 1.1952 0
M  V30 353 H 36.1472 4.35586 2.61203 0
M  V30 354 H 36.0772 3.33829 4.07266 0
M  V30 355 H 38.5682 2.69406 2.65007 0
M  V30 356 H 38.8812 5.92973 4.95583 0
M  V30 357 H 37.2262 5.32831 4.46224 0
M  V30 358 H 40.4172 3.39564 3.22202 0
M  V30 359 H 40.5902 4.87098 4.27363 0
M  V30 360 N 33.9963 -1.19345 1.0293 0
M  V30 361 C 35.4123 -1.41069 0.746446 0
M  V30 362 C 35.6123 -1.90078 -0.668776 0
M  V30 363 O 34.6683 -2.0778 -1.4347 0
M  V30 364 C 35.9813 -2.42141 1.78292 0
M  V30 365 C 37.5293 -2.55887 1.80252 0
M  V30 366 C 38.0043 -3.60214 2.8286 0
M  V30 367 N 39.4953 -3.67711 2.81679 0
M  V30 368 C 40.2303 -4.48128 3.57727 0
M  V30 369 N 39.7263 -5.32248 4.43491 0
M  V30 370 N 41.5193 -4.42782 3.46267 0
M  V30 371 H 33.6703 -0.858536 1.94275 0
M  V30 372 H 35.9333 -0.439541 0.839945 0
M  V30 373 H 35.6393 -2.13155 2.79746 0
M  V30 374 H 35.5133 -3.41323 1.60557 0
M  V30 375 H 37.9003 -2.84196 0.794757 0
M  V30 376 H 37.9813 -1.56858 2.02062 0
M  V30 377 H 37.6253 -3.32647 3.83807 0
M  V30 378 H 37.5553 -4.58895 2.58307 0
M  V30 379 H 40.0463 -3.07634 2.19476 0
M  V30 380 H 40.3593 -5.90729 4.98256 0
M  V30 381 H 38.7043 -5.31707 4.47564 0
M  V30 382 H 41.8953 -3.76107 2.78677 0
M  V30 383 H 42.0683 -5.05215 4.05785 0
M  V30 384 N 35.4744 -0.807222 -1.35358 0
M  V30 385 C 36.7234 -0.384376 -1.98004 0
M  V30 386 C 37.0364 1.0543 -1.64754 0
M  V30 387 O 38.2424 1.58029 -2.20769 0
M  V30 388 C 36.6984 -0.636326 -3.5423 0
M  V30 389 C 36.3064 -2.08759 -3.96388 0
M  V30 390 C 38.0504 -0.278869 -4.23583 0
M  V30 391 C 35.9574 -2.28525 -5.45463 0
M  V30 392 H 34.8874 -0.139986 -0.740891 0
M  V30 393 H 37.5384 -0.991369 -1.54415 0
M  V30 394 H 35.9204 0.0406256 -3.95979 0
M  V30 395 H 37.0944 -2.8024 -3.6579 0
M  V30 396 H 35.4094 -2.40497 -3.39926 0
M  V30 397 H 38.0064 -0.404599 -5.33167 0
M  V30 398 H 38.3494 0.775012 -4.09022 0
M  V30 399 H 38.8824 -0.909764 -3.87257 0
M  V30 400 H 35.6214 -3.32361 -5.64992 0
M  V30 401 H 35.1414 -1.61569 -5.77629 0
M  V30 402 H 36.8204 -2.10109 -6.11934 0
M  V30 403 N 36.9525 1.47285 -0.560781 0
M  V30 404 C 37.8625 2.33846 0.187954 0
M  V30 405 C 38.8785 1.48412 0.908293 0
M  V30 406 O 40.0545 1.81332 0.876388 0
M  V30 407 C 37.1195 3.25178 1.2025 0
M  V30 408 C 36.1805 4.26504 0.489208 0
M  V30 409 C 35.4135 5.13472 1.45542 0
M  V30 410 O 35.6365 5.02959 2.6905 0
M  V30 411 O 34.5705 5.93902 0.977963 0
M  V30 412 H 38.3965 2.99177 -0.522177 0
M  V30 413 H 35.9815 1.45903 -0.321364 0
M  V30 414 H 37.8635 3.81584 1.78805 0
M  V30 415 H 36.5385 2.6247 1.89449 0
M  V30 416 H 35.4455 3.73847 -0.137627 0
M  V30 417 H 36.7785 4.91935 -0.161399 0
M  V30 418 N 38.4306 0.297415 1.54768 0
M  V30 419 C 39.3406 -0.58983 2.27064 0
M  V30 420 C 40.3566 -1.15144 1.30453 0
M  V30 421 O 41.5326 -1.17699 1.63428 0
M  V30 422 C 38.5976 -1.74714 2.9946 0
M  V30 423 C 37.6586 -1.21997 4.11601 0
M  V30 424 C 36.8916 -2.32212 4.80535 0
M  V30 425 O 37.1146 -3.52036 4.48806 0
M  V30 426 O 36.0486 -1.99106 5.68014 0
M  V30 427 H 39.8746 -0.00348199 3.037 0
M  V30 428 H 37.4596 0.0640035 1.49263 0
M  V30 429 H 39.3416 -2.42147 3.44881 0
M  V30 430 H 38.0166 -2.32016 2.25722 0
M  V30 431 H 36.9236 -0.511458 3.70587 0
M  V30 432 H 38.2566 -0.692419 4.87305 0
M  V30 433 N 39.9087 -1.5758 0.0250728 0
M  V30 434 C 40.8717 -2.08896 -0.943139 0
M  V30 435 C 41.8717 -1.00321 -1.25668 0
M  V30 436 O 43.0617 -1.26495 -1.19769 0
M  V30 437 C 40.1937 -2.55143 -2.26086 0
M  V30 438 H 41.3867 -2.95723 -0.498775 0
M  V30 439 H 38.9397 -1.54703 -0.222888 0
M  V30 440 H 39.6747 -1.71633 -2.75159 0
M  V30 441 H 39.4597 -3.34461 -2.04641 0
M  V30 442 H 40.9497 -2.95083 -2.95492 0
M  V30 443 N 41.3868 0.248026 -1.55636 0
M  V30 444 C 42.6148 0.993808 -1.81469 0
M  V30 445 C 43.0298 1.78991 -0.60064 0
M  V30 446 O 42.3868 1.77345 0.430682 0
M  V30 447 C 42.4378 1.93258 -3.05506 0
M  V30 448 O 42.1588 1.16869 -4.22224 0
M  V30 449 C 43.6598 2.79444 -3.4413 0
M  V30 450 H 40.8798 0.292486 -0.603898 0
M  V30 451 H 43.4238 0.271253 -2.02693 0
M  V30 452 H 41.5788 2.60943 -2.86335 0
M  V30 453 H 41.9928 1.80359 -4.92515 0
M  V30 454 H 43.4668 3.41066 -4.34026 0
M  V30 455 H 43.9438 3.50499 -2.64665 0
M  V30 456 H 44.5498 2.17214 -3.65648 0
M  V30 457 N 42.8649 1.48995 0.513639 0
M  V30 458 C 43.8149 1.61127 1.61314 0
M  V30 459 C 44.7989 0.467521 1.53958 0
M  V30 460 O 45.9909 0.719826 1.61702 0
M  V30 461 C 43.1199 1.66937 2.99978 0
M  V30 462 C 42.2059 2.86847 3.12377 0
M  V30 463 N 42.5969 4.11078 2.94701 0
M  V30 464 C 40.8949 2.84521 3.43459 0
M  V30 465 C 41.5959 4.91615 3.10949 0
M  V30 466 N 40.5719 4.24739 3.3926 0
M  V30 467 H 44.3739 2.54909 1.46282 0
M  V30 468 H 41.8879 1.45593 0.719483 0
M  V30 469 H 43.8849 1.73725 3.78979 0
M  V30 470 H 42.5449 0.742831 3.16089 0
M  V30 471 H 43.5559 4.41258 2.71131 0
M  V30 472 H 40.2329 2.01192 3.65825 0
M  V30 473 H 41.6229 6.00264 3.01882 0
M  V30 474 N 44.343 -0.763751 1.37857 0
M  V30 475 C 45.306 -1.85889 1.34081 0
M  V30 476 C 46.306 -1.58949 0.243277 0
M  V30 477 O 47.496 -1.66882 0.499589 0
M  V30 478 C 44.628 -3.23176 1.08489 0
M  V30 479 H 45.821 -1.90648 2.31502 0
M  V30 480 H 43.374 -0.964367 1.23003 0
M  V30 481 H 44.109 -3.24091 0.116318 0
M  V30 482 H 43.894 -3.44124 1.8794 0
M  V30 483 H 45.384 -4.03254 1.08517 0
M  V30 484 N 45.8211 -1.22559 -0.990812 0
M  V30 485 C 47.0691 -1.04933 -1.72724 0
M  V30 486 C 47.3901 0.416158 -1.90508 0
M  V30 487 O 46.6601 1.29918 -1.46622 0
M  V30 488 H 45.2401 -0.385296 -0.639965 0
M  V30 489 H 47.9021 -1.54105 -1.19322 0
M  V30 490 H 46.9981 -1.52886 -2.72089 0
M  V30 491 N 47.2992 1.18797 -1.03562 0
M  V30 492 C 48.5242 1.9314 -0.755764 0
M  V30 493 C 48.9492 1.7537 0.68022 0
M  V30 494 O 48.3072 1.06046 1.47051 0
M  V30 495 C 48.3552 3.42747 -1.12058 0
M  V30 496 O 47.4592 4.11683 -0.243124 0
M  V30 497 H 46.8002 0.602724 -0.278604 0
M  V30 498 H 49.3302 1.50678 -1.3841 0
M  V30 499 H 49.3402 3.93437 -1.08035 0
M  V30 500 H 48.0152 3.55002 -2.16672 0
M  V30 501 H 46.5922 3.71323 -0.342539 0
M  V30 502 N 48.7773 0.814389 1.34928 0
M  V30 503 C 49.7403 0.235759 2.27984 0
M  V30 504 C 50.7403 -0.581412 1.49921 0
M  V30 505 O 51.9303 -0.398758 1.69575 0
M  V30 506 C 49.0623 -0.670433 3.34242 0
M  V30 507 H 50.2553 1.05659 2.80671 0
M  V30 508 H 47.8083 0.585614 1.44915 0
M  V30 509 H 48.5433 -1.51466 2.86755 0
M  V30 510 H 48.3283 -0.0860822 3.92005 0
M  V30 511 H 49.8183 -1.06935 4.03676 0
M  V30 512 N 50.2554 -1.46986 0.568584 0
M  V30 513 C 51.6714 -1.57946 0.229189 0
M  V30 514 C 51.8714 -1.56567 -1.26843 0
M  V30 515 O 50.9274 -1.47511 -2.04931 0
M  V30 516 C 52.2404 -2.87963 0.865909 0
M  V30 517 C 53.7884 -3.01568 0.838188 0
M  V30 518 C 54.2634 -4.34301 1.45419 0
M  V30 519 N 55.7544 -4.40965 1.41788 0
M  V30 520 C 56.4894 -5.42256 1.86403 0
M  V30 521 N 55.9854 -6.50297 2.38926 0
M  V30 522 N 57.7784 -5.3337 1.77405 0
M  V30 523 H 49.9294 -1.46126 1.54146 0
M  V30 524 H 52.1924 -0.696156 0.643484 0
M  V30 525 H 51.8984 -2.94742 1.91886 0
M  V30 526 H 51.7724 -3.75423 0.365687 0
M  V30 527 H 54.1594 -2.94379 -0.206106 0
M  V30 528 H 54.2404 -2.1562 1.37629 0
M  V30 529 H 53.8844 -4.42247 2.49761 0
M  V30 530 H 53.8144 -5.19 0.891435 0
M  V30 531 H 56.3054 -3.63484 1.03381 0
M  V30 532 H 56.6184 -7.23777 2.70863 0
M  V30 533 H 54.9634 -6.51155 2.42944 0
M  V30 534 H 58.1544 -4.47865 1.3614 0
M  V30 535 H 58.3274 -6.12169 2.12492 0
M  V30 536 N 51.7335 -0.305618 -1.54608 0
M  V30 537 C 52.6965 0.555591 -2.22364 0
M  V30 538 C 53.6965 1.05768 -1.21119 0
M  V30 539 O 54.8865 0.952972 -1.45822 0
M  V30 540 C 52.0185 1.76974 -2.91364 0
M  V30 541 H 53.2115 -0.0364572 -2.99878 0
M  V30 542 H 50.7645 -0.0565007 -1.56198 0
M  V30 543 H 51.4995 2.40151 -2.17941 0
M  V30 544 H 51.2845 1.41732 -3.65588 0
M  V30 545 H 52.7745 2.38148 -3.43038 0
M  V30 546 N 53.2116 1.57565 -0.0334293 0
M  V30 547 C 54.4576 1.92262 0.645226 0
M  V30 548 C 54.7906 0.910543 1.71531 0
M  V30 549 O 54.0656 -0.066099 1.94388 0
M  V30 550 C 54.3486 3.37422 1.2577 0
M  V30 551 C 54.2016 4.49369 0.196891 0
M  V30 552 C 55.5206 3.82628 2.17449 0
M  V30 553 H 52.6396 0.699171 0.233085 0
M  V30 554 H 55.2816 1.89779 -0.0915694 0
M  V30 555 H 53.4316 3.39669 1.88566 0
M  V30 556 H 55.1036 4.59254 -0.433962 0
M  V30 557 H 53.3466 4.31168 -0.477137 0
M  V30 558 H 54.0176 5.47978 0.665124 0
M  V30 559 H 56.4936 3.82145 1.64634 0
M  V30 560 H 55.3696 4.84883 2.57254 0
M  V30 561 H 55.6306 3.18376 3.0674 0
M  V30 562 N 54.6897 -0.239769 1.55765 0
M  V30 563 C 55.5997 -1.31831 1.94056 0
M  V30 564 C 56.6157 -1.52275 0.841925 0
M  V30 565 O 57.7917 -1.65759 1.14394 0
M  V30 566 C 54.8567 -2.65156 2.23368 0
M  V30 567 C 53.9177 -2.53173 3.46701 0
M  V30 568 C 53.1507 -3.8014 3.74606 0
M  V30 569 O 53.3737 -4.82343 3.04469 0
M  V30 570 O 52.3077 -3.78344 4.68123 0
M  V30 571 H 56.1337 -1.02347 2.85935 0
M  V30 572 H 53.7187 -0.441123 1.42739 0
M  V30 573 H 55.6007 -3.43929 2.43497 0
M  V30 574 H 54.2757 -2.94358 1.34666 0
M  V30 575 H 53.1827 -1.72662 3.31871 0
M  V30 576 H 54.5157 -2.28915 4.35728 0
M  V30 577 N 56.1678 -1.49265 -0.50573 0
M  V30 578 C 57.1148 -1.65585 -1.6078 0
M  V30 579 C 58.0848 -0.497396 -1.58478 0
M  V30 580 O 59.2698 -0.72385 -1.76536 0
M  V30 581 C 56.4098 -1.72408 -2.98948 0
M  V30 582 C 55.5228 -2.99525 -3.11301 0
M  V30 583 C 54.6578 -2.97356 -4.40174 0
M  V30 584 C 53.6968 -4.19074 -4.46143 0
M  V30 585 N 52.8338 -4.14841 -5.66437 0
M  V30 586 H 57.6738 -2.59688 -1.46172 0
M  V30 587 H 55.2108 -1.28761 -0.711261 0
M  V30 588 H 57.1688 -1.74344 -3.79025 0
M  V30 589 H 55.7988 -0.817753 -3.1227 0
M  V30 590 H 54.8508 -3.07222 -2.24318 0
M  V30 591 H 56.1628 -3.89518 -3.11572 0
M  V30 592 H 55.3168 -2.97829 -5.28567 0
M  V30 593 H 54.0558 -2.05133 -4.42461 0
M  V30 594 H 53.0608 -4.1885 -3.56153 0
M  V30 595 H 54.2858 -5.12483 -4.45575 0
M  V30 596 H 52.2318 -3.25453 -5.69575 0
M  V30 597 H 52.1488 -4.98564 -5.68304 0
M  V30 598 H 53.4168 -4.1941 -6.57051 0
M  V30 599 N 57.6459 0.756429 -1.3826 0
M  V30 600 C 58.5779 1.87971 -1.31147 0
M  V30 601 C 59.5909 1.61248 -0.224239 0
M  V30 602 O 60.7799 1.71881 -0.481581 0
M  V30 603 C 57.8799 3.23545 -1.00857 0
M  V30 604 C 57.0529 3.77794 -2.20432 0
M  V30 605 C 56.1119 4.91877 -1.86931 0
M  V30 606 O 55.1379 5.06659 -2.59395 0
M  V30 607 N 56.3399 5.74643 -0.822568 0
M  V30 608 H 59.1049 1.94585 -2.2794 0
M  V30 609 H 56.6659 0.936234 -1.32084 0
M  V30 610 H 58.6579 3.97403 -0.765021 0
M  V30 611 H 57.2279 3.12335 -0.128687 0
M  V30 612 H 56.4479 2.95534 -2.6087 0
M  V30 613 H 57.7359 4.10771 -3.00241 0
M  V30 614 H 57.1339 5.65266 -0.221575 0
M  V30 615 H 55.6909 6.48661 -0.638899 0
M  V30 616 N 59.124 1.23083 0.984299 0
M  V30 617 C 60.074 0.975749 2.06066 0
M  V30 618 C 61.058 -0.0768251 1.60716 0
M  V30 619 O 62.25 0.134805 1.76486 0
M  V30 620 C 59.379 0.564673 3.38624 0
M  V30 621 C 58.465 1.65244 3.90583 0
M  V30 622 N 58.856 2.88193 4.15666 0
M  V30 623 C 57.154 1.52612 4.19077 0
M  V30 624 C 57.855 3.58593 4.58024 0
M  V30 625 N 56.831 2.86093 4.62225 0
M  V30 626 H 60.633 1.90957 2.23411 0
M  V30 627 H 58.147 1.12963 1.16675 0
M  V30 628 H 60.144 0.36322 4.15315 0
M  V30 629 H 58.804 -0.362147 3.22674 0
M  V30 630 H 59.815 3.24537 4.03604 0
M  V30 631 H 56.492 0.666121 4.12152 0
M  V30 632 H 57.882 4.63974 4.85982 0
M  V30 633 N 60.6021 -1.18246 1.0419 0
M  V30 634 C 61.5651 -2.20128 0.638452 0
M  V30 635 C 62.5651 -1.57885 -0.304805 0
M  V30 636 O 63.7551 -1.73967 -0.0900369 0
M  V30 637 C 60.8871 -3.4084 -0.0637751 0
M  V30 638 H 62.0801 -2.57336 1.54007 0
M  V30 639 H 59.6331 -1.32152 0.834598 0
M  V30 640 H 60.3681 -3.09166 -0.979136 0
M  V30 641 H 60.1531 -3.8726 0.614198 0
M  V30 642 H 61.6431 -4.16274 -0.332512 0
M  V30 643 N 62.0802 -0.821533 -1.34494 0
M  V30 644 C 63.0272 -0.240397 -2.29545 0
M  V30 645 C 63.9972 0.634031 -1.53523 0
M  V30 646 O 65.1822 0.575966 -1.81899 0
M  V30 647 C 62.3222 0.592869 -3.39969 0
M  V30 648 C 61.4352 -0.30365 -4.30932 0
M  V30 649 C 60.5702 0.539049 -5.28458 0
M  V30 650 C 59.6092 -0.356942 -6.11058 0
M  V30 651 N 58.7462 0.446603 -7.00678 0
M  V30 652 H 63.5862 -1.05632 -2.7865 0
M  V30 653 H 61.1232 -0.532413 -1.37127 0
M  V30 654 H 63.0812 1.09129 -4.02675 0
M  V30 655 H 61.7112 1.37392 -2.92102 0
M  V30 656 H 60.7632 -0.920276 -3.691 0
M  V30 657 H 62.0752 -0.992661 -4.88823 0
M  V30 658 H 61.2292 1.102 -5.96608 0
M  V30 659 H 59.9682 1.26157 -4.71101 0
M  V30 660 H 58.9732 -0.932047 -5.41842 0
M  V30 661 H 60.1982 -1.07755 -6.70497 0
M  V30 662 H 58.1442 1.15282 -6.45791 0
M  V30 663 H 58.0612 -0.184048 -7.55776 0
M  V30 664 H 59.3292 0.992352 -7.73158 0
M  V30 665 N 63.5583 1.46682 -0.576371 0
M  V30 666 C 64.8063 2.02013 -0.0594163 0
M  V30 667 C 65.1273 1.45101 1.30271 0
M  V30 668 O 64.3973 0.633317 1.8538 0
M  V30 669 H 62.9773 0.746759 -0.0189745 0
M  V30 670 H 65.6393 1.79862 -0.750717 0
M  V30 671 H 64.7353 3.12097 0.014345 0
M  V30 672 N 65.0364 0.313813 1.54444 0
M  V30 673 C 65.9834 -0.55655 2.23989 0
M  V30 674 C 66.9534 -1.11943 1.22711 0
M  V30 675 O 68.1384 -1.16158 1.51367 0
M  V30 676 C 65.2784 -1.71635 2.99392 0
M  V30 677 C 64.3914 -1.18364 4.15468 0
M  V30 678 C 63.5264 -2.30834 4.78424 0
M  V30 679 C 62.5654 -1.74762 5.86622 0
M  V30 680 N 61.7024 -2.80855 6.43479 0
M  V30 681 H 66.5424 0.0430893 2.97969 0
M  V30 682 H 64.0794 0.0330359 1.47063 0
M  V30 683 H 66.0374 -2.39868 3.41349 0
M  V30 684 H 64.6674 -2.28742 2.27765 0
M  V30 685 H 63.7194 -0.393163 3.78363 0
M  V30 686 H 65.0314 -0.733262 4.93381 0
M  V30 687 H 64.1854 -3.0699 5.23299 0
M  V30 688 H 62.9244 -2.79204 3.99871 0
M  V30 689 H 61.9294 -0.970995 5.41158 0
M  V30 690 H 63.1544 -1.2728 6.67066 0
M  V30 691 H 61.1004 -3.28535 5.67804 0
M  V30 692 H 61.0174 -2.40351 7.16776 0
M  V30 693 H 62.2854 -3.5687 6.93011 0
M  V30 694 N 66.5145 -1.57545 0.0417849 0
M  V30 695 C 67.4445 -2.14009 -0.933929 0
M  V30 696 C 68.4255 -1.05938 -1.33083 0
M  V30 697 O 69.6105 -1.33833 -1.40721 0
M  V30 698 C 66.7405 -2.67747 -2.21199 0
M  V30 699 C 65.6945 -3.80718 -1.95544 0
M  V30 700 C 65.0205 -4.20935 -3.29724 0
M  V30 701 C 66.3205 -5.06258 -1.28452 0
M  V30 702 H 68.0145 -2.95788 -0.463645 0
M  V30 703 H 65.5605 -1.42285 -0.221573 0
M  V30 704 H 67.5135 -3.05886 -2.89848 0
M  V30 705 H 66.2375 -1.83147 -2.70416 0
M  V30 706 H 64.8965 -3.43037 -1.2931 0
M  V30 707 H 64.5445 -3.33298 -3.76724 0
M  V30 708 H 64.2445 -4.9707 -3.13361 0
M  V30 709 H 65.7685 -4.61666 -3.9962 0
M  V30 710 H 67.1825 -5.41903 -1.8712 0
M  V30 711 H 65.5795 -5.87475 -1.22445 0
M  V30 712 H 66.6495 -4.84207 -0.259219 0
M  V30 713 N 67.9926 0.231505 -1.5589 0
M  V30 714 C 69.2206 0.974505 -1.82513 0
M  V30 715 C 69.6356 1.78344 -0.619591 0
M  V30 716 O 68.9926 1.77792 0.411848 0
M  V30 717 C 69.0436 1.90007 -3.07538 0
M  V30 718 O 68.7646 1.12385 -4.2344 0
M  V30 719 C 70.2656 2.75779 -3.47075 0
M  V30 720 H 67.4856 0.286065 -0.606966 0
M  V30 721 H 70.0296 0.249739 -2.02969 0
M  V30 722 H 68.1846 2.57891 -2.89086 0
M  V30 723 H 68.5986 1.75125 -4.944 0
M  V30 724 H 70.0726 3.36443 -4.37619 0
M  V30 725 H 70.5496 3.47672 -2.68367 0
M  V30 726 H 71.1556 2.13323 -3.67931 0
M  V30 727 N 69.4707 1.49531 0.497807 0
M  V30 728 C 70.4337 1.65916 1.58128 0
M  V30 729 C 71.4337 0.530825 1.51786 0
M  V30 730 O 72.6237 0.797342 1.54881 0
M  V30 731 C 69.7557 1.65951 2.9778 0
M  V30 732 H 70.9487 2.62556 1.44929 0
M  V30 733 H 68.5017 1.38611 0.722275 0
M  V30 734 H 69.2367 0.709065 3.16453 0
M  V30 735 H 69.0217 2.47897 3.03792 0
M  V30 736 H 70.5117 1.80673 3.76493 0
M  V30 737 N 70.9488 -0.749086 1.3866 0
M  V30 738 C 72.3648 -1.05276 1.19955 0
M  V30 739 C 72.5648 -2.01435 0.05134 0
M  V30 740 O 71.6208 -2.45232 -0.60147 0
M  V30 741 C 72.9338 -1.62853 2.52783 0
M  V30 742 C 74.4818 -1.75002 2.59506 0
M  V30 743 C 74.9568 -2.35991 3.92521 0
M  V30 744 N 76.4478 -2.43416 3.94085 0
M  V30 745 C 77.1828 -2.91511 4.9377 0
M  V30 746 N 76.6788 -3.39608 6.03853 0
M  V30 747 N 78.4718 -2.90592 4.81157 0
M  V30 748 H 70.6228 -0.111066 2.12109 0
M  V30 749 H 72.8858 -0.111901 0.941373 0
M  V30 750 H 72.5918 -0.99664 3.37283 0
M  V30 751 H 72.4658 -2.61854 2.715 0
M  V30 752 H 74.8528 -2.37317 1.75398 0
M  V30 753 H 74.9338 -0.74693 2.44652 0
M  V30 754 H 74.5778 -1.74308 4.77053 0
M  V30 755 H 74.5078 -3.3695 4.04688 0
M  V30 756 H 76.9988 -2.09405 3.14576 0
M  V30 757 H 77.3118 -3.74775 6.75843 0
M  V30 758 H 75.6568 -3.37653 6.07466 0
M  V30 759 H 78.8478 -2.52332 3.94267 0
M  V30 760 H 79.0208 -3.27762 5.58996 0
M  V30 761 N 72.4269 -1.23603 -0.977757 0
M  V30 762 C 73.3369 -1.03632 -2.1047 0
M  V30 763 C 74.3529 0.0199435 -1.73989 0
M  V30 764 O 75.5289 -0.176076 -2.00629 0
M  V30 765 C 72.5939 -0.63276 -3.40877 0
M  V30 766 C 71.6549 -1.76437 -3.91367 0
M  V30 767 C 70.8879 -1.37997 -5.15551 0
M  V30 768 O 71.1109 -0.265357 -5.69782 0
M  V30 769 O 70.0449 -2.20201 -5.60174 0
M  V30 770 H 73.8709 -1.98086 -2.30208 0
M  V30 771 H 71.4559 -1.02332 -1.08851 0
M  V30 772 H 73.3379 -0.418761 -4.19314 0
M  V30 773 H 72.0129 0.282754 -3.22463 0
M  V30 774 H 70.9199 -2.03304 -3.14036 0
M  V30 775 H 72.2529 -2.6583 -4.14241 0
M  V30 776 N 73.905 1.17692 -1.04816 0
M  V30 777 C 75.321 1.39863 -0.768794 0
M  V30 778 C 75.521 1.91118 0.638451 0
M  V30 779 O 74.577 2.10036 1.40146 0
M  V30 780 C 75.89 2.39274 -1.82122 0
M  V30 781 C 77.438 2.52987 -1.843 0
M  V30 782 C 77.913 3.55669 -2.88555 0
M  V30 783 N 79.404 3.63183 -2.87493 0
M  V30 784 C 80.139 4.42381 -3.64811 0
M  V30 785 N 79.635 5.25125 -4.51903 0
M  V30 786 N 81.428 4.37217 -3.53267 0
M  V30 787 H 73.579 0.82752 -1.95617 0
M  V30 788 H 75.842 0.426123 -0.846831 0
M  V30 789 H 75.548 2.08678 -2.83102 0
M  V30 790 H 75.422 3.38725 -1.65967 0
M  V30 791 H 77.809 2.82896 -0.839869 0
M  V30 792 H 77.89 1.53623 -2.04532 0
M  V30 793 H 77.534 3.26499 -3.89051 0
M  V30 794 H 77.464 4.54728 -2.65575 0
M  V30 795 H 79.955 3.04103 -2.24343 0
M  V30 796 H 80.268 5.82728 -5.07591 0
M  V30 797 H 78.613 5.24519 -4.55966 0
M  V30 798 H 81.804 3.71626 -2.84625 0
M  V30 799 H 81.977 4.98696 -4.13771 0
M  V30 800 N 75.3831 0.828654 1.34056 0
M  V30 801 C 76.6321 0.415828 1.97367 0
M  V30 802 C 76.9451 -1.02796 1.6641 0
M  V30 803 O 78.1511 -1.54497 2.23255 0
M  V30 804 C 76.6071 0.692601 3.53173 0
M  V30 805 C 76.2151 2.15038 3.93017 0
M  V30 806 C 77.9591 0.346222 4.23086 0
M  V30 807 C 75.8661 2.37174 5.41758 0
M  V30 808 H 74.7961 0.151755 0.738571 0
M  V30 809 H 77.4471 1.01581 1.52819 0
M  V30 810 H 75.8291 0.0223764 3.95994 0
M  V30 811 H 77.0031 2.86024 3.61285 0
M  V30 812 H 75.3181 2.45875 3.36057 0
M  V30 813 H 77.9151 0.48937 5.32456 0
M  V30 814 H 78.2581 -0.709842 4.10204 0
M  V30 815 H 78.7911 0.971258 3.85761 0
M  V30 816 H 75.5301 3.41308 5.59633 0
M  V30 817 H 75.0501 1.70738 5.74986 0
M  V30 818 H 76.7291 2.19818 6.08514 0
M  V30 819 N 76.8612 -1.46375 0.584142 0
M  V30 820 C 78.1382 -1.956 0.0033388 0
M  V30 821 C 78.5182 -1.52679 -1.45782 0
M  V30 822 O 77.8662 -0.77816 -2.14842 0
M  V30 823 C 78.0762 -3.48551 0.176891 0
M  V30 824 C 79.4242 -4.24576 0.0454609 0
M  V30 825 O 80.4482 -3.56043 0.105801 0
M  V30 826 O 79.3072 -5.46427 -0.0890376 0
M  V30 827 H 76.4012 -0.825547 -0.0490066 0
M  V30 828 H 78.9472 -1.56652 0.65256 0
M  V30 829 H 77.7192 -3.72683 1.1926 0
M  V30 830 H 77.3422 -3.94332 -0.508695 0
M  V30 831 N 78.3393 -0.321999 -1.54275 0
M  V30 832 C 79.2693 0.537411 -2.27231 0
M  V30 833 C 80.2503 1.12064 -1.27968 0
M  V30 834 O 81.4353 1.14606 -1.56777 0
M  V30 835 C 78.5653 1.69919 -3.02894 0
M  V30 836 C 77.5193 1.24534 -4.09482 0
M  V30 837 C 76.8453 2.49394 -4.72977 0
M  V30 838 C 78.1453 0.361335 -5.21049 0
M  V30 839 H 79.8393 -0.0711406 -2.99315 0
M  V30 840 H 77.3853 -0.0356555 -1.43956 0
M  V30 841 H 79.3383 2.30668 -3.52662 0
M  V30 842 H 78.0623 2.33431 -2.28424 0
M  V30 843 H 76.7213 0.660782 -3.60596 0
M  V30 844 H 76.3693 3.11265 -3.95124 0
M  V30 845 H 76.0693 2.19718 -5.44975 0
M  V30 846 H 77.5933 3.10908 -5.25517 0
M  V30 847 H 79.0073 0.875072 -5.66582 0
M  V30 848 H 77.4043 0.157428 -5.99893 0
M  V30 849 H 78.4743 -0.60822 -4.8107 0
M  V30 850 N 79.8174 1.5752 -0.0501392 0
M  V30 851 C 80.7474 2.14502 0.922566 0
M  V30 852 C 81.7284 1.06642 1.3252 0
M  V30 853 O 82.9134 1.34577 1.4001 0
M  V30 854 C 80.0434 2.68916 2.19776 0
M  V30 855 C 78.9974 3.8175 1.93523 0
M  V30 856 C 78.3234 4.22677 3.27487 0
M  V30 857 C 79.6234 5.06932 1.25765 0
M  V30 858 H 81.3174 2.9603 0.447952 0
M  V30 859 H 78.8634 1.42401 0.214024 0
M  V30 860 H 80.8164 3.07419 2.88222 0
M  V30 861 H 79.5404 1.84578 2.69441 0
M  V30 862 H 78.1994 3.43718 1.27489 0
M  V30 863 H 77.8474 3.35291 3.74952 0
M  V30 864 H 77.5474 4.98725 3.1072 0
M  V30 865 H 79.0714 4.63779 3.97166 0
M  V30 866 H 80.4854 5.42888 1.84244 0
M  V30 867 H 78.8824 5.88116 1.19328 0
M  V30 868 H 79.9524 4.84337 0.233536 0
M  V30 869 N 81.2955 -0.223234 1.56011 0
M  V30 870 C 82.2255 -1.27988 1.95298 0
M  V30 871 C 83.2065 -1.48976 0.820979 0
M  V30 872 O 84.3915 -1.61188 1.08315 0
M  V30 873 C 81.5215 -2.63 2.26822 0
M  V30 874 C 80.4755 -2.56671 3.42497 0
M  V30 875 C 79.8015 -3.95697 3.59622 0
M  V30 876 C 81.1015 -2.11601 4.77517 0
M  V30 877 H 82.7955 -0.953525 2.8381 0
M  V30 878 H 80.3415 -0.457244 1.36548 0
M  V30 879 H 82.2945 -3.37077 2.52898 0
M  V30 880 H 81.0185 -2.9732 1.35161 0
M  V30 881 H 79.6775 -1.85051 3.16467 0
M  V30 882 H 79.3255 -4.27322 2.6534 0
M  V30 883 H 79.0255 -3.92345 4.37424 0
M  V30 884 H 80.5495 -4.71438 3.88044 0
M  V30 885 H 81.9635 -2.7542 5.02809 0
M  V30 886 H 80.3605 -2.19311 5.5859 0
M  V30 887 H 81.4305 -1.06824 4.72987 0
M  V30 888 N 82.7736 -1.49793 -0.48987 0
M  V30 889 C 84.0506 -1.50348 -1.25119 0
M  V30 890 C 84.4306 -0.237466 -2.0976 0
M  V30 891 O 83.7786 0.77981 -2.14782 0
M  V30 892 C 83.9886 -2.78872 -2.09837 0
M  V30 893 C 85.3366 -3.288 -2.68655 0
M  V30 894 O 86.3606 -2.80065 -2.20096 0
M  V30 895 O 85.2196 -4.13707 -3.57083 0
M  V30 896 H 82.3136 -0.602242 -0.566775 0
M  V30 897 H 84.8596 -1.62067 -0.503229 0
M  V30 898 H 83.6316 -3.62499 -1.47343 0
M  V30 899 H 83.2546 -2.70066 -2.91805 0
M  V30 900 N 84.2517 0.741722 -1.39055 0
M  V30 901 C 85.1617 1.88621 -1.39496 0
M  V30 902 C 86.1777 1.71557 -0.290578 0
M  V30 903 O 87.3537 1.94275 -0.530954 0
M  V30 904 C 84.4187 3.24134 -1.23037 0
M  V30 905 C 83.4797 3.5364 -2.43387 0
M  V30 906 C 82.7127 4.82687 -2.27703 0
M  V30 907 O 82.9357 5.55922 -1.27696 0
M  V30 908 O 81.8697 5.1194 -3.16545 0
M  V30 909 H 85.6957 1.91203 -2.35956 0
M  V30 910 H 83.2807 0.888625 -1.20099 0
M  V30 911 H 85.1627 4.0513 -1.15964 0
M  V30 912 H 83.8377 3.22337 -0.296691 0
M  V30 913 H 82.7447 2.72758 -2.56035 0
M  V30 914 H 84.0777 3.60209 -3.35425 0
M  V30 915 N 85.7298 1.2412 0.971189 0
M  V30 916 C 86.9778 1.07668 1.71032 0
M  V30 917 C 87.2988 -0.385797 1.91146 0
M  V30 918 O 86.5688 -1.27569 1.4867 0
M  V30 919 H 85.1488 0.395429 0.633755 0
M  V30 920 H 87.8108 1.55984 1.16855 0
M  V30 921 H 86.9068 1.57195 2.69622 0
M  V30 922 N 87.2079 -1.17134 1.05439 0
M  V30 923 C 88.4329 -1.91913 0.786396 0
M  V30 924 C 88.8579 -1.7643 -0.652234 0
M  V30 925 O 88.2159 -1.08372 -1.45345 0
M  V30 926 C 88.2639 -3.40921 1.17497 0
M  V30 927 O 87.3679 -4.11244 0.308589 0
M  V30 928 H 86.7089 -0.598215 0.288158 0
M  V30 929 H 89.2389 -1.48457 1.4079 0
M  V30 930 H 89.2489 -3.91668 1.14281 0
M  V30 931 H 87.9239 -3.5151 2.22292 0
M  V30 932 H 86.5009 -3.70731 0.40157 0
M  V30 933 N 88.686 -0.835752 -1.33615 0
M  V30 934 C 89.933 -0.429959 -1.97883 0
M  V30 935 C 90.261 1.01006 -1.66217 0
M  V30 936 O 89.516 1.72047 -0.93265 0
M  V30 937 C 89.815 -0.593925 -3.52431 0
M  V30 938 C 89.481 -2.00158 -4.04039 0
M  V30 939 C 88.143 -2.38662 -4.17844 0
M  V30 940 C 90.495 -2.92117 -4.31644 0
M  V30 941 C 87.823 -3.68435 -4.56588 0
M  V30 942 C 90.175 -4.21368 -4.71838 0
M  V30 943 C 88.839 -4.59833 -4.83849 0
M  V30 944 H 88.109 -0.157333 -0.724104 0
M  V30 945 H 90.756 -1.06217 -1.59343 0
M  V30 946 H 89.061 0.121619 -3.91611 0
M  V30 947 H 90.758 -0.260282 -4.00154 0
M  V30 948 H 87.348 -1.69252 -3.93766 0
M  V30 949 H 91.532 -2.63608 -4.20505 0
M  V30 950 H 86.788 -3.98046 -4.64079 0
M  V30 951 H 90.962 -4.92703 -4.92155 0
M  V30 952 H 88.589 -5.60438 -5.13627 0
M  V30 953 N 90.1641 1.46063 -0.591896 0
M  V30 954 C 91.4101 2.02638 -0.0811191 0
M  V30 955 C 91.7431 1.4613 1.27905 0
M  V30 956 O 91.0181 0.629908 1.84017 0
M  V30 957 C 91.3011 3.60091 -0.0252436 0
M  V30 958 C 91.1541 4.26965 -1.41496 0
M  V30 959 C 92.4731 4.3496 0.670685 0
M  V30 960 H 89.5921 0.73635 -0.0309524 0
M  V30 961 H 92.2341 1.741 -0.760859 0
M  V30 962 H 90.3841 3.84535 0.553624 0
M  V30 963 H 92.0561 4.13756 -2.0397 0
M  V30 964 H 90.2991 3.85971 -1.98011 0
M  V30 965 H 90.9701 5.35781 -1.32825 0
M  V30 966 H 93.4461 4.15716 0.178825 0
M  V30 967 H 92.3221 5.44686 0.678837 0
M  V30 968 H 92.5831 4.06685 1.73379 0
M  V30 969 N 91.6422 0.330177 1.54103 0
M  V30 970 C 92.5522 -0.541534 2.28264 0
M  V30 971 C 93.5682 -1.12351 1.32866 0
M  V30 972 O 94.7442 -1.14206 1.65888 0
M  V30 973 C 91.8092 -1.68322 3.03098 0
M  V30 974 C 90.8702 -1.13238 4.14096 0
M  V30 975 C 90.1032 -2.21966 4.85352 0
M  V30 976 O 90.3262 -3.42437 4.56172 0
M  V30 977 O 89.2602 -1.87013 5.7211 0
M  V30 978 H 93.0862 0.060938 3.03639 0
M  V30 979 H 90.6712 0.09565 1.49093 0
M  V30 980 H 92.5532 -2.34777 3.49939 0
M  V30 981 H 91.2282 -2.27176 2.30593 0
M  V30 982 H 90.1352 -0.432736 3.71589 0
M  V30 983 H 91.4682 -0.588898 4.88664 0
M  V30 984 N 93.1203 -1.57491 0.0584922 0
M  V30 985 C 94.0503 -2.14988 -0.911178 0
M  V30 986 C 95.0313 -1.07343 -1.31952 0
M  V30 987 O 96.2163 -1.35318 -1.39294 0
M  V30 988 C 93.3463 -2.70078 -2.18347 0
M  V30 989 C 92.3003 -3.82771 -1.91495 0
M  V30 990 C 91.6263 -4.24408 -3.25241 0
M  V30 991 C 92.9263 -5.07592 -1.23075 0
M  V30 992 H 94.6203 -2.96263 -0.432246 0
M  V30 993 H 92.1663 -1.42512 -0.206469 0
M  V30 994 H 94.1193 -3.08943 -2.86587 0
M  V30 995 H 92.8433 -1.86005 -2.68458 0
M  V30 996 H 91.5023 -3.44389 -1.25664 0
M  V30 997 H 91.1503 -3.37275 -3.73168 0
M  V30 998 H 90.8503 -5.00366 -3.08071 0
M  V30 999 H 92.3743 -4.65879 -3.94701 0
M  V30 1000 H 93.7883 -5.43857 -1.81362 0
M  V30 1001 H 92.1853 -5.88741 -1.16207 0
M  V30 1002 H 93.2553 -4.84454 -0.207847 0
M  V30 1003 N 94.5984 0.214957 -1.56127 0
M  V30 1004 C 95.8754 0.963093 -1.70247 0
M  V30 1005 C 96.2554 2.02166 -0.60764 0
M  V30 1006 O 95.6034 2.25244 0.384385 0
M  V30 1007 C 95.8134 1.56756 -3.11815 0
M  V30 1008 C 97.1614 2.0573 -3.7143 0
M  V30 1009 O 98.1854 1.66637 -3.14818 0
M  V30 1010 O 97.0444 2.77603 -4.70743 0
M  V30 1011 H 94.1384 0.450321 -0.693643 0
M  V30 1012 H 96.6844 0.206219 -1.68442 0
M  V30 1013 H 95.4564 0.803533 -3.82961 0
M  V30 1014 H 95.0794 2.3898 -3.17765 0
M  V30 1015 N 96.0765 1.50051 0.48192 0
M  V30 1016 C 96.9865 1.7089 1.60728 0
M  V30 1017 C 98.0025 0.591788 1.63627 0
M  V30 1018 O 99.1785 0.868817 1.81696 0
M  V30 1019 C 96.2435 1.78855 2.97005 0
M  V30 1020 C 95.3045 3.02537 3.04581 0
M  V30 1021 C 94.5375 3.10112 4.34357 0
M  V30 1022 O 94.7605 2.24765 5.24249 0
M  V30 1023 O 93.6945 4.02747 4.47301 0
M  V30 1024 H 97.5205 2.66264 1.46072 0
M  V30 1025 H 95.1055 1.34018 0.660264 0
M  V30 1026 H 96.9875 1.86336 3.77964 0
M  V30 1027 H 95.6625 0.866628 3.11883 0
M  V30 1028 H 94.5695 3.00563 2.22739 0
M  V30 1029 H 95.9025 3.94272 2.94636 0
M  V30 1030 N 97.5546 -0.734337 1.39446 0
M  V30 1031 C 98.8016 -1.49391 1.36706 0
M  V30 1032 C 99.1296 -1.94465 -0.0367813 0
M  V30 1033 O 98.3846 -1.67154 -1.01774 0
M  V30 1034 C 98.6836 -2.74711 2.28623 0
M  V30 1035 C 98.3496 -2.48501 3.76242 0
M  V30 1036 C 97.0116 -2.41062 4.16464 0
M  V30 1037 C 99.3636 -2.26098 4.69606 0
M  V30 1038 C 96.6916 -2.09262 5.48112 0
M  V30 1039 C 99.0436 -1.95814 6.01531 0
M  V30 1040 C 97.7076 -1.86845 6.40816 0
M  V30 1041 H 96.9776 -0.546661 0.500243 0
M  V30 1042 H 99.6246 -0.842788 1.71957 0
M  V30 1043 H 97.9296 -3.44569 1.86492 0
M  V30 1044 H 99.6266 -3.32741 2.23796 0
M  V30 1045 H 96.2166 -2.55169 3.44364 0
M  V30 1046 H 100.401 -2.30812 4.39363 0
M  V30 1047 H 95.6566 -2.00841 5.77471 0
M  V30 1048 H 99.8306 -1.77488 6.73403 0
M  V30 1049 H 97.4576 -1.6197 7.42745 0
M  V30 1050 N 99.0327 -1.24633 -0.964593 0
M  V30 1051 C 99.9957 -1.0424 -2.04124 0
M  V30 1052 C 100.996 0.00137563 -1.608 0
M  V30 1053 O 102.186 -0.239883 -1.7254 0
M  V30 1054 C 99.3177 -0.580588 -3.3592 0
M  V30 1055 H 100.511 -1.99803 -2.23649 0
M  V30 1056 H 98.0637 -1.06899 -1.14027 0
M  V30 1057 H 98.7987 0.3781 -3.22088 0
M  V30 1058 H 98.5837 -1.33398 -3.6871 0
M  V30 1059 H 100.074 -0.459034 -4.15069 0
M  V30 1060 N 100.511 1.16574 -1.06058 0
M  V30 1061 C 101.927 1.3904 -0.783585 0
M  V30 1062 C 102.127 1.91784 0.618145 0
M  V30 1063 O 101.183 2.11511 1.37911 0
M  V30 1064 C 102.496 2.37329 -1.84649 0
M  V30 1065 C 104.044 2.51018 -1.86973 0
M  V30 1066 C 104.519 3.52588 -2.92311 0
M  V30 1067 N 106.01 3.60113 -2.91329 0
M  V30 1068 C 106.745 4.38486 -3.69482 0
M  V30 1069 N 106.241 5.20302 -4.57447 0
M  V30 1070 N 108.034 4.33446 -3.57885 0
M  V30 1071 H 100.185 0.806725 -1.96483 0
M  V30 1072 H 102.448 0.417117 -0.851303 0
M  V30 1073 H 102.154 2.05663 -2.85299 0
M  V30 1074 H 102.028 3.36946 -1.6955 0
M  V30 1075 H 104.415 2.81989 -0.869827 0
M  V30 1076 H 104.496 1.51445 -2.0615 0
M  V30 1077 H 104.14 3.22354 -3.92492 0
M  V30 1078 H 104.07 4.51886 -2.70383 0
M  V30 1079 H 106.561 3.01707 -2.27555 0
M  V30 1080 H 106.874 5.77311 -5.13743 0
M  V30 1081 H 105.219 5.19653 -4.61503 0
M  V30 1082 H 108.41 3.68586 -2.88551 0
M  V30 1083 H 108.583 4.94279 -4.19037 0
M  V30 1084 N 101.989 0.842826 1.3317 0
M  V30 1085 C 102.939 0.250877 2.26616 0
M  V30 1086 C 103.923 -0.596427 1.49437 0
M  V30 1087 O 105.115 -0.447747 1.71243 0
M  V30 1088 C 102.244 -0.569779 3.38539 0
M  V30 1089 C 101.33 0.289254 4.23112 0
M  V30 1090 N 101.721 1.36987 4.86897 0
M  V30 1091 C 100.019 0.0769631 4.45934 0
M  V30 1092 C 100.72 1.89737 5.49886 0
M  V30 1093 N 99.6959 1.19827 5.30229 0
M  V30 1094 H 103.498 1.07718 2.73448 0
M  V30 1095 H 101.012 0.687693 1.47121 0
M  V30 1096 H 103.009 -1.01018 4.04476 0
M  V30 1097 H 101.669 -1.39401 2.93253 0
M  V30 1098 H 102.68 1.75277 4.87338 0
M  V30 1099 H 99.3569 -0.713507 4.11358 0
M  V30 1100 H 100.747 2.80253 6.10662 0
M  V30 1101 N 103.467 -1.45747 0.599634 0
M  V30 1102 C 104.883 -1.57424 0.26264 0
M  V30 1103 C 105.083 -1.59222 -1.23493 0
M  V30 1104 O 104.139 -1.51825 -2.01756 0
M  V30 1105 C 105.452 -2.86061 0.926795 0
M  V30 1106 C 107 -2.99722 0.901967 0
M  V30 1107 C 107.475 -4.31119 1.54598 0
M  V30 1108 N 108.966 -4.37858 1.5111 0
M  V30 1109 C 109.701 -5.3818 1.97863 0
M  V30 1110 N 109.197 -6.45083 2.52666 0
M  V30 1111 N 110.99 -5.29487 1.88679 0
M  V30 1112 H 103.141 -1.42823 1.57211 0
M  V30 1113 H 105.404 -0.68235 0.658105 0
M  V30 1114 H 105.11 -2.90605 1.98095 0
M  V30 1115 H 104.984 -3.74563 0.445238 0
M  V30 1116 H 107.371 -2.9475 -0.143617 0
M  V30 1117 H 107.452 -2.12652 1.42171 0
M  V30 1118 H 107.096 -4.36849 2.59085 0
M  V30 1119 H 107.026 -5.16992 1.00132 0
M  V30 1120 H 109.517 -3.61209 1.11068 0
M  V30 1121 H 109.83 -7.17869 2.86155 0
M  V30 1122 H 108.175 -6.45856 2.56701 0
M  V30 1123 H 111.366 -4.44877 1.4561 0
M  V30 1124 H 111.539 -6.07524 2.25429 0
M  V30 1125 N 104.945 -0.338344 -1.53925 0
M  V30 1126 C 106.17 0.263987 -2.05713 0
M  V30 1127 C 106.595 1.43847 -1.21201 0
M  V30 1128 O 105.953 1.79904 -0.224535 0
M  V30 1129 C 106.001 0.662 -3.54471 0
M  V30 1130 O 105.105 1.76265 -3.72833 0
M  V30 1131 H 104.446 0.0448722 -0.662482 0
M  V30 1132 H 106.976 -0.491048 -1.9862 0
M  V30 1133 H 106.986 0.940594 -3.9701 0
M  V30 1134 H 105.661 -0.196937 -4.15433 0
M  V30 1135 H 104.238 1.48173 -3.42198 0
M  V30 1136 N 106.423 1.57458 -0.0668435 0
M  V30 1137 C 107.651 1.97624 0.612565 0
M  V30 1138 C 108.066 0.94502 1.63447 0
M  V30 1139 O 107.423 -0.0689276 1.8237 0
M  V30 1140 C 107.474 3.37869 1.28555 0
M  V30 1141 O 107.195 4.3704 0.304557 0
M  V30 1142 C 108.696 3.92882 2.05325 0
M  V30 1143 H 105.916 0.650045 0.166381 0
M  V30 1144 H 108.46 2.04035 -0.137782 0
M  V30 1145 H 106.615 3.3256 1.98702 0
M  V30 1146 H 107.029 5.18565 0.786779 0
M  V30 1147 H 108.503 4.93247 2.47812 0
M  V30 1148 H 108.98 3.29156 2.9078 0
M  V30 1149 H 109.586 4.01577 1.40056 0
M  V30 1150 N 107.901 -0.206675 1.56239 0
M  V30 1151 C 108.849 -1.27571 1.94495 0
M  V30 1152 C 109.843 -1.47737 0.828862 0
M  V30 1153 O 111.049 -1.48735 1.0138 0
M  V30 1154 H 107.424 -0.428029 0.6183 0
M  V30 1155 H 109.395 -0.925961 2.8367 0
M  V30 1156 C 108.144 -2.61568 2.29079 0
M  V30 1157 H 107.467 -2.46863 3.14482 0
M  V30 1158 H 108.907 -3.35144 2.5972 0
M  V30 1159 C 107.366 -3.17695 1.12123 0
M  V30 1160 O 107.896 -3.99801 0.390153 0
M  V30 1161 N 106.102 -2.76276 0.901097 0
M  V30 1162 H 105.649 -2.09613 1.49733 0
M  V30 1163 H 105.607 -3.1417 0.120319 0
M  V30 1164 N 109.379 -1.50304 -0.473955 0
M  V30 1165 C 110.626 -1.6115 -1.22625 0
M  V30 1166 C 110.954 -0.310517 -1.92005 0
M  V30 1167 O 110.209 0.703419 -1.82621 0
M  V30 1168 C 110.508 -2.73938 -2.29549 0
M  V30 1169 C 110.174 -4.14519 -1.7744 0
M  V30 1170 C 108.836 -4.5277 -1.62949 0
M  V30 1171 C 111.188 -5.02392 -1.3875 0
M  V30 1172 C 108.516 -5.76639 -1.08187 0
M  V30 1173 C 110.868 -6.26805 -0.854309 0
M  V30 1174 C 109.532 -6.63861 -0.696011 0
M  V30 1175 H 108.802 -0.589691 -0.448715 0
M  V30 1176 H 111.449 -1.84228 -0.522705 0
M  V30 1177 H 109.754 -2.44937 -3.05799 0
M  V30 1178 H 111.451 -2.79534 -2.87509 0
M  V30 1179 H 108.041 -3.8434 -1.89685 0
M  V30 1180 H 112.225 -4.73474 -1.4878 0
M  V30 1181 H 107.481 -6.04027 -0.946666 0
M  V30 1182 H 111.655 -6.94258 -0.545843 0
M  V30 1183 H 109.282 -7.59722 -0.26952 0
M  V30 1184 N 110.857 0.726932 -1.39834 0
M  V30 1185 C 112.105 1.4837 -1.37225 0
M  V30 1186 C 112.426 1.94979 0.0284857 0
M  V30 1187 O 111.696 1.69555 0.981213 0
M  V30 1188 H 110.276 0.55043 -0.505011 0
M  V30 1189 H 112.938 0.862468 -1.74778 0
M  V30 1190 H 112.034 2.36198 -2.04003 0
M  V30 1191 N 112.336 1.25143 0.95797 0
M  V30 1192 C 113.266 1.07711 2.07173 0
M  V30 1193 C 114.247 -0.0128462 1.70095 0
M  V30 1194 O 115.432 0.156061 1.93572 0
M  V30 1195 C 112.562 0.691503 3.40346 0
M  V30 1196 C 111.516 1.73132 3.9142 0
M  V30 1197 C 110.842 1.20049 5.21049 0
M  V30 1198 C 112.142 3.1294 4.1817 0
M  V30 1199 H 113.836 2.00873 2.22014 0
M  V30 1200 H 111.382 0.967191 1.06684 0
M  V30 1201 H 113.335 0.556505 4.17709 0
M  V30 1202 H 112.059 -0.275819 3.25433 0
M  V30 1203 H 110.718 1.8547 3.16222 0
M  V30 1204 H 110.366 0.223499 5.02503 0
M  V30 1205 H 110.066 1.89545 5.56189 0
M  V30 1206 H 111.59 1.07782 6.01012 0
M  V30 1207 H 113.004 3.03775 4.86203 0
M  V30 1208 H 111.401 3.79875 4.64559 0
M  V30 1209 H 112.471 3.6025 3.24573 0
M  V30 1210 N 113.814 -1.1601 1.06675 0
M  V30 1211 C 115.091 -1.82679 0.699114 0
M  V30 1212 C 115.471 -1.94559 -0.819137 0
M  V30 1213 O 114.819 -1.49169 -1.73092 0
M  V30 1214 C 115.029 -3.19445 1.40555 0
M  V30 1215 C 116.377 -3.95171 1.55323 0
M  V30 1216 O 117.401 -3.28976 1.36577 0
M  V30 1217 O 116.26 -5.13833 1.86112 0
M  V30 1218 H 113.354 -0.788954 0.247951 0
M  V30 1219 H 115.9 -1.23179 1.16726 0
M  V30 1220 H 114.672 -3.05856 2.44065 0
M  V30 1221 H 114.295 -3.86625 0.927733 0
M  V30 1222 N 115.292 -0.849877 -1.32721 0
M  V30 1223 C 116.255 -0.296122 -2.27279 0
M  V30 1224 C 117.255 0.541458 -1.5141 0
M  V30 1225 O 118.445 0.353658 -1.70572 0
M  V30 1226 C 115.577 0.581579 -3.35902 0
M  V30 1227 H 116.77 -1.13064 -2.77771 0
M  V30 1228 H 114.323 -0.62383 -1.43311 0
M  V30 1229 H 115.058 1.43809 -2.9067 0
M  V30 1230 H 114.843 -0.0178814 -3.92096 0
M  V30 1231 H 116.333 0.961951 -4.0637 0
M  V30 1232 N 116.77 1.45427 -0.607355 0
M  V30 1233 C 117.718 2.32269 0.12411 0
M  V30 1234 C 118.712 1.45955 0.859854 0
M  V30 1235 O 119.918 1.6244 0.775447 0
M  V30 1236 H 116.293 0.749691 0.0588839 0
M  V30 1237 H 118.264 2.91743 -0.626762 0
M  V30 1238 C 117.013 3.29567 1.1082 0
M  V30 1239 H 116.336 3.95978 0.551492 0
M  V30 1240 H 117.776 3.93061 1.58995 0
M  V30 1241 C 116.235 2.56722 2.18164 0
M  V30 1242 O 116.765 2.34842 3.25902 0
M  V30 1243 N 114.971 2.16861 1.93442 0
M  V30 1244 H 114.518 2.34855 1.05834 0
M  V30 1245 H 114.476 1.68444 2.65469 0
M  V30 1246 N 118.248 0.346503 1.53744 0
M  V30 1247 C 119.664 -0.00530975 1.59599 0
M  V30 1248 C 119.864 -1.48465 1.36236 0
M  V30 1249 O 118.92 -2.24376 1.15808 0
M  V30 1250 C 120.233 0.433516 2.97559 0
M  V30 1251 C 121.781 0.386111 3.10609 0
M  V30 1252 C 122.256 0.800451 4.50951 0
M  V30 1253 N 123.747 0.754753 4.5701 0
M  V30 1254 C 124.482 1.04727 5.63755 0
M  V30 1255 N 123.978 1.4081 6.7834 0
M  V30 1256 N 125.771 0.971316 5.53644 0
M  V30 1257 H 117.922 1.31009 1.67184 0
M  V30 1258 H 120.185 0.534242 0.783128 0
M  V30 1259 H 119.891 1.46509 3.19731 0
M  V30 1260 H 119.765 -0.189753 3.76722 0
M  V30 1261 H 122.152 -0.636295 2.88158 0
M  V30 1262 H 122.233 1.04462 2.33498 0
M  V30 1263 H 121.877 1.82088 4.74137 0
M  V30 1264 H 121.807 0.119386 5.26465 0
M  V30 1265 H 124.298 0.488662 3.74727 0
M  V30 1266 H 124.611 1.61607 7.55714 0
M  V30 1267 H 122.956 1.44657 6.79779 0
M  V30 1268 H 126.147 0.688748 4.63005 0
M  V30 1269 H 126.32 1.20263 6.36742 0
M  V30 1270 N 119.726 -1.57421 0.075193 0
M  V30 1271 C 121.137 -1.81021 -0.456964 0
M  V30 1272 C 121.488 -0.98936 -1.69429 0
M  V30 1273 O 120.613 -0.212865 -2.15351 0
M  V30 1274 C 121.208 -3.28329 -0.83581 0
M  V30 1275 C 119.767 -3.52764 -1.31281 0
M  V30 1276 C 118.914 -2.75676 -0.299648 0
M  V30 1277 H 121.865 -1.55822 0.300856 0
M  V30 1278 H 121.886 -3.40564 -1.69696 0
M  V30 1279 H 121.398 -3.88046 0.0649238 0
M  V30 1280 H 119.499 -2.98355 -2.23193 0
M  V30 1281 H 119.612 -4.61451 -1.28839 0
M  V30 1282 H 117.976 -2.42538 -0.777641 0
M  V30 1283 H 118.759 -3.38132 0.593417 0
M  V30 1284 N 121.204 0.198386 -1.56346 0
M  V30 1285 C 122.434 0.934215 -1.84271 0
M  V30 1286 C 122.842 1.77496 -0.655125 0
M  V30 1287 O 122.185 1.7961 0.385488 0
M  V30 1288 C 122.247 1.88278 -3.06254 0
M  V30 1289 C 121.911 1.22431 -4.40295 0
M  V30 1290 C 122.908 0.602839 -5.16393 0
M  V30 1291 C 120.593 1.22915 -4.87029 0
M  V30 1292 C 122.587 -0.0050083 -6.374 0
M  V30 1293 C 120.274 0.617465 -6.07973 0
M  V30 1294 C 121.272 0.00146341 -6.83 0
M  V30 1295 O 120.96 -0.600642 -8.01653 0
M  V30 1296 H 120.692 0.278245 -0.616081 0
M  V30 1297 H 123.246 0.211626 -2.04307 0
M  V30 1298 H 121.476 2.64498 -2.82095 0
M  V30 1299 H 123.165 2.48612 -3.20853 0
M  V30 1300 H 123.931 0.591265 -4.81382 0
M  V30 1301 H 119.81 1.69801 -4.28589 0
M  V30 1302 H 123.354 -0.48643 -6.95902 0
M  V30 1303 H 119.251 0.62653 -6.42452 0
M  V30 1304 H 120.019 -0.497225 -8.16988 0
M  V30 1305 N 122.682 1.50554 0.465978 0
M  V30 1306 C 123.93 1.61479 1.21528 0
M  V30 1307 C 124.251 0.319596 1.92363 0
M  V30 1308 O 123.521 -0.663194 1.84333 0
M  V30 1309 H 122.101 0.595055 0.451573 0
M  V30 1310 H 124.763 1.87355 0.53704 0
M  V30 1311 H 123.859 2.42846 1.96042 0
M  V30 1312 N 124.16 -0.719506 1.40217 0
M  V30 1313 C 125.437 -1.47221 1.28784 0
M  V30 1314 C 125.817 -2.10883 -0.0956067 0
M  V30 1315 O 125.165 -1.99833 -1.10811 0
M  V30 1316 C 125.375 -2.5111 2.42373 0
M  V30 1317 C 126.723 -3.17053 2.82423 0
M  V30 1318 O 127.747 -2.61429 2.41937 0
M  V30 1319 O 126.606 -4.17742 3.52355 0
M  V30 1320 H 123.7 -0.654491 0.50554 0
M  V30 1321 H 126.246 -0.752014 1.52128 0
M  V30 1322 H 125.018 -2.02556 3.34793 0
M  V30 1323 H 124.641 -3.3067 2.20778 0
M  V30 1324 N 125.638 -1.25649 -0.95132 0
M  V30 1325 C 126.886 -1.10375 -1.69298 0
M  V30 1326 C 127.207 0.355339 -1.91735 0
M  V30 1327 O 126.477 1.25188 -1.50681 0
M  V30 1328 H 125.057 -0.405461 -0.627384 0
M  V30 1329 H 127.719 -1.57823 -1.14358 0
M  V30 1330 H 126.815 -1.61465 -2.67087 0
M  V30 1331 N 127.117 1.15442 -1.07289 0
M  V30 1332 C 128.363 1.86489 -0.796846 0
M  V30 1333 C 128.696 1.82078 0.675371 0
M  V30 1334 O 127.971 1.24346 1.4956 0
M  V30 1335 C 128.254 3.35626 -1.30489 0
M  V30 1336 C 128.107 3.48673 -2.84161 0
M  V30 1337 C 129.426 4.30357 -0.920907 0
M  V30 1338 H 126.545 0.677144 -0.290939 0
M  V30 1339 H 129.187 1.35633 -1.33056 0
M  V30 1340 H 127.337 3.79068 -0.850883 0
M  V30 1341 H 129.009 3.14099 -3.37846 0
M  V30 1342 H 127.252 2.90253 -3.22391 0
M  V30 1343 H 127.923 4.53453 -3.14777 0
M  V30 1344 H 130.399 3.94871 -1.3121 0
M  V30 1345 H 129.275 5.33193 -1.30372 0
M  V30 1346 H 129.536 4.4176 0.173226 0
M  V30 1347 N 128.595 0.856903 1.32268 0
M  V30 1348 C 129.841 0.462069 1.97466 0
M  V30 1349 C 130.174 -0.980298 1.67642 0
M  V30 1350 O 129.449 -1.68824 0.965858 0
M  V30 1351 C 129.732 0.704336 3.53145 0
M  V30 1352 C 129.585 2.19529 3.9259 0
M  V30 1353 C 130.904 0.1622 4.39801 0
M  V30 1354 H 128.023 0.169357 0.717278 0
M  V30 1355 H 130.665 1.07574 1.56614 0
M  V30 1356 H 128.815 0.181999 3.88073 0
M  V30 1357 H 130.487 2.78387 3.67829 0
M  V30 1358 H 128.73 2.67292 3.41668 0
M  V30 1359 H 129.401 2.31549 5.01088 0
M  V30 1360 H 131.877 0.608905 4.11621 0
M  V30 1361 H 130.753 0.361265 5.4771 0
M  V30 1362 H 131.014 -0.935158 4.32096 0
M  V30 1363 N 130.073 -1.45103 0.615059 0
M  V30 1364 C 131.301 -2.06553 0.11977 0
M  V30 1365 C 131.716 -1.45842 -1.19898 0
M  V30 1366 O 131.073 -0.575325 -1.73194 0
M  V30 1367 C 131.124 -3.61495 -0.018364 0
M  V30 1368 O 130.845 -4.19942 1.24822 0
M  V30 1369 C 132.346 -4.39947 -0.544237 0
M  V30 1370 H 129.566 -0.667096 0.0722739 0
M  V30 1371 H 132.11 -1.8623 0.84491 0
M  V30 1372 H 130.265 -3.81135 -0.693865 0
M  V30 1373 H 130.679 -5.13204 1.0827 0
M  V30 1374 H 132.153 -5.48838 -0.589953 0
M  V30 1375 H 132.63 -4.10255 -1.56805 0
M  V30 1376 H 133.236 -4.25188 0.0974703 0
M  V30 1377 N 131.551 -0.354651 -1.53558 0
M  V30 1378 C 132.799 0.237972 -2.00694 0
M  V30 1379 C 133.12 1.50173 -1.24391 0
M  V30 1380 O 132.39 1.92673 -0.354135 0
M  V30 1381 H 130.97 0.0909256 -0.741446 0
M  V30 1382 H 133.632 -0.478368 -1.88938 0
M  V30 1383 H 132.728 0.47264 -3.085 0
M  V30 1384 N 133.029 1.57378 -0.0835403 0
M  V30 1385 C 134.259 1.97975 0.590713 0
M  V30 1386 C 134.667 0.961083 1.62972 0
M  V30 1387 O 134.01 -0.0590879 1.83605 0
M  V30 1388 C 134.072 3.34915 1.3066 0
M  V30 1389 C 133.736 4.55069 0.419698 0
M  V30 1390 C 134.733 5.18868 -0.32749 0
M  V30 1391 C 132.418 5.0114 0.341137 0
M  V30 1392 C 134.412 6.27098 -1.14134 0
M  V30 1393 C 132.099 6.0924 -0.476374 0
M  V30 1394 C 133.097 6.72083 -1.21627 0
M  V30 1395 O 132.785 7.781 -2.02028 0
M  V30 1396 H 132.517 0.655818 0.163947 0
M  V30 1397 H 135.071 2.04807 -0.156021 0
M  V30 1398 H 133.301 3.24733 2.09966 0
M  V30 1399 H 134.99 3.60037 1.87424 0
M  V30 1400 H 135.756 4.84211 -0.276459 0
M  V30 1401 H 131.635 4.51996 0.90668 0
M  V30 1402 H 135.179 6.7608 -1.71935 0
M  V30 1403 H 131.076 6.43329 -0.528927 0
M  V30 1404 H 131.844 7.95034 -1.94586 0
M  V30 1405 N 134.507 -0.190092 1.56449 0
M  V30 1406 C 135.755 -0.907908 1.80559 0
M  V30 1407 C 136.076 -1.83583 0.657438 0
M  V30 1408 O 135.346 -1.93203 -0.323924 0
M  V30 1409 H 133.926 -0.338247 0.666032 0
M  V30 1410 H 136.588 -0.194403 1.93928 0
M  V30 1411 H 135.684 -1.49604 2.73907 0
M  V30 1412 N 135.985 -1.50799 -0.457987 0
M  V30 1413 C 137.213 -1.66218 -1.23203 0
M  V30 1414 C 137.628 -0.350894 -1.85511 0
M  V30 1415 O 136.985 0.668546 -1.69814 0
M  V30 1416 C 137.036 -2.76291 -2.33121 0
M  V30 1417 O 136.757 -4.02338 -1.73366 0
M  V30 1418 C 138.258 -3.028 -3.2377 0
M  V30 1419 H 135.478 -0.558361 -0.372121 0
M  V30 1420 H 138.022 -1.97099 -0.545179 0
M  V30 1421 H 136.177 -2.48068 -2.97558 0
M  V30 1422 H 136.591 -4.63312 -2.4585 0
M  V30 1423 H 138.065 -3.8345 -3.97077 0
M  V30 1424 H 138.542 -2.14385 -3.83322 0
M  V30 1425 H 139.148 -3.32604 -2.65056 0
M  V30 1426 N 137.463 0.71206 -1.40597 0
M  V30 1427 C 138.709 1.47416 -1.39271 0
M  V30 1428 C 139.042 1.942 0.00388791 0
M  V30 1429 O 138.317 1.68403 0.973179 0
M  V30 1430 C 138.6 2.69774 -2.38525 0
M  V30 1431 C 138.453 2.28861 -3.87224 0
M  V30 1432 C 139.772 3.71939 -2.35264 0
M  V30 1433 H 136.891 0.534713 -0.5072 0
M  V30 1434 H 139.533 0.812375 -1.71757 0
M  V30 1435 H 137.683 3.26238 -2.10953 0
M  V30 1436 H 139.355 1.77852 -4.25636 0
M  V30 1437 H 137.598 1.60824 -4.02887 0
M  V30 1438 H 138.269 3.16584 -4.52193 0
M  V30 1439 H 140.745 3.25113 -2.59694 0
M  V30 1440 H 139.621 4.55186 -3.06753 0
M  V30 1441 H 139.882 4.20484 -1.36549 0
M  V30 1442 N 138.941 1.26152 0.944643 0
M  V30 1443 C 140.218 1.02247 1.66748 0
M  V30 1444 C 140.598 -0.448202 2.06287 0
M  V30 1445 O 139.946 -1.42779 1.78399 0
M  V30 1446 C 140.156 1.96788 2.88228 0
M  V30 1447 C 141.504 2.25201 3.59958 0
M  V30 1448 O 142.528 1.94626 2.98327 0
M  V30 1449 O 141.387 2.77242 4.70956 0
M  V30 1450 H 138.481 0.388517 0.730057 0
M  V30 1451 H 141.027 1.37348 0.99668 0
M  V30 1452 H 139.799 2.96047 2.55875 0
M  V30 1453 H 139.422 1.62145 3.63035 0
M  V30 1454 N 140.419 -1.14872 1.07899 0
M  V30 1455 C 141.667 -1.85422 0.803941 0
M  V30 1456 C 141.988 -1.83051 -0.67211 0
M  V30 1457 O 141.258 -1.27532 -1.48703 0
M  V30 1458 H 139.838 -0.686537 0.294408 0
M  V30 1459 H 142.5 -1.39226 1.3639 0
M  V30 1460 H 141.596 -2.90399 1.14346 0
M  V30 1461 N 141.898 -0.863906 -1.31812 0
M  V30 1462 C 143.314 -0.555004 -1.49639 0
M  V30 1463 C 143.514 0.912266 -1.79666 0
M  V30 1464 O 142.57 1.69479 -1.87171 0
M  V30 1465 C 143.883 -1.44998 -2.63431 0
M  V30 1466 C 145.431 -1.45138 -2.77316 0
M  V30 1467 C 145.906 -2.33179 -3.94197 0
M  V30 1468 N 147.397 -2.31025 -4.01474 0
M  V30 1469 C 148.132 -2.95871 -4.9117 0
M  V30 1470 N 147.628 -3.69863 -5.8581 0
M  V30 1471 N 149.421 -2.85211 -4.84367 0
M  V30 1472 H 141.572 -1.81339 -1.10589 0
M  V30 1473 H 143.835 -0.77505 -0.545895 0
M  V30 1474 H 143.541 -2.49377 -2.48 0
M  V30 1475 H 143.415 -1.14409 -3.59431 0
M  V30 1476 H 145.802 -0.415201 -2.92164 0
M  V30 1477 H 145.883 -1.79747 -1.82001 0
M  V30 1478 H 145.527 -3.3687 -3.80107 0
M  V30 1479 H 145.457 -1.95897 -4.88807 0
M  V30 1480 H 147.948 -1.77238 -3.33759 0
M  V30 1481 H 148.261 -4.16486 -6.50968 0
M  V30 1482 H 146.606 -3.73971 -5.85808 0
M  V30 1483 H 149.797 -2.26948 -4.09405 0
M  V30 1484 H 149.97 -3.36027 -5.54066 0
M  V30 1485 N 143.376 1.44774 -0.622745 0
M  V30 1486 C 144.787 1.85546 -0.207226 0
M  V30 1487 C 145.138 1.52093 1.23944 0
M  V30 1488 O 144.263 0.95492 1.94191 0
M  V30 1489 C 144.858 3.36781 -0.369313 0
M  V30 1490 C 143.417 3.76399 -0.00836847 0
M  V30 1491 C 142.564 2.68664 -0.686651 0
M  V30 1492 H 145.515 1.3536 -0.828454 0
M  V30 1493 H 145.536 3.78453 0.394162 0
M  V30 1494 H 145.048 3.61098 -1.42231 0
M  V30 1495 H 143.149 3.57698 1.04322 0
M  V30 1496 H 143.262 4.7732 -0.412584 0
M  V30 1497 H 141.626 2.54404 -0.122777 0
M  V30 1498 H 142.409 2.95815 -1.74208 0
M  V30 1499 N 144.854 0.36279 1.53368 0
M  V30 1500 C 146.1 -0.228113 2.01513 0
M  V30 1501 C 146.433 -1.48648 1.2497 0
M  V30 1502 O 145.708 -1.91459 0.342616 0
M  V30 1503 C 145.991 -0.522884 3.56284 0
M  V30 1504 C 145.844 0.74892 4.43521 0
M  V30 1505 C 147.163 -1.32461 4.19693 0
M  V30 1506 H 144.282 -0.0814343 0.732487 0
M  V30 1507 H 146.924 0.48713 1.83649 0
M  V30 1508 H 145.074 -1.1322 3.71636 0
M  V30 1509 H 146.746 1.38648 4.39971 0
M  V30 1510 H 144.989 1.36986 4.11603 0
M  V30 1511 H 145.66 0.497667 5.49752 0
M  V30 1512 H 148.136 -0.809203 4.08156 0
M  V30 1513 H 147.012 -1.49961 5.28018 0
M  V30 1514 H 147.273 -2.33232 3.75573 0
M  V30 1515 N 146.332 -1.57332 0.0918853 0
M  V30 1516 C 147.295 -2.12708 -0.85369 0
M  V30 1517 C 148.295 -1.05561 -1.213 0
M  V30 1518 O 149.485 -1.31461 -1.14296 0
M  V30 1519 C 146.617 -2.64503 -2.15061 0
M  V30 1520 H 147.81 -2.97573 -0.3729 0
M  V30 1521 H 145.363 -1.55509 -0.157072 0
M  V30 1522 H 146.098 -1.83149 -2.67632 0
M  V30 1523 H 145.883 -3.4284 -1.90272 0
M  V30 1524 H 147.373 -3.07351 -2.82711 0
M  V30 1525 N 147.81 0.181792 -1.56548 0
M  V30 1526 C 149.056 0.901431 -1.81665 0
M  V30 1527 C 149.389 1.82347 -0.668075 0
M  V30 1528 O 148.664 1.91669 0.330615 0
M  V30 1529 C 148.947 1.70618 -3.17115 0
M  V30 1530 C 148.8 0.807964 -4.42484 0
M  V30 1531 C 150.119 2.67605 -3.49393 0
M  V30 1532 H 147.238 0.32627 -0.660846 0
M  V30 1533 H 149.88 0.168134 -1.89255 0
M  V30 1534 H 148.03 2.33133 -3.10775 0
M  V30 1535 H 149.702 0.19649 -4.60881 0
M  V30 1536 H 147.945 0.115411 -4.33646 0
M  V30 1537 H 148.616 1.40632 -5.33785 0
M  V30 1538 H 151.092 2.15218 -3.56118 0
M  V30 1539 H 149.968 3.20985 -4.45264 0
M  V30 1540 H 150.229 3.47298 -2.73563 0
M  V30 1541 N 149.288 1.51039 0.449983 0
M  V30 1542 C 150.535 1.63081 1.20045 0
M  V30 1543 C 150.863 0.341024 1.91487 0
M  V30 1544 O 150.118 -0.674276 1.83717 0
M  V30 1545 C 150.417 2.77556 2.25161 0
M  V30 1546 C 150.083 4.17289 1.70823 0
M  V30 1547 C 148.745 4.55305 1.55725 0
M  V30 1548 C 151.097 5.04536 1.3074 0
M  V30 1549 C 148.425 5.78287 0.989999 0
M  V30 1550 C 150.777 6.28085 0.754482 0
M  V30 1551 C 149.441 6.64885 0.590308 0
M  V30 1552 H 148.711 0.596755 0.439277 0
M  V30 1553 H 151.358 1.85037 0.49333 0
M  V30 1554 H 149.663 2.49771 3.01863 0
M  V30 1555 H 151.36 2.84073 2.83026 0
M  V30 1556 H 147.95 3.8731 1.83546 0
M  V30 1557 H 152.134 4.75782 1.41229 0
M  V30 1558 H 147.39 6.05456 0.850451 0
M  V30 1559 H 151.564 6.95038 0.435324 0
M  V30 1560 H 149.191 7.60055 0.14862 0
M  V30 1561 N 150.766 -0.704594 1.40972 0
M  V30 1562 C 151.991 -1.49858 1.43378 0
M  V30 1563 C 152.416 -1.88061 0.038184 0
M  V30 1564 O 151.774 -1.5402 -0.956425 0
M  V30 1565 C 151.822 -2.74333 2.34038 0
M  V30 1566 O 150.926 -3.7147 1.7912 0
M  V30 1567 H 150.267 -0.45139 0.486974 0
M  V30 1568 H 152.797 -0.866832 1.8533 0
M  V30 1569 H 152.807 -3.22741 2.49604 0
M  V30 1570 H 151.482 -2.45863 3.35446 0
M  V30 1571 H 150.059 -3.30363 1.72958 0
M  V30 1572 N 152.244 -1.26651 -0.937939 0
M  V30 1573 C 153.176 -1.04283 -2.04102 0
M  V30 1574 C 154.189 -0.00221014 -1.628 0
M  V30 1575 O 155.378 -0.242645 -1.76843 0
M  V30 1576 C 152.478 -0.557846 -3.34277 0
M  V30 1577 C 151.651 -1.66843 -4.04329 0
M  V30 1578 C 150.71 -1.18095 -5.12777 0
M  V30 1579 O 149.736 -1.87865 -5.37304 0
M  V30 1580 N 150.938 -0.0311006 -5.80492 0
M  V30 1581 H 153.703 -1.9927 -2.23856 0
M  V30 1582 H 151.264 -1.1808 -1.10764 0
M  V30 1583 H 153.256 -0.215836 -4.04124 0
M  V30 1584 H 151.826 0.298523 -3.11171 0
M  V30 1585 H 151.046 -2.18123 -3.28353 0
M  V30 1586 H 152.334 -2.41408 -4.47883 0
M  V30 1587 H 151.732 0.551486 -5.63005 0
M  V30 1588 H 150.289 0.251809 -6.51313 0
M  V30 1589 N 153.722 1.14298 -1.08507 0
M  V30 1590 C 154.999 1.81544 -0.728088 0
M  V30 1591 C 155.379 1.95838 0.78808 0
M  V30 1592 O 154.727 1.51904 1.70697 0
M  V30 1593 C 154.937 3.17169 -1.45619 0
M  V30 1594 C 156.285 3.9265 -1.61591 0
M  V30 1595 O 157.309 3.26762 -1.41793 0
M  V30 1596 O 156.168 5.10807 -1.94263 0
M  V30 1597 H 153.262 0.78491 -0.260471 0
M  V30 1598 H 155.808 1.21307 -1.18671 0
M  V30 1599 H 154.58 3.01934 -2.489 0
M  V30 1600 H 154.203 3.851 -0.989124 0
M  V30 1601 N 155.201 0.870884 1.31352 0
M  V30 1602 C 156.448 0.482273 1.96673 0
M  V30 1603 C 156.776 -0.965638 1.68836 0
M  V30 1604 O 156.031 -1.69514 0.977937 0
M  V30 1605 C 156.33 0.687157 3.50732 0
M  V30 1606 C 155.996 2.108 3.9859 0
M  V30 1607 C 154.658 2.49656 4.1137 0
M  V30 1608 C 157.01 3.03459 4.23748 0
M  V30 1609 C 154.338 3.80412 4.46659 0
M  V30 1610 C 156.69 4.3373 4.60501 0
M  V30 1611 C 155.354 4.725 4.71487 0
M  V30 1612 H 154.624 0.176476 0.719679 0
M  V30 1613 H 157.271 1.10405 1.56471 0
M  V30 1614 H 155.576 -0.0177476 3.91796 0
M  V30 1615 H 157.273 0.366284 3.99324 0
M  V30 1616 H 153.863 1.79633 3.8914 0
M  V30 1617 H 158.047 2.74665 4.13368 0
M  V30 1618 H 153.303 4.1021 4.53362 0
M  V30 1619 H 157.477 5.05578 4.78919 0
M  V30 1620 H 155.104 5.73859 4.98588 0
M  V30 1621 N 156.679 -1.44442 0.630414 0
M  V30 1622 C 157.907 -2.06414 0.141671 0
M  V30 1623 C 158.322 -1.47105 -1.18345 0
M  V30 1624 O 157.679 -0.593662 -1.72574 0
M  V30 1625 C 157.73 -3.61494 0.0199784 0
M  V30 1626 O 157.451 -4.18594 1.29269 0
M  V30 1627 C 158.952 -4.40499 -0.497544 0
M  V30 1628 H 156.172 -0.666292 0.0793452 0
M  V30 1629 H 158.716 -1.85323 0.864614 0
M  V30 1630 H 156.871 -3.8185 -0.653402 0
M  V30 1631 H 157.285 -5.12026 1.13707 0
M  V30 1632 H 158.759 -5.49433 -0.531708 0
M  V30 1633 H 159.236 -4.11895 -1.52445 0
M  V30 1634 H 159.842 -4.25061 0.142562 0
M  V30 1635 N 158.157 -0.370918 -1.53173 0
M  V30 1636 C 159.403 0.217423 -2.01631 0
M  V30 1637 C 159.736 1.47983 -1.25756 0
M  V30 1638 O 159.011 1.91274 -0.352764 0
M  V30 1639 C 159.294 0.503982 -3.56556 0
M  V30 1640 C 159.147 -0.77243 -4.43118 0
M  V30 1641 C 160.466 1.30234 -4.20389 0
M  V30 1642 H 157.585 0.0775486 -0.732909 0
M  V30 1643 H 160.227 -0.496863 -1.83388 0
M  V30 1644 H 158.377 1.11248 -3.72231 0
M  V30 1645 H 160.049 -1.4098 -4.39229 0
M  V30 1646 H 158.292 -1.39167 -4.10871 0
M  V30 1647 H 158.963 -0.526815 -5.4948 0
M  V30 1648 H 161.439 0.787546 -4.08579 0
M  V30 1649 H 160.315 1.47158 -5.28806 0
M  V30 1650 H 160.576 2.31237 -3.76805 0
M  V30 1651 N 159.635 1.57281 -0.100228 0
M  V30 1652 C 160.882 1.94537 0.562268 0
M  V30 1653 C 161.21 0.982315 1.67871 0
M  V30 1654 O 160.465 0.00280936 1.957 0
M  V30 1655 C 160.764 3.38305 1.15259 0
M  V30 1656 C 160.43 4.50618 0.159409 0
M  V30 1657 C 159.092 4.81066 -0.113741 0
M  V30 1658 C 161.444 5.18615 -0.518461 0
M  V30 1659 C 158.772 5.76835 -1.07137 0
M  V30 1660 C 161.124 6.15412 -1.46459 0
M  V30 1661 C 159.788 6.44262 -1.74592 0
M  V30 1662 H 159.058 0.711863 0.205748 0
M  V30 1663 H 161.705 1.90679 -0.17715 0
M  V30 1664 H 160.01 3.38766 1.96836 0
M  V30 1665 H 161.707 3.64435 1.67297 0
M  V30 1666 H 158.297 4.2689 0.382491 0
M  V30 1667 H 162.481 4.95264 -0.320581 0
M  V30 1668 H 157.737 5.975 -1.29628 0
M  V30 1669 H 161.911 6.67194 -1.99564 0
M  V30 1670 H 159.538 7.1828 -2.48953 0
M  V30 1671 N 161.113 -0.173488 1.56642 0
M  V30 1672 C 162.361 -0.888706 1.81512 0
M  V30 1673 C 162.682 -1.82875 0.676872 0
M  V30 1674 O 161.952 -1.93536 -0.303414 0
M  V30 1675 H 160.532 -0.331164 0.669582 0
M  V30 1676 H 163.194 -0.173823 1.94123 0
M  V30 1677 H 162.29 -1.46691 2.75478 0
M  V30 1678 N 162.591 -1.51276 -0.441967 0
M  V30 1679 C 163.839 -1.63392 -1.18943 0
M  V30 1680 C 164.16 -0.350159 -1.9183 0
M  V30 1681 O 163.43 0.633784 -1.85364 0
M  V30 1682 H 162.01 -0.602164 -0.442049 0
M  V30 1683 H 164.672 -1.88186 -0.507165 0
M  V30 1684 H 163.768 -2.45934 -1.92154 0
M  V30 1685 N 164.069 0.697108 -1.41344 0
M  V30 1686 C 165.032 1.79281 -1.42797 0
M  V30 1687 C 166.032 1.57607 -0.318837 0
M  V30 1688 O 167.222 1.64309 -0.578642 0
M  V30 1689 C 164.354 3.17632 -1.23785 0
M  V30 1690 H 165.547 1.79385 -2.40335 0
M  V30 1691 H 163.1 0.904582 -1.27464 0
M  V30 1692 H 163.835 3.23167 -0.270814 0
M  V30 1693 H 163.62 3.34765 -2.04144 0
M  V30 1694 H 165.11 3.97617 -1.27633 0
M  V30 1695 N 165.547 1.27147 0.931209 0
M  V30 1696 C 166.477 1.12081 2.04842 0
M  V30 1697 C 167.458 0.0232364 1.70084 0
M  V30 1698 O 168.643 0.197085 1.93197 0
M  V30 1699 C 165.773 0.76354 3.38803 0
M  V30 1700 C 164.727 1.81396 3.87659 0
M  V30 1701 C 164.053 1.31075 5.18385 0
M  V30 1702 C 165.353 3.21739 4.11438 0
M  V30 1703 H 167.047 2.05537 2.17703 0
M  V30 1704 H 164.593 0.989603 1.04608 0
M  V30 1705 H 166.546 0.644982 4.16435 0
M  V30 1706 H 165.27 -0.206727 3.25945 0
M  V30 1707 H 163.929 1.92136 3.12217 0
M  V30 1708 H 163.577 0.330037 5.01916 0
M  V30 1709 H 163.277 2.013 5.52044 0
M  V30 1710 H 164.801 1.20506 5.98591 0
M  V30 1711 H 166.215 3.14019 4.79651 0
M  V30 1712 H 164.612 3.89644 4.56397 0
M  V30 1713 H 165.682 3.67054 3.16859 0
M  V30 1714 N 167.025 -1.13721 1.09112 0
M  V30 1715 C 168.273 -1.84559 0.823562 0
M  V30 1716 C 168.594 -1.83754 -0.652658 0
M  V30 1717 O 167.864 -1.29102 -1.47342 0
M  V30 1718 H 166.444 -0.683376 0.301673 0
M  V30 1719 H 169.106 -1.37771 1.37859 0
M  V30 1720 H 168.202 -2.8917 1.17419 0
M  V30 1721 N 168.503 -0.877838 -1.30888 0
M  V30 1722 C 169.413 -0.343096 -2.32078 0
M  V30 1723 C 170.429 0.551022 -1.65045 0
M  V30 1724 O 171.605 0.445854 -1.96403 0
M  V30 1725 C 168.67 0.439905 -3.43898 0
M  V30 1726 C 167.731 -0.483111 -4.26573 0
M  V30 1727 C 166.964 0.262616 -5.33053 0
M  V30 1728 O 167.187 1.48967 -5.50604 0
M  V30 1729 O 166.121 -0.383593 -6.00676 0
M  V30 1730 H 169.947 -1.18203 -2.79753 0
M  V30 1731 H 167.532 -0.64145 -1.34929 0
M  V30 1732 H 169.414 0.883504 -4.12034 0
M  V30 1733 H 168.089 1.25526 -2.98371 0
M  V30 1734 H 166.996 -0.975374 -3.61161 0
M  V30 1735 H 168.329 -1.26427 -4.75686 0
M  V30 1736 N 169.982 1.44106 -0.638065 0
M  V30 1737 C 171.228 2.02277 -0.145546 0
M  V30 1738 C 171.561 1.50125 1.23191 0
M  V30 1739 O 170.836 0.688133 1.8192 0
M  V30 1740 C 171.119 3.59829 -0.139791 0
M  V30 1741 C 170.972 4.22247 -1.55008 0
M  V30 1742 C 172.291 4.36873 0.531966 0
M  V30 1743 H 169.41 0.734992 -0.0543632 0
M  V30 1744 H 172.052 1.71592 -0.815863 0
M  V30 1745 H 170.202 3.86102 0.431007 0
M  V30 1746 H 171.874 4.07057 -2.1703 0
M  V30 1747 H 170.117 3.79476 -2.10191 0
M  V30 1748 H 170.788 5.31284 -1.49804 0
M  V30 1749 H 173.264 4.16074 0.0464781 0
M  V30 1750 H 172.14 5.4657 0.505206 0
M  V30 1751 H 172.401 4.11995 1.60352 0
M  V30 1752 N 171.46 0.379036 1.52974 0
M  V30 1753 C 172.69 -0.20649 2.05566 0
M  V30 1754 C 173.098 -1.41906 1.25137 0
M  V30 1755 O 172.441 -1.81421 0.288464 0
M  V30 1756 C 172.503 -0.651086 3.53555 0
M  V30 1757 C 172.167 0.446626 4.54812 0
M  V30 1758 C 173.164 1.30079 5.03364 0
M  V30 1759 C 170.849 0.610719 4.98573 0
M  V30 1760 C 172.843 2.30426 5.94292 0
M  V30 1761 C 170.53 1.61754 5.89304 0
M  V30 1762 C 171.528 2.46274 6.37054 0
M  V30 1763 O 171.216 3.45237 7.25994 0
M  V30 1764 H 170.948 -0.0372381 0.674974 0
M  V30 1765 H 173.502 0.539718 1.98182 0
M  V30 1766 H 171.732 -1.44911 3.58522 0
M  V30 1767 H 173.421 -1.16112 3.88938 0
M  V30 1768 H 174.187 1.18527 4.70294 0
M  V30 1769 H 170.066 -0.0374044 4.60985 0
M  V30 1770 H 173.61 2.96432 6.31485 0
M  V30 1771 H 169.507 1.73348 6.21788 0
M  V30 1772 H 170.275 3.41124 7.44027 0
M  V30 1773 N 172.938 -1.57226 0.108567 0
M  V30 1774 C 174.186 -1.94448 -0.550853 0
M  V30 1775 C 174.507 -0.992074 -1.67878 0
M  V30 1776 O 173.777 -0.0465 -1.95845 0
M  V30 1777 H 172.357 -0.717897 -0.206479 0
M  V30 1778 H 175.019 -1.94112 0.175062 0
M  V30 1779 H 174.115 -2.97218 -0.952259 0
M  V30 1780 N 174.416 0.165178 -1.56732 0
M  V30 1781 C 175.348 1.22911 -1.93457 0
M  V30 1782 C 176.361 1.40152 -0.828333 0
M  V30 1783 O 177.55 1.40046 -1.10677 0
M  V30 1784 C 174.65 2.59686 -2.17753 0
M  V30 1785 C 173.823 2.63663 -3.48999 0
M  V30 1786 C 172.882 3.81845 -3.62051 0
M  V30 1787 O 171.908 3.67559 -4.34613 0
M  V30 1788 N 173.11 4.98557 -2.97357 0
M  V30 1789 H 175.875 0.917118 -2.85323 0
M  V30 1790 H 173.436 0.354895 -1.57962 0
M  V30 1791 H 175.428 3.37225 -2.23743 0
M  V30 1792 H 173.998 2.83251 -1.32242 0
M  V30 1793 H 173.218 1.72173 -3.54612 0
M  V30 1794 H 174.506 2.63336 -4.35352 0
M  V30 1795 H 173.904 5.13065 -2.38287 0
M  V30 1796 H 172.461 5.73936 -3.08934 0
M  V30 1797 N 175.894 1.51508 0.433938 0
M  V30 1798 C 176.841 1.73068 1.52696 0
M  V30 1799 C 177.811 0.572441 1.55924 0
M  V30 1800 O 178.996 0.807253 1.72882 0
M  V30 1801 C 176.136 1.86474 2.90381 0
M  V30 1802 C 175.249 3.14037 2.96656 0
M  V30 1803 C 174.384 3.18019 4.25485 0
M  V30 1804 C 173.423 4.39882 4.2564 0
M  V30 1805 N 172.56 4.41394 5.45999 0
M  V30 1806 H 177.4 2.66366 1.33615 0
M  V30 1807 H 174.937 1.32008 0.649018 0
M  V30 1808 H 176.895 1.92229 3.70275 0
M  V30 1809 H 175.525 0.965809 3.08013 0
M  V30 1810 H 174.577 3.17575 2.09404 0
M  V30 1811 H 175.889 4.0394 2.92633 0
M  V30 1812 H 175.043 3.22708 5.13755 0
M  V30 1813 H 173.782 2.2601 4.3217 0
M  V30 1814 H 172.787 4.35366 3.35763 0
M  V30 1815 H 174.012 5.33159 4.20617 0
M  V30 1816 H 171.958 3.52258 5.53399 0
M  V30 1817 H 171.875 5.25111 5.4387 0
M  V30 1818 H 173.143 4.50281 6.36292 0
M  V30 1819 N 177.372 -0.689602 1.41712 0
M  V30 1820 C 178.621 -1.44534 1.40686 0
M  V30 1821 C 178.934 -1.95588 0.0213352 0
M  V30 1822 O 180.14 -2.71271 -0.111534 0
M  V30 1823 C 178.596 -2.61387 2.47396 0
M  V30 1824 C 178.204 -2.17094 3.91885 0
M  V30 1825 C 179.948 -3.38986 2.55517 0
M  V30 1826 C 177.855 -3.3094 4.90135 0
M  V30 1827 H 176.785 -0.542925 0.52321 0
M  V30 1828 H 179.436 -0.748054 1.6756 0
M  V30 1829 H 177.818 -3.33412 2.13664 0
M  V30 1830 H 178.992 -1.52318 4.34897 0
M  V30 1831 H 177.307 -1.52473 3.8748 0
M  V30 1832 H 179.904 -4.23747 3.26102 0
M  V30 1833 H 180.247 -3.84578 1.59391 0
M  V30 1834 H 180.78 -2.74021 2.8837 0
M  V30 1835 H 177.519 -2.90355 5.87685 0
M  V30 1836 H 177.039 -3.94546 4.51767 0
M  V30 1837 H 178.718 -3.9663 5.11169 0
M  V30 1838 N 178.85 -1.27639 -0.924453 0
M  V30 1839 C 180.096 -1.14336 -1.67497 0
M  V30 1840 C 180.429 0.309465 -1.91718 0
M  V30 1841 O 179.704 1.22608 -1.50989 0
M  V30 1842 C 179.987 -1.93096 -3.0395 0
M  V30 1843 C 179.84 -3.46381 -2.8695 0
M  V30 1844 C 181.159 -1.73798 -4.0433 0
M  V30 1845 H 178.278 -0.416728 -0.607871 0
M  V30 1846 H 180.92 -1.56832 -1.07256 0
M  V30 1847 H 179.07 -1.56982 -3.55372 0
M  V30 1848 H 180.742 -3.92343 -2.42621 0
M  V30 1849 H 178.985 -3.72557 -2.22225 0
M  V30 1850 H 179.656 -3.96735 -3.83804 0
M  V30 1851 H 182.132 -2.05293 -3.61931 0
M  V30 1852 H 181.008 -2.31294 -4.97789 0
M  V30 1853 H 181.269 -0.686725 -4.36734 0
M  V30 1854 N 180.328 1.1314 -1.09713 0
M  V30 1855 C 181.275 2.18642 -0.739196 0
M  V30 1856 C 182.245 1.63706 0.280978 0
M  V30 1857 O 183.43 1.90111 0.161946 0
M  V30 1858 C 180.57 3.44685 -0.169102 0
M  V30 1859 C 179.683 4.13711 -1.24367 0
M  V30 1860 C 178.818 5.27379 -0.636019 0
M  V30 1861 C 177.857 5.88259 -1.69169 0
M  V30 1862 N 176.994 6.93352 -1.10485 0
M  V30 1863 H 181.834 2.48607 -1.64312 0
M  V30 1864 H 179.371 1.22066 -0.820875 0
M  V30 1865 H 181.329 4.16815 0.179256 0
M  V30 1866 H 179.959 3.15161 0.698079 0
M  V30 1867 H 179.011 3.39835 -1.70927 0
M  V30 1868 H 180.323 4.55037 -2.04311 0
M  V30 1869 H 179.477 6.06238 -0.236677 0
M  V30 1870 H 178.216 4.8731 0.194928 0
M  V30 1871 H 177.221 5.08092 -2.10055 0
M  V30 1872 H 178.446 6.30399 -2.52536 0
M  V30 1873 H 176.392 6.55335 -0.295234 0
M  V30 1874 H 176.309 7.33236 -1.84121 0
M  V30 1875 H 177.577 7.76057 -0.73181 0
M  V30 1876 N 181.806 0.884767 1.30421 0
M  V30 1877 C 183.052 0.503851 1.96441 0
M  V30 1878 C 183.385 -0.944518 1.69684 0
M  V30 1879 O 182.66 -1.66737 1.00145 0
M  V30 1880 C 182.943 0.779085 3.51571 0
M  V30 1881 C 182.796 2.27807 3.87846 0
M  V30 1882 C 184.115 0.255452 4.39358 0
M  V30 1883 H 181.234 0.184533 0.713524 0
M  V30 1884 H 183.876 1.10872 1.54297 0
M  V30 1885 H 182.026 0.264274 3.876 0
M  V30 1886 H 183.698 2.86127 3.61841 0
M  V30 1887 H 181.941 2.74479 3.35922 0
M  V30 1888 H 182.612 2.42125 4.96064 0
M  V30 1889 H 185.088 0.696079 4.10236 0
M  V30 1890 H 183.964 0.477361 5.4682 0
M  V30 1891 H 184.225 -0.843293 4.33983 0
M  V30 1892 N 183.284 -1.43765 0.645699 0
M  V30 1893 C 184.217 -2.2798 -0.100072 0
M  V30 1894 C 185.195 -1.39391 -0.837194 0
M  V30 1895 O 186.379 -1.68833 -0.838306 0
M  V30 1896 C 183.506 -3.18643 -1.14823 0
M  V30 1897 C 182.552 -4.2344 -0.510009 0
M  V30 1898 S 183.385 -5.30761 0.710824 0
M  V30 1899 C 184.541 -6.24992 -0.33699 0
M  V30 1900 H 184.774 -2.90884 0.614322 0
M  V30 1901 H 182.307 -1.48166 0.434304 0
M  V30 1902 H 184.265 -3.71424 -1.74799 0
M  V30 1903 H 182.926 -2.54932 -1.8349 0
M  V30 1904 H 182.119 -4.86948 -1.29991 0
M  V30 1905 H 181.721 -3.73997 0.0154577 0
M  V30 1906 H 184.013 -6.66691 -1.20537 0
M  V30 1907 H 184.956 -7.07612 0.262879 0
M  V30 1908 H 185.364 -5.60517 -0.669425 0
M  V30 1909 N 184.763 -0.387143 -1.52771 0
M  V30 1910 C 186.04 0.253197 -1.93954 0
M  V30 1911 C 186.42 1.64545 -1.32243 0
M  V30 1912 O 185.768 2.23191 -0.489699 0
M  V30 1913 C 185.978 0.281722 -3.47861 0
M  V30 1914 C 187.326 0.511715 -4.21505 0
M  V30 1915 O 188.35 0.362023 -3.54356 0
M  V30 1916 O 187.209 0.804847 -5.40541 0
M  V30 1917 H 184.303 0.156845 -0.811991 0
M  V30 1918 H 186.849 -0.441494 -1.63856 0
M  V30 1919 H 185.621 -0.693571 -3.85104 0
M  V30 1920 H 185.244 1.02142 -3.84256 0
M  V30 1921 N 186.241 1.57166 -0.116904 0
M  V30 1922 C 187.488 1.95123 0.541603 0
M  V30 1923 C 187.816 1.00006 1.6682 0
M  V30 1924 O 187.071 0.0235658 1.95686 0
M  V30 1925 C 187.37 3.39508 1.11664 0
M  V30 1926 C 187.036 4.50762 0.111606 0
M  V30 1927 C 185.698 4.80918 -0.164758 0
M  V30 1928 C 188.05 5.18036 -0.573438 0
M  V30 1929 C 185.378 5.75666 -1.13249 0
M  V30 1930 C 187.73 6.13824 -1.52978 0
M  V30 1931 C 186.394 6.42374 -1.81415 0
M  V30 1932 H 185.664 0.714005 0.198187 0
M  V30 1933 H 188.311 1.9048 -0.197365 0
M  V30 1934 H 186.616 3.40835 1.93232 0
M  V30 1935 H 188.313 3.66189 1.63422 0
M  V30 1936 H 184.903 4.27272 0.337192 0
M  V30 1937 H 189.087 4.94896 -0.373092 0
M  V30 1938 H 184.343 5.96092 -1.35958 0
M  V30 1939 H 188.517 6.65039 -2.06629 0
M  V30 1940 H 186.144 7.15599 -2.56557 0
M  V30 1941 N 187.719 -0.156864 1.56817 0
M  V30 1942 C 188.682 -1.17781 1.96622 0
M  V30 1943 C 189.682 -1.36401 0.851555 0
M  V30 1944 O 190.872 -1.33561 1.11836 0
M  V30 1945 C 188.004 -2.54008 2.27361 0
M  V30 1946 H 189.197 -0.836564 2.87996 0
M  V30 1947 H 186.75 -0.39985 1.51099 0
M  V30 1948 H 187.485 -2.9312 1.38748 0
M  V30 1949 H 187.27 -2.41856 3.08623 0
M  V30 1950 H 188.76 -3.27558 2.59029 0
M  V30 1951 N 189.197 -1.51736 -0.425897 0
M  V30 1952 C 190.127 -1.76827 -1.52494 0
M  V30 1953 C 191.108 -0.618524 -1.58456 0
M  V30 1954 O 192.293 -0.862416 -1.74 0
M  V30 1955 C 189.423 -1.90374 -2.90474 0
M  V30 1956 C 188.377 -3.0588 -2.99369 0
M  V30 1957 C 187.703 -3.04625 -4.3944 0
M  V30 1958 C 189.003 -4.45644 -2.72394 0
M  V30 1959 H 190.697 -2.68855 -1.31748 0
M  V30 1960 H 188.243 -1.29372 -0.632362 0
M  V30 1961 H 190.196 -2.0651 -3.6733 0
M  V30 1962 H 188.92 -0.95004 -3.12477 0
M  V30 1963 H 187.579 -2.89467 -2.24954 0
M  V30 1964 H 187.227 -2.0701 -4.58428 0
M  V30 1965 H 186.927 -3.82195 -4.46319 0
M  V30 1966 H 188.451 -3.22869 -5.18255 0
M  V30 1967 H 189.865 -4.62348 -3.38979 0
M  V30 1968 H 188.262 -5.25006 -2.9067 0
M  V30 1969 H 189.332 -4.54893 -1.67929 0
M  V30 1970 N 190.675 0.682077 -1.42076 0
M  V30 1971 C 191.622 1.79578 -1.44984 0
M  V30 1972 C 192.592 1.6332 -0.302614 0
M  V30 1973 O 193.777 1.83978 -0.505633 0
M  V30 1974 C 190.917 3.1756 -1.35091 0
M  V30 1975 C 190.03 3.45156 -2.59791 0
M  V30 1976 C 189.165 4.72826 -2.42093 0
M  V30 1977 C 188.204 4.93433 -3.62202 0
M  V30 1978 N 187.341 6.12338 -3.43491 0
M  V30 1979 H 192.181 1.76427 -2.40161 0
M  V30 1980 H 189.718 0.861376 -1.19242 0
M  V30 1981 H 191.676 3.97287 -1.27354 0
M  V30 1982 H 190.306 3.19854 -0.435133 0
M  V30 1983 H 189.358 2.59736 -2.77923 0
M  V30 1984 H 190.67 3.5628 -3.49094 0
M  V30 1985 H 189.824 5.60631 -2.319 0
M  V30 1986 H 188.563 4.63973 -1.50268 0
M  V30 1987 H 187.568 4.04073 -3.72834 0
M  V30 1988 H 188.793 5.04136 -4.54998 0
M  V30 1989 H 186.739 6.04672 -2.54377 0
M  V30 1990 H 186.656 6.2429 -4.26377 0
M  V30 1991 H 187.924 7.02841 -3.37097 0
M  V30 1992 N 192.153 1.28127 0.917671 0
M  V30 1993 C 193.381 1.17892 1.70026 0
M  V30 1994 C 193.796 -0.262958 1.8696 0
M  V30 1995 O 193.153 -1.17811 1.3938 0
M  V30 1996 C 193.204 1.86872 3.09453 0
M  V30 1997 O 192.925 3.25428 2.93306 0
M  V30 1998 C 194.426 1.8289 4.03815 0
M  V30 1999 H 191.646 0.40942 0.531617 0
M  V30 2000 H 194.19 1.69181 1.14883 0
M  V30 2001 H 192.345 1.39464 3.61426 0
M  V30 2002 H 192.759 3.59918 3.81523 0
M  V30 2003 H 194.233 2.35751 4.99125 0
M  V30 2004 H 194.71 0.800412 4.31845 0
M  V30 2005 H 195.316 2.29959 3.57769 0
M  V30 2006 N 193.631 -1.12557 1.10312 0
M  V30 2007 C 194.879 -1.83675 0.843091 0
M  V30 2008 C 195.2 -1.84435 -0.633131 0
M  V30 2009 O 194.47 -1.30657 -1.45964 0
M  V30 2010 H 193.05 -0.680138 0.308904 0
M  V30 2011 H 195.712 -1.36301 1.39313 0
M  V30 2012 H 194.808 -2.87908 1.2048 0
M  V30 2013 N 195.109 -0.891671 -1.2995 0
M  V30 2014 C 196.349 -0.520296 -1.97667 0
M  V30 2015 C 196.713 0.914797 -1.68806 0
M  V30 2016 O 197.914 1.39263 -2.29911 0
M  V30 2017 C 196.185 -0.795222 -3.48441 0
M  V30 2018 S 197.744 -0.526953 -4.35624 0
M  V30 2019 H 194.562 -0.19333 -0.684211 0
M  V30 2020 H 197.164 -1.15238 -1.57926 0
M  V30 2021 H 195.868 -1.83805 -3.66938 0
M  V30 2022 H 195.399 -0.15095 -3.9311 0
M  V30 2023 H 197.414 0.631533 -4.92165 0
M  V30 2024 N 196.587 1.43421 -0.653314 0
M  V30 2025 C 197.998 1.85065 -0.246537 0
M  V30 2026 C 198.349 1.54688 1.2069 0
M  V30 2027 O 197.474 0.995896 1.92122 0
M  V30 2028 C 198.069 3.35922 -0.440666 0
M  V30 2029 C 196.628 3.76297 -0.0882064 0
M  V30 2030 C 195.775 2.67147 -0.743484 0
M  V30 2031 H 198.726 1.33572 -0.856979 0
M  V30 2032 H 198.747 3.79204 0.313798 0
M  V30 2033 H 198.259 3.58 -1.49858 0
M  V30 2034 H 196.36 3.5983 0.96711 0
M  V30 2035 H 196.473 4.76338 -0.513738 0
M  V30 2036 H 194.837 2.54086 -0.176712 0
M  V30 2037 H 195.62 2.92053 -1.80443 0
M  V30 2038 N 198.065 0.39524 1.52563 0
M  V30 2039 C 199.311 -0.185318 2.01952 0
M  V30 2040 C 199.644 -1.45964 1.28095 0
M  V30 2041 O 198.919 -1.90689 0.38315 0
M  V30 2042 C 199.202 -0.447193 3.57312 0
M  V30 2043 C 199.055 0.842828 4.41833 0
M  V30 2044 C 200.374 -1.23529 4.22408 0
M  V30 2045 H 197.493 -0.0658788 0.73405 0
M  V30 2046 H 200.135 0.525975 1.82575 0
M  V30 2047 H 198.285 -1.05312 3.73954 0
M  V30 2048 H 199.957 1.4795 4.36931 0
M  V30 2049 H 198.2 1.45686 4.08605 0
M  V30 2050 H 198.871 0.614165 5.48573 0
M  V30 2051 H 201.347 -0.722445 4.0978 0
M  V30 2052 H 200.223 -1.38727 5.3108 0
M  V30 2053 H 200.484 -2.25213 3.80436 0
M  V30 2054 N 199.544 -1.57102 0.125237 0
M  V30 2055 C 200.79 -1.95697 -0.532035 0
M  V30 2056 C 201.123 -1.009 -1.6593 0
M  V30 2057 O 200.398 -0.047347 -1.94442 0
M  V30 2058 C 200.681 -3.44181 -1.05884 0
M  V30 2059 C 200.534 -4.49752 0.0654392 0
M  V30 2060 C 201.853 -3.94655 -1.9477 0
M  V30 2061 H 198.972 -0.711571 -0.191925 0
M  V30 2062 H 201.614 -1.88923 0.20206 0
M  V30 2063 H 199.764 -3.50085 -1.68442 0
M  V30 2064 H 201.436 -4.55943 0.700982 0
M  V30 2065 H 199.679 -4.27653 0.727709 0
M  V30 2066 H 200.35 -5.50924 -0.344505 0
M  V30 2067 H 202.826 -3.91094 -1.42074 0
M  V30 2068 H 201.702 -4.99057 -2.28546 0
M  V30 2069 H 201.963 -3.35718 -2.87656 0
M  V30 2070 N 201.022 0.148545 -1.56898 0
M  V30 2071 C 202.27 0.859717 -1.82902 0
M  V30 2072 C 202.591 1.81775 -0.70588 0
M  V30 2073 O 201.861 1.93994 0.272586 0
M  V30 2074 H 200.441 0.320469 -0.674766 0
M  V30 2075 H 203.103 0.142918 -1.94375 0
M  V30 2076 H 202.199 1.4229 -2.77777 0
M  V30 2077 N 202.5 1.5196 0.417844 0
M  V30 2078 C 203.749 1.6482 1.16264 0
M  V30 2079 C 204.062 0.379886 1.91876 0
M  V30 2080 O 205.268 0.388154 2.68711 0
M  V30 2081 C 203.724 2.91161 2.1155 0
M  V30 2082 C 203.332 4.25068 1.41495 0
M  V30 2083 C 205.076 3.13383 2.86341 0
M  V30 2084 C 202.983 5.42541 2.35379 0
M  V30 2085 H 201.913 0.613954 0.437694 0
M  V30 2086 H 204.564 1.78442 0.427871 0
M  V30 2087 H 202.946 2.71218 2.88543 0
M  V30 2088 H 204.12 4.55463 0.699263 0
M  V30 2089 H 202.435 4.0888 0.787792 0
M  V30 2090 H 205.032 3.98324 3.5671 0
M  V30 2091 H 205.375 2.27256 3.48798 0
M  V30 2092 H 205.908 3.33757 2.1645 0
M  V30 2093 H 202.647 6.30987 1.77582 0
M  V30 2094 H 202.167 5.16497 3.04945 0
M  V30 2095 H 203.846 5.75272 2.96093 0
M  V30 2096 N 203.978 -0.674533 1.42435 0
M  V30 2097 C 204.926 -1.80934 1.46169 0
M  V30 2098 C 205.92 -1.66006 0.3374 0
M  V30 2099 O 207.126 -1.72611 0.510425 0
M  V30 2100 H 203.501 -0.596594 0.457798 0
M  V30 2101 H 205.472 -1.74903 2.41767 0
M  V30 2102 C 204.221 -3.19088 1.38123 0
M  V30 2103 H 203.544 -3.31203 2.23931 0
M  V30 2104 H 204.984 -3.9851 1.44797 0
M  V30 2105 C 203.443 -3.36763 0.0960517 0
M  V30 2106 O 203.973 -3.92581 -0.851073 0
M  V30 2107 N 202.179 -2.90597 0.0131186 0
M  V30 2108 H 201.726 -2.45359 0.784639 0
M  V30 2109 H 201.684 -3.028 -0.846133 0
M  V30 2110 N 205.456 -1.28612 -0.910864 0
M  V30 2111 C 206.733 -1.06632 -1.63979 0
M  V30 2112 C 207.113 0.393351 -2.07403 0
M  V30 2113 O 206.461 1.37999 -1.82122 0
M  V30 2114 C 206.671 -2.0436 -2.8291 0
M  V30 2115 C 208.019 -2.34666 -3.5386 0
M  V30 2116 O 209.043 -2.02467 -2.93062 0
M  V30 2117 O 207.902 -2.89631 -4.63439 0
M  V30 2118 H 204.996 -0.407737 -0.7195 0
M  V30 2119 H 207.542 -1.39942 -0.959914 0
M  V30 2120 H 206.314 -3.02727 -2.47936 0
M  V30 2121 H 205.937 -1.71714 -3.58609 0
M  V30 2122 N 206.934 1.1197 -1.10907 0
M  V30 2123 C 208.159 1.87942 -0.877064 0
M  V30 2124 C 208.584 1.79341 0.567314 0
M  V30 2125 O 207.942 1.15184 1.40009 0
M  V30 2126 C 207.99 3.34926 -1.33629 0
M  V30 2127 O 207.094 4.09303 -0.504447 0
M  V30 2128 H 206.435 0.583785 -0.316371 0
M  V30 2129 H 208.965 1.4157 -1.47712 0
M  V30 2130 H 208.975 3.8577 -1.32837 0
M  V30 2131 H 207.65 3.40504 -2.3881 0
M  V30 2132 H 206.227 3.68393 -0.577993 0
M  V30 2133 N 208.412 0.89855 1.29475 0
M  V30 2134 C 209.66 0.522847 1.9522 0
M  V30 2135 C 209.981 -0.93371 1.71192 0
M  V30 2136 O 209.251 -1.65823 1.04305 0
M  V30 2137 H 207.831 0.190366 0.722336 0
M  V30 2138 H 210.493 1.14459 1.5775 0
M  V30 2139 H 209.589 0.704476 3.04045 0
M  V30 2140 N 209.89 -1.43072 0.660911 0
M  V30 2141 C 211.138 -2.01323 0.177094 0
M  V30 2142 C 211.459 -1.5245 -1.2159 0
M  V30 2143 O 210.729 -0.740322 -1.81373 0
M  V30 2144 H 209.309 -0.744382 0.0624804 0
M  V30 2145 H 211.971 -1.75179 0.854305 0
M  V30 2146 H 211.067 -3.11649 0.167641 0
M  V30 2147 N 211.368 -0.403325 -1.52352 0
M  V30 2148 C 212.331 0.413051 -2.25447 0
M  V30 2149 C 213.331 0.978513 -1.276 0
M  V30 2150 O 214.521 0.858305 -1.51587 0
M  V30 2151 C 211.653 1.58087 -3.02029 0
M  V30 2152 H 212.846 -0.227094 -2.99039 0
M  V30 2153 H 210.399 -0.155722 -1.55522 0
M  V30 2154 H 211.134 2.25804 -2.32772 0
M  V30 2155 H 210.919 1.18195 -3.73861 0
M  V30 2156 H 212.409 2.1585 -3.57489 0
M  V30 2157 N 212.846 1.57033 -0.133567 0
M  V30 2158 C 214.262 1.58035 0.222944 0
M  V30 2159 C 214.462 1.14713 1.6566 0
M  V30 2160 O 213.518 0.841218 2.38075 0
M  V30 2161 C 214.831 3.00691 -0.0236116 0
M  V30 2162 C 216.379 3.12973 0.0411512 0
M  V30 2163 C 216.854 4.57654 -0.177899 0
M  V30 2164 N 218.345 4.63033 -0.124365 0
M  V30 2165 C 219.08 5.72771 -0.268553 0
M  V30 2166 N 218.576 6.91206 -0.46972 0
M  V30 2167 N 220.369 5.61718 -0.2071 0
M  V30 2168 H 212.52 1.8349 -1.06981 0
M  V30 2169 H 214.783 0.848677 -0.422436 0
M  V30 2170 H 214.489 3.36726 -1.0153 0
M  V30 2171 H 214.363 3.70614 0.701808 0
M  V30 2172 H 216.75 2.76787 1.02338 0
M  V30 2173 H 216.831 2.45564 -0.716383 0
M  V30 2174 H 216.475 4.94542 -1.15717 0
M  V30 2175 H 216.405 5.23173 0.599797 0
M  V30 2176 H 218.896 3.7789 0.027011 0
M  V30 2177 H 219.209 7.70693 -0.570212 0
M  V30 2178 H 217.554 6.93156 -0.505876 0
M  V30 2179 H 220.745 4.68072 -0.0507986 0
M  V30 2180 H 220.918 6.47195 -0.322909 0
M  V30 2181 N 214.325 -0.140222 1.56975 0
M  V30 2182 C 215.574 -0.850152 1.82908 0
M  V30 2183 C 215.887 -1.82028 0.715892 0
M  V30 2184 O 217.093 -2.57485 0.861016 0
M  V30 2185 C 215.549 -1.5625 3.24213 0
M  V30 2186 C 215.157 -0.63443 4.43485 0
M  V30 2187 C 216.901 -2.25881 3.59413 0
M  V30 2188 C 214.808 -1.34879 5.75814 0
M  V30 2189 H 213.738 -0.321221 0.682153 0
M  V30 2190 H 216.389 -0.102874 1.83211 0
M  V30 2191 H 214.771 -2.35565 3.18316 0
M  V30 2192 H 215.945 0.12398 4.60633 0
M  V30 2193 H 214.26 -0.0461836 4.16374 0
M  V30 2194 H 216.857 -2.79978 4.5554 0
M  V30 2195 H 217.2 -3.02693 2.85802 0
M  V30 2196 H 217.733 -1.53477 3.67001 0
M  V30 2197 H 214.472 -0.622385 6.52539 0
M  V30 2198 H 213.992 -2.07974 5.6259 0
M  V30 2199 H 215.671 -1.88784 6.18845 0
M  V30 2200 N 215.803 -1.52179 -0.40978 0
M  V30 2201 C 216.735 -1.71703 -1.51825 0
M  V30 2202 C 217.748 -0.597445 -1.51441 0
M  V30 2203 O 218.937 -0.872582 -1.55719 0
M  V30 2204 C 216.037 -1.74171 -2.90719 0
M  V30 2205 C 215.21 -3.03156 -3.15302 0
M  V30 2206 C 214.269 -2.97445 -4.34065 0
M  V30 2207 O 213.295 -3.71352 -4.31377 0
M  V30 2208 N 214.497 -2.15191 -5.39141 0
M  V30 2209 H 217.262 -2.67334 -1.35472 0
M  V30 2210 H 214.823 -1.50409 -0.599069 0
M  V30 2211 H 216.815 -1.67884 -3.68235 0
M  V30 2212 H 215.385 -0.860166 -3.00533 0
M  V30 2213 H 214.605 -3.23097 -2.25836 0
M  V30 2214 H 215.893 -3.88484 -3.28569 0
M  V30 2215 H 215.291 -1.54573 -5.44173 0
M  V30 2216 H 213.848 -2.1476 -6.15403 0
M  V30 2217 N 217.281 0.66697 -1.42791 0
M  V30 2218 C 218.191 1.80962 -1.49299 0
M  V30 2219 C 219.207 1.69775 -0.381108 0
M  V30 2220 O 220.383 1.91188 -0.633188 0
M  V30 2221 C 217.448 3.17156 -1.40045 0
M  V30 2222 C 216.509 3.40242 -2.6179 0
M  V30 2223 C 215.742 4.69939 -2.52969 0
M  V30 2224 O 215.965 5.48372 -1.56985 0
M  V30 2225 O 214.899 4.94441 -3.43237 0
M  V30 2226 H 218.725 1.78427 -2.45759 0
M  V30 2227 H 216.31 0.823713 -1.24641 0
M  V30 2228 H 218.192 3.98413 -1.37276 0
M  V30 2229 H 216.867 3.20312 -0.467138 0
M  V30 2230 H 215.774 2.58802 -2.70134 0
M  V30 2231 H 217.107 3.41923 -3.54047 0
M  V30 2232 N 218.759 1.29093 0.90403 0
M  V30 2233 C 220.007 1.16583 1.65085 0
M  V30 2234 C 220.328 -0.283933 1.92922 0
M  V30 2235 O 219.598 -1.19509 1.55224 0
M  V30 2236 H 218.178 0.428467 0.611903 0
M  V30 2237 H 220.84 1.61959 1.08422 0
M  V30 2238 H 219.936 1.71266 2.6091 0
M  V30 2239 N 220.237 -1.11381 1.11499 0
M  V30 2240 C 221.483 -1.83403 0.865512 0
M  V30 2241 C 221.816 -1.84459 -0.607329 0
M  V30 2242 O 221.091 -1.29811 -1.44842 0
M  V30 2243 C 221.374 -3.30552 1.42855 0
M  V30 2244 C 221.227 -3.37886 2.96906 0
M  V30 2245 C 222.546 -4.26643 1.08 0
M  V30 2246 H 219.665 -0.665879 0.31587 0
M  V30 2247 H 222.307 -1.30601 1.37998 0
M  V30 2248 H 220.457 -3.75648 0.990985 0
M  V30 2249 H 222.129 -3.01343 3.49271 0
M  V30 2250 H 220.372 -2.78088 3.32941 0
M  V30 2251 H 221.043 -4.41458 3.31389 0
M  V30 2252 H 223.519 -3.89729 1.45775 0
M  V30 2253 H 222.395 -5.27986 1.50072 0
M  V30 2254 H 222.656 -4.42099 -0.00915037 0
M  V30 2255 N 221.715 -0.905404 -1.28997 0
M  V30 2256 C 222.678 -0.392253 -2.25819 0
M  V30 2257 C 223.678 0.476753 -1.5357 0
M  V30 2258 O 224.868 0.280994 -1.71919 0
M  V30 2259 C 222 0.438588 -3.38067 0
M  V30 2260 H 223.193 -1.24743 -2.72725 0
M  V30 2261 H 220.746 -0.684051 -1.40536 0
M  V30 2262 H 221.481 1.31352 -2.96508 0
M  V30 2263 H 221.266 -0.184167 -3.91667 0
M  V30 2264 H 222.756 0.78873 -4.10084 0
M  V30 2265 N 223.193 1.4272 -0.668489 0
M  V30 2266 C 224.418 2.06484 -0.194758 0
M  V30 2267 C 224.843 1.49862 1.13679 0
M  V30 2268 O 224.201 0.614582 1.70565 0
M  V30 2269 C 224.249 3.60353 -0.133546 0
M  V30 2270 O 223.353 4.02464 0.899806 0
M  V30 2271 H 222.694 0.656137 -0.10188 0
M  V30 2272 H 225.224 1.82964 -0.915722 0
M  V30 2273 H 225.234 4.07976 0.0447041 0
M  V30 2274 H 223.909 4.00938 -1.1055 0
M  V30 2275 H 222.486 3.66402 0.693109 0
M  V30 2276 N 224.671 0.411399 1.52136 0
M  V30 2277 C 225.601 -0.404015 2.29978 0
M  V30 2278 C 226.582 -1.04412 1.34284 0
M  V30 2279 O 227.767 -1.0527 1.63192 0
M  V30 2280 C 224.897 -1.5197 3.12286 0
M  V30 2281 C 223.851 -1.00448 4.16046 0
M  V30 2282 C 223.177 -2.21393 4.86712 0
M  V30 2283 C 224.477 -0.0569336 5.22269 0
M  V30 2284 H 226.171 0.245529 2.98392 0
M  V30 2285 H 223.717 0.119525 1.43503 0
M  V30 2286 H 225.67 -2.09715 3.6551 0
M  V30 2287 H 224.394 -2.19716 2.41646 0
M  V30 2288 H 223.053 -0.449421 3.63835 0
M  V30 2289 H 222.701 -2.87699 4.12599 0
M  V30 2290 H 222.401 -1.87571 5.56858 0
M  V30 2291 H 223.925 -2.7974 5.4275 0
M  V30 2292 H 225.339 -0.54325 5.7072 0
M  V30 2293 H 223.736 0.192594 5.99791 0
M  V30 2294 H 224.806 0.887663 4.76706 0
M  V30 2295 N 226.149 -1.5696 0.141893 0
M  V30 2296 C 227.397 -1.95573 -0.509484 0
M  V30 2297 C 227.718 -1.02746 -1.65736 0
M  V30 2298 O 226.988 -0.0880311 -1.95702 0
M  V30 2299 H 225.568 -0.722115 -0.191205 0
M  V30 2300 H 228.23 -1.93697 0.216196 0
M  V30 2301 H 227.326 -2.99171 -0.889 0
M  V30 2302 N 227.627 0.131896 -1.57047 0
M  V30 2303 C 228.59 1.14638 -1.98471 0
M  V30 2304 C 229.59 1.35029 -0.873148 0
M  V30 2305 O 230.78 1.31764 -1.13946 0
M  V30 2306 C 227.912 2.50358 -2.31373 0
M  V30 2307 H 229.105 0.79064 -2.8929 0
M  V30 2308 H 226.658 0.375761 -1.51716 0
M  V30 2309 H 227.393 2.90876 -1.43393 0
M  V30 2310 H 227.178 2.36915 -3.12432 0
M  V30 2311 H 228.668 3.23395 -2.64207 0
M  V30 2312 N 229.106 1.52395 0.401703 0
M  V30 2313 C 230.336 1.70429 1.1678 0
M  V30 2314 C 230.744 0.416702 1.84554 0
M  V30 2315 O 230.087 -0.617697 1.73003 0
M  V30 2316 C 230.149 2.78919 2.26814 0
M  V30 2317 C 229.813 4.20437 1.79113 0
M  V30 2318 C 230.81 5.04028 1.27482 0
M  V30 2319 C 228.495 4.66704 1.85722 0
M  V30 2320 C 230.489 6.31961 0.830913 0
M  V30 2321 C 228.176 5.94625 1.40942 0
M  V30 2322 C 229.174 6.77082 0.897128 0
M  V30 2323 O 228.862 8.02607 0.455822 0
M  V30 2324 H 228.594 0.574272 0.356634 0
M  V30 2325 H 231.148 1.99767 0.477724 0
M  V30 2326 H 229.378 2.44973 2.99207 0
M  V30 2327 H 231.067 2.8548 2.88541 0
M  V30 2328 H 231.833 4.69471 1.21744 0
M  V30 2329 H 227.712 4.0262 2.24539 0
M  V30 2330 H 231.256 6.96271 0.430368 0
M  V30 2331 H 227.153 6.28688 1.46362 0
M  V30 2332 H 227.921 8.16453 0.578457 0
M  V30 2333 N 230.584 -0.659388 1.43143 0
M  V30 2334 C 231.832 -1.41654 1.44147 0
M  V30 2335 C 232.153 -1.94893 0.0645739 0
M  V30 2336 O 231.423 -1.74044 -0.899198 0
M  V30 2337 H 230.003 -0.525708 0.530697 0
M  V30 2338 H 232.665 -0.778097 1.78694 0
M  V30 2339 H 231.761 -2.26195 2.1504 0
M  V30 2340 N 232.062 -1.29571 -0.897171 0
M  V30 2341 C 232.972 -1.16808 -2.03453 0
M  V30 2342 C 233.988 -0.0907471 -1.73763 0
M  V30 2343 O 235.164 -0.303312 -1.99103 0
M  V30 2344 C 232.229 -0.848264 -3.36163 0
M  V30 2345 C 231.29 -2.0097 -3.79354 0
M  V30 2346 C 230.523 -1.70505 -5.05731 0
M  V30 2347 O 230.746 -0.62718 -5.66941 0
M  V30 2348 O 229.68 -2.5538 -5.45036 0
M  V30 2349 H 233.506 -2.12325 -2.17144 0
M  V30 2350 H 231.091 -1.09047 -1.02123 0
M  V30 2351 H 232.973 -0.684581 -4.15802 0
M  V30 2352 H 231.648 0.0771071 -3.23608 0
M  V30 2353 H 230.555 -2.22863 -3.00471 0
M  V30 2354 H 231.888 -2.91636 -3.96496 0
M  V30 2355 N 233.54 1.10788 -1.12088 0
M  V30 2356 C 234.789 1.82036 -0.868659 0
M  V30 2357 C 235.102 1.85929 0.607426 0
M  V30 2358 O 236.308 2.53346 0.97613 0
M  V30 2359 C 234.764 3.26951 -1.50435 0
M  V30 2360 C 234.372 3.31367 -3.01496 0
M  V30 2361 C 236.116 4.03053 -1.33225 0
M  V30 2362 C 234.023 4.7072 -3.58017 0
M  V30 2363 H 232.953 0.682108 -0.321318 0
M  V30 2364 H 235.604 1.24618 -1.34694 0
M  V30 2365 H 233.986 3.84343 -0.953735 0
M  V30 2366 H 235.16 2.83819 -3.6302 0
M  V30 2367 H 233.475 2.6875 -3.18061 0
M  V30 2368 H 236.072 5.05981 -1.72878 0
M  V30 2369 H 236.415 4.15387 -0.275529 0
M  V30 2370 H 236.948 3.52066 -1.85188 0
M  V30 2371 H 233.687 4.63585 -4.63432 0
M  V30 2372 H 233.207 5.1865 -3.01268 0
M  V30 2373 H 234.886 5.39685 -3.56859 0
M  V30 2374 N 235.018 0.912232 1.28515 0
M  V30 2375 C 236.265 0.544599 1.95039 0
M  V30 2376 C 236.593 -0.911435 1.71823 0
M  V30 2377 O 235.848 -1.66317 1.03137 0
M  V30 2378 C 236.147 0.798392 3.48368 0
M  V30 2379 C 235.813 2.23374 3.91682 0
M  V30 2380 C 234.475 2.62617 4.03219 0
M  V30 2381 C 236.827 3.16786 4.13879 0
M  V30 2382 C 234.155 3.94429 4.3433 0
M  V30 2383 C 236.507 4.48161 4.46469 0
M  V30 2384 C 235.171 4.8726 4.56217 0
M  V30 2385 H 234.441 0.199283 0.7137 0
M  V30 2386 H 237.088 1.15327 1.52879 0
M  V30 2387 H 235.393 0.106908 3.91654 0
M  V30 2388 H 237.09 0.493141 3.97956 0
M  V30 2389 H 233.68 1.91922 3.83228 0
M  V30 2390 H 237.864 2.87677 4.0442 0
M  V30 2391 H 233.12 4.24426 4.40082 0
M  V30 2392 H 237.294 5.20559 4.62592 0
M  V30 2393 H 234.921 5.89431 4.80078 0
M  V30 2394 N 236.496 -1.42363 0.676048 0
M  V30 2395 C 237.912 -1.55811 0.345718 0
M  V30 2396 C 238.112 -1.65544 -1.14879 0
M  V30 2397 O 237.168 -1.62306 -1.93424 0
M  V30 2398 C 238.481 -2.80746 1.07713 0
M  V30 2399 C 240.029 -2.9452 1.05958 0
M  V30 2400 C 240.504 -4.22318 1.77233 0
M  V30 2401 N 241.995 -4.29233 1.74108 0
M  V30 2402 C 242.73 -5.26935 2.26113 0
M  V30 2403 N 242.226 -6.30783 2.86505 0
M  V30 2404 N 244.019 -5.18741 2.1648 0
M  V30 2405 H 236.17 -1.34289 1.6456 0
M  V30 2406 H 238.433 -0.646506 0.69335 0
M  V30 2407 H 238.139 -2.79696 2.13221 0
M  V30 2408 H 238.013 -3.71676 0.64316 0
M  V30 2409 H 240.4 -2.95097 0.0128255 0
M  V30 2410 H 240.481 -2.04817 1.53244 0
M  V30 2411 H 240.125 -4.22502 2.81877 0
M  V30 2412 H 240.055 -5.10958 1.27396 0
M  V30 2413 H 242.546 -3.54814 1.30059 0
M  V30 2414 H 242.859 -7.01691 3.23805 0
M  V30 2415 H 241.204 -6.31341 2.90575 0
M  V30 2416 H 244.395 -4.36533 1.68987 0
M  V30 2417 H 244.568 -5.94721 2.57316 0
M  V30 2418 N 237.974 -0.419461 -1.51915 0
M  V30 2419 C 239.39 -0.0708431 -1.59443 0
M  V30 2420 C 239.59 1.41796 -1.43164 0
M  V30 2421 O 238.646 2.18596 -1.26381 0
M  V30 2422 C 239.959 -0.574991 -2.95151 0
M  V30 2423 C 241.507 -0.533867 -3.08413 0
M  V30 2424 C 241.982 -1.01469 -4.46618 0
M  V30 2425 N 243.473 -0.971939 -4.52888 0
M  V30 2426 C 244.208 -1.31505 -5.58116 0
M  V30 2427 N 243.704 -1.73014 -6.70849 0
M  V30 2428 N 245.497 -1.23436 -5.48379 0
M  V30 2429 H 237.648 -1.38836 -1.60743 0
M  V30 2430 H 239.911 -0.570998 -0.756747 0
M  V30 2431 H 239.617 -1.61597 -3.12377 0
M  V30 2432 H 239.491 0.00979777 -3.77199 0
M  V30 2433 H 241.878 0.498086 -2.90866 0
M  V30 2434 H 241.959 -1.15484 -2.28248 0
M  V30 2435 H 241.603 -2.04502 -4.6491 0
M  V30 2436 H 241.533 -0.370433 -5.25295 0
M  V30 2437 H 244.024 -0.666893 -3.71969 0
M  V30 2438 H 244.337 -1.97479 -7.47143 0
M  V30 2439 H 242.682 -1.76926 -6.72103 0
M  V30 2440 H 245.873 -0.908869 -4.59192 0
M  V30 2441 H 246.046 -1.50506 -6.30279 0
M  V30 2442 N 239.452 1.56882 -0.150215 0
M  V30 2443 C 240.4 2.18214 0.805313 0
M  V30 2444 C 241.394 1.14006 1.25296 0
M  V30 2445 O 242.6 1.3225 1.22107 0
M  V30 2446 H 238.975 0.698762 0.277913 0
M  V30 2447 H 240.946 2.97231 0.263862 0
M  V30 2448 C 239.695 2.82065 2.03309 0
M  V30 2449 H 239.018 3.61968 1.69763 0
M  V30 2450 H 240.458 3.28477 2.68103 0
M  V30 2451 C 238.917 1.80739 2.84315 0
M  V30 2452 O 239.447 1.27983 3.80767 0
M  V30 2453 N 237.653 1.4997 2.48913 0
M  V30 2454 H 237.2 1.93062 1.70542 0
M  V30 2455 H 237.158 0.824217 3.03404 0
M  V30 2456 N 240.93 -0.123565 1.57115 0
M  V30 2457 C 242.158 -0.846461 1.88793 0
M  V30 2458 C 242.573 -1.73652 0.740976 0
M  V30 2459 O 241.93 -1.80207 -0.288393 0
M  V30 2460 C 241.981 -1.6837 3.19897 0
M  V30 2461 O 241.702 -0.829477 4.30176 0
M  V30 2462 C 243.203 -2.51214 3.65248 0
M  V30 2463 H 240.423 -0.243573 0.625231 0
M  V30 2464 H 242.967 -0.109324 2.04208 0
M  V30 2465 H 241.122 -2.37364 3.06165 0
M  V30 2466 H 241.536 -1.40651 5.0529 0
M  V30 2467 H 243.01 -3.05497 4.59756 0
M  V30 2468 H 243.487 -3.28359 2.9168 0
M  V30 2469 H 244.093 -1.8747 3.81752 0
M  V30 2470 N 242.408 -1.52605 -0.393616 0
M  V30 2471 C 243.358 -1.73436 -1.48 0
M  V30 2472 C 244.342 -0.588386 -1.49756 0
M  V30 2473 O 245.534 -0.846047 -1.5547 0
M  V30 2474 C 242.663 -1.90247 -2.85764 0
M  V30 2475 C 241.749 -3.10763 -2.88595 0
M  V30 2476 N 242.14 -4.33196 -2.61103 0
M  V30 2477 C 240.438 -3.10914 -3.19763 0
M  V30 2478 C 241.139 -5.1477 -2.70899 0
M  V30 2479 N 240.115 -4.50356 -3.04435 0
M  V30 2480 H 243.917 -2.65727 -1.25563 0
M  V30 2481 H 241.431 -1.5085 -0.601513 0
M  V30 2482 H 243.428 -2.03291 -3.63976 0
M  V30 2483 H 242.088 -0.991663 -3.09186 0
M  V30 2484 H 243.099 -4.61408 -2.35209 0
M  V30 2485 H 239.776 -2.29626 -3.4868 0
M  V30 2486 H 241.166 -6.22355 -2.53227 0
M  V30 2487 N 243.887 0.651787 -1.4349 0
M  V30 2488 C 244.85 1.74647 -1.48429 0
M  V30 2489 C 245.85 1.56513 -0.368817 0
M  V30 2490 O 247.04 1.62385 -0.630623 0
M  V30 2491 C 244.172 3.13533 -1.33827 0
M  V30 2492 H 245.365 1.71649 -2.4592 0
M  V30 2493 H 242.918 0.863573 -1.30277 0
M  V30 2494 H 243.653 3.22142 -0.37349 0
M  V30 2495 H 243.438 3.28101 -2.14691 0
M  V30 2496 H 244.928 3.93356 -1.40218 0
M  V30 2497 N 245.365 1.30045 0.890287 0
M  V30 2498 C 246.59 1.21598 1.68014 0
M  V30 2499 C 247.015 -0.218678 1.86825 0
M  V30 2500 O 246.373 -1.15756 1.39536 0
M  V30 2501 C 246.421 1.94434 3.03691 0
M  V30 2502 O 245.525 1.2678 3.92429 0
M  V30 2503 H 244.866 0.420856 0.513592 0
M  V30 2504 H 247.396 1.71775 1.11151 0
M  V30 2505 H 247.406 2.03251 3.5377 0
M  V30 2506 H 246.081 2.98777 2.89318 0
M  V30 2507 H 244.658 1.26282 3.50866 0
M  V30 2508 N 246.843 -1.10192 1.12674 0
M  V30 2509 C 248.091 -1.81845 0.881861 0
M  V30 2510 C 248.412 -1.85737 -0.593867 0
M  V30 2511 O 247.682 -1.33724 -1.4316 0
M  V30 2512 H 246.262 -0.673432 0.323261 0
M  V30 2513 H 248.924 -1.33316 1.42172 0
M  V30 2514 H 248.02 -2.85288 1.2656 0
M  V30 2515 N 248.321 -0.919034 -1.28029 0
M  V30 2516 C 249.567 -0.555757 -1.95036 0
M  V30 2517 C 249.9 0.899198 -1.72128 0
M  V30 2518 O 249.175 1.64023 -1.04531 0
M  V30 2519 C 249.458 -0.872024 -3.49382 0
M  V30 2520 C 249.311 -2.3801 -3.81669 0
M  V30 2521 C 250.63 -0.37185 -4.38526 0
M  V30 2522 H 247.749 -0.203386 -0.708381 0
M  V30 2523 H 250.391 -1.14924 -1.51303 0
M  V30 2524 H 248.541 -0.366946 -3.86763 0
M  V30 2525 H 250.213 -2.9562 -3.54128 0
M  V30 2526 H 248.456 -2.83289 -3.28526 0
M  V30 2527 H 249.127 -2.55192 -4.8947 0
M  V30 2528 H 251.603 -0.804602 -4.08247 0
M  V30 2529 H 250.479 -0.622173 -5.45362 0
M  V30 2530 H 250.74 0.727934 -4.36066 0
M  V30 2531 N 249.799 1.42003 -0.683588 0
M  V30 2532 C 251.048 2.00638 -0.206681 0
M  V30 2533 C 251.361 1.5472 1.19671 0
M  V30 2534 O 252.567 2.05833 1.77045 0
M  V30 2535 C 251.023 3.58487 -0.318632 0
M  V30 2536 C 250.631 4.1339 -1.72663 0
M  V30 2537 C 252.375 4.24384 0.0991141 0
M  V30 2538 C 250.282 5.63633 -1.79087 0
M  V30 2539 H 249.212 0.750408 -0.0735107 0
M  V30 2540 H 251.863 1.62624 -0.850048 0
M  V30 2541 H 250.245 3.94047 0.392781 0
M  V30 2542 H 251.419 3.89273 -2.46583 0
M  V30 2543 H 249.734 3.59976 -2.09299 0
M  V30 2544 H 252.331 5.34652 0.0713833 0
M  V30 2545 H 252.674 4.00505 1.13586 0
M  V30 2546 H 253.207 3.93816 -0.561599 0
M  V30 2547 H 249.946 5.92323 -2.80774 0
M  V30 2548 H 249.466 5.89714 -1.09535 0
M  V30 2549 H 251.145 6.28201 -1.5483 0
M  V30 2550 N 251.277 0.427512 1.51691 0
M  V30 2551 C 252.688 -0.0378867 1.86662 0
M  V30 2552 C 253.039 -1.42819 1.34525 0
M  V30 2553 O 252.164 -2.05037 0.692014 0
M  V30 2554 C 252.759 -0.0755266 3.38716 0
M  V30 2555 C 251.318 -0.485309 3.73258 0
M  V30 2556 C 250.465 0.328399 2.75349 0
M  V30 2557 H 253.416 0.64379 1.45055 0
M  V30 2558 H 253.437 -0.887056 3.70016 0
M  V30 2559 H 252.949 0.936487 3.76632 0
M  V30 2560 H 251.05 -1.50329 3.40928 0
M  V30 2561 H 251.163 -0.21693 4.78609 0
M  V30 2562 H 249.527 -0.211905 2.53817 0
M  V30 2563 H 250.31 1.3391 3.16106 0
M  V30 2564 N 252.755 -1.56801 0.158532 0
M  V30 2565 C 253.687 -2.14488 -0.807923 0
M  V30 2566 C 254.7 -1.09721 -1.20271 0
M  V30 2567 O 255.889 -1.36956 -1.14478 0
M  V30 2568 C 252.989 -2.66217 -2.09718 0
M  V30 2569 C 252.162 -3.95507 -1.86796 0
M  V30 2570 C 251.221 -4.3243 -2.99818 0
M  V30 2571 O 250.247 -5.00543 -2.71008 0
M  V30 2572 N 251.449 -3.92947 -4.27285 0
M  V30 2573 H 254.214 -2.98042 -0.314816 0
M  V30 2574 H 251.775 -1.61881 -0.0246692 0
M  V30 2575 H 253.767 -2.87924 -2.84398 0
M  V30 2576 H 252.337 -1.87324 -2.50257 0
M  V30 2577 H 251.557 -3.82309 -0.96089 0
M  V30 2578 H 252.845 -4.79972 -1.68833 0
M  V30 2579 H 252.243 -3.38087 -4.53557 0
M  V30 2580 H 250.8 -4.19681 -4.9871 0
M  V30 2581 N 254.233 0.115231 -1.57178 0
M  V30 2582 C 255.482 0.820945 -1.84237 0
M  V30 2583 C 255.795 1.80866 -0.744761 0
M  V30 2584 O 257.001 2.56083 -0.901871 0
M  V30 2585 C 255.457 1.51072 -3.26658 0
M  V30 2586 C 255.065 0.563795 -4.44438 0
M  V30 2587 C 256.809 2.20134 -3.62962 0
M  V30 2588 C 254.716 1.25701 -5.77887 0
M  V30 2589 H 253.646 0.310328 -0.687177 0
M  V30 2590 H 256.297 0.0737134 -1.83352 0
M  V30 2591 H 254.679 2.30471 -3.22024 0
M  V30 2592 H 255.853 -0.197247 -4.60378 0
M  V30 2593 H 254.168 -0.0200638 -4.16395 0
M  V30 2594 H 256.765 2.72696 -4.59936 0
M  V30 2595 H 257.108 2.98107 -2.90582 0
M  V30 2596 H 257.641 1.47619 -3.69396 0
M  V30 2597 H 254.38 0.518493 -6.53446 0
M  V30 2598 H 253.9 1.98997 -5.65827 0
M  V30 2599 H 255.579 1.78915 -6.2177 0
M  V30 2600 N 255.711 1.52812 0.385517 0
M  V30 2601 C 256.936 1.72207 1.15583 0
M  V30 2602 C 257.361 0.441034 1.82857 0
M  V30 2603 O 256.719 -0.603465 1.70962 0
M  V30 2604 C 256.767 2.87476 2.17692 0
M  V30 2605 O 255.871 2.54693 3.24354 0
M  V30 2606 H 255.212 0.572526 0.336319 0
M  V30 2607 H 257.742 1.99618 0.448744 0
M  V30 2608 H 257.752 3.13072 2.6163 0
M  V30 2609 H 256.427 3.80408 1.68115 0
M  V30 2610 H 255.004 2.3985 2.85529 0
M  V30 2611 N 257.189 -0.644168 1.43834 0
M  V30 2612 C 258.119 -1.76814 1.52509 0
M  V30 2613 C 259.1 -1.65823 0.379052 0
M  V30 2614 O 260.285 -1.84781 0.597466 0
M  V30 2615 C 257.415 -3.15288 1.4564 0
M  V30 2616 C 256.369 -3.41053 2.58586 0
M  V30 2617 C 255.695 -4.79421 2.36769 0
M  V30 2618 C 256.995 -3.34902 4.00797 0
M  V30 2619 H 258.689 -1.69812 2.46586 0
M  V30 2620 H 256.235 -0.815542 1.1868 0
M  V30 2621 H 258.188 -3.93681 1.50311 0
M  V30 2622 H 256.912 -3.23043 0.480725 0
M  V30 2623 H 255.571 -2.65035 2.53282 0
M  V30 2624 H 255.219 -4.83863 1.37424 0
M  V30 2625 H 254.919 -4.9762 3.12487 0
M  V30 2626 H 256.443 -5.6006 2.43238 0
M  V30 2627 H 257.857 -4.03218 4.07539 0
M  V30 2628 H 256.254 -3.64637 4.76613 0
M  V30 2629 H 257.324 -2.32928 4.25291 0
M  V30 2630 N 258.668 -1.30515 -0.883378 0
M  V30 2631 C 259.914 -1.19607 -1.63774 0
M  V30 2632 C 260.247 0.248314 -1.92606 0
M  V30 2633 O 259.522 1.17742 -1.54813 0
M  V30 2634 C 259.805 -2.02669 -2.97653 0
M  V30 2635 C 259.658 -3.55335 -2.75784 0
M  V30 2636 C 260.977 -1.86573 -3.98596 0
M  V30 2637 H 258.096 -0.435856 -0.594305 0
M  V30 2638 H 260.738 -1.60165 -1.02212 0
M  V30 2639 H 258.888 -1.68208 -3.50197 0
M  V30 2640 H 260.56 -3.99863 -2.30016 0
M  V30 2641 H 258.803 -3.79438 -2.1026 0
M  V30 2642 H 259.474 -4.08745 -3.70988 0
M  V30 2643 H 261.95 -2.16703 -3.55217 0
M  V30 2644 H 260.826 -2.47014 -4.90179 0
M  V30 2645 H 261.087 -0.825321 -4.34328 0
M  V30 2646 N 260.146 1.09593 -1.13257 0
M  V30 2647 C 261.392 1.82003 -0.89458 0
M  V30 2648 C 261.725 1.85402 0.577906 0
M  V30 2649 O 261 1.32099 1.42759 0
M  V30 2650 C 261.283 3.28237 -1.48096 0
M  V30 2651 C 261.136 3.3312 -3.02244 0
M  V30 2652 C 262.455 4.24871 -1.14774 0
M  V30 2653 H 259.574 0.66077 -0.326424 0
M  V30 2654 H 262.216 1.28389 -1.40058 0
M  V30 2655 H 260.366 3.74024 -1.05062 0
M  V30 2656 H 262.038 2.95748 -3.54021 0
M  V30 2657 H 260.281 2.72756 -3.37323 0
M  V30 2658 H 260.952 4.3613 -3.38371 0
M  V30 2659 H 263.428 3.87361 -1.51957 0
M  V30 2660 H 262.304 5.25532 -1.58452 0
M  V30 2661 H 262.565 4.42058 -0.0611849 0
M  V30 2662 N 261.624 0.925811 1.2754 0
M  V30 2663 C 262.872 0.564138 1.94067 0
M  V30 2664 C 263.193 -0.897188 1.73134 0
M  V30 2665 O 262.463 -1.63573 1.07799 0
M  V30 2666 H 261.043 0.205645 0.718136 0
M  V30 2667 H 263.705 1.1778 1.55287 0
M  V30 2668 H 262.801 0.76881 3.02483 0
M  V30 2669 N 263.102 -1.41638 0.69111 0
M  V30 2670 C 264.513 -1.84346 0.295517 0
M  V30 2671 C 264.864 -1.57833 -1.16547 0
M  V30 2672 O 263.989 -1.04648 -1.89414 0
M  V30 2673 C 264.584 -3.34636 0.529575 0
M  V30 2674 C 263.143 -3.7593 0.187944 0
M  V30 2675 C 262.29 -2.65082 0.814052 0
M  V30 2676 H 265.241 -1.31253 0.892092 0
M  V30 2677 H 265.262 -3.79903 -0.213148 0
M  V30 2678 H 264.774 -3.53901 1.59297 0
M  V30 2679 H 262.875 -3.62268 -0.871367 0
M  V30 2680 H 262.988 -4.74808 0.63985 0
M  V30 2681 H 261.352 -2.53528 0.244017 0
M  V30 2682 H 262.135 -2.87167 1.88123 0
M  V30 2683 N 264.58 -0.43555 -1.51462 0
M  V30 2684 C 265.82 0.130708 -2.03982 0
M  V30 2685 C 266.184 1.40117 -1.31268 0
M  V30 2686 O 267.385 2.04755 -1.74152 0
M  V30 2687 C 265.656 0.346102 -3.5572 0
M  V30 2688 S 267.215 0.876022 -4.29967 0
M  V30 2689 H 264.033 0.0326881 -0.710248 0
M  V30 2690 H 266.635 -0.594544 -1.8624 0
M  V30 2691 H 265.339 -0.584911 -4.0621 0
M  V30 2692 H 264.87 1.09849 -3.77752 0
M  V30 2693 H 266.885 2.15379 -4.47019 0
M  V30 2694 N 266.058 1.56714 -0.166846 0
M  V30 2695 C 267.021 2.16539 0.751232 0
M  V30 2696 C 268.021 1.11228 1.16125 0
M  V30 2697 O 269.211 1.36765 1.07894 0
M  V30 2698 C 266.343 2.74462 2.02196 0
M  V30 2699 H 267.536 2.99013 0.230499 0
M  V30 2700 H 265.089 1.56081 0.0826982 0
M  V30 2701 H 265.824 1.95709 2.58589 0
M  V30 2702 H 265.609 3.51527 1.73698 0
M  V30 2703 H 267.099 3.20489 2.67725 0
M  V30 2704 N 267.536 -0.106894 1.57237 0
M  V30 2705 C 268.784 -0.810921 1.85117 0
M  V30 2706 C 269.105 -1.7984 0.753827 0
M  V30 2707 O 268.375 -1.94649 -0.221056 0
M  V30 2708 H 266.955 -0.302466 0.683025 0
M  V30 2709 H 269.617 -0.0913324 1.94686 0
M  V30 2710 H 268.713 -1.34875 2.81452 0
M  V30 2711 N 269.014 -1.53014 -0.377408 0
M  V30 2712 C 270.262 -1.6829 -1.11906 0
M  V30 2713 C 270.583 -0.431206 -1.90173 0
M  V30 2714 O 269.853 0.554595 -1.87886 0
M  V30 2715 H 268.433 -0.620371 -0.416112 0
M  V30 2716 H 271.095 -1.90167 -0.426893 0
M  V30 2717 H 270.191 -2.53862 -1.8155 0
M  V30 2718 N 270.492 0.636531 -1.44174 0
M  V30 2719 C 271.455 1.73063 -1.50273 0
M  V30 2720 C 272.455 1.56113 -0.385397 0
M  V30 2721 O 273.645 1.61707 -0.64781 0
M  V30 2722 C 270.777 3.12096 -1.37145 0
M  V30 2723 H 271.97 1.69031 -2.47727 0
M  V30 2724 H 269.523 0.849706 -1.31186 0
M  V30 2725 H 270.258 3.21728 -0.407636 0
M  V30 2726 H 270.043 3.25805 -2.18159 0
M  V30 2727 H 271.533 3.91846 -1.44382 0
M  V30 2728 N 271.97 1.30982 0.876444 0
M  V30 2729 C 273.216 1.20474 1.63138 0
M  V30 2730 C 273.549 -0.238096 1.92735 0
M  V30 2731 O 272.824 -1.1692 1.55435 0
M  V30 2732 C 273.107 2.04244 2.96574 0
M  V30 2733 C 272.96 3.56793 2.73896 0
M  V30 2734 C 274.279 1.88684 3.97601 0
M  V30 2735 H 271.398 0.439001 0.591985 0
M  V30 2736 H 274.04 1.60704 1.01361 0
M  V30 2737 H 272.19 1.70063 3.493 0
M  V30 2738 H 273.862 4.01077 2.27892 0
M  V30 2739 H 272.105 3.80548 2.08245 0
M  V30 2740 H 272.776 4.10706 3.68815 0
M  V30 2741 H 275.252 2.18584 3.54062 0
M  V30 2742 H 274.128 2.4961 4.88862 0
M  V30 2743 H 274.389 0.848343 4.33884 0
M  V30 2744 N 273.449 -1.08991 1.13837 0
M  V30 2745 C 274.679 -1.84743 0.924859 0
M  V30 2746 C 275.087 -1.81629 -0.529874 0
M  V30 2747 O 274.43 -1.21397 -1.37872 0
M  V30 2748 C 274.492 -3.33568 1.34061 0
M  V30 2749 C 274.156 -3.60425 2.80968 0
M  V30 2750 C 275.153 -3.55771 3.79108 0
M  V30 2751 C 272.838 -3.88627 3.18236 0
M  V30 2752 C 274.832 -3.78939 5.12527 0
M  V30 2753 C 272.519 -4.11449 4.51833 0
M  V30 2754 C 273.517 -4.06598 5.48787 0
M  V30 2755 O 273.205 -4.28826 6.79973 0
M  V30 2756 H 272.937 -0.590258 0.329502 0
M  V30 2757 H 275.491 -1.38598 1.51591 0
M  V30 2758 H 273.721 -3.80442 0.692853 0
M  V30 2759 H 275.41 -3.90743 1.09886 0
M  V30 2760 H 276.176 -3.34005 3.51661 0
M  V30 2761 H 272.055 -3.91526 2.43369 0
M  V30 2762 H 275.599 -3.75068 5.88192 0
M  V30 2763 H 271.496 -4.32698 4.79002 0
M  V30 2764 H 272.264 -4.46264 6.86142 0
M  V30 2765 N 274.927 -0.932562 -1.27047 0
M  V30 2766 C 276.152 -0.591474 -1.98787 0
M  V30 2767 C 276.577 0.824601 -1.69062 0
M  V30 2768 O 275.935 1.5541 -0.933677 0
M  V30 2769 C 275.983 -0.829808 -3.50922 0
M  V30 2770 O 275.087 0.102266 -4.12273 0
M  V30 2771 H 274.428 -0.227185 -0.623926 0
M  V30 2772 H 276.958 -1.25314 -1.61733 0
M  V30 2773 H 276.968 -0.747292 -4.01098 0
M  V30 2774 H 275.643 -1.86201 -3.7189 0
M  V30 2775 H 274.22 -0.0305761 -3.72887 0
M  V30 2776 N 276.405 1.4127 -0.698611 0
M  V30 2777 C 277.816 1.84187 -0.305289 0
M  V30 2778 C 278.167 1.58449 1.15708 0
M  V30 2779 O 277.292 1.05651 1.88856 0
M  V30 2780 C 277.887 3.3435 -0.547314 0
M  V30 2781 C 276.446 3.75826 -0.207878 0
M  V30 2782 C 275.593 2.64647 -0.828099 0
M  V30 2783 H 278.544 1.30778 -0.89904 0
M  V30 2784 H 278.565 3.8001 0.192998 0
M  V30 2785 H 278.077 3.53051 -1.61172 0
M  V30 2786 H 276.178 3.62725 0.852143 0
M  V30 2787 H 276.291 4.74462 -0.665021 0
M  V30 2788 H 274.655 2.53395 -0.257458 0
M  V30 2789 H 275.438 2.86165 -1.89643 0
M  V30 2790 N 277.883 0.443576 1.51229 0
M  V30 2791 C 278.846 -0.353132 2.26463 0
M  V30 2792 C 279.846 -0.944338 1.3015 0
M  V30 2793 O 281.036 -0.817813 1.5381 0
M  V30 2794 C 278.168 -1.50023 3.06114 0
M  V30 2795 H 279.361 0.3063 2.98332 0
M  V30 2796 H 276.914 0.196902 1.55055 0
M  V30 2797 H 277.649 -2.19553 2.38677 0
M  V30 2798 H 277.434 -1.08241 3.76864 0
M  V30 2799 H 278.924 -2.06296 3.63087 0
M  V30 2800 N 279.361 -1.56624 0.175154 0
M  V30 2801 C 280.61 -1.96173 -0.468921 0
M  V30 2802 C 280.923 -1.06401 -1.64128 0
M  V30 2803 O 282.129 -1.35648 -2.35185 0
M  V30 2804 C 280.585 -3.48833 -0.885633 0
M  V30 2805 C 280.193 -4.47237 0.261343 0
M  V30 2806 C 281.937 -3.97194 -1.49791 0
M  V30 2807 C 279.844 -5.9114 -0.175214 0
M  V30 2808 H 278.774 -0.732455 -0.178958 0
M  V30 2809 H 281.425 -1.81591 0.263997 0
M  V30 2810 H 279.807 -3.58848 -1.67464 0
M  V30 2811 H 280.981 -4.4894 1.03871 0
M  V30 2812 H 279.296 -4.08956 0.783827 0
M  V30 2813 H 281.893 -5.02167 -1.83665 0
M  V30 2814 H 282.236 -3.40351 -2.39722 0
M  V30 2815 H 282.769 -3.90212 -0.773267 0
M  V30 2816 H 279.508 -6.51865 0.689414 0
M  V30 2817 H 279.028 -5.92735 -0.91786 0
M  V30 2818 H 280.707 -6.44044 -0.617792 0
M  V30 2819 N 280.839 0.0985539 -1.57292 0
M  V30 2820 C 282.067 0.816318 -1.90115 0
M  V30 2821 C 282.482 1.72451 -0.768509 0
M  V30 2822 O 281.839 1.80643 0.259687 0
M  V30 2823 C 281.89 1.63259 -3.22535 0
M  V30 2824 O 281.611 0.760934 -4.31441 0
M  V30 2825 C 283.112 2.45372 -3.69199 0
M  V30 2826 H 280.332 0.233595 -0.629027 0
M  V30 2827 H 282.876 0.0768229 -2.04356 0
M  V30 2828 H 281.031 2.32463 -3.09903 0
M  V30 2829 H 281.445 1.32595 -5.07463 0
M  V30 2830 H 282.919 2.98144 -4.64558 0
M  V30 2831 H 283.396 3.23677 -2.96867 0
M  V30 2832 H 284.002 1.81373 -3.84687 0
M  V30 2833 N 282.317 1.53212 0.369288 0
M  V30 2834 C 283.594 1.59815 1.12776 0
M  V30 2835 C 283.974 0.403402 2.0721 0
M  V30 2836 O 283.322 -0.606667 2.20299 0
M  V30 2837 C 283.532 2.94664 1.87013 0
M  V30 2838 C 284.88 3.49109 2.41677 0
M  V30 2839 O 285.904 2.96669 1.97144 0
M  V30 2840 O 284.763 4.40775 3.23079 0
M  V30 2841 H 281.857 0.645376 0.517125 0
M  V30 2842 H 284.403 1.65553 0.37285 0
M  V30 2843 H 283.175 3.73061 1.18071 0
M  V30 2844 H 282.798 2.92401 2.69421 0
M  V30 2845 N 283.795 -0.628877 1.44509 0
M  V30 2846 C 285.042 -1.38839 1.47411 0
M  V30 2847 C 285.37 -1.94202 0.10757 0
M  V30 2848 O 284.625 -1.74243 -0.890947 0
M  V30 2849 C 284.924 -2.56995 2.48371 0
M  V30 2850 C 284.59 -2.19908 3.93639 0
M  V30 2851 C 283.252 -2.09506 4.33198 0
M  V30 2852 C 285.604 -1.9064 4.85083 0
M  V30 2853 C 282.932 -1.68028 5.62124 0
M  V30 2854 C 285.284 -1.50655 6.14399 0
M  V30 2855 C 283.948 -1.38796 6.5291 0
M  V30 2856 H 283.218 -0.508048 0.539414 0
M  V30 2857 H 285.865 -0.712913 1.77735 0
M  V30 2858 H 284.17 -3.29786 2.11538 0
M  V30 2859 H 285.867 -3.15223 2.47861 0
M  V30 2860 H 282.457 -2.28922 3.62343 0
M  V30 2861 H 286.641 -1.97585 4.55273 0
M  V30 2862 H 281.897 -1.57452 5.90778 0
M  V30 2863 H 286.071 -1.27048 6.84713 0
M  V30 2864 H 283.698 -1.06429 7.52713 0
M  V30 2865 N 285.273 -1.31445 -0.869486 0
M  V30 2866 C 286.501 -1.24122 -1.65534 0
M  V30 2867 C 286.916 0.193387 -1.87807 0
M  V30 2868 O 286.273 1.12557 -1.43656 0
M  V30 2869 C 286.324 -1.98229 -3.02304 0
M  V30 2870 O 286.045 -3.3609 -2.81026 0
M  V30 2871 C 287.546 -1.97751 -3.96749 0
M  V30 2872 H 284.766 -0.428868 -0.516055 0
M  V30 2873 H 287.31 -1.73328 -1.08525 0
M  V30 2874 H 285.465 -1.52782 -3.56001 0
M  V30 2875 H 285.879 -3.7383 -3.67902 0
M  V30 2876 H 287.353 -2.54114 -4.90031 0
M  V30 2877 H 287.83 -0.960137 -4.28577 0
M  V30 2878 H 288.436 -2.43079 -3.48988 0
M  V30 2879 N 286.751 1.08385 -1.14413 0
M  V30 2880 C 287.997 1.81044 -0.913834 0
M  V30 2881 C 288.33 1.86004 0.558209 0
M  V30 2882 O 287.605 1.33606 1.4135 0
M  V30 2883 C 287.888 3.26648 -1.51569 0
M  V30 2884 C 287.741 3.29895 -3.0576 0
M  V30 2885 C 289.06 4.23629 -1.19273 0
M  V30 2886 H 286.179 0.65727 -0.333414 0
M  V30 2887 H 288.821 1.26896 -1.41412 0
M  V30 2888 H 286.971 3.72889 -1.09023 0
M  V30 2889 H 288.643 2.91977 -3.57137 0
M  V30 2890 H 286.886 2.69163 -3.40197 0
M  V30 2891 H 287.557 4.32516 -3.42977 0
M  V30 2892 H 290.033 3.85727 -1.56057 0
M  V30 2893 H 288.909 5.23822 -1.64017 0
M  V30 2894 H 289.17 4.41968 -0.108068 0
M  V30 2895 N 288.23 0.939286 1.26551 0
M  V30 2896 C 289.163 0.391702 2.24813 0
M  V30 2897 C 290.141 -0.518421 1.54114 0
M  V30 2898 O 291.325 -0.456299 1.82894 0
M  V30 2899 C 288.452 -0.437382 3.35864 0
M  V30 2900 C 287.498 0.410946 4.24516 0
M  V30 2901 S 288.331 1.83372 5.03125 0
M  V30 2902 C 289.487 1.01264 6.17654 0
M  V30 2903 H 289.72 1.22448 2.70913 0
M  V30 2904 H 287.253 0.742269 1.35387 0
M  V30 2905 H 289.211 -0.909837 4.0029 0
M  V30 2906 H 287.872 -1.24482 2.8838 0
M  V30 2907 H 287.065 -0.224191 5.03501 0
M  V30 2908 H 286.667 0.818014 3.64945 0
M  V30 2909 H 288.959 0.254023 6.77024 0
M  V30 2910 H 289.902 1.77589 6.85469 0
M  V30 2911 H 290.31 0.549532 5.61819 0
M  V30 2912 N 289.708 -1.40897 0.706093 0
M  V30 2913 C 290.954 -2.01352 0.241889 0
M  V30 2914 C 291.287 -1.55832 -1.15888 0
M  V30 2915 O 290.562 -0.774145 -1.7843 0
M  V30 2916 C 290.845 -3.58752 0.311311 0
M  V30 2917 C 290.698 -4.1437 1.74978 0
M  V30 2918 C 292.017 -4.38914 -0.322922 0
M  V30 2919 H 289.136 -0.731562 0.0893687 0
M  V30 2920 H 291.778 -1.67504 0.896802 0
M  V30 2921 H 289.928 -3.87718 -0.246302 0
M  V30 2922 H 291.6 -3.96239 2.36205 0
M  V30 2923 H 289.843 -3.69016 2.28057 0
M  V30 2924 H 290.514 -5.23532 1.74981 0
M  V30 2925 H 292.99 -4.15822 0.152089 0
M  V30 2926 H 291.866 -5.48358 -0.243855 0
M  V30 2927 H 292.127 -4.19176 -1.40513 0
M  V30 2928 N 291.186 -0.45159 -1.50991 0
M  V30 2929 C 292.463 0.170707 -1.94854 0
M  V30 2930 C 292.843 1.58788 -1.39103 0
M  V30 2931 O 292.191 2.20913 -0.583921 0
M  V30 2932 C 292.401 0.133929 -3.48743 0
M  V30 2933 C 293.749 0.33248 -4.23296 0
M  V30 2934 O 294.773 0.211403 -3.55572 0
M  V30 2935 O 293.632 0.57486 -5.43468 0
M  V30 2936 H 290.726 0.122264 -0.817912 0
M  V30 2937 H 293.272 -0.510594 -1.61836 0
M  V30 2938 H 292.044 -0.856283 -3.81816 0
M  V30 2939 H 291.667 0.857529 -3.88242 0
M  V30 2940 N 292.664 1.56529 -0.183458 0
M  V30 2941 C 293.596 2.15747 0.773697 0
M  V30 2942 C 294.609 1.1162 1.1851 0
M  V30 2943 O 295.798 1.3876 1.12285 0
M  V30 2944 C 292.898 2.6952 2.05456 0
M  V30 2945 C 292.071 3.98429 1.8048 0
M  V30 2946 C 291.13 4.37145 2.92901 0
M  V30 2947 O 290.156 5.04791 2.6301 0
M  V30 2948 N 291.358 3.99695 4.2098 0
M  V30 2949 H 294.123 2.98505 0.26736 0
M  V30 2950 H 291.684 1.619 -0.0010878 0
M  V30 2951 H 293.676 2.92412 2.79781 0
M  V30 2952 H 292.246 1.91282 2.47245 0
M  V30 2953 H 291.466 3.8379 0.899947 0
M  V30 2954 H 292.754 4.82597 1.61175 0
M  V30 2955 H 292.152 3.4526 4.48121 0
M  V30 2956 H 290.709 4.27562 4.9197 0
M  V30 2957 N 294.142 -0.090211 1.57342 0
M  V30 2958 C 295.37 -0.806224 1.90546 0
M  V30 2959 C 295.785 -1.72041 0.777644 0
M  V30 2960 O 295.142 -1.80778 -0.250103 0
M  V30 2961 C 295.193 -1.61546 3.23396 0
M  V30 2962 O 294.914 -0.738043 4.31839 0
M  V30 2963 C 296.415 -2.4341 3.70495 0
M  V30 2964 H 293.635 -0.230256 0.630257 0
M  V30 2965 H 296.179 -0.0659843 2.04394 0
M  V30 2966 H 294.334 -2.30816 3.11131 0
M  V30 2967 H 294.748 -1.29901 5.08159 0
M  V30 2968 H 296.222 -2.95676 4.66133 0
M  V30 2969 H 296.699 -3.22098 2.98579 0
M  V30 2970 H 297.305 -1.79331 3.85643 0
M  V30 2971 N 295.62 -1.53406 -0.361157 0
M  V30 2972 C 296.845 -1.74024 -1.12829 0
M  V30 2973 C 297.27 -0.470069 -1.82132 0
M  V30 2974 O 296.628 0.57619 -1.719 0
M  V30 2975 C 296.676 -2.90903 -2.13091 0
M  V30 2976 O 295.78 -2.59821 -3.20261 0
M  V30 2977 H 295.121 -0.577804 -0.327168 0
M  V30 2978 H 297.651 -2.00307 -0.41693 0
M  V30 2979 H 297.661 -3.17194 -2.56616 0
M  V30 2980 H 296.336 -3.83034 -1.62042 0
M  V30 2981 H 294.913 -2.44362 -2.81677 0
M  V30 2982 N 297.098 0.621204 -1.44841 0
M  V30 2983 C 298.048 1.72663 -1.48901 0
M  V30 2984 C 299.032 1.56964 -0.353702 0
M  V30 2985 O 300.224 1.66532 -0.599669 0
M  V30 2986 C 297.353 3.11381 -1.44557 0
M  V30 2987 C 296.439 3.32514 -2.6324 0
M  V30 2988 N 296.83 3.23969 -3.8843 0
M  V30 2989 C 295.128 3.63343 -2.58647 0
M  V30 2990 C 295.829 3.46062 -4.67564 0
M  V30 2991 N 294.805 3.69407 -3.98797 0
M  V30 2992 H 298.607 1.64529 -2.43531 0
M  V30 2993 H 296.121 0.82401 -1.39942 0
M  V30 2994 H 298.118 3.90667 -1.4555 0
M  V30 2995 H 296.778 3.20674 -0.509731 0
M  V30 2996 H 297.789 3.02669 -4.20252 0
M  V30 2997 H 294.466 3.79556 -1.73906 0
M  V30 2998 H 295.856 3.44963 -5.76585 0
M  V30 2999 N 298.576 1.31904 0.862503 0
M  V30 3000 C 299.509 1.14514 1.97388 0
M  V30 3001 C 300.487 0.0466493 1.62533 0
M  V30 3002 O 301.671 0.204484 1.87388 0
M  V30 3003 C 298.798 0.751347 3.30261 0
M  V30 3004 C 297.844 1.85395 3.84098 0
M  V30 3005 S 298.677 3.46081 4.08642 0
M  V30 3006 C 299.833 3.08655 5.44502 0
M  V30 3007 H 300.066 2.08597 2.11836 0
M  V30 3008 H 297.599 1.16475 1.01356 0
M  V30 3009 H 299.557 0.530901 4.07052 0
M  V30 3010 H 298.218 -0.170493 3.13637 0
M  V30 3011 H 297.411 1.53122 4.80177 0
M  V30 3012 H 297.013 2.02984 3.14123 0
M  V30 3013 H 299.305 2.58012 6.26447 0
M  V30 3014 H 300.248 4.03726 5.81731 0
M  V30 3015 H 300.656 2.45891 5.08132 0
M  V30 3016 N 300.054 -1.07777 1.14986 0
M  V30 3017 C 301.301 -1.8029 0.922056 0
M  V30 3018 C 301.629 -1.86531 -0.55105 0
M  V30 3019 O 300.884 -1.34189 -1.42449 0
M  V30 3020 C 301.183 -3.25495 1.47608 0
M  V30 3021 C 300.849 -3.39361 2.96893 0
M  V30 3022 C 299.511 -3.42852 3.37647 0
M  V30 3023 C 301.863 -3.42512 3.92854 0
M  V30 3024 C 299.191 -3.47094 4.73015 0
M  V30 3025 C 301.543 -3.4829 5.28088 0
M  V30 3026 C 300.207 -3.50058 5.68345 0
M  V30 3027 H 299.477 -0.659727 0.337404 0
M  V30 3028 H 302.124 -1.26854 1.43459 0
M  V30 3029 H 300.429 -3.81683 0.88463 0
M  V30 3030 H 302.126 -3.80168 1.27568 0
M  V30 3031 H 298.716 -3.37339 2.64387 0
M  V30 3032 H 302.9 -3.3904 3.62444 0
M  V30 3033 H 298.156 -3.46758 5.03556 0
M  V30 3034 H 302.33 -3.49675 6.02246 0
M  V30 3035 H 299.957 -3.53097 6.73221 0
M  V30 3036 N 301.532 -0.945985 -1.26051 0
M  V30 3037 C 302.781 -0.591836 -1.92822 0
M  V30 3038 C 303.094 0.873956 -1.7499 0
M  V30 3039 O 304.3 1.33769 -2.36259 0
M  V30 3040 C 302.756 -1.00776 -3.45503 0
M  V30 3041 C 302.364 -2.4955 -3.7206 0
M  V30 3042 C 304.108 -0.725735 -4.1825 0
M  V30 3043 C 302.015 -2.84988 -5.18205 0
M  V30 3044 H 300.945 -0.217635 -0.721908 0
M  V30 3045 H 303.596 -1.14927 -1.43052 0
M  V30 3046 H 301.978 -0.378812 -3.94184 0
M  V30 3047 H 303.152 -3.1739 -3.34066 0
M  V30 3048 H 301.467 -2.75133 -3.12555 0
M  V30 3049 H 304.064 -0.966771 -5.25887 0
M  V30 3050 H 304.407 0.337639 -4.14929 0
M  V30 3051 H 304.94 -1.31463 -3.7545 0
M  V30 3052 H 301.679 -3.90307 -5.26631 0
M  V30 3053 H 301.199 -2.21813 -5.57278 0
M  V30 3054 H 302.878 -2.73712 -5.86252 0
M  V30 3055 N 303.011 1.40521 -0.713556 0
M  V30 3056 C 304.239 2.05237 -0.261775 0
M  V30 3057 C 304.654 1.53755 1.09567 0
M  V30 3058 O 304.011 0.693268 1.6882 0
M  V30 3059 C 304.062 3.60763 -0.230706 0
M  V30 3060 O 303.783 4.10345 -1.53455 0
M  V30 3061 C 305.284 4.42651 0.239874 0
M  V30 3062 H 302.504 0.660533 -0.118057 0
M  V30 3063 H 305.048 1.79967 -0.971192 0
M  V30 3064 H 303.203 3.8501 0.429661 0
M  V30 3065 H 303.617 5.04526 -1.43366 0
M  V30 3066 H 305.091 5.51599 0.210468 0
M  V30 3067 H 305.568 4.20082 1.28171 0
M  V30 3068 H 306.174 4.23507 -0.390142 0
M  V30 3069 N 304.489 0.459591 1.5075 0
M  V30 3070 C 305.737 -0.0991532 2.01857 0
M  V30 3071 C 306.058 -1.41247 1.34441 0
M  V30 3072 O 305.328 -1.89775 0.486022 0
M  V30 3073 H 303.908 -0.039633 0.745948 0
M  V30 3074 H 306.57 0.607387 1.85194 0
M  V30 3075 H 305.666 -0.258998 3.11023 0
M  V30 3076 N 305.967 -1.56429 0.191757 0
M  V30 3077 C 307.378 -1.83912 -0.321428 0
M  V30 3078 C 307.729 -1.11231 -1.61623 0
M  V30 3079 O 306.854 -0.37202 -2.13178 0
M  V30 3080 C 307.449 -3.33624 -0.589961 0
M  V30 3081 C 306.008 -3.6153 -1.04753 0
M  V30 3082 C 305.155 -2.7714 -0.0943327 0
M  V30 3083 H 308.106 -1.53161 0.415612 0
M  V30 3084 H 308.127 -3.52213 -1.43966 0
M  V30 3085 H 307.639 -3.86495 0.352588 0
M  V30 3086 H 305.74 -3.14089 -2.00447 0
M  V30 3087 H 305.853 -4.69737 -0.942549 0
M  V30 3088 H 304.217 -2.47638 -0.595589 0
M  V30 3089 H 305 -3.32799 0.842601 0
M  V30 3090 N 307.445 0.0818655 -1.57387 0
M  V30 3091 C 308.722 0.815343 -1.77796 0
M  V30 3092 C 309.102 1.96289 -0.77679 0
M  V30 3093 O 308.45 2.27691 0.192106 0
M  V30 3094 C 308.66 1.29765 -3.23978 0
M  V30 3095 C 310.008 1.7351 -3.8753 0
M  V30 3096 O 311.032 1.39356 -3.27808 0
M  V30 3097 O 309.891 2.36708 -4.92576 0
M  V30 3098 H 306.985 0.389914 -0.729312 0
M  V30 3099 H 309.531 0.0627213 -1.69584 0
M  V30 3100 H 308.303 0.47608 -3.88393 0
M  V30 3101 H 307.926 2.11189 -3.36875 0
M  V30 3102 N 308.923 1.53595 0.353017 0
M  V30 3103 C 310.169 1.70638 1.09593 0
M  V30 3104 C 310.502 0.463286 1.88593 0
M  V30 3105 O 309.777 -0.539597 1.86865 0
M  V30 3106 C 310.06 2.96406 2.04489 0
M  V30 3107 C 309.913 4.30901 1.29014 0
M  V30 3108 C 311.232 3.17812 3.0444 0
M  V30 3109 H 308.351 0.620913 0.397034 0
M  V30 3110 H 310.993 1.86254 0.375446 0
M  V30 3111 H 309.143 2.83223 2.65927 0
M  V30 3112 H 310.815 4.55917 0.702638 0
M  V30 3113 H 309.058 4.29741 0.592071 0
M  V30 3114 H 309.729 5.1506 1.98537 0
M  V30 3115 H 312.205 3.30263 2.53112 0
M  V30 3116 H 311.081 4.07223 3.6805 0
M  V30 3117 H 311.342 2.33669 3.75301 0
M  V30 3118 N 310.401 -0.613514 1.45168 0
M  V30 3119 C 311.65 -1.36874 1.4815 0
M  V30 3120 C 311.963 -1.952 0.124982 0
M  V30 3121 O 313.169 -2.71481 0.0324176 0
M  V30 3122 C 311.625 -2.47905 2.60904 0
M  V30 3123 C 311.233 -1.96016 4.02842 0
M  V30 3124 C 312.977 -3.24965 2.73126 0
M  V30 3125 C 310.884 -3.04494 5.06988 0
M  V30 3126 H 309.814 -0.514428 0.551253 0
M  V30 3127 H 312.465 -0.658182 1.7129 0
M  V30 3128 H 310.847 -3.21618 2.31037 0
M  V30 3129 H 312.021 -1.29051 4.4236 0
M  V30 3130 H 310.336 -1.31719 3.95018 0
M  V30 3131 H 312.933 -4.05865 3.48106 0
M  V30 3132 H 313.276 -3.75588 1.79553 0
M  V30 3133 H 313.809 -2.5835 3.0249 0
M  V30 3134 H 310.548 -2.58795 6.0225 0
M  V30 3135 H 310.068 -3.70044 4.72046 0
M  V30 3136 H 311.747 -3.68976 5.31475 0
M  V30 3137 N 311.879 -1.3236 -0.855495 0
M  V30 3138 C 312.826 -1.21225 -1.964 0
M  V30 3139 C 313.796 -0.0946204 -1.6583 0
M  V30 3140 O 314.981 -0.27002 -1.8888 0
M  V30 3141 C 312.121 -0.940419 -3.32039 0
M  V30 3142 C 311.234 -2.14276 -3.75113 0
M  V30 3143 C 310.369 -1.80648 -4.9954 0
M  V30 3144 C 309.408 -2.97208 -5.35102 0
M  V30 3145 N 308.545 -2.63678 -6.50706 0
M  V30 3146 H 313.385 -2.16042 -2.05255 0
M  V30 3147 H 310.922 -1.07451 -1.00463 0
M  V30 3148 H 312.88 -0.763311 -4.10158 0
M  V30 3149 H 311.51 -0.0290413 -3.22787 0
M  V30 3150 H 310.562 -2.43017 -2.92655 0
M  V30 3151 H 311.874 -3.01468 -3.97389 0
M  V30 3152 H 311.028 -1.59484 -5.85363 0
M  V30 3153 H 309.767 -0.906678 -4.79198 0
M  V30 3154 H 308.772 -3.19004 -4.47791 0
M  V30 3155 H 309.997 -3.87918 -5.57401 0
M  V30 3156 H 307.943 -1.76238 -6.31883 0
M  V30 3157 H 307.86 -3.444 -6.72997 0
M  V30 3158 H 309.128 -2.45942 -7.39684 0
M  V30 3159 N 313.357 1.07166 -1.15556 0
M  V30 3160 C 314.585 1.83514 -0.955519 0
M  V30 3161 C 315 1.82163 0.49621 0
M  V30 3162 O 314.357 1.23441 1.34419 0
M  V30 3163 C 314.408 3.30515 -1.46432 0
M  V30 3164 O 314.129 3.31937 -2.85918 0
M  V30 3165 C 315.63 4.23625 -1.30603 0
M  V30 3166 H 312.85 0.578926 -0.339244 0
M  V30 3167 H 315.394 1.35265 -1.53374 0
M  V30 3168 H 313.549 3.76106 -0.928584 0
M  V30 3169 H 313.963 4.23794 -3.09029 0
M  V30 3170 H 315.437 5.24831 -1.71047 0
M  V30 3171 H 315.914 4.38485 -0.250441 0
M  V30 3172 H 316.52 3.83871 -1.83094 0
M  V30 3173 N 314.835 0.952656 1.25548 0
M  V30 3174 C 316.081 0.607272 1.93494 0
M  V30 3175 C 316.414 -0.853245 1.74452 0
M  V30 3176 O 315.689 -1.61194 1.08843 0
M  V30 3177 C 315.972 0.96435 3.46947 0
M  V30 3178 C 315.825 2.48045 3.75225 0
M  V30 3179 C 317.144 0.487987 4.37386 0
M  V30 3180 H 314.263 0.222096 0.702739 0
M  V30 3181 H 316.905 1.18895 1.48203 0
M  V30 3182 H 315.055 0.469361 3.85654 0
M  V30 3183 H 316.727 3.04905 3.46166 0
M  V30 3184 H 314.97 2.919 3.209 0
M  V30 3185 H 315.641 2.6808 4.82532 0
M  V30 3186 H 318.117 0.912558 4.0597 0
M  V30 3187 H 316.993 0.766547 5.43521 0
M  V30 3188 H 317.254 -0.612063 4.37843 0
M  V30 3189 N 316.313 -1.40141 0.720998 0
M  V30 3190 C 317.541 -2.05096 0.272656 0
M  V30 3191 C 317.956 -1.54334 -1.0875 0
M  V30 3192 O 317.313 -0.702211 -1.6845 0
M  V30 3193 C 317.364 -3.60636 0.249835 0
M  V30 3194 O 317.085 -4.09526 1.55629 0
M  V30 3195 C 318.586 -4.42772 -0.216396 0
M  V30 3196 H 315.806 -0.659897 0.121558 0
M  V30 3197 H 318.35 -1.79449 0.980723 0
M  V30 3198 H 316.505 -3.85232 -0.409237 0
M  V30 3199 H 316.919 -5.03758 1.4604 0
M  V30 3200 H 318.393 -5.51702 -0.181212 0
M  V30 3201 H 318.87 -4.20756 -1.25941 0
M  V30 3202 H 319.476 -4.23294 0.412596 0
M  V30 3203 N 317.792 -0.46758 -1.50504 0
M  V30 3204 C 319.04 0.0884469 -2.01906 0
M  V30 3205 C 319.361 1.40532 -1.35188 0
M  V30 3206 O 318.631 1.89515 -0.496079 0
M  V30 3207 H 317.211 0.0356765 -0.746148 0
M  V30 3208 H 319.873 -0.6172 -1.84869 0
M  V30 3209 H 318.969 0.2425 -3.11156 0
M  V30 3210 N 319.27 1.56325 -0.20005 0
M  V30 3211 C 320.18 2.22931 0.730668 0
M  V30 3212 C 321.196 1.22997 1.23076 0
M  V30 3213 O 322.372 1.55748 1.27689 0
M  V30 3214 C 319.437 2.87948 1.93098 0
M  V30 3215 C 318.498 4.03166 1.47497 0
M  V30 3216 C 317.731 4.65073 2.61807 0
M  V30 3217 O 317.954 4.25913 3.79413 0
M  V30 3218 O 316.888 5.54452 2.34237 0
M  V30 3219 H 320.714 3.03084 0.193391 0
M  V30 3220 H 318.299 1.49371 0.0294621 0
M  V30 3221 H 320.181 3.29063 2.6324 0
M  V30 3222 H 318.856 2.10771 2.45677 0
M  V30 3223 H 317.763 3.66664 0.742201 0
M  V30 3224 H 319.096 4.82022 0.995796 0
M  V30 3225 N 320.748 -0.0735177 1.57428 0
M  V30 3226 C 322.025 -0.805903 1.78226 0
M  V30 3227 C 322.405 -1.95874 0.787189 0
M  V30 3228 O 321.753 -2.2779 -0.180029 0
M  V30 3229 C 321.963 -1.28045 3.24662 0
M  V30 3230 C 323.311 -1.71453 3.88444 0
M  V30 3231 O 324.335 -1.37616 3.28543 0
M  V30 3232 O 323.194 -2.34093 4.93825 0
M  V30 3233 H 320.288 -0.386041 0.73137 0
M  V30 3234 H 322.834 -0.0537269 1.69615 0
M  V30 3235 H 321.606 -0.455476 3.8864 0
M  V30 3236 H 321.229 -2.094 3.37991 0
M  V30 3237 N 322.226 -1.5378 -0.344866 0
M  V30 3238 C 323.472 -1.71216 -1.08687 0
M  V30 3239 C 323.805 -0.473281 -1.88345 0
M  V30 3240 O 323.08 0.52968 -1.87149 0
M  V30 3241 C 323.363 -2.97486 -2.02914 0
M  V30 3242 C 323.216 -4.31579 -1.26727 0
M  V30 3243 C 324.535 -3.19422 -3.0275 0
M  V30 3244 H 321.654 -0.62301 -0.393735 0
M  V30 3245 H 324.296 -1.8645 -0.365563 0
M  V30 3246 H 322.446 -2.84629 -2.64421 0
M  V30 3247 H 324.118 -4.56284 -0.67845 0
M  V30 3248 H 322.361 -4.30049 -0.569273 0
M  V30 3249 H 323.032 -5.16106 -1.95803 0
M  V30 3250 H 325.508 -3.316 -2.51357 0
M  V30 3251 H 324.384 -4.09169 -3.65885 0
M  V30 3252 H 324.645 -2.35656 -3.74057 0
M  V30 3253 N 323.704 0.605807 -1.45491 0
M  V30 3254 C 324.952 1.36207 -1.49305 0
M  V30 3255 C 325.273 1.94519 -0.136863 0
M  V30 3256 O 324.543 1.77261 0.833983 0
M  V30 3257 H 323.123 0.50565 -0.549843 0
M  V30 3258 H 325.785 0.711239 -1.81459 0
M  V30 3259 H 324.881 2.18058 -2.23287 0
M  V30 3260 N 325.182 1.32811 0.848464 0
M  V30 3261 C 326.429 1.23724 1.60308 0
M  V30 3262 C 326.757 -0.1994 1.93475 0
M  V30 3263 O 326.012 -1.15406 1.5805 0
M  V30 3264 C 326.311 2.04831 2.92881 0
M  V30 3265 C 325.977 3.54125 2.79117 0
M  V30 3266 C 324.639 3.94829 2.7507 0
M  V30 3267 C 326.991 4.49036 2.64606 0
M  V30 3268 C 324.319 5.28675 2.544 0
M  V30 3269 C 326.671 5.83033 2.4547 0
M  V30 3270 C 325.335 6.22931 2.39819 0
M  V30 3271 H 324.605 0.452737 0.586609 0
M  V30 3272 H 327.252 1.64301 0.983743 0
M  V30 3273 H 325.557 1.57001 3.58968 0
M  V30 3274 H 327.254 1.95164 3.50303 0
M  V30 3275 H 323.844 3.21801 2.83094 0
M  V30 3276 H 328.028 4.18505 2.66772 0
M  V30 3277 H 323.284 5.58637 2.48465 0
M  V30 3278 H 327.458 6.56186 2.33222 0
M  V30 3279 H 325.085 7.26584 2.23562 0
M  V30 3280 N 326.66 -1.06551 1.16123 0
M  V30 3281 C 327.57 -2.17484 0.879662 0
M  V30 3282 C 328.586 -1.73377 -0.147104 0
M  V30 3283 O 329.762 -2.01379 0.0289128 0
M  V30 3284 C 326.827 -3.44591 0.381829 0
M  V30 3285 C 325.888 -4.0322 1.4735 0
M  V30 3286 C 325.121 -5.24261 0.999324 0
M  V30 3287 O 325.344 -5.70198 -0.151957 0
M  V30 3288 O 324.278 -5.74775 1.78653 0
M  V30 3289 H 328.104 -2.44075 1.80724 0
M  V30 3290 H 325.689 -1.16042 0.940992 0
M  V30 3291 H 327.571 -4.21254 0.111053 0
M  V30 3292 H 326.246 -3.19532 -0.51777 0
M  V30 3293 H 325.153 -3.2806 1.79798 0
M  V30 3294 H 326.486 -4.32568 2.34831 0
M  V30 3295 N 328.138 -0.959301 -1.25041 0
M  V30 3296 C 329.048 -0.489994 -2.29426 0
M  V30 3297 C 330.064 0.444944 -1.68215 0
M  V30 3298 O 331.24 0.320046 -1.98841 0
M  V30 3299 C 328.305 0.220309 -3.45999 0
M  V30 3300 C 327.366 -0.753418 -4.22637 0
M  V30 3301 C 326.599 -0.076918 -5.33645 0
M  V30 3302 O 326.822 1.13649 -5.58963 0
M  V30 3303 O 325.756 -0.764824 -5.97021 0
M  V30 3304 H 329.582 -1.35755 -2.71669 0
M  V30 3305 H 327.167 -0.725961 -1.30576 0
M  V30 3306 H 329.049 0.619677 -4.16819 0
M  V30 3307 H 327.724 1.06296 -3.0575 0
M  V30 3308 H 326.631 -1.20308 -3.54227 0
M  V30 3309 H 327.964 -1.56423 -4.66683 0
M  V30 3310 N 329.616 1.39756 -0.72842 0
M  V30 3311 C 330.546 2.33289 -0.0991354 0
M  V30 3312 C 331.527 1.53568 0.731489 0
M  V30 3313 O 332.712 1.81987 0.677807 0
M  V30 3314 C 329.842 3.3763 0.813834 0
M  V30 3315 C 328.796 4.2791 0.0878663 0
M  V30 3316 C 328.122 5.22894 1.11741 0
M  V30 3317 C 329.422 5.11314 -1.06563 0
M  V30 3318 H 331.116 2.86163 -0.880408 0
M  V30 3319 H 328.662 1.37591 -0.424819 0
M  V30 3320 H 330.615 4.0201 1.26355 0
M  V30 3321 H 329.339 2.83181 1.62715 0
M  V30 3322 H 327.998 3.65 -0.342159 0
M  V30 3323 H 327.646 4.64744 1.92412 0
M  V30 3324 H 327.346 5.84143 0.636477 0
M  V30 3325 H 328.87 5.90151 1.56697 0
M  V30 3326 H 330.284 5.69076 -0.694671 0
M  V30 3327 H 328.681 5.81671 -1.47577 0
M  V30 3328 H 329.751 4.46534 -1.89038 0
M  V30 3329 N 331.094 0.475555 1.50254 0
M  V30 3330 C 332.342 -0.077738 2.0195 0
M  V30 3331 C 332.663 -1.39813 1.35931 0
M  V30 3332 O 331.933 -1.89249 0.506123 0
M  V30 3333 H 330.513 -0.031719 0.746326 0
M  V30 3334 H 333.175 0.626995 1.84539 0
M  V30 3335 H 332.271 -0.225995 3.11281 0
M  V30 3336 N 332.573 -1.56217 0.208337 0
M  V30 3337 C 333.821 -1.97558 -0.426076 0
M  V30 3338 C 334.142 -1.09683 -1.61229 0
M  V30 3339 O 333.412 -0.170956 -1.95153 0
M  V30 3340 H 331.992 -0.729575 -0.160405 0
M  V30 3341 H 334.654 -1.92606 0.298155 0
M  V30 3342 H 333.75 -3.02672 -0.761312 0
M  V30 3343 N 334.051 0.0651679 -1.57465 0
M  V30 3344 C 335.014 1.06117 -2.03155 0
M  V30 3345 C 336.014 1.31204 -0.929632 0
M  V30 3346 O 337.204 1.26813 -1.19432 0
M  V30 3347 C 334.336 2.4032 -2.41783 0
M  V30 3348 H 335.529 0.667231 -2.92383 0
M  V30 3349 H 333.082 0.311075 -1.53173 0
M  V30 3350 H 333.817 2.84532 -1.55601 0
M  V30 3351 H 333.602 2.23451 -3.22199 0
M  V30 3352 H 335.092 3.11898 -2.77685 0
M  V30 3353 N 335.529 1.53961 0.336706 0
M  V30 3354 C 336.945 1.44378 0.680241 0
M  V30 3355 C 337.145 0.606034 1.9217 0
M  V30 3356 O 336.201 0.099688 2.52303 0
M  V30 3357 C 337.514 2.87945 0.8665 0
M  V30 3358 C 339.062 2.97763 0.964682 0
M  V30 3359 C 339.537 4.42453 1.18321 0
M  V30 3360 N 341.028 4.46008 1.25025 0
M  V30 3361 C 341.763 5.55102 1.43697 0
M  V30 3362 N 341.259 6.7419 1.59498 0
M  V30 3363 N 343.052 5.42727 1.463 0
M  V30 3364 H 335.203 2.06918 -0.479455 0
M  V30 3365 H 337.466 0.935634 -0.152619 0
M  V30 3366 H 337.172 3.51691 0.0256937 0
M  V30 3367 H 337.046 3.33293 1.76623 0
M  V30 3368 H 339.433 2.34153 1.796 0
M  V30 3369 H 339.514 2.55766 0.041708 0
M  V30 3370 H 339.158 5.06645 0.356788 0
M  V30 3371 H 339.088 4.82048 2.11985 0
M  V30 3372 H 341.579 3.60196 1.14312 0
M  V30 3373 H 341.892 7.53095 1.734 0
M  V30 3374 H 340.237 6.77123 1.56621 0
M  V30 3375 H 343.428 4.48647 1.33543 0
M  V30 3376 H 343.601 6.27806 1.6051 0
M  V30 3377 N 337.007 -0.598083 1.45811 0
M  V30 3378 C 338.235 -1.38322 1.53866 0
M  V30 3379 C 338.65 -1.87992 0.174479 0
M  V30 3380 O 338.007 -1.62756 -0.825627 0
M  V30 3381 C 338.058 -2.58125 2.53089 0
M  V30 3382 O 337.779 -2.10516 3.84206 0
M  V30 3383 C 339.28 -3.50869 2.70935 0
M  V30 3384 H 336.5 -0.423093 0.520801 0
M  V30 3385 H 339.044 -0.728527 1.91083 0
M  V30 3386 H 337.199 -3.19615 2.18917 0
M  V30 3387 H 337.613 -2.88425 4.38077 0
M  V30 3388 H 339.087 -4.31451 3.44317 0
M  V30 3389 H 339.564 -4.01822 1.77301 0
M  V30 3390 H 340.17 -2.95225 3.06141 0
M  V30 3391 N 338.485 -1.33259 -0.841409 0
M  V30 3392 C 339.435 -1.19872 -1.93945 0
M  V30 3393 C 340.419 -0.102269 -1.60575 0
M  V30 3394 O 341.611 -0.330114 -1.73894 0
M  V30 3395 C 338.74 -0.937517 -3.30251 0
M  V30 3396 C 337.826 -2.07629 -3.69799 0
M  V30 3397 N 338.217 -3.32604 -3.81062 0
M  V30 3398 C 336.515 -1.98242 -3.9952 0
M  V30 3399 C 337.216 -4.07275 -4.15333 0
M  V30 3400 N 336.192 -3.35691 -4.27566 0
M  V30 3401 H 339.994 -2.14604 -2.00805 0
M  V30 3402 H 337.508 -1.2523 -1.03398 0
M  V30 3403 H 339.505 -0.822545 -4.08705 0
M  V30 3404 H 338.165 0.00128798 -3.247 0
M  V30 3405 H 339.176 -3.67382 -3.65035 0
M  V30 3406 H 335.853 -1.12005 -4.02195 0
M  V30 3407 H 337.243 -5.1511 -4.31406 0
M  V30 3408 N 339.963 1.05934 -1.16686 0
M  V30 3409 C 340.911 2.15603 -0.872817 0
M  V30 3410 C 341.905 1.68647 0.159576 0
M  V30 3411 O 343.111 1.79995 0.0132125 0
M  V30 3412 H 339.486 0.703885 -0.264671 0
M  V30 3413 H 341.457 2.37613 -1.80507 0
M  V30 3414 C 340.206 3.45457 -0.394344 0
M  V30 3415 H 339.529 3.81984 -1.18019 0
M  V30 3416 H 340.969 4.2339 -0.227408 0
M  V30 3417 C 339.428 3.25021 0.88673 0
M  V30 3418 O 339.958 3.50906 1.95519 0
M  V30 3419 N 338.164 2.78437 0.831925 0
M  V30 3420 H 337.711 2.57572 -0.0377619 0
M  V30 3421 H 337.669 2.65144 1.68956 0
M  V30 3422 N 341.441 0.965919 1.2453 0
M  V30 3423 C 342.666 0.643971 1.97149 0
M  V30 3424 C 343.091 -0.779487 1.71189 0
M  V30 3425 O 342.449 -1.5288 0.974553 0
M  V30 3426 C 342.497 0.922557 3.48599 0
M  V30 3427 O 341.601 0.00707672 4.12399 0
M  V30 3428 H 340.942 0.243647 0.617683 0
M  V30 3429 H 343.472 1.29558 1.58353 0
M  V30 3430 H 343.482 0.853373 3.98976 0
M  V30 3431 H 342.157 1.95996 3.66822 0
M  V30 3432 H 340.734 0.12943 3.72675 0
M  V30 3433 N 342.919 -1.39368 0.735821 0
M  V30 3434 C 344.147 -2.04795 0.294393 0
M  V30 3435 C 344.562 -1.55478 -1.07107 0
M  V30 3436 O 343.919 -0.720038 -1.67695 0
M  V30 3437 C 343.97 -3.6035 0.288071 0
M  V30 3438 O 343.691 -4.07852 1.59963 0
M  V30 3439 C 345.192 -4.42976 -0.169422 0
M  V30 3440 H 342.412 -0.658571 0.128551 0
M  V30 3441 H 344.956 -1.78399 0.999701 0
M  V30 3442 H 343.111 -3.85645 -0.368355 0
M  V30 3443 H 343.525 -5.02181 1.51375 0
M  V30 3444 H 344.999 -5.51864 -0.122687 0
M  V30 3445 H 345.476 -4.22068 -1.21472 0
M  V30 3446 H 346.082 -4.22832 0.457469 0
M  V30 3447 N 344.397 -0.483516 -1.5 0
M  V30 3448 C 345.622 0.0667119 -2.07293 0
M  V30 3449 C 346.047 1.3164 -1.3436 0
M  V30 3450 O 345.405 1.76945 -0.394987 0
M  V30 3451 C 345.453 0.321126 -3.59167 0
M  V30 3452 O 344.557 1.39927 -3.87936 0
M  V30 3453 H 343.898 -0.0184758 -0.663743 0
M  V30 3454 H 346.428 -0.678125 -1.93035 0
M  V30 3455 H 346.438 0.557906 -4.04168 0
M  V30 3456 H 345.113 -0.592007 -4.11665 0
M  V30 3457 H 343.69 1.14882 -3.54763 0
M  V30 3458 N 345.875 1.56104 -0.216619 0
M  V30 3459 C 347.123 1.97781 0.415593 0
M  V30 3460 C 347.444 1.10536 1.60645 0
M  V30 3461 O 346.714 0.181303 1.95059 0
M  V30 3462 H 345.294 0.730415 0.156534 0
M  V30 3463 H 347.956 1.92445 -0.308366 0
M  V30 3464 H 347.052 3.03072 0.74525 0
M  V30 3465 N 347.353 -0.0568162 1.57498 0
M  V30 3466 C 348.599 -0.75422 1.88253 0
M  V30 3467 C 348.932 -1.76461 0.810865 0
M  V30 3468 O 348.207 -1.93691 -0.177259 0
M  V30 3469 C 348.49 -1.44878 3.2967 0
M  V30 3470 C 348.343 -0.453789 4.47505 0
M  V30 3471 C 349.662 -2.38994 3.69554 0
M  V30 3472 H 346.781 -0.272724 0.684683 0
M  V30 3473 H 349.423 -0.0172113 1.89992 0
M  V30 3474 H 347.573 -2.077 3.28318 0
M  V30 3475 H 349.245 0.170371 4.60985 0
M  V30 3476 H 347.488 0.229552 4.33192 0
M  V30 3477 H 348.159 -0.977699 5.43273 0
M  V30 3478 H 350.635 -1.86239 3.72095 0
M  V30 3479 H 349.511 -2.84587 4.69363 0
M  V30 3480 H 349.772 -3.24461 3.00296 0
M  V30 3481 N 348.832 -1.54138 -0.328536 0
M  V30 3482 C 349.795 -1.82462 -1.38709 0
M  V30 3483 C 350.795 -0.696229 -1.44946 0
M  V30 3484 O 351.985 -0.964535 -1.4506 0
M  V30 3485 C 349.117 -1.98018 -2.77492 0
M  V30 3486 H 350.31 -2.77037 -1.14851 0
M  V30 3487 H 347.863 -1.45779 -0.563751 0
M  V30 3488 H 348.598 -1.05637 -3.06613 0
M  V30 3489 H 348.383 -2.80124 -2.74359 0
M  V30 3490 H 349.873 -2.21396 -3.54081 0
M  V30 3491 N 350.31 0.590341 -1.46126 0
M  V30 3492 C 351.26 1.69466 -1.5253 0
M  V30 3493 C 352.244 1.56179 -0.386917 0
M  V30 3494 O 353.436 1.65223 -0.634858 0
M  V30 3495 C 350.565 3.08245 -1.5113 0
M  V30 3496 C 349.651 3.26856 -2.70233 0
M  V30 3497 N 350.042 3.15657 -3.95214 0
M  V30 3498 C 348.34 3.57775 -2.66296 0
M  V30 3499 C 349.041 3.36066 -4.74799 0
M  V30 3500 N 348.017 3.60865 -4.06543 0
M  V30 3501 H 351.819 1.59326 -2.46966 0
M  V30 3502 H 349.333 0.79414 -1.41659 0
M  V30 3503 H 351.33 3.87492 -1.53804 0
M  V30 3504 H 349.99 3.19521 -0.577636 0
M  V30 3505 H 351.001 2.93686 -4.26578 0
M  V30 3506 H 347.678 3.75782 -1.81918 0
M  V30 3507 H 349.068 3.32655 -5.83772 0
M  V30 3508 N 351.788 1.33704 0.83433 0
M  V30 3509 C 352.738 1.20899 1.93306 0
M  V30 3510 C 353.722 0.110783 1.60518 0
M  V30 3511 O 354.914 0.339331 1.73717 0
M  V30 3512 C 352.043 0.955018 3.29749 0
M  V30 3513 C 351.129 2.09587 3.68692 0
M  V30 3514 N 351.52 3.34621 3.79292 0
M  V30 3515 C 349.818 2.00358 3.98463 0
M  V30 3516 C 350.519 4.09472 4.13167 0
M  V30 3517 N 349.495 3.37954 4.25779 0
M  V30 3518 H 353.297 2.15665 1.99664 0
M  V30 3519 H 350.811 1.25777 1.02732 0
M  V30 3520 H 352.808 0.844208 4.08263 0
M  V30 3521 H 351.468 0.0159317 3.24696 0
M  V30 3522 H 352.479 3.69313 3.63082 0
M  V30 3523 H 349.156 1.14137 4.01596 0
M  V30 3524 H 350.546 5.17391 4.28668 0
M  V30 3525 N 353.266 -1.05314 1.17247 0
M  V30 3526 C 354.199 -2.12512 0.831507 0
M  V30 3527 C 355.177 -1.61351 -0.201168 0
M  V30 3528 O 356.361 -1.88317 -0.0829831 0
M  V30 3529 C 353.488 -3.37848 0.24015 0
M  V30 3530 C 352.534 -4.07832 1.24801 0
M  V30 3531 S 353.367 -4.56537 2.79882 0
M  V30 3532 C 354.523 -5.85122 2.22223 0
M  V30 3533 H 354.756 -2.41106 1.7394 0
M  V30 3534 H 352.289 -1.17896 0.996988 0
M  V30 3535 H 354.247 -4.10391 -0.0945588 0
M  V30 3536 H 352.908 -3.07392 -0.645668 0
M  V30 3537 H 352.101 -4.97883 0.78287 0
M  V30 3538 H 351.703 -3.41348 1.52831 0
M  V30 3539 H 353.995 -6.58408 1.59703 0
M  V30 3540 H 354.938 -6.36381 3.10523 0
M  V30 3541 H 355.346 -5.39626 1.65722 0
M  V30 3542 N 354.744 -0.972509 -1.24016 0
M  V30 3543 C 355.707 -0.511403 -2.23422 0
M  V30 3544 C 356.707 0.394679 -1.55881 0
M  V30 3545 O 357.897 0.189469 -1.73167 0
M  V30 3546 C 355.029 0.258769 -3.39916 0
M  V30 3547 H 356.222 -1.39024 -2.6573 0
M  V30 3548 H 353.775 -0.757585 -1.36713 0
M  V30 3549 H 354.51 1.1545 -3.03054 0
M  V30 3550 H 354.295 -0.391522 -3.9014 0
M  V30 3551 H 355.785 0.570244 -4.13688 0
M  V30 3552 N 356.222 1.38976 -0.743202 0
M  V30 3553 C 357.47 1.99948 -0.29417 0
M  V30 3554 C 357.791 1.59279 1.12495 0
M  V30 3555 O 357.061 0.844808 1.76748 0
M  V30 3556 H 355.641 0.739473 -0.105774 0
M  V30 3557 H 358.303 1.699 -0.954986 0
M  V30 3558 H 357.399 3.10142 -0.349056 0
M  V30 3559 N 357.7 0.491464 1.49741 0
M  V30 3560 C 358.977 -0.118984 1.95238 0
M  V30 3561 C 359.357 -1.55044 1.43264 0
M  V30 3562 O 358.705 -2.19287 0.642287 0
M  V30 3563 C 358.915 -0.0414187 3.48975 0
M  V30 3564 C 360.263 -0.220133 4.24029 0
M  V30 3565 O 361.287 -0.117055 3.56008 0
M  V30 3566 O 360.146 -0.430567 5.44801 0
M  V30 3567 H 357.24 -0.100536 0.820866 0
M  V30 3568 H 359.786 0.553322 1.60426 0
M  V30 3569 H 358.558 0.957214 3.79412 0
M  V30 3570 H 358.181 -0.754292 3.9038 0
M  V30 3571 N 359.178 -1.55987 0.224894 0
M  V30 3572 C 360.088 -2.24066 -0.69511 0
M  V30 3573 C 361.104 -1.24939 -1.21104 0
M  V30 3574 O 362.28 -1.5776 -1.25195 0
M  V30 3575 C 359.345 -2.90983 -1.88493 0
M  V30 3576 C 358.406 -4.05462 -1.41064 0
M  V30 3577 C 357.639 -4.69179 -2.54375 0
M  V30 3578 O 357.862 -4.31895 -3.72589 0
M  V30 3579 O 356.796 -5.58108 -2.25386 0
M  V30 3580 H 360.622 -3.03353 -0.145149 0
M  V30 3581 H 358.207 -1.49399 -0.00569476 0
M  V30 3582 H 360.089 -3.33209 -2.57972 0
M  V30 3583 H 358.764 -2.14653 -2.42293 0
M  V30 3584 H 357.671 -3.67798 -0.683774 0
M  V30 3585 H 359.004 -4.83545 -0.918985 0
M  V30 3586 N 360.656 0.0484629 -1.57525 0
M  V30 3587 C 361.603 1.05504 -2.05275 0
M  V30 3588 C 362.573 1.37084 -0.937927 0
M  V30 3589 O 363.758 1.47754 -1.2072 0
M  V30 3590 C 360.898 2.35676 -2.52093 0
M  V30 3591 C 360.011 2.10423 -3.77288 0
M  V30 3592 C 359.146 3.34327 -4.12794 0
M  V30 3593 C 358.185 3.04542 -5.30962 0
M  V30 3594 N 357.322 4.20841 -5.61994 0
M  V30 3595 H 362.162 0.640885 -2.91027 0
M  V30 3596 H 359.699 0.304854 -1.43906 0
M  V30 3597 H 361.657 3.11709 -2.77297 0
M  V30 3598 H 360.287 2.7485 -1.69285 0
M  V30 3599 H 359.339 1.24976 -3.59284 0
M  V30 3600 H 360.651 1.84438 -4.63448 0
M  V30 3601 H 359.805 4.1874 -4.39024 0
M  V30 3602 H 358.544 3.63408 -3.25247 0
M  V30 3603 H 357.549 2.18528 -5.04505 0
M  V30 3604 H 358.774 2.76758 -6.20146 0
M  V30 3605 H 356.72 4.4991 -4.77406 0
M  V30 3606 H 356.637 3.98212 -6.42622 0
M  V30 3607 H 357.905 5.06184 -5.92789 0
M  V30 3608 N 362.134 1.5431 0.320358 0
M  V30 3609 C 363.411 1.63322 1.07635 0
M  V30 3610 C 363.791 0.46912 2.05821 0
M  V30 3611 O 363.139 -0.536274 2.22118 0
M  V30 3612 C 363.349 3.00465 1.77544 0
M  V30 3613 C 364.697 3.56621 2.30449 0
M  V30 3614 O 365.721 3.02791 1.87606 0
M  V30 3615 O 364.58 4.5083 3.08892 0
M  V30 3616 H 361.674 0.661502 0.496331 0
M  V30 3617 H 364.22 1.66656 0.319992 0
M  V30 3618 H 362.992 3.76629 1.06143 0
M  V30 3619 H 362.615 3.00824 2.59982 0
M  V30 3620 N 363.613 -0.582584 1.46437 0
M  V30 3621 C 364.576 -1.67366 1.56592 0
M  V30 3622 C 365.576 -1.54575 0.443072 0
M  V30 3623 O 366.766 -1.59191 0.707381 0
M  V30 3624 C 363.898 -3.06791 1.48634 0
M  V30 3625 H 365.091 -1.5972 2.5383 0
M  V30 3626 H 362.644 -0.800432 1.34249 0
M  V30 3627 H 363.379 -3.19993 0.526763 0
M  V30 3628 H 363.164 -3.17484 2.30101 0
M  V30 3629 H 364.654 -3.86218 1.58826 0
M  V30 3630 N 365.091 -1.34144 -0.827227 0
M  V30 3631 C 366.337 -1.26446 -1.58554 0
M  V30 3632 C 366.67 0.1664 -1.93486 0
M  V30 3633 O 365.945 1.1107 -1.59667 0
M  V30 3634 C 366.228 -2.15111 -2.8879 0
M  V30 3635 C 366.081 -3.66712 -2.60465 0
M  V30 3636 C 367.4 -2.03311 -3.90324 0
M  V30 3637 H 364.519 -0.46067 -0.575284 0
M  V30 3638 H 367.161 -1.64356 -0.953269 0
M  V30 3639 H 365.311 -1.8291 -3.42748 0
M  V30 3640 H 366.983 -4.09259 -2.1285 0
M  V30 3641 H 365.226 -3.88014 -1.93978 0
M  V30 3642 H 365.897 -4.24112 -3.53317 0
M  V30 3643 H 368.373 -2.31574 -3.45706 0
M  V30 3644 H 367.249 -2.67582 -4.79261 0
M  V30 3645 H 367.51 -1.00879 -4.30437 0
M  V30 3646 N 366.569 1.04691 -1.17803 0
M  V30 3647 C 367.479 2.16057 -0.914151 0
M  V30 3648 C 368.495 1.73589 0.119503 0
M  V30 3649 O 369.671 2.01308 -0.0609468 0
M  V30 3650 C 366.736 3.4394 -0.436603 0
M  V30 3651 C 365.797 4.00825 -1.53746 0
M  V30 3652 C 365.03 5.22604 -1.0826 0
M  V30 3653 O 365.253 5.70367 0.0612244 0
M  V30 3654 O 364.187 5.7186 -1.87775 0
M  V30 3655 H 368.013 2.41169 -1.84584 0
M  V30 3656 H 365.598 1.1453 -0.959334 0
M  V30 3657 H 367.48 4.21024 -0.178057 0
M  V30 3658 H 366.155 3.20316 0.466869 0
M  V30 3659 H 365.062 3.25158 -1.84995 0
M  V30 3660 H 366.395 4.28778 -2.41683 0
M  V30 3661 N 368.047 0.979072 1.23499 0
M  V30 3662 C 369.277 0.664237 1.95631 0
M  V30 3663 C 369.685 -0.772653 1.72704 0
M  V30 3664 O 369.028 -1.53141 1.01457 0
M  V30 3665 C 369.09 0.873115 3.48736 0
M  V30 3666 C 368.754 2.29182 3.95379 0
M  V30 3667 C 369.751 3.2704 4.04155 0
M  V30 3668 C 367.436 2.62256 4.28401 0
M  V30 3669 C 369.43 4.56052 4.45304 0
M  V30 3670 C 367.117 3.91491 4.69231 0
M  V30 3671 C 368.115 4.88201 4.77649 0
M  V30 3672 O 367.803 6.15129 5.17563 0
M  V30 3673 H 367.535 0.245915 0.629684 0
M  V30 3674 H 370.089 1.3127 1.57979 0
M  V30 3675 H 368.319 0.167476 3.86337 0
M  V30 3676 H 370.008 0.555642 4.02079 0
M  V30 3677 H 370.774 3.02819 3.78848 0
M  V30 3678 H 366.653 1.87692 4.21061 0
M  V30 3679 H 370.197 5.31538 4.51789 0
M  V30 3680 H 366.094 4.15508 4.93987 0
M  V30 3681 H 366.862 6.18862 5.35679 0
M  V30 3682 N 369.525 -1.3858 0.750561 0
M  V30 3683 C 370.771 -2.00481 0.305825 0
M  V30 3684 C 371.104 -1.5944 -1.10872 0
M  V30 3685 O 370.379 -0.83052 -1.75877 0
M  V30 3686 C 370.662 -3.5758 0.425287 0
M  V30 3687 C 370.515 -4.08594 1.88072 0
M  V30 3688 C 371.834 -4.39719 -0.183122 0
M  V30 3689 H 368.953 -0.728348 0.112598 0
M  V30 3690 H 371.595 -1.64566 0.949638 0
M  V30 3691 H 369.745 -3.88306 -0.122828 0
M  V30 3692 H 371.417 -3.88523 2.48691 0
M  V30 3693 H 369.66 -3.61574 2.39681 0
M  V30 3694 H 370.331 -5.177 1.91548 0
M  V30 3695 H 372.807 -4.15128 0.284303 0
M  V30 3696 H 371.683 -5.48856 -0.0692757 0
M  V30 3697 H 371.944 -4.23434 -1.27106 0
M  V30 3698 N 371.003 -0.499398 -1.49478 0
M  V30 3699 C 371.95 0.279881 -2.29097 0
M  V30 3700 C 372.92 0.961805 -1.3542 0
M  V30 3701 O 374.105 0.968777 -1.64376 0
M  V30 3702 C 371.245 1.33932 -3.18051 0
M  V30 3703 C 370.358 0.669333 -4.26783 0
M  V30 3704 C 369.493 1.70907 -5.02955 0
M  V30 3705 C 368.532 1.02087 -6.03527 0
M  V30 3706 N 367.669 2.00474 -6.7287 0
M  V30 3707 H 372.509 -0.405317 -2.95231 0
M  V30 3708 H 370.046 -0.211726 -1.45568 0
M  V30 3709 H 372.004 1.96553 -3.67998 0
M  V30 3710 H 370.634 1.9933 -2.53904 0
M  V30 3711 H 369.686 -0.0701234 -3.80335 0
M  V30 3712 H 370.998 0.127503 -4.98637 0
M  V30 3713 H 370.152 2.41037 -5.56764 0
M  V30 3714 H 368.891 2.28476 -4.30871 0
M  V30 3715 H 367.896 0.305338 -5.48951 0
M  V30 3716 H 369.121 0.451708 -6.77596 0
M  V30 3717 H 367.067 2.57007 -6.03559 0
M  V30 3718 H 366.984 1.51353 -7.40694 0
M  V30 3719 H 368.252 2.69897 -7.31284 0
M  V30 3720 N 372.481 1.55866 -0.233164 0
M  V30 3721 C 373.413 2.18099 0.704668 0
M  V30 3722 C 374.426 1.15334 1.14899 0
M  V30 3723 O 375.615 1.42262 1.07814 0
M  V30 3724 C 372.715 2.7592 1.96777 0
M  V30 3725 C 371.888 4.03969 1.67713 0
M  V30 3726 C 370.947 4.46242 2.78845 0
M  V30 3727 O 369.973 5.12903 2.46818 0
M  V30 3728 N 371.175 4.12886 4.08051 0
M  V30 3729 H 373.94 2.99205 0.172258 0
M  V30 3730 H 371.501 1.61815 -0.0525945 0
M  V30 3731 H 373.493 3.01165 2.70337 0
M  V30 3732 H 372.063 1.99051 2.41034 0
M  V30 3733 H 371.283 3.86459 0.777391 0
M  V30 3734 H 372.571 4.8748 1.4574 0
M  V30 3735 H 371.969 3.59342 4.3691 0
M  V30 3736 H 370.526 4.42997 4.78118 0
M  V30 3737 N 373.959 -0.0401083 1.57549 0
M  V30 3738 C 374.889 -1.04384 2.08869 0
M  V30 3739 C 375.87 -1.38407 0.988817 0
M  V30 3740 O 377.055 -1.47483 1.26342 0
M  V30 3741 C 374.185 -2.34808 2.55895 0
M  V30 3742 C 373.139 -2.15057 3.70047 0
M  V30 3743 C 372.465 -3.51145 4.03239 0
M  V30 3744 C 373.765 -1.54576 4.98902 0
M  V30 3745 H 375.459 -0.616666 2.92981 0
M  V30 3746 H 373.005 -0.295184 1.40942 0
M  V30 3747 H 374.958 -3.05346 2.90417 0
M  V30 3748 H 373.682 -2.79565 1.68853 0
M  V30 3749 H 372.341 -1.46954 3.35857 0
M  V30 3750 H 371.989 -3.93529 3.13279 0
M  V30 3751 H 371.689 -3.38758 4.80122 0
M  V30 3752 H 373.213 -4.23062 4.40285 0
M  V30 3753 H 374.627 -2.15017 5.31451 0
M  V30 3754 H 373.024 -1.52796 5.80322 0
M  V30 3755 H 374.094 -0.51039 4.82206 0
M  V30 3756 N 375.437 -1.54477 -0.31217 0
M  V30 3757 C 376.367 -1.87652 -1.38957 0
M  V30 3758 C 377.348 -0.734358 -1.53431 0
M  V30 3759 O 378.533 -0.98911 -1.67123 0
M  V30 3760 C 375.663 -2.11396 -2.75552 0
M  V30 3761 C 374.617 -3.27243 -2.75855 0
M  V30 3762 C 373.943 -3.36382 -4.15633 0
M  V30 3763 C 375.243 -4.64622 -2.38587 0
M  V30 3764 H 376.937 -2.77887 -1.11442 0
M  V30 3765 H 374.483 -1.33707 -0.534655 0
M  V30 3766 H 376.436 -2.33189 -3.51 0
M  V30 3767 H 375.16 -1.17921 -3.04569 0
M  V30 3768 H 373.819 -3.05356 -2.02863 0
M  V30 3769 H 373.467 -2.40445 -4.41809 0
M  V30 3770 H 373.167 -4.14249 -4.1674 0
M  V30 3771 H 374.691 -3.60422 -4.92877 0
M  V30 3772 H 376.105 -4.86219 -3.03749 0
M  V30 3773 H 374.502 -5.45121 -2.50925 0
M  V30 3774 H 375.572 -4.66097 -1.33723 0
M  V30 3775 N 376.915 0.57481 -1.46744 0
M  V30 3776 C 378.14 1.36341 -1.56288 0
M  V30 3777 C 378.565 1.86954 -0.207347 0
M  V30 3778 O 377.923 1.62006 0.813871 0
M  V30 3779 C 377.971 2.52147 -2.57787 0
M  V30 3780 O 377.075 3.53834 -2.11838 0
M  V30 3781 H 376.416 0.405713 -0.525636 0
M  V30 3782 H 378.946 0.696453 -1.92382 0
M  V30 3783 H 378.956 2.98958 -2.77648 0
M  V30 3784 H 377.631 2.14663 -3.5622 0
M  V30 3785 H 376.208 3.1345 -2.01999 0
M  V30 3786 N 378.394 1.34581 0.820102 0
M  V30 3787 C 379.624 1.29991 1.6058 0
M  V30 3788 C 380.032 -0.127588 1.88769 0
M  V30 3789 O 379.375 -1.08595 1.48165 0
M  V30 3790 C 379.437 2.02548 2.9701 0
M  V30 3791 C 379.101 3.51794 2.91701 0
M  V30 3792 C 380.098 4.46647 2.66087 0
M  V30 3793 C 377.783 3.94249 3.11245 0
M  V30 3794 C 379.777 5.81929 2.60071 0
M  V30 3795 C 377.464 5.2963 3.04853 0
M  V30 3796 C 378.462 6.23282 2.793 0
M  V30 3797 O 378.15 7.56181 2.72847 0
M  V30 3798 H 377.882 0.448539 0.505756 0
M  V30 3799 H 380.436 1.77811 1.02822 0
M  V30 3800 H 378.666 1.49345 3.56697 0
M  V30 3801 H 380.355 1.91211 3.58041 0
M  V30 3802 H 381.121 4.15168 2.5072 0
M  V30 3803 H 377 3.21749 3.30149 0
M  V30 3804 H 380.544 6.54999 2.40046 0
M  V30 3805 H 376.441 5.60727 3.19774 0
M  V30 3806 H 377.209 7.6595 2.88553 0
M  V30 3807 N 379.872 -1.04064 1.18357 0
M  V30 3808 C 380.802 -2.14001 0.934113 0
M  V30 3809 C 381.783 -1.69616 -0.128186 0
M  V30 3810 O 382.968 -1.94185 0.0244093 0
M  V30 3811 C 380.098 -3.44253 0.459066 0
M  V30 3812 C 379.052 -4.02261 1.46185 0
M  V30 3813 C 378.378 -5.27992 0.844322 0
M  V30 3814 C 379.678 -4.38432 2.83856 0
M  V30 3815 H 381.372 -2.35127 1.85352 0
M  V30 3816 H 378.918 -1.12998 0.892604 0
M  V30 3817 H 380.871 -4.20522 0.271907 0
M  V30 3818 H 379.595 -3.22813 -0.495912 0
M  V30 3819 H 378.254 -3.28074 1.63595 0
M  V30 3820 H 377.902 -5.02862 -0.117845 0
M  V30 3821 H 377.602 -5.67765 1.51384 0
M  V30 3822 H 379.126 -6.06938 0.667693 0
M  V30 3823 H 380.54 -5.05688 2.70098 0
M  V30 3824 H 378.937 -4.89254 3.47491 0
M  V30 3825 H 380.007 -3.4826 3.37406 0
M  V30 3826 N 381.35 -0.985608 -1.22978 0
M  V30 3827 C 382.761 -0.693593 -1.73338 0
M  V30 3828 C 383.112 0.789935 -1.79595 0
M  V30 3829 O 382.237 1.61771 -1.43733 0
M  V30 3830 C 382.832 -1.25235 -3.14804 0
M  V30 3831 C 381.391 -1.00987 -3.626 0
M  V30 3832 C 380.538 -1.37695 -2.40698 0
M  V30 3833 H 383.489 -1.15884 -1.08428 0
M  V30 3834 H 383.51 -0.627329 -3.75293 0
M  V30 3835 H 383.022 -2.33209 -3.10218 0
M  V30 3836 H 381.123 0.0535565 -3.72562 0
M  V30 3837 H 381.236 -1.66812 -4.49122 0
M  V30 3838 H 379.6 -0.795459 -2.4196 0
M  V30 3839 H 380.383 -2.46657 -2.38779 0
M  V30 3840 N 382.828 1.3818 -0.7579 0
M  V30 3841 C 384.053 2.04827 -0.325679 0
M  V30 3842 C 384.478 1.56788 1.03919 0
M  V30 3843 O 383.836 0.721811 1.66312 0
M  V30 3844 C 383.884 3.58774 -0.362447 0
M  V30 3845 O 382.988 4.07372 0.642033 0
M  V30 3846 H 382.329 0.64833 -0.143402 0
M  V30 3847 H 384.859 1.7677 -1.03023 0
M  V30 3848 H 384.869 4.07434 -0.214844 0
M  V30 3849 H 383.544 3.93096 -1.35824 0
M  V30 3850 H 382.121 3.70068 0.458688 0
M  V30 3851 N 384.306 0.507319 1.49211 0
M  V30 3852 C 385.254 -0.281364 2.30892 0
M  V30 3853 C 386.248 -0.95687 1.39787 0
M  V30 3854 O 387.454 -0.883838 1.56807 0
M  V30 3855 H 383.829 -0.109597 0.743971 0
M  V30 3856 H 385.8 0.42744 2.95323 0
M  V30 3857 C 384.549 -1.32918 3.21291 0
M  V30 3858 H 383.872 -0.818799 3.91326 0
M  V30 3859 H 385.312 -1.85288 3.81372 0
M  V30 3860 C 383.771 -2.35074 2.41333 0
M  V30 3861 O 384.301 -3.4108 2.12197 0
M  V30 3862 N 382.507 -2.07705 2.03241 0
M  V30 3863 H 382.054 -1.2152 2.27136 0
M  V30 3864 H 382.012 -2.76283 1.50051 0
M  V30 3865 N 385.784 -1.5574 0.241426 0
M  V30 3866 C 386.732 -2.22538 -0.676718 0
M  V30 3867 C 387.726 -1.21117 -1.18436 0
M  V30 3868 O 388.932 -1.39144 -1.14188 0
M  V30 3869 H 385.307 -0.713776 -0.236701 0
M  V30 3870 H 387.278 -2.98264 -0.0901187 0
M  V30 3871 C 386.027 -2.93439 -1.86518 0
M  V30 3872 H 385.35 -3.7125 -1.4837 0
M  V30 3873 H 386.79 -3.43549 -2.48495 0
M  V30 3874 C 385.249 -1.97008 -2.73294 0
M  V30 3875 O 385.779 -1.49965 -3.72657 0
M  V30 3876 N 383.985 -1.64227 -2.39745 0
M  V30 3877 H 383.532 -2.02677 -1.58996 0
M  V30 3878 H 383.49 -0.999708 -2.98083 0
M  V30 3879 N 387.262 0.0317525 -1.57568 0
M  V30 3880 C 388.192 1.03274 -2.0942 0
M  V30 3881 C 389.173 1.3788 -0.996143 0
M  V30 3882 O 390.358 1.46811 -1.27122 0
M  V30 3883 C 387.488 2.33448 -2.57137 0
M  V30 3884 C 386.442 2.13091 -3.71182 0
M  V30 3885 C 385.768 3.49001 -4.05095 0
M  V30 3886 C 387.068 1.51928 -4.99715 0
M  V30 3887 H 388.762 0.60112 -2.93303 0
M  V30 3888 H 386.308 0.287705 -1.41097 0
M  V30 3889 H 388.261 3.03802 -2.92032 0
M  V30 3890 H 386.985 2.78665 -1.70333 0
M  V30 3891 H 385.644 1.45171 -3.36632 0
M  V30 3892 H 385.292 3.91862 -3.15362 0
M  V30 3893 H 384.992 3.36207 -4.81911 0
M  V30 3894 H 386.516 4.20721 -4.42522 0
M  V30 3895 H 387.93 2.12196 -5.32584 0
M  V30 3896 H 386.327 1.49716 -5.81124 0
M  V30 3897 H 387.397 0.484811 -4.8247 0
M  V30 3898 N 388.74 1.54641 0.303973 0
M  V30 3899 C 389.965 1.78092 1.06292 0
M  V30 3900 C 390.39 0.537342 1.80262 0
M  V30 3901 O 389.748 -0.511993 1.7392 0
M  V30 3902 C 389.796 2.98612 2.02147 0
M  V30 3903 O 388.9 2.71528 3.10397 0
M  V30 3904 H 388.241 0.589548 0.305497 0
M  V30 3905 H 390.771 2.01716 0.3423 0
M  V30 3906 H 390.781 3.265 2.44667 0
M  V30 3907 H 389.456 3.88785 1.47714 0
M  V30 3908 H 388.033 2.54648 2.72413 0
M  V30 3909 N 390.218 -0.567019 1.47046 0
M  V30 3910 C 391.128 -1.70247 1.6141 0
M  V30 3911 C 392.144 -1.66746 0.497157 0
M  V30 3912 O 393.32 -1.86371 0.763389 0
M  V30 3913 C 390.385 -3.06756 1.61561 0
M  V30 3914 C 389.446 -3.21399 2.84607 0
M  V30 3915 C 388.679 -4.51396 2.84741 0
M  V30 3916 O 388.902 -5.36255 1.94388 0
M  V30 3917 O 387.836 -4.69621 3.76483 0
M  V30 3918 H 391.662 -1.61073 2.57467 0
M  V30 3919 H 389.247 -0.735894 1.30019 0
M  V30 3920 H 391.129 -3.8801 1.64396 0
M  V30 3921 H 389.804 -3.16333 0.686684 0
M  V30 3922 H 388.711 -2.39579 2.8732 0
M  V30 3923 H 390.044 -3.16721 3.76761 0
M  V30 3924 N 391.696 -1.35014 -0.812953 0
M  V30 3925 C 393.107 -1.25035 -1.38648 0
M  V30 3926 C 393.458 0.119967 -1.95833 0
M  V30 3927 O 392.583 1.02069 -1.90816 0
M  V30 3928 C 393.178 -2.26394 -2.52054 0
M  V30 3929 C 391.737 -2.20175 -3.05287 0
M  V30 3930 C 390.884 -2.12451 -1.78213 0
M  V30 3931 H 393.835 -1.46235 -0.616516 0
M  V30 3932 H 393.856 -1.88672 -3.30429 0
M  V30 3933 H 393.368 -3.26116 -2.10404 0
M  V30 3934 H 391.469 -1.23841 -3.51417 0
M  V30 3935 H 391.582 -3.11863 -3.63701 0
M  V30 3936 H 389.946 -1.58328 -1.9951 0
M  V30 3937 H 390.729 -3.14024 -1.38723 0
M  V30 3938 N 393.175 1.03435 -1.18907 0
M  V30 3939 C 394.586 1.58195 -0.991523 0
M  V30 3940 C 394.937 1.90801 0.457081 0
M  V30 3941 O 394.062 1.70272 1.33553 0
M  V30 3942 C 394.657 2.87432 -1.79355 0
M  V30 3943 C 393.216 3.38785 -1.64017 0
M  V30 3944 C 392.363 2.12292 -1.78402 0
M  V30 3945 H 395.314 0.860299 -1.33359 0
M  V30 3946 H 395.335 3.58096 -1.28638 0
M  V30 3947 H 394.847 2.63669 -2.84781 0
M  V30 3948 H 392.948 3.67547 -0.611536 0
M  V30 3949 H 393.061 4.12186 -2.44212 0
M  V30 3950 H 391.425 2.23901 -1.2141 0
M  V30 3951 H 392.208 1.90977 -2.85277 0
M  V30 3952 N 394.653 0.992116 1.22453 0
M  V30 3953 C 395.616 0.546883 2.2258 0
M  V30 3954 C 396.616 -0.369829 1.56489 0
M  V30 3955 O 397.806 -0.161896 1.73446 0
M  V30 3956 C 394.938 -0.204659 3.40285 0
M  V30 3957 H 396.131 1.43234 2.63484 0
M  V30 3958 H 393.684 0.779239 1.3549 0
M  V30 3959 H 394.419 -1.10614 3.04853 0
M  V30 3960 H 394.204 0.45354 3.89468 0
M  V30 3961 H 395.694 -0.504358 4.14543 0
M  V30 3962 N 396.131 -1.37776 0.765217 0
M  V30 3963 C 397.378 -1.99849 0.326588 0
M  V30 3964 C 397.706 -1.60746 -1.09504 0
M  V30 3965 O 396.961 -0.84202 -1.76659 0
M  V30 3966 C 397.26 -3.5504 0.410053 0
M  V30 3967 C 396.926 -4.13891 1.78899 0
M  V30 3968 C 395.588 -4.29678 2.16635 0
M  V30 3969 C 397.94 -4.46236 2.69301 0
M  V30 3970 C 395.268 -4.7511 3.44221 0
M  V30 3971 C 397.62 -4.93089 3.9629 0
M  V30 3972 C 396.284 -5.07082 4.34078 0
M  V30 3973 H 395.554 -0.7313 0.119507 0
M  V30 3974 H 398.201 -1.64645 0.977968 0
M  V30 3975 H 396.506 -3.90451 -0.324878 0
M  V30 3976 H 398.203 -4.00966 0.0520699 0
M  V30 3977 H 394.793 -4.02026 1.48569 0
M  V30 3978 H 398.977 -4.3363 2.41409 0
M  V30 3979 H 394.233 -4.84129 3.73402 0
M  V30 3980 H 398.407 -5.17084 4.66472 0
M  V30 3981 H 396.034 -5.42046 5.33001 0
M  V30 3982 N 397.609 -0.515225 -1.4894 0
M  V30 3983 C 399.02 -0.0710067 -1.86565 0
M  V30 3984 C 399.371 1.34733 -1.42623 0
M  V30 3985 O 398.496 2.00653 -0.810379 0
M  V30 3986 C 399.091 -0.122083 -3.3858 0
M  V30 3987 C 397.65 0.266863 -3.75453 0
M  V30 3988 C 396.797 -0.488376 -2.72966 0
M  V30 3989 H 399.748 -0.727266 -1.41055 0
M  V30 3990 H 399.769 0.669818 -3.74558 0
M  V30 3991 H 399.281 -1.15448 -3.70531 0
M  V30 3992 H 397.382 1.30196 -3.49113 0
M  V30 3993 H 397.495 -0.0624811 -4.79059 0
M  V30 3994 H 395.859 0.0635622 -2.54621 0
M  V30 3995 H 396.642 -1.52113 -3.07761 0
M  V30 3996 N 399.087 1.5561 -0.249682 0
M  V30 3997 C 399.997 2.25143 0.659375 0
M  V30 3998 C 401.013 1.2685 1.19101 0
M  V30 3999 O 402.189 1.59732 1.22669 0
M  V30 4000 C 399.254 2.93945 1.8384 0
M  V30 4001 C 398.315 4.07655 1.34596 0
M  V30 4002 C 397.548 4.73167 2.46878 0
M  V30 4003 O 397.771 4.37768 3.65671 0
M  V30 4004 O 396.705 5.61623 2.16478 0
M  V30 4005 H 400.531 3.03545 0.0968698 0
M  V30 4006 H 398.116 1.49389 -0.018074 0
M  V30 4007 H 399.998 3.37271 2.52638 0
M  V30 4008 H 398.673 2.18481 2.38847 0
M  V30 4009 H 397.58 3.68839 0.625174 0
M  V30 4010 H 398.913 4.84946 0.841941 0
M  V30 4011 N 400.565 -0.0233959 1.57583 0
M  V30 4012 C 401.475 -1.03907 2.10334 0
M  V30 4013 C 402.491 -1.39257 1.04323 0
M  V30 4014 O 403.667 -1.48462 1.36091 0
M  V30 4015 C 400.732 -2.31938 2.57693 0
M  V30 4016 C 399.793 -2.03117 3.78209 0
M  V30 4017 C 399.026 -3.25043 4.233 0
M  V30 4018 O 399.249 -4.35916 3.67876 0
M  V30 4019 O 398.183 -3.10411 5.15683 0
M  V30 4020 H 402.009 -0.620748 2.97288 0
M  V30 4021 H 399.594 -0.240743 1.47448 0
M  V30 4022 H 401.476 -3.07196 2.88458 0
M  V30 4023 H 400.151 -2.73055 1.73847 0
M  V30 4024 H 399.058 -1.25408 3.52454 0
M  V30 4025 H 400.391 -1.66852 4.63056 0
M  V30 4026 N 402.043 -1.548 -0.295768 0
M  V30 4027 C 403.006 -1.85363 -1.34808 0
M  V30 4028 C 404.006 -0.726817 -1.43436 0
M  V30 4029 O 405.196 -0.995088 -1.42981 0
M  V30 4030 C 402.328 -2.03859 -2.73229 0
M  V30 4031 H 403.521 -2.7941 -1.08949 0
M  V30 4032 H 401.074 -1.46942 -0.532702 0
M  V30 4033 H 401.809 -1.12117 -3.04303 0
M  V30 4034 H 401.594 -2.8588 -2.68356 0
M  V30 4035 H 403.084 -2.28857 -3.49305 0
M  V30 4036 N 403.521 0.559213 -1.47345 0
M  V30 4037 C 404.798 1.31997 -1.44348 0
M  V30 4038 C 405.178 2.1064 -0.139358 0
M  V30 4039 O 404.526 2.1091 0.879153 0
M  V30 4040 C 404.736 2.22618 -2.68779 0
M  V30 4041 C 406.084 2.83701 -3.1591 0
M  V30 4042 O 407.108 2.32921 -2.69493 0
M  V30 4043 O 405.967 3.75993 -3.966 0
M  V30 4044 H 403.061 0.594251 -0.575147 0
M  V30 4045 H 405.607 0.578282 -1.59543 0
M  V30 4046 H 404.379 1.64093 -3.55231 0
M  V30 4047 H 404.002 3.04085 -2.5616 0
M  V30 4048 N 404.999 1.35443 0.805782 0
M  V30 4049 C 405.929 1.31095 1.93226 0
M  V30 4050 C 406.91 0.185244 1.69088 0
M  V30 4051 O 408.095 0.380332 1.90439 0
M  V30 4052 C 405.225 1.08299 3.29983 0
M  V30 4053 C 404.179 2.17519 3.68605 0
M  V30 4054 C 403.505 1.79887 5.03532 0
M  V30 4055 C 404.805 3.5949 3.78898 0
M  V30 4056 H 406.499 2.25352 1.97122 0
M  V30 4057 H 404.045 1.0848 0.946996 0
M  V30 4058 H 405.998 1.03897 4.08391 0
M  V30 4059 H 404.722 0.104885 3.26432 0
M  V30 4060 H 403.381 2.2102 2.92482 0
M  V30 4061 H 403.029 0.80693 4.96485 0
M  V30 4062 H 402.729 2.53001 5.30344 0
M  V30 4063 H 404.253 1.77011 5.84379 0
M  V30 4064 H 405.667 3.58307 4.47536 0
M  V30 4065 H 404.064 4.31371 4.1718 0
M  V30 4066 H 405.134 3.95584 2.80431 0
M  V30 4067 N 406.477 -1.02803 1.19454 0
M  V30 4068 C 407.44 -2.09264 0.934955 0
M  V30 4069 C 408.44 -1.60576 -0.0849015 0
M  V30 4070 O 409.63 -1.73554 0.149933 0
M  V30 4071 C 406.762 -3.38482 0.40531 0
M  V30 4072 H 407.955 -2.33726 1.87916 0
M  V30 4073 H 405.508 -1.19426 1.00832 0
M  V30 4074 H 406.243 -3.19689 -0.544899 0
M  V30 4075 H 406.028 -3.75142 1.14065 0
M  V30 4076 H 407.518 -4.16894 0.242806 0
M  V30 4077 N 407.956 -0.998596 -1.21925 0
M  V30 4078 C 409.202 -0.678667 -1.91107 0
M  V30 4079 C 409.535 0.78791 -1.77498 0
M  V30 4080 O 408.81 1.57043 -1.1475 0
M  V30 4081 C 409.093 -1.09245 -3.43129 0
M  V30 4082 C 408.946 -2.61801 -3.6576 0
M  V30 4083 C 410.265 -0.649984 -4.35274 0
M  V30 4084 H 407.384 -0.248025 -0.694012 0
M  V30 4085 H 410.026 -1.24314 -1.43688 0
M  V30 4086 H 408.176 -0.612171 -3.83647 0
M  V30 4087 H 409.848 -3.17543 -3.34611 0
M  V30 4088 H 408.091 -3.03609 -3.09845 0
M  V30 4089 H 408.762 -2.85804 -4.7225 0
M  V30 4090 H 411.238 -1.0626 -4.02303 0
M  V30 4091 H 410.114 -0.967743 -5.40302 0
M  V30 4092 H 410.375 0.449139 -4.39813 0
M  V30 4093 N 409.434 1.37368 -0.772513 0
M  V30 4094 C 410.662 2.03942 -0.348588 0
M  V30 4095 C 411.077 1.58264 1.02947 0
M  V30 4096 O 410.434 0.764246 1.65727 0
M  V30 4097 C 410.485 3.5946 -0.38351 0
M  V30 4098 O 410.206 4.03468 -1.70721 0
M  V30 4099 C 411.707 4.4327 0.0519152 0
M  V30 4100 H 408.927 0.654931 -0.145966 0
M  V30 4101 H 411.471 1.75686 -1.04665 0
M  V30 4102 H 409.626 3.86486 0.265978 0
M  V30 4103 H 410.04 4.97991 -1.64636 0
M  V30 4104 H 411.514 5.51995 -0.0236733 0
M  V30 4105 H 411.991 4.2514 1.10238 0
M  V30 4106 H 412.597 4.21471 -0.569415 0
M  V30 4107 N 410.912 0.523116 1.48665 0
M  V30 4108 C 412.189 -0.0775449 1.95446 0
M  V30 4109 C 412.569 -1.5197 1.4652 0
M  V30 4110 O 411.917 -2.17876 0.688657 0
M  V30 4111 C 412.127 0.0326135 3.48985 0
M  V30 4112 C 413.475 -0.130141 4.24401 0
M  V30 4113 O 414.499 -0.0415142 3.56176 0
M  V30 4114 O 413.358 -0.31491 5.45592 0
M  V30 4115 H 410.452 -0.0831012 0.822814 0
M  V30 4116 H 412.998 0.587227 1.59216 0
M  V30 4117 H 411.77 1.03748 3.77296 0
M  V30 4118 H 411.393 -0.671317 3.91892 0
M  V30 4119 N 412.39 -1.55475 0.257931 0
M  V30 4120 C 413.3 -2.2549 -0.647425 0
M  V30 4121 C 414.316 -1.2748 -1.18427 0
M  V30 4122 O 415.492 -1.6038 -1.2182 0
M  V30 4123 C 412.557 -2.94916 -1.82278 0
M  V30 4124 C 411.618 -4.08363 -1.32432 0
M  V30 4125 C 410.851 -4.74469 -2.44366 0
M  V30 4126 O 411.074 -4.39701 -3.63344 0
M  V30 4127 O 410.008 -5.62763 -2.13497 0
M  V30 4128 H 413.834 -3.03593 -0.0807707 0
M  V30 4129 H 411.419 -1.49377 0.0259962 0
M  V30 4130 H 413.301 -3.38606 -2.50846 0
M  V30 4131 H 411.976 -2.19744 -2.37685 0
M  V30 4132 H 410.883 -3.69166 -0.605605 0
M  V30 4133 H 412.216 -4.85385 -0.816211 0
M  V30 4134 N 413.868 0.0150385 -1.57593 0
M  V30 4135 C 415.145 0.7392 -1.81094 0
M  V30 4136 C 415.525 1.92817 -0.859344 0
M  V30 4137 O 414.873 2.28301 0.095362 0
M  V30 4138 C 415.083 1.15907 -3.29191 0
M  V30 4139 C 416.431 1.56918 -3.9454 0
M  V30 4140 O 417.455 1.25328 -3.33424 0
M  V30 4141 O 416.314 2.15604 -5.02173 0
M  V30 4142 H 413.408 0.358631 -0.745193 0
M  V30 4143 H 415.954 -0.00926156 -1.69697 0
M  V30 4144 H 414.726 0.310921 -3.90063 0
M  V30 4145 H 414.349 1.96711 -3.45529 0
M  V30 4146 N 415.346 1.54954 0.287554 0
M  V30 4147 C 416.309 1.86076 1.33823 0
M  V30 4148 C 417.309 0.734414 1.43049 0
M  V30 4149 O 418.499 1.00266 1.42452 0
M  V30 4150 C 415.631 2.05305 2.72144 0
M  V30 4151 H 416.824 2.79984 1.07465 0
M  V30 4152 H 414.377 1.47223 0.524902 0
M  V30 4153 H 415.112 1.1373 3.03704 0
M  V30 4154 H 414.897 2.873 2.66836 0
M  V30 4155 H 416.387 2.30706 3.48087 0
M  V30 4156 N 416.824 -0.551391 1.4764 0
M  V30 4157 C 417.734 -1.68525 1.63207 0
M  V30 4158 C 418.75 -1.6621 0.514815 0
M  V30 4159 O 419.926 -1.85551 0.783113 0
M  V30 4160 C 416.991 -3.05025 1.64805 0
M  V30 4161 C 416.052 -3.18362 2.88 0
M  V30 4162 C 415.285 -4.4835 2.89513 0
M  V30 4163 O 415.508 -5.34163 2.00065 0
M  V30 4164 O 414.442 -4.65602 3.81443 0
M  V30 4165 H 418.268 -1.58333 2.59161 0
M  V30 4166 H 415.853 -0.722063 1.30792 0
M  V30 4167 H 417.735 -3.86245 1.68502 0
M  V30 4168 H 416.41 -3.15587 0.720197 0
M  V30 4169 H 415.317 -2.36518 2.89845 0
M  V30 4170 H 416.65 -3.12707 3.80099 0
M  V30 4171 N 418.302 -1.35869 -0.798587 0
M  V30 4172 C 419.232 -1.32118 -1.92528 0
M  V30 4173 C 420.213 -0.194209 -1.68988 0
M  V30 4174 O 421.398 -0.390426 -1.90235 0
M  V30 4175 C 418.528 -1.10047 -3.29404 0
M  V30 4176 C 417.482 -2.19471 -3.67446 0
M  V30 4177 C 416.808 -1.82555 -5.02571 0
M  V30 4178 C 418.108 -3.61495 -3.76987 0
M  V30 4179 H 419.802 -2.26394 -1.95924 0
M  V30 4180 H 417.348 -1.08981 -0.94123 0
M  V30 4181 H 419.301 -1.06061 -4.07835 0
M  V30 4182 H 418.025 -0.122195 -3.26371 0
M  V30 4183 H 416.684 -2.22568 -2.91306 0
M  V30 4184 H 416.332 -0.833249 -4.9605 0
M  V30 4185 H 416.032 -2.5581 -5.28995 0
M  V30 4186 H 417.556 -1.80108 -5.83432 0
M  V30 4187 H 418.97 -3.60676 -4.4563 0
M  V30 4188 H 417.367 -4.33577 -4.14887 0
M  V30 4189 H 418.437 -3.97065 -2.78329 0
M  V30 4190 N 419.78 1.02168 -1.19998 0
M  V30 4191 C 421.057 1.72816 -0.916191 0
M  V30 4192 C 421.437 2.03081 0.576325 0
M  V30 4193 O 420.785 1.69122 1.53656 0
M  V30 4194 C 420.995 2.9997 -1.78378 0
M  V30 4195 C 422.343 3.73336 -2.02251 0
M  V30 4196 O 423.367 3.09914 -1.75589 0
M  V30 4197 O 422.226 4.87371 -2.47249 0
M  V30 4198 H 419.32 0.752924 -0.342103 0
M  V30 4199 H 421.866 1.08062 -1.30846 0
M  V30 4200 H 420.638 2.73888 -2.79466 0
M  V30 4201 H 420.261 3.72464 -1.39126 0
M  V30 4202 N 421.258 1.00505 1.21394 0
M  V30 4203 C 422.486 0.706609 1.9446 0
M  V30 4204 C 422.901 -0.73081 1.74082 0
M  V30 4205 O 422.258 -1.49446 1.04747 0
M  V30 4206 C 422.309 1.01824 3.46863 0
M  V30 4207 O 422.03 2.39919 3.66566 0
M  V30 4208 C 423.531 0.739216 4.37093 0
M  V30 4209 H 420.751 0.260394 0.618414 0
M  V30 4210 H 423.295 1.34311 1.54211 0
M  V30 4211 H 421.45 0.427343 3.85036 0
M  V30 4212 H 421.864 2.50784 4.6066 0
M  V30 4213 H 423.338 1.00744 5.42729 0
M  V30 4214 H 423.815 -0.326746 4.37983 0
M  V30 4215 H 424.421 1.31173 4.04566 0
M  V30 4216 N 422.737 -1.36956 0.779787 0
M  V30 4217 C 423.986 -1.98738 0.344405 0
M  V30 4218 C 424.299 -1.62596 -1.08728 0
M  V30 4219 O 425.505 -2.1754 -1.62445 0
M  V30 4220 C 423.961 -3.5544 0.564829 0
M  V30 4221 C 423.569 -4.00514 2.0073 0
M  V30 4222 C 425.313 -4.24059 0.193471 0
M  V30 4223 C 423.22 -5.49957 2.17489 0
M  V30 4224 H 422.15 -0.743561 0.12503 0
M  V30 4225 H 424.801 -1.56381 0.960057 0
M  V30 4226 H 423.183 -3.95817 -0.120397 0
M  V30 4227 H 424.357 -3.71362 2.72814 0
M  V30 4228 H 422.672 -3.44703 2.336 0
M  V30 4229 H 425.269 -5.33874 0.297097 0
M  V30 4230 H 425.612 -4.07378 -0.857263 0
M  V30 4231 H 426.145 -3.89012 0.831556 0
M  V30 4232 H 422.884 -5.71574 3.2091 0
M  V30 4233 H 422.404 -5.80767 1.49899 0
M  V30 4234 H 424.083 -6.16043 1.97738 0
M  V30 4235 N 424.215 -0.530993 -1.48385 0
M  V30 4236 C 425.461 0.00274135 -2.028 0
M  V30 4237 C 425.794 1.33838 -1.40716 0
M  V30 4238 O 425.069 1.86465 -0.553277 0
M  V30 4239 C 425.352 0.123676 -3.59888 0
M  V30 4240 C 425.205 -1.2372 -4.3245 0
M  V30 4241 C 426.524 0.849967 -4.31814 0
M  V30 4242 H 423.643 -0.000477758 -0.737 0
M  V30 4243 H 426.285 -0.688217 -1.77098 0
M  V30 4244 H 424.435 0.712157 -3.81917 0
M  V30 4245 H 426.107 -1.86687 -4.21836 0
M  V30 4246 H 424.35 -1.81882 -3.93829 0
M  V30 4247 H 425.021 -1.10557 -5.40815 0
M  V30 4248 H 427.497 0.350572 -4.14621 0
M  V30 4249 H 426.373 0.903486 -5.41413 0
M  V30 4250 H 426.634 1.90047 -3.99167 0
M  V30 4251 N 425.693 1.55336 -0.266172 0
M  V30 4252 C 427.104 1.85236 0.233315 0
M  V30 4253 C 427.455 1.18816 1.56132 0
M  V30 4254 O 426.58 0.473307 2.11161 0
M  V30 4255 C 427.175 3.36059 0.430113 0
M  V30 4256 C 425.734 3.66116 0.873842 0
M  V30 4257 C 424.881 2.77274 -0.0380016 0
M  V30 4258 H 427.832 1.51004 -0.488214 0
M  V30 4259 H 427.853 3.58681 1.26998 0
M  V30 4260 H 427.365 3.84373 -0.536588 0
M  V30 4261 H 425.466 3.23295 1.85233 0
M  V30 4262 H 425.579 4.73699 0.717358 0
M  V30 4263 H 423.943 2.50198 0.476759 0
M  V30 4264 H 424.726 3.284 -1.00042 0
M  V30 4265 N 427.171 -0.0066808 1.57599 0
M  V30 4266 C 428.448 -0.729586 1.81484 0
M  V30 4267 C 428.828 -1.92359 0.869558 0
M  V30 4268 O 428.176 -2.28348 -0.0832533 0
M  V30 4269 C 428.386 -1.1416 3.29801 0
M  V30 4270 C 429.734 -1.54823 3.95367 0
M  V30 4271 O 430.758 -1.23558 3.34084 0
M  V30 4272 O 429.617 -2.12937 5.03309 0
M  V30 4273 H 426.711 -0.354674 0.747085 0
M  V30 4274 H 429.257 0.0182609 1.6969 0
M  V30 4275 H 428.029 -0.290231 3.90222 0
M  V30 4276 H 427.652 -1.94876 3.46568 0
M  V30 4277 N 428.649 -1.55105 -0.279332 0
M  V30 4278 C 429.874 -1.7976 -1.03446 0
M  V30 4279 C 430.299 -0.565952 -1.79384 0
M  V30 4280 O 429.657 0.484259 -1.74713 0
M  V30 4281 C 429.705 -3.0179 -1.97371 0
M  V30 4282 O 428.809 -2.76432 -3.06038 0
M  V30 4283 H 428.15 -0.594334 -0.29608 0
M  V30 4284 H 430.68 -2.02235 -0.310165 0
M  V30 4285 H 430.69 -3.30351 -2.39441 0
M  V30 4286 H 429.365 -3.91085 -1.4151 0
M  V30 4287 H 427.942 -2.58949 -2.68328 0
M  V30 4288 N 430.127 0.543554 -1.4793 0
M  V30 4289 C 431.09 1.63156 -1.60975 0
M  V30 4290 C 432.09 1.53346 -0.483899 0
M  V30 4291 O 433.28 1.5726 -0.749339 0
M  V30 4292 C 430.412 3.02743 -1.56716 0
M  V30 4293 H 431.605 1.52934 -2.57975 0
M  V30 4294 H 429.158 0.764557 -1.36324 0
M  V30 4295 H 429.893 3.18484 -0.611418 0
M  V30 4296 H 429.678 3.11272 -2.38438 0
M  V30 4297 H 431.168 3.81871 -1.6901 0
M  V30 4298 N 431.605 1.3629 0.791371 0
M  V30 4299 C 432.553 1.30514 1.92533 0
M  V30 4300 C 433.547 0.197285 1.68247 0
M  V30 4301 O 434.753 0.364176 1.76278 0
M  V30 4302 H 431.128 0.406263 0.632815 0
M  V30 4303 H 433.099 2.26282 1.94523 0
M  V30 4304 C 431.848 1.10933 3.29529 0
M  V30 4305 H 431.171 1.95427 3.48781 0
M  V30 4306 H 432.611 1.10937 4.0923 0
M  V30 4307 C 431.07 -0.186123 3.36385 0
M  V30 4308 O 431.6 -1.17664 3.84081 0
M  V30 4309 N 429.806 -0.230128 2.89687 0
M  V30 4310 H 429.353 0.576545 2.51065 0
M  V30 4311 H 429.311 -1.09658 2.94657 0
M  V30 4312 N 433.083 -1.0153 1.20538 0
M  V30 4313 C 434.015 -2.10224 0.913155 0
M  V30 4314 C 435.028 -1.62495 -0.0995998 0
M  V30 4315 O 436.217 -1.78014 0.131582 0
M  V30 4316 C 433.317 -3.37111 0.347717 0
M  V30 4317 C 432.49 -4.13971 1.41233 0
M  V30 4318 C 431.549 -5.19158 0.857976 0
M  V30 4319 O 430.575 -5.48 1.53897 0
M  V30 4320 N 431.777 -5.7955 -0.331966 0
M  V30 4321 H 434.542 -2.35879 1.84881 0
M  V30 4322 H 432.103 -1.17931 1.10923 0
M  V30 4323 H 434.095 -4.04683 -0.0373026 0
M  V30 4324 H 432.665 -3.08696 -0.492527 0
M  V30 4325 H 431.885 -3.41351 1.97163 0
M  V30 4326 H 433.173 -4.62103 2.12928 0
M  V30 4327 H 432.571 -5.58455 -0.902478 0
M  V30 4328 H 431.128 -6.48464 -0.65861 0
M  V30 4329 N 434.561 -1.01147 -1.20859 0
M  V30 4330 C 435.972 -0.730205 -1.71828 0
M  V30 4331 C 436.323 0.751662 -1.8123 0
M  V30 4332 O 435.448 1.58686 -1.47132 0
M  V30 4333 C 436.043 -1.31885 -3.12077 0
M  V30 4334 C 434.602 -1.08656 -3.60376 0
M  V30 4335 C 433.749 -1.42769 -2.37723 0
M  V30 4336 H 436.7 -1.18158 -1.05945 0
M  V30 4337 H 436.721 -0.706793 -3.73878 0
M  V30 4338 H 436.233 -2.39737 -3.05201 0
M  V30 4339 H 434.334 -0.0254814 -3.72591 0
M  V30 4340 H 434.447 -1.76301 -4.45483 0
M  V30 4341 H 432.811 -0.846603 -2.40218 0
M  V30 4342 H 433.594 -2.51666 -2.33493 0
M  V30 4343 N 436.039 1.36541 -0.78704 0
M  V30 4344 C 437.269 2.03266 -0.369662 0
M  V30 4345 C 437.677 1.59481 1.01796 0
M  V30 4346 O 437.02 0.778612 1.66383 0
M  V30 4347 C 437.082 3.57779 -0.351371 0
M  V30 4348 C 436.746 4.24756 -1.68617 0
M  V30 4349 C 437.743 4.47811 -2.64124 0
M  V30 4350 C 435.428 4.62277 -1.96481 0
M  V30 4351 C 437.422 5.07464 -3.85693 0
M  V30 4352 C 435.109 5.21649 -3.18317 0
M  V30 4353 C 436.107 5.44182 -4.12741 0
M  V30 4354 O 435.795 6.02307 -5.32429 0
M  V30 4355 H 435.527 0.658977 -0.150751 0
M  V30 4356 H 438.081 1.75548 -1.0664 0
M  V30 4357 H 436.311 3.84606 0.401847 0
M  V30 4358 H 438 4.05879 0.0410147 0
M  V30 4359 H 438.766 4.19221 -2.43883 0
M  V30 4360 H 434.645 4.44065 -1.23805 0
M  V30 4361 H 438.189 5.24968 -4.59407 0
M  V30 4362 H 434.086 5.49664 -3.38437 0
M  V30 4363 H 434.854 6.20775 -5.33461 0
M  V30 4364 N 437.518 0.538854 1.48102 0
M  V30 4365 C 438.795 -0.0568108 1.95517 0
M  V30 4366 C 439.175 -1.50408 1.48124 0
M  V30 4367 O 438.523 -2.17133 0.711727 0
M  V30 4368 C 438.733 0.0696262 3.48931 0
M  V30 4369 C 440.081 -0.0851202 4.24515 0
M  V30 4370 O 441.105 -0.0037347 3.562 0
M  V30 4371 O 439.964 -0.257025 5.45895 0
M  V30 4372 H 437.058 -0.0743695 0.823649 0
M  V30 4373 H 439.604 0.604081 1.58584 0
M  V30 4374 H 438.376 1.07744 3.76174 0
M  V30 4375 H 437.999 -0.629714 3.92582 0
M  V30 4376 N 438.996 -1.55193 0.274407 0
M  V30 4377 C 439.929 -2.18606 -0.654712 0
M  V30 4378 C 440.907 -1.14677 -1.15273 0
M  V30 4379 O 442.091 -1.43198 -1.22583 0
M  V30 4380 C 439.218 -2.80875 -1.89281 0
M  V30 4381 C 438.264 -3.981 -1.53032 0
M  V30 4382 S 439.097 -5.32025 -0.609107 0
M  V30 4383 C 440.253 -5.97761 -1.85559 0
M  V30 4384 H 440.486 -2.97074 -0.115894 0
M  V30 4385 H 438.019 -1.54288 0.05867 0
M  V30 4386 H 439.977 -3.17381 -2.60345 0
M  V30 4387 H 438.638 -2.02302 -2.40277 0
M  V30 4388 H 437.831 -4.40356 -2.45158 0
M  V30 4389 H 437.433 -3.63013 -0.899874 0
M  V30 4390 H 439.725 -6.16951 -2.7996 0
M  V30 4391 H 440.668 -6.92545 -1.47605 0
M  V30 4392 H 441.076 -5.27113 -2.02021 0
M  V30 4393 N 440.474 -0.00167713 -1.576 0
M  V30 4394 C 441.424 0.997744 -2.0501 0
M  V30 4395 C 442.408 1.30214 -0.94515 0
M  V30 4396 O 443.6 1.29284 -1.20891 0
M  V30 4397 C 440.729 2.2892 -2.55833 0
M  V30 4398 C 439.815 2.01437 -3.73208 0
M  V30 4399 N 440.206 1.44119 -4.84833 0
M  V30 4400 C 438.504 2.31571 -3.8117 0
M  V30 4401 C 439.205 1.33145 -5.66257 0
M  V30 4402 N 438.181 1.81763 -5.12312 0
M  V30 4403 H 441.983 0.549098 -2.88725 0
M  V30 4404 H 439.497 0.20398 -1.61114 0
M  V30 4405 H 441.494 3.01361 -2.88075 0
M  V30 4406 H 440.154 2.74436 -1.73537 0
M  V30 4407 H 441.165 1.11978 -5.0565 0
M  V30 4408 H 437.842 2.7995 -3.09732 0
M  V30 4409 H 439.232 0.890567 -6.65972 0
M  V30 4410 N 441.952 1.55251 0.271103 0
M  V30 4411 C 443.177 1.80306 1.02491 0
M  V30 4412 C 443.602 0.575457 1.79081 0
M  V30 4413 O 442.96 -0.474987 1.74967 0
M  V30 4414 C 443.008 3.02832 1.95768 0
M  V30 4415 O 442.112 2.78051 3.04568 0
M  V30 4416 H 441.453 0.595896 0.292923 0
M  V30 4417 H 443.983 2.02397 0.299436 0
M  V30 4418 H 443.993 3.31616 2.37686 0
M  V30 4419 H 442.668 3.9183 1.39434 0
M  V30 4420 H 441.245 2.60369 2.66951 0
M  V30 4421 N 443.43 -0.535701 1.48216 0
M  V30 4422 C 444.676 -1.29375 1.56173 0
M  V30 4423 C 445.009 -1.92804 0.232429 0
M  V30 4424 O 444.284 -1.78992 -0.761048 0
M  V30 4425 C 444.567 -2.38747 2.69577 0
M  V30 4426 C 444.42 -1.80046 4.12193 0
M  V30 4427 C 445.739 -3.40551 2.78771 0
M  V30 4428 H 442.858 -0.469027 0.568491 0
M  V30 4429 H 445.5 -0.597358 1.80365 0
M  V30 4430 H 443.65 -2.98147 2.4908 0
M  V30 4431 H 445.322 -1.24742 4.44114 0
M  V30 4432 H 443.565 -1.10609 4.19462 0
M  V30 4433 H 444.236 -2.59212 4.87353 0
M  V30 4434 H 446.712 -2.91099 2.97322 0
M  V30 4435 H 445.588 -4.1448 3.59857 0
M  V30 4436 H 445.849 -4.00746 1.86696 0
M  V30 4437 N 444.908 -1.36708 -0.784132 0
M  V30 4438 C 446.157 -1.30559 -1.53744 0
M  V30 4439 C 446.47 0.111374 -1.95283 0
M  V30 4440 O 447.676 0.29527 -2.6989 0
M  V30 4441 C 446.132 -2.29098 -2.77565 0
M  V30 4442 C 445.74 -3.76258 -2.43174 0
M  V30 4443 C 447.484 -2.31936 -3.55536 0
M  V30 4444 C 445.391 -4.6656 -3.63422 0
M  V30 4445 H 444.321 -0.48518 -0.577162 0
M  V30 4446 H 446.972 -1.62101 -0.859981 0
M  V30 4447 H 445.354 -1.90557 -3.47137 0
M  V30 4448 H 446.528 -4.23565 -1.81465 0
M  V30 4449 H 444.843 -3.76246 -1.78403 0
M  V30 4450 H 447.44 -2.9661 -4.44889 0
M  V30 4451 H 447.783 -1.3294 -3.94503 0
M  V30 4452 H 448.316 -2.6912 -2.92949 0
M  V30 4453 H 445.055 -5.66638 -3.29547 0
M  V30 4454 H 444.575 -4.23966 -4.24279 0
M  V30 4455 H 446.254 -4.8309 -4.30387 0
M  V30 4456 N 446.386 1.0089 -1.21074 0
M  V30 4457 C 447.296 2.13039 -0.982425 0
M  V30 4458 C 448.312 1.73881 0.0642161 0
M  V30 4459 O 449.488 2.01012 -0.12496 0
M  V30 4460 C 446.553 3.42377 -0.545803 0
M  V30 4461 C 445.614 3.95731 -1.6642 0
M  V30 4462 C 444.847 5.18896 -1.24832 0
M  V30 4463 O 445.07 5.70273 -0.120265 0
M  V30 4464 O 444.004 5.65597 -2.05873 0
M  V30 4465 H 447.83 2.35175 -1.92163 0
M  V30 4466 H 445.415 1.1142 -0.995285 0
M  V30 4467 H 447.297 4.20244 -0.311912 0
M  V30 4468 H 445.972 3.21639 0.364727 0
M  V30 4469 H 444.879 3.19108 -1.95246 0
M  V30 4470 H 446.212 4.20872 -2.55201 0
M  V30 4471 N 447.864 1.01787 1.20321 0
M  V30 4472 C 448.814 0.559976 2.21016 0
M  V30 4473 C 449.798 -0.385366 1.56217 0
M  V30 4474 O 450.99 -0.208126 1.75772 0
M  V30 4475 C 448.119 -0.0990553 3.43157 0
M  V30 4476 C 447.205 0.86807 4.15121 0
M  V30 4477 N 447.596 2.0261 4.63447 0
M  V30 4478 C 445.894 0.689162 4.40643 0
M  V30 4479 C 446.595 2.63518 5.18588 0
M  V30 4480 N 445.571 1.91569 5.08726 0
M  V30 4481 H 449.373 1.44281 2.56048 0
M  V30 4482 H 446.887 0.883381 1.36272 0
M  V30 4483 H 448.884 -0.444643 4.14522 0
M  V30 4484 H 447.544 -0.977709 3.0963 0
M  V30 4485 H 448.555 2.40598 4.58621 0
M  V30 4486 H 445.232 -0.14133 4.17261 0
M  V30 4487 H 446.622 3.61527 5.66346 0
M  V30 4488 N 449.342 -1.36122 0.79427 0
M  V30 4489 C 450.588 -1.99406 0.369452 0
M  V30 4490 C 450.921 -1.62886 -1.05743 0
M  V30 4491 O 450.196 -0.886053 -1.73145 0
M  V30 4492 C 450.479 -3.56046 0.538833 0
M  V30 4493 C 450.332 -4.02404 2.00976 0
M  V30 4494 C 451.651 -4.40079 -0.0431359 0
M  V30 4495 H 448.77 -0.724397 0.135712 0
M  V30 4496 H 451.412 -1.61461 1.00151 0
M  V30 4497 H 449.562 -3.885 0.000771004 0
M  V30 4498 H 451.234 -3.80415 2.60926 0
M  V30 4499 H 449.477 -3.53765 2.51063 0
M  V30 4500 H 450.148 -5.11344 2.07922 0
M  V30 4501 H 452.624 -4.14013 0.416228 0
M  V30 4502 H 451.5 -5.48799 0.105374 0
M  V30 4503 H 451.761 -4.27264 -1.13571 0
M  V30 4504 N 450.82 -0.546701 -1.47814 0
M  V30 4505 C 451.75 0.195317 -2.32682 0
M  V30 4506 C 452.731 0.918981 -1.43139 0
M  V30 4507 O 453.916 0.901501 -1.72008 0
M  V30 4508 C 451.046 1.23237 -3.247 0
M  V30 4509 C 450 0.625818 -4.234 0
M  V30 4510 C 449.326 1.76674 -5.04669 0
M  V30 4511 C 450.626 -0.413515 -5.2066 0
M  V30 4512 H 452.32 -0.513184 -2.94969 0
M  V30 4513 H 449.866 -0.248241 -1.41844 0
M  V30 4514 H 451.819 1.75955 -3.82907 0
M  V30 4515 H 450.543 1.97067 -2.60446 0
M  V30 4516 H 449.202 0.120023 -3.66403 0
M  V30 4517 H 448.85 2.49383 -4.36826 0
M  V30 4518 H 448.55 1.36673 -5.71484 0
M  V30 4519 H 450.074 2.29738 -5.65732 0
M  V30 4520 H 451.488 0.0272042 -5.73294 0
M  V30 4521 H 449.885 -0.731825 -5.95621 0
M  V30 4522 H 450.955 -1.31325 -4.66778 0
M  V30 4523 N 452.299 1.55045 -0.282633 0
M  V30 4524 C 453.576 1.9179 0.384166 0
M  V30 4525 C 453.956 1.20778 1.73136 0
M  V30 4526 O 453.304 0.33719 2.25998 0
M  V30 4527 C 453.514 3.45149 0.517014 0
M  V30 4528 C 454.862 4.17064 0.796427 0
M  V30 4529 O 455.886 3.51084 0.601535 0
M  V30 4530 O 454.745 5.33837 1.16962 0
M  V30 4531 H 451.839 0.799483 0.211558 0
M  V30 4532 H 454.385 1.66474 -0.32934 0
M  V30 4533 H 453.157 3.88922 -0.430772 0
M  V30 4534 H 452.78 3.76443 1.2797 0
M  V30 4535 N 453.777 0.010035 1.57597 0
M  V30 4536 C 455.054 -0.710296 1.82248 0
M  V30 4537 C 455.434 -1.91426 0.889911 0
M  V30 4538 O 454.782 -2.28424 -0.0590292 0
M  V30 4539 C 454.992 -1.10655 3.30993 0
M  V30 4540 C 456.34 -1.50621 3.96987 0
M  V30 4541 O 457.364 -1.20007 3.35375 0
M  V30 4542 O 456.223 -2.07587 5.05539 0
M  V30 4543 H 453.317 -0.34673 0.750804 0
M  V30 4544 H 455.863 0.0362578 1.69661 0
M  V30 4545 H 454.635 -0.248826 3.90508 0
M  V30 4546 H 454.258 -1.91189 3.48615 0
M  V30 4547 N 455.255 -1.55392 -0.262866 0
M  V30 4548 C 456.218 -1.88181 -1.30846 0
M  V30 4549 C 457.218 -0.757079 -1.41862 0
M  V30 4550 O 458.408 -1.02519 -1.40838 0
M  V30 4551 C 455.54 -2.09609 -2.68844 0
M  V30 4552 H 456.733 -2.81659 -1.02997 0
M  V30 4553 H 454.286 -1.48039 -0.501414 0
M  V30 4554 H 455.021 -1.18547 -3.01856 0
M  V30 4555 H 454.806 -2.91508 -2.62231 0
M  V30 4556 H 456.296 -2.36215 -3.44372 0
M  V30 4557 N 456.733 0.527833 -1.48498 0
M  V30 4558 C 457.643 1.65907 -1.65867 0
M  V30 4559 C 458.659 1.6537 -0.541192 0
M  V30 4560 O 459.835 1.84282 -0.812534 0
M  V30 4561 C 456.9 3.02364 -1.69637 0
M  V30 4562 C 455.961 3.1374 -2.93028 0
M  V30 4563 C 455.194 4.43688 -2.96609 0
M  V30 4564 O 455.417 5.30913 -2.08538 0
M  V30 4565 O 454.351 4.59475 -3.88802 0
M  V30 4566 H 458.177 1.5419 -2.61647 0
M  V30 4567 H 455.762 0.701163 -1.31924 0
M  V30 4568 H 457.644 3.83515 -1.74625 0
M  V30 4569 H 456.319 3.14401 -0.770312 0
M  V30 4570 H 455.226 2.31877 -2.93571 0
M  V30 4571 H 456.559 3.06621 -3.85026 0
M  V30 4572 N 458.211 1.37122 0.776871 0
M  V30 4573 C 459.458 1.32047 1.53524 0
M  V30 4574 C 459.786 -0.0965631 1.9426 0
M  V30 4575 O 459.041 -1.06866 1.63945 0
M  V30 4576 C 459.34 2.20068 2.81611 0
M  V30 4577 C 459.006 3.68423 2.59953 0
M  V30 4578 C 457.668 4.08854 2.53755 0
M  V30 4579 C 460.02 4.62431 2.40431 0
M  V30 4580 C 457.348 5.41417 2.26018 0
M  V30 4581 C 459.7 5.95225 2.14219 0
M  V30 4582 C 458.364 6.34767 2.06462 0
M  V30 4583 H 457.634 0.483196 0.561785 0
M  V30 4584 H 460.281 1.69284 0.895268 0
M  V30 4585 H 458.586 1.75809 3.50141 0
M  V30 4586 H 460.283 2.13458 3.39465 0
M  V30 4587 H 456.873 3.36354 2.65638 0
M  V30 4588 H 461.057 4.32057 2.44213 0
M  V30 4589 H 456.313 5.71022 2.18504 0
M  V30 4590 H 460.487 6.67626 1.98112 0
M  V30 4591 H 458.114 7.37413 1.84733 0
M  V30 4592 N 459.689 -1.00246 1.21608 0
M  V30 4593 C 460.936 -1.74061 1.03485 0
M  V30 4594 C 461.264 -1.89658 -0.431308 0
M  V30 4595 O 460.519 -1.42976 -1.33627 0
M  V30 4596 C 460.818 -3.15448 1.68009 0
M  V30 4597 C 460.484 -3.19792 3.17874 0
M  V30 4598 C 459.146 -3.20685 3.58768 0
M  V30 4599 C 461.498 -3.16835 4.13842 0
M  V30 4600 C 458.826 -3.16309 4.94131 0
M  V30 4601 C 461.178 -3.14001 5.49169 0
M  V30 4602 C 459.842 -3.13204 5.89457 0
M  V30 4603 H 459.112 -0.636934 0.378677 0
M  V30 4604 H 461.759 -1.17473 1.51236 0
M  V30 4605 H 460.064 -3.75284 1.12557 0
M  V30 4606 H 461.761 -3.71285 1.51487 0
M  V30 4607 H 458.351 -3.19842 2.85305 0
M  V30 4608 H 462.535 -3.15303 3.83272 0
M  V30 4609 H 457.791 -3.14032 5.24589 0
M  V30 4610 H 461.965 -3.10667 6.23265 0
M  V30 4611 H 459.592 -3.09568 6.94314 0
M  V30 4612 N 461.167 -1.02423 -1.1978 0
M  V30 4613 C 462.077 -0.610919 -2.26506 0
M  V30 4614 C 463.093 0.355152 -1.70337 0
M  V30 4615 O 464.269 0.214195 -2.00258 0
M  V30 4616 C 461.334 0.0365921 -3.46681 0
M  V30 4617 C 460.395 -0.976389 -4.18049 0
M  V30 4618 C 459.628 -0.359683 -5.32487 0
M  V30 4619 O 459.851 0.838601 -5.64202 0
M  V30 4620 O 458.785 -1.08022 -5.92127 0
M  V30 4621 H 462.611 -1.49965 -2.64091 0
M  V30 4622 H 460.196 -0.794156 -1.26545 0
M  V30 4623 H 462.078 0.39786 -4.19518 0
M  V30 4624 H 460.753 0.899398 -3.10954 0
M  V30 4625 H 459.66 -1.38916 -3.47352 0
M  V30 4626 H 460.993 -1.80941 -4.57735 0
M  V30 4627 N 462.645 1.35699 -0.801477 0
M  V30 4628 C 463.873 2.03157 -0.391768 0
M  V30 4629 C 464.288 1.60412 0.995668 0
M  V30 4630 O 463.645 0.799228 1.64069 0
M  V30 4631 C 463.696 3.58566 -0.459671 0
M  V30 4632 O 463.417 3.99756 -1.7924 0
M  V30 4633 C 464.918 4.4328 -0.0421205 0
M  V30 4634 H 462.138 0.651688 -0.159825 0
M  V30 4635 H 464.682 1.73426 -1.08368 0
M  V30 4636 H 462.837 3.86963 0.183939 0
M  V30 4637 H 463.251 4.94387 -1.75162 0
M  V30 4638 H 464.725 5.51821 -0.140754 0
M  V30 4639 H 465.202 4.27383 1.01196 0
M  V30 4640 H 465.808 4.20168 -0.658687 0
M  V30 4641 N 464.123 0.554532 1.47522 0
M  V30 4642 C 465.055 -0.232106 2.28022 0
M  V30 4643 C 466.068 -0.881865 1.36847 0
M  V30 4644 O 467.257 -0.756168 1.61692 0
M  V30 4645 C 464.357 -1.34604 3.11022 0
M  V30 4646 C 463.53 -0.793582 4.30141 0
M  V30 4647 C 462.589 -1.79168 4.94758 0
M  V30 4648 O 461.615 -1.33886 5.5323 0
M  V30 4649 N 462.817 -3.12495 4.89211 0
M  V30 4650 H 465.582 0.458407 2.96173 0
M  V30 4651 H 463.143 0.390433 1.57122 0
M  V30 4652 H 465.135 -2.01243 3.51118 0
M  V30 4653 H 463.705 -1.93983 2.45131 0
M  V30 4654 H 462.925 0.0495025 3.94169 0
M  V30 4655 H 464.213 -0.403776 5.07195 0
M  V30 4656 H 463.611 -3.51931 4.42901 0
M  V30 4657 H 462.168 -3.74698 5.33333 0
M  V30 4658 N 465.601 -1.54893 0.290851 0
M  V30 4659 C 467.012 -1.85584 -0.203816 0
M  V30 4660 C 467.363 -1.21285 -1.54222 0
M  V30 4661 O 466.488 -0.506841 -2.10381 0
M  V30 4662 C 467.083 -3.367 -0.376595 0
M  V30 4663 C 465.642 -3.6746 -0.815485 0
M  V30 4664 C 464.789 -2.77178 0.0821087 0
M  V30 4665 H 467.74 -1.50208 0.512175 0
M  V30 4666 H 467.761 -3.60656 -1.21275 0
M  V30 4667 H 467.273 -3.8347 0.59767 0
M  V30 4668 H 465.374 -3.26201 -1.80066 0
M  V30 4669 H 465.487 -4.7478 -0.641905 0
M  V30 4670 H 463.851 -2.50925 -0.436895 0
M  V30 4671 H 464.634 -3.26767 1.05254 0
M  V30 4672 N 467.08 -0.0183926 -1.57589 0
M  V30 4673 C 468.01 0.965596 -2.12599 0
M  V30 4674 C 468.991 1.34641 -1.0395 0
M  V30 4675 O 470.176 1.42693 -1.31729 0
M  V30 4676 C 467.306 2.25149 -2.64434 0
M  V30 4677 C 466.26 2.01175 -3.77773 0
M  V30 4678 C 465.586 3.35937 -4.15994 0
M  V30 4679 C 466.886 1.35953 -5.04296 0
M  V30 4680 H 468.58 0.507504 -2.95067 0
M  V30 4681 H 466.126 0.242671 -1.41941 0
M  V30 4682 H 468.079 2.94357 -3.01549 0
M  V30 4683 H 466.803 2.73105 -1.79112 0
M  V30 4684 H 465.462 1.34388 -3.4108 0
M  V30 4685 H 465.11 3.81631 -3.27669 0
M  V30 4686 H 464.81 3.20705 -4.92364 0
M  V30 4687 H 466.334 4.0643 -4.55683 0
M  V30 4688 H 467.748 1.95144 -5.39065 0
M  V30 4689 H 466.145 1.31152 -5.85593 0
M  V30 4690 H 467.215 0.331071 -4.83768 0
M  V30 4691 N 468.558 1.5553 0.254621 0
M  V30 4692 C 469.805 1.77 0.983736 0
M  V30 4693 C 470.133 0.58133 1.85609 0
M  V30 4694 O 469.388 -0.435621 1.9079 0
M  V30 4695 C 469.687 3.03891 1.88109 0
M  V30 4696 C 469.353 4.35597 1.16472 0
M  V30 4697 C 468.015 4.7139 0.966714 0
M  V30 4698 C 470.367 5.1705 0.656387 0
M  V30 4699 C 467.695 5.86176 0.247942 0
M  V30 4700 C 470.047 6.32581 -0.0488807 0
M  V30 4701 C 468.711 6.67 -0.258438 0
M  V30 4702 H 467.981 0.647688 0.359974 0
M  V30 4703 H 470.628 1.89802 0.254463 0
M  V30 4704 H 468.933 2.86068 2.67717 0
M  V30 4705 H 470.63 3.17701 2.44677 0
M  V30 4706 H 467.22 4.07475 1.32899 0
M  V30 4707 H 471.404 4.8986 0.796933 0
M  V30 4708 H 466.66 6.11354 0.075035 0
M  V30 4709 H 470.834 6.94942 -0.450444 0
M  V30 4710 H 468.461 7.55793 -0.817358 0
M  V30 4711 N 470.036 -0.519951 1.48776 0
M  V30 4712 C 470.999 -1.60574 1.6355 0
M  V30 4713 C 471.999 -1.52557 0.508234 0
M  V30 4714 O 473.189 -1.56047 0.774262 0
M  V30 4715 C 470.321 -3.00211 1.61512 0
M  V30 4716 H 471.514 -1.4881 2.60376 0
M  V30 4717 H 469.067 -0.742772 1.37523 0
M  V30 4718 H 469.802 -3.17471 0.662009 0
M  V30 4719 H 469.587 -3.07439 2.43359 0
M  V30 4720 H 471.077 -3.79134 1.75064 0
M  V30 4721 N 471.514 -1.37532 -0.769588 0
M  V30 4722 C 472.925 -1.29382 -1.346 0
M  V30 4723 C 473.276 0.0576039 -1.96115 0
M  V30 4724 O 472.401 0.95947 -1.93967 0
M  V30 4725 C 472.996 -2.34298 -2.44724 0
M  V30 4726 C 471.555 -2.29776 -2.98128 0
M  V30 4727 C 470.702 -2.18013 -1.71364 0
M  V30 4728 H 473.653 -1.48123 -0.56968 0
M  V30 4729 H 473.674 -1.99089 -3.24259 0
M  V30 4730 H 473.186 -3.32645 -1.99922 0
M  V30 4731 H 471.287 -1.34959 -3.47299 0
M  V30 4732 H 471.4 -3.23276 -3.53595 0
M  V30 4733 H 469.764 -1.64595 -1.94372 0
M  V30 4734 H 470.547 -3.18278 -1.28662 0
M  V30 4735 N 472.992 0.995999 -1.22138 0
M  V30 4736 C 473.94 2.10673 -0.985876 0
M  V30 4737 C 474.934 1.69255 0.0699553 0
M  V30 4738 O 476.14 1.79812 -0.0822176 0
M  V30 4739 H 472.515 0.688865 -0.30161 0
M  V30 4740 H 474.486 2.27711 -1.92848 0
M  V30 4741 C 473.235 3.42881 -0.576909 0
M  V30 4742 H 472.558 3.75191 -1.38101 0
M  V30 4743 H 473.998 4.21589 -0.451518 0
M  V30 4744 C 472.457 3.29265 0.713196 0
M  V30 4745 O 472.987 3.60777 1.76643 0
M  V30 4746 N 471.193 2.82456 0.683162 0
M  V30 4747 H 470.74 2.5701 -0.174242 0
M  V30 4748 H 470.698 2.73727 1.54663 0
M  V30 4749 N 474.47 1.03057 1.19235 0
M  V30 4750 C 475.719 0.72326 1.88287 0
M  V30 4751 C 476.032 -0.751333 1.80594 0
M  V30 4752 O 477.238 -1.17176 2.44912 0
M  V30 4753 C 475.694 1.24338 3.3774 0
M  V30 4754 C 475.302 2.74587 3.53986 0
M  V30 4755 C 477.046 1.01213 4.12257 0
M  V30 4756 C 474.953 3.20009 4.97341 0
M  V30 4757 H 473.883 0.266848 0.705201 0
M  V30 4758 H 476.534 1.24509 1.34795 0
M  V30 4759 H 474.916 0.649457 3.90638 0
M  V30 4760 H 476.09 3.39649 3.11408 0
M  V30 4761 H 474.405 2.9601 2.9286 0
M  V30 4762 H 477.002 1.32675 5.17978 0
M  V30 4763 H 477.345 -0.051001 4.16269 0
M  V30 4764 H 477.878 1.57014 3.65501 0
M  V30 4765 H 474.617 4.25659 4.98493 0
M  V30 4766 H 474.137 2.59676 5.40674 0
M  V30 4767 H 475.816 3.13447 5.66003 0
M  V30 4768 N 475.948 -1.35272 0.808662 0
M  V30 4769 C 476.878 -2.32315 0.234981 0
M  V30 4770 C 477.859 -1.57572 -0.64071 0
M  V30 4771 O 479.044 -1.8563 -0.570551 0
M  V30 4772 C 476.174 -3.41801 -0.615601 0
M  V30 4773 C 475.128 -4.27694 0.161767 0
M  V30 4774 C 474.454 -5.28519 -0.810649 0
M  V30 4775 C 475.754 -5.04231 1.36193 0
M  V30 4776 H 477.448 -2.80543 1.04575 0
M  V30 4777 H 474.994 -1.3488 0.504315 0
M  V30 4778 H 476.947 -4.08693 -1.02702 0
M  V30 4779 H 475.671 -2.92186 -1.45928 0
M  V30 4780 H 474.33 -3.62384 0.554382 0
M  V30 4781 H 473.978 -4.75171 -1.64988 0
M  V30 4782 H 473.678 -5.8686 -0.294822 0
M  V30 4783 H 475.202 -5.98283 -1.22023 0
M  V30 4784 H 476.616 -5.64058 1.02528 0
M  V30 4785 H 475.013 -5.72077 1.81239 0
M  V30 4786 H 476.083 -4.34753 2.14751 0
M  V30 4787 N 477.426 -0.562348 -1.47226 0
M  V30 4788 C 478.654 -0.0452275 -2.06851 0
M  V30 4789 C 479.069 1.25078 -1.41424 0
M  V30 4790 O 478.426 1.75156 -0.512513 0
M  V30 4791 C 478.477 0.148674 -3.61194 0
M  V30 4792 O 478.198 -1.09602 -4.24169 0
M  V30 4793 C 479.699 0.702488 -4.37699 0
M  V30 4794 H 476.919 -0.0481775 -0.669268 0
M  V30 4795 H 479.463 -0.777223 -1.89155 0
M  V30 4796 H 477.618 0.830817 -3.78386 0
M  V30 4797 H 478.032 -0.896982 -5.16773 0
M  V30 4798 H 479.506 0.78743 -5.46355 0
M  V30 4799 H 479.983 1.71493 -4.04335 0
M  V30 4800 H 480.589 0.0558772 -4.25263 0
M  V30 4801 N 478.904 1.54736 -0.299062 0
M  V30 4802 C 480.152 1.99706 0.31017 0
M  V30 4803 C 480.473 1.18896 1.54559 0
M  V30 4804 O 479.743 0.284445 1.93824 0
M  V30 4805 H 478.323 0.737686 0.117596 0
M  V30 4806 H 480.985 1.9054 -0.409943 0
M  V30 4807 H 480.081 3.06596 0.58355 0
M  V30 4808 N 480.382 0.0267497 1.57577 0
M  V30 4809 C 481.629 -0.652404 1.91703 0
M  V30 4810 C 481.957 -1.72271 0.902936 0
M  V30 4811 O 481.212 -1.955 -0.0884843 0
M  V30 4812 C 481.511 -1.30914 3.3256 0
M  V30 4813 C 481.177 -0.369441 4.49384 0
M  V30 4814 C 479.839 -0.110791 4.81072 0
M  V30 4815 C 482.191 0.275971 5.20469 0
M  V30 4816 C 479.519 0.801116 5.81205 0
M  V30 4817 C 481.871 1.17592 6.21575 0
M  V30 4818 C 480.535 1.44348 6.51705 0
M  V30 4819 H 479.805 -0.238732 0.70149 0
M  V30 4820 H 482.452 0.0880091 1.91298 0
M  V30 4821 H 480.757 -2.12425 3.29216 0
M  V30 4822 H 482.454 -1.84115 3.56234 0
M  V30 4823 H 479.044 -0.581211 4.24641 0
M  V30 4824 H 483.228 0.0892 4.9622 0
M  V30 4825 H 478.484 1.01614 6.02897 0
M  V30 4826 H 482.658 1.68223 6.75777 0
M  V30 4827 H 480.285 2.15176 7.29111 0
M  V30 4828 N 481.861 -1.55662 -0.24637 0
M  V30 4829 C 483.109 -1.77168 -0.972411 0
M  V30 4830 C 483.43 -0.590827 -1.85834 0
M  V30 4831 O 482.7 0.393365 -1.9191 0
M  V30 4832 H 481.28 -0.653405 -0.362038 0
M  V30 4833 H 483.942 -1.93101 -0.264189 0
M  V30 4834 H 483.038 -2.68335 -1.59382 0
M  V30 4835 N 483.339 0.512053 -1.4905 0
M  V30 4836 C 484.755 0.84224 -1.35567 0
M  V30 4837 C 484.955 1.97878 -0.380319 0
M  V30 4838 O 484.011 2.51769 0.19201 0
M  V30 4839 C 485.324 1.19286 -2.76028 0
M  V30 4840 C 486.872 1.30171 -2.84648 0
M  V30 4841 C 487.347 1.68568 -4.25851 0
M  V30 4842 N 488.838 1.75638 -4.28609 0
M  V30 4843 C 489.573 2.06769 -5.34821 0
M  V30 4844 N 489.069 2.36201 -6.51292 0
M  V30 4845 N 490.862 2.07927 -5.22229 0
M  V30 4846 H 483.013 -0.237574 -2.11067 0
M  V30 4847 H 485.276 -0.0436747 -0.946993 0
M  V30 4848 H 484.982 0.431199 -3.49047 0
M  V30 4849 H 484.856 2.13889 -3.10695 0
M  V30 4850 H 487.243 2.05411 -2.11873 0
M  V30 4851 H 487.324 0.336457 -2.53578 0
M  V30 4852 H 486.968 0.938824 -4.99148 0
M  V30 4853 H 486.898 2.66174 -4.54377 0
M  V30 4854 H 489.389 1.55097 -3.44606 0
M  V30 4855 H 489.702 2.59112 -7.28066 0
M  V30 4856 H 488.047 2.33681 -6.54536 0
M  V30 4857 H 491.238 1.84403 -4.30248 0
M  V30 4858 H 491.411 2.31856 -6.05101 0
M  V30 4859 N 484.817 1.37938 0.762283 0
M  V30 4860 C 486.063 1.33866 1.52341 0
M  V30 4861 C 486.396 -0.0738961 1.94059 0
M  V30 4862 O 485.671 -1.03326 1.64785 0
M  V30 4863 C 485.954 2.28644 2.78197 0
M  V30 4864 C 485.807 3.78722 2.42672 0
M  V30 4865 C 487.126 2.21702 3.80179 0
M  V30 4866 H 484.245 0.487593 0.55265 0
M  V30 4867 H 486.887 1.68717 0.873767 0
M  V30 4868 H 485.037 1.99055 3.33631 0
M  V30 4869 H 486.709 4.18948 1.93081 0
M  V30 4870 H 484.952 3.96827 1.75244 0
M  V30 4871 H 485.623 4.40486 3.3268 0
M  V30 4872 H 488.099 2.47805 3.34263 0
M  V30 4873 H 486.975 2.90143 4.65949 0
M  V30 4874 H 487.236 1.21301 4.25133 0
M  V30 4875 N 486.295 -0.989507 1.22664 0
M  V30 4876 C 487.205 -2.11449 1.01619 0
M  V30 4877 C 488.221 -1.73962 -0.036545 0
M  V30 4878 O 489.397 -2.00788 0.156924 0
M  V30 4879 C 486.462 -3.41465 0.600204 0
M  V30 4880 C 485.523 -3.93033 1.72695 0
M  V30 4881 C 484.756 -5.16844 1.33071 0
M  V30 4882 O 484.979 -5.7001 0.210975 0
M  V30 4883 O 483.913 -5.6225 2.14845 0
M  V30 4884 H 487.739 -2.32088 1.9588 0
M  V30 4885 H 485.324 -1.09823 1.01289 0
M  V30 4886 H 487.206 -4.19695 0.37873 0
M  V30 4887 H 485.881 -3.22178 -0.313511 0
M  V30 4888 H 484.788 -3.15961 2.00298 0
M  V30 4889 H 486.121 -4.16758 2.61865 0
M  V30 4890 N 487.773 -1.03688 -1.18687 0
M  V30 4891 C 489.021 -0.736572 -1.88199 0
M  V30 4892 C 489.342 0.737665 -1.80509 0
M  V30 4893 O 488.612 1.53204 -1.22088 0
M  V30 4894 H 487.192 -0.269466 -0.696704 0
M  V30 4895 H 489.854 -1.31282 -1.44052 0
M  V30 4896 H 488.95 -1.03802 -2.94332 0
M  V30 4897 N 489.251 1.34841 -0.815825 0
M  V30 4898 C 490.667 1.51543 -0.500697 0
M  V30 4899 C 490.867 1.76261 0.976444 0
M  V30 4900 O 489.923 1.8094 1.76117 0
M  V30 4901 C 491.236 2.68487 -1.35407 0
M  V30 4902 C 492.784 2.82368 -1.35046 0
M  V30 4903 C 493.259 4.02347 -2.18816 0
M  V30 4904 N 494.75 4.09542 -2.16402 0
M  V30 4905 C 495.485 5.01517 -2.77971 0
M  V30 4906 N 494.981 5.98763 -3.48503 0
M  V30 4907 N 496.774 4.94334 -2.67563 0
M  V30 4908 H 488.925 1.17055 -1.77234 0
M  V30 4909 H 491.188 0.573481 -0.754866 0
M  V30 4910 H 490.894 2.56829 -2.40274 0
M  V30 4911 H 490.768 3.63321 -1.01377 0
M  V30 4912 H 493.155 2.93471 -0.309604 0
M  V30 4913 H 493.236 1.88363 -1.73069 0
M  V30 4914 H 492.88 3.92004 -3.22948 0
M  V30 4915 H 492.81 4.95551 -1.78148 0
M  V30 4916 H 495.301 3.39932 -1.65091 0
M  V30 4917 H 495.614 6.6556 -3.92747 0
M  V30 4918 H 493.959 5.98909 -3.52609 0
M  V30 4919 H 497.15 4.1732 -2.12041 0
M  V30 4920 H 497.323 5.6582 -3.15834 0
M  V30 4921 N 490.729 0.570148 1.46925 0
M  V30 4922 C 492.14 0.1402 1.86173 0
M  V30 4923 C 492.491 -1.29347 1.47526 0
M  V30 4924 O 491.616 -1.97508 0.884292 0
M  V30 4925 C 492.211 0.247661 3.37894 0
M  V30 4926 C 490.77 -0.127332 3.76185 0
M  V30 4927 C 489.917 0.589349 2.70965 0
M  V30 4928 H 492.868 0.779117 1.38259 0
M  V30 4929 H 492.889 -0.530341 3.76786 0
M  V30 4930 H 492.401 1.29121 3.65991 0
M  V30 4931 H 490.502 -1.17149 3.53704 0
M  V30 4932 H 490.615 0.240238 4.78497 0
M  V30 4933 H 488.979 0.0309824 2.54681 0
M  V30 4934 H 489.762 1.6343 3.01903 0
M  V30 4935 N 492.207 -1.54576 0.307264 0
M  V30 4936 C 493.453 -2.0056 -0.300612 0
M  V30 4937 C 493.786 -1.1953 -1.53057 0
M  V30 4938 O 493.061 -0.27337 -1.92569 0
M  V30 4939 C 493.344 -3.54167 -0.650987 0
M  V30 4940 C 493.197 -4.45933 0.588539 0
M  V30 4941 C 494.516 -4.14645 -1.47506 0
M  V30 4942 H 491.635 -0.729075 -0.107788 0
M  V30 4943 H 494.277 -1.85286 0.420606 0
M  V30 4944 H 492.427 -3.67313 -1.26544 0
M  V30 4945 H 494.099 -4.44683 1.22697 0
M  V30 4946 H 492.342 -4.16274 1.22058 0
M  V30 4947 H 493.013 -5.51189 0.299153 0
M  V30 4948 H 495.489 -4.04973 -0.955821 0
M  V30 4949 H 494.365 -5.22269 -1.68899 0
M  V30 4950 H 494.626 -3.66921 -2.4662 0
M  V30 4951 N 493.685 -0.035106 -1.57561 0
M  V30 4952 C 494.933 0.64096 -1.91667 0
M  V30 4953 C 495.254 1.72323 -0.912681 0
M  V30 4954 O 494.524 1.95849 0.0449089 0
M  V30 4955 H 493.104 0.239743 -0.707483 0
M  V30 4956 H 495.766 -0.084321 -1.94718 0
M  V30 4957 H 494.862 1.08987 -2.92452 0
M  V30 4958 N 495.163 1.55791 0.238111 0
M  V30 4959 C 496.412 1.77234 0.962868 0
M  V30 4960 C 496.725 0.600661 1.86149 0
M  V30 4961 O 497.931 0.698315 2.62366 0
M  V30 4962 C 496.387 3.13808 1.76218 0
M  V30 4963 C 495.995 4.3865 0.910518 0
M  V30 4964 C 497.739 3.44585 2.47914 0
M  V30 4965 C 495.646 5.66252 1.70623 0
M  V30 4966 H 494.576 0.660731 0.36325 0
M  V30 4967 H 497.227 1.8221 0.217242 0
M  V30 4968 H 495.609 3.02963 2.55009 0
M  V30 4969 H 496.783 4.60507 0.164316 0
M  V30 4970 H 495.098 4.15271 0.30647 0
M  V30 4971 H 497.695 4.3714 3.07917 0
M  V30 4972 H 498.038 2.66314 3.19973 0
M  V30 4973 H 498.571 3.56685 1.76127 0
M  V30 4974 H 495.31 6.47369 1.02923 0
M  V30 4975 H 494.83 5.48483 2.42748 0
M  V30 4976 H 496.509 6.05829 2.27114 0
M  V30 4977 N 496.642 -0.504142 1.49319 0
M  V30 4978 C 497.888 -1.26033 1.58882 0
M  V30 4979 C 498.221 -1.92268 0.273274 0
M  V30 4980 O 497.496 -1.80567 -0.72291 0
M  V30 4981 C 497.779 -2.32976 2.7458 0
M  V30 4982 C 497.632 -1.71263 4.1592 0
M  V30 4983 C 498.951 -3.34561 2.85932 0
M  V30 4984 H 496.07 -0.456863 0.578312 0
M  V30 4985 H 498.712 -0.558965 1.81592 0
M  V30 4986 H 496.862 -2.92796 2.55348 0
M  V30 4987 H 498.534 -1.15294 4.4666 0
M  V30 4988 H 496.777 -1.01686 4.21714 0
M  V30 4989 H 497.448 -2.48816 4.92742 0
M  V30 4990 H 499.924 -2.84727 3.0343 0
M  V30 4991 H 498.8 -4.06754 3.68568 0
M  V30 4992 H 499.061 -3.96695 1.95154 0
M  V30 4993 N 498.12 -1.38341 -0.754957 0
M  V30 4994 C 499.083 -1.35262 -1.85032 0
M  V30 4995 C 500.083 -0.253393 -1.58791 0
M  V30 4996 O 501.273 -0.510205 -1.66561 0
M  V30 4997 C 498.405 -1.10544 -3.22479 0
M  V30 4998 H 499.598 -2.32712 -1.8917 0
M  V30 4999 H 497.151 -1.23614 -0.956515 0
M  V30 5000 H 497.886 -0.136952 -3.24011 0
M  V30 5001 H 497.671 -1.90127 -3.4292 0
M  V30 5002 H 499.161 -1.11082 -4.02555 0
M  V30 5003 N 499.598 0.982988 -1.23187 0
M  V30 5004 C 500.546 2.09616 -1.00817 0
M  V30 5005 C 501.54 1.6932 0.0519995 0
M  V30 5006 O 502.746 1.79715 -0.101284 0
M  V30 5007 H 499.121 0.685628 -0.308899 0
M  V30 5008 H 501.092 2.25652 -1.95253 0
M  V30 5009 C 499.841 3.42249 -0.613243 0
M  V30 5010 H 499.164 3.73705 -1.42073 0
M  V30 5011 H 500.604 4.21086 -0.496208 0
M  V30 5012 C 499.063 3.30002 0.678233 0
M  V30 5013 O 499.593 3.6263 1.72807 0
M  V30 5014 N 497.799 2.83164 0.653165 0
M  V30 5015 H 497.346 2.56811 -0.201492 0
M  V30 5016 H 497.304 2.75352 1.51752 0
M  V30 5017 N 501.076 1.04316 1.18135 0
M  V30 5018 C 502.008 0.594444 2.21357 0
M  V30 5019 C 503.021 -0.337215 1.59269 0
M  V30 5020 O 504.21 -0.131337 1.78016 0
M  V30 5021 C 501.31 -0.151251 3.38562 0
M  V30 5022 C 500.483 0.788907 4.30227 0
M  V30 5023 C 499.542 0.0860572 5.2613 0
M  V30 5024 O 498.568 0.717302 5.64662 0
M  V30 5025 N 499.77 -1.17969 5.68387 0
M  V30 5026 H 502.535 1.48227 2.60478 0
M  V30 5027 H 500.096 0.92396 1.32946 0
M  V30 5028 H 502.088 -0.631352 3.99745 0
M  V30 5029 H 500.658 -0.940639 2.98112 0
M  V30 5030 H 499.878 1.44882 3.6661 0
M  V30 5031 H 501.166 1.42738 4.88368 0
M  V30 5032 H 500.564 -1.71302 5.3914 0
M  V30 5033 H 499.121 -1.60402 6.31755 0
M  V30 5034 N 502.554 -1.34406 0.822964 0
M  V30 5035 C 503.965 -1.8069 0.469879 0
M  V30 5036 C 504.316 -1.68223 -1.00972 0
M  V30 5037 O 503.441 -1.22226 -1.78577 0
M  V30 5038 C 504.036 -3.28064 0.846118 0
M  V30 5039 C 502.595 -3.72428 0.545402 0
M  V30 5040 C 501.742 -2.56116 1.06301 0
M  V30 5041 H 504.693 -1.22153 1.01313 0
M  V30 5042 H 504.714 -3.80205 0.149922 0
M  V30 5043 H 504.226 -3.37107 1.92304 0
M  V30 5044 H 502.327 -3.68924 -0.522109 0
M  V30 5045 H 502.44 -4.66548 1.0895 0
M  V30 5046 H 500.804 -2.50048 0.484554 0
M  V30 5047 H 501.587 -2.67928 2.14638 0
M  V30 5048 N 504.032 -0.577932 -1.46621 0
M  V30 5049 C 504.965 0.206312 -2.27265 0
M  V30 5050 C 505.943 0.901306 -1.35334 0
M  V30 5051 O 507.127 0.916151 -1.64739 0
M  V30 5052 C 504.254 1.29563 -3.1294 0
M  V30 5053 C 503.3 0.706981 -4.206 0
M  V30 5054 S 504.133 -0.462459 -5.33499 0
M  V30 5055 C 505.289 0.628171 -6.2274 0
M  V30 5056 H 505.522 -0.477961 -2.93433 0
M  V30 5057 H 503.055 -0.364715 -1.50031 0
M  V30 5058 H 505.013 1.91935 -3.62865 0
M  V30 5059 H 503.674 1.95183 -2.46095 0
M  V30 5060 H 502.867 1.52565 -4.80354 0
M  V30 5061 H 502.469 0.159022 -3.73662 0
M  V30 5062 H 504.761 1.51506 -6.60342 0
M  V30 5063 H 505.704 0.0674961 -7.08068 0
M  V30 5064 H 506.112 0.930167 -5.56784 0
M  V30 5065 N 505.51 1.54411 -0.315457 0
M  V30 5066 C 506.442 2.21527 0.588067 0
M  V30 5067 C 507.455 1.21263 1.08624 0
M  V30 5068 O 508.644 1.47777 1.00121 0
M  V30 5069 C 505.744 2.85963 1.81875 0
M  V30 5070 C 504.917 4.12291 1.46063 0
M  V30 5071 C 503.976 4.60396 2.54799 0
M  V30 5072 O 503.002 5.25265 2.19283 0
M  V30 5073 N 504.204 4.33935 3.85591 0
M  V30 5074 H 506.969 2.99697 0.013414 0
M  V30 5075 H 504.53 1.61308 -0.138295 0
M  V30 5076 H 506.522 3.15071 2.53993 0
M  V30 5077 H 505.092 2.11548 2.30144 0
M  V30 5078 H 504.312 3.90036 0.571445 0
M  V30 5079 H 505.6 4.9452 1.19695 0
M  V30 5080 H 504.998 3.81996 4.17248 0
M  V30 5081 H 503.555 4.67718 4.53964 0
M  V30 5082 N 506.988 0.0434614 1.5754 0
M  V30 5083 C 508.235 -0.632035 1.92384 0
M  V30 5084 C 508.563 -1.71304 0.921157 0
M  V30 5085 O 507.818 -1.95583 -0.067744 0
M  V30 5086 C 508.117 -1.2738 3.3393 0
M  V30 5087 C 507.783 -0.321757 4.49751 0
M  V30 5088 C 506.445 -0.0597611 4.81163 0
M  V30 5089 C 508.797 0.331158 5.20147 0
M  V30 5090 C 506.125 0.862715 5.80322 0
M  V30 5091 C 508.477 1.24178 6.20292 0
M  V30 5092 C 507.141 1.51252 6.50138 0
M  V30 5093 H 506.411 -0.231278 0.703983 0
M  V30 5094 H 509.058 0.108294 1.91194 0
M  V30 5095 H 507.363 -2.08921 3.3145 0
M  V30 5096 H 509.06 -1.80326 3.58167 0
M  V30 5097 H 505.65 -0.53614 4.25233 0
M  V30 5098 H 509.834 0.141826 4.96097 0
M  V30 5099 H 505.09 1.08003 6.01785 0
M  V30 5100 H 509.264 1.75381 6.73954 0
M  V30 5101 H 506.891 2.22897 7.26788 0
M  V30 5102 N 508.466 -1.55915 -0.229846 0
M  V30 5103 C 509.429 -1.90914 -1.26824 0
M  V30 5104 C 510.429 -0.786999 -1.40225 0
M  V30 5105 O 511.619 -1.05484 -1.38632 0
M  V30 5106 C 508.751 -2.15264 -2.64337 0
M  V30 5107 H 509.944 -2.8378 -0.969998 0
M  V30 5108 H 507.497 -1.49069 -0.4699 0
M  V30 5109 H 508.232 -1.24923 -2.99274 0
M  V30 5110 H 508.017 -2.97005 -2.55989 0
M  V30 5111 H 509.507 -2.43467 -3.39284 0
M  V30 5112 N 509.944 0.496216 -1.49584 0
M  V30 5113 C 511.192 1.24756 -1.58998 0
M  V30 5114 C 511.513 1.92968 -0.280775 0
M  V30 5115 O 510.783 1.82959 0.700198 0
M  V30 5116 H 509.363 0.463471 -0.585836 0
M  V30 5117 H 512.025 0.574678 -1.86235 0
M  V30 5118 H 511.121 2.00895 -2.38847 0
M  V30 5119 N 511.423 1.38739 0.74761 0
M  V30 5120 C 512.663 1.36695 1.51966 0
M  V30 5121 C 513.027 -0.0411889 1.91956 0
M  V30 5122 O 514.228 -0.186543 2.68152 0
M  V30 5123 C 512.499 2.30119 2.73459 0
M  V30 5124 S 514.058 2.4615 3.63257 0
M  V30 5125 H 510.876 0.484929 0.519966 0
M  V30 5126 H 513.478 1.7472 0.877104 0
M  V30 5127 H 512.182 3.31312 2.422 0
M  V30 5128 H 511.713 1.93265 3.42655 0
M  V30 5129 H 513.728 1.69001 4.66533 0
M  V30 5130 N 512.901 -0.976442 1.23707 0
M  V30 5131 C 513.831 -2.08749 1.04624 0
M  V30 5132 C 514.812 -1.70057 -0.0380956 0
M  V30 5133 O 515.997 -1.93782 0.127308 0
M  V30 5134 C 513.127 -3.41335 0.640902 0
M  V30 5135 C 512.081 -3.93947 1.67302 0
M  V30 5136 C 511.407 -5.22774 1.12301 0
M  V30 5137 C 512.707 -4.22769 3.06697 0
M  V30 5138 H 514.401 -2.24972 1.97555 0
M  V30 5139 H 511.947 -1.08108 0.951247 0
M  V30 5140 H 513.9 -4.18489 0.494434 0
M  V30 5141 H 512.624 -3.24988 -0.324099 0
M  V30 5142 H 511.283 -3.18941 1.80755 0
M  V30 5143 H 510.931 -5.0278 0.148877 0
M  V30 5144 H 510.631 -5.58942 1.81267 0
M  V30 5145 H 512.155 -6.02546 0.988479 0
M  V30 5146 H 513.569 -4.90659 2.96524 0
M  V30 5147 H 511.966 -4.70147 3.72937 0
M  V30 5148 H 513.036 -3.29885 3.55392 0
M  V30 5149 N 514.379 -1.04941 -1.1758 0
M  V30 5150 C 515.656 -0.671918 -1.83697 0
M  V30 5151 C 516.036 0.847929 -1.93322 0
M  V30 5152 O 515.384 1.75287 -1.46583 0
M  V30 5153 C 515.594 -1.35797 -3.21497 0
M  V30 5154 C 516.942 -1.4944 -3.97433 0
M  V30 5155 O 517.966 -1.31678 -3.30967 0
M  V30 5156 O 516.825 -1.78463 -5.1654 0
M  V30 5157 H 513.919 -0.236212 -0.792548 0
M  V30 5158 H 516.465 -1.14884 -1.24899 0
M  V30 5159 H 515.237 -2.39498 -3.09446 0
M  V30 5160 H 514.86 -0.870236 -3.8796 0
M  V30 5161 N 515.857 1.33968 -0.830081 0
M  V30 5162 C 517.106 1.97323 -0.417928 0
M  V30 5163 C 517.419 1.6652 1.02618 0
M  V30 5164 O 518.625 2.2342 1.54259 0
M  V30 5165 C 517.081 3.53099 -0.696359 0
M  V30 5166 C 516.689 3.92788 -2.15457 0
M  V30 5167 C 518.433 4.23049 -0.350724 0
M  V30 5168 C 516.34 5.41506 -2.37751 0
M  V30 5169 H 515.27 0.738409 -0.152541 0
M  V30 5170 H 517.921 1.52711 -1.01744 0
M  V30 5171 H 516.303 3.95991 -0.0265904 0
M  V30 5172 H 517.477 3.6098 -2.86408 0
M  V30 5173 H 515.792 3.35795 -2.46232 0
M  V30 5174 H 518.389 5.32403 -0.495036 0
M  V30 5175 H 518.732 4.10279 0.705476 0
M  V30 5176 H 519.265 3.85657 -0.975362 0
M  V30 5177 H 516.004 5.5927 -3.41903 0
M  V30 5178 H 515.524 5.74804 -1.7135 0
M  V30 5179 H 517.203 6.0828 -2.20465 0
M  V30 5180 N 517.335 0.585699 1.46312 0
M  V30 5181 C 518.563 0.0781299 2.06752 0
M  V30 5182 C 518.978 -1.22812 1.43396 0
M  V30 5183 O 518.335 -1.74318 0.540314 0
M  V30 5184 C 518.386 -0.0911927 3.61385 0
M  V30 5185 O 518.107 1.16336 4.22371 0
M  V30 5186 C 519.608 -0.632765 4.38761 0
M  V30 5187 H 516.828 0.0588188 0.668417 0
M  V30 5188 H 519.372 0.807218 1.87894 0
M  V30 5189 H 517.527 -0.770514 3.7966 0
M  V30 5190 H 517.941 0.979082 5.15281 0
M  V30 5191 H 519.415 -0.70041 5.47538 0
M  V30 5192 H 519.892 -1.65039 4.07012 0
M  V30 5193 H 520.498 0.0117856 4.25298 0
M  V30 5194 N 518.813 -1.54241 0.323641 0
M  V30 5195 C 519.776 -2.22997 -0.529602 0
M  V30 5196 C 520.776 -1.22345 -1.04347 0
M  V30 5197 O 521.966 -1.46924 -0.935889 0
M  V30 5198 C 519.098 -2.93409 -1.73562 0
M  V30 5199 H 520.291 -2.99815 0.0714518 0
M  V30 5200 H 517.844 -1.56121 0.0747258 0
M  V30 5201 H 518.579 -2.20729 -2.37591 0
M  V30 5202 H 518.364 -3.67217 -1.37456 0
M  V30 5203 H 519.854 -3.45794 -2.34128 0
M  V30 5204 N 520.291 -0.0518155 -1.57515 0
M  V30 5205 C 521.516 0.634896 -1.97443 0
M  V30 5206 C 521.941 1.63546 -0.929207 0
M  V30 5207 O 521.299 1.80981 0.107484 0
M  V30 5208 C 521.347 1.29765 -3.36442 0
M  V30 5209 O 520.451 2.41333 -3.34413 0
M  V30 5210 H 519.792 0.164994 -0.643174 0
M  V30 5211 H 522.322 -0.120407 -2.04245 0
M  V30 5212 H 522.332 1.64918 -3.73184 0
M  V30 5213 H 521.007 0.564361 -4.12053 0
M  V30 5214 H 519.584 2.08122 -3.09418 0
M  V30 5215 N 521.769 1.56035 0.221574 0
M  V30 5216 C 522.679 1.95581 1.29558 0
M  V30 5217 C 523.695 0.859639 1.51282 0
M  V30 5218 O 524.871 1.16321 1.64413 0
M  V30 5219 C 521.936 2.26447 2.62531 0
M  V30 5220 C 520.997 3.49632 2.4911 0
M  V30 5221 C 520.23 3.79017 3.75742 0
M  V30 5222 O 520.453 3.10077 4.78757 0
M  V30 5223 O 519.387 4.72507 3.72855 0
M  V30 5224 H 523.213 2.8711 0.990035 0
M  V30 5225 H 520.798 1.43244 0.424434 0
M  V30 5226 H 522.68 2.47494 3.41064 0
M  V30 5227 H 521.355 1.38092 2.92766 0
M  V30 5228 H 520.262 3.33864 1.68777 0
M  V30 5229 H 521.595 4.3837 2.23814 0
M  V30 5230 N 523.247 -0.488276 1.49845 0
M  V30 5231 C 524.194 -1.58836 1.67451 0
M  V30 5232 C 525.164 -1.57886 0.515857 0
M  V30 5233 O 526.349 -1.75679 0.744403 0
M  V30 5234 C 523.489 -2.96915 1.75885 0
M  V30 5235 C 522.602 -3.07784 3.03138 0
M  V30 5236 C 521.737 -4.36673 3.02473 0
M  V30 5237 C 520.776 -4.41222 4.24252 0
M  V30 5238 N 519.913 -5.61557 4.21424 0
M  V30 5239 H 524.753 -1.43131 2.61376 0
M  V30 5240 H 522.29 -0.696186 1.29583 0
M  V30 5241 H 524.248 -3.76965 1.78755 0
M  V30 5242 H 522.878 -3.11295 0.85414 0
M  V30 5243 H 521.93 -2.20717 3.09819 0
M  V30 5244 H 523.242 -3.07005 3.93128 0
M  V30 5245 H 522.396 -5.25055 3.03977 0
M  V30 5246 H 521.135 -4.40037 2.10283 0
M  V30 5247 H 520.14 -3.5124 4.22978 0
M  V30 5248 H 521.365 -4.39564 5.17649 0
M  V30 5249 H 519.311 -5.65738 3.32078 0
M  V30 5250 H 519.228 -5.62447 5.05163 0
M  V30 5251 H 520.496 -6.52111 4.2705 0
M  V30 5252 N 524.725 -1.39134 -0.740242 0
M  V30 5253 C 525.688 -1.37217 -1.83587 0
M  V30 5254 C 526.688 -0.270221 -1.58513 0
M  V30 5255 O 527.878 -0.527843 -1.6601 0
M  V30 5256 C 525.01 -1.13959 -3.21288 0
M  V30 5257 H 526.203 -2.34705 -1.86691 0
M  V30 5258 H 523.756 -1.24622 -0.94335 0
M  V30 5259 H 524.491 -0.17131 -3.23847 0
M  V30 5260 H 524.276 -1.93754 -3.40884 0
M  V30 5261 H 525.766 -1.15346 -4.01354 0
M  V30 5262 N 526.204 0.969867 -1.24223 0
M  V30 5263 C 527.167 2.04564 -1.03373 0
M  V30 5264 C 528.167 1.60798 0.00819206 0
M  V30 5265 O 529.357 1.72641 -0.232567 0
M  V30 5266 C 526.489 3.36163 -0.566343 0
M  V30 5267 H 527.682 2.24494 -1.98853 0
M  V30 5268 H 525.235 1.1448 -1.06415 0
M  V30 5269 H 525.97 3.21925 0.391751 0
M  V30 5270 H 525.755 3.69273 -1.31834 0
M  V30 5271 H 527.245 4.1526 -0.441435 0
M  V30 5272 N 527.682 1.05563 1.17022 0
M  V30 5273 C 529.098 0.777684 1.39371 0
M  V30 5274 C 529.298 -0.626269 1.91521 0
M  V30 5275 O 528.354 -1.38806 2.10924 0
M  V30 5276 C 529.667 1.83642 2.3811 0
M  V30 5277 C 531.215 1.85907 2.51809 0
M  V30 5278 C 531.69 2.90813 3.53824 0
M  V30 5279 N 533.181 2.898 3.61345 0
M  V30 5280 C 533.916 3.6762 4.40049 0
M  V30 5281 N 533.412 4.55237 5.22237 0
M  V30 5282 N 535.205 3.56044 4.34959 0
M  V30 5283 H 527.356 1.9614 0.815047 0
M  V30 5284 H 529.619 0.849527 0.420722 0
M  V30 5285 H 529.325 2.84425 2.06871 0
M  V30 5286 H 529.199 1.6812 3.37662 0
M  V30 5287 H 531.586 0.857865 2.82356 0
M  V30 5288 H 531.667 2.05506 1.52318 0
M  V30 5289 H 531.311 3.91122 3.24015 0
M  V30 5290 H 531.241 2.68465 4.53028 0
M  V30 5291 H 533.732 2.26274 3.02669 0
M  V30 5292 H 534.045 5.11291 5.79484 0
M  V30 5293 H 532.39 4.59296 5.21605 0
M  V30 5294 H 535.581 2.86986 3.69806 0
M  V30 5295 H 535.754 4.16938 4.96051 0
M  V30 5296 N 529.16 -1.33526 0.837174 0
M  V30 5297 C 530.407 -1.97837 0.432064 0
M  V30 5298 C 530.735 -1.66324 -1.00829 0
M  V30 5299 O 529.99 -0.93448 -1.71948 0
M  V30 5300 C 530.289 -3.52367 0.597675 0
M  V30 5301 C 529.955 -4.03826 2.00587 0
M  V30 5302 C 528.617 -4.1759 2.39106 0
M  V30 5303 C 530.969 -4.31333 2.92576 0
M  V30 5304 C 528.297 -4.56195 3.68921 0
M  V30 5305 C 530.649 -4.7139 4.2187 0
M  V30 5306 C 529.313 -4.8336 4.60347 0
M  V30 5307 H 528.583 -0.723937 0.158104 0
M  V30 5308 H 531.23 -1.5923 1.06387 0
M  V30 5309 H 529.535 -3.91624 -0.117452 0
M  V30 5310 H 531.232 -4.00126 0.26454 0
M  V30 5311 H 527.822 -3.93586 1.69671 0
M  V30 5312 H 532.006 -4.20224 2.64056 0
M  V30 5313 H 527.262 -4.63655 3.9854 0
M  V30 5314 H 531.436 -4.91631 4.93226 0
M  V30 5315 H 529.063 -5.1303 5.60985 0
M  V30 5316 N 530.638 -0.59345 -1.46 0
M  V30 5317 C 531.884 -0.0832754 -2.02629 0
M  V30 5318 C 532.217 1.27749 -1.46266 0
M  V30 5319 O 531.492 1.8395 -0.631866 0
M  V30 5320 C 531.775 -0.0290756 -3.60088 0
M  V30 5321 C 531.628 -1.41951 -4.26814 0
M  V30 5322 C 532.947 0.666055 -4.35031 0
M  V30 5323 H 530.066 -0.031736 -0.736316 0
M  V30 5324 H 532.708 -0.762711 -1.74019 0
M  V30 5325 H 530.858 0.549532 -3.84594 0
M  V30 5326 H 532.53 -2.04411 -4.13538 0
M  V30 5327 H 530.773 -1.98422 -3.8576 0
M  V30 5328 H 531.444 -1.33395 -5.3564 0
M  V30 5329 H 533.92 0.174401 -4.15734 0
M  V30 5330 H 532.796 0.673041 -5.44758 0
M  V30 5331 H 533.057 1.72946 -4.06869 0
M  V30 5332 N 532.116 1.54067 -0.331816 0
M  V30 5333 C 533.532 1.59587 0.0205388 0
M  V30 5334 C 533.732 1.34813 1.49759 0
M  V30 5335 O 532.788 1.13661 2.25471 0
M  V30 5336 C 534.101 2.97959 -0.405103 0
M  V30 5337 C 535.649 3.10964 -0.356454 0
M  V30 5338 C 536.124 4.51694 -0.757384 0
M  V30 5339 N 537.615 4.57709 -0.71111 0
M  V30 5340 C 538.35 5.64729 -0.993427 0
M  V30 5341 N 537.846 6.79652 -1.3433 0
M  V30 5342 N 539.639 5.54546 -0.918442 0
M  V30 5343 H 531.79 1.68426 -1.29407 0
M  V30 5344 H 534.053 0.78819 -0.526745 0
M  V30 5345 H 533.759 3.21115 -1.43451 0
M  V30 5346 H 533.633 3.76524 0.225692 0
M  V30 5347 H 536.02 2.87538 0.663763 0
M  V30 5348 H 536.101 2.34484 -1.02229 0
M  V30 5349 H 535.745 4.75853 -1.77555 0
M  V30 5350 H 535.675 5.26555 -0.0691444 0
M  V30 5351 H 538.166 3.75176 -0.452883 0
M  V30 5352 H 538.479 7.57221 -1.54388 0
M  V30 5353 H 536.824 6.81128 -1.38164 0
M  V30 5354 H 540.015 4.63641 -0.644536 0
M  V30 5355 H 540.188 6.37861 -1.14181 0
M  V30 5356 N 533.594 0.0601682 1.57485 0
M  V30 5357 C 534.822 -0.620937 1.97363 0
M  V30 5358 C 535.237 -1.63846 0.938082 0
M  V30 5359 O 534.594 -1.82339 -0.0766578 0
M  V30 5360 C 534.645 -1.29987 3.37321 0
M  V30 5361 O 534.366 -0.323081 4.36907 0
M  V30 5362 C 535.867 -2.06989 3.92008 0
M  V30 5363 H 533.087 -0.169135 0.649334 0
M  V30 5364 H 535.631 0.129132 2.04092 0
M  V30 5365 H 533.786 -2.0011 3.31715 0
M  V30 5366 H 534.2 -0.808754 5.18227 0
M  V30 5367 H 535.674 -2.49901 4.92192 0
M  V30 5368 H 536.151 -2.92173 3.2792 0
M  V30 5369 H 536.757 -1.41757 4.0098 0
M  V30 5370 N 535.072 -1.5615 -0.213296 0
M  V30 5371 C 536.312 -1.81325 -0.943435 0
M  V30 5372 C 536.676 -0.634934 -1.81198 0
M  V30 5373 O 537.877 -0.766166 -2.5765 0
M  V30 5374 C 536.148 -3.11437 -1.75334 0
M  V30 5375 S 537.707 -3.57955 -2.53799 0
M  V30 5376 H 534.525 -0.636538 -0.316766 0
M  V30 5377 H 537.127 -1.94387 -0.208313 0
M  V30 5378 H 535.831 -3.95228 -1.10556 0
M  V30 5379 H 535.362 -3.01204 -2.53061 0
M  V30 5380 H 537.377 -3.21947 -3.77577 0
M  V30 5381 N 536.55 0.480323 -1.50102 0
M  V30 5382 C 537.827 1.24159 -1.51142 0
M  V30 5383 C 538.207 2.09605 -0.250818 0
M  V30 5384 O 537.555 2.15274 0.766118 0
M  V30 5385 C 537.765 2.08057 -2.80202 0
M  V30 5386 C 539.113 2.66556 -3.30504 0
M  V30 5387 O 540.137 2.18308 -2.81461 0
M  V30 5388 O 538.996 3.54442 -4.15973 0
M  V30 5389 H 536.09 0.562928 -0.605839 0
M  V30 5390 H 538.636 0.492899 -1.62384 0
M  V30 5391 H 537.408 1.45032 -3.6343 0
M  V30 5392 H 537.031 2.90079 -2.71919 0
M  V30 5393 N 538.028 1.39524 0.732853 0
M  V30 5394 C 538.991 1.38189 1.82857 0
M  V30 5395 C 539.991 0.278624 1.58368 0
M  V30 5396 O 541.181 0.536639 1.65728 0
M  V30 5397 C 538.313 1.15661 3.2068 0
M  V30 5398 H 539.506 2.35692 1.85444 0
M  V30 5399 H 537.059 1.2512 0.936728 0
M  V30 5400 H 537.794 0.188482 3.23752 0
M  V30 5401 H 537.579 1.95559 3.39852 0
M  V30 5402 H 539.069 1.17472 4.00737 0
M  V30 5403 N 539.506 -0.963266 1.24736 0
M  V30 5404 C 540.753 -1.7068 1.0897 0
M  V30 5405 C 541.081 -1.90934 -0.370751 0
M  V30 5406 O 540.336 -1.47155 -1.29011 0
M  V30 5407 C 540.635 -3.09944 1.7796 0
M  V30 5408 C 540.301 -3.09518 3.27887 0
M  V30 5409 C 538.963 -3.09109 3.68789 0
M  V30 5410 C 541.315 -3.03509 4.23712 0
M  V30 5411 C 538.643 -3.00429 5.03944 0
M  V30 5412 C 540.995 -2.96371 5.5888 0
M  V30 5413 C 539.659 -2.94293 5.99123 0
M  V30 5414 H 538.929 -0.624564 0.398749 0
M  V30 5415 H 541.576 -1.12603 1.54896 0
M  V30 5416 H 539.881 -3.71513 1.2444 0
M  V30 5417 H 541.578 -3.66278 1.63222 0
M  V30 5418 H 538.168 -3.10603 2.95337 0
M  V30 5419 H 542.352 -3.0295 3.93109 0
M  V30 5420 H 537.608 -2.97183 5.34314 0
M  V30 5421 H 541.782 -2.90681 6.32833 0
M  V30 5422 H 539.409 -2.87322 7.03811 0
M  V30 5423 N 540.985 -1.06182 -1.16461 0
M  V30 5424 C 541.933 -0.665716 -2.2287 0
M  V30 5425 C 542.927 0.317822 -1.66392 0
M  V30 5426 O 544.133 0.182807 -1.79069 0
M  V30 5427 H 540.508 -0.197148 -0.725697 0
M  V30 5428 H 542.479 -1.57307 -2.53569 0
M  V30 5429 C 541.228 -0.0669803 -3.47635 0
M  V30 5430 H 540.551 -0.814899 -3.91407 0
M  V30 5431 H 541.991 0.172669 -4.23648 0
M  V30 5432 C 540.45 1.18913 -3.15216 0
M  V30 5433 O 540.98 2.27723 -3.30916 0
M  V30 5434 N 539.186 1.09066 -2.69357 0
M  V30 5435 H 538.733 0.20518 -2.56782 0
M  V30 5436 H 538.691 1.93195 -2.48039 0
M  V30 5437 N 542.463 1.3308 -0.844243 0
M  V30 5438 C 543.709 1.97898 -0.443206 0
M  V30 5439 C 544.042 1.66699 0.99625 0
M  V30 5440 O 543.317 0.949704 1.69738 0
M  V30 5441 C 543.6 3.53801 -0.670606 0
M  V30 5442 C 543.453 3.94667 -2.15772 0
M  V30 5443 C 544.772 4.39936 -0.120226 0
M  V30 5444 H 541.891 0.718861 -0.162504 0
M  V30 5445 H 544.533 1.57633 -1.06075 0
M  V30 5446 H 542.683 3.88229 -0.14496 0
M  V30 5447 H 544.355 3.70469 -2.74865 0
M  V30 5448 H 542.598 3.44203 -2.6402 0
M  V30 5449 H 543.269 5.03275 -2.26757 0
M  V30 5450 H 545.745 4.12183 -0.5696 0
M  V30 5451 H 544.621 5.4803 -0.308984 0
M  V30 5452 H 544.882 4.31184 0.976347 0
M  V30 5453 N 543.941 0.601185 1.45683 0
M  V30 5454 C 545.352 0.179659 1.85834 0
M  V30 5455 C 545.703 -1.26189 1.50236 0
M  V30 5456 O 544.828 -1.95587 0.925987 0
M  V30 5457 C 545.423 0.319277 3.37292 0
M  V30 5458 C 543.982 -0.0475092 3.7637 0
M  V30 5459 C 543.129 0.646692 2.69654 0
M  V30 5460 H 546.08 0.808268 1.36575 0
M  V30 5461 H 546.101 -0.4503 3.77826 0
M  V30 5462 H 545.613 1.36855 3.6317 0
M  V30 5463 H 543.714 -1.0962 3.5611 0
M  V30 5464 H 543.827 0.34168 4.7788 0
M  V30 5465 H 542.191 0.0849971 2.54558 0
M  V30 5466 H 542.974 1.69797 2.98369 0
M  V30 5467 N 545.419 -1.53889 0.339982 0
M  V30 5468 C 546.665 -2.01152 -0.258003 0
M  V30 5469 C 546.998 -1.22749 -1.50487 0
M  V30 5470 O 546.273 -0.314156 -1.91946 0
M  V30 5471 C 546.556 -3.55468 -0.575717 0
M  V30 5472 C 546.409 -4.44584 0.682996 0
M  V30 5473 C 547.728 -4.1768 -1.38677 0
M  V30 5474 H 544.847 -0.731198 -0.0922992 0
M  V30 5475 H 547.489 -1.84352 0.459814 0
M  V30 5476 H 545.639 -3.69914 -1.18725 0
M  V30 5477 H 547.311 -4.41981 1.32102 0
M  V30 5478 H 545.554 -4.13592 1.3086 0
M  V30 5479 H 546.225 -5.5043 0.416001 0
M  V30 5480 H 548.701 -4.0691 -0.869705 0
M  V30 5481 H 547.577 -5.25734 -1.57783 0
M  V30 5482 H 547.838 -3.72069 -2.38782 0
M  V30 5483 N 546.897 -0.0685191 -1.57451 0
M  V30 5484 C 547.827 0.89747 -2.15564 0
M  V30 5485 C 548.808 1.31266 -1.08181 0
M  V30 5486 O 549.993 1.38429 -1.36202 0
M  V30 5487 C 547.123 2.16623 -2.71463 0
M  V30 5488 C 546.077 1.89054 -3.83982 0
M  V30 5489 C 545.403 3.22532 -4.26471 0
M  V30 5490 C 546.703 1.1984 -5.08366 0
M  V30 5491 H 548.397 0.413373 -2.96533 0
M  V30 5492 H 545.943 0.197391 -1.42641 0
M  V30 5493 H 547.896 2.84614 -3.10761 0
M  V30 5494 H 546.62 2.67269 -1.8771 0
M  V30 5495 H 545.279 1.23469 -3.45183 0
M  V30 5496 H 544.927 3.71013 -3.39644 0
M  V30 5497 H 544.627 3.04879 -5.02317 0
M  V30 5498 H 546.151 3.91727 -4.68383 0
M  V30 5499 H 547.565 1.77896 -5.45001 0
M  V30 5500 H 545.962 1.12456 -5.89469 0
M  V30 5501 H 547.032 0.176996 -4.84577 0
M  V30 5502 N 548.375 1.56261 0.205012 0
M  V30 5503 C 549.603 1.84141 0.943386 0
M  V30 5504 C 550.018 0.649772 1.77266 0
M  V30 5505 O 549.375 -0.381612 1.78466 0
M  V30 5506 C 549.426 3.10719 1.84759 0
M  V30 5507 O 549.147 4.25286 1.05181 0
M  V30 5508 C 550.648 3.51706 2.69848 0
M  V30 5509 H 547.868 0.611734 0.275721 0
M  V30 5510 H 550.412 2.03364 0.215253 0
M  V30 5511 H 548.567 2.93422 2.52947 0
M  V30 5512 H 548.981 4.97301 1.66709 0
M  V30 5513 H 550.455 4.43266 3.28967 0
M  V30 5514 H 550.932 2.7423 3.43067 0
M  V30 5515 H 551.538 3.71499 2.07047 0
M  V30 5516 N 549.853 -0.472356 1.50355 0
M  V30 5517 C 551.1 -1.22453 1.61281 0
M  V30 5518 C 551.428 -1.91972 0.31256 0
M  V30 5519 O 550.683 -1.82696 -0.701475 0
M  V30 5520 C 550.982 -2.29257 2.74182 0
M  V30 5521 C 550.648 -1.76999 4.14708 0
M  V30 5522 C 549.31 -1.62467 4.52944 0
M  V30 5523 C 551.662 -1.38215 5.0254 0
M  V30 5524 C 548.99 -1.07574 5.76754 0
M  V30 5525 C 551.342 -0.847638 6.26895 0
M  V30 5526 C 550.006 -0.688946 6.63935 0
M  V30 5527 H 549.276 -0.448087 0.590168 0
M  V30 5528 H 551.923 -0.520744 1.84284 0
M  V30 5529 H 550.228 -3.05538 2.45263 0
M  V30 5530 H 551.925 -2.87212 2.7984 0
M  V30 5531 H 548.515 -1.89276 3.84542 0
M  V30 5532 H 552.699 -1.48276 4.73633 0
M  V30 5533 H 547.955 -0.940237 6.04127 0
M  V30 5534 H 552.129 -0.538455 6.94315 0
M  V30 5535 H 549.756 -0.261435 7.5975 0
M  V30 5536 N 551.331 -1.39911 -0.725443 0
M  V30 5537 C 552.577 -1.37858 -1.48738 0
M  V30 5538 C 552.91 0.0224187 -1.94187 0
M  V30 5539 O 552.185 0.989204 -1.67466 0
M  V30 5540 C 552.468 -2.3594 -2.72038 0
M  V30 5541 C 552.321 -3.85023 -2.32546 0
M  V30 5542 C 553.64 -2.31704 -3.74167 0
M  V30 5543 H 550.759 -0.502074 -0.539528 0
M  V30 5544 H 553.401 -1.70974 -0.828728 0
M  V30 5545 H 551.551 -2.0783 -3.28236 0
M  V30 5546 H 553.223 -4.2392 -1.81905 0
M  V30 5547 H 551.466 -4.01334 -1.64661 0
M  V30 5548 H 552.137 -4.49152 -3.20884 0
M  V30 5549 H 554.613 -2.5658 -3.27576 0
M  V30 5550 H 553.489 -3.02395 -4.58092 0
M  V30 5551 H 553.75 -1.3253 -4.21768 0
M  V30 5552 N 552.809 0.956637 -1.25245 0
M  V30 5553 C 554.086 1.67716 -1.00651 0
M  V30 5554 C 554.466 2.0585 0.467866 0
M  V30 5555 O 553.814 1.77029 1.44475 0
M  V30 5556 C 554.024 2.90093 -1.94028 0
M  V30 5557 C 555.372 3.6209 -2.21756 0
M  V30 5558 O 556.396 3.00171 -1.9177 0
M  V30 5559 O 555.255 4.7358 -2.72735 0
M  V30 5560 H 552.349 0.733731 -0.381533 0
M  V30 5561 H 554.895 1.00974 -1.3639 0
M  V30 5562 H 553.667 2.58689 -2.93591 0
M  V30 5563 H 553.29 3.64566 -1.58674 0
M  V30 5564 N 554.287 1.06798 1.15896 0
M  V30 5565 C 555.533 0.788934 1.86825 0
M  V30 5566 C 555.866 -0.683084 1.8179 0
M  V30 5567 O 555.141 -1.50086 1.23711 0
M  V30 5568 C 555.424 1.29065 3.36176 0
M  V30 5569 C 555.277 2.8268 3.49874 0
M  V30 5570 C 556.596 0.902655 4.30744 0
M  V30 5571 H 553.715 0.288066 0.678371 0
M  V30 5572 H 556.357 1.32479 1.36195 0
M  V30 5573 H 554.507 0.834806 3.79425 0
M  V30 5574 H 556.179 3.36511 3.15528 0
M  V30 5575 H 554.422 3.21157 2.91617 0
M  V30 5576 H 555.093 3.12852 4.54783 0
M  V30 5577 H 557.569 1.29535 3.95424 0
M  V30 5578 H 556.445 1.28111 5.3374 0
M  V30 5579 H 556.706 -0.191951 4.41683 0
M  V30 5580 N 555.766 -1.3263 0.851289 0
M  V30 5581 C 557.177 -1.79653 0.5081 0
M  V30 5582 C 557.528 -1.70327 -0.973815 0
M  V30 5583 O 556.653 -1.25986 -1.75944 0
M  V30 5584 C 557.248 -3.26196 0.915515 0
M  V30 5585 C 555.807 -3.71187 0.624277 0
M  V30 5586 C 554.954 -2.53804 1.11709 0
M  V30 5587 H 557.905 -1.19976 1.03882 0
M  V30 5588 H 557.926 -3.79801 0.230535 0
M  V30 5589 H 557.438 -3.32952 1.99411 0
M  V30 5590 H 555.539 -3.69948 -0.443737 0
M  V30 5591 H 555.652 -4.64132 1.18821 0
M  V30 5592 H 554.016 -2.48964 0.537484 0
M  V30 5593 H 554.799 -2.63315 2.20272 0
M  V30 5594 N 557.244 -0.608902 -1.45362 0
M  V30 5595 C 558.492 -0.104401 -2.0183 0
M  V30 5596 C 558.813 1.27007 -1.47967 0
M  V30 5597 O 558.083 1.83924 -0.674455 0
M  V30 5598 H 556.663 -0.0356042 -0.746151 0
M  V30 5599 H 559.325 -0.790596 -1.78145 0
M  V30 5600 H 558.421 -0.0551793 -3.12051 0
M  V30 5601 N 558.722 1.53707 -0.348139 0
M  V30 5602 C 559.969 2.00988 0.246966 0
M  V30 5603 C 560.297 1.23586 1.50189 0
M  V30 5604 O 559.552 0.312817 1.93184 0
M  V30 5605 C 559.851 3.52292 0.602061 0
M  V30 5606 C 559.517 4.47453 -0.556509 0
M  V30 5607 C 558.179 4.73188 -0.874446 0
M  V30 5608 C 560.531 5.03851 -1.33354 0
M  V30 5609 C 557.859 5.52577 -1.9717 0
M  V30 5610 C 560.211 5.84437 -2.42108 0
M  V30 5611 C 558.875 6.08465 -2.74456 0
M  V30 5612 H 558.145 0.735469 0.0903712 0
M  V30 5613 H 560.792 1.85464 -0.477001 0
M  V30 5614 H 559.097 3.65672 1.40681 0
M  V30 5615 H 560.794 3.86337 1.07447 0
M  V30 5616 H 557.384 4.27558 -0.298652 0
M  V30 5617 H 561.568 4.8393 -1.10117 0
M  V30 5618 H 556.824 5.69418 -2.22651 0
M  V30 5619 H 560.998 6.27151 -3.02745 0
M  V30 5620 H 558.625 6.69768 -3.59604 0
M  V30 5621 N 560.2 0.0768682 1.57412 0
M  V30 5622 C 561.13 -0.886026 2.16037 0
M  V30 5623 C 562.111 -1.30691 1.08876 0
M  V30 5624 O 563.296 -1.37705 1.36934 0
M  V30 5625 C 560.426 -2.1518 2.72608 0
M  V30 5626 C 559.38 -1.87015 3.8498 0
M  V30 5627 C 558.706 -3.20266 4.28175 0
M  V30 5628 C 560.006 -1.17143 5.08994 0
M  V30 5629 H 561.7 -0.397642 2.96748 0
M  V30 5630 H 559.246 -0.189823 1.42743 0
M  V30 5631 H 561.199 -2.82962 3.12266 0
M  V30 5632 H 559.923 -2.66269 1.89125 0
M  V30 5633 H 558.582 -1.21636 3.45833 0
M  V30 5634 H 558.23 -3.69207 3.41607 0
M  V30 5635 H 557.93 -3.0221 5.03927 0
M  V30 5636 H 559.454 -3.89237 4.70454 0
M  V30 5637 H 560.868 -1.75003 5.45937 0
M  V30 5638 H 559.265 -1.09328 5.90057 0
M  V30 5639 H 560.335 -0.151295 4.84664 0
M  V30 5640 N 561.678 -1.56367 -0.196722 0
M  V30 5641 C 563.089 -1.70462 -0.761545 0
M  V30 5642 C 563.44 -0.683161 -1.83922 0
M  V30 5643 O 562.565 0.160753 -2.15802 0
M  V30 5644 C 563.16 -3.09057 -1.38814 0
M  V30 5645 C 561.719 -3.24922 -1.90007 0
M  V30 5646 C 560.866 -2.66412 -0.769399 0
M  V30 5647 H 563.817 -1.58675 0.0283263 0
M  V30 5648 H 563.838 -3.06296 -2.2575 0
M  V30 5649 H 563.35 -3.83378 -0.603559 0
M  V30 5650 H 561.451 -2.55514 -2.71189 0
M  V30 5651 H 561.564 -4.3241 -2.06297 0
M  V30 5652 H 559.928 -2.25546 -1.18326 0
M  V30 5653 H 560.711 -3.433 0.00291773 0
M  V30 5654 N 563.156 0.464375 -1.50603 0
M  V30 5655 C 564.404 1.21356 -1.61608 0
M  V30 5656 C 564.725 1.92329 -0.321643 0
M  V30 5657 O 563.995 1.84403 0.661232 0
M  V30 5658 H 562.575 0.45094 -0.595535 0
M  V30 5659 H 565.237 0.535046 -1.87412 0
M  V30 5660 H 564.333 1.95783 -2.43054 0
M  V30 5661 N 564.634 1.40294 0.718013 0
M  V30 5662 C 565.88 1.38645 1.48005 0
M  V30 5663 C 566.213 -0.0121202 1.94196 0
M  V30 5664 O 565.488 -0.980309 1.67989 0
M  V30 5665 C 565.771 2.37379 2.70782 0
M  V30 5666 C 565.624 3.8625 2.30501 0
M  V30 5667 C 566.943 2.33685 3.72933 0
M  V30 5668 H 564.062 0.504928 0.536858 0
M  V30 5669 H 566.704 1.71411 0.819649 0
M  V30 5670 H 564.854 2.09568 3.27129 0
M  V30 5671 H 566.526 4.24879 1.79655 0
M  V30 5672 H 564.769 4.02202 1.6253 0
M  V30 5673 H 565.44 4.50847 3.18498 0
M  V30 5674 H 567.916 2.58314 3.2621 0
M  V30 5675 H 566.792 3.0482 4.56482 0
M  V30 5676 H 567.053 1.34765 4.21059 0
M  V30 5677 N 566.112 -0.949982 1.2575 0
M  V30 5678 C 567.389 -1.6718 1.01539 0
M  V30 5679 C 567.769 -2.06095 -0.456942 0
M  V30 5680 O 567.117 -1.77792 -1.43534 0
M  V30 5681 C 567.327 -2.8906 1.95564 0
M  V30 5682 C 568.675 -3.60909 2.23673 0
M  V30 5683 O 569.699 -2.9915 1.9336 0
M  V30 5684 O 568.558 -4.72127 2.75243 0
M  V30 5685 H 565.652 -0.731697 0.385419 0
M  V30 5686 H 568.198 -1.00249 1.36924 0
M  V30 5687 H 566.97 -2.57128 2.94959 0
M  V30 5688 H 566.593 -3.63719 1.60605 0
M  V30 5689 N 567.59 -1.07411 -1.15328 0
M  V30 5690 C 568.522 -0.652924 -2.19703 0
M  V30 5691 C 569.535 0.294869 -1.60107 0
M  V30 5692 O 570.724 0.0840932 -1.78302 0
M  V30 5693 C 567.824 0.061434 -3.38844 0
M  V30 5694 C 566.997 -0.902696 -4.27984 0
M  V30 5695 C 566.056 -0.225521 -5.25717 0
M  V30 5696 O 565.082 -0.86676 -5.62562 0
M  V30 5697 N 566.284 1.02858 -5.71315 0
M  V30 5698 H 569.049 -1.55081 -2.56457 0
M  V30 5699 H 566.61 -0.958883 -1.30449 0
M  V30 5700 H 568.602 0.525145 -4.01278 0
M  V30 5701 H 567.172 0.861269 -3.00501 0
M  V30 5702 H 566.392 -1.54551 -3.6264 0
M  V30 5703 H 567.68 -1.55636 -4.84412 0
M  V30 5704 H 567.078 1.56948 -5.43492 0
M  V30 5705 H 565.635 1.43596 -6.35786 0
M  V30 5706 N 569.068 1.32177 -0.85831 0
M  V30 5707 C 569.978 2.32561 -0.308606 0
M  V30 5708 C 570.994 1.64209 0.575462 0
M  V30 5709 O 572.17 1.95719 0.474961 0
M  V30 5710 C 569.235 3.43207 0.490909 0
M  V30 5711 C 568.296 4.27243 -0.419733 0
M  V30 5712 C 567.529 5.32605 0.341719 0
M  V30 5713 O 567.752 5.48332 1.57125 0
M  V30 5714 O 566.686 6.0118 -0.294379 0
M  V30 5715 H 570.512 2.81477 -1.14037 0
M  V30 5716 H 568.097 1.35866 -0.621349 0
M  V30 5717 H 569.979 4.10677 0.944574 0
M  V30 5718 H 568.654 2.96474 1.29941 0
M  V30 5719 H 567.561 3.62569 -0.921652 0
M  V30 5720 H 568.894 4.7751 -1.19352 0
M  V30 5721 N 570.547 0.616602 1.45037 0
M  V30 5722 C 571.497 -0.118543 2.27692 0
M  V30 5723 C 572.481 -0.830025 1.37838 0
M  V30 5724 O 573.673 -0.718528 1.6176 0
M  V30 5725 C 570.802 -1.10924 3.24886 0
M  V30 5726 C 569.888 -0.398134 4.22227 0
M  V30 5727 N 570.279 0.565233 5.02632 0
M  V30 5728 C 568.577 -0.644506 4.41319 0
M  V30 5729 C 569.278 0.984043 5.73316 0
M  V30 5730 N 568.254 0.325879 5.42622 0
M  V30 5731 H 572.056 0.621239 2.87259 0
M  V30 5732 H 569.57 0.440968 1.56299 0
M  V30 5733 H 571.567 -1.65038 3.82842 0
M  V30 5734 H 570.227 -1.84948 2.66879 0
M  V30 5735 H 571.238 0.942395 5.09254 0
M  V30 5736 H 567.915 -1.36873 3.94426 0
M  V30 5737 H 569.305 1.77911 6.47918 0
M  V30 5738 N 572.025 -1.5352 0.356285 0
M  V30 5739 C 573.302 -1.93405 -0.292223 0
M  V30 5740 C 573.682 -1.28901 -1.67176 0
M  V30 5741 O 573.03 -0.444632 -2.24132 0
M  V30 5742 C 573.24 -3.47223 -0.35175 0
M  V30 5743 C 574.588 -4.20389 -0.596534 0
M  V30 5744 O 575.612 -3.53554 -0.433344 0
M  V30 5745 O 574.471 -5.3881 -0.913589 0
M  V30 5746 H 571.565 -0.808666 -0.173172 0
M  V30 5747 H 574.111 -1.64713 0.408391 0
M  V30 5748 H 572.883 -3.86423 0.615841 0
M  V30 5749 H 572.506 -3.8212 -1.09864 0
M  V30 5750 N 573.503 -0.0852151 -1.57369 0
M  V30 5751 C 574.751 0.579658 -1.93609 0
M  V30 5752 C 575.072 1.69332 -0.967043 0
M  V30 5753 O 574.342 1.95892 -0.0174215 0
M  V30 5754 H 572.922 0.217113 -0.714752 0
M  V30 5755 H 575.584 -0.146226 -1.94351 0
M  V30 5756 H 574.68 0.996276 -2.95771 0
M  V30 5757 N 574.981 1.5647 0.188427 0
M  V30 5758 C 576.23 1.80207 0.905995 0
M  V30 5759 C 576.543 0.659579 1.84144 0
M  V30 5760 O 577.749 0.781431 2.60011 0
M  V30 5761 C 576.205 3.19255 1.66145 0
M  V30 5762 C 575.813 4.41324 0.770504 0
M  V30 5763 C 577.557 3.52298 2.36826 0
M  V30 5764 C 575.464 5.71394 1.52521 0
M  V30 5765 H 574.394 0.671953 0.342045 0
M  V30 5766 H 577.045 1.82808 0.159164 0
M  V30 5767 H 575.427 3.10922 2.45242 0
M  V30 5768 H 576.601 4.60797 0.0177261 0
M  V30 5769 H 574.916 4.16035 0.174199 0
M  V30 5770 H 577.513 4.46715 2.93854 0
M  V30 5771 H 577.856 2.76359 3.11338 0
M  V30 5772 H 578.389 3.62108 1.6469 0
M  V30 5773 H 575.128 6.50316 0.82275 0
M  V30 5774 H 574.648 5.55928 2.25175 0
M  V30 5775 H 576.327 6.12747 2.07725 0
M  V30 5776 N 576.459 -0.456382 1.50847 0
M  V30 5777 C 577.708 -1.2042 1.61808 0
M  V30 5778 C 578.021 -1.9278 0.330932 0
M  V30 5779 O 579.227 -2.69612 0.319643 0
M  V30 5780 C 577.683 -2.18891 2.85683 0
M  V30 5781 C 577.291 -1.52267 4.2133 0
M  V30 5782 C 579.035 -2.94224 3.05994 0
M  V30 5783 C 576.942 -2.4911 5.36375 0
M  V30 5784 H 575.872 -0.453177 0.602616 0
M  V30 5785 H 578.523 -0.473144 1.77295 0
M  V30 5786 H 576.905 -2.95351 2.63787 0
M  V30 5787 H 578.079 -0.814949 4.53536 0
M  V30 5788 H 576.394 -0.891594 4.06743 0
M  V30 5789 H 578.991 -3.66732 3.89117 0
M  V30 5790 H 579.334 -3.54469 2.18306 0
M  V30 5791 H 579.867 -2.24874 3.28141 0
M  V30 5792 H 576.606 -1.93582 6.26264 0
M  V30 5793 H 576.126 -3.17991 5.08569 0
M  V30 5794 H 577.805 -3.10637 5.67551 0
M  V30 5795 N 577.937 -1.40673 -0.710563 0
M  V30 5796 C 579.353 -1.22813 -1.01928 0
M  V30 5797 C 579.553 -0.10687 -2.01216 0
M  V30 5798 O 578.609 0.533614 -2.46797 0
M  V30 5799 C 579.922 -2.57178 -1.5582 0
M  V30 5800 C 581.47 -2.64233 -1.67779 0
M  V30 5801 C 581.945 -3.98879 -2.25076 0
M  V30 5802 N 583.436 -4.00647 -2.32456 0
M  V30 5803 C 584.171 -5.01621 -2.77784 0
M  V30 5804 N 583.667 -6.12989 -3.22826 0
M  V30 5805 N 585.46 -4.88988 -2.77213 0
M  V30 5806 H 577.611 -2.12335 -0.05253 0
M  V30 5807 H 579.874 -0.9441 -0.085898 0
M  V30 5808 H 579.58 -3.39903 -0.903249 0
M  V30 5809 H 579.454 -2.78618 -2.54267 0
M  V30 5810 H 581.841 -1.81876 -2.3239 0
M  V30 5811 H 581.922 -2.46619 -0.679178 0
M  V30 5812 H 581.566 -4.81678 -1.61086 0
M  V30 5813 H 581.496 -4.13826 -3.25661 0
M  V30 5814 H 583.987 -3.20231 -2.0065 0
M  V30 5815 H 584.3 -6.85921 -3.55995 0
M  V30 5816 H 582.645 -6.16547 -3.20773 0
M  V30 5817 H 585.836 -4.01075 -2.41363 0
M  V30 5818 H 586.009 -5.67822 -3.12221 0
M  V30 5819 N 579.415 0.9433 -1.26252 0
M  V30 5820 C 580.831 1.21644 -1.03319 0
M  V30 5821 C 581.031 2.0003 0.242983 0
M  V30 5822 O 580.087 2.33838 0.952688 0
M  V30 5823 C 581.4 1.97978 -2.2633 0
M  V30 5824 C 582.948 2.10978 -2.31209 0
M  V30 5825 C 583.423 2.90713 -3.53907 0
M  V30 5826 N 584.914 2.98287 -3.54371 0
M  V30 5827 C 585.649 3.60406 -4.45976 0
M  V30 5828 N 585.145 4.24043 -5.47868 0
M  V30 5829 N 586.938 3.57658 -4.33633 0
M  V30 5830 H 579.089 0.419221 -2.08222 0
M  V30 5831 H 581.352 0.247995 -0.914988 0
M  V30 5832 H 581.058 1.47788 -3.19142 0
M  V30 5833 H 580.932 2.9865 -2.30408 0
M  V30 5834 H 583.319 2.6036 -1.38913 0
M  V30 5835 H 583.4 1.09575 -2.31143 0
M  V30 5836 H 583.044 2.42018 -4.46531 0
M  V30 5837 H 582.974 3.92367 -3.5122 0
M  V30 5838 H 585.465 2.53044 -2.80673 0
M  V30 5839 H 585.778 4.69334 -6.13959 0
M  V30 5840 H 584.123 4.22637 -5.51728 0
M  V30 5841 H 587.314 3.07134 -3.53251 0
M  V30 5842 H 587.487 4.05782 -5.05218 0
M  V30 5843 N 580.893 1.08022 1.14757 0
M  V30 5844 C 582.141 0.805913 1.85336 0
M  V30 5845 C 582.462 -0.670162 1.83122 0
M  V30 5846 O 581.732 -1.48567 1.2769 0
M  V30 5847 H 580.312 0.295138 0.686223 0
M  V30 5848 H 582.974 1.36538 1.3908 0
M  V30 5849 H 582.07 1.14655 2.90277 0
M  V30 5850 N 582.371 -1.3172 0.865308 0
M  V30 5851 C 583.334 -2.26918 0.322627 0
M  V30 5852 C 584.334 -1.52031 -0.523751 0
M  V30 5853 O 585.524 -1.70973 -0.333727 0
M  V30 5854 C 582.656 -3.36558 -0.542338 0
M  V30 5855 H 583.849 -2.76432 1.16298 0
M  V30 5856 H 581.402 -1.42573 0.640512 0
M  V30 5857 H 582.137 -2.92329 -1.40407 0
M  V30 5858 H 581.922 -3.92048 0.0636395 0
M  V30 5859 H 583.412 -4.07465 -0.91446 0
M  V30 5860 N 583.85 -0.624285 -1.44708 0
M  V30 5861 C 584.797 0.0847135 -2.30644 0
M  V30 5862 C 585.767 0.843575 -1.43084 0
M  V30 5863 O 586.952 0.825982 -1.71995 0
M  V30 5864 C 584.091 1.06495 -3.28257 0
M  V30 5865 C 583.205 0.305224 -4.3092 0
M  V30 5866 C 582.34 1.27667 -5.1563 0
M  V30 5867 C 581.379 0.505706 -6.10007 0
M  V30 5868 N 580.516 1.42727 -6.8744 0
M  V30 5869 H 585.356 -0.654068 -2.90733 0
M  V30 5870 H 582.893 -0.334334 -1.4325 0
M  V30 5871 H 584.851 1.64658 -3.83332 0
M  V30 5872 H 583.481 1.77094 -2.69884 0
M  V30 5873 H 582.533 -0.392207 -3.78373 0
M  V30 5874 H 583.845 -0.295553 -4.97924 0
M  V30 5875 H 582.999 1.92984 -5.75189 0
M  V30 5876 H 581.738 1.91137 -4.48685 0
M  V30 5877 H 580.743 -0.160999 -5.49564 0
M  V30 5878 H 581.968 -0.124183 -6.78986 0
M  V30 5879 H 579.913 2.04931 -6.23169 0
M  V30 5880 H 579.831 0.880345 -7.50857 0
M  V30 5881 H 581.099 2.0695 -7.51526 0
M  V30 5882 N 585.328 1.53329 -0.364422 0
M  V30 5883 C 586.258 2.28627 0.474543 0
M  V30 5884 C 587.239 1.31009 1.08492 0
M  V30 5885 O 588.424 1.59878 1.10239 0
M  V30 5886 C 585.554 3.07465 1.61501 0
M  V30 5887 C 584.508 4.1276 1.13194 0
M  V30 5888 C 583.834 4.79674 2.36255 0
M  V30 5889 C 585.134 5.21847 0.217507 0
M  V30 5890 H 586.828 2.99005 -0.153656 0
M  V30 5891 H 584.374 1.43803 -0.0753406 0
M  V30 5892 H 586.327 3.58889 2.20855 0
M  V30 5893 H 585.051 2.34775 2.27042 0
M  V30 5894 H 583.71 3.62281 0.56109 0
M  V30 5895 H 583.358 4.03557 3.00251 0
M  V30 5896 H 583.058 5.50827 2.04606 0
M  V30 5897 H 584.582 5.33892 2.96297 0
M  V30 5898 H 585.996 5.6878 0.718493 0
M  V30 5899 H 584.393 6.00099 -0.00806408 0
M  V30 5900 H 585.463 4.7921 -0.740653 0
M  V30 5901 N 586.806 0.0935595 1.57322 0
M  V30 5902 C 588.055 -0.570191 1.93473 0
M  V30 5903 C 588.368 -1.69434 0.977318 0
M  V30 5904 O 589.574 -2.41914 1.23248 0
M  V30 5905 C 588.03 -1.06564 3.43762 0
M  V30 5906 C 587.638 0.0286723 4.47991 0
M  V30 5907 C 589.382 -1.70221 3.88877 0
M  V30 5908 C 587.289 -0.482046 5.89432 0
M  V30 5909 H 586.219 -0.216764 0.72217 0
M  V30 5910 H 588.87 0.169313 1.82717 0
M  V30 5911 H 587.252 -1.85878 3.49664 0
M  V30 5912 H 588.426 0.804106 4.5373 0
M  V30 5913 H 586.741 0.570336 4.12476 0
M  V30 5914 H 589.338 -2.09502 4.91948 0
M  V30 5915 H 589.681 -2.57078 3.27439 0
M  V30 5916 H 590.214 -0.974919 3.85668 0
M  V30 5917 H 586.953 0.349871 6.54566 0
M  V30 5918 H 586.473 -1.22452 5.87167 0
M  V30 5919 H 588.152 -0.951508 6.39965 0
M  V30 5920 N 588.284 -1.56567 -0.180126 0
M  V30 5921 C 589.531 -1.81492 -0.898167 0
M  V30 5922 C 589.859 -0.669225 -1.82624 0
M  V30 5923 O 589.114 0.344096 -1.92651 0
M  V30 5924 C 589.413 -3.1252 -1.73395 0
M  V30 5925 C 589.079 -4.40658 -0.955567 0
M  V30 5926 C 587.741 -4.75465 -0.740707 0
M  V30 5927 C 590.093 -5.19593 -0.408948 0
M  V30 5928 C 587.421 -5.86691 0.0320128 0
M  V30 5929 C 589.773 -6.31627 0.350638 0
M  V30 5930 C 588.437 -6.65007 0.576378 0
M  V30 5931 H 587.707 -0.664125 -0.328662 0
M  V30 5932 H 590.354 -1.908 -0.163616 0
M  V30 5933 H 588.659 -2.98515 -2.53763 0
M  V30 5934 H 590.356 -3.29013 -2.29241 0
M  V30 5935 H 586.946 -4.13352 -1.13306 0
M  V30 5936 H 591.13 -4.93104 -0.562307 0
M  V30 5937 H 586.386 -6.11016 0.216735 0
M  V30 5938 H 590.56 -6.92001 0.781497 0
M  V30 5939 H 588.187 -7.51033 1.17703 0
M  V30 5940 N 589.762 0.448376 -1.51087 0
M  V30 5941 C 590.725 1.52588 -1.71025 0
M  V30 5942 C 591.725 1.49958 -0.580442 0
M  V30 5943 O 592.915 1.52176 -0.847833 0
M  V30 5944 C 590.047 2.92163 -1.75652 0
M  V30 5945 H 591.24 1.36218 -2.67179 0
M  V30 5946 H 588.793 0.676313 -1.4091 0
M  V30 5947 H 589.528 3.13951 -0.812724 0
M  V30 5948 H 589.313 2.95478 -2.57751 0
M  V30 5949 H 590.803 3.70349 -1.92953 0
M  V30 5950 N 591.24 1.41047 0.703093 0
M  V30 5951 C 592.47 1.43133 1.48985 0
M  V30 5952 C 592.878 0.0328537 1.89171 0
M  V30 5953 O 592.221 -0.956469 1.56835 0
M  V30 5954 C 592.283 2.26991 2.78775 0
M  V30 5955 C 591.947 3.7525 2.60837 0
M  V30 5956 C 592.944 4.67591 2.27276 0
M  V30 5957 C 590.629 4.19208 2.76712 0
M  V30 5958 C 592.623 6.01877 2.09817 0
M  V30 5959 C 590.31 5.53561 2.5887 0
M  V30 5960 C 591.308 6.4471 2.25472 0
M  V30 5961 O 590.996 7.76584 2.07778 0
M  V30 5962 H 590.728 0.489788 0.465922 0
M  V30 5963 H 593.282 1.85886 0.873822 0
M  V30 5964 H 591.512 1.79038 3.42757 0
M  V30 5965 H 593.201 2.20867 3.40547 0
M  V30 5966 H 593.967 4.34923 2.14633 0
M  V30 5967 H 589.846 3.48572 3.01693 0
M  V30 5968 H 593.39 6.72986 1.83671 0
M  V30 5969 H 589.287 5.85811 2.71102 0
M  V30 5970 H 590.055 7.87649 2.22601 0
M  V30 5971 N 592.718 -0.936591 1.26751 0
M  V30 5972 C 593.681 -2.01752 1.08761 0
M  V30 5973 C 594.681 -1.60763 0.0344435 0
M  V30 5974 O 595.871 -1.71963 0.278258 0
M  V30 5975 C 593.003 -3.34543 0.655271 0
M  V30 5976 H 594.196 -2.19143 2.04735 0
M  V30 5977 H 591.749 -1.11618 1.09413 0
M  V30 5978 H 592.484 -3.22851 -0.30626 0
M  V30 5979 H 592.269 -3.65647 1.41578 0
M  V30 5980 H 593.759 -4.13944 0.551378 0
M  V30 5981 N 594.196 -1.08629 -1.14182 0
M  V30 5982 C 595.106 -0.730126 -2.22949 0
M  V30 5983 C 596.122 0.26436 -1.7198 0
M  V30 5984 O 597.298 0.107742 -2.01112 0
M  V30 5985 C 594.363 -0.147227 -3.46387 0
M  V30 5986 C 593.424 -1.19662 -4.12286 0
M  V30 5987 C 592.657 -0.641437 -5.29831 0
M  V30 5988 O 592.88 0.538351 -5.67854 0
M  V30 5989 O 591.814 -1.39257 -5.85569 0
M  V30 5990 H 595.64 -1.63753 -2.55771 0
M  V30 5991 H 593.225 -0.860118 -1.22157 0
M  V30 5992 H 595.107 0.174923 -4.21037 0
M  V30 5993 H 593.782 0.733304 -3.15285 0
M  V30 5994 H 592.689 -1.57133 -3.395 0
M  V30 5995 H 594.022 -2.0495 -4.475 0
M  V30 5996 N 595.674 1.31259 -0.872281 0
M  V30 5997 C 596.637 2.26744 -0.334656 0
M  V30 5998 C 597.637 1.52307 0.515681 0
M  V30 5999 O 598.827 1.71148 0.324656 0
M  V30 6000 C 595.959 3.36841 0.524482 0
M  V30 6001 H 597.152 2.75812 -1.17762 0
M  V30 6002 H 594.705 1.42232 -0.648064 0
M  V30 6003 H 595.44 2.93069 1.38855 0
M  V30 6004 H 595.225 3.92009 -0.0844299 0
M  V30 6005 H 596.715 4.07944 0.892838 0
M  V30 6006 N 597.152 0.631951 1.44375 0
M  V30 6007 C 598.38 0.143867 2.06399 0
M  V30 6008 C 598.795 -1.18188 1.47231 0
M  V30 6009 O 598.152 -1.72511 0.595498 0
M  V30 6010 C 598.203 0.0238253 3.61492 0
M  V30 6011 O 597.924 1.29715 4.18456 0
M  V30 6012 C 599.425 -0.492856 4.40552 0
M  V30 6013 H 596.645 0.0800542 0.666207 0
M  V30 6014 H 599.189 0.866586 1.85231 0
M  V30 6015 H 597.344 -0.649338 3.81919 0
M  V30 6016 H 597.758 1.14252 5.11905 0
M  V30 6017 H 599.232 -0.525861 5.49489 0
M  V30 6018 H 599.709 -1.52006 4.12057 0
M  V30 6019 H 600.315 0.147085 4.25046 0
M  V30 6020 N 598.631 -1.53133 0.372548 0
M  V30 6021 C 599.877 -2.01654 -0.215277 0
M  V30 6022 C 600.21 -1.25914 -1.47849 0
M  V30 6023 O 599.485 -0.3548 -1.91237 0
M  V30 6024 C 599.768 -3.56609 -0.500187 0
M  V30 6025 C 599.621 -4.43036 0.777145 0
M  V30 6026 C 600.94 -4.20528 -1.29786 0
M  V30 6027 H 598.059 -0.732991 -0.0767686 0
M  V30 6028 H 600.701 -1.83335 0.498814 0
M  V30 6029 H 598.851 -3.7235 -1.10852 0
M  V30 6030 H 600.523 -4.39079 1.41447 0
M  V30 6031 H 598.766 -4.10723 1.39604 0
M  V30 6032 H 599.437 -5.49424 0.532662 0
M  V30 6033 H 601.913 -4.08663 -0.783198 0
M  V30 6034 H 600.789 -5.28962 -1.46596 0
M  V30 6035 H 601.05 -3.77051 -2.30836 0
M  V30 6036 N 600.109 -0.101901 -1.5727 0
M  V30 6037 C 601.52 0.426173 -1.81771 0
M  V30 6038 C 601.871 1.67725 -1.01797 0
M  V30 6039 O 600.996 2.14958 -0.249386 0
M  V30 6040 C 601.591 0.779962 -3.297 0
M  V30 6041 C 600.15 1.25275 -3.54941 0
M  V30 6042 C 599.297 0.252814 -2.76145 0
M  V30 6043 H 602.248 -0.32726 -1.55289 0
M  V30 6044 H 602.269 1.63891 -3.43395 0
M  V30 6045 H 601.781 -0.130778 -3.8788 0
M  V30 6046 H 599.882 2.18097 -3.021 0
M  V30 6047 H 599.995 1.20988 -4.63572 0
M  V30 6048 H 598.359 0.736362 -2.43823 0
M  V30 6049 H 599.142 -0.650724 -3.37076 0
M  V30 6050 N 601.587 1.56661 0.17182 0
M  V30 6051 C 602.517 1.99401 1.21498 0
M  V30 6052 C 603.498 0.869516 1.46197 0
M  V30 6053 O 604.683 1.13556 1.57539 0
M  V30 6054 C 601.813 2.35346 2.55401 0
M  V30 6055 C 600.767 3.5075 2.45272 0
M  V30 6056 C 600.093 3.72437 3.8366 0
M  V30 6057 C 601.393 4.84216 1.95787 0
M  V30 6058 H 603.087 2.86792 0.859699 0
M  V30 6059 H 600.633 1.37977 0.412103 0
M  V30 6060 H 602.586 2.63843 3.2858 0
M  V30 6061 H 601.31 1.44864 2.92715 0
M  V30 6062 H 599.969 3.2238 1.74547 0
M  V30 6063 H 599.617 2.79246 4.18367 0
M  V30 6064 H 599.317 4.50087 3.77751 0
M  V30 6065 H 600.841 4.03334 4.58426 0
M  V30 6066 H 602.255 5.11592 2.5874 0
M  V30 6067 H 600.652 5.65498 2.00827 0
M  V30 6068 H 601.722 4.76243 0.912159 0
M  V30 6069 N 603.065 -0.440357 1.51323 0
M  V30 6070 C 604.314 -1.18697 1.63076 0
M  V30 6071 C 604.627 -1.92418 0.35136 0
M  V30 6072 O 605.833 -2.69258 0.348221 0
M  V30 6073 C 604.289 -2.15849 2.87988 0
M  V30 6074 C 603.897 -1.47789 4.22921 0
M  V30 6075 C 605.641 -2.90962 3.09098 0
M  V30 6076 C 603.548 -2.43407 5.38987 0
M  V30 6077 H 602.478 -0.44676 0.607389 0
M  V30 6078 H 605.129 -0.454313 1.77787 0
M  V30 6079 H 603.511 -2.92537 2.66905 0
M  V30 6080 H 604.685 -0.7668 4.54375 0
M  V30 6081 H 603 -0.848404 4.07665 0
M  V30 6082 H 605.597 -3.62584 3.92985 0
M  V30 6083 H 605.94 -3.52133 2.22053 0
M  V30 6084 H 606.473 -2.21381 3.30507 0
M  V30 6085 H 603.212 -1.86929 6.28282 0
M  V30 6086 H 602.732 -3.12579 5.11913 0
M  V30 6087 H 604.411 -3.046 5.70813 0
M  V30 6088 N 604.543 -1.41418 -0.695603 0
M  V30 6089 C 605.771 -1.4413 -1.48439 0
M  V30 6090 C 606.186 -0.0465698 -1.88743 0
M  V30 6091 O 605.543 0.934117 -1.56782 0
M  V30 6092 C 605.594 -2.34998 -2.74696 0
M  V30 6093 O 605.315 -3.69043 -2.36091 0
M  V30 6094 C 606.816 -2.46513 -3.68438 0
M  V30 6095 H 604.036 -0.490905 -0.457442 0
M  V30 6096 H 606.58 -1.85702 -0.856454 0
M  V30 6097 H 604.735 -1.96735 -3.33728 0
M  V30 6098 H 605.149 -4.17505 -3.17474 0
M  V30 6099 H 606.623 -3.1426 -4.53811 0
M  V30 6100 H 607.1 -1.49638 -4.12922 0
M  V30 6101 H 607.706 -2.85412 -3.1531 0
M  V30 6102 N 606.021 0.929856 -1.27246 0
M  V30 6103 C 607.267 1.6798 -1.13625 0
M  V30 6104 C 607.6 1.91586 0.317589 0
M  V30 6105 O 606.875 1.50467 1.23247 0
M  V30 6106 C 607.158 3.04766 -1.91806 0
M  V30 6107 C 607.011 2.88415 -3.45162 0
M  V30 6108 C 608.33 4.05063 -1.72082 0
M  V30 6109 H 605.449 0.609632 -0.414147 0
M  V30 6110 H 608.091 1.0792 -1.56376 0
M  V30 6111 H 606.241 3.56034 -1.55474 0
M  V30 6112 H 607.913 2.44282 -3.91311 0
M  V30 6113 H 606.156 2.23802 -3.71611 0
M  V30 6114 H 606.827 3.85482 -3.95105 0
M  V30 6115 H 609.303 3.62798 -2.03757 0
M  V30 6116 H 608.179 4.98765 -2.29182 0
M  V30 6117 H 608.44 4.37021 -0.668206 0
M  V30 6118 N 607.499 1.09233 1.13605 0
M  V30 6119 C 608.748 0.82205 1.84188 0
M  V30 6120 C 609.061 -0.654548 1.84323 0
M  V30 6121 O 610.267 -1.04029 2.50779 0
M  V30 6122 C 608.723 1.42066 3.30674 0
M  V30 6123 C 608.331 2.92965 3.38933 0
M  V30 6124 C 610.075 1.22924 4.06313 0
M  V30 6125 C 607.982 3.45922 4.79679 0
M  V30 6126 H 606.912 0.303854 0.690064 0
M  V30 6127 H 609.563 1.31479 1.28006 0
M  V30 6128 H 607.945 0.855613 3.86646 0
M  V30 6129 H 609.119 3.55679 2.92966 0
M  V30 6130 H 607.434 3.11118 2.76757 0
M  V30 6131 H 610.031 1.59945 5.10217 0
M  V30 6132 H 610.374 0.169726 4.15954 0
M  V30 6133 H 610.907 1.76168 3.56665 0
M  V30 6134 H 607.646 4.51484 4.75229 0
M  V30 6135 H 607.166 2.87971 5.26149 0
M  V30 6136 H 608.845 3.43009 5.48592 0
M  V30 6137 N 608.977 -1.30795 0.87923 0
M  V30 6138 C 610.205 -2.00527 0.509548 0
M  V30 6139 C 610.62 -1.65944 -0.90045 0
M  V30 6140 O 609.977 -0.893525 -1.5913 0
M  V30 6141 C 610.028 -3.55276 0.667943 0
M  V30 6142 O 609.749 -3.88625 2.02242 0
M  V30 6143 C 611.25 -4.4228 0.300494 0
M  V30 6144 H 608.47 -0.641261 0.197549 0
M  V30 6145 H 611.014 -1.66813 1.18295 0
M  V30 6146 H 609.169 -3.87377 0.0419843 0
M  V30 6147 H 609.583 -4.83334 2.03688 0
M  V30 6148 H 611.057 -5.50061 0.462242 0
M  V30 6149 H 611.534 -4.32556 -0.76106 0
M  V30 6150 H 612.14 -4.15613 0.902536 0
M  V30 6151 N 610.455 -0.639598 -1.44038 0
M  V30 6152 C 611.871 -0.305953 -1.5664 0
M  V30 6153 C 612.071 1.19055 -1.62567 0
M  V30 6154 O 611.127 1.97492 -1.57331 0
M  V30 6155 C 612.44 -1.00533 -2.83397 0
M  V30 6156 C 613.988 -0.984278 -2.97121 0
M  V30 6157 C 614.463 -1.66428 -4.26691 0
M  V30 6158 N 615.954 -1.63127 -4.33525 0
M  V30 6159 C 616.689 -2.12629 -5.32519 0
M  V30 6160 N 616.185 -2.70359 -6.3787 0
M  V30 6161 N 617.978 -2.03208 -5.24083 0
M  V30 6162 H 610.129 -1.6109 -1.38434 0
M  V30 6163 H 612.392 -0.676672 -0.663942 0
M  V30 6164 H 612.098 -2.06034 -2.85032 0
M  V30 6165 H 611.972 -0.548362 -3.73193 0
M  V30 6166 H 614.359 0.0622792 -2.95034 0
M  V30 6167 H 614.44 -1.47981 -2.08651 0
M  V30 6168 H 614.084 -2.71034 -4.29538 0
M  V30 6169 H 614.014 -1.14351 -5.14034 0
M  V30 6170 H 616.505 -1.20987 -3.58009 0
M  V30 6171 H 616.818 -3.05842 -7.09704 0
M  V30 6172 H 615.163 -2.74414 -6.38531 0
M  V30 6173 H 618.354 -1.57823 -4.40692 0
M  V30 6174 H 618.527 -2.42097 -6.01077 0
M  V30 6175 N 611.933 1.52934 -0.380664 0
M  V30 6176 C 612.88 2.26197 0.458641 0
M  V30 6177 C 613.85 1.27462 1.06502 0
M  V30 6178 O 615.035 1.56274 1.09467 0
M  V30 6179 C 612.175 3.06571 1.58456 0
M  V30 6180 C 611.288 4.20222 1.00189 0
M  V30 6181 C 610.423 4.88007 2.09815 0
M  V30 6182 C 609.462 5.93665 1.49092 0
M  V30 6183 N 608.599 6.55081 2.52613 0
M  V30 6184 H 613.439 2.975 -0.172595 0
M  V30 6185 H 610.976 1.4678 -0.0969426 0
M  V30 6186 H 612.934 3.51455 2.24801 0
M  V30 6187 H 611.564 2.37494 2.18624 0
M  V30 6188 H 610.616 3.79714 0.228292 0
M  V30 6189 H 611.928 4.96102 0.518064 0
M  V30 6190 H 611.082 5.36151 2.83948 0
M  V30 6191 H 609.821 4.11632 2.61555 0
M  V30 6192 H 608.826 5.44868 0.7348 0
M  V30 6193 H 610.051 6.71969 0.981582 0
M  V30 6194 H 607.997 5.8155 3.03538 0
M  V30 6195 H 607.914 7.26548 2.08961 0
M  V30 6196 H 609.182 7.07871 3.26402 0
M  V30 6197 N 613.412 0.11024 1.57214 0
M  V30 6198 C 614.375 -0.828808 2.1369 0
M  V30 6199 C 615.375 -1.20059 1.06969 0
M  V30 6200 O 616.565 -1.12754 1.32786 0
M  V30 6201 C 613.697 -2.11959 2.66994 0
M  V30 6202 H 614.89 -0.338146 2.97988 0
M  V30 6203 H 612.443 -0.138913 1.55681 0
M  V30 6204 H 613.178 -2.65476 1.8626 0
M  V30 6205 H 612.963 -1.86258 3.45037 0
M  V30 6206 H 614.453 -2.79105 3.10629 0
M  V30 6207 N 614.89 -1.56749 -0.16351 0
M  V30 6208 C 616.137 -1.82434 -0.878866 0
M  V30 6209 C 616.465 -0.688557 -1.81904 0
M  V30 6210 O 615.72 0.323644 -1.93005 0
M  V30 6211 C 616.019 -3.14342 -1.70071 0
M  V30 6212 C 615.685 -4.41647 -0.908775 0
M  V30 6213 C 614.347 -4.76224 -0.690236 0
M  V30 6214 C 616.699 -5.19998 -0.353815 0
M  V30 6215 C 614.027 -5.86624 0.0942374 0
M  V30 6216 C 616.379 -6.3122 0.41761 0
M  V30 6217 C 615.043 -6.64358 0.646879 0
M  V30 6218 H 614.313 -0.667574 -0.3216 0
M  V30 6219 H 616.96 -1.90963 -0.14337 0
M  V30 6220 H 615.265 -3.0119 -2.50583 0
M  V30 6221 H 616.962 -3.31426 -2.25738 0
M  V30 6222 H 613.552 -4.1453 -1.08916 0
M  V30 6223 H 617.736 -4.93673 -0.509975 0
M  V30 6224 H 612.992 -6.10751 0.281529 0
M  V30 6225 H 617.166 -6.91133 0.854849 0
M  V30 6226 H 614.793 -7.49742 1.25662 0
M  V30 6227 N 616.368 0.432326 -1.51554 0
M  V30 6228 C 617.616 1.17901 -1.64146 0
M  V30 6229 C 617.937 1.91604 -0.362367 0
M  V30 6230 O 617.207 1.85764 0.621968 0
M  V30 6231 H 615.787 0.438206 -0.604966 0
M  V30 6232 H 618.449 0.495172 -1.88505 0
M  V30 6233 H 617.545 1.90584 -2.47152 0
M  V30 6234 N 617.846 1.41785 0.688094 0
M  V30 6235 C 619.094 1.41264 1.4453 0
M  V30 6236 C 619.415 0.0252946 1.94984 0
M  V30 6237 O 618.685 -0.934081 1.72197 0
M  V30 6238 H 617.265 0.519998 0.536294 0
M  V30 6239 H 619.927 1.7709 0.813941 0
M  V30 6240 H 619.023 2.10439 2.30482 0
M  V30 6241 N 619.324 -0.923095 1.27737 0
M  V30 6242 C 620.287 -2.00587 1.10894 0
M  V30 6243 C 621.287 -1.60718 0.0514927 0
M  V30 6244 O 622.477 -1.71658 0.296481 0
M  V30 6245 C 619.609 -3.33829 0.690717 0
M  V30 6246 H 620.802 -2.16959 2.07048 0
M  V30 6247 H 618.355 -1.10451 1.1059 0
M  V30 6248 H 619.09 -3.23157 -0.272 0
M  V30 6249 H 618.875 -3.64125 1.45448 0
M  V30 6250 H 620.365 -4.13336 0.595252 0
M  V30 6251 N 620.802 -1.09834 -1.13024 0
M  V30 6252 C 622.032 -0.857657 -1.87957 0
M  V30 6253 C 622.44 0.595008 -1.796 0
M  V30 6254 O 621.783 1.42158 -1.16347 0
M  V30 6255 C 621.845 -1.21949 -3.38185 0
M  V30 6256 C 621.509 -2.67791 -3.7032 0
M  V30 6257 C 622.506 -3.66036 -3.69207 0
M  V30 6258 C 620.191 -3.04019 -3.99847 0
M  V30 6259 C 622.185 -4.98533 -3.9717 0
M  V30 6260 C 619.872 -4.36706 -4.27471 0
M  V30 6261 C 620.87 -5.33772 -4.26118 0
M  V30 6262 O 620.558 -6.64072 -4.53061 0
M  V30 6263 H 620.29 -0.308009 -0.601753 0
M  V30 6264 H 622.844 -1.46496 -1.43973 0
M  V30 6265 H 621.074 -0.555249 -3.82693 0
M  V30 6266 H 622.763 -0.957281 -3.9445 0
M  V30 6267 H 623.529 -3.39392 -3.46465 0
M  V30 6268 H 619.408 -2.29096 -4.00045 0
M  V30 6269 H 622.952 -5.74288 -3.96029 0
M  V30 6270 H 618.849 -4.63091 -4.49685 0
M  V30 6271 H 619.617 -6.69608 -4.7071 0
M  V30 6272 N 622.28 1.30327 -0.886154 0
M  V30 6273 C 623.557 1.90922 -0.425217 0
M  V30 6274 C 623.937 1.80533 1.09413 0
M  V30 6275 O 623.285 1.2233 1.92996 0
M  V30 6276 C 623.495 3.36529 -0.924638 0
M  V30 6277 C 624.843 4.13598 -0.960305 0
M  V30 6278 O 625.867 3.45377 -0.871382 0
M  V30 6279 O 624.726 5.35482 -1.09184 0
M  V30 6280 H 621.82 0.81668 -0.130238 0
M  V30 6281 H 624.366 1.38886 -0.975132 0
M  V30 6282 H 623.138 3.38181 -1.96849 0
M  V30 6283 H 622.761 3.96021 -0.353955 0
M  V30 6284 N 623.758 0.647228 1.43697 0
M  V30 6285 C 625.004 0.158422 2.0218 0
M  V30 6286 C 625.337 -1.22233 1.50907 0
M  V30 6287 O 624.612 -1.81478 0.699702 0
M  V30 6288 C 624.895 0.1627 3.59732 0
M  V30 6289 C 624.748 1.57694 4.21251 0
M  V30 6290 C 626.067 -0.504138 4.37203 0
M  V30 6291 H 623.186 0.059042 0.734631 0
M  V30 6292 H 625.828 0.826772 1.71069 0
M  V30 6293 H 623.978 -0.406414 3.86368 0
M  V30 6294 H 625.65 2.19618 4.05667 0
M  V30 6295 H 623.893 2.12603 3.7813 0
M  V30 6296 H 624.564 1.53183 5.3032 0
M  V30 6297 H 627.04 -0.0199841 4.16095 0
M  V30 6298 H 625.916 -0.470394 5.46881 0
M  V30 6299 H 626.177 -1.57726 4.13007 0
M  V30 6300 N 625.236 -1.5273 0.388769 0
M  V30 6301 C 626.169 -2.22861 -0.490752 0
M  V30 6302 C 627.147 -1.22912 -1.06449 0
M  V30 6303 O 628.331 -1.51896 -1.11624 0
M  V30 6304 C 625.458 -2.94141 -1.67925 0
M  V30 6305 C 624.504 -4.08355 -1.23081 0
M  V30 6306 S 625.337 -5.35077 -0.212786 0
M  V30 6307 C 626.493 -6.09879 -1.40708 0
M  V30 6308 H 626.726 -2.97115 0.104787 0
M  V30 6309 H 624.259 -1.53428 0.172956 0
M  V30 6310 H 626.217 -3.35818 -2.36085 0
M  V30 6311 H 624.878 -2.19568 -2.24608 0
M  V30 6312 H 624.071 -4.57328 -2.11818 0
M  V30 6313 H 623.673 -3.68688 -0.628121 0
M  V30 6314 H 625.965 -6.36018 -2.33424 0
M  V30 6315 H 626.908 -7.01586 -0.958271 0
M  V30 6316 H 627.316 -5.40646 -1.62364 0
M  V30 6317 N 626.714 -0.118576 -1.57153 0
M  V30 6318 C 627.962 0.538461 -1.94795 0
M  V30 6319 C 628.283 1.67243 -1.00274 0
M  V30 6320 O 627.553 1.95811 -0.0589692 0
M  V30 6321 H 626.133 0.201904 -0.719197 0
M  V30 6322 H 628.795 -0.187418 -1.93997 0
M  V30 6323 H 627.891 0.933315 -2.97818 0
M  V30 6324 N 628.193 1.56834 0.155195 0
M  V30 6325 C 629.418 1.87412 0.888337 0
M  V30 6326 C 629.843 0.70671 1.74319 0
M  V30 6327 O 629.201 -0.343892 1.78009 0
M  V30 6328 C 629.249 3.1652 1.72765 0
M  V30 6329 O 628.353 2.99877 2.83103 0
M  V30 6330 H 627.694 0.615983 0.247914 0
M  V30 6331 H 630.224 2.04061 0.148478 0
M  V30 6332 H 630.234 3.48334 2.12433 0
M  V30 6333 H 628.909 4.01094 1.09985 0
M  V30 6334 H 627.486 2.79453 2.46902 0
M  V30 6335 N 629.671 -0.424282 1.51781 0
M  V30 6336 C 630.618 -1.51591 1.74037 0
M  V30 6337 C 631.588 -1.55556 0.582358 0
M  V30 6338 O 632.773 -1.72364 0.818245 0
M  V30 6339 C 629.913 -2.89188 1.8832 0
M  V30 6340 C 629.026 -2.9465 3.1592 0
M  V30 6341 C 628.161 -4.23452 3.20721 0
M  V30 6342 C 627.2 -4.22831 4.42584 0
M  V30 6343 N 626.337 -5.43178 4.44862 0
M  V30 6344 H 631.177 -1.31917 2.67212 0
M  V30 6345 H 628.714 -0.640599 1.32419 0
M  V30 6346 H 630.672 -3.69044 1.94583 0
M  V30 6347 H 629.302 -3.07392 0.985402 0
M  V30 6348 H 628.354 -2.07378 3.18902 0
M  V30 6349 H 629.666 -2.90055 4.05795 0
M  V30 6350 H 628.82 -5.1169 3.25973 0
M  V30 6351 H 627.559 -4.30722 2.28757 0
M  V30 6352 H 626.564 -3.32984 4.37495 0
M  V30 6353 H 627.789 -4.17213 5.35826 0
M  V30 6354 H 625.735 -5.51145 3.55775 0
M  V30 6355 H 625.652 -5.40515 5.28563 0
M  V30 6356 H 626.92 -6.33412 4.54324 0
M  V30 6357 N 631.149 -1.42148 -0.680565 0
M  V30 6358 C 632.099 -1.41634 -1.78672 0
M  V30 6359 C 633.083 -0.288494 -1.58293 0
M  V30 6360 O 634.275 -0.530295 -1.68869 0
M  V30 6361 C 631.404 -1.31558 -3.17092 0
M  V30 6362 C 630.49 -2.49265 -3.43115 0
M  V30 6363 N 630.881 -3.74702 -3.39753 0
M  V30 6364 C 629.179 -2.43401 -3.73727 0
M  V30 6365 C 629.88 -4.52854 -3.651 0
M  V30 6366 N 628.856 -3.83181 -3.85582 0
M  V30 6367 H 632.658 -2.3652 -1.74458 0
M  V30 6368 H 630.172 -1.36415 -0.881171 0
M  V30 6369 H 632.169 -1.29272 -3.96351 0
M  V30 6370 H 630.829 -0.376696 -3.22508 0
M  V30 6371 H 631.84 -4.07378 -3.19787 0
M  V30 6372 H 628.517 -1.58062 -3.86423 0
M  V30 6373 H 629.907 -5.61827 -3.6851 0
M  V30 6374 N 632.627 0.916307 -1.28225 0
M  V30 6375 C 633.557 2.0352 -1.14464 0
M  V30 6376 C 634.538 1.70045 -0.0430844 0
M  V30 6377 O 635.723 1.92954 -0.219619 0
M  V30 6378 C 632.853 3.37889 -0.803027 0
M  V30 6379 C 631.807 3.85516 -1.85908 0
M  V30 6380 C 631.133 5.1682 -1.37116 0
M  V30 6381 C 632.433 4.07655 -3.26519 0
M  V30 6382 H 634.127 2.1529 -2.08064 0
M  V30 6383 H 631.673 1.03446 -1.00174 0
M  V30 6384 H 633.626 4.15654 -0.693537 0
M  V30 6385 H 632.35 3.26164 0.168674 0
M  V30 6386 H 631.009 3.09953 -1.95767 0
M  V30 6387 H 630.657 5.01497 -0.38859 0
M  V30 6388 H 630.357 5.49657 -2.07728 0
M  V30 6389 H 631.881 5.97143 -1.27484 0
M  V30 6390 H 633.295 4.75953 -3.19596 0
M  V30 6391 H 631.692 4.51818 -3.94943 0
M  V30 6392 H 632.762 3.12553 -3.70727 0
M  V30 6393 N 634.105 1.10431 1.1244 0
M  V30 6394 C 635.353 0.845045 1.83585 0
M  V30 6395 C 635.674 -0.631168 1.84503 0
M  V30 6396 O 634.944 -1.45825 1.30813 0
M  V30 6397 H 633.524 0.309628 0.679809 0
M  V30 6398 H 636.186 1.39458 1.36153 0
M  V30 6399 H 635.282 1.20786 2.8778 0
M  V30 6400 N 635.583 -1.29855 0.893053 0
M  V30 6401 C 636.546 -2.26183 0.370687 0
M  V30 6402 C 637.546 -1.53108 -0.491385 0
M  V30 6403 O 638.736 -1.71643 -0.297386 0
M  V30 6404 C 635.868 -3.37633 -0.470827 0
M  V30 6405 H 637.061 -2.73903 1.22135 0
M  V30 6406 H 634.614 -1.41183 0.67061 0
M  V30 6407 H 635.349 -2.95241 -1.34175 0
M  V30 6408 H 635.134 -3.91825 0.146784 0
M  V30 6409 H 636.624 -4.09313 -0.827825 0
M  V30 6410 N 637.061 -0.65484 -1.43351 0
M  V30 6411 C 638.338 -0.0987371 -1.95351 0
M  V30 6412 C 638.718 1.38161 -1.59608 0
M  V30 6413 O 638.066 2.10791 -0.882021 0
M  V30 6414 C 638.276 -0.346684 -3.47274 0
M  V30 6415 C 639.624 -0.25249 -4.23849 0
M  V30 6416 O 640.648 -0.279332 -3.55103 0
M  V30 6417 O 639.507 -0.177584 -5.46211 0
M  V30 6418 H 636.601 0.0086829 -0.826954 0
M  V30 6419 H 639.147 -0.728189 -1.53282 0
M  V30 6420 H 637.919 -1.37296 -3.66423 0
M  V30 6421 H 637.542 0.315757 -3.96344 0
M  V30 6422 N 638.539 1.52521 -0.396863 0
M  V30 6423 C 639.469 2.29582 0.425941 0
M  V30 6424 C 640.45 1.33281 1.05689 0
M  V30 6425 O 641.635 1.62181 1.06823 0
M  V30 6426 C 638.765 3.10821 1.54943 0
M  V30 6427 C 637.719 4.15069 1.04413 0
M  V30 6428 C 637.045 4.84578 2.26028 0
M  V30 6429 C 638.345 5.22191 0.106767 0
M  V30 6430 H 640.039 2.98612 -0.217045 0
M  V30 6431 H 637.585 1.43611 -0.105826 0
M  V30 6432 H 639.538 3.63492 2.13193 0
M  V30 6433 H 638.262 2.39538 2.22011 0
M  V30 6434 H 636.921 3.63389 0.484118 0
M  V30 6435 H 636.569 4.09835 2.91623 0
M  V30 6436 H 636.269 5.55043 1.92876 0
M  V30 6437 H 637.793 5.40056 2.84906 0
M  V30 6438 H 639.207 5.70176 0.597685 0
M  V30 6439 H 637.604 5.99947 -0.135352 0
M  V30 6440 H 638.674 4.77531 -0.842134 0
M  V30 6441 N 640.017 0.126909 1.57088 0
M  V30 6442 C 640.965 -0.837618 2.16995 0
M  V30 6443 C 641.959 -1.26974 1.12133 0
M  V30 6444 O 643.165 -1.24056 1.30423 0
M  V30 6445 H 639.54 -0.288256 0.694559 0
M  V30 6446 H 641.511 -0.307957 2.96807 0
M  V30 6447 C 640.26 -2.07474 2.79016 0
M  V30 6448 H 639.583 -1.75117 3.59408 0
M  V30 6449 H 641.023 -2.72949 3.24461 0
M  V30 6450 C 639.482 -2.86967 1.76498 0
M  V30 6451 O 640.012 -3.82625 1.22316 0
M  V30 6452 N 638.218 -2.51111 1.46258 0
M  V30 6453 H 637.765 -1.73389 1.90509 0
M  V30 6454 H 637.723 -3.04594 0.779085 0
M  V30 6455 N 641.495 -1.56914 -0.146875 0
M  V30 6456 C 642.425 -2.01308 -1.1831 0
M  V30 6457 C 643.406 -0.892664 -1.44795 0
M  V30 6458 O 644.591 -1.16048 -1.55713 0
M  V30 6459 C 641.721 -2.3938 -2.51624 0
M  V30 6460 C 640.675 -3.54608 -2.3966 0
M  V30 6461 C 640.001 -3.78493 -3.77686 0
M  V30 6462 C 641.301 -4.87269 -1.88058 0
M  V30 6463 H 642.995 -2.88123 -0.813964 0
M  V30 6464 H 640.541 -1.38615 -0.3901 0
M  V30 6465 H 642.494 -2.69037 -3.24341 0
M  V30 6466 H 641.218 -1.49502 -2.90373 0
M  V30 6467 H 639.877 -3.25116 -1.69396 0
M  V30 6468 H 639.525 -2.85866 -4.13871 0
M  V30 6469 H 639.225 -4.56039 -3.70543 0
M  V30 6470 H 640.749 -4.10576 -4.51951 0
M  V30 6471 H 642.163 -5.15644 -2.50568 0
M  V30 6472 H 640.56 -5.68622 -1.91805 0
M  V30 6473 H 641.63 -4.77634 -0.836277 0
M  V30 6474 N 642.974 0.416227 -1.52004 0
M  V30 6475 C 643.937 1.48926 -1.74223 0
M  V30 6476 C 644.937 1.48693 -0.612119 0
M  V30 6477 O 646.127 1.50343 -0.879921 0
M  V30 6478 C 643.259 2.88372 -1.81809 0
M  V30 6479 H 644.452 1.3052 -2.70008 0
M  V30 6480 H 642.005 0.646271 -1.42313 0
M  V30 6481 H 642.74 3.12157 -0.879135 0
M  V30 6482 H 642.525 2.89944 -2.6396 0
M  V30 6483 H 644.015 3.66173 -2.00766 0
M  V30 6484 N 644.452 1.42507 0.673017 0
M  V30 6485 C 645.698 1.44282 1.43367 0
M  V30 6486 C 646.053 0.0588239 1.9231 0
M  V30 6487 O 645.346 -0.919288 1.68106 0
M  V30 6488 C 645.54 2.40351 2.64511 0
M  V30 6489 C 645.369 3.87955 2.27423 0
M  V30 6490 C 644.139 4.56476 2.16697 0
M  V30 6491 C 646.337 4.7833 1.88957 0
M  V30 6492 N 644.319 5.89099 1.72731 0
M  V30 6493 C 645.69 6.00073 1.55923 0
M  V30 6494 C 647.745 4.65769 1.75965 0
M  V30 6495 C 646.448 7.10652 1.112 0
M  V30 6496 C 648.474 5.76332 1.32647 0
M  V30 6497 C 647.836 6.97188 1.00538 0
M  V30 6498 H 643.935 0.583134 0.521036 0
M  V30 6499 H 646.519 1.78547 0.776481 0
M  V30 6500 H 644.69 2.08145 3.27918 0
M  V30 6501 H 646.422 2.32694 3.31113 0
M  V30 6502 H 643.177 4.10712 2.35823 0
M  V30 6503 H 643.601 6.59446 1.53166 0
M  V30 6504 H 648.243 3.72808 1.99435 0
M  V30 6505 H 645.961 8.0346 0.864768 0
M  V30 6506 H 649.547 5.68625 1.23112 0
M  V30 6507 H 648.427 7.81287 0.675283 0
M  V30 6508 N 645.93 -0.909495 1.28709 0
M  V30 6509 C 647.341 -1.47419 1.14563 0
M  V30 6510 C 647.692 -1.94432 -0.262832 0
M  V30 6511 O 646.817 -1.82842 -1.15748 0
M  V30 6512 C 647.412 -2.67933 2.07358 0
M  V30 6513 C 645.971 -3.20568 1.97264 0
M  V30 6514 C 645.118 -1.93269 1.98852 0
M  V30 6515 H 648.069 -0.721787 1.41336 0
M  V30 6516 H 648.09 -3.43339 1.64007 0
M  V30 6517 H 647.602 -2.33685 3.09859 0
M  V30 6518 H 645.703 -3.59531 0.978157 0
M  V30 6519 H 645.816 -3.85529 2.84436 0
M  V30 6520 H 644.18 -2.10553 1.43317 0
M  V30 6521 H 644.963 -1.61312 3.0304 0
M  V30 6522 N 647.408 -1.11026 -1.11852 0
M  V30 6523 C 648.636 -0.878818 -1.87308 0
M  V30 6524 C 649.051 0.57111 -1.79955 0
M  V30 6525 O 648.408 1.39409 -1.17777 0
M  V30 6526 C 648.459 -1.3264 -3.36287 0
M  V30 6527 O 648.18 -2.71948 -3.43476 0
M  V30 6528 C 649.681 -1.12974 -4.28663 0
M  V30 6529 H 646.901 -0.315015 -0.592458 0
M  V30 6530 H 649.445 -1.47649 -1.41492 0
M  V30 6531 H 647.6 -0.772269 -3.79625 0
M  V30 6532 H 648.014 -2.91241 -4.3621 0
M  V30 6533 H 649.488 -1.49198 -5.31454 0
M  V30 6534 H 649.965 -0.0689127 -4.39146 0
M  V30 6535 H 650.571 -1.67064 -3.91113 0
M  V30 6536 N 648.886 1.2938 -0.899927 0
M  V30 6537 C 649.849 2.25983 -0.382677 0
M  V30 6538 C 650.849 1.53366 0.483259 0
M  V30 6539 O 652.039 1.71798 0.28828 0
M  V30 6540 C 649.171 3.37878 0.452915 0
M  V30 6541 H 650.364 2.73252 -1.23586 0
M  V30 6542 H 647.917 1.40825 -0.678088 0
M  V30 6543 H 648.652 2.95949 1.32608 0
M  V30 6544 H 648.437 3.91742 -0.167562 0
M  V30 6545 H 649.927 4.09746 0.806107 0
M  V30 6546 N 650.364 0.662433 1.43002 0
M  V30 6547 C 651.296 -0.062326 2.29115 0
M  V30 6548 C 652.309 -0.777926 1.43011 0
M  V30 6549 O 653.498 -0.634146 1.66856 0
M  V30 6550 C 650.598 -1.11163 3.2015 0
M  V30 6551 C 649.771 -0.472327 4.34842 0
M  V30 6552 C 648.83 -1.41974 5.06685 0
M  V30 6553 O 647.856 -0.924795 5.61637 0
M  V30 6554 N 649.058 -2.75345 5.11043 0
M  V30 6555 H 651.823 0.676838 2.91957 0
M  V30 6556 H 649.384 0.505907 1.53793 0
M  V30 6557 H 651.376 -1.74643 3.65078 0
M  V30 6558 H 649.946 -1.75266 2.58845 0
M  V30 6559 H 649.166 0.341751 3.92716 0
M  V30 6560 H 650.454 -0.0264381 5.08793 0
M  V30 6561 H 649.852 -3.18108 4.67786 0
M  V30 6562 H 648.409 -3.34105 5.59658 0
M  V30 6563 N 651.842 -1.52309 0.404946 0
M  V30 6564 C 653.091 -2.00952 -0.173529 0
M  V30 6565 C 653.404 -1.29512 -1.46581 0
M  V30 6566 O 654.61 -1.6895 -2.12528 0
M  V30 6567 C 653.066 -3.58097 -0.359801 0
M  V30 6568 C 652.674 -4.38449 0.920138 0
M  V30 6569 C 654.418 -4.14984 -0.893794 0
M  V30 6570 C 652.325 -5.87227 0.701285 0
M  V30 6571 H 651.255 -0.750871 -0.0686244 0
M  V30 6572 H 653.906 -1.75687 0.529749 0
M  V30 6573 H 652.288 -3.79675 -1.12531 0
M  V30 6574 H 653.462 -4.28633 1.69147 0
M  V30 6575 H 651.777 -3.92859 1.38024 0
M  V30 6576 H 654.374 -5.23813 -1.0735 0
M  V30 6577 H 654.717 -3.72072 -1.8673 0
M  V30 6578 H 655.25 -3.97358 -0.187453 0
M  V30 6579 H 651.989 -6.34491 1.64624 0
M  V30 6580 H 651.509 -5.99792 -0.0308288 0
M  V30 6581 H 653.188 -6.46096 0.341846 0
M  V30 6582 N 653.32 -0.135238 -1.57019 0
M  V30 6583 C 654.283 0.794707 -2.14981 0
M  V30 6584 C 655.283 1.18342 -1.08866 0
M  V30 6585 O 656.473 1.10627 -1.34563 0
M  V30 6586 C 653.605 2.07685 -2.70333 0
M  V30 6587 H 654.798 0.290696 -2.98488 0
M  V30 6588 H 652.351 0.114128 -1.55883 0
M  V30 6589 H 653.086 2.6248 -1.9046 0
M  V30 6590 H 652.871 1.80745 -3.47957 0
M  V30 6591 H 654.361 2.74127 -3.1503 0
M  V30 6592 N 654.798 1.5699 0.138552 0
M  V30 6593 C 656.044 1.84081 0.85099 0
M  V30 6594 C 656.377 0.718107 1.80435 0
M  V30 6595 O 655.652 -0.277633 1.92508 0
M  V30 6596 C 655.935 3.21699 1.61808 0
M  V30 6597 C 655.788 4.44544 0.685633 0
M  V30 6598 C 657.107 3.5664 2.57868 0
M  V30 6599 H 654.226 0.669592 0.307922 0
M  V30 6600 H 656.868 1.89646 0.11588 0
M  V30 6601 H 655.018 3.17086 2.24474 0
M  V30 6602 H 656.69 4.61248 0.0693179 0
M  V30 6603 H 654.933 4.338 -0.00421993 0
M  V30 6604 H 655.604 5.3746 1.25858 0
M  V30 6605 H 658.08 3.61918 2.05316 0
M  V30 6606 H 656.956 4.53946 3.08584 0
M  V30 6607 H 657.217 2.83036 3.39622 0
M  V30 6608 N 656.276 -0.40816 1.52223 0
M  V30 6609 C 657.209 -1.51834 1.70357 0
M  V30 6610 C 658.187 -1.52973 0.551171 0
M  V30 6611 O 659.371 -1.71667 0.778642 0
M  V30 6612 C 656.498 -2.90362 1.74378 0
M  V30 6613 C 655.544 -3.0713 2.95928 0
M  V30 6614 S 656.377 -2.80342 4.56255 0
M  V30 6615 C 657.533 -4.21098 4.63063 0
M  V30 6616 H 657.766 -1.36223 2.64255 0
M  V30 6617 H 655.299 -0.599798 1.42274 0
M  V30 6618 H 657.257 -3.70199 1.77379 0
M  V30 6619 H 655.918 -3.03314 0.816063 0
M  V30 6620 H 655.111 -4.08482 2.95226 0
M  V30 6621 H 654.713 -2.3516 2.90819 0
M  V30 6622 H 657.005 -5.14749 4.40499 0
M  V30 6623 H 657.948 -4.26823 5.65002 0
M  V30 6624 H 658.356 -4.06114 3.92086 0
M  V30 6625 N 657.755 -1.42862 -0.66545 0
M  V30 6626 C 659.003 -1.43546 -1.42264 0
M  V30 6627 C 659.324 -0.0563116 -1.94919 0
M  V30 6628 O 658.594 0.906568 -1.73661 0
M  V30 6629 H 657.174 -0.528464 -0.527953 0
M  V30 6630 H 659.836 -1.78363 -0.785665 0
M  V30 6631 H 658.932 -2.14079 -2.27105 0
M  V30 6632 N 659.233 0.902656 -1.29189 0
M  V30 6633 C 660.196 1.98797 -1.14071 0
M  V30 6634 C 661.196 1.60615 -0.0770549 0
M  V30 6635 O 662.386 1.71165 -0.323753 0
M  V30 6636 C 659.518 3.32688 -0.743739 0
M  V30 6637 H 660.711 2.13637 -2.10473 0
M  V30 6638 H 658.264 1.08678 -1.12334 0
M  V30 6639 H 658.999 3.23549 0.220554 0
M  V30 6640 H 658.784 3.61765 -1.51223 0
M  V30 6641 H 660.274 4.12337 -0.660935 0
M  V30 6642 N 660.711 1.11618 1.11262 0
M  V30 6643 C 661.643 0.734015 2.17129 0
M  V30 6644 C 662.656 -0.235243 1.61091 0
M  V30 6645 O 663.845 -0.0178597 1.78491 0
M  V30 6646 C 660.945 0.0643682 3.38839 0
M  V30 6647 C 660.118 1.06092 4.24339 0
M  V30 6648 C 659.177 0.420482 5.24517 0
M  V30 6649 O 658.203 1.07495 5.58957 0
M  V30 6650 N 659.405 -0.815828 5.74739 0
M  V30 6651 H 662.17 1.64492 2.50524 0
M  V30 6652 H 659.731 1.00664 1.26801 0
M  V30 6653 H 661.723 -0.375851 4.02951 0
M  V30 6654 H 660.293 -0.749147 3.03491 0
M  V30 6655 H 659.513 1.67903 3.56654 0
M  V30 6656 H 660.801 1.73507 4.78302 0
M  V30 6657 H 660.199 -1.36668 5.48943 0
M  V30 6658 H 658.756 -1.199 6.40677 0
M  V30 6659 N 662.189 -1.289 0.906776 0
M  V30 6660 C 663.437 -1.94883 0.535266 0
M  V30 6661 C 663.758 -1.71784 -0.922791 0
M  V30 6662 O 663.028 -1.05359 -1.65156 0
M  V30 6663 H 661.608 -0.721109 0.194962 0
M  V30 6664 H 664.27 -1.57018 1.15461 0
M  V30 6665 H 663.366 -3.03591 0.723821 0
M  V30 6666 N 663.667 -0.670007 -1.42649 0
M  V30 6667 C 664.63 0.00204659 -2.292 0
M  V30 6668 C 665.63 0.733817 -1.4308 0
M  V30 6669 O 666.82 0.57254 -1.64522 0
M  V30 6670 C 663.952 1.01359 -3.25483 0
M  V30 6671 H 665.145 -0.759696 -2.90118 0
M  V30 6672 H 662.698 -0.432105 -1.50208 0
M  V30 6673 H 663.433 1.80399 -2.69493 0
M  V30 6674 H 663.218 0.492323 -3.88997 0
M  V30 6675 H 664.708 1.4824 -3.90403 0
M  V30 6676 N 665.145 1.52092 -0.413018 0
M  V30 6677 C 666.391 2.02154 0.161737 0
M  V30 6678 C 666.724 1.29789 1.44459 0
M  V30 6679 O 665.999 0.405378 1.90229 0
M  V30 6680 C 666.282 3.5781 0.405463 0
M  V30 6681 C 666.135 4.40819 -0.894335 0
M  V30 6682 C 667.454 4.23821 1.18591 0
M  V30 6683 H 664.573 0.734769 0.0573077 0
M  V30 6684 H 667.215 1.81948 -0.547247 0
M  V30 6685 H 665.365 3.75158 1.0094 0
M  V30 6686 H 667.037 4.35175 -1.53039 0
M  V30 6687 H 665.28 4.06877 -1.50444 0
M  V30 6688 H 665.951 5.47819 -0.678144 0
M  V30 6689 H 668.427 4.10596 0.674573 0
M  V30 6690 H 667.303 5.32663 1.3252 0
M  V30 6691 H 667.564 3.83038 2.20758 0
M  V30 6692 N 666.623 0.143563 1.56945 0
M  V30 6693 C 667.571 -0.814556 2.17871 0
M  V30 6694 C 668.565 -1.25778 1.13474 0
M  V30 6695 O 669.771 -1.22666 1.31731 0
M  V30 6696 H 666.146 -0.280873 0.697578 0
M  V30 6697 H 668.117 -0.276459 2.97117 0
M  V30 6698 C 666.866 -2.04503 2.81201 0
M  V30 6699 H 666.189 -1.71296 3.61245 0
M  V30 6700 H 667.629 -2.69493 3.27337 0
M  V30 6701 C 666.088 -2.85079 1.79532 0
M  V30 6702 O 666.618 -3.81306 1.26368 0
M  V30 6703 N 664.824 -2.49546 1.48913 0
M  V30 6704 H 664.371 -1.71359 1.92338 0
M  V30 6705 H 664.329 -3.03751 0.811348 0
M  V30 6706 N 668.101 -1.57061 -0.130224 0
M  V30 6707 C 669.35 -1.83446 -0.838488 0
M  V30 6708 C 669.663 -0.727468 -1.81569 0
M  V30 6709 O 670.869 -0.877394 -2.56932 0
M  V30 6710 C 669.325 -3.25201 -1.54182 0
M  V30 6711 C 668.933 -4.4388 -0.606178 0
M  V30 6712 C 670.677 -3.60844 -2.23588 0
M  V30 6713 C 668.584 -5.76661 -1.31209 0
M  V30 6714 H 667.514 -0.684185 -0.316871 0
M  V30 6715 H 670.165 -1.83273 -0.0912059 0
M  V30 6716 H 668.547 -3.1981 -2.33533 0
M  V30 6717 H 669.721 -4.60545 0.153308 0
M  V30 6718 H 668.036 -4.16395 -0.0196705 0
M  V30 6719 H 670.633 -4.57313 -2.77072 0
M  V30 6720 H 670.976 -2.87724 -3.00867 0
M  V30 6721 H 671.509 -3.67971 -1.51137 0
M  V30 6722 H 668.248 -6.52922 -0.580823 0
M  V30 6723 H 667.768 -5.63902 -2.04387 0
M  V30 6724 H 669.447 -6.20035 -1.8484 0
M  V30 6725 N 669.579 0.400081 -1.52437 0
M  V30 6726 C 670.509 1.4947 -1.7939 0
M  V30 6727 C 671.49 1.57383 -0.645329 0
M  V30 6728 O 672.675 1.72511 -0.891826 0
M  V30 6729 C 669.805 2.87201 -1.95276 0
M  V30 6730 C 668.759 2.94134 -3.10917 0
M  V30 6731 C 668.085 4.34207 -3.1204 0
M  V30 6732 C 669.385 2.64791 -4.50203 0
M  V30 6733 H 671.079 1.27165 -2.71052 0
M  V30 6734 H 668.625 0.610312 -1.30427 0
M  V30 6735 H 670.578 3.63772 -2.12715 0
M  V30 6736 H 669.302 3.10819 -1.00294 0
M  V30 6737 H 667.961 2.20009 -2.93243 0
M  V30 6738 H 667.609 4.54848 -2.14761 0
M  V30 6739 H 667.309 4.39768 -3.89715 0
M  V30 6740 H 668.833 5.127 -3.31619 0
M  V30 6741 H 670.247 3.31083 -4.68035 0
M  V30 6742 H 668.644 2.81717 -5.29864 0
M  V30 6743 H 669.714 1.60184 -4.57678 0
M  V30 6744 N 671.057 1.43213 0.657864 0
M  V30 6745 C 672.007 1.44459 1.76396 0
M  V30 6746 C 672.991 0.313641 1.57814 0
M  V30 6747 O 674.183 0.557094 1.68004 0
M  V30 6748 C 671.312 1.36586 3.14959 0
M  V30 6749 C 670.398 2.54692 3.39106 0
M  V30 6750 N 670.789 3.80059 3.33749 0
M  V30 6751 C 669.087 2.49316 3.69807 0
M  V30 6752 C 669.788 4.58606 3.57849 0
M  V30 6753 N 668.764 3.89267 3.79437 0
M  V30 6754 H 672.566 2.39265 1.70673 0
M  V30 6755 H 670.08 1.378 0.859357 0
M  V30 6756 H 672.077 1.35561 3.94245 0
M  V30 6757 H 670.737 0.427956 3.21867 0
M  V30 6758 H 671.748 4.12414 3.13266 0
M  V30 6759 H 668.425 1.6419 3.83859 0
M  V30 6760 H 669.815 5.67619 3.59525 0
M  V30 6761 N 672.536 -0.895792 1.29666 0
M  V30 6762 C 673.952 -1.17726 1.07763 0
M  V30 6763 C 674.152 -2.00794 -0.168576 0
M  V30 6764 O 673.208 -2.37213 -0.865244 0
M  V30 6765 C 674.521 -1.89441 2.33522 0
M  V30 6766 C 676.069 -2.02251 2.3888 0
M  V30 6767 C 676.544 -2.77378 3.64452 0
M  V30 6768 N 678.035 -2.8493 3.65198 0
M  V30 6769 C 678.77 -3.43606 4.59045 0
M  V30 6770 N 678.266 -4.03417 5.63228 0
M  V30 6771 N 680.059 -3.41317 4.46608 0
M  V30 6772 H 672.21 -0.341652 2.09634 0
M  V30 6773 H 674.473 -0.213865 0.923561 0
M  V30 6774 H 674.179 -1.35842 3.24407 0
M  V30 6775 H 674.053 -2.89893 2.41334 0
M  V30 6776 H 676.44 -2.55025 1.4848 0
M  V30 6777 H 676.521 -1.0092 2.3505 0
M  V30 6778 H 676.165 -2.25279 4.55205 0
M  V30 6779 H 676.095 -3.79062 3.65541 0
M  V30 6780 H 678.586 -2.42453 2.89871 0
M  V30 6781 H 678.899 -4.46224 6.30955 0
M  V30 6782 H 677.244 -4.01868 5.67033 0
M  V30 6783 H 680.435 -2.93812 3.64407 0
M  V30 6784 H 680.608 -3.86751 5.1993 0
M  V30 6785 N 674.014 -1.12206 -1.10668 0
M  V30 6786 C 675.43 -0.857619 -1.346 0
M  V30 6787 C 675.63 0.513542 -1.94846 0
M  V30 6788 O 674.686 1.26273 -2.18658 0
M  V30 6789 C 675.999 -1.97212 -2.26998 0
M  V30 6790 C 677.547 -2.00272 -2.40542 0
M  V30 6791 C 678.022 -3.10948 -3.36267 0
M  V30 6792 N 679.513 -3.10375 -3.43834 0
M  V30 6793 C 680.248 -3.92651 -4.17867 0
M  V30 6794 N 679.744 -4.84911 -4.94807 0
M  V30 6795 N 681.537 -3.80798 -4.1346 0
M  V30 6796 H 673.688 -2.00558 -0.699306 0
M  V30 6797 H 675.951 -0.872612 -0.370477 0
M  V30 6798 H 675.657 -2.96002 -1.89936 0
M  V30 6799 H 675.531 -1.87521 -3.27286 0
M  V30 6800 H 677.918 -1.02103 -2.76874 0
M  V30 6801 H 677.999 -2.14037 -1.40077 0
M  V30 6802 H 677.643 -4.09348 -3.00661 0
M  V30 6803 H 677.573 -2.94421 -4.36605 0
M  V30 6804 H 680.064 -2.43536 -2.88961 0
M  V30 6805 H 680.377 -5.44207 -5.48688 0
M  V30 6806 H 678.722 -4.88926 -4.93939 0
M  V30 6807 H 681.913 -3.08058 -3.52445 0
M  V30 6808 H 682.086 -4.4515 -4.70898 0
M  V30 6809 N 675.492 1.28418 -0.913599 0
M  V30 6810 C 676.72 1.99106 -0.562536 0
M  V30 6811 C 677.135 1.68273 0.856137 0
M  V30 6812 O 676.492 0.935401 1.56705 0
M  V30 6813 C 676.543 3.5338 -0.761903 0
M  V30 6814 O 676.264 3.83127 -2.12475 0
M  V30 6815 C 677.765 4.41328 -0.417651 0
M  V30 6816 H 674.985 0.635798 -0.214481 0
M  V30 6817 H 677.529 1.63618 -1.22676 0
M  V30 6818 H 675.684 3.8713 -0.144676 0
M  V30 6819 H 676.098 4.77763 -2.16431 0
M  V30 6820 H 677.572 5.48642 -0.607919 0
M  V30 6821 H 678.049 4.34422 0.646108 0
M  V30 6822 H 678.655 4.13074 -1.01241 0
M  V30 6823 N 676.97 0.677563 1.42291 0
M  V30 6824 C 678.219 0.198173 2.00724 0
M  V30 6825 C 678.532 -1.20325 1.54211 0
M  V30 6826 O 679.738 -1.77916 2.05081 0
M  V30 6827 C 678.194 0.303432 3.58619 0
M  V30 6828 C 677.802 1.70909 4.14119 0
M  V30 6829 C 679.546 -0.117103 4.24338 0
M  V30 6830 C 677.453 1.76696 5.64387 0
M  V30 6831 H 676.383 0.070329 0.750713 0
M  V30 6832 H 679.034 0.843147 1.62982 0
M  V30 6833 H 677.416 -0.409482 3.93877 0
M  V30 6834 H 678.59 2.44931 3.90315 0
M  V30 6835 H 676.905 2.07771 3.6086 0
M  V30 6836 H 679.502 -0.0940471 5.34617 0
M  V30 6837 H 679.845 -1.15283 4.00019 0
M  V30 6838 H 680.378 0.5449 3.9405 0
M  V30 6839 H 677.117 2.7826 5.93508 0
M  V30 6840 H 676.637 1.07034 5.90173 0
M  V30 6841 H 678.316 1.52166 6.28852 0
M  V30 6842 N 678.448 -1.51871 0.421078 0
M  V30 6843 C 679.411 -2.25914 -0.386712 0
M  V30 6844 C 680.411 -1.28733 -0.963555 0
M  V30 6845 O 681.601 -1.52579 -0.840556 0
M  V30 6846 C 678.733 -3.03853 -1.54551 0
M  V30 6847 H 679.926 -2.98754 0.261978 0
M  V30 6848 H 677.479 -1.5533 0.173862 0
M  V30 6849 H 678.214 -2.35392 -2.23072 0
M  V30 6850 H 677.999 -3.75215 -1.13824 0
M  V30 6851 H 679.489 -3.59984 -2.11663 0
M  V30 6852 N 679.926 -0.151884 -1.56866 0
M  V30 6853 C 681.203 0.543328 -1.87902 0
M  V30 6854 C 681.583 1.82636 -1.05864 0
M  V30 6855 O 680.931 2.28028 -0.146868 0
M  V30 6856 C 681.141 0.804056 -3.39611 0
M  V30 6857 C 682.489 1.14267 -4.08935 0
M  V30 6858 O 683.513 0.893248 -3.44818 0
M  V30 6859 O 682.372 1.61229 -5.22176 0
M  V30 6860 H 679.466 0.277724 -0.778973 0
M  V30 6861 H 682.012 -0.188862 -1.68646 0
M  V30 6862 H 680.784 -0.103772 -3.91162 0
M  V30 6863 H 680.407 1.59025 -3.64413 0
M  V30 6864 N 681.404 1.57128 0.121893 0
M  V30 6865 C 682.367 1.99197 1.13372 0
M  V30 6866 C 683.367 0.881728 1.3447 0
M  V30 6867 O 684.557 1.14783 1.31036 0
M  V30 6868 C 681.689 2.32963 2.4888 0
M  V30 6869 H 682.882 2.89788 0.772204 0
M  V30 6870 H 680.435 1.51952 0.366093 0
M  V30 6871 H 681.17 1.45243 2.89957 0
M  V30 6872 H 680.955 3.13934 2.34921 0
M  V30 6873 H 682.445 2.66261 3.21706 0
M  V30 6874 N 682.882 -0.391992 1.52647 0
M  V30 6875 C 684.13 -1.13507 1.67214 0
M  V30 6876 C 684.451 -1.90575 0.41304 0
M  V30 6877 O 683.721 -1.87348 -0.572498 0
M  V30 6878 H 682.301 -0.422013 0.616372 0
M  V30 6879 H 684.963 -0.44502 1.89751 0
M  V30 6880 H 684.059 -1.83964 2.52118 0
M  V30 6881 N 684.36 -1.4356 -0.65026 0
M  V30 6882 C 685.637 -1.35811 -1.40765 0
M  V30 6883 C 686.017 -0.00736379 -2.11099 0
M  V30 6884 O 685.365 1.00932 -2.05 0
M  V30 6885 C 685.575 -2.54332 -2.3899 0
M  V30 6886 C 686.923 -2.97551 -3.02901 0
M  V30 6887 O 687.947 -2.544 -2.49317 0
M  V30 6888 O 686.806 -3.72311 -4.00059 0
M  V30 6889 H 683.9 -0.536861 -0.629054 0
M  V30 6890 H 686.446 -1.55615 -0.676919 0
M  V30 6891 H 685.218 -3.44274 -1.85986 0
M  V30 6892 H 684.841 -2.36643 -3.19509 0
M  V30 6893 N 685.838 0.888903 -1.30139 0
M  V30 6894 C 687.115 1.62145 -1.094 0
M  V30 6895 C 687.495 2.08041 0.358091 0
M  V30 6896 O 686.843 1.84438 1.34888 0
M  V30 6897 C 687.053 2.794 -2.09133 0
M  V30 6898 C 688.401 3.49826 -2.40638 0
M  V30 6899 O 689.425 2.89583 -2.07412 0
M  V30 6900 O 688.284 4.58457 -2.97455 0
M  V30 6901 H 685.378 0.712475 -0.41989 0
M  V30 6902 H 687.924 0.936023 -1.41551 0
M  V30 6903 H 686.696 2.42762 -3.06891 0
M  V30 6904 H 686.319 3.55643 -1.77776 0
M  V30 6905 N 687.317 1.12792 1.10072 0
M  V30 6906 C 688.28 0.802264 2.14701 0
M  V30 6907 C 689.28 -0.18515 1.59731 0
M  V30 6908 O 690.47 0.041109 1.74151 0
M  V30 6909 C 687.602 0.19285 3.40354 0
M  V30 6910 H 688.795 1.72932 2.45019 0
M  V30 6911 H 686.348 0.931662 1.25498 0
M  V30 6912 H 687.083 -0.743748 3.15656 0
M  V30 6913 H 686.868 0.903827 3.81541 0
M  V30 6914 H 688.358 -0.0183704 4.17596 0
M  V30 6915 N 688.795 -1.27931 0.920396 0
M  V30 6916 C 689.705 -2.30824 0.419212 0
M  V30 6917 C 690.721 -1.66767 -0.496461 0
M  V30 6918 O 691.897 -1.97763 -0.38104 0
M  V30 6919 C 688.962 -3.45158 -0.326601 0
M  V30 6920 C 688.023 -4.24754 0.623098 0
M  V30 6921 C 687.256 -5.33629 -0.0872172 0
M  V30 6922 O 687.479 -5.55204 -1.30784 0
M  V30 6923 O 686.413 -5.99091 0.580875 0
M  V30 6924 H 690.239 -2.75716 1.27337 0
M  V30 6925 H 687.824 -1.32747 0.685465 0
M  V30 6926 H 689.706 -4.14716 -0.747559 0
M  V30 6927 H 688.381 -3.02336 -1.15648 0
M  V30 6928 H 687.288 -3.57759 1.09359 0
M  V30 6929 H 688.621 -4.71272 1.41998 0
M  V30 6930 N 690.273 -0.685099 -1.4193 0
M  V30 6931 C 691.236 -0.0222632 -2.29189 0
M  V30 6932 C 692.236 0.7186 -1.4385 0
M  V30 6933 O 693.426 0.555058 -1.6512 0
M  V30 6934 C 690.558 0.979013 -3.2654 0
M  V30 6935 H 691.751 -0.790424 -2.89296 0
M  V30 6936 H 689.304 -0.448012 -1.49742 0
M  V30 6937 H 690.039 1.77531 -2.71392 0
M  V30 6938 H 689.824 0.451037 -3.89497 0
M  V30 6939 H 691.314 1.44091 -3.91954 0
M  V30 6940 N 691.751 1.51645 -0.429126 0
M  V30 6941 C 692.979 2.06433 0.138994 0
M  V30 6942 C 693.394 1.29735 1.37165 0
M  V30 6943 O 692.751 0.354638 1.79021 0
M  V30 6944 C 692.802 3.58439 0.469452 0
M  V30 6945 O 692.523 4.32238 -0.714273 0
M  V30 6946 C 694.024 4.29712 1.08914 0
M  V30 6947 H 691.244 0.6709 0.0115608 0
M  V30 6948 H 693.788 1.9532 -0.605843 0
M  V30 6949 H 691.943 3.69494 1.16419 0
M  V30 6950 H 692.357 5.22704 -0.433633 0
M  V30 6951 H 693.831 5.37182 1.27042 0
M  V30 6952 H 694.308 3.87473 2.06788 0
M  V30 6953 H 694.914 4.2308 0.434028 0
M  V30 6954 N 693.229 0.160201 1.56784 0
M  V30 6955 C 694.645 -0.196089 1.58391 0
M  V30 6956 C 694.845 -1.63689 1.17508 0
M  V30 6957 O 693.901 -2.36613 0.881506 0
M  V30 6958 C 695.214 0.0746449 3.00607 0
M  V30 6959 C 696.762 0.0119762 3.12998 0
M  V30 6960 C 697.237 0.255551 4.57286 0
M  V30 6961 N 698.728 0.202938 4.62755 0
M  V30 6962 C 699.463 0.365731 5.72232 0
M  V30 6963 N 698.959 0.586972 6.90309 0
M  V30 6964 N 700.752 0.302411 5.61286 0
M  V30 6965 H 692.903 1.1008 1.81648 0
M  V30 6966 H 695.166 0.436779 0.841384 0
M  V30 6967 H 694.872 1.07231 3.34954 0
M  V30 6968 H 694.746 -0.638802 3.71751 0
M  V30 6969 H 697.133 -0.976254 2.78484 0
M  V30 6970 H 697.214 0.75796 2.44313 0
M  V30 6971 H 696.858 1.24094 4.92507 0
M  V30 6972 H 696.788 -0.510912 5.24116 0
M  V30 6973 H 699.279 0.0371328 3.77882 0
M  V30 6974 H 699.592 0.700941 7.69615 0
M  V30 6975 H 697.937 0.623453 6.92198 0
M  V30 6976 H 701.128 0.130238 4.67919 0
M  V30 6977 H 701.301 0.432712 6.46554 0
M  V30 6978 N 694.707 -1.5719 -0.113559 0
M  V30 6979 C 695.67 -1.99796 -1.12314 0
M  V30 6980 C 696.67 -0.888847 -1.34001 0
M  V30 6981 O 697.86 -1.15476 -1.30426 0
M  V30 6982 C 694.992 -2.34279 -2.47641 0
M  V30 6983 H 696.185 -2.90193 -0.756825 0
M  V30 6984 H 693.738 -1.52144 -0.358029 0
M  V30 6985 H 694.473 -1.46778 -2.89183 0
M  V30 6986 H 694.258 -3.15175 -2.33253 0
M  V30 6987 H 695.748 -2.67963 -3.2029 0
M  V30 6988 N 696.185 0.383891 -1.52853 0
M  V30 6989 C 697.601 0.724316 -1.42218 0
M  V30 6990 C 697.801 1.93943 -0.546654 0
M  V30 6991 O 696.857 2.5249 -0.0220562 0
M  V30 6992 C 698.17 0.954635 -2.85144 0
M  V30 6993 C 699.718 1.05579 -2.94656 0
M  V30 6994 C 700.193 1.3187 -4.38605 0
M  V30 6995 N 701.684 1.38681 -4.41952 0
M  V30 6996 C 702.419 1.60699 -5.50421 0
M  V30 6997 N 701.915 1.80154 -6.68967 0
M  V30 6998 N 703.708 1.6292 -5.37972 0
M  V30 6999 H 695.859 -0.4156 -2.08294 0
M  V30 7000 H 698.122 -0.123776 -0.939885 0
M  V30 7001 H 697.828 0.133829 -3.51445 0
M  V30 7002 H 697.702 1.86788 -3.27704 0
M  V30 7003 H 700.089 1.86716 -2.2852 0
M  V30 7004 H 700.17 0.120338 -2.55517 0
M  V30 7005 H 699.814 0.512416 -5.05309 0
M  V30 7006 H 699.744 2.26708 -4.75301 0
M  V30 7007 H 702.235 1.25334 -3.56511 0
M  V30 7008 H 702.548 1.96476 -7.47407 0
M  V30 7009 H 700.893 1.77368 -6.71986 0
M  V30 7010 H 704.084 1.47276 -4.44328 0
M  V30 7011 H 704.257 1.79739 -6.22574 0
M  V30 7012 N 697.663 1.43903 0.642637 0
M  V30 7013 C 698.593 1.52697 1.76652 0
M  V30 7014 C 699.574 0.380816 1.65782 0
M  V30 7015 O 700.759 0.599432 1.84717 0
M  V30 7016 C 697.889 1.45975 3.15133 0
M  V30 7017 C 696.843 2.58949 3.40778 0
M  V30 7018 C 696.169 2.37279 4.79169 0
M  V30 7019 C 697.469 4.01153 3.34475 0
M  V30 7020 H 699.163 2.46766 1.69549 0
M  V30 7021 H 696.709 1.18767 0.814279 0
M  V30 7022 H 698.662 1.5073 3.93521 0
M  V30 7023 H 697.386 0.484162 3.22991 0
M  V30 7024 H 696.045 2.53564 2.64765 0
M  V30 7025 H 695.693 1.37939 4.83717 0
M  V30 7026 H 695.393 3.13016 4.97287 0
M  V30 7027 H 696.917 2.43834 5.59801 0
M  V30 7028 H 698.331 4.07968 4.02784 0
M  V30 7029 H 696.728 4.77001 3.64129 0
M  V30 7030 H 697.798 4.25539 2.32475 0
M  V30 7031 N 699.141 -0.881989 1.30609 0
M  V30 7032 C 700.39 -1.62878 1.18969 0
M  V30 7033 C 700.703 -1.93946 -0.253859 0
M  V30 7034 O 701.909 -2.67008 -0.491813 0
M  V30 7035 C 700.365 -2.93573 2.0819 0
M  V30 7036 C 699.973 -2.70034 3.57471 0
M  V30 7037 C 701.717 -3.71543 2.0532 0
M  V30 7038 C 699.624 -3.96563 4.38739 0
M  V30 7039 H 698.554 -0.611092 0.441682 0
M  V30 7040 H 701.205 -0.976201 1.55379 0
M  V30 7041 H 699.587 -3.6014 1.64666 0
M  V30 7042 H 700.761 -2.11949 4.09163 0
M  V30 7043 H 699.076 -2.05435 3.62195 0
M  V30 7044 H 701.673 -4.65386 2.63288 0
M  V30 7045 H 702.016 -4.03167 1.03739 0
M  V30 7046 H 702.549 -3.11842 2.46981 0
M  V30 7047 H 699.288 -3.70095 5.41027 0
M  V30 7048 H 698.808 -4.54142 3.9181 0
M  V30 7049 H 700.487 -4.64557 4.50329 0
M  V30 7050 N 700.619 -1.13374 -1.09472 0
M  V30 7051 C 701.551 -0.768466 -2.15933 0
M  V30 7052 C 702.564 0.209585 -1.61445 0
M  V30 7053 O 703.753 -0.010539 -1.78497 0
M  V30 7054 C 700.853 -0.118266 -3.38694 0
M  V30 7055 C 700.026 -1.12829 -4.22597 0
M  V30 7056 C 699.085 -0.503875 -5.23782 0
M  V30 7057 O 698.111 -1.16374 -5.57177 0
M  V30 7058 N 699.313 0.724288 -5.75964 0
M  V30 7059 H 702.078 -1.68457 -2.47876 0
M  V30 7060 H 699.639 -1.02668 -1.25183 0
M  V30 7061 H 701.631 0.311698 -4.03498 0
M  V30 7062 H 700.201 0.700769 -3.04644 0
M  V30 7063 H 699.421 -1.73556 -3.53938 0
M  V30 7064 H 700.709 -1.81095 -4.75481 0
M  V30 7065 H 700.107 1.27918 -5.51048 0
M  V30 7066 H 698.664 1.09692 -6.42504 0
M  V30 7067 N 702.098 1.27442 -0.927168 0
M  V30 7068 C 703.008 2.30599 -0.431448 0
M  V30 7069 C 704.024 1.67028 0.48761 0
M  V30 7070 O 705.2 1.97962 0.370546 0
M  V30 7071 C 702.265 3.45327 0.308292 0
M  V30 7072 C 701.326 4.24418 -0.645615 0
M  V30 7073 C 700.559 5.33667 0.0589164 0
M  V30 7074 O 700.782 5.5589 1.27838 0
M  V30 7075 O 699.716 5.98774 -0.612638 0
M  V30 7076 H 703.542 2.75036 -1.28797 0
M  V30 7077 H 701.127 1.32382 -0.692495 0
M  V30 7078 H 703.009 4.15107 0.725555 0
M  V30 7079 H 701.684 3.02945 1.14043 0
M  V30 7080 H 700.591 3.57174 -1.11255 0
M  V30 7081 H 701.924 4.70512 -1.44496 0
M  V30 7082 N 703.576 0.692616 1.41565 0
M  V30 7083 C 704.806 0.230943 2.05305 0
M  V30 7084 C 705.214 -1.12379 1.52209 0
M  V30 7085 O 704.557 -1.71281 0.663968 0
M  V30 7086 C 704.619 0.107894 3.59338 0
M  V30 7087 C 704.283 1.39419 4.35214 0
M  V30 7088 C 705.28 2.33143 4.64694 0
M  V30 7089 C 702.965 1.64674 4.74539 0
M  V30 7090 C 704.959 3.50385 5.32456 0
M  V30 7091 C 702.646 2.82202 5.42038 0
M  V30 7092 C 703.644 3.74881 5.70923 0
M  V30 7093 O 703.332 4.90351 6.37033 0
M  V30 7094 H 703.064 0.105708 0.667684 0
M  V30 7095 H 705.618 0.94488 1.82376 0
M  V30 7096 H 703.848 -0.661785 3.80995 0
M  V30 7097 H 705.537 -0.316213 4.04666 0
M  V30 7098 H 706.303 2.14887 4.34797 0
M  V30 7099 H 702.182 0.934007 4.51439 0
M  V30 7100 H 705.726 4.22743 5.54918 0
M  V30 7101 H 701.623 3.00376 5.71353 0
M  V30 7102 H 702.391 4.90128 6.55528 0
M  V30 7103 N 705.054 -1.51416 0.437162 0
M  V30 7104 C 705.964 -2.31493 -0.380537 0
M  V30 7105 C 706.98 -1.40399 -1.02782 0
M  V30 7106 O 708.156 -1.73471 -1.02323 0
M  V30 7107 C 705.221 -3.1413 -1.46709 0
M  V30 7108 C 704.282 -4.21003 -0.839953 0
M  V30 7109 C 703.515 -4.9969 -1.87473 0
M  V30 7110 O 703.738 -4.79008 -3.09689 0
M  V30 7111 O 702.672 -5.8379 -1.46536 0
M  V30 7112 H 706.498 -3.02469 0.273183 0
M  V30 7113 H 704.083 -1.48059 0.199706 0
M  V30 7114 H 705.965 -3.65505 -2.09724 0
M  V30 7115 H 704.64 -2.45919 -2.10489 0
M  V30 7116 H 703.547 -3.73706 -0.171752 0
M  V30 7117 H 704.88 -4.91587 -0.245638 0
M  V30 7118 N 706.532 -0.168513 -1.56696 0
M  V30 7119 C 707.809 0.523367 -1.88468 0
M  V30 7120 C 708.189 1.81503 -1.07796 0
M  V30 7121 O 707.537 2.27859 -0.171045 0
M  V30 7122 C 707.747 0.767991 -3.40445 0
M  V30 7123 C 709.095 1.09924 -4.10124 0
M  V30 7124 O 710.119 0.856625 -3.45746 0
M  V30 7125 O 708.978 1.55681 -5.23856 0
M  V30 7126 H 706.072 0.269447 -0.781874 0
M  V30 7127 H 708.618 -0.206739 -1.68436 0
M  V30 7128 H 707.39 -0.145254 -3.9103 0
M  V30 7129 H 707.013 1.55151 -3.66079 0
M  V30 7130 N 708.01 1.57248 0.105221 0
M  V30 7131 C 708.973 2.00388 1.11252 0
M  V30 7132 C 709.973 0.89594 1.33527 0
M  V30 7133 O 711.163 1.16166 1.29811 0
M  V30 7134 C 708.295 2.35589 2.46395 0
M  V30 7135 H 709.488 2.90591 0.741424 0
M  V30 7136 H 707.041 1.52332 0.349956 0
M  V30 7137 H 707.776 1.4831 2.884 0
M  V30 7138 H 707.561 3.16408 2.31578 0
M  V30 7139 H 709.051 2.69658 3.18864 0
M  V30 7140 N 709.488 -0.375779 1.53054 0
M  V30 7141 C 710.418 -1.46598 1.81745 0
M  V30 7142 C 711.399 -1.56337 0.670286 0
M  V30 7143 O 712.584 -1.71071 0.919158 0
M  V30 7144 C 709.714 -2.84058 1.99821 0
M  V30 7145 C 708.668 -2.8915 3.15557 0
M  V30 7146 C 707.994 -4.29187 3.18908 0
M  V30 7147 C 709.294 -2.57595 4.54359 0
M  V30 7148 H 710.988 -1.22837 2.73041 0
M  V30 7149 H 708.534 -0.589485 1.31381 0
M  V30 7150 H 710.487 -3.60342 2.18475 0
M  V30 7151 H 709.211 -3.09184 1.05226 0
M  V30 7152 H 707.87 -2.15316 2.96706 0
M  V30 7153 H 707.518 -4.51374 2.2197 0
M  V30 7154 H 707.218 -4.33512 3.96662 0
M  V30 7155 H 708.742 -5.07359 3.39734 0
M  V30 7156 H 710.156 -3.23595 4.73243 0
M  V30 7157 H 708.553 -2.73252 5.34279 0
M  V30 7158 H 709.623 -1.52882 4.60169 0
M  V30 7159 N 710.966 -1.44241 -0.634997 0
M  V30 7160 C 711.896 -1.53632 -1.7584 0
M  V30 7161 C 712.877 -0.389603 -1.65578 0
M  V30 7162 O 714.062 -0.609219 -1.84397 0
M  V30 7163 C 711.192 -1.47644 -3.14354 0
M  V30 7164 C 710.146 -2.60752 -3.394 0
M  V30 7165 C 709.472 -2.39817 -4.77904 0
M  V30 7166 C 710.772 -4.02921 -3.32343 0
M  V30 7167 H 712.466 -2.47662 -1.68238 0
M  V30 7168 H 710.012 -1.19197 -0.807969 0
M  V30 7169 H 711.965 -1.52815 -3.92716 0
M  V30 7170 H 710.689 -0.501284 -3.2273 0
M  V30 7171 H 709.348 -2.54965 -2.63417 0
M  V30 7172 H 708.996 -1.40502 -4.82978 0
M  V30 7173 H 708.696 -3.15649 -4.9562 0
M  V30 7174 H 710.22 -2.46799 -5.585 0
M  V30 7175 H 711.634 -4.10098 -4.00615 0
M  V30 7176 H 710.031 -4.78925 -3.61595 0
M  V30 7177 H 711.101 -4.26766 -2.30215 0
M  V30 7178 N 712.444 0.87505 -1.31075 0
M  V30 7179 C 713.392 2.00317 -1.18219 0
M  V30 7180 C 714.386 1.69152 -0.0916872 0
M  V30 7181 O 715.592 1.7821 -0.253229 0
M  V30 7182 H 711.967 0.656981 -0.365895 0
M  V30 7183 H 713.938 2.08293 -2.13674 0
M  V30 7184 C 712.687 3.35821 -0.901095 0
M  V30 7185 H 712.01 3.6032 -1.73233 0
M  V30 7186 H 713.45 4.15366 -0.851295 0
M  V30 7187 C 711.909 3.34563 0.396114 0
M  V30 7188 O 712.439 3.75971 1.41452 0
M  V30 7189 N 710.645 2.87681 0.410832 0
M  V30 7190 H 710.192 2.54179 -0.418415 0
M  V30 7191 H 710.15 2.87223 1.27869 0
M  V30 7192 N 713.922 1.13953 1.08869 0
M  V30 7193 C 715.333 0.916649 1.62648 0
M  V30 7194 C 715.684 -0.545589 1.88462 0
M  V30 7195 O 714.809 -1.41351 1.63856 0
M  V30 7196 C 715.404 1.65751 2.95486 0
M  V30 7197 C 713.963 1.48034 3.46068 0
M  V30 7198 C 713.11 1.68305 2.20383 0
M  V30 7199 H 716.061 1.292 0.921572 0
M  V30 7200 H 716.082 1.11794 3.63707 0
M  V30 7201 H 715.594 2.72171 2.76667 0
M  V30 7202 H 713.695 0.439416 3.7 0
M  V30 7203 H 713.808 2.24719 4.23129 0
M  V30 7204 H 712.172 1.10833 2.29321 0
M  V30 7205 H 712.955 2.76057 2.04077 0
M  V30 7206 N 715.4 -1.26948 0.933913 0
M  V30 7207 C 716.63 -1.97898 0.593279 0
M  V30 7208 C 717.038 -1.69806 -0.834412 0
M  V30 7209 O 716.381 -0.958704 -1.56699 0
M  V30 7210 C 716.443 -3.51657 0.746825 0
M  V30 7211 C 716.107 -4.03384 2.14779 0
M  V30 7212 C 717.104 -4.15682 3.12257 0
M  V30 7213 C 714.789 -4.37577 2.46641 0
M  V30 7214 C 716.783 -4.61455 4.39702 0
M  V30 7215 C 714.47 -4.8304 3.7432 0
M  V30 7216 C 715.468 -4.94939 4.70664 0
M  V30 7217 O 715.156 -5.39403 5.96071 0
M  V30 7218 H 714.888 -0.63814 0.223055 0
M  V30 7219 H 717.442 -1.62608 1.2549 0
M  V30 7220 H 715.672 -3.8669 0.0280889 0
M  V30 7221 H 717.361 -4.03821 0.410328 0
M  V30 7222 H 718.127 -3.89519 2.88964 0
M  V30 7223 H 714.006 -4.27554 1.72391 0
M  V30 7224 H 717.55 -4.70658 5.14905 0
M  V30 7225 H 713.447 -5.08646 3.97429 0
M  V30 7226 H 714.215 -5.57641 5.99148 0
M  V30 7227 N 716.879 -0.700114 -1.41195 0
M  V30 7228 C 718.107 -0.242179 -2.05478 0
M  V30 7229 C 718.522 1.11029 -1.52702 0
M  V30 7230 O 717.879 1.69473 -0.677127 0
M  V30 7231 C 717.93 -0.196271 -3.60967 0
M  V30 7232 O 717.651 -1.49532 -4.11791 0
M  V30 7233 C 719.152 0.282102 -4.42401 0
M  V30 7234 H 716.372 -0.111749 -0.661629 0
M  V30 7235 H 718.916 -0.953975 -1.80885 0
M  V30 7236 H 717.071 0.46638 -3.84582 0
M  V30 7237 H 717.485 -1.38545 -5.05871 0
M  V30 7238 H 718.959 0.263093 -5.51373 0
M  V30 7239 H 719.436 1.32174 -4.1884 0
M  V30 7240 H 720.042 -0.349712 -4.2386 0
M  V30 7241 N 718.357 1.51182 -0.445186 0
M  V30 7242 C 719.32 2.26501 0.350722 0
M  V30 7243 C 720.32 1.3025 0.942952 0
M  V30 7244 O 721.51 1.53897 0.816175 0
M  V30 7245 C 718.642 3.06274 1.49697 0
M  V30 7246 H 719.835 2.98299 -0.309474 0
M  V30 7247 H 717.388 1.55034 -0.198551 0
M  V30 7248 H 718.123 2.38911 2.19299 0
M  V30 7249 H 717.908 3.76979 1.0784 0
M  V30 7250 H 719.398 3.63306 2.05909 0
M  V30 7251 N 719.835 0.176821 1.56605 0
M  V30 7252 C 720.798 -0.737429 2.17013 0
M  V30 7253 C 721.798 -1.15414 1.11965 0
M  V30 7254 O 722.988 -1.0702 1.37449 0
M  V30 7255 C 720.12 -2.00445 2.75744 0
M  V30 7256 H 721.313 -0.211455 2.99154 0
M  V30 7257 H 718.866 -0.0727582 1.56131 0
M  V30 7258 H 719.601 -2.57338 1.97352 0
M  V30 7259 H 719.386 -1.71456 3.52626 0
M  V30 7260 H 720.876 -2.65679 3.22187 0
M  V30 7261 N 721.313 -1.57302 -0.09688 0
M  V30 7262 C 722.223 -2.05258 -1.13606 0
M  V30 7263 C 723.239 -0.977137 -1.43972 0
M  V30 7264 O 724.415 -1.29018 -1.54649 0
M  V30 7265 C 721.48 -2.46593 -2.43706 0
M  V30 7266 C 720.541 -3.68322 -2.20538 0
M  V30 7267 C 719.774 -4.07676 -3.44435 0
M  V30 7268 O 719.997 -3.47141 -4.52603 0
M  V30 7269 O 718.931 -5.00641 -3.34129 0
M  V30 7270 H 722.757 -2.94069 -0.758752 0
M  V30 7271 H 720.342 -1.46164 -0.309263 0
M  V30 7272 H 722.224 -2.73814 -3.20318 0
M  V30 7273 H 720.899 -1.6092 -2.80867 0
M  V30 7274 H 719.806 -3.4622 -1.41713 0
M  V30 7275 H 721.139 -4.54769 -1.88271 0
M  V30 7276 N 722.791 0.367657 -1.53252 0
M  V30 7277 C 724.207 0.709191 -1.42978 0
M  V30 7278 C 724.407 1.93352 -0.567193 0
M  V30 7279 O 723.463 2.52453 -0.0488349 0
M  V30 7280 C 724.776 0.924338 -2.86141 0
M  V30 7281 C 726.324 1.02448 -2.95759 0
M  V30 7282 C 726.799 1.27211 -4.39979 0
M  V30 7283 N 728.29 1.33986 -4.43398 0
M  V30 7284 C 729.025 1.54852 -5.52095 0
M  V30 7285 N 728.521 1.73049 -6.7084 0
M  V30 7286 N 730.314 1.57205 -5.39669 0
M  V30 7287 H 722.465 -0.437669 -2.07842 0
M  V30 7288 H 724.728 -0.133737 -0.938519 0
M  V30 7289 H 724.434 0.0965455 -3.51567 0
M  V30 7290 H 724.308 1.83302 -3.29667 0
M  V30 7291 H 726.695 1.84282 -2.30487 0
M  V30 7292 H 726.776 0.0932301 -2.5563 0
M  V30 7293 H 726.42 0.458792 -5.05824 0
M  V30 7294 H 726.35 2.21654 -4.77679 0
M  V30 7295 H 728.841 1.21545 -3.5782 0
M  V30 7296 H 729.154 1.88538 -7.49449 0
M  V30 7297 H 727.499 1.70231 -6.7383 0
M  V30 7298 H 730.69 1.42555 -4.45865 0
M  V30 7299 H 730.863 1.73126 -6.24445 0
M  V30 7300 N 724.269 1.44576 0.627338 0
M  V30 7301 C 725.517 1.47267 1.38408 0
M  V30 7302 C 725.838 0.107971 1.94701 0
M  V30 7303 O 725.108 -0.860206 1.76004 0
M  V30 7304 H 723.688 0.542276 0.513756 0
M  V30 7305 H 726.35 1.80383 0.738099 0
M  V30 7306 H 725.446 2.20025 2.21349 0
M  V30 7307 N 725.747 -0.868086 1.31537 0
M  V30 7308 C 726.977 -1.65162 1.24118 0
M  V30 7309 C 727.385 -1.88187 -0.195558 0
M  V30 7310 O 726.728 -1.44154 -1.13866 0
M  V30 7311 C 726.79 -3.04119 1.91708 0
M  V30 7312 C 726.454 -3.04194 3.4105 0
M  V30 7313 C 727.451 -2.82016 4.36764 0
M  V30 7314 C 725.136 -3.25256 3.82772 0
M  V30 7315 C 727.13 -2.80881 5.72175 0
M  V30 7316 C 724.817 -3.23749 5.18295 0
M  V30 7317 C 725.815 -3.01589 6.12808 0
M  V30 7318 O 725.503 -2.9993 7.45853 0
M  V30 7319 H 725.235 -0.521597 0.430015 0
M  V30 7320 H 727.789 -1.09165 1.73989 0
M  V30 7321 H 726.019 -3.61849 1.36389 0
M  V30 7322 H 727.708 -3.64701 1.78179 0
M  V30 7323 H 728.474 -2.65525 4.05859 0
M  V30 7324 H 724.353 -3.41534 3.09638 0
M  V30 7325 H 727.897 -2.63503 6.45919 0
M  V30 7326 H 723.794 -3.39781 5.48834 0
M  V30 7327 H 724.562 -3.15979 7.55049 0
M  V30 7328 N 727.225 -1.14528 -1.08264 0
M  V30 7329 C 728.471 -0.91576 -1.80947 0
M  V30 7330 C 728.804 0.55623 -1.86064 0
M  V30 7331 O 728.079 1.41207 -1.33756 0
M  V30 7332 C 728.362 -1.51917 -3.26486 0
M  V30 7333 C 728.215 -3.06111 -3.2957 0
M  V30 7334 C 729.534 -1.19724 -4.23502 0
M  V30 7335 H 726.653 -0.334113 -0.656915 0
M  V30 7336 H 729.295 -1.41547 -1.26746 0
M  V30 7337 H 727.445 -1.0942 -3.72773 0
M  V30 7338 H 729.117 -3.57448 -2.91597 0
M  V30 7339 H 727.36 -3.40483 -2.688 0
M  V30 7340 H 728.031 -3.43438 -4.32151 0
M  V30 7341 H 730.507 -1.56467 -3.85561 0
M  V30 7342 H 729.383 -1.64575 -5.23647 0
M  V30 7343 H 729.644 -0.112771 -4.41956 0
M  V30 7344 N 728.703 1.26451 -0.940633 0
M  V30 7345 C 729.98 1.88947 -0.505811 0
M  V30 7346 C 730.36 1.85011 1.01657 0
M  V30 7347 O 729.708 1.30406 1.87634 0
M  V30 7348 C 729.918 3.32304 -1.06654 0
M  V30 7349 C 731.266 4.09153 -1.13486 0
M  V30 7350 O 732.29 3.41371 -1.01708 0
M  V30 7351 O 731.149 5.30369 -1.31797 0
M  V30 7352 H 728.243 0.810422 -0.164759 0
M  V30 7353 H 730.789 1.34625 -1.03316 0
M  V30 7354 H 729.561 3.29527 -2.11015 0
M  V30 7355 H 729.184 3.94164 -0.521603 0
M  V30 7356 N 730.181 0.707592 1.40822 0
M  V30 7357 C 731.144 0.0587224 2.29125 0
M  V30 7358 C 732.144 -0.695624 1.44975 0
M  V30 7359 O 733.334 -0.528718 1.65983 0
M  V30 7360 C 730.466 -0.926939 3.28056 0
M  V30 7361 H 731.659 0.836349 2.88002 0
M  V30 7362 H 729.212 0.471778 1.4901 0
M  V30 7363 H 729.947 -1.7319 2.74182 0
M  V30 7364 H 729.732 -0.389015 3.90165 0
M  V30 7365 H 731.222 -1.37837 3.94196 0
M  V30 7366 N 731.66 -1.50943 0.453197 0
M  V30 7367 C 732.906 -2.02512 -0.108082 0
M  V30 7368 C 733.239 -1.33574 -1.40967 0
M  V30 7369 O 732.514 -0.455671 -1.89087 0
M  V30 7370 C 732.797 -3.58759 -0.310453 0
M  V30 7371 C 732.65 -4.38293 1.0109 0
M  V30 7372 C 733.969 -4.26816 -1.07313 0
M  V30 7373 H 731.088 -0.73603 -0.0378064 0
M  V30 7374 H 733.73 -1.80433 0.595295 0
M  V30 7375 H 731.88 -3.77702 -0.909582 0
M  V30 7376 H 733.552 -4.30964 1.64523 0
M  V30 7377 H 731.795 -4.02745 1.61179 0
M  V30 7378 H 732.466 -5.45828 0.82315 0
M  V30 7379 H 734.942 -4.1224 -0.565473 0
M  V30 7380 H 733.818 -5.35989 -1.1835 0
M  V30 7381 H 734.079 -3.88757 -2.10525 0
M  V30 7382 N 733.138 -0.185124 -1.56509 0
M  V30 7383 C 734.387 0.456421 -1.96468 0
M  V30 7384 C 734.7 1.63448 -1.07444 0
M  V30 7385 O 735.906 2.34316 -1.37143 0
M  V30 7386 C 734.362 0.863404 -3.4939 0
M  V30 7387 C 733.97 -0.289815 -4.47062 0
M  V30 7388 C 735.714 1.47259 -3.98139 0
M  V30 7389 C 733.621 0.137571 -5.9124 0
M  V30 7390 H 732.551 0.17429 -0.733579 0
M  V30 7391 H 735.202 -0.275554 -1.81419 0
M  V30 7392 H 733.584 1.65176 -3.59907 0
M  V30 7393 H 734.758 -1.06728 -4.4827 0
M  V30 7394 H 733.073 -0.809851 -4.08449 0
M  V30 7395 H 735.67 1.80463 -5.03326 0
M  V30 7396 H 736.013 2.3755 -3.41871 0
M  V30 7397 H 736.546 0.748405 -3.90696 0
M  V30 7398 H 733.285 -0.730907 -6.51412 0
M  V30 7399 H 732.805 0.8801 -5.93308 0
M  V30 7400 H 734.484 0.576771 -6.44424 0
M  V30 7401 N 734.616 1.57351 0.0885366 0
M  V30 7402 C 735.549 1.97786 1.13825 0
M  V30 7403 C 736.527 0.852091 1.38485 0
M  V30 7404 O 737.711 1.11296 1.52137 0
M  V30 7405 C 734.838 2.30024 2.48609 0
M  V30 7406 C 733.884 3.52437 2.40189 0
M  V30 7407 S 734.717 5.03908 1.81209 0
M  V30 7408 C 735.873 5.39331 3.17605 0
M  V30 7409 H 736.106 2.86513 0.793587 0
M  V30 7410 H 733.639 1.51527 0.29646 0
M  V30 7411 H 735.597 2.49274 3.26148 0
M  V30 7412 H 734.258 1.41856 2.80242 0
M  V30 7413 H 733.451 3.72457 3.39546 0
M  V30 7414 H 733.053 3.32731 1.70781 0
M  V30 7415 H 735.345 5.36378 4.13891 0
M  V30 7416 H 736.288 6.4029 3.02381 0
M  V30 7417 H 736.696 4.6679 3.17438 0
M  V30 7418 N 736.094 -0.359525 1.53444 0
M  V30 7419 C 737.505 -0.936009 1.61542 0
M  V30 7420 C 737.856 -1.90069 0.486633 0
M  V30 7421 O 736.981 -2.12929 -0.386047 0
M  V30 7422 C 737.576 -1.70441 2.92806 0
M  V30 7423 C 736.135 -2.23015 3.03218 0
M  V30 7424 C 735.282 -1.04438 2.56881 0
M  V30 7425 H 738.233 -0.138134 1.58098 0
M  V30 7426 H 738.254 -2.56609 2.80948 0
M  V30 7427 H 737.766 -1.00205 3.74941 0
M  V30 7428 H 735.867 -2.96475 2.25684 0
M  V30 7429 H 735.98 -2.50481 4.08407 0
M  V30 7430 H 734.344 -1.41314 2.11902 0
M  V30 7431 H 735.127 -0.356905 3.4144 0
M  V30 7432 N 737.572 -1.44907 -0.619662 0
M  V30 7433 C 738.797 -1.52021 -1.41083 0
M  V30 7434 C 739.222 -0.14976 -1.87503 0
M  V30 7435 O 738.58 0.863303 -1.59426 0
M  V30 7436 C 738.628 -2.49911 -2.59955 0
M  V30 7437 O 737.732 -2.00857 -3.60181 0
M  V30 7438 H 737.073 -0.512912 -0.421684 0
M  V30 7439 H 739.603 -1.90149 -0.755282 0
M  V30 7440 H 739.613 -2.68323 -3.07354 0
M  V30 7441 H 738.288 -3.4945 -2.25516 0
M  V30 7442 H 736.865 -1.92265 -3.19513 0
M  V30 7443 N 739.05 0.861098 -1.31996 0
M  V30 7444 C 740.327 1.59788 -1.12814 0
M  V30 7445 C 740.707 2.08753 0.313882 0
M  V30 7446 O 740.055 1.87258 1.30946 0
M  V30 7447 C 740.265 2.74901 -2.15012 0
M  V30 7448 C 741.613 3.44643 -2.48004 0
M  V30 7449 O 742.637 2.85119 -2.13508 0
M  V30 7450 O 741.496 4.52044 -3.07113 0
M  V30 7451 H 738.59 0.703408 -0.434909 0
M  V30 7452 H 741.136 0.905788 -1.43505 0
M  V30 7453 H 739.908 2.36198 -3.11971 0
M  V30 7454 H 739.531 3.51792 -1.85279 0
M  V30 7455 N 740.528 1.15101 1.07655 0
M  V30 7456 C 741.756 0.947731 1.83918 0
M  V30 7457 C 742.171 -0.503927 1.81951 0
M  V30 7458 O 741.528 -1.34941 1.2287 0
M  V30 7459 C 741.579 1.4503 3.31132 0
M  V30 7460 O 741.3 2.84508 3.33146 0
M  V30 7461 C 742.801 1.28806 4.24174 0
M  V30 7462 H 740.021 0.336786 0.580358 0
M  V30 7463 H 742.565 1.52799 1.35914 0
M  V30 7464 H 740.72 0.912632 3.76497 0
M  V30 7465 H 741.134 3.0723 4.251 0
M  V30 7466 H 742.608 1.6882 5.25551 0
M  V30 7467 H 743.085 0.231851 4.38588 0
M  V30 7468 H 743.691 1.81465 3.84643 0
M  V30 7469 N 742.006 -1.2595 0.947325 0
M  V30 7470 C 743.422 -1.45737 0.650597 0
M  V30 7471 C 743.622 -1.85189 -0.794188 0
M  V30 7472 O 742.678 -1.97738 -1.57022 0
M  V30 7473 C 743.991 -2.53505 1.61728 0
M  V30 7474 C 745.539 -2.67351 1.62765 0
M  V30 7475 C 746.014 -3.78296 2.58179 0
M  V30 7476 N 747.505 -3.85696 2.56501 0
M  V30 7477 C 748.24 -4.71012 3.2701 0
M  V30 7478 N 747.736 -5.60669 4.06966 0
M  V30 7479 N 749.529 -4.64912 3.15932 0
M  V30 7480 H 741.68 -0.986327 1.8811 0
M  V30 7481 H 743.943 -0.494639 0.808725 0
M  V30 7482 H 743.649 -2.31357 2.6489 0
M  V30 7483 H 743.523 -3.51281 1.3741 0
M  V30 7484 H 745.91 -2.88869 0.603241 0
M  V30 7485 H 745.991 -1.69998 1.91139 0
M  V30 7486 H 745.635 -3.5753 3.60742 0
M  V30 7487 H 745.565 -4.75117 2.27093 0
M  V30 7488 H 748.056 -3.21601 1.98447 0
M  V30 7489 H 748.369 -6.22677 4.57704 0
M  V30 7490 H 746.714 -5.60402 4.11066 0
M  V30 7491 H 749.905 -3.93874 2.52945 0
M  V30 7492 H 750.078 -5.3118 3.71149 0
M  V30 7493 N 743.484 -0.715051 -1.40445 0
M  V30 7494 C 744.9 -0.388555 -1.54798 0
M  V30 7495 C 745.1 1.10271 -1.68649 0
M  V30 7496 O 744.156 1.88875 -1.67578 0
M  V30 7497 C 745.469 -1.15414 -2.77669 0
M  V30 7498 C 747.017 -1.14039 -2.91486 0
M  V30 7499 C 747.492 -1.88812 -4.1727 0
M  V30 7500 N 748.983 -1.85878 -4.24268 0
M  V30 7501 C 749.718 -2.40558 -5.20499 0
M  V30 7502 N 749.214 -3.03791 -6.22642 0
M  V30 7503 N 751.007 -2.30703 -5.12574 0
M  V30 7504 H 743.158 -1.68201 -1.297 0
M  V30 7505 H 745.421 -0.710915 -0.627139 0
M  V30 7506 H 745.127 -2.20853 -2.7371 0
M  V30 7507 H 745.001 -0.745412 -3.69761 0
M  V30 7508 H 747.388 -0.0941996 -2.9495 0
M  V30 7509 H 747.469 -1.58834 -2.00513 0
M  V30 7510 H 747.113 -2.93422 -4.14568 0
M  V30 7511 H 747.043 -1.41438 -5.0725 0
M  V30 7512 H 749.534 -1.39794 -3.51093 0
M  V30 7513 H 749.847 -3.43032 -6.92495 0
M  V30 7514 H 748.192 -3.07875 -6.23087 0
M  V30 7515 H 751.383 -1.80961 -4.31707 0
M  V30 7516 H 751.556 -2.73618 -5.87398 0
M  V30 7517 N 744.962 1.50701 -0.461195 0
M  V30 7518 C 745.912 2.25195 0.35653 0
M  V30 7519 C 746.896 1.2838 0.96992 0
M  V30 7520 O 748.088 1.53338 0.884108 0
M  V30 7521 C 745.217 3.11471 1.44364 0
M  V30 7522 C 744.303 4.15729 0.83847 0
M  V30 7523 N 744.694 5.05788 -0.0353198 0
M  V30 7524 C 742.992 4.32133 1.1035 0
M  V30 7525 C 743.693 5.80472 -0.37774 0
M  V30 7526 N 742.669 5.43049 0.24463 0
M  V30 7527 H 746.471 2.92188 -0.316746 0
M  V30 7528 H 743.985 1.60059 -0.274725 0
M  V30 7529 H 745.982 3.63436 2.04255 0
M  V30 7530 H 744.642 2.46025 2.11901 0
M  V30 7531 H 745.653 5.16326 -0.403465 0
M  V30 7532 H 742.33 3.77908 1.77458 0
M  V30 7533 H 743.72 6.62996 -1.09024 0
M  V30 7534 N 746.441 0.193421 1.56409 0
M  V30 7535 C 747.69 -0.445995 1.96707 0
M  V30 7536 C 748.003 -1.62876 1.08309 0
M  V30 7537 O 749.209 -2.33586 1.38383 0
M  V30 7538 C 747.665 -0.844863 3.49843 0
M  V30 7539 C 747.273 0.31352 4.46902 0
M  V30 7540 C 749.017 -1.45146 3.98915 0
M  V30 7541 C 746.924 -0.106214 5.91305 0
M  V30 7542 H 745.854 -0.170398 0.734493 0
M  V30 7543 H 748.505 0.285172 1.81271 0
M  V30 7544 H 746.887 -1.63265 3.60778 0
M  V30 7545 H 748.061 1.09103 4.47698 0
M  V30 7546 H 746.376 0.8315 4.08014 0
M  V30 7547 H 748.973 -1.77792 5.04276 0
M  V30 7548 H 749.316 -2.35734 3.43126 0
M  V30 7549 H 749.849 -0.727675 3.91088 0
M  V30 7550 H 746.588 0.765442 6.51016 0
M  V30 7551 H 746.108 -0.848623 5.93766 0
M  V30 7552 H 747.787 -0.542588 6.44721 0
M  V30 7553 N 747.919 -1.57396 -0.0801906 0
M  V30 7554 C 749.165 -1.87113 -0.782083 0
M  V30 7555 C 749.498 -0.78458 -1.77646 0
M  V30 7556 O 748.773 0.205993 -1.93406 0
M  V30 7557 C 749.056 -3.27483 -1.49756 0
M  V30 7558 C 748.909 -4.46782 -0.520171 0
M  V30 7559 C 750.228 -3.65965 -2.44454 0
M  V30 7560 H 747.347 -0.680559 -0.282858 0
M  V30 7561 H 749.989 -1.89946 -0.0454139 0
M  V30 7562 H 748.139 -3.25199 -2.12551 0
M  V30 7563 H 749.811 -4.61187 0.101919 0
M  V30 7564 H 748.054 -4.33485 0.165219 0
M  V30 7565 H 748.725 -5.41761 -1.05824 0
M  V30 7566 H 751.201 -3.69289 -1.91742 0
M  V30 7567 H 750.077 -4.65086 -2.91524 0
M  V30 7568 H 750.338 -2.95446 -3.28883 0
M  V30 7569 N 749.397 0.351382 -1.53633 0
M  V30 7570 C 750.813 0.693987 -1.43722 0
M  V30 7571 C 751.013 1.9274 -0.587669 0
M  V30 7572 O 750.069 2.52387 -0.0756082 0
M  V30 7573 C 751.382 0.893937 -2.87105 0
M  V30 7574 C 752.93 0.993051 -2.96829 0
M  V30 7575 C 753.405 1.22537 -4.41303 0
M  V30 7576 N 754.896 1.29275 -4.44795 0
M  V30 7577 C 755.631 1.48988 -5.53706 0
M  V30 7578 N 755.127 1.65924 -6.72637 0
M  V30 7579 N 756.92 1.51472 -5.41306 0
M  V30 7580 H 749.071 -0.459688 -2.07366 0
M  V30 7581 H 751.334 -0.143684 -0.937048 0
M  V30 7582 H 751.04 0.0592517 -3.5165 0
M  V30 7583 H 750.914 1.79795 -3.31592 0
M  V30 7584 H 753.301 1.81827 -2.32429 0
M  V30 7585 H 753.382 0.0661119 -2.55715 0
M  V30 7586 H 753.026 0.405117 -5.06282 0
M  V30 7587 H 752.956 2.16575 -4.80003 0
M  V30 7588 H 755.447 1.17743 -3.59089 0
M  V30 7589 H 755.76 1.80578 -7.51406 0
M  V30 7590 H 754.105 1.63075 -6.75597 0
M  V30 7591 H 757.296 1.37818 -4.47352 0
M  V30 7592 H 757.469 1.66493 -6.26246 0
M  V30 7593 N 750.875 1.45233 0.611969 0
M  V30 7594 C 752.123 1.48727 1.36838 0
M  V30 7595 C 752.444 0.128616 1.94575 0
M  V30 7596 O 751.714 -0.84149 1.76906 0
M  V30 7597 H 750.294 0.547695 0.507976 0
M  V30 7598 H 752.956 1.81156 0.718925 0
M  V30 7599 H 752.052 2.2236 2.19003 0
M  V30 7600 N 752.353 -0.854086 1.3245 0
M  V30 7601 C 753.283 -1.97827 1.24044 0
M  V30 7602 C 754.264 -1.69646 0.124166 0
M  V30 7603 O 755.449 -1.91687 0.31143 0
M  V30 7604 C 752.579 -3.33673 0.963324 0
M  V30 7605 C 751.533 -3.76207 2.04089 0
M  V30 7606 C 750.859 -5.0969 1.61618 0
M  V30 7607 C 752.159 -3.91612 3.45597 0
M  V30 7608 H 753.853 -2.05118 2.18099 0
M  V30 7609 H 751.399 -0.985489 1.04996 0
M  V30 7610 H 753.352 -4.11871 0.891061 0
M  V30 7611 H 752.076 -3.26597 -0.0128649 0
M  V30 7612 H 750.735 -3.0026 2.10332 0
M  V30 7613 H 750.383 -4.99072 0.627418 0
M  V30 7614 H 750.083 -5.3912 2.33717 0
M  V30 7615 H 751.607 -5.90381 1.55829 0
M  V30 7616 H 753.021 -4.60163 3.4194 0
M  V30 7617 H 751.418 -4.3246 4.16051 0
M  V30 7618 H 752.488 -2.9451 3.85217 0
M  V30 7619 N 753.831 -1.1567 -1.07043 0
M  V30 7620 C 755.247 -0.900006 -1.31803 0
M  V30 7621 C 755.447 0.451293 -1.96381 0
M  V30 7622 O 754.503 1.19252 -2.22565 0
M  V30 7623 C 755.816 -2.04334 -2.20609 0
M  V30 7624 C 757.364 -2.07823 -2.34048 0
M  V30 7625 C 757.839 -3.21488 -3.26204 0
M  V30 7626 N 759.33 -3.21156 -3.33786 0
M  V30 7627 C 760.065 -4.05746 -4.05163 0
M  V30 7628 N 759.561 -5.00407 -4.79129 0
M  V30 7629 N 761.354 -3.93759 -4.01136 0
M  V30 7630 H 753.505 -2.02681 -0.635146 0
M  V30 7631 H 755.768 -0.883956 -0.342528 0
M  V30 7632 H 755.474 -3.01895 -1.80423 0
M  V30 7633 H 755.348 -1.97838 -3.21154 0
M  V30 7634 H 757.735 -1.1086 -2.73485 0
M  V30 7635 H 757.816 -2.18386 -1.33197 0
M  V30 7636 H 757.46 -4.18706 -2.87485 0
M  V30 7637 H 757.39 -3.08162 -4.27017 0
M  V30 7638 H 759.881 -2.52606 -2.81067 0
M  V30 7639 H 760.194 -5.61387 -5.31097 0
M  V30 7640 H 758.539 -5.04393 -4.78135 0
M  V30 7641 H 761.73 -3.19115 -3.42466 0
M  V30 7642 H 761.903 -4.59906 -4.56498 0
M  V30 7643 N 755.309 1.25446 -0.953992 0
M  V30 7644 C 756.241 2.25111 -0.431004 0
M  V30 7645 C 757.254 1.56377 0.452764 0
M  V30 7646 O 758.443 1.76579 0.261144 0
M  V30 7647 C 755.543 3.3655 0.39839 0
M  V30 7648 C 754.716 4.34843 -0.472229 0
M  V30 7649 C 753.775 5.25351 0.29886 0
M  V30 7650 O 752.801 5.68396 -0.302522 0
M  V30 7651 N 754.003 5.5824 1.59211 0
M  V30 7652 H 756.768 2.70619 -1.28785 0
M  V30 7653 H 754.329 1.39346 -0.824281 0
M  V30 7654 H 756.321 3.94059 0.921941 0
M  V30 7655 H 754.891 2.90436 1.15609 0
M  V30 7656 H 754.111 3.76222 -1.17689 0
M  V30 7657 H 755.399 4.97497 -1.06648 0
M  V30 7658 H 754.797 5.25172 2.10264 0
M  V30 7659 H 753.354 6.18336 2.06164 0
M  V30 7660 N 756.787 0.722489 1.40064 0
M  V30 7661 C 757.717 0.0892452 2.33329 0
M  V30 7662 C 758.698 -0.737992 1.53257 0
M  V30 7663 O 759.883 -0.685516 1.81698 0
M  V30 7664 C 757.013 -0.828139 3.37282 0
M  V30 7665 C 755.967 -0.106005 4.27869 0
M  V30 7666 C 755.293 -1.13957 5.22415 0
M  V30 7667 C 756.593 1.04395 5.11761 0
M  V30 7668 H 758.287 0.868269 2.86534 0
M  V30 7669 H 755.833 0.418982 1.3777 0
M  V30 7670 H 757.786 -1.28058 4.01471 0
M  V30 7671 H 756.51 -1.63914 2.82489 0
M  V30 7672 H 755.169 0.326683 3.65142 0
M  V30 7673 H 754.817 -1.9438 4.63924 0
M  V30 7674 H 754.517 -0.661233 5.83868 0
M  V30 7675 H 756.041 -1.59197 5.89482 0
M  V30 7676 H 757.455 0.670541 5.69365 0
M  V30 7677 H 755.852 1.4511 5.82291 0
M  V30 7678 H 756.922 1.87144 4.47331 0
M  V30 7679 N 758.265 -1.50454 0.469181 0
M  V30 7680 C 759.681 -1.59124 0.123226 0
M  V30 7681 C 759.881 -1.47749 -1.37013 0
M  V30 7682 O 758.937 -1.335 -2.14322 0
M  V30 7683 C 760.25 -2.93101 0.67172 0
M  V30 7684 C 761.798 -3.06491 0.634978 0
M  V30 7685 C 762.273 -4.43041 1.16098 0
M  V30 7686 N 763.764 -4.49448 1.12031 0
M  V30 7687 C 764.499 -5.53491 1.49784 0
M  V30 7688 N 763.995 -6.64798 1.94976 0
M  V30 7689 N 765.788 -5.44025 1.41399 0
M  V30 7690 H 757.939 -1.56091 1.44046 0
M  V30 7691 H 760.202 -0.737564 0.59557 0
M  V30 7692 H 759.908 -3.06895 1.7178 0
M  V30 7693 H 759.782 -3.77027 0.114222 0
M  V30 7694 H 762.169 -2.92346 -0.402187 0
M  V30 7695 H 762.25 -2.24328 1.22926 0
M  V30 7696 H 761.894 -4.57935 2.19677 0
M  V30 7697 H 761.824 -5.23794 0.542939 0
M  V30 7698 H 764.315 -3.69575 0.788828 0
M  V30 7699 H 764.628 -7.40246 2.21936 0
M  V30 7700 H 762.973 -6.65923 1.98927 0
M  V30 7701 H 766.164 -4.55955 1.05935 0
M  V30 7702 H 766.337 -6.2499 1.71147 0
M  V30 7703 N 759.743 -0.201713 -1.56304 0
M  V30 7704 C 760.971 0.440723 -2.02152 0
M  V30 7705 C 761.386 1.54735 -1.08179 0
M  V30 7706 O 760.743 1.82289 -0.0878196 0
M  V30 7707 C 760.794 0.990884 -3.47655 0
M  V30 7708 O 760.515 -0.0715937 -4.38041 0
M  V30 7709 C 762.016 1.70854 -4.09052 0
M  V30 7710 H 759.236 0.109987 -0.661924 0
M  V30 7711 H 761.78 -0.312358 -2.021 0
M  V30 7712 H 759.935 1.69432 -3.48384 0
M  V30 7713 H 760.349 0.338892 -5.23404 0
M  V30 7714 H 761.823 2.04572 -5.12693 0
M  V30 7715 H 762.3 2.61462 -3.52894 0
M  V30 7716 H 762.906 1.0508 -4.12114 0
M  V30 7717 N 761.222 1.57436 0.0718424 0
M  V30 7718 C 762.169 2.03686 1.08539 0
M  V30 7719 C 763.139 0.917474 1.38462 0
M  V30 7720 O 764.324 1.18513 1.4953 0
M  V30 7721 C 761.464 2.48566 2.39393 0
M  V30 7722 C 760.577 3.74122 2.16001 0
M  V30 7723 C 759.712 4.07786 3.40418 0
M  V30 7724 C 758.751 5.26383 3.1239 0
M  V30 7725 N 757.888 5.55685 4.29138 0
M  V30 7726 H 762.728 2.90043 0.684018 0
M  V30 7727 H 760.265 1.43438 0.326183 0
M  V30 7728 H 762.223 2.72639 3.15791 0
M  V30 7729 H 760.853 1.65186 2.77333 0
M  V30 7730 H 759.905 3.57389 1.30296 0
M  V30 7731 H 761.217 4.60659 1.91298 0
M  V30 7732 H 760.371 4.32759 4.25211 0
M  V30 7733 H 759.11 3.19817 3.68197 0
M  V30 7734 H 758.115 5.01206 2.25993 0
M  V30 7735 H 759.34 6.1597 2.85934 0
M  V30 7736 H 757.286 4.70675 4.56948 0
M  V30 7737 H 757.203 6.3664 4.07708 0
M  V30 7738 H 758.471 5.85209 5.14928 0
M  V30 7739 N 762.7 -0.34323 1.53817 0
M  V30 7740 C 764.116 -0.686355 1.44088 0
M  V30 7741 C 764.316 -1.92426 0.597882 0
M  V30 7742 O 763.372 -2.52343 0.0889918 0
M  V30 7743 C 764.685 -0.878698 2.87575 0
M  V30 7744 C 766.233 -0.977296 2.97352 0
M  V30 7745 C 766.708 -1.20195 4.41947 0
M  V30 7746 N 768.199 -1.26915 4.45474 0
M  V30 7747 C 768.934 -1.46049 5.54488 0
M  V30 7748 N 768.43 -1.62354 6.73508 0
M  V30 7749 N 770.223 -1.48599 5.42102 0
M  V30 7750 H 762.374 0.470679 2.07119 0
M  V30 7751 H 764.637 0.148652 0.936273 0
M  V30 7752 H 764.343 -0.040602 3.51677 0
M  V30 7753 H 764.217 -1.78034 3.32541 0
M  V30 7754 H 766.604 -1.80591 2.3339 0
M  V30 7755 H 766.685 -0.0525498 2.55746 0
M  V30 7756 H 766.329 -0.378262 5.06489 0
M  V30 7757 H 766.259 -2.14027 4.81145 0
M  V30 7758 H 768.75 -1.15837 3.59708 0
M  V30 7759 H 769.063 -1.76591 7.52353 0
M  V30 7760 H 767.408 -1.5949 6.76453 0
M  V30 7761 H 770.599 -1.35443 4.48077 0
M  V30 7762 H 770.772 -1.6317 6.2712 0
M  V30 7763 N 764.178 -1.45556 -0.604258 0
M  V30 7764 C 765.088 -1.57025 -1.74299 0
M  V30 7765 C 766.104 -0.45456 -1.67958 0
M  V30 7766 O 767.28 -0.715711 -1.88254 0
M  V30 7767 C 764.345 -1.53702 -3.10768 0
M  V30 7768 C 763.406 -2.76335 -3.28538 0
M  V30 7769 C 762.639 -2.73161 -4.58496 0
M  V30 7770 O 762.862 -1.80678 -5.41028 0
M  V30 7771 O 761.796 -3.64409 -4.79051 0
M  V30 7772 H 765.622 -2.53284 -1.67573 0
M  V30 7773 H 763.207 -1.28104 -0.768745 0
M  V30 7774 H 765.089 -1.54468 -3.92068 0
M  V30 7775 H 763.764 -0.605957 -3.17978 0
M  V30 7776 H 762.671 -2.8113 -2.46813 0
M  V30 7777 H 764.004 -3.68578 -3.26207 0
M  V30 7778 N 765.656 0.84705 -1.32902 0
M  V30 7779 C 766.881 1.63925 -1.27056 0
M  V30 7780 C 767.306 1.87443 0.157136 0
M  V30 7781 O 766.664 1.43266 1.11106 0
M  V30 7782 C 766.712 2.97134 -2.04313 0
M  V30 7783 O 765.816 3.88049 -1.39614 0
M  V30 7784 H 765.157 0.499477 -0.437514 0
M  V30 7785 H 767.687 1.05443 -1.75336 0
M  V30 7786 H 767.697 3.46896 -2.14772 0
M  V30 7787 H 766.372 2.79339 -3.08128 0
M  V30 7788 H 764.949 3.46525 -1.3775 0
M  V30 7789 N 767.134 1.16236 1.06428 0
M  V30 7790 C 768.064 0.890807 2.1584 0
M  V30 7791 C 769.045 -0.162333 1.69324 0
M  V30 7792 O 770.23 -0.0147191 1.94194 0
M  V30 7793 C 767.36 0.389615 3.45108 0
M  V30 7794 C 766.314 1.38051 4.05125 0
M  V30 7795 C 765.64 0.737773 5.29586 0
M  V30 7796 C 766.94 2.74965 4.44062 0
M  V30 7797 H 768.634 1.80577 2.38814 0
M  V30 7798 H 766.18 0.869657 1.14774 0
M  V30 7799 H 768.133 0.187127 4.20984 0
M  V30 7800 H 766.857 -0.560851 3.21748 0
M  V30 7801 H 765.516 1.56952 3.31303 0
M  V30 7802 H 765.164 -0.219135 5.02522 0
M  V30 7803 H 764.864 1.39914 5.70699 0
M  V30 7804 H 766.388 0.545275 6.0816 0
M  V30 7805 H 767.802 2.59855 5.11027 0
M  V30 7806 H 766.199 3.37563 4.96156 0
M  V30 7807 H 767.269 3.30321 3.54987 0
M  V30 7808 N 768.612 -1.24939 0.960631 0
M  V30 7809 C 770.023 -1.74701 0.658529 0
M  V30 7810 C 770.374 -1.77967 -0.825959 0
M  V30 7811 O 769.499 -1.40444 -1.64634 0
M  V30 7812 C 770.094 -3.17263 1.18867 0
M  V30 7813 C 768.653 -3.64561 0.936614 0
M  V30 7814 C 767.8 -2.43423 1.32817 0
M  V30 7815 H 770.751 -1.10741 1.13676 0
M  V30 7816 H 770.772 -3.76481 0.551589 0
M  V30 7817 H 770.284 -3.14854 2.26912 0
M  V30 7818 H 768.385 -3.72378 -0.128608 0
M  V30 7819 H 768.498 -4.52392 1.57729 0
M  V30 7820 H 766.862 -2.43513 0.746548 0
M  V30 7821 H 767.645 -2.437 2.41796 0
M  V30 7822 N 770.09 -0.729906 -1.39679 0
M  V30 7823 C 771.501 -0.346241 -1.83461 0
M  V30 7824 C 771.852 1.1215 -1.60987 0
M  V30 7825 O 770.977 1.86456 -1.09832 0
M  V30 7826 C 771.572 -0.621656 -3.33048 0
M  V30 7827 C 770.131 -0.291543 -3.75269 0
M  V30 7828 C 769.278 -0.886844 -2.62736 0
M  V30 7829 H 772.229 -0.927949 -1.28743 0
M  V30 7830 H 772.25 0.108301 -3.80346 0
M  V30 7831 H 771.762 -1.68996 -3.49373 0
M  V30 7832 H 769.863 0.771133 -3.64533 0
M  V30 7833 H 769.976 -0.770544 -4.72863 0
M  V30 7834 H 768.34 -0.313839 -2.52759 0
M  V30 7835 H 769.123 -1.95971 -2.81869 0
M  V30 7836 N 771.568 1.50203 -0.477153 0
M  V30 7837 C 772.515 2.28656 0.31386 0
M  V30 7838 C 773.485 1.33977 0.981802 0
M  V30 7839 O 774.67 1.62919 0.993072 0
M  V30 7840 C 771.81 3.16027 1.38639 0
M  V30 7841 C 770.923 4.25743 0.732615 0
M  V30 7842 C 770.058 5.00363 1.78355 0
M  V30 7843 C 769.097 6.01945 1.11035 0
M  V30 7844 N 768.234 6.6982 2.10441 0
M  V30 7845 H 773.074 2.958 -0.361445 0
M  V30 7846 H 770.611 1.45867 -0.190093 0
M  V30 7847 H 772.569 3.6504 2.01994 0
M  V30 7848 H 771.199 2.50917 2.03077 0
M  V30 7849 H 770.251 3.80398 -0.0136546 0
M  V30 7850 H 771.563 4.98393 0.201513 0
M  V30 7851 H 770.717 5.53124 2.49276 0
M  V30 7852 H 769.456 4.27432 2.34847 0
M  V30 7853 H 768.461 5.48438 0.386797 0
M  V30 7854 H 769.686 6.76851 0.552248 0
M  V30 7855 H 767.632 5.99677 2.65939 0
M  V30 7856 H 767.549 7.38366 1.62332 0
M  V30 7857 H 768.817 7.27196 2.80724 0
M  V30 7858 N 773.046 0.209999 1.56195 0
M  V30 7859 C 773.993 -0.704854 2.19774 0
M  V30 7860 C 774.963 -1.19886 1.14964 0
M  V30 7861 O 776.148 -1.26005 1.43274 0
M  V30 7862 C 773.288 -1.91241 2.87265 0
M  V30 7863 C 772.401 -1.45838 4.06639 0
M  V30 7864 C 771.536 -2.6226 4.61945 0
M  V30 7865 C 770.575 -2.13537 5.73645 0
M  V30 7866 N 769.712 -3.2319 6.23292 0
M  V30 7867 H 774.552 -0.155944 2.97592 0
M  V30 7868 H 772.089 -0.0652235 1.46955 0
M  V30 7869 H 774.047 -2.62123 3.24573 0
M  V30 7870 H 772.677 -2.43439 2.11985 0
M  V30 7871 H 771.729 -0.644897 3.74894 0
M  V30 7872 H 773.041 -1.06103 4.87384 0
M  V30 7873 H 772.195 -3.41243 5.01636 0
M  V30 7874 H 770.934 -3.05278 3.80338 0
M  V30 7875 H 769.939 -1.33013 5.33468 0
M  V30 7876 H 771.164 -1.71533 6.57079 0
M  V30 7877 H 769.11 -3.65711 5.44602 0
M  V30 7878 H 769.027 -2.8767 6.99129 0
M  V30 7879 H 770.295 -4.02342 6.67639 0
M  V30 7880 N 774.524 -1.57472 -0.0634922 0
M  V30 7881 C 775.474 -2.00709 -1.08166 0
M  V30 7882 C 776.458 -0.890498 -1.34011 0
M  V30 7883 O 777.65 -1.15441 -1.34173 0
M  V30 7884 C 774.779 -2.46148 -2.39303 0
M  V30 7885 C 773.865 -3.64559 -2.16697 0
M  V30 7886 N 774.256 -4.78459 -1.64043 0
M  V30 7887 C 772.554 -3.71269 -2.47135 0
M  V30 7888 C 773.255 -5.60268 -1.56445 0
M  V30 7889 N 772.231 -5.04357 -2.02792 0
M  V30 7890 H 776.033 -2.86208 -0.668016 0
M  V30 7891 H 773.547 -1.60133 -0.270426 0
M  V30 7892 H 775.544 -2.75367 -3.13016 0
M  V30 7893 H 774.204 -1.62041 -2.81377 0
M  V30 7894 H 775.215 -5.00587 -1.32791 0
M  V30 7895 H 771.892 -2.97891 -2.92518 0
M  V30 7896 H 773.282 -6.6172 -1.16519 0
M  V30 7897 N 776.003 0.335068 -1.53997 0
M  V30 7898 C 777.251 1.07223 -1.71312 0
M  V30 7899 C 777.572 1.88911 -0.483486 0
M  V30 7900 O 776.842 1.89344 0.50257 0
M  V30 7901 H 775.422 0.398846 -0.63161 0
M  V30 7902 H 778.084 0.374288 -1.91272 0
M  V30 7903 H 777.18 1.7448 -2.58772 0
M  V30 7904 N 777.481 1.45874 0.596531 0
M  V30 7905 C 778.429 1.55739 1.72766 0
M  V30 7906 C 779.423 0.426666 1.63939 0
M  V30 7907 O 780.629 0.60301 1.69599 0
M  V30 7908 H 777.004 0.489386 0.570968 0
M  V30 7909 H 778.975 2.50871 1.61575 0
M  V30 7910 C 777.724 1.55174 3.11153 0
M  V30 7911 H 777.047 2.41511 3.1861 0
M  V30 7912 H 778.487 1.66133 3.90097 0
M  V30 7913 C 776.946 0.278001 3.35751 0
M  V30 7914 O 777.476 -0.637557 3.96608 0
M  V30 7915 N 775.682 0.170227 2.90101 0
M  V30 7916 H 775.229 0.916159 2.40758 0
M  V30 7917 H 775.187 -0.68117 3.06932 0
M  V30 7918 N 778.959 -0.83999 1.33349 0
M  V30 7919 C 780.208 -1.59011 1.2409 0
M  V30 7920 C 780.521 -1.94655 -0.192029 0
M  V30 7921 O 781.727 -2.68438 -0.406617 0
M  V30 7922 C 780.183 -2.86801 2.17425 0
M  V30 7923 C 779.791 -2.58525 3.65881 0
M  V30 7924 C 781.535 -3.64823 2.17036 0
M  V30 7925 C 779.442 -3.82404 4.51133 0
M  V30 7926 H 778.372 -0.596731 0.460899 0
M  V30 7927 H 781.023 -0.926274 1.58406 0
M  V30 7928 H 779.405 -3.54719 1.7604 0
M  V30 7929 H 780.579 -1.98824 4.15699 0
M  V30 7930 H 778.894 -1.93808 3.68548 0
M  V30 7931 H 781.491 -4.56774 2.7796 0
M  V30 7932 H 781.834 -3.99663 1.16513 0
M  V30 7933 H 782.367 -3.03826 2.56777 0
M  V30 7934 H 779.106 -3.52696 5.52527 0
M  V30 7935 H 778.626 -4.41447 4.0606 0
M  V30 7936 H 780.305 -4.49995 4.6488 0
M  V30 7937 N 780.437 -1.16799 -1.0581 0
M  V30 7938 C 781.848 -0.95945 -1.60161 0
M  V30 7939 C 782.199 0.49543 -1.89842 0
M  V30 7940 O 781.324 1.36957 -1.67546 0
M  V30 7941 C 781.919 -1.73527 -2.90987 0
M  V30 7942 C 780.478 -1.57158 -3.42021 0
M  V30 7943 C 779.625 -1.74089 -2.15843 0
M  V30 7944 H 782.576 -1.31598 -0.886992 0
M  V30 7945 H 782.597 -1.21397 -3.60615 0
M  V30 7946 H 782.109 -2.79411 -2.69353 0
M  V30 7947 H 780.21 -0.537361 -3.68705 0
M  V30 7948 H 780.323 -2.35858 -4.17022 0
M  V30 7949 H 778.687 -1.16874 -2.26302 0
M  V30 7950 H 779.47 -2.81371 -1.96686 0
M  V30 7951 N 781.915 1.24427 -0.967243 0
M  V30 7952 C 782.845 2.2773 -0.515899 0
M  V30 7953 C 783.826 1.64197 0.444227 0
M  V30 7954 O 785.011 1.91193 0.340451 0
M  V30 7955 C 782.141 3.46751 0.195149 0
M  V30 7956 C 781.095 4.22548 -0.680953 0
M  V30 7957 C 780.421 5.34456 0.161561 0
M  V30 7958 C 781.721 4.83914 -1.96532 0
M  V30 7959 H 783.415 2.65735 -1.37933 0
M  V30 7960 H 780.961 1.27742 -0.664681 0
M  V30 7961 H 782.914 4.18153 0.522117 0
M  V30 7962 H 781.638 3.07771 1.09292 0
M  V30 7963 H 780.297 3.52946 -0.991186 0
M  V30 7964 H 779.945 4.91716 1.05947 0
M  V30 7965 H 779.645 5.86087 -0.421418 0
M  V30 7966 H 781.169 6.08685 0.483211 0
M  V30 7967 H 782.583 5.47392 -1.70396 0
M  V30 7968 H 780.98 5.45775 -2.49499 0
M  V30 7969 H 782.05 4.05393 -2.66053 0
M  V30 7970 O 783.432 0.875006 1.35742 0
M  V30 7971 H 784.123 0.476549 1.87746 0
M  V30 END ATOM
M  V30 BEGIN BOND
M  V30 END BOND
M  V30 END CTAB
M  END
$$$$
