drugbank_target|Q9X6V3 Penicillin-binding protein 2 (DB00438; DB01413; DB14879)
 OpenBabel12092120573D

  0  0  0     0  0            999 V3000
M  V30 BEGIN CTAB
M  V30 COUNTS 10189 10310 0 0 0
M  V30 BEGIN ATOM
M  V30 1 H -0.908 1.98254 -0.117106 0
M  V30 2 N 0 1.576 0 0
M  V30 3 C 0.933 2.03868 1.02534 0
M  V30 4 C 1.911 0.928543 1.3348 0
M  V30 5 O 3.095 1.19667 1.45644 0
M  V30 6 C 0.222 2.43627 2.35294 0
M  V30 7 C -0.732 3.65373 2.2001 0
M  V30 8 S 0.101 5.13292 1.52614 0
M  V30 9 C 1.257 5.56322 2.86805 0
M  V30 10 H 1.49 2.90518 0.631377 0
M  V30 11 H -0.977 1.52953 0.210867 0
M  V30 12 H 0.981 2.67203 3.11629 0
M  V30 13 H -0.358 1.57376 2.7183 0
M  V30 14 H -1.165 3.90944 3.18086 0
M  V30 15 H -1.563 3.418 1.51819 0
M  V30 16 H 0.729 5.58782 3.83104 0
M  V30 17 H 1.672 6.56266 2.65933 0
M  V30 18 H 2.08 4.83886 2.90714 0
M  V30 19 N 1.4781 -0.272755 1.55222 0
M  V30 20 C 2.8891 -0.84378 1.66545 0
M  V30 21 C 3.2401 -1.87035 0.592641 0
M  V30 22 O 2.3651 -2.14761 -0.265818 0
M  V30 23 C 2.9601 -1.53723 3.01918 0
M  V30 24 C 1.5191 -2.05628 3.15268 0
M  V30 25 C 0.6661 -0.898424 2.62343 0
M  V30 26 H 3.6171 -0.0490998 1.58624 0
M  V30 27 H 3.6381 -2.40421 2.94921 0
M  V30 28 H 3.1501 -0.78983 3.79978 0
M  V30 29 H 1.2511 -2.83329 2.41983 0
M  V30 30 H 1.3641 -2.27142 4.21833 0
M  V30 31 H -0.2719 -1.29186 2.19506 0
M  V30 32 H 0.5111 -0.164528 3.42906 0
M  V30 33 N 2.9562 -1.48159 -0.537278 0
M  V30 34 C 3.8882 -1.58218 -1.65831 0
M  V30 35 C 4.9012 -0.466948 -1.5596 0
M  V30 36 O 6.0902 -0.73747 -1.62553 0
M  V30 37 C 3.1902 -1.48906 -3.04434 0
M  V30 38 C 2.3632 -2.75343 -3.3986 0
M  V30 39 C 1.4222 -2.59588 -4.57712 0
M  V30 40 O 0.4482 -3.33457 -4.61297 0
M  V30 41 N 1.6502 -1.68724 -5.55439 0
M  V30 42 H 4.4152 -2.54891 -1.57641 0
M  V30 43 H 1.9762 -1.4479 -0.724386 0
M  V30 44 H 3.9682 -1.36072 -3.81139 0
M  V30 45 H 2.5382 -0.602368 -3.06741 0
M  V30 46 H 1.7582 -3.02795 -2.52406 0
M  V30 47 H 3.0462 -3.5924 -3.60311 0
M  V30 48 H 2.4442 -1.07898 -5.55315 0
M  V30 49 H 1.0012 -1.61832 -6.3139 0
M  V30 50 N 4.4343 0.785586 -1.36625 0
M  V30 51 C 5.8453 1.36101 -1.27803 0
M  V30 52 C 6.1963 1.96035 0.0804875 0
M  V30 53 O 5.3213 1.92834 0.982042 0
M  V30 54 C 5.9163 2.47442 -2.31426 0
M  V30 55 C 4.4753 3.00789 -2.26281 0
M  V30 56 C 3.6223 1.73896 -2.15999 0
M  V30 57 H 6.5733 0.586928 -1.47448 0
M  V30 58 H 6.5943 3.2656 -1.95291 0
M  V30 59 H 6.1063 2.03791 -3.30289 0
M  V30 60 H 4.2073 3.48851 -1.30896 0
M  V30 61 H 4.3203 3.57343 -3.19128 0
M  V30 62 H 2.6843 1.9628 -1.62316 0
M  V30 63 H 3.4673 1.32368 -3.16755 0
M  V30 64 N 5.9124 1.20967 1.01018 0
M  V30 65 C 7.1614 1.01796 1.74128 0
M  V30 66 C 7.4744 -0.449691 1.90361 0
M  V30 67 O 8.6804 -0.76068 2.60626 0
M  V30 68 C 7.1364 1.7727 3.13215 0
M  V30 69 C 6.7444 3.28171 3.04972 0
M  V30 70 C 8.4884 1.66489 3.90489 0
M  V30 71 C 6.3954 3.96156 4.39107 0
M  V30 72 H 5.3254 0.377276 0.652824 0
M  V30 73 H 7.9764 1.44651 1.12909 0
M  V30 74 H 6.3584 1.27205 3.75013 0
M  V30 75 H 7.5324 3.85499 2.52443 0
M  V30 76 H 5.8474 3.39437 2.41188 0
M  V30 77 H 8.4444 2.14617 4.89738 0
M  V30 78 H 8.7874 0.6222 4.11624 0
M  V30 79 H 9.3204 2.14003 3.35332 0
M  V30 80 H 6.0594 5.00604 4.23174 0
M  V30 81 H 5.5794 3.43617 4.91617 0
M  V30 82 H 7.2584 4.00774 5.07926 0
M  V30 83 N 7.3905 -1.2043 1.01659 0
M  V30 84 C 8.3405 -2.21076 0.557623 0
M  V30 85 C 9.3245 -1.56176 -0.387029 0
M  V30 86 O 10.5165 -1.7575 -0.209996 0
M  V30 87 C 7.6455 -3.43146 -0.102707 0
M  V30 88 C 6.7315 -4.15213 0.863652 0
M  V30 89 N 7.1225 -4.63662 2.02117 0
M  V30 90 C 5.4205 -4.40716 0.684472 0
M  V30 91 C 6.1215 -5.18868 2.62966 0
M  V30 92 N 5.0975 -5.0893 1.91027 0
M  V30 93 H 8.8995 -2.56201 1.44008 0
M  V30 94 H 6.4135 -1.36366 0.881931 0
M  V30 95 H 8.4105 -4.14475 -0.449054 0
M  V30 96 H 7.0705 -3.09526 -0.981003 0
M  V30 97 H 8.0815 -4.58877 2.40109 0
M  V30 98 H 4.7585 -4.17245 -0.14577 0
M  V30 99 H 6.1485 -5.6673 3.60924 0
M  V30 100 N 8.8686 -0.792821 -1.36206 0
M  V30 101 C 9.7986 -0.207853 -2.32573 0
M  V30 102 C 10.7796 0.659055 -1.56813 0
M  V30 103 O 11.9646 0.592176 -1.84951 0
M  V30 104 C 9.0946 0.655449 -3.41059 0
M  V30 105 C 8.0486 -0.111842 -4.27854 0
M  V30 106 C 7.3746 0.872274 -5.27537 0
M  V30 107 C 8.6746 -1.30299 -5.05786 0
M  V30 108 H 10.3686 -1.01294 -2.81744 0
M  V30 109 H 7.9146 -0.48854 -1.3546 0
M  V30 110 H 9.8676 1.07464 -4.07467 0
M  V30 111 H 8.5916 1.49328 -2.90463 0
M  V30 112 H 7.2506 -0.512053 -3.63006 0
M  V30 113 H 6.8986 1.70523 -4.73214 0
M  V30 114 H 6.5986 0.363291 -5.86476 0
M  V30 115 H 8.1226 1.28996 -5.96818 0
M  V30 116 H 9.5366 -0.959379 -5.65216 0
M  V30 117 H 7.9336 -1.7455 -5.74154 0
M  V30 118 H 9.0036 -2.09663 -4.37229 0
M  V30 119 N 10.3467 1.47872 -0.545128 0
M  V30 120 C 11.2937 2.29849 0.2093 0
M  V30 121 C 12.2637 1.38313 0.919707 0
M  V30 122 O 13.4487 1.67277 0.917772 0
M  V30 123 C 10.5887 3.22019 1.24088 0
M  V30 124 C 9.7017 4.2864 0.537778 0
M  V30 125 C 8.8367 5.07973 1.5536 0
M  V30 126 C 7.8757 6.06381 0.8348 0
M  V30 127 N 7.0127 6.78717 1.79688 0
M  V30 128 H 11.8527 2.93845 -0.49591 0
M  V30 129 H 9.3897 1.44848 -0.256389 0
M  V30 130 H 11.3477 3.73868 1.85144 0
M  V30 131 H 9.9777 2.59914 1.91428 0
M  V30 132 H 9.0297 3.7994 -0.187046 0
M  V30 133 H 10.3417 4.98793 -0.0258907 0
M  V30 134 H 9.4957 5.63912 2.23803 0
M  V30 135 H 8.2347 4.37693 2.15118 0
M  V30 136 H 7.2397 5.49631 0.136388 0
M  V30 137 H 8.4647 6.78665 0.24313 0
M  V30 138 H 6.4107 6.11177 2.38326 0
M  V30 139 H 6.3277 7.44998 1.28505 0
M  V30 140 H 7.5957 7.39237 2.47282 0
M  V30 141 N 11.8248 0.280983 1.55075 0
M  V30 142 C 13.1018 -0.386207 1.91749 0
M  V30 143 C 13.4818 -1.73264 1.20594 0
M  V30 144 O 12.8298 -2.26034 0.334784 0
M  V30 145 C 13.0398 -0.520687 3.45094 0
M  V30 146 C 14.3878 -0.800865 4.16979 0
M  V30 147 O 15.4118 -0.605271 3.5102 0
M  V30 148 O 14.2708 -1.1753 5.33712 0
M  V30 149 H 11.3648 -0.212408 0.799257 0
M  V30 150 H 13.9108 0.327568 1.66509 0
M  V30 151 H 12.6828 0.426633 3.88967 0
M  V30 152 H 12.3058 -1.2837 3.76307 0
M  V30 153 N 13.3029 -1.57598 0.00835791 0
M  V30 154 C 14.2529 -2.05431 -0.989045 0
M  V30 155 C 15.2369 -0.950662 -1.29812 0
M  V30 156 O 16.4289 -1.21438 -1.28771 0
M  V30 157 C 13.5579 -2.56801 -2.27833 0
M  V30 158 C 12.6439 -3.74058 -1.99853 0
M  V30 159 N 13.0349 -4.8544 -1.42062 0
M  V30 160 C 11.3329 -3.82148 -2.29953 0
M  V30 161 C 12.0339 -5.66817 -1.30743 0
M  V30 162 N 11.0099 -5.13077 -1.7959 0
M  V30 163 H 14.8119 -2.88955 -0.536853 0
M  V30 164 H 12.3259 -1.61199 -0.197148 0
M  V30 165 H 14.3229 -2.89349 -3.00137 0
M  V30 166 H 12.9829 -1.74699 -2.73698 0
M  V30 167 H 13.9939 -5.0612 -1.09833 0
M  V30 168 H 10.6709 -3.10916 -2.78635 0
M  V30 169 H 12.0609 -6.66343 -0.862328 0
M  V30 170 N 14.781 0.264519 -1.55364 0
M  V30 171 C 15.691 1.34902 -1.91934 0
M  V30 172 C 16.707 1.53595 -0.817593 0
M  V30 173 O 17.883 1.67558 -1.11742 0
M  V30 174 C 14.948 2.68676 -2.19121 0
M  V30 175 C 14.009 2.58657 -3.4263 0
M  V30 176 C 13.242 3.86051 -3.68511 0
M  V30 177 O 13.465 4.87126 -2.96757 0
M  V30 178 O 12.399 3.85744 -4.62045 0
M  V30 179 H 16.225 1.06883 -2.8427 0
M  V30 180 H 13.81 0.463775 -1.42019 0
M  V30 181 H 15.692 3.47759 -2.37995 0
M  V30 182 H 14.367 2.96463 -1.29966 0
M  V30 183 H 13.274 1.7792 -3.29082 0
M  V30 184 H 14.607 2.35818 -4.32031 0
M  V30 185 N 16.2591 1.48442 0.529413 0
M  V30 186 C 17.2061 1.63007 1.63394 0
M  V30 187 C 18.1761 0.47212 1.59249 0
M  V30 188 O 19.3611 0.695673 1.77666 0
M  V30 189 C 16.5011 1.6763 3.01653 0
M  V30 190 C 15.6141 2.94535 3.16027 0
M  V30 191 C 14.7491 2.90316 4.44849 0
M  V30 192 C 13.7881 4.11923 4.52754 0
M  V30 193 N 12.9251 4.05777 5.72965 0
M  V30 194 H 17.7651 2.5733 1.50285 0
M  V30 195 H 15.3021 1.27613 0.731656 0
M  V30 196 H 17.2601 1.68292 3.81751 0
M  V30 197 H 15.8901 0.76797 3.13532 0
M  V30 198 H 14.9421 3.03615 2.29177 0
M  V30 199 H 16.2541 3.84512 3.17729 0
M  V30 200 H 15.4081 2.89382 5.33238 0
M  V30 201 H 14.1471 1.98068 4.45668 0
M  V30 202 H 13.1521 4.13131 3.62771 0
M  V30 203 H 14.3771 5.0533 4.53672 0
M  V30 204 H 12.3231 3.16351 5.74681 0
M  V30 205 H 12.2401 4.8946 5.76164 0
M  V30 206 H 13.5081 4.08904 6.6364 0
M  V30 207 N 17.7372 -0.778329 1.37039 0
M  V30 208 C 19.0142 -1.52551 1.22424 0
M  V30 209 C 19.3942 -2.10288 -0.184964 0
M  V30 210 O 18.7422 -1.94953 -1.19187 0
M  V30 211 C 18.9522 -2.61164 2.31504 0
M  V30 212 C 20.3002 -3.28746 2.68721 0
M  V30 213 O 21.3242 -2.71455 2.30631 0
M  V30 214 O 20.1832 -4.3231 3.3432 0
M  V30 215 H 17.2772 -0.675343 0.477326 0
M  V30 216 H 19.8232 -0.815859 1.48801 0
M  V30 217 H 18.5952 -2.16574 3.25901 0
M  V30 218 H 18.2182 -3.39737 2.06554 0
M  V30 219 N 19.2153 -1.21501 -1.00376 0
M  V30 220 C 20.1783 -0.976927 -2.07337 0
M  V30 221 C 21.1783 0.0525322 -1.60714 0
M  V30 222 O 22.3683 -0.184869 -1.73216 0
M  V30 223 C 19.5003 -0.473423 -3.37597 0
M  V30 224 H 20.6933 -1.92587 -2.29892 0
M  V30 225 H 18.2463 -1.03217 -1.17371 0
M  V30 226 H 18.9813 0.480379 -3.20722 0
M  V30 227 H 18.7663 -1.216 -3.72768 0
M  V30 228 H 20.2563 -0.32675 -4.1632 0
M  V30 229 N 20.6934 1.19889 -1.02296 0
M  V30 230 C 22.1094 1.41462 -0.738954 0
M  V30 231 C 22.3094 1.89721 0.678846 0
M  V30 232 O 21.3654 2.07016 1.4457 0
M  V30 233 C 22.6784 2.43083 -1.77005 0
M  V30 234 C 24.2264 2.5684 -1.78892 0
M  V30 235 C 24.7014 3.61709 -2.80945 0
M  V30 236 N 26.1924 3.69199 -2.79725 0
M  V30 237 C 26.9274 4.50019 -3.55345 0
M  V30 238 N 26.4234 5.34592 -4.40662 0
M  V30 239 N 28.2164 4.44612 -3.43914 0
M  V30 240 H 20.3674 0.868827 -1.93817 0
M  V30 241 H 22.6304 0.44399 -0.837602 0
M  V30 242 H 22.3364 2.14636 -2.78612 0
M  V30 243 H 22.2104 3.4217 -1.58744 0
M  V30 244 H 24.5974 2.84614 -0.779674 0
M  V30 245 H 24.6784 1.57927 -2.01228 0
M  V30 246 H 24.3224 3.34678 -3.82038 0
M  V30 247 H 24.2524 4.60259 -2.5587 0
M  V30 248 H 26.7434 3.08794 -2.17842 0
M  V30 249 H 27.0564 5.93363 -4.95116 0
M  V30 250 H 25.4014 5.34073 -4.44737 0
M  V30 251 H 28.5924 3.7758 -2.76679 0
M  V30 252 H 28.7654 5.0736 -4.031 0
M  V30 253 N 22.1715 0.800033 1.35784 0
M  V30 254 C 23.1015 0.220184 2.3246 0
M  V30 255 C 24.0825 -0.65073 1.57161 0
M  V30 256 O 25.2675 -0.582359 1.85263 0
M  V30 257 C 22.3975 -0.637353 3.41402 0
M  V30 258 C 21.3515 0.134531 4.27789 0
M  V30 259 C 20.6775 -0.844285 5.27992 0
M  V30 260 C 21.9775 1.32979 5.05088 0
M  V30 261 H 23.6715 1.02787 2.81203 0
M  V30 262 H 21.2175 0.495717 1.35199 0
M  V30 263 H 23.1705 -1.05302 4.08031 0
M  V30 264 H 21.8945 -1.47785 2.91251 0
M  V30 265 H 20.5535 0.531296 3.6273 0
M  V30 266 H 20.2015 -1.68011 4.74111 0
M  V30 267 H 19.9015 -0.332184 5.8666 0
M  V30 268 H 21.4255 -1.2583 5.97494 0
M  V30 269 H 22.8395 0.98934 5.64699 0
M  V30 270 H 21.2365 1.77593 5.7322 0
M  V30 271 H 22.3065 2.11978 4.36111 0
M  V30 272 N 23.6496 -1.47581 0.552962 0
M  V30 273 C 24.8956 -2.02782 0.0273648 0
M  V30 274 C 25.2286 -1.42687 -1.31734 0
M  V30 275 O 24.5036 -0.580897 -1.85623 0
M  V30 276 C 24.7866 -3.60031 -0.0702371 0
M  V30 277 C 24.6396 -4.30566 1.30126 0
M  V30 278 C 25.9586 -4.33028 -0.785771 0
M  V30 279 H 23.0776 -0.736912 0.0114185 0
M  V30 280 H 25.7196 -1.76056 0.714432 0
M  V30 281 H 23.8696 -3.82932 -0.655382 0
M  V30 282 H 25.5416 -4.19018 1.92929 0
M  V30 283 H 23.7846 -3.91086 1.87709 0
M  V30 284 H 24.4556 -5.39114 1.18573 0
M  V30 285 H 26.9316 -4.15095 -0.288982 0
M  V30 286 H 25.8076 -5.42695 -0.823013 0
M  V30 287 H 26.0686 -4.01945 -1.841 0
M  V30 288 N 25.1277 -0.289203 -1.54924 0
M  V30 289 C 26.5437 0.0645403 -1.59469 0
M  V30 290 C 26.7437 1.53419 -1.30632 0
M  V30 291 O 25.7997 2.2852 -1.074 0
M  V30 292 C 27.1127 -0.32278 -2.98963 0
M  V30 293 C 28.6607 -0.270564 -3.11828 0
M  V30 294 C 29.1357 -0.632532 -4.53611 0
M  V30 295 N 30.6267 -0.584617 -4.59496 0
M  V30 296 C 31.3617 -0.837314 -5.67254 0
M  V30 297 N 30.8577 -1.15536 -6.83098 0
M  V30 298 N 32.6507 -0.765166 -5.56868 0
M  V30 299 H 24.8017 -1.24714 -1.71931 0
M  V30 300 H 27.0647 -0.504809 -0.802416 0
M  V30 301 H 26.7707 -1.34541 -3.24948 0
M  V30 302 H 26.6447 0.32944 -3.75759 0
M  V30 303 H 29.0317 0.742805 -2.85598 0
M  V30 304 H 29.1127 -0.957242 -2.37214 0
M  V30 305 H 28.7567 -1.64365 -4.80569 0
M  V30 306 H 28.6867 0.07609 -5.26545 0
M  V30 307 H 31.1777 -0.349248 -3.76283 0
M  V30 308 H 31.4907 -1.33447 -7.61191 0
M  V30 309 H 29.8357 -1.19328 -6.84679 0
M  V30 310 H 33.0267 -0.516432 -4.65243 0
M  V30 311 H 33.1997 -0.965477 -6.40767 0
M  V30 312 N 26.6058 1.57591 -0.0167156 0
M  V30 313 C 28.0218 1.55946 0.339557 0
M  V30 314 C 28.2218 1.02109 1.73713 0
M  V30 315 O 27.2778 0.662303 2.43659 0
M  V30 316 C 28.5908 3.00037 0.199499 0
M  V30 317 C 30.1388 3.11805 0.273193 0
M  V30 318 C 30.6138 4.57713 0.162068 0
M  V30 319 N 32.1048 4.6268 0.219444 0
M  V30 320 C 32.8398 5.73185 0.157054 0
M  V30 321 N 32.3358 6.92786 0.0442936 0
M  V30 322 N 34.1288 5.61707 0.21014 0
M  V30 323 H 26.2798 1.90921 -0.930758 0
M  V30 324 H 28.5428 0.877674 -0.358319 0
M  V30 325 H 28.2488 3.4333 -0.76273 0
M  V30 326 H 28.1228 3.64387 0.974786 0
M  V30 327 H 30.5098 2.68433 1.22587 0
M  V30 328 H 30.5908 2.50201 -0.532256 0
M  V30 329 H 30.2348 5.01763 -0.78714 0
M  V30 330 H 30.1648 5.17283 0.986222 0
M  V30 331 H 32.6558 3.76649 0.307246 0
M  V30 332 H 32.9688 7.728 0.00304069 0
M  V30 333 H 31.3138 6.94999 0.00968457 0
M  V30 334 H 34.5048 4.6716 0.296546 0
M  V30 335 H 34.6778 6.47807 0.158054 0
M  V30 336 N 28.0839 -0.256276 1.55502 0
M  V30 337 C 29.4999 -0.604325 1.47716 0
M  V30 338 C 29.6999 -1.88763 0.705039 0
M  V30 339 O 28.7559 -2.51445 0.230613 0
M  V30 340 C 30.0689 -0.715756 2.92057 0
M  V30 341 C 31.6169 -0.808706 3.02372 0
M  V30 342 C 32.0919 -0.951777 4.48001 0
M  V30 343 N 33.5829 -1.01688 4.519 0
M  V30 344 C 34.3179 -1.14668 5.61817 0
M  V30 345 N 33.8139 -1.24261 6.81565 0
M  V30 346 N 35.6069 -1.1791 5.49594 0
M  V30 347 H 27.7579 0.586291 2.04148 0
M  V30 348 H 30.0209 0.201015 0.926443 0
M  V30 349 H 29.7269 0.157027 3.51349 0
M  V30 350 H 29.6009 -1.59071 3.42018 0
M  V30 351 H 31.9879 -1.67195 2.43166 0
M  V30 352 H 32.0689 0.0912063 2.55637 0
M  V30 353 H 31.7129 -0.0931291 5.07815 0
M  V30 354 H 31.6429 -1.86659 4.92408 0
M  V30 355 H 34.1339 -0.954468 3.65648 0
M  V30 356 H 34.4469 -1.34046 7.61086 0
M  V30 357 H 32.7919 -1.21236 6.84344 0
M  V30 358 H 35.9829 -1.10057 4.54978 0
M  V30 359 H 36.1559 -1.27681 6.35296 0
M  V30 360 N 29.562 -1.4872 -0.521534 0
M  V30 361 C 30.808 -1.574 -1.27879 0
M  V30 362 C 31.141 -0.250817 -1.92573 0
M  V30 363 O 30.416 0.743934 -1.79711 0
M  V30 364 C 30.699 -2.71843 -2.36164 0
M  V30 365 C 30.552 -4.13893 -1.76105 0
M  V30 366 C 31.871 -2.82008 -3.37875 0
M  V30 367 H 28.99 -0.572941 -0.463581 0
M  V30 368 H 31.632 -1.80927 -0.580119 0
M  V30 369 H 29.782 -2.51914 -2.95756 0
M  V30 370 H 31.454 -4.45284 -1.20499 0
M  V30 371 H 29.697 -4.20498 -1.06601 0
M  V30 372 H 30.368 -4.89804 -2.5455 0
M  V30 373 H 32.844 -3.00086 -2.88249 0
M  V30 374 H 31.72 -3.63796 -4.11028 0
M  V30 375 H 31.981 -1.90511 -3.98946 0
M  V30 376 N 31.0401 0.771051 -1.3745 0
M  V30 377 C 32.2891 1.52491 -1.3202 0
M  V30 378 C 32.6021 1.9538 0.0927347 0
M  V30 379 O 33.8081 2.70159 0.269503 0
M  V30 380 C 32.2641 2.75366 -2.31736 0
M  V30 381 C 31.8721 2.39573 -3.78562 0
M  V30 382 C 33.6161 3.53307 -2.35318 0
M  V30 383 C 31.5231 3.58954 -4.70007 0
M  V30 384 H 30.4531 0.572506 -0.490666 0
M  V30 385 H 33.1041 0.844474 -1.62914 0
M  V30 386 H 31.4861 3.45303 -1.93861 0
M  V30 387 H 32.6601 1.77415 -4.25277 0
M  V30 388 H 30.9751 1.74805 -3.77932 0
M  V30 389 H 33.5721 4.42039 -3.00842 0
M  V30 390 H 33.9151 3.93217 -1.36698 0
M  V30 391 H 34.4481 2.90367 -2.71904 0
M  V30 392 H 31.1871 3.24125 -5.69757 0
M  V30 393 H 30.7071 4.20214 -4.27996 0
M  V30 394 H 32.3861 4.25758 -4.87175 0
M  V30 395 N 32.5182 1.22032 0.997298 0
M  V30 396 C 33.7642 1.04376 1.73878 0
M  V30 397 C 34.0972 -0.420716 1.89588 0
M  V30 398 O 33.3722 -1.31202 1.43583 0
M  V30 399 C 33.6552 1.75047 3.14691 0
M  V30 400 C 33.5082 3.29062 3.06656 0
M  V30 401 C 34.8272 1.49928 4.13775 0
M  V30 402 H 31.9462 0.380578 0.631133 0
M  V30 403 H 34.5882 1.50312 1.16217 0
M  V30 404 H 32.7382 1.35996 3.63919 0
M  V30 405 H 34.4102 3.7753 2.65083 0
M  V30 406 H 32.6532 3.58967 2.43568 0
M  V30 407 H 33.3242 3.73683 4.06282 0
M  V30 408 H 35.8002 1.83842 3.73285 0
M  V30 409 H 34.6762 2.01878 5.10428 0
M  V30 410 H 34.9372 0.430929 4.39995 0
M  V30 411 N 33.9963 -1.19345 1.0293 0
M  V30 412 C 35.2443 -1.88665 0.724574 0
M  V30 413 C 35.5653 -1.80036 -0.749144 0
M  V30 414 O 34.8353 -1.2111 -1.53978 0
M  V30 415 H 33.4153 -0.698406 0.265025 0
M  V30 416 H 36.0773 -1.44885 1.30362 0
M  V30 417 H 35.1733 -2.94987 1.01926 0
M  V30 418 N 35.4744 -0.807222 -1.35358 0
M  V30 419 C 36.4374 -0.223665 -2.28106 0
M  V30 420 C 37.4374 0.589354 -1.4961 0
M  V30 421 O 38.6274 0.407745 -1.69361 0
M  V30 422 C 35.7594 0.688149 -3.33882 0
M  V30 423 H 36.9524 -1.04169 -2.81227 0
M  V30 424 H 34.5054 -0.577921 -1.45223 0
M  V30 425 H 35.2404 1.52984 -2.85948 0
M  V30 426 H 35.0254 0.10687 -3.91954 0
M  V30 427 H 36.5154 1.09075 -4.03104 0
M  V30 428 N 36.9525 1.47285 -0.560781 0
M  V30 429 C 38.1985 2.02764 -0.0381184 0
M  V30 430 C 38.5315 1.43384 1.30976 0
M  V30 431 O 37.8065 0.590733 1.85312 0
M  V30 432 C 38.0895 3.60064 0.0511427 0
M  V30 433 C 37.9425 4.2987 -1.32408 0
M  V30 434 C 39.2615 4.33439 0.762795 0
M  V30 435 H 36.3805 0.736841 -0.0153264 0
M  V30 436 H 39.0225 1.75675 -0.723759 0
M  V30 437 H 37.1725 3.83274 0.635065 0
M  V30 438 H 38.8445 4.17989 -1.95148 0
M  V30 439 H 37.0875 3.90085 -1.8978 0
M  V30 440 H 37.7585 5.38478 -1.21431 0
M  V30 441 H 40.2345 4.15243 0.266965 0
M  V30 442 H 39.1105 5.43124 0.794221 0
M  V30 443 H 39.3715 4.02915 1.81966 0
M  V30 444 N 38.4306 0.297415 1.54768 0
M  V30 445 C 39.3936 -0.567375 2.22066 0
M  V30 446 C 40.3936 -1.06409 1.20556 0
M  V30 447 O 41.5836 -0.960691 1.45315 0
M  V30 448 C 38.7156 -1.78517 2.90421 0
M  V30 449 H 39.9086 0.0205534 2.99893 0
M  V30 450 H 37.4616 0.0482163 1.56226 0
M  V30 451 H 38.1966 -2.41303 2.16664 0
M  V30 452 H 37.9816 -1.43669 3.64831 0
M  V30 453 H 39.4716 -2.39964 3.41771 0
M  V30 454 N 39.9087 -1.5758 0.0250728 0
M  V30 455 C 41.1547 -1.91917 -0.655413 0
M  V30 456 C 41.4877 -0.901433 -1.72011 0
M  V30 457 O 40.7627 0.0764069 -1.9435 0
M  V30 458 C 41.0457 -3.36751 -1.27558 0
M  V30 459 C 40.8987 -4.49258 -0.220719 0
M  V30 460 C 42.2177 -3.81469 -2.19475 0
M  V30 461 H 39.3367 -0.697925 -0.23679 0
M  V30 462 H 41.9787 -1.89825 0.0815036 0
M  V30 463 H 40.1287 -3.38664 -1.90365 0
M  V30 464 H 41.8007 -4.59478 0.409601 0
M  V30 465 H 40.0437 -4.31415 0.454264 0
M  V30 466 H 40.7147 -5.47618 -0.694175 0
M  V30 467 H 43.1907 -3.81266 -1.66659 0
M  V30 468 H 42.0667 -4.83512 -2.59822 0
M  V30 469 H 42.3277 -3.16744 -3.08424 0
M  V30 470 N 41.3868 0.248026 -1.55636 0
M  V30 471 C 42.6328 0.97767 -1.77678 0
M  V30 472 C 42.9658 1.85016 -0.590135 0
M  V30 473 O 42.2408 1.90095 0.411611 0
M  V30 474 C 42.5238 1.83914 -3.09593 0
M  V30 475 C 42.3768 0.99491 -4.38659 0
M  V30 476 C 43.6958 2.82183 -3.37729 0
M  V30 477 H 40.8148 0.354005 -0.646413 0
M  V30 478 H 43.4568 0.248253 -1.88371 0
M  V30 479 H 41.6068 2.46104 -3.00608 0
M  V30 480 H 43.2788 0.391789 -4.59633 0
M  V30 481 H 41.5218 0.299231 -4.32767 0
M  V30 482 H 42.1928 1.63145 -5.2734 0
M  V30 483 H 44.6688 2.30129 -3.4667 0
M  V30 484 H 43.5448 3.39582 -4.31249 0
M  V30 485 H 43.8058 3.58588 -2.58586 0
M  V30 486 N 42.8649 1.48995 0.513639 0
M  V30 487 C 43.7949 1.67636 1.62544 0
M  V30 488 C 44.7759 0.525087 1.61793 0
M  V30 489 O 45.9609 0.759502 1.78732 0
M  V30 490 C 43.0909 1.73114 3.01079 0
M  V30 491 C 42.0449 2.87905 3.16693 0
M  V30 492 C 41.3709 2.78486 4.56453 0
M  V30 493 C 42.6709 4.29005 2.97913 0
M  V30 494 H 44.3649 2.60716 1.47198 0
M  V30 495 H 41.9109 1.25465 0.706714 0
M  V30 496 H 43.8639 1.84742 3.78746 0
M  V30 497 H 42.5879 0.766241 3.17484 0
M  V30 498 H 41.2469 2.75859 2.41448 0
M  V30 499 H 40.8949 1.7993 4.69717 0
M  V30 500 H 40.5949 3.55523 4.67843 0
M  V30 501 H 42.1189 2.92104 5.36197 0
M  V30 502 H 43.5329 4.41798 3.65359 0
M  V30 503 H 41.9299 5.07166 3.20785 0
M  V30 504 H 42.9999 4.44329 1.94165 0
M  V30 505 N 44.343 -0.763751 1.37857 0
M  V30 506 C 45.273 -1.89103 1.36975 0
M  V30 507 C 46.254 -1.68439 0.237152 0
M  V30 508 O 47.439 -1.8918 0.438713 0
M  V30 509 C 44.569 -3.26496 1.18395 0
M  V30 510 C 43.523 -3.61741 2.28751 0
M  V30 511 C 42.849 -4.97762 1.95286 0
M  V30 512 C 44.149 -3.67665 3.70972 0
M  V30 513 H 45.843 -1.90099 2.31307 0
M  V30 514 H 43.389 -0.91319 1.11341 0
M  V30 515 H 45.342 -4.05003 1.16406 0
M  V30 516 H 44.066 -3.25955 0.205215 0
M  V30 517 H 42.725 -2.85547 2.29909 0
M  V30 518 H 42.373 -4.93769 0.959221 0
M  V30 519 H 42.073 -5.22313 2.69189 0
M  V30 520 H 43.597 -5.7866 1.94898 0
M  V30 521 H 45.011 -4.36307 3.719 0
M  V30 522 H 43.408 -4.03718 4.43995 0
M  V30 523 H 44.478 -2.68134 4.0402 0
M  V30 524 N 45.8211 -1.22559 -0.990812 0
M  V30 525 C 47.0491 -1.07779 -1.76611 0
M  V30 526 C 47.4641 0.371513 -1.85109 0
M  V30 527 O 46.8211 1.25737 -1.32274 0
M  V30 528 C 46.8721 -1.68512 -3.19822 0
M  V30 529 O 46.5931 -3.07774 -3.1178 0
M  V30 530 C 48.0941 -1.59035 -4.13791 0
M  V30 531 H 45.3141 -0.377729 -0.554583 0
M  V30 532 H 47.8581 -1.62195 -1.24551 0
M  V30 533 H 46.0131 -1.18154 -3.68942 0
M  V30 534 H 46.4271 -3.37062 -4.01858 0
M  V30 535 H 47.9011 -2.0625 -5.1202 0
M  V30 536 H 48.3781 -0.547273 -4.35777 0
M  V30 537 H 48.9841 -2.08709 -3.70568 0
M  V30 538 N 47.2992 1.18797 -1.03562 0
M  V30 539 C 48.2292 2.24472 -0.643019 0
M  V30 540 C 49.2102 1.66433 0.351283 0
M  V30 541 O 50.3952 1.92803 0.232505 0
M  V30 542 C 47.5252 3.473 4.24935e-05 0
M  V30 543 C 46.4792 4.18055 -0.917257 0
M  V30 544 C 45.8052 5.34519 -0.138941 0
M  V30 545 C 47.1052 4.72109 -2.23407 0
M  V30 546 H 48.7992 2.57566 -1.52643 0
M  V30 547 H 46.3452 1.23806 -0.735394 0
M  V30 548 H 48.2982 4.20426 0.286383 0
M  V30 549 H 47.0222 3.13424 0.918299 0
M  V30 550 H 45.6812 3.46821 -1.1879 0
M  V30 551 H 45.3292 4.96891 0.781562 0
M  V30 552 H 45.0292 5.82794 -0.750005 0
M  V30 553 H 46.5532 6.10438 0.1405 0
M  V30 554 H 47.9672 5.36955 -2.00879 0
M  V30 555 H 46.3642 5.30897 -2.79765 0
M  V30 556 H 47.4342 3.89807 -2.88407 0
M  V30 557 N 48.7773 0.814389 1.34928 0
M  V30 558 C 50.0233 0.399013 1.98836 0
M  V30 559 C 50.3563 -1.03314 1.64438 0
M  V30 560 O 49.6313 -1.71811 0.911659 0
M  V30 561 C 49.9143 0.591629 3.55207 0
M  V30 562 C 49.7673 2.06928 3.99376 0
M  V30 563 C 51.0863 0.022199 4.40094 0
M  V30 564 H 48.2053 0.146451 0.722303 0
M  V30 565 H 50.8473 1.02537 1.59957 0
M  V30 566 H 48.9973 0.0584441 3.88456 0
M  V30 567 H 50.6693 2.66544 3.76499 0
M  V30 568 H 48.9123 2.56287 3.49999 0
M  V30 569 H 49.5833 2.1549 5.08201 0
M  V30 570 H 52.0593 0.477643 4.13349 0
M  V30 571 H 50.9353 0.186832 5.48582 0
M  V30 572 H 51.1963 -1.07215 4.28902 0
M  V30 573 N 50.2554 -1.46986 0.568584 0
M  V30 574 C 51.1854 -2.32946 -0.160753 0
M  V30 575 C 52.1664 -1.44487 -0.897631 0
M  V30 576 O 53.3514 -1.73327 -0.875867 0
M  V30 577 C 50.4814 -3.26494 -1.18403 0
M  V30 578 C 49.4354 -4.24282 -0.562895 0
M  V30 579 C 48.7614 -5.07236 -1.69163 0
M  V30 580 C 50.0614 -5.19989 0.490761 0
M  V30 581 H 51.7554 -2.94175 0.556916 0
M  V30 582 H 49.3014 -1.4146 0.26927 0
M  V30 583 H 51.2544 -3.85477 -1.70251 0
M  V30 584 H 49.9784 -2.63343 -1.93179 0
M  V30 585 H 48.6374 -3.66541 -0.0656164 0
M  V30 586 H 48.2854 -4.4048 -2.42871 0
M  V30 587 H 47.9854 -5.7345 -1.28174 0
M  V30 588 H 49.5094 -5.6908 -2.21314 0
M  V30 589 H 50.9234 -5.73271 0.0579047 0
M  V30 590 H 49.3204 -5.94469 0.820165 0
M  V30 591 H 50.3904 -4.64777 1.3824 0
M  V30 592 N 51.7335 -0.305618 -1.54608 0
M  V30 593 C 52.9795 0.302746 -2.00528 0
M  V30 594 C 53.3125 1.53184 -1.19367 0
M  V30 595 O 52.5875 1.92598 -0.271321 0
M  V30 596 C 52.8705 0.654756 -3.54097 0
M  V30 597 C 52.7235 -0.583793 -4.45995 0
M  V30 598 C 54.0425 1.47947 -4.14487 0
M  V30 599 H 51.1615 0.108564 -0.72896 0
M  V30 600 H 53.8035 -0.418634 -1.85331 0
M  V30 601 H 51.9535 1.26935 -3.67178 0
M  V30 602 H 53.6255 -1.22224 -4.44814 0
M  V30 603 H 51.8685 -1.21615 -4.16404 0
M  V30 604 H 52.5395 -0.293287 -5.5122 0
M  V30 605 H 55.0155 0.96013 -4.04871 0
M  V30 606 H 53.8915 1.69454 -5.22088 0
M  V30 607 H 54.1525 2.47011 -3.66658 0
M  V30 608 N 53.2116 1.57565 -0.0334293 0
M  V30 609 C 54.1746 2.09393 0.932048 0
M  V30 610 C 55.1746 1.00986 1.25134 0
M  V30 611 O 56.3646 1.27129 1.19096 0
M  V30 612 C 53.4966 2.56338 2.2473 0
M  V30 613 H 54.6896 2.95984 0.483085 0
M  V30 614 H 52.2426 1.54819 0.21468 0
M  V30 615 H 52.9776 1.7309 2.74245 0
M  V30 616 H 52.7626 3.35542 2.02865 0
M  V30 617 H 54.2526 2.96646 2.93923 0
M  V30 618 N 54.6897 -0.239769 1.55765 0
M  V30 619 C 56.1057 -0.588624 1.48349 0
M  V30 620 C 56.3057 -1.88005 0.72502 0
M  V30 621 O 55.3617 -2.51186 0.257269 0
M  V30 622 C 56.6747 -0.68474 2.928 0
M  V30 623 C 58.2227 -0.77659 3.03213 0
M  V30 624 C 58.6977 -0.904207 4.48986 0
M  V30 625 N 60.1887 -0.968896 4.52953 0
M  V30 626 C 60.9237 -1.08703 5.63002 0
M  V30 627 N 60.4197 -1.17026 6.82845 0
M  V30 628 N 62.2127 -1.12074 5.50814 0
M  V30 629 H 54.3637 0.607911 2.03515 0
M  V30 630 H 56.6267 0.21083 0.924259 0
M  V30 631 H 56.3327 0.194284 3.51163 0
M  V30 632 H 56.2067 -1.55435 3.43686 0
M  V30 633 H 58.5937 -1.64606 2.44926 0
M  V30 634 H 58.6747 0.118315 2.55526 0
M  V30 635 H 58.3187 -0.0392633 5.07885 0
M  V30 636 H 58.2487 -1.81426 4.9436 0
M  V30 637 H 60.7397 -0.915633 3.6664 0
M  V30 638 H 61.0527 -1.25966 7.62465 0
M  V30 639 H 59.3977 -1.13971 6.85591 0
M  V30 640 H 62.5887 -1.05226 4.5612 0
M  V30 641 H 62.7617 -1.20936 6.36615 0
M  V30 642 N 56.1678 -1.49265 -0.50573 0
M  V30 643 C 57.1008 -1.60183 -1.62532 0
M  V30 644 C 58.0788 -0.451107 -1.56217 0
M  V30 645 O 59.2628 -0.666016 -1.76342 0
M  V30 646 C 56.3898 -1.55238 -3.01029 0
M  V30 647 C 55.4358 -2.7545 -3.25621 0
M  V30 648 S 56.2688 -4.37174 -3.09256 0
M  V30 649 C 57.4248 -4.34866 -4.50158 0
M  V30 650 H 57.6578 -2.54894 -1.53025 0
M  V30 651 H 55.1908 -1.38098 -0.690535 0
M  V30 652 H 57.1488 -1.53071 -3.80893 0
M  V30 653 H 55.8098 -0.618238 -3.07956 0
M  V30 654 H 55.0028 -2.68197 -4.26716 0
M  V30 655 H 54.6048 -2.75005 -2.53472 0
M  V30 656 H 56.8968 -4.06295 -5.42154 0
M  V30 657 H 57.8398 -5.36223 -4.62462 0
M  V30 658 H 58.2478 -3.65007 -4.30616 0
M  V30 659 N 57.6459 0.756429 -1.3826 0
M  V30 660 C 58.8759 1.54341 -1.3734 0
M  V30 661 C 59.2839 1.89159 0.0393917 0
M  V30 662 O 58.6269 1.5307 1.01565 0
M  V30 663 C 58.6889 2.87238 -2.16182 0
M  V30 664 C 58.3529 2.74973 -3.65019 0
M  V30 665 C 59.3499 2.44962 -4.58574 0
M  V30 666 C 57.0349 2.92515 -4.08338 0
M  V30 667 C 59.0289 2.32642 -5.93428 0
M  V30 668 C 56.7159 2.79815 -5.43274 0
M  V30 669 C 57.7139 2.49921 -6.35632 0
M  V30 670 O 57.4019 2.37275 -7.68086 0
M  V30 671 H 57.1339 0.484281 -0.471643 0
M  V30 672 H 59.6879 0.944152 -1.82414 0
M  V30 673 H 57.9179 3.49342 -1.65822 0
M  V30 674 H 59.6069 3.48731 -2.07705 0
M  V30 675 H 60.3729 2.31081 -4.26412 0
M  V30 676 H 56.2519 3.14781 -3.368 0
M  V30 677 H 59.7959 2.0923 -6.65484 0
M  V30 678 H 55.6929 2.93269 -5.75034 0
M  V30 679 H 56.4609 2.52509 -7.78577 0
M  V30 680 N 59.124 1.23083 0.984299 0
M  V30 681 C 60.074 0.975749 2.06066 0
M  V30 682 C 61.058 -0.0768251 1.60716 0
M  V30 683 O 62.25 0.134805 1.76486 0
M  V30 684 C 59.379 0.564673 3.38624 0
M  V30 685 C 58.465 1.65244 3.90583 0
M  V30 686 N 58.856 2.88193 4.15666 0
M  V30 687 C 57.154 1.52612 4.19077 0
M  V30 688 C 57.855 3.58593 4.58024 0
M  V30 689 N 56.831 2.86093 4.62225 0
M  V30 690 H 60.633 1.90957 2.23411 0
M  V30 691 H 58.147 1.12963 1.16675 0
M  V30 692 H 60.144 0.36322 4.15315 0
M  V30 693 H 58.804 -0.362147 3.22674 0
M  V30 694 H 59.815 3.24537 4.03604 0
M  V30 695 H 56.492 0.666121 4.12152 0
M  V30 696 H 57.882 4.63974 4.85982 0
M  V30 697 N 60.6021 -1.18246 1.0419 0
M  V30 698 C 61.5321 -2.24127 0.654914 0
M  V30 699 C 62.5131 -1.66617 -0.342451 0
M  V30 700 O 63.6981 -1.92924 -0.222277 0
M  V30 701 C 60.8281 -3.47295 0.0183757 0
M  V30 702 C 59.7821 -4.17563 0.939414 0
M  V30 703 C 59.1081 -5.34438 0.167286 0
M  V30 704 C 60.4081 -4.70917 2.25908 0
M  V30 705 H 62.1021 -2.56753 1.54007 0
M  V30 706 H 59.6481 -1.23414 0.74195 0
M  V30 707 H 61.6011 -4.20572 -0.264082 0
M  V30 708 H 60.3251 -3.13907 -0.901664 0
M  V30 709 H 58.9841 -3.46186 1.20628 0
M  V30 710 H 58.6321 -4.97298 -0.7552 0
M  V30 711 H 58.3321 -5.82388 0.780901 0
M  V30 712 H 59.8561 -6.10504 -0.108125 0
M  V30 713 H 61.2701 -5.35882 2.03724 0
M  V30 714 H 59.6671 -5.29406 2.82577 0
M  V30 715 H 60.7371 -3.88272 2.9047 0
M  V30 716 N 62.0802 -0.821533 -1.34494 0
M  V30 717 C 63.0122 -0.199946 -2.28326 0
M  V30 718 C 64.0252 0.609377 -1.50965 0
M  V30 719 O 65.2142 0.439285 -1.7301 0
M  V30 720 C 62.3142 0.738431 -3.30757 0
M  V30 721 C 61.4872 -0.0277632 -4.37391 0
M  V30 722 C 60.5462 0.831332 -5.19591 0
M  V30 723 O 59.5722 0.276822 -5.68526 0
M  V30 724 N 60.7742 2.15132 -5.39165 0
M  V30 725 H 63.5392 -1.00609 -2.82308 0
M  V30 726 H 61.1002 -0.678366 -1.47003 0
M  V30 727 H 63.0922 1.31773 -3.82646 0
M  V30 728 H 61.6622 1.44533 -2.7718 0
M  V30 729 H 60.8822 -0.788359 -3.86236 0
M  V30 730 H 62.1702 -0.555251 -5.05761 0
M  V30 731 H 61.5682 2.62559 -5.01078 0
M  V30 732 H 60.1252 2.6795 -5.94177 0
M  V30 733 N 63.5583 1.46682 -0.576371 0
M  V30 734 C 64.8043 2.02712 -0.0596221 0
M  V30 735 C 65.1373 1.44765 1.29448 0
M  V30 736 O 64.4123 0.610355 1.84675 0
M  V30 737 C 64.6953 3.60098 0.0129503 0
M  V30 738 C 64.5483 4.28441 -1.3696 0
M  V30 739 C 65.8673 4.34224 0.71678 0
M  V30 740 H 62.9863 0.736637 -0.0231407 0
M  V30 741 H 65.6283 1.74898 -0.742351 0
M  V30 742 H 63.7783 3.83926 0.594378 0
M  V30 743 H 65.4503 4.15896 -1.9957 0
M  V30 744 H 63.6933 3.8805 -1.93907 0
M  V30 745 H 64.3643 5.3716 -1.27135 0
M  V30 746 H 66.8403 4.15503 0.222908 0
M  V30 747 H 65.7163 5.43936 0.73657 0
M  V30 748 H 65.9773 4.04823 1.77682 0
M  V30 749 N 65.0364 0.313813 1.54444 0
M  V30 750 C 66.2644 -0.293918 2.04802 0
M  V30 751 C 66.6794 -1.46537 1.19047 0
M  V30 752 O 66.0364 -1.81182 0.218939 0
M  V30 753 C 66.0874 -0.737806 3.53891 0
M  V30 754 O 65.8084 0.387038 4.36387 0
M  V30 755 C 67.3094 -1.40936 4.203 0
M  V30 756 H 64.5294 -0.0620057 0.668129 0
M  V30 757 H 67.0734 0.457169 1.99324 0
M  V30 758 H 65.2284 -1.43889 3.59687 0
M  V30 759 H 65.6424 0.0391274 5.24485 0
M  V30 760 H 67.1164 -1.67099 5.26101 0
M  V30 761 H 67.5934 -2.35355 3.70816 0
M  V30 762 H 68.1994 -0.751117 4.18615 0
M  V30 763 N 66.5145 -1.57545 0.0417849 0
M  V30 764 C 67.4465 -2.07904 -0.964799 0
M  V30 765 C 68.4595 -1.00497 -1.28079 0
M  V30 766 O 69.6485 -1.28087 -1.24322 0
M  V30 767 C 66.7485 -2.49928 -2.28887 0
M  V30 768 C 65.9215 -3.80562 -2.15619 0
M  V30 769 C 64.9805 -4.08999 -3.31069 0
M  V30 770 O 64.0065 -4.79061 -3.0739 0
M  V30 771 N 65.2085 -3.6017 -4.55256 0
M  V30 772 H 67.9735 -2.94886 -0.535029 0
M  V30 773 H 65.5345 -1.61252 -0.144681 0
M  V30 774 H 67.5265 -2.66034 -3.04972 0
M  V30 775 H 66.0965 -1.68245 -2.63463 0
M  V30 776 H 65.3165 -3.74129 -1.24183 0
M  V30 777 H 66.6045 -4.66126 -2.03971 0
M  V30 778 H 66.0025 -3.03512 -4.77386 0
M  V30 779 H 64.5595 -3.81532 -5.28466 0
M  V30 780 N 67.9926 0.231505 -1.5589 0
M  V30 781 C 69.2226 0.973092 -1.82248 0
M  V30 782 C 69.6306 1.78845 -0.617328 0
M  V30 783 O 68.9736 1.78752 0.423499 0
M  V30 784 C 69.0356 1.94732 -3.02192 0
M  V30 785 C 68.6996 1.31743 -4.37599 0
M  V30 786 C 69.6966 0.712238 -5.14998 0
M  V30 787 C 67.3816 1.33218 -4.84312 0
M  V30 788 C 69.3756 0.130195 -6.37267 0
M  V30 789 C 67.0626 0.746286 -6.06526 0
M  V30 790 C 68.0606 0.146337 -6.82843 0
M  V30 791 O 67.7486 -0.430465 -8.02747 0
M  V30 792 H 67.4806 0.29125 -0.61004 0
M  V30 793 H 70.0346 0.254915 -2.03812 0
M  V30 794 H 68.2646 2.70422 -2.76422 0
M  V30 795 H 69.9536 2.55362 -3.15508 0
M  V30 796 H 70.7196 0.69324 -4.8002 0
M  V30 797 H 66.5986 1.78854 -4.24891 0
M  V30 798 H 70.1426 -0.33871 -6.96777 0
M  V30 799 H 66.0396 0.762663 -6.40979 0
M  V30 800 H 66.8076 -0.323818 -8.17859 0
M  V30 801 N 69.4707 1.49531 0.497807 0
M  V30 802 C 70.3807 1.69176 1.62532 0
M  V30 803 C 71.3967 0.5744 1.64246 0
M  V30 804 O 72.5727 0.849497 1.82608 0
M  V30 805 C 69.6377 1.75695 2.98885 0
M  V30 806 C 68.6987 2.9929 3.07773 0
M  V30 807 C 67.9317 3.05488 4.37622 0
M  V30 808 O 68.1547 2.19192 5.26603 0
M  V30 809 O 67.0887 3.9798 4.51548 0
M  V30 810 H 70.9147 2.647 1.48887 0
M  V30 811 H 68.4997 1.3331 0.674441 0
M  V30 812 H 70.3817 1.82317 3.79919 0
M  V30 813 H 69.0567 0.8335 3.12785 0
M  V30 814 H 67.9637 2.98183 2.25915 0
M  V30 815 H 69.2967 3.91125 2.98801 0
M  V30 816 N 70.9488 -0.749086 1.3866 0
M  V30 817 C 72.1788 -1.53611 1.38157 0
M  V30 818 C 72.5868 -1.89177 -0.0293595 0
M  V30 819 O 71.9298 -1.53606 -1.00752 0
M  V30 820 C 71.9918 -2.86087 2.17702 0
M  V30 821 C 71.6558 -2.73034 3.66472 0
M  V30 822 C 72.6528 -2.42526 4.59866 0
M  V30 823 C 70.3378 -2.90345 4.09884 0
M  V30 824 C 72.3318 -2.29492 5.94653 0
M  V30 825 C 70.0188 -2.7693 5.4475 0
M  V30 826 C 71.0168 -2.46547 6.36949 0
M  V30 827 O 70.7048 -2.33199 7.69333 0
M  V30 828 H 70.4368 -0.481773 0.474205 0
M  V30 829 H 72.9908 -0.934465 1.82912 0
M  V30 830 H 71.2208 -3.48458 1.67672 0
M  V30 831 H 72.9098 -3.47625 2.09551 0
M  V30 832 H 73.6758 -2.28816 4.27631 0
M  V30 833 H 69.5548 -3.1299 3.38464 0
M  V30 834 H 73.0988 -2.05698 6.66584 0
M  V30 835 H 68.9958 -2.90215 5.76581 0
M  V30 836 H 69.7638 -2.48376 7.79905 0
M  V30 837 N 72.4269 -1.23603 -0.977757 0
M  V30 838 C 73.3769 -0.986664 -2.05545 0
M  V30 839 C 74.3609 0.0683009 -1.60755 0
M  V30 840 O 75.5529 -0.144162 -1.76412 0
M  V30 841 C 72.6819 -0.582623 -3.3832 0
M  V30 842 C 71.7679 -1.67313 -3.89701 0
M  V30 843 N 72.1589 -2.90394 -4.14132 0
M  V30 844 C 70.4569 -1.54832 -4.18262 0
M  V30 845 C 71.1579 -3.61017 -4.56116 0
M  V30 846 N 70.1339 -2.8854 -4.60701 0
M  V30 847 H 73.9359 -1.92139 -2.22396 0
M  V30 848 H 71.4499 -1.1358 -1.16074 0
M  V30 849 H 73.4469 -0.38524 -4.15116 0
M  V30 850 H 72.1069 0.34503 -3.22862 0
M  V30 851 H 73.1179 -3.26673 -4.01877 0
M  V30 852 H 69.7949 -0.687969 -4.11793 0
M  V30 853 H 71.1849 -4.66544 -4.83514 0
M  V30 854 N 73.905 1.17692 -1.04816 0
M  V30 855 C 75.13 1.92327 -0.776207 0
M  V30 856 C 75.555 1.76082 0.661581 0
M  V30 857 O 74.913 1.076 1.45917 0
M  V30 858 C 74.961 3.41539 -1.15687 0
M  V30 859 O 74.065 4.11402 -0.286775 0
M  V30 860 H 73.406 0.599735 -0.284981 0
M  V30 861 H 75.936 1.49201 -1.4 0
M  V30 862 H 75.946 3.92269 -1.12202 0
M  V30 863 H 74.621 3.52684 -2.20425 0
M  V30 864 H 73.198 3.70939 -0.381903 0
M  V30 865 N 75.3831 0.828654 1.34056 0
M  V30 866 C 76.6111 0.43262 2.02326 0
M  V30 867 C 77.0261 -0.963147 1.62385 0
M  V30 868 O 76.3831 -1.62425 0.832121 0
M  V30 869 C 76.4341 0.53182 3.57567 0
M  V30 870 O 76.1551 1.87258 3.96063 0
M  V30 871 C 77.6561 0.131422 4.43105 0
M  V30 872 H 74.8761 0.172923 0.648335 0
M  V30 873 H 77.4201 1.1184 1.71208 0
M  V30 874 H 75.5751 -0.105938 3.87255 0
M  V30 875 H 75.9891 1.85087 4.90758 0
M  V30 876 H 77.4631 0.251904 5.51425 0
M  V30 877 H 77.9401 -0.925645 4.29335 0
M  V30 878 H 78.5461 0.743207 4.18756 0
M  V30 879 N 76.8612 -1.46375 0.584142 0
M  V30 880 C 77.7912 -2.33103 -0.136037 0
M  V30 881 C 78.7722 -1.45431 -0.882255 0
M  V30 882 O 79.9572 -1.74246 -0.857434 0
M  V30 883 C 77.0872 -3.27731 -1.14933 0
M  V30 884 C 76.0412 -4.24855 -0.517862 0
M  V30 885 C 75.3672 -5.09001 -1.63773 0
M  V30 886 C 76.6672 -5.19439 0.545886 0
M  V30 887 H 78.3612 -2.93568 0.588086 0
M  V30 888 H 75.9072 -1.41166 0.284259 0
M  V30 889 H 77.8602 -3.87261 -1.66153 0
M  V30 890 H 76.5842 -2.65377 -1.90375 0
M  V30 891 H 75.2432 -3.6659 -0.0267361 0
M  V30 892 H 74.8912 -4.43031 -2.38185 0
M  V30 893 H 74.5912 -5.74777 -1.22085 0
M  V30 894 H 76.1152 -5.71396 -2.15266 0
M  V30 895 H 77.5292 -5.73177 0.118704 0
M  V30 896 H 75.9262 -5.93566 0.88317 0
M  V30 897 H 76.9962 -4.63285 1.43162 0
M  V30 898 N 78.3393 -0.321999 -1.54275 0
M  V30 899 C 79.5643 0.285791 -2.05422 0
M  V30 900 C 79.9893 1.45124 -1.19669 0
M  V30 901 O 79.3473 1.80132 -0.205441 0
M  V30 902 C 79.3953 0.69956 -3.53749 0
M  V30 903 O 78.4993 1.8021 -3.70942 0
M  V30 904 H 77.8403 0.0518962 -0.661969 0
M  V30 905 H 80.3703 -0.469954 -1.9913 0
M  V30 906 H 80.3803 0.982649 -3.9599 0
M  V30 907 H 79.0553 -0.152864 -4.15619 0
M  V30 908 H 77.6323 1.51794 -3.40607 0
M  V30 909 N 79.8174 1.5752 -0.0501392 0
M  V30 910 C 80.7274 2.14952 0.939827 0
M  V30 911 C 81.7434 1.10706 1.34239 0
M  V30 912 O 82.9194 1.42869 1.41952 0
M  V30 913 C 79.9844 2.68232 2.19665 0
M  V30 914 C 79.0454 3.87272 1.85253 0
M  V30 915 C 78.2784 4.38002 3.04943 0
M  V30 916 O 78.5014 3.87811 4.18281 0
M  V30 917 O 77.4354 5.29602 2.86017 0
M  V30 918 H 81.2614 2.9986 0.481392 0
M  V30 919 H 78.8464 1.4841 0.171699 0
M  V30 920 H 80.7284 3.02475 2.93406 0
M  V30 921 H 79.4034 1.86395 2.64648 0
M  V30 922 H 78.3104 3.5792 1.0883 0
M  V30 923 H 79.6434 4.70336 1.4507 0
M  V30 924 N 81.2955 -0.223234 1.56011 0
M  V30 925 C 82.2435 -1.29627 1.93131 0
M  V30 926 C 83.2375 -1.48608 0.813146 0
M  V30 927 O 84.4435 -1.49802 0.997966 0
M  V30 928 H 80.8185 -0.434563 0.613726 0
M  V30 929 H 82.7895 -0.955995 2.82672 0
M  V30 930 C 81.5385 -2.63983 2.26292 0
M  V30 931 H 80.8615 -2.50185 3.11846 0
M  V30 932 H 82.3015 -3.3788 2.56151 0
M  V30 933 C 80.7605 -3.18866 1.08747 0
M  V30 934 O 81.2905 -4.00192 0.347727 0
M  V30 935 N 79.4965 -2.77217 0.871743 0
M  V30 936 H 79.0435 -2.1119 1.47501 0
M  V30 937 H 79.0015 -3.1428 0.0869905 0
M  V30 938 N 82.7736 -1.49793 -0.48987 0
M  V30 939 C 83.7216 -1.67783 -1.61095 0
M  V30 940 C 84.7156 -0.543683 -1.60438 0
M  V30 941 O 85.9216 -0.723647 -1.64813 0
M  V30 942 H 82.2966 -0.529255 -0.534222 0
M  V30 943 H 84.2676 -2.61861 -1.43078 0
M  V30 944 C 83.0166 -1.77191 -2.99164 0
M  V30 945 H 82.3396 -2.63841 -3.0038 0
M  V30 946 H 83.7796 -1.93809 -3.77113 0
M  V30 947 C 82.2386 -0.519203 -3.32875 0
M  V30 948 O 82.7686 0.350124 -4.00171 0
M  V30 949 N 80.9746 -0.378816 -2.8812 0
M  V30 950 H 80.5216 -1.08725 -2.33531 0
M  V30 951 H 80.4796 0.458239 -3.11043 0
M  V30 952 N 84.2517 0.741722 -1.39055 0
M  V30 953 C 85.6677 1.04638 -1.20512 0
M  V30 954 C 85.8677 2.01405 -0.0620218 0
M  V30 955 O 84.9237 2.45547 0.588457 0
M  V30 956 C 86.2367 1.6151 -2.53643 0
M  V30 957 C 87.7847 1.73623 -2.6043 0
M  V30 958 C 88.2597 2.33906 -3.93767 0
M  V30 959 N 89.7507 2.41323 -3.9537 0
M  V30 960 C 90.4857 2.88888 -4.95309 0
M  V30 961 N 89.9817 3.36401 -6.05645 0
M  V30 962 N 91.7747 2.88037 -4.82692 0
M  V30 963 H 83.9257 0.0998155 -2.12165 0
M  V30 964 H 86.1887 0.106907 -0.941953 0
M  V30 965 H 85.8947 0.978739 -3.37807 0
M  V30 966 H 85.7687 2.60411 -2.72885 0
M  V30 967 H 88.1557 2.36384 -1.76655 0
M  V30 968 H 88.2367 0.733945 -2.45045 0
M  V30 969 H 87.8807 1.71776 -4.7797 0
M  V30 970 H 87.8107 3.34799 -4.06469 0
M  V30 971 H 90.3017 2.07734 -3.15682 0
M  V30 972 H 90.6147 3.71186 -6.77821 0
M  V30 973 H 88.9597 3.34427 -6.09248 0
M  V30 974 H 92.1507 2.50237 -3.95599 0
M  V30 975 H 92.3237 3.24792 -5.60726 0
M  V30 976 N 85.7298 1.2412 0.971189 0
M  V30 977 C 86.9758 1.08041 1.71625 0
M  V30 978 C 87.3088 -0.380407 1.90438 0
M  V30 979 O 86.5838 -1.28127 1.46334 0
M  V30 980 C 86.8668 1.81682 3.10908 0
M  V30 981 C 86.7198 3.35493 2.99608 0
M  V30 982 C 88.0388 1.58671 4.10501 0
M  V30 983 H 85.1578 0.39388 0.622919 0
M  V30 984 H 87.7998 1.52743 1.13003 0
M  V30 985 H 85.9498 1.43684 3.60953 0
M  V30 986 H 87.6218 3.83068 2.57015 0
M  V30 987 H 85.8648 3.64052 2.35899 0
M  V30 988 H 86.5358 3.82217 3.98264 0
M  V30 989 H 89.0118 1.91719 3.69301 0
M  V30 990 H 87.8878 2.1266 5.06031 0
M  V30 991 H 88.1488 0.524161 4.38982 0
M  V30 992 N 87.2079 -1.17134 1.05439 0
M  V30 993 C 88.1579 -2.1919 0.627675 0
M  V30 994 C 89.1419 -1.57328 -0.337147 0
M  V30 995 O 90.3339 -1.76329 -0.153976 0
M  V30 996 C 87.4629 -3.43299 0.00651435 0
M  V30 997 C 86.5489 -4.12255 0.995312 0
M  V30 998 N 86.9399 -4.56997 2.16765 0
M  V30 999 C 85.2379 -4.38316 0.824336 0
M  V30 1000 C 85.9389 -5.10239 2.7934 0
M  V30 1001 N 84.9149 -5.02595 2.07122 0
M  V30 1002 H 88.7169 -2.5149 1.52086 0
M  V30 1003 H 86.2309 -1.33491 0.924868 0
M  V30 1004 H 88.2279 -4.15693 -0.316965 0
M  V30 1005 H 86.8879 -3.1249 -0.882033 0
M  V30 1006 H 87.8989 -4.51006 2.54587 0
M  V30 1007 H 84.5759 -4.17498 -0.0129526 0
M  V30 1008 H 85.9659 -5.54961 3.78772 0
M  V30 1009 N 88.686 -0.835752 -1.33615 0
M  V30 1010 C 89.932 -0.430596 -1.98176 0
M  V30 1011 C 90.265 1.00684 -1.66061 0
M  V30 1012 O 89.54 1.70339 -0.938877 0
M  V30 1013 C 89.823 -0.648065 -3.5422 0
M  V30 1014 C 89.676 -2.13255 -3.96033 0
M  V30 1015 C 90.995 -0.0922113 -4.40003 0
M  V30 1016 H 88.114 -0.157924 -0.719881 0
M  V30 1017 H 90.756 -1.05069 -1.58305 0
M  V30 1018 H 88.906 -0.120237 -3.88314 0
M  V30 1019 H 90.578 -2.725 -3.72211 0
M  V30 1020 H 88.821 -2.61823 -3.45878 0
M  V30 1021 H 89.492 -2.23547 -5.04708 0
M  V30 1022 H 91.968 -0.543343 -4.12537 0
M  V30 1023 H 90.844 -0.274083 -5.48215 0
M  V30 1024 H 91.105 1.00378 -4.30554 0
M  V30 1025 N 90.1641 1.46063 -0.591896 0
M  V30 1026 C 91.0961 2.28539 0.174001 0
M  V30 1027 C 92.1091 1.39047 0.846753 0
M  V30 1028 O 93.2981 1.63564 0.714774 0
M  V30 1029 C 90.3981 3.14347 1.26645 0
M  V30 1030 C 89.5711 4.32021 0.683856 0
M  V30 1031 C 88.6301 4.99157 1.66518 0
M  V30 1032 O 87.6561 5.56458 1.19763 0
M  V30 1033 N 88.8581 4.97005 2.99943 0
M  V30 1034 H 91.6231 2.94911 -0.533633 0
M  V30 1035 H 89.1841 1.56077 -0.430294 0
M  V30 1036 H 91.1761 3.56125 1.92242 0
M  V30 1037 H 89.7461 2.49988 1.87682 0
M  V30 1038 H 88.9661 3.93915 -0.1498 0
M  V30 1039 H 90.2541 5.08059 0.274567 0
M  V30 1040 H 89.6521 4.51714 3.40545 0
M  V30 1041 H 88.2091 5.42696 3.61004 0
M  V30 1042 N 91.6422 0.330177 1.54103 0
M  V30 1043 C 93.0532 -0.15652 1.86043 0
M  V30 1044 C 93.4042 -1.51086 1.2517 0
M  V30 1045 O 92.5292 -2.09023 0.560217 0
M  V30 1046 C 93.1242 -0.290784 3.3755 0
M  V30 1047 C 91.6832 -0.721705 3.69416 0
M  V30 1048 C 90.8302 0.152622 2.7688 0
M  V30 1049 H 93.7812 0.550237 1.48856 0
M  V30 1050 H 93.8022 -1.12058 3.63625 0
M  V30 1051 H 93.3142 0.695068 3.81825 0
M  V30 1052 H 91.4152 -1.71706 3.30678 0
M  V30 1053 H 91.5282 -0.520869 4.7626 0
M  V30 1054 H 89.8922 -0.372894 2.51956 0
M  V30 1055 H 90.6752 1.13536 3.23982 0
M  V30 1056 N 93.1203 -1.57491 0.0584922 0
M  V30 1057 C 94.3693 -1.92155 -0.613146 0
M  V30 1058 C 94.6823 -0.939334 -1.71569 0
M  V30 1059 O 95.8883 -1.17829 -2.44599 0
M  V30 1060 C 94.3443 -3.41303 -1.14195 0
M  V30 1061 C 93.9523 -4.47944 -0.0711265 0
M  V30 1062 C 95.6963 -3.84988 -1.78841 0
M  V30 1063 C 93.6033 -5.88212 -0.613225 0
M  V30 1064 H 92.5333 -0.717162 -0.232796 0
M  V30 1065 H 95.1843 -1.83049 0.12857 0
M  V30 1066 H 93.5663 -3.45437 -1.93621 0
M  V30 1067 H 94.7403 -4.55408 0.702836 0
M  V30 1068 H 93.0553 -4.13644 0.478313 0
M  V30 1069 H 95.6523 -4.87159 -2.20408 0
M  V30 1070 H 95.9953 -3.21632 -2.64308 0
M  V30 1071 H 96.5283 -3.83401 -1.06059 0
M  V30 1072 H 93.2673 -6.55183 0.203978 0
M  V30 1073 H 92.7873 -5.84294 -1.35501 0
M  V30 1074 H 94.4663 -6.37687 -1.09383 0
M  V30 1075 N 94.5984 0.214957 -1.56127 0
M  V30 1076 C 96.0094 0.781386 -1.69562 0
M  V30 1077 C 96.3604 1.84707 -0.66165 0
M  V30 1078 O 95.4854 2.156 0.185927 0
M  V30 1079 C 96.0804 1.42411 -3.07416 0
M  V30 1080 C 94.6394 1.93786 -3.22683 0
M  V30 1081 C 93.7864 0.800438 -2.65496 0
M  V30 1082 H 96.7374 -0.00980633 -1.58697 0
M  V30 1083 H 96.7584 2.29309 -3.0364 0
M  V30 1084 H 96.2704 0.64826 -3.82648 0
M  V30 1085 H 94.3714 2.74152 -2.52332 0
M  V30 1086 H 94.4844 2.1133 -4.29973 0
M  V30 1087 H 92.8484 1.2095 -2.2415 0
M  V30 1088 H 93.6314 0.0371471 -3.4328 0
M  V30 1089 N 96.0765 1.50051 0.48192 0
M  V30 1090 C 97.4875 1.5348 1.06305 0
M  V30 1091 C 97.8385 0.331997 1.93371 0
M  V30 1092 O 96.9635 -0.556256 2.09129 0
M  V30 1093 C 97.5585 2.7813 1.93466 0
M  V30 1094 C 96.1175 2.84275 2.46707 0
M  V30 1095 C 95.2645 2.47637 1.24785 0
M  V30 1096 H 98.2155 1.56472 0.264995 0
M  V30 1097 H 98.2365 2.59372 2.78399 0
M  V30 1098 H 97.7485 3.65654 1.30072 0
M  V30 1099 H 95.8495 2.01077 3.13686 0
M  V30 1100 H 95.9625 3.8691 2.82555 0
M  V30 1101 H 94.3265 1.99835 1.57918 0
M  V30 1102 H 95.1095 3.37457 0.630694 0
M  V30 1103 N 97.5546 -0.734337 1.39446 0
M  V30 1104 C 98.7826 -1.52358 1.39981 0
M  V30 1105 C 99.1976 -1.88799 -0.0054975 0
M  V30 1106 O 98.5546 -1.54146 -0.976998 0
M  V30 1107 C 98.6056 -2.81072 2.27333 0
M  V30 1108 O 98.3266 -2.46178 3.62392 0
M  V30 1109 C 99.8276 -3.75096 2.36259 0
M  V30 1110 H 97.0476 -0.470806 0.478103 0
M  V30 1111 H 99.5916 -0.907339 1.83269 0
M  V30 1112 H 97.7466 -3.39026 1.87457 0
M  V30 1113 H 98.1606 -3.28866 4.08592 0
M  V30 1114 H 99.6346 -4.62305 3.01626 0
M  V30 1115 H 100.112 -4.16892 1.38194 0
M  V30 1116 H 100.718 -3.23061 2.76608 0
M  V30 1117 N 99.0327 -1.24633 -0.964593 0
M  V30 1118 C 100.449 -1.01239 -1.2338 0
M  V30 1119 C 100.649 0.2769 -1.99588 0
M  V30 1120 O 99.7047 0.992241 -2.32187 0
M  V30 1121 C 101.018 -2.22937 -2.01791 0
M  V30 1122 C 102.566 -2.27594 -2.14872 0
M  V30 1123 C 103.041 -3.48921 -2.96678 0
M  V30 1124 N 104.532 -3.49257 -3.04259 0
M  V30 1125 C 105.267 -4.39795 -3.67924 0
M  V30 1126 N 104.763 -5.40591 -4.33281 0
M  V30 1127 N 106.556 -4.275 -3.64966 0
M  V30 1128 H 98.7067 -2.0748 -0.454502 0
M  V30 1129 H 100.97 -0.910647 -0.26349 0
M  V30 1130 H 100.676 -3.16587 -1.53184 0
M  V30 1131 H 100.55 -2.25306 -3.02518 0
M  V30 1132 H 102.937 -1.34473 -2.6268 0
M  V30 1133 H 103.018 -2.2925 -1.13482 0
M  V30 1134 H 102.662 -4.42359 -2.49562 0
M  V30 1135 H 102.592 -3.4451 -3.98272 0
M  V30 1136 H 105.083 -2.76337 -2.57771 0
M  V30 1137 H 105.396 -6.05904 -4.79687 0
M  V30 1138 H 103.741 -5.44475 -4.3194 0
M  V30 1139 H 106.932 -3.47987 -3.13086 0
M  V30 1140 H 107.105 -4.98258 -4.14298 0
M  V30 1141 N 100.511 1.16574 -1.06058 0
M  V30 1142 C 101.759 1.86677 -0.77434 0
M  V30 1143 C 102.08 1.81959 0.701147 0
M  V30 1144 O 101.35 1.2515 1.50713 0
M  V30 1145 H 99.9298 0.691134 -0.283449 0
M  V30 1146 H 102.592 1.41378 -1.34158 0
M  V30 1147 H 101.688 2.92181 -1.09711 0
M  V30 1148 N 101.989 0.842826 1.3317 0
M  V30 1149 C 103.238 0.436738 1.96915 0
M  V30 1150 C 103.551 -1.01025 1.67491 0
M  V30 1151 O 104.757 -1.5212 2.24881 0
M  V30 1152 C 103.213 0.730021 3.52418 0
M  V30 1153 C 102.821 2.19195 3.90714 0
M  V30 1154 C 104.565 0.391076 4.22695 0
M  V30 1155 C 102.472 2.42907 5.39212 0
M  V30 1156 H 101.402 0.15958 0.736919 0
M  V30 1157 H 104.053 1.03196 1.51733 0
M  V30 1158 H 102.435 0.0643755 3.95948 0
M  V30 1159 H 103.609 2.8984 3.58231 0
M  V30 1160 H 101.924 2.49425 3.33431 0
M  V30 1161 H 104.521 0.545817 5.31907 0
M  V30 1162 H 104.864 -0.666294 4.10933 0
M  V30 1163 H 105.397 1.01212 3.84709 0
M  V30 1164 H 102.136 3.47224 5.55982 0
M  V30 1165 H 101.656 1.76827 5.73142 0
M  V30 1166 H 103.335 2.2626 6.06148 0
M  V30 1167 N 103.467 -1.45747 0.599634 0
M  V30 1168 C 104.716 -2.01502 0.0893511 0
M  V30 1169 C 105.029 -1.4748 -1.28488 0
M  V30 1170 O 106.235 -1.95161 -1.88745 0
M  V30 1171 C 104.691 -3.59735 0.109082 0
M  V30 1172 C 104.299 -4.22754 1.48267 0
M  V30 1173 C 106.043 -4.23085 -0.346374 0
M  V30 1174 C 103.95 -5.73115 1.45921 0
M  V30 1175 H 102.88 -0.753417 0.0296347 0
M  V30 1176 H 105.531 -1.67303 0.753788 0
M  V30 1177 H 103.913 -3.91087 -0.621854 0
M  V30 1178 H 105.087 -4.02987 2.23468 0
M  V30 1179 H 103.402 -3.71567 1.87955 0
M  V30 1180 H 105.999 -5.33327 -0.38298 0
M  V30 1181 H 106.342 -3.93201 -1.36743 0
M  V30 1182 H 106.875 -3.9642 0.331038 0
M  V30 1183 H 103.614 -6.07685 2.45762 0
M  V30 1184 H 103.134 -5.95097 0.749665 0
M  V30 1185 H 104.813 -6.3616 1.17941 0
M  V30 1186 N 104.945 -0.338344 -1.53925 0
M  V30 1187 C 106.192 0.259758 -2.00827 0
M  V30 1188 C 106.52 1.50973 -1.22628 0
M  V30 1189 O 105.775 1.93379 -0.300509 0
M  V30 1190 C 106.074 0.62448 -3.51902 0
M  V30 1191 C 105.74 -0.528006 -4.47798 0
M  V30 1192 C 104.402 -0.844298 -4.73735 0
M  V30 1193 C 106.754 -1.30143 -5.0469 0
M  V30 1194 C 104.082 -1.93648 -5.53821 0
M  V30 1195 C 106.434 -2.38382 -5.85967 0
M  V30 1196 C 105.098 -2.70576 -6.10201 0
M  V30 1197 H 104.368 0.0950523 -0.734878 0
M  V30 1198 H 107.015 -0.465182 -1.85764 0
M  V30 1199 H 105.32 1.43006 -3.64769 0
M  V30 1200 H 107.017 1.09905 -3.85645 0
M  V30 1201 H 103.607 -0.271421 -4.2774 0
M  V30 1202 H 107.791 -1.07033 -4.84621 0
M  V30 1203 H 103.047 -2.19021 -5.70824 0
M  V30 1204 H 107.221 -2.98746 -6.29066 0
M  V30 1205 H 104.848 -3.55333 -6.72044 0
M  V30 1206 N 106.423 1.57458 -0.0668435 0
M  V30 1207 C 107.7 1.8469 0.644132 0
M  V30 1208 C 108.08 0.958343 1.88093 0
M  V30 1209 O 107.428 0.0233579 2.28488 0
M  V30 1210 C 107.638 3.34767 0.986509 0
M  V30 1211 C 108.986 4.02159 1.36212 0
M  V30 1212 O 110.01 3.39484 1.07839 0
M  V30 1213 O 108.869 5.12694 1.89227 0
M  V30 1214 H 105.963 0.762816 0.319437 0
M  V30 1215 H 108.509 1.6942 -0.0973986 0
M  V30 1216 H 107.281 3.91151 0.107883 0
M  V30 1217 H 106.904 3.55281 1.78497 0
M  V30 1218 N 107.901 -0.206675 1.56239 0
M  V30 1219 C 109.317 -0.557025 1.49564 0
M  V30 1220 C 109.517 -1.86424 0.764735 0
M  V30 1221 O 108.573 -2.50584 0.310491 0
M  V30 1222 C 109.886 -0.622478 2.94186 0
M  V30 1223 C 111.434 -0.712099 3.04792 0
M  V30 1224 C 111.909 -0.808767 4.50803 0
M  V30 1225 N 113.4 -0.8726 4.54907 0
M  V30 1226 C 114.135 -0.967365 5.65181 0
M  V30 1227 N 113.631 -1.02515 6.85173 0
M  V30 1228 N 115.424 -1.00366 5.53067 0
M  V30 1229 H 107.575 0.650943 2.02179 0
M  V30 1230 H 109.838 0.230387 0.919579 0
M  V30 1231 H 109.544 0.268727 3.50672 0
M  V30 1232 H 109.418 -1.4811 3.46905 0
M  V30 1233 H 111.805 -1.59374 2.48363 0
M  V30 1234 H 111.886 0.172489 2.55218 0
M  V30 1235 H 111.53 0.0684754 5.07854 0
M  V30 1236 H 111.46 -1.70899 4.98098 0
M  V30 1237 H 113.951 -0.837657 3.68499 0
M  V30 1238 H 114.264 -1.09765 7.64965 0
M  V30 1239 H 112.609 -0.994026 6.87855 0
M  V30 1240 H 115.8 -0.95527 4.58249 0
M  V30 1241 H 115.973 -1.07405 6.39037 0
M  V30 1242 N 109.379 -1.50304 -0.473955 0
M  V30 1243 C 110.327 -1.69482 -1.59307 0
M  V30 1244 C 111.321 -0.560669 -1.59853 0
M  V30 1245 O 112.527 -0.741087 -1.64036 0
M  V30 1246 H 108.902 -0.534892 -0.528578 0
M  V30 1247 H 110.873 -2.63364 -1.40293 0
M  V30 1248 C 109.622 -1.80354 -2.97267 0
M  V30 1249 H 108.945 -2.67012 -2.97564 0
M  V30 1250 H 110.385 -1.97798 -3.75036 0
M  V30 1251 C 108.844 -0.55448 -3.32306 0
M  V30 1252 O 109.374 0.307661 -4.0052 0
M  V30 1253 N 107.58 -0.409354 -2.87702 0
M  V30 1254 H 107.127 -1.11196 -2.32364 0
M  V30 1255 H 107.085 0.425223 -3.11511 0
M  V30 1256 N 110.857 0.726932 -1.39834 0
M  V30 1257 C 112.105 1.4837 -1.37225 0
M  V30 1258 C 112.426 1.94979 0.0284857 0
M  V30 1259 O 111.696 1.69555 0.981213 0
M  V30 1260 H 110.276 0.55043 -0.505011 0
M  V30 1261 H 112.938 0.862468 -1.74778 0
M  V30 1262 H 112.034 2.36198 -2.04003 0
M  V30 1263 N 112.336 1.25143 0.95797 0
M  V30 1264 C 113.582 1.09855 1.70469 0
M  V30 1265 C 113.915 -0.360187 1.90831 0
M  V30 1266 O 113.19 -1.26568 1.47685 0
M  V30 1267 C 113.473 1.8497 3.08963 0
M  V30 1268 C 113.326 3.38652 2.96032 0
M  V30 1269 C 114.645 1.63016 4.08795 0
M  V30 1270 H 111.764 0.400465 0.618706 0
M  V30 1271 H 114.406 1.53933 1.11376 0
M  V30 1272 H 112.556 1.47505 3.59409 0
M  V30 1273 H 114.228 3.85772 2.52938 0
M  V30 1274 H 112.471 3.66534 2.32025 0
M  V30 1275 H 113.142 3.8642 3.94187 0
M  V30 1276 H 115.618 1.95625 3.67247 0
M  V30 1277 H 114.494 2.18015 5.03747 0
M  V30 1278 H 114.755 0.570692 4.38401 0
M  V30 1279 N 113.814 -1.1601 1.06675 0
M  V30 1280 C 115.063 -1.85973 0.780818 0
M  V30 1281 C 115.376 -1.82819 -0.695444 0
M  V30 1282 O 116.582 -2.484 -1.09589 0
M  V30 1283 C 115.038 -3.33757 1.34665 0
M  V30 1284 C 114.646 -3.45374 2.85343 0
M  V30 1285 C 116.39 -4.0895 1.13843 0
M  V30 1286 C 114.297 -4.87266 3.35151 0
M  V30 1287 H 113.227 -0.696661 0.288407 0
M  V30 1288 H 115.878 -1.30903 1.28595 0
M  V30 1289 H 114.26 -3.88456 0.769274 0
M  V30 1290 H 115.434 -3.00816 3.49065 0
M  V30 1291 H 113.749 -2.83619 3.04876 0
M  V30 1292 H 116.346 -5.13654 1.4854 0
M  V30 1293 H 116.689 -4.16229 0.0770282 0
M  V30 1294 H 117.222 -3.605 1.68179 0
M  V30 1295 H 113.961 -4.85168 4.40786 0
M  V30 1296 H 113.481 -5.32433 2.76179 0
M  V30 1297 H 115.16 -5.56097 3.30704 0
M  V30 1298 N 115.292 -0.849877 -1.32721 0
M  V30 1299 C 116.541 -0.447175 -1.96681 0
M  V30 1300 C 116.854 1.00135 -1.68025 0
M  V30 1301 O 118.06 1.50926 -2.25685 0
M  V30 1302 C 116.516 -0.7487 -3.52026 0
M  V30 1303 C 116.124 -2.21264 -3.89546 0
M  V30 1304 C 117.868 -0.413487 -4.22481 0
M  V30 1305 C 115.775 -2.45763 -5.37917 0
M  V30 1306 H 114.705 -0.163486 -0.736063 0
M  V30 1307 H 117.356 -1.03999 -1.51183 0
M  V30 1308 H 115.738 -0.0853727 -3.95908 0
M  V30 1309 H 116.912 -2.91736 -3.56689 0
M  V30 1310 H 115.227 -2.5119 -3.32103 0
M  V30 1311 H 117.824 -0.574017 -5.3161 0
M  V30 1312 H 118.167 0.644492 -4.11281 0
M  V30 1313 H 118.7 -1.03251 -3.84167 0
M  V30 1314 H 115.439 -3.50168 -5.54132 0
M  V30 1315 H 114.959 -1.79864 -5.72197 0
M  V30 1316 H 116.638 -2.29471 -6.0494 0
M  V30 1317 N 116.77 1.45427 -0.607355 0
M  V30 1318 C 117.733 2.28974 0.101693 0
M  V30 1319 C 118.733 1.39754 0.795329 0
M  V30 1320 O 119.923 1.61878 0.643527 0
M  V30 1321 C 117.055 3.20768 1.15414 0
M  V30 1322 H 118.248 2.93147 -0.632844 0
M  V30 1323 H 115.801 1.51945 -0.366391 0
M  V30 1324 H 116.536 2.61395 1.91945 0
M  V30 1325 H 116.321 3.86489 0.66098 0
M  V30 1326 H 117.811 3.83589 1.65073 0
M  V30 1327 N 118.248 0.346503 1.53744 0
M  V30 1328 C 119.525 -0.304532 1.93215 0
M  V30 1329 C 119.905 -1.67993 1.27834 0
M  V30 1330 O 119.253 -2.24411 0.430352 0
M  V30 1331 C 119.463 -0.373852 3.46992 0
M  V30 1332 C 120.811 -0.62329 4.2 0
M  V30 1333 O 121.835 -0.455847 3.53271 0
M  V30 1334 O 120.694 -0.947879 5.38217 0
M  V30 1335 H 117.788 -0.178318 0.807547 0
M  V30 1336 H 120.334 0.397895 1.64969 0
M  V30 1337 H 119.106 0.591224 3.86808 0
M  V30 1338 H 118.729 -1.12294 3.81413 0
M  V30 1339 N 119.726 -1.57421 0.075193 0
M  V30 1340 C 120.674 -2.14124 -0.908508 0
M  V30 1341 C 121.668 -1.07898 -1.30592 0
M  V30 1342 O 122.874 -1.26273 -1.28277 0
M  V30 1343 H 119.249 -0.684707 -0.310935 0
M  V30 1344 H 121.22 -2.95634 -0.405374 0
M  V30 1345 C 119.969 -2.72044 -2.16535 0
M  V30 1346 H 119.292 -3.53456 -1.86839 0
M  V30 1347 H 120.732 -3.15311 -2.83469 0
M  V30 1348 C 119.191 -1.66968 -2.92615 0
M  V30 1349 O 119.721 -1.0967 -3.86439 0
M  V30 1350 N 117.927 -1.37923 -2.55784 0
M  V30 1351 H 117.474 -1.84706 -1.79559 0
M  V30 1352 H 117.432 -0.67852 -3.06991 0
M  V30 1353 N 121.204 0.198386 -1.56346 0
M  V30 1354 C 122.62 0.549085 -1.49857 0
M  V30 1355 C 122.82 1.86016 -0.774611 0
M  V30 1356 O 121.876 2.50416 -0.323776 0
M  V30 1357 C 123.189 0.606868 -2.94512 0
M  V30 1358 C 124.737 0.695925 -3.05165 0
M  V30 1359 C 125.212 0.784848 -4.51225 0
M  V30 1360 N 126.703 0.848463 -4.55363 0
M  V30 1361 C 127.438 0.937378 -5.65686 0
M  V30 1362 N 126.934 0.9888 -6.85707 0
M  V30 1363 N 128.727 0.974312 -5.53592 0
M  V30 1364 H 120.878 -0.661655 -2.01831 0
M  V30 1365 H 123.141 -0.235261 -0.918344 0
M  V30 1366 H 122.847 -0.28732 -3.50524 0
M  V30 1367 H 122.721 1.46268 -3.47686 0
M  V30 1368 H 125.108 1.58055 -2.49204 0
M  V30 1369 H 125.189 -0.186022 -2.55123 0
M  V30 1370 H 124.833 -0.0954072 -5.0781 0
M  V30 1371 H 124.763 1.68255 -4.98997 0
M  V30 1372 H 127.254 0.818103 -3.68938 0
M  V30 1373 H 127.567 1.05707 -7.65536 0
M  V30 1374 H 125.912 0.957534 -6.88372 0
M  V30 1375 H 129.103 0.930954 -4.58749 0
M  V30 1376 H 129.276 1.04015 -6.39597 0
M  V30 1377 N 122.682 1.50554 0.465978 0
M  V30 1378 C 124.093 1.54599 1.04671 0
M  V30 1379 C 124.444 0.352488 1.93008 0
M  V30 1380 O 123.569 -0.534044 2.09707 0
M  V30 1381 C 124.164 2.80166 1.90505 0
M  V30 1382 C 122.723 2.86876 2.43678 0
M  V30 1383 C 121.87 2.48947 1.22151 0
M  V30 1384 H 124.821 1.56744 0.248384 0
M  V30 1385 H 124.842 2.62311 2.75633 0
M  V30 1386 H 124.354 3.67013 1.26186 0
M  V30 1387 H 122.455 2.04393 3.11536 0
M  V30 1388 H 122.568 3.89885 2.78436 0
M  V30 1389 H 120.932 2.01498 1.5579 0
M  V30 1390 H 121.715 3.38107 0.594866 0
M  V30 1391 N 124.16 -0.719506 1.40217 0
M  V30 1392 C 125.385 -1.51371 1.4178 0
M  V30 1393 C 125.81 -1.88091 0.0182355 0
M  V30 1394 O 125.168 -1.52997 -0.972707 0
M  V30 1395 C 125.216 -2.768 2.31115 0
M  V30 1396 O 124.32 -3.73349 1.7517 0
M  V30 1397 H 123.661 -0.456529 0.482159 0
M  V30 1398 H 126.191 -0.88644 1.844 0
M  V30 1399 H 126.201 -3.25371 2.46167 0
M  V30 1400 H 124.876 -2.49407 3.3282 0
M  V30 1401 H 123.453 -3.32179 1.69444 0
M  V30 1402 N 125.638 -1.25649 -0.95132 0
M  V30 1403 C 126.885 -1.10594 -1.69633 0
M  V30 1404 C 127.213 0.352515 -1.91279 0
M  V30 1405 O 126.468 1.27601 -1.4838 0
M  V30 1406 C 126.767 -1.80909 -3.08231 0
M  V30 1407 C 126.433 -3.30825 -3.06375 0
M  V30 1408 C 125.095 -3.71722 -3.05576 0
M  V30 1409 C 127.447 -4.26589 -2.99452 0
M  V30 1410 C 124.775 -5.06788 -2.95606 0
M  V30 1411 C 127.127 -5.61683 -2.91024 0
M  V30 1412 C 125.791 -6.01904 -2.88562 0
M  V30 1413 H 125.061 -0.404691 -0.620731 0
M  V30 1414 H 127.708 -1.55964 -1.11119 0
M  V30 1415 H 126.013 -1.27979 -3.70309 0
M  V30 1416 H 127.71 -1.6671 -3.64704 0
M  V30 1417 H 124.3 -2.98287 -3.07771 0
M  V30 1418 H 128.484 -3.95982 -2.99185 0
M  V30 1419 H 123.74 -5.37126 -2.92071 0
M  V30 1420 H 127.914 -6.35578 -2.84629 0
M  V30 1421 H 125.541 -7.06521 -2.80593 0
M  V30 1422 N 127.117 1.15442 -1.07289 0
M  V30 1423 C 128.342 1.90638 -0.816828 0
M  V30 1424 C 128.767 1.77445 0.624083 0
M  V30 1425 O 128.125 1.10671 1.43602 0
M  V30 1426 C 128.173 3.39008 -1.22906 0
M  V30 1427 O 127.277 4.10701 -0.373975 0
M  V30 1428 H 126.618 0.593555 -0.297638 0
M  V30 1429 H 129.148 1.46198 -1.43134 0
M  V30 1430 H 129.158 3.89801 -1.20497 0
M  V30 1431 H 127.833 3.47929 -2.27856 0
M  V30 1432 H 126.41 3.70046 -0.460499 0
M  V30 1433 N 128.595 0.856903 1.32268 0
M  V30 1434 C 129.525 0.31858 2.31316 0
M  V30 1435 C 130.506 -0.583487 1.59779 0
M  V30 1436 O 131.691 -0.503259 1.87566 0
M  V30 1437 C 128.821 -0.491979 3.43798 0
M  V30 1438 C 127.775 0.315849 4.26833 0
M  V30 1439 C 127.101 -0.619586 5.31098 0
M  V30 1440 C 128.401 1.54282 4.98993 0
M  V30 1441 H 130.095 1.14621 2.76591 0
M  V30 1442 H 127.641 0.552613 1.32974 0
M  V30 1443 H 129.594 -0.879012 4.1213 0
M  V30 1444 H 128.318 -1.35299 2.97257 0
M  V30 1445 H 126.977 0.684664 3.6015 0
M  V30 1446 H 126.625 -1.47751 4.8081 0
M  V30 1447 H 126.325 -0.0830621 5.87541 0
M  V30 1448 H 127.849 -1.00375 6.02293 0
M  V30 1449 H 129.263 1.22796 5.59995 0
M  V30 1450 H 127.66 2.01745 5.65172 0
M  V30 1451 H 128.73 2.30285 4.26728 0
M  V30 1452 N 130.073 -1.45103 0.615059 0
M  V30 1453 C 131.301 -2.06553 0.11977 0
M  V30 1454 C 131.716 -1.45842 -1.19898 0
M  V30 1455 O 131.073 -0.575325 -1.73194 0
M  V30 1456 C 131.124 -3.61495 -0.018364 0
M  V30 1457 O 130.845 -4.19942 1.24822 0
M  V30 1458 C 132.346 -4.39947 -0.544237 0
M  V30 1459 H 129.566 -0.667096 0.0722739 0
M  V30 1460 H 132.11 -1.8623 0.84491 0
M  V30 1461 H 130.265 -3.81135 -0.693865 0
M  V30 1462 H 130.679 -5.13204 1.0827 0
M  V30 1463 H 132.153 -5.48838 -0.589953 0
M  V30 1464 H 132.63 -4.10255 -1.56805 0
M  V30 1465 H 133.236 -4.25188 0.0974703 0
M  V30 1466 N 131.551 -0.354651 -1.53558 0
M  V30 1467 C 132.8 0.239504 -2.00273 0
M  V30 1468 C 133.113 1.50759 -1.24623 0
M  V30 1469 O 134.319 2.17968 -1.61871 0
M  V30 1470 C 132.775 0.477341 -3.5672 0
M  V30 1471 C 132.383 -0.775488 -4.41237 0
M  V30 1472 C 134.127 1.02975 -4.11821 0
M  V30 1473 C 132.034 -0.507838 -5.89216 0
M  V30 1474 H 130.964 0.0932743 -0.748208 0
M  V30 1475 H 133.615 -0.471701 -1.77334 0
M  V30 1476 H 131.997 1.24953 -3.7577 0
M  V30 1477 H 133.171 -1.54963 -4.33962 0
M  V30 1478 H 131.486 -1.25033 -3.97185 0
M  V30 1479 H 134.083 1.24513 -5.2 0
M  V30 1480 H 134.426 1.98862 -3.65731 0
M  V30 1481 H 134.959 0.317994 -3.96527 0
M  V30 1482 H 131.698 -1.43674 -6.39561 0
M  V30 1483 H 131.218 0.228011 -5.99366 0
M  V30 1484 H 132.897 -0.129238 -6.46871 0
M  V30 1485 N 133.029 1.57378 -0.0835403 0
M  V30 1486 C 134.257 1.98263 0.59157 0
M  V30 1487 C 134.672 0.962302 1.62435 0
M  V30 1488 O 134.029 -0.049581 1.82433 0
M  V30 1489 C 134.08 3.39214 1.24965 0
M  V30 1490 O 133.801 4.37339 0.258186 0
M  V30 1491 C 135.302 3.95038 2.01147 0
M  V30 1492 H 132.522 0.651773 0.159477 0
M  V30 1493 H 135.066 2.03878 -0.159415 0
M  V30 1494 H 133.221 3.34649 1.95164 0
M  V30 1495 H 133.635 5.19371 0.731734 0
M  V30 1496 H 135.109 4.95848 2.42567 0
M  V30 1497 H 135.586 3.32222 2.87272 0
M  V30 1498 H 136.192 4.0304 1.35789 0
M  V30 1499 N 134.507 -0.190092 1.56449 0
M  V30 1500 C 135.923 -0.54113 1.50146 0
M  V30 1501 C 136.123 -1.85603 0.784465 0
M  V30 1502 O 135.179 -2.5024 0.337051 0
M  V30 1503 C 136.492 -0.591241 2.9483 0
M  V30 1504 C 138.04 -0.679732 3.0553 0
M  V30 1505 C 138.515 -0.760908 4.51635 0
M  V30 1506 N 140.006 -0.824302 4.55806 0
M  V30 1507 C 140.741 -0.907365 5.66175 0
M  V30 1508 N 140.237 -0.952422 6.86222 0
M  V30 1509 N 142.03 -0.94494 5.541 0
M  V30 1510 H 134.181 0.67235 2.01478 0
M  V30 1511 H 136.444 0.240127 0.917084 0
M  V30 1512 H 136.15 0.305905 3.50367 0
M  V30 1513 H 136.024 -1.44422 3.48457 0
M  V30 1514 H 138.411 -1.56731 2.50039 0
M  V30 1515 H 138.492 0.199549 2.5502 0
M  V30 1516 H 138.136 0.122336 5.07753 0
M  V30 1517 H 138.066 -1.65606 4.99882 0
M  V30 1518 H 140.557 -0.798526 3.69367 0
M  V30 1519 H 140.87 -1.01645 7.66086 0
M  V30 1520 H 139.215 -0.921014 6.8887 0
M  V30 1521 H 142.406 -0.906612 4.59236 0
M  V30 1522 H 142.579 -1.00622 6.4014 0
M  V30 1523 N 135.985 -1.50799 -0.457987 0
M  V30 1524 C 136.895 -1.73426 -1.57989 0
M  V30 1525 C 137.911 -0.617745 -1.62665 0
M  V30 1526 O 139.087 -0.897614 -1.80291 0
M  V30 1527 C 136.152 -1.83557 -2.94122 0
M  V30 1528 C 135.213 -3.07345 -2.99729 0
M  V30 1529 C 134.446 -3.16983 -4.29368 0
M  V30 1530 O 134.669 -2.33077 -5.20607 0
M  V30 1531 O 133.603 -4.09812 -4.40837 0
M  V30 1532 H 137.429 -2.68555 -1.41817 0
M  V30 1533 H 135.014 -1.35052 -0.638859 0
M  V30 1534 H 136.896 -1.92326 -3.74952 0
M  V30 1535 H 135.571 -0.916137 -3.10465 0
M  V30 1536 H 134.478 -3.04068 -2.1793 0
M  V30 1537 H 135.811 -3.9891 -2.88326 0
M  V30 1538 N 137.463 0.71206 -1.40597 0
M  V30 1539 C 138.879 1.02058 -1.22704 0
M  V30 1540 C 139.079 2.01228 -0.104729 0
M  V30 1541 O 138.135 2.4674 0.53624 0
M  V30 1542 C 139.448 1.56094 -2.57012 0
M  V30 1543 C 140.996 1.6806 -2.64054 0
M  V30 1544 C 141.471 2.25501 -3.9864 0
M  V30 1545 N 142.962 2.32882 -4.004 0
M  V30 1546 C 143.697 2.78317 -5.01325 0
M  V30 1547 N 143.193 3.23478 -6.12645 0
M  V30 1548 N 144.986 2.77733 -4.88693 0
M  V30 1549 H 137.137 0.0547896 -2.12329 0
M  V30 1550 H 139.4 0.0869027 -0.944008 0
M  V30 1551 H 139.106 0.906865 -3.39807 0
M  V30 1552 H 138.98 2.54564 -2.78347 0
M  V30 1553 H 141.367 2.32583 -1.81629 0
M  V30 1554 H 141.448 0.681802 -2.46546 0
M  V30 1555 H 141.092 1.61598 -4.81506 0
M  V30 1556 H 141.022 3.26102 -4.13479 0
M  V30 1557 H 143.513 2.00991 -3.20017 0
M  V30 1558 H 143.826 3.56725 -6.85542 0
M  V30 1559 H 142.171 3.21429 -6.16205 0
M  V30 1560 H 145.362 2.4179 -4.00818 0
M  V30 1561 H 145.535 3.12826 -5.67489 0
M  V30 1562 N 138.941 1.26152 0.944643 0
M  V30 1563 C 140.169 1.14259 1.72489 0
M  V30 1564 C 140.584 -0.302555 1.8636 0
M  V30 1565 O 139.941 -1.20741 1.36849 0
M  V30 1566 C 139.992 1.80266 3.13347 0
M  V30 1567 O 139.713 3.19133 3.00143 0
M  V30 1568 C 141.214 1.74283 4.07603 0
M  V30 1569 H 138.434 0.398051 0.540181 0
M  V30 1570 H 140.978 1.66706 1.18446 0
M  V30 1571 H 139.133 1.31766 3.64303 0
M  V30 1572 H 139.547 3.51744 3.89071 0
M  V30 1573 H 141.021 2.25111 5.04013 0
M  V30 1574 H 141.498 0.708631 4.33446 0
M  V30 1575 H 142.104 2.22319 3.62567 0
M  V30 1576 N 140.419 -1.14872 1.07899 0
M  V30 1577 C 141.329 -2.2341 0.715915 0
M  V30 1578 C 142.345 -1.71808 -0.275306 0
M  V30 1579 O 143.521 -2.01039 -0.120545 0
M  V30 1580 C 140.586 -3.46474 0.125168 0
M  V30 1581 C 139.647 -4.13039 1.17034 0
M  V30 1582 C 138.88 -5.30229 0.607688 0
M  V30 1583 O 139.103 -5.675 -0.574497 0
M  V30 1584 O 138.037 -5.86444 1.35526 0
M  V30 1585 H 141.863 -2.56808 1.62121 0
M  V30 1586 H 139.448 -1.22702 0.852322 0
M  V30 1587 H 141.33 -4.20917 -0.201729 0
M  V30 1588 H 140.005 -3.14811 -0.753364 0
M  V30 1589 H 138.912 -3.40493 1.54968 0
M  V30 1590 H 140.245 -4.48796 2.02097 0
M  V30 1591 N 141.898 -0.863906 -1.31812 0
M  V30 1592 C 143.175 -0.39275 -1.91616 0
M  V30 1593 C 143.555 1.12461 -1.7865 0
M  V30 1594 O 142.903 1.95045 -1.19037 0
M  V30 1595 C 143.113 -0.867385 -3.38049 0
M  V30 1596 C 144.461 -0.889966 -4.15168 0
M  V30 1597 O 145.485 -0.812635 -3.46806 0
M  V30 1598 O 144.344 -1.00079 -5.37258 0
M  V30 1599 H 141.438 -0.116358 -0.818773 0
M  V30 1600 H 143.984 -0.951418 -1.40521 0
M  V30 1601 H 142.756 -1.91081 -3.41473 0
M  V30 1602 H 142.379 -0.286687 -3.96565 0
M  V30 1603 N 143.376 1.44774 -0.622745 0
M  V30 1604 C 144.306 2.33382 0.0741861 0
M  V30 1605 C 145.287 1.47719 0.843387 0
M  V30 1606 O 146.472 1.76458 0.810934 0
M  V30 1607 C 143.602 3.30663 1.06204 0
M  V30 1608 C 142.556 4.26079 0.405037 0
M  V30 1609 C 141.882 5.13165 1.5022 0
M  V30 1610 C 143.182 5.1781 -0.683414 0
M  V30 1611 H 144.876 2.91905 -0.665713 0
M  V30 1612 H 142.422 1.40363 -0.321587 0
M  V30 1613 H 144.375 3.9153 1.55827 0
M  V30 1614 H 143.099 2.70331 1.83272 0
M  V30 1615 H 141.758 3.66532 -0.0704683 0
M  V30 1616 H 141.406 4.49191 2.26355 0
M  V30 1617 H 141.106 5.77812 1.06803 0
M  V30 1618 H 142.63 5.76902 2.00041 0
M  V30 1619 H 144.044 5.72661 -0.270631 0
M  V30 1620 H 142.441 5.91015 -1.04023 0
M  V30 1621 H 143.511 4.59326 -1.55395 0
M  V30 1622 N 144.854 0.36279 1.53368 0
M  V30 1623 C 145.786 -0.519668 2.23231 0
M  V30 1624 C 146.799 -1.04844 1.24546 0
M  V30 1625 O 147.988 -0.955296 1.50786 0
M  V30 1626 C 145.088 -1.72995 2.9142 0
M  V30 1627 C 144.261 -1.33316 4.16588 0
M  V30 1628 C 143.32 -2.40521 4.68013 0
M  V30 1629 O 142.346 -2.03027 5.3176 0
M  V30 1630 N 143.548 -3.72065 4.45587 0
M  V30 1631 H 146.313 0.078751 2.99597 0
M  V30 1632 H 143.874 0.187833 1.60807 0
M  V30 1633 H 145.866 -2.44184 3.22733 0
M  V30 1634 H 144.436 -2.2353 2.18525 0
M  V30 1635 H 143.656 -0.451236 3.91609 0
M  V30 1636 H 144.944 -1.04432 4.97967 0
M  V30 1637 H 144.342 -4.05304 3.94646 0
M  V30 1638 H 142.899 -4.39366 4.81457 0
M  V30 1639 N 146.332 -1.57332 0.0918853 0
M  V30 1640 C 147.279 -2.13847 -0.868211 0
M  V30 1641 C 148.249 -1.05618 -1.28196 0
M  V30 1642 O 149.434 -1.33387 -1.36427 0
M  V30 1643 C 146.574 -2.72062 -2.12312 0
M  V30 1644 C 145.687 -3.94514 -1.7602 0
M  V30 1645 C 144.822 -4.40903 -2.96273 0
M  V30 1646 C 143.861 -5.55953 -2.56092 0
M  V30 1647 N 142.998 -5.97209 -3.69169 0
M  V30 1648 H 147.838 -2.95575 -0.379406 0
M  V30 1649 H 145.375 -1.46048 -0.175606 0
M  V30 1650 H 147.333 -3.03931 -2.858 0
M  V30 1651 H 145.963 -1.93068 -2.58698 0
M  V30 1652 H 145.015 -3.68979 -0.925135 0
M  V30 1653 H 146.327 -4.7802 -1.42472 0
M  V30 1654 H 145.481 -4.74539 -3.78018 0
M  V30 1655 H 144.22 -3.56291 -3.33029 0
M  V30 1656 H 143.225 -5.21948 -1.72773 0
M  V30 1657 H 144.45 -6.42311 -2.20484 0
M  V30 1658 H 142.396 -5.15543 -4.05649 0
M  V30 1659 H 142.313 -6.75504 -3.39456 0
M  V30 1660 H 143.581 -6.35475 -4.51434 0
M  V30 1661 N 147.81 0.181792 -1.56548 0
M  V30 1662 C 149.038 0.915947 -1.85521 0
M  V30 1663 C 149.453 1.76282 -0.676016 0
M  V30 1664 O 148.81 1.79012 0.355077 0
M  V30 1665 C 148.861 1.80126 -3.13427 0
M  V30 1666 O 148.582 0.988562 -4.26801 0
M  V30 1667 C 150.083 2.64597 -3.55673 0
M  V30 1668 H 147.303 0.26661 -0.61576 0
M  V30 1669 H 149.847 0.185039 -2.03661 0
M  V30 1670 H 148.002 2.48563 -2.97145 0
M  V30 1671 H 148.416 1.59308 -4.99721 0
M  V30 1672 H 149.89 3.2235 -4.48101 0
M  V30 1673 H 150.367 3.38958 -2.79292 0
M  V30 1674 H 150.973 2.0151 -3.74532 0
M  V30 1675 N 149.288 1.51039 0.449983 0
M  V30 1676 C 150.218 1.74379 1.55288 0
M  V30 1677 C 151.199 0.593236 1.5942 0
M  V30 1678 O 152.384 0.834625 1.7535 0
M  V30 1679 C 149.514 1.85728 2.93466 0
M  V30 1680 C 148.468 3.01078 3.04197 0
M  V30 1681 C 147.794 2.97595 4.44231 0
M  V30 1682 C 149.094 4.41254 2.7945 0
M  V30 1683 H 150.788 2.66725 1.36008 0
M  V30 1684 H 148.334 1.2835 0.652864 0
M  V30 1685 H 150.287 2.0064 3.70569 0
M  V30 1686 H 149.011 0.900207 3.13949 0
M  V30 1687 H 147.67 2.85851 2.29531 0
M  V30 1688 H 147.318 1.99691 4.61663 0
M  V30 1689 H 147.018 3.75046 4.52343 0
M  V30 1690 H 148.542 3.14583 5.23326 0
M  V30 1691 H 149.956 4.56897 3.46292 0
M  V30 1692 H 148.353 5.20315 2.98985 0
M  V30 1693 H 149.423 4.52164 1.75144 0
M  V30 1694 N 150.766 -0.704594 1.40972 0
M  V30 1695 C 152.043 -1.45847 1.30338 0
M  V30 1696 C 152.423 -2.10973 -0.0732344 0
M  V30 1697 O 151.771 -2.00997 -1.08685 0
M  V30 1698 C 151.981 -2.48525 2.45023 0
M  V30 1699 C 153.329 -3.1404 2.8577 0
M  V30 1700 O 154.353 -2.58848 2.44696 0
M  V30 1701 O 153.212 -4.13981 3.56766 0
M  V30 1702 H 150.306 -0.649092 0.512454 0
M  V30 1703 H 152.852 -0.735836 1.52917 0
M  V30 1704 H 151.624 -1.98994 3.36923 0
M  V30 1705 H 151.247 -3.2831 2.24272 0
M  V30 1706 N 152.244 -1.26651 -0.937939 0
M  V30 1707 C 153.472 -1.15173 -1.7188 0
M  V30 1708 C 153.887 0.292668 -1.86518 0
M  V30 1709 O 153.244 1.20014 -1.37488 0
M  V30 1710 C 153.295 -1.81925 -3.12387 0
M  V30 1711 O 153.016 -3.2072 -2.98446 0
M  V30 1712 C 154.517 -1.76442 -4.06673 0
M  V30 1713 H 151.737 -0.400911 -0.538063 0
M  V30 1714 H 154.281 -1.67332 -1.1756 0
M  V30 1715 H 152.436 -1.33696 -3.63599 0
M  V30 1716 H 152.85 -3.53802 -3.872 0
M  V30 1717 H 154.324 -2.27781 -5.02812 0
M  V30 1718 H 154.801 -0.731608 -4.33064 0
M  V30 1719 H 155.407 -2.24238 -3.61382 0
M  V30 1720 N 153.722 1.14298 -1.08507 0
M  V30 1721 C 154.652 2.21542 -0.737646 0
M  V30 1722 C 155.633 1.67773 0.280377 0
M  V30 1723 O 156.818 1.93616 0.150521 0
M  V30 1724 C 153.948 3.46988 -0.147259 0
M  V30 1725 C 152.902 4.13789 -1.09374 0
M  V30 1726 C 152.228 5.33449 -0.365524 0
M  V30 1727 C 153.528 4.62208 -2.4323 0
M  V30 1728 H 155.222 2.5086 -1.6343 0
M  V30 1729 H 152.768 1.20576 -0.787243 0
M  V30 1730 H 154.721 4.21262 0.107808 0
M  V30 1731 H 153.445 3.17037 0.784538 0
M  V30 1732 H 152.104 3.4147 -1.33393 0
M  V30 1733 H 151.752 4.99759 0.57011 0
M  V30 1734 H 151.452 5.79088 -0.996512 0
M  V30 1735 H 152.976 6.10485 -0.118534 0
M  V30 1736 H 154.39 5.27952 -2.23472 0
M  V30 1737 H 152.787 5.18553 -3.02031 0
M  V30 1738 H 153.857 3.77224 -3.04681 0
M  V30 1739 N 155.201 0.870884 1.31352 0
M  V30 1740 C 156.447 0.482987 1.96965 0
M  V30 1741 C 156.78 -0.962462 1.68672 0
M  V30 1742 O 156.055 -1.6779 0.98371 0
M  V30 1743 C 156.338 0.741752 3.52378 0
M  V30 1744 C 156.191 2.2368 3.9024 0
M  V30 1745 C 157.51 0.208838 4.39604 0
M  V30 1746 H 154.629 0.176955 0.715441 0
M  V30 1747 H 157.271 1.09229 1.55464 0
M  V30 1748 H 155.421 0.223149 3.87859 0
M  V30 1749 H 157.093 2.82273 3.64856 0
M  V30 1750 H 155.336 2.70901 3.38814 0
M  V30 1751 H 156.007 2.3685 4.98604 0
M  V30 1752 H 158.483 0.652529 4.10952 0
M  V30 1753 H 157.359 0.419336 5.47296 0
M  V30 1754 H 157.62 -0.889275 4.33064 0
M  V30 1755 N 156.679 -1.44442 0.630414 0
M  V30 1756 C 157.589 -2.34476 -0.0761693 0
M  V30 1757 C 158.605 -1.52576 -0.836449 0
M  V30 1758 O 159.781 -1.85307 -0.788874 0
M  V30 1759 C 156.846 -3.30545 -1.04599 0
M  V30 1760 C 155.907 -4.28352 -0.28516 0
M  V30 1761 C 155.14 -5.19831 -1.20878 0
M  V30 1762 O 155.363 -5.15223 -2.44747 0
M  V30 1763 O 154.297 -5.97892 -0.693491 0
M  V30 1764 H 158.123 -2.96345 0.664324 0
M  V30 1765 H 155.708 -1.44203 0.39061 0
M  V30 1766 H 157.59 -3.89681 -1.60396 0
M  V30 1767 H 156.265 -2.7121 -1.76711 0
M  V30 1768 H 155.172 -3.72764 0.315837 0
M  V30 1769 H 156.505 -4.90605 0.395924 0
M  V30 1770 N 158.157 -0.370918 -1.53173 0
M  V30 1771 C 159.406 0.218249 -2.00516 0
M  V30 1772 C 159.719 1.49429 -1.26215 0
M  V30 1773 O 160.925 2.16239 -1.64174 0
M  V30 1774 C 159.381 0.43948 -3.57207 0
M  V30 1775 C 158.989 -0.822244 -4.4039 0
M  V30 1776 C 160.733 0.986012 -4.1289 0
M  V30 1777 C 158.64 -0.570304 -5.88644 0
M  V30 1778 H 157.57 0.0853333 -0.749156 0
M  V30 1779 H 160.221 -0.490483 -1.76823 0
M  V30 1780 H 158.603 1.20961 -3.77074 0
M  V30 1781 H 159.777 -1.59557 -4.32294 0
M  V30 1782 H 158.092 -1.29238 -3.95836 0
M  V30 1783 H 160.689 1.18991 -5.21292 0
M  V30 1784 H 161.032 1.94972 -3.6782 0
M  V30 1785 H 161.565 0.27592 -3.96842 0
M  V30 1786 H 158.304 -1.50449 -6.38001 0
M  V30 1787 H 157.824 0.164427 -5.99575 0
M  V30 1788 H 159.503 -0.19784 -6.46697 0
M  V30 1789 N 159.635 1.57281 -0.100228 0
M  V30 1790 C 160.565 2.17328 0.853857 0
M  V30 1791 C 161.546 1.10804 1.2906 0
M  V30 1792 O 162.731 1.38963 1.35657 0
M  V30 1793 C 159.861 2.75772 2.11109 0
M  V30 1794 C 158.815 3.87713 1.81279 0
M  V30 1795 C 158.141 4.32882 3.13874 0
M  V30 1796 C 159.441 5.10677 1.09574 0
M  V30 1797 H 161.135 2.97305 0.353545 0
M  V30 1798 H 158.681 1.43009 0.168612 0
M  V30 1799 H 160.634 3.16433 2.78296 0
M  V30 1800 H 159.358 1.93057 2.63432 0
M  V30 1801 H 158.017 3.476 1.16489 0
M  V30 1802 H 157.665 3.47051 3.64095 0
M  V30 1803 H 157.365 5.08358 2.94696 0
M  V30 1804 H 158.889 4.7618 3.82211 0
M  V30 1805 H 160.303 5.48474 1.66879 0
M  V30 1806 H 158.7 5.91615 1.00557 0
M  V30 1807 H 159.77 4.84835 0.0793299 0
M  V30 1808 N 161.113 -0.173488 1.56642 0
M  V30 1809 C 162.361 -0.888706 1.81512 0
M  V30 1810 C 162.682 -1.82875 0.676872 0
M  V30 1811 O 161.952 -1.93536 -0.303414 0
M  V30 1812 H 160.532 -0.331164 0.669582 0
M  V30 1813 H 163.194 -0.173823 1.94123 0
M  V30 1814 H 162.29 -1.46691 2.75478 0
M  V30 1815 N 162.591 -1.51276 -0.441967 0
M  V30 1816 C 163.521 -1.752 -1.54361 0
M  V30 1817 C 164.502 -0.601682 -1.59103 0
M  V30 1818 O 165.687 -0.843913 -1.74905 0
M  V30 1819 C 162.817 -1.87282 -2.92477 0
M  V30 1820 C 161.771 -3.02687 -3.02596 0
M  V30 1821 C 161.097 -2.99947 -4.42647 0
M  V30 1822 C 162.397 -4.4273 -2.77106 0
M  V30 1823 H 164.091 -2.67442 -1.34592 0
M  V30 1824 H 161.637 -1.28694 -0.646048 0
M  V30 1825 H 163.59 -2.02602 -3.695 0
M  V30 1826 H 162.314 -0.916844 -3.13467 0
M  V30 1827 H 160.973 -2.87065 -2.28012 0
M  V30 1828 H 160.621 -2.02136 -4.60597 0
M  V30 1829 H 160.321 -3.77439 -4.50348 0
M  V30 1830 H 161.845 -3.17354 -5.2165 0
M  V30 1831 H 163.259 -4.58727 -3.43864 0
M  V30 1832 H 161.656 -5.21893 -2.96222 0
M  V30 1833 H 162.726 -4.53087 -1.72744 0
M  V30 1834 N 164.069 0.697108 -1.41344 0
M  V30 1835 C 165.297 1.48593 -1.43972 0
M  V30 1836 C 165.712 1.88747 -0.0445612 0
M  V30 1837 O 165.069 1.56682 0.935785 0
M  V30 1838 C 165.12 2.74946 -2.34706 0
M  V30 1839 O 164.841 2.36484 -3.68791 0
M  V30 1840 C 166.342 3.687 -2.46121 0
M  V30 1841 H 163.562 0.457964 -0.490418 0
M  V30 1842 H 166.106 0.858429 -1.8561 0
M  V30 1843 H 164.261 3.33937 -1.9638 0
M  V30 1844 H 164.675 3.17918 -4.17167 0
M  V30 1845 H 166.149 4.54145 -3.13777 0
M  V30 1846 H 166.626 4.13081 -1.49199 0
M  V30 1847 H 167.232 3.15613 -2.85076 0
M  V30 1848 N 165.547 1.27147 0.931209 0
M  V30 1849 C 166.457 1.11372 2.06478 0
M  V30 1850 C 167.473 0.044645 1.73943 0
M  V30 1851 O 168.649 0.250417 1.99837 0
M  V30 1852 C 165.714 0.758838 3.38294 0
M  V30 1853 C 164.775 1.90841 3.84549 0
M  V30 1854 C 164.008 1.57036 5.10074 0
M  V30 1855 O 164.231 0.476645 5.68405 0
M  V30 1856 O 163.165 2.40839 5.51616 0
M  V30 1857 H 166.991 2.06493 2.22698 0
M  V30 1858 H 164.576 1.06301 1.04978 0
M  V30 1859 H 166.458 0.574098 4.17471 0
M  V30 1860 H 165.133 -0.162879 3.2329 0
M  V30 1861 H 164.04 2.14819 3.06274 0
M  V30 1862 H 165.373 2.81021 4.04089 0
M  V30 1863 N 167.025 -1.13721 1.09112 0
M  V30 1864 C 168.302 -1.81155 0.737706 0
M  V30 1865 C 168.682 -1.96253 -0.777683 0
M  V30 1866 O 168.03 -1.52807 -1.69889 0
M  V30 1867 C 168.24 -3.16392 1.47299 0
M  V30 1868 C 169.588 -3.91787 1.63671 0
M  V30 1869 O 170.612 -3.26005 1.43524 0
M  V30 1870 O 169.471 -5.0977 1.96969 0
M  V30 1871 H 166.565 -0.783518 0.26463 0
M  V30 1872 H 169.111 -1.20676 1.19312 0
M  V30 1873 H 167.883 -3.0061 2.50498 0
M  V30 1874 H 167.506 -3.8457 1.00953 0
M  V30 1875 N 168.503 -0.877838 -1.30888 0
M  V30 1876 C 169.78 -0.413052 -1.91189 0
M  V30 1877 C 170.16 1.1056 -1.79832 0
M  V30 1878 O 169.508 1.93771 -1.21099 0
M  V30 1879 C 169.718 -0.903191 -3.3711 0
M  V30 1880 C 171.066 -0.93395 -4.14201 0
M  V30 1881 O 172.09 -0.849373 -3.45925 0
M  V30 1882 O 170.949 -1.05772 -5.36167 0
M  V30 1883 H 168.043 -0.125035 -0.817493 0
M  V30 1884 H 170.589 -0.966269 -1.39504 0
M  V30 1885 H 169.361 -1.94692 -3.39427 0
M  V30 1886 H 168.984 -0.328732 -3.96239 0
M  V30 1887 N 169.982 1.44106 -0.638065 0
M  V30 1888 C 171.398 1.56672 -0.304286 0
M  V30 1889 C 171.598 1.6244 1.19228 0
M  V30 1890 O 170.654 1.57121 1.9766 0
M  V30 1891 C 171.967 2.83503 -1.00231 0
M  V30 1892 C 173.515 2.97226 -0.981116 0
M  V30 1893 C 173.99 4.26868 -1.65974 0
M  V30 1894 N 175.481 4.33698 -1.62666 0
M  V30 1895 C 176.216 5.32745 -2.12063 0
M  V30 1896 N 175.712 6.38157 -2.6968 0
M  V30 1897 N 177.505 5.24299 -2.02651 0
M  V30 1898 H 169.656 1.38605 -1.60942 0
M  V30 1899 H 171.919 0.664661 -0.675965 0
M  V30 1900 H 171.625 2.85251 -2.0573 0
M  V30 1901 H 171.499 3.73251 -0.54439 0
M  V30 1902 H 173.886 2.95027 0.0654188 0
M  V30 1903 H 173.967 2.08808 -1.47759 0
M  V30 1904 H 173.611 4.29826 -2.70576 0
M  V30 1905 H 173.541 5.14156 -1.13804 0
M  V30 1906 H 176.032 3.58138 -1.20606 0
M  V30 1907 H 176.345 7.10029 -3.05087 0
M  V30 1908 H 174.69 6.38823 -2.73734 0
M  V30 1909 H 177.881 4.4086 -1.57353 0
M  V30 1910 H 178.054 6.01334 -2.41457 0
M  V30 1911 N 171.46 0.379036 1.52974 0
M  V30 1912 C 172.423 -0.448865 2.24762 0
M  V30 1913 C 173.423 -0.998689 1.26027 0
M  V30 1914 O 174.613 -0.882313 1.50203 0
M  V30 1915 C 171.745 -1.62872 2.99476 0
M  V30 1916 H 172.938 0.179491 2.99362 0
M  V30 1917 H 170.491 0.13096 1.5575 0
M  V30 1918 H 171.226 -2.29479 2.29151 0
M  V30 1919 H 171.011 -1.24128 3.71934 0
M  V30 1920 H 172.501 -2.2151 3.5401 0
M  V30 1921 N 172.938 -1.57226 0.108567 0
M  V30 1922 C 174.187 -1.94008 -0.551703 0
M  V30 1923 C 174.5 -0.993442 -1.68494 0
M  V30 1924 O 175.706 -1.25551 -2.40726 0
M  V30 1925 C 174.162 -3.44763 -1.03279 0
M  V30 1926 C 173.77 -4.47943 0.0714193 0
M  V30 1927 C 175.514 -3.90483 -1.66503 0
M  V30 1928 C 173.421 -5.89865 -0.425779 0
M  V30 1929 H 172.351 -0.724206 -0.209863 0
M  V30 1930 H 175.002 -1.82547 0.186741 0
M  V30 1931 H 173.384 -3.51422 -1.82533 0
M  V30 1932 H 174.558 -4.52942 0.847365 0
M  V30 1933 H 172.873 -4.11913 0.609669 0
M  V30 1934 H 175.47 -4.93925 -2.04798 0
M  V30 1935 H 175.813 -3.29877 -2.53942 0
M  V30 1936 H 176.346 -3.86581 -0.938074 0
M  V30 1937 H 173.085 -6.54202 0.412316 0
M  V30 1938 H 172.605 -5.88309 -1.16843 0
M  V30 1939 H 174.284 -6.40844 -0.890397 0
M  V30 1940 N 174.416 0.165178 -1.56732 0
M  V30 1941 C 175.663 0.880807 -1.8234 0
M  V30 1942 C 175.991 1.81977 -0.686621 0
M  V30 1943 O 175.246 1.92971 0.325697 0
M  V30 1944 C 175.545 1.70405 -3.1416 0
M  V30 1945 C 175.211 0.913475 -4.4155 0
M  V30 1946 C 173.873 0.695303 -4.7615 0
M  V30 1947 C 176.225 0.359349 -5.1996 0
M  V30 1948 C 173.553 -0.0879947 -5.86634 0
M  V30 1949 C 175.905 -0.410893 -6.31264 0
M  V30 1950 C 174.569 -0.639808 -6.64427 0
M  V30 1951 H 173.839 0.32231 -0.667231 0
M  V30 1952 H 176.486 0.145402 -1.90947 0
M  V30 1953 H 174.791 2.50903 -3.00923 0
M  V30 1954 H 176.488 2.26091 -3.31186 0
M  V30 1955 H 173.078 1.09357 -4.14414 0
M  V30 1956 H 177.262 0.515228 -4.93618 0
M  V30 1957 H 172.518 -0.27503 -6.10781 0
M  V30 1958 H 176.692 -0.847494 -6.91224 0
M  V30 1959 H 174.319 -1.24864 -7.49875 0
M  V30 1960 N 175.894 1.51508 0.433938 0
M  V30 1961 C 176.804 1.75917 1.5521 0
M  V30 1962 C 177.82 0.643545 1.61662 0
M  V30 1963 O 178.996 0.926183 1.7884 0
M  V30 1964 C 176.061 1.88213 2.91164 0
M  V30 1965 C 175.122 3.12074 2.94802 0
M  V30 1966 C 174.355 3.23774 4.24271 0
M  V30 1967 O 174.578 2.4133 5.16833 0
M  V30 1968 O 173.512 4.16774 4.34262 0
M  V30 1969 H 177.338 2.70777 1.37527 0
M  V30 1970 H 174.923 1.36051 0.617293 0
M  V30 1971 H 176.805 1.98267 3.71845 0
M  V30 1972 H 175.48 0.965413 3.08968 0
M  V30 1973 H 174.387 3.07497 2.13065 0
M  V30 1974 H 175.72 4.03446 2.81943 0
M  V30 1975 N 177.372 -0.689602 1.41712 0
M  V30 1976 C 178.319 -1.80345 1.44029 0
M  V30 1977 C 179.289 -1.63478 0.293948 0
M  V30 1978 O 180.474 -1.84244 0.495869 0
M  V30 1979 C 177.614 -3.18272 1.33405 0
M  V30 1980 C 176.727 -3.46529 2.57956 0
M  V30 1981 C 175.862 -4.74103 2.39582 0
M  V30 1982 C 174.901 -4.95347 3.5958 0
M  V30 1983 N 174.038 -6.14151 3.40239 0
M  V30 1984 H 178.878 -1.77698 2.39222 0
M  V30 1985 H 176.415 -0.867688 1.18784 0
M  V30 1986 H 178.373 -3.97956 1.25246 0
M  V30 1987 H 177.003 -3.2008 0.418164 0
M  V30 1988 H 176.055 -2.61207 2.76542 0
M  V30 1989 H 177.367 -3.58126 3.47199 0
M  V30 1990 H 176.521 -5.61853 2.28924 0
M  V30 1991 H 175.26 -4.64763 1.47805 0
M  V30 1992 H 174.265 -4.06044 3.70686 0
M  V30 1993 H 175.49 -5.06542 4.52318 0
M  V30 1994 H 173.436 -6.06013 2.51167 0
M  V30 1995 H 173.353 -6.26543 4.23061 0
M  V30 1996 H 174.621 -7.04619 3.33365 0
M  V30 1997 N 178.85 -1.27639 -0.924453 0
M  V30 1998 C 180.266 -1.05113 -1.20097 0
M  V30 1999 C 180.466 0.213262 -2.00368 0
M  V30 2000 O 179.522 0.91787 -2.35226 0
M  V30 2001 C 180.835 -2.29244 -1.94596 0
M  V30 2002 C 182.383 -2.34315 -2.07522 0
M  V30 2003 C 182.858 -3.58183 -2.85427 0
M  V30 2004 N 184.349 -3.5876 -2.92994 0
M  V30 2005 C 185.084 -4.51277 -3.53746 0
M  V30 2006 N 184.58 -5.54102 -4.15863 0
M  V30 2007 N 186.373 -4.38894 -3.51181 0
M  V30 2008 H 178.524 -2.08821 -0.388264 0
M  V30 2009 H 180.787 -0.918568 -0.234385 0
M  V30 2010 H 180.493 -3.21301 -1.43034 0
M  V30 2011 H 180.367 -2.34816 -2.95197 0
M  V30 2012 H 182.754 -1.42762 -2.58269 0
M  V30 2013 H 182.835 -2.32744 -1.06131 0
M  V30 2014 H 182.479 -4.50074 -2.35363 0
M  V30 2015 H 182.409 -3.57006 -3.8711 0
M  V30 2016 H 184.9 -2.84398 -2.4885 0
M  V30 2017 H 185.213 -6.20859 -4.60168 0
M  V30 2018 H 183.558 -5.57941 -4.144 0
M  V30 2019 H 186.749 -3.57772 -3.01856 0
M  V30 2020 H 186.922 -5.11186 -3.98237 0
M  V30 2021 N 180.328 1.1314 -1.09713 0
M  V30 2022 C 181.261 2.17735 -0.683137 0
M  V30 2023 C 182.239 1.59582 0.311841 0
M  V30 2024 O 183.423 1.87298 0.212514 0
M  V30 2025 C 180.55 3.38699 -0.00684324 0
M  V30 2026 C 179.596 4.1546 -0.964102 0
M  V30 2027 S 180.429 4.74733 -2.47767 0
M  V30 2028 C 181.585 5.9904 -1.81387 0
M  V30 2029 H 181.818 2.52515 -1.56918 0
M  V30 2030 H 179.351 1.24484 -0.913404 0
M  V30 2031 H 181.309 4.08765 0.377044 0
M  V30 2032 H 179.97 3.02214 0.85589 0
M  V30 2033 H 179.163 5.02093 -0.43803 0
M  V30 2034 H 178.765 3.51066 -1.28953 0
M  V30 2035 H 181.057 6.67846 -1.13967 0
M  V30 2036 H 182 6.56261 -2.65947 0
M  V30 2037 H 182.408 5.4976 -1.28155 0
M  V30 2038 N 181.806 0.884767 1.30421 0
M  V30 2039 C 182.753 0.349642 2.28136 0
M  V30 2040 C 183.723 -0.560061 1.56373 0
M  V30 2041 O 184.908 -0.488524 1.8444 0
M  V30 2042 C 182.048 -0.42999 3.42411 0
M  V30 2043 C 181.161 0.508907 4.28992 0
M  V30 2044 C 180.296 -0.286301 5.30428 0
M  V30 2045 C 179.335 0.648079 6.08659 0
M  V30 2046 N 178.472 -0.111792 7.02011 0
M  V30 2047 H 183.312 1.18807 2.73293 0
M  V30 2048 H 180.849 0.597231 1.3443 0
M  V30 2049 H 182.807 -0.897923 4.07423 0
M  V30 2050 H 181.437 -1.23299 2.98324 0
M  V30 2051 H 180.489 1.09533 3.64289 0
M  V30 2052 H 181.801 1.22475 4.8353 0
M  V30 2053 H 180.955 -0.816098 6.01186 0
M  V30 2054 H 179.694 -1.03536 4.76583 0
M  V30 2055 H 178.699 1.18951 5.36778 0
M  V30 2056 H 179.924 1.39623 6.64592 0
M  V30 2057 H 177.87 -0.843395 6.50556 0
M  V30 2058 H 177.787 0.544429 7.54037 0
M  V30 2059 H 179.055 -0.622339 7.77012 0
M  V30 2060 N 183.284 -1.43765 0.645699 0
M  V30 2061 C 184.216 -2.29027 -0.0890605 0
M  V30 2062 C 185.229 -1.42093 -0.794563 0
M  V30 2063 O 186.418 -1.66104 -0.653575 0
M  V30 2064 C 183.518 -3.18831 -1.14891 0
M  V30 2065 C 182.691 -4.34261 -0.523043 0
M  V30 2066 C 181.75 -5.04994 -1.47878 0
M  V30 2067 O 180.776 -5.6052 -0.990277 0
M  V30 2068 N 181.978 -5.07795 -2.81291 0
M  V30 2069 H 184.743 -2.92727 0.64272 0
M  V30 2070 H 182.304 -1.54373 0.487924 0
M  V30 2071 H 184.296 -3.63015 -1.78892 0
M  V30 2072 H 182.866 -2.56782 -1.78275 0
M  V30 2073 H 182.086 -3.93088 0.295896 0
M  V30 2074 H 183.374 -5.08728 -0.0858147 0
M  V30 2075 H 182.772 -4.64042 -3.23546 0
M  V30 2076 H 181.329 -5.55721 -3.40614 0
M  V30 2077 N 184.763 -0.387143 -1.52771 0
M  V30 2078 C 186.011 0.195349 -2.01154 0
M  V30 2079 C 186.332 1.475 -1.27549 0
M  V30 2080 O 185.602 1.91878 -0.394924 0
M  V30 2081 H 184.182 0.075178 -0.743207 0
M  V30 2082 H 186.844 -0.518337 -1.87881 0
M  V30 2083 H 185.94 0.407096 -3.09434 0
M  V30 2084 N 186.241 1.57166 -0.116904 0
M  V30 2085 C 187.657 1.5779 0.239693 0
M  V30 2086 C 187.857 1.1295 1.66867 0
M  V30 2087 O 186.913 0.81592 2.38954 0
M  V30 2088 C 188.226 3.00699 0.00828202 0
M  V30 2089 C 189.774 3.12912 0.0743438 0
M  V30 2090 C 190.249 4.57817 -0.129348 0
M  V30 2091 N 191.74 4.63139 -0.075247 0
M  V30 2092 C 192.475 5.73023 -0.207788 0
M  V30 2093 N 191.971 6.91665 -0.396382 0
M  V30 2094 N 193.764 5.61906 -0.14751 0
M  V30 2095 H 185.915 1.84615 -1.05029 0
M  V30 2096 H 188.178 0.85311 -0.41341 0
M  V30 2097 H 187.884 3.37784 -0.979531 0
M  V30 2098 H 187.758 3.69848 0.741077 0
M  V30 2099 H 190.145 2.75686 1.05268 0
M  V30 2100 H 190.226 2.4631 -0.690297 0
M  V30 2101 H 189.87 4.95742 -1.10465 0
M  V30 2102 H 189.8 5.22507 0.655253 0
M  V30 2103 H 192.291 3.7784 0.0670898 0
M  V30 2104 H 192.604 7.71255 -0.488437 0
M  V30 2105 H 190.949 6.93654 -0.432329 0
M  V30 2106 H 194.14 4.681 -0.00115036 0
M  V30 2107 H 194.313 6.47501 -0.254247 0
M  V30 2108 N 187.719 -0.156864 1.56817 0
M  V30 2109 C 189.135 -0.50916 1.5126 0
M  V30 2110 C 189.335 -1.83897 0.823658 0
M  V30 2111 O 188.391 -2.49469 0.390055 0
M  V30 2112 C 189.704 -0.52857 2.96018 0
M  V30 2113 C 191.252 -0.614771 3.06903 0
M  V30 2114 C 191.727 -0.664938 4.53147 0
M  V30 2115 N 193.218 -0.727433 4.57452 0
M  V30 2116 C 193.953 -0.787067 5.67973 0
M  V30 2117 N 193.449 -0.806649 6.88088 0
M  V30 2118 N 195.242 -0.827195 5.5598 0
M  V30 2119 H 187.393 0.714935 2.00006 0
M  V30 2120 H 189.656 0.259526 0.911784 0
M  V30 2121 H 189.362 0.380154 3.49639 0
M  V30 2122 H 189.236 -1.36998 3.51442 0
M  V30 2123 H 191.623 -1.51392 2.53307 0
M  V30 2124 H 191.704 0.253597 2.5454 0
M  V30 2125 H 191.348 0.230011 5.07379 0
M  V30 2126 H 191.278 -1.54966 5.03282 0
M  V30 2127 H 193.769 -0.719998 3.70978 0
M  V30 2128 H 194.082 -0.853727 7.6807 0
M  V30 2129 H 192.427 -0.774687 6.90669 0
M  V30 2130 H 195.618 -0.808998 4.61056 0
M  V30 2131 H 195.791 -0.870206 6.4213 0
M  V30 2132 N 189.197 -1.51736 -0.425897 0
M  V30 2133 C 190.608 -1.5732 -1.00536 0
M  V30 2134 C 190.959 -0.403537 -1.92005 0
M  V30 2135 O 190.084 0.478256 -2.11049 0
M  V30 2136 C 190.679 -2.85119 -1.8301 0
M  V30 2137 C 189.238 -2.93236 -2.35987 0
M  V30 2138 C 188.385 -2.52098 -1.15508 0
M  V30 2139 H 191.336 -1.57348 -0.206739 0
M  V30 2140 H 191.357 -2.69526 -2.68581 0
M  V30 2141 H 190.869 -3.7023 -1.16411 0
M  V30 2142 H 188.97 -2.12581 -3.06007 0
M  V30 2143 H 189.083 -3.9713 -2.68001 0
M  V30 2144 H 187.447 -2.05558 -1.50393 0
M  V30 2145 H 188.23 -3.39565 -0.505014 0
M  V30 2146 N 190.675 0.682077 -1.42076 0
M  V30 2147 C 191.922 1.44215 -1.42156 0
M  V30 2148 C 192.25 1.94468 -0.0354186 0
M  V30 2149 O 191.505 1.70816 0.955002 0
M  V30 2150 C 191.804 2.66036 -2.38662 0
M  V30 2151 C 191.47 2.34366 -3.85206 0
M  V30 2152 C 190.132 2.25439 -4.25124 0
M  V30 2153 C 192.484 2.08513 -4.77673 0
M  V30 2154 C 189.812 1.88775 -5.55501 0
M  V30 2155 C 192.164 1.73354 -6.08384 0
M  V30 2156 C 190.828 1.62933 -6.47309 0
M  V30 2157 H 190.098 0.527718 -0.520187 0
M  V30 2158 H 192.745 0.778387 -1.74967 0
M  V30 2159 H 191.05 3.3741 -1.99152 0
M  V30 2160 H 192.747 3.24205 -2.35991 0
M  V30 2161 H 189.337 2.42213 -3.53597 0
M  V30 2162 H 193.521 2.14346 -4.47626 0
M  V30 2163 H 188.777 1.7927 -5.84527 0
M  V30 2164 H 192.951 1.52373 -6.79526 0
M  V30 2165 H 190.578 1.34292 -7.48244 0
M  V30 2166 N 192.153 1.28127 0.917671 0
M  V30 2167 C 193.063 1.13556 2.05286 0
M  V30 2168 C 194.079 0.0630914 1.73886 0
M  V30 2169 O 195.255 0.271598 1.9956 0
M  V30 2170 C 192.32 0.794676 3.3747 0
M  V30 2171 C 191.381 1.94909 3.82504 0
M  V30 2172 C 190.614 1.62437 5.0838 0
M  V30 2173 O 190.837 0.536905 5.67867 0
M  V30 2174 O 189.771 2.46677 5.4903 0
M  V30 2175 H 193.597 2.08844 2.20495 0
M  V30 2176 H 191.182 1.07409 1.03845 0
M  V30 2177 H 193.064 0.618344 4.16839 0
M  V30 2178 H 191.739 -0.128581 3.23445 0
M  V30 2179 H 190.646 2.18055 3.03978 0
M  V30 2180 H 191.979 2.85291 4.01086 0
M  V30 2181 N 193.631 -1.12557 1.10312 0
M  V30 2182 C 195.042 -1.65574 0.862678 0
M  V30 2183 C 195.393 -1.86566 -0.607256 0
M  V30 2184 O 194.518 -1.59121 -1.46662 0
M  V30 2185 C 195.113 -3.00776 1.55947 0
M  V30 2186 C 193.672 -3.50748 1.36576 0
M  V30 2187 C 192.819 -2.25797 1.60968 0
M  V30 2188 H 195.77 -0.963552 1.26101 0
M  V30 2189 H 195.791 -3.67185 0.997753 0
M  V30 2190 H 195.303 -2.85465 2.62928 0
M  V30 2191 H 193.404 -3.71245 0.317531 0
M  V30 2192 H 193.517 -4.30289 2.10686 0
M  V30 2193 H 191.881 -2.32841 1.03234 0
M  V30 2194 H 192.664 -2.13043 2.69198 0
M  V30 2195 N 195.109 -0.891671 -1.2995 0
M  V30 2196 C 196.355 -0.514261 -1.96171 0
M  V30 2197 C 196.688 0.935506 -1.70182 0
M  V30 2198 O 195.963 1.66204 -1.01028 0
M  V30 2199 C 196.246 -0.797719 -3.51153 0
M  V30 2200 C 196.099 -2.2986 -3.86632 0
M  V30 2201 C 197.418 -0.278749 -4.39216 0
M  V30 2202 H 194.537 -0.188314 -0.712535 0
M  V30 2203 H 197.179 -1.11689 -1.53706 0
M  V30 2204 H 195.329 -0.284826 -3.87455 0
M  V30 2205 H 197.001 -2.88042 -3.60319 0
M  V30 2206 H 195.244 -2.76257 -3.34462 0
M  V30 2207 H 195.915 -2.44753 -4.94773 0
M  V30 2208 H 198.391 -0.717825 -4.09862 0
M  V30 2209 H 197.267 -0.506353 -5.46559 0
M  V30 2210 H 197.528 0.820266 -4.34424 0
M  V30 2211 N 196.587 1.43421 -0.653314 0
M  V30 2212 C 197.998 1.85065 -0.246537 0
M  V30 2213 C 198.349 1.54688 1.2069 0
M  V30 2214 O 197.474 0.995896 1.92122 0
M  V30 2215 C 198.069 3.35922 -0.440666 0
M  V30 2216 C 196.628 3.76297 -0.0882064 0
M  V30 2217 C 195.775 2.67147 -0.743484 0
M  V30 2218 H 198.726 1.33572 -0.856979 0
M  V30 2219 H 198.747 3.79204 0.313798 0
M  V30 2220 H 198.259 3.58 -1.49858 0
M  V30 2221 H 196.36 3.5983 0.96711 0
M  V30 2222 H 196.473 4.76338 -0.513738 0
M  V30 2223 H 194.837 2.54086 -0.176712 0
M  V30 2224 H 195.62 2.92053 -1.80443 0
M  V30 2225 N 198.065 0.39524 1.52563 0
M  V30 2226 C 199.314 -0.186321 2.00838 0
M  V30 2227 C 199.627 -1.47402 1.28577 0
M  V30 2228 O 200.833 -2.13599 1.67593 0
M  V30 2229 C 199.289 -0.382595 3.57861 0
M  V30 2230 C 198.897 0.892202 4.39026 0
M  V30 2231 C 200.641 -0.9202 4.14406 0
M  V30 2232 C 198.548 0.66388 5.87662 0
M  V30 2233 H 197.478 -0.0734041 0.750418 0
M  V30 2234 H 200.129 0.518552 1.76021 0
M  V30 2235 H 198.511 -1.14946 3.7895 0
M  V30 2236 H 199.685 1.66414 4.29701 0
M  V30 2237 H 198 1.35519 3.9373 0
M  V30 2238 H 200.597 -1.10683 5.23119 0
M  V30 2239 H 200.94 -1.89096 3.70875 0
M  V30 2240 H 201.473 -0.212751 3.97231 0
M  V30 2241 H 198.212 1.6058 6.35527 0
M  V30 2242 H 197.732 -0.0690193 5.9976 0
M  V30 2243 H 199.411 0.300699 6.46301 0
M  V30 2244 N 199.544 -1.57102 0.125237 0
M  V30 2245 C 200.477 -2.11371 -0.860094 0
M  V30 2246 C 201.455 -1.03168 -1.25679 0
M  V30 2247 O 202.639 -1.30862 -1.35674 0
M  V30 2248 C 199.766 -2.61555 -2.1519 0
M  V30 2249 C 198.812 -3.81701 -1.9028 0
M  V30 2250 S 199.645 -5.23797 -1.11343 0
M  V30 2251 C 200.801 -5.77353 -2.41689 0
M  V30 2252 H 201.034 -2.94617 -0.39852 0
M  V30 2253 H 198.567 -1.54145 -0.0886555 0
M  V30 2254 H 200.525 -2.91122 -2.89411 0
M  V30 2255 H 199.186 -1.78479 -2.58465 0
M  V30 2256 H 198.379 -4.14985 -2.86014 0
M  V30 2257 H 197.981 -3.52783 -1.24178 0
M  V30 2258 H 200.273 -5.87458 -3.37489 0
M  V30 2259 H 201.216 -6.75323 -2.12942 0
M  V30 2260 H 201.624 -5.05457 -2.51342 0
M  V30 2261 N 201.022 0.148545 -1.56898 0
M  V30 2262 C 202.269 0.861418 -1.83264 0
M  V30 2263 C 202.597 1.81239 -0.705883 0
M  V30 2264 O 201.852 1.93305 0.305212 0
M  V30 2265 C 202.151 1.67064 -3.1595 0
M  V30 2266 C 201.817 0.866591 -4.42494 0
M  V30 2267 C 200.479 0.644762 -4.76861 0
M  V30 2268 C 202.831 0.30418 -5.20312 0
M  V30 2269 C 200.159 -0.15021 -5.86508 0
M  V30 2270 C 202.511 -0.477824 -6.30793 0
M  V30 2271 C 201.175 -0.710244 -6.63711 0
M  V30 2272 H 200.445 0.315215 -0.670612 0
M  V30 2273 H 203.092 0.125142 -1.91091 0
M  V30 2274 H 201.397 2.47698 -3.03567 0
M  V30 2275 H 203.094 2.22566 -3.33565 0
M  V30 2276 H 199.684 1.04955 -4.15551 0
M  V30 2277 H 203.868 0.462844 -4.94137 0
M  V30 2278 H 199.124 -0.339796 -6.10455 0
M  V30 2279 H 203.298 -0.92076 -6.90286 0
M  V30 2280 H 200.925 -1.3281 -7.48509 0
M  V30 2281 N 202.5 1.5196 0.417844 0
M  V30 2282 C 203.41 1.77554 1.53336 0
M  V30 2283 C 204.426 0.660655 1.6097 0
M  V30 2284 O 205.602 0.945099 1.77848 0
M  V30 2285 C 202.667 1.91291 2.89152 0
M  V30 2286 C 201.728 3.15183 2.91475 0
M  V30 2287 C 200.961 3.28256 4.20813 0
M  V30 2288 O 201.184 2.46798 5.14244 0
M  V30 2289 O 200.118 4.21356 4.29817 0
M  V30 2290 H 203.944 2.7222 1.34647 0
M  V30 2291 H 201.529 1.36698 0.602828 0
M  V30 2292 H 203.411 2.02199 3.69721 0
M  V30 2293 H 202.086 0.998129 3.07927 0
M  V30 2294 H 200.993 3.09739 2.09791 0
M  V30 2295 H 202.326 4.06414 2.77648 0
M  V30 2296 N 203.978 -0.674533 1.42435 0
M  V30 2297 C 204.908 -1.80009 1.48724 0
M  V30 2298 C 205.889 -1.6659 0.343793 0
M  V30 2299 O 207.074 -1.86007 0.558137 0
M  V30 2300 C 204.204 -3.18306 1.38919 0
M  V30 2301 C 203.158 -3.46461 2.51294 0
M  V30 2302 C 202.484 -4.84335 2.26547 0
M  V30 2303 C 203.784 -3.43328 3.93603 0
M  V30 2304 H 205.478 -1.75004 2.42928 0
M  V30 2305 H 203.024 -0.840533 1.16923 0
M  V30 2306 H 204.977 -3.9678 1.41927 0
M  V30 2307 H 203.701 -3.2399 0.412094 0
M  V30 2308 H 202.36 -2.70348 2.47604 0
M  V30 2309 H 202.008 -4.86669 1.2713 0
M  V30 2310 H 201.708 -5.04136 3.01861 0
M  V30 2311 H 203.232 -5.65094 2.31304 0
M  V30 2312 H 204.646 -4.11772 3.98894 0
M  V30 2313 H 203.043 -3.74664 4.68771 0
M  V30 2314 H 204.113 -2.41897 4.20255 0
M  V30 2315 N 205.456 -1.28612 -0.910864 0
M  V30 2316 C 206.404 -1.1265 -2.03501 0
M  V30 2317 C 207.398 -0.0450054 -1.6934 0
M  V30 2318 O 208.604 -0.203988 -1.7884 0
M  V30 2319 H 204.979 -0.347639 -0.666822 0
M  V30 2320 H 206.95 -2.07849 -2.14106 0
M  V30 2321 C 205.699 -0.808143 -3.38178 0
M  V30 2322 H 205.022 -1.63231 -3.6496 0
M  V30 2323 H 206.462 -0.736426 -4.17556 0
M  V30 2324 C 204.921 0.488226 -3.33344 0
M  V30 2325 O 205.451 1.51766 -3.71927 0
M  V30 2326 N 203.657 0.490009 -2.86439 0
M  V30 2327 H 203.204 -0.348161 -2.55236 0
M  V30 2328 H 203.162 1.35741 -2.83587 0
M  V30 2329 N 206.934 1.1197 -1.10907 0
M  V30 2330 C 207.844 2.21433 -0.774896 0
M  V30 2331 C 208.86 1.72478 0.229657 0
M  V30 2332 O 210.036 2.01288 0.0672008 0
M  V30 2333 C 207.101 3.4602 -0.216986 0
M  V30 2334 C 206.162 4.09791 -1.27944 0
M  V30 2335 C 205.395 5.28431 -0.748055 0
M  V30 2336 O 205.618 5.68823 0.423833 0
M  V30 2337 O 204.552 5.82644 -1.51027 0
M  V30 2338 H 208.378 2.5242 -1.68873 0
M  V30 2339 H 205.963 1.20399 -0.884555 0
M  V30 2340 H 207.845 4.21304 0.090059 0
M  V30 2341 H 206.52 3.16698 0.669633 0
M  V30 2342 H 205.427 3.36265 -1.63941 0
M  V30 2343 H 206.76 4.4328 -2.13925 0
M  V30 2344 N 208.412 0.89855 1.29475 0
M  V30 2345 C 209.322 0.379974 2.31502 0
M  V30 2346 C 210.338 -0.524695 1.659 0
M  V30 2347 O 211.514 -0.414551 1.97087 0
M  V30 2348 C 208.579 -0.385138 3.44554 0
M  V30 2349 C 207.64 0.550914 4.2575 0
M  V30 2350 C 206.873 -0.177778 5.33404 0
M  V30 2351 O 207.096 -1.40189 5.52904 0
M  V30 2352 O 206.03 0.479106 5.9999 0
M  V30 2353 H 209.856 1.22639 2.77837 0
M  V30 2354 H 207.441 0.662834 1.33891 0
M  V30 2355 H 209.323 -0.817841 4.13388 0
M  V30 2356 H 207.998 -1.20763 3.0033 0
M  V30 2357 H 206.905 1.03271 3.59564 0
M  V30 2358 H 208.238 1.33979 4.73614 0
M  V30 2359 N 209.89 -1.43072 0.660911 0
M  V30 2360 C 210.822 -2.29108 -0.0647641 0
M  V30 2361 C 211.835 -1.42928 -0.779448 0
M  V30 2362 O 213.024 -1.66788 -0.635921 0
M  V30 2363 C 210.124 -3.20032 -1.11503 0
M  V30 2364 C 209.297 -4.34792 -0.476955 0
M  V30 2365 C 208.356 -5.06534 -1.42513 0
M  V30 2366 O 207.382 -5.61538 -0.930771 0
M  V30 2367 N 208.584 -5.1075 -2.75889 0
M  V30 2368 H 211.349 -2.92029 0.673731 0
M  V30 2369 H 208.91 -1.53846 0.50427 0
M  V30 2370 H 210.902 -3.64892 -1.75032 0
M  V30 2371 H 209.472 -2.58658 -1.75541 0
M  V30 2372 H 208.692 -3.92752 0.337572 0
M  V30 2373 H 209.98 -5.0879 -0.0318525 0
M  V30 2374 H 209.378 -4.67447 -3.18606 0
M  V30 2375 H 207.935 -5.59302 -3.347 0
M  V30 2376 N 211.368 -0.403325 -1.52352 0
M  V30 2377 C 212.617 0.175668 -2.00934 0
M  V30 2378 C 212.93 1.46718 -1.29356 0
M  V30 2379 O 214.136 2.12708 -1.68724 0
M  V30 2380 C 212.592 0.363612 -3.58058 0
M  V30 2381 C 212.2 -0.915472 -4.38547 0
M  V30 2382 C 213.944 0.89821 -4.14888 0
M  V30 2383 C 211.851 -0.695035 -5.87302 0
M  V30 2384 H 210.781 0.0694234 -0.750797 0
M  V30 2385 H 213.432 -0.527879 -1.75743 0
M  V30 2386 H 211.814 1.12935 -3.79555 0
M  V30 2387 H 212.988 -1.68691 -4.28812 0
M  V30 2388 H 211.303 -1.37606 -3.93006 0
M  V30 2389 H 213.9 1.07907 -5.23699 0
M  V30 2390 H 214.243 1.87126 -3.71873 0
M  V30 2391 H 214.776 0.191681 -3.97338 0
M  V30 2392 H 211.515 -1.63948 -6.34666 0
M  V30 2393 H 211.035 0.0372116 -5.99788 0
M  V30 2394 H 212.714 -0.33497 -6.46132 0
M  V30 2395 N 212.846 1.57033 -0.133567 0
M  V30 2396 C 213.809 2.14897 0.796995 0
M  V30 2397 C 214.809 1.0874 1.18458 0
M  V30 2398 O 215.999 1.34446 1.1077 0
M  V30 2399 C 213.131 2.70112 2.07973 0
M  V30 2400 H 214.324 2.98457 0.293873 0
M  V30 2401 H 211.877 1.55871 0.115787 0
M  V30 2402 H 212.612 1.9018 2.62682 0
M  V30 2403 H 212.397 3.47764 1.81115 0
M  V30 2404 H 213.887 3.14738 2.74462 0
M  V30 2405 N 214.325 -0.140222 1.56975 0
M  V30 2406 C 215.741 -0.493088 1.51792 0
M  V30 2407 C 215.941 -1.83013 0.843116 0
M  V30 2408 O 214.997 -2.49041 0.416493 0
M  V30 2409 C 216.31 -0.497144 2.96562 0
M  V30 2410 C 217.858 -0.582186 3.07538 0
M  V30 2411 C 218.333 -0.616838 4.53827 0
M  V30 2412 N 219.824 -0.678873 4.58198 0
M  V30 2413 C 220.559 -0.726782 5.68775 0
M  V30 2414 N 220.055 -0.733623 6.88905 0
M  V30 2415 N 221.848 -0.768179 5.56826 0
M  V30 2416 H 213.999 0.736108 1.99237 0
M  V30 2417 H 216.262 0.269182 0.90898 0
M  V30 2418 H 215.968 0.417217 3.49217 0
M  V30 2419 H 215.842 -1.33263 3.52875 0
M  V30 2420 H 218.229 -1.48697 2.54899 0
M  V30 2421 H 218.31 0.280581 2.54257 0
M  V30 2422 H 217.954 0.283812 5.07106 0
M  V30 2423 H 217.884 -1.49619 5.04898 0
M  V30 2424 H 220.375 -0.68061 3.7172 0
M  V30 2425 H 220.688 -0.772215 7.68932 0
M  V30 2426 H 219.033 -0.701389 6.91452 0
M  V30 2427 H 222.224 -0.760051 4.61888 0
M  V30 2428 H 222.397 -0.80205 6.43017 0
M  V30 2429 N 215.803 -1.52179 -0.40978 0
M  V30 2430 C 217.052 -1.65434 -1.15388 0
M  V30 2431 C 217.365 -0.390056 -1.91671 0
M  V30 2432 O 218.571 -0.402399 -2.68501 0
M  V30 2433 C 217.027 -2.92279 -2.10003 0
M  V30 2434 C 216.635 -4.25813 -1.39239 0
M  V30 2435 C 218.379 -3.14897 -2.84675 0
M  V30 2436 C 216.286 -5.43782 -2.32498 0
M  V30 2437 H 215.216 -0.616267 -0.434432 0
M  V30 2438 H 217.867 -1.78666 -0.418401 0
M  V30 2439 H 216.249 -2.72744 -2.871 0
M  V30 2440 H 217.423 -4.55828 -0.675099 0
M  V30 2441 H 215.738 -4.09292 -0.766097 0
M  V30 2442 H 218.335 -4.0021 -3.54593 0
M  V30 2443 H 218.678 -2.29103 -3.47588 0
M  V30 2444 H 219.211 -3.34901 -2.14677 0
M  V30 2445 H 215.95 -6.3192 -1.74233 0
M  V30 2446 H 215.47 -5.18106 -3.02201 0
M  V30 2447 H 217.149 -5.76834 -2.93038 0
M  V30 2448 N 217.281 0.66697 -1.42791 0
M  V30 2449 C 218.244 1.76211 -1.46568 0
M  V30 2450 C 219.244 1.56896 -0.352196 0
M  V30 2451 O 220.434 1.63044 -0.613364 0
M  V30 2452 C 217.566 3.14935 -1.30494 0
M  V30 2453 H 218.759 1.74247 -2.44086 0
M  V30 2454 H 216.312 0.877342 -1.29354 0
M  V30 2455 H 217.047 3.2252 -0.339301 0
M  V30 2456 H 216.832 3.30359 -2.11199 0
M  V30 2457 H 218.322 3.94821 -1.36038 0
M  V30 2458 N 218.759 1.29093 0.90403 0
M  V30 2459 C 220.005 1.16986 1.65656 0
M  V30 2460 C 220.338 -0.278925 1.92186 0
M  V30 2461 O 219.613 -1.2019 1.5292 0
M  V30 2462 C 219.896 1.97908 3.0084 0
M  V30 2463 C 219.749 3.50903 2.81403 0
M  V30 2464 C 221.068 1.80208 4.01513 0
M  V30 2465 H 218.187 0.426346 0.601164 0
M  V30 2466 H 220.829 1.58518 1.04747 0
M  V30 2467 H 218.979 1.62616 3.52829 0
M  V30 2468 H 220.651 3.96153 2.36348 0
M  V30 2469 H 218.894 3.76045 2.1627 0
M  V30 2470 H 219.565 4.02791 3.77443 0
M  V30 2471 H 222.041 2.11025 3.58619 0
M  V30 2472 H 220.917 2.39184 4.94047 0
M  V30 2473 H 221.178 0.756119 4.35586 0
M  V30 2474 N 220.237 -1.11381 1.11499 0
M  V30 2475 C 221.185 -2.19522 0.768956 0
M  V30 2476 C 222.179 -1.67693 -0.239857 0
M  V30 2477 O 223.385 -1.79727 -0.0990755 0
M  V30 2478 H 219.76 -0.715711 0.230786 0
M  V30 2479 H 221.731 -2.45954 1.68964 0
M  V30 2480 C 220.48 -3.46945 0.229073 0
M  V30 2481 H 219.803 -3.8718 0.996596 0
M  V30 2482 H 221.243 -4.23993 0.0251441 0
M  V30 2483 C 219.702 -3.2042 -1.04079 0
M  V30 2484 O 220.232 -3.41178 -2.12038 0
M  V30 2485 N 218.438 -2.74151 -0.963823 0
M  V30 2486 H 217.985 -2.57459 -0.0851722 0
M  V30 2487 H 217.943 -2.56781 -1.81414 0
M  V30 2488 N 221.715 -0.905404 -1.28997 0
M  V30 2489 C 222.647 -0.344748 -2.26592 0
M  V30 2490 C 223.66 0.512135 -1.54535 0
M  V30 2491 O 224.849 0.328368 -1.75454 0
M  V30 2492 C 221.949 0.526587 -3.34784 0
M  V30 2493 C 221.122 -0.305871 -4.36329 0
M  V30 2494 C 220.181 0.499209 -5.23827 0
M  V30 2495 O 219.207 -0.0853004 -5.69136 0
M  V30 2496 N 220.409 1.80408 -5.51755 0
M  V30 2497 H 223.174 -1.18359 -2.75338 0
M  V30 2498 H 220.735 -0.770481 -1.42391 0
M  V30 2499 H 222.727 1.07171 -3.90252 0
M  V30 2500 H 221.297 1.26613 -2.85811 0
M  V30 2501 H 220.517 -1.0324 -3.80441 0
M  V30 2502 H 221.805 -0.875773 -5.01206 0
M  V30 2503 H 221.203 2.3016 -5.16762 0
M  V30 2504 H 219.76 2.29621 -6.10014 0
M  V30 2505 N 223.193 1.4272 -0.668489 0
M  V30 2506 C 224.44 2.01624 -0.18814 0
M  V30 2507 C 224.768 1.5282 1.20317 0
M  V30 2508 O 224.023 0.718323 1.8204 0
M  V30 2509 C 224.322 3.57021 -0.164499 0
M  V30 2510 C 223.988 4.25232 -1.49962 0
M  V30 2511 C 222.65 4.4358 -1.8652 0
M  V30 2512 C 225.002 4.63727 -2.37921 0
M  V30 2513 C 222.33 4.97694 -3.10674 0
M  V30 2514 C 224.682 5.19218 -3.6138 0
M  V30 2515 C 223.346 5.3578 -3.98115 0
M  V30 2516 H 222.616 0.737795 -0.0688454 0
M  V30 2517 H 225.263 1.70991 -0.862225 0
M  V30 2518 H 223.568 3.87285 0.593079 0
M  V30 2519 H 225.265 4.00372 0.224271 0
M  V30 2520 H 221.855 4.11306 -1.20522 0
M  V30 2521 H 226.039 4.4923 -2.10964 0
M  V30 2522 H 221.295 5.08702 -3.39164 0
M  V30 2523 H 225.469 5.4799 -4.29743 0
M  V30 2524 H 223.096 5.77475 -4.94395 0
M  V30 2525 N 224.671 0.411399 1.52136 0
M  V30 2526 C 226.087 0.0623865 1.59478 0
M  V30 2527 C 226.287 -1.42554 1.4241 0
M  V30 2528 O 225.343 -2.19263 1.2522 0
M  V30 2529 C 226.656 0.559331 2.95452 0
M  V30 2530 C 228.204 0.517503 3.08692 0
M  V30 2531 C 228.679 0.990994 4.4715 0
M  V30 2532 N 230.17 0.947908 4.53397 0
M  V30 2533 C 230.905 1.28544 5.58806 0
M  V30 2534 N 230.401 1.69454 6.71757 0
M  V30 2535 N 232.194 1.20526 5.49026 0
M  V30 2536 H 224.345 1.37982 1.61477 0
M  V30 2537 H 226.608 0.566977 0.759764 0
M  V30 2538 H 226.314 1.59938 3.1323 0
M  V30 2539 H 226.188 -0.0298014 3.77188 0
M  V30 2540 H 228.575 -0.513505 2.90598 0
M  V30 2541 H 228.656 1.14272 2.28857 0
M  V30 2542 H 228.3 2.02034 4.65988 0
M  V30 2543 H 228.23 0.34257 5.25485 0
M  V30 2544 H 230.721 0.647157 3.72317 0
M  V30 2545 H 231.034 1.93513 7.48179 0
M  V30 2546 H 229.379 1.73359 6.73032 0
M  V30 2547 H 232.57 0.884505 4.59667 0
M  V30 2548 H 232.743 1.47161 6.31069 0
M  V30 2549 N 226.149 -1.5696 0.141893 0
M  V30 2550 C 227.079 -2.19516 -0.795936 0
M  V30 2551 C 228.06 -1.14187 -1.26077 0
M  V30 2552 O 229.245 -1.42511 -1.31925 0
M  V30 2553 C 226.375 -2.81272 -2.03723 0
M  V30 2554 C 225.329 -3.92384 -1.70936 0
M  V30 2555 C 224.655 -4.41052 -3.02287 0
M  V30 2556 C 225.955 -5.13403 -0.959954 0
M  V30 2557 H 227.649 -2.98138 -0.274596 0
M  V30 2558 H 225.195 -1.43406 -0.130636 0
M  V30 2559 H 227.148 -3.237 -2.69808 0
M  V30 2560 H 225.872 -1.99973 -2.58221 0
M  V30 2561 H 224.531 -3.50566 -1.07232 0
M  V30 2562 H 224.179 -3.56582 -3.54765 0
M  V30 2563 H 223.879 -5.15993 -2.81114 0
M  V30 2564 H 225.403 -4.86146 -3.69451 0
M  V30 2565 H 226.817 -5.52706 -1.52279 0
M  V30 2566 H 225.214 -5.94073 -0.848357 0
M  V30 2567 H 226.284 -4.84875 0.0492434 0
M  V30 2568 N 227.627 0.131896 -1.57047 0
M  V30 2569 C 229.038 0.690407 -1.73465 0
M  V30 2570 C 229.389 1.8094 -0.758629 0
M  V30 2571 O 228.514 2.16282 0.0713813 0
M  V30 2572 C 229.109 1.25916 -3.14532 0
M  V30 2573 C 227.668 1.76409 -3.32501 0
M  V30 2574 C 226.815 0.658579 -2.69366 0
M  V30 2575 H 229.766 -0.0939144 -1.58422 0
M  V30 2576 H 229.787 2.12892 -3.15369 0
M  V30 2577 H 229.299 0.444515 -3.85546 0
M  V30 2578 H 227.4 2.60391 -2.66509 0
M  V30 2579 H 227.513 1.88241 -4.4057 0
M  V30 2580 H 225.877 1.08899 -2.30246 0
M  V30 2581 H 226.66 -0.14487 -3.42994 0
M  V30 2582 N 229.106 1.52395 0.401703 0
M  V30 2583 C 230.354 1.66488 1.14569 0
M  V30 2584 C 230.675 0.400897 1.90835 0
M  V30 2585 O 229.945 -0.584415 1.8698 0
M  V30 2586 H 228.525 0.613672 0.425929 0
M  V30 2587 H 231.187 1.89464 0.457093 0
M  V30 2588 H 230.283 2.50942 1.85566 0
M  V30 2589 N 230.584 -0.659388 1.43143 0
M  V30 2590 C 231.83 -1.42145 1.44647 0
M  V30 2591 C 232.163 -1.9408 0.0681907 0
M  V30 2592 O 231.438 -1.71899 -0.910007 0
M  V30 2593 C 231.721 -2.60735 2.48373 0
M  V30 2594 C 231.574 -2.14332 3.95451 0
M  V30 2595 C 232.893 -3.62951 2.48906 0
M  V30 2596 H 230.012 -0.51552 0.526696 0
M  V30 2597 H 232.654 -0.748069 1.74654 0
M  V30 2598 H 230.804 -3.18184 2.22916 0
M  V30 2599 H 232.476 -1.61932 4.31944 0
M  V30 2600 H 230.719 -1.4576 4.08578 0
M  V30 2601 H 231.39 -2.99583 4.63631 0
M  V30 2602 H 233.866 -3.1525 2.71582 0
M  V30 2603 H 232.742 -4.43487 3.23435 0
M  V30 2604 H 233.003 -4.15126 1.52061 0
M  V30 2605 N 232.062 -1.29571 -0.897171 0
M  V30 2606 C 233.339 -1.08365 -1.62839 0
M  V30 2607 C 233.719 0.371331 -2.07808 0
M  V30 2608 O 233.067 1.3606 -1.83576 0
M  V30 2609 C 233.277 -2.0735 -2.80726 0
M  V30 2610 C 234.625 -2.38406 -3.51351 0
M  V30 2611 O 235.649 -2.05564 -2.90898 0
M  V30 2612 O 234.508 -2.9453 -4.60341 0
M  V30 2613 H 231.602 -0.415345 -0.715134 0
M  V30 2614 H 234.148 -1.40952 -0.945018 0
M  V30 2615 H 232.92 -3.05339 -2.44711 0
M  V30 2616 H 232.543 -1.75507 -3.56767 0
M  V30 2617 N 233.54 1.10788 -1.12088 0
M  V30 2618 C 234.786 1.82942 -0.875226 0
M  V30 2619 C 235.119 1.84779 0.597538 0
M  V30 2620 O 234.394 1.30578 1.44152 0
M  V30 2621 C 234.677 3.29789 -1.44606 0
M  V30 2622 C 234.53 3.36307 -2.98693 0
M  V30 2623 C 235.849 4.26064 -1.10261 0
M  V30 2624 H 232.968 0.664195 -0.319397 0
M  V30 2625 H 235.61 1.29867 -1.38689 0
M  V30 2626 H 233.76 3.75118 -1.01089 0
M  V30 2627 H 235.432 2.99487 -3.50864 0
M  V30 2628 H 233.675 2.76318 -3.34411 0
M  V30 2629 H 234.346 4.39694 -3.33726 0
M  V30 2630 H 236.822 3.88951 -1.4784 0
M  V30 2631 H 235.698 5.27183 -1.52869 0
M  V30 2632 H 235.959 4.42098 -0.0142953 0
M  V30 2633 N 235.018 0.912232 1.28515 0
M  V30 2634 C 235.981 0.404223 2.25607 0
M  V30 2635 C 236.981 -0.468602 1.53821 0
M  V30 2636 O 238.171 -0.271873 1.72065 0
M  V30 2637 C 235.303 -0.420653 3.38295 0
M  V30 2638 H 236.496 1.26188 2.7206 0
M  V30 2639 H 234.049 0.691495 1.40171 0
M  V30 2640 H 234.784 -1.29777 2.97201 0
M  V30 2641 H 234.569 0.204935 3.91564 0
M  V30 2642 H 236.059 -0.766971 4.10496 0
M  V30 2643 N 236.496 -1.42363 0.676048 0
M  V30 2644 C 237.724 -2.05859 0.207268 0
M  V30 2645 C 238.139 -1.50796 -1.13605 0
M  V30 2646 O 237.496 -0.648265 -1.70598 0
M  V30 2647 C 237.547 -3.61248 0.134975 0
M  V30 2648 O 237.268 -4.1427 1.42521 0
M  V30 2649 C 238.769 -4.41859 -0.357151 0
M  V30 2650 H 235.989 -0.663431 0.100503 0
M  V30 2651 H 238.533 -1.82479 0.923136 0
M  V30 2652 H 236.688 -3.83735 -0.531588 0
M  V30 2653 H 237.102 -5.0815 1.29939 0
M  V30 2654 H 238.576 -5.50847 -0.356641 0
M  V30 2655 H 239.053 -4.16536 -1.39264 0
M  V30 2656 H 239.659 -4.24392 0.27772 0
M  V30 2657 N 237.974 -0.419461 -1.51915 0
M  V30 2658 C 238.906 0.43646 -2.25006 0
M  V30 2659 C 239.919 1.00149 -1.28351 0
M  V30 2660 O 241.108 0.898674 -1.54227 0
M  V30 2661 C 238.208 1.6206 -2.9764 0
M  V30 2662 C 237.381 1.17763 -4.21249 0
M  V30 2663 C 236.44 2.22985 -4.76617 0
M  V30 2664 O 235.466 1.83151 -5.38929 0
M  V30 2665 N 236.668 3.55271 -4.59089 0
M  V30 2666 H 239.433 -0.18989 -2.99098 0
M  V30 2667 H 236.994 -0.247386 -1.59999 0
M  V30 2668 H 238.986 2.32038 -3.31573 0
M  V30 2669 H 237.556 2.15266 -2.2667 0
M  V30 2670 H 236.776 0.305582 -3.93014 0
M  V30 2671 H 238.064 0.858781 -5.015 0
M  V30 2672 H 237.462 3.90377 -4.09417 0
M  V30 2673 H 236.019 4.21195 -4.97432 0
M  V30 2674 N 239.452 1.56882 -0.150215 0
M  V30 2675 C 240.699 1.96228 0.500093 0
M  V30 2676 C 241.027 1.03522 1.64661 0
M  V30 2677 O 240.282 0.0650683 1.95592 0
M  V30 2678 C 240.581 3.41801 1.04437 0
M  V30 2679 C 240.247 4.50897 0.0159671 0
M  V30 2680 C 238.909 4.8046 -0.266731 0
M  V30 2681 C 241.261 5.16703 -0.683192 0
M  V30 2682 C 238.589 5.73135 -1.25434 0
M  V30 2683 C 240.941 6.10441 -1.65964 0
M  V30 2684 C 239.605 6.38382 -1.95 0
M  V30 2685 H 238.875 0.718048 0.182997 0
M  V30 2686 H 241.522 1.90019 -0.237724 0
M  V30 2687 H 239.827 3.44857 1.85959 0
M  V30 2688 H 241.524 3.69573 1.55618 0
M  V30 2689 H 238.114 4.27891 0.246485 0
M  V30 2690 H 242.298 4.93993 -0.477983 0
M  V30 2691 H 237.554 5.93074 -1.48571 0
M  V30 2692 H 241.728 6.60507 -2.20689 0
M  V30 2693 H 239.355 7.09996 -2.71679 0
M  V30 2694 N 240.93 -0.123565 1.57115 0
M  V30 2695 C 242.176 -0.833386 1.84885 0
M  V30 2696 C 242.509 -1.79742 0.735292 0
M  V30 2697 O 241.784 -1.92764 -0.25925 0
M  V30 2698 C 242.067 -1.5873 3.23228 0
M  V30 2699 C 241.92 -0.643183 4.45178 0
M  V30 2700 C 243.239 -2.54453 3.59085 0
M  V30 2701 H 240.358 -0.301518 0.6725 0
M  V30 2702 H 243 -0.097778 1.89748 0
M  V30 2703 H 241.15 -2.21438 3.19214 0
M  V30 2704 H 242.822 -0.0253015 4.61293 0
M  V30 2705 H 241.065 0.0456139 4.33776 0
M  V30 2706 H 241.736 -1.20724 5.38637 0
M  V30 2707 H 244.212 -2.01853 3.63861 0
M  V30 2708 H 243.088 -3.04238 4.5687 0
M  V30 2709 H 243.349 -3.36906 2.86264 0
M  V30 2710 N 242.408 -1.52605 -0.393616 0
M  V30 2711 C 243.824 -1.41753 -0.733357 0
M  V30 2712 C 244.024 -0.534293 -1.94287 0
M  V30 2713 O 243.08 -0.0059787 -2.52499 0
M  V30 2714 C 244.393 -2.84531 -0.972772 0
M  V30 2715 C 245.941 -2.93978 -1.07453 0
M  V30 2716 C 246.416 -4.37756 -1.3466 0
M  V30 2717 N 247.907 -4.4106 -1.41492 0
M  V30 2718 C 248.642 -5.49387 -1.642 0
M  V30 2719 N 248.138 -6.67806 -1.8441 0
M  V30 2720 N 249.931 -5.36923 -1.66342 0
M  V30 2721 H 242.082 -2.08555 0.402328 0
M  V30 2722 H 244.345 -0.940654 0.117789 0
M  V30 2723 H 244.051 -3.51353 -0.156204 0
M  V30 2724 H 243.925 -3.26508 -1.88871 0
M  V30 2725 H 246.312 -2.27326 -1.88167 0
M  V30 2726 H 246.393 -2.55435 -0.136605 0
M  V30 2727 H 246.037 -5.04972 -0.544581 0
M  V30 2728 H 245.967 -4.73848 -2.2973 0
M  V30 2729 H 248.458 -3.55705 -1.27601 0
M  V30 2730 H 248.771 -7.46141 -2.01231 0
M  V30 2731 H 247.116 -6.70843 -1.81644 0
M  V30 2732 H 250.307 -4.43381 -1.50102 0
M  V30 2733 H 250.48 -6.21416 -1.837 0
M  V30 2734 N 243.887 0.651787 -1.4349 0
M  V30 2735 C 244.837 1.75783 -1.45205 0
M  V30 2736 C 245.821 1.57679 -0.320328 0
M  V30 2737 O 247.013 1.67767 -0.564211 0
M  V30 2738 C 244.142 3.14377 -1.3792 0
M  V30 2739 C 243.228 3.38023 -2.56127 0
M  V30 2740 N 243.619 3.32135 -3.81471 0
M  V30 2741 C 241.917 3.68747 -2.50882 0
M  V30 2742 C 242.618 3.55902 -4.60118 0
M  V30 2743 N 241.594 3.77783 -3.90872 0
M  V30 2744 H 245.396 1.69657 -2.39987 0
M  V30 2745 H 242.91 0.853508 -1.38163 0
M  V30 2746 H 244.907 3.93666 -1.37231 0
M  V30 2747 H 243.567 3.21683 -0.441596 0
M  V30 2748 H 244.578 3.11515 -4.13738 0
M  V30 2749 H 241.255 3.8316 -1.65816 0
M  V30 2750 H 242.645 3.57116 -5.69138 0
M  V30 2751 N 245.365 1.30045 0.890287 0
M  V30 2752 C 246.595 1.21296 1.67245 0
M  V30 2753 C 247.003 -0.227471 1.87828 0
M  V30 2754 O 246.346 -1.16296 1.422 0
M  V30 2755 C 246.408 1.86519 3.07329 0
M  V30 2756 C 246.072 3.35837 3.09939 0
M  V30 2757 C 247.069 4.31915 2.89389 0
M  V30 2758 C 244.754 3.77196 3.31706 0
M  V30 2759 C 246.748 5.67325 2.90552 0
M  V30 2760 C 244.435 5.12725 3.32499 0
M  V30 2761 C 245.433 6.076 3.11947 0
M  V30 2762 O 245.121 7.40655 3.12547 0
M  V30 2763 H 244.853 0.4211 0.528821 0
M  V30 2764 H 247.407 1.72111 1.12103 0
M  V30 2765 H 245.637 1.30228 3.64112 0
M  V30 2766 H 247.326 1.71963 3.67673 0
M  V30 2767 H 248.092 4.01294 2.72375 0
M  V30 2768 H 243.971 3.03796 3.4674 0
M  V30 2769 H 247.515 6.41354 2.74429 0
M  V30 2770 H 243.412 5.42988 3.49047 0
M  V30 2771 H 244.18 7.49577 3.28749 0
M  V30 2772 N 246.843 -1.10192 1.12674 0
M  V30 2773 C 248.254 -1.63707 0.897604 0
M  V30 2774 C 248.605 -1.87812 -0.567546 0
M  V30 2775 O 247.73 -1.62196 -1.43253 0
M  V30 2776 C 248.325 -2.974 1.62292 0
M  V30 2777 C 246.884 -3.47772 1.43986 0
M  V30 2778 C 246.031 -2.22332 1.65722 0
M  V30 2779 H 248.982 -0.936587 1.28116 0
M  V30 2780 H 249.003 -3.64986 1.07541 0
M  V30 2781 H 248.515 -2.79824 2.68924 0
M  V30 2782 H 246.616 -3.70487 0.396206 0
M  V30 2783 H 246.729 -4.25723 2.19765 0
M  V30 2784 H 245.093 -2.30599 1.08149 0
M  V30 2785 H 245.876 -2.07285 2.73657 0
M  V30 2786 N 248.321 -0.919034 -1.28029 0
M  V30 2787 C 249.251 -0.428581 -2.29533 0
M  V30 2788 C 250.232 0.50659 -1.62381 0
M  V30 2789 O 251.417 0.413195 -1.89753 0
M  V30 2790 C 248.547 0.327388 -3.45753 0
M  V30 2791 C 247.501 -0.519137 -4.2484 0
M  V30 2792 C 246.827 0.365486 -5.33449 0
M  V30 2793 C 248.127 -1.77914 -4.91064 0
M  V30 2794 H 249.821 -1.27687 -2.70807 0
M  V30 2795 H 247.367 -0.615428 -1.30186 0
M  V30 2796 H 249.32 0.681378 -4.15855 0
M  V30 2797 H 248.044 1.20963 -3.03374 0
M  V30 2798 H 246.703 -0.855717 -3.56473 0
M  V30 2799 H 246.351 1.24642 -4.87312 0
M  V30 2800 H 246.051 -0.197356 -5.87268 0
M  V30 2801 H 247.575 0.715241 -6.06396 0
M  V30 2802 H 248.989 -1.49374 -5.53498 0
M  V30 2803 H 247.386 -2.2848 -5.54903 0
M  V30 2804 H 248.456 -2.50382 -4.15255 0
M  V30 2805 N 249.799 1.42003 -0.683588 0
M  V30 2806 C 250.746 2.30798 -0.0107309 0
M  V30 2807 C 251.716 1.4645 0.783688 0
M  V30 2808 O 252.901 1.75263 0.754156 0
M  V30 2809 C 250.041 3.3238 0.928306 0
M  V30 2810 C 249.154 4.31814 0.126776 0
M  V30 2811 C 248.289 5.20468 1.06236 0
M  V30 2812 C 247.328 6.11577 0.253035 0
M  V30 2813 N 246.465 6.92754 1.14179 0
M  V30 2814 H 251.305 2.8778 -0.773727 0
M  V30 2815 H 248.842 1.41745 -0.393283 0
M  V30 2816 H 250.8 3.89813 1.48666 0
M  V30 2817 H 249.43 2.76976 1.65783 0
M  V30 2818 H 248.482 3.76427 -0.54833 0
M  V30 2819 H 249.794 4.96276 -0.501192 0
M  V30 2820 H 248.948 5.82677 1.69035 0
M  V30 2821 H 247.687 4.56204 1.7242 0
M  V30 2822 H 246.692 5.48428 -0.388108 0
M  V30 2823 H 247.917 6.77892 -0.404839 0
M  V30 2824 H 245.863 6.3111 1.78987 0
M  V30 2825 H 245.78 7.53855 0.569111 0
M  V30 2826 H 247.048 7.59441 1.75697 0
M  V30 2827 N 251.277 0.427512 1.51691 0
M  V30 2828 C 252.187 -0.39527 2.31246 0
M  V30 2829 C 253.203 -1.03674 1.39742 0
M  V30 2830 O 254.379 -1.03425 1.72816 0
M  V30 2831 C 251.444 -1.48706 3.13189 0
M  V30 2832 C 250.505 -0.866743 4.20459 0
M  V30 2833 C 249.738 -1.90651 4.98486 0
M  V30 2834 O 249.961 -3.12733 4.77026 0
M  V30 2835 O 248.895 -1.5025 5.82845 0
M  V30 2836 H 252.721 0.253918 3.02637 0
M  V30 2837 H 250.306 0.190274 1.48183 0
M  V30 2838 H 252.188 -2.12047 3.64162 0
M  V30 2839 H 250.863 -2.12051 2.44573 0
M  V30 2840 H 249.77 -0.195544 3.73589 0
M  V30 2841 H 251.103 -0.276934 4.9142 0
M  V30 2842 N 252.755 -1.56801 0.158532 0
M  V30 2843 C 253.705 -2.13923 -0.788738 0
M  V30 2844 C 254.689 -1.07006 -1.2016 0
M  V30 2845 O 255.881 -1.33159 -1.1661 0
M  V30 2846 C 253.01 -2.77348 -2.02319 0
M  V30 2847 C 252.096 -3.91404 -1.6329 0
M  V30 2848 N 252.487 -4.9677 -0.951463 0
M  V30 2849 C 250.785 -4.02326 -1.92482 0
M  V30 2850 C 251.486 -5.76698 -0.761221 0
M  V30 2851 N 250.462 -5.27859 -1.29869 0
M  V30 2852 H 254.264 -2.92757 -0.258995 0
M  V30 2853 H 251.778 -1.62344 -0.0426055 0
M  V30 2854 H 253.775 -3.16639 -2.71192 0
M  V30 2855 H 252.435 -1.99991 -2.558 0
M  V30 2856 H 253.446 -5.14284 -0.610928 0
M  V30 2857 H 250.123 -3.36059 -2.47732 0
M  V30 2858 H 251.513 -6.71529 -0.223284 0
M  V30 2859 N 254.233 0.115231 -1.57178 0
M  V30 2860 C 255.48 0.822351 -1.8505 0
M  V30 2861 C 255.808 1.79701 -0.744168 0
M  V30 2862 O 255.063 1.93909 0.26414 0
M  V30 2863 C 255.362 1.60324 -3.19423 0
M  V30 2864 C 255.028 0.772536 -4.44233 0
M  V30 2865 C 253.69 0.543468 -4.78121 0
M  V30 2866 C 256.042 0.193746 -5.2084 0
M  V30 2867 C 253.37 -0.274583 -5.86057 0
M  V30 2868 C 255.722 -0.611517 -6.29637 0
M  V30 2869 C 254.386 -0.850867 -6.62055 0
M  V30 2870 H 253.656 0.30092 -0.677147 0
M  V30 2871 H 256.303 0.0845802 -1.91313 0
M  V30 2872 H 254.608 2.41203 -3.08753 0
M  V30 2873 H 256.305 2.1544 -3.38211 0
M  V30 2874 H 252.895 0.96117 -4.17683 0
M  V30 2875 H 257.079 0.357926 -4.95008 0
M  V30 2876 H 252.335 -0.469206 -6.09597 0
M  V30 2877 H 256.509 -1.06697 -6.88178 0
M  V30 2878 H 254.136 -1.48657 -7.45523 0
M  V30 2879 N 255.711 1.52812 0.385517 0
M  V30 2880 C 256.674 1.77188 1.45386 0
M  V30 2881 C 257.674 0.641953 1.4743 0
M  V30 2882 O 258.864 0.910033 1.4854 0
M  V30 2883 C 255.996 1.87582 2.8465 0
M  V30 2884 H 257.189 2.72583 1.25054 0
M  V30 2885 H 254.742 1.43586 0.617467 0
M  V30 2886 H 255.477 0.941849 3.10322 0
M  V30 2887 H 255.262 2.69748 2.84567 0
M  V30 2888 H 256.752 2.08102 3.62054 0
M  V30 2889 N 257.189 -0.644168 1.43834 0
M  V30 2890 C 258.139 -1.7501 1.46135 0
M  V30 2891 C 259.123 -1.57507 0.328685 0
M  V30 2892 O 260.315 -1.67465 0.5731 0
M  V30 2893 C 257.444 -3.13641 1.39585 0
M  V30 2894 C 256.53 -3.3666 2.57916 0
M  V30 2895 N 256.921 -3.30107 3.83227 0
M  V30 2896 C 255.219 -3.67411 2.52834 0
M  V30 2897 C 255.92 -3.53456 4.61999 0
M  V30 2898 N 254.896 -3.75705 3.9287 0
M  V30 2899 H 258.698 -1.68382 2.40883 0
M  V30 2900 H 256.212 -0.846169 1.38614 0
M  V30 2901 H 258.209 -3.92933 1.39317 0
M  V30 2902 H 256.869 -3.21444 0.45865 0
M  V30 2903 H 257.88 -3.09316 4.15384 0
M  V30 2904 H 254.557 -3.82275 1.67845 0
M  V30 2905 H 255.947 -3.54093 5.71024 0
M  V30 2906 N 258.668 -1.30515 -0.883378 0
M  V30 2907 C 259.893 -1.22487 -1.67367 0
M  V30 2908 C 260.318 0.208767 -1.86938 0
M  V30 2909 O 259.676 1.15015 -1.40148 0
M  V30 2910 C 259.724 -1.96041 -3.02655 0
M  V30 2911 O 258.828 -1.28859 -3.91751 0
M  V30 2912 H 258.169 -0.423573 -0.511353 0
M  V30 2913 H 260.699 -1.72362 -1.10239 0
M  V30 2914 H 260.709 -2.05124 -3.52687 0
M  V30 2915 H 259.384 -3.00307 -2.8773 0
M  V30 2916 H 257.961 -1.28141 -3.50192 0
M  V30 2917 N 260.146 1.09593 -1.13257 0
M  V30 2918 C 261.392 1.82003 -0.89458 0
M  V30 2919 C 261.725 1.85402 0.577906 0
M  V30 2920 O 261 1.32099 1.42759 0
M  V30 2921 C 261.283 3.28237 -1.48096 0
M  V30 2922 C 261.136 3.3312 -3.02244 0
M  V30 2923 C 262.455 4.24871 -1.14774 0
M  V30 2924 H 259.574 0.66077 -0.326424 0
M  V30 2925 H 262.216 1.28389 -1.40058 0
M  V30 2926 H 260.366 3.74024 -1.05062 0
M  V30 2927 H 262.038 2.95748 -3.54021 0
M  V30 2928 H 260.281 2.72756 -3.37323 0
M  V30 2929 H 260.952 4.3613 -3.38371 0
M  V30 2930 H 263.428 3.87361 -1.51957 0
M  V30 2931 H 262.304 5.25532 -1.58452 0
M  V30 2932 H 262.565 4.42058 -0.0611849 0
M  V30 2933 N 261.624 0.925811 1.2754 0
M  V30 2934 C 262.872 0.564138 1.94067 0
M  V30 2935 C 263.193 -0.897188 1.73134 0
M  V30 2936 O 262.463 -1.63573 1.07799 0
M  V30 2937 H 261.043 0.205645 0.718136 0
M  V30 2938 H 263.705 1.1778 1.55287 0
M  V30 2939 H 262.801 0.76881 3.02483 0
M  V30 2940 N 263.102 -1.41638 0.69111 0
M  V30 2941 C 264.332 -2.0533 0.228758 0
M  V30 2942 C 264.74 -1.52089 -1.12541 0
M  V30 2943 O 264.083 -0.662145 -1.71351 0
M  V30 2944 C 264.145 -3.59349 0.10407 0
M  V30 2945 C 263.809 -4.35362 1.38956 0
M  V30 2946 C 264.806 -4.64942 2.32648 0
M  V30 2947 C 262.491 -4.74714 1.64169 0
M  V30 2948 C 264.485 -5.32828 3.49818 0
M  V30 2949 C 262.172 -5.42338 2.81625 0
M  V30 2950 C 263.17 -5.71322 3.74273 0
M  V30 2951 O 262.858 -6.37554 4.89673 0
M  V30 2952 H 262.59 -0.667796 0.104997 0
M  V30 2953 H 265.144 -1.82477 0.942938 0
M  V30 2954 H 263.374 -3.80924 -0.665839 0
M  V30 2955 H 265.063 -4.04633 -0.320519 0
M  V30 2956 H 265.829 -4.35025 2.14425 0
M  V30 2957 H 261.708 -4.51538 0.929202 0
M  V30 2958 H 265.252 -5.55368 4.22152 0
M  V30 2959 H 261.149 -5.71673 2.99768 0
M  V30 2960 H 261.917 -6.56049 4.8943 0
M  V30 2961 N 264.58 -0.43555 -1.51462 0
M  V30 2962 C 265.826 0.131709 -2.02372 0
M  V30 2963 C 266.159 1.42516 -1.3192 0
M  V30 2964 O 265.434 1.89606 -0.433573 0
M  V30 2965 C 265.717 0.352301 -3.58373 0
M  V30 2966 C 265.57 -0.959676 -4.39443 0
M  V30 2967 C 266.889 1.12286 -4.25535 0
M  V30 2968 H 264.008 0.0463936 -0.735538 0
M  V30 2969 H 266.65 -0.574197 -1.81116 0
M  V30 2970 H 264.8 0.9536 -3.76615 0
M  V30 2971 H 266.472 -1.59482 -4.32855 0
M  V30 2972 H 264.715 -1.56468 -4.04599 0
M  V30 2973 H 265.386 -0.759394 -5.46752 0
M  V30 2974 H 267.862 0.613545 -4.11552 0
M  V30 2975 H 266.738 1.24598 -5.34571 0
M  V30 2976 H 266.999 2.15048 -3.86273 0
M  V30 2977 N 266.058 1.56714 -0.166846 0
M  V30 2978 C 267.306 1.96358 0.478305 0
M  V30 2979 C 267.627 1.0537 1.6408 0
M  V30 2980 O 266.897 0.119154 1.95537 0
M  V30 2981 H 265.477 0.725065 0.179692 0
M  V30 2982 H 268.139 1.93329 -0.246985 0
M  V30 2983 H 267.235 3.00547 0.841292 0
M  V30 2984 N 267.536 -0.106894 1.57237 0
M  V30 2985 C 268.952 -0.46078 1.52804 0
M  V30 2986 C 269.152 -1.81184 0.881746 0
M  V30 2987 O 268.208 -2.48102 0.469224 0
M  V30 2988 C 269.521 -0.434127 2.9755 0
M  V30 2989 C 271.069 -0.516821 3.08704 0
M  V30 2990 C 271.544 -0.520436 4.55033 0
M  V30 2991 N 273.035 -0.58153 4.59535 0
M  V30 2992 C 273.77 -0.605973 5.70189 0
M  V30 2993 N 273.266 -0.587331 6.90306 0
M  V30 2994 N 275.059 -0.649895 5.5833 0
M  V30 2995 H 267.21 0.778203 1.9763 0
M  V30 2996 H 269.473 0.288403 0.903066 0
M  V30 2997 H 269.179 0.491197 3.48253 0
M  V30 2998 H 269.053 -1.25748 3.55622 0
M  V30 2999 H 271.44 -1.43256 2.57995 0
M  V30 3000 H 271.521 0.334449 2.53604 0
M  V30 3001 H 271.165 0.391313 5.0639 0
M  V30 3002 H 271.095 -1.38876 5.07958 0
M  V30 3003 H 273.586 -0.60161 3.73081 0
M  V30 3004 H 273.899 -0.60894 7.70397 0
M  V30 3005 H 272.244 -0.554564 6.92784 0
M  V30 3006 H 275.435 -0.661907 4.63397 0
M  V30 3007 H 275.608 -0.665476 6.44574 0
M  V30 3008 N 269.014 -1.53014 -0.377408 0
M  V30 3009 C 270.263 -1.67845 -1.11853 0
M  V30 3010 C 270.576 -0.430625 -1.90801 0
M  V30 3011 O 271.782 -0.459261 -2.67587 0
M  V30 3012 C 270.238 -2.96668 -2.03756 0
M  V30 3013 C 269.846 -4.28671 -1.30175 0
M  V30 3014 C 271.59 -3.20865 -2.77932 0
M  V30 3015 C 269.497 -5.48591 -2.20911 0
M  V30 3016 H 268.427 -0.625343 -0.421263 0
M  V30 3017 H 271.078 -1.79514 -0.380409 0
M  V30 3018 H 269.46 -2.78773 -2.8125 0
M  V30 3019 H 270.634 -4.57157 -0.578259 0
M  V30 3020 H 268.949 -4.10825 -0.679108 0
M  V30 3021 H 271.546 -4.07642 -3.46024 0
M  V30 3022 H 271.889 -2.36424 -3.4265 0
M  V30 3023 H 272.422 -3.39379 -2.07525 0
M  V30 3024 H 269.161 -6.35474 -1.6079 0
M  V30 3025 H 268.681 -5.244 -2.91144 0
M  V30 3026 H 270.36 -5.8292 -2.80736 0
M  V30 3027 N 270.492 0.636531 -1.44174 0
M  V30 3028 C 271.44 1.76995 -1.50915 0
M  V30 3029 C 272.434 1.65053 -0.381295 0
M  V30 3030 O 273.64 1.71197 -0.55601 0
M  V30 3031 H 270.015 0.584247 -0.473455 0
M  V30 3032 H 271.986 1.68432 -2.4632 0
M  V30 3033 C 270.735 3.15314 -1.46534 0
M  V30 3034 H 270.058 3.25149 -2.32633 0
M  V30 3035 H 271.498 3.9453 -1.55312 0
M  V30 3036 C 269.957 3.3639 -0.185305 0
M  V30 3037 O 270.487 3.94699 0.746688 0
M  V30 3038 N 268.693 2.9046 -0.0901606 0
M  V30 3039 H 268.24 2.43193 -0.849416 0
M  V30 3040 H 268.198 3.04937 0.765553 0
M  V30 3041 N 271.97 1.30982 0.876444 0
M  V30 3042 C 272.88 1.2003 2.01569 0
M  V30 3043 C 273.896 0.11838 1.73597 0
M  V30 3044 O 275.072 0.33495 1.98595 0
M  V30 3045 C 272.137 0.901637 3.34771 0
M  V30 3046 C 271.198 2.06979 3.76109 0
M  V30 3047 C 270.431 1.78529 5.02954 0
M  V30 3048 O 270.654 0.717296 5.65872 0
M  V30 3049 O 269.588 2.64019 5.40905 0
M  V30 3050 H 273.414 2.15753 2.13739 0
M  V30 3051 H 270.999 1.10658 1.00375 0
M  V30 3052 H 272.881 0.750645 4.1466 0
M  V30 3053 H 271.556 -0.0256141 3.2369 0
M  V30 3054 H 270.463 2.27616 2.96887 0
M  V30 3055 H 271.796 2.97907 3.91807 0
M  V30 3056 N 273.449 -1.08991 1.13837 0
M  V30 3057 C 274.381 -2.15606 0.777612 0
M  V30 3058 C 275.394 -1.61533 -0.202739 0
M  V30 3059 O 276.583 -1.78491 0.0181055 0
M  V30 3060 C 273.683 -3.3864 0.132623 0
M  V30 3061 C 272.856 -4.22115 1.1462 0
M  V30 3062 C 271.915 -5.23564 0.526074 0
M  V30 3063 O 270.941 -5.56678 1.18735 0
M  V30 3064 N 272.143 -5.76266 -0.699866 0
M  V30 3065 H 274.908 -2.47159 1.69506 0
M  V30 3066 H 272.469 -1.24747 1.03198 0
M  V30 3067 H 274.461 -4.03626 -0.29459 0
M  V30 3068 H 273.031 -3.04938 -0.687849 0
M  V30 3069 H 272.251 -3.53199 1.75055 0
M  V30 3070 H 273.539 -4.74709 1.83109 0
M  V30 3071 H 272.937 -5.51585 -1.25581 0
M  V30 3072 H 271.494 -6.42963 -1.06968 0
M  V30 3073 N 274.927 -0.932562 -1.27047 0
M  V30 3074 C 275.837 -0.441219 -2.30414 0
M  V30 3075 C 276.853 0.480525 -1.67233 0
M  V30 3076 O 278.029 0.362151 -1.98117 0
M  V30 3077 C 275.094 0.293651 -3.45454 0
M  V30 3078 C 274.155 -0.663601 -4.2414 0
M  V30 3079 C 273.388 0.0362932 -5.33688 0
M  V30 3080 O 273.611 1.2548 -5.56427 0
M  V30 3081 O 272.545 -0.638015 -5.98509 0
M  V30 3082 H 276.371 -1.29962 -2.74488 0
M  V30 3083 H 273.956 -0.6981 -1.32087 0
M  V30 3084 H 275.838 0.707951 -4.15411 0
M  V30 3085 H 274.513 1.12758 -3.03426 0
M  V30 3086 H 273.42 -1.12768 -3.56699 0
M  V30 3087 H 274.753 -1.46489 -4.69896 0
M  V30 3088 N 276.405 1.4127 -0.698611 0
M  V30 3089 C 277.335 2.33447 -0.049629 0
M  V30 3090 C 278.316 1.51982 0.763898 0
M  V30 3091 O 279.501 1.80509 0.716257 0
M  V30 3092 C 276.631 3.35828 0.885267 0
M  V30 3093 C 275.585 4.27627 0.178613 0
M  V30 3094 C 274.911 5.20406 1.22807 0
M  V30 3095 C 276.211 5.13459 -0.956933 0
M  V30 3096 H 277.905 2.87966 -0.81951 0
M  V30 3097 H 275.451 1.38461 -0.395538 0
M  V30 3098 H 277.404 3.9924 1.34854 0
M  V30 3099 H 276.128 2.79666 1.68685 0
M  V30 3100 H 274.787 3.65643 -0.26466 0
M  V30 3101 H 274.435 4.60558 2.02226 0
M  V30 3102 H 274.135 5.82661 0.760239 0
M  V30 3103 H 275.659 5.86695 1.69179 0
M  V30 3104 H 277.073 5.70421 -0.573805 0
M  V30 3105 H 275.47 5.8467 -1.35205 0
M  V30 3106 H 276.54 4.50443 -1.79524 0
M  V30 3107 N 277.883 0.443576 1.51229 0
M  V30 3108 C 278.83 -0.364716 2.279 0
M  V30 3109 C 279.8 -1.0114 1.31757 0
M  V30 3110 O 280.985 -1.02912 1.60667 0
M  V30 3111 C 278.125 -1.45644 3.12861 0
M  V30 3112 C 277.238 -0.827269 4.24005 0
M  V30 3113 C 276.373 -1.89456 4.96266 0
M  V30 3114 C 275.412 -1.24416 5.99322 0
M  V30 3115 N 274.549 -2.25309 6.64966 0
M  V30 3116 H 279.389 0.295464 2.96532 0
M  V30 3117 H 276.926 0.157554 1.46254 0
M  V30 3118 H 278.884 -2.10076 3.6045 0
M  V30 3119 H 277.514 -2.08616 2.46331 0
M  V30 3120 H 276.566 -0.0710839 3.80334 0
M  V30 3121 H 277.878 -0.312481 4.9782 0
M  V30 3122 H 277.032 -2.61535 5.47434 0
M  V30 3123 H 275.771 -2.4431 4.22095 0
M  V30 3124 H 274.776 -0.508868 5.4744 0
M  V30 3125 H 276.001 -0.702882 6.75453 0
M  V30 3126 H 273.947 -2.79231 5.93604 0
M  V30 3127 H 273.864 -1.78739 7.34567 0
M  V30 3128 H 275.132 -2.96853 7.20763 0
M  V30 3129 N 279.361 -1.56624 0.175154 0
M  V30 3130 C 280.309 -2.19468 -0.770495 0
M  V30 3131 C 281.303 -1.15985 -1.23466 0
M  V30 3132 O 282.509 -1.34176 -1.19987 0
M  V30 3133 H 278.884 -0.703095 -0.266761 0
M  V30 3134 H 280.855 -2.97613 -0.216542 0
M  V30 3135 C 279.604 -2.85264 -1.98796 0
M  V30 3136 H 278.927 -3.64623 -1.63983 0
M  V30 3137 H 280.367 -3.327 -2.62843 0
M  V30 3138 C 278.826 -1.85239 -2.81404 0
M  V30 3139 O 279.356 -1.34024 -3.78682 0
M  V30 3140 N 277.562 -1.53911 -2.46495 0
M  V30 3141 H 277.109 -1.95751 -1.67449 0
M  V30 3142 H 277.067 -0.872382 -3.02054 0
M  V30 3143 N 280.839 0.0985539 -1.57292 0
M  V30 3144 C 281.769 1.12064 -2.04851 0
M  V30 3145 C 282.75 1.41981 -0.936767 0
M  V30 3146 O 283.935 1.52071 -1.20781 0
M  V30 3147 C 281.065 2.44144 -2.47004 0
M  V30 3148 C 280.019 2.28643 -3.6181 0
M  V30 3149 C 279.345 3.65869 -3.89929 0
M  V30 3150 C 280.645 1.72986 -4.92822 0
M  V30 3151 H 282.339 0.724979 -2.9049 0
M  V30 3152 H 279.885 0.34729 -1.39749 0
M  V30 3153 H 281.838 3.15914 -2.78884 0
M  V30 3154 H 280.562 2.85639 -1.5836 0
M  V30 3155 H 279.221 1.59318 -3.30172 0
M  V30 3156 H 278.869 4.04885 -2.98458 0
M  V30 3157 H 278.569 3.56344 -4.67218 0
M  V30 3158 H 280.093 4.39112 -4.2428 0
M  V30 3159 H 281.507 2.34593 -5.23105 0
M  V30 3160 H 279.904 1.74229 -5.74251 0
M  V30 3161 H 280.974 0.689007 -4.7998 0
M  V30 3162 N 282.317 1.53212 0.369288 0
M  V30 3163 C 283.594 1.59815 1.12776 0
M  V30 3164 C 283.974 0.403402 2.0721 0
M  V30 3165 O 283.322 -0.606667 2.20299 0
M  V30 3166 C 283.532 2.94664 1.87013 0
M  V30 3167 C 284.88 3.49109 2.41677 0
M  V30 3168 O 285.904 2.96669 1.97144 0
M  V30 3169 O 284.763 4.40775 3.23079 0
M  V30 3170 H 281.857 0.645376 0.517125 0
M  V30 3171 H 284.403 1.65553 0.37285 0
M  V30 3172 H 283.175 3.73061 1.18071 0
M  V30 3173 H 282.798 2.92401 2.69421 0
M  V30 3174 N 283.795 -0.628877 1.44509 0
M  V30 3175 C 285.206 -1.21054 1.42137 0
M  V30 3176 C 285.557 -1.95715 0.137881 0
M  V30 3177 O 284.682 -2.02554 -0.761645 0
M  V30 3178 C 285.277 -2.20189 2.57493 0
M  V30 3179 C 283.836 -2.73777 2.58308 0
M  V30 3180 C 282.983 -1.48813 2.33987 0
M  V30 3181 H 285.934 -0.41942 1.53057 0
M  V30 3182 H 285.955 -3.02833 2.30375 0
M  V30 3183 H 285.467 -1.6582 3.50892 0
M  V30 3184 H 283.568 -3.32142 1.68856 0
M  V30 3185 H 283.681 -3.19662 3.56865 0
M  V30 3186 H 282.045 -1.77024 1.83124 0
M  V30 3187 H 282.828 -0.963442 3.29504 0
M  V30 3188 N 285.273 -1.31445 -0.869486 0
M  V30 3189 C 286.522 -1.20517 -1.61736 0
M  V30 3190 C 286.835 0.235341 -1.94179 0
M  V30 3191 O 288.041 0.466312 -2.67465 0
M  V30 3192 C 286.497 -2.10982 -2.91573 0
M  V30 3193 C 286.105 -3.60032 -2.66611 0
M  V30 3194 C 287.849 -2.08856 -3.69567 0
M  V30 3195 C 285.756 -4.42503 -3.92358 0
M  V30 3196 H 284.686 -0.447493 -0.606849 0
M  V30 3197 H 287.337 -1.56303 -0.96133 0
M  V30 3198 H 285.719 -1.68095 -3.58553 0
M  V30 3199 H 286.893 -4.11167 -2.08035 0
M  V30 3200 H 285.208 -3.64139 -2.0197 0
M  V30 3201 H 287.805 -2.67716 -4.62852 0
M  V30 3202 H 288.148 -1.07582 -4.02159 0
M  V30 3203 H 288.681 -2.49945 -3.09471 0
M  V30 3204 H 285.42 -5.44533 -3.64916 0
M  V30 3205 H 284.94 -3.96125 -4.50383 0
M  V30 3206 H 286.619 -4.54741 -4.60238 0
M  V30 3207 N 286.751 1.08385 -1.14413 0
M  V30 3208 C 287.699 2.17406 -0.826888 0
M  V30 3209 C 288.693 1.6827 0.195312 0
M  V30 3210 O 289.899 1.79927 0.0513892 0
M  V30 3211 H 286.274 0.70934 -0.249681 0
M  V30 3212 H 288.245 2.41388 -1.75426 0
M  V30 3213 C 286.994 3.46215 -0.320979 0
M  V30 3214 H 286.317 3.84401 -1.0989 0
M  V30 3215 H 287.757 4.23777 -0.137549 0
M  V30 3216 C 286.216 3.23067 0.955472 0
M  V30 3217 O 286.746 3.4668 2.02918 0
M  V30 3218 N 284.952 2.7661 0.890798 0
M  V30 3219 H 284.499 2.57594 0.0168815 0
M  V30 3220 H 284.457 2.61501 1.74542 0
M  V30 3221 N 288.23 0.939286 1.26551 0
M  V30 3222 C 289.46 0.601663 1.97645 0
M  V30 3223 C 289.868 -0.827206 1.70159 0
M  V30 3224 O 289.211 -1.56291 0.965338 0
M  V30 3225 C 289.273 0.761725 3.51337 0
M  V30 3226 C 288.937 2.16487 4.0247 0
M  V30 3227 C 289.934 3.14016 4.14355 0
M  V30 3228 C 287.619 2.48494 4.36527 0
M  V30 3229 C 289.613 4.41654 4.59587 0
M  V30 3230 C 287.3 3.76364 4.81449 0
M  V30 3231 C 288.298 4.72758 4.92939 0
M  V30 3232 O 287.986 5.98352 5.36871 0
M  V30 3233 H 287.718 0.225758 0.637189 0
M  V30 3234 H 290.272 1.26178 1.62075 0
M  V30 3235 H 288.502 0.0444808 3.86674 0
M  V30 3236 H 290.191 0.427442 4.03643 0
M  V30 3237 H 290.957 2.90613 3.8829 0
M  V30 3238 H 286.836 1.74202 4.26819 0
M  V30 3239 H 290.38 5.16896 4.68471 0
M  V30 3240 H 286.277 3.99582 5.06956 0
M  V30 3241 H 287.045 6.01507 5.55096 0
M  V30 3242 N 289.708 -1.40897 0.706093 0
M  V30 3243 C 290.933 -2.05895 0.249435 0
M  V30 3244 C 291.358 -1.52823 -1.09666 0
M  V30 3245 O 290.716 -0.659589 -1.68876 0
M  V30 3246 C 290.764 -3.59872 0.22904 0
M  V30 3247 O 289.868 -4.04708 -0.792784 0
M  V30 3248 H 289.209 -0.653206 0.119241 0
M  V30 3249 H 291.739 -1.80471 0.96391 0
M  V30 3250 H 291.749 -4.07951 0.0634791 0
M  V30 3251 H 290.424 -3.97866 1.21141 0
M  V30 3252 H 289.001 -3.68111 -0.59572 0
M  V30 3253 N 291.186 -0.45159 -1.50991 0
M  V30 3254 C 292.434 0.109857 -2.01801 0
M  V30 3255 C 292.755 1.41958 -1.3369 0
M  V30 3256 O 292.025 1.9003 -0.475951 0
M  V30 3257 H 290.605 0.0435884 -0.745727 0
M  V30 3258 H 293.267 -0.597557 -1.85514 0
M  V30 3259 H 292.363 0.275489 -3.10882 0
M  V30 3260 N 292.664 1.56529 -0.183458 0
M  V30 3261 C 293.892 2.01623 0.464285 0
M  V30 3262 C 294.307 1.06366 1.55986 0
M  V30 3263 O 293.664 0.0665398 1.82379 0
M  V30 3264 C 293.715 3.46475 1.03139 0
M  V30 3265 O 293.436 4.38095 -0.0204675 0
M  V30 3266 C 294.937 4.0703 1.75617 0
M  V30 3267 H 292.157 0.660596 0.117704 0
M  V30 3268 H 294.701 2.02451 -0.288751 0
M  V30 3269 H 292.856 3.46383 1.73486 0
M  V30 3270 H 293.27 5.22973 0.399952 0
M  V30 3271 H 294.744 5.10271 2.10542 0
M  V30 3272 H 295.221 3.49819 2.65563 0
M  V30 3273 H 295.827 4.1086 1.09882 0
M  V30 3274 N 294.142 -0.090211 1.57342 0
M  V30 3275 C 295.092 -1.11557 1.98844 0
M  V30 3276 C 296.076 -1.35503 0.867624 0
M  V30 3277 O 297.268 -1.36113 1.13148 0
M  V30 3278 C 294.397 -2.43446 2.42051 0
M  V30 3279 C 293.483 -2.22853 3.60828 0
M  V30 3280 N 293.874 -1.72141 4.75606 0
M  V30 3281 C 292.172 -2.53401 3.67021 0
M  V30 3282 C 292.873 -1.65932 5.57531 0
M  V30 3283 N 291.849 -2.11323 5.00843 0
M  V30 3284 H 295.651 -0.716499 2.85032 0
M  V30 3285 H 293.165 -0.297567 1.59651 0
M  V30 3286 H 295.162 -3.17644 2.70014 0
M  V30 3287 H 293.822 -2.84087 1.57241 0
M  V30 3288 H 294.833 -1.41268 4.98261 0
M  V30 3289 H 291.51 -2.97532 2.92884 0
M  V30 3290 H 292.9 -1.27733 6.59647 0
M  V30 3291 N 295.62 -1.53406 -0.361157 0
M  V30 3292 C 296.57 -1.76536 -1.44287 0
M  V30 3293 C 297.554 -0.620019 -1.48474 0
M  V30 3294 O 298.746 -0.878834 -1.53641 0
M  V30 3295 C 295.875 -1.96266 -2.81664 0
M  V30 3296 C 294.961 -3.16815 -2.81938 0
M  V30 3297 N 295.352 -4.38637 -2.51855 0
M  V30 3298 C 293.65 -3.17627 -3.13096 0
M  V30 3299 C 294.351 -5.20401 -2.59919 0
M  V30 3300 N 293.327 -4.56712 -2.94814 0
M  V30 3301 H 297.129 -2.68331 -1.19899 0
M  V30 3302 H 294.643 -1.52091 -0.56938 0
M  V30 3303 H 296.64 -2.10966 -3.59582 0
M  V30 3304 H 295.3 -1.05702 -3.07013 0
M  V30 3305 H 296.311 -4.66293 -2.25369 0
M  V30 3306 H 292.988 -2.36971 -3.43731 0
M  V30 3307 H 294.378 -6.27586 -2.39969 0
M  V30 3308 N 297.098 0.621204 -1.44841 0
M  V30 3309 C 298.347 1.37658 -1.47422 0
M  V30 3310 C 298.66 1.95264 -0.114629 0
M  V30 3311 O 299.866 2.71494 -0.0180199 0
M  V30 3312 C 298.322 2.49285 -2.59586 0
M  V30 3313 C 297.93 1.98149 -4.01797 0
M  V30 3314 C 299.674 3.26409 -2.71399 0
M  V30 3315 C 297.581 3.07178 -5.05367 0
M  V30 3316 H 296.511 0.517344 -0.548517 0
M  V30 3317 H 299.162 0.667257 -1.70938 0
M  V30 3318 H 297.544 3.22839 -2.29328 0
M  V30 3319 H 298.718 1.31395 -4.41669 0
M  V30 3320 H 297.033 1.33812 -3.94314 0
M  V30 3321 H 299.63 4.07706 -3.45948 0
M  V30 3322 H 299.973 3.76535 -1.77559 0
M  V30 3323 H 300.506 2.5995 -3.01116 0
M  V30 3324 H 297.245 2.61985 -6.00869 0
M  V30 3325 H 296.765 3.72542 -4.70077 0
M  V30 3326 H 298.444 3.71789 -5.29511 0
M  V30 3327 N 298.576 1.31904 0.862503 0
M  V30 3328 C 299.824 1.21776 1.61292 0
M  V30 3329 C 300.145 -0.222413 1.93727 0
M  V30 3330 O 299.415 -1.1451 1.58947 0
M  V30 3331 H 297.995 0.447717 0.597962 0
M  V30 3332 H 300.657 1.65326 1.03215 0
M  V30 3333 H 299.753 1.7948 2.5533 0
M  V30 3334 N 300.054 -1.07777 1.14986 0
M  V30 3335 C 301.001 -2.14867 0.842672 0
M  V30 3336 C 301.971 -1.6486 -0.202552 0
M  V30 3337 O 303.156 -1.90668 -0.0710568 0
M  V30 3338 C 300.296 -3.43486 0.333363 0
M  V30 3339 C 299.409 -4.07306 1.43965 0
M  V30 3340 C 298.544 -5.23744 0.886914 0
M  V30 3341 C 297.583 -5.79517 1.97043 0
M  V30 3342 N 296.72 -6.87291 1.4344 0
M  V30 3343 H 301.56 -2.40485 1.75986 0
M  V30 3344 H 299.097 -1.1801 0.878179 0
M  V30 3345 H 301.055 -4.17195 0.0198163 0
M  V30 3346 H 299.685 -3.18133 -0.546916 0
M  V30 3347 H 298.737 -3.31293 1.86946 0
M  V30 3348 H 300.049 -4.44771 2.25788 0
M  V30 3349 H 299.203 -6.04419 0.525651 0
M  V30 3350 H 297.942 -4.87685 0.0377957 0
M  V30 3351 H 296.947 -4.97491 2.34057 0
M  V30 3352 H 298.172 -6.17632 2.82325 0
M  V30 3353 H 296.118 -6.5318 0.607567 0
M  V30 3354 H 296.035 -7.23617 2.18895 0
M  V30 3355 H 297.303 -7.71682 1.10124 0
M  V30 3356 N 301.532 -0.945985 -1.26051 0
M  V30 3357 C 302.76 -0.613025 -1.9761 0
M  V30 3358 C 303.175 0.813035 -1.70397 0
M  V30 3359 O 302.532 1.54274 -0.974979 0
M  V30 3360 C 302.583 -0.85159 -3.51326 0
M  V30 3361 O 302.304 -2.22157 -3.77595 0
M  V30 3362 C 303.805 -0.529831 -4.40122 0
M  V30 3363 H 301.025 -0.230593 -0.630133 0
M  V30 3364 H 303.569 -1.268 -1.60443 0
M  V30 3365 H 301.724 -0.243151 -3.86636 0
M  V30 3366 H 302.138 -2.2852 -4.721 0
M  V30 3367 H 303.612 -0.747348 -5.46917 0
M  V30 3368 H 304.089 0.535341 -4.35925 0
M  V30 3369 H 304.695 -1.11721 -4.10364 0
M  V30 3370 N 303.011 1.40521 -0.713556 0
M  V30 3371 C 304.259 2.00527 -0.251692 0
M  V30 3372 C 304.58 1.56857 1.15848 0
M  V30 3373 O 303.85 0.807127 1.785 0
M  V30 3374 H 302.43 0.741551 -0.0900646 0
M  V30 3375 H 305.092 1.71887 -0.918733 0
M  V30 3376 H 304.188 3.10813 -0.283192 0
M  V30 3377 N 304.489 0.459591 1.5075 0
M  V30 3378 C 305.738 -0.100971 2.01447 0
M  V30 3379 C 306.051 -1.41816 1.34713 0
M  V30 3380 O 307.257 -2.06299 1.76502 0
M  V30 3381 C 305.713 -0.23047 3.59161 0
M  V30 3382 C 305.321 1.0776 4.34847 0
M  V30 3383 C 307.065 -0.743608 4.17936 0
M  V30 3384 C 304.972 0.91253 5.84317 0
M  V30 3385 H 303.902 -0.0415102 0.752856 0
M  V30 3386 H 306.553 0.592742 1.73663 0
M  V30 3387 H 304.935 -0.987703 3.83485 0
M  V30 3388 H 306.109 1.8449 4.22256 0
M  V30 3389 H 304.424 1.52097 3.87628 0
M  V30 3390 H 307.021 -0.883959 5.27343 0
M  V30 3391 H 307.364 -1.73196 3.78562 0
M  V30 3392 H 307.897 -0.04408 3.97776 0
M  V30 3393 H 304.636 1.87391 6.28144 0
M  V30 3394 H 304.156 0.185422 5.99513 0
M  V30 3395 H 305.835 0.574547 6.44444 0
M  V30 3396 N 305.967 -1.56429 0.191757 0
M  V30 3397 C 306.877 -2.22541 -0.742481 0
M  V30 3398 C 307.893 -1.22342 -1.23727 0
M  V30 3399 O 309.069 -1.55069 -1.28513 0
M  V30 3400 C 306.134 -2.8692 -1.94623 0
M  V30 3401 C 305.195 -4.02378 -1.49633 0
M  V30 3402 C 304.428 -4.63678 -2.6427 0
M  V30 3403 O 304.651 -4.23895 -3.81666 0
M  V30 3404 O 303.585 -5.53202 -2.37174 0
M  V30 3405 H 307.411 -3.02977 -0.209462 0
M  V30 3406 H 304.996 -1.49353 -0.0373832 0
M  V30 3407 H 306.878 -3.27663 -2.64982 0
M  V30 3408 H 305.553 -2.09466 -2.46791 0
M  V30 3409 H 304.46 -3.66265 -0.761636 0
M  V30 3410 H 305.793 -4.81487 -1.02134 0
M  V30 3411 N 307.445 0.0818655 -1.57387 0
M  V30 3412 C 308.861 0.436412 -1.53517 0
M  V30 3413 C 309.061 1.79758 -0.910459 0
M  V30 3414 O 308.117 2.47324 -0.508636 0
M  V30 3415 C 309.43 0.386734 -2.98203 0
M  V30 3416 C 310.978 0.467644 -3.09487 0
M  V30 3417 C 311.453 0.447978 -4.55804 0
M  V30 3418 N 312.944 0.508348 -4.60402 0
M  V30 3419 C 313.679 0.515184 -5.71081 0
M  V30 3420 N 313.175 0.477435 -6.91153 0
M  V30 3421 N 314.968 0.560988 -5.59294 0
M  V30 3422 H 307.119 -0.809546 -1.96367 0
M  V30 3423 H 309.382 -0.302733 -0.898363 0
M  V30 3424 H 309.088 -0.546539 -3.47427 0
M  V30 3425 H 308.962 1.20075 -3.57578 0
M  V30 3426 H 311.349 1.39134 -2.60242 0
M  V30 3427 H 311.43 -0.374753 -2.5304 0
M  V30 3428 H 311.074 -0.471826 -5.05704 0
M  V30 3429 H 311.004 1.30777 -5.10103 0
M  V30 3430 H 313.495 0.54218 -3.7399 0
M  V30 3431 H 313.808 0.486299 -7.71268 0
M  V30 3432 H 312.153 0.444278 -6.93579 0
M  V30 3433 H 315.344 0.5881 -4.64391 0
M  V30 3434 H 315.517 0.562846 -6.45551 0
M  V30 3435 N 308.923 1.53595 0.353017 0
M  V30 3436 C 310.17 1.70385 1.09431 0
M  V30 3437 C 310.498 0.462113 1.88931 0
M  V30 3438 O 309.753 -0.556074 1.87633 0
M  V30 3439 C 310.052 2.91313 2.07054 0
M  V30 3440 C 309.718 4.27308 1.43939 0
M  V30 3441 C 308.38 4.64287 1.26454 0
M  V30 3442 C 310.732 5.11829 0.983883 0
M  V30 3443 C 308.06 5.83412 0.620226 0
M  V30 3444 C 310.412 6.31611 0.353516 0
M  V30 3445 C 309.076 6.67293 0.166272 0
M  V30 3446 H 308.346 0.623484 0.400436 0
M  V30 3447 H 310.993 1.87799 0.374655 0
M  V30 3448 H 309.298 2.68463 2.85368 0
M  V30 3449 H 310.995 3.01497 2.64387 0
M  V30 3450 H 307.585 3.98198 1.58543 0
M  V30 3451 H 311.769 4.838 1.10685 0
M  V30 3452 H 307.025 6.09639 0.463681 0
M  V30 3453 H 311.199 6.964 -0.00757555 0
M  V30 3454 H 308.826 7.59461 -0.335047 0
M  V30 3455 N 310.401 -0.613514 1.45168 0
M  V30 3456 C 311.631 -1.39743 1.52169 0
M  V30 3457 C 312.039 -1.88596 0.151086 0
M  V30 3458 O 311.382 -1.6251 -0.856521 0
M  V30 3459 C 311.444 -2.64035 2.43979 0
M  V30 3460 C 311.108 -2.36861 3.90827 0
M  V30 3461 C 312.105 -1.97591 4.80889 0
M  V30 3462 C 309.79 -2.49956 4.35692 0
M  V30 3463 C 311.784 -1.71768 6.1382 0
M  V30 3464 C 309.471 -2.23747 5.68665 0
M  V30 3465 C 310.469 -1.84714 6.57548 0
M  V30 3466 O 310.157 -1.58809 7.88058 0
M  V30 3467 H 309.889 -0.434382 0.517966 0
M  V30 3468 H 312.443 -0.75587 1.90986 0
M  V30 3469 H 310.673 -3.3089 2.00122 0
M  V30 3470 H 312.362 -3.26069 2.41731 0
M  V30 3471 H 313.128 -1.87015 4.47493 0
M  V30 3472 H 309.007 -2.79305 3.66756 0
M  V30 3473 H 312.551 -1.41227 6.83155 0
M  V30 3474 H 308.448 -2.33938 6.01617 0
M  V30 3475 H 309.216 -1.7291 8.00028 0
M  V30 3476 N 311.879 -1.3236 -0.855495 0
M  V30 3477 C 312.789 -1.23221 -1.99634 0
M  V30 3478 C 313.805 -0.145983 -1.73387 0
M  V30 3479 O 314.981 -0.366502 -1.98037 0
M  V30 3480 C 312.046 -0.954782 -3.33294 0
M  V30 3481 C 311.107 -2.12937 -3.72769 0
M  V30 3482 C 310.34 -1.86508 -5.00051 0
M  V30 3483 O 310.563 -0.807231 -5.64659 0
M  V30 3484 O 309.497 -2.72591 -5.36636 0
M  V30 3485 H 313.323 -2.19126 -2.1028 0
M  V30 3486 H 310.908 -1.12241 -0.986018 0
M  V30 3487 H 312.79 -0.816519 -4.13414 0
M  V30 3488 H 311.465 -0.0258854 -3.2369 0
M  V30 3489 H 310.372 -2.3231 -2.93228 0
M  V30 3490 H 311.705 -3.04102 -3.87018 0
M  V30 3491 N 313.357 1.07166 -1.15556 0
M  V30 3492 C 314.582 1.84053 -0.955988 0
M  V30 3493 C 315.007 1.81586 0.490739 0
M  V30 3494 O 314.365 1.21018 1.34997 0
M  V30 3495 C 314.413 3.28957 -1.47714 0
M  V30 3496 O 313.517 4.06795 -0.677593 0
M  V30 3497 H 312.858 0.569842 -0.340847 0
M  V30 3498 H 315.388 1.35178 -1.53584 0
M  V30 3499 H 315.398 3.79788 -1.4908 0
M  V30 3500 H 314.073 3.30068 -2.53037 0
M  V30 3501 H 312.65 3.6561 -0.733721 0
M  V30 3502 N 314.835 0.952656 1.25548 0
M  V30 3503 C 315.745 0.47782 2.29682 0
M  V30 3504 C 316.761 -0.453859 1.67977 0
M  V30 3505 O 317.937 -0.330587 1.98668 0
M  V30 3506 C 315.002 -0.238655 3.45878 0
M  V30 3507 C 314.063 0.730994 4.23031 0
M  V30 3508 C 313.296 0.0486165 5.33678 0
M  V30 3509 O 313.519 -1.16612 5.58353 0
M  V30 3510 O 312.453 0.733152 5.97418 0
M  V30 3511 H 316.279 1.34312 2.72386 0
M  V30 3512 H 313.864 0.719026 1.30959 0
M  V30 3513 H 315.746 -0.641774 4.16484 0
M  V30 3514 H 314.421 -1.07916 3.05181 0
M  V30 3515 H 313.328 1.18428 3.5486 0
M  V30 3516 H 314.661 1.53946 4.67506 0
M  V30 3517 N 316.313 -1.40141 0.720998 0
M  V30 3518 C 317.243 -2.33339 0.0867621 0
M  V30 3519 C 318.224 -1.53178 -0.739622 0
M  V30 3520 O 319.409 -1.81625 -0.687449 0
M  V30 3521 C 316.539 -3.37194 -0.831728 0
M  V30 3522 C 315.493 -4.27857 -0.110558 0
M  V30 3523 C 314.819 -5.22294 -1.14513 0
M  V30 3524 C 316.119 -5.11872 1.0385 0
M  V30 3525 H 317.813 -2.86626 0.865219 0
M  V30 3526 H 315.359 -1.37814 0.417516 0
M  V30 3527 H 317.312 -4.01335 -1.28485 0
M  V30 3528 H 316.036 -2.82314 -1.64214 0
M  V30 3529 H 314.695 -3.65176 0.322797 0
M  V30 3530 H 314.343 -4.63717 -1.94874 0
M  V30 3531 H 314.043 -5.83797 -0.667446 0
M  V30 3532 H 315.567 -5.89312 -1.59824 0
M  V30 3533 H 316.981 -5.69436 0.664482 0
M  V30 3534 H 315.378 -5.82445 1.4449 0
M  V30 3535 H 316.448 -4.4753 1.86668 0
M  V30 3536 N 317.792 -0.46758 -1.50504 0
M  V30 3537 C 318.742 0.34698 -2.25344 0
M  V30 3538 C 319.726 0.964469 -1.2879 0
M  V30 3539 O 320.918 0.8776 -1.53711 0
M  V30 3540 C 318.047 1.43042 -3.1208 0
M  V30 3541 C 317.133 0.82084 -4.16081 0
M  V30 3542 N 317.524 -0.0567602 -5.05768 0
M  V30 3543 C 315.822 1.08517 -4.32597 0
M  V30 3544 C 316.523 -0.402343 -5.80307 0
M  V30 3545 N 315.499 0.221607 -5.43148 0
M  V30 3546 H 319.301 -0.329129 -2.92051 0
M  V30 3547 H 316.815 -0.281508 -1.59942 0
M  V30 3548 H 318.812 2.02712 -3.64299 0
M  V30 3549 H 317.472 2.10856 -2.46921 0
M  V30 3550 H 318.483 -0.425349 -5.1615 0
M  V30 3551 H 315.16 1.75855 -3.78657 0
M  V30 3552 H 316.55 -1.11834 -6.62528 0
M  V30 3553 N 319.27 1.56325 -0.20005 0
M  V30 3554 C 320.518 1.97329 0.436547 0
M  V30 3555 C 320.839 1.08826 1.61808 0
M  V30 3556 O 320.109 0.160604 1.95241 0
M  V30 3557 H 318.689 0.728714 0.164272 0
M  V30 3558 H 321.351 1.92761 -0.287937 0
M  V30 3559 H 320.447 3.02264 0.777353 0
M  V30 3560 N 320.748 -0.0735177 1.57428 0
M  V30 3561 C 321.976 -0.785969 1.9139 0
M  V30 3562 C 322.391 -1.71207 0.795847 0
M  V30 3563 O 321.748 -1.81033 -0.230915 0
M  V30 3564 C 321.799 -1.58107 3.25091 0
M  V30 3565 O 321.52 -0.6922 4.32597 0
M  V30 3566 C 323.021 -2.39467 3.73055 0
M  V30 3567 H 320.241 -0.223558 0.632663 0
M  V30 3568 H 322.785 -0.044302 2.04452 0
M  V30 3569 H 320.94 -2.27503 3.13562 0
M  V30 3570 H 321.354 -1.24504 5.09508 0
M  V30 3571 H 322.828 -2.90716 4.69242 0
M  V30 3572 H 323.305 -3.18913 3.01979 0
M  V30 3573 H 323.911 -1.7523 3.87523 0
M  V30 3574 N 322.226 -1.5378 -0.344866 0
M  V30 3575 C 323.472 -1.71216 -1.08687 0
M  V30 3576 C 323.805 -0.473281 -1.88345 0
M  V30 3577 O 323.08 0.52968 -1.87149 0
M  V30 3578 C 323.363 -2.97486 -2.02914 0
M  V30 3579 C 323.216 -4.31579 -1.26727 0
M  V30 3580 C 324.535 -3.19422 -3.0275 0
M  V30 3581 H 321.654 -0.62301 -0.393735 0
M  V30 3582 H 324.296 -1.8645 -0.365563 0
M  V30 3583 H 322.446 -2.84629 -2.64421 0
M  V30 3584 H 324.118 -4.56284 -0.67845 0
M  V30 3585 H 322.361 -4.30049 -0.569273 0
M  V30 3586 H 323.032 -5.16106 -1.95803 0
M  V30 3587 H 325.508 -3.316 -2.51357 0
M  V30 3588 H 324.384 -4.09169 -3.65885 0
M  V30 3589 H 324.645 -2.35656 -3.74057 0
M  V30 3590 N 323.704 0.605807 -1.45491 0
M  V30 3591 C 324.952 1.36207 -1.49305 0
M  V30 3592 C 325.273 1.94519 -0.136863 0
M  V30 3593 O 324.543 1.77261 0.833983 0
M  V30 3594 H 323.123 0.50565 -0.549843 0
M  V30 3595 H 325.785 0.711239 -1.81459 0
M  V30 3596 H 324.881 2.18058 -2.23287 0
M  V30 3597 N 325.182 1.32811 0.848464 0
M  V30 3598 C 326.412 1.26556 1.63301 0
M  V30 3599 C 326.82 -0.1676 1.88456 0
M  V30 3600 O 326.163 -1.11713 1.45828 0
M  V30 3601 C 326.225 1.96202 3.01239 0
M  V30 3602 C 325.889 3.45528 2.99098 0
M  V30 3603 C 326.886 4.40903 2.75501 0
M  V30 3604 C 324.571 3.87558 3.19537 0
M  V30 3605 C 326.565 5.76282 2.72356 0
M  V30 3606 C 324.252 5.23044 3.16019 0
M  V30 3607 C 325.25 6.17217 2.92458 0
M  V30 3608 O 324.938 7.50223 2.88825 0
M  V30 3609 H 324.67 0.43771 0.515156 0
M  V30 3610 H 327.224 1.7559 1.0657 0
M  V30 3611 H 325.454 1.41746 3.59785 0
M  V30 3612 H 327.143 1.83573 3.62016 0
M  V30 3613 H 327.909 4.09756 2.5947 0
M  V30 3614 H 323.788 3.14674 3.369 0
M  V30 3615 H 327.332 6.4976 2.53886 0
M  V30 3616 H 323.229 5.53818 3.31596 0
M  V30 3617 H 323.997 7.59657 3.04735 0
M  V30 3618 N 326.66 -1.06551 1.16123 0
M  V30 3619 C 327.57 -2.17484 0.879662 0
M  V30 3620 C 328.586 -1.73377 -0.147104 0
M  V30 3621 O 329.762 -2.01379 0.0289128 0
M  V30 3622 C 326.827 -3.44591 0.381829 0
M  V30 3623 C 325.888 -4.0322 1.4735 0
M  V30 3624 C 325.121 -5.24261 0.999324 0
M  V30 3625 O 325.344 -5.70198 -0.151957 0
M  V30 3626 O 324.278 -5.74775 1.78653 0
M  V30 3627 H 328.104 -2.44075 1.80724 0
M  V30 3628 H 325.689 -1.16042 0.940992 0
M  V30 3629 H 327.571 -4.21254 0.111053 0
M  V30 3630 H 326.246 -3.19532 -0.51777 0
M  V30 3631 H 325.153 -3.2806 1.79798 0
M  V30 3632 H 326.486 -4.32568 2.34831 0
M  V30 3633 N 328.138 -0.959301 -1.25041 0
M  V30 3634 C 329.048 -0.489994 -2.29426 0
M  V30 3635 C 330.064 0.444944 -1.68215 0
M  V30 3636 O 331.24 0.320046 -1.98841 0
M  V30 3637 C 328.305 0.220309 -3.45999 0
M  V30 3638 C 327.366 -0.753418 -4.22637 0
M  V30 3639 C 326.599 -0.076918 -5.33645 0
M  V30 3640 O 326.822 1.13649 -5.58963 0
M  V30 3641 O 325.756 -0.764824 -5.97021 0
M  V30 3642 H 329.582 -1.35755 -2.71669 0
M  V30 3643 H 327.167 -0.725961 -1.30576 0
M  V30 3644 H 329.049 0.619677 -4.16819 0
M  V30 3645 H 327.724 1.06296 -3.0575 0
M  V30 3646 H 326.631 -1.20308 -3.54227 0
M  V30 3647 H 327.964 -1.56423 -4.66683 0
M  V30 3648 N 329.616 1.39756 -0.72842 0
M  V30 3649 C 330.862 2.00942 -0.273892 0
M  V30 3650 C 331.195 1.57656 1.13394 0
M  V30 3651 O 330.47 0.802434 1.77176 0
M  V30 3652 C 330.753 3.58211 -0.368346 0
M  V30 3653 C 330.606 4.11534 -1.81548 0
M  V30 3654 C 331.925 4.39372 0.253054 0
M  V30 3655 H 329.044 0.730047 -0.100996 0
M  V30 3656 H 331.686 1.66056 -0.923337 0
M  V30 3657 H 329.836 3.88061 0.184588 0
M  V30 3658 H 331.508 3.92431 -2.42478 0
M  V30 3659 H 329.751 3.65341 -2.33898 0
M  V30 3660 H 330.422 5.20682 -1.83288 0
M  V30 3661 H 332.898 4.15527 -0.218224 0
M  V30 3662 H 331.774 5.48677 0.156585 0
M  V30 3663 H 332.035 4.21358 1.33826 0
M  V30 3664 N 331.094 0.475555 1.50254 0
M  V30 3665 C 332.004 -0.321501 2.32387 0
M  V30 3666 C 333.02 -0.991755 1.42969 0
M  V30 3667 O 334.196 -0.978747 1.76018 0
M  V30 3668 C 331.261 -1.38667 3.17762 0
M  V30 3669 C 330.322 -0.732538 4.23004 0
M  V30 3670 C 329.555 -1.74695 5.04299 0
M  V30 3671 O 329.778 -2.97399 4.86734 0
M  V30 3672 O 328.712 -1.31631 5.8733 0
M  V30 3673 H 332.538 0.350071 3.01676 0
M  V30 3674 H 330.123 0.237321 1.47503 0
M  V30 3675 H 332.005 -2.00354 3.70724 0
M  V30 3676 H 330.68 -2.04163 2.51196 0
M  V30 3677 H 329.587 -0.0765902 3.74022 0
M  V30 3678 H 330.92 -0.120452 4.92053 0
M  V30 3679 N 332.573 -1.56217 0.208337 0
M  V30 3680 C 333.801 -2.02337 -0.43215 0
M  V30 3681 C 334.216 -1.08834 -1.54275 0
M  V30 3682 O 333.573 -0.0955462 -1.8225 0
M  V30 3683 C 333.624 -3.48072 -0.976138 0
M  V30 3684 O 333.345 -4.38007 0.0901621 0
M  V30 3685 C 334.846 -4.09773 -1.69119 0
M  V30 3686 H 332.066 -0.662385 -0.10718 0
M  V30 3687 H 334.61 -2.01966 0.320923 0
M  V30 3688 H 332.765 -3.49099 -1.67954 0
M  V30 3689 H 333.179 -5.23543 -0.316701 0
M  V30 3690 H 334.653 -5.13556 -2.02397 0
M  V30 3691 H 335.13 -3.53999 -2.59964 0
M  V30 3692 H 335.736 -4.12556 -1.03332 0
M  V30 3693 N 334.051 0.0651679 -1.57465 0
M  V30 3694 C 334.999 1.09542 -2.05191 0
M  V30 3695 C 335.993 1.39675 -0.958509 0
M  V30 3696 O 337.199 1.39003 -1.14359 0
M  V30 3697 H 333.574 0.370623 -0.654326 0
M  V30 3698 H 335.545 0.666802 -2.90854 0
M  V30 3699 C 334.294 2.39881 -2.51699 0
M  V30 3700 H 333.617 2.17547 -3.3543 0
M  V30 3701 H 335.057 3.104 -2.88839 0
M  V30 3702 C 333.516 3.0631 -1.40271 0
M  V30 3703 O 334.046 3.94664 -0.748523 0
M  V30 3704 N 332.252 2.67041 -1.14618 0
M  V30 3705 H 331.799 1.95281 -1.67997 0
M  V30 3706 H 331.757 3.1181 -0.402688 0
M  V30 3707 N 335.529 1.53961 0.336706 0
M  V30 3708 C 336.492 1.81724 1.39675 0
M  V30 3709 C 337.492 0.688532 1.45313 0
M  V30 3710 O 338.682 0.956829 1.45569 0
M  V30 3711 C 335.814 1.96543 2.78538 0
M  V30 3712 H 337.007 2.76424 1.16318 0
M  V30 3713 H 334.56 1.45478 0.571474 0
M  V30 3714 H 335.295 1.0401 3.07168 0
M  V30 3715 H 335.08 2.78665 2.75841 0
M  V30 3716 H 336.57 2.19516 3.5525 0
M  V30 3717 N 337.007 -0.598083 1.45811 0
M  V30 3718 C 338.423 -0.919847 1.30426 0
M  V30 3719 C 338.623 -1.99759 0.264303 0
M  V30 3720 O 337.679 -2.50221 -0.338472 0
M  V30 3721 C 338.992 -1.35176 2.68603 0
M  V30 3722 C 340.54 -1.46546 2.76574 0
M  V30 3723 C 341.015 -1.9311 4.15298 0
M  V30 3724 N 342.506 -2.00328 4.1764 0
M  V30 3725 C 343.241 -2.37599 5.21856 0
M  V30 3726 N 342.737 -2.73771 6.36413 0
M  V30 3727 N 344.53 -2.38021 5.09218 0
M  V30 3728 H 336.681 0.114111 2.12093 0
M  V30 3729 H 338.944 -0.0116121 0.947929 0
M  V30 3730 H 338.65 -0.633969 3.45939 0
M  V30 3731 H 338.524 -2.3164 2.97696 0
M  V30 3732 H 340.911 -2.17415 1.99537 0
M  V30 3733 H 340.992 -0.483727 2.51185 0
M  V30 3734 H 340.636 -1.22824 4.92825 0
M  V30 3735 H 340.566 -2.92213 4.38086 0
M  V30 3736 H 343.057 -1.74925 3.34977 0
M  V30 3737 H 343.37 -3.0112 7.11721 0
M  V30 3738 H 341.715 -2.71445 6.39799 0
M  V30 3739 H 344.906 -2.09174 4.18765 0
M  V30 3740 H 345.079 -2.66741 5.90554 0
M  V30 3741 N 338.485 -1.33259 -0.841409 0
M  V30 3742 C 339.733 -1.24326 -1.59334 0
M  V30 3743 C 340.054 0.191564 -1.94057 0
M  V30 3744 O 339.324 1.11967 -1.60749 0
M  V30 3745 H 337.904 -0.457174 -0.590763 0
M  V30 3746 H 340.566 -1.66947 -1.00571 0
M  V30 3747 H 339.662 -1.8352 -2.52442 0
M  V30 3748 N 339.963 1.05934 -1.16686 0
M  V30 3749 C 341.379 1.30938 -0.912542 0
M  V30 3750 C 341.579 1.96803 0.432533 0
M  V30 3751 O 340.635 2.23693 1.17123 0
M  V30 3752 C 341.948 2.18649 -2.06429 0
M  V30 3753 C 343.496 2.32055 -2.10047 0
M  V30 3754 C 343.971 3.23122 -3.24586 0
M  V30 3755 N 345.462 3.30706 -3.24327 0
M  V30 3756 C 346.197 4.01273 -4.09594 0
M  V30 3757 N 345.693 4.74332 -5.04956 0
M  V30 3758 N 347.486 3.97361 -3.97569 0
M  V30 3759 H 339.637 0.615777 -2.03278 0
M  V30 3760 H 341.9 0.334077 -0.887185 0
M  V30 3761 H 341.606 1.77534 -3.03603 0
M  V30 3762 H 341.48 3.19252 -2.00894 0
M  V30 3763 H 343.867 2.72415 -1.13464 0
M  V30 3764 H 343.948 1.31107 -2.19647 0
M  V30 3765 H 343.592 2.83477 -4.2143 0
M  V30 3766 H 343.522 4.24057 -3.12223 0
M  V30 3767 H 346.013 2.78644 -2.55276 0
M  V30 3768 H 346.326 5.25716 -5.6643 0
M  V30 3769 H 344.671 4.733 -5.08933 0
M  V30 3770 H 347.862 3.39405 -3.22369 0
M  V30 3771 H 348.035 4.52089 -4.64241 0
M  V30 3772 N 341.441 0.965919 1.2453 0
M  V30 3773 C 342.687 0.62776 1.92839 0
M  V30 3774 C 343.02 -0.834694 1.75347 0
M  V30 3775 O 342.295 -1.60031 1.10546 0
M  V30 3776 C 342.578 1.00109 3.45905 0
M  V30 3777 C 342.431 2.52011 3.72573 0
M  V30 3778 C 343.75 0.53435 4.36844 0
M  V30 3779 H 340.869 0.229537 0.700344 0
M  V30 3780 H 343.511 1.2046 1.46933 0
M  V30 3781 H 341.661 0.510238 3.85135 0
M  V30 3782 H 343.333 3.08559 3.42912 0
M  V30 3783 H 341.576 2.95287 3.17786 0
M  V30 3784 H 342.247 2.73183 4.79661 0
M  V30 3785 H 344.723 0.955565 4.04979 0
M  V30 3786 H 343.599 0.824152 5.42678 0
M  V30 3787 H 343.86 -0.565589 4.38467 0
M  V30 3788 N 342.919 -1.39368 0.735821 0
M  V30 3789 C 343.849 -2.33234 0.111506 0
M  V30 3790 C 344.83 -1.53954 -0.723334 0
M  V30 3791 O 346.015 -1.82344 -0.668147 0
M  V30 3792 C 343.145 -3.38057 -0.795917 0
M  V30 3793 C 342.099 -4.2795 -0.065172 0
M  V30 3794 C 341.425 -5.23479 -1.08967 0
M  V30 3795 C 342.725 -5.10741 1.09273 0
M  V30 3796 H 344.419 -2.85692 0.895571 0
M  V30 3797 H 341.965 -1.37364 0.432109 0
M  V30 3798 H 343.918 -4.02675 -1.24221 0
M  V30 3799 H 342.642 -2.8404 -1.61211 0
M  V30 3800 H 341.301 -3.64813 0.361511 0
M  V30 3801 H 340.949 -4.65758 -1.89944 0
M  V30 3802 H 340.649 -5.84472 -0.605489 0
M  V30 3803 H 342.173 -5.90974 -1.53565 0
M  V30 3804 H 343.587 -5.68699 0.724841 0
M  V30 3805 H 341.984 -5.8088 1.50659 0
M  V30 3806 H 343.054 -4.45525 1.91404 0
M  V30 3807 N 344.397 -0.483516 -1.5 0
M  V30 3808 C 345.813 -0.138404 -1.58999 0
M  V30 3809 C 346.013 1.35597 -1.4905 0
M  V30 3810 O 345.069 2.13039 -1.35539 0
M  V30 3811 C 346.382 -0.699658 -2.92447 0
M  V30 3812 C 347.93 -0.664195 -3.05872 0
M  V30 3813 C 348.405 -1.20321 -4.41913 0
M  V30 3814 N 349.896 -1.16315 -4.48358 0
M  V30 3815 C 350.631 -1.55058 -5.52037 0
M  V30 3816 N 350.127 -2.01311 -6.62907 0
M  V30 3817 N 351.92 -1.46584 -5.42651 0
M  V30 3818 H 344.071 -1.45529 -1.5471 0
M  V30 3819 H 346.334 -0.60258 -0.731848 0
M  V30 3820 H 346.04 -1.747 -3.05242 0
M  V30 3821 H 345.914 -0.150194 -3.76901 0
M  V30 3822 H 348.301 0.374272 -2.92717 0
M  V30 3823 H 348.382 -1.25061 -2.23144 0
M  V30 3824 H 348.026 -2.24037 -4.55818 0
M  V30 3825 H 347.956 -0.592896 -5.23252 0
M  V30 3826 H 350.447 -0.824058 -3.68806 0
M  V30 3827 H 350.76 -2.2899 -7.38095 0
M  V30 3828 H 349.105 -2.05273 -6.63994 0
M  V30 3829 H 352.296 -1.10281 -4.54924 0
M  V30 3830 H 352.469 -1.77103 -6.23329 0
M  V30 3831 N 345.875 1.56104 -0.216619 0
M  V30 3832 C 347.121 1.98466 0.417033 0
M  V30 3833 C 347.454 1.10403 1.59765 0
M  V30 3834 O 346.729 0.160632 1.93836 0
M  V30 3835 C 347.012 3.49769 0.85637 0
M  V30 3836 C 346.865 4.48606 -0.327546 0
M  V30 3837 C 348.184 4.05339 1.7143 0
M  V30 3838 H 345.303 0.721551 0.150112 0
M  V30 3839 H 347.945 1.87423 -0.311864 0
M  V30 3840 H 346.095 3.5931 1.47745 0
M  V30 3841 H 347.767 4.5108 -0.965618 0
M  V30 3842 H 346.01 4.22682 -0.975805 0
M  V30 3843 H 346.681 5.51995 0.0227149 0
M  V30 3844 H 349.157 3.98712 1.19031 0
M  V30 3845 H 348.033 5.11533 1.99061 0
M  V30 3846 H 348.294 3.51918 2.67593 0
M  V30 3847 N 347.353 -0.0568162 1.57498 0
M  V30 3848 C 348.283 -1.06593 2.0775 0
M  V30 3849 C 349.264 -1.39448 0.974082 0
M  V30 3850 O 350.449 -1.48815 1.24771 0
M  V30 3851 C 347.579 -2.37509 2.5339 0
M  V30 3852 C 346.533 -2.1897 3.67745 0
M  V30 3853 C 345.859 -3.55402 3.99492 0
M  V30 3854 C 347.159 -1.59859 4.97235 0
M  V30 3855 H 348.853 -0.647706 2.9231 0
M  V30 3856 H 346.399 -0.310116 1.40621 0
M  V30 3857 H 348.352 -3.08409 2.87162 0
M  V30 3858 H 347.076 -2.8134 1.65878 0
M  V30 3859 H 345.735 -1.50508 3.3428 0
M  V30 3860 H 345.383 -3.9683 3.09088 0
M  V30 3861 H 345.083 -3.43831 4.76502 0
M  V30 3862 H 346.607 -4.27708 4.35773 0
M  V30 3863 H 348.021 -2.20642 5.29141 0
M  V30 3864 H 346.418 -1.58942 5.78669 0
M  V30 3865 H 347.488 -0.561506 4.81638 0
M  V30 3866 N 348.832 -1.54138 -0.328536 0
M  V30 3867 C 349.779 -1.83176 -1.40411 0
M  V30 3868 C 350.749 -0.678494 -1.5161 0
M  V30 3869 O 351.934 -0.92443 -1.6691 0
M  V30 3870 C 349.074 -2.06035 -2.76846 0
M  V30 3871 C 348.187 -3.33727 -2.74318 0
M  V30 3872 C 347.322 -3.46574 -4.02567 0
M  V30 3873 C 346.361 -4.68159 -3.94327 0
M  V30 3874 N 345.498 -4.77959 -5.14296 0
M  V30 3875 H 350.338 -2.74938 -1.14948 0
M  V30 3876 H 347.875 -1.36166 -0.556538 0
M  V30 3877 H 349.833 -2.1728 -3.56153 0
M  V30 3878 H 348.463 -1.1757 -3.00628 0
M  V30 3879 H 347.515 -3.31246 -1.8703 0
M  V30 3880 H 348.827 -4.23139 -2.64111 0
M  V30 3881 H 347.981 -3.57333 -4.90304 0
M  V30 3882 H 346.72 -2.55245 -4.15574 0
M  V30 3883 H 345.725 -4.57461 -3.04974 0
M  V30 3884 H 346.95 -5.60868 -3.82889 0
M  V30 3885 H 344.896 -3.89544 -5.27818 0
M  V30 3886 H 344.813 -5.6133 -5.06404 0
M  V30 3887 H 346.081 -4.93044 -6.03761 0
M  V30 3888 N 350.31 0.590341 -1.46126 0
M  V30 3889 C 351.726 0.912917 -1.30912 0
M  V30 3890 C 351.926 1.99616 -0.274893 0
M  V30 3891 O 350.982 2.50397 0.325197 0
M  V30 3892 C 352.295 1.3375 -2.69317 0
M  V30 3893 C 353.843 1.45077 -2.77348 0
M  V30 3894 C 354.318 1.90904 -4.16317 0
M  V30 3895 N 355.809 1.9811 -4.18696 0
M  V30 3896 C 356.544 2.34828 -5.23109 0
M  V30 3897 N 356.04 2.70393 -6.37856 0
M  V30 3898 N 357.833 2.35317 -5.10473 0
M  V30 3899 H 349.984 -0.125358 -2.1203 0
M  V30 3900 H 352.247 0.00658481 -0.947977 0
M  V30 3901 H 351.953 0.615614 -3.4627 0
M  V30 3902 H 351.827 2.30058 -2.9892 0
M  V30 3903 H 354.214 2.16353 -2.00687 0
M  V30 3904 H 354.295 0.4704 -2.51438 0
M  V30 3905 H 353.939 1.20209 -4.9347 0
M  V30 3906 H 353.869 2.89886 -4.39629 0
M  V30 3907 H 356.36 1.73146 -3.359 0
M  V30 3908 H 356.673 2.97341 -7.13308 0
M  V30 3909 H 355.018 2.68048 -6.41229 0
M  V30 3910 H 358.209 2.0695 -4.19868 0
M  V30 3911 H 358.382 2.63605 -5.9196 0
M  V30 3912 N 351.788 1.33704 0.83433 0
M  V30 3913 C 353.016 1.28467 1.62185 0
M  V30 3914 C 353.431 -0.143526 1.88254 0
M  V30 3915 O 352.788 -1.08709 1.4659 0
M  V30 3916 C 352.839 2.06174 2.96942 0
M  V30 3917 O 352.56 3.43422 2.72016 0
M  V30 3918 C 354.061 2.08201 3.91366 0
M  V30 3919 H 351.281 0.4424 0.504503 0
M  V30 3920 H 353.825 1.76145 1.03891 0
M  V30 3921 H 351.98 1.62167 3.51825 0
M  V30 3922 H 352.394 3.83453 3.57861 0
M  V30 3923 H 353.868 2.67017 4.83121 0
M  V30 3924 H 354.345 1.07343 4.2588 0
M  V30 3925 H 354.951 2.52246 3.42421 0
M  V30 3926 N 353.266 -1.05314 1.17247 0
M  V30 3927 C 354.543 -1.75184 0.87005 0
M  V30 3928 C 354.923 -2.01481 -0.629965 0
M  V30 3929 O 354.271 -1.64988 -1.58086 0
M  V30 3930 C 354.481 -3.04594 1.70363 0
M  V30 3931 C 355.829 -3.78567 1.92281 0
M  V30 3932 O 356.853 -3.14461 1.67311 0
M  V30 3933 O 355.712 -4.93755 2.3424 0
M  V30 3934 H 352.806 -0.761729 0.322021 0
M  V30 3935 H 355.352 -1.11493 1.27935 0
M  V30 3936 H 354.124 -2.81201 2.72106 0
M  V30 3937 H 353.747 -3.76022 1.29202 0
M  V30 3938 N 354.744 -0.972509 -1.24016 0
M  V30 3939 C 356.155 -0.67517 -1.74064 0
M  V30 3940 C 356.506 0.808939 -1.78747 0
M  V30 3941 O 355.631 1.63286 -1.42009 0
M  V30 3942 C 356.226 -1.21889 -3.16115 0
M  V30 3943 C 354.785 -0.971358 -3.6365 0
M  V30 3944 C 353.932 -1.35134 -2.42145 0
M  V30 3945 H 356.883 -1.14727 -1.09651 0
M  V30 3946 H 356.904 -0.587489 -3.75937 0
M  V30 3947 H 356.416 -2.29906 -3.12674 0
M  V30 3948 H 354.517 0.0930686 -3.72484 0
M  V30 3949 H 354.63 -1.62039 -4.50866 0
M  V30 3950 H 352.994 -0.769751 -2.4279 0
M  V30 3951 H 353.777 -2.4411 -2.41381 0
M  V30 3952 N 356.222 1.38976 -0.743202 0
M  V30 3953 C 357.471 1.99581 -0.291592 0
M  V30 3954 C 357.784 1.59656 1.13001 0
M  V30 3955 O 358.99 2.13157 1.68156 0
M  V30 3956 C 357.446 3.56813 -0.470391 0
M  V30 3957 C 357.054 4.05695 -1.90041 0
M  V30 3958 C 358.798 4.24423 -0.0809709 0
M  V30 3959 C 356.705 5.5553 -2.02832 0
M  V30 3960 H 355.635 0.746615 -0.105272 0
M  V30 3961 H 358.286 1.58872 -0.918258 0
M  V30 3962 H 356.668 3.95359 0.225299 0
M  V30 3963 H 357.842 3.78464 -2.62872 0
M  V30 3964 H 356.157 3.50775 -2.24379 0
M  V30 3965 H 358.754 5.34474 -0.155445 0
M  V30 3966 H 359.097 4.04962 0.96497 0
M  V30 3967 H 359.63 3.9108 -0.728124 0
M  V30 3968 H 356.369 5.79881 -3.05643 0
M  V30 3969 H 355.889 5.84537 -1.34448 0
M  V30 3970 H 357.568 6.21069 -1.81335 0
M  V30 3971 N 357.7 0.491464 1.49741 0
M  V30 3972 C 359.111 0.0413169 1.86654 0
M  V30 3973 C 359.462 -1.36985 1.40462 0
M  V30 3974 O 358.587 -2.01917 0.778354 0
M  V30 3975 C 359.182 0.0682023 3.38731 0
M  V30 3976 C 357.741 -0.32656 3.74981 0
M  V30 3977 C 356.888 0.444888 2.73708 0
M  V30 3978 H 359.839 0.704733 1.42194 0
M  V30 3979 H 359.86 -0.729322 3.73445 0
M  V30 3980 H 359.372 1.09539 3.72321 0
M  V30 3981 H 357.473 -1.35734 3.46997 0
M  V30 3982 H 357.586 -0.013741 4.79098 0
M  V30 3983 H 355.95 -0.104062 2.54487 0
M  V30 3984 H 356.733 1.47197 3.10142 0
M  V30 3985 N 359.178 -1.55987 0.224894 0
M  V30 3986 C 360.426 -1.97998 -0.405099 0
M  V30 3987 C 360.747 -1.11387 -1.60056 0
M  V30 3988 O 360.017 -0.191645 -1.9496 0
M  V30 3989 H 358.597 -0.731235 -0.152658 0
M  V30 3990 H 361.259 -1.92279 0.318567 0
M  V30 3991 H 360.355 -3.03463 -0.729167 0
M  V30 3992 N 360.656 0.0484629 -1.57525 0
M  V30 3993 C 361.603 1.05504 -2.05275 0
M  V30 3994 C 362.573 1.37084 -0.937927 0
M  V30 3995 O 363.758 1.47754 -1.2072 0
M  V30 3996 C 360.898 2.35676 -2.52093 0
M  V30 3997 C 360.011 2.10423 -3.77288 0
M  V30 3998 C 359.146 3.34327 -4.12794 0
M  V30 3999 C 358.185 3.04542 -5.30962 0
M  V30 4000 N 357.322 4.20841 -5.61994 0
M  V30 4001 H 362.162 0.640885 -2.91027 0
M  V30 4002 H 359.699 0.304854 -1.43906 0
M  V30 4003 H 361.657 3.11709 -2.77297 0
M  V30 4004 H 360.287 2.7485 -1.69285 0
M  V30 4005 H 359.339 1.24976 -3.59284 0
M  V30 4006 H 360.651 1.84438 -4.63448 0
M  V30 4007 H 359.805 4.1874 -4.39024 0
M  V30 4008 H 358.544 3.63408 -3.25247 0
M  V30 4009 H 357.549 2.18528 -5.04505 0
M  V30 4010 H 358.774 2.76758 -6.20146 0
M  V30 4011 H 356.72 4.4991 -4.77406 0
M  V30 4012 H 356.637 3.98212 -6.42622 0
M  V30 4013 H 357.905 5.06184 -5.92789 0
M  V30 4014 N 362.134 1.5431 0.320358 0
M  V30 4015 C 363.411 1.63322 1.07635 0
M  V30 4016 C 363.791 0.46912 2.05821 0
M  V30 4017 O 363.139 -0.536274 2.22118 0
M  V30 4018 C 363.349 3.00465 1.77544 0
M  V30 4019 C 364.697 3.56621 2.30449 0
M  V30 4020 O 365.721 3.02791 1.87606 0
M  V30 4021 O 364.58 4.5083 3.08892 0
M  V30 4022 H 361.674 0.661502 0.496331 0
M  V30 4023 H 364.22 1.66656 0.319992 0
M  V30 4024 H 362.992 3.76629 1.06143 0
M  V30 4025 H 362.615 3.00824 2.59982 0
M  V30 4026 N 363.613 -0.582584 1.46437 0
M  V30 4027 C 364.862 -1.337 1.5102 0
M  V30 4028 C 365.175 -1.94891 0.166359 0
M  V30 4029 O 366.381 -2.71351 0.0899954 0
M  V30 4030 C 364.837 -2.42315 2.66104 0
M  V30 4031 C 364.445 -1.87427 4.06909 0
M  V30 4032 C 366.189 -3.19099 2.79958 0
M  V30 4033 C 364.096 -2.93672 5.13333 0
M  V30 4034 H 363.026 -0.502619 0.562041 0
M  V30 4035 H 365.677 -0.621701 1.72647 0
M  V30 4036 H 364.059 -3.16645 2.37807 0
M  V30 4037 H 365.233 -1.19639 4.44998 0
M  V30 4038 H 363.548 -1.2331 3.97723 0
M  V30 4039 H 366.145 -3.9839 3.56636 0
M  V30 4040 H 366.488 -3.71695 1.87479 0
M  V30 4041 H 367.021 -2.51875 3.07902 0
M  V30 4042 H 363.76 -2.45962 6.07604 0
M  V30 4043 H 363.28 -3.59948 4.79789 0
M  V30 4044 H 364.959 -3.5762 5.39182 0
M  V30 4045 N 365.091 -1.34144 -0.827227 0
M  V30 4046 C 366.337 -1.26446 -1.58554 0
M  V30 4047 C 366.67 0.1664 -1.93486 0
M  V30 4048 O 365.945 1.1107 -1.59667 0
M  V30 4049 C 366.228 -2.15111 -2.8879 0
M  V30 4050 C 366.081 -3.66712 -2.60465 0
M  V30 4051 C 367.4 -2.03311 -3.90324 0
M  V30 4052 H 364.519 -0.46067 -0.575284 0
M  V30 4053 H 367.161 -1.64356 -0.953269 0
M  V30 4054 H 365.311 -1.8291 -3.42748 0
M  V30 4055 H 366.983 -4.09259 -2.1285 0
M  V30 4056 H 365.226 -3.88014 -1.93978 0
M  V30 4057 H 365.897 -4.24112 -3.53317 0
M  V30 4058 H 368.373 -2.31574 -3.45706 0
M  V30 4059 H 367.249 -2.67582 -4.79261 0
M  V30 4060 H 367.51 -1.00879 -4.30437 0
M  V30 4061 N 366.569 1.04691 -1.17803 0
M  V30 4062 C 367.499 2.14494 -0.92275 0
M  V30 4063 C 368.48 1.69546 0.137179 0
M  V30 4064 O 369.665 1.94195 -0.0141108 0
M  V30 4065 C 366.795 3.44491 -0.440803 0
M  V30 4066 C 365.749 4.03031 -1.4405 0
M  V30 4067 C 365.075 5.28432 -0.81631 0
M  V30 4068 C 366.375 4.39932 -2.81527 0
M  V30 4069 H 368.069 2.36107 -1.84103 0
M  V30 4070 H 365.615 1.1347 -0.886599 0
M  V30 4071 H 367.568 4.2066 -0.249602 0
M  V30 4072 H 366.292 3.22546 0.513025 0
M  V30 4073 H 364.951 3.28937 -1.61853 0
M  V30 4074 H 364.599 5.02792 0.144511 0
M  V30 4075 H 364.299 5.68559 -1.48371 0
M  V30 4076 H 365.823 6.07284 -0.635496 0
M  V30 4077 H 367.237 5.07113 -2.67412 0
M  V30 4078 H 365.634 4.9109 -3.44892 0
M  V30 4079 H 366.704 3.50045 -3.35554 0
M  V30 4080 N 368.047 0.979072 1.23499 0
M  V30 4081 C 369.272 0.664845 1.96455 0
M  V30 4082 C 369.697 -0.761287 1.72006 0
M  V30 4083 O 369.055 -1.51837 0.990713 0
M  V30 4084 C 369.103 0.959479 3.47601 0
M  V30 4085 O 368.207 0.0508168 4.12369 0
M  V30 4086 H 367.548 0.250185 0.615064 0
M  V30 4087 H 370.078 1.31231 1.5697 0
M  V30 4088 H 370.088 0.895642 3.98048 0
M  V30 4089 H 368.763 1.99876 3.64723 0
M  V30 4090 H 367.34 0.16895 3.72517 0
M  V30 4091 N 369.525 -1.3858 0.750561 0
M  V30 4092 C 370.774 -1.99424 0.302172 0
M  V30 4093 C 371.087 -1.60254 -1.12152 0
M  V30 4094 O 372.293 -2.14046 -1.67023 0
M  V30 4095 C 370.749 -3.56558 0.489307 0
M  V30 4096 C 370.357 -4.04682 1.92189 0
M  V30 4097 C 372.101 -4.24374 0.103478 0
M  V30 4098 C 370.008 -5.54446 2.05775 0
M  V30 4099 H 368.938 -0.746046 0.10923 0
M  V30 4100 H 371.589 -1.58383 0.92667 0
M  V30 4101 H 369.971 -3.95472 -0.204329 0
M  V30 4102 H 371.145 -3.77065 2.64875 0
M  V30 4103 H 369.46 -3.4958 2.26236 0
M  V30 4104 H 372.057 -5.34384 0.183787 0
M  V30 4105 H 372.4 -4.05468 -0.943481 0
M  V30 4106 H 372.933 -3.90688 0.748854 0
M  V30 4107 H 369.672 -5.78252 3.08714 0
M  V30 4108 H 369.192 -5.83816 1.37546 0
M  V30 4109 H 370.871 -6.20099 1.84626 0
M  V30 4110 N 371.003 -0.499398 -1.49478 0
M  V30 4111 C 372.28 0.108629 -1.95298 0
M  V30 4112 C 372.66 1.54282 -1.44084 0
M  V30 4113 O 372.008 2.18944 -0.653908 0
M  V30 4114 C 372.218 0.0229111 -3.48992 0
M  V30 4115 C 373.566 0.197643 -4.2414 0
M  V30 4116 O 374.59 0.0981735 -3.56065 0
M  V30 4117 O 373.449 0.401669 -5.45022 0
M  V30 4118 H 370.543 0.096181 -0.821388 0
M  V30 4119 H 373.089 -0.561822 -1.6013 0
M  V30 4120 H 371.861 -0.977321 -3.78899 0
M  V30 4121 H 371.484 0.733579 -3.90774 0
M  V30 4122 N 372.481 1.55866 -0.233164 0
M  V30 4123 C 373.706 2.03449 0.402906 0
M  V30 4124 C 374.131 1.11166 1.51736 0
M  V30 4125 O 373.489 0.101996 1.81013 0
M  V30 4126 C 373.537 3.49165 0.9009 0
M  V30 4127 O 372.641 3.60019 2.01147 0
M  V30 4128 H 371.982 0.657913 0.0897025 0
M  V30 4129 H 374.512 2.01493 -0.355201 0
M  V30 4130 H 374.522 3.89716 1.2077 0
M  V30 4131 H 373.197 4.15813 0.0852889 0
M  V30 4132 H 371.774 3.3136 1.71042 0
M  V30 4133 N 373.959 -0.0401083 1.57549 0
M  V30 4134 C 375.375 -0.395556 1.54621 0
M  V30 4135 C 375.575 -1.77281 0.957799 0
M  V30 4136 O 374.631 -2.45888 0.574031 0
M  V30 4137 C 375.944 -0.307535 2.99123 0
M  V30 4138 C 377.492 -0.385425 3.10618 0
M  V30 4139 C 377.967 -0.326973 4.56831 0
M  V30 4140 N 379.458 -0.386102 4.61588 0
M  V30 4141 C 380.193 -0.363591 5.72246 0
M  V30 4142 N 379.689 -0.29402 6.92176 0
M  V30 4143 N 381.482 -0.412503 5.60584 0
M  V30 4144 H 373.633 0.861325 1.94152 0
M  V30 4145 H 375.896 0.326445 0.890021 0
M  V30 4146 H 375.602 0.638461 3.45856 0
M  V30 4147 H 375.476 -1.10552 3.60636 0
M  V30 4148 H 377.863 -1.32185 2.63839 0
M  V30 4149 H 377.944 0.44171 2.51957 0
M  V30 4150 H 377.588 0.605738 5.04275 0
M  V30 4151 H 377.518 -1.17207 5.13391 0
M  V30 4152 H 380.009 -0.442832 3.75296 0
M  V30 4153 H 380.322 -0.28164 7.72287 0
M  V30 4154 H 378.667 -0.260232 6.94513 0
M  V30 4155 H 381.858 -0.464769 4.65787 0
M  V30 4156 H 382.031 -0.391492 6.46816 0
M  V30 4157 N 375.437 -1.54477 -0.31217 0
M  V30 4158 C 376.367 -1.87652 -1.38957 0
M  V30 4159 C 377.348 -0.734358 -1.53431 0
M  V30 4160 O 378.533 -0.98911 -1.67123 0
M  V30 4161 C 375.663 -2.11396 -2.75552 0
M  V30 4162 C 374.617 -3.27243 -2.75855 0
M  V30 4163 C 373.943 -3.36382 -4.15633 0
M  V30 4164 C 375.243 -4.64622 -2.38587 0
M  V30 4165 H 376.937 -2.77887 -1.11442 0
M  V30 4166 H 374.483 -1.33707 -0.534655 0
M  V30 4167 H 376.436 -2.33189 -3.51 0
M  V30 4168 H 375.16 -1.17921 -3.04569 0
M  V30 4169 H 373.819 -3.05356 -2.02863 0
M  V30 4170 H 373.467 -2.40445 -4.41809 0
M  V30 4171 H 373.167 -4.14249 -4.1674 0
M  V30 4172 H 374.691 -3.60422 -4.92877 0
M  V30 4173 H 376.105 -4.86219 -3.03749 0
M  V30 4174 H 374.502 -5.45121 -2.50925 0
M  V30 4175 H 375.572 -4.66097 -1.33723 0
M  V30 4176 N 376.915 0.57481 -1.46744 0
M  V30 4177 C 377.847 1.69804 -1.53946 0
M  V30 4178 C 378.86 1.57098 -0.427106 0
M  V30 4179 O 380.049 1.64378 -0.695863 0
M  V30 4180 C 377.149 3.08125 -1.4111 0
M  V30 4181 C 376.322 3.46757 -2.66605 0
M  V30 4182 C 375.381 4.6417 -2.47855 0
M  V30 4183 O 374.407 4.69634 -3.21609 0
M  V30 4184 N 375.609 5.59553 -1.54534 0
M  V30 4185 H 378.374 1.64077 -2.50796 0
M  V30 4186 H 375.935 0.761 -1.429 0
M  V30 4187 H 377.927 3.84478 -1.26328 0
M  V30 4188 H 376.497 3.08175 -0.524109 0
M  V30 4189 H 375.717 2.6003 -2.96274 0
M  V30 4190 H 377.005 3.69337 -3.49954 0
M  V30 4191 H 376.403 5.57881 -0.937304 0
M  V30 4192 H 374.96 6.35304 -1.45711 0
M  V30 4193 N 378.394 1.34581 0.820102 0
M  V30 4194 C 379.304 1.28471 1.96297 0
M  V30 4195 C 380.32 0.191902 1.72939 0
M  V30 4196 O 381.496 0.418879 1.96996 0
M  V30 4197 C 378.561 1.04281 3.30645 0
M  V30 4198 C 377.622 2.22745 3.66992 0
M  V30 4199 C 376.855 1.997 4.9493 0
M  V30 4200 O 377.078 0.956656 5.6232 0
M  V30 4201 O 376.012 2.86723 5.2922 0
M  V30 4202 H 379.838 2.24624 2.04396 0
M  V30 4203 H 377.423 1.14816 0.955913 0
M  V30 4204 H 379.305 0.925841 4.11104 0
M  V30 4205 H 377.98 0.111697 3.23507 0
M  V30 4206 H 376.887 2.40003 2.86966 0
M  V30 4207 H 378.22 3.14257 3.78819 0
M  V30 4208 N 379.872 -1.04064 1.18357 0
M  V30 4209 C 380.835 -2.10243 0.912707 0
M  V30 4210 C 381.835 -1.60477 -0.101928 0
M  V30 4211 O 383.025 -1.73703 0.131517 0
M  V30 4212 C 380.157 -3.38893 0.369387 0
M  V30 4213 H 381.35 -2.35706 1.85426 0
M  V30 4214 H 378.903 -1.20489 0.995594 0
M  V30 4215 H 379.638 -3.19094 -0.578776 0
M  V30 4216 H 379.423 -3.76331 1.1008 0
M  V30 4217 H 380.913 -4.17128 0.198575 0
M  V30 4218 N 381.35 -0.985608 -1.22978 0
M  V30 4219 C 382.313 -0.535071 -2.22867 0
M  V30 4220 C 383.313 0.378123 -1.56291 0
M  V30 4221 O 384.503 0.171092 -1.73358 0
M  V30 4222 C 381.635 0.222702 -3.40172 0
M  V30 4223 H 382.828 -1.41835 -2.6424 0
M  V30 4224 H 380.381 -0.772042 -1.35901 0
M  V30 4225 H 381.116 1.12229 -3.04262 0
M  V30 4226 H 380.901 -0.43288 -3.89703 0
M  V30 4227 H 382.391 0.526335 -4.1427 0
M  V30 4228 N 382.828 1.3818 -0.7579 0
M  V30 4229 C 383.738 2.3421 -0.135247 0
M  V30 4230 C 384.754 1.59487 0.695683 0
M  V30 4231 O 385.93 1.91657 0.618832 0
M  V30 4232 C 382.995 3.3862 0.744139 0
M  V30 4233 C 382.056 4.2918 -0.101658 0
M  V30 4234 C 381.289 5.28603 0.735851 0
M  V30 4235 O 381.512 5.35166 1.97366 0
M  V30 4236 O 380.446 6.01707 0.152372 0
M  V30 4237 H 384.272 2.8916 -0.928436 0
M  V30 4238 H 381.857 1.40101 -0.518855 0
M  V30 4239 H 383.739 4.02539 1.2466 0
M  V30 4240 H 382.414 2.86019 1.51575 0
M  V30 4241 H 381.321 3.68407 -0.650167 0
M  V30 4242 H 382.654 4.85048 -0.836024 0
M  V30 4243 N 384.306 0.507319 1.49211 0
M  V30 4244 C 385.254 -0.281364 2.30892 0
M  V30 4245 C 386.248 -0.95687 1.39787 0
M  V30 4246 O 387.454 -0.883838 1.56807 0
M  V30 4247 H 383.829 -0.109597 0.743971 0
M  V30 4248 H 385.8 0.42744 2.95323 0
M  V30 4249 C 384.549 -1.32918 3.21291 0
M  V30 4250 H 383.872 -0.818799 3.91326 0
M  V30 4251 H 385.312 -1.85288 3.81372 0
M  V30 4252 C 383.771 -2.35074 2.41333 0
M  V30 4253 O 384.301 -3.4108 2.12197 0
M  V30 4254 N 382.507 -2.07705 2.03241 0
M  V30 4255 H 382.054 -1.2152 2.27136 0
M  V30 4256 H 382.012 -2.76283 1.50051 0
M  V30 4257 N 385.784 -1.5574 0.241426 0
M  V30 4258 C 386.747 -2.19877 -0.647063 0
M  V30 4259 C 387.747 -1.16642 -1.10686 0
M  V30 4260 O 388.937 -1.41757 -1.01245 0
M  V30 4261 C 386.069 -2.83797 -1.88871 0
M  V30 4262 H 387.262 -2.99772 -0.087574 0
M  V30 4263 H 384.815 -1.56298 -0.00813574 0
M  V30 4264 H 385.55 -2.07824 -2.48957 0
M  V30 4265 H 385.335 -3.59414 -1.56728 0
M  V30 4266 H 386.825 -3.32898 -2.52129 0
M  V30 4267 N 387.262 0.0317525 -1.57568 0
M  V30 4268 C 388.192 1.03274 -2.0942 0
M  V30 4269 C 389.173 1.3788 -0.996143 0
M  V30 4270 O 390.358 1.46811 -1.27122 0
M  V30 4271 C 387.488 2.33448 -2.57137 0
M  V30 4272 C 386.442 2.13091 -3.71182 0
M  V30 4273 C 385.768 3.49001 -4.05095 0
M  V30 4274 C 387.068 1.51928 -4.99715 0
M  V30 4275 H 388.762 0.60112 -2.93303 0
M  V30 4276 H 386.308 0.287705 -1.41097 0
M  V30 4277 H 388.261 3.03802 -2.92032 0
M  V30 4278 H 386.985 2.78665 -1.70333 0
M  V30 4279 H 385.644 1.45171 -3.36632 0
M  V30 4280 H 385.292 3.91862 -3.15362 0
M  V30 4281 H 384.992 3.36207 -4.81911 0
M  V30 4282 H 386.516 4.20721 -4.42522 0
M  V30 4283 H 387.93 2.12196 -5.32584 0
M  V30 4284 H 386.327 1.49716 -5.81124 0
M  V30 4285 H 387.397 0.484811 -4.8247 0
M  V30 4286 N 388.74 1.54641 0.303973 0
M  V30 4287 C 389.703 1.84646 1.35789 0
M  V30 4288 C 390.703 0.7192 1.4382 0
M  V30 4289 O 391.893 0.987491 1.43507 0
M  V30 4290 C 389.025 2.02407 2.74307 0
M  V30 4291 H 390.218 2.78829 1.10429 0
M  V30 4292 H 387.771 1.46658 0.540487 0
M  V30 4293 H 388.506 1.10502 3.04893 0
M  V30 4294 H 388.291 2.84453 2.69868 0
M  V30 4295 H 389.781 2.27002 3.50514 0
M  V30 4296 N 390.218 -0.567019 1.47046 0
M  V30 4297 C 391.466 -1.322 1.52864 0
M  V30 4298 C 391.787 -1.94088 0.188388 0
M  V30 4299 O 391.057 -1.7941 -0.786693 0
M  V30 4300 H 389.637 -0.490894 0.563056 0
M  V30 4301 H 392.299 -0.662879 1.83281 0
M  V30 4302 H 391.395 -2.12062 2.2899 0
M  V30 4303 N 391.696 -1.35014 -0.812953 0
M  V30 4304 C 393.112 -1.14914 -1.10757 0
M  V30 4305 C 393.312 0.0426818 -2.01455 0
M  V30 4306 O 392.368 0.715212 -2.42159 0
M  V30 4307 C 393.681 -2.44911 -1.74468 0
M  V30 4308 C 395.229 -2.5106 -1.86917 0
M  V30 4309 C 395.704 -3.81085 -2.54044 0
M  V30 4310 N 397.195 -3.82301 -2.61535 0
M  V30 4311 C 397.93 -4.79634 -3.14227 0
M  V30 4312 N 397.426 -5.87353 -3.67407 0
M  V30 4313 N 399.219 -4.67078 -3.12721 0
M  V30 4314 H 391.37 -2.1136 -0.20989 0
M  V30 4315 H 393.633 -0.935128 -0.155692 0
M  V30 4316 H 393.339 -3.32267 -1.15289 0
M  V30 4317 H 393.213 -2.58989 -2.74234 0
M  V30 4318 H 395.6 -1.64137 -2.45241 0
M  V30 4319 H 395.681 -2.40901 -0.860242 0
M  V30 4320 H 395.325 -4.68402 -1.96372 0
M  V30 4321 H 395.255 -3.88529 -3.55461 0
M  V30 4322 H 397.746 -3.04465 -2.23851 0
M  V30 4323 H 398.059 -6.57624 -4.05894 0
M  V30 4324 H 396.404 -5.91054 -3.65623 0
M  V30 4325 H 399.595 -3.82067 -2.70449 0
M  V30 4326 H 399.768 -5.43098 -3.53481 0
M  V30 4327 N 393.175 1.03435 -1.18907 0
M  V30 4328 C 394.591 1.28973 -0.940111 0
M  V30 4329 C 394.791 1.97676 0.390691 0
M  V30 4330 O 393.847 2.26127 1.12352 0
M  V30 4331 C 395.16 2.14221 -2.11021 0
M  V30 4332 C 396.708 2.27547 -2.14922 0
M  V30 4333 C 397.183 3.16164 -3.31367 0
M  V30 4334 N 398.674 3.23752 -3.31269 0
M  V30 4335 C 399.409 3.92495 -4.18014 0
M  V30 4336 N 398.905 4.63515 -5.14904 0
M  V30 4337 N 400.698 3.88838 -4.05908 0
M  V30 4338 H 392.849 0.57252 -2.04538 0
M  V30 4339 H 395.112 0.315184 -0.894071 0
M  V30 4340 H 394.818 1.71054 -3.073 0
M  V30 4341 H 394.692 3.14919 -2.0762 0
M  V30 4342 H 397.079 2.69947 -1.19217 0
M  V30 4343 H 397.16 1.26418 -2.22378 0
M  V30 4344 H 396.804 2.74474 -4.27348 0
M  V30 4345 H 396.734 4.17339 -3.21148 0
M  V30 4346 H 399.225 2.73167 -2.61129 0
M  V30 4347 H 399.538 5.13583 -5.77453 0
M  V30 4348 H 397.883 4.62398 -5.18857 0
M  V30 4349 H 401.074 3.32491 -3.29495 0
M  V30 4350 H 401.247 4.4214 -4.73726 0
M  V30 4351 N 394.653 0.992116 1.22453 0
M  V30 4352 C 395.901 0.666215 1.90804 0
M  V30 4353 C 396.222 -0.804152 1.77647 0
M  V30 4354 O 395.492 -1.57629 1.16318 0
M  V30 4355 H 394.072 0.243423 0.706225 0
M  V30 4356 H 396.734 1.25845 1.48825 0
M  V30 4357 H 395.83 0.928069 2.97982 0
M  V30 4358 N 396.131 -1.37776 0.765217 0
M  V30 4359 C 397.094 -2.28686 0.153416 0
M  V30 4360 C 398.094 -1.47727 -0.635081 0
M  V30 4361 O 399.284 -1.68027 -0.459632 0
M  V30 4362 C 396.416 -3.31608 -0.790495 0
M  V30 4363 H 397.609 -2.84297 0.954723 0
M  V30 4364 H 395.162 -1.46932 0.53299 0
M  V30 4365 H 395.897 -2.81109 -1.61705 0
M  V30 4366 H 395.682 -3.9144 -0.227348 0
M  V30 4367 H 397.172 -3.99559 -1.21419 0
M  V30 4368 N 397.609 -0.515225 -1.4894 0
M  V30 4369 C 398.858 0.0261361 -2.01683 0
M  V30 4370 C 399.171 1.36719 -1.39883 0
M  V30 4371 O 400.377 1.99606 -1.84037 0
M  V30 4372 C 398.833 0.0970111 -3.59769 0
M  V30 4373 C 398.441 -1.23825 -4.30548 0
M  V30 4374 C 400.185 0.587981 -4.20408 0
M  V30 4375 C 398.092 -1.12877 -5.80528 0
M  V30 4376 H 397.022 0.0135398 -0.753878 0
M  V30 4377 H 399.673 -0.656787 -1.71343 0
M  V30 4378 H 398.055 0.844694 -3.86886 0
M  V30 4379 H 399.229 -2.00034 -4.15118 0
M  V30 4380 H 397.544 -1.66379 -3.81716 0
M  V30 4381 H 400.141 0.68763 -5.3026 0
M  V30 4382 H 400.484 1.59026 -3.84729 0
M  V30 4383 H 401.017 -0.103582 -3.97665 0
M  V30 4384 H 397.756 -2.10575 -6.20756 0
M  V30 4385 H 397.276 -0.407799 -5.98412 0
M  V30 4386 H 398.955 -0.813332 -6.41868 0
M  V30 4387 N 399.087 1.5561 -0.249682 0
M  V30 4388 C 400.333 1.99306 0.374841 0
M  V30 4389 C 400.666 1.13767 1.57387 0
M  V30 4390 O 399.941 0.201711 1.93451 0
M  V30 4391 C 400.224 3.51507 0.781986 0
M  V30 4392 C 400.077 4.4781 -0.422629 0
M  V30 4393 C 401.396 4.08884 1.62793 0
M  V30 4394 H 398.515 0.724572 0.134773 0
M  V30 4395 H 401.157 1.86719 -0.351549 0
M  V30 4396 H 399.307 3.62363 1.4009 0
M  V30 4397 H 400.979 4.48931 -1.06108 0
M  V30 4398 H 399.222 4.20518 -1.06524 0
M  V30 4399 H 399.893 5.51919 -0.0943766 0
M  V30 4400 H 402.369 4.01147 1.10547 0
M  V30 4401 H 401.245 5.1564 1.88166 0
M  V30 4402 H 401.506 3.57515 2.60068 0
M  V30 4403 N 400.565 -0.0233959 1.57583 0
M  V30 4404 C 401.528 -1.00693 2.05897 0
M  V30 4405 C 402.528 -1.28693 0.964092 0
M  V30 4406 O 403.718 -1.23602 1.22753 0
M  V30 4407 C 400.85 -2.33825 2.4807 0
M  V30 4408 H 402.043 -0.589476 2.9405 0
M  V30 4409 H 399.596 -0.270354 1.53944 0
M  V30 4410 H 400.331 -2.80307 1.6309 0
M  V30 4411 H 400.116 -2.1483 3.2801 0
M  V30 4412 H 401.606 -3.04426 2.85857 0
M  V30 4413 N 402.043 -1.548 -0.295768 0
M  V30 4414 C 403.292 -1.73538 -1.02798 0
M  V30 4415 C 403.605 -0.531159 -1.8825 0
M  V30 4416 O 404.811 -0.600458 -2.64777 0
M  V30 4417 C 403.267 -3.07051 -1.87744 0
M  V30 4418 C 402.875 -4.34968 -1.07269 0
M  V30 4419 C 404.619 -3.35146 -2.60533 0
M  V30 4420 C 402.526 -5.5953 -1.91521 0
M  V30 4421 H 401.456 -0.646794 -0.387522 0
M  V30 4422 H 404.107 -1.81278 -0.284718 0
M  V30 4423 H 402.489 -2.93289 -2.66078 0
M  V30 4424 H 403.663 -4.5958 -0.335117 0
M  V30 4425 H 401.978 -4.13847 -0.460384 0
M  V30 4426 H 404.575 -4.2541 -3.23929 0
M  V30 4427 H 404.918 -2.54255 -3.29636 0
M  V30 4428 H 405.451 -3.49902 -1.89244 0
M  V30 4429 H 402.19 -6.43103 -1.26878 0
M  V30 4430 H 401.71 -5.39096 -2.62937 0
M  V30 4431 H 403.389 -5.96982 -2.49442 0
M  V30 4432 N 403.521 0.559213 -1.47345 0
M  V30 4433 C 404.453 1.68161 -1.55738 0
M  V30 4434 C 405.466 1.56636 -0.443744 0
M  V30 4435 O 406.655 1.6363 -0.713258 0
M  V30 4436 C 403.755 3.06611 -1.4437 0
M  V30 4437 C 402.928 3.4391 -2.70268 0
M  V30 4438 C 401.987 4.61515 -2.52765 0
M  V30 4439 O 401.013 4.66197 -3.26572 0
M  V30 4440 N 402.215 5.57883 -1.6046 0
M  V30 4441 H 404.98 1.61408 -2.52522 0
M  V30 4442 H 402.541 0.7458 -1.43699 0
M  V30 4443 H 404.533 3.83117 -1.30398 0
M  V30 4444 H 403.103 3.07602 -0.556766 0
M  V30 4445 H 402.323 2.56873 -2.99015 0
M  V30 4446 H 403.611 3.65605 -3.53851 0
M  V30 4447 H 403.009 5.56855 -0.996422 0
M  V30 4448 H 401.566 6.33723 -1.52441 0
M  V30 4449 N 404.999 1.35443 0.805782 0
M  V30 4450 C 406.41 1.25768 1.37983 0
M  V30 4451 C 406.761 -0.10958 1.95894 0
M  V30 4452 O 405.886 -1.01056 1.91355 0
M  V30 4453 C 406.481 2.27727 2.5085 0
M  V30 4454 C 405.04 2.2179 3.04115 0
M  V30 4455 C 404.187 2.13393 1.77084 0
M  V30 4456 H 407.138 1.4656 0.608752 0
M  V30 4457 H 407.159 1.90422 3.29424 0
M  V30 4458 H 406.671 3.27227 2.08671 0
M  V30 4459 H 404.772 1.25703 3.50756 0
M  V30 4460 H 404.885 3.13788 3.62042 0
M  V30 4461 H 403.249 1.59384 1.98668 0
M  V30 4462 H 404.032 3.14755 1.37056 0
M  V30 4463 N 406.477 -1.02803 1.19454 0
M  V30 4464 C 407.702 -1.80378 1.02364 0
M  V30 4465 C 408.127 -1.83282 -0.423007 0
M  V30 4466 O 407.485 -1.25945 -1.30413 0
M  V30 4467 C 407.533 -3.23248 1.59821 0
M  V30 4468 O 406.637 -4.04 0.828105 0
M  V30 4469 H 405.978 -0.556799 0.361761 0
M  V30 4470 H 408.508 -1.29385 1.58495 0
M  V30 4471 H 408.518 -3.73994 1.63073 0
M  V30 4472 H 407.193 -3.2045 2.65113 0
M  V30 4473 H 405.77 -3.62635 0.86891 0
M  V30 4474 N 407.956 -0.998596 -1.21925 0
M  V30 4475 C 409.184 -0.696286 -1.94832 0
M  V30 4476 C 409.599 0.740032 -1.73692 0
M  V30 4477 O 408.956 1.5 -1.03953 0
M  V30 4478 C 409.007 -0.999833 -3.47398 0
M  V30 4479 O 408.728 -2.37972 -3.67833 0
M  V30 4480 C 410.229 -0.716025 -4.37479 0
M  V30 4481 H 407.449 -0.257111 -0.619786 0
M  V30 4482 H 409.993 -1.33491 -1.54921 0
M  V30 4483 H 408.148 -0.406918 -3.85257 0
M  V30 4484 H 408.562 -2.48338 -4.61983 0
M  V30 4485 H 410.036 -0.978642 -5.43256 0
M  V30 4486 H 410.513 0.349968 -4.37803 0
M  V30 4487 H 411.119 -1.29025 -4.05256 0
M  V30 4488 N 409.434 1.37368 -0.772513 0
M  V30 4489 C 410.682 1.99279 -0.336516 0
M  V30 4490 C 411.003 1.6163 1.09091 0
M  V30 4491 O 410.273 0.882109 1.74916 0
M  V30 4492 H 408.853 0.737063 -0.121435 0
M  V30 4493 H 411.515 1.67836 -0.990809 0
M  V30 4494 H 410.611 3.09332 -0.414763 0
M  V30 4495 N 410.912 0.523116 1.48665 0
M  V30 4496 C 412.189 -0.0775449 1.95446 0
M  V30 4497 C 412.569 -1.5197 1.4652 0
M  V30 4498 O 411.917 -2.17876 0.688657 0
M  V30 4499 C 412.127 0.0326135 3.48985 0
M  V30 4500 C 413.475 -0.130141 4.24401 0
M  V30 4501 O 414.499 -0.0415142 3.56176 0
M  V30 4502 O 413.358 -0.31491 5.45592 0
M  V30 4503 H 410.452 -0.0831012 0.822814 0
M  V30 4504 H 412.998 0.587227 1.59216 0
M  V30 4505 H 411.77 1.03748 3.77296 0
M  V30 4506 H 411.393 -0.671317 3.91892 0
M  V30 4507 N 412.39 -1.55475 0.257931 0
M  V30 4508 C 413.636 -1.99502 -0.364266 0
M  V30 4509 C 413.969 -1.146 -1.56782 0
M  V30 4510 O 413.244 -0.211968 -1.93342 0
M  V30 4511 C 413.527 -3.51917 -0.763333 0
M  V30 4512 C 413.38 -4.4758 0.446371 0
M  V30 4513 C 414.699 -4.09742 -1.60623 0
M  V30 4514 H 411.818 -0.725277 -0.130929 0
M  V30 4515 H 414.46 -1.8653 0.361446 0
M  V30 4516 H 412.61 -3.63101 -1.38166 0
M  V30 4517 H 414.282 -4.48362 1.08487 0
M  V30 4518 H 412.525 -4.19947 1.08753 0
M  V30 4519 H 413.196 -5.51862 0.123645 0
M  V30 4520 H 415.672 -4.01727 -1.08418 0
M  V30 4521 H 414.548 -5.16631 -1.85429 0
M  V30 4522 H 414.809 -3.58889 -2.58169 0
M  V30 4523 N 413.868 0.0150385 -1.57593 0
M  V30 4524 C 414.798 1.01047 -2.10503 0
M  V30 4525 C 415.779 1.36816 -1.01071 0
M  V30 4526 O 416.964 1.45455 -1.28672 0
M  V30 4527 C 414.094 2.30708 -2.59598 0
M  V30 4528 C 413.048 2.09142 -3.73421 0
M  V30 4529 C 412.374 3.44685 -4.08774 0
M  V30 4530 C 413.674 1.46619 -5.01298 0
M  V30 4531 H 415.368 0.569978 -2.93925 0
M  V30 4532 H 412.914 0.272724 -1.41394 0
M  V30 4533 H 414.867 3.00687 -2.95238 0
M  V30 4534 H 413.591 2.76843 -1.73279 0
M  V30 4535 H 412.25 1.41592 -3.38153 0
M  V30 4536 H 411.898 3.88495 -3.195 0
M  V30 4537 H 411.598 3.31077 -4.8545 0
M  V30 4538 H 413.122 4.16004 -4.4696 0
M  V30 4539 H 414.536 2.06535 -5.34805 0
M  V30 4540 H 412.933 1.43544 -5.82679 0
M  V30 4541 H 414.003 0.433611 -4.82957 0
M  V30 4542 N 415.346 1.54954 0.287554 0
M  V30 4543 C 416.309 1.86076 1.33823 0
M  V30 4544 C 417.309 0.734414 1.43049 0
M  V30 4545 O 418.499 1.00266 1.42452 0
M  V30 4546 C 415.631 2.05305 2.72144 0
M  V30 4547 H 416.824 2.79984 1.07465 0
M  V30 4548 H 414.377 1.47223 0.524902 0
M  V30 4549 H 415.112 1.1373 3.03704 0
M  V30 4550 H 414.897 2.873 2.66836 0
M  V30 4551 H 416.387 2.30706 3.48087 0
M  V30 4552 N 416.824 -0.551391 1.4764 0
M  V30 4553 C 417.757 -1.6738 1.5511 0
M  V30 4554 C 418.735 -1.5753 0.402856 0
M  V30 4555 O 419.919 -1.78307 0.611475 0
M  V30 4556 C 417.046 -3.05661 1.45908 0
M  V30 4557 C 416.092 -3.33938 2.65307 0
M  V30 4558 S 416.925 -3.22553 4.27457 0
M  V30 4559 C 418.081 -4.63317 4.20818 0
M  V30 4560 H 418.314 -1.6079 2.50068 0
M  V30 4561 H 415.847 -0.732674 1.35909 0
M  V30 4562 H 417.805 -3.8542 1.41286 0
M  V30 4563 H 416.466 -3.09711 0.523248 0
M  V30 4564 H 415.659 -4.34761 2.54948 0
M  V30 4565 H 415.261 -2.61809 2.67081 0
M  V30 4566 H 417.553 -5.54391 3.89431 0
M  V30 4567 H 418.496 -4.78732 5.21748 0
M  V30 4568 H 418.904 -4.41636 3.51593 0
M  V30 4569 N 418.302 -1.35869 -0.798587 0
M  V30 4570 C 419.548 -1.2978 -1.55836 0
M  V30 4571 C 419.881 0.125322 -1.93795 0
M  V30 4572 O 419.156 1.07658 -1.61987 0
M  V30 4573 C 419.439 -2.21188 -2.84162 0
M  V30 4574 C 419.292 -3.72155 -2.52628 0
M  V30 4575 C 420.611 -2.11545 -3.85923 0
M  V30 4576 H 417.73 -0.472769 -0.565383 0
M  V30 4577 H 420.372 -1.66341 -0.918192 0
M  V30 4578 H 418.522 -1.90139 -3.38791 0
M  V30 4579 H 420.194 -4.13682 -2.04121 0
M  V30 4580 H 418.437 -3.92042 -1.85704 0
M  V30 4581 H 419.108 -4.31511 -3.44242 0
M  V30 4582 H 421.584 -2.38855 -3.40716 0
M  V30 4583 H 420.46 -2.77688 -4.73477 0
M  V30 4584 H 420.721 -1.09987 -4.282 0
M  V30 4585 N 419.78 1.02168 -1.19998 0
M  V30 4586 C 421.005 1.79833 -1.03319 0
M  V30 4587 C 421.43 1.83504 0.413281 0
M  V30 4588 O 420.788 1.26635 1.29743 0
M  V30 4589 C 420.836 3.22396 -1.61533 0
M  V30 4590 O 419.94 4.03555 -0.849519 0
M  V30 4591 H 419.281 0.554872 -0.364709 0
M  V30 4592 H 421.811 1.28542 -1.59179 0
M  V30 4593 H 421.821 3.73124 -1.65054 0
M  V30 4594 H 420.496 3.19039 -2.66809 0
M  V30 4595 H 419.073 3.62169 -0.888129 0
M  V30 4596 N 421.258 1.00505 1.21394 0
M  V30 4597 C 422.19 0.52372 2.23136 0
M  V30 4598 C 423.203 -0.387714 1.58116 0
M  V30 4599 O 424.392 -0.187905 1.77508 0
M  V30 4600 C 421.492 -0.258885 3.3791 0
M  V30 4601 C 420.665 0.651634 4.32519 0
M  V30 4602 C 419.724 -0.0813705 5.26137 0
M  V30 4603 O 418.75 0.537295 5.66658 0
M  V30 4604 N 419.952 -1.35992 5.64346 0
M  V30 4605 H 422.717 1.39865 2.65062 0
M  V30 4606 H 420.278 0.881196 1.35818 0
M  V30 4607 H 422.27 -0.758208 3.97534 0
M  V30 4608 H 420.84 -1.035 2.94968 0
M  V30 4609 H 420.06 1.33145 3.71034 0
M  V30 4610 H 421.348 1.27129 4.92662 0
M  V30 4611 H 420.746 -1.88368 5.33417 0
M  V30 4612 H 419.303 -1.8042 6.26332 0
M  V30 4613 N 422.737 -1.36956 0.779787 0
M  V30 4614 C 424.148 -1.82094 0.412156 0
M  V30 4615 C 424.499 -1.64926 -1.06273 0
M  V30 4616 O 423.624 -1.16483 -1.82375 0
M  V30 4617 C 424.219 -3.3059 0.741319 0
M  V30 4618 C 422.778 -3.73974 0.426641 0
M  V30 4619 C 421.925 -2.59368 0.980987 0
M  V30 4620 H 424.876 -1.25314 0.973758 0
M  V30 4621 H 424.897 -3.80489 0.028887 0
M  V30 4622 H 424.409 -3.43054 1.81482 0
M  V30 4623 H 422.51 -3.67076 -0.639215 0
M  V30 4624 H 422.623 -4.69778 0.940515 0
M  V30 4625 H 420.987 -2.51463 0.404757 0
M  V30 4626 H 421.77 -2.74621 2.06005 0
M  V30 4627 N 424.215 -0.530993 -1.48385 0
M  V30 4628 C 425.44 0.000729535 -2.074 0
M  V30 4629 C 425.865 1.27298 -1.3848 0
M  V30 4630 O 425.223 1.75599 -0.451081 0
M  V30 4631 C 425.271 0.206697 -3.60007 0
M  V30 4632 O 424.375 1.27514 -3.92191 0
M  V30 4633 H 423.716 -0.039583 -0.662819 0
M  V30 4634 H 426.246 -0.739194 -1.9078 0
M  V30 4635 H 426.256 0.42904 -4.05738 0
M  V30 4636 H 424.931 -0.722675 -4.09573 0
M  V30 4637 H 423.508 1.03537 -3.58238 0
M  V30 4638 N 425.693 1.55336 -0.266172 0
M  V30 4639 C 426.923 2.03506 0.356239 0
M  V30 4640 C 427.331 1.14426 1.50676 0
M  V30 4641 O 426.674 0.155043 1.83045 0
M  V30 4642 C 426.736 3.47848 0.90785 0
M  V30 4643 C 426.4 4.56861 -0.112888 0
M  V30 4644 C 427.397 5.11528 -0.929264 0
M  V30 4645 C 425.082 5.01704 -0.244546 0
M  V30 4646 C 427.076 6.09549 -1.86357 0
M  V30 4647 C 424.763 5.99553 -1.18234 0
M  V30 4648 C 425.761 6.53356 -1.99036 0
M  V30 4649 O 425.449 7.49293 -2.91231 0
M  V30 4650 H 425.181 0.670444 0.08649 0
M  V30 4651 H 427.735 2.01598 -0.39337 0
M  V30 4652 H 425.965 3.46967 1.70737 0
M  V30 4653 H 427.654 3.79407 1.44239 0
M  V30 4654 H 428.42 4.77701 -0.838237 0
M  V30 4655 H 424.299 4.59477 0.374359 0
M  V30 4656 H 427.843 6.51469 -2.49467 0
M  V30 4657 H 423.74 6.32799 -1.27421 0
M  V30 4658 H 424.508 7.66978 -2.8581 0
M  V30 4659 N 427.171 -0.0066808 1.57599 0
M  V30 4660 C 428.448 -0.729586 1.81484 0
M  V30 4661 C 428.828 -1.92359 0.869558 0
M  V30 4662 O 428.176 -2.28348 -0.0832533 0
M  V30 4663 C 428.386 -1.1416 3.29801 0
M  V30 4664 C 429.734 -1.54823 3.95367 0
M  V30 4665 O 430.758 -1.23558 3.34084 0
M  V30 4666 O 429.617 -2.12937 5.03309 0
M  V30 4667 H 426.711 -0.354674 0.747085 0
M  V30 4668 H 429.257 0.0182609 1.6969 0
M  V30 4669 H 428.029 -0.290231 3.90222 0
M  V30 4670 H 427.652 -1.94876 3.46568 0
M  V30 4671 N 428.649 -1.55105 -0.279332 0
M  V30 4672 C 430.06 -1.66186 -0.850832 0
M  V30 4673 C 430.411 -0.584707 -1.87285 0
M  V30 4674 O 429.536 0.274919 -2.14647 0
M  V30 4675 C 430.131 -3.01264 -1.55001 0
M  V30 4676 C 428.69 -3.14394 -2.06963 0
M  V30 4677 C 427.837 -2.61959 -0.909536 0
M  V30 4678 H 430.788 -1.58602 -0.0558235 0
M  V30 4679 H 430.809 -2.93899 -2.41669 0
M  V30 4680 H 430.321 -3.7964 -0.805931 0
M  V30 4681 H 428.422 -2.4078 -2.84352 0
M  V30 4682 H 428.535 -4.20867 -2.28928 0
M  V30 4683 H 426.899 -2.18957 -1.30116 0
M  V30 4684 H 427.682 -3.42833 -0.179062 0
M  V30 4685 N 430.127 0.543554 -1.4793 0
M  V30 4686 C 431.075 1.67039 -1.61866 0
M  V30 4687 C 432.069 1.62294 -0.48549 0
M  V30 4688 O 433.275 1.67315 -0.66376 0
M  V30 4689 H 429.65 0.552954 -0.509652 0
M  V30 4690 H 431.621 1.52426 -2.56533 0
M  V30 4691 C 430.37 3.05357 -1.6629 0
M  V30 4692 H 429.693 3.09696 -2.5284 0
M  V30 4693 H 431.133 3.83855 -1.80088 0
M  V30 4694 C 429.592 3.34531 -0.398861 0
M  V30 4695 O 430.122 3.98649 0.494162 0
M  V30 4696 N 428.328 2.89299 -0.2747 0
M  V30 4697 H 427.875 2.37298 -1.00236 0
M  V30 4698 H 427.833 3.09188 0.570075 0
M  V30 4699 N 431.605 1.3629 0.791371 0
M  V30 4700 C 432.535 1.33137 1.91825 0
M  V30 4701 C 433.516 0.203168 1.68882 0
M  V30 4702 O 434.701 0.400509 1.90025 0
M  V30 4703 C 431.831 1.11793 3.28816 0
M  V30 4704 C 430.785 2.21417 3.66277 0
M  V30 4705 C 430.111 1.85218 5.01596 0
M  V30 4706 C 431.411 3.63489 3.75064 0
M  V30 4707 H 433.105 2.2743 1.9472 0
M  V30 4708 H 430.651 1.09479 0.935437 0
M  V30 4709 H 432.604 1.08222 4.07266 0
M  V30 4710 H 431.328 0.139501 3.26302 0
M  V30 4711 H 429.987 2.2411 2.90121 0
M  V30 4712 H 429.635 0.859544 4.95602 0
M  V30 4713 H 429.335 2.58611 5.27631 0
M  V30 4714 H 430.859 1.832 5.82469 0
M  V30 4715 H 432.273 3.63034 4.43711 0
M  V30 4716 H 430.67 4.35771 4.12582 0
M  V30 4717 H 431.74 3.98536 2.76219 0
M  V30 4718 N 433.083 -1.0153 1.20538 0
M  V30 4719 C 434.33 -1.75149 1.01633 0
M  V30 4720 C 434.658 -1.89189 -0.451399 0
M  V30 4721 O 433.913 -1.41551 -1.35136 0
M  V30 4722 C 434.212 -3.17213 1.64654 0
M  V30 4723 C 433.878 -3.23146 3.14464 0
M  V30 4724 C 432.54 -3.24472 3.55347 0
M  V30 4725 C 434.892 -3.21207 4.10458 0
M  V30 4726 C 432.22 -3.21532 4.90748 0
M  V30 4727 C 434.572 -3.19808 5.45807 0
M  V30 4728 C 433.236 -3.19439 5.86102 0
M  V30 4729 H 432.506 -0.640914 0.3719 0
M  V30 4730 H 435.153 -1.19071 1.49981 0
M  V30 4731 H 433.458 -3.76457 1.08571 0
M  V30 4732 H 435.155 -3.72871 1.4754 0
M  V30 4733 H 431.745 -3.2285 2.81897 0
M  V30 4734 H 435.929 -3.19351 3.79906 0
M  V30 4735 H 431.185 -3.19578 5.21229 0
M  V30 4736 H 435.359 -3.1726 6.19935 0
M  V30 4737 H 432.986 -3.16915 6.90991 0
M  V30 4738 N 434.561 -1.01147 -1.20859 0
M  V30 4739 C 435.807 -0.698899 -1.90377 0
M  V30 4740 C 436.14 0.76904 -1.78324 0
M  V30 4741 O 435.415 1.55817 -1.16409 0
M  V30 4742 C 435.698 -1.12878 -3.41951 0
M  V30 4743 C 435.551 -2.65665 -3.62963 0
M  V30 4744 C 436.87 -0.696114 -4.3456 0
M  V30 4745 H 433.989 -0.255372 -0.691342 0
M  V30 4746 H 436.631 -1.25831 -1.42361 0
M  V30 4747 H 434.781 -0.652827 -3.82976 0
M  V30 4748 H 436.453 -3.21074 -3.31224 0
M  V30 4749 H 434.696 -3.06878 -3.06608 0
M  V30 4750 H 435.367 -2.90797 -4.69192 0
M  V30 4751 H 437.843 -1.10521 -4.01154 0
M  V30 4752 H 436.719 -1.025 -5.39245 0
M  V30 4753 H 436.98 0.402465 -4.40264 0
M  V30 4754 N 436.039 1.36541 -0.78704 0
M  V30 4755 C 437.267 2.03561 -0.370199 0
M  V30 4756 C 437.682 1.59347 1.01263 0
M  V30 4757 O 437.039 0.781781 1.64907 0
M  V30 4758 C 437.09 3.59033 -0.421614 0
M  V30 4759 O 436.811 4.01634 -1.7499 0
M  V30 4760 C 438.312 4.433 0.00489763 0
M  V30 4761 H 435.532 0.653346 -0.152904 0
M  V30 4762 H 438.076 1.74566 -1.06522 0
M  V30 4763 H 436.231 3.86746 0.224971 0
M  V30 4764 H 436.645 4.96217 -1.69909 0
M  V30 4765 H 438.119 5.51939 -0.0822184 0
M  V30 4766 H 438.596 4.26285 1.05723 0
M  V30 4767 H 439.202 4.20843 -0.614085 0
M  V30 4768 N 437.518 0.538854 1.48102 0
M  V30 4769 C 438.766 0.00798599 2.02098 0
M  V30 4770 C 439.087 -1.33922 1.41739 0
M  V30 4771 O 438.357 -1.86932 0.585934 0
M  V30 4772 H 436.937 -3.62179e-05 0.747 0
M  V30 4773 H 439.599 0.7047 1.81714 0
M  V30 4774 H 438.695 -0.0937672 3.11959 0
M  V30 4775 N 438.996 -1.55193 0.274407 0
M  V30 4776 C 440.245 -1.98758 -0.343213 0
M  V30 4777 C 440.558 -1.16624 -1.5703 0
M  V30 4778 O 441.764 -1.5033 -2.26082 0
M  V30 4779 C 440.22 -3.53759 -0.661996 0
M  V30 4780 C 439.828 -4.4467 0.54524 0
M  V30 4781 C 441.572 -4.05916 -1.24228 0
M  V30 4782 C 439.479 -5.91058 0.201084 0
M  V30 4783 H 438.409 -0.742353 -0.132014 0
M  V30 4784 H 441.06 -1.79545 0.378948 0
M  V30 4785 H 439.442 -3.68772 -1.44304 0
M  V30 4786 H 440.616 -4.41426 1.32212 0
M  V30 4787 H 438.931 -4.03143 1.04232 0
M  V30 4788 H 441.528 -5.12831 -1.51357 0
M  V30 4789 H 441.871 -3.54908 -2.17592 0
M  V30 4790 H 442.404 -3.9434 -0.523542 0
M  V30 4791 H 439.143 -6.46161 1.10258 0
M  V30 4792 H 438.663 -5.97373 -0.539045 0
M  V30 4793 H 440.342 -6.46669 -0.206954 0
M  V30 4794 N 440.474 -0.00167713 -1.576 0
M  V30 4795 C 441.699 0.69739 -1.95323 0
M  V30 4796 C 442.124 1.6642 -0.876706 0
M  V30 4797 O 441.482 1.80548 0.165007 0
M  V30 4798 C 441.53 1.40403 -3.32144 0
M  V30 4799 O 440.634 2.5185 -3.26566 0
M  V30 4800 H 439.975 0.185373 -0.637599 0
M  V30 4801 H 442.505 -0.0553665 -2.04525 0
M  V30 4802 H 442.515 1.76707 -3.67748 0
M  V30 4803 H 441.19 0.695167 -4.10049 0
M  V30 4804 H 439.767 2.17861 -3.0264 0
M  V30 4805 N 441.952 1.55251 0.271103 0
M  V30 4806 C 443.199 1.75946 1.00245 0
M  V30 4807 C 443.527 0.561611 1.86215 0
M  V30 4808 O 442.782 -0.455832 1.90317 0
M  V30 4809 C 443.081 3.01879 1.91321 0
M  V30 4810 C 442.747 4.34337 1.21086 0
M  V30 4811 C 441.409 4.70338 1.01666 0
M  V30 4812 C 443.761 5.16325 0.71119 0
M  V30 4813 C 441.089 5.8588 0.310099 0
M  V30 4814 C 443.441 6.32597 0.0182157 0
M  V30 4815 C 442.105 6.67236 -0.18768 0
M  V30 4816 H 441.375 0.643833 0.366824 0
M  V30 4817 H 444.022 1.89521 0.27458 0
M  V30 4818 H 442.327 2.83212 2.70736 0
M  V30 4819 H 444.024 3.15088 2.48033 0
M  V30 4820 H 440.614 4.06043 1.37213 0
M  V30 4821 H 444.798 4.88987 0.848844 0
M  V30 4822 H 440.054 6.1124 0.139873 0
M  V30 4823 H 444.228 6.9538 -0.376711 0
M  V30 4824 H 441.855 7.56618 -0.73715 0
M  V30 4825 N 443.43 -0.535701 1.48216 0
M  V30 4826 C 444.377 -1.64083 1.62312 0
M  V30 4827 C 445.347 -1.59448 0.465365 0
M  V30 4828 O 446.532 -1.77959 0.688135 0
M  V30 4829 C 443.672 -3.0236 1.66349 0
M  V30 4830 C 442.785 -3.17273 2.93193 0
M  V30 4831 C 441.92 -4.46075 2.88427 0
M  V30 4832 C 440.959 -4.54496 4.1 0
M  V30 4833 N 440.096 -5.7468 4.03345 0
M  V30 4834 H 444.936 -1.51374 2.5669 0
M  V30 4835 H 442.473 -0.737059 1.27302 0
M  V30 4836 H 444.431 -3.82461 1.66672 0
M  V30 4837 H 443.061 -3.13854 0.754672 0
M  V30 4838 H 442.113 -2.30462 3.02641 0
M  V30 4839 H 443.425 -3.19357 3.83162 0
M  V30 4840 H 442.579 -5.3446 2.87119 0
M  V30 4841 H 441.318 -4.46504 1.96177 0
M  V30 4842 H 440.323 -3.64519 4.11589 0
M  V30 4843 H 441.548 -4.5581 5.03402 0
M  V30 4844 H 439.494 -5.76017 3.13912 0
M  V30 4845 H 439.411 -5.78234 4.87013 0
M  V30 4846 H 440.679 -6.65367 4.06087 0
M  V30 4847 N 444.908 -1.36708 -0.784132 0
M  V30 4848 C 445.871 -1.31307 -1.87859 0
M  V30 4849 C 446.871 -0.219654 -1.59293 0
M  V30 4850 O 448.061 -0.47476 -1.67606 0
M  V30 4851 C 445.193 -1.03679 -3.24751 0
M  V30 4852 H 446.386 -2.28647 -1.94064 0
M  V30 4853 H 443.939 -1.21558 -0.98252 0
M  V30 4854 H 444.674 -0.0681936 -3.24228 0
M  V30 4855 H 444.459 -1.82811 -3.46876 0
M  V30 4856 H 445.949 -1.02518 -4.04821 0
M  V30 4857 N 446.386 1.0089 -1.21074 0
M  V30 4858 C 447.616 1.77933 -1.04993 0
M  V30 4859 C 448.024 1.84847 0.403495 0
M  V30 4860 O 447.367 1.30606 1.29181 0
M  V30 4861 C 447.429 3.23541 -1.56722 0
M  V30 4862 C 447.093 3.40214 -3.05129 0
M  V30 4863 C 448.09 3.2881 -4.02716 0
M  V30 4864 C 445.775 3.65781 -3.44252 0
M  V30 4865 C 447.769 3.42732 -5.37414 0
M  V30 4866 C 445.456 3.79346 -4.79103 0
M  V30 4867 C 446.454 3.67827 -5.75493 0
M  V30 4868 O 446.142 3.80965 -7.07899 0
M  V30 4869 H 445.874 0.566157 -0.369381 0
M  V30 4870 H 448.428 1.27826 -1.60779 0
M  V30 4871 H 446.658 3.74766 -0.953285 0
M  V30 4872 H 448.347 3.82245 -1.36543 0
M  V30 4873 H 449.113 3.08986 -3.73835 0
M  V30 4874 H 444.992 3.73831 -2.69762 0
M  V30 4875 H 448.536 3.33658 -6.12632 0
M  V30 4876 H 444.433 3.98672 -5.07672 0
M  V30 4877 H 445.201 3.97937 -7.15254 0
M  V30 4878 N 447.864 1.01787 1.20321 0
M  V30 4879 C 448.827 0.593972 2.2137 0
M  V30 4880 C 449.827 -0.336553 1.57239 0
M  V30 4881 O 451.017 -0.125069 1.7375 0
M  V30 4882 C 448.149 -0.132433 3.40643 0
M  V30 4883 H 449.342 1.48791 2.60387 0
M  V30 4884 H 446.895 0.807803 1.33807 0
M  V30 4885 H 447.63 -1.04123 3.0713 0
M  V30 4886 H 447.415 0.53605 3.88418 0
M  V30 4887 H 448.905 -0.416314 4.1552 0
M  V30 4888 N 449.342 -1.36122 0.79427 0
M  V30 4889 C 450.252 -2.33769 0.197296 0
M  V30 4890 C 451.268 -1.61276 -0.653153 0
M  V30 4891 O 452.444 -1.9323 -0.5678 0
M  V30 4892 C 449.509 -3.40474 -0.654098 0
M  V30 4893 C 448.57 -4.28759 0.215411 0
M  V30 4894 C 447.803 -5.30368 -0.595443 0
M  V30 4895 O 448.026 -5.40211 -1.83107 0
M  V30 4896 O 446.96 -6.019 0.00721351 0
M  V30 4897 H 450.786 -2.86597 1.00478 0
M  V30 4898 H 448.371 -1.38676 0.555818 0
M  V30 4899 H 450.253 -4.05703 -1.13944 0
M  V30 4900 H 448.928 -2.89937 -1.43938 0
M  V30 4901 H 447.835 -3.66554 0.747615 0
M  V30 4902 H 449.168 -4.82661 0.964332 0
M  V30 4903 N 450.82 -0.546701 -1.47814 0
M  V30 4904 C 451.75 0.195317 -2.32682 0
M  V30 4905 C 452.731 0.918981 -1.43139 0
M  V30 4906 O 453.916 0.901501 -1.72008 0
M  V30 4907 C 451.046 1.23237 -3.247 0
M  V30 4908 C 450 0.625818 -4.234 0
M  V30 4909 C 449.326 1.76674 -5.04669 0
M  V30 4910 C 450.626 -0.413515 -5.2066 0
M  V30 4911 H 452.32 -0.513184 -2.94969 0
M  V30 4912 H 449.866 -0.248241 -1.41844 0
M  V30 4913 H 451.819 1.75955 -3.82907 0
M  V30 4914 H 450.543 1.97067 -2.60446 0
M  V30 4915 H 449.202 0.120023 -3.66403 0
M  V30 4916 H 448.85 2.49383 -4.36826 0
M  V30 4917 H 448.55 1.36673 -5.71484 0
M  V30 4918 H 450.074 2.29738 -5.65732 0
M  V30 4919 H 451.488 0.0272042 -5.73294 0
M  V30 4920 H 449.885 -0.731825 -5.95621 0
M  V30 4921 H 450.955 -1.31325 -4.66778 0
M  V30 4922 N 452.299 1.55045 -0.282633 0
M  V30 4923 C 453.715 1.59441 0.0712997 0
M  V30 4924 C 453.915 1.2998 1.53972 0
M  V30 4925 O 452.971 1.06431 2.28973 0
M  V30 4926 C 454.284 2.99097 -0.310104 0
M  V30 4927 C 455.832 3.1194 -0.257343 0
M  V30 4928 C 456.307 4.53875 -0.613297 0
M  V30 4929 N 457.798 4.5974 -0.565134 0
M  V30 4930 C 458.533 5.67603 -0.81326 0
M  V30 4931 N 458.029 6.83582 -1.1264 0
M  V30 4932 N 459.822 5.57187 -0.741553 0
M  V30 4933 H 451.973 1.72458 -1.23984 0
M  V30 4934 H 454.236 0.804549 -0.501403 0
M  V30 4935 H 453.942 3.25516 -1.33163 0
M  V30 4936 H 453.816 3.75616 0.345366 0
M  V30 4937 H 456.203 2.85281 0.754905 0
M  V30 4938 H 456.284 2.37618 -0.947178 0
M  V30 4939 H 455.928 4.81261 -1.62327 0
M  V30 4940 H 455.858 5.26508 0.09841 0
M  V30 4941 H 458.349 3.76427 -0.333294 0
M  V30 4942 H 458.662 7.6175 -1.30219 0
M  V30 4943 H 457.007 6.85179 -1.16425 0
M  V30 4944 H 460.198 4.65457 -0.496705 0
M  V30 4945 H 460.371 6.41171 -0.938306 0
M  V30 4946 N 453.777 0.010035 1.57597 0
M  V30 4947 C 455.054 -0.710296 1.82248 0
M  V30 4948 C 455.434 -1.91426 0.889911 0
M  V30 4949 O 454.782 -2.28424 -0.0590292 0
M  V30 4950 C 454.992 -1.10655 3.30993 0
M  V30 4951 C 456.34 -1.50621 3.96987 0
M  V30 4952 O 457.364 -1.20007 3.35375 0
M  V30 4953 O 456.223 -2.07587 5.05539 0
M  V30 4954 H 453.317 -0.34673 0.750804 0
M  V30 4955 H 455.863 0.0362578 1.69661 0
M  V30 4956 H 454.635 -0.248826 3.90508 0
M  V30 4957 H 454.258 -1.91189 3.48615 0
M  V30 4958 N 455.255 -1.55392 -0.262866 0
M  V30 4959 C 456.48 -1.80847 -1.01533 0
M  V30 4960 C 456.905 -0.584946 -1.78774 0
M  V30 4961 O 456.263 0.465701 -1.75217 0
M  V30 4962 C 456.311 -3.03866 -1.94159 0
M  V30 4963 O 455.415 -2.79662 -3.03089 0
M  V30 4964 H 454.756 -0.597441 -0.289759 0
M  V30 4965 H 457.286 -2.02553 -0.288698 0
M  V30 4966 H 457.296 -3.32872 -2.35924 0
M  V30 4967 H 455.971 -3.92564 -1.37354 0
M  V30 4968 H 454.548 -2.61781 -2.65566 0
M  V30 4969 N 456.733 0.527833 -1.48498 0
M  V30 4970 C 457.982 1.28003 -1.55878 0
M  V30 4971 C 458.295 1.9414 -0.238577 0
M  V30 4972 O 459.501 2.7083 -0.190643 0
M  V30 4973 C 457.957 2.32272 -2.74914 0
M  V30 4974 C 457.565 1.72196 -4.13585 0
M  V30 4975 C 459.309 3.08488 -2.91608 0
M  V30 4976 C 457.216 2.74417 -5.23879 0
M  V30 4977 H 456.146 0.481413 -0.580308 0
M  V30 4978 H 458.797 0.557195 -1.74836 0
M  V30 4979 H 457.179 3.07601 -2.49395 0
M  V30 4980 H 458.353 1.03041 -4.49132 0
M  V30 4981 H 456.668 1.08464 -4.02025 0
M  V30 4982 H 459.265 3.84879 -3.71177 0
M  V30 4983 H 459.608 3.64481 -2.01145 0
M  V30 4984 H 460.141 2.40274 -3.17038 0
M  V30 4985 H 456.88 2.23242 -6.16314 0
M  V30 4986 H 456.4 3.41893 -4.92818 0
M  V30 4987 H 458.079 3.37362 -5.52083 0
M  V30 4988 N 458.211 1.37122 0.776871 0
M  V30 4989 C 459.488 1.22586 1.52421 0
M  V30 4990 C 459.868 -0.182726 2.10308 0
M  V30 4991 O 459.216 -1.18979 1.9508 0
M  V30 4992 C 459.426 2.31782 2.60918 0
M  V30 4993 C 460.774 2.69071 3.2846 0
M  V30 4994 O 461.798 2.3092 2.71209 0
M  V30 4995 O 460.657 3.3478 4.31954 0
M  V30 4996 H 457.751 0.478045 0.674835 0
M  V30 4997 H 460.297 1.48888 0.814275 0
M  V30 4998 H 459.069 3.26131 2.16227 0
M  V30 4999 H 458.692 2.06916 3.39517 0
M  V30 5000 N 459.689 -1.00246 1.21608 0
M  V30 5001 C 461.105 -1.26435 0.973975 0
M  V30 5002 C 461.305 -1.98642 -0.338143 0
M  V30 5003 O 460.361 -2.29026 -1.06317 0
M  V30 5004 C 461.674 -2.08551 2.16626 0
M  V30 5005 C 463.222 -2.21769 2.20879 0
M  V30 5006 C 463.697 -3.07267 3.39633 0
M  V30 5007 N 465.188 -3.14855 3.39736 0
M  V30 5008 C 465.923 -3.81274 4.28273 0
M  V30 5009 N 465.419 -4.497 5.27012 0
M  V30 5010 N 467.212 -3.7794 4.16074 0
M  V30 5011 H 459.363 -0.518089 2.05984 0
M  V30 5012 H 461.626 -0.291368 0.902113 0
M  V30 5013 H 461.332 -1.62847 3.11727 0
M  V30 5014 H 461.206 -3.09303 2.15897 0
M  V30 5015 H 463.593 -2.66691 1.26332 0
M  V30 5016 H 463.674 -1.20478 2.25652 0
M  V30 5017 H 463.318 -2.63047 4.34475 0
M  V30 5018 H 463.248 -4.08678 3.321 0
M  V30 5019 H 465.739 -2.66147 2.6828 0
M  V30 5020 H 466.052 -4.98092 5.90867 0
M  V30 5021 H 464.397 -4.48479 5.30935 0
M  V30 5022 H 467.588 -3.23638 3.38195 0
M  V30 5023 H 467.761 -4.29424 4.85282 0
M  V30 5024 N 461.167 -1.02423 -1.1978 0
M  V30 5025 C 462.578 -0.748389 -1.71044 0
M  V30 5026 C 462.929 0.732398 -1.82017 0
M  V30 5027 O 462.054 1.57116 -1.48807 0
M  V30 5028 C 462.649 -1.35187 -3.1066 0
M  V30 5029 C 461.208 -1.12472 -3.59203 0
M  V30 5030 C 460.355 -1.45283 -2.36195 0
M  V30 5031 H 463.306 -1.19275 -1.04686 0
M  V30 5032 H 463.327 -0.746408 -3.73107 0
M  V30 5033 H 462.839 -2.4296 -3.02642 0
M  V30 5034 H 460.94 -0.0649983 -3.72543 0
M  V30 5035 H 461.053 -1.81016 -4.43588 0
M  V30 5036 H 459.417 -0.872034 -2.39307 0
M  V30 5037 H 460.2 -2.54129 -2.30811 0
M  V30 5038 N 462.645 1.35699 -0.801477 0
M  V30 5039 C 463.575 2.32436 -0.222658 0
M  V30 5040 C 464.556 1.5723 0.649057 0
M  V30 5041 O 465.741 1.85324 0.580387 0
M  V30 5042 C 462.871 3.41469 0.633719 0
M  V30 5043 C 461.825 4.27774 -0.139083 0
M  V30 5044 C 461.151 5.28082 0.838666 0
M  V30 5045 C 462.451 5.04946 -1.33517 0
M  V30 5046 H 464.145 2.81094 -1.03086 0
M  V30 5047 H 461.691 1.35146 -0.497155 0
M  V30 5048 H 463.644 4.08143 1.04868 0
M  V30 5049 H 462.368 2.91408 1.47475 0
M  V30 5050 H 461.027 3.62673 -0.535156 0
M  V30 5051 H 460.675 4.7429 1.67506 0
M  V30 5052 H 460.375 5.86695 0.32594 0
M  V30 5053 H 461.899 5.97628 1.25194 0
M  V30 5054 H 463.313 5.64593 -0.995349 0
M  V30 5055 H 461.71 5.7303 -1.78202 0
M  V30 5056 H 462.78 4.35886 -2.12442 0
M  V30 5057 N 464.123 0.554532 1.47522 0
M  V30 5058 C 465.353 0.0342074 2.06572 0
M  V30 5059 C 465.761 -1.26375 1.40805 0
M  V30 5060 O 465.104 -1.7683 0.49769 0
M  V30 5061 C 465.166 -0.235096 3.5873 0
M  V30 5062 C 464.83 0.973024 4.46521 0
M  V30 5063 C 465.827 1.8779 4.848 0
M  V30 5064 C 463.512 1.18694 4.88075 0
M  V30 5065 C 465.506 2.98039 5.63428 0
M  V30 5066 C 463.193 2.29254 5.66468 0
M  V30 5067 C 464.191 3.18757 6.04055 0
M  V30 5068 O 463.879 4.27401 6.8087 0
M  V30 5069 H 463.611 0.041587 0.67472 0
M  V30 5070 H 466.165 0.766748 1.90552 0
M  V30 5071 H 464.395 -1.02191 3.72953 0
M  V30 5072 H 466.084 -0.700477 3.9981 0
M  V30 5073 H 466.85 1.72467 4.53299 0
M  V30 5074 H 462.729 0.49947 4.58286 0
M  V30 5075 H 466.273 3.67926 5.92685 0
M  V30 5076 H 462.17 2.4455 5.97382 0
M  V30 5077 H 462.938 4.25415 6.9926 0
M  V30 5078 N 465.601 -1.54893 0.290851 0
M  V30 5079 C 466.549 -2.24579 -0.605576 0
M  V30 5080 C 467.543 -1.24824 -1.14522 0
M  V30 5081 O 468.749 -1.42706 -1.09704 0
M  V30 5082 H 465.124 -0.720946 -0.213872 0
M  V30 5083 H 467.095 -2.984 0.0048173 0
M  V30 5084 C 465.844 -2.99224 -1.77088 0
M  V30 5085 H 465.167 -3.75782 -1.36484 0
M  V30 5086 H 466.607 -3.51281 -2.3744 0
M  V30 5087 C 465.066 -2.05602 -2.66888 0
M  V30 5088 O 465.596 -1.61745 -3.67698 0
M  V30 5089 N 463.802 -1.71771 -2.34399 0
M  V30 5090 H 463.349 -2.07633 -1.52468 0
M  V30 5091 H 463.307 -1.09403 -2.94751 0
M  V30 5092 N 467.08 -0.0183926 -1.57589 0
M  V30 5093 C 468.496 0.337897 -1.55982 0
M  V30 5094 C 468.696 1.73604 -1.02294 0
M  V30 5095 O 467.752 2.43589 -0.664895 0
M  V30 5096 C 469.065 0.196305 -3.00059 0
M  V30 5097 C 470.613 0.269875 -3.11834 0
M  V30 5098 C 471.088 0.157197 -4.5773 0
M  V30 5099 N 472.579 0.214521 -4.62703 0
M  V30 5100 C 473.314 0.150955 -5.73201 0
M  V30 5101 N 472.81 0.0369212 -6.9279 0
M  V30 5102 N 474.603 0.204162 -5.61729 0
M  V30 5103 H 466.754 -0.93279 -1.90821 0
M  V30 5104 H 469.017 -0.359253 -0.877292 0
M  V30 5105 H 468.723 -0.766383 -3.43248 0
M  V30 5106 H 468.597 0.970908 -3.6449 0
M  V30 5107 H 470.984 1.22302 -2.68563 0
M  V30 5108 H 471.065 -0.534918 -2.50144 0
M  V30 5109 H 470.709 -0.792479 -5.01679 0
M  V30 5110 H 470.639 0.980717 -5.17387 0
M  V30 5111 H 473.13 0.303238 -3.76681 0
M  V30 5112 H 473.443 -0.00518321 -7.728 0
M  V30 5113 H 471.788 0.0022886 -6.95 0
M  V30 5114 H 474.979 0.291575 -4.67191 0
M  V30 5115 H 475.152 0.15116 -6.47824 0
M  V30 5116 N 468.558 1.5553 0.254621 0
M  V30 5117 C 469.804 1.77262 0.985193 0
M  V30 5118 C 470.137 0.582286 1.85265 0
M  V30 5119 O 469.412 -0.419666 1.89919 0
M  V30 5120 C 469.695 3.0881 1.85225 0
M  V30 5121 C 469.548 4.38233 1.0135 0
M  V30 5122 C 470.867 3.3653 2.83612 0
M  V30 5123 H 467.986 0.644906 0.356742 0
M  V30 5124 H 470.628 1.88264 0.256236 0
M  V30 5125 H 468.778 2.99562 2.47376 0
M  V30 5126 H 470.45 4.59463 0.411269 0
M  V30 5127 H 468.693 4.32636 0.317574 0
M  V30 5128 H 469.364 5.26644 1.65379 0
M  V30 5129 H 471.84 3.45691 2.31596 0
M  V30 5130 H 470.716 4.29805 3.41407 0
M  V30 5131 H 470.977 2.57064 3.59681 0
M  V30 5132 N 470.036 -0.519951 1.48776 0
M  V30 5133 C 470.966 -1.63253 1.66945 0
M  V30 5134 C 471.947 -1.62014 0.518224 0
M  V30 5135 O 473.132 -1.79053 0.751919 0
M  V30 5136 C 470.262 -3.0181 1.71836 0
M  V30 5137 C 469.216 -3.17911 2.8656 0
M  V30 5138 C 468.542 -4.5763 2.76548 0
M  V30 5139 C 469.842 -2.99729 4.27738 0
M  V30 5140 H 471.536 -1.48302 2.6009 0
M  V30 5141 H 469.082 -0.712026 1.25165 0
M  V30 5142 H 471.035 -3.79525 1.83135 0
M  V30 5143 H 469.759 -3.17806 0.752775 0
M  V30 5144 H 468.418 -2.42616 2.74833 0
M  V30 5145 H 468.066 -4.70476 1.77937 0
M  V30 5146 H 467.766 -4.69346 3.53536 0
M  V30 5147 H 469.29 -5.37431 2.89828 0
M  V30 5148 H 470.704 -3.67228 4.40246 0
M  V30 5149 H 469.101 -3.22932 5.05801 0
M  V30 5150 H 470.171 -1.96047 4.43502 0
M  V30 5151 N 471.514 -1.37532 -0.769588 0
M  V30 5152 C 472.93 -1.18379 -1.07045 0
M  V30 5153 C 473.13 -0.0214312 -2.01489 0
M  V30 5154 O 472.186 0.637809 -2.44312 0
M  V30 5155 C 473.499 -2.50338 -1.66588 0
M  V30 5156 C 475.047 -2.56879 -1.78835 0
M  V30 5157 C 475.522 -3.88974 -2.41792 0
M  V30 5158 N 477.013 -3.90428 -2.4924 0
M  V30 5159 C 477.748 -4.89388 -2.98809 0
M  V30 5160 N 477.244 -5.98745 -3.48535 0
M  V30 5161 N 479.037 -4.76791 -2.97703 0
M  V30 5162 H 471.188 -2.11921 -0.142541 0
M  V30 5163 H 473.451 -0.939608 -0.125863 0
M  V30 5164 H 473.157 -3.35767 -1.0466 0
M  V30 5165 H 473.031 -2.67583 -2.65856 0
M  V30 5166 H 475.418 -1.71856 -2.39895 0
M  V30 5167 H 475.499 -2.43516 -0.783166 0
M  V30 5168 H 475.143 -4.74412 -1.81371 0
M  V30 5169 H 475.073 -3.99641 -3.4292 0
M  V30 5170 H 477.564 -3.11433 -2.14052 0
M  V30 5171 H 477.877 -6.70205 -3.84767 0
M  V30 5172 H 476.222 -6.02387 -3.46634 0
M  V30 5173 H 479.413 -3.90478 -2.58157 0
M  V30 5174 H 479.586 -5.54069 -3.36024 0
M  V30 5175 N 472.992 0.995999 -1.22138 0
M  V30 5176 C 474.24 1.73167 -1.042 0
M  V30 5177 C 474.561 1.90329 0.42423 0
M  V30 5178 O 473.831 1.4607 1.30539 0
M  V30 5179 H 472.411 0.641593 -0.38258 0
M  V30 5180 H 475.073 1.19974 -1.53598 0
M  V30 5181 H 474.169 2.72734 -1.51731 0
M  V30 5182 N 474.47 1.03057 1.19235 0
M  V30 5183 C 475.4 0.633497 2.24742 0
M  V30 5184 C 476.381 -0.358335 1.66283 0
M  V30 5185 O 477.566 -0.240676 1.92703 0
M  V30 5186 C 474.696 -0.0147648 3.47297 0
M  V30 5187 C 473.65 0.899527 4.18441 0
M  V30 5188 C 472.976 0.116281 5.34574 0
M  V30 5189 C 474.276 2.21404 4.73051 0
M  V30 5190 H 475.97 1.5155 2.58211 0
M  V30 5191 H 473.516 0.73014 1.24117 0
M  V30 5192 H 475.469 -0.304202 4.20301 0
M  V30 5193 H 474.193 -0.931577 3.13032 0
M  V30 5194 H 472.852 1.17319 3.47321 0
M  V30 5195 H 472.5 -0.802619 4.96555 0
M  V30 5196 H 472.2 0.725293 5.83107 0
M  V30 5197 H 473.724 -0.166376 6.10373 0
M  V30 5198 H 475.138 1.98601 5.37802 0
M  V30 5199 H 473.535 2.77512 5.32078 0
M  V30 5200 H 474.605 2.86752 3.91026 0
M  V30 5201 N 475.948 -1.35272 0.808662 0
M  V30 5202 C 477.178 -2.02652 0.401953 0
M  V30 5203 C 477.586 -1.6108 -0.992462 0
M  V30 5204 O 476.929 -0.804984 -1.65123 0
M  V30 5205 C 476.991 -3.57174 0.408246 0
M  V30 5206 C 476.655 -4.22019 1.75353 0
M  V30 5207 C 477.652 -4.43552 2.71215 0
M  V30 5208 C 475.337 -4.59093 2.03811 0
M  V30 5209 C 477.331 -5.01264 3.93717 0
M  V30 5210 C 475.018 -5.16519 3.26576 0
M  V30 5211 C 476.016 -5.37546 4.21347 0
M  V30 5212 O 475.704 -5.93761 5.41944 0
M  V30 5213 H 475.436 -0.656495 0.161216 0
M  V30 5214 H 477.99 -1.73829 1.0942 0
M  V30 5215 H 476.22 -3.85197 -0.340608 0
M  V30 5216 H 477.909 -4.05893 0.0235623 0
M  V30 5217 H 478.675 -4.15288 2.50522 0
M  V30 5218 H 474.554 -4.42039 1.30854 0
M  V30 5219 H 478.098 -5.17592 4.67701 0
M  V30 5220 H 473.995 -5.4421 3.47139 0
M  V30 5221 H 474.763 -6.1221 5.43269 0
M  V30 5222 N 477.426 -0.562348 -1.47226 0
M  V30 5223 C 478.837 -0.130325 -1.86245 0
M  V30 5224 C 479.188 1.30128 -1.46838 0
M  V30 5225 O 478.313 1.97974 -0.873805 0
M  V30 5226 C 478.908 -0.229738 -3.3802 0
M  V30 5227 C 477.467 0.14728 -3.76112 0
M  V30 5228 C 476.614 -0.574971 -2.71274 0
M  V30 5229 H 479.565 -0.771773 -1.3867 0
M  V30 5230 H 479.586 0.550316 -3.76499 0
M  V30 5231 H 479.098 -1.27178 -3.66671 0
M  V30 5232 H 477.199 1.19023 -3.53078 0
M  V30 5233 H 477.312 -0.214858 -4.78618 0
M  V30 5234 H 475.676 -0.0174756 -2.54694 0
M  V30 5235 H 476.459 -1.61827 -3.02766 0
M  V30 5236 N 478.904 1.54736 -0.299062 0
M  V30 5237 C 480.315 1.8569 0.193971 0
M  V30 5238 C 480.666 1.22101 1.53577 0
M  V30 5239 O 479.791 0.51799 2.10109 0
M  V30 5240 C 480.386 3.36895 0.358733 0
M  V30 5241 C 478.945 3.67887 0.795986 0
M  V30 5242 C 478.092 2.77131 -0.096807 0
M  V30 5243 H 481.043 1.49934 -0.520134 0
M  V30 5244 H 481.064 3.61294 1.19361 0
M  V30 5245 H 480.576 3.83148 -0.617998 0
M  V30 5246 H 478.677 3.27151 1.78334 0
M  V30 5247 H 478.79 4.75114 0.616718 0
M  V30 5248 H 477.154 2.51153 0.423581 0
M  V30 5249 H 477.937 3.26204 -1.06986 0
M  V30 5250 N 480.382 0.0267497 1.57577 0
M  V30 5251 C 481.63 -0.651116 1.91324 0
M  V30 5252 C 481.951 -1.72804 0.90353 0
M  V30 5253 O 481.221 -1.95822 -0.0552946 0
M  V30 5254 H 479.801 -0.243491 0.706202 0
M  V30 5255 H 482.463 0.0739935 1.94759 0
M  V30 5256 H 481.559 -1.10536 2.9187 0
M  V30 5257 N 481.861 -1.55662 -0.24637 0
M  V30 5258 C 483.086 -1.81914 -0.996093 0
M  V30 5259 C 483.511 -0.603875 -1.78143 0
M  V30 5260 O 482.869 0.447091 -1.75701 0
M  V30 5261 C 482.917 -3.05908 -1.90925 0
M  V30 5262 O 482.021 -2.82861 -3.00105 0
M  V30 5263 H 481.362 -0.600481 -0.283406 0
M  V30 5264 H 483.892 -2.02848 -0.267199 0
M  V30 5265 H 483.902 -3.35356 -2.3238 0
M  V30 5266 H 482.577 -3.93999 -1.33183 0
M  V30 5267 H 481.154 -2.64583 -2.62775 0
M  V30 5268 N 483.339 0.512053 -1.4905 0
M  V30 5269 C 484.567 1.29116 -1.61669 0
M  V30 5270 C 484.982 1.86655 -0.283787 0
M  V30 5271 O 484.339 1.67293 0.729331 0
M  V30 5272 C 484.39 2.4293 -2.67707 0
M  V30 5273 O 484.111 1.87758 -3.95826 0
M  V30 5274 C 485.612 3.34476 -2.90931 0
M  V30 5275 H 482.832 0.392009 -0.544583 0
M  V30 5276 H 485.376 0.615881 -1.95006 0
M  V30 5277 H 483.531 3.06308 -2.37179 0
M  V30 5278 H 483.945 2.62393 -4.54148 0
M  V30 5279 H 485.419 4.10642 -3.68886 0
M  V30 5280 H 485.896 3.90801 -2.00427 0
M  V30 5281 H 486.502 2.76874 -3.22832 0
M  V30 5282 N 484.817 1.37938 0.762283 0
M  V30 5283 C 486.063 1.33866 1.52341 0
M  V30 5284 C 486.396 -0.0738961 1.94059 0
M  V30 5285 O 485.671 -1.03326 1.64785 0
M  V30 5286 C 485.954 2.28644 2.78197 0
M  V30 5287 C 485.807 3.78722 2.42672 0
M  V30 5288 C 487.126 2.21702 3.80179 0
M  V30 5289 H 484.245 0.487593 0.55265 0
M  V30 5290 H 486.887 1.68717 0.873767 0
M  V30 5291 H 485.037 1.99055 3.33631 0
M  V30 5292 H 486.709 4.18948 1.93081 0
M  V30 5293 H 484.952 3.96827 1.75244 0
M  V30 5294 H 485.623 4.40486 3.3268 0
M  V30 5295 H 488.099 2.47805 3.34263 0
M  V30 5296 H 486.975 2.90143 4.65949 0
M  V30 5297 H 487.236 1.21301 4.25133 0
M  V30 5298 N 486.295 -0.989507 1.22664 0
M  V30 5299 C 487.242 -2.08024 0.999733 0
M  V30 5300 C 488.212 -1.65909 -0.0797047 0
M  V30 5301 O 489.397 -1.90669 0.0705715 0
M  V30 5302 C 486.537 -3.40067 0.587234 0
M  V30 5303 C 485.65 -3.95505 1.73781 0
M  V30 5304 C 484.785 -5.15722 1.27297 0
M  V30 5305 C 483.824 -5.63305 2.39488 0
M  V30 5306 N 482.961 -6.74758 1.94026 0
M  V30 5307 H 487.801 -2.26768 1.9334 0
M  V30 5308 H 485.338 -1.11171 0.963297 0
M  V30 5309 H 487.296 -4.15899 0.329227 0
M  V30 5310 H 485.926 -3.21314 -0.309426 0
M  V30 5311 H 484.978 -3.16513 2.11006 0
M  V30 5312 H 486.29 -4.26797 2.58158 0
M  V30 5313 H 485.444 -5.98854 0.972546 0
M  V30 5314 H 484.183 -4.86061 0.399445 0
M  V30 5315 H 483.188 -4.78759 2.70315 0
M  V30 5316 H 484.413 -5.94988 3.27362 0
M  V30 5317 H 482.359 -6.46874 1.09041 0
M  V30 5318 H 482.276 -7.05386 2.71968 0
M  V30 5319 H 483.544 -7.61387 1.67062 0
M  V30 5320 N 487.773 -1.03688 -1.18687 0
M  V30 5321 C 489.184 -0.766488 -1.70241 0
M  V30 5322 C 489.535 0.713052 -1.82784 0
M  V30 5323 O 488.66 1.55529 -1.50465 0
M  V30 5324 C 489.255 -1.38475 -3.09209 0
M  V30 5325 C 487.814 -1.16276 -3.5799 0
M  V30 5326 C 486.961 -1.4778 -2.34641 0
M  V30 5327 H 489.912 -1.20378 -1.03415 0
M  V30 5328 H 489.933 -0.785939 -3.72295 0
M  V30 5329 H 489.445 -2.46157 -3.00048 0
M  V30 5330 H 487.546 -0.104508 -3.72453 0
M  V30 5331 H 487.659 -1.8571 -4.41643 0
M  V30 5332 H 486.023 -0.897366 -2.38368 0
M  V30 5333 H 486.806 -2.56562 -2.28102 0
M  V30 5334 N 489.251 1.34841 -0.815825 0
M  V30 5335 C 490.214 2.27959 -0.238185 0
M  V30 5336 C 491.214 1.49983 0.579816 0
M  V30 5337 O 492.404 1.69617 0.396953 0
M  V30 5338 C 489.536 3.34314 0.666876 0
M  V30 5339 H 490.729 2.80558 -1.05958 0
M  V30 5340 H 488.282 1.44852 -0.587156 0
M  V30 5341 H 489.017 2.86916 1.5116 0
M  V30 5342 H 488.802 3.92014 0.0819106 0
M  V30 5343 H 490.292 4.0379 1.06506 0
M  V30 5344 N 490.729 0.570148 1.46925 0
M  V30 5345 C 491.975 0.0510284 2.02736 0
M  V30 5346 C 492.308 -1.3006 1.44215 0
M  V30 5347 O 491.583 -1.84932 0.602521 0
M  V30 5348 C 491.866 -0.028215 3.60089 0
M  V30 5349 C 491.719 1.35142 4.29018 0
M  V30 5350 C 493.038 -0.735181 4.33916 0
M  V30 5351 H 490.157 0.0200178 0.736728 0
M  V30 5352 H 492.799 0.73493 1.75211 0
M  V30 5353 H 490.949 -0.610648 3.83671 0
M  V30 5354 H 492.621 1.97806 4.16738 0
M  V30 5355 H 490.864 1.9226 3.88868 0
M  V30 5356 H 491.535 1.24857 5.37694 0
M  V30 5357 H 494.011 -0.240519 4.15404 0
M  V30 5358 H 492.887 -0.759622 5.43618 0
M  V30 5359 H 493.148 -1.79397 4.04066 0
M  V30 5360 N 492.207 -1.54576 0.307264 0
M  V30 5361 C 493.17 -2.22423 -0.553224 0
M  V30 5362 C 494.17 -1.21231 -1.05639 0
M  V30 5363 O 495.36 -1.45923 -0.951419 0
M  V30 5364 C 492.492 -2.91552 -1.76664 0
M  V30 5365 H 493.685 -2.99874 0.0396484 0
M  V30 5366 H 491.238 -1.56192 0.0581629 0
M  V30 5367 H 491.973 -2.18196 -2.39918 0
M  V30 5368 H 491.758 -3.65738 -1.41343 0
M  V30 5369 H 493.248 -3.43292 -2.37783 0
M  V30 5370 N 493.685 -0.035106 -1.57561 0
M  V30 5371 C 494.615 0.942993 -2.13612 0
M  V30 5372 C 495.596 1.33531 -1.05373 0
M  V30 5373 O 496.781 1.41287 -1.33235 0
M  V30 5374 C 493.911 2.22332 -2.66807 0
M  V30 5375 C 492.865 1.97156 -3.79886 0
M  V30 5376 C 492.191 3.31506 -4.19533 0
M  V30 5377 C 493.491 1.30596 -5.05709 0
M  V30 5378 H 495.185 0.476179 -2.95589 0
M  V30 5379 H 492.731 0.227602 -1.4219 0
M  V30 5380 H 494.684 2.91142 -3.04654 0
M  V30 5381 H 493.408 2.7119 -1.81999 0
M  V30 5382 H 492.067 1.30763 -3.42486 0
M  V30 5383 H 491.715 3.78134 -3.31698 0
M  V30 5384 H 491.415 3.15465 -4.95738 0
M  V30 5385 H 492.939 4.01574 -4.59968 0
M  V30 5386 H 494.353 1.89416 -5.41105 0
M  V30 5387 H 492.75 1.24934 -5.86951 0
M  V30 5388 H 493.82 0.279742 -4.84092 0
M  V30 5389 N 495.163 1.55791 0.238111 0
M  V30 5390 C 496.126 1.90239 1.27835 0
M  V30 5391 C 497.126 0.779552 1.4064 0
M  V30 5392 O 498.316 1.04747 1.3919 0
M  V30 5393 C 495.448 2.13859 2.65475 0
M  V30 5394 H 496.641 2.83262 0.985034 0
M  V30 5395 H 494.194 1.48818 0.477799 0
M  V30 5396 H 494.929 1.23334 2.99932 0
M  V30 5397 H 494.714 2.95643 2.57561 0
M  V30 5398 H 496.204 2.41664 3.40571 0
M  V30 5399 N 496.642 -0.504142 1.49319 0
M  V30 5400 C 497.89 -1.25598 1.58334 0
M  V30 5401 C 498.211 -1.93114 0.270538 0
M  V30 5402 O 497.481 -1.82585 -0.709891 0
M  V30 5403 H 496.061 -0.466571 0.58337 0
M  V30 5404 H 498.723 -0.584547 1.85928 0
M  V30 5405 H 497.819 -2.02159 2.37778 0
M  V30 5406 N 498.12 -1.38341 -0.754957 0
M  V30 5407 C 499.05 -1.38176 -1.88227 0
M  V30 5408 C 500.031 -0.247873 -1.68284 0
M  V30 5409 O 501.216 -0.45075 -1.88896 0
M  V30 5410 C 498.346 -1.20471 -3.25736 0
M  V30 5411 C 497.3 -2.3105 -3.60278 0
M  V30 5412 C 496.626 -1.98452 -4.96509 0
M  V30 5413 C 497.926 -3.73305 -3.65295 0
M  V30 5414 H 499.62 -2.32512 -1.88622 0
M  V30 5415 H 497.166 -1.1192 -0.906082 0
M  V30 5416 H 499.119 -1.18982 -4.04254 0
M  V30 5417 H 497.843 -0.225965 -3.25817 0
M  V30 5418 H 496.502 -2.31723 -2.84078 0
M  V30 5419 H 496.15 -0.990641 -4.93148 0
M  V30 5420 H 495.85 -2.7251 -5.20588 0
M  V30 5421 H 497.374 -1.98578 -5.77407 0
M  V30 5422 H 498.788 -3.7467 -4.3393 0
M  V30 5423 H 497.185 -4.46557 -4.00883 0
M  V30 5424 H 498.255 -4.05719 -2.65556 0
M  V30 5425 N 499.598 0.982988 -1.23187 0
M  V30 5426 C 500.875 1.69814 -0.970707 0
M  V30 5427 C 501.255 2.04811 0.511424 0
M  V30 5428 O 500.603 1.73924 1.48198 0
M  V30 5429 C 500.813 2.94143 -1.87831 0
M  V30 5430 C 502.161 3.66712 -2.14026 0
M  V30 5431 O 503.185 3.04171 -1.8536 0
M  V30 5432 O 502.044 4.79258 -2.62629 0
M  V30 5433 H 499.138 0.741659 -0.365884 0
M  V30 5434 H 501.684 1.03844 -1.34218 0
M  V30 5435 H 500.456 2.64858 -2.88038 0
M  V30 5436 H 500.079 3.6785 -1.50905 0
M  V30 5437 N 501.076 1.04316 1.18135 0
M  V30 5438 C 502.039 0.640794 2.2006 0
M  V30 5439 C 503.039 -0.303124 1.57917 0
M  V30 5440 O 504.229 -0.0881855 1.73977 0
M  V30 5441 C 501.361 -0.060148 3.40847 0
M  V30 5442 H 502.554 1.54281 2.57172 0
M  V30 5443 H 500.107 0.836004 1.32063 0
M  V30 5444 H 500.842 -0.975845 3.0927 0
M  V30 5445 H 500.627 0.618319 3.87194 0
M  V30 5446 H 502.117 -0.328082 4.16309 0
M  V30 5447 N 502.554 -1.34406 0.822964 0
M  V30 5448 C 503.802 -1.97892 0.410245 0
M  V30 5449 C 504.123 -1.65567 -1.03017 0
M  V30 5450 O 503.393 -0.94642 -1.71522 0
M  V30 5451 H 501.973 -0.732049 0.148707 0
M  V30 5452 H 504.635 -1.64043 1.05242 0
M  V30 5453 H 503.731 -3.07579 0.529284 0
M  V30 5454 N 504.032 -0.577932 -1.46621 0
M  V30 5455 C 505.278 -0.0617793 -2.02706 0
M  V30 5456 C 505.611 1.29294 -1.44903 0
M  V30 5457 O 504.886 1.8461 -0.61232 0
M  V30 5458 C 505.169 0.00911824 -3.60099 0
M  V30 5459 C 505.022 -1.37416 -4.28295 0
M  V30 5460 C 506.341 0.712159 -4.343 0
M  V30 5461 H 503.46 -0.0239246 -0.736612 0
M  V30 5462 H 506.102 -0.744211 -1.74818 0
M  V30 5463 H 504.252 0.590292 -3.83989 0
M  V30 5464 H 505.924 -2.00013 -4.15683 0
M  V30 5465 H 504.167 -1.94319 -3.87843 0
M  V30 5466 H 504.838 -1.27707 -5.37024 0
M  V30 5467 H 507.314 0.218486 -4.15526 0
M  V30 5468 H 506.19 0.730782 -5.44014 0
M  V30 5469 H 506.451 1.77251 -4.05012 0
M  V30 5470 N 505.51 1.54411 -0.315457 0
M  V30 5471 C 506.756 2.00716 0.289972 0
M  V30 5472 C 507.089 1.2034 1.5242 0
M  V30 5473 O 506.364 0.283579 1.92422 0
M  V30 5474 C 506.647 3.54507 0.632196 0
M  V30 5475 C 506.5 4.45615 -0.61218 0
M  V30 5476 C 507.819 4.15421 1.45305 0
M  V30 5477 H 504.938 0.729637 0.10392 0
M  V30 5478 H 507.58 1.8506 -0.430427 0
M  V30 5479 H 505.73 3.67979 1.24595 0
M  V30 5480 H 507.402 4.44026 -1.25053 0
M  V30 5481 H 505.645 4.15621 -1.24264 0
M  V30 5482 H 506.316 5.51022 -0.328379 0
M  V30 5483 H 508.792 4.05474 0.934331 0
M  V30 5484 H 507.668 5.23157 1.66127 0
M  V30 5485 H 507.929 3.68223 2.44671 0
M  V30 5486 N 506.988 0.0434614 1.5754 0
M  V30 5487 C 508.216 -0.641835 1.96693 0
M  V30 5488 C 508.631 -1.64832 0.920652 0
M  V30 5489 O 507.988 -1.82247 -0.095993 0
M  V30 5490 C 508.039 -1.33557 3.35924 0
M  V30 5491 O 507.76 -0.369403 4.3654 0
M  V30 5492 C 509.261 -2.11135 3.89791 0
M  V30 5493 H 506.481 -0.176013 0.647503 0
M  V30 5494 H 509.025 0.107478 2.04217 0
M  V30 5495 H 507.18 -2.03617 3.29574 0
M  V30 5496 H 507.594 -0.863674 5.1734 0
M  V30 5497 H 509.068 -2.55107 4.89514 0
M  V30 5498 H 509.545 -2.95634 3.24803 0
M  V30 5499 H 510.151 -1.46002 3.99454 0
M  V30 5500 N 508.466 -1.55915 -0.229846 0
M  V30 5501 C 509.877 -1.68809 -0.797531 0
M  V30 5502 C 510.228 -0.643995 -1.8533 0
M  V30 5503 O 509.353 0.206492 -2.15413 0
M  V30 5504 C 509.948 -3.06043 -1.45338 0
M  V30 5505 C 508.507 -3.20819 -1.96856 0
M  V30 5506 C 507.654 -2.6472 -0.825736 0
M  V30 5507 H 510.605 -1.58699 -0.00533733 0
M  V30 5508 H 510.626 -3.01438 -2.32196 0
M  V30 5509 H 510.138 -3.82012 -0.684743 0
M  V30 5510 H 508.239 -2.49704 -2.76548 0
M  V30 5511 H 508.352 -4.27937 -2.15423 0
M  V30 5512 H 506.716 -2.22985 -1.23084 0
M  V30 5513 H 507.499 -3.43229 -0.0699019 0
M  V30 5514 N 509.944 0.496216 -1.49584 0
M  V30 5515 C 511.172 1.27394 -1.63029 0
M  V30 5516 C 511.587 1.86344 -0.303569 0
M  V30 5517 O 510.944 1.68057 0.711547 0
M  V30 5518 C 510.995 2.40077 -2.70269 0
M  V30 5519 O 510.716 1.83549 -3.97796 0
M  V30 5520 C 512.217 3.31372 -2.94462 0
M  V30 5521 H 509.437 0.386211 -0.54871 0
M  V30 5522 H 511.981 0.595163 -1.95648 0
M  V30 5523 H 510.136 3.03775 -2.40415 0
M  V30 5524 H 510.55 2.57561 -4.56905 0
M  V30 5525 H 512.024 4.06707 -3.73221 0
M  V30 5526 H 512.501 3.88654 -2.0456 0
M  V30 5527 H 513.107 2.73435 -3.25751 0
M  V30 5528 N 511.423 1.38739 0.74761 0
M  V30 5529 C 512.648 1.38702 1.54197 0
M  V30 5530 C 513.073 -0.019664 1.8809 0
M  V30 5531 O 512.431 -1.00333 1.51006 0
M  V30 5532 C 512.479 2.25492 2.814 0
M  V30 5533 O 511.583 1.67613 3.76802 0
M  V30 5534 H 510.924 0.472863 0.466151 0
M  V30 5535 H 513.454 1.82577 0.923413 0
M  V30 5536 H 513.464 2.39561 3.30264 0
M  V30 5537 H 512.139 3.27727 2.56062 0
M  V30 5538 H 510.716 1.62718 3.35526 0
M  V30 5539 N 512.901 -0.976442 1.23707 0
M  V30 5540 C 514.317 -1.24341 1.00058 0
M  V30 5541 C 514.517 -1.99315 -0.295932 0
M  V30 5542 O 513.573 -2.3123 -1.01435 0
M  V30 5543 C 514.886 -2.03909 2.21001 0
M  V30 5544 C 516.434 -2.17034 2.25534 0
M  V30 5545 C 516.909 -2.99994 3.46075 0
M  V30 5546 N 518.4 -3.07578 3.46338 0
M  V30 5547 C 519.135 -3.72104 4.36264 0
M  V30 5548 N 518.631 -4.3842 5.36432 0
M  V30 5549 N 520.424 -3.69029 4.23998 0
M  V30 5550 H 512.575 -0.47428 2.07037 0
M  V30 5551 H 514.838 -0.272167 0.908091 0
M  V30 5552 H 514.544 -1.56198 3.15111 0
M  V30 5553 H 514.418 -3.04654 2.22409 0
M  V30 5554 H 516.805 -2.63951 1.31961 0
M  V30 5555 H 516.886 -1.15664 2.28156 0
M  V30 5556 H 516.53 -2.53772 4.39957 0
M  V30 5557 H 516.46 -4.01541 3.40694 0
M  V30 5558 H 518.951 -2.60397 2.73865 0
M  V30 5559 H 519.264 -4.85447 6.013 0
M  V30 5560 H 517.609 -4.37116 5.40328 0
M  V30 5561 H 520.8 -3.16392 3.44984 0
M  V30 5562 H 520.973 -4.19034 4.94282 0
M  V30 5563 N 514.379 -1.04941 -1.1758 0
M  V30 5564 C 515.625 -0.759112 -1.88057 0
M  V30 5565 C 515.958 0.711918 -1.8068 0
M  V30 5566 O 515.233 1.52035 -1.21308 0
M  V30 5567 C 515.516 -1.237 -3.38187 0
M  V30 5568 C 515.369 -2.77078 -3.54327 0
M  V30 5569 C 516.688 -0.834014 -4.32125 0
M  V30 5570 H 513.807 -0.277237 -0.682868 0
M  V30 5571 H 516.449 -1.30296 -1.38286 0
M  V30 5572 H 514.599 -0.774337 -3.80705 0
M  V30 5573 H 516.271 -3.31449 -3.20842 0
M  V30 5574 H 514.514 -3.16477 -2.96689 0
M  V30 5575 H 515.185 -3.05577 -4.59703 0
M  V30 5576 H 517.661 -1.23228 -3.97434 0
M  V30 5577 H 516.537 -1.19603 -5.35711 0
M  V30 5578 H 516.798 0.262195 -4.41322 0
M  V30 5579 N 515.857 1.33968 -0.830081 0
M  V30 5580 C 517.104 1.98063 -0.421566 0
M  V30 5581 C 517.432 1.65787 1.0171 0
M  V30 5582 O 516.687 0.925348 1.72441 0
M  V30 5583 C 516.986 3.52679 -0.57898 0
M  V30 5584 C 516.652 4.04884 -1.98443 0
M  V30 5585 C 515.314 4.18852 -2.36888 0
M  V30 5586 C 517.666 4.32879 -2.90285 0
M  V30 5587 C 514.994 4.58145 -3.66497 0
M  V30 5588 C 517.346 4.7362 -4.19364 0
M  V30 5589 C 516.01 4.85794 -4.57778 0
M  V30 5590 H 515.28 0.724765 -0.154262 0
M  V30 5591 H 517.927 1.59792 -1.05541 0
M  V30 5592 H 516.232 3.91556 0.138219 0
M  V30 5593 H 517.929 4.00261 -0.243317 0
M  V30 5594 H 514.519 3.9448 -1.67581 0
M  V30 5595 H 518.703 4.21619 -2.61823 0
M  V30 5596 H 513.959 4.65762 -3.96075 0
M  V30 5597 H 518.133 4.9424 -4.90612 0
M  V30 5598 H 515.76 5.15998 -5.58256 0
M  V30 5599 N 517.335 0.585699 1.46312 0
M  V30 5600 C 518.612 0.00542031 1.95599 0
M  V30 5601 C 518.992 -1.45619 1.52834 0
M  V30 5602 O 518.34 -2.14759 0.780446 0
M  V30 5603 C 518.55 0.180601 3.48532 0
M  V30 5604 C 519.898 0.049979 4.24571 0
M  V30 5605 O 520.922 0.109589 3.56031 0
M  V30 5606 O 519.781 -0.0832226 5.46437 0
M  V30 5607 H 516.875 -0.0481281 0.825598 0
M  V30 5608 H 519.421 0.654227 1.56582 0
M  V30 5609 H 518.193 1.19657 3.72556 0
M  V30 5610 H 517.816 -0.504498 3.94386 0
M  V30 5611 N 518.813 -1.54241 0.323641 0
M  V30 5612 C 520.224 -1.85975 -0.164405 0
M  V30 5613 C 520.575 -1.24529 -1.51615 0
M  V30 5614 O 519.7 -0.551351 -2.09258 0
M  V30 5615 C 520.295 -3.37424 -0.305091 0
M  V30 5616 C 518.854 -3.69107 -0.737358 0
M  V30 5617 C 518.001 -2.76942 0.140884 0
M  V30 5618 H 520.952 -1.49088 0.543922 0
M  V30 5619 H 520.973 -3.63147 -1.13598 0
M  V30 5620 H 520.485 -3.82116 0.678876 0
M  V30 5621 H 518.586 -3.29947 -1.73107 0
M  V30 5622 H 518.699 -4.76035 -0.541053 0
M  V30 5623 H 517.063 -2.51795 -0.383572 0
M  V30 5624 H 517.846 -3.24461 1.12162 0
M  V30 5625 N 520.291 -0.0518155 -1.57515 0
M  V30 5626 C 521.539 0.620595 -1.92336 0
M  V30 5627 C 521.86 1.71345 -0.930907 0
M  V30 5628 O 521.13 1.95885 0.0241341 0
M  V30 5629 H 519.71 0.232226 -0.709986 0
M  V30 5630 H 522.372 -0.104969 -1.94617 0
M  V30 5631 H 521.468 1.05879 -2.93592 0
M  V30 5632 N 521.769 1.56035 0.221574 0
M  V30 5633 C 522.999 1.82864 0.961468 0
M  V30 5634 C 523.407 0.628703 1.78449 0
M  V30 5635 O 522.75 -0.412109 1.79018 0
M  V30 5636 C 522.812 3.03425 1.92804 0
M  V30 5637 C 522.476 4.38429 1.28954 0
M  V30 5638 C 523.473 5.15441 0.679431 0
M  V30 5639 C 521.158 4.85151 1.30131 0
M  V30 5640 C 523.152 6.37337 0.0896148 0
M  V30 5641 C 520.839 6.06989 0.707651 0
M  V30 5642 C 521.837 6.82923 0.102855 0
M  V30 5643 O 521.525 8.02456 -0.48157 0
M  V30 5644 H 521.257 0.611883 0.28736 0
M  V30 5645 H 523.811 2.0397 0.241932 0
M  V30 5646 H 522.041 2.78138 2.68656 0
M  V30 5647 H 523.73 3.17127 2.53348 0
M  V30 5648 H 524.496 4.80452 0.662661 0
M  V30 5649 H 520.375 4.26021 1.76145 0
M  V30 5650 H 523.919 6.96547 -0.383069 0
M  V30 5651 H 519.816 6.41451 0.721834 0
M  V30 5652 H 520.584 8.17636 -0.375887 0
M  V30 5653 N 523.247 -0.488276 1.49845 0
M  V30 5654 C 524.477 -1.26344 1.63465 0
M  V30 5655 C 524.885 -1.86637 0.310379 0
M  V30 5656 O 524.228 -1.69184 -0.715712 0
M  V30 5657 C 524.29 -2.42407 2.65479 0
M  V30 5658 C 523.954 -2.02886 4.09495 0
M  V30 5659 C 524.951 -1.56124 4.95904 0
M  V30 5660 C 522.636 -2.12131 4.55308 0
M  V30 5661 C 524.63 -1.19129 6.26169 0
M  V30 5662 C 522.317 -1.74747 5.85582 0
M  V30 5663 C 523.315 -1.28322 6.70837 0
M  V30 5664 O 523.003 -0.914491 7.98682 0
M  V30 5665 H 522.735 -0.388921 0.552916 0
M  V30 5666 H 525.289 -0.591288 1.96705 0
M  V30 5667 H 523.519 -3.12739 2.27445 0
M  V30 5668 H 525.208 -3.04409 2.68495 0
M  V30 5669 H 525.974 -1.48417 4.61733 0
M  V30 5670 H 521.853 -2.47217 3.89107 0
M  V30 5671 H 525.397 -0.828211 6.92666 0
M  V30 5672 H 521.294 -1.82109 6.19279 0
M  V30 5673 H 522.062 -1.04485 8.11804 0
M  V30 5674 N 524.725 -1.39134 -0.740242 0
M  V30 5675 C 525.657 -1.33332 -1.86428 0
M  V30 5676 C 526.67 -0.243042 -1.60976 0
M  V30 5677 O 527.859 -0.501608 -1.71307 0
M  V30 5678 C 524.959 -1.04626 -3.22346 0
M  V30 5679 C 524.132 -2.24826 -3.75196 0
M  V30 5680 C 523.191 -1.92659 -4.89662 0
M  V30 5681 O 522.217 -2.6529 -5.03597 0
M  V30 5682 N 523.419 -0.889575 -5.73643 0
M  V30 5683 H 526.184 -2.30196 -1.91911 0
M  V30 5684 H 523.745 -1.33168 -0.920756 0
M  V30 5685 H 525.737 -0.811347 -3.96484 0
M  V30 5686 H 524.307 -0.165129 -3.12164 0
M  V30 5687 H 523.527 -2.64301 -2.9247 0
M  V30 5688 H 524.815 -3.05015 -4.07239 0
M  V30 5689 H 524.213 -0.287529 -5.64969 0
M  V30 5690 H 522.77 -0.714557 -6.47871 0
M  V30 5691 N 526.204 0.969867 -1.24223 0
M  V30 5692 C 527.134 2.08191 -1.05729 0
M  V30 5693 C 528.115 1.70075 0.0290765 0
M  V30 5694 O 529.3 1.93712 -0.137583 0
M  V30 5695 C 526.43 3.40991 -0.658995 0
M  V30 5696 C 525.384 3.93054 -1.69389 0
M  V30 5697 C 524.71 5.22171 -1.15072 0
M  V30 5698 C 526.01 4.21137 -3.08935 0
M  V30 5699 H 527.704 2.23921 -1.98746 0
M  V30 5700 H 525.25 1.07602 -0.956967 0
M  V30 5701 H 527.203 4.18221 -0.51662 0
M  V30 5702 H 525.927 3.25155 0.30686 0
M  V30 5703 H 524.586 3.17977 -1.82444 0
M  V30 5704 H 524.234 5.02694 -0.175539 0
M  V30 5705 H 523.934 5.57973 -1.84229 0
M  V30 5706 H 525.458 6.02013 -1.02042 0
M  V30 5707 H 526.872 4.8908 -2.99121 0
M  V30 5708 H 525.269 4.68163 -3.75425 0
M  V30 5709 H 526.339 3.27996 -3.57137 0
M  V30 5710 N 527.682 1.05563 1.17022 0
M  V30 5711 C 529.093 0.793475 1.69 0
M  V30 5712 C 529.444 -0.683882 1.83895 0
M  V30 5713 O 528.569 -1.53116 1.5292 0
M  V30 5714 C 529.164 1.43376 3.06967 0
M  V30 5715 C 527.723 1.21956 3.56095 0
M  V30 5716 C 526.87 1.51494 2.3226 0
M  V30 5717 H 529.821 1.22008 1.01487 0
M  V30 5718 H 529.842 0.845068 3.70997 0
M  V30 5719 H 529.354 2.50899 2.96093 0
M  V30 5720 H 527.455 0.163749 3.7224 0
M  V30 5721 H 527.568 1.92713 4.38633 0
M  V30 5722 H 525.932 0.935175 2.3691 0
M  V30 5723 H 526.715 2.60159 2.23992 0
M  V30 5724 N 529.16 -1.33526 0.837174 0
M  V30 5725 C 530.108 -2.31168 0.257698 0
M  V30 5726 C 531.102 -1.5806 -0.609388 0
M  V30 5727 O 532.308 -1.72941 -0.499139 0
M  V30 5728 H 528.683 -0.74922 0.0646058 0
M  V30 5729 H 530.654 -2.77552 1.09578 0
M  V30 5730 C 529.403 -3.4326 -0.553887 0
M  V30 5731 H 528.726 -3.99665 0.104008 0
M  V30 5732 H 530.166 -4.13782 -0.925219 0
M  V30 5733 C 528.625 -2.88965 -1.73207 0
M  V30 5734 O 529.155 -2.85013 -2.83073 0
M  V30 5735 N 527.361 -2.45596 -1.55342 0
M  V30 5736 H 526.908 -2.49009 -0.659705 0
M  V30 5737 H 526.866 -2.0962 -2.34322 0
M  V30 5738 N 530.638 -0.59345 -1.46 0
M  V30 5739 C 531.868 -0.0889642 -2.06408 0
M  V30 5740 C 532.276 1.22597 -1.44106 0
M  V30 5741 O 531.619 1.75448 -0.544398 0
M  V30 5742 C 531.681 0.139902 -3.59228 0
M  V30 5743 C 531.345 -1.09107 -4.43784 0
M  V30 5744 C 532.342 -2.00577 -4.79651 0
M  V30 5745 C 530.027 -1.31593 -4.84756 0
M  V30 5746 C 532.021 -3.12873 -5.55328 0
M  V30 5747 C 529.708 -2.44192 -5.60191 0
M  V30 5748 C 530.706 -3.34661 -5.95392 0
M  V30 5749 O 530.394 -4.45302 -6.69299 0
M  V30 5750 H 530.126 -0.0594613 -0.67338 0
M  V30 5751 H 532.68 -0.817 -1.88452 0
M  V30 5752 H 530.91 0.922672 -3.75531 0
M  V30 5753 H 532.599 0.594228 -4.01527 0
M  V30 5754 H 533.365 -1.84425 -4.48567 0
M  V30 5755 H 529.244 -0.620801 -4.56801 0
M  V30 5756 H 532.788 -3.83511 -5.82722 0
M  V30 5757 H 528.685 -2.60303 -5.90688 0
M  V30 5758 H 529.453 -4.43805 -6.87735 0
M  V30 5759 N 532.116 1.54067 -0.331816 0
M  V30 5760 C 533.393 1.92915 0.322955 0
M  V30 5761 C 533.773 1.26225 1.69205 0
M  V30 5762 O 533.121 0.408919 2.24811 0
M  V30 5763 C 533.331 3.46619 0.406946 0
M  V30 5764 C 534.679 4.19386 0.663339 0
M  V30 5765 O 535.703 3.5282 0.489536 0
M  V30 5766 O 534.562 5.37288 0.999193 0
M  V30 5767 H 531.656 0.805808 0.186016 0
M  V30 5768 H 534.202 1.65342 -0.382135 0
M  V30 5769 H 532.974 3.87354 -0.554287 0
M  V30 5770 H 532.597 3.80324 1.15929 0
M  V30 5771 N 533.594 0.0601682 1.57485 0
M  V30 5772 C 534.544 -0.920969 2.08572 0
M  V30 5773 C 535.528 -1.26617 0.992827 0
M  V30 5774 O 536.72 -1.24708 1.25606 0
M  V30 5775 C 533.849 -2.19267 2.64153 0
M  V30 5776 C 532.935 -1.87447 3.80427 0
M  V30 5777 N 533.326 -1.26025 4.89848 0
M  V30 5778 C 531.624 -2.17265 3.89502 0
M  V30 5779 C 532.325 -1.12036 5.70809 0
M  V30 5780 N 531.301 -1.62624 5.18705 0
M  V30 5781 H 535.103 -0.441561 2.90564 0
M  V30 5782 H 532.617 -0.144043 1.6176 0
M  V30 5783 H 534.614 -2.90462 2.99061 0
M  V30 5784 H 533.274 -2.67806 1.83603 0
M  V30 5785 H 534.285 -0.931336 5.09457 0
M  V30 5786 H 530.962 -2.68262 3.19909 0
M  V30 5787 H 532.352 -0.642783 6.68818 0
M  V30 5788 N 535.072 -1.5615 -0.213296 0
M  V30 5789 C 536.019 -1.93086 -1.26437 0
M  V30 5790 C 536.989 -0.789086 -1.4616 0
M  V30 5791 O 538.174 -1.04569 -1.59593 0
M  V30 5792 C 535.314 -2.26003 -2.608 0
M  V30 5793 C 534.427 -3.53156 -2.48807 0
M  V30 5794 C 533.562 -3.7548 -3.7575 0
M  V30 5795 C 532.601 -4.96119 -3.58514 0
M  V30 5796 N 531.738 -5.14791 -4.77425 0
M  V30 5797 H 536.578 -2.82707 -0.942376 0
M  V30 5798 H 534.115 -1.39919 -0.454001 0
M  V30 5799 H 536.073 -2.431 -3.39055 0
M  V30 5800 H 534.703 -1.39546 -2.91079 0
M  V30 5801 H 533.755 -3.44207 -1.61944 0
M  V30 5802 H 535.067 -4.41565 -2.31996 0
M  V30 5803 H 534.221 -3.92718 -4.62447 0
M  V30 5804 H 532.96 -2.85368 -3.95495 0
M  V30 5805 H 531.965 -4.78823 -2.70201 0
M  V30 5806 H 533.19 -5.87724 -3.40231 0
M  V30 5807 H 531.136 -4.27623 -4.97468 0
M  V30 5808 H 531.053 -5.97347 -4.63371 0
M  V30 5809 H 532.321 -5.36471 -5.65525 0
M  V30 5810 N 536.55 0.480323 -1.50102 0
M  V30 5811 C 537.78 1.25475 -1.64133 0
M  V30 5812 C 538.188 1.8647 -0.320272 0
M  V30 5813 O 537.531 1.69561 0.70673 0
M  V30 5814 C 537.593 2.40996 -2.6676 0
M  V30 5815 C 537.257 2.00711 -4.10565 0
M  V30 5816 C 538.254 1.53492 -4.96725 0
M  V30 5817 C 535.939 2.09714 -4.56427 0
M  V30 5818 C 537.933 1.15806 -6.26792 0
M  V30 5819 C 535.62 1.7164 -5.86501 0
M  V30 5820 C 536.618 1.24763 -6.71508 0
M  V30 5821 O 536.306 0.872122 -7.99155 0
M  V30 5822 H 536.038 0.385983 -0.554971 0
M  V30 5823 H 538.592 0.580848 -1.97016 0
M  V30 5824 H 536.822 3.11528 -2.291 0
M  V30 5825 H 538.511 3.02981 -2.70106 0
M  V30 5826 H 539.277 1.45966 -4.62514 0
M  V30 5827 H 535.156 2.4515 -3.90413 0
M  V30 5828 H 538.7 0.791465 -6.93096 0
M  V30 5829 H 534.597 1.78822 -6.20236 0
M  V30 5830 H 535.365 1.00178 -8.12346 0
M  V30 5831 N 538.028 1.39524 0.732853 0
M  V30 5832 C 539.444 1.21176 1.03868 0
M  V30 5833 C 539.644 0.0748448 2.01361 0
M  V30 5834 O 538.7 -0.57281 2.45917 0
M  V30 5835 C 540.013 2.54667 1.59892 0
M  V30 5836 C 541.561 2.6153 1.71962 0
M  V30 5837 C 542.036 3.95248 2.31394 0
M  V30 5838 N 543.527 3.96899 2.38801 0
M  V30 5839 C 544.262 4.97138 2.85729 0
M  V30 5840 N 543.758 6.07775 3.32537 0
M  V30 5841 N 545.551 4.84516 2.84957 0
M  V30 5842 H 537.702 2.12225 0.086304 0
M  V30 5843 H 539.965 0.942614 0.100907 0
M  V30 5844 H 539.671 3.38423 0.95721 0
M  V30 5845 H 539.545 2.74538 2.58668 0
M  V30 5846 H 541.932 1.78156 2.35254 0
M  V30 5847 H 542.013 2.45507 0.718327 0
M  V30 5848 H 541.657 4.79054 1.68729 0
M  V30 5849 H 541.587 4.08593 3.32204 0
M  V30 5850 H 544.078 3.16998 2.05719 0
M  V30 5851 H 544.391 6.8017 3.66862 0
M  V30 5852 H 542.736 6.11366 3.30541 0
M  V30 5853 H 545.927 3.97185 2.47713 0
M  V30 5854 H 546.1 5.62783 3.21215 0
M  V30 5855 N 539.506 -0.963266 1.24736 0
M  V30 5856 C 540.454 -2.07985 1.04139 0
M  V30 5857 C 541.448 -1.69381 -0.0250556 0
M  V30 5858 O 542.654 -1.79531 0.129863 0
M  V30 5859 H 539.029 -0.680627 0.319768 0
M  V30 5860 H 541 -2.22517 1.98818 0
M  V30 5861 C 539.749 -3.4123 0.667615 0
M  V30 5862 H 539.072 -3.71397 1.48 0
M  V30 5863 H 540.512 -4.20244 0.563136 0
M  V30 5864 C 538.971 -3.3104 -0.625647 0
M  V30 5865 O 539.501 -3.65334 -1.67016 0
M  V30 5866 N 537.707 -2.84168 -0.608033 0
M  V30 5867 H 537.254 -2.56458 0.242323 0
M  V30 5868 H 537.212 -2.77732 -1.47352 0
M  V30 5869 N 540.985 -1.06182 -1.16461 0
M  V30 5870 C 542.231 -0.788825 -1.87481 0
M  V30 5871 C 542.586 0.677298 -1.80085 0
M  V30 5872 O 541.879 1.48976 -1.20486 0
M  V30 5873 C 542.073 -1.21633 -3.36066 0
M  V30 5874 C 541.902 -2.72247 -3.57927 0
M  V30 5875 C 540.672 -3.39696 -3.74079 0
M  V30 5876 C 542.87 -3.70461 -3.56739 0
M  V30 5877 N 540.852 -4.79072 -3.83879 0
M  V30 5878 C 542.223 -4.95616 -3.72511 0
M  V30 5879 C 544.278 -3.63788 -3.39945 0
M  V30 5880 C 542.981 -6.14895 -3.73225 0
M  V30 5881 C 545.007 -4.82517 -3.41953 0
M  V30 5882 C 544.369 -6.065 -3.58242 0
M  V30 5883 H 540.468 -0.341034 -0.703719 0
M  V30 5884 H 543.052 -1.35575 -1.39741 0
M  V30 5885 H 541.223 -0.67725 -3.8245 0
M  V30 5886 H 542.955 -0.892119 -3.94745 0
M  V30 5887 H 539.71 -2.90097 -3.74354 0
M  V30 5888 H 540.134 -5.51573 -3.92551 0
M  V30 5889 H 544.776 -2.68888 -3.26281 0
M  V30 5890 H 542.494 -7.10129 -3.85672 0
M  V30 5891 H 546.08 -4.79017 -3.30203 0
M  V30 5892 H 544.96 -6.96833 -3.59712 0
M  V30 5893 N 542.463 1.3308 -0.844243 0
M  V30 5894 C 543.411 2.31028 -0.269954 0
M  V30 5895 C 544.405 1.58381 0.600997 0
M  V30 5896 O 545.611 1.73203 0.48996 0
M  V30 5897 H 541.986 0.748866 -0.0685782 0
M  V30 5898 H 543.957 2.76967 -1.11049 0
M  V30 5899 C 542.706 3.43549 0.535676 0
M  V30 5900 H 542.029 3.99604 -0.125202 0
M  V30 5901 H 543.469 4.14267 0.903262 0
M  V30 5902 C 541.928 2.8988 1.71672 0
M  V30 5903 O 542.458 2.86511 2.81557 0
M  V30 5904 N 540.664 2.46416 1.54037 0
M  V30 5905 H 540.211 2.49356 0.64649 0
M  V30 5906 H 540.169 2.1086 2.33207 0
M  V30 5907 N 543.941 0.601185 1.45683 0
M  V30 5908 C 545.357 0.264315 1.57396 0
M  V30 5909 C 545.557 -1.23324 1.59353 0
M  V30 5910 O 544.613 -2.01594 1.52039 0
M  V30 5911 C 545.926 0.929839 2.85962 0
M  V30 5912 C 547.474 0.905156 2.99626 0
M  V30 5913 C 547.949 1.55057 4.30954 0
M  V30 5914 N 549.44 1.51576 4.37697 0
M  V30 5915 C 550.175 1.98436 5.37969 0
M  V30 5916 N 549.671 2.53352 6.44813 0
M  V30 5917 N 551.464 1.89242 5.29286 0
M  V30 5918 H 543.615 1.57363 1.42656 0
M  V30 5919 H 545.878 0.658831 0.681649 0
M  V30 5920 H 545.584 1.98404 2.90394 0
M  V30 5921 H 545.458 0.449224 3.74515 0
M  V30 5922 H 547.845 -0.14048 2.94765 0
M  V30 5923 H 547.926 1.42397 2.12501 0
M  V30 5924 H 547.57 2.5955 4.36573 0
M  V30 5925 H 547.5 1.00682 5.16886 0
M  V30 5926 H 549.991 1.11452 3.61091 0
M  V30 5927 H 550.304 2.86918 7.17564 0
M  V30 5928 H 548.649 2.57388 6.45582 0
M  V30 5929 H 551.84 1.46083 4.44722 0
M  V30 5930 H 552.013 2.26075 6.07284 0
M  V30 5931 N 545.419 -1.53889 0.339982 0
M  V30 5932 C 546.649 -2.04973 -0.258738 0
M  V30 5933 C 547.057 -1.21485 -1.45045 0
M  V30 5934 O 546.4 -0.2422 -1.82096 0
M  V30 5935 C 546.462 -3.51783 -0.740853 0
M  V30 5936 C 546.126 -4.55802 0.330734 0
M  V30 5937 C 547.123 -5.06512 1.17226 0
M  V30 5938 C 544.808 -4.99966 0.483637 0
M  V30 5939 C 546.802 -5.99963 2.15227 0
M  V30 5940 C 544.489 -5.93229 1.46704 0
M  V30 5941 C 545.487 -6.43115 2.29981 0
M  V30 5942 O 545.175 -7.34545 3.26649 0
M  V30 5943 H 544.907 -0.673807 -0.0544037 0
M  V30 5944 H 547.461 -1.99492 0.489107 0
M  V30 5945 H 545.691 -3.54717 -1.53988 0
M  V30 5946 H 547.38 -3.85857 -1.25973 0
M  V30 5947 H 548.146 -4.73158 1.0652 0
M  V30 5948 H 544.025 -4.6074 -0.15471 0
M  V30 5949 H 547.569 -6.38825 2.80265 0
M  V30 5950 H 543.466 -6.25998 1.57468 0
M  V30 5951 H 544.234 -7.52468 3.22078 0
M  V30 5952 N 546.897 -0.0685191 -1.57451 0
M  V30 5953 C 548.145 0.60016 -1.92983 0
M  V30 5954 C 548.466 1.70348 -0.949028 0
M  V30 5955 O 547.736 1.959 0.00335647 0
M  V30 5956 H 546.316 0.224682 -0.712409 0
M  V30 5957 H 548.978 -0.125605 -1.94495 0
M  V30 5958 H 548.074 1.02759 -2.94698 0
M  V30 5959 N 548.375 1.56261 0.205012 0
M  V30 5960 C 549.652 1.70856 0.952233 0
M  V30 5961 C 550.032 0.620501 2.01775 0
M  V30 5962 O 549.38 -0.370035 2.25484 0
M  V30 5963 C 549.59 3.12807 1.54767 0
M  V30 5964 C 550.938 3.72733 2.0336 0
M  V30 5965 O 551.962 3.15873 1.64629 0
M  V30 5966 O 550.821 4.72501 2.746 0
M  V30 5967 H 547.915 0.696496 0.445895 0
M  V30 5968 H 550.461 1.6857 0.195489 0
M  V30 5969 H 549.233 3.83465 0.779132 0
M  V30 5970 H 548.856 3.1928 2.36951 0
M  V30 5971 N 549.853 -0.472356 1.50355 0
M  V30 5972 C 551.101 -1.22211 1.60962 0
M  V30 5973 C 551.422 -1.92497 0.311439 0
M  V30 5974 O 550.692 -1.8405 -0.671002 0
M  V30 5975 H 549.272 -0.454092 0.593135 0
M  V30 5976 H 551.934 -0.544977 1.87126 0
M  V30 5977 H 551.03 -1.9707 2.42012 0
M  V30 5978 N 551.331 -1.39911 -0.725443 0
M  V30 5979 C 552.577 -1.38862 -1.48624 0
M  V30 5980 C 552.932 0.0125913 -1.92396 0
M  V30 5981 O 552.225 0.981046 -1.64578 0
M  V30 5982 C 552.419 -2.30368 -2.7325 0
M  V30 5983 C 552.248 -3.79247 -2.41665 0
M  V30 5984 C 551.018 -4.48119 -2.3349 0
M  V30 5985 C 553.216 -4.70988 -2.06579 0
M  V30 5986 N 551.198 -5.82282 -1.94476 0
M  V30 5987 C 552.569 -5.93873 -1.78087 0
M  V30 5988 C 554.624 -4.58917 -1.9313 0
M  V30 5989 C 553.327 -7.06036 -1.37499 0
M  V30 5990 C 555.353 -5.71012 -1.53946 0
M  V30 5991 C 554.715 -6.92976 -1.26345 0
M  V30 5992 H 550.814 -0.563394 -0.54232 0
M  V30 5993 H 553.398 -1.75542 -0.842213 0
M  V30 5994 H 551.569 -1.95831 -3.35417 0
M  V30 5995 H 553.301 -2.20245 -3.39521 0
M  V30 5996 H 550.056 -4.01677 -2.50904 0
M  V30 5997 H 550.48 -6.53307 -1.77535 0
M  V30 5998 H 555.122 -3.65149 -2.13134 0
M  V30 5999 H 552.84 -7.99697 -1.16237 0
M  V30 6000 H 556.426 -5.63664 -1.44132 0
M  V30 6001 H 555.306 -7.78243 -0.964787 0
M  V30 6002 N 552.809 0.956637 -1.25245 0
M  V30 6003 C 554.055 1.70352 -1.10036 0
M  V30 6004 C 554.388 1.90869 0.358156 0
M  V30 6005 O 553.663 1.47819 1.26411 0
M  V30 6006 C 553.946 3.08766 -1.85298 0
M  V30 6007 C 553.799 2.95672 -3.38966 0
M  V30 6008 C 555.118 4.08622 -1.63451 0
M  V30 6009 H 552.237 0.618279 -0.401123 0
M  V30 6010 H 554.879 1.11212 -1.54051 0
M  V30 6011 H 553.029 3.59252 -1.47887 0
M  V30 6012 H 554.701 2.52527 -3.86041 0
M  V30 6013 H 552.944 2.31634 -3.6678 0
M  V30 6014 H 553.615 3.93776 -3.86839 0
M  V30 6015 H 556.091 3.67038 -1.96015 0
M  V30 6016 H 554.967 5.03514 -2.18551 0
M  V30 6017 H 555.228 4.3834 -0.575357 0
M  V30 6018 N 554.287 1.06798 1.15896 0
M  V30 6019 C 555.512 0.808739 1.90982 0
M  V30 6020 C 555.937 -0.6316 1.77179 0
M  V30 6021 O 555.295 -1.4407 1.10061 0
M  V30 6022 C 555.343 1.21468 3.39526 0
M  V30 6023 O 554.447 0.356562 4.10856 0
M  V30 6024 H 553.788 0.29512 0.594811 0
M  V30 6025 H 556.318 1.42513 1.46804 0
M  V30 6026 H 556.328 1.18844 3.90308 0
M  V30 6027 H 555.003 2.26379 3.48891 0
M  V30 6028 H 553.58 0.444808 3.70238 0
M  V30 6029 N 555.766 -1.3263 0.851289 0
M  V30 6030 C 556.696 -2.31449 0.308771 0
M  V30 6031 C 557.677 -1.59531 -0.590255 0
M  V30 6032 O 558.862 -1.87351 -0.511205 0
M  V30 6033 C 555.992 -3.43586 -0.506548 0
M  V30 6034 C 554.946 -4.26963 0.297753 0
M  V30 6035 C 554.272 -5.30831 -0.642094 0
M  V30 6036 C 555.572 -4.99643 1.52166 0
M  V30 6037 H 557.266 -2.77074 1.13447 0
M  V30 6038 H 554.812 -1.33207 0.546971 0
M  V30 6039 H 556.765 -4.11754 -0.896474 0
M  V30 6040 H 555.489 -2.96681 -1.36558 0
M  V30 6041 H 554.148 -3.60437 0.669391 0
M  V30 6042 H 553.796 -4.8018 -1.49788 0
M  V30 6043 H 553.496 -5.87501 -0.107968 0
M  V30 6044 H 555.02 -6.01862 -1.02927 0
M  V30 6045 H 556.434 -5.6051 1.20421 0
M  V30 6046 H 554.831 -5.66022 1.99347 0
M  V30 6047 H 555.901 -4.27701 2.28474 0
M  V30 6048 N 557.244 -0.608902 -1.45362 0
M  V30 6049 C 558.154 0.110969 -2.34337 0
M  V30 6050 C 559.17 0.859007 -1.51318 0
M  V30 6051 O 560.346 0.816296 -1.84116 0
M  V30 6052 C 557.411 1.09494 -3.28956 0
M  V30 6053 C 556.472 0.348718 -4.27881 0
M  V30 6054 C 555.705 1.28582 -5.17979 0
M  V30 6055 O 555.928 2.52369 -5.11533 0
M  V30 6056 O 554.862 0.782172 -5.96796 0
M  V30 6057 H 558.688 -0.620258 -2.97299 0
M  V30 6058 H 556.273 -0.36916 -1.44767 0
M  V30 6059 H 558.155 1.66163 -3.87257 0
M  V30 6060 H 556.83 1.80717 -2.68557 0
M  V30 6061 H 555.737 -0.260465 -3.73192 0
M  V30 6062 H 557.07 -0.323049 -4.91139 0
M  V30 6063 N 558.722 1.53707 -0.348139 0
M  V30 6064 C 559.947 2.05877 0.250883 0
M  V30 6065 C 560.372 1.22115 1.43072 0
M  V30 6066 O 559.73 0.235986 1.79758 0
M  V30 6067 C 559.778 3.54886 0.639416 0
M  V30 6068 O 558.882 3.73948 1.73888 0
M  V30 6069 H 558.223 0.662754 0.040653 0
M  V30 6070 H 560.753 1.98303 -0.503685 0
M  V30 6071 H 560.763 3.97601 0.915295 0
M  V30 6072 H 559.438 4.153 -0.223386 0
M  V30 6073 H 558.015 3.43134 1.45991 0
M  V30 6074 N 560.2 0.0768682 1.57412 0
M  V30 6075 C 561.163 -0.873949 2.11884 0
M  V30 6076 C 562.163 -1.22301 1.04398 0
M  V30 6077 O 563.353 -1.15545 1.30365 0
M  V30 6078 C 560.485 -2.17575 2.62438 0
M  V30 6079 H 561.678 -0.401278 2.97203 0
M  V30 6080 H 559.231 -0.171904 1.55352 0
M  V30 6081 H 559.966 -2.69368 1.80587 0
M  V30 6082 H 559.751 -1.93534 3.41009 0
M  V30 6083 H 561.241 -2.85631 3.04639 0
M  V30 6084 N 561.678 -1.56367 -0.196722 0
M  V30 6085 C 562.927 -1.79724 -0.915539 0
M  V30 6086 C 563.24 -0.649804 -1.84491 0
M  V30 6087 O 564.446 -0.767631 -2.60422 0
M  V30 6088 C 562.902 -3.18369 -1.67836 0
M  V30 6089 C 562.51 -4.4091 -0.793897 0
M  V30 6090 C 564.254 -3.51037 -2.38691 0
M  V30 6091 C 562.161 -5.70577 -1.55549 0
M  V30 6092 H 561.091 -0.67013 -0.345604 0
M  V30 6093 H 563.742 -1.82721 -0.168856 0
M  V30 6094 H 562.124 -3.09617 -2.46887 0
M  V30 6095 H 563.298 -4.60781 -0.042163 0
M  V30 6096 H 561.613 -4.15937 -0.19626 0
M  V30 6097 H 564.21 -4.4515 -2.96219 0
M  V30 6098 H 564.553 -2.74704 -3.12799 0
M  V30 6099 H 565.086 -3.61229 -1.66608 0
M  V30 6100 H 561.825 -6.49871 -0.857226 0
M  V30 6101 H 561.345 -5.54726 -2.2812 0
M  V30 6102 H 563.024 -6.11637 -2.10971 0
M  V30 6103 N 563.156 0.464375 -1.50603 0
M  V30 6104 C 564.386 1.23727 -1.65454 0
M  V30 6105 C 564.794 1.86119 -0.340032 0
M  V30 6106 O 564.137 1.70301 0.688706 0
M  V30 6107 C 564.199 2.38153 -2.69301 0
M  V30 6108 C 563.863 1.96345 -4.12671 0
M  V30 6109 C 564.86 1.48215 -4.98326 0
M  V30 6110 C 562.545 2.04861 -4.58625 0
M  V30 6111 C 564.539 1.09152 -6.27985 0
M  V30 6112 C 562.226 1.65409 -5.88288 0
M  V30 6113 C 563.224 1.17634 -6.72794 0
M  V30 6114 O 562.912 0.787312 -8.00035 0
M  V30 6115 H 562.644 0.380075 -0.559034 0
M  V30 6116 H 565.198 0.559919 -1.97621 0
M  V30 6117 H 563.428 3.09081 -2.32392 0
M  V30 6118 H 565.117 3.00099 -2.73304 0
M  V30 6119 H 565.883 1.41052 -4.64036 0
M  V30 6120 H 561.762 2.40996 -3.92991 0
M  V30 6121 H 565.306 0.717909 -6.93896 0
M  V30 6122 H 561.203 1.72233 -6.22098 0
M  V30 6123 H 561.971 0.915567 -8.13363 0
M  V30 6124 N 564.634 1.40294 0.718013 0
M  V30 6125 C 566.05 1.2227 1.02577 0
M  V30 6126 C 566.25 0.0961976 2.0127 0
M  V30 6127 O 565.306 -0.546695 2.46511 0
M  V30 6128 C 566.619 2.56348 1.57182 0
M  V30 6129 C 568.167 2.6334 1.69178 0
M  V30 6130 C 568.642 3.9768 2.27188 0
M  V30 6131 N 570.133 3.99409 2.34578 0
M  V30 6132 C 570.868 5.00141 2.8044 0
M  V30 6133 N 570.364 6.11268 3.26073 0
M  V30 6134 N 572.157 4.87511 2.79802 0
M  V30 6135 H 564.308 2.12304 0.0637899 0
M  V30 6136 H 566.571 0.943632 0.0909036 0
M  V30 6137 H 566.277 3.3942 0.921262 0
M  V30 6138 H 566.151 2.77266 2.55741 0
M  V30 6139 H 568.538 1.80641 2.33351 0
M  V30 6140 H 568.619 2.46255 0.692247 0
M  V30 6141 H 568.263 4.80817 1.63638 0
M  V30 6142 H 568.193 4.12093 3.27852 0
M  V30 6143 H 570.684 3.19162 2.02346 0
M  V30 6144 H 570.997 6.84023 3.59628 0
M  V30 6145 H 569.342 6.14837 3.24038 0
M  V30 6146 H 572.533 3.9979 2.43487 0
M  V30 6147 H 572.706 5.66158 3.15228 0
M  V30 6148 N 566.112 -0.949982 1.2575 0
M  V30 6149 C 567.337 -1.73503 1.13628 0
M  V30 6150 C 567.762 -1.85601 -0.30559 0
M  V30 6151 O 567.12 -1.33984 -1.22139 0
M  V30 6152 C 567.168 -3.1243 1.80055 0
M  V30 6153 O 566.272 -3.97916 1.08336 0
M  V30 6154 H 565.613 -0.532665 0.396439 0
M  V30 6155 H 568.143 -1.19043 1.66403 0
M  V30 6156 H 568.153 -3.62866 1.86527 0
M  V30 6157 H 566.828 -3.02941 2.84956 0
M  V30 6158 H 565.405 -3.56375 1.09777 0
M  V30 6159 N 567.59 -1.07411 -1.15328 0
M  V30 6160 C 568.538 -0.689316 -2.22151 0
M  V30 6161 C 569.532 0.300156 -1.6672 0
M  V30 6162 O 570.738 0.163804 -1.79253 0
M  V30 6163 H 567.113 -0.204834 -0.723566 0
M  V30 6164 H 569.084 -1.59988 -2.51886 0
M  V30 6165 C 567.833 -0.103848 -3.47545 0
M  V30 6166 H 567.156 -0.856367 -3.90521 0
M  V30 6167 H 568.596 0.127725 -4.23808 0
M  V30 6168 C 567.055 1.15563 -3.1646 0
M  V30 6169 O 567.585 2.242 -3.33312 0
M  V30 6170 N 565.791 1.06203 -2.70498 0
M  V30 6171 H 565.338 0.177933 -2.56985 0
M  V30 6172 H 565.296 1.90553 -2.50074 0
M  V30 6173 N 569.068 1.32177 -0.85831 0
M  V30 6174 C 570.345 1.91781 -0.384624 0
M  V30 6175 C 570.725 1.78171 1.13217 0
M  V30 6176 O 570.073 1.18209 1.95548 0
M  V30 6177 C 570.283 3.38414 -0.853047 0
M  V30 6178 C 571.631 4.15542 -0.872359 0
M  V30 6179 O 572.655 3.47148 -0.797926 0
M  V30 6180 O 571.514 5.37678 -0.978009 0
M  V30 6181 H 568.608 0.819259 -0.112886 0
M  V30 6182 H 571.154 1.40923 -0.945453 0
M  V30 6183 H 569.926 3.4228 -1.89632 0
M  V30 6184 H 569.549 3.96683 -0.269874 0
M  V30 6185 N 570.547 0.616602 1.45037 0
M  V30 6186 C 571.775 0.121968 2.0654 0
M  V30 6187 C 572.19 -1.19743 1.45969 0
M  V30 6188 O 571.547 -1.73133 0.577168 0
M  V30 6189 C 571.598 -0.0145171 3.61497 0
M  V30 6190 O 571.319 1.25269 4.19809 0
M  V30 6191 C 572.82 -0.539555 4.40004 0
M  V30 6192 H 570.04 0.0729837 0.667019 0
M  V30 6193 H 572.584 0.846891 1.8614 0
M  V30 6194 H 570.739 -0.689809 3.81209 0
M  V30 6195 H 571.153 1.08816 5.13088 0
M  V30 6196 H 572.627 -0.584112 5.48901 0
M  V30 6197 H 573.104 -1.56368 4.10421 0
M  V30 6198 H 573.71 0.101995 4.25178 0
M  V30 6199 N 572.025 -1.5352 0.356285 0
M  V30 6200 C 573.255 -2.05236 -0.236983 0
M  V30 6201 C 573.663 -1.23016 -1.43749 0
M  V30 6202 O 573.006 -0.2615 -1.81829 0
M  V30 6203 C 573.068 -3.52549 -0.7035 0
M  V30 6204 C 572.732 -4.55425 0.379059 0
M  V30 6205 C 573.729 -5.0524 1.22592 0
M  V30 6206 C 571.414 -4.99425 0.536638 0
M  V30 6207 C 573.408 -5.97647 2.21578 0
M  V30 6208 C 571.095 -5.9164 1.52988 0
M  V30 6209 C 572.093 -6.4064 2.3679 0
M  V30 6210 O 571.781 -7.31039 3.34421 0
M  V30 6211 H 571.513 -0.674346 -0.047254 0
M  V30 6212 H 574.067 -1.98962 0.510238 0
M  V30 6213 H 572.297 -3.56331 -1.50217 0
M  V30 6214 H 573.986 -3.87171 -1.21873 0
M  V30 6215 H 574.752 -4.72002 1.11532 0
M  V30 6216 H 570.631 -4.60879 -0.105834 0
M  V30 6217 H 574.175 -6.35816 2.87025 0
M  V30 6218 H 570.072 -6.24293 1.64099 0
M  V30 6219 H 570.84 -7.49009 3.30041 0
M  V30 6220 N 573.503 -0.0852151 -1.57369 0
M  V30 6221 C 574.75 0.580806 -1.93992 0
M  V30 6222 C 575.078 1.68801 -0.966252 0
M  V30 6223 O 574.333 1.95694 0.0158649 0
M  V30 6224 C 574.632 1.18482 -3.3719 0
M  V30 6225 C 574.298 0.2024 -4.50446 0
M  V30 6226 C 572.96 -0.0678318 -4.81152 0
M  V30 6227 C 575.312 -0.46895 -5.19086 0
M  V30 6228 C 572.64 -1.01627 -5.77831 0
M  V30 6229 C 574.992 -1.4058 -6.16782 0
M  V30 6230 C 573.656 -1.68436 -6.45899 0
M  V30 6231 H 572.926 0.212532 -0.709867 0
M  V30 6232 H 575.573 -0.158947 -1.90839 0
M  V30 6233 H 573.878 2.0006 -3.36873 0
M  V30 6234 H 575.575 1.70767 -3.62822 0
M  V30 6235 H 572.165 0.423208 -4.26505 0
M  V30 6236 H 576.349 -0.273307 -4.95547 0
M  V30 6237 H 571.605 -1.2392 -5.9871 0
M  V30 6238 H 575.779 -1.93188 -6.69068 0
M  V30 6239 H 573.406 -2.42088 -7.20623 0
M  V30 6240 N 574.981 1.5647 0.188427 0
M  V30 6241 C 576.211 1.84863 0.922463 0
M  V30 6242 C 576.619 0.666413 1.77075 0
M  V30 6243 O 575.962 -0.374044 1.79852 0
M  V30 6244 C 576.024 3.07447 1.86324 0
M  V30 6245 C 575.688 4.41066 1.19625 0
M  V30 6246 C 576.685 5.16767 0.569946 0
M  V30 6247 C 574.37 4.87802 1.19811 0
M  V30 6248 C 576.364 6.37384 -0.045594 0
M  V30 6249 C 574.051 6.08353 0.57874 0
M  V30 6250 C 575.049 6.82987 -0.0420259 0
M  V30 6251 O 574.737 8.01254 -0.651675 0
M  V30 6252 H 574.469 0.61784 0.274316 0
M  V30 6253 H 577.023 2.04437 0.198613 0
M  V30 6254 H 575.253 2.83774 2.62696 0
M  V30 6255 H 576.942 3.2243 2.46564 0
M  V30 6256 H 577.708 4.81749 0.560601 0
M  V30 6257 H 573.587 4.29662 1.67069 0
M  V30 6258 H 577.131 6.95578 -0.530731 0
M  V30 6259 H 573.028 6.42838 0.58561 0
M  V30 6260 H 573.796 8.16655 -0.549236 0
M  V30 6261 N 576.459 -0.456382 1.50847 0
M  V30 6262 C 577.736 -1.21739 1.53098 0
M  V30 6263 C 578.116 -2.09179 0.284132 0
M  V30 6264 O 577.464 -2.16466 -0.731773 0
M  V30 6265 C 577.674 -2.03573 2.83477 0
M  V30 6266 C 579.022 -2.61264 3.34703 0
M  V30 6267 O 580.046 -2.13802 2.84898 0
M  V30 6268 O 578.905 -3.47779 4.21559 0
M  V30 6269 H 575.999 -0.553219 0.614718 0
M  V30 6270 H 578.545 -0.467003 1.63148 0
M  V30 6271 H 577.317 -1.39232 3.65691 0
M  V30 6272 H 576.94 -2.85716 2.76499 0
M  V30 6273 N 577.937 -1.40673 -0.710563 0
M  V30 6274 C 578.867 -1.44095 -1.83736 0
M  V30 6275 C 579.848 -0.301286 -1.67411 0
M  V30 6276 O 581.033 -0.510618 -1.87367 0
M  V30 6277 C 578.163 -1.30773 -3.21738 0
M  V30 6278 C 577.117 -2.42395 -3.52745 0
M  V30 6279 C 576.443 -2.14147 -4.89944 0
M  V30 6280 C 577.743 -3.84738 -3.53234 0
M  V30 6281 H 579.437 -2.38396 -1.81129 0
M  V30 6282 H 576.983 -1.14746 -0.870017 0
M  V30 6283 H 578.936 -1.31783 -4.00264 0
M  V30 6284 H 577.66 -0.329507 -3.24934 0
M  V30 6285 H 576.319 -2.40643 -2.76562 0
M  V30 6286 H 575.967 -1.14703 -4.89747 0
M  V30 6287 H 575.667 -2.88934 -5.11655 0
M  V30 6288 H 577.191 -2.16848 -5.70797 0
M  V30 6289 H 578.605 -3.88286 -4.2179 0
M  V30 6290 H 577.002 -4.59085 -3.86473 0
M  V30 6291 H 578.072 -4.13962 -2.52514 0
M  V30 6292 N 579.415 0.9433 -1.26252 0
M  V30 6293 C 580.378 2.02326 -1.07689 0
M  V30 6294 C 581.378 1.60779 -0.0259174 0
M  V30 6295 O 582.568 1.72108 -0.269134 0
M  V30 6296 C 579.7 3.34886 -0.63752 0
M  V30 6297 H 580.893 2.20225 -2.0357 0
M  V30 6298 H 578.446 1.12197 -1.08819 0
M  V30 6299 H 579.181 3.22684 0.323377 0
M  V30 6300 H 578.966 3.66393 -1.39637 0
M  V30 6301 H 580.456 4.14231 -0.529418 0
M  V30 6302 N 580.893 1.08022 1.14757 0
M  V30 6303 C 581.843 0.676345 2.17737 0
M  V30 6304 C 582.827 -0.302018 1.5804 0
M  V30 6305 O 584.019 -0.11466 1.76628 0
M  V30 6306 C 581.148 0.082984 3.432 0
M  V30 6307 C 580.234 1.0869 4.09936 0
M  V30 6308 N 580.625 2.26891 4.52055 0
M  V30 6309 C 578.923 0.921768 4.36371 0
M  V30 6310 C 579.624 2.90636 5.0389 0
M  V30 6311 N 578.6 2.18266 4.97856 0
M  V30 6312 H 582.402 1.5765 2.4804 0
M  V30 6313 H 579.916 0.954374 1.31398 0
M  V30 6314 H 581.913 -0.224289 4.16296 0
M  V30 6315 H 580.573 -0.812206 3.14378 0
M  V30 6316 H 581.584 2.6457 4.45223 0
M  V30 6317 H 578.261 0.0800499 4.17423 0
M  V30 6318 H 579.651 3.9104 5.46386 0
M  V30 6319 N 582.371 -1.3172 0.865308 0
M  V30 6320 C 583.318 -2.2863 0.315736 0
M  V30 6321 C 584.288 -1.55524 -0.583213 0
M  V30 6322 O 585.473 -1.83694 -0.51585 0
M  V30 6323 C 582.613 -3.41735 -0.480773 0
M  V30 6324 C 581.726 -4.297 0.445167 0
M  V30 6325 C 580.861 -5.29944 -0.365012 0
M  V30 6326 C 579.9 -6.09554 0.557651 0
M  V30 6327 N 579.037 -7.01768 -0.215994 0
M  V30 6328 H 583.877 -2.75026 1.14736 0
M  V30 6329 H 581.414 -1.35302 0.577209 0
M  V30 6330 H 583.372 -4.06045 -0.958306 0
M  V30 6331 H 582.002 -2.96461 -1.27714 0
M  V30 6332 H 581.054 -3.65875 1.04113 0
M  V30 6333 H 582.366 -4.85295 1.15284 0
M  V30 6334 H 581.52 -5.99908 -0.905255 0
M  V30 6335 H 580.259 -4.74994 -1.106 0
M  V30 6336 H 579.264 -5.38485 1.10969 0
M  V30 6337 H 580.489 -6.66591 1.29742 0
M  V30 6338 H 578.435 -6.49232 -0.939878 0
M  V30 6339 H 578.352 -7.54762 0.432431 0
M  V30 6340 H 579.62 -7.76002 -0.737618 0
M  V30 6341 N 583.85 -0.624285 -1.44708 0
M  V30 6342 C 584.779 0.0717025 -2.3339 0
M  V30 6343 C 585.76 0.841814 -1.47809 0
M  V30 6344 O 586.946 0.809056 -1.76544 0
M  V30 6345 C 584.076 1.05852 -3.30776 0
M  V30 6346 C 583.029 0.400503 -4.26122 0
M  V30 6347 C 582.356 1.49674 -5.13324 0
M  V30 6348 C 583.656 -0.688924 -5.17737 0
M  V30 6349 H 585.35 -0.668819 -2.91834 0
M  V30 6350 H 582.896 -0.32308 -1.40329 0
M  V30 6351 H 584.849 1.5541 -3.91696 0
M  V30 6352 H 583.572 1.82984 -2.70526 0
M  V30 6353 H 582.231 -0.0743687 -3.66525 0
M  V30 6354 H 581.88 2.25877 -4.49431 0
M  V30 6355 H 581.58 1.06188 -5.77926 0
M  V30 6356 H 583.104 1.99427 -5.77115 0
M  V30 6357 H 584.518 -0.276724 -5.72632 0
M  V30 6358 H 582.915 -1.04652 -5.90904 0
M  V30 6359 H 583.985 -1.55884 -4.5916 0
M  V30 6360 N 585.328 1.53329 -0.364422 0
M  V30 6361 C 586.576 2.00842 0.225189 0
M  V30 6362 C 586.897 1.25345 1.49378 0
M  V30 6363 O 586.167 0.366396 1.92443 0
M  V30 6364 H 584.747 0.742009 0.0862027 0
M  V30 6365 H 587.409 1.8863 -0.490389 0
M  V30 6366 H 586.505 3.08795 0.452987 0
M  V30 6367 N 586.806 0.0935595 1.57322 0
M  V30 6368 C 588.055 -0.570191 1.93473 0
M  V30 6369 C 588.368 -1.69434 0.977318 0
M  V30 6370 O 589.574 -2.41914 1.23248 0
M  V30 6371 C 588.03 -1.06564 3.43762 0
M  V30 6372 C 587.638 0.0286723 4.47991 0
M  V30 6373 C 589.382 -1.70221 3.88877 0
M  V30 6374 C 587.289 -0.482046 5.89432 0
M  V30 6375 H 586.219 -0.216764 0.72217 0
M  V30 6376 H 588.87 0.169313 1.82717 0
M  V30 6377 H 587.252 -1.85878 3.49664 0
M  V30 6378 H 588.426 0.804106 4.5373 0
M  V30 6379 H 586.741 0.570336 4.12476 0
M  V30 6380 H 589.338 -2.09502 4.91948 0
M  V30 6381 H 589.681 -2.57078 3.27439 0
M  V30 6382 H 590.214 -0.974919 3.85668 0
M  V30 6383 H 586.953 0.349871 6.54566 0
M  V30 6384 H 586.473 -1.22452 5.87167 0
M  V30 6385 H 588.152 -0.951508 6.39965 0
M  V30 6386 N 588.284 -1.56567 -0.180126 0
M  V30 6387 C 589.561 -1.7235 -0.924931 0
M  V30 6388 C 589.941 -0.652523 -2.00762 0
M  V30 6389 O 589.289 0.334115 -2.26044 0
M  V30 6390 C 589.499 -3.1523 -1.49771 0
M  V30 6391 C 590.847 -3.75921 -1.97405 0
M  V30 6392 O 591.871 -3.18452 -1.59583 0
M  V30 6393 O 590.73 -4.7681 -2.67048 0
M  V30 6394 H 587.824 -0.703502 -0.434758 0
M  V30 6395 H 590.37 -1.6886 -0.168647 0
M  V30 6396 H 589.142 -3.84656 -0.718027 0
M  V30 6397 H 588.765 -3.23009 -2.31842 0
M  V30 6398 N 589.762 0.448376 -1.51087 0
M  V30 6399 C 591.178 0.783984 -1.39017 0
M  V30 6400 C 591.378 1.96087 -0.463904 0
M  V30 6401 O 590.434 2.52357 0.0850534 0
M  V30 6402 C 591.747 1.07471 -2.80839 0
M  V30 6403 C 593.295 1.17981 -2.89913 0
M  V30 6404 C 593.77 1.50354 -4.32617 0
M  V30 6405 N 595.261 1.57301 -4.35673 0
M  V30 6406 C 595.996 1.839 -5.4311 0
M  V30 6407 N 595.492 2.08365 -6.60724 0
M  V30 6408 N 597.285 1.8559 -5.30578 0
M  V30 6409 H 589.436 -0.326881 -2.0987 0
M  V30 6410 H 591.699 -0.0838006 -0.944289 0
M  V30 6411 H 591.405 0.282768 -3.50561 0
M  V30 6412 H 591.279 2.00519 -3.19487 0
M  V30 6413 H 593.666 1.9624 -2.20395 0
M  V30 6414 H 593.747 0.228603 -2.54776 0
M  V30 6415 H 593.391 0.726273 -5.0268 0
M  V30 6416 H 593.321 2.46663 -4.65258 0
M  V30 6417 H 595.812 1.40342 -3.50874 0
M  V30 6418 H 596.125 2.27999 -7.38401 0
M  V30 6419 H 594.47 2.0571 -6.63859 0
M  V30 6420 H 597.661 1.65989 -4.37682 0
M  V30 6421 H 597.834 2.05983 -6.1439 0
M  V30 6422 N 591.24 1.41047 0.703093 0
M  V30 6423 C 592.17 1.45067 1.82969 0
M  V30 6424 C 593.151 0.31016 1.67248 0
M  V30 6425 O 594.336 0.520548 1.87093 0
M  V30 6426 C 591.466 1.32478 3.2104 0
M  V30 6427 C 590.42 2.44262 3.51454 0
M  V30 6428 C 589.746 2.16742 4.88801 0
M  V30 6429 C 591.046 3.86606 3.51189 0
M  V30 6430 H 592.74 2.39353 1.79863 0
M  V30 6431 H 590.286 1.15206 0.863919 0
M  V30 6432 H 592.239 1.33904 3.99559 0
M  V30 6433 H 590.963 0.346735 3.24754 0
M  V30 6434 H 589.622 2.42107 2.75282 0
M  V30 6435 H 589.27 1.17299 4.89132 0
M  V30 6436 H 588.97 2.91643 5.10116 0
M  V30 6437 H 590.494 2.19872 5.69639 0
M  V30 6438 H 591.908 3.90517 4.19725 0
M  V30 6439 H 590.305 4.61128 3.84033 0
M  V30 6440 H 591.375 4.15296 2.50315 0
M  V30 6441 N 592.718 -0.936591 1.26751 0
M  V30 6442 C 593.668 -2.0219 1.05371 0
M  V30 6443 C 594.652 -1.60893 -0.0154112 0
M  V30 6444 O 595.844 -1.75843 0.202085 0
M  V30 6445 C 592.973 -3.36222 0.693541 0
M  V30 6446 C 592.059 -3.8399 1.80035 0
M  V30 6447 N 592.45 -4.0436 3.03852 0
M  V30 6448 C 590.748 -4.12945 1.685 0
M  V30 6449 C 591.449 -4.44 3.75818 0
M  V30 6450 N 590.425 -4.50966 3.03531 0
M  V30 6451 H 594.227 -2.15958 1.99347 0
M  V30 6452 H 591.741 -1.12277 1.17335 0
M  V30 6453 H 593.738 -4.13625 0.521513 0
M  V30 6454 H 592.398 -3.23821 -0.238693 0
M  V30 6455 H 593.409 -3.9092 3.39709 0
M  V30 6456 H 590.086 -4.09308 0.822986 0
M  V30 6457 H 591.476 -4.67914 4.82189 0
M  V30 6458 N 594.196 -1.08629 -1.14182 0
M  V30 6459 C 595.159 -0.722027 -2.1753 0
M  V30 6460 C 596.159 0.244305 -1.58933 0
M  V30 6461 O 597.349 0.0235545 -1.74184 0
M  V30 6462 C 594.481 -0.0663966 -3.40835 0
M  V30 6463 H 595.674 -1.63719 -2.51269 0
M  V30 6464 H 593.227 -0.884442 -1.28869 0
M  V30 6465 H 593.962 0.860389 -3.12678 0
M  V30 6466 H 593.747 -0.761598 -3.84632 0
M  V30 6467 H 595.237 0.173346 -4.1724 0
M  V30 6468 N 595.674 1.31259 -0.872281 0
M  V30 6469 C 596.921 1.96622 -0.484365 0
M  V30 6470 C 597.249 1.68939 0.963841 0
M  V30 6471 O 596.504 0.97974 1.6941 0
M  V30 6472 C 596.803 3.50659 -0.690889 0
M  V30 6473 C 596.469 3.98366 -2.11224 0
M  V30 6474 C 595.131 4.11104 -2.50094 0
M  V30 6475 C 597.483 4.23425 -3.0391 0
M  V30 6476 C 594.811 4.46254 -3.80887 0
M  V30 6477 C 597.163 4.60039 -4.3422 0
M  V30 6478 C 595.827 4.70984 -4.73001 0
M  V30 6479 H 595.097 0.71949 -0.177242 0
M  V30 6480 H 597.744 1.56353 -1.10571 0
M  V30 6481 H 596.049 3.91798 0.0135782 0
M  V30 6482 H 597.746 3.99284 -0.370534 0
M  V30 6483 H 594.336 3.88949 -1.80047 0
M  V30 6484 H 598.52 4.13075 -2.75104 0
M  V30 6485 H 593.776 4.52926 -4.10692 0
M  V30 6486 H 597.95 4.78381 -5.06088 0
M  V30 6487 H 595.577 4.97977 -5.7439 0
M  V30 6488 N 597.152 0.631951 1.44375 0
M  V30 6489 C 598.085 -0.121822 2.27875 0
M  V30 6490 C 599.063 -0.850457 1.38586 0
M  V30 6491 O 600.247 -0.854378 1.68026 0
M  V30 6492 C 597.374 -1.17859 3.17533 0
M  V30 6493 C 596.42 -0.550391 4.22934 0
M  V30 6494 S 597.253 0.660145 5.31415 0
M  V30 6495 C 598.409 -0.396613 6.24642 0
M  V30 6496 H 598.642 0.586537 2.91457 0
M  V30 6497 H 596.175 0.420146 1.48574 0
M  V30 6498 H 598.133 -1.78335 3.69739 0
M  V30 6499 H 596.794 -1.85915 2.53169 0
M  V30 6500 H 595.987 -1.34631 4.85685 0
M  V30 6501 H 595.589 -0.0202306 3.73995 0
M  V30 6502 H 597.881 -1.26893 6.65511 0
M  V30 6503 H 598.824 0.195345 7.0783 0
M  V30 6504 H 599.232 -0.72288 5.59852 0
M  V30 6505 N 598.631 -1.53133 0.372548 0
M  V30 6506 C 599.856 -2.0625 -0.218098 0
M  V30 6507 C 600.281 -1.24375 -1.41111 0
M  V30 6508 O 599.639 -0.264554 -1.79359 0
M  V30 6509 C 599.687 -3.55858 -0.582876 0
M  V30 6510 O 598.791 -3.76667 -1.67917 0
M  V30 6511 H 598.132 -0.663317 -0.030104 0
M  V30 6512 H 600.662 -1.97477 0.535169 0
M  V30 6513 H 600.672 -3.99007 -0.851925 0
M  V30 6514 H 599.347 -4.14892 0.289428 0
M  V30 6515 H 597.924 -3.45413 -1.40513 0
M  V30 6516 N 600.109 -0.101901 -1.5727 0
M  V30 6517 C 601.525 0.254739 -1.57554 0
M  V30 6518 C 601.725 1.67937 -1.11352 0
M  V30 6519 O 600.781 2.39722 -0.793081 0
M  V30 6520 C 602.094 0.036975 -3.00677 0
M  V30 6521 C 603.642 0.104199 -3.12827 0
M  V30 6522 C 604.117 -0.0856565 -4.5792 0
M  V30 6523 N 605.608 -0.0310498 -4.6319 0
M  V30 6524 C 606.343 -0.153099 -5.73196 0
M  V30 6525 N 605.839 -0.330364 -6.92012 0
M  V30 6526 N 607.632 -0.0938854 -5.62022 0
M  V30 6527 H 599.783 -1.03263 -1.85609 0
M  V30 6528 H 602.046 -0.405251 -0.857016 0
M  V30 6529 H 601.752 -0.947254 -3.38703 0
M  V30 6530 H 601.626 0.776335 -3.69124 0
M  V30 6531 H 604.013 1.07894 -2.74669 0
M  V30 6532 H 604.094 -0.666762 -2.46957 0
M  V30 6533 H 603.738 -1.05729 -4.96773 0
M  V30 6534 H 603.668 0.705082 -5.21858 0
M  V30 6535 H 606.159 0.103141 -3.77759 0
M  V30 6536 H 606.472 -0.41482 -7.71686 0
M  V30 6537 H 604.817 -0.366119 -6.94035 0
M  V30 6538 H 608.008 0.0435168 -4.6808 0
M  V30 6539 H 608.181 -0.19245 -6.47714 0
M  V30 6540 N 601.587 1.56661 0.17182 0
M  V30 6541 C 602.834 1.81965 0.888529 0
M  V30 6542 C 603.162 0.6789 1.82267 0
M  V30 6543 O 602.417 -0.333875 1.92831 0
M  V30 6544 C 602.716 3.13435 1.71736 0
M  V30 6545 C 602.382 4.41159 0.932184 0
M  V30 6546 C 601.044 4.75851 0.715481 0
M  V30 6547 C 603.396 5.19803 0.381387 0
M  V30 6548 C 600.724 5.86666 -0.063126 0
M  V30 6549 C 603.076 6.31433 -0.384129 0
M  V30 6550 C 601.74 6.64692 -0.611637 0
M  V30 6551 H 601.01 0.665859 0.325136 0
M  V30 6552 H 603.657 1.90884 0.153495 0
M  V30 6553 H 601.962 2.99857 2.52177 0
M  V30 6554 H 603.659 3.30224 2.27493 0
M  V30 6555 H 600.249 4.13947 1.11112 0
M  V30 6556 H 604.433 4.93396 0.536148 0
M  V30 6557 H 599.689 6.10892 -0.249136 0
M  V30 6558 H 603.863 6.91577 -0.818185 0
M  V30 6559 H 601.49 7.50398 -1.21684 0
M  V30 6560 N 603.065 -0.440357 1.51323 0
M  V30 6561 C 604.313 -1.18769 1.63518 0
M  V30 6562 C 604.634 -1.91793 0.352201 0
M  V30 6563 O 603.904 -1.85432 -0.631811 0
M  V30 6564 H 602.484 -0.441408 0.602634 0
M  V30 6565 H 605.146 -0.505162 1.8824 0
M  V30 6566 H 604.242 -1.91892 2.46138 0
M  V30 6567 N 604.543 -1.41418 -0.695603 0
M  V30 6568 C 605.79 -1.40774 -1.45564 0
M  V30 6569 C 606.118 -0.0168604 -1.94493 0
M  V30 6570 O 605.373 0.971259 -1.69897 0
M  V30 6571 C 605.672 -2.36112 -2.68302 0
M  V30 6572 C 605.338 -3.82952 -2.38031 0
M  V30 6573 C 604 -4.22954 -2.29486 0
M  V30 6574 C 606.352 -4.75662 -2.13061 0
M  V30 6575 C 603.68 -5.53674 -1.94067 0
M  V30 6576 C 606.032 -6.06702 -1.79151 0
M  V30 6577 C 604.696 -6.45725 -1.69102 0
M  V30 6578 H 603.966 -0.515128 -0.532658 0
M  V30 6579 H 606.613 -1.74216 -0.795047 0
M  V30 6580 H 604.918 -1.95924 -3.39295 0
M  V30 6581 H 606.615 -2.32887 -3.26442 0
M  V30 6582 H 603.205 -3.5127 -2.45576 0
M  V30 6583 H 607.389 -4.45561 -2.18608 0
M  V30 6584 H 602.645 -5.8279 -1.8484 0
M  V30 6585 H 606.819 -6.78041 -1.5885 0
M  V30 6586 H 604.446 -7.46929 -1.41426 0
M  V30 6587 N 606.021 0.929856 -1.27246 0
M  V30 6588 C 607.269 1.674 -1.13233 0
M  V30 6589 C 607.59 1.92311 0.322744 0
M  V30 6590 O 606.86 1.52784 1.22612 0
M  V30 6591 H 605.44 0.620411 -0.416052 0
M  V30 6592 H 608.102 1.11663 -1.59741 0
M  V30 6593 H 607.198 2.64308 -1.65975 0
M  V30 6594 N 607.499 1.09233 1.13605 0
M  V30 6595 C 608.431 0.687794 2.18637 0
M  V30 6596 C 609.444 -0.26936 1.60556 0
M  V30 6597 O 610.633 -0.0557162 1.78413 0
M  V30 6598 C 607.733 -0.00751901 3.38899 0
M  V30 6599 C 606.906 0.97067 4.26494 0
M  V30 6600 C 605.965 0.309129 5.25291 0
M  V30 6601 O 604.991 0.956149 5.61112 0
M  V30 6602 N 606.193 -0.937555 5.72879 0
M  V30 6603 H 608.958 1.59141 2.53957 0
M  V30 6604 H 606.519 0.979515 1.28907 0
M  V30 6605 H 608.511 -0.461238 4.02063 0
M  V30 6606 H 607.081 -0.813353 3.01833 0
M  V30 6607 H 606.301 1.603 3.60135 0
M  V30 6608 H 607.589 1.63323 4.81875 0
M  V30 6609 H 606.987 -1.48281 5.4592 0
M  V30 6610 H 605.544 -1.33463 6.3799 0
M  V30 6611 N 608.977 -1.30795 0.87923 0
M  V30 6612 C 609.924 -2.28282 0.339968 0
M  V30 6613 C 610.894 -1.56134 -0.566685 0
M  V30 6614 O 612.079 -1.84231 -0.496338 0
M  V30 6615 C 609.219 -3.42225 -0.444501 0
M  V30 6616 C 608.332 -4.29204 0.490717 0
M  V30 6617 C 607.467 -5.30302 -0.308784 0
M  V30 6618 C 606.506 -6.08929 0.622272 0
M  V30 6619 N 605.643 -7.01957 -0.14155 0
M  V30 6620 H 610.483 -2.73794 1.17647 0
M  V30 6621 H 608.02 -1.34682 0.591527 0
M  V30 6622 H 609.978 -4.07038 -0.915186 0
M  V30 6623 H 608.608 -2.97799 -1.24562 0
M  V30 6624 H 607.66 -3.6475 1.07988 0
M  V30 6625 H 608.972 -4.84045 1.20425 0
M  V30 6626 H 608.126 -6.00835 -0.841575 0
M  V30 6627 H 606.865 -4.7614 -1.05556 0
M  V30 6628 H 605.87 -5.37278 1.16674 0
M  V30 6629 H 607.095 -6.65178 1.36804 0
M  V30 6630 H 605.041 -6.50192 -0.870966 0
M  V30 6631 H 604.958 -7.54261 0.51246 0
M  V30 6632 H 606.226 -7.76741 -0.655271 0
M  V30 6633 N 610.455 -0.639598 -1.44038 0
M  V30 6634 C 611.701 -0.147698 -2.02261 0
M  V30 6635 C 612.034 1.23031 -1.50256 0
M  V30 6636 O 611.309 1.81847 -0.690068 0
M  V30 6637 C 611.592 -0.14362 -3.59813 0
M  V30 6638 C 611.445 -1.55458 -4.22082 0
M  V30 6639 C 612.764 0.527317 -4.36929 0
M  V30 6640 H 609.883 -0.0551453 -0.734934 0
M  V30 6641 H 612.525 -0.817688 -1.71505 0
M  V30 6642 H 610.675 0.426898 -3.86147 0
M  V30 6643 H 612.347 -2.17464 -4.06826 0
M  V30 6644 H 610.59 -2.10594 -3.79253 0
M  V30 6645 H 611.261 -1.50369 -5.31124 0
M  V30 6646 H 613.737 0.0420504 -4.16079 0
M  V30 6647 H 612.613 0.499389 -5.46624 0
M  V30 6648 H 612.874 1.59914 -4.12165 0
M  V30 6649 N 611.933 1.52934 -0.380664 0
M  V30 6650 C 612.896 2.24809 0.446473 0
M  V30 6651 C 613.896 1.26133 0.997347 0
M  V30 6652 O 615.086 1.50297 0.880714 0
M  V30 6653 C 612.218 2.99649 1.62553 0
M  V30 6654 H 613.411 2.99343 -0.182677 0
M  V30 6655 H 610.964 1.55736 -0.132618 0
M  V30 6656 H 611.699 2.29395 2.29235 0
M  V30 6657 H 611.484 3.72066 1.23732 0
M  V30 6658 H 612.974 3.54246 2.21133 0
M  V30 6659 N 613.412 0.11024 1.57214 0
M  V30 6660 C 614.342 -0.840002 2.17867 0
M  V30 6661 C 615.323 -1.28352 1.11624 0
M  V30 6662 O 616.508 -1.3477 1.39824 0
M  V30 6663 C 613.638 -2.09349 2.77111 0
M  V30 6664 C 612.592 -1.78807 3.8886 0
M  V30 6665 C 611.918 -3.11112 4.34872 0
M  V30 6666 C 613.218 -1.0632 5.11364 0
M  V30 6667 H 614.912 -0.334608 2.97524 0
M  V30 6668 H 612.458 -0.159502 1.43114 0
M  V30 6669 H 614.411 -2.76275 3.18198 0
M  V30 6670 H 613.135 -2.62198 1.9473 0
M  V30 6671 H 611.794 -1.14273 3.48335 0
M  V30 6672 H 611.442 -3.61877 3.49362 0
M  V30 6673 H 611.142 -2.91453 5.10224 0
M  V30 6674 H 612.666 -3.79171 4.78604 0
M  V30 6675 H 614.08 -1.63383 5.49526 0
M  V30 6676 H 612.477 -0.967876 5.92243 0
M  V30 6677 H 613.547 -0.0484569 4.84876 0
M  V30 6678 N 614.89 -1.56749 -0.16351 0
M  V30 6679 C 616.167 -1.73321 -0.906599 0
M  V30 6680 C 616.547 -0.673779 -2.00059 0
M  V30 6681 O 615.895 0.310121 -2.26386 0
M  V30 6682 C 616.105 -3.168 -1.46419 0
M  V30 6683 C 617.453 -3.77993 -1.93407 0
M  V30 6684 O 618.477 -3.20127 -1.56196 0
M  V30 6685 O 617.336 -4.79615 -2.61976 0
M  V30 6686 H 614.43 -0.708073 -0.427272 0
M  V30 6687 H 616.976 -1.69029 -0.150727 0
M  V30 6688 H 615.748 -3.85396 -0.677189 0
M  V30 6689 H 615.371 -3.2545 -2.28403 0
M  V30 6690 N 616.368 0.432326 -1.51554 0
M  V30 6691 C 617.301 1.54525 -1.6792 0
M  V30 6692 C 618.279 1.53831 -0.526764 0
M  V30 6693 O 619.463 1.72884 -0.751233 0
M  V30 6694 C 616.59 2.931 -1.69736 0
M  V30 6695 C 615.636 3.11799 -2.91005 0
M  V30 6696 S 616.469 2.87565 -4.51737 0
M  V30 6697 C 617.625 4.28412 -4.56305 0
M  V30 6698 H 617.858 1.4041 -2.62054 0
M  V30 6699 H 615.391 0.622357 -1.41301 0
M  V30 6700 H 617.349 3.72974 -1.71467 0
M  V30 6701 H 616.01 3.04574 -0.767705 0
M  V30 6702 H 615.203 4.13127 -2.8869 0
M  V30 6703 H 614.805 2.39757 -2.87041 0
M  V30 6704 H 617.097 5.21692 -4.32254 0
M  V30 6705 H 618.04 4.35758 -5.58141 0
M  V30 6706 H 618.448 4.12301 -3.85576 0
M  V30 6707 N 617.846 1.41785 0.688094 0
M  V30 6708 C 619.093 1.41544 1.44816 0
M  V30 6709 C 619.421 0.0271746 1.94481 0
M  V30 6710 O 618.676 -0.962235 1.7041 0
M  V30 6711 C 618.975 2.37532 2.67046 0
M  V30 6712 C 618.641 3.84209 2.35996 0
M  V30 6713 C 617.303 4.24165 2.27239 0
M  V30 6714 C 619.655 4.76785 2.10536 0
M  V30 6715 C 616.983 5.54695 1.91128 0
M  V30 6716 C 619.335 6.07644 1.75931 0
M  V30 6717 C 617.999 6.46613 1.65675 0
M  V30 6718 H 617.269 0.517945 0.529919 0
M  V30 6719 H 619.916 1.74635 0.785797 0
M  V30 6720 H 618.221 1.9772 3.38251 0
M  V30 6721 H 619.918 2.34615 3.25203 0
M  V30 6722 H 616.508 3.52567 2.4371 0
M  V30 6723 H 620.692 4.46714 2.16242 0
M  V30 6724 H 615.948 5.83762 1.81746 0
M  V30 6725 H 620.122 6.78874 1.55252 0
M  V30 6726 H 617.749 7.47668 1.37463 0
M  V30 6727 N 619.324 -0.923095 1.27737 0
M  V30 6728 C 620.572 -1.66797 1.14119 0
M  V30 6729 C 620.893 -1.92479 -0.312541 0
M  V30 6730 O 620.163 -1.53432 -1.218 0
M  V30 6731 H 618.743 -0.618196 0.419336 0
M  V30 6732 H 621.405 -1.10815 1.60331 0
M  V30 6733 H 620.501 -2.63424 1.67374 0
M  V30 6734 N 620.802 -1.09834 -1.13024 0
M  V30 6735 C 621.712 -0.753731 -2.22162 0
M  V30 6736 C 622.728 0.246105 -1.72251 0
M  V30 6737 O 623.904 0.0864051 -2.01215 0
M  V30 6738 C 620.969 -0.183958 -3.46212 0
M  V30 6739 C 620.03 -1.24028 -4.10993 0
M  V30 6740 C 619.263 -0.697597 -5.29121 0
M  V30 6741 O 619.486 0.478092 -5.68393 0
M  V30 6742 O 618.42 -1.4546 -5.84059 0
M  V30 6743 H 622.246 -1.66456 -2.5402 0
M  V30 6744 H 619.831 -0.873026 -1.21238 0
M  V30 6745 H 621.713 0.130257 -4.21199 0
M  V30 6746 H 620.388 0.699823 -3.16045 0
M  V30 6747 H 619.295 -1.60725 -3.37814 0
M  V30 6748 H 620.628 -2.09685 -4.45301 0
M  V30 6749 N 622.28 1.30327 -0.886154 0
M  V30 6750 C 623.243 2.26376 -0.358687 0
M  V30 6751 C 624.243 1.52845 0.499498 0
M  V30 6752 O 625.433 1.71483 0.306485 0
M  V30 6753 C 622.565 3.37379 0.488726 0
M  V30 6754 H 623.758 2.74547 -1.20681 0
M  V30 6755 H 621.311 1.41536 -0.663113 0
M  V30 6756 H 622.046 2.94526 1.35739 0
M  V30 6757 H 621.831 3.91897 -0.126003 0
M  V30 6758 H 623.321 4.08868 0.84952 0
M  V30 6759 N 623.758 0.647228 1.43697 0
M  V30 6760 C 625.035 0.0883758 1.954 0
M  V30 6761 C 625.415 -1.39006 1.58873 0
M  V30 6762 O 624.763 -2.11255 0.87083 0
M  V30 6763 C 624.973 0.328263 3.47453 0
M  V30 6764 C 626.321 0.230009 4.23977 0
M  V30 6765 O 627.345 0.260496 3.55246 0
M  V30 6766 O 626.204 0.148615 5.46298 0
M  V30 6767 H 623.298 -0.0130683 0.826897 0
M  V30 6768 H 625.844 0.72005 1.53666 0
M  V30 6769 H 624.616 1.3535 3.67146 0
M  V30 6770 H 624.239 -0.336772 3.96171 0
M  V30 6771 N 625.236 -1.5273 0.388769 0
M  V30 6772 C 626.484 -2.01174 -0.193208 0
M  V30 6773 C 626.805 -1.27705 -1.47365 0
M  V30 6774 O 626.075 -0.396966 -1.91836 0
M  V30 6775 H 624.655 -0.743287 -0.0743871 0
M  V30 6776 H 627.317 -1.87826 0.520336 0
M  V30 6777 H 626.413 -3.09477 -0.403803 0
M  V30 6778 N 626.714 -0.118576 -1.57153 0
M  V30 6779 C 627.644 0.828436 -2.1831 0
M  V30 6780 C 628.625 1.27758 -1.12303 0
M  V30 6781 O 629.81 1.34026 -1.40537 0
M  V30 6782 C 626.94 2.07876 -2.78217 0
M  V30 6783 C 625.894 1.76742 -3.89803 0
M  V30 6784 C 625.22 3.08801 -4.36516 0
M  V30 6785 C 626.52 1.03606 -5.11921 0
M  V30 6786 H 628.214 0.318824 -2.97698 0
M  V30 6787 H 625.76 0.151911 -1.43196 0
M  V30 6788 H 627.713 2.74584 -3.19659 0
M  V30 6789 H 626.437 2.61161 -1.96118 0
M  V30 6790 H 625.096 1.12424 -3.48936 0
M  V30 6791 H 624.744 3.6002 -3.51276 0
M  V30 6792 H 624.444 2.88743 -5.11763 0
M  V30 6793 H 625.968 3.76627 -4.80608 0
M  V30 6794 H 627.382 1.60467 -5.50385 0
M  V30 6795 H 625.779 0.936454 -5.92748 0
M  V30 6796 H 626.849 0.0227421 -4.84895 0
M  V30 6797 N 628.193 1.56834 0.155195 0
M  V30 6798 C 629.126 1.9278 1.22111 0
M  V30 6799 C 630.104 0.792588 1.41975 0
M  V30 6800 O 631.288 1.04743 1.5672 0
M  V30 6801 C 628.415 2.19273 2.58142 0
M  V30 6802 C 627.461 3.41932 2.54921 0
M  V30 6803 S 628.294 4.95769 2.02418 0
M  V30 6804 C 629.45 5.25375 3.40194 0
M  V30 6805 H 629.683 2.82889 0.914393 0
M  V30 6806 H 627.216 1.50133 0.360461 0
M  V30 6807 H 629.174 2.35217 3.36427 0
M  V30 6808 H 627.835 1.29843 2.86007 0
M  V30 6809 H 627.028 3.57721 3.55038 0
M  V30 6810 H 626.63 3.25188 1.8474 0
M  V30 6811 H 628.922 5.1834 4.36268 0
M  V30 6812 H 629.865 6.26889 3.29266 0
M  V30 6813 H 630.273 4.52906 3.36951 0
M  V30 6814 N 629.671 -0.424282 1.51781 0
M  V30 6815 C 631.082 -1.00368 1.57427 0
M  V30 6816 C 631.433 -1.91962 0.40558 0
M  V30 6817 O 630.558 -2.111 -0.47601 0
M  V30 6818 C 631.153 -1.82707 2.85313 0
M  V30 6819 C 629.712 -2.35675 2.93487 0
M  V30 6820 C 628.859 -1.1524 2.5222 0
M  V30 6821 H 631.81 -0.205064 1.5737 0
M  V30 6822 H 631.831 -2.68294 2.69812 0
M  V30 6823 H 631.343 -1.16017 3.70353 0
M  V30 6824 H 629.444 -3.05781 2.12906 0
M  V30 6825 H 629.557 -2.67578 3.97415 0
M  V30 6826 H 627.921 -1.50174 2.05718 0
M  V30 6827 H 628.704 -0.5014 3.39619 0
M  V30 6828 N 631.149 -1.42148 -0.680565 0
M  V30 6829 C 632.374 -1.45901 -1.47403 0
M  V30 6830 C 632.799 -0.0700985 -1.87969 0
M  V30 6831 O 632.157 0.930145 -1.55621 0
M  V30 6832 C 632.205 -2.38661 -2.70321 0
M  V30 6833 O 631.309 -1.85399 -3.68376 0
M  V30 6834 H 630.65 -0.494565 -0.443059 0
M  V30 6835 H 633.18 -1.86774 -0.835251 0
M  V30 6836 H 633.19 -2.55046 -3.18458 0
M  V30 6837 H 631.865 -3.39571 -2.40134 0
M  V30 6838 H 630.442 -1.78541 -3.2738 0
M  V30 6839 N 632.627 0.916307 -1.28225 0
M  V30 6840 C 634.043 1.19425 -1.05876 0
M  V30 6841 C 634.243 2.005 0.2005 0
M  V30 6842 O 633.299 2.35806 0.902873 0
M  V30 6843 C 634.612 1.93133 -2.30478 0
M  V30 6844 C 636.16 2.06026 -2.35632 0
M  V30 6845 C 636.635 2.83141 -3.59994 0
M  V30 6846 N 638.126 2.90704 -3.60618 0
M  V30 6847 C 638.861 3.50865 -4.53521 0
M  V30 6848 N 638.357 4.12327 -5.56739 0
M  V30 6849 N 640.15 3.48379 -4.41122 0
M  V30 6850 H 632.301 0.37496 -2.09064 0
M  V30 6851 H 634.564 0.228531 -0.920042 0
M  V30 6852 H 634.27 1.40985 -3.22205 0
M  V30 6853 H 634.144 2.93696 -2.36691 0
M  V30 6854 H 636.531 2.57355 -1.44404 0
M  V30 6855 H 636.612 1.04647 -2.33415 0
M  V30 6856 H 636.256 2.32492 -4.51564 0
M  V30 6857 H 636.186 3.84829 -3.59464 0
M  V30 6858 H 638.677 2.47034 -2.85977 0
M  V30 6859 H 638.99 4.56205 -6.23776 0
M  V30 6860 H 637.335 4.10839 -5.60568 0
M  V30 6861 H 640.526 2.99572 -3.59686 0
M  V30 6862 H 640.699 3.94974 -5.13712 0
M  V30 6863 N 634.105 1.10431 1.1244 0
M  V30 6864 C 635.015 0.765502 2.21759 0
M  V30 6865 C 636.031 -0.236966 1.72379 0
M  V30 6866 O 637.207 -0.0757329 2.01258 0
M  V30 6867 C 634.272 0.202316 3.46109 0
M  V30 6868 C 633.333 1.26205 4.1033 0
M  V30 6869 C 632.566 0.725648 5.28744 0
M  V30 6870 O 632.789 -0.447942 5.68638 0
M  V30 6871 O 631.723 1.48555 5.83279 0
M  V30 6872 H 635.549 1.67801 2.53133 0
M  V30 6873 H 633.134 0.879443 1.20773 0
M  V30 6874 H 635.016 -0.107918 4.21262 0
M  V30 6875 H 633.691 -0.683052 3.16411 0
M  V30 6876 H 632.598 1.62514 3.36957 0
M  V30 6877 H 633.931 2.12044 4.44183 0
M  V30 6878 N 635.583 -1.29855 0.893053 0
M  V30 6879 C 636.829 -1.96488 0.52574 0
M  V30 6880 C 637.184 -1.69164 -0.916594 0
M  V30 6881 O 636.477 -0.990405 -1.64017 0
M  V30 6882 C 636.671 -3.49515 0.746588 0
M  V30 6883 C 636.5 -3.91715 2.20884 0
M  V30 6884 C 635.27 -4.16915 2.85499 0
M  V30 6885 C 637.468 -4.03934 3.18342 0
M  V30 6886 N 635.45 -4.45634 4.22236 0
M  V30 6887 C 636.821 -4.36629 4.40176 0
M  V30 6888 C 638.876 -3.86387 3.14021 0
M  V30 6889 C 637.579 -4.53605 5.58243 0
M  V30 6890 C 639.605 -4.04569 4.31367 0
M  V30 6891 C 638.967 -4.37617 5.5197 0
M  V30 6892 H 635.066 -0.743657 0.241863 0
M  V30 6893 H 637.65 -1.56927 1.15248 0
M  V30 6894 H 635.821 -3.88113 0.149281 0
M  V30 6895 H 637.553 -4.03224 0.345372 0
M  V30 6896 H 634.308 -4.10423 2.36326 0
M  V30 6897 H 634.732 -4.64114 4.92876 0
M  V30 6898 H 639.374 -3.59906 2.21873 0
M  V30 6899 H 637.092 -4.78925 6.50889 0
M  V30 6900 H 640.678 -3.92452 4.29503 0
M  V30 6901 H 639.558 -4.51395 6.41258 0
M  V30 6902 N 637.061 -0.65484 -1.43351 0
M  V30 6903 C 638.008 0.0357713 -2.30772 0
M  V30 6904 C 638.978 0.813035 -1.44841 0
M  V30 6905 O 640.163 0.789314 -1.73708 0
M  V30 6906 C 637.303 0.995084 -3.30442 0
M  V30 6907 C 636.416 0.21375 -4.31471 0
M  V30 6908 C 635.551 1.16701 -5.18222 0
M  V30 6909 C 634.59 0.376201 -6.10943 0
M  V30 6910 N 633.727 1.28113 -6.90313 0
M  V30 6911 H 638.567 -0.71559 -2.89281 0
M  V30 6912 H 636.104 -0.364645 -1.42509 0
M  V30 6913 H 638.062 1.5649 -3.86739 0
M  V30 6914 H 636.692 1.7133 -2.7358 0
M  V30 6915 H 635.744 -0.472377 -3.77456 0
M  V30 6916 H 637.056 -0.401103 -4.97185 0
M  V30 6917 H 636.21 1.8074 -5.79153 0
M  V30 6918 H 634.949 1.81577 -4.52638 0
M  V30 6919 H 633.954 -0.277534 -5.49099 0
M  V30 6920 H 635.179 -0.268178 -6.7857 0
M  V30 6921 H 633.125 1.91666 -6.27376 0
M  V30 6922 H 633.042 0.720879 -7.52555 0
M  V30 6923 H 634.31 1.90962 -7.55747 0
M  V30 6924 N 638.539 1.52521 -0.396863 0
M  V30 6925 C 639.955 1.5953 -0.0471659 0
M  V30 6926 C 640.155 1.41044 1.43906 0
M  V30 6927 O 639.211 1.23122 2.20448 0
M  V30 6928 C 640.524 2.95972 -0.531113 0
M  V30 6929 C 642.072 3.09172 -0.488024 0
M  V30 6930 C 642.547 4.48075 -0.948281 0
M  V30 6931 N 644.038 4.54281 -0.9046 0
M  V30 6932 C 644.773 5.60007 -1.23205 0
M  V30 6933 N 644.269 6.73343 -1.63036 0
M  V30 6934 N 646.062 5.50151 -1.15282 0
M  V30 6935 H 638.213 1.62786 -1.36435 0
M  V30 6936 H 640.476 0.76514 -0.559701 0
M  V30 6937 H 640.182 3.14741 -1.56942 0
M  V30 6938 H 640.056 3.77143 0.0657922 0
M  V30 6939 H 642.443 2.90095 0.541211 0
M  V30 6940 H 642.524 2.29937 -1.12083 0
M  V30 6941 H 642.168 4.67894 -1.97578 0
M  V30 6942 H 642.098 5.25788 -0.292412 0
M  V30 6943 H 644.589 3.72918 -0.6116 0
M  V30 6944 H 644.902 7.49992 -1.86365 0
M  V30 6945 H 643.247 6.74655 -1.66929 0
M  V30 6946 H 646.438 4.6049 -0.840602 0
M  V30 6947 H 646.611 6.32444 -1.41133 0
M  V30 6948 N 640.017 0.126909 1.57088 0
M  V30 6949 C 640.964 -0.82036 2.15728 0
M  V30 6950 C 641.934 -1.25811 1.08447 0
M  V30 6951 O 643.119 -1.33422 1.36393 0
M  V30 6952 C 640.259 -2.06199 2.76724 0
M  V30 6953 C 639.372 -1.67188 3.98337 0
M  V30 6954 C 638.507 -2.86378 4.47393 0
M  V30 6955 C 637.546 -2.43644 5.61519 0
M  V30 6956 N 636.683 -3.55775 6.05284 0
M  V30 6957 H 641.523 -0.313472 2.96347 0
M  V30 6958 H 639.06 -0.14303 1.46403 0
M  V30 6959 H 641.018 -2.78959 3.10222 0
M  V30 6960 H 639.648 -2.54333 1.98782 0
M  V30 6961 H 638.7 -0.842714 3.70948 0
M  V30 6962 H 640.012 -1.31789 4.81075 0
M  V30 6963 H 639.166 -3.67353 4.82842 0
M  V30 6964 H 637.905 -3.25009 3.63621 0
M  V30 6965 H 636.91 -1.61104 5.25667 0
M  V30 6966 H 638.135 -2.06122 6.47063 0
M  V30 6967 H 636.081 -3.94065 5.24451 0
M  V30 6968 H 635.998 -3.24325 6.82898 0
M  V30 6969 H 637.266 -4.37166 6.45373 0
M  V30 6970 N 641.495 -1.56914 -0.146875 0
M  V30 6971 C 642.723 -1.87515 -0.874394 0
M  V30 6972 C 643.138 -0.715116 -1.74733 0
M  V30 6973 O 642.495 0.315113 -1.79759 0
M  V30 6974 C 642.546 -3.17362 -1.731 0
M  V30 6975 O 642.267 -4.28897 -0.893245 0
M  V30 6976 C 643.768 -3.61479 -2.56609 0
M  V30 6977 H 640.988 -0.621546 -0.252827 0
M  V30 6978 H 643.532 -2.04023 -0.139627 0
M  V30 6979 H 641.687 -3.02608 -2.41883 0
M  V30 6980 H 642.101 -5.03146 -1.48137 0
M  V30 6981 H 643.575 -4.5517 -3.12289 0
M  V30 6982 H 644.052 -2.86773 -3.32653 0
M  V30 6983 H 644.658 -3.78927 -1.93117 0
M  V30 6984 N 642.974 0.416227 -1.52004 0
M  V30 6985 C 644.39 0.754319 -1.40649 0
M  V30 6986 C 644.59 1.95059 -0.505392 0
M  V30 6987 O 643.646 2.5248 0.0315057 0
M  V30 6988 C 644.959 1.0149 -2.83055 0
M  V30 6989 C 646.507 1.11805 -2.9235 0
M  V30 6990 C 646.982 1.41144 -4.35709 0
M  V30 6991 N 648.473 1.48024 -4.38911 0
M  V30 6992 C 649.208 1.72338 -5.46889 0
M  V30 6993 N 648.704 1.94303 -6.64995 0
M  V30 6994 N 650.497 1.74294 -5.34395 0
M  V30 6995 H 642.648 -0.371324 -2.09129 0
M  V30 6996 H 644.911 -0.103811 -0.942299 0
M  V30 6997 H 644.617 0.208345 -3.51082 0
M  V30 6998 H 644.491 1.93697 -3.23668 0
M  V30 6999 H 646.878 1.91521 -2.24508 0
M  V30 7000 H 646.959 0.17451 -2.55204 0
M  V30 7001 H 646.603 0.619484 -5.04108 0
M  V30 7002 H 646.533 2.36739 -4.70385 0
M  V30 7003 H 649.024 1.32868 -3.53772 0
M  V30 7004 H 649.337 2.12286 -7.43071 0
M  V30 7005 H 647.682 1.91582 -6.68073 0
M  V30 7006 H 650.873 1.56667 -4.41104 0
M  V30 7007 H 651.046 1.92904 -6.18621 0
M  V30 7008 N 644.452 1.42507 0.673017 0
M  V30 7009 C 645.868 1.25472 0.986355 0
M  V30 7010 C 646.068 0.160181 2.00862 0
M  V30 7011 O 645.124 -0.467993 2.48125 0
M  V30 7012 C 646.437 2.61219 1.48947 0
M  V30 7013 C 647.985 2.68589 1.60715 0
M  V30 7014 C 648.46 4.04707 2.14422 0
M  V30 7015 N 649.951 4.0667 2.21752 0
M  V30 7016 C 650.686 5.0881 2.64386 0
M  V30 7017 N 650.182 6.21332 3.0646 0
M  V30 7018 N 651.975 4.96166 2.64151 0
M  V30 7019 H 644.126 2.124 -0.00378532 0
M  V30 7020 H 646.389 0.946046 0.0608367 0
M  V30 7021 H 646.095 3.42179 0.812812 0
M  V30 7022 H 645.969 2.85261 2.46791 0
M  V30 7023 H 648.356 1.87974 2.27486 0
M  V30 7024 H 648.437 2.48333 0.613552 0
M  V30 7025 H 648.081 4.8578 1.48258 0
M  V30 7026 H 648.011 4.22315 3.14575 0
M  V30 7027 H 650.502 3.25438 1.92089 0
M  V30 7028 H 650.815 6.95118 3.37684 0
M  V30 7029 H 649.16 6.24835 3.04313 0
M  V30 7030 H 652.351 4.07334 2.30644 0
M  V30 7031 H 652.524 5.759 2.97057 0
M  V30 7032 N 645.93 -0.909495 1.28709 0
M  V30 7033 C 646.862 -2.01729 1.08804 0
M  V30 7034 C 647.875 -1.62755 0.0384739 0
M  V30 7035 O 649.064 -1.76259 0.281977 0
M  V30 7036 C 646.164 -3.32952 0.63217 0
M  V30 7037 C 645.337 -4.00512 1.75809 0
M  V30 7038 C 644.396 -5.10019 1.29488 0
M  V30 7039 O 643.422 -5.32986 1.99787 0
M  V30 7040 N 644.624 -5.80278 0.1604 0
M  V30 7041 H 647.389 -2.19362 2.04207 0
M  V30 7042 H 644.95 -1.08106 1.20518 0
M  V30 7043 H 646.942 -4.03543 0.305802 0
M  V30 7044 H 645.512 -3.11759 -0.229134 0
M  V30 7045 H 644.732 -3.23413 2.25383 0
M  V30 7046 H 646.02 -4.42395 2.51325 0
M  V30 7047 H 645.418 -5.64094 -0.425937 0
M  V30 7048 H 643.975 -6.51713 -0.106663 0
M  V30 7049 N 647.408 -1.11026 -1.11852 0
M  V30 7050 C 648.654 -0.857729 -1.83768 0
M  V30 7051 C 648.987 0.615143 -1.842 0
M  V30 7052 O 648.262 1.45391 -1.29196 0
M  V30 7053 C 648.545 -1.41453 -3.31154 0
M  V30 7054 C 648.398 -2.95471 -3.39142 0
M  V30 7055 C 649.717 -1.0619 -4.27097 0
M  V30 7056 H 646.836 -0.313044 -0.667212 0
M  V30 7057 H 649.478 -1.37443 -1.31185 0
M  V30 7058 H 647.628 -0.975052 -3.76065 0
M  V30 7059 H 649.3 -3.4799 -3.02821 0
M  V30 7060 H 647.543 -3.31759 -2.79497 0
M  V30 7061 H 648.214 -3.29515 -4.42859 0
M  V30 7062 H 650.69 -1.44122 -3.90344 0
M  V30 7063 H 649.566 -1.47832 -5.28618 0
M  V30 7064 H 649.827 0.0278912 -4.42091 0
M  V30 7065 N 648.886 1.2938 -0.899927 0
M  V30 7066 C 650.132 1.96206 -0.536153 0
M  V30 7067 C 650.487 1.69647 0.90761 0
M  V30 7068 O 649.78 0.999089 1.63489 0
M  V30 7069 C 649.974 3.49114 -0.765113 0
M  V30 7070 C 649.803 3.90538 -2.22958 0
M  V30 7071 C 648.573 4.15395 -2.87706 0
M  V30 7072 C 650.771 4.0224 -3.20479 0
M  V30 7073 N 648.753 4.43389 -4.24593 0
M  V30 7074 C 650.124 4.34288 -4.42486 0
M  V30 7075 C 652.179 3.84716 -3.16066 0
M  V30 7076 C 650.882 4.50638 -5.6064 0
M  V30 7077 C 652.908 4.02276 -4.33507 0
M  V30 7078 C 652.27 4.34684 -5.54283 0
M  V30 7079 H 648.369 0.742364 -0.245804 0
M  V30 7080 H 650.953 1.56314 -1.16078 0
M  V30 7081 H 649.124 3.88028 -0.169861 0
M  V30 7082 H 650.856 4.03035 -0.366751 0
M  V30 7083 H 647.611 4.09164 -2.385 0
M  V30 7084 H 648.035 4.61494 -4.95331 0
M  V30 7085 H 652.677 3.58724 -2.23778 0
M  V30 7086 H 650.395 4.75467 -6.5342 0
M  V30 7087 H 653.981 3.90169 -4.31578 0
M  V30 7088 H 652.861 4.47988 -6.43643 0
M  V30 7089 N 650.364 0.662433 1.43002 0
M  V30 7090 C 651.594 0.187343 2.05749 0
M  V30 7091 C 652.002 -1.15582 1.49791 0
M  V30 7092 O 651.345 -1.72651 0.627487 0
M  V30 7093 C 651.407 0.0316493 3.59486 0
M  V30 7094 C 651.071 1.30156 4.38073 0
M  V30 7095 C 652.068 2.23234 4.69535 0
M  V30 7096 C 649.753 1.54572 4.77926 0
M  V30 7097 C 651.747 3.39012 5.39768 0
M  V30 7098 C 649.434 2.70641 5.47902 0
M  V30 7099 C 650.432 3.62687 5.78746 0
M  V30 7100 O 650.12 4.76728 6.47291 0
M  V30 7101 H 649.852 0.0915214 0.669776 0
M  V30 7102 H 652.406 0.905982 1.8434 0
M  V30 7103 H 650.636 -0.742451 3.79506 0
M  V30 7104 H 652.325 -0.401977 4.03905 0
M  V30 7105 H 653.091 2.05616 4.39257 0
M  V30 7106 H 648.97 0.83804 4.53319 0
M  V30 7107 H 652.514 4.10877 5.63761 0
M  V30 7108 H 648.411 2.88189 5.77596 0
M  V30 7109 H 649.179 4.76113 6.65777 0
M  V30 7110 N 651.842 -1.52309 0.404946 0
M  V30 7111 C 653.253 -1.86585 -0.0655926 0
M  V30 7112 C 653.604 -1.3239 -1.44801 0
M  V30 7113 O 652.729 -0.6615 -2.06042 0
M  V30 7114 C 653.324 -3.38566 -0.125801 0
M  V30 7115 C 651.883 -3.72497 -0.540666 0
M  V30 7116 C 651.03 -2.75806 0.287487 0
M  V30 7117 H 653.981 -1.45995 0.622185 0
M  V30 7118 H 654.002 -3.68658 -0.941888 0
M  V30 7119 H 653.514 -3.77981 0.880473 0
M  V30 7120 H 651.615 -3.38659 -1.55373 0
M  V30 7121 H 651.728 -4.78234 -0.287956 0
M  V30 7122 H 650.092 -2.53474 -0.249561 0
M  V30 7123 H 650.875 -3.18059 1.29203 0
M  V30 7124 N 653.32 -0.135238 -1.57019 0
M  V30 7125 C 654.568 0.51777 -1.95355 0
M  V30 7126 C 654.889 1.6617 -1.02042 0
M  V30 7127 O 654.159 1.95738 -0.0797343 0
M  V30 7128 H 652.739 0.194264 -0.721298 0
M  V30 7129 H 655.401 -0.207983 -1.93787 0
M  V30 7130 H 654.497 0.901675 -2.98791 0
M  V30 7131 N 654.798 1.5699 0.138552 0
M  V30 7132 C 655.708 2.02174 1.19008 0
M  V30 7133 C 656.724 0.938622 1.46512 0
M  V30 7134 O 657.9 1.24872 1.58016 0
M  V30 7135 C 654.965 2.40045 2.50159 0
M  V30 7136 C 654.026 3.62346 2.30226 0
M  V30 7137 C 653.259 3.98401 3.55123 0
M  V30 7138 O 653.482 3.35019 4.61647 0
M  V30 7139 O 652.416 4.91606 3.47285 0
M  V30 7140 H 656.242 2.91954 0.836452 0
M  V30 7141 H 653.827 1.45293 0.347907 0
M  V30 7142 H 655.709 2.65225 3.27465 0
M  V30 7143 H 654.384 1.53417 2.85035 0
M  V30 7144 H 653.291 3.42341 1.50843 0
M  V30 7145 H 654.624 4.49617 2.00262 0
M  V30 7146 N 656.276 -0.40816 1.52223 0
M  V30 7147 C 657.504 -1.17672 1.70179 0
M  V30 7148 C 657.919 -1.84257 0.411696 0
M  V30 7149 O 657.276 -1.7192 -0.612354 0
M  V30 7150 C 657.327 -2.23911 2.83806 0
M  V30 7151 O 657.048 -1.60044 4.0782 0
M  V30 7152 C 658.549 -3.1364 3.13281 0
M  V30 7153 H 655.769 -0.353562 0.570293 0
M  V30 7154 H 658.313 -0.480083 1.98785 0
M  V30 7155 H 656.468 -2.89242 2.57717 0
M  V30 7156 H 656.882 -2.30484 4.71145 0
M  V30 7157 H 658.356 -3.84255 3.96298 0
M  V30 7158 H 658.833 -3.76066 2.26872 0
M  V30 7159 H 659.439 -2.53977 3.41139 0
M  V30 7160 N 657.755 -1.42862 -0.66545 0
M  V30 7161 C 658.685 -1.49867 -1.79059 0
M  V30 7162 C 659.666 -0.354394 -1.66367 0
M  V30 7163 O 660.851 -0.569969 -1.85647 0
M  V30 7164 C 657.981 -1.40943 -3.17415 0
M  V30 7165 C 656.935 -2.53495 -3.44854 0
M  V30 7166 C 656.261 -2.29626 -4.82883 0
M  V30 7167 C 657.561 -3.95781 -3.40815 0
M  V30 7168 H 659.255 -2.44037 -1.73453 0
M  V30 7169 H 656.801 -1.17456 -0.833071 0
M  V30 7170 H 658.754 -1.4445 -3.95869 0
M  V30 7171 H 657.478 -0.432716 -3.23721 0
M  V30 7172 H 656.137 -2.4932 -2.68766 0
M  V30 7173 H 655.785 -1.30226 -4.8585 0
M  V30 7174 H 655.485 -3.05065 -5.02204 0
M  V30 7175 H 657.009 -2.34897 -5.63609 0
M  V30 7176 H 658.423 -4.01508 -4.09224 0
M  V30 7177 H 656.82 -4.71148 -3.71672 0
M  V30 7178 H 657.89 -4.21786 -2.39216 0
M  V30 7179 N 659.233 0.902656 -1.29189 0
M  V30 7180 C 660.482 1.6475 -1.16362 0
M  V30 7181 C 660.795 1.93517 0.284682 0
M  V30 7182 O 662.001 2.66192 0.534229 0
M  V30 7183 C 660.457 2.96848 -2.03493 0
M  V30 7184 C 660.065 2.75687 -3.5313 0
M  V30 7185 C 661.809 3.74762 -1.99383 0
M  V30 7186 C 659.716 4.03492 -4.32375 0
M  V30 7187 H 658.646 0.618041 -0.431904 0
M  V30 7188 H 661.297 1.0008 -1.53806 0
M  V30 7189 H 659.679 3.62715 -1.58916 0
M  V30 7190 H 660.853 2.18431 -4.05739 0
M  V30 7191 H 659.168 2.11171 -3.58881 0
M  V30 7192 H 661.765 4.69515 -2.5585 0
M  V30 7193 H 662.108 4.04767 -0.973123 0
M  V30 7194 H 662.641 3.15732 -2.41988 0
M  V30 7195 H 659.38 3.78656 -5.3507 0
M  V30 7196 H 658.9 4.60318 -3.84535 0
M  V30 7197 H 660.579 4.71662 -4.42881 0
M  V30 7198 N 660.711 1.11618 1.11262 0
M  V30 7199 C 661.641 0.79846 2.19424 0
M  V30 7200 C 662.622 -0.234003 1.68483 0
M  V30 7201 O 663.807 -0.0970704 1.93957 0
M  V30 7202 C 660.937 0.242892 3.4645 0
M  V30 7203 C 659.891 1.20744 4.10615 0
M  V30 7204 C 659.217 0.512494 5.32238 0
M  V30 7205 C 660.517 2.55884 4.55325 0
M  V30 7206 H 662.211 1.70286 2.46258 0
M  V30 7207 H 659.757 0.820195 1.18359 0
M  V30 7208 H 661.71 0.00840447 4.21399 0
M  V30 7209 H 660.434 -0.696811 3.1908 0
M  V30 7210 H 659.093 1.42759 3.37662 0
M  V30 7211 H 658.741 -0.432075 5.01141 0
M  V30 7212 H 658.441 1.15583 5.7612 0
M  V30 7213 H 659.965 0.286842 6.09926 0
M  V30 7214 H 661.379 2.37946 5.21588 0
M  V30 7215 H 659.776 3.16216 5.10027 0
M  V30 7216 H 660.846 3.14968 3.68678 0
M  V30 7217 N 662.189 -1.289 0.906776 0
M  V30 7218 C 663.437 -1.94883 0.535266 0
M  V30 7219 C 663.758 -1.71784 -0.922791 0
M  V30 7220 O 663.028 -1.05359 -1.65156 0
M  V30 7221 H 661.608 -0.721109 0.194962 0
M  V30 7222 H 664.27 -1.57018 1.15461 0
M  V30 7223 H 663.366 -3.03591 0.723821 0
M  V30 7224 N 663.667 -0.670007 -1.42649 0
M  V30 7225 C 664.916 -0.187526 -2.00826 0
M  V30 7226 C 665.229 1.21142 -1.53571 0
M  V30 7227 O 666.435 1.79001 -2.04134 0
M  V30 7228 C 664.891 -0.284409 -3.58774 0
M  V30 7229 C 664.499 -1.6871 -4.15019 0
M  V30 7230 C 666.243 0.139605 -4.2427 0
M  V30 7231 C 664.15 -1.73701 -5.65316 0
M  V30 7232 H 663.08 -0.0663468 -0.751075 0
M  V30 7233 H 665.731 -0.834492 -1.63427 0
M  V30 7234 H 664.113 0.430364 -3.93655 0
M  V30 7235 H 665.287 -2.42857 -3.91608 0
M  V30 7236 H 663.602 -2.05855 -3.61957 0
M  V30 7237 H 666.199 0.122398 -5.3456 0
M  V30 7238 H 666.542 1.17403 -3.99402 0
M  V30 7239 H 667.075 -0.523995 -3.94334 0
M  V30 7240 H 663.814 -2.75109 -5.94975 0
M  V30 7241 H 663.334 -1.03903 -5.90732 0
M  V30 7242 H 665.013 -1.48829 -6.2965 0
M  V30 7243 N 665.145 1.52092 -0.413018 0
M  V30 7244 C 666.393 2.01456 0.161178 0
M  V30 7245 C 666.714 1.30034 1.45314 0
M  V30 7246 O 665.984 0.427435 1.9118 0
M  V30 7247 H 664.564 0.744376 0.0625526 0
M  V30 7248 H 667.226 1.86974 -0.550151 0
M  V30 7249 H 666.322 3.1008 0.354517 0
M  V30 7250 N 666.623 0.143563 1.56945 0
M  V30 7251 C 667.555 -0.828353 2.13708 0
M  V30 7252 C 668.568 -1.21313 1.08568 0
M  V30 7253 O 669.757 -1.1578 1.35857 0
M  V30 7254 C 666.857 -2.12248 2.64204 0
M  V30 7255 C 666.03 -1.90561 3.93707 0
M  V30 7256 C 665.089 -3.03931 4.29549 0
M  V30 7257 O 664.115 -2.75772 4.97934 0
M  V30 7258 N 665.317 -4.31016 3.88852 0
M  V30 7259 H 668.082 -0.343242 2.97728 0
M  V30 7260 H 665.643 -0.0401152 1.6185 0
M  V30 7261 H 667.635 -2.87132 2.85197 0
M  V30 7262 H 666.205 -2.52033 1.84928 0
M  V30 7263 H 665.425 -0.997327 3.81375 0
M  V30 7264 H 666.713 -1.73405 4.78339 0
M  V30 7265 H 666.111 -4.56762 3.33743 0
M  V30 7266 H 664.668 -5.02691 4.14903 0
M  V30 7267 N 668.101 -1.57061 -0.130224 0
M  V30 7268 C 669.349 -1.83893 -0.838313 0
M  V30 7269 C 669.67 -0.727046 -1.80939 0
M  V30 7270 O 668.94 0.249927 -1.94299 0
M  V30 7271 H 667.52 -0.67846 -0.312573 0
M  V30 7272 H 670.182 -1.94529 -0.120224 0
M  V30 7273 H 669.278 -2.79419 -1.39038 0
M  V30 7274 N 669.579 0.400081 -1.52437 0
M  V30 7275 C 670.809 1.16598 -1.70553 0
M  V30 7276 C 671.217 1.8451 -0.418665 0
M  V30 7277 O 670.56 1.73069 0.615855 0
M  V30 7278 C 670.622 2.26517 -2.7916 0
M  V30 7279 C 670.286 1.78666 -4.20628 0
M  V30 7280 C 671.283 1.26946 -5.04163 0
M  V30 7281 C 668.968 1.85225 -4.66902 0
M  V30 7282 C 670.962 0.824187 -6.32049 0
M  V30 7283 C 668.649 1.40309 -5.94774 0
M  V30 7284 C 669.647 0.889922 -6.77178 0
M  V30 7285 O 669.335 0.447281 -8.02655 0
M  V30 7286 H 669.067 0.356023 -0.574651 0
M  V30 7287 H 671.621 0.475598 -1.99818 0
M  V30 7288 H 669.851 2.98946 -2.45292 0
M  V30 7289 H 671.54 2.88237 -2.85787 0
M  V30 7290 H 672.306 1.21244 -4.69601 0
M  V30 7291 H 668.185 2.24111 -4.02859 0
M  V30 7292 H 671.729 0.422958 -6.96317 0
M  V30 7293 H 667.626 1.45693 -6.28843 0
M  V30 7294 H 668.394 0.569768 -8.16514 0
M  V30 7295 N 671.057 1.43213 0.657864 0
M  V30 7296 C 671.99 1.42456 1.78273 0
M  V30 7297 C 672.968 0.286598 1.60054 0
M  V30 7298 O 674.152 0.479467 1.823 0
M  V30 7299 C 671.279 1.23169 3.15511 0
M  V30 7300 C 670.325 2.40181 3.52442 0
M  V30 7301 S 671.158 4.02729 3.52944 0
M  V30 7302 C 672.314 3.85816 4.92846 0
M  V30 7303 H 672.547 2.37642 1.78644 0
M  V30 7304 H 670.08 1.30188 0.830084 0
M  V30 7305 H 672.038 1.12728 3.94719 0
M  V30 7306 H 670.699 0.295398 3.12708 0
M  V30 7307 H 669.892 2.22478 4.52239 0
M  V30 7308 H 669.494 2.47224 2.80636 0
M  V30 7309 H 671.786 3.47853 5.81381 0
M  V30 7310 H 672.729 4.85348 5.15599 0
M  V30 7311 H 673.137 3.18361 4.66162 0
M  V30 7312 N 672.536 -0.895792 1.29666 0
M  V30 7313 C 673.468 -2.00563 1.10937 0
M  V30 7314 C 674.481 -1.62705 0.055734 0
M  V30 7315 O 675.67 -1.7595 0.300656 0
M  V30 7316 C 672.77 -3.32262 0.667448 0
M  V30 7317 C 671.943 -3.98625 1.80047 0
M  V30 7318 C 671.002 -5.08617 1.3489 0
M  V30 7319 O 670.028 -5.30837 2.05429 0
M  V30 7320 N 671.23 -5.80076 0.221937 0
M  V30 7321 H 673.995 -2.17184 2.06522 0
M  V30 7322 H 671.556 -1.06822 1.21658 0
M  V30 7323 H 673.548 -4.03196 0.348586 0
M  V30 7324 H 672.118 -3.11985 -0.196055 0
M  V30 7325 H 671.338 -3.21005 2.28801 0
M  V30 7326 H 672.626 -4.39704 2.56003 0
M  V30 7327 H 672.024 -5.64514 -0.366084 0
M  V30 7328 H 670.581 -6.51789 -0.0375346 0
M  V30 7329 N 674.014 -1.12206 -1.10668 0
M  V30 7330 C 674.977 -0.790867 -2.15123 0
M  V30 7331 C 675.977 0.193618 -1.5963 0
M  V30 7332 O 677.167 -0.0318728 -1.74171 0
M  V30 7333 C 674.299 -0.174797 -3.40452 0
M  V30 7334 H 675.492 -1.7163 -2.45933 0
M  V30 7335 H 673.045 -0.924993 -1.2599 0
M  V30 7336 H 673.78 0.760478 -3.15257 0
M  V30 7337 H 673.565 -0.88358 -3.82015 0
M  V30 7338 H 675.055 0.0405162 -4.1758 0
M  V30 7339 N 675.492 1.28418 -0.913599 0
M  V30 7340 C 676.72 1.99106 -0.562536 0
M  V30 7341 C 677.135 1.68273 0.856137 0
M  V30 7342 O 676.492 0.935401 1.56705 0
M  V30 7343 C 676.543 3.5338 -0.761903 0
M  V30 7344 O 676.264 3.83127 -2.12475 0
M  V30 7345 C 677.765 4.41328 -0.417651 0
M  V30 7346 H 674.985 0.635798 -0.214481 0
M  V30 7347 H 677.529 1.63618 -1.22676 0
M  V30 7348 H 675.684 3.8713 -0.144676 0
M  V30 7349 H 676.098 4.77763 -2.16431 0
M  V30 7350 H 677.572 5.48642 -0.607919 0
M  V30 7351 H 678.049 4.34422 0.646108 0
M  V30 7352 H 678.655 4.13074 -1.01241 0
M  V30 7353 N 676.97 0.677563 1.42291 0
M  V30 7354 C 678.381 0.277912 1.8462 0
M  V30 7355 C 678.732 -1.18048 1.56714 0
M  V30 7356 O 677.857 -1.90404 1.02836 0
M  V30 7357 C 678.452 0.497619 3.35126 0
M  V30 7358 C 677.011 0.152063 3.76093 0
M  V30 7359 C 676.158 0.78872 2.65847 0
M  V30 7360 H 679.109 0.879527 1.32098 0
M  V30 7361 H 679.13 -0.24939 3.79682 0
M  V30 7362 H 678.642 1.55913 3.55405 0
M  V30 7363 H 676.743 -0.905896 3.6142 0
M  V30 7364 H 676.856 0.594514 4.75397 0
M  V30 7365 H 675.22 0.219813 2.5375 0
M  V30 7366 H 676.003 1.85374 2.88949 0
M  V30 7367 N 678.448 -1.51871 0.421078 0
M  V30 7368 C 679.697 -2.01125 -0.152206 0
M  V30 7369 C 680.01 -1.3106 -1.45199 0
M  V30 7370 O 681.216 -1.71195 -2.10724 0
M  V30 7371 C 679.672 -3.58458 -0.3218 0
M  V30 7372 C 679.28 -4.37448 0.96659 0
M  V30 7373 C 681.024 -4.15908 -0.84973 0
M  V30 7374 C 678.931 -5.86451 0.763529 0
M  V30 7375 H 677.861 -0.751556 -0.0606565 0
M  V30 7376 H 680.512 -1.75115 0.548354 0
M  V30 7377 H 678.894 -3.80847 -1.08498 0
M  V30 7378 H 680.068 -4.26814 1.73684 0
M  V30 7379 H 678.383 -3.91373 1.42183 0
M  V30 7380 H 680.98 -5.24922 -1.01788 0
M  V30 7381 H 681.323 -3.74031 -1.82774 0
M  V30 7382 H 681.856 -3.97535 -0.145297 0
M  V30 7383 H 678.595 -6.3271 1.71344 0
M  V30 7384 H 678.115 -5.99791 0.0327889 0
M  V30 7385 H 679.794 -6.45697 0.410354 0
M  V30 7386 N 679.926 -0.151884 -1.56866 0
M  V30 7387 C 680.858 0.817008 -2.14144 0
M  V30 7388 C 681.871 1.20735 -1.0921 0
M  V30 7389 O 683.06 1.15058 -1.36469 0
M  V30 7390 C 680.16 2.10844 -2.65326 0
M  V30 7391 C 679.333 1.88471 -3.94712 0
M  V30 7392 C 678.392 3.01649 -4.31155 0
M  V30 7393 O 677.418 2.73127 -4.9939 0
M  V30 7394 N 678.62 4.28947 -3.91132 0
M  V30 7395 H 681.385 0.327448 -2.97906 0
M  V30 7396 H 678.946 0.0315313 -1.61869 0
M  V30 7397 H 680.938 2.85616 -2.86715 0
M  V30 7398 H 679.508 2.51049 -1.86262 0
M  V30 7399 H 678.728 0.977088 -3.81899 0
M  V30 7400 H 680.016 1.70866 -4.79252 0
M  V30 7401 H 679.414 4.54986 -3.36161 0
M  V30 7402 H 677.971 5.00484 -4.17563 0
M  V30 7403 N 681.404 1.57128 0.121893 0
M  V30 7404 C 682.334 2.03165 1.15092 0
M  V30 7405 C 683.315 0.915587 1.43356 0
M  V30 7406 O 684.5 1.1851 1.53847 0
M  V30 7407 C 681.63 2.43352 2.47784 0
M  V30 7408 C 680.584 3.58376 2.33989 0
M  V30 7409 C 679.91 3.84454 3.71617 0
M  V30 7410 C 681.21 4.90199 1.80283 0
M  V30 7411 H 682.904 2.89382 0.768023 0
M  V30 7412 H 680.45 1.39218 0.367998 0
M  V30 7413 H 682.403 2.74163 3.20019 0
M  V30 7414 H 681.127 1.54103 2.87958 0
M  V30 7415 H 679.786 3.2777 1.64202 0
M  V30 7416 H 679.434 2.92414 4.09271 0
M  V30 7417 H 679.134 4.61877 3.6324 0
M  V30 7418 H 680.658 4.17714 4.45362 0
M  V30 7419 H 682.072 5.19565 2.42333 0
M  V30 7420 H 680.469 5.71601 1.82735 0
M  V30 7421 H 681.539 4.78904 0.760184 0
M  V30 7422 N 682.882 -0.391992 1.52647 0
M  V30 7423 C 683.845 -1.46135 1.7657 0
M  V30 7424 C 684.845 -1.47701 0.635698 0
M  V30 7425 O 686.035 -1.48924 0.903728 0
M  V30 7426 C 683.167 -2.85443 1.86374 0
M  V30 7427 H 684.36 -1.26208 2.72051 0
M  V30 7428 H 681.913 -0.623549 1.43323 0
M  V30 7429 H 682.648 -3.10718 0.928685 0
M  V30 7430 H 682.433 -2.85708 2.68539 0
M  V30 7431 H 683.923 -3.62933 2.06566 0
M  V30 7432 N 684.36 -1.4356 -0.65026 0
M  V30 7433 C 685.292 -1.44918 -1.77571 0
M  V30 7434 C 686.305 -0.344925 -1.59104 0
M  V30 7435 O 687.494 -0.609537 -1.6777 0
M  V30 7436 C 684.594 -1.24914 -3.15039 0
M  V30 7437 C 683.767 -2.48232 -3.60138 0
M  V30 7438 C 682.826 -2.23409 -4.76419 0
M  V30 7439 O 681.852 -2.9678 -4.85706 0
M  V30 7440 N 683.054 -1.25259 -5.66825 0
M  V30 7441 H 685.819 -2.41935 -1.76883 0
M  V30 7442 H 683.38 -1.38754 -0.834202 0
M  V30 7443 H 685.372 -1.06185 -3.90521 0
M  V30 7444 H 683.942 -0.363319 -3.10481 0
M  V30 7445 H 683.162 -2.82366 -2.75069 0
M  V30 7446 H 684.45 -3.30296 -3.87017 0
M  V30 7447 H 683.848 -0.646246 -5.61997 0
M  V30 7448 H 682.405 -1.12513 -6.42016 0
M  V30 7449 N 685.838 0.888903 -1.30139 0
M  V30 7450 C 686.771 1.99655 -1.10514 0
M  V30 7451 C 687.749 1.62594 -0.0138934 0
M  V30 7452 O 688.933 1.87762 -0.166689 0
M  V30 7453 C 686.06 3.31708 -0.684655 0
M  V30 7454 C 685.106 3.87755 -1.77619 0
M  V30 7455 S 685.939 4.15532 -3.37777 0
M  V30 7456 C 687.095 5.5061 -2.97622 0
M  V30 7457 H 687.328 2.15996 -2.04287 0
M  V30 7458 H 684.861 1.03682 -1.14409 0
M  V30 7459 H 686.819 4.08039 -0.448782 0
M  V30 7460 H 685.48 3.1323 0.233648 0
M  V30 7461 H 684.673 4.83164 -1.43417 0
M  V30 7462 H 684.275 3.18149 -1.96614 0
M  V30 7463 H 686.567 6.31518 -2.45338 0
M  V30 7464 H 687.51 5.89747 -3.91924 0
M  V30 7465 H 687.918 5.12983 -2.35603 0
M  V30 7466 N 687.317 1.12792 1.10072 0
M  V30 7467 C 688.545 0.908506 1.85886 0
M  V30 7468 C 688.96 -0.542408 1.80841 0
M  V30 7469 O 688.317 -1.37517 1.1998 0
M  V30 7470 C 688.368 1.37973 3.34134 0
M  V30 7471 O 688.089 2.77378 3.39106 0
M  V30 7472 C 689.59 1.1978 4.26811 0
M  V30 7473 H 686.81 0.3244 0.587372 0
M  V30 7474 H 689.354 1.49882 1.39125 0
M  V30 7475 H 687.509 0.832566 3.78348 0
M  V30 7476 H 687.923 2.98144 4.31521 0
M  V30 7477 H 689.397 1.57635 5.29014 0
M  V30 7478 H 689.874 0.138768 4.38981 0
M  V30 7479 H 690.48 1.73266 3.88406 0
M  V30 7480 N 688.795 -1.27931 0.920396 0
M  V30 7481 C 689.758 -2.25345 0.41858 0
M  V30 7482 C 690.758 -1.54116 -0.458798 0
M  V30 7483 O 691.948 -1.72235 -0.260912 0
M  V30 7484 C 689.08 -3.38556 -0.399104 0
M  V30 7485 H 690.273 -2.71251 1.27918 0
M  V30 7486 H 687.826 -1.39728 0.700406 0
M  V30 7487 H 688.561 -2.98021 -1.27882 0
M  V30 7488 H 688.346 -3.91426 0.229863 0
M  V30 7489 H 689.836 -4.10976 -0.740817 0
M  V30 7490 N 690.273 -0.685099 -1.4193 0
M  V30 7491 C 691.203 -0.0273506 -2.33484 0
M  V30 7492 C 692.184 0.778366 -1.51246 0
M  V30 7493 O 693.369 0.733449 -1.79817 0
M  V30 7494 C 690.499 0.917272 -3.34968 0
M  V30 7495 C 689.453 0.21941 -4.27437 0
M  V30 7496 C 688.779 1.27768 -5.1921 0
M  V30 7497 C 690.079 -0.907894 -5.14349 0
M  V30 7498 H 691.773 -0.791994 -2.88735 0
M  V30 7499 H 689.319 -0.382308 -1.38832 0
M  V30 7500 H 691.272 1.38657 -3.97935 0
M  V30 7501 H 689.996 1.71346 -2.78043 0
M  V30 7502 H 688.655 -0.229757 -3.65879 0
M  V30 7503 H 688.303 2.06612 -4.58607 0
M  V30 7504 H 688.003 0.815803 -5.81909 0
M  V30 7505 H 689.527 1.7477 -5.85054 0
M  V30 7506 H 690.941 -0.519348 -5.70943 0
M  V30 7507 H 689.338 -1.2962 -5.85934 0
M  V30 7508 H 690.408 -1.75218 -4.52136 0
M  V30 7509 N 691.751 1.51645 -0.429126 0
M  V30 7510 C 692.681 2.30434 0.377148 0
M  V30 7511 C 693.662 1.35493 1.02838 0
M  V30 7512 O 694.847 1.6441 1.03359 0
M  V30 7513 C 691.977 3.14038 1.48315 0
M  V30 7514 C 690.931 4.1719 0.955855 0
M  V30 7515 C 690.257 4.89263 2.15698 0
M  V30 7516 C 691.557 5.223 -0.00402136 0
M  V30 7517 H 693.251 2.98085 -0.280336 0
M  V30 7518 H 690.797 1.43354 -0.136265 0
M  V30 7519 H 692.75 3.67933 2.05435 0
M  V30 7520 H 691.474 2.44193 2.16881 0
M  V30 7521 H 690.133 3.64335 0.406929 0
M  V30 7522 H 689.781 4.15929 2.82864 0
M  V30 7523 H 689.481 5.59009 1.81059 0
M  V30 7524 H 691.005 5.45978 2.73387 0
M  V30 7525 H 692.419 5.71315 0.476607 0
M  V30 7526 H 690.816 5.99525 -0.26258 0
M  V30 7527 H 691.886 4.75638 -0.943236 0
M  V30 7528 N 693.229 0.160201 1.56784 0
M  V30 7529 C 694.192 -0.760405 2.16219 0
M  V30 7530 C 695.192 -1.16595 1.10735 0
M  V30 7531 O 696.382 -1.08472 1.36306 0
M  V30 7532 C 693.514 -2.03358 2.73603 0
M  V30 7533 H 694.707 -0.243173 2.98912 0
M  V30 7534 H 692.26 -0.0893139 1.56045 0
M  V30 7535 H 692.995 -2.59416 1.94612 0
M  V30 7536 H 692.78 -1.75186 3.50788 0
M  V30 7537 H 694.27 -2.69081 3.19351 0
M  V30 7538 N 694.707 -1.5719 -0.113559 0
M  V30 7539 C 695.655 -2.01725 -1.158 0
M  V30 7540 C 696.649 -0.915105 -1.42556 0
M  V30 7541 O 697.855 -1.10031 -1.42454 0
M  V30 7542 H 694.23 -0.64262 -0.390569 0
M  V30 7543 H 696.201 -2.88666 -0.755926 0
M  V30 7544 C 694.95 -2.44203 -2.47507 0
M  V30 7545 H 694.273 -3.28582 -2.27758 0
M  V30 7546 H 695.713 -2.79158 -3.19135 0
M  V30 7547 C 694.172 -1.30785 -3.10478 0
M  V30 7548 O 694.702 -0.626807 -3.9678 0
M  V30 7549 N 692.908 -1.06352 -2.7044 0
M  V30 7550 H 692.455 -1.61913 -2.00355 0
M  V30 7551 H 692.413 -0.306614 -3.12901 0
M  V30 7552 N 696.185 0.383891 -1.52853 0
M  V30 7553 C 697.132 1.46924 -1.77995 0
M  V30 7554 C 698.102 1.53958 -0.623396 0
M  V30 7555 O 699.287 1.70134 -0.863657 0
M  V30 7556 C 696.427 2.84093 -1.95921 0
M  V30 7557 C 695.54 2.86171 -3.23621 0
M  V30 7558 C 694.675 4.14799 -3.31836 0
M  V30 7559 C 693.714 4.10948 -4.53639 0
M  V30 7560 N 692.851 5.31192 -4.59107 0
M  V30 7561 H 697.691 1.24786 -2.70615 0
M  V30 7562 H 695.228 0.605265 -1.34071 0
M  V30 7563 H 697.186 3.63755 -2.04299 0
M  V30 7564 H 695.816 3.04671 -1.06656 0
M  V30 7565 H 694.868 1.9885 -3.24288 0
M  V30 7566 H 696.18 2.79194 -4.13343 0
M  V30 7567 H 695.334 5.02867 -3.39425 0
M  V30 7568 H 694.073 4.24505 -2.40097 0
M  V30 7569 H 693.078 3.21268 -4.46169 0
M  V30 7570 H 694.303 4.0286 -5.467 0
M  V30 7571 H 692.249 5.41518 -3.70262 0
M  V30 7572 H 692.166 5.26311 -5.42708 0
M  V30 7573 H 693.434 6.21143 -4.70958 0
M  V30 7574 N 697.663 1.43903 0.642637 0
M  V30 7575 C 698.911 1.45791 1.39962 0
M  V30 7576 C 699.232 0.0873144 1.94804 0
M  V30 7577 O 698.502 -0.878825 1.75081 0
M  V30 7578 H 697.082 0.536797 0.519479 0
M  V30 7579 H 699.744 1.7959 0.757189 0
M  V30 7580 H 698.84 2.17665 2.2367 0
M  V30 7581 N 699.141 -0.881989 1.30609 0
M  V30 7582 C 700.091 -1.97539 1.13852 0
M  V30 7583 C 701.075 -1.60813 0.0528428 0
M  V30 7584 O 702.267 -1.74827 0.276484 0
M  V30 7585 C 699.396 -3.32977 0.835519 0
M  V30 7586 C 698.482 -3.76008 1.96159 0
M  V30 7587 N 698.873 -3.91109 3.20729 0
M  V30 7588 C 697.171 -4.05427 1.85863 0
M  V30 7589 C 697.872 -4.27661 3.94311 0
M  V30 7590 N 696.848 -4.37686 3.22385 0
M  V30 7591 H 700.65 -2.07309 2.08327 0
M  V30 7592 H 698.164 -1.072 1.21992 0
M  V30 7593 H 700.161 -4.11041 0.696477 0
M  V30 7594 H 698.821 -3.24542 -0.101135 0
M  V30 7595 H 699.832 -3.7616 3.55984 0
M  V30 7596 H 696.509 -4.05449 0.995847 0
M  V30 7597 H 697.899 -4.47042 5.01601 0
M  V30 7598 N 700.619 -1.13374 -1.09472 0
M  V30 7599 C 701.865 -0.906459 -1.82085 0
M  V30 7600 C 702.22 0.5614 -1.84027 0
M  V30 7601 O 701.513 1.41012 -1.29716 0
M  V30 7602 C 701.707 -1.42759 -3.2765 0
M  V30 7603 C 701.536 -2.94459 -3.39888 0
M  V30 7604 C 700.306 -3.62798 -3.51718 0
M  V30 7605 C 702.504 -3.92398 -3.32457 0
M  V30 7606 N 700.486 -5.02516 -3.52635 0
M  V30 7607 C 701.857 -5.18304 -3.40237 0
M  V30 7608 C 703.912 -3.84671 -3.16122 0
M  V30 7609 C 702.615 -6.37386 -3.33364 0
M  V30 7610 C 704.641 -5.03287 -3.10574 0
M  V30 7611 C 704.003 -6.28055 -3.18945 0
M  V30 7612 H 700.102 -0.385097 -0.680606 0
M  V30 7613 H 702.686 -1.44187 -1.30836 0
M  V30 7614 H 700.857 -0.919102 -3.77369 0
M  V30 7615 H 702.589 -1.14136 -3.88272 0
M  V30 7616 H 699.344 -3.13317 -3.55147 0
M  V30 7617 H 699.768 -5.75421 -3.56679 0
M  V30 7618 H 704.41 -2.89094 -3.0852 0
M  V30 7619 H 702.128 -7.33219 -3.3973 0
M  V30 7620 H 705.714 -4.99047 -2.9907 0
M  V30 7621 H 704.594 -7.18299 -3.14668 0
M  V30 7622 N 702.098 1.27442 -0.927168 0
M  V30 7623 C 703.347 1.93679 -0.563146 0
M  V30 7624 C 703.66 1.73673 0.899837 0
M  V30 7625 O 704.866 2.34247 1.37262 0
M  V30 7626 C 703.322 3.46961 -0.95636 0
M  V30 7627 C 702.93 3.75724 -2.43999 0
M  V30 7628 C 704.674 4.19282 -0.663565 0
M  V30 7629 C 702.581 5.22378 -2.77263 0
M  V30 7630 H 701.511 0.725059 -0.206894 0
M  V30 7631 H 704.162 1.44743 -1.12791 0
M  V30 7632 H 702.544 3.94703 -0.320254 0
M  V30 7633 H 703.718 3.38741 -3.12396 0
M  V30 7634 H 702.033 3.16605 -2.70463 0
M  V30 7635 H 704.63 5.27265 -0.888596 0
M  V30 7636 H 704.973 4.14382 0.399198 0
M  V30 7637 H 705.506 3.7736 -1.25875 0
M  V30 7638 H 702.245 5.32367 -3.82446 0
M  V30 7639 H 701.765 5.6051 -2.13516 0
M  V30 7640 H 703.444 5.9025 -2.64979 0
M  V30 7641 N 703.576 0.692616 1.41565 0
M  V30 7642 C 704.992 0.363878 1.55397 0
M  V30 7643 C 705.192 -1.1294 1.66874 0
M  V30 7644 O 704.248 -1.91517 1.64552 0
M  V30 7645 C 705.561 1.10982 2.7947 0
M  V30 7646 C 707.109 1.09387 2.93263 0
M  V30 7647 C 707.584 1.8215 4.20221 0
M  V30 7648 N 709.075 1.79105 4.27172 0
M  V30 7649 C 709.81 2.32247 5.2426 0
M  V30 7650 N 709.306 2.93847 6.27396 0
M  V30 7651 N 711.099 2.22519 5.1618 0
M  V30 7652 H 703.25 1.66116 1.3236 0
M  V30 7653 H 705.513 0.700848 0.63837 0
M  V30 7654 H 705.219 2.1647 2.77188 0
M  V30 7655 H 705.093 0.686492 3.709 0
M  V30 7656 H 707.48 0.0472638 2.95062 0
M  V30 7657 H 707.561 1.55623 2.03015 0
M  V30 7658 H 707.205 2.86789 4.19183 0
M  V30 7659 H 707.135 1.33351 5.09436 0
M  V30 7660 H 709.626 1.34191 3.53272 0
M  V30 7661 H 709.939 3.31972 6.97864 0
M  V30 7662 H 708.284 2.97924 6.27906 0
M  V30 7663 H 711.475 1.7407 4.34531 0
M  V30 7664 H 711.648 2.64239 5.91677 0
M  V30 7665 N 705.054 -1.51416 0.437162 0
M  V30 7666 C 706.465 -1.86682 -0.0260005 0
M  V30 7667 C 706.816 -1.35432 -1.4196 0
M  V30 7668 O 705.941 -0.705055 -2.04592 0
M  V30 7669 C 706.536 -3.38757 -0.0539577 0
M  V30 7670 C 705.095 -3.7356 -0.461532 0
M  V30 7671 C 704.242 -2.75134 0.345924 0
M  V30 7672 H 707.193 -1.44642 0.653013 0
M  V30 7673 H 707.214 -3.70573 -0.863478 0
M  V30 7674 H 706.726 -3.76028 0.96045 0
M  V30 7675 H 704.827 -3.41878 -1.48155 0
M  V30 7676 H 704.94 -4.78737 -0.186451 0
M  V30 7677 H 703.304 -2.53947 -0.195739 0
M  V30 7678 H 704.087 -3.15247 1.35921 0
M  V30 7679 N 706.532 -0.168513 -1.56696 0
M  V30 7680 C 707.482 0.7751 -2.14421 0
M  V30 7681 C 708.466 1.19476 -1.07769 0
M  V30 7682 O 709.658 1.15759 -1.33898 0
M  V30 7683 C 706.787 2.00549 -2.7863 0
M  V30 7684 C 705.873 1.60795 -3.92436 0
M  V30 7685 N 706.264 0.919812 -4.97366 0
M  V30 7686 C 704.562 1.89917 -4.03544 0
M  V30 7687 C 705.263 0.724485 -5.77171 0
M  V30 7688 N 704.239 1.26505 -5.28675 0
M  V30 7689 H 708.041 0.240349 -2.92916 0
M  V30 7690 H 705.555 0.0322675 -1.62368 0
M  V30 7691 H 707.552 2.6917 -3.1836 0
M  V30 7692 H 706.212 2.54522 -2.01615 0
M  V30 7693 H 707.223 0.578169 -5.14663 0
M  V30 7694 H 703.9 2.45587 -3.37629 0
M  V30 7695 H 705.29 0.180521 -6.71657 0
M  V30 7696 N 708.01 1.57248 0.105221 0
M  V30 7697 C 708.94 2.04374 1.12931 0
M  V30 7698 C 709.921 0.93074 1.42377 0
M  V30 7699 O 711.106 1.20136 1.52581 0
M  V30 7700 C 708.236 2.45967 2.45189 0
M  V30 7701 C 707.19 3.60838 2.30174 0
M  V30 7702 C 706.516 3.88374 3.67518 0
M  V30 7703 C 707.816 4.92084 1.75073 0
M  V30 7704 H 709.51 2.9018 0.737287 0
M  V30 7705 H 707.056 1.39601 0.353211 0
M  V30 7706 H 709.009 2.77542 3.17094 0
M  V30 7707 H 707.733 1.57148 2.86308 0
M  V30 7708 H 706.392 3.29493 1.60716 0
M  V30 7709 H 706.04 2.96739 4.06147 0
M  V30 7710 H 705.74 4.65703 3.58321 0
M  V30 7711 H 707.264 4.22415 4.40906 0
M  V30 7712 H 708.678 5.22106 2.36809 0
M  V30 7713 H 707.075 5.73507 1.76662 0
M  V30 7714 H 708.145 4.79684 0.709347 0
M  V30 7715 N 709.488 -0.375779 1.53054 0
M  V30 7716 C 710.451 -1.44254 1.7811 0
M  V30 7717 C 711.451 -1.47018 0.651328 0
M  V30 7718 O 712.641 -1.47957 0.919472 0
M  V30 7719 C 709.773 -2.8345 1.89391 0
M  V30 7720 H 710.966 -1.23316 2.73374 0
M  V30 7721 H 708.519 -0.608312 1.43977 0
M  V30 7722 H 709.254 -3.09716 0.961589 0
M  V30 7723 H 709.039 -2.82844 2.71555 0
M  V30 7724 H 710.529 -3.60722 2.10404 0
M  V30 7725 N 710.966 -1.44241 -0.634997 0
M  V30 7726 C 711.913 -1.5081 -1.74714 0
M  V30 7727 C 712.883 -0.356147 -1.62237 0
M  V30 7728 O 714.068 -0.565848 -1.82216 0
M  V30 7729 C 711.208 -1.45458 -3.12947 0
M  V30 7730 C 710.321 -2.70998 -3.36428 0
M  V30 7731 C 709.456 -2.57507 -4.64611 0
M  V30 7732 C 708.495 -3.78229 -4.81258 0
M  V30 7733 N 707.632 -3.63438 -6.00714 0
M  V30 7734 H 712.472 -2.45832 -1.68436 0
M  V30 7735 H 710.009 -1.2201 -0.821706 0
M  V30 7736 H 711.967 -1.40347 -3.92885 0
M  V30 7737 H 710.597 -0.540058 -3.1825 0
M  V30 7738 H 709.649 -2.86312 -2.50458 0
M  V30 7739 H 710.961 -3.60619 -3.44609 0
M  V30 7740 H 710.115 -2.50207 -5.52703 0
M  V30 7741 H 708.854 -1.65441 -4.58782 0
M  V30 7742 H 707.859 -3.85918 -3.91596 0
M  V30 7743 H 709.084 -4.71327 -4.88904 0
M  V30 7744 H 707.03 -2.7412 -5.95982 0
M  V30 7745 H 706.947 -4.46672 -6.09934 0
M  V30 7746 H 708.215 -3.60022 -6.91378 0
M  V30 7747 N 712.444 0.87505 -1.31075 0
M  V30 7748 C 713.672 1.66058 -1.23419 0
M  V30 7749 C 714.087 1.87723 0.201347 0
M  V30 7750 O 713.444 1.43178 1.13165 0
M  V30 7751 C 713.495 3.03142 -1.96945 0
M  V30 7752 O 713.216 2.82448 -3.34895 0
M  V30 7753 C 714.717 3.97583 -1.96067 0
M  V30 7754 H 711.937 0.517868 -0.426677 0
M  V30 7755 H 714.481 1.09258 -1.72867 0
M  V30 7756 H 712.636 3.56645 -1.51271 0
M  V30 7757 H 713.05 3.69483 -3.72267 0
M  V30 7758 H 714.524 4.91104 -2.52034 0
M  V30 7759 H 715.001 4.2898 -0.941961 0
M  V30 7760 H 715.607 3.50015 -2.41597 0
M  V30 7761 N 713.922 1.13953 1.08869 0
M  V30 7762 C 715.171 0.899431 1.80536 0
M  V30 7763 C 715.484 -0.575781 1.86933 0
M  V30 7764 O 716.69 -0.932988 2.54966 0
M  V30 7765 C 715.146 1.55963 3.24351 0
M  V30 7766 C 714.754 3.07077 3.26202 0
M  V30 7767 C 716.498 1.40046 4.00733 0
M  V30 7768 C 714.405 3.65955 4.64576 0
M  V30 7769 H 713.335 0.332849 0.676556 0
M  V30 7770 H 715.986 1.3679 1.22314 0
M  V30 7771 H 714.368 1.01883 3.82669 0
M  V30 7772 H 715.542 3.67785 2.77617 0
M  V30 7773 H 713.857 3.22576 2.63312 0
M  V30 7774 H 716.454 1.81441 5.02974 0
M  V30 7775 H 716.797 0.345993 4.1486 0
M  V30 7776 H 717.33 1.91137 3.48872 0
M  V30 7777 H 714.069 4.71234 4.55652 0
M  V30 7778 H 713.589 3.10027 5.13462 0
M  V30 7779 H 715.268 3.65968 5.33551 0
M  V30 7780 N 715.4 -1.26948 0.933913 0
M  V30 7781 C 716.677 -1.89212 0.495784 0
M  V30 7782 C 717.057 -1.84469 -1.02637 0
M  V30 7783 O 716.405 -1.29409 -1.88323 0
M  V30 7784 C 716.615 -3.32865 1.0489 0
M  V30 7785 C 717.963 -4.09749 1.11315 0
M  V30 7786 O 718.987 -3.41905 0.998966 0
M  V30 7787 O 717.846 -5.31061 1.28983 0
M  V30 7788 H 714.94 -0.811284 0.160459 0
M  V30 7789 H 717.486 -1.35171 1.02601 0
M  V30 7790 H 716.258 -3.30642 2.09265 0
M  V30 7791 H 715.881 -3.94435 0.500692 0
M  V30 7792 N 716.879 -0.700114 -1.41195 0
M  V30 7793 C 718.127 -0.232546 -2.00758 0
M  V30 7794 C 718.448 1.1734 -1.55745 0
M  V30 7795 O 717.718 1.79262 -0.790058 0
M  V30 7796 H 716.298 -0.0829845 -0.742376 0
M  V30 7797 H 718.96 -0.902289 -1.72756 0
M  V30 7798 H 718.056 -0.253521 -3.11069 0
M  V30 7799 N 718.357 1.51182 -0.445186 0
M  V30 7800 C 719.289 2.25714 0.398206 0
M  V30 7801 C 720.302 1.30032 0.979562 0
M  V30 7802 O 721.491 1.55731 0.872368 0
M  V30 7803 C 718.591 3.00348 1.56985 0
M  V30 7804 C 717.764 4.23187 1.10596 0
M  V30 7805 C 716.823 4.80334 2.14863 0
M  V30 7806 O 715.849 5.4196 1.73977 0
M  V30 7807 N 717.051 4.65053 3.47427 0
M  V30 7808 H 719.816 2.98732 -0.240629 0
M  V30 7809 H 717.377 1.59556 -0.274507 0
M  V30 7810 H 719.369 3.35464 2.26376 0
M  V30 7811 H 717.939 2.30291 2.11387 0
M  V30 7812 H 717.159 3.93476 0.238832 0
M  V30 7813 H 718.447 5.02886 0.773537 0
M  V30 7814 H 717.845 4.15984 3.83372 0
M  V30 7815 H 716.402 5.04509 4.12691 0
M  V30 7816 N 719.835 0.176821 1.56605 0
M  V30 7817 C 721.246 -0.338963 1.83597 0
M  V30 7818 C 721.597 -1.62677 1.09684 0
M  V30 7819 O 720.722 -2.13524 0.351661 0
M  V30 7820 C 721.317 -0.62177 3.33046 0
M  V30 7821 C 719.876 -1.08198 3.60514 0
M  V30 7822 C 719.023 -0.120774 2.77037 0
M  V30 7823 H 721.974 0.400978 1.53551 0
M  V30 7824 H 721.995 -1.47321 3.50823 0
M  V30 7825 H 721.507 0.315692 3.86814 0
M  V30 7826 H 719.608 -2.03435 3.12162 0
M  V30 7827 H 719.721 -0.987329 4.68816 0
M  V30 7828 H 718.085 -0.619192 2.47059 0
M  V30 7829 H 718.868 0.810806 3.33588 0
M  V30 7830 N 721.313 -1.57302 -0.09688 0
M  V30 7831 C 722.724 -1.7496 -0.651595 0
M  V30 7832 C 723.075 -0.798746 -1.79205 0
M  V30 7833 O 722.2 0.0231858 -2.16388 0
M  V30 7834 C 722.795 -3.17259 -1.18878 0
M  V30 7835 C 721.354 -3.36348 -1.68958 0
M  V30 7836 C 720.501 -2.70766 -0.598413 0
M  V30 7837 H 723.452 -1.58173 0.12918 0
M  V30 7838 H 723.473 -3.20033 -2.05814 0
M  V30 7839 H 722.985 -3.8644 -0.358523 0
M  V30 7840 H 721.086 -2.72243 -2.5439 0
M  V30 7841 H 721.199 -4.44654 -1.7838 0
M  V30 7842 H 719.563 -2.32615 -1.03743 0
M  V30 7843 H 720.346 -3.42586 0.221238 0
M  V30 7844 N 722.791 0.367657 -1.53252 0
M  V30 7845 C 724.037 1.11216 -1.69584 0
M  V30 7846 C 724.37 1.89026 -0.445269 0
M  V30 7847 O 723.645 1.86342 0.557404 0
M  V30 7848 C 723.928 2.07308 -2.94441 0
M  V30 7849 C 723.781 1.3312 -4.2965 0
M  V30 7850 C 725.1 3.07459 -3.14892 0
M  V30 7851 H 722.219 0.40294 -0.617096 0
M  V30 7852 H 724.861 0.393201 -1.85887 0
M  V30 7853 H 723.011 2.68617 -2.80673 0
M  V30 7854 H 724.683 0.746111 -4.55226 0
M  V30 7855 H 722.926 0.633051 -4.29156 0
M  V30 7856 H 723.597 2.03443 -5.13142 0
M  V30 7857 H 726.073 2.56252 -3.27832 0
M  V30 7858 H 724.949 3.71919 -4.03693 0
M  V30 7859 H 725.21 3.77514 -2.30077 0
M  V30 7860 N 724.269 1.44576 0.627338 0
M  V30 7861 C 725.546 1.38033 1.38586 0
M  V30 7862 C 725.926 0.0409468 2.1106 0
M  V30 7863 O 725.274 -0.976582 2.0658 0
M  V30 7864 C 725.484 2.58102 2.34913 0
M  V30 7865 C 726.832 3.02332 2.98129 0
M  V30 7866 O 727.856 2.58334 2.45238 0
M  V30 7867 O 726.715 3.78628 3.94085 0
M  V30 7868 H 723.809 0.546801 0.620434 0
M  V30 7869 H 726.355 1.56672 0.652077 0
M  V30 7870 H 725.127 3.4719 1.80485 0
M  V30 7871 H 724.75 2.41696 3.15703 0
M  V30 7872 N 725.747 -0.868086 1.31537 0
M  V30 7873 C 727.158 -1.437 1.19195 0
M  V30 7874 C 727.509 -1.95169 -0.200842 0
M  V30 7875 O 726.634 -1.86432 -1.09872 0
M  V30 7876 C 727.229 -2.612 2.15778 0
M  V30 7877 C 725.788 -3.1413 2.07363 0
M  V30 7878 C 724.935 -1.86845 2.049 0
M  V30 7879 H 727.886 -0.676457 1.43561 0
M  V30 7880 H 727.907 -3.37948 1.74847 0
M  V30 7881 H 727.419 -2.23709 3.17137 0
M  V30 7882 H 725.52 -3.56238 1.09204 0
M  V30 7883 H 725.633 -3.76285 2.96557 0
M  V30 7884 H 723.997 -2.05886 1.49943 0
M  V30 7885 H 724.78 -1.51589 3.08019 0
M  V30 7886 N 727.225 -1.14528 -1.08264 0
M  V30 7887 C 728.502 -0.825185 -1.77342 0
M  V30 7888 C 728.882 0.681037 -1.99813 0
M  V30 7889 O 728.23 1.62234 -1.60912 0
M  V30 7890 C 728.44 -1.62556 -3.08831 0
M  V30 7891 C 729.788 -1.82585 -3.83338 0
M  V30 7892 O 730.812 -1.59254 -3.18617 0
M  V30 7893 O 729.671 -2.21598 -4.99556 0
M  V30 7894 H 726.765 -0.302531 -0.769678 0
M  V30 7895 H 729.311 -1.25056 -1.14713 0
M  V30 7896 H 728.083 -2.64862 -2.88035 0
M  V30 7897 H 727.706 -1.1959 -3.79189 0
M  V30 7898 N 728.703 1.26451 -0.940633 0
M  V30 7899 C 730.114 1.75726 -0.630653 0
M  V30 7900 C 730.465 1.76631 0.854167 0
M  V30 7901 O 729.59 1.37807 1.66848 0
M  V30 7902 C 730.185 3.19114 -1.13805 0
M  V30 7903 C 728.744 3.66005 -0.878497 0
M  V30 7904 C 727.891 2.45505 -1.28928 0
M  V30 7905 H 730.842 1.12535 -1.119 0
M  V30 7906 H 730.863 3.77311 -0.491625 0
M  V30 7907 H 730.375 3.18424 -2.21874 0
M  V30 7908 H 728.476 3.72126 0.187833 0
M  V30 7909 H 728.589 4.54844 -1.50512 0
M  V30 7910 H 726.953 2.4467 -0.707713 0
M  V30 7911 H 727.736 2.47516 -2.37888 0
M  V30 7912 N 730.181 0.707592 1.40822 0
M  V30 7913 C 731.114 -0.000859377 2.282 0
M  V30 7914 C 732.092 -0.7758 1.42899 0
M  V30 7915 O 733.276 -0.76411 1.72318 0
M  V30 7916 C 730.403 -1.00861 3.23334 0
M  V30 7917 C 729.449 -0.32543 4.25257 0
M  V30 7918 S 730.282 0.940908 5.27169 0
M  V30 7919 C 731.438 -0.0649459 6.25866 0
M  V30 7920 H 731.671 0.740207 2.87938 0
M  V30 7921 H 729.204 0.498311 1.46138 0
M  V30 7922 H 731.162 -1.58485 3.78672 0
M  V30 7923 H 729.823 -1.72233 2.62668 0
M  V30 7924 H 729.016 -1.08697 4.92139 0
M  V30 7925 H 728.618 0.178044 3.73576 0
M  V30 7926 H 730.91 -0.914377 6.71301 0
M  V30 7927 H 731.853 0.570276 7.058 0
M  V30 7928 H 732.261 -0.425098 5.62897 0
M  V30 7929 N 731.66 -1.50943 0.453197 0
M  V30 7930 C 733.071 -1.86699 -0.00619892 0
M  V30 7931 C 733.422 -1.3693 -1.40515 0
M  V30 7932 O 732.547 -0.726715 -2.03833 0
M  V30 7933 C 733.142 -3.38795 -0.018025 0
M  V30 7934 C 731.701 -3.74028 -0.421885 0
M  V30 7935 C 730.848 -2.74752 0.375087 0
M  V30 7936 H 733.799 -1.43942 0.668317 0
M  V30 7937 H 733.82 -3.71468 -0.824125 0
M  V30 7938 H 733.332 -3.74988 1.00028 0
M  V30 7939 H 731.433 -3.43431 -1.44521 0
M  V30 7940 H 731.546 -4.78908 -0.135664 0
M  V30 7941 H 729.91 -2.5414 -0.168794 0
M  V30 7942 H 730.693 -3.13787 1.39256 0
M  V30 7943 N 733.138 -0.185124 -1.56509 0
M  V30 7944 C 734.415 0.503348 -1.89013 0
M  V30 7945 C 734.795 1.80349 -1.09715 0
M  V30 7946 O 734.143 2.27665 -0.195203 0
M  V30 7947 C 734.353 0.731839 -3.41241 0
M  V30 7948 C 735.701 1.05568 -4.11267 0
M  V30 7949 O 736.725 0.819906 -3.46635 0
M  V30 7950 O 735.584 1.50116 -5.25478 0
M  V30 7951 H 732.678 0.261139 -0.784688 0
M  V30 7952 H 735.224 -0.224592 -1.68207 0
M  V30 7953 H 733.996 -0.18672 -3.90854 0
M  V30 7954 H 733.619 1.5126 -3.67704 0
M  V30 7955 N 734.616 1.57351 0.0885366 0
M  V30 7956 C 735.865 1.85604 0.789556 0
M  V30 7957 C 736.178 0.775352 1.79576 0
M  V30 7958 O 737.384 0.945206 2.54515 0
M  V30 7959 C 735.84 3.29175 1.45506 0
M  V30 7960 C 735.448 4.45331 0.488278 0
M  V30 7961 C 737.192 3.66646 2.13942 0
M  V30 7962 C 735.099 5.79937 1.15874 0
M  V30 7963 H 734.029 0.692346 0.298619 0
M  V30 7964 H 736.68 1.83451 0.0425821 0
M  V30 7965 H 735.062 3.25889 2.24972 0
M  V30 7966 H 736.236 4.59977 -0.275359 0
M  V30 7967 H 734.551 4.16301 -0.0907363 0
M  V30 7968 H 737.148 4.64498 2.6485 0
M  V30 7969 H 737.491 2.956 2.93132 0
M  V30 7970 H 738.024 3.71848 1.41328 0
M  V30 7971 H 734.763 6.54232 0.407508 0
M  V30 7972 H 734.283 5.69123 1.89364 0
M  V30 7973 H 735.962 6.24718 1.68336 0
M  V30 7974 N 736.094 -0.359525 1.53444 0
M  V30 7975 C 737.34 -1.10315 1.70172 0
M  V30 7976 C 737.673 -1.88788 0.455287 0
M  V30 7977 O 736.948 -1.86635 -0.547514 0
M  V30 7978 C 737.231 -2.05744 2.95536 0
M  V30 7979 C 737.084 -1.3084 4.3035 0
M  V30 7980 C 738.403 -3.05784 3.16518 0
M  V30 7981 H 735.522 -0.399662 0.619225 0
M  V30 7982 H 738.164 -0.383338 1.86093 0
M  V30 7983 H 736.314 -2.67125 2.82093 0
M  V30 7984 H 737.986 -0.721959 4.55615 0
M  V30 7985 H 736.229 -0.610283 4.29486 0
M  V30 7986 H 736.9 -2.00718 5.14214 0
M  V30 7987 H 739.376 -2.5451 3.29187 0
M  V30 7988 H 738.252 -3.69772 4.05659 0
M  V30 7989 H 738.513 -3.76289 2.32076 0
M  V30 7990 N 737.572 -1.44907 -0.619662 0
M  V30 7991 C 738.502 -1.55488 -1.742 0
M  V30 7992 C 739.483 -0.407143 -1.65156 0
M  V30 7993 O 740.668 -0.628743 -1.8374 0
M  V30 7994 C 737.798 -1.5097 -3.1277 0
M  V30 7995 C 736.752 -2.64337 -3.36615 0
M  V30 7996 C 736.078 -2.44872 -4.75333 0
M  V30 7997 C 737.378 -4.06423 -3.28051 0
M  V30 7998 H 739.072 -2.49432 -1.65602 0
M  V30 7999 H 736.618 -1.20047 -0.795281 0
M  V30 8000 H 738.571 -1.56971 -3.91073 0
M  V30 8001 H 737.295 -0.535486 -3.2218 0
M  V30 8002 H 735.954 -2.57744 -2.60698 0
M  V30 8003 H 735.602 -1.45617 -4.81461 0
M  V30 8004 H 735.302 -3.20888 -4.92244 0
M  V30 8005 H 736.826 -2.52709 -5.55851 0
M  V30 8006 H 738.24 -4.14324 -3.96243 0
M  V30 8007 H 736.637 -4.82733 -3.56495 0
M  V30 8008 H 737.707 -4.29183 -2.25676 0
M  V30 8009 N 739.05 0.861098 -1.31996 0
M  V30 8010 C 740.466 1.14827 -1.10846 0
M  V30 8011 C 740.666 2.0117 0.11528 0
M  V30 8012 O 739.722 2.39423 0.802048 0
M  V30 8013 C 741.035 1.83183 -2.38462 0
M  V30 8014 C 742.583 1.95847 -2.44158 0
M  V30 8015 C 743.058 2.67617 -3.71679 0
M  V30 8016 N 744.549 2.75147 -3.72624 0
M  V30 8017 C 745.284 3.31314 -4.67994 0
M  V30 8018 N 744.78 3.88343 -5.73726 0
M  V30 8019 N 746.573 3.29356 -4.55501 0
M  V30 8020 H 738.724 0.285951 -2.10466 0
M  V30 8021 H 740.987 0.189303 -0.928907 0
M  V30 8022 H 740.693 1.27193 -3.27895 0
M  V30 8023 H 740.567 2.83393 -2.48935 0
M  V30 8024 H 742.954 2.50999 -1.55189 0
M  V30 8025 H 743.035 0.94653 -2.37644 0
M  V30 8026 H 742.679 2.13131 -4.61018 0
M  V30 8027 H 742.609 3.69237 -3.75462 0
M  V30 8028 H 745.1 2.34682 -2.96197 0
M  V30 8029 H 745.413 4.29338 -6.42564 0
M  V30 8030 H 743.758 3.86693 -5.77489 0
M  V30 8031 H 746.949 2.84047 -3.72069 0
M  V30 8032 H 747.122 3.7283 -5.30001 0
M  V30 8033 N 740.528 1.15101 1.07655 0
M  V30 8034 C 741.805 0.834578 1.76902 0
M  V30 8035 C 742.185 -0.670431 2.00171 0
M  V30 8036 O 741.533 -1.61378 1.6177 0
M  V30 8037 C 741.743 1.64191 3.07965 0
M  V30 8038 C 743.091 1.84615 3.82364 0
M  V30 8039 O 744.115 1.60941 3.17768 0
M  V30 8040 O 742.974 2.24244 4.98374 0
M  V30 8041 H 740.068 0.306608 0.768063 0
M  V30 8042 H 742.614 1.25663 1.14048 0
M  V30 8043 H 741.386 2.66386 2.86626 0
M  V30 8044 H 741.009 1.216 3.78549 0
M  V30 8045 N 742.006 -1.2595 0.947325 0
M  V30 8046 C 743.417 -1.75389 0.639963 0
M  V30 8047 C 743.768 -1.77081 -0.844788 0
M  V30 8048 O 742.893 -1.3869 -1.66114 0
M  V30 8049 C 743.488 -3.18506 1.15496 0
M  V30 8050 C 742.047 -3.65534 0.897894 0
M  V30 8051 C 741.194 -2.44818 1.30228 0
M  V30 8052 H 744.145 -1.1194 1.12495 0
M  V30 8053 H 744.166 -3.77045 0.511627 0
M  V30 8054 H 743.678 -3.17243 2.23559 0
M  V30 8055 H 741.779 -3.72221 -0.168096 0
M  V30 8056 H 741.892 -4.54039 1.52922 0
M  V30 8057 H 740.256 -2.44291 0.720678 0
M  V30 8058 H 741.039 -2.46251 2.39198 0
M  V30 8059 N 743.484 -0.715051 -1.40445 0
M  V30 8060 C 744.447 -0.0708726 -2.2909 0
M  V30 8061 C 745.447 0.687926 -1.45342 0
M  V30 8062 O 746.637 0.519908 -1.66261 0
M  V30 8063 C 743.769 0.909528 -3.28543 0
M  V30 8064 H 744.962 -0.851611 -2.87555 0
M  V30 8065 H 742.515 -0.479674 -1.48758 0
M  V30 8066 H 743.25 1.71734 -2.75096 0
M  V30 8067 H 743.035 0.368318 -3.90366 0
M  V30 8068 H 744.525 1.35744 -3.94922 0
M  V30 8069 N 744.962 1.50701 -0.461195 0
M  V30 8070 C 745.91 2.29918 0.352231 0
M  V30 8071 C 746.904 1.36778 0.999403 0
M  V30 8072 O 748.11 1.54015 0.931639 0
M  V30 8073 H 744.485 0.740249 0.132423 0
M  V30 8074 H 746.456 2.96497 -0.336424 0
M  V30 8075 C 745.205 3.17052 1.42736 0
M  V30 8076 H 744.528 3.88623 0.938747 0
M  V30 8077 H 745.968 3.75493 1.96928 0
M  V30 8078 C 744.427 2.3399 2.42384 0
M  V30 8079 O 744.957 2.01608 3.47444 0
M  V30 8080 N 743.163 1.96758 2.13857 0
M  V30 8081 H 742.71 2.23292 1.28447 0
M  V30 8082 H 742.668 1.41484 2.80766 0
M  V30 8083 N 746.441 0.193421 1.56409 0
M  V30 8084 C 747.687 -0.43983 1.98588 0
M  V30 8085 C 748.042 -1.59353 1.07816 0
M  V30 8086 O 747.335 -1.9121 0.122226 0
M  V30 8087 C 747.529 -0.949718 3.44551 0
M  V30 8088 C 747.358 0.153045 4.49439 0
M  V30 8089 C 746.128 0.610119 5.01603 0
M  V30 8090 C 748.326 0.961397 5.05234 0
M  V30 8091 N 746.308 1.69088 5.90155 0
M  V30 8092 C 747.679 1.8916 5.90439 0
M  V30 8093 C 749.734 1.004 4.87672 0
M  V30 8094 C 748.437 2.86086 6.5996 0
M  V30 8095 C 750.463 1.96131 5.57931 0
M  V30 8096 C 749.825 2.87895 6.42881 0
M  V30 8097 H 745.924 -0.128415 0.771384 0
M  V30 8098 H 748.508 0.29873 1.92395 0
M  V30 8099 H 746.679 -1.65772 3.51246 0
M  V30 8100 H 748.411 -1.55344 3.73698 0
M  V30 8101 H 745.166 0.203771 4.73161 0
M  V30 8102 H 745.59 2.23241 6.39134 0
M  V30 8103 H 750.232 0.308536 4.21673 0
M  V30 8104 H 747.95 3.56609 7.25159 0
M  V30 8105 H 751.536 2.00066 5.46319 0
M  V30 8106 H 750.416 3.60763 6.9629 0
M  V30 8107 N 747.919 -1.57396 -0.0801906 0
M  V30 8108 C 749.196 -1.77883 -0.813451 0
M  V30 8109 C 749.576 -0.778879 -1.96206 0
M  V30 8110 O 748.924 0.189683 -2.27711 0
M  V30 8111 C 749.134 -3.24116 -1.2942 0
M  V30 8112 C 750.482 -3.87714 -1.73098 0
M  V30 8113 O 751.506 -3.27956 -1.39007 0
M  V30 8114 O 750.365 -4.92828 -2.36184 0
M  V30 8115 H 747.459 -0.729727 -0.389138 0
M  V30 8116 H 750.005 -1.69591 -0.0609166 0
M  V30 8117 H 748.777 -3.88443 -0.471947 0
M  V30 8118 H 748.4 -3.371 -2.1083 0
M  V30 8119 N 749.397 0.351382 -1.53633 0
M  V30 8120 C 750.813 0.693987 -1.43722 0
M  V30 8121 C 751.013 1.9274 -0.587669 0
M  V30 8122 O 750.069 2.52387 -0.0756082 0
M  V30 8123 C 751.382 0.893937 -2.87105 0
M  V30 8124 C 752.93 0.993051 -2.96829 0
M  V30 8125 C 753.405 1.22537 -4.41303 0
M  V30 8126 N 754.896 1.29275 -4.44795 0
M  V30 8127 C 755.631 1.48988 -5.53706 0
M  V30 8128 N 755.127 1.65924 -6.72637 0
M  V30 8129 N 756.92 1.51472 -5.41306 0
M  V30 8130 H 749.071 -0.459688 -2.07366 0
M  V30 8131 H 751.334 -0.143684 -0.937048 0
M  V30 8132 H 751.04 0.0592517 -3.5165 0
M  V30 8133 H 750.914 1.79795 -3.31592 0
M  V30 8134 H 753.301 1.81827 -2.32429 0
M  V30 8135 H 753.382 0.0661119 -2.55715 0
M  V30 8136 H 753.026 0.405117 -5.06282 0
M  V30 8137 H 752.956 2.16575 -4.80003 0
M  V30 8138 H 755.447 1.17743 -3.59089 0
M  V30 8139 H 755.76 1.80578 -7.51406 0
M  V30 8140 H 754.105 1.63075 -6.75597 0
M  V30 8141 H 757.296 1.37818 -4.47352 0
M  V30 8142 H 757.469 1.66493 -6.26246 0
M  V30 8143 N 750.875 1.45233 0.611969 0
M  V30 8144 C 752.121 1.49242 1.37312 0
M  V30 8145 C 752.454 0.131963 1.93751 0
M  V30 8146 O 751.729 -0.852999 1.74798 0
M  V30 8147 C 752.012 2.56811 2.52428 0
M  V30 8148 C 751.865 4.02284 2.01215 0
M  V30 8149 C 753.184 2.60705 3.54572 0
M  V30 8150 H 750.303 0.54336 0.497925 0
M  V30 8151 H 752.945 1.77019 0.690242 0
M  V30 8152 H 751.095 2.33256 3.10683 0
M  V30 8153 H 752.767 4.37035 1.47643 0
M  V30 8154 H 751.01 4.1315 1.32248 0
M  V30 8155 H 751.681 4.7323 2.84178 0
M  V30 8156 H 754.157 2.81799 3.06151 0
M  V30 8157 H 753.033 3.37841 4.32614 0
M  V30 8158 H 753.294 1.65627 4.09903 0
M  V30 8159 N 752.353 -0.854086 1.3245 0
M  V30 8160 C 753.63 -1.59188 1.1366 0
M  V30 8161 C 754.01 -2.08917 -0.302807 0
M  V30 8162 O 753.358 -1.8795 -1.29951 0
M  V30 8163 C 753.568 -2.73757 2.16467 0
M  V30 8164 C 754.916 -3.43323 2.49829 0
M  V30 8165 O 755.94 -2.83983 2.15017 0
M  V30 8166 O 754.799 -4.50409 3.09506 0
M  V30 8167 H 751.893 -0.701092 0.438633 0
M  V30 8168 H 754.439 -0.898165 1.43983 0
M  V30 8169 H 753.211 -2.3454 3.1322 0
M  V30 8170 H 752.834 -3.50804 1.87142 0
M  V30 8171 N 753.831 -1.1567 -1.07043 0
M  V30 8172 C 755.061 -0.956083 -1.83146 0
M  V30 8173 C 755.469 0.498969 -1.82502 0
M  V30 8174 O 754.812 1.35791 -1.23719 0
M  V30 8175 C 754.874 -1.39704 -3.31245 0
M  V30 8176 C 754.538 -2.87045 -3.55604 0
M  V30 8177 C 755.535 -3.85092 -3.49285 0
M  V30 8178 C 753.22 -3.24787 -3.8317 0
M  V30 8179 C 755.214 -5.18885 -3.70185 0
M  V30 8180 C 752.901 -4.58751 -4.03721 0
M  V30 8181 C 753.899 -5.55609 -3.97224 0
M  V30 8182 O 753.587 -6.87154 -4.17223 0
M  V30 8183 H 753.319 -0.339473 -0.58458 0
M  V30 8184 H 755.873 -1.53922 -1.36005 0
M  V30 8185 H 754.103 -0.757326 -3.79212 0
M  V30 8186 H 755.792 -1.16503 -3.88821 0
M  V30 8187 H 756.558 -3.5728 -3.27988 0
M  V30 8188 H 752.437 -2.49979 -3.87339 0
M  V30 8189 H 755.981 -5.94473 -3.6503 0
M  V30 8190 H 751.878 -4.86277 -4.24505 0
M  V30 8191 H 752.646 -6.93618 -4.34553 0
M  V30 8192 N 755.309 1.25446 -0.953992 0
M  V30 8193 C 756.557 1.92762 -0.607227 0
M  V30 8194 C 756.878 1.7509 0.858399 0
M  V30 8195 O 756.148 1.11416 1.61132 0
M  V30 8196 H 754.728 0.713377 -0.221591 0
M  V30 8197 H 757.39 1.52625 -1.21209 0
M  V30 8198 H 756.486 3.00695 -0.835998 0
M  V30 8199 N 756.787 0.722489 1.40064 0
M  V30 8200 C 757.72 0.0233443 2.28188 0
M  V30 8201 C 758.698 -0.7606 1.43714 0
M  V30 8202 O 759.882 -0.745791 1.73119 0
M  V30 8203 C 757.009 -0.974264 3.24385 0
M  V30 8204 C 756.055 -0.280307 4.25578 0
M  V30 8205 S 756.888 0.996769 5.26141 0
M  V30 8206 C 758.044 0.00143923 6.259 0
M  V30 8207 H 758.277 0.770705 2.87137 0
M  V30 8208 H 755.81 0.513783 1.45601 0
M  V30 8209 H 757.768 -1.5446 3.80332 0
M  V30 8210 H 756.429 -1.69438 2.6448 0
M  V30 8211 H 755.622 -1.03471 4.93264 0
M  V30 8212 H 755.224 0.217657 3.73366 0
M  V30 8213 H 757.516 -0.843126 6.72233 0
M  V30 8214 H 758.459 0.645104 7.05155 0
M  V30 8215 H 758.867 -0.365371 5.63316 0
M  V30 8216 N 758.265 -1.50454 0.469181 0
M  V30 8217 C 759.197 -2.26319 -0.362247 0
M  V30 8218 C 760.21 -1.31574 -0.958751 0
M  V30 8219 O 761.399 -1.57099 -0.847482 0
M  V30 8220 C 758.499 -3.02808 -1.52187 0
M  V30 8221 C 757.672 -4.24893 -1.03849 0
M  V30 8222 C 756.731 -4.83691 -2.07194 0
M  V30 8223 O 755.757 -5.44659 -1.65333 0
M  V30 8224 N 756.959 -4.70522 -3.39985 0
M  V30 8225 H 759.724 -2.98312 0.288124 0
M  V30 8226 H 757.285 -1.59099 0.299856 0
M  V30 8227 H 759.277 -3.39023 -2.21011 0
M  V30 8228 H 757.847 -2.33625 -2.07697 0
M  V30 8229 H 757.067 -3.93806 -0.176203 0
M  V30 8230 H 758.355 -5.04053 -0.693435 0
M  V30 8231 H 757.753 -4.2203 -3.76706 0
M  V30 8232 H 756.31 -5.11011 -4.04612 0
M  V30 8233 N 759.743 -0.201713 -1.56304 0
M  V30 8234 C 760.675 0.748466 -2.16635 0
M  V30 8235 C 761.688 1.172 -1.12996 0
M  V30 8236 O 762.877 1.10658 -1.40061 0
M  V30 8237 C 759.977 2.02296 -2.719 0
M  V30 8238 C 759.15 1.75818 -4.00508 0
M  V30 8239 C 758.209 2.87779 -4.40533 0
M  V30 8240 O 757.235 2.57101 -5.07826 0
M  V30 8241 N 758.437 4.16287 -4.04581 0
M  V30 8242 H 761.202 0.232505 -2.98797 0
M  V30 8243 H 758.763 -0.0199822 -1.61888 0
M  V30 8244 H 760.755 2.7635 -2.95657 0
M  V30 8245 H 759.325 2.44996 -1.94154 0
M  V30 8246 H 758.545 0.855095 -3.84814 0
M  V30 8247 H 759.833 1.55532 -4.84445 0
M  V30 8248 H 759.231 4.44061 -3.50466 0
M  V30 8249 H 757.788 4.86946 -4.33274 0
M  V30 8250 N 761.222 1.57436 0.0718424 0
M  V30 8251 C 762.468 1.87525 0.772149 0
M  V30 8252 C 762.801 0.79399 1.77227 0
M  V30 8253 O 762.076 -0.195733 1.93513 0
M  V30 8254 C 762.359 3.28272 1.48018 0
M  V30 8255 C 762.212 4.47052 0.49647 0
M  V30 8256 C 763.531 3.67256 2.42509 0
M  V30 8257 H 760.65 0.682049 0.279245 0
M  V30 8258 H 763.292 1.89967 0.03534 0
M  V30 8259 H 761.442 3.26321 2.10824 0
M  V30 8260 H 763.114 4.61127 -0.126375 0
M  V30 8261 H 761.357 4.33392 -0.188205 0
M  V30 8262 H 762.028 5.42315 1.02949 0
M  V30 8263 H 764.504 3.70301 1.89781 0
M  V30 8264 H 763.38 4.66626 2.89053 0
M  V30 8265 H 763.641 2.97186 3.27312 0
M  V30 8266 N 762.7 -0.34323 1.53817 0
M  V30 8267 C 763.946 -1.08504 1.71332 0
M  V30 8268 C 764.279 -1.88294 0.475285 0
M  V30 8269 O 763.554 -1.87205 -0.527688 0
M  V30 8270 C 763.837 -2.02597 2.97702 0
M  V30 8271 C 763.69 -1.26268 4.31713 0
M  V30 8272 C 765.009 -3.0241 3.19744 0
M  V30 8273 H 762.128 -0.393072 0.623429 0
M  V30 8274 H 764.77 -0.363579 1.86489 0
M  V30 8275 H 762.92 -2.64118 2.8491 0
M  V30 8276 H 764.592 -0.673594 4.56356 0
M  V30 8277 H 762.835 -0.564696 4.30109 0
M  V30 8278 H 763.506 -1.95253 5.16314 0
M  V30 8279 H 765.982 -2.51004 3.31868 0
M  V30 8280 H 764.858 -3.65449 4.09558 0
M  V30 8281 H 765.119 -3.73806 2.36054 0
M  V30 8282 N 764.178 -1.45556 -0.604258 0
M  V30 8283 C 765.128 -1.50906 -1.70913 0
M  V30 8284 C 766.112 -0.371996 -1.56541 0
M  V30 8285 O 767.304 -0.619064 -1.65821 0
M  V30 8286 C 764.433 -1.48181 -3.09673 0
M  V30 8287 C 763.519 -2.67102 -3.2942 0
M  V30 8288 N 763.91 -3.92184 -3.19414 0
M  V30 8289 C 762.208 -2.6287 -3.60299 0
M  V30 8290 C 762.909 -4.71571 -3.40581 0
M  V30 8291 N 761.885 -4.03081 -3.64728 0
M  V30 8292 H 765.687 -2.45435 -1.61675 0
M  V30 8293 H 763.201 -1.40894 -0.807622 0
M  V30 8294 H 765.198 -1.501 -3.88942 0
M  V30 8295 H 763.858 -0.54712 -3.20057 0
M  V30 8296 H 764.869 -4.23756 -2.97743 0
M  V30 8297 H 761.546 -1.78324 -3.77501 0
M  V30 8298 H 762.936 -5.80571 -3.38211 0
M  V30 8299 N 765.656 0.84705 -1.32902 0
M  V30 8300 C 766.904 1.5986 -1.2365 0
M  V30 8301 C 767.225 1.93974 0.199789 0
M  V30 8302 O 766.495 1.60273 1.12648 0
M  V30 8303 H 765.075 0.592696 -0.454665 0
M  V30 8304 H 767.737 1.01278 -1.66519 0
M  V30 8305 H 766.833 2.53218 -1.82448 0
M  V30 8306 N 767.134 1.16236 1.06428 0
M  V30 8307 C 768.097 0.870163 2.1204 0
M  V30 8308 C 769.097 -0.134239 1.60239 0
M  V30 8309 O 770.287 0.0964932 1.73933 0
M  V30 8310 C 767.419 0.301033 3.39568 0
M  V30 8311 H 768.612 1.8064 2.39394 0
M  V30 8312 H 766.165 0.971116 1.2247 0
M  V30 8313 H 766.9 -0.642948 3.17863 0
M  V30 8314 H 766.685 1.02475 3.78472 0
M  V30 8315 H 768.175 0.114494 4.17443 0
M  V30 8316 N 768.612 -1.24939 0.960631 0
M  V30 8317 C 770.028 -1.45039 0.666018 0
M  V30 8318 C 770.228 -1.86021 -0.774501 0
M  V30 8319 O 769.284 -1.99392 -1.54916 0
M  V30 8320 C 770.597 -2.51775 1.64408 0
M  V30 8321 C 772.145 -2.6561 1.65592 0
M  V30 8322 C 772.62 -3.75536 2.62177 0
M  V30 8323 N 774.111 -3.82954 2.60577 0
M  V30 8324 C 774.846 -4.67517 3.31987 0
M  V30 8325 N 774.342 -5.56321 4.1289 0
M  V30 8326 N 776.135 -4.61535 3.20845 0
M  V30 8327 H 768.286 -0.96632 1.89145 0
M  V30 8328 H 770.549 -0.486034 0.813926 0
M  V30 8329 H 770.255 -2.28534 2.67329 0
M  V30 8330 H 770.129 -3.49804 1.41128 0
M  V30 8331 H 772.516 -2.88212 0.633846 0
M  V30 8332 H 772.597 -1.67962 1.92931 0
M  V30 8333 H 772.241 -3.53684 3.64514 0
M  V30 8334 H 772.171 -4.72682 2.32119 0
M  V30 8335 H 774.662 -3.19478 2.01847 0
M  V30 8336 H 774.975 -6.17787 4.64283 0
M  V30 8337 H 773.32 -5.5601 4.16987 0
M  V30 8338 H 776.511 -3.91169 2.57108 0
M  V30 8339 H 776.684 -5.27214 3.76762 0
M  V30 8340 N 770.09 -0.729906 -1.39679 0
M  V30 8341 C 771.338 -0.275077 -2.00219 0
M  V30 8342 C 771.659 1.1401 -1.58199 0
M  V30 8343 O 770.929 1.77546 -0.827904 0
M  V30 8344 H 769.509 -0.0987127 -0.740449 0
M  V30 8345 H 772.171 -0.93873 -1.70804 0
M  V30 8346 H 771.267 -0.319446 -3.10461 0
M  V30 8347 N 771.568 1.50203 -0.477153 0
M  V30 8348 C 772.796 2.0677 0.0732489 0
M  V30 8349 C 773.211 1.34033 1.32968 0
M  V30 8350 O 772.568 0.411412 1.77802 0
M  V30 8351 C 772.619 3.59751 0.35518 0
M  V30 8352 O 772.34 4.29747 -0.851425 0
M  V30 8353 C 773.841 4.3296 0.951877 0
M  V30 8354 H 771.061 0.670929 -0.00978923 0
M  V30 8355 H 773.605 1.93293 -0.667676 0
M  V30 8356 H 771.76 3.7301 1.04605 0
M  V30 8357 H 772.174 5.2106 -0.599708 0
M  V30 8358 H 773.648 5.40952 1.09888 0
M  V30 8359 H 774.125 3.93856 1.94356 0
M  V30 8360 H 774.731 4.24246 0.299208 0
M  V30 8361 N 773.046 0.209999 1.56195 0
M  V30 8362 C 774.009 -0.691232 2.18528 0
M  V30 8363 C 775.009 -1.13013 1.14388 0
M  V30 8364 O 776.199 -1.04081 1.39688 0
M  V30 8365 C 773.331 -1.94551 2.79934 0
M  V30 8366 H 774.524 -0.147953 2.99535 0
M  V30 8367 H 772.077 -0.0396243 1.5625 0
M  V30 8368 H 772.812 -2.53094 2.02766 0
M  V30 8369 H 772.597 -1.63938 3.56184 0
M  V30 8370 H 774.087 -2.58785 3.2775 0
M  V30 8371 N 774.524 -1.57472 -0.0634922 0
M  V30 8372 C 775.94 -1.54016 -0.418466 0
M  V30 8373 C 776.14 -0.931376 -1.78683 0
M  V30 8374 O 775.196 -0.537465 -2.46714 0
M  V30 8375 C 776.509 -2.98634 -0.351906 0
M  V30 8376 C 778.057 -3.10012 -0.431494 0
M  V30 8377 C 778.532 -4.56296 -0.394754 0
M  V30 8378 N 780.023 -4.60964 -0.454583 0
M  V30 8379 C 780.758 -5.71643 -0.448501 0
M  V30 8380 N 780.254 -6.91663 -0.396742 0
M  V30 8381 N 782.047 -5.5991 -0.495677 0
M  V30 8382 H 774.198 -1.95409 0.832408 0
M  V30 8383 H 776.461 -0.894769 0.313197 0
M  V30 8384 H 776.167 -3.46766 0.587048 0
M  V30 8385 H 776.041 -3.58955 -1.15893 0
M  V30 8386 H 778.428 -2.61848 -1.36087 0
M  V30 8387 H 778.509 -2.52585 0.404258 0
M  V30 8388 H 778.153 -5.05119 0.530811 0
M  V30 8389 H 778.083 -5.11594 -1.24815 0
M  V30 8390 H 780.574 -3.74598 -0.498496 0
M  V30 8391 H 780.887 -7.71783 -0.396256 0
M  V30 8392 H 779.232 -6.9405 -0.363304 0
M  V30 8393 H 782.423 -4.65046 -0.533864 0
M  V30 8394 H 782.596 -6.46164 -0.487469 0
M  V30 8395 N 776.003 0.335068 -1.53997 0
M  V30 8396 C 776.95 1.41187 -1.82579 0
M  V30 8397 C 777.92 1.51897 -0.672061 0
M  V30 8398 O 779.105 1.673 -0.917346 0
M  V30 8399 C 776.245 2.77717 -2.0486 0
M  V30 8400 C 775.358 2.7573 -3.32561 0
M  V30 8401 C 774.493 4.04032 -3.44864 0
M  V30 8402 C 773.532 3.96308 -4.66483 0
M  V30 8403 N 772.669 5.16317 -4.75774 0
M  V30 8404 H 777.509 1.16113 -2.74448 0
M  V30 8405 H 775.046 0.562305 -1.35928 0
M  V30 8406 H 777.004 3.57071 -2.15768 0
M  V30 8407 H 775.634 3.01124 -1.16294 0
M  V30 8408 H 774.686 1.88432 -3.3045 0
M  V30 8409 H 775.998 2.65902 -4.22016 0
M  V30 8410 H 775.152 4.91814 -3.55251 0
M  V30 8411 H 773.891 4.16652 -2.53481 0
M  V30 8412 H 772.896 3.06911 -4.56164 0
M  V30 8413 H 774.121 3.85263 -5.5924 0
M  V30 8414 H 772.067 5.29464 -3.87303 0
M  V30 8415 H 771.984 5.08779 -5.59178 0
M  V30 8416 H 773.252 6.05846 -4.9048 0
M  V30 8417 N 777.481 1.45874 0.596531 0
M  V30 8418 C 778.727 1.5069 1.35722 0
M  V30 8419 C 779.06 0.152506 1.936 0
M  V30 8420 O 778.335 -0.834411 1.75692 0
M  V30 8421 C 778.618 2.59474 2.4969 0
M  V30 8422 C 778.471 4.04396 1.96937 0
M  V30 8423 C 779.79 2.64451 3.51787 0
M  V30 8424 H 776.909 0.548611 0.492133 0
M  V30 8425 H 779.551 1.77741 0.671428 0
M  V30 8426 H 777.701 2.36539 3.08191 0
M  V30 8427 H 779.373 4.38576 1.43 0
M  V30 8428 H 777.616 4.14529 1.27859 0
M  V30 8429 H 778.287 4.76218 2.79143 0
M  V30 8430 H 780.763 2.85031 3.03145 0
M  V30 8431 H 779.639 3.42411 4.29006 0
M  V30 8432 H 779.9 1.69965 4.08123 0
M  V30 8433 N 778.959 -0.83999 1.33349 0
M  V30 8434 C 780.207 -1.59202 1.24496 0
M  V30 8435 C 780.528 -1.94077 -0.189499 0
M  V30 8436 O 779.798 -1.60868 -1.11796 0
M  V30 8437 H 778.378 -0.590276 0.457802 0
M  V30 8438 H 781.04 -1.00394 1.67054 0
M  V30 8439 H 780.136 -2.52247 1.83788 0
M  V30 8440 N 780.437 -1.16799 -1.0581 0
M  V30 8441 C 781.4 -0.881396 -2.11575 0
M  V30 8442 C 782.4 0.12574 -1.60308 0
M  V30 8443 O 783.59 -0.105716 -1.73879 0
M  V30 8444 C 780.722 -0.319037 -3.39404 0
M  V30 8445 H 781.915 -1.81907 -2.38432 0
M  V30 8446 H 779.468 -0.977597 -1.21954 0
M  V30 8447 H 780.203 0.626082 -3.18199 0
M  V30 8448 H 779.988 -1.04481 -3.77923 0
M  V30 8449 H 781.478 -0.13663 -4.17376 0
M  V30 8450 N 781.915 1.24427 -0.967243 0
M  V30 8451 C 783.143 1.96541 -0.646477 0
M  V30 8452 C 783.558 1.71753 0.783996 0
M  V30 8453 O 782.915 1.00102 1.52597 0
M  V30 8454 C 782.966 3.4983 -0.911098 0
M  V30 8455 O 782.687 3.7377 -2.28534 0
M  V30 8456 C 784.188 4.3916 -0.604458 0
M  V30 8457 H 781.408 0.626129 -0.241255 0
M  V30 8458 H 783.952 1.58268 -1.29505 0
M  V30 8459 H 782.107 3.86168 -0.308741 0
M  V30 8460 H 782.521 4.68154 -2.365 0
M  V30 8461 H 783.995 5.4557 -0.840069 0
M  V30 8462 H 784.472 4.36771 0.461273 0
M  V30 8463 H 785.078 4.08409 -1.1867 0
M  V30 8464 N 783.393 0.737304 1.3929 0
M  V30 8465 C 784.618 0.295237 2.05288 0
M  V30 8466 C 785.043 -1.06235 1.55228 0
M  V30 8467 O 784.401 -1.67365 0.697043 0
M  V30 8468 C 784.449 0.309146 3.59272 0
M  V30 8469 O 783.553 -0.702437 4.06374 0
M  V30 8470 H 782.894 0.133762 0.650387 0
M  V30 8471 H 785.424 1.00387 1.78279 0
M  V30 8472 H 785.434 0.154336 4.07708 0
M  V30 8473 H 784.109 1.29974 3.95069 0
M  V30 8474 H 782.686 -0.513574 3.69346 0
M  V30 8475 N 784.871 -1.49948 0.485112 0
M  V30 8476 C 785.834 -2.27351 -0.290546 0
M  V30 8477 C 786.834 -1.32704 -0.908087 0
M  V30 8478 O 788.024 -1.56007 -0.775085 0
M  V30 8479 C 785.156 -3.10135 -1.41524 0
M  V30 8480 H 786.349 -2.97374 0.388454 0
M  V30 8481 H 783.902 -1.54453 0.239586 0
M  V30 8482 H 784.637 -2.44641 -2.12888 0
M  V30 8483 H 784.422 -3.79705 -0.978074 0
M  V30 8484 H 785.912 -3.68638 -1.96204 0
M  V30 8485 N 786.349 -0.21828 -1.56081 0
M  V30 8486 C 787.579 0.41865 -2.02314 0
M  V30 8487 C 787.987 1.54124 -1.09739 0
M  V30 8488 O 787.33 1.83435 -0.0986829 0
M  V30 8489 C 787.392 1.01439 -3.44892 0
M  V30 8490 C 787.056 0.0276523 -4.56992 0
M  V30 8491 C 788.053 -0.771526 -5.14143 0
M  V30 8492 C 785.738 -0.0901537 -5.02219 0
M  V30 8493 C 787.732 -1.67525 -6.14991 0
M  V30 8494 C 785.419 -0.997411 -6.02905 0
M  V30 8495 C 786.417 -1.78851 -6.59167 0
M  V30 8496 O 786.105 -2.68052 -7.57894 0
M  V30 8497 H 785.837 0.107066 -0.667468 0
M  V30 8498 H 788.391 -0.331191 -2.02712 0
M  V30 8499 H 786.621 1.81326 -3.41552 0
M  V30 8500 H 788.31 1.55838 -3.74792 0
M  V30 8501 H 789.076 -0.690945 -4.80053 0
M  V30 8502 H 784.955 0.515474 -4.58109 0
M  V30 8503 H 788.499 -2.29316 -6.58832 0
M  V30 8504 H 784.396 -1.07902 -6.36418 0
M  V30 8505 H 785.164 -2.6209 -7.75404 0
M  V30 8506 N 787.827 1.57504 0.0551401 0
M  V30 8507 C 788.757 2.07864 1.06372 0
M  V30 8508 C 789.738 0.975565 1.39344 0
M  V30 8509 O 790.923 1.24929 1.48682 0
M  V30 8510 C 788.053 2.53643 2.3724 0
M  V30 8511 C 787.007 3.67978 2.18578 0
M  V30 8512 C 786.333 3.9987 3.54976 0
M  V30 8513 C 787.633 4.97405 1.59329 0
M  V30 8514 H 789.327 2.92379 0.644595 0
M  V30 8515 H 786.873 1.40654 0.308619 0
M  V30 8516 H 788.826 2.8749 3.08103 0
M  V30 8517 H 787.55 1.66177 2.81163 0
M  V30 8518 H 786.209 3.3444 1.50152 0
M  V30 8519 H 785.857 3.0951 3.965 0
M  V30 8520 H 785.557 4.76867 3.43324 0
M  V30 8521 H 787.081 4.36228 4.27244 0
M  V30 8522 H 788.495 5.29375 2.20078 0
M  V30 8523 H 786.892 5.78837 1.58327 0
M  V30 8524 H 787.962 4.81697 0.55638 0
M  V30 8525 N 789.305 -0.326896 1.54172 0
M  V30 8526 C 790.554 -1.06274 1.71431 0
M  V30 8527 C 790.867 -1.89282 0.493123 0
M  V30 8528 O 792.073 -2.65933 0.54699 0
M  V30 8529 C 790.529 -1.93892 3.03206 0
M  V30 8530 C 790.137 -1.16011 4.32719 0
M  V30 8531 C 791.881 -2.67232 3.29829 0
M  V30 8532 C 789.788 -2.02755 5.55558 0
M  V30 8533 H 788.718 -0.400475 0.638855 0
M  V30 8534 H 791.369 -0.321184 1.80667 0
M  V30 8535 H 789.751 -2.71933 2.87869 0
M  V30 8536 H 790.925 -0.427643 4.58811 0
M  V30 8537 H 789.24 -0.54367 4.12836 0
M  V30 8538 H 791.837 -3.32434 4.18798 0
M  V30 8539 H 792.18 -3.34692 2.47562 0
M  V30 8540 H 792.713 -1.96255 3.46018 0
M  V30 8541 H 789.452 -1.3981 6.40417 0
M  V30 8542 H 788.972 -2.73745 5.33689 0
M  V30 8543 H 790.651 -2.61419 5.91835 0
M  V30 8544 N 790.784 -1.46188 -0.588786 0
M  V30 8545 C 791.747 -1.55882 -1.68029 0
M  V30 8546 C 792.747 -0.436515 -1.54762 0
M  V30 8547 O 793.937 -0.700626 -1.59489 0
M  V30 8548 C 791.069 -1.47332 -3.07418 0
M  V30 8549 H 792.262 -2.5315 -1.60795 0
M  V30 8550 H 789.815 -1.33908 -0.806116 0
M  V30 8551 H 790.55 -0.513193 -3.20214 0
M  V30 8552 H 790.335 -2.28753 -3.18456 0
M  V30 8553 H 791.825 -1.57187 -3.86887 0
M  V30 8554 N 792.262 0.832906 -1.33792 0
M  V30 8555 C 793.51 1.58539 -1.25338 0
M  V30 8556 C 793.831 1.94175 0.179204 0
M  V30 8557 O 793.101 1.61458 1.10941 0
M  V30 8558 H 791.681 0.58784 -0.460926 0
M  V30 8559 H 794.343 0.995064 -1.67584 0
M  V30 8560 H 793.439 2.51268 -1.85123 0
M  V30 8561 N 793.74 1.17359 1.05189 0
M  V30 8562 C 794.687 0.890325 2.12936 0
M  V30 8563 C 795.657 -0.165779 1.65271 0
M  V30 8564 O 796.842 -0.0285672 1.90779 0
M  V30 8565 C 793.982 0.409793 3.42658 0
M  V30 8566 C 793.095 1.53002 4.03998 0
M  V30 8567 C 792.23 1.00336 5.21638 0
M  V30 8568 C 791.269 2.09903 5.74984 0
M  V30 8569 N 790.406 1.58714 6.83926 0
M  V30 8570 H 795.246 1.81299 2.36505 0
M  V30 8571 H 792.783 0.904249 1.16025 0
M  V30 8572 H 794.741 0.112743 4.17048 0
M  V30 8573 H 793.371 -0.475915 3.19272 0
M  V30 8574 H 792.423 1.9428 3.27047 0
M  V30 8575 H 793.735 2.3564 4.39631 0
M  V30 8576 H 792.889 0.660158 6.03098 0
M  V30 8577 H 791.628 0.14642 4.8748 0
M  V30 8578 H 790.633 2.45081 4.92154 0
M  V30 8579 H 791.858 2.96013 6.1119 0
M  V30 8580 H 789.804 0.752915 6.51665 0
M  V30 8581 H 789.721 2.34959 7.18561 0
M  V30 8582 H 790.989 1.27287 7.69037 0
M  V30 8583 N 795.218 -1.23913 0.973828 0
M  V30 8584 C 796.443 -1.96735 0.656511 0
M  V30 8585 C 796.868 -1.71682 -0.768571 0
M  V30 8586 O 796.226 -0.984267 -1.52256 0
M  V30 8587 C 796.274 -3.48004 0.944735 0
M  V30 8588 O 795.378 -4.12387 0.0333357 0
M  V30 8589 H 794.719 -0.616119 0.247575 0
M  V30 8590 H 797.249 -1.57525 1.30564 0
M  V30 8591 H 797.259 -3.98424 0.87876 0
M  V30 8592 H 795.934 -3.65567 1.98328 0
M  V30 8593 H 794.511 -3.72585 0.153157 0
M  V30 8594 N 796.696 -0.74468 -1.38897 0
M  V30 8595 C 797.944 -0.296298 -1.99916 0
M  V30 8596 C 798.265 1.12325 -1.59399 0
M  V30 8597 O 797.535 1.76658 -0.846689 0
M  V30 8598 H 796.115 -0.106561 -0.73936 0
M  V30 8599 H 798.777 -0.956793 -1.69798 0
M  V30 8600 H 797.873 -0.352356 -3.10105 0
M  V30 8601 N 798.174 1.49689 -0.493057 0
M  V30 8602 C 799.402 2.06836 0.0513141 0
M  V30 8603 C 799.817 1.35436 1.31539 0
M  V30 8604 O 799.174 0.430248 1.77356 0
M  V30 8605 C 799.225 3.60107 0.317003 0
M  V30 8606 O 798.946 4.2882 -0.896957 0
M  V30 8607 C 800.447 4.33945 0.905902 0
M  V30 8608 H 797.667 0.670787 -0.0169048 0
M  V30 8609 H 800.211 1.92574 -0.688139 0
M  V30 8610 H 798.366 3.74099 1.00642 0
M  V30 8611 H 798.78 5.20395 -0.654939 0
M  V30 8612 H 800.254 5.42087 1.04144 0
M  V30 8613 H 800.731 3.95895 1.90168 0
M  V30 8614 H 801.337 4.2454 0.254195 0
M  V30 8615 N 799.652 0.226554 1.55963 0
M  V30 8616 C 800.615 -0.668015 2.19249 0
M  V30 8617 C 801.615 -1.11794 1.1558 0
M  V30 8618 O 802.805 -1.02593 1.40784 0
M  V30 8619 C 799.937 -1.91571 2.81981 0
M  V30 8620 H 801.13 -0.116175 2.99675 0
M  V30 8621 H 798.683 -0.0230497 1.56283 0
M  V30 8622 H 799.418 -2.50929 2.05439 0
M  V30 8623 H 799.203 -1.6015 3.57903 0
M  V30 8624 H 800.693 -2.55294 3.30477 0
M  V30 8625 N 801.13 -1.57531 -0.0467866 0
M  V30 8626 C 802.062 -2.02156 -1.08007 0
M  V30 8627 C 803.075 -0.931434 -1.33522 0
M  V30 8628 O 804.264 -1.209 -1.31321 0
M  V30 8629 C 801.364 -2.36675 -2.42566 0
M  V30 8630 C 800.537 -3.67848 -2.36658 0
M  V30 8631 C 799.596 -3.89754 -3.53523 0
M  V30 8632 O 798.622 -4.61036 -3.33818 0
M  V30 8633 N 799.824 -3.34025 -4.74771 0
M  V30 8634 H 802.589 -2.91414 -0.699845 0
M  V30 8635 H 800.15 -1.60185 -0.235041 0
M  V30 8636 H 802.142 -2.48482 -3.19435 0
M  V30 8637 H 800.712 -1.53178 -2.72498 0
M  V30 8638 H 799.932 -3.66561 -1.45005 0
M  V30 8639 H 801.22 -4.53931 -2.29835 0
M  V30 8640 H 800.618 -2.76214 -4.93683 0
M  V30 8641 H 799.175 -3.51241 -5.49066 0
M  V30 8642 N 802.608 0.318715 -1.54344 0
M  V30 8643 C 803.854 1.05765 -1.73037 0
M  V30 8644 C 804.187 1.87514 -0.505181 0
M  V30 8645 O 803.462 1.88021 0.497838 0
M  V30 8646 C 803.745 1.97836 -3.00887 0
M  V30 8647 C 803.598 1.19384 -4.33668 0
M  V30 8648 C 804.917 2.97285 -3.24514 0
M  V30 8649 H 802.036 0.383104 -0.629603 0
M  V30 8650 H 804.678 0.333864 -1.87044 0
M  V30 8651 H 802.828 2.59552 -2.89076 0
M  V30 8652 H 804.5 0.600906 -4.57369 0
M  V30 8653 H 802.743 0.496198 -4.30953 0
M  V30 8654 H 803.414 1.87014 -5.19355 0
M  V30 8655 H 805.89 2.45693 -3.35819 0
M  V30 8656 H 804.766 3.58887 -4.15321 0
M  V30 8657 H 805.027 3.70003 -2.41971 0
M  V30 8658 N 804.086 1.46499 0.581025 0
M  V30 8659 C 805.332 1.52121 1.34116 0
M  V30 8660 C 805.665 0.173031 1.93428 0
M  V30 8661 O 804.94 -0.815729 1.76568 0
M  V30 8662 C 805.223 2.62108 2.46924 0
M  V30 8663 C 805.076 4.06462 1.92636 0
M  V30 8664 C 806.395 2.68167 3.48962 0
M  V30 8665 H 803.514 0.5538 0.486287 0
M  V30 8666 H 806.156 1.78443 0.652538 0
M  V30 8667 H 804.306 2.39794 3.05665 0
M  V30 8668 H 805.978 4.40068 1.3834 0
M  V30 8669 H 804.221 4.15862 1.23455 0
M  V30 8670 H 804.892 4.79152 2.74076 0
M  V30 8671 H 807.368 2.8823 3.00104 0
M  V30 8672 H 806.244 3.46942 4.2535 0
M  V30 8673 H 806.505 1.74284 4.06297 0
M  V30 8674 N 805.565 -0.825799 1.34232 0
M  V30 8675 C 806.528 -1.91808 1.25468 0
M  V30 8676 C 807.528 -1.59893 0.170567 0
M  V30 8677 O 808.718 -1.68986 0.422996 0
M  V30 8678 C 805.85 -3.27786 0.93644 0
M  V30 8679 H 807.043 -2.01003 2.22571 0
M  V30 8680 H 804.596 -1.01944 1.18479 0
M  V30 8681 H 805.331 -3.24285 -0.0315408 0
M  V30 8682 H 805.116 -3.52333 1.72057 0
M  V30 8683 H 806.606 -4.07782 0.900214 0
M  V30 8684 N 807.043 -1.17915 -1.04565 0
M  V30 8685 C 808.292 -0.965816 -1.77073 0
M  V30 8686 C 808.605 0.506005 -1.88942 0
M  V30 8687 O 809.811 0.837717 -2.58253 0
M  V30 8688 C 808.267 -1.67894 -3.18339 0
M  V30 8689 C 807.875 -3.18972 -3.1458 0
M  V30 8690 C 809.619 -1.54823 -3.9526 0
M  V30 8691 C 807.526 -3.82946 -4.50674 0
M  V30 8692 H 806.456 -0.357729 -0.663736 0
M  V30 8693 H 809.107 -1.41235 -1.17153 0
M  V30 8694 H 807.489 -1.16016 -3.78624 0
M  V30 8695 H 808.663 -3.77835 -2.63776 0
M  V30 8696 H 806.978 -3.32127 -2.51159 0
M  V30 8697 H 809.575 -1.99984 -4.95894 0
M  V30 8698 H 809.918 -0.499727 -4.1329 0
M  V30 8699 H 810.451 -2.03953 -3.41538 0
M  V30 8700 H 807.19 -4.8782 -4.37849 0
M  V30 8701 H 806.71 -3.2887 -5.01602 0
M  V30 8702 H 808.389 -3.85518 -5.196 0
M  V30 8703 N 808.521 1.23394 -0.980386 0
M  V30 8704 C 809.468 2.24859 -0.520298 0
M  V30 8705 C 810.438 1.60144 0.440821 0
M  V30 8706 O 811.623 1.87593 0.348369 0
M  V30 8707 C 808.763 3.44675 0.171145 0
M  V30 8708 C 807.876 4.23947 -0.830233 0
M  V30 8709 C 807.011 5.31079 -0.113597 0
M  V30 8710 C 806.05 6.02058 -1.10419 0
M  V30 8711 N 805.187 7.00862 -0.416709 0
M  V30 8712 H 810.027 2.63579 -1.39032 0
M  V30 8713 H 807.564 1.29556 -0.696682 0
M  V30 8714 H 809.522 4.13024 0.588838 0
M  V30 8715 H 808.152 3.06755 1.00504 0
M  V30 8716 H 807.204 3.55016 -1.36631 0
M  V30 8717 H 808.516 4.72945 -1.58508 0
M  V30 8718 H 807.67 6.05622 0.36146 0
M  V30 8719 H 806.409 4.83022 0.673854 0
M  V30 8720 H 805.414 5.26307 -1.59 0
M  V30 8721 H 806.639 6.52203 -1.8923 0
M  V30 8722 H 804.585 6.55057 0.351535 0
M  V30 8723 H 804.502 7.47804 -1.11021 0
M  V30 8724 H 805.77 7.79492 0.0359606 0
M  V30 8725 N 809.999 0.752036 1.385 0
M  V30 8726 C 810.931 0.0835089 2.29048 0
M  V30 8727 C 811.944 -0.685402 1.47669 0
M  V30 8728 O 813.133 -0.526748 1.70551 0
M  V30 8729 C 810.233 -0.905772 3.26572 0
M  V30 8730 C 809.406 -0.194828 4.36966 0
M  V30 8731 C 808.465 -1.09464 5.14688 0
M  V30 8732 O 807.491 -0.565743 5.66381 0
M  V30 8733 N 808.693 -2.42287 5.2752 0
M  V30 8734 H 811.458 0.861142 2.87062 0
M  V30 8735 H 809.019 0.602689 1.50264 0
M  V30 8736 H 811.011 -1.51072 3.75446 0
M  V30 8737 H 809.581 -1.58449 2.69467 0
M  V30 8738 H 808.801 0.590812 3.89747 0
M  V30 8739 H 810.089 0.297189 5.07931 0
M  V30 8740 H 809.487 -2.87715 4.8707 0
M  V30 8741 H 808.044 -2.97836 5.79773 0
M  V30 8742 N 811.477 -1.49425 0.500989 0
M  V30 8743 C 812.425 -2.30771 -0.291149 0
M  V30 8744 C 813.419 -1.3938 -0.962787 0
M  V30 8745 O 814.625 -1.56431 -0.890477 0
M  V30 8746 H 811 -0.743499 -0.11275 0
M  V30 8747 H 812.971 -2.95501 0.414917 0
M  V30 8748 C 811.72 -3.20725 -1.34279 0
M  V30 8749 H 811.043 -3.90975 -0.83538 0
M  V30 8750 H 812.483 -3.80583 -1.86903 0
M  V30 8751 C 810.942 -2.40334 -2.36095 0
M  V30 8752 O 811.472 -2.10749 -3.41976 0
M  V30 8753 N 809.678 -2.02359 -2.08565 0
M  V30 8754 H 809.225 -2.26619 -1.22482 0
M  V30 8755 H 809.183 -1.48878 -2.76916 0
M  V30 8756 N 812.955 -0.234822 -1.55841 0
M  V30 8757 C 813.865 0.680828 -2.24504 0
M  V30 8758 C 814.881 1.20306 -1.25708 0
M  V30 8759 O 816.057 1.24188 -1.58554 0
M  V30 8760 C 813.122 1.86636 -2.92178 0
M  V30 8761 C 812.183 1.3848 -4.06352 0
M  V30 8762 C 811.416 2.51382 -4.70789 0
M  V30 8763 O 811.639 3.69831 -4.34259 0
M  V30 8764 O 810.573 2.21828 -5.59532 0
M  V30 8765 H 814.399 0.12583 -3.03439 0
M  V30 8766 H 811.984 -0.00381817 -1.494 0
M  V30 8767 H 813.866 2.55845 -3.34845 0
M  V30 8768 H 812.541 2.40921 -2.16192 0
M  V30 8769 H 811.448 0.660341 -3.68226 0
M  V30 8770 H 812.781 0.888177 -4.8412 0
M  V30 8771 N 814.433 1.57553 0.0384317 0
M  V30 8772 C 815.849 1.54663 0.39391 0
M  V30 8773 C 816.049 0.959685 1.77179 0
M  V30 8774 O 815.105 0.576647 2.45827 0
M  V30 8775 C 816.418 2.99156 0.304352 0
M  V30 8776 C 817.966 3.10659 0.382119 0
M  V30 8777 C 818.441 4.56866 0.322111 0
M  V30 8778 N 819.932 4.61629 0.38119 0
M  V30 8779 C 820.667 5.72284 0.357501 0
M  V30 8780 N 820.163 6.92207 0.286654 0
M  V30 8781 N 821.956 5.60628 0.406538 0
M  V30 8782 H 814.107 1.9406 -0.86339 0
M  V30 8783 H 816.37 0.889673 -0.327392 0
M  V30 8784 H 816.076 3.45788 -0.642141 0
M  V30 8785 H 815.95 3.60753 1.10168 0
M  V30 8786 H 818.337 2.6398 1.31904 0
M  V30 8787 H 818.418 2.5191 -0.444391 0
M  V30 8788 H 818.062 5.0421 -0.611104 0
M  V30 8789 H 817.992 5.13515 1.1666 0
M  V30 8790 H 820.483 3.75343 0.438838 0
M  V30 8791 H 820.796 7.72316 0.273421 0
M  V30 8792 H 819.141 6.9454 0.252841 0
M  V30 8793 H 822.332 4.65836 0.459812 0
M  V30 8794 H 822.505 6.46858 0.384608 0
M  V30 8795 N 815.911 -0.310526 1.54511 0
M  V30 8796 C 817.141 -1.06456 1.77061 0
M  V30 8797 C 817.549 -1.81755 0.525528 0
M  V30 8798 O 816.892 -1.76365 -0.513904 0
M  V30 8799 C 816.954 -2.09856 2.91892 0
M  V30 8800 C 816.618 -1.53838 4.30329 0
M  V30 8801 C 817.615 -0.973358 5.10707 0
M  V30 8802 C 815.3 -1.57688 4.76906 0
M  V30 8803 C 817.294 -0.454283 6.35779 0
M  V30 8804 C 814.981 -1.05393 6.01943 0
M  V30 8805 C 815.979 -0.493595 6.81214 0
M  V30 8806 O 815.667 0.0214506 8.03897 0
M  V30 8807 H 815.399 -0.321913 0.594431 0
M  V30 8808 H 817.953 -0.358289 2.02251 0
M  V30 8809 H 816.183 -2.84137 2.62304 0
M  V30 8810 H 817.872 -2.71085 3.02106 0
M  V30 8811 H 818.638 -0.936588 4.75871 0
M  V30 8812 H 814.517 -2.00242 4.1524 0
M  V30 8813 H 818.061 -0.0162657 6.97598 0
M  V30 8814 H 813.958 -1.08782 6.36268 0
M  V30 8815 H 814.726 -0.0927478 8.18447 0
M  V30 8816 N 817.389 -1.46805 -0.573248 0
M  V30 8817 C 818.666 -1.43082 -1.33368 0
M  V30 8818 C 819.046 -0.119252 -2.10763 0
M  V30 8819 O 818.394 0.899239 -2.10062 0
M  V30 8820 C 818.604 -2.66643 -2.25172 0
M  V30 8821 C 819.952 -3.13188 -2.86702 0
M  V30 8822 O 820.976 -2.67258 -2.35482 0
M  V30 8823 O 819.835 -3.92994 -3.79761 0
M  V30 8824 H 816.929 -0.569451 -0.599712 0
M  V30 8825 H 819.475 -1.58984 -0.59348 0
M  V30 8826 H 818.247 -3.53649 -1.67475 0
M  V30 8827 H 817.87 -2.53247 -3.06516 0
M  V30 8828 N 818.867 0.818669 -1.34668 0
M  V30 8829 C 820.283 1.11243 -1.14443 0
M  V30 8830 C 820.483 2.01435 0.0512212 0
M  V30 8831 O 819.539 2.41854 0.725471 0
M  V30 8832 C 820.852 1.75504 -2.4417 0
M  V30 8833 C 822.4 1.8798 -2.50265 0
M  V30 8834 C 822.875 2.55657 -3.80004 0
M  V30 8835 N 824.366 2.63153 -3.81189 0
M  V30 8836 C 825.101 3.16258 -4.78298 0
M  V30 8837 N 824.597 3.69893 -5.85791 0
M  V30 8838 N 826.39 3.14698 -4.65748 0
M  V30 8839 H 818.541 0.218848 -2.1127 0
M  V30 8840 H 820.804 0.159655 -0.934459 0
M  V30 8841 H 820.51 1.16697 -3.31775 0
M  V30 8842 H 820.384 2.75329 -2.57825 0
M  V30 8843 H 822.771 2.45934 -1.63096 0
M  V30 8844 H 822.852 0.870447 -2.40535 0
M  V30 8845 H 822.496 1.98356 -4.67565 0
M  V30 8846 H 822.426 3.57105 -3.87019 0
M  V30 8847 H 824.917 2.2514 -3.03513 0
M  V30 8848 H 825.23 4.08678 -6.55898 0
M  V30 8849 H 823.575 3.68125 -5.89499 0
M  V30 8850 H 826.766 2.72066 -3.80917 0
M  V30 8851 H 826.939 3.5578 -5.41594 0
M  V30 8852 N 820.346 1.18468 1.03938 0
M  V30 8853 C 821.571 1.00638 1.81347 0
M  V30 8854 C 821.996 -0.440477 1.8287 0
M  V30 8855 O 821.354 -1.31609 1.24695 0
M  V30 8856 C 821.402 1.5673 3.24759 0
M  V30 8857 O 820.506 0.789517 4.04772 0
M  V30 8858 H 819.847 0.356432 0.560225 0
M  V30 8859 H 822.377 1.57253 1.30891 0
M  V30 8860 H 822.387 1.59496 3.75533 0
M  V30 8861 H 821.062 2.62043 3.22965 0
M  V30 8862 H 819.639 0.834267 3.63448 0
M  V30 8863 N 821.824 -1.22873 0.986916 0
M  V30 8864 C 822.771 -2.2458 0.532215 0
M  V30 8865 C 823.741 -1.60375 -0.432322 0
M  V30 8866 O 824.926 -1.87775 -0.338416 0
M  V30 8867 C 822.066 -3.44761 -0.152864 0
M  V30 8868 C 821.179 -4.23501 0.852704 0
M  V30 8869 C 820.314 -5.31011 0.14176 0
M  V30 8870 C 819.353 -6.01464 1.1361 0
M  V30 8871 N 818.49 -7.00631 0.453871 0
M  V30 8872 H 823.33 -2.62838 1.40428 0
M  V30 8873 H 820.867 -1.29185 0.703543 0
M  V30 8874 H 822.825 -4.1333 -0.566926 0
M  V30 8875 H 821.455 -3.07284 -0.988756 0
M  V30 8876 H 820.507 -3.54286 1.38512 0
M  V30 8877 H 821.819 -4.72097 1.61014 0
M  V30 8878 H 820.973 -6.05805 -0.329337 0
M  V30 8879 H 819.712 -4.83373 -0.648229 0
M  V30 8880 H 818.717 -5.25456 1.61789 0
M  V30 8881 H 819.942 -6.5119 1.92686 0
M  V30 8882 H 817.888 -6.55235 -0.316791 0
M  V30 8883 H 817.805 -7.47204 1.14986 0
M  V30 8884 H 819.073 -7.795 0.00537823 0
M  V30 8885 N 823.302 -0.75937 -1.38099 0
M  V30 8886 C 824.232 -0.151077 -2.33011 0
M  V30 8887 C 825.213 0.697099 -1.5516 0
M  V30 8888 O 826.398 0.637101 -1.83452 0
M  V30 8889 C 823.528 0.738423 -3.39359 0
M  V30 8890 C 822.482 -0.0074741 -4.27999 0
M  V30 8891 C 821.808 1.00066 -5.25253 0
M  V30 8892 C 823.108 -1.17926 -5.08813 0
M  V30 8893 H 824.802 -0.943933 -2.84131 0
M  V30 8894 H 822.348 -0.455362 -1.36611 0
M  V30 8895 H 824.301 1.17369 -4.04725 0
M  V30 8896 H 823.025 1.56366 -2.86735 0
M  V30 8897 H 821.684 -0.423379 -3.64147 0
M  V30 8898 H 821.332 1.82012 -4.68914 0
M  V30 8899 H 821.032 0.506199 -5.85416 0
M  V30 8900 H 822.556 1.43512 -5.93495 0
M  V30 8901 H 823.97 -0.821262 -5.67387 0
M  V30 8902 H 822.367 -1.60497 -5.78239 0
M  V30 8903 H 823.437 -1.98938 -4.42212 0
M  V30 8904 N 824.78 1.49157 -0.508906 0
M  V30 8905 C 825.71 2.32109 0.254469 0
M  V30 8906 C 826.691 1.40754 0.955111 0
M  V30 8907 O 827.876 1.69658 0.944983 0
M  V30 8908 C 825.006 3.21458 1.3146 0
M  V30 8909 C 823.96 4.2167 0.733368 0
M  V30 8910 C 823.286 5.00009 1.8946 0
M  V30 8911 C 824.586 5.21544 -0.280875 0
M  V30 8912 H 826.28 2.9618 -0.43795 0
M  V30 8913 H 823.826 1.4243 -0.212062 0
M  V30 8914 H 825.779 3.78305 1.85643 0
M  V30 8915 H 824.503 2.55346 2.03632 0
M  V30 8916 H 823.162 3.65979 0.213231 0
M  V30 8917 H 822.81 4.30338 2.60419 0
M  V30 8918 H 822.51 5.67821 1.51173 0
M  V30 8919 H 824.034 5.59702 2.44061 0
M  V30 8920 H 825.448 5.73039 0.173095 0
M  V30 8921 H 823.845 5.97291 -0.580006 0
M  V30 8922 H 824.915 4.69969 -1.19404 0
M  V30 8923 N 826.258 0.243083 1.55714 0
M  V30 8924 C 827.168 -0.668913 2.24862 0
M  V30 8925 C 828.184 -1.19638 1.26344 0
M  V30 8926 O 829.36 -1.23345 1.5921 0
M  V30 8927 C 826.425 -1.85084 2.93163 0
M  V30 8928 C 825.486 -1.36323 4.07081 0
M  V30 8929 C 824.719 -2.48882 4.72116 0
M  V30 8930 O 824.942 -3.67523 4.36214 0
M  V30 8931 O 823.876 -2.18857 5.60701 0
M  V30 8932 H 827.702 -0.109737 3.03502 0
M  V30 8933 H 825.287 0.0117411 1.49395 0
M  V30 8934 H 827.169 -2.54065 3.36197 0
M  V30 8935 H 825.844 -2.39771 2.17466 0
M  V30 8936 H 824.751 -0.640804 3.68571 0
M  V30 8937 H 826.084 -0.86249 4.84584 0
M  V30 8938 N 827.736 -1.57571 -0.0300757 0
M  V30 8939 C 829.152 -1.54869 -0.385703 0
M  V30 8940 C 829.352 -0.969068 -1.76667 0
M  V30 8941 O 828.408 -0.589676 -2.45518 0
M  V30 8942 C 829.721 -2.99313 -0.288482 0
M  V30 8943 C 831.269 -3.10857 -0.365638 0
M  V30 8944 C 831.744 -4.5703 -0.297878 0
M  V30 8945 N 833.235 -4.61825 -0.356703 0
M  V30 8946 C 833.97 -5.72466 -0.327146 0
M  V30 8947 N 833.466 -6.92349 -0.249941 0
M  V30 8948 N 835.259 -5.60836 -0.376801 0
M  V30 8949 H 827.41 -1.936 0.87367 0
M  V30 8950 H 829.673 -0.887924 0.332106 0
M  V30 8951 H 829.379 -3.45443 0.66047 0
M  V30 8952 H 829.253 -3.61332 -1.08253 0
M  V30 8953 H 831.64 -2.64676 -1.30502 0
M  V30 8954 H 831.721 -2.51671 0.457744 0
M  V30 8955 H 831.365 -5.03879 0.637835 0
M  V30 8956 H 831.295 -5.14127 -1.13935 0
M  V30 8957 H 833.786 -3.75571 -0.418926 0
M  V30 8958 H 834.099 -7.7245 -0.23246 0
M  V30 8959 H 832.444 -6.94664 -0.216004 0
M  V30 8960 H 835.635 -4.66073 -0.435101 0
M  V30 8961 H 835.808 -6.47052 -0.350298 0
M  V30 8962 N 829.214 0.302327 -1.54673 0
M  V30 8963 C 830.164 1.37443 -1.81916 0
M  V30 8964 C 831.148 1.45999 -0.676251 0
M  V30 8965 O 832.34 1.50174 -0.93685 0
M  V30 8966 C 829.469 2.73966 -2.06876 0
M  V30 8967 C 828.555 2.69637 -3.27348 0
M  V30 8968 N 828.946 2.34926 -4.47933 0
M  V30 8969 C 827.244 3.00742 -3.29348 0
M  V30 8970 C 827.945 2.39862 -5.29944 0
M  V30 8971 N 826.921 2.77163 -4.67634 0
M  V30 8972 H 830.723 1.09567 -2.72713 0
M  V30 8973 H 828.237 0.5109 -1.54154 0
M  V30 8974 H 830.234 3.51265 -2.2454 0
M  V30 8975 H 828.894 3.02754 -1.17346 0
M  V30 8976 H 829.905 2.07403 -4.74557 0
M  V30 8977 H 826.582 3.34434 -2.49921 0
M  V30 8978 H 827.972 2.15835 -6.3629 0
M  V30 8979 N 830.692 1.47107 0.565454 0
M  V30 8980 C 832.108 1.32443 0.890566 0
M  V30 8981 C 832.308 0.308735 1.99121 0
M  V30 8982 O 831.364 -0.28265 2.50913 0
M  V30 8983 C 832.677 2.71548 1.2916 0
M  V30 8984 C 834.225 2.7977 1.40349 0
M  V30 8985 C 834.7 4.19497 1.83811 0
M  V30 8986 N 836.191 4.21998 1.90975 0
M  V30 8987 C 836.926 5.2702 2.25916 0
M  V30 8988 N 836.422 6.42353 2.59527 0
M  V30 8989 N 838.215 5.14393 2.26619 0
M  V30 8990 H 830.366 2.11786 -0.161328 0
M  V30 8991 H 832.629 0.947952 -0.00950631 0
M  V30 8992 H 832.335 3.47265 0.556753 0
M  V30 8993 H 832.209 3.02782 2.24951 0
M  V30 8994 H 834.596 2.0433 2.12916 0
M  V30 8995 H 834.677 2.522 0.427655 0
M  V30 8996 H 834.321 4.95439 1.11816 0
M  V30 8997 H 834.251 4.44486 2.82382 0
M  V30 8998 H 836.742 3.38791 1.6742 0
M  V30 8999 H 837.055 7.18252 2.85191 0
M  V30 9000 H 835.4 6.45687 2.57126 0
M  V30 9001 H 838.591 4.2332 1.99794 0
M  V30 9002 H 838.764 5.96349 2.5352 0
M  V30 9003 N 832.17 -0.811516 1.35101 0
M  V30 9004 C 833.447 -1.55491 1.18667 0
M  V30 9005 C 833.827 -2.09775 -0.236189 0
M  V30 9006 O 833.175 -1.91989 -1.23905 0
M  V30 9007 C 833.385 -2.66732 2.25067 0
M  V30 9008 C 834.733 -3.35201 2.60625 0
M  V30 9009 O 835.757 -2.76998 2.23943 0
M  V30 9010 O 834.616 -4.40334 3.23679 0
M  V30 9011 H 831.71 -0.686783 0.460716 0
M  V30 9012 H 834.256 -0.851903 1.46768 0
M  V30 9013 H 833.028 -2.24457 3.20523 0
M  V30 9014 H 832.651 -3.44673 1.98208 0
M  V30 9015 N 833.648 -1.19017 -1.03309 0
M  V30 9016 C 834.598 -0.89194 -2.0983 0
M  V30 9017 C 835.582 0.14151 -1.60277 0
M  V30 9018 O 836.774 -0.0635946 -1.76886 0
M  V30 9019 C 833.903 -0.427793 -3.40624 0
M  V30 9020 C 832.989 -1.49374 -3.96923 0
M  V30 9021 N 833.38 -2.71213 -4.26939 0
M  V30 9022 C 831.678 -1.35605 -4.24885 0
M  V30 9023 C 832.379 -3.39849 -4.72099 0
M  V30 9024 N 831.355 -2.67239 -4.73375 0
M  V30 9025 H 835.157 -1.81801 -2.30923 0
M  V30 9026 H 832.671 -1.08171 -1.21131 0
M  V30 9027 H 834.668 -0.195608 -4.16441 0
M  V30 9028 H 833.328 0.491848 -3.20953 0
M  V30 9029 H 834.339 -3.08014 -4.16351 0
M  V30 9030 H 831.016 -0.499537 -4.14501 0
M  V30 9031 H 832.406 -4.44018 -5.04279 0
M  V30 9032 N 835.127 1.22348 -0.993418 0
M  V30 9033 C 836.09 2.22522 -0.549251 0
M  V30 9034 C 837.09 1.56529 0.368164 0
M  V30 9035 O 838.28 1.73463 0.16005 0
M  V30 9036 C 835.412 3.40307 0.201037 0
M  V30 9037 H 836.605 2.63332 -1.43515 0
M  V30 9038 H 834.158 1.35407 -0.78068 0
M  V30 9039 H 834.893 3.0497 1.10289 0
M  V30 9040 H 834.678 3.8942 -0.457685 0
M  V30 9041 H 836.168 4.14597 0.499946 0
M  V30 9042 N 836.605 0.766683 1.37694 0
M  V30 9043 C 837.535 0.163432 2.32927 0
M  V30 9044 C 838.516 -0.688861 1.55527 0
M  V30 9045 O 839.701 -0.627363 1.83787 0
M  V30 9046 C 836.831 -0.720416 3.39746 0
M  V30 9047 C 835.785 0.0301718 4.27989 0
M  V30 9048 C 835.111 -0.972788 5.25776 0
M  V30 9049 C 836.411 1.20623 5.0818 0
M  V30 9050 H 838.105 0.958988 2.83626 0
M  V30 9051 H 835.651 0.462601 1.36367 0
M  V30 9052 H 837.604 -1.15221 4.05342 0
M  V30 9053 H 836.328 -1.54844 2.8756 0
M  V30 9054 H 834.987 0.442685 3.63917 0
M  V30 9055 H 834.635 -1.79522 4.69873 0
M  V30 9056 H 834.335 -0.475145 5.85676 0
M  V30 9057 H 835.859 -1.40362 5.94248 0
M  V30 9058 H 837.273 0.851341 5.66944 0
M  V30 9059 H 835.67 1.63561 5.7738 0
M  V30 9060 H 836.74 2.01281 4.41151 0
M  V30 9061 N 838.083 -1.48885 0.516809 0
M  V30 9062 C 839.33 -2.02488 -0.0220602 0
M  V30 9063 C 839.658 -1.39513 -1.35523 0
M  V30 9064 O 838.913 -0.52558 -1.8851 0
M  V30 9065 C 839.212 -3.56801 -0.206798 0
M  V30 9066 C 838.878 -4.38496 1.05035 0
M  V30 9067 C 837.54 -4.60538 1.39492 0
M  V30 9068 C 839.892 -4.85909 1.88525 0
M  V30 9069 C 837.22 -5.2724 2.57361 0
M  V30 9070 C 839.572 -5.53909 3.05561 0
M  V30 9071 C 838.236 -5.74193 3.4038 0
M  V30 9072 H 837.506 -0.740956 -0.00807238 0
M  V30 9073 H 840.153 -1.79014 0.680168 0
M  V30 9074 H 838.458 -3.79042 -0.991687 0
M  V30 9075 H 840.155 -3.95885 -0.638447 0
M  V30 9076 H 836.745 -4.2159 0.771984 0
M  V30 9077 H 840.929 -4.68694 1.63218 0
M  V30 9078 H 836.185 -5.41145 2.84556 0
M  V30 9079 H 840.359 -5.89619 3.7057 0
M  V30 9080 H 837.986 -6.25652 4.31814 0
M  V30 9081 N 839.561 -0.251338 -1.55583 0
M  V30 9082 C 840.807 0.37272 -1.99346 0
M  V30 9083 C 841.14 1.57266 -1.13934 0
M  V30 9084 O 840.415 1.9343 -0.20377 0
M  V30 9085 C 840.698 0.778245 -3.5159 0
M  V30 9086 C 840.551 -0.427394 -4.47765 0
M  V30 9087 C 841.87 1.62358 -4.09057 0
M  V30 9088 H 838.989 0.134002 -0.724715 0
M  V30 9089 H 841.631 -0.353536 -1.86682 0
M  V30 9090 H 839.781 1.39704 -3.62512 0
M  V30 9091 H 841.453 -1.06586 -4.48818 0
M  V30 9092 H 839.696 -1.06972 -4.20404 0
M  V30 9093 H 840.367 -0.10025 -5.51909 0
M  V30 9094 H 842.843 1.1012 -4.01264 0
M  V30 9095 H 841.719 1.87617 -5.1584 0
M  V30 9096 H 841.98 2.59688 -3.57791 0
M  V30 9097 N 841.039 1.57585 0.0217189 0
M  V30 9098 C 842.287 1.89231 0.709641 0
M  V30 9099 C 842.608 0.849964 1.75501 0
M  V30 9100 O 841.878 -0.115485 1.95559 0
M  V30 9101 H 840.458 0.69838 0.265092 0
M  V30 9102 H 843.12 1.94895 -0.0140688 0
M  V30 9103 H 842.216 2.88333 1.19459 0
M  V30 9104 N 842.517 -0.29412 1.54831 0
M  V30 9105 C 843.764 -1.02846 1.74439 0
M  V30 9106 C 844.092 -1.87029 0.533905 0
M  V30 9107 O 843.347 -1.8962 -0.484035 0
M  V30 9108 C 843.646 -1.95782 2.99006 0
M  V30 9109 C 843.312 -1.2752 4.32492 0
M  V30 9110 C 841.974 -1.08637 4.68777 0
M  V30 9111 C 844.326 -0.787761 5.15212 0
M  V30 9112 C 841.654 -0.39704 5.85355 0
M  V30 9113 C 844.006 -0.112123 6.32501 0
M  V30 9114 C 842.67 0.0886071 6.67441 0
M  V30 9115 H 841.94 -0.376341 0.638317 0
M  V30 9116 H 844.587 -0.302684 1.89093 0
M  V30 9117 H 842.892 -2.74911 2.79162 0
M  V30 9118 H 844.589 -2.52684 3.11371 0
M  V30 9119 H 841.179 -1.43226 4.03961 0
M  V30 9120 H 845.363 -0.921341 4.87673 0
M  V30 9121 H 840.619 -0.230597 6.10965 0
M  V30 9122 H 844.793 0.27344 6.95863 0
M  V30 9123 H 842.42 0.624748 7.57628 0
M  V30 9124 N 843.995 -1.47404 -0.557645 0
M  V30 9125 C 844.958 -1.59411 -1.64684 0
M  V30 9126 C 845.958 -0.469244 -1.53801 0
M  V30 9127 O 847.148 -0.734298 -1.57967 0
M  V30 9128 C 844.28 -1.5382 -3.04224 0
M  V30 9129 H 845.473 -2.56504 -1.55389 0
M  V30 9130 H 843.026 -1.35588 -0.777531 0
M  V30 9131 H 843.761 -0.581 -3.19053 0
M  V30 9132 H 843.546 -2.35456 -3.13533 0
M  V30 9133 H 845.036 -1.65358 -3.83466 0
M  V30 9134 N 845.473 0.80434 -1.35529 0
M  V30 9135 C 846.884 1.37849 -1.25915 0
M  V30 9136 C 847.235 1.95905 0.107495 0
M  V30 9137 O 846.36 1.91462 1.00852 0
M  V30 9138 C 846.955 2.50608 -2.27994 0
M  V30 9139 C 845.514 3.03879 -2.22114 0
M  V30 9140 C 844.661 1.76856 -2.13582 0
M  V30 9141 H 847.612 0.607192 -1.46625 0
M  V30 9142 H 847.633 3.29221 -1.90772 0
M  V30 9143 H 847.145 2.08323 -3.27449 0
M  V30 9144 H 845.246 3.50622 -1.26077 0
M  V30 9145 H 845.359 3.61707 -3.14173 0
M  V30 9146 H 843.723 1.98498 -1.59595 0
M  V30 9147 H 844.506 1.36721 -3.14901 0
M  V30 9148 N 846.951 1.19563 1.02676 0
M  V30 9149 C 847.914 0.937182 2.09164 0
M  V30 9150 C 848.914 -0.0831927 1.60585 0
M  V30 9151 O 850.104 0.15178 1.73538 0
M  V30 9152 C 847.236 0.408912 3.38439 0
M  V30 9153 H 848.429 1.88164 2.33526 0
M  V30 9154 H 845.982 1.00959 1.19319 0
M  V30 9155 H 846.717 -0.541497 3.19747 0
M  V30 9156 H 846.502 1.14464 3.7502 0
M  V30 9157 H 847.992 0.247242 4.16867 0
M  V30 9158 N 848.429 -1.21819 0.999893 0
M  V30 9159 C 849.377 -2.26027 0.549047 0
M  V30 9160 C 850.371 -1.64516 -0.403826 0
M  V30 9161 O 851.577 -1.77878 -0.275578 0
M  V30 9162 H 847.952 -0.734958 0.159185 0
M  V30 9163 H 849.923 -2.61398 1.43923 0
M  V30 9164 C 848.672 -3.47514 -0.11369 0
M  V30 9165 H 847.995 -3.95112 0.610482 0
M  V30 9166 H 849.435 -4.22179 -0.3925 0
M  V30 9167 C 847.894 -3.08614 -1.35126 0
M  V30 9168 O 848.424 -3.1864 -2.44605 0
M  V30 9169 N 846.63 -2.63327 -1.22911 0
M  V30 9170 H 846.177 -2.55369 -0.338288 0
M  V30 9171 H 846.135 -2.37668 -2.05818 0
M  V30 9172 N 849.908 -0.773975 -1.37286 0
M  V30 9173 C 850.856 -0.149581 -2.32119 0
M  V30 9174 C 851.85 0.682457 -1.55045 0
M  V30 9175 O 853.056 0.579269 -1.70424 0
M  V30 9176 H 849.431 -0.0295857 -0.751418 0
M  V30 9177 H 851.402 -0.965117 -2.82362 0
M  V30 9178 C 850.151 0.713409 -3.40302 0
M  V30 9179 H 849.474 0.0825416 -3.99715 0
M  V30 9180 H 850.914 1.11723 -4.09016 0
M  V30 9181 C 849.373 1.86498 -2.80571 0
M  V30 9182 O 849.903 2.9606 -2.71498 0
M  V30 9183 N 848.109 1.66629 -2.38082 0
M  V30 9184 H 847.656 0.775145 -2.45661 0
M  V30 9185 H 847.614 2.43845 -1.98461 0
M  V30 9186 N 851.386 1.48609 -0.524698 0
M  V30 9187 C 852.797 1.86516 -0.0828846 0
M  V30 9188 C 853.148 1.43478 1.33822 0
M  V30 9189 O 852.273 0.823139 2.00133 0
M  V30 9190 C 852.868 3.38495 -0.143639 0
M  V30 9191 C 851.427 3.75615 0.242951 0
M  V30 9192 C 850.574 2.72649 -0.505747 0
M  V30 9193 H 853.525 1.40589 -0.736233 0
M  V30 9194 H 853.546 3.74977 0.645955 0
M  V30 9195 H 853.058 3.69789 -1.17805 0
M  V30 9196 H 851.159 3.49935 1.27971 0
M  V30 9197 H 851.272 4.7901 -0.0929834 0
M  V30 9198 H 849.636 2.54656 0.0473482 0
M  V30 9199 H 850.419 3.06786 -1.54069 0
M  V30 9200 N 852.864 0.259585 1.55447 0
M  V30 9201 C 853.796 -0.667548 2.19263 0
M  V30 9202 C 854.809 -1.12925 1.17268 0
M  V30 9203 O 855.998 -1.05384 1.44071 0
M  V30 9204 C 853.098 -1.92066 2.7922 0
M  V30 9205 C 852.271 -1.60832 4.06758 0
M  V30 9206 C 851.33 -2.71231 4.50911 0
M  V30 9207 O 850.356 -2.38077 5.17019 0
M  V30 9208 N 851.558 -4.00984 4.19752 0
M  V30 9209 H 854.323 -0.121449 2.99454 0
M  V30 9210 H 851.884 0.0800519 1.61702 0
M  V30 9211 H 853.876 -2.65186 3.0571 0
M  V30 9212 H 852.446 -2.37621 2.03113 0
M  V30 9213 H 851.666 -0.711685 3.87722 0
M  V30 9214 H 852.954 -1.37445 4.89884 0
M  V30 9215 H 852.352 -4.30748 3.66706 0
M  V30 9216 H 850.909 -4.7053 4.51048 0
M  V30 9217 N 854.342 -1.57594 -0.0133615 0
M  V30 9218 C 855.591 -1.8916 -0.700103 0
M  V30 9219 C 855.904 -0.860147 -1.75673 0
M  V30 9220 O 857.11 -1.06556 -2.49716 0
M  V30 9221 C 855.566 -3.35742 -1.29635 0
M  V30 9222 C 855.174 -4.47154 -0.275249 0
M  V30 9223 C 856.918 -3.76436 -1.96205 0
M  V30 9224 C 854.825 -5.84805 -0.880726 0
M  V30 9225 H 853.755 -0.705805 -0.265247 0
M  V30 9226 H 856.406 -1.83445 0.044993 0
M  V30 9227 H 854.788 -3.36252 -2.09167 0
M  V30 9228 H 855.962 -4.58139 0.494506 0
M  V30 9229 H 854.277 -4.15394 0.289256 0
M  V30 9230 H 856.874 -4.76606 -2.42386 0
M  V30 9231 H 857.217 -3.09249 -2.78695 0
M  V30 9232 H 857.75 -3.78168 -1.23426 0
M  V30 9233 H 854.489 -6.55431 -0.0949013 0
M  V30 9234 H 854.009 -5.7751 -1.61995 0
M  V30 9235 H 855.688 -6.32038 -1.38338 0
M  V30 9236 N 855.82 0.285905 -1.54985 0
M  V30 9237 C 856.783 1.33625 -1.86218 0
M  V30 9238 C 857.783 1.42971 -0.735936 0
M  V30 9239 O 858.973 1.42345 -1.00417 0
M  V30 9240 C 856.105 2.71926 -2.05595 0
M  V30 9241 H 857.298 1.07167 -2.80099 0
M  V30 9242 H 854.851 0.523335 -1.47278 0
M  V30 9243 H 855.586 3.03583 -1.14053 0
M  V30 9244 H 855.371 2.6653 -2.87583 0
M  V30 9245 H 856.861 3.47841 -2.31077 0
M  V30 9246 N 857.298 1.47698 0.54982 0
M  V30 9247 C 858.544 1.54931 1.30859 0
M  V30 9248 C 858.877 0.214021 1.93017 0
M  V30 9249 O 858.152 -0.778093 1.78258 0
M  V30 9250 C 858.435 2.67286 2.41309 0
M  V30 9251 C 858.288 4.10457 1.83971 0
M  V30 9252 C 859.607 2.75509 3.43195 0
M  V30 9253 H 856.726 0.56399 0.474431 0
M  V30 9254 H 859.368 1.79787 0.614541 0
M  V30 9255 H 857.518 2.46224 3.0051 0
M  V30 9256 H 859.19 4.42903 1.28974 0
M  V30 9257 H 857.433 4.18387 1.14606 0
M  V30 9258 H 858.104 4.84857 2.63851 0
M  V30 9259 H 860.58 2.94531 2.93923 0
M  V30 9260 H 859.456 3.55886 4.17895 0
M  V30 9261 H 859.717 1.82863 4.02509 0
M  V30 9262 N 858.776 -0.797141 1.35954 0
M  V30 9263 C 859.739 -1.89104 1.29508 0
M  V30 9264 C 860.739 -1.59495 0.204444 0
M  V30 9265 O 861.929 -1.68051 0.458746 0
M  V30 9266 C 859.061 -3.25726 1.00576 0
M  V30 9267 H 860.254 -1.96237 2.26785 0
M  V30 9268 H 857.807 -0.994075 1.20614 0
M  V30 9269 H 858.542 -3.24279 0.0372519 0
M  V30 9270 H 858.327 -3.48604 1.79492 0
M  V30 9271 H 859.817 -4.0578 0.986508 0
M  V30 9272 N 860.254 -1.20106 -1.0204 0
M  V30 9273 C 861.5 -1.01039 -1.75838 0
M  V30 9274 C 861.833 0.456819 -1.88751 0
M  V30 9275 O 861.108 1.33919 -1.41053 0
M  V30 9276 C 861.391 -1.69009 -3.17975 0
M  V30 9277 C 861.244 -3.2315 -3.1288 0
M  V30 9278 C 862.563 -1.42005 -4.16561 0
M  V30 9279 H 859.682 -0.368465 -0.638281 0
M  V30 9280 H 862.324 -1.48066 -1.19064 0
M  V30 9281 H 860.474 -1.29026 -3.66449 0
M  V30 9282 H 862.146 -3.72402 -2.72239 0
M  V30 9283 H 860.389 -3.54253 -2.50374 0
M  V30 9284 H 861.06 -3.65862 -4.13339 0
M  V30 9285 H 863.536 -1.76685 -3.76725 0
M  V30 9286 H 862.412 -1.92101 -5.14187 0
M  V30 9287 H 862.673 -0.346884 -4.40737 0
M  V30 9288 N 861.732 1.21287 -1.00634 0
M  V30 9289 C 862.665 2.22366 -0.512687 0
M  V30 9290 C 863.643 1.56692 0.434332 0
M  V30 9291 O 864.827 1.85094 0.35674 0
M  V30 9292 C 861.954 3.37738 0.255139 0
M  V30 9293 C 861 4.21673 -0.639883 0
M  V30 9294 S 861.833 4.92474 -2.10308 0
M  V30 9295 C 862.989 6.11275 -1.34512 0
M  V30 9296 H 863.222 2.63896 -1.36918 0
M  V30 9297 H 860.755 1.31176 -0.814387 0
M  V30 9298 H 862.713 4.04624 0.692067 0
M  V30 9299 H 861.374 2.94689 1.08707 0
M  V30 9300 H 860.567 5.03977 -0.0483821 0
M  V30 9301 H 860.169 3.59988 -1.01414 0
M  V30 9302 H 862.461 6.7466 -0.619721 0
M  V30 9303 H 863.404 6.74864 -2.14393 0
M  V30 9304 H 863.812 5.58026 -0.852506 0
M  V30 9305 N 863.21 0.781244 1.36873 0
M  V30 9306 C 864.456 0.350407 1.9975 0
M  V30 9307 C 864.789 -1.07293 1.6187 0
M  V30 9308 O 864.064 -1.73983 0.869491 0
M  V30 9309 C 864.347 0.504834 3.56544 0
M  V30 9310 C 864.2 1.97127 4.04303 0
M  V30 9311 C 865.519 -0.0851272 4.40018 0
M  V30 9312 H 862.638 0.128794 0.725659 0
M  V30 9313 H 865.28 0.98606 1.6241 0
M  V30 9314 H 863.43 -0.0363006 3.88483 0
M  V30 9315 H 865.102 2.57284 3.82887 0
M  V30 9316 H 863.345 2.47676 3.56145 0
M  V30 9317 H 864.016 2.03033 5.13305 0
M  V30 9318 H 866.492 0.376704 4.14391 0
M  V30 9319 H 865.368 0.0530015 5.48874 0
M  V30 9320 H 865.629 -1.17642 4.2616 0
M  V30 9321 N 864.689 -1.48329 0.532571 0
M  V30 9322 C 865.599 -2.33445 -0.232546 0
M  V30 9323 C 866.615 -1.46651 -0.93645 0
M  V30 9324 O 867.791 -1.79627 -0.910834 0
M  V30 9325 C 864.856 -3.22824 -1.26434 0
M  V30 9326 C 863.917 -4.25492 -0.570511 0
M  V30 9327 C 863.15 -5.10601 -1.55315 0
M  V30 9328 O 863.373 -4.97733 -2.78599 0
M  V30 9329 O 862.307 -5.91927 -1.09112 0
M  V30 9330 H 866.133 -3.00119 0.464988 0
M  V30 9331 H 863.718 -1.46489 0.293462 0
M  V30 9332 H 865.6 -3.78103 -1.86055 0
M  V30 9333 H 864.275 -2.58807 -1.94424 0
M  V30 9334 H 863.182 -3.74041 0.0662587 0
M  V30 9335 H 864.515 -4.92154 0.0674904 0
M  V30 9336 N 866.167 -0.267825 -1.55308 0
M  V30 9337 C 867.115 0.638848 -2.23655 0
M  V30 9338 C 868.109 1.16363 -1.2311 0
M  V30 9339 O 869.315 1.1181 -1.41062 0
M  V30 9340 H 865.69 0.224551 -0.717691 0
M  V30 9341 H 867.661 0.0394809 -2.98374 0
M  V30 9342 C 866.41 1.8151 -2.96562 0
M  V30 9343 H 865.733 1.42048 -3.73715 0
M  V30 9344 H 867.173 2.42629 -3.47717 0
M  V30 9345 C 865.632 2.69911 -2.01618 0
M  V30 9346 O 866.162 3.70058 -1.56268 0
M  V30 9347 N 864.368 2.36924 -1.68272 0
M  V30 9348 H 863.915 1.55533 -2.05347 0
M  V30 9349 H 863.873 2.96343 -1.05016 0
M  V30 9350 N 867.645 1.57599 0.00500368 0
M  V30 9351 C 868.893 1.89973 0.68953 0
M  V30 9352 C 869.214 0.868531 1.7459 0
M  V30 9353 O 868.484 -0.0947367 1.95671 0
M  V30 9354 H 867.064 0.701153 0.25767 0
M  V30 9355 H 869.726 1.94869 -0.0347392 0
M  V30 9356 H 868.822 2.89584 1.16394 0
M  V30 9357 N 869.123 -0.277682 1.55134 0
M  V30 9358 C 870.033 -1.36524 1.90783 0
M  V30 9359 C 871.049 -1.54283 0.804542 0
M  V30 9360 O 872.225 -1.68499 1.10318 0
M  V30 9361 C 869.29 -2.70524 2.16835 0
M  V30 9362 C 868.351 -2.61552 3.40424 0
M  V30 9363 C 867.584 -3.89162 3.65224 0
M  V30 9364 O 867.807 -4.89624 2.92616 0
M  V30 9365 O 866.741 -3.89647 4.58758 0
M  V30 9366 H 870.567 -1.0929 2.83354 0
M  V30 9367 H 868.152 -0.475799 1.41621 0
M  V30 9368 H 870.034 -3.49765 2.35038 0
M  V30 9369 H 868.709 -2.97555 1.27448 0
M  V30 9370 H 867.616 -1.80704 3.27562 0
M  V30 9371 H 868.949 -2.39472 4.30016 0
M  V30 9372 N 870.601 -1.47988 -0.541979 0
M  V30 9373 C 871.826 -1.59286 -1.32826 0
M  V30 9374 C 872.251 -0.24894 -1.86445 0
M  V30 9375 O 871.609 0.777581 -1.63778 0
M  V30 9376 C 871.657 -2.6334 -2.46343 0
M  V30 9377 O 870.761 -2.19667 -3.49028 0
M  V30 9378 H 870.102 -0.534543 -0.393903 0
M  V30 9379 H 872.632 -1.93885 -0.653427 0
M  V30 9380 H 872.642 -2.84238 -2.92699 0
M  V30 9381 H 871.317 -3.60913 -2.06675 0
M  V30 9382 H 869.894 -2.08932 -3.08872 0
M  V30 9383 N 872.079 0.78992 -1.36375 0
M  V30 9384 C 873.327 1.54472 -1.30319 0
M  V30 9385 C 873.648 1.94647 0.117338 0
M  V30 9386 O 872.918 1.64906 1.05748 0
M  V30 9387 H 871.498 0.572879 -0.479394 0
M  V30 9388 H 874.16 0.941245 -1.70665 0
M  V30 9389 H 873.256 2.45252 -1.93024 0
M  V30 9390 N 873.557 1.20646 1.01402 0
M  V30 9391 C 874.782 1.04462 1.79172 0
M  V30 9392 C 875.207 -0.401588 1.83763 0
M  V30 9393 O 874.565 -1.28934 1.27459 0
M  V30 9394 C 874.613 1.63583 3.21361 0
M  V30 9395 O 873.717 0.875198 4.03006 0
M  V30 9396 H 873.058 0.368235 0.552539 0
M  V30 9397 H 875.588 1.59994 1.27526 0
M  V30 9398 H 875.598 1.67426 3.72065 0
M  V30 9399 H 874.273 2.68835 3.17334 0
M  V30 9400 H 872.85 0.911172 3.61597 0
M  V30 9401 N 875.035 -1.20752 1.01276 0
M  V30 9402 C 876.283 -1.89645 0.698505 0
M  V30 9403 C 876.604 -1.78986 -0.773883 0
M  V30 9404 O 875.874 -1.18977 -1.55632 0
M  V30 9405 H 874.454 -0.701992 0.255375 0
M  V30 9406 H 877.116 -1.46668 1.28353 0
M  V30 9407 H 876.212 -2.96364 0.978512 0
M  V30 9408 N 876.513 -0.788492 -1.36457 0
M  V30 9409 C 877.759 -0.360995 -1.99561 0
M  V30 9410 C 878.092 1.06433 -1.62437 0
M  V30 9411 O 877.367 1.7352 -0.878705 0
M  V30 9412 C 877.65 -0.523735 -3.56271 0
M  V30 9413 C 877.503 -1.99268 -4.03252 0
M  V30 9414 C 878.822 0.0617908 -4.40057 0
M  V30 9415 H 875.941 -0.13264 -0.724966 0
M  V30 9416 H 878.583 -0.994659 -1.61884 0
M  V30 9417 H 876.733 0.0156979 -3.88497 0
M  V30 9418 H 878.405 -2.59311 -3.81518 0
M  V30 9419 H 876.648 -2.49561 -3.54826 0
M  V30 9420 H 877.319 -2.05752 -5.12221 0
M  V30 9421 H 879.795 -0.398674 -4.14186 0
M  V30 9422 H 878.671 -0.0821089 -5.48839 0
M  V30 9423 H 878.932 1.15381 -4.26778 0
M  V30 9424 N 877.991 1.48044 -0.54043 0
M  V30 9425 C 878.954 2.28273 0.205966 0
M  V30 9426 C 879.954 1.35983 0.858209 0
M  V30 9427 O 881.144 1.58776 0.716651 0
M  V30 9428 C 878.276 3.15174 1.29917 0
M  V30 9429 H 879.469 2.95727 -0.498555 0
M  V30 9430 H 877.022 1.53457 -0.296745 0
M  V30 9431 H 877.757 2.52374 2.03661 0
M  V30 9432 H 877.542 3.83074 0.836475 0
M  V30 9433 H 879.032 3.75666 1.82387 0
M  V30 9434 N 879.47 0.276058 1.55163 0
M  V30 9435 C 880.433 -0.597924 2.21263 0
M  V30 9436 C 881.433 -1.0806 1.19078 0
M  V30 9437 O 882.623 -0.980626 1.43977 0
M  V30 9438 C 879.755 -1.82503 2.87933 0
M  V30 9439 H 880.948 -0.0207769 2.99893 0
M  V30 9440 H 878.501 0.0266823 1.56277 0
M  V30 9441 H 879.236 -2.44266 2.13318 0
M  V30 9442 H 879.021 -1.48683 3.62816 0
M  V30 9443 H 880.511 -2.44651 3.38431 0
M  V30 9444 N 880.948 -1.576 0.00335426 0
M  V30 9445 C 882.359 -1.7875 -0.539008 0
M  V30 9446 C 882.71 -0.911097 -1.73763 0
M  V30 9447 O 881.835 -0.114476 -2.16097 0
M  V30 9448 C 882.43 -3.24177 -0.984611 0
M  V30 9449 C 880.989 -3.46412 -1.47226 0
M  V30 9450 C 880.136 -2.74024 -0.425004 0
M  V30 9451 H 883.087 -1.57032 0.229511 0
M  V30 9452 H 883.108 -3.32474 -1.85044 0
M  V30 9453 H 882.62 -3.87938 -0.112035 0
M  V30 9454 H 880.721 -2.8787 -2.36562 0
M  V30 9455 H 880.834 -4.55098 -1.49741 0
M  V30 9456 H 879.198 -2.38741 -0.887394 0
M  V30 9457 H 879.981 -3.40486 0.438662 0
M  V30 9458 N 882.426 0.269451 -1.5528 0
M  V30 9459 C 883.672 1.00206 -1.76314 0
M  V30 9460 C 884.005 1.85812 -0.564581 0
M  V30 9461 O 883.28 1.89509 0.437769 0
M  V30 9462 C 883.563 1.88163 -3.07029 0
M  V30 9463 C 883.416 1.05527 -4.37246 0
M  V30 9464 C 884.735 2.8681 -3.33808 0
M  V30 9465 H 881.854 0.36288 -0.641473 0
M  V30 9466 H 884.496 0.274188 -1.88011 0
M  V30 9467 H 882.646 2.50224 -2.97187 0
M  V30 9468 H 884.318 0.455094 -4.5905 0
M  V30 9469 H 882.561 0.358842 -4.32313 0
M  V30 9470 H 883.232 1.70397 -5.25042 0
M  V30 9471 H 885.708 2.34884 -3.43466 0
M  V30 9472 H 884.584 3.45492 -4.26528 0
M  V30 9473 H 884.845 3.62118 -2.5362 0
M  V30 9474 N 883.904 1.48273 0.534124 0
M  V30 9475 C 885.15 1.56311 1.29208 0
M  V30 9476 C 885.483 0.234481 1.92779 0
M  V30 9477 O 884.758 -0.759143 1.79073 0
M  V30 9478 C 885.041 2.69831 2.3846 0
M  V30 9479 C 884.894 4.12385 1.79608 0
M  V30 9480 C 886.213 2.79133 3.40254 0
M  V30 9481 H 883.332 0.56899 0.468422 0
M  V30 9482 H 885.974 1.80429 0.595438 0
M  V30 9483 H 884.124 2.49397 2.97881 0
M  V30 9484 H 885.796 4.44246 1.24269 0
M  V30 9485 H 884.039 4.19579 1.10162 0
M  V30 9486 H 884.71 4.87629 2.58693 0
M  V30 9487 H 887.186 2.97632 2.90783 0
M  V30 9488 H 886.062 3.60298 4.14097 0
M  V30 9489 H 886.323 1.87122 4.00547 0
M  V30 9490 N 885.382 -0.782676 1.36792 0
M  V30 9491 C 886.329 -1.89558 1.31667 0
M  V30 9492 C 887.299 -1.65076 0.184147 0
M  V30 9493 O 888.484 -1.87143 0.371753 0
M  V30 9494 C 885.624 -3.26469 1.11858 0
M  V30 9495 C 884.737 -3.62978 2.34245 0
M  V30 9496 C 883.872 -4.89041 2.07394 0
M  V30 9497 C 882.911 -5.18249 3.25706 0
M  V30 9498 N 882.048 -6.35497 2.98476 0
M  V30 9499 H 886.888 -1.93274 2.26824 0
M  V30 9500 H 884.425 -0.945057 1.12726 0
M  V30 9501 H 886.383 -4.05431 0.983968 0
M  V30 9502 H 885.013 -3.22158 0.203531 0
M  V30 9503 H 884.065 -2.79087 2.58485 0
M  V30 9504 H 885.377 -3.80507 3.22514 0
M  V30 9505 H 884.531 -5.75883 1.90901 0
M  V30 9506 H 883.27 -4.73594 1.16446 0
M  V30 9507 H 882.275 -4.29887 3.4275 0
M  V30 9508 H 883.5 -5.35611 4.1749 0
M  V30 9509 H 881.446 -6.21429 2.10146 0
M  V30 9510 H 881.363 -6.5339 3.80286 0
M  V30 9511 H 882.631 -7.25304 2.85577 0
M  V30 9512 N 886.86 -1.21182 -1.00761 0
M  V30 9513 C 887.792 -0.926523 -2.09638 0
M  V30 9514 C 888.805 0.0892511 -1.62555 0
M  V30 9515 O 889.994 -0.142915 -1.77927 0
M  V30 9516 C 887.094 -0.369175 -3.36883 0
M  V30 9517 C 886.267 -1.43866 -4.13063 0
M  V30 9518 C 885.326 -0.891015 -5.18601 0
M  V30 9519 O 884.352 -1.57384 -5.47009 0
M  V30 9520 N 885.554 0.295057 -5.7975 0
M  V30 9521 H 888.319 -1.8638 -2.34697 0
M  V30 9522 H 885.88 -1.11671 -1.17223 0
M  V30 9523 H 887.872 0.011534 -4.04698 0
M  V30 9524 H 886.442 0.472861 -3.09003 0
M  V30 9525 H 885.662 -1.99332 -3.40089 0
M  V30 9526 H 886.95 -2.15866 -4.60738 0
M  V30 9527 H 886.348 0.8669 -5.59018 0
M  V30 9528 H 884.905 0.617306 -6.4887 0
M  V30 9529 N 888.338 1.20213 -1.01915 0
M  V30 9530 C 889.584 1.89928 -0.711007 0
M  V30 9531 C 889.917 1.7881 0.75767 0
M  V30 9532 O 889.192 1.17399 1.55073 0
M  V30 9533 C 889.475 3.41225 -1.15053 0
M  V30 9534 C 889.328 3.61264 -2.67971 0
M  V30 9535 C 890.647 4.34108 -0.72377 0
M  V30 9536 H 887.766 0.689702 -0.259768 0
M  V30 9537 H 890.408 1.41557 -1.26734 0
M  V30 9538 H 888.558 3.82552 -0.677199 0
M  V30 9539 H 890.23 3.29173 -3.23176 0
M  V30 9540 H 888.473 3.04647 -3.08824 0
M  V30 9541 H 889.144 4.67331 -2.93779 0
M  V30 9542 H 891.62 4.00442 -1.13073 0
M  V30 9543 H 890.496 5.38581 -1.05931 0
M  V30 9544 H 890.757 4.40512 0.374424 0
M  V30 9545 N 889.816 0.795718 1.36037 0
M  V30 9546 C 890.749 0.144269 2.27744 0
M  V30 9547 C 891.727 -0.683351 1.47543 0
M  V30 9548 O 892.911 -0.652976 1.76829 0
M  V30 9549 C 890.038 -0.800944 3.29094 0
M  V30 9550 C 889.084 -0.0543234 4.26465 0
M  V30 9551 S 889.917 1.27426 5.20118 0
M  V30 9552 C 891.073 0.333213 6.25012 0
M  V30 9553 H 891.306 0.921827 2.82648 0
M  V30 9554 H 888.839 0.590241 1.42673 0
M  V30 9555 H 890.797 -1.34082 3.87985 0
M  V30 9556 H 889.458 -1.5518 2.7309 0
M  V30 9557 H 888.651 -0.771788 4.98056 0
M  V30 9558 H 888.253 0.415264 3.71687 0
M  V30 9559 H 890.545 -0.485604 6.75757 0
M  V30 9560 H 891.488 1.01798 7.00744 0
M  V30 9561 H 891.896 -0.066256 5.64461 0
M  V30 9562 N 891.294 -1.47756 0.548274 0
M  V30 9563 C 892.571 -1.9555 -0.0443603 0
M  V30 9564 C 892.951 -1.49079 -1.49462 0
M  V30 9565 O 892.299 -0.725538 -2.16675 0
M  V30 9566 C 892.509 -3.48879 0.0918425 0
M  V30 9567 C 893.857 -4.2456 -0.0580879 0
M  V30 9568 O 894.881 -3.56195 0.018946 0
M  V30 9569 O 893.74 -5.46048 -0.222261 0
M  V30 9570 H 890.834 -0.824106 -0.0691235 0
M  V30 9571 H 893.38 -1.58196 0.614166 0
M  V30 9572 H 892.152 -3.7548 1.10137 0
M  V30 9573 H 891.775 -3.92975 -0.604704 0
M  V30 9574 N 892.772 -0.284283 -1.55015 0
M  V30 9575 C 893.735 0.586182 -2.21577 0
M  V30 9576 C 894.735 1.07427 -1.1965 0
M  V30 9577 O 895.925 0.972977 -1.44495 0
M  V30 9578 C 893.057 1.80973 -2.88897 0
M  V30 9579 H 894.25 0.00487253 -2.999 0
M  V30 9580 H 891.803 -0.0349696 -1.56261 0
M  V30 9581 H 892.538 2.43131 -2.14611 0
M  V30 9582 H 892.323 1.46757 -3.636 0
M  V30 9583 H 893.813 2.42853 -3.39724 0
M  V30 9584 N 894.251 1.57596 -0.0117121 0
M  V30 9585 C 895.497 1.92189 0.665966 0
M  V30 9586 C 895.852 0.887145 1.70726 0
M  V30 9587 O 895.145 -0.099151 1.91343 0
M  V30 9588 C 895.339 3.31296 1.34082 0
M  V30 9589 C 895.168 4.48205 0.366406 0
M  V30 9590 C 893.938 5.05293 -0.0274458 0
M  V30 9591 C 896.136 5.12951 -0.37219 0
M  V30 9592 N 894.118 6.0572 -0.998846 0
M  V30 9593 C 895.489 6.08318 -1.1979 0
M  V30 9594 C 897.544 4.95998 -0.434768 0
M  V30 9595 C 896.247 6.88555 -2.0805 0
M  V30 9596 C 898.273 5.7683 -1.30464 0
M  V30 9597 C 897.635 6.71798 -2.11816 0
M  V30 9598 H 893.734 0.751422 0.216537 0
M  V30 9599 H 896.318 1.94556 -0.0748079 0
M  V30 9600 H 894.489 3.2978 2.05182 0
M  V30 9601 H 896.221 3.53285 1.97413 0
M  V30 9602 H 892.976 4.72354 0.343382 0
M  V30 9603 H 893.4 6.60619 -1.48027 0
M  V30 9604 H 898.042 4.22417 0.179925 0
M  V30 9605 H 895.76 7.61453 -2.70581 0
M  V30 9606 H 899.346 5.6575 -1.35712 0
M  V30 9607 H 898.226 7.33256 -2.78037 0
M  V30 9608 N 895.729 -0.261212 1.5542 0
M  V30 9609 C 896.659 -1.32712 1.92119 0
M  V30 9610 C 897.64 -1.50934 0.784406 0
M  V30 9611 O 898.825 -1.63781 1.04352 0
M  V30 9612 C 895.955 -2.68453 2.20341 0
M  V30 9613 C 894.909 -2.64947 3.36136 0
M  V30 9614 C 894.235 -4.04349 3.49865 0
M  V30 9615 C 895.535 -2.23182 4.72215 0
M  V30 9616 H 897.229 -1.02245 2.81401 0
M  V30 9617 H 894.775 -0.490406 1.35392 0
M  V30 9618 H 896.728 -3.43144 2.44603 0
M  V30 9619 H 895.452 -3.00527 1.27871 0
M  V30 9620 H 894.111 -1.92714 3.11861 0
M  V30 9621 H 893.759 -4.33665 2.5484 0
M  V30 9622 H 893.459 -4.02895 4.27726 0
M  V30 9623 H 894.983 -4.80761 3.76432 0
M  V30 9624 H 896.397 -2.87599 4.95943 0
M  V30 9625 H 894.794 -2.32867 5.53076 0
M  V30 9626 H 895.864 -1.18327 4.70241 0
M  V30 9627 N 897.207 -1.48554 -0.526253 0
M  V30 9628 C 898.137 -1.66252 -1.63959 0
M  V30 9629 C 899.118 -0.511351 -1.62232 0
M  V30 9630 O 900.303 -0.744322 -1.7937 0
M  V30 9631 C 897.433 -1.70556 -3.02536 0
M  V30 9632 C 896.387 -2.8521 -3.19123 0
M  V30 9633 C 895.713 -2.74606 -4.58798 0
M  V30 9634 C 897.013 -4.26463 -3.0154 0
M  V30 9635 H 898.707 -2.59459 -1.49404 0
M  V30 9636 H 896.253 -1.24862 -0.717326 0
M  V30 9637 H 898.206 -1.81524 -3.80298 0
M  V30 9638 H 896.93 -0.739297 -3.18123 0
M  V30 9639 H 895.589 -2.73802 -2.43779 0
M  V30 9640 H 895.237 -1.75941 -4.71226 0
M  V30 9641 H 894.937 -3.51544 -4.70841 0
M  V30 9642 H 896.461 -2.87548 -5.38655 0
M  V30 9643 H 897.875 -4.38685 -3.69091 0
M  V30 9644 H 896.272 -5.04428 -3.25073 0
M  V30 9645 H 897.342 -4.42667 -1.97925 0
M  V30 9646 N 898.685 0.775411 -1.37205 0
M  V30 9647 C 899.962 1.5229 -1.22748 0
M  V30 9648 C 900.342 2.10327 0.180487 0
M  V30 9649 O 899.69 1.95206 1.18772 0
M  V30 9650 C 899.9 2.60671 -2.3206 0
M  V30 9651 C 901.248 3.28173 -2.6942 0
M  V30 9652 O 902.272 2.70963 -2.31208 0
M  V30 9653 O 901.131 4.31598 -3.3524 0
M  V30 9654 H 898.225 0.674326 -0.478762 0
M  V30 9655 H 900.771 0.812691 -1.48975 0
M  V30 9656 H 899.543 2.1588 -3.26361 0
M  V30 9657 H 899.166 3.39296 -2.07277 0
M  V30 9658 N 900.163 1.21714 1.00117 0
M  V30 9659 C 901.073 0.99597 2.12409 0
M  V30 9660 C 902.089 -0.0531431 1.73919 0
M  V30 9661 O 903.265 0.137757 2.00928 0
M  V30 9662 C 900.33 0.567593 3.42022 0
M  V30 9663 C 899.391 1.68936 3.94663 0
M  V30 9664 C 898.624 1.28133 5.1809 0
M  V30 9665 O 898.847 0.156574 5.70185 0
M  V30 9666 O 897.781 2.0947 5.64275 0
M  V30 9667 H 901.607 1.93657 2.33946 0
M  V30 9668 H 899.192 1.00236 1.10784 0
M  V30 9669 H 901.074 0.338664 4.20037 0
M  V30 9670 H 899.749 -0.34424 3.21864 0
M  V30 9671 H 898.656 1.97274 3.17858 0
M  V30 9672 H 899.989 2.57876 4.19238 0
M  V30 9673 N 901.641 -1.19671 1.02551 0
M  V30 9674 C 902.591 -2.20655 0.574037 0
M  V30 9675 C 903.575 -1.56459 -0.375412 0
M  V30 9676 O 904.767 -1.75901 -0.196929 0
M  V30 9677 C 901.896 -3.43213 -0.0772031 0
M  V30 9678 C 900.982 -4.1456 0.894485 0
M  V30 9679 N 901.373 -4.62147 2.05557 0
M  V30 9680 C 899.671 -4.40196 0.717205 0
M  V30 9681 C 900.372 -5.16899 2.66814 0
M  V30 9682 N 899.348 -5.07496 1.94804 0
M  V30 9683 H 903.15 -2.55124 1.45908 0
M  V30 9684 H 900.664 -1.35707 0.89204 0
M  V30 9685 H 902.661 -4.14797 -0.41824 0
M  V30 9686 H 901.321 -3.10247 -0.957973 0
M  V30 9687 H 902.332 -4.5708 2.43513 0
M  V30 9688 H 899.009 -4.17342 -0.114758 0
M  V30 9689 H 900.399 -5.64032 3.65126 0
M  V30 9690 N 903.119 -0.802921 -1.35613 0
M  V30 9691 C 904.367 -0.380822 -1.9848 0
M  V30 9692 C 904.688 1.05464 -1.6402 0
M  V30 9693 O 903.958 1.72908 -0.920854 0
M  V30 9694 H 902.538 -0.137824 -0.734176 0
M  V30 9695 H 905.2 -1.02795 -1.65587 0
M  V30 9696 H 904.296 -0.483565 -3.08331 0
M  V30 9697 N 904.597 1.47463 -0.556102 0
M  V30 9698 C 905.544 2.29998 0.192213 0
M  V30 9699 C 906.514 1.38993 0.909403 0
M  V30 9700 O 907.699 1.67954 0.905316 0
M  V30 9701 C 904.839 3.22932 1.21692 0
M  V30 9702 C 903.952 4.29027 0.505908 0
M  V30 9703 C 903.087 5.09114 1.51581 0
M  V30 9704 C 902.126 6.06984 0.789714 0
M  V30 9705 N 901.263 6.80033 1.74639 0
M  V30 9706 H 906.103 2.93468 -0.517734 0
M  V30 9707 H 903.64 1.44654 -0.267147 0
M  V30 9708 H 905.598 3.75234 1.8236 0
M  V30 9709 H 904.228 2.61329 1.89491 0
M  V30 9710 H 903.28 3.7979 -0.215276 0
M  V30 9711 H 904.592 4.9876 -0.062958 0
M  V30 9712 H 903.746 5.6556 2.19606 0
M  V30 9713 H 902.485 4.3928 2.11859 0
M  V30 9714 H 901.49 5.49717 0.0955382 0
M  V30 9715 H 902.715 6.78827 0.192688 0
M  V30 9716 H 900.661 6.12931 2.33777 0
M  V30 9717 H 900.578 7.45933 1.22965 0
M  V30 9718 H 901.846 7.41054 2.41782 0
M  V30 9719 N 906.075 0.2925 1.54862 0
M  V30 9720 C 907.005 -0.580677 2.26165 0
M  V30 9721 C 907.986 -1.14485 1.25806 0
M  V30 9722 O 909.171 -1.17577 1.54562 0
M  V30 9723 C 906.301 -1.75668 2.99596 0
M  V30 9724 C 905.255 -1.32325 4.07031 0
M  V30 9725 C 904.581 -2.58374 4.68131 0
M  V30 9726 C 905.881 -0.460703 5.20264 0
M  V30 9727 H 907.575 0.0140075 2.99397 0
M  V30 9728 H 905.121 0.00817706 1.43998 0
M  V30 9729 H 907.074 -2.37356 3.48195 0
M  V30 9730 H 905.798 -2.37747 2.23928 0
M  V30 9731 H 904.457 -0.729477 3.59269 0
M  V30 9732 H 904.105 -3.18749 3.89112 0
M  V30 9733 H 903.805 -2.30078 5.40683 0
M  V30 9734 H 905.329 -3.2088 5.19489 0
M  V30 9735 H 906.743 -0.983037 5.64809 0
M  V30 9736 H 905.14 -0.271881 5.99484 0
M  V30 9737 H 906.21 0.516304 4.82143 0
M  V30 9738 N 907.553 -1.57587 0.0200696 0
M  V30 9739 C 908.5 -2.09667 -0.964791 0
M  V30 9740 C 909.47 -0.99664 -1.32877 0
M  V30 9741 O 910.655 -1.2703 -1.42366 0
M  V30 9742 C 907.795 -2.62101 -2.24493 0
M  V30 9743 C 906.908 -3.8608 -1.93821 0
M  V30 9744 C 906.043 -4.26939 -3.16064 0
M  V30 9745 C 905.082 -5.43701 -2.81169 0
M  V30 9746 N 904.219 -5.79759 -3.9601 0
M  V30 9747 H 909.059 -2.93538 -0.513751 0
M  V30 9748 H 906.596 -1.45096 -0.242 0
M  V30 9749 H 908.554 -2.90587 -2.99358 0
M  V30 9750 H 907.184 -1.81074 -2.6723 0
M  V30 9751 H 906.236 -3.64378 -1.09237 0
M  V30 9752 H 907.548 -4.71028 -1.64115 0
M  V30 9753 H 906.702 -4.56814 -3.99257 0
M  V30 9754 H 905.441 -3.40739 -3.48924 0
M  V30 9755 H 904.446 -5.13529 -1.96387 0
M  V30 9756 H 905.671 -6.31593 -2.49535 0
M  V30 9757 H 903.617 -4.96516 -4.28729 0
M  V30 9758 H 903.534 -6.59327 -3.69896 0
M  V30 9759 H 904.802 -6.14235 -4.79933 0
M  V30 9760 N 909.032 0.252966 -1.55557 0
M  V30 9761 C 909.995 1.29645 -1.8901 0
M  V30 9762 C 910.995 1.41378 -0.766096 0
M  V30 9763 O 912.185 1.40183 -1.03414 0
M  V30 9764 C 909.317 2.67504 -2.11316 0
M  V30 9765 H 910.51 1.01202 -2.82309 0
M  V30 9766 H 908.063 0.491977 -1.48355 0
M  V30 9767 H 908.798 3.01095 -1.20466 0
M  V30 9768 H 908.583 2.6037 -2.93172 0
M  V30 9769 H 910.073 3.42861 -2.38403 0
M  V30 9770 N 910.51 1.48831 0.518367 0
M  V30 9771 C 911.42 1.6692 1.64848 0
M  V30 9772 C 912.436 0.551711 1.65022 0
M  V30 9773 O 913.612 0.824251 1.83761 0
M  V30 9774 C 910.677 1.71559 3.01278 0
M  V30 9775 C 909.738 2.9502 3.11868 0
M  V30 9776 C 908.971 2.99428 4.4179 0
M  V30 9777 O 909.194 2.11914 5.29574 0
M  V30 9778 O 908.128 3.91719 4.5699 0
M  V30 9779 H 911.954 2.62623 1.52521 0
M  V30 9780 H 909.539 1.32368 0.692749 0
M  V30 9781 H 911.421 1.77064 3.82396 0
M  V30 9782 H 910.096 0.790316 3.13904 0
M  V30 9783 H 909.003 2.95042 2.30003 0
M  V30 9784 H 910.336 3.8697 3.04163 0
M  V30 9785 N 911.988 -0.768124 1.37614 0
M  V30 9786 C 913.218 -1.555 1.36027 0
M  V30 9787 C 913.626 -1.89119 -0.0554273 0
M  V30 9788 O 912.969 -1.52203 -1.02859 0
M  V30 9789 C 913.031 -2.8906 2.13739 0
M  V30 9790 C 912.695 -2.78058 3.62674 0
M  V30 9791 C 913.692 -2.48841 4.5648 0
M  V30 9792 C 911.377 -2.95966 4.05844 0
M  V30 9793 C 913.371 -2.37665 5.91434 0
M  V30 9794 C 911.058 -2.84411 5.40882 0
M  V30 9795 C 912.056 -2.55301 6.33491 0
M  V30 9796 O 911.744 -2.43779 7.66046 0
M  V30 9797 H 911.476 -0.488263 0.467521 0
M  V30 9798 H 914.03 -0.959583 1.81607 0
M  V30 9799 H 912.26 -3.50735 1.62854 0
M  V30 9800 H 913.949 -3.5048 2.04741 0
M  V30 9801 H 914.715 -2.34687 4.24437 0
M  V30 9802 H 910.594 -3.17625 3.34119 0
M  V30 9803 H 914.138 -2.14865 6.63686 0
M  V30 9804 H 910.035 -2.98134 5.72527 0
M  V30 9805 H 910.803 -2.59101 7.76408 0
M  V30 9806 N 913.466 -1.22244 -0.994698 0
M  V30 9807 C 914.429 -0.992308 -2.06606 0
M  V30 9808 C 915.429 0.0405872 -1.60749 0
M  V30 9809 O 916.619 -0.197737 -1.73074 0
M  V30 9810 C 913.751 -0.498499 -3.37236 0
M  V30 9811 H 914.944 -1.9429 -2.28455 0
M  V30 9812 H 912.497 -1.04087 -1.166 0
M  V30 9813 H 913.232 0.456531 -3.21071 0
M  V30 9814 H 913.017 -1.24367 -3.71854 0
M  V30 9815 H 914.507 -0.35768 -4.16065 0
M  V30 9816 N 914.944 1.19125 -1.03184 0
M  V30 9817 C 915.854 2.26112 -0.625329 0
M  V30 9818 C 916.87 1.7056 0.344298 0
M  V30 9819 O 918.046 2.0039 0.20144 0
M  V30 9820 C 915.111 3.46697 0.0145169 0
M  V30 9821 C 914.172 4.17419 -1.00299 0
M  V30 9822 C 913.405 5.32247 -0.393581 0
M  V30 9823 O 913.628 5.64724 0.802659 0
M  V30 9824 O 912.562 5.91428 -1.1179 0
M  V30 9825 H 916.388 2.63131 -1.51643 0
M  V30 9826 H 913.973 1.26036 -0.802197 0
M  V30 9827 H 915.855 4.19762 0.371139 0
M  V30 9828 H 914.53 3.11521 0.879581 0
M  V30 9829 H 913.437 3.4646 -1.41125 0
M  V30 9830 H 914.77 4.56573 -1.83852 0
M  V30 9831 N 916.422 0.810101 1.35185 0
M  V30 9832 C 917.833 0.452616 1.81131 0
M  V30 9833 C 918.184 -1.02573 1.67252 0
M  V30 9834 O 917.309 -1.79735 1.20516 0
M  V30 9835 C 917.904 0.814775 3.28857 0
M  V30 9836 C 916.463 0.509839 3.72931 0
M  V30 9837 C 915.61 1.03852 2.57119 0
M  V30 9838 H 918.561 1.00143 1.23114 0
M  V30 9839 H 918.582 0.113635 3.8033 0
M  V30 9840 H 918.094 1.89078 3.38926 0
M  V30 9841 H 916.195 -0.557289 3.68409 0
M  V30 9842 H 916.308 1.04493 4.67566 0
M  V30 9843 H 914.672 0.460671 2.50499 0
M  V30 9844 H 915.455 2.12071 2.69964 0
M  V30 9845 N 917.9 -1.47166 0.563914 0
M  V30 9846 C 919.146 -2.02756 0.0424338 0
M  V30 9847 C 919.479 -1.43662 -1.3067 0
M  V30 9848 O 918.754 -0.594676 -1.85186 0
M  V30 9849 C 919.037 -3.60074 -0.0434793 0
M  V30 9850 C 918.89 -4.29587 1.33323 0
M  V30 9851 C 920.209 -4.336 -0.753568 0
M  V30 9852 H 917.328 -0.736806 0.0168946 0
M  V30 9853 H 919.97 -1.75521 0.727496 0
M  V30 9854 H 918.12 -3.83409 -0.626906 0
M  V30 9855 H 919.792 -4.17573 1.96037 0
M  V30 9856 H 918.035 -3.8968 1.9061 0
M  V30 9857 H 918.706 -5.38218 1.22576 0
M  V30 9858 H 921.182 -4.15299 -0.258126 0
M  V30 9859 H 920.058 -5.43291 -0.782659 0
M  V30 9860 H 920.319 -4.03302 -1.81108 0
M  V30 9861 N 919.378 -0.300708 -1.54705 0
M  V30 9862 C 920.341 0.562648 -2.22187 0
M  V30 9863 C 921.341 1.06152 -1.20782 0
M  V30 9864 O 922.531 0.957596 -1.45519 0
M  V30 9865 C 919.663 1.77899 -2.908 0
M  V30 9866 H 920.856 -0.0269361 -2.99888 0
M  V30 9867 H 918.409 -0.0515412 -1.56215 0
M  V30 9868 H 919.144 2.40841 -2.17177 0
M  V30 9869 H 918.929 1.42892 -3.65136 0
M  V30 9870 H 920.419 2.39236 -3.42281 0
M  V30 9871 N 920.856 1.57574 -0.0284266 0
M  V30 9872 C 922.267 1.79585 0.510502 0
M  V30 9873 C 922.618 0.938625 1.72291 0
M  V30 9874 O 921.743 0.14884 2.15888 0
M  V30 9875 C 922.338 3.25703 0.932912 0
M  V30 9876 C 920.897 3.48711 1.41696 0
M  V30 9877 C 920.044 2.74665 0.381356 0
M  V30 9878 H 922.995 1.56647 -0.254464 0
M  V30 9879 H 923.016 3.35376 1.79731 0
M  V30 9880 H 922.528 3.88067 0.0503036 0
M  V30 9881 H 920.629 2.91597 2.31952 0
M  V30 9882 H 920.742 4.57423 1.42481 0
M  V30 9883 H 919.106 2.40123 0.8493 0
M  V30 9884 H 919.889 3.39745 -0.492775 0
M  V30 9885 N 922.334 -0.244713 1.55689 0
M  V30 9886 C 923.264 -1.30667 1.93516 0
M  V30 9887 C 924.245 -1.50094 0.800371 0
M  V30 9888 O 925.43 -1.62665 1.06083 0
M  V30 9889 C 922.56 -2.66101 2.23176 0
M  V30 9890 C 921.514 -2.61366 3.38927 0
M  V30 9891 C 920.84 -4.00616 3.54134 0
M  V30 9892 C 922.14 -2.18161 4.74555 0
M  V30 9893 H 923.834 -0.992546 2.82469 0
M  V30 9894 H 921.38 -0.476018 1.35905 0
M  V30 9895 H 923.333 -3.4053 2.48228 0
M  V30 9896 H 922.057 -2.99154 1.31051 0
M  V30 9897 H 920.716 -1.89395 3.13887 0
M  V30 9898 H 920.364 -4.30938 2.59426 0
M  V30 9899 H 920.064 -3.98335 4.31975 0
M  V30 9900 H 921.588 -4.76741 3.8151 0
M  V30 9901 H 923.002 -2.82323 4.98965 0
M  V30 9902 H 921.399 -2.26988 5.55515 0
M  V30 9903 H 922.469 -1.13333 4.7147 0
M  V30 9904 N 923.813 -1.49104 -0.510467 0
M  V30 9905 C 924.776 -1.64569 -1.59529 0
M  V30 9906 C 925.776 -0.517937 -1.5223 0
M  V30 9907 O 926.966 -0.784183 -1.55551 0
M  V30 9908 C 924.098 -1.6342 -2.99177 0
M  V30 9909 H 925.291 -2.61318 -1.4715 0
M  V30 9910 H 922.844 -1.37993 -0.734001 0
M  V30 9911 H 923.579 -0.68221 -3.17043 0
M  V30 9912 H 923.364 -2.45312 -3.05883 0
M  V30 9913 H 924.854 -1.77474 -3.78011 0
M  V30 9914 N 925.291 0.760815 -1.38019 0
M  V30 9915 C 926.254 1.85604 -1.34476 0
M  V30 9916 C 927.254 1.58897 -0.24666 0
M  V30 9917 O 928.444 1.66776 -0.50314 0
M  V30 9918 C 925.576 3.22945 -1.09176 0
M  V30 9919 H 926.769 1.90155 -2.31908 0
M  V30 9920 H 924.322 0.961746 -1.23208 0
M  V30 9921 H 925.057 3.24066 -0.123216 0
M  V30 9922 H 924.842 3.43723 -1.88672 0
M  V30 9923 H 926.332 4.03022 -1.09375 0
M  V30 9924 N 926.769 1.22769 0.988202 0
M  V30 9925 C 927.732 1.00325 2.06076 0
M  V30 9926 C 928.732 -0.0320618 1.60768 0
M  V30 9927 O 929.922 0.206912 1.72967 0
M  V30 9928 C 927.054 0.516376 3.36966 0
M  V30 9929 H 928.247 1.95499 2.27421 0
M  V30 9930 H 925.8 1.04704 1.16047 0
M  V30 9931 H 926.535 -0.439498 3.21308 0
M  V30 9932 H 926.32 1.26337 3.71189 0
M  V30 9933 H 927.81 0.37974 4.1587 0
M  V30 9934 N 928.247 -1.18576 1.03814 0
M  V30 9935 C 929.493 -1.88773 0.741132 0
M  V30 9936 C 929.826 -1.79993 -0.729127 0
M  V30 9937 O 929.101 -1.19851 -1.53186 0
M  V30 9938 C 929.384 -3.39352 1.20468 0
M  V30 9939 C 929.237 -3.56955 2.73684 0
M  V30 9940 C 930.556 -4.32901 0.792741 0
M  V30 9941 H 927.675 -0.685482 0.270708 0
M  V30 9942 H 930.317 -1.39523 1.2897 0
M  V30 9943 H 928.467 -3.81427 0.737974 0
M  V30 9944 H 930.139 -3.2399 3.28372 0
M  V30 9945 H 928.382 -2.99696 3.13632 0
M  V30 9946 H 929.053 -4.62598 3.01176 0
M  V30 9947 H 931.529 -3.98592 1.1943 0
M  V30 9948 H 930.405 -5.36828 1.14486 0
M  V30 9949 H 930.666 -4.41052 -0.304295 0
M  V30 9950 N 929.725 -0.817259 -1.34754 0
M  V30 9951 C 930.688 -0.240611 -2.27934 0
M  V30 9952 C 931.688 0.578219 -1.50044 0
M  V30 9953 O 932.878 0.395148 -1.69659 0
M  V30 9954 C 930.01 0.663318 -3.34384 0
M  V30 9955 H 931.203 -1.06257 -2.80445 0
M  V30 9956 H 928.756 -0.588697 -1.4479 0
M  V30 9957 H 929.491 1.50855 -2.87077 0
M  V30 9958 H 929.276 0.0777388 -3.92023 0
M  V30 9959 H 930.766 1.06076 -4.03903 0
M  V30 9960 N 931.203 1.46865 -0.571711 0
M  V30 9961 C 932.15 2.30189 0.167808 0
M  V30 9962 C 933.12 1.3995 0.89461 0
M  V30 9963 O 934.305 1.68905 0.887451 0
M  V30 9964 C 931.445 3.24205 1.1826 0
M  V30 9965 C 930.558 4.2954 0.460376 0
M  V30 9966 C 929.693 5.10693 1.46173 0
M  V30 9967 C 928.732 6.07788 0.725291 0
M  V30 9968 N 927.869 6.81847 1.67417 0
M  V30 9969 H 932.709 2.92902 -0.548831 0
M  V30 9970 H 930.246 1.44362 -0.282474 0
M  V30 9971 H 932.204 3.77147 1.7837 0
M  V30 9972 H 930.834 2.63324 1.86709 0
M  V30 9973 H 929.886 3.79541 -0.255546 0
M  V30 9974 H 931.198 4.98665 -0.115855 0
M  V30 9975 H 930.352 5.67857 2.13595 0
M  V30 9976 H 929.091 4.41502 2.07188 0
M  V30 9977 H 928.096 5.49787 0.037228 0
M  V30 9978 H 929.321 6.78993 0.120678 0
M  V30 9979 H 927.267 6.15376 2.27263 0
M  V30 9980 H 927.184 7.47195 1.15046 0
M  V30 9981 H 928.452 7.43577 2.33908 0
M  V30 9982 N 932.681 0.308908 1.54543 0
M  V30 9983 C 934.092 -0.182144 1.85809 0
M  V30 9984 C 934.443 -1.52796 1.23076 0
M  V30 9985 O 933.568 -2.09775 0.531358 0
M  V30 9986 C 934.163 -0.337275 3.37117 0
M  V30 9987 C 932.722 -0.772545 3.68387 0
M  V30 9988 C 931.869 0.114451 2.77064 0
M  V30 9989 H 934.82 0.529671 1.496 0
M  V30 9990 H 934.841 -1.17058 3.62046 0
M  V30 9991 H 934.353 0.642382 3.82747 0
M  V30 9992 H 932.454 -1.76247 3.2828 0
M  V30 9993 H 932.567 -0.586453 4.75497 0
M  V30 9994 H 930.931 -0.407581 2.51418 0
M  V30 9995 H 931.714 1.09061 3.25516 0
M  V30 9996 N 934.159 -1.57557 0.0367827 0
M  V30 9997 C 935.069 -2.14148 -0.958017 0
M  V30 9998 C 936.085 -1.09564 -1.35173 0
M  V30 9999 O 937.261 -1.4166 -1.43158 0
M  V30 10000 C 934.326 -2.6636 -2.21931 0
M  V30 10001 C 933.387 -3.85688 -1.8853 0
M  V30 10002 C 932.62 -4.35401 -3.08645 0
M  V30 10003 O 932.843 -3.8425 -4.21554 0
M  V30 10004 O 931.777 -5.27158 -2.90497 0
M  V30 10005 H 935.603 -2.99442 -0.506797 0
M  V30 10006 H 933.188 -1.48259 -0.184275 0
M  V30 10007 H 935.07 -2.99976 -2.9596 0
M  V30 10008 H 933.745 -1.84145 -2.66219 0
M  V30 10009 H 932.652 -3.56985 -1.11861 0
M  V30 10010 H 933.985 -4.69089 -1.49052 0
M  V30 10011 N 935.637 0.236453 -1.55816 0
M  V30 10012 C 937.048 0.80468 -1.68469 0
M  V30 10013 C 937.399 1.85601 -0.636133 0
M  V30 10014 O 936.524 2.15323 0.215622 0
M  V30 10015 C 937.119 1.46634 -3.05424 0
M  V30 10016 C 935.678 1.98214 -3.19981 0
M  V30 10017 C 934.825 0.83695 -2.64368 0
M  V30 10018 H 937.776 0.0120647 -1.58695 0
M  V30 10019 H 937.797 2.33472 -3.00451 0
M  V30 10020 H 937.309 0.700931 -3.81718 0
M  V30 10021 H 935.41 2.77604 -2.4853 0
M  V30 10022 H 935.523 2.17235 -4.2702 0
M  V30 10023 H 933.887 1.24028 -2.22462 0
M  V30 10024 H 934.67 0.084451 -3.43196 0
M  V30 10025 N 937.115 1.49373 0.502552 0
M  V30 10026 C 938.343 1.62488 1.28084 0
M  V30 10027 C 938.758 0.295667 1.86471 0
M  V30 10028 O 938.115 -0.718664 1.67754 0
M  V30 10029 C 938.166 2.69249 2.4122 0
M  V30 10030 O 937.887 3.97014 1.85234 0
M  V30 10031 C 939.388 2.93054 3.32617 0
M  V30 10032 H 936.608 0.547068 0.388533 0
M  V30 10033 H 939.152 1.95394 0.603452 0
M  V30 10034 H 937.307 2.39125 3.04792 0
M  V30 10035 H 937.721 4.55809 2.59496 0
M  V30 10036 H 939.195 3.71493 4.08285 0
M  V30 10037 H 939.672 2.02911 3.89517 0
M  V30 10038 H 940.278 3.24589 2.74813 0
M  V30 10039 N 938.594 -0.753485 1.38421 0
M  V30 10040 C 939.557 -1.84888 1.35459 0
M  V30 10041 C 940.557 -1.58764 0.255083 0
M  V30 10042 O 941.747 -1.66507 0.511978 0
M  V30 10043 C 938.879 -3.22361 1.10888 0
M  V30 10044 H 940.072 -1.88922 2.32913 0
M  V30 10045 H 937.625 -0.955199 1.23716 0
M  V30 10046 H 938.36 -3.23996 0.1404 0
M  V30 10047 H 938.145 -3.42717 1.90492 0
M  V30 10048 H 939.635 -4.02437 1.1151 0
M  V30 10049 N 940.072 -1.23292 -0.981677 0
M  V30 10050 C 941.035 -1.01417 -2.05542 0
M  V30 10051 C 942.035 0.0235354 -1.60783 0
M  V30 10052 O 943.225 -0.216082 -1.72855 0
M  V30 10053 C 940.357 -0.534239 -3.36688 0
M  V30 10054 H 941.55 -1.96702 -2.26381 0
M  V30 10055 H 939.103 -1.05318 -1.1549 0
M  V30 10056 H 939.838 0.422452 -3.21537 0
M  V30 10057 H 939.623 -1.28304 -3.70514 0
M  V30 10058 H 941.113 -0.40179 -4.15663 0
M  V30 10059 N 941.55 1.18024 -1.04442 0
M  V30 10060 C 942.46 2.25436 -0.649276 0
M  V30 10061 C 943.476 1.70915 0.326189 0
M  V30 10062 O 944.652 2.00592 0.180174 0
M  V30 10063 C 941.717 3.46693 -0.0222558 0
M  V30 10064 C 940.778 4.16332 -1.0472 0
M  V30 10065 C 940.011 5.31799 -0.450011 0
M  V30 10066 O 940.234 5.65544 0.742717 0
M  V30 10067 O 939.168 5.90209 -1.18056 0
M  V30 10068 H 942.994 2.61508 -1.54426 0
M  V30 10069 H 940.579 1.25178 -0.81552 0
M  V30 10070 H 942.461 4.20132 0.326597 0
M  V30 10071 H 941.136 3.12436 0.84649 0
M  V30 10072 H 940.043 3.44944 -1.44792 0
M  V30 10073 H 941.376 4.54598 -1.88684 0
M  V30 10074 N 943.028 0.824394 1.34319 0
M  V30 10075 C 944.439 0.471802 1.8064 0
M  V30 10076 C 944.79 -1.00793 1.6833 0
M  V30 10077 O 943.915 -1.78447 1.22416 0
M  V30 10078 C 944.51 0.849609 3.27974 0
M  V30 10079 C 943.069 0.549365 3.72369 0
M  V30 10080 C 942.216 1.06573 2.56003 0
M  V30 10081 H 945.167 1.01443 1.22045 0
M  V30 10082 H 945.188 0.153968 3.80188 0
M  V30 10083 H 944.7 1.92663 3.36902 0
M  V30 10084 H 942.801 -0.518182 3.68979 0
M  V30 10085 H 942.914 1.09446 4.66432 0
M  V30 10086 H 941.278 0.487214 2.49997 0
M  V30 10087 H 942.061 2.14923 2.677 0
M  V30 10088 N 944.506 -1.46559 0.579492 0
M  V30 10089 C 945.416 -2.34066 -0.15816 0
M  V30 10090 C 946.432 -1.49556 -0.88932 0
M  V30 10091 O 947.608 -1.82434 -0.853226 0
M  V30 10092 C 944.673 -3.26683 -1.161 0
M  V30 10093 C 943.734 -4.27092 -0.434855 0
M  V30 10094 C 942.967 -5.15283 -1.38992 0
M  V30 10095 O 943.19 -5.06345 -2.62623 0
M  V30 10096 O 942.124 -5.95099 -0.902253 0
M  V30 10097 H 945.95 -2.98488 0.560234 0
M  V30 10098 H 943.535 -1.45482 0.339918 0
M  V30 10099 H 945.417 -3.8383 -1.73932 0
M  V30 10100 H 944.092 -2.64862 -1.86091 0
M  V30 10101 H 942.999 -3.73641 0.185224 0
M  V30 10102 H 944.332 -4.9169 0.224031 0
M  V30 10103 N 945.984 -0.3171 -1.54377 0
M  V30 10104 C 946.947 0.53905 -2.22771 0
M  V30 10105 C 947.947 1.04865 -1.21901 0
M  V30 10106 O 949.137 0.942108 -1.46526 0
M  V30 10107 C 946.269 1.74804 -2.92671 0
M  V30 10108 H 947.462 -0.0587417 -2.99842 0
M  V30 10109 H 945.015 -0.068107 -1.56152 0
M  V30 10110 H 945.75 2.38524 -2.1972 0
M  V30 10111 H 945.535 1.39011 -3.66631 0
M  V30 10112 H 947.025 2.35592 -3.44799 0
M  V30 10113 N 947.462 1.57535 -0.0451378 0
M  V30 10114 C 948.873 1.80116 0.491426 0
M  V30 10115 C 949.224 0.956846 1.71286 0
M  V30 10116 O 948.349 0.17173 2.15718 0
M  V30 10117 C 948.944 3.26674 0.898315 0
M  V30 10118 C 947.503 3.50194 1.37989 0
M  V30 10119 C 946.65 2.75054 0.352202 0
M  V30 10120 H 949.601 1.56368 -0.271065 0
M  V30 10121 H 949.622 3.37263 1.76164 0
M  V30 10122 H 949.134 3.88099 0.009141 0
M  V30 10123 H 947.235 2.94041 2.28846 0
M  V30 10124 H 947.348 4.58909 1.37622 0
M  V30 10125 H 945.712 2.4101 0.823784 0
M  V30 10126 H 946.495 3.39203 -0.528782 0
M  V30 10127 N 948.94 -0.228186 1.55939 0
M  V30 10128 C 949.903 -1.26621 1.91049 0
M  V30 10129 C 950.903 -1.40141 0.788491 0
M  V30 10130 O 952.093 -1.3852 1.05631 0
M  V30 10131 C 949.225 -2.64108 2.15545 0
M  V30 10132 H 950.418 -0.966978 2.83883 0
M  V30 10133 H 947.971 -0.468313 1.49119 0
M  V30 10134 H 948.706 -2.99141 1.25241 0
M  V30 10135 H 948.491 -2.55673 2.97277 0
M  V30 10136 H 949.981 -3.39025 2.43827 0
M  V30 10137 N 950.418 -1.49637 -0.494624 0
M  V30 10138 C 951.348 -1.69692 -1.60396 0
M  V30 10139 C 952.329 -0.545648 -1.61111 0
M  V30 10140 O 953.514 -0.782202 -1.77751 0
M  V30 10141 C 950.644 -1.76934 -2.9885 0
M  V30 10142 C 949.598 -2.91915 -3.13001 0
M  V30 10143 C 948.924 -2.84276 -4.5287 0
M  V30 10144 C 950.224 -4.32764 -2.92426 0
M  V30 10145 H 951.918 -2.6257 -1.43866 0
M  V30 10146 H 949.464 -1.26355 -0.690679 0
M  V30 10147 H 951.417 -1.8955 -3.76362 0
M  V30 10148 H 950.141 -0.806609 -3.16483 0
M  V30 10149 H 948.8 -2.78911 -2.37916 0
M  V30 10150 H 948.448 -1.85897 -4.67388 0
M  V30 10151 H 948.148 -3.61452 -4.63278 0
M  V30 10152 H 949.672 -2.98909 -5.32434 0
M  V30 10153 H 951.086 -4.46415 -3.59703 0
M  V30 10154 H 949.483 -5.1121 -3.143 0
M  V30 10155 H 950.553 -4.46765 -1.88491 0
M  V30 10156 N 951.896 0.746133 -1.38819 0
M  V30 10157 C 952.806 1.89063 -1.38897 0
M  V30 10158 C 953.822 1.71648 -0.28513 0
M  V30 10159 O 954.998 1.94443 -0.524783 0
M  V30 10160 C 952.063 3.24523 -1.22007 0
M  V30 10161 C 951.124 3.54411 -2.42263 0
M  V30 10162 C 950.357 4.83408 -2.26169 0
M  V30 10163 O 950.58 5.56325 -1.25931 0
M  V30 10164 O 949.514 5.12943 -3.14918 0
M  V30 10165 H 953.34 1.91951 -2.35347 0
M  V30 10166 H 950.925 0.892433 -1.19816 0
M  V30 10167 H 952.807 4.05496 -1.14677 0
M  V30 10168 H 951.482 3.2243 -0.286455 0
M  V30 10169 H 950.389 2.73569 -2.55168 0
M  V30 10170 H 951.722 3.61273 -3.3428 0
M  V30 10171 N 953.375 1.23811 0.975125 0
M  V30 10172 C 954.307 0.981779 2.07108 0
M  V30 10173 C 955.32 -0.0461211 1.62735 0
M  V30 10174 O 956.509 0.190039 1.77486 0
M  V30 10175 C 953.609 0.458364 3.35786 0
M  V30 10176 C 952.782 1.54767 4.09104 0
M  V30 10177 C 951.841 1.0282 5.16057 0
M  V30 10178 O 950.867 1.71831 5.42644 0
M  V30 10179 N 952.069 -0.141243 5.80328 0
M  V30 10180 H 954.834 1.92537 2.29673 0
M  V30 10181 H 952.395 1.1474 1.14221 0
M  V30 10182 H 954.387 0.0957686 4.04587 0
M  V30 10183 H 952.957 -0.390768 3.10148 0
M  V30 10184 H 952.177 2.08279 3.34684 0
M  V30 10185 H 953.465 2.28006 4.54853 0
M  V30 10186 H 952.863 -0.718382 5.6112 0
M  V30 10187 H 951.42 -0.445052 6.50279 0
M  V30 10188 O 954.892 -1.10713 1.17579 0
M  V30 10189 H 955.583 -1.70774 0.914101 0
M  V30 END ATOM
M  V30 BEGIN BOND
M  V30 END BOND
M  V30 END CTAB
M  END
$$$$
