drugbank_target|Q9XBQ3 Intracellular exo-alpha-(1->5)-L-arabinofuranosidase (DB03196; DB03870)
 OpenBabel12092119593D

  0  0  0     0  0            999 V3000
M  V30 BEGIN CTAB
M  V30 COUNTS 7972 8073 0 0 0
M  V30 BEGIN ATOM
M  V30 1 H -0.908 1.98254 -0.117106 0
M  V30 2 N 0 1.576 0 0
M  V30 3 C 0.933 2.03868 1.02534 0
M  V30 4 C 1.911 0.928543 1.3348 0
M  V30 5 O 3.095 1.19667 1.45644 0
M  V30 6 C 0.222 2.43627 2.35294 0
M  V30 7 C -0.732 3.65373 2.2001 0
M  V30 8 S 0.101 5.13292 1.52614 0
M  V30 9 C 1.257 5.56322 2.86805 0
M  V30 10 H 1.49 2.90518 0.631377 0
M  V30 11 H -0.977 1.52953 0.210867 0
M  V30 12 H 0.981 2.67203 3.11629 0
M  V30 13 H -0.358 1.57376 2.7183 0
M  V30 14 H -1.165 3.90944 3.18086 0
M  V30 15 H -1.563 3.418 1.51819 0
M  V30 16 H 0.729 5.58782 3.83104 0
M  V30 17 H 1.672 6.56266 2.65933 0
M  V30 18 H 2.08 4.83886 2.90714 0
M  V30 19 N 1.4781 -0.272755 1.55222 0
M  V30 20 C 2.4411 -1.32041 1.87344 0
M  V30 21 C 3.4411 -1.42342 0.74803 0
M  V30 22 O 4.6311 -1.41488 1.0162 0
M  V30 23 C 1.7631 -2.70173 2.07893 0
M  V30 24 H 2.9561 -1.04789 2.80997 0
M  V30 25 H 0.5091 -0.51083 1.47717 0
M  V30 26 H 1.2441 -3.02605 1.16622 0
M  V30 27 H 1.0291 -2.64082 2.89833 0
M  V30 28 H 2.5191 -3.45869 2.34017 0
M  V30 29 N 2.9562 -1.48159 -0.537278 0
M  V30 30 C 4.1842 -1.59454 -1.31841 0
M  V30 31 C 4.5992 -0.252065 -1.8711 0
M  V30 32 O 3.9562 0.757621 -1.66031 0
M  V30 33 C 4.0072 -2.63546 -2.47439 0
M  V30 34 O 3.7282 -3.92583 -1.94449 0
M  V30 35 C 5.2292 -2.85212 -3.39366 0
M  V30 36 H 2.4492 -0.53785 -0.401196 0
M  V30 37 H 4.9932 -1.93932 -0.648891 0
M  V30 38 H 3.1482 -2.31946 -3.1029 0
M  V30 39 H 3.5622 -4.49629 -2.70063 0
M  V30 40 H 5.0362 -3.61863 -4.16844 0
M  V30 41 H 5.5132 -1.93765 -3.94147 0
M  V30 42 H 6.1192 -3.18086 -2.82314 0
M  V30 43 N 4.4343 0.785586 -1.36625 0
M  V30 44 C 5.3813 1.89838 -1.31264 0
M  V30 45 C 6.3513 1.65115 -0.180633 0
M  V30 46 O 7.5363 1.87222 -0.36777 0
M  V30 47 C 4.6763 3.26706 -1.11163 0
M  V30 48 C 3.7893 3.63476 -2.33472 0
M  V30 49 C 2.9243 4.89481 -2.06353 0
M  V30 50 C 1.9633 5.18941 -3.24602 0
M  V30 51 N 1.1003 6.36131 -2.97123 0
M  V30 52 H 5.9403 1.93756 -2.26413 0
M  V30 53 H 3.4773 0.947454 -1.12524 0
M  V30 54 H 5.4353 4.05639 -0.975337 0
M  V30 55 H 4.0653 3.222 -0.196674 0
M  V30 56 H 3.1173 2.79636 -2.57891 0
M  V30 57 H 4.4293 3.81193 -3.21704 0
M  V30 58 H 3.5833 5.76288 -1.89675 0
M  V30 59 H 2.3223 4.73841 -1.15437 0
M  V30 60 H 1.3273 4.30615 -3.41834 0
M  V30 61 H 2.5523 5.36498 -4.16349 0
M  V30 62 H 0.4983 6.21875 -2.08823 0
M  V30 63 H 0.4153 6.54198 -3.78894 0
M  V30 64 H 1.6833 7.2591 -2.84033 0
M  V30 65 N 5.9124 1.20967 1.01018 0
M  V30 66 C 6.8594 0.964281 2.09691 0
M  V30 67 C 7.8294 -0.107853 1.65749 0
M  V30 68 O 9.0144 0.0381987 1.90762 0
M  V30 69 C 6.1544 0.52943 3.41015 0
M  V30 70 C 5.2674 1.67043 3.98398 0
M  V30 71 C 4.4024 1.18525 5.17808 0
M  V30 72 C 3.4414 2.29892 5.67288 0
M  V30 73 N 2.5784 1.82546 6.77954 0
M  V30 74 H 7.4184 1.89463 2.30017 0
M  V30 75 H 4.9554 0.944289 1.1279 0
M  V30 76 H 6.9134 0.258588 4.16398 0
M  V30 77 H 5.5434 -0.363919 3.20742 0
M  V30 78 H 4.5954 2.05603 3.20049 0
M  V30 79 H 5.9074 2.50877 4.31117 0
M  V30 80 H 5.0614 0.870762 6.00419 0
M  V30 81 H 3.8004 0.316887 4.86669 0
M  V30 82 H 2.8054 2.6215 4.83278 0
M  V30 83 H 4.0304 3.17216 6.00459 0
M  V30 84 H 1.9764 0.980454 6.48632 0
M  V30 85 H 1.8934 2.59956 7.09901 0
M  V30 86 H 3.1614 1.54115 7.64113 0
M  V30 87 N 7.3905 -1.2043 1.01659 0
M  V30 88 C 8.3535 -2.21433 0.591616 0
M  V30 89 C 9.3535 -1.57203 -0.338226 0
M  V30 90 O 10.5435 -1.73737 -0.126918 0
M  V30 91 C 7.6755 -3.40628 -0.136058 0
M  V30 92 H 8.8685 -2.60545 1.48514 0
M  V30 93 H 6.4215 -1.33893 0.806379 0
M  V30 94 H 7.1565 -3.07019 -1.04449 0
M  V30 95 H 6.9415 -3.88475 0.531917 0
M  V30 96 H 8.4315 -4.15475 -0.420735 0
M  V30 97 N 8.8686 -0.792821 -1.36206 0
M  V30 98 C 10.0966 -0.378825 -2.03402 0
M  V30 99 C 10.5116 1.00586 -1.59774 0
M  V30 100 O 9.8686 1.64574 -0.788764 0
M  V30 101 C 9.9196 -0.43683 -3.58851 0
M  V30 102 O 9.6406 -1.76691 -4.00889 0
M  V30 103 C 11.1416 -0.0138943 -4.43298 0
M  V30 104 H 8.3616 -0.155673 -0.652692 0
M  V30 105 H 10.9056 -1.07261 -1.74113 0
M  V30 106 H 9.0606 0.208575 -3.86838 0
M  V30 107 H 9.4746 -1.72011 -4.95492 0
M  V30 108 H 10.9486 -0.105615 -5.51899 0
M  V30 109 H 11.4256 1.03915 -4.2673 0
M  V30 110 H 12.0316 -0.63192 -4.20579 0
M  V30 111 N 10.3467 1.47872 -0.545128 0
M  V30 112 C 11.2797 2.2675 0.256885 0
M  V30 113 C 12.2577 1.33293 0.931228 0
M  V30 114 O 13.4417 1.62657 0.95262 0
M  V30 115 C 10.5687 3.09976 1.36501 0
M  V30 116 C 9.6147 4.1892 0.800496 0
M  V30 117 S 10.4477 5.34397 -0.343505 0
M  V30 118 C 11.6037 6.21186 0.766733 0
M  V30 119 H 11.8367 2.94425 -0.412479 0
M  V30 120 H 9.3697 1.50806 -0.331204 0
M  V30 121 H 11.3277 3.585 1.9997 0
M  V30 122 H 9.9887 2.41686 2.00616 0
M  V30 123 H 9.1817 4.76836 1.63227 0
M  V30 124 H 8.7837 3.73215 0.242217 0
M  V30 125 H 11.0757 6.56804 1.66178 0
M  V30 126 H 12.0187 7.07742 0.225204 0
M  V30 127 H 12.4267 5.54574 1.05396 0
M  V30 128 N 11.8248 0.280983 1.55075 0
M  V30 129 C 13.0738 -0.334784 1.98902 0
M  V30 130 C 13.3868 -1.56534 1.17288 0
M  V30 131 O 14.5928 -2.25443 1.51287 0
M  V30 132 C 13.0488 -0.646994 3.54037 0
M  V30 133 C 12.6568 0.564085 4.44435 0
M  V30 134 C 14.4008 -1.22506 4.06439 0
M  V30 135 C 12.3078 0.226137 5.90967 0
M  V30 136 H 11.2378 -0.128866 0.742906 0
M  V30 137 H 13.8888 0.386556 1.79382 0
M  V30 138 H 12.2708 -1.42739 3.6938 0
M  V30 139 H 13.4448 1.34082 4.40861 0
M  V30 140 H 11.7598 1.0594 4.02698 0
M  V30 141 H 14.3568 -1.49182 5.13468 0
M  V30 142 H 14.6998 -2.16085 3.55827 0
M  V30 143 H 15.2328 -0.50682 3.94558 0
M  V30 144 H 11.9718 1.12996 6.45687 0
M  V30 145 H 11.4918 -0.513717 5.97596 0
M  V30 146 H 13.1708 -0.179539 6.46751 0
M  V30 147 N 13.3029 -1.57598 0.00835791 0
M  V30 148 C 14.5519 -1.90107 -0.673968 0
M  V30 149 C 14.8649 -0.884275 -1.7447 0
M  V30 150 O 16.0709 -1.09987 -2.48224 0
M  V30 151 C 14.5269 -3.37497 -1.24995 0
M  V30 152 C 14.1349 -4.47491 -0.2136 0
M  V30 153 C 15.8789 -3.79104 -1.90999 0
M  V30 154 C 13.7859 -5.85963 -0.80005 0
M  V30 155 H 12.7159 -0.709393 -0.255495 0
M  V30 156 H 15.3669 -1.83365 0.0702693 0
M  V30 157 H 13.7489 -3.39102 -2.04513 0
M  V30 158 H 14.9229 -4.57414 0.557596 0
M  V30 159 H 13.2379 -4.14956 0.346474 0
M  V30 160 H 15.8349 -4.79901 -2.35795 0
M  V30 161 H 16.1779 -3.1306 -2.74407 0
M  V30 162 H 16.7109 -3.79833 -1.18203 0
M  V30 163 H 13.4499 -6.555 -0.00456708 0
M  V30 164 H 12.9699 -5.79687 -1.54021 0
M  V30 165 H 14.6489 -6.33884 -1.29615 0
M  V30 166 N 14.781 0.264519 -1.55364 0
M  V30 167 C 15.691 1.34902 -1.91934 0
M  V30 168 C 16.707 1.53595 -0.817593 0
M  V30 169 O 17.883 1.67558 -1.11742 0
M  V30 170 C 14.948 2.68676 -2.19121 0
M  V30 171 C 14.009 2.58657 -3.4263 0
M  V30 172 C 13.242 3.86051 -3.68511 0
M  V30 173 O 13.465 4.87126 -2.96757 0
M  V30 174 O 12.399 3.85744 -4.62045 0
M  V30 175 H 16.225 1.06883 -2.8427 0
M  V30 176 H 13.81 0.463775 -1.42019 0
M  V30 177 H 15.692 3.47759 -2.37995 0
M  V30 178 H 14.367 2.96463 -1.29966 0
M  V30 179 H 13.274 1.7792 -3.29082 0
M  V30 180 H 14.607 2.35818 -4.32031 0
M  V30 181 N 16.2591 1.48442 0.529413 0
M  V30 182 C 17.2061 1.63007 1.63394 0
M  V30 183 C 18.1761 0.47212 1.59249 0
M  V30 184 O 19.3611 0.695673 1.77666 0
M  V30 185 C 16.5011 1.6763 3.01653 0
M  V30 186 C 15.6141 2.94535 3.16027 0
M  V30 187 C 14.7491 2.90316 4.44849 0
M  V30 188 C 13.7881 4.11923 4.52754 0
M  V30 189 N 12.9251 4.05777 5.72965 0
M  V30 190 H 17.7651 2.5733 1.50285 0
M  V30 191 H 15.3021 1.27613 0.731656 0
M  V30 192 H 17.2601 1.68292 3.81751 0
M  V30 193 H 15.8901 0.76797 3.13532 0
M  V30 194 H 14.9421 3.03615 2.29177 0
M  V30 195 H 16.2541 3.84512 3.17729 0
M  V30 196 H 15.4081 2.89382 5.33238 0
M  V30 197 H 14.1471 1.98068 4.45668 0
M  V30 198 H 13.1521 4.13131 3.62771 0
M  V30 199 H 14.3771 5.0533 4.53672 0
M  V30 200 H 12.3231 3.16351 5.74681 0
M  V30 201 H 12.2401 4.8946 5.76164 0
M  V30 202 H 13.5081 4.08904 6.6364 0
M  V30 203 N 17.7372 -0.778329 1.37039 0
M  V30 204 C 19.0142 -1.52551 1.22424 0
M  V30 205 C 19.3942 -2.10288 -0.184964 0
M  V30 206 O 18.7422 -1.94953 -1.19187 0
M  V30 207 C 18.9522 -2.61164 2.31504 0
M  V30 208 C 20.3002 -3.28746 2.68721 0
M  V30 209 O 21.3242 -2.71455 2.30631 0
M  V30 210 O 20.1832 -4.3231 3.3432 0
M  V30 211 H 17.2772 -0.675343 0.477326 0
M  V30 212 H 19.8232 -0.815859 1.48801 0
M  V30 213 H 18.5952 -2.16574 3.25901 0
M  V30 214 H 18.2182 -3.39737 2.06554 0
M  V30 215 N 19.2153 -1.21501 -1.00376 0
M  V30 216 C 20.4623 -1.03299 -1.74171 0
M  V30 217 C 20.7903 0.433326 -1.89612 0
M  V30 218 O 20.0453 1.33779 -1.42834 0
M  V30 219 C 20.3443 -1.67673 -3.15627 0
M  V30 220 C 20.0103 -3.17533 -3.2013 0
M  V30 221 C 18.6723 -3.58427 -3.21067 0
M  V30 222 C 21.0243 -4.13504 -3.17275 0
M  V30 223 C 18.3523 -4.93794 -3.16835 0
M  V30 224 C 20.7043 -5.48834 -3.14585 0
M  V30 225 C 19.3683 -5.89123 -3.13831 0
M  V30 226 H 18.6383 -0.377999 -0.637336 0
M  V30 227 H 21.2853 -1.51111 -1.17634 0
M  V30 228 H 19.5903 -1.12158 -3.75404 0
M  V30 229 H 21.2873 -1.51091 -3.71446 0
M  V30 230 H 17.8773 -2.84965 -3.20145 0
M  V30 231 H 22.0613 -3.82936 -3.15711 0
M  V30 232 H 17.3173 -5.24255 -3.1459 0
M  V30 233 H 21.4913 -6.22934 -3.1133 0
M  V30 234 H 19.1183 -6.93984 -3.10307 0
M  V30 235 N 20.6934 1.19889 -1.02296 0
M  V30 236 C 21.6404 2.22901 -0.598651 0
M  V30 237 C 22.6104 1.61588 0.384521 0
M  V30 238 O 23.7954 1.88697 0.282522 0
M  V30 239 C 20.9354 3.45063 0.0504476 0
M  V30 240 C 20.0484 4.20783 -0.978053 0
M  V30 241 C 19.1834 5.30356 -0.299338 0
M  V30 242 C 18.2224 5.97826 -1.31416 0
M  V30 243 N 17.3594 6.98975 -0.661667 0
M  V30 244 H 22.1994 2.58554 -1.48169 0
M  V30 245 H 19.7364 1.27039 -0.741584 0
M  V30 246 H 21.6944 4.14831 0.443971 0
M  V30 247 H 20.3244 3.10084 0.897097 0
M  V30 248 H 19.3764 3.50018 -1.48969 0
M  V30 249 H 20.6884 4.67109 -1.74958 0
M  V30 250 H 19.8424 6.06516 0.149347 0
M  V30 251 H 18.5814 4.85084 0.504445 0
M  V30 252 H 17.5864 5.20422 -1.77317 0
M  V30 253 H 18.8114 6.45183 -2.11933 0
M  V30 254 H 16.7574 6.55886 0.122132 0
M  V30 255 H 16.6744 7.43461 -1.37117 0
M  V30 256 H 17.9424 7.7914 -0.236785 0
M  V30 257 N 22.1715 0.800033 1.35784 0
M  V30 258 C 23.4205 0.37387 1.98205 0
M  V30 259 C 23.7335 -1.06302 1.64193 0
M  V30 260 O 24.9395 -1.59198 2.19928 0
M  V30 261 C 23.3955 0.617532 3.54562 0
M  V30 262 C 23.0035 2.06654 3.9749 0
M  V30 263 C 24.7475 0.256401 4.23725 0
M  V30 264 C 22.6545 2.2563 5.46667 0
M  V30 265 H 21.5845 0.136055 0.741623 0
M  V30 266 H 24.2355 0.983166 1.54939 0
M  V30 267 H 22.6175 -0.0616248 3.95952 0
M  V30 268 H 23.7915 2.78296 3.67271 0
M  V30 269 H 22.1065 2.38691 3.41197 0
M  V30 270 H 24.7035 0.376318 5.33374 0
M  V30 271 H 25.0465 -0.796692 4.08606 0
M  V30 272 H 25.5795 0.889214 3.87734 0
M  V30 273 H 22.3185 3.2936 5.66747 0
M  V30 274 H 21.8385 1.58504 5.78478 0
M  V30 275 H 23.5175 2.06861 6.1304 0
M  V30 276 N 23.6496 -1.47581 0.552962 0
M  V30 277 C 24.6126 -2.28439 -0.186605 0
M  V30 278 C 25.6126 -1.36706 -0.84665 0
M  V30 279 O 26.8026 -1.59378 -0.703164 0
M  V30 280 C 23.9346 -3.16264 -1.2724 0
M  V30 281 H 25.1276 -2.95294 0.523609 0
M  V30 282 H 22.6806 -1.532 0.309745 0
M  V30 283 H 23.4156 -2.54091 -2.01514 0
M  V30 284 H 23.2006 -3.83769 -0.803968 0
M  V30 285 H 24.6906 -3.77198 -1.79196 0
M  V30 286 N 25.1277 -0.289203 -1.54924 0
M  V30 287 C 26.0377 0.601863 -2.26748 0
M  V30 288 C 27.0537 1.15834 -1.2984 0
M  V30 289 O 28.2297 1.18564 -1.62802 0
M  V30 290 C 25.2947 1.76299 -2.98529 0
M  V30 291 C 24.3557 1.24178 -4.10948 0
M  V30 292 C 23.5887 2.34757 -4.79296 0
M  V30 293 O 23.8117 3.54411 -4.46933 0
M  V30 294 O 22.7457 2.02115 -5.66951 0
M  V30 295 H 26.5717 0.0195879 -3.03694 0
M  V30 296 H 24.1567 -0.0560868 -1.49295 0
M  V30 297 H 26.0387 2.43973 -3.43592 0
M  V30 298 H 24.7137 2.33209 -2.24488 0
M  V30 299 H 23.6207 0.531104 -3.70311 0
M  V30 300 H 24.9537 0.718252 -4.86931 0
M  V30 301 N 26.6058 1.57591 -0.0167156 0
M  V30 302 C 27.8548 1.90461 0.663877 0
M  V30 303 C 28.1678 0.893515 1.73999 0
M  V30 304 O 29.3738 1.11302 2.47637 0
M  V30 305 C 27.8298 3.38155 1.23204 0
M  V30 306 C 27.4378 4.47597 0.189866 0
M  V30 307 C 29.1818 3.80111 1.88986 0
M  V30 308 C 27.0888 5.86379 0.768964 0
M  V30 309 H 26.0188 0.710738 0.251729 0
M  V30 310 H 28.6698 1.83326 -0.0799926 0
M  V30 311 H 27.0518 3.40182 2.02712 0
M  V30 312 H 28.2258 4.57112 -0.581846 0
M  V30 313 H 26.5408 4.14766 -0.368475 0
M  V30 314 H 29.1378 4.81145 2.33247 0
M  V30 315 H 29.4808 3.14511 2.72743 0
M  V30 316 H 30.0138 3.80454 1.16187 0
M  V30 317 H 26.7528 6.55493 -0.0301957 0
M  V30 318 H 26.2728 5.80496 1.50945 0
M  V30 319 H 27.9518 6.34563 1.26251 0
M  V30 320 N 28.0839 -0.256276 1.55502 0
M  V30 321 C 29.3609 -1.00789 1.67633 0
M  V30 322 C 29.7409 -2.03706 0.553826 0
M  V30 323 O 29.0889 -2.24145 -0.443969 0
M  V30 324 C 29.2989 -1.64968 3.07549 0
M  V30 325 C 30.6469 -2.15505 3.65845 0
M  V30 326 O 31.6709 -1.74925 3.1029 0
M  V30 327 O 30.5299 -2.89986 4.63217 0
M  V30 328 H 27.6239 -0.468553 0.681459 0
M  V30 329 H 30.1699 -0.250806 1.67836 0
M  V30 330 H 28.9419 -0.904785 3.80696 0
M  V30 331 H 28.5649 -2.47321 3.11317 0
M  V30 332 N 29.562 -1.4872 -0.521534 0
M  V30 333 C 30.509 -1.63871 -1.62527 0
M  V30 334 C 31.479 -0.480559 -1.58996 0
M  V30 335 O 32.664 -0.705085 -1.77294 0
M  V30 336 C 29.804 -1.69227 -3.00759 0
M  V30 337 C 28.917 -2.96207 -3.14461 0
M  V30 338 C 28.052 -2.92671 -4.43303 0
M  V30 339 C 27.091 -4.14318 -4.50563 0
M  V30 340 N 26.228 -4.0881 -5.70805 0
M  V30 341 H 31.068 -2.58123 -1.48918 0
M  V30 342 H 28.605 -1.28 -0.724878 0
M  V30 343 H 30.563 -1.70314 -3.80853 0
M  V30 344 H 29.193 -0.784586 -3.1312 0
M  V30 345 H 28.245 -3.04826 -2.27564 0
M  V30 346 H 29.557 -3.86192 -3.15686 0
M  V30 347 H 28.711 -2.92206 -5.31696 0
M  V30 348 H 27.45 -2.00429 -4.44612 0
M  V30 349 H 26.455 -4.15049 -3.60575 0
M  V30 350 H 27.68 -5.07729 -4.50986 0
M  V30 351 H 25.626 -3.19394 -5.72995 0
M  V30 352 H 25.543 -4.92509 -5.7356 0
M  V30 353 H 26.811 -4.12418 -6.61462 0
M  V30 354 N 31.0401 0.771051 -1.3745 0
M  V30 355 C 32.4561 1.07171 -1.18265 0
M  V30 356 C 32.6561 2.01491 -0.019287 0
M  V30 357 O 31.7121 2.44244 0.640408 0
M  V30 358 C 33.0251 1.66854 -2.50161 0
M  V30 359 C 34.5731 1.79109 -2.56689 0
M  V30 360 C 35.0481 2.42205 -3.88717 0
M  V30 361 N 36.5391 2.49655 -3.90162 0
M  V30 362 C 37.2741 2.9933 -4.8907 0
M  V30 363 N 36.7701 3.49172 -5.98374 0
M  V30 364 N 38.5631 2.9821 -4.76474 0
M  V30 365 H 30.7141 0.144796 -2.11906 0
M  V30 366 H 32.9771 0.126863 -0.939473 0
M  V30 367 H 32.6831 1.05017 -3.35655 0
M  V30 368 H 32.5571 2.6614 -2.673 0
M  V30 369 H 34.9441 2.40077 -1.71601 0
M  V30 370 H 35.0251 0.785757 -2.43433 0
M  V30 371 H 34.6691 1.81875 -4.74219 0
M  V30 372 H 34.5991 3.43345 -3.99276 0
M  V30 373 H 37.0901 2.14383 -3.11205 0
M  V30 374 H 37.4031 3.8548 -6.69795 0
M  V30 375 H 35.7481 3.47275 -6.02018 0
M  V30 376 H 38.9391 2.58572 -3.90203 0
M  V30 377 H 39.1121 3.36613 -5.53711 0
M  V30 378 N 32.5182 1.22032 0.997298 0
M  V30 379 C 33.7672 1.03637 1.73038 0
M  V30 380 C 34.0802 -0.429475 1.90827 0
M  V30 381 O 35.2862 -0.732995 2.61418 0
M  V30 382 C 33.7422 1.80582 3.11317 0
M  V30 383 C 33.3502 3.31387 3.01474 0
M  V30 384 C 35.0942 1.70621 3.88701 0
M  V30 385 C 33.0012 4.00791 4.3488 0
M  V30 386 H 31.9312 0.384179 0.648785 0
M  V30 387 H 34.5822 1.4584 1.11368 0
M  V30 388 H 32.9642 1.31175 3.73643 0
M  V30 389 H 34.1382 3.88155 2.4834 0
M  V30 390 H 32.4532 3.41976 2.37575 0
M  V30 391 H 35.0502 2.19799 4.87434 0
M  V30 392 H 35.3932 0.665823 4.10941 0
M  V30 393 H 35.9262 2.17547 3.33044 0
M  V30 394 H 32.6652 5.05064 4.1784 0
M  V30 395 H 32.1852 3.48811 4.87945 0
M  V30 396 H 33.8642 4.06139 5.03647 0
M  V30 397 N 33.9963 -1.19345 1.0293 0
M  V30 398 C 35.2263 -1.92717 0.744563 0
M  V30 399 C 35.6343 -1.75751 -0.700579 0
M  V30 400 O 34.9773 -1.07703 -1.48815 0
M  V30 401 C 35.0393 -3.44828 1.01657 0
M  V30 402 C 34.7033 -3.85564 2.45335 0
M  V30 403 C 35.7003 -3.90286 3.43472 0
M  V30 404 C 33.3853 -4.1719 2.79746 0
M  V30 405 C 35.3793 -4.26065 4.74075 0
M  V30 406 C 33.0663 -4.52642 4.10559 0
M  V30 407 C 34.0643 -4.57054 5.07534 0
M  V30 408 O 33.7523 -4.91685 6.36004 0
M  V30 409 H 33.4843 -0.618977 0.271742 0
M  V30 410 H 36.0383 -1.52415 1.37691 0
M  V30 411 H 34.2683 -3.85314 0.327084 0
M  V30 412 H 35.9573 -3.99437 0.721427 0
M  V30 413 H 36.7233 -3.66002 3.18225 0
M  V30 414 H 32.6023 -4.1294 2.04943 0
M  V30 415 H 36.1463 -4.29423 5.49765 0
M  V30 416 H 32.0433 -4.76383 4.35579 0
M  V30 417 H 32.8113 -5.09631 6.40483 0
M  V30 418 N 35.4744 -0.807222 -1.35358 0
M  V30 419 C 36.7224 -0.387122 -1.98358 0
M  V30 420 C 37.0434 1.04942 -1.64354 0
M  V30 421 O 36.3134 1.72615 -0.926339 0
M  V30 422 H 34.8934 -0.140154 -0.733734 0
M  V30 423 H 37.5554 -1.0332 -1.6526 0
M  V30 424 H 36.6514 -0.493352 -3.08176 0
M  V30 425 N 36.9525 1.47285 -0.560781 0
M  V30 426 C 38.1775 2.07359 -0.0410566 0
M  V30 427 C 38.6025 1.41017 1.24483 0
M  V30 428 O 37.9605 0.486368 1.74654 0
M  V30 429 C 38.0085 3.6035 0.134123 0
M  V30 430 O 37.1125 3.94681 1.19587 0
M  V30 431 H 36.4535 0.661887 -0.0529291 0
M  V30 432 H 38.9835 1.89252 -0.777482 0
M  V30 433 H 38.9935 4.0652 0.347207 0
M  V30 434 H 37.6685 4.08034 -0.805047 0
M  V30 435 H 36.2455 3.60251 0.962987 0
M  V30 436 N 38.4306 0.297415 1.54768 0
M  V30 437 C 39.6776 -0.312913 2.00068 0
M  V30 438 C 40.0056 -1.54171 1.18582 0
M  V30 439 O 39.2606 -1.94108 0.249133 0
M  V30 440 C 39.5596 -0.717561 3.50123 0
M  V30 441 C 39.2256 0.409095 4.4904 0
M  V30 442 C 37.8876 0.718399 4.75807 0
M  V30 443 C 40.2396 1.16717 5.07963 0
M  V30 444 C 37.5676 1.78896 5.5876 0
M  V30 445 C 39.9196 2.22762 5.92081 0
M  V30 446 C 38.5836 2.54303 6.1716 0
M  V30 447 H 37.8536 -0.114503 0.7321 0
M  V30 448 H 40.5006 0.415767 1.86932 0
M  V30 449 H 38.8056 -1.52627 3.60849 0
M  V30 450 H 40.5026 -1.20091 3.82595 0
M  V30 451 H 37.0926 0.157918 4.28309 0
M  V30 452 H 41.2766 0.941466 4.87289 0
M  V30 453 H 36.5326 2.0381 5.7643 0
M  V30 454 H 40.7066 2.81962 6.36765 0
M  V30 455 H 38.3336 3.3739 6.81229 0
M  V30 456 N 39.9087 -1.5758 0.0250728 0
M  V30 457 C 41.1577 -1.90811 -0.653767 0
M  V30 458 C 41.4707 -0.90273 -1.73523 0
M  V30 459 O 42.6767 -1.12614 -2.47043 0
M  V30 460 C 41.1327 -3.38804 -1.21409 0
M  V30 461 C 40.7407 -4.47692 -0.166126 0
M  V30 462 C 42.4847 -3.81108 -1.86967 0
M  V30 463 C 40.3917 -5.86779 -0.737856 0
M  V30 464 H 39.3217 -0.712063 -0.247956 0
M  V30 465 H 41.9727 -1.83281 0.0897137 0
M  V30 466 H 40.3547 -3.41252 -2.00905 0
M  V30 467 H 41.5287 -4.56797 0.606079 0
M  V30 468 H 39.8437 -4.14565 0.390466 0
M  V30 469 H 42.4407 -4.82375 -2.30692 0
M  V30 470 H 42.7837 -3.15953 -2.71071 0
M  V30 471 H 43.3167 -3.81065 -1.14167 0
M  V30 472 H 40.0557 -6.55468 0.0649577 0
M  V30 473 H 39.5757 -5.81288 -1.47864 0
M  V30 474 H 41.2547 -6.35223 -1.22884 0
M  V30 475 N 41.3868 0.248026 -1.55636 0
M  V30 476 C 42.2968 1.32859 -1.93354 0
M  V30 477 C 43.3128 1.52719 -0.833838 0
M  V30 478 O 44.4888 1.66363 -1.13513 0
M  V30 479 C 41.5538 2.66337 -2.21958 0
M  V30 480 C 40.6148 2.55008 -3.45354 0
M  V30 481 C 39.8478 3.82121 -3.72584 0
M  V30 482 O 40.0708 4.83951 -3.01907 0
M  V30 483 O 39.0048 3.80822 -4.6611 0
M  V30 484 H 42.8308 1.03862 -2.85388 0
M  V30 485 H 40.4158 0.448686 -1.42503 0
M  V30 486 H 42.2978 3.45216 -2.4167 0
M  V30 487 H 40.9728 2.95068 -1.33103 0
M  V30 488 H 39.8798 1.7442 -3.30951 0
M  V30 489 H 41.2128 2.31222 -4.34508 0
M  V30 490 N 42.8649 1.48995 0.513639 0
M  V30 491 C 43.8149 1.61127 1.61314 0
M  V30 492 C 44.7989 0.467521 1.53958 0
M  V30 493 O 45.9909 0.719826 1.61702 0
M  V30 494 C 43.1199 1.66937 2.99978 0
M  V30 495 C 42.2059 2.86847 3.12377 0
M  V30 496 N 42.5969 4.11078 2.94701 0
M  V30 497 C 40.8949 2.84521 3.43459 0
M  V30 498 C 41.5959 4.91615 3.10949 0
M  V30 499 N 40.5719 4.24739 3.3926 0
M  V30 500 H 44.3739 2.54909 1.46282 0
M  V30 501 H 41.8879 1.45593 0.719483 0
M  V30 502 H 43.8849 1.73725 3.78979 0
M  V30 503 H 42.5449 0.742831 3.16089 0
M  V30 504 H 43.5559 4.41258 2.71131 0
M  V30 505 H 40.2329 2.01192 3.65825 0
M  V30 506 H 41.6229 6.00264 3.01882 0
M  V30 507 N 44.343 -0.763751 1.37857 0
M  V30 508 C 45.273 -1.89103 1.36975 0
M  V30 509 C 46.254 -1.68439 0.237152 0
M  V30 510 O 47.439 -1.8918 0.438713 0
M  V30 511 C 44.569 -3.26496 1.18395 0
M  V30 512 C 43.523 -3.61741 2.28751 0
M  V30 513 C 42.849 -4.97762 1.95286 0
M  V30 514 C 44.149 -3.67665 3.70972 0
M  V30 515 H 45.843 -1.90099 2.31307 0
M  V30 516 H 43.389 -0.91319 1.11341 0
M  V30 517 H 45.342 -4.05003 1.16406 0
M  V30 518 H 44.066 -3.25955 0.205215 0
M  V30 519 H 42.725 -2.85547 2.29909 0
M  V30 520 H 42.373 -4.93769 0.959221 0
M  V30 521 H 42.073 -5.22313 2.69189 0
M  V30 522 H 43.597 -5.7866 1.94898 0
M  V30 523 H 45.011 -4.36307 3.719 0
M  V30 524 H 43.408 -4.03718 4.43995 0
M  V30 525 H 44.478 -2.68134 4.0402 0
M  V30 526 N 45.8211 -1.22559 -0.990812 0
M  V30 527 C 47.0691 -1.04933 -1.72724 0
M  V30 528 C 47.3901 0.416158 -1.90508 0
M  V30 529 O 46.6601 1.29918 -1.46622 0
M  V30 530 H 45.2401 -0.385296 -0.639965 0
M  V30 531 H 47.9021 -1.54105 -1.19322 0
M  V30 532 H 46.9981 -1.52886 -2.72089 0
M  V30 533 N 47.2992 1.18797 -1.03562 0
M  V30 534 C 48.7152 1.40671 -0.753917 0
M  V30 535 C 48.9152 1.9043 0.658686 0
M  V30 536 O 47.9712 2.08538 1.42366 0
M  V30 537 C 49.2842 2.41192 -1.79574 0
M  V30 538 C 50.8322 2.54928 -1.81606 0
M  V30 539 C 51.3072 3.58709 -2.84766 0
M  V30 540 N 52.7982 3.66212 -2.83625 0
M  V30 541 C 53.5332 4.46225 -3.60098 0
M  V30 542 N 53.0292 5.29888 -4.46308 0
M  V30 543 N 54.8222 4.40939 -3.4861 0
M  V30 544 H 46.9732 0.848221 -1.94728 0
M  V30 545 H 49.2362 0.435081 -0.842264 0
M  V30 546 H 48.9422 2.11669 -2.80872 0
M  V30 547 H 48.8162 3.40467 -1.62365 0
M  V30 548 H 51.2032 2.83771 -0.809817 0
M  V30 549 H 51.2842 1.55784 -2.02891 0
M  V30 550 H 50.9282 3.30607 -3.85566 0
M  V30 551 H 50.8582 4.57519 -2.60737 0
M  V30 552 H 53.3492 3.06466 -2.21105 0
M  V30 553 H 53.6622 5.88078 -5.01382 0
M  V30 554 H 52.0072 5.29326 -4.50377 0
M  V30 555 H 55.1982 3.74624 -2.80668 0
M  V30 556 H 55.3712 5.03056 -4.08459 0
M  V30 557 N 48.7773 0.814389 1.34928 0
M  V30 558 C 49.7403 0.235759 2.27984 0
M  V30 559 C 50.7403 -0.581412 1.49921 0
M  V30 560 O 51.9303 -0.398758 1.69575 0
M  V30 561 C 49.0623 -0.670433 3.34242 0
M  V30 562 H 50.2553 1.05659 2.80671 0
M  V30 563 H 47.8083 0.585614 1.44915 0
M  V30 564 H 48.5433 -1.51466 2.86755 0
M  V30 565 H 48.3283 -0.0860822 3.92005 0
M  V30 566 H 49.8183 -1.06935 4.03676 0
M  V30 567 N 50.2554 -1.46986 0.568584 0
M  V30 568 C 51.5014 -2.02741 0.0488709 0
M  V30 569 C 51.8344 -1.44077 -1.30214 0
M  V30 570 O 51.1094 -0.600552 -1.84996 0
M  V30 571 C 51.3924 -3.60086 -0.032047 0
M  V30 572 C 51.2454 -4.29162 1.34686 0
M  V30 573 C 52.5644 -4.33838 -0.739798 0
M  V30 574 H 49.6834 -0.736749 0.0192338 0
M  V30 575 H 52.3254 -1.75289 0.733065 0
M  V30 576 H 50.4754 -3.83606 -0.61473 0
M  V30 577 H 52.1474 -4.16948 1.97362 0
M  V30 578 H 50.3904 -3.89073 1.91846 0
M  V30 579 H 51.0614 -5.37826 1.24285 0
M  V30 580 H 53.5374 -4.15378 -0.244939 0
M  V30 581 H 52.4134 -5.43537 -0.765406 0
M  V30 582 H 52.6744 -4.03875 -1.79827 0
M  V30 583 N 51.7335 -0.305618 -1.54608 0
M  V30 584 C 52.9635 0.304333 -2.04346 0
M  V30 585 C 53.3715 1.47715 -1.18224 0
M  V30 586 O 52.7145 1.82591 -0.201577 0
M  V30 587 C 52.7765 0.819031 -3.50046 0
M  V30 588 C 52.4405 -0.22912 -4.56425 0
M  V30 589 C 53.4375 -1.05914 -5.08997 0
M  V30 590 C 51.1225 -0.372148 -5.0092 0
M  V30 591 C 53.1165 -2.01809 -6.04609 0
M  V30 592 C 50.8035 -1.33454 -5.9635 0
M  V30 593 C 51.8015 -2.15599 -6.48079 0
M  V30 594 O 51.4895 -3.10205 -7.41639 0
M  V30 595 H 51.2215 0.0693996 -0.672428 0
M  V30 596 H 53.7755 -0.444548 -2.00532 0
M  V30 597 H 52.0055 1.61852 -3.51199 0
M  V30 598 H 53.6945 1.34537 -3.82955 0
M  V30 599 H 54.4605 -0.959538 -4.75413 0
M  V30 600 H 50.3395 0.257304 -4.60281 0
M  V30 601 H 53.8835 -2.65966 -6.44909 0
M  V30 602 H 49.7805 -1.43485 -6.29351 0
M  V30 603 H 50.5485 -3.05237 -7.59455 0
M  V30 604 N 53.2116 1.57565 -0.0334293 0
M  V30 605 C 54.4596 1.91598 0.642999 0
M  V30 606 C 54.7806 0.910847 1.7242 0
M  V30 607 O 54.0506 -0.0469931 1.95844 0
M  V30 608 H 52.6306 0.707228 0.240496 0
M  V30 609 H 55.2926 1.94726 -0.0822488 0
M  V30 610 H 54.3886 2.92336 1.09298 0
M  V30 611 N 54.6897 -0.239769 1.55765 0
M  V30 612 C 55.9377 -0.964892 1.77579 0
M  V30 613 C 56.2587 -1.85582 0.598699 0
M  V30 614 O 55.5287 -1.92075 -0.385226 0
M  V30 615 H 54.1087 -0.359265 0.654933 0
M  V30 616 H 56.7707 -0.256001 1.93211 0
M  V30 617 H 55.8667 -1.58243 2.69009 0
M  V30 618 N 56.1678 -1.49265 -0.50573 0
M  V30 619 C 57.4168 -1.57761 -1.25675 0
M  V30 620 C 57.7298 -0.267371 -1.93764 0
M  V30 621 O 58.9358 -0.230827 -2.70517 0
M  V30 622 C 57.3918 -2.78332 -2.28165 0
M  V30 623 C 56.9998 -4.16096 -1.66037 0
M  V30 624 C 58.7438 -2.96155 -3.04125 0
M  V30 625 C 56.6508 -5.27895 -2.6661 0
M  V30 626 H 55.5808 -0.587391 -0.472745 0
M  V30 627 H 58.2318 -1.75644 -0.53118 0
M  V30 628 H 56.6138 -2.53934 -3.03865 0
M  V30 629 H 57.7878 -4.50612 -0.963622 0
M  V30 630 H 56.1028 -4.03591 -1.02484 0
M  V30 631 H 58.6998 -3.76849 -3.79327 0
M  V30 632 H 59.0428 -2.06534 -3.61455 0
M  V30 633 H 59.5758 -3.2057 -2.35541 0
M  V30 634 H 56.3148 -6.1956 -2.14068 0
M  V30 635 H 55.8348 -4.97839 -3.34539 0
M  V30 636 H 57.5138 -5.57031 -3.29129 0
M  V30 637 N 57.6459 0.756429 -1.3826 0
M  V30 638 C 58.8759 1.54341 -1.3734 0
M  V30 639 C 59.2839 1.89159 0.0393917 0
M  V30 640 O 58.6269 1.5307 1.01565 0
M  V30 641 C 58.6889 2.87238 -2.16182 0
M  V30 642 C 58.3529 2.74973 -3.65019 0
M  V30 643 C 59.3499 2.44962 -4.58574 0
M  V30 644 C 57.0349 2.92515 -4.08338 0
M  V30 645 C 59.0289 2.32642 -5.93428 0
M  V30 646 C 56.7159 2.79815 -5.43274 0
M  V30 647 C 57.7139 2.49921 -6.35632 0
M  V30 648 O 57.4019 2.37275 -7.68086 0
M  V30 649 H 57.1339 0.484281 -0.471643 0
M  V30 650 H 59.6879 0.944152 -1.82414 0
M  V30 651 H 57.9179 3.49342 -1.65822 0
M  V30 652 H 59.6069 3.48731 -2.07705 0
M  V30 653 H 60.3729 2.31081 -4.26412 0
M  V30 654 H 56.2519 3.14781 -3.368 0
M  V30 655 H 59.7959 2.0923 -6.65484 0
M  V30 656 H 55.6929 2.93269 -5.75034 0
M  V30 657 H 56.4609 2.52509 -7.78577 0
M  V30 658 N 59.124 1.23083 0.984299 0
M  V30 659 C 60.034 1.02515 2.11016 0
M  V30 660 C 61.05 -0.0291702 1.73976 0
M  V30 661 O 62.226 0.165434 2.00719 0
M  V30 662 C 59.291 0.614673 3.41208 0
M  V30 663 C 58.352 1.74359 3.92297 0
M  V30 664 C 57.585 1.35261 5.16275 0
M  V30 665 O 57.808 0.235136 5.69915 0
M  V30 666 O 56.742 2.17227 5.61334 0
M  V30 667 H 60.568 1.96862 2.31255 0
M  V30 668 H 58.153 1.01753 1.09392 0
M  V30 669 H 60.035 0.396518 4.1953 0
M  V30 670 H 58.71 -0.299851 3.22308 0
M  V30 671 H 57.617 2.01635 3.1511 0
M  V30 672 H 58.95 2.63629 4.15645 0
M  V30 673 N 60.6021 -1.18246 1.0419 0
M  V30 674 C 62.0131 -1.69914 0.773698 0
M  V30 675 C 62.3641 -1.83085 -0.705297 0
M  V30 676 O 61.4891 -1.51123 -1.5489 0
M  V30 677 C 62.0841 -3.08619 1.39784 0
M  V30 678 C 60.6431 -3.57494 1.17792 0
M  V30 679 C 59.7901 -2.34013 1.48773 0
M  V30 680 H 62.7411 -1.02904 1.20816 0
M  V30 681 H 62.7621 -3.71958 0.801714 0
M  V30 682 H 62.2741 -2.99001 2.47426 0
M  V30 683 H 60.3751 -3.72406 0.120295 0
M  V30 684 H 60.4881 -4.40852 1.87581 0
M  V30 685 H 58.8521 -2.37986 0.907463 0
M  V30 686 H 59.6351 -2.27013 2.57527 0
M  V30 687 N 62.0802 -0.821533 -1.34494 0
M  V30 688 C 63.3282 -0.408139 -1.97936 0
M  V30 689 C 63.6492 1.03193 -1.65457 0
M  V30 690 O 62.9192 1.71622 -0.944595 0
M  V30 691 H 61.4992 -0.147928 -0.732206 0
M  V30 692 H 64.1612 -1.05067 -1.64155 0
M  V30 693 H 63.2572 -0.52601 -3.07635 0
M  V30 694 N 63.5583 1.46682 -0.576371 0
M  V30 695 C 64.5083 2.27278 0.181288 0
M  V30 696 C 65.4923 1.35497 0.867721 0
M  V30 697 O 66.6843 1.59717 0.762863 0
M  V30 698 C 63.8133 3.21703 1.19841 0
M  V30 699 C 62.8993 4.20969 0.51442 0
M  V30 700 N 63.2903 5.03999 -0.426407 0
M  V30 701 C 61.5883 4.39373 0.765963 0
M  V30 702 C 62.2893 5.75812 -0.825565 0
M  V30 703 N 61.2653 5.43315 -0.176116 0
M  V30 704 H 65.0673 2.88863 -0.541785 0
M  V30 705 H 62.5813 1.57455 -0.397697 0
M  V30 706 H 64.5783 3.78145 1.75533 0
M  V30 707 H 63.2383 2.61677 1.92238 0
M  V30 708 H 64.2493 5.11659 -0.8016 0
M  V30 709 H 60.9263 3.90502 1.47698 0
M  V30 710 H 62.3163 6.52577 -1.59976 0
M  V30 711 N 65.0364 0.313813 1.54444 0
M  V30 712 C 66.4474 -0.176243 1.85866 0
M  V30 713 C 66.7984 -1.52405 1.23561 0
M  V30 714 O 65.9234 -2.09605 0.538016 0
M  V30 715 C 66.5184 -0.32657 3.37222 0
M  V30 716 C 65.0774 -0.760846 3.6863 0
M  V30 717 C 64.2244 0.123247 2.77026 0
M  V30 718 H 67.1754 0.534418 1.49431 0
M  V30 719 H 67.1964 -1.15908 3.62416 0
M  V30 720 H 66.7084 0.654531 3.82541 0
M  V30 721 H 64.8094 -1.75204 3.28838 0
M  V30 722 H 64.9224 -0.571353 4.75681 0
M  V30 723 H 63.2864 -0.399597 2.51546 0
M  V30 724 H 64.0694 1.10094 3.25168 0
M  V30 725 N 66.5145 -1.57545 0.0417849 0
M  V30 726 C 67.4465 -2.07904 -0.964799 0
M  V30 727 C 68.4595 -1.00497 -1.28079 0
M  V30 728 O 69.6485 -1.28087 -1.24322 0
M  V30 729 C 66.7485 -2.49928 -2.28887 0
M  V30 730 C 65.9215 -3.80562 -2.15619 0
M  V30 731 C 64.9805 -4.08999 -3.31069 0
M  V30 732 O 64.0065 -4.79061 -3.0739 0
M  V30 733 N 65.2085 -3.6017 -4.55256 0
M  V30 734 H 67.9735 -2.94886 -0.535029 0
M  V30 735 H 65.5345 -1.61252 -0.144681 0
M  V30 736 H 67.5265 -2.66034 -3.04972 0
M  V30 737 H 66.0965 -1.68245 -2.63463 0
M  V30 738 H 65.3165 -3.74129 -1.24183 0
M  V30 739 H 66.6045 -4.66126 -2.03971 0
M  V30 740 H 66.0025 -3.03512 -4.77386 0
M  V30 741 H 64.5595 -3.81532 -5.28466 0
M  V30 742 N 67.9926 0.231505 -1.5589 0
M  V30 743 C 68.9556 1.27028 -1.90779 0
M  V30 744 C 69.9556 1.40308 -0.785507 0
M  V30 745 O 71.1456 1.38744 -1.05336 0
M  V30 746 C 68.2776 2.64566 -2.14983 0
M  V30 747 H 69.4706 0.973017 -2.83677 0
M  V30 748 H 67.0236 0.471486 -1.49019 0
M  V30 749 H 67.7586 2.99406 -1.24604 0
M  V30 750 H 67.5436 2.56305 -2.96732 0
M  V30 751 H 69.0336 3.39543 -2.43105 0
M  V30 752 N 69.4707 1.49531 0.497807 0
M  V30 753 C 70.7477 1.49682 1.25915 0
M  V30 754 C 71.1277 0.226339 2.09883 0
M  V30 755 O 70.4757 -0.791189 2.14365 0
M  V30 756 C 70.6857 2.77755 2.11313 0
M  V30 757 C 72.0337 3.27371 2.70395 0
M  V30 758 O 73.0577 2.78894 2.21578 0
M  V30 759 O 71.9167 4.11808 3.59272 0
M  V30 760 H 69.0107 0.599228 0.56996 0
M  V30 761 H 71.5567 1.61798 0.511816 0
M  V30 762 H 70.3287 3.61713 1.49264 0
M  V30 763 H 69.9517 2.68515 2.93233 0
M  V30 764 N 70.9488 -0.749086 1.3866 0
M  V30 765 C 71.8588 -1.89358 1.38494 0
M  V30 766 C 72.8748 -1.71708 0.281476 0
M  V30 767 O 74.0508 -1.94554 0.520643 0
M  V30 768 C 71.1158 -3.24782 1.21316 0
M  V30 769 C 70.1768 -3.54926 2.41508 0
M  V30 770 C 69.4098 -4.83888 2.2514 0
M  V30 771 O 69.6328 -5.56592 1.24746 0
M  V30 772 O 68.5668 -5.13612 3.13826 0
M  V30 773 H 72.3928 -1.92452 2.34938 0
M  V30 774 H 69.9778 -0.894981 1.19626 0
M  V30 775 H 71.8598 -4.05739 1.13814 0
M  V30 776 H 70.5348 -3.2249 0.279592 0
M  V30 777 H 69.4418 -2.74112 2.54585 0
M  V30 778 H 70.7748 -3.61983 3.3351 0
M  V30 779 N 72.4269 -1.23603 -0.977757 0
M  V30 780 C 73.3749 -1.01704 -2.09187 0
M  V30 781 C 74.3689 0.0448214 -1.69341 0
M  V30 782 O 75.5749 -0.108902 -1.7967 0
M  V30 783 H 71.9499 -0.311803 -0.684312 0
M  V30 784 H 73.9209 -1.96207 -2.24823 0
M  V30 785 C 72.6699 -0.627746 -3.41986 0
M  V30 786 H 71.9929 -1.43656 -3.73099 0
M  V30 787 H 73.4329 -0.514053 -4.20872 0
M  V30 788 C 71.8919 0.664238 -3.30287 0
M  V30 789 O 72.4219 1.71268 -3.6336 0
M  V30 790 N 70.6279 0.641156 -2.83439 0
M  V30 791 H 70.1749 -0.212376 -2.56723 0
M  V30 792 H 70.1329 1.50583 -2.75993 0
M  V30 793 N 73.905 1.17692 -1.04816 0
M  V30 794 C 75.153 1.87488 -0.754497 0
M  V30 795 C 75.474 1.81205 0.720407 0
M  V30 796 O 74.744 1.23544 1.52032 0
M  V30 797 H 73.324 0.694101 -0.276102 0
M  V30 798 H 75.986 1.42793 -1.32651 0
M  V30 799 H 75.082 2.93328 -1.06606 0
M  V30 800 N 75.3831 0.828654 1.34056 0
M  V30 801 C 76.6301 0.419458 1.98108 0
M  V30 802 C 76.9581 -1.01886 1.65679 0
M  V30 803 O 76.2131 -1.72539 0.923512 0
M  V30 804 C 76.5121 0.575226 3.52741 0
M  V30 805 C 76.1781 1.98012 4.05095 0
M  V30 806 C 74.8401 2.36442 4.19104 0
M  V30 807 C 77.1921 2.89824 4.33188 0
M  V30 808 C 74.5201 3.66009 4.58535 0
M  V30 809 C 76.8721 4.1886 4.74066 0
M  V30 810 C 75.5361 4.5726 4.86281 0
M  V30 811 H 74.8061 0.153491 0.724929 0
M  V30 812 H 77.4531 1.05371 1.59904 0
M  V30 813 H 75.7581 -0.142385 3.91541 0
M  V30 814 H 77.4551 0.239057 4.00287 0
M  V30 815 H 74.0451 1.67162 3.94658 0
M  V30 816 H 78.2291 2.61375 4.21897 0
M  V30 817 H 73.4851 3.95579 4.66184 0
M  V30 818 H 77.6591 4.90086 4.94761 0
M  V30 819 H 75.2861 5.57707 5.16592 0
M  V30 820 N 76.8612 -1.46375 0.584142 0
M  V30 821 C 78.2772 -1.57694 0.245929 0
M  V30 822 C 78.4772 -1.57903 -1.25175 0
M  V30 823 O 77.5332 -1.49676 -2.03355 0
M  V30 824 C 78.8462 -2.87028 0.896402 0
M  V30 825 C 80.3942 -3.00662 0.870127 0
M  V30 826 C 80.8692 -4.32734 1.50017 0
M  V30 827 N 82.3602 -4.39436 1.46458 0
M  V30 828 C 83.0952 -5.40248 1.92144 0
M  V30 829 N 82.5912 -6.47726 2.4581 0
M  V30 830 N 84.3842 -5.31459 1.83052 0
M  V30 831 H 76.5352 -1.44483 1.55687 0
M  V30 832 H 78.7982 -0.689291 0.650831 0
M  V30 833 H 78.5042 -2.9269 1.95002 0
M  V30 834 H 78.3782 -3.75014 0.405486 0
M  V30 835 H 80.7652 -2.94581 -0.174871 0
M  V30 836 H 80.8462 -2.14148 1.39908 0
M  V30 837 H 80.4902 -4.39573 2.54437 0
M  V30 838 H 80.4202 -5.18025 0.946432 0
M  V30 839 H 82.9112 -3.62367 1.07231 0
M  V30 840 H 83.2242 -7.20863 2.78525 0
M  V30 841 H 81.5692 -6.48542 2.49836 0
M  V30 842 H 84.7602 -4.46396 1.40883 0
M  V30 843 H 84.9332 -6.09881 2.18973 0
M  V30 844 N 78.3393 -0.321999 -1.54275 0
M  V30 845 C 79.2713 0.578671 -2.21775 0
M  V30 846 C 80.2843 1.08109 -1.21722 0
M  V30 847 O 81.4733 0.994938 -1.482 0
M  V30 848 C 78.5733 1.80661 -2.86731 0
M  V30 849 C 77.7463 1.44314 -4.12907 0
M  V30 850 C 76.8053 2.52845 -4.61472 0
M  V30 851 O 75.8313 2.17054 -5.2619 0
M  V30 852 N 77.0333 3.83748 -4.35566 0
M  V30 853 H 79.7983 0.000709447 -2.997 0
M  V30 854 H 77.3593 -0.145132 -1.61248 0
M  V30 855 H 79.3513 2.52655 -3.16145 0
M  V30 856 H 77.9213 2.29245 -2.12521 0
M  V30 857 H 77.1413 0.554906 -3.90275 0
M  V30 858 H 78.4293 1.17598 -4.95023 0
M  V30 859 H 77.8273 4.15625 -3.83761 0
M  V30 860 H 76.3843 4.51977 -4.69638 0
M  V30 861 N 79.8174 1.5752 -0.0501392 0
M  V30 862 C 81.0944 1.83996 0.663685 0
M  V30 863 C 81.4744 0.938339 1.89099 0
M  V30 864 O 80.8224 -0.00087759 2.285 0
M  V30 865 C 81.0324 3.33702 1.02196 0
M  V30 866 C 82.3804 4.00691 1.40469 0
M  V30 867 O 83.4044 3.38321 1.11433 0
M  V30 868 O 82.2634 5.10658 1.94654 0
M  V30 869 H 79.3574 0.759385 0.32751 0
M  V30 870 H 81.9034 1.69514 -0.0794238 0
M  V30 871 H 80.6754 3.91015 0.149364 0
M  V30 872 H 80.2984 3.53368 1.82255 0
M  V30 873 N 81.2955 -0.223234 1.56011 0
M  V30 874 C 82.5415 -0.949279 1.79211 0
M  V30 875 C 82.8745 -1.84054 0.619494 0
M  V30 876 O 82.1495 -1.90726 -0.381317 0
M  V30 877 C 82.4325 -1.78965 3.12479 0
M  V30 878 C 82.2855 -0.924997 4.40186 0
M  V30 879 C 83.6045 -2.76774 3.42175 0
M  V30 880 H 80.7235 -0.343676 0.651963 0
M  V30 881 H 83.3655 -0.218253 1.88742 0
M  V30 882 H 81.5155 -2.41291 3.04485 0
M  V30 883 H 83.1875 -0.318615 4.60198 0
M  V30 884 H 81.4305 -0.230344 4.33188 0
M  V30 885 H 82.1015 -1.54735 5.29869 0
M  V30 886 H 84.5775 -2.24584 3.50287 0
M  V30 887 H 83.4535 -3.32678 4.36597 0
M  V30 888 H 83.7145 -3.54429 2.64258 0
M  V30 889 N 82.7736 -1.49793 -0.48987 0
M  V30 890 C 84.0226 -1.59085 -1.23995 0
M  V30 891 C 84.3356 -0.287907 -1.9347 0
M  V30 892 O 85.5416 -0.259506 -2.70257 0
M  V30 893 C 83.9976 -2.80736 -2.252 0
M  V30 894 C 83.6056 -4.17833 -1.61614 0
M  V30 895 C 85.3496 -2.99364 -3.00967 0
M  V30 896 C 83.2566 -5.30693 -2.60996 0
M  V30 897 H 82.1866 -0.592372 -0.466488 0
M  V30 898 H 84.8376 -1.76197 -0.51252 0
M  V30 899 H 83.2196 -2.57142 -3.01154 0
M  V30 900 H 84.3936 -4.51608 -0.915774 0
M  V30 901 H 82.7086 -4.04656 -0.981977 0
M  V30 902 H 85.3056 -3.80851 -3.75308 0
M  V30 903 H 85.6486 -2.10356 -3.59244 0
M  V30 904 H 86.1816 -3.2305 -2.32128 0
M  V30 905 H 82.9206 -6.21796 -2.07485 0
M  V30 906 H 82.4406 -5.01359 -3.2924 0
M  V30 907 H 84.1196 -5.6049 -3.23202 0
M  V30 908 N 84.2517 0.741722 -1.39055 0
M  V30 909 C 85.1617 1.88621 -1.39496 0
M  V30 910 C 86.1777 1.71557 -0.290578 0
M  V30 911 O 87.3537 1.94275 -0.530954 0
M  V30 912 C 84.4187 3.24134 -1.23037 0
M  V30 913 C 83.4797 3.5364 -2.43387 0
M  V30 914 C 82.7127 4.82687 -2.27703 0
M  V30 915 O 82.9357 5.55922 -1.27696 0
M  V30 916 O 81.8697 5.1194 -3.16545 0
M  V30 917 H 85.6957 1.91203 -2.35956 0
M  V30 918 H 83.2807 0.888625 -1.20099 0
M  V30 919 H 85.1627 4.0513 -1.15964 0
M  V30 920 H 83.8377 3.22337 -0.296691 0
M  V30 921 H 82.7447 2.72758 -2.56035 0
M  V30 922 H 84.0777 3.60209 -3.35425 0
M  V30 923 N 85.7298 1.2412 0.971189 0
M  V30 924 C 86.6598 1.05508 2.08304 0
M  V30 925 C 87.6408 -0.0308864 1.70072 0
M  V30 926 O 88.8258 0.135521 1.93727 0
M  V30 927 C 85.9558 0.655365 3.4106 0
M  V30 928 C 84.9098 1.68971 3.93234 0
M  V30 929 C 84.2358 1.14516 5.22293 0
M  V30 930 C 85.5358 3.08487 4.21465 0
M  V30 931 H 87.2298 1.98507 2.24132 0
M  V30 932 H 84.7758 0.955821 1.07704 0
M  V30 933 H 86.7288 0.51217 4.18276 0
M  V30 934 H 85.4528 -0.31032 3.25122 0
M  V30 935 H 84.1118 1.82106 3.18171 0
M  V30 936 H 83.7598 0.170189 5.02712 0
M  V30 937 H 83.4598 1.83635 5.58168 0
M  V30 938 H 84.9838 1.01401 6.02121 0
M  V30 939 H 86.3978 2.98601 4.89398 0
M  V30 940 H 84.7948 3.74926 4.68562 0
M  V30 941 H 85.8648 3.56787 3.28376 0
M  V30 942 N 87.2079 -1.17134 1.05439 0
M  V30 943 C 88.4539 -1.87733 0.767077 0
M  V30 944 C 88.7869 -1.8098 -0.704253 0
M  V30 945 O 88.0619 -1.21951 -1.5152 0
M  V30 946 C 88.3449 -3.37659 1.25133 0
M  V30 947 C 88.1979 -3.53149 2.78578 0
M  V30 948 C 89.5169 -4.31768 0.852324 0
M  V30 949 H 86.6359 -0.681687 0.280129 0
M  V30 950 H 89.2779 -1.37732 1.30881 0
M  V30 951 H 87.4279 -3.80373 0.790469 0
M  V30 952 H 89.0999 -3.19434 3.32806 0
M  V30 953 H 87.3429 -2.95345 3.17732 0
M  V30 954 H 88.0139 -4.58403 3.07523 0
M  V30 955 H 90.4899 -3.96909 1.24911 0
M  V30 956 H 89.3659 -5.35199 1.21873 0
M  V30 957 H 89.6269 -4.41429 -0.243485 0
M  V30 958 N 88.686 -0.835752 -1.33615 0
M  V30 959 C 89.633 -0.26473 -2.29277 0
M  V30 960 C 90.603 0.617712 -1.54187 0
M  V30 961 O 91.788 0.556641 -1.825 0
M  V30 962 C 88.928 0.556777 -3.40579 0
M  V30 963 C 88.041 -0.349339 -4.30585 0
M  V30 964 C 87.176 0.482969 -5.29 0
M  V30 965 C 86.215 -0.421732 -6.10645 0
M  V30 966 N 85.352 0.372262 -7.01112 0
M  V30 967 H 90.192 -1.08582 -2.77514 0
M  V30 968 H 87.729 -0.546927 -1.36554 0
M  V30 969 H 89.687 1.04852 -4.03809 0
M  V30 970 H 88.317 1.34286 -2.93542 0
M  V30 971 H 87.369 -0.959372 -3.68104 0
M  V30 972 H 88.681 -1.04445 -4.87742 0
M  V30 973 H 87.835 1.03866 -5.97743 0
M  V30 974 H 86.574 1.21153 -4.72412 0
M  V30 975 H 85.579 -0.989464 -5.40823 0
M  V30 976 H 86.804 -1.14861 -6.69316 0
M  V30 977 H 84.75 1.08426 -6.46977 0
M  V30 978 H 84.667 -0.264198 -7.55538 0
M  V30 979 H 85.935 0.910293 -7.74167 0
M  V30 980 N 90.1641 1.46063 -0.591896 0
M  V30 981 C 91.0741 2.34192 0.13831 0
M  V30 982 C 92.0901 1.50305 0.876608 0
M  V30 983 O 93.2661 1.8315 0.837728 0
M  V30 984 C 90.3311 3.27656 1.13326 0
M  V30 985 C 89.3921 4.27445 0.39863 0
M  V30 986 C 88.6251 5.16443 1.34618 0
M  V30 987 O 88.8481 5.08553 2.58321 0
M  V30 988 O 87.7821 5.95843 0.851768 0
M  V30 989 H 91.6081 2.98002 -0.58552 0
M  V30 990 H 89.1931 1.45188 -0.352239 0
M  V30 991 H 91.0751 3.85291 1.70671 0
M  V30 992 H 89.7501 2.6643 1.83839 0
M  V30 993 H 88.6571 3.73471 -0.216895 0
M  V30 994 H 89.9901 4.91482 -0.265709 0
M  V30 995 N 91.6422 0.330177 1.54103 0
M  V30 996 C 92.5722 -0.525353 2.27513 0
M  V30 997 C 93.5532 -1.11383 1.2856 0
M  V30 998 O 94.7382 -1.13773 1.57383 0
M  V30 999 C 91.8682 -1.6831 3.03791 0
M  V30 1000 C 90.8222 -1.2236 4.10137 0
M  V30 1001 C 90.1482 -2.46882 4.74293 0
M  V30 1002 C 91.4482 -0.333697 5.21233 0
M  V30 1003 H 93.1422 0.087013 2.99274 0
M  V30 1004 H 90.6882 0.0432893 1.43935 0
M  V30 1005 H 92.6412 -2.28795 3.5388 0
M  V30 1006 H 91.3652 -2.32216 2.29659 0
M  V30 1007 H 90.0242 -0.64165 3.60941 0
M  V30 1008 H 89.6722 -3.09165 3.96769 0
M  V30 1009 H 89.3722 -2.16825 5.46133 0
M  V30 1010 H 90.8962 -3.08117 5.27159 0
M  V30 1011 H 92.3102 -0.845013 5.67038 0
M  V30 1012 H 90.7072 -0.125612 5.99969 0
M  V30 1013 H 91.7772 0.633724 4.80741 0
M  V30 1014 N 93.1203 -1.57491 0.0584922 0
M  V30 1015 C 94.0523 -2.08916 -0.942694 0
M  V30 1016 C 95.0653 -1.0185 -1.27006 0
M  V30 1017 O 96.2543 -1.29398 -1.22957 0
M  V30 1018 C 93.3543 -2.52341 -2.26224 0
M  V30 1019 C 92.5273 -3.82827 -2.1157 0
M  V30 1020 C 91.5863 -4.12487 -3.26712 0
M  V30 1021 O 90.6123 -4.82295 -3.02292 0
M  V30 1022 N 91.8143 -3.64978 -4.5141 0
M  V30 1023 H 94.5793 -2.95437 -0.503722 0
M  V30 1024 H 92.1403 -1.61397 -0.12757 0
M  V30 1025 H 94.1323 -2.69254 -3.02133 0
M  V30 1026 H 92.7023 -1.7103 -2.61663 0
M  V30 1027 H 91.9223 -3.75425 -1.20208 0
M  V30 1028 H 93.2103 -4.68263 -1.99015 0
M  V30 1029 H 92.6083 -3.08558 -4.7414 0
M  V30 1030 H 91.1653 -3.87115 -5.2439 0
M  V30 1031 N 94.5984 0.214957 -1.56127 0
M  V30 1032 C 95.8444 0.939762 -1.79712 0
M  V30 1033 C 96.1774 1.83723 -0.629247 0
M  V30 1034 O 95.4524 1.90925 0.371197 0
M  V30 1035 C 95.7354 1.77306 -3.13424 0
M  V30 1036 C 95.5884 0.90164 -4.40671 0
M  V30 1037 C 96.9074 2.74956 -3.43638 0
M  V30 1038 H 94.0264 0.340214 -0.653776 0
M  V30 1039 H 96.6684 0.20824 -1.88855 0
M  V30 1040 H 94.8184 2.39673 -3.0576 0
M  V30 1041 H 96.4904 0.294206 -4.60361 0
M  V30 1042 H 94.7334 0.207368 -4.33304 0
M  V30 1043 H 95.4044 1.51923 -5.30682 0
M  V30 1044 H 97.8804 2.22724 -3.51473 0
M  V30 1045 H 96.7564 3.30358 -4.38355 0
M  V30 1046 H 97.0174 3.53023 -2.66134 0
M  V30 1047 N 96.0765 1.50051 0.48192 0
M  V30 1048 C 97.4875 1.5348 1.06305 0
M  V30 1049 C 97.8385 0.331997 1.93371 0
M  V30 1050 O 96.9635 -0.556256 2.09129 0
M  V30 1051 C 97.5585 2.7813 1.93466 0
M  V30 1052 C 96.1175 2.84275 2.46707 0
M  V30 1053 C 95.2645 2.47637 1.24785 0
M  V30 1054 H 98.2155 1.56472 0.264995 0
M  V30 1055 H 98.2365 2.59372 2.78399 0
M  V30 1056 H 97.7485 3.65654 1.30072 0
M  V30 1057 H 95.8495 2.01077 3.13686 0
M  V30 1058 H 95.9625 3.8691 2.82555 0
M  V30 1059 H 94.3265 1.99835 1.57918 0
M  V30 1060 H 95.1095 3.37457 0.630694 0
M  V30 1061 N 97.5546 -0.734337 1.39446 0
M  V30 1062 C 98.8036 -1.48937 1.36017 0
M  V30 1063 C 99.1166 -1.95557 -0.0409005 0
M  V30 1064 O 100.323 -2.70779 -0.19778 0
M  V30 1065 C 98.7786 -2.69125 2.38955 0
M  V30 1066 C 98.3866 -2.29452 3.8478 0
M  V30 1067 C 100.131 -3.46944 2.44603 0
M  V30 1068 C 98.0376 -3.46366 4.79358 0
M  V30 1069 H 96.9676 -0.559296 0.505672 0
M  V30 1070 H 99.6186 -0.800983 1.65095 0
M  V30 1071 H 98.0006 -3.40041 2.02948 0
M  V30 1072 H 99.1746 -1.66077 4.29831 0
M  V30 1073 H 97.4896 -1.64723 3.82433 0
M  V30 1074 H 100.087 -4.33907 3.12456 0
M  V30 1075 H 100.43 -3.89454 1.47076 0
M  V30 1076 H 100.963 -2.83056 2.79507 0
M  V30 1077 H 97.7016 -3.08905 5.78151 0
M  V30 1078 H 97.2216 -4.08719 4.38986 0
M  V30 1079 H 98.9006 -4.12691 4.98292 0
M  V30 1080 N 99.0327 -1.24633 -0.964593 0
M  V30 1081 C 100.282 -1.08188 -1.7023 0
M  V30 1082 C 100.595 0.37873 -1.91898 0
M  V30 1083 O 101.801 0.663427 -2.6327 0
M  V30 1084 C 100.257 -1.88773 -3.06419 0
M  V30 1085 C 99.8647 -3.39263 -2.92582 0
M  V30 1086 C 101.609 -1.80867 -3.84041 0
M  V30 1087 C 99.5157 -4.1218 -4.24101 0
M  V30 1088 H 98.4457 -0.401245 -0.638372 0
M  V30 1089 H 101.097 -1.48742 -1.07462 0
M  V30 1090 H 99.4787 -1.41035 -3.70034 0
M  V30 1091 H 100.653 -3.94603 -2.37961 0
M  V30 1092 H 98.9677 -3.48154 -2.28424 0
M  V30 1093 H 101.565 -2.32646 -4.81435 0
M  V30 1094 H 101.908 -0.774543 -4.09031 0
M  V30 1095 H 102.441 -2.26301 -3.27159 0
M  V30 1096 H 99.1797 -5.15965 -4.04303 0
M  V30 1097 H 98.6997 -3.61626 -4.78526 0
M  V30 1098 H 100.379 -4.19349 -4.92702 0
M  V30 1099 N 100.511 1.16574 -1.06058 0
M  V30 1100 C 101.927 1.3904 -0.783585 0
M  V30 1101 C 102.127 1.91784 0.618145 0
M  V30 1102 O 101.183 2.11511 1.37911 0
M  V30 1103 C 102.496 2.37329 -1.84649 0
M  V30 1104 C 104.044 2.51018 -1.86973 0
M  V30 1105 C 104.519 3.52588 -2.92311 0
M  V30 1106 N 106.01 3.60113 -2.91329 0
M  V30 1107 C 106.745 4.38486 -3.69482 0
M  V30 1108 N 106.241 5.20302 -4.57447 0
M  V30 1109 N 108.034 4.33446 -3.57885 0
M  V30 1110 H 100.185 0.806725 -1.96483 0
M  V30 1111 H 102.448 0.417117 -0.851303 0
M  V30 1112 H 102.154 2.05663 -2.85299 0
M  V30 1113 H 102.028 3.36946 -1.6955 0
M  V30 1114 H 104.415 2.81989 -0.869827 0
M  V30 1115 H 104.496 1.51445 -2.0615 0
M  V30 1116 H 104.14 3.22354 -3.92492 0
M  V30 1117 H 104.07 4.51886 -2.70383 0
M  V30 1118 H 106.561 3.01707 -2.27555 0
M  V30 1119 H 106.874 5.77311 -5.13743 0
M  V30 1120 H 105.219 5.19653 -4.61503 0
M  V30 1121 H 108.41 3.68586 -2.88551 0
M  V30 1122 H 108.583 4.94279 -4.19037 0
M  V30 1123 N 101.989 0.842826 1.3317 0
M  V30 1124 C 103.219 0.453397 2.01564 0
M  V30 1125 C 103.627 -0.951147 1.63554 0
M  V30 1126 O 102.97 -1.63021 0.846746 0
M  V30 1127 C 103.032 0.499013 3.5602 0
M  V30 1128 C 102.696 1.86037 4.1742 0
M  V30 1129 C 103.693 2.82416 4.36506 0
M  V30 1130 C 101.378 2.15428 4.53757 0
M  V30 1131 C 103.372 4.06346 4.91082 0
M  V30 1132 C 101.059 3.39615 5.0804 0
M  V30 1133 C 102.057 4.3489 5.26649 0
M  V30 1134 O 101.745 5.5688 5.79776 0
M  V30 1135 H 101.477 0.177871 0.652179 0
M  V30 1136 H 104.031 1.13808 1.70988 0
M  V30 1137 H 102.261 -0.242467 3.85939 0
M  V30 1138 H 103.95 0.126852 4.05702 0
M  V30 1139 H 104.716 2.6101 4.08777 0
M  V30 1140 H 100.595 1.42061 4.38565 0
M  V30 1141 H 104.139 4.80722 5.05522 0
M  V30 1142 H 100.036 3.60876 5.352 0
M  V30 1143 H 100.804 5.58674 5.98185 0
M  V30 1144 N 103.467 -1.45747 0.599634 0
M  V30 1145 C 104.878 -1.85853 0.177681 0
M  V30 1146 C 105.229 -1.50102 -1.26348 0
M  V30 1147 O 104.354 -0.923905 -1.95686 0
M  V30 1148 C 104.949 -3.37326 0.315688 0
M  V30 1149 C 103.508 -3.76365 -0.0515144 0
M  V30 1150 C 102.655 -2.69722 0.643822 0
M  V30 1151 H 105.606 -1.36661 0.806814 0
M  V30 1152 H 105.627 -3.77778 -0.454321 0
M  V30 1153 H 105.139 -3.63315 1.36468 0
M  V30 1154 H 103.24 -3.55993 -1.09999 0
M  V30 1155 H 103.353 -4.77916 0.336594 0
M  V30 1156 H 101.717 -2.54567 0.0822881 0
M  V30 1157 H 102.5 -2.98549 1.6948 0
M  V30 1158 N 104.945 -0.338344 -1.53925 0
M  V30 1159 C 106.193 0.259245 -2.0043 0
M  V30 1160 C 106.514 1.51484 -1.22791 0
M  V30 1161 O 105.784 1.93037 -0.33368 0
M  V30 1162 H 104.364 0.0987845 -0.740439 0
M  V30 1163 H 107.026 -0.458302 -1.89435 0
M  V30 1164 H 106.122 0.505334 -3.07982 0
M  V30 1165 N 106.423 1.57458 -0.0668435 0
M  V30 1166 C 107.671 1.92919 0.602214 0
M  V30 1167 C 107.992 0.947215 1.70449 0
M  V30 1168 O 107.262 -0.00544117 1.95899 0
M  V30 1169 H 105.842 0.71217 0.22544 0
M  V30 1170 H 108.504 1.94508 -0.123535 0
M  V30 1171 H 107.6 2.94589 1.03073 0
M  V30 1172 N 107.901 -0.206675 1.56239 0
M  V30 1173 C 108.849 -1.27571 1.94495 0
M  V30 1174 C 109.843 -1.47737 0.828862 0
M  V30 1175 O 111.049 -1.48735 1.0138 0
M  V30 1176 H 107.424 -0.428029 0.6183 0
M  V30 1177 H 109.395 -0.925961 2.8367 0
M  V30 1178 C 108.144 -2.61568 2.29079 0
M  V30 1179 H 107.467 -2.46863 3.14482 0
M  V30 1180 H 108.907 -3.35144 2.5972 0
M  V30 1181 C 107.366 -3.17695 1.12123 0
M  V30 1182 O 107.896 -3.99801 0.390153 0
M  V30 1183 N 106.102 -2.76276 0.901097 0
M  V30 1184 H 105.649 -2.09613 1.49733 0
M  V30 1185 H 105.607 -3.1417 0.120319 0
M  V30 1186 N 109.379 -1.50304 -0.473955 0
M  V30 1187 C 110.626 -1.6115 -1.22625 0
M  V30 1188 C 110.954 -0.310517 -1.92005 0
M  V30 1189 O 110.209 0.703419 -1.82621 0
M  V30 1190 C 110.508 -2.73938 -2.29549 0
M  V30 1191 C 110.174 -4.14519 -1.7744 0
M  V30 1192 C 108.836 -4.5277 -1.62949 0
M  V30 1193 C 111.188 -5.02392 -1.3875 0
M  V30 1194 C 108.516 -5.76639 -1.08187 0
M  V30 1195 C 110.868 -6.26805 -0.854309 0
M  V30 1196 C 109.532 -6.63861 -0.696011 0
M  V30 1197 H 108.802 -0.589691 -0.448715 0
M  V30 1198 H 111.449 -1.84228 -0.522705 0
M  V30 1199 H 109.754 -2.44937 -3.05799 0
M  V30 1200 H 111.451 -2.79534 -2.87509 0
M  V30 1201 H 108.041 -3.8434 -1.89685 0
M  V30 1202 H 112.225 -4.73474 -1.4878 0
M  V30 1203 H 107.481 -6.04027 -0.946666 0
M  V30 1204 H 111.655 -6.94258 -0.545843 0
M  V30 1205 H 109.282 -7.59722 -0.26952 0
M  V30 1206 N 110.857 0.726932 -1.39834 0
M  V30 1207 C 112.103 1.48884 -1.377 0
M  V30 1208 C 112.436 1.94185 0.0244852 0
M  V30 1209 O 111.711 1.67361 0.990986 0
M  V30 1210 C 111.994 2.72288 -2.3565 0
M  V30 1211 C 111.847 2.32956 -3.84775 0
M  V30 1212 C 113.166 3.74414 -2.31306 0
M  V30 1213 H 110.285 0.540062 -0.5015 0
M  V30 1214 H 112.927 0.830547 -1.70886 0
M  V30 1215 H 111.077 3.28457 -2.07481 0
M  V30 1216 H 112.749 1.82356 -4.23726 0
M  V30 1217 H 110.992 1.65088 -4.01159 0
M  V30 1218 H 111.663 3.21362 -4.4881 0
M  V30 1219 H 114.139 3.27849 -2.56231 0
M  V30 1220 H 113.015 4.58414 -3.01907 0
M  V30 1221 H 113.276 4.21909 -1.32081 0
M  V30 1222 N 112.336 1.25143 0.95797 0
M  V30 1223 C 113.561 1.12521 1.74223 0
M  V30 1224 C 113.986 -0.317402 1.85403 0
M  V30 1225 O 113.344 -1.2299 1.33204 0
M  V30 1226 C 113.392 1.78062 3.1357 0
M  V30 1227 O 112.496 1.058 3.98598 0
M  V30 1228 H 111.837 0.39304 0.535178 0
M  V30 1229 H 114.367 1.65641 1.201 0
M  V30 1230 H 114.377 1.84213 3.64046 0
M  V30 1231 H 113.052 2.83021 3.04749 0
M  V30 1232 H 111.629 1.07506 3.57067 0
M  V30 1233 N 113.814 -1.1601 1.06675 0
M  V30 1234 C 115.062 -1.86264 0.784229 0
M  V30 1235 C 115.383 -1.82328 -0.691488 0
M  V30 1236 O 114.653 -1.25947 -1.50047 0
M  V30 1237 H 113.233 -0.689621 0.28711 0
M  V30 1238 H 115.895 -1.40664 1.34906 0
M  V30 1239 H 114.991 -2.91595 1.11259 0
M  V30 1240 N 115.292 -0.849877 -1.32721 0
M  V30 1241 C 116.522 -0.46408 -2.0132 0
M  V30 1242 C 116.93 0.94246 -1.64056 0
M  V30 1243 O 116.273 1.6257 -0.855379 0
M  V30 1244 C 116.335 -0.517887 -3.5575 0
M  V30 1245 C 115.999 -1.88248 -4.16427 0
M  V30 1246 C 116.996 -2.84726 -4.35002 0
M  V30 1247 C 114.681 -2.17832 -4.52609 0
M  V30 1248 C 116.675 -4.08945 -4.8892 0
M  V30 1249 C 114.362 -3.42304 -5.06232 0
M  V30 1250 C 115.36 -4.37677 -5.24335 0
M  V30 1251 O 115.048 -5.59946 -5.76815 0
M  V30 1252 H 114.78 -0.181327 -0.651227 0
M  V30 1253 H 117.334 -1.14713 -1.70382 0
M  V30 1254 H 115.564 0.221997 -3.86062 0
M  V30 1255 H 117.253 -0.148366 -4.05629 0
M  V30 1256 H 118.019 -2.63174 -4.07388 0
M  V30 1257 H 113.898 -1.44385 -4.37806 0
M  V30 1258 H 117.442 -4.83396 -5.02966 0
M  V30 1259 H 113.339 -3.63709 -5.33278 0
M  V30 1260 H 114.107 -5.61838 -5.95214 0
M  V30 1261 N 116.77 1.45427 -0.607355 0
M  V30 1262 C 117.718 2.32269 0.12411 0
M  V30 1263 C 118.712 1.45955 0.859854 0
M  V30 1264 O 119.918 1.6244 0.775447 0
M  V30 1265 H 116.293 0.749691 0.0588839 0
M  V30 1266 H 118.264 2.91743 -0.626762 0
M  V30 1267 C 117.013 3.29567 1.1082 0
M  V30 1268 H 116.336 3.95978 0.551492 0
M  V30 1269 H 117.776 3.93061 1.58995 0
M  V30 1270 C 116.235 2.56722 2.18164 0
M  V30 1271 O 116.765 2.34842 3.25902 0
M  V30 1272 N 114.971 2.16861 1.93442 0
M  V30 1273 H 114.518 2.34855 1.05834 0
M  V30 1274 H 114.476 1.68444 2.65469 0
M  V30 1275 N 118.248 0.346503 1.53744 0
M  V30 1276 C 119.494 -0.242135 2.01954 0
M  V30 1277 C 119.849 -1.47962 1.22984 0
M  V30 1278 O 119.142 -1.89077 0.309924 0
M  V30 1279 C 119.336 -0.605809 3.52228 0
M  V30 1280 C 119.165 0.594882 4.45748 0
M  V30 1281 C 117.935 1.1011 4.93157 0
M  V30 1282 C 120.133 1.45425 4.93311 0
M  V30 1283 N 118.115 2.26381 5.70636 0
M  V30 1284 C 119.486 2.46383 5.68942 0
M  V30 1285 C 121.541 1.47935 4.75415 0
M  V30 1286 C 120.244 3.49684 6.28581 0
M  V30 1287 C 122.27 2.50119 5.35905 0
M  V30 1288 C 121.632 3.49803 6.11406 0
M  V30 1289 H 117.731 -0.0518296 0.780281 0
M  V30 1290 H 120.315 0.486736 1.88518 0
M  V30 1291 H 118.486 -1.30378 3.65864 0
M  V30 1292 H 120.218 -1.17789 3.87179 0
M  V30 1293 H 116.973 0.668721 4.68855 0
M  V30 1294 H 117.397 2.85094 6.14044 0
M  V30 1295 H 122.039 0.722274 4.16585 0
M  V30 1296 H 119.757 4.26285 6.86518 0
M  V30 1297 H 123.343 2.52892 5.23963 0
M  V30 1298 H 122.223 4.27576 6.5738 0
M  V30 1299 N 119.726 -1.57421 0.075193 0
M  V30 1300 C 120.636 -2.1642 -0.905511 0
M  V30 1301 C 121.652 -1.12828 -1.32461 0
M  V30 1302 O 122.828 -1.45109 -1.39661 0
M  V30 1303 C 119.893 -2.71693 -2.15369 0
M  V30 1304 C 118.954 -3.90171 -1.79068 0
M  V30 1305 C 118.187 -4.42798 -2.97936 0
M  V30 1306 O 118.41 -3.94416 -4.12058 0
M  V30 1307 O 117.344 -5.34085 -2.77555 0
M  V30 1308 H 121.17 -3.00588 -0.433626 0
M  V30 1309 H 118.755 -1.48664 -0.148067 0
M  V30 1310 H 120.637 -3.07104 -2.88557 0
M  V30 1311 H 119.312 -1.90582 -2.61649 0
M  V30 1312 H 118.219 -3.59606 -1.03122 0
M  V30 1313 H 119.552 -4.72584 -1.37569 0
M  V30 1314 N 121.204 0.198386 -1.56346 0
M  V30 1315 C 122.481 0.944982 -1.71258 0
M  V30 1316 C 122.861 2.0151 -0.629048 0
M  V30 1317 O 122.209 2.25639 0.360473 0
M  V30 1318 C 122.419 1.5344 -3.1346 0
M  V30 1319 C 123.767 2.01778 -3.73591 0
M  V30 1320 O 124.791 1.63288 -3.16568 0
M  V30 1321 O 123.65 2.72594 -4.73661 0
M  V30 1322 H 120.744 0.442939 -0.69838 0
M  V30 1323 H 123.29 0.188342 -1.68652 0
M  V30 1324 H 122.062 0.762869 -3.83792 0
M  V30 1325 H 121.685 2.35596 -3.20282 0
M  V30 1326 N 122.682 1.50554 0.465978 0
M  V30 1327 C 123.93 1.61479 1.21528 0
M  V30 1328 C 124.251 0.319596 1.92363 0
M  V30 1329 O 123.521 -0.663194 1.84333 0
M  V30 1330 H 122.101 0.595055 0.451573 0
M  V30 1331 H 124.763 1.87355 0.53704 0
M  V30 1332 H 123.859 2.42846 1.96042 0
M  V30 1333 N 124.16 -0.719506 1.40217 0
M  V30 1334 C 125.406 -1.48152 1.38488 0
M  V30 1335 C 125.739 -1.94195 -0.0141867 0
M  V30 1336 O 125.014 -1.67884 -0.982096 0
M  V30 1337 C 125.297 -2.71035 2.37091 0
M  V30 1338 C 125.15 -2.30912 3.86005 0
M  V30 1339 C 126.469 -3.73182 2.33288 0
M  V30 1340 H 123.588 -0.537395 0.504357 0
M  V30 1341 H 126.23 -0.821472 1.71324 0
M  V30 1342 H 124.38 -3.27352 2.0922 0
M  V30 1343 H 126.052 -1.80107 4.24687 0
M  V30 1344 H 124.295 -1.62958 4.02029 0
M  V30 1345 H 124.966 -3.18978 4.50508 0
M  V30 1346 H 127.442 -3.26485 2.57966 0
M  V30 1347 H 126.318 -4.56806 3.04334 0
M  V30 1348 H 126.579 -4.21202 1.34317 0
M  V30 1349 N 125.638 -1.25649 -0.95132 0
M  V30 1350 C 126.886 -1.10375 -1.69298 0
M  V30 1351 C 127.207 0.355339 -1.91735 0
M  V30 1352 O 126.477 1.25188 -1.50681 0
M  V30 1353 H 125.057 -0.405461 -0.627384 0
M  V30 1354 H 127.719 -1.57823 -1.14358 0
M  V30 1355 H 126.815 -1.61465 -2.67087 0
M  V30 1356 N 127.117 1.15442 -1.07289 0
M  V30 1357 C 128.528 1.67803 -0.818475 0
M  V30 1358 C 128.879 1.8489 0.656507 0
M  V30 1359 O 128.004 1.55176 1.50829 0
M  V30 1360 C 128.599 3.04805 -1.47917 0
M  V30 1361 C 127.158 3.54245 -1.27229 0
M  V30 1362 C 126.305 2.29986 -1.54925 0
M  V30 1363 H 129.256 0.996646 -1.23502 0
M  V30 1364 H 129.277 3.69702 -0.90005 0
M  V30 1365 H 128.789 2.92336 -2.55267 0
M  V30 1366 H 126.89 3.71956 -0.21899 0
M  V30 1367 H 127.003 4.35723 -1.99203 0
M  V30 1368 H 125.367 2.35496 -0.970242 0
M  V30 1369 H 126.15 2.20105 -2.63455 0
M  V30 1370 N 128.595 0.856903 1.32268 0
M  V30 1371 C 129.542 0.301172 2.28827 0
M  V30 1372 C 130.512 -0.593104 1.5515 0
M  V30 1373 O 131.697 -0.527537 1.83362 0
M  V30 1374 C 128.837 -0.502523 3.41422 0
M  V30 1375 C 127.95 0.417797 4.29975 0
M  V30 1376 C 127.085 -0.398749 5.29701 0
M  V30 1377 C 126.124 0.518827 6.09897 0
M  V30 1378 N 125.261 -0.260674 7.01616 0
M  V30 1379 H 130.101 1.12983 2.75751 0
M  V30 1380 H 127.638 0.568582 1.35667 0
M  V30 1381 H 129.596 -0.984141 4.05426 0
M  V30 1382 H 128.226 -1.29599 2.95642 0
M  V30 1383 H 127.278 1.01781 3.66531 0
M  V30 1384 H 128.59 1.12191 4.86019 0
M  V30 1385 H 127.744 -0.943435 5.9932 0
M  V30 1386 H 126.483 -1.13622 4.7428 0
M  V30 1387 H 125.488 1.07538 5.39181 0
M  V30 1388 H 126.713 1.25495 6.67404 0
M  V30 1389 H 124.659 -0.981198 6.4862 0
M  V30 1390 H 124.576 0.384364 7.55022 0
M  V30 1391 H 125.844 -0.787014 7.75517 0
M  V30 1392 N 130.073 -1.45103 0.615059 0
M  V30 1393 C 130.983 -2.34382 -0.101034 0
M  V30 1394 C 131.999 -1.51681 -0.852585 0
M  V30 1395 O 133.175 -1.8446 -0.808484 0
M  V30 1396 C 130.24 -3.29417 -1.08099 0
M  V30 1397 C 129.301 -4.28025 -0.330577 0
M  V30 1398 C 128.534 -5.1852 -1.26385 0
M  V30 1399 O 128.757 -5.12598 -2.50198 0
M  V30 1400 O 127.691 -5.97122 -0.756866 0
M  V30 1401 H 131.517 -2.97033 0.632855 0
M  V30 1402 H 129.102 -1.4461 0.375293 0
M  V30 1403 H 130.984 -3.87958 -1.6452 0
M  V30 1404 H 129.659 -2.69321 -1.79577 0
M  V30 1405 H 128.566 -3.73078 0.276283 0
M  V30 1406 H 129.899 -4.90997 0.343866 0
M  V30 1407 N 131.551 -0.354651 -1.53558 0
M  V30 1408 C 132.483 0.5315 -2.22952 0
M  V30 1409 C 133.496 1.05503 -1.23988 0
M  V30 1410 O 134.685 0.963279 -1.50277 0
M  V30 1411 C 131.785 1.74538 -2.90499 0
M  V30 1412 C 130.958 1.35524 -4.15875 0
M  V30 1413 C 130.017 2.42999 -4.66731 0
M  V30 1414 O 129.043 2.05844 -5.30676 0
M  V30 1415 N 130.245 3.74423 -4.43608 0
M  V30 1416 H 133.01 -0.0628615 -2.99634 0
M  V30 1417 H 130.571 -0.179302 -1.60904 0
M  V30 1418 H 132.563 2.45892 -3.21433 0
M  V30 1419 H 131.133 2.24686 -2.17336 0
M  V30 1420 H 130.353 0.471998 -3.91364 0
M  V30 1421 H 131.641 1.07071 -4.97406 0
M  V30 1422 H 131.039 4.07391 -3.92491 0
M  V30 1423 H 129.596 4.41913 -4.7912 0
M  V30 1424 N 133.029 1.57378 -0.0835403 0
M  V30 1425 C 134.445 1.57246 0.273109 0
M  V30 1426 C 134.645 1.09385 1.69225 0
M  V30 1427 O 133.701 0.765051 2.40631 0
M  V30 1428 C 135.014 3.00614 0.0720628 0
M  V30 1429 C 136.562 3.12684 0.1407 0
M  V30 1430 C 137.037 4.57989 -0.0322094 0
M  V30 1431 N 138.528 4.63194 0.0230085 0
M  V30 1432 C 139.263 5.73335 -0.0861941 0
M  V30 1433 N 138.759 6.9235 -0.24958 0
M  V30 1434 N 140.552 5.62093 -0.0282886 0
M  V30 1435 H 132.703 1.86801 -1.0109 0
M  V30 1436 H 134.966 0.861687 -0.395222 0
M  V30 1437 H 134.672 3.39786 -0.907662 0
M  V30 1438 H 134.546 3.68193 0.81936 0
M  V30 1439 H 136.933 2.73391 1.11092 0
M  V30 1440 H 137.014 2.47719 -0.637896 0
M  V30 1441 H 136.658 4.97973 -0.999247 0
M  V30 1442 H 136.588 5.21 0.765937 0
M  V30 1443 H 139.079 3.77613 0.14722 0
M  V30 1444 H 139.392 7.72117 -0.324733 0
M  V30 1445 H 137.737 6.94415 -0.285097 0
M  V30 1446 H 140.928 4.67997 0.0981408 0
M  V30 1447 H 141.101 6.47895 -0.116845 0
M  V30 1448 N 134.507 -0.190092 1.56449 0
M  V30 1449 C 135.918 -0.754312 1.70784 0
M  V30 1450 C 136.269 -1.83631 0.690951 0
M  V30 1451 O 135.394 -2.15868 -0.151604 0
M  V30 1452 C 135.989 -1.37503 3.09642 0
M  V30 1453 C 134.548 -1.88628 3.25725 0
M  V30 1454 C 133.695 -0.758098 2.66736 0
M  V30 1455 H 136.646 0.0350524 1.58661 0
M  V30 1456 H 136.667 -2.2445 3.0725 0
M  V30 1457 H 136.179 -0.587302 3.83631 0
M  V30 1458 H 134.28 -2.70103 2.56661 0
M  V30 1459 H 134.393 -2.04462 4.3328 0
M  V30 1460 H 132.757 -1.17369 2.26046 0
M  V30 1461 H 133.54 0.0174705 3.43296 0
M  V30 1462 N 135.985 -1.50799 -0.457987 0
M  V30 1463 C 137.401 -1.38515 -0.792819 0
M  V30 1464 C 137.601 -0.451409 -1.96379 0
M  V30 1465 O 136.657 0.10112 -2.52297 0
M  V30 1466 C 137.97 -2.80149 -1.09258 0
M  V30 1467 C 139.518 -2.89156 -1.19825 0
M  V30 1468 C 139.993 -4.31651 -1.53106 0
M  V30 1469 N 141.484 -4.34662 -1.60072 0
M  V30 1470 C 142.219 -5.41928 -1.87354 0
M  V30 1471 N 141.715 -6.59384 -2.12568 0
M  V30 1472 N 143.508 -5.29385 -1.88965 0
M  V30 1473 H 135.659 -2.10073 0.313511 0
M  V30 1474 H 137.922 -0.944803 0.0777862 0
M  V30 1475 H 137.628 -3.50374 -0.305084 0
M  V30 1476 H 137.502 -3.18204 -2.02549 0
M  V30 1477 H 139.889 -2.19141 -1.97639 0
M  V30 1478 H 139.97 -2.54626 -0.244821 0
M  V30 1479 H 139.614 -5.02208 -0.758266 0
M  V30 1480 H 139.544 -4.63678 -2.49621 0
M  V30 1481 H 142.035 -3.49973 -1.42573 0
M  V30 1482 H 142.348 -7.36934 -2.32696 0
M  V30 1483 H 140.693 -6.62535 -2.09933 0
M  V30 1484 H 143.884 -4.36616 -1.68772 0
M  V30 1485 H 144.057 -6.13066 -2.09891 0
M  V30 1486 N 137.463 0.71206 -1.40597 0
M  V30 1487 C 138.879 1.02058 -1.22704 0
M  V30 1488 C 139.079 2.01228 -0.104729 0
M  V30 1489 O 138.135 2.4674 0.53624 0
M  V30 1490 C 139.448 1.56094 -2.57012 0
M  V30 1491 C 140.996 1.6806 -2.64054 0
M  V30 1492 C 141.471 2.25501 -3.9864 0
M  V30 1493 N 142.962 2.32882 -4.004 0
M  V30 1494 C 143.697 2.78317 -5.01325 0
M  V30 1495 N 143.193 3.23478 -6.12645 0
M  V30 1496 N 144.986 2.77733 -4.88693 0
M  V30 1497 H 137.137 0.0547896 -2.12329 0
M  V30 1498 H 139.4 0.0869027 -0.944008 0
M  V30 1499 H 139.106 0.906865 -3.39807 0
M  V30 1500 H 138.98 2.54564 -2.78347 0
M  V30 1501 H 141.367 2.32583 -1.81629 0
M  V30 1502 H 141.448 0.681802 -2.46546 0
M  V30 1503 H 141.092 1.61598 -4.81506 0
M  V30 1504 H 141.022 3.26102 -4.13479 0
M  V30 1505 H 143.513 2.00991 -3.20017 0
M  V30 1506 H 143.826 3.56725 -6.85542 0
M  V30 1507 H 142.171 3.21429 -6.16205 0
M  V30 1508 H 145.362 2.4179 -4.00818 0
M  V30 1509 H 145.535 3.12826 -5.67489 0
M  V30 1510 N 138.941 1.26152 0.944643 0
M  V30 1511 C 139.871 1.09902 2.06019 0
M  V30 1512 C 140.852 0.00519538 1.70099 0
M  V30 1513 O 142.037 0.176583 1.93396 0
M  V30 1514 C 139.167 0.727562 3.39594 0
M  V30 1515 C 138.121 1.77274 3.89561 0
M  V30 1516 C 137.447 1.25569 5.19747 0
M  V30 1517 C 138.747 3.17357 4.14827 0
M  V30 1518 H 140.441 2.03217 2.19871 0
M  V30 1519 H 137.987 0.978452 1.05652 0
M  V30 1520 H 139.94 0.600777 4.17095 0
M  V30 1521 H 138.664 -0.241287 3.25707 0
M  V30 1522 H 137.323 1.88814 3.14237 0
M  V30 1523 H 136.971 0.276783 5.02238 0
M  V30 1524 H 136.671 1.95433 5.54148 0
M  V30 1525 H 138.195 1.1415 5.99835 0
M  V30 1526 H 139.609 3.08914 4.82954 0
M  V30 1527 H 138.006 3.84781 4.60504 0
M  V30 1528 H 139.076 3.63673 3.20734 0
M  V30 1529 N 140.419 -1.14872 1.07899 0
M  V30 1530 C 141.696 -1.81928 0.71845 0
M  V30 1531 C 142.076 -1.95417 -0.798455 0
M  V30 1532 O 141.424 -1.50997 -1.715 0
M  V30 1533 C 141.634 -3.17937 1.43935 0
M  V30 1534 C 142.982 -3.93501 1.59506 0
M  V30 1535 O 144.006 -3.27509 1.40058 0
M  V30 1536 O 142.865 -5.1183 1.91551 0
M  V30 1537 H 139.959 -0.78628 0.256305 0
M  V30 1538 H 142.505 -1.21934 1.18026 0
M  V30 1539 H 141.277 -3.0325 2.47295 0
M  V30 1540 H 140.9 -3.85619 0.968687 0
M  V30 1541 N 141.898 -0.863906 -1.31812 0
M  V30 1542 C 142.828 -0.330843 -2.31144 0
M  V30 1543 C 143.809 0.575005 -1.60087 0
M  V30 1544 O 144.994 0.493304 -1.8783 0
M  V30 1545 C 142.124 0.47374 -3.44054 0
M  V30 1546 C 141.078 -0.338481 -4.26659 0
M  V30 1547 C 140.404 0.591412 -5.31419 0
M  V30 1548 C 141.704 -1.56926 -4.98168 0
M  V30 1549 H 143.398 -1.16086 -2.75979 0
M  V30 1550 H 140.944 -0.559657 -1.32679 0
M  V30 1551 H 142.897 0.857143 -4.12591 0
M  V30 1552 H 141.621 1.33721 -2.9797 0
M  V30 1553 H 140.28 -0.703754 -3.59782 0
M  V30 1554 H 139.928 1.45199 -4.81587 0
M  V30 1555 H 139.628 0.0519022 -5.87577 0
M  V30 1556 H 141.152 0.97179 -6.02817 0
M  V30 1557 H 142.566 -1.25764 -5.59336 0
M  V30 1558 H 140.963 -2.04739 -5.64094 0
M  V30 1559 H 142.033 -2.32544 -4.25501 0
M  V30 1560 N 143.376 1.44774 -0.622745 0
M  V30 1561 C 144.339 2.29069 0.0774015 0
M  V30 1562 C 145.339 1.4059 0.780461 0
M  V30 1563 O 146.529 1.62551 0.626322 0
M  V30 1564 C 143.661 3.21974 1.12006 0
M  V30 1565 H 144.854 2.92459 -0.663901 0
M  V30 1566 H 142.407 1.51548 -0.382486 0
M  V30 1567 H 143.142 2.63417 1.89162 0
M  V30 1568 H 142.927 3.87168 0.619951 0
M  V30 1569 H 144.417 3.85318 1.60995 0
M  V30 1570 N 144.854 0.36279 1.53368 0
M  V30 1571 C 146.1 -0.220702 2.02199 0
M  V30 1572 C 146.455 -1.46649 1.24546 0
M  V30 1573 O 145.748 -1.88737 0.32996 0
M  V30 1574 C 145.942 -0.568417 3.52851 0
M  V30 1575 C 145.771 0.642126 4.45092 0
M  V30 1576 C 144.541 1.15335 4.91961 0
M  V30 1577 C 146.739 1.50649 4.91741 0
M  V30 1578 N 144.721 2.3242 5.68202 0
M  V30 1579 C 146.092 2.52404 5.66297 0
M  V30 1580 C 148.147 1.52969 4.73819 0
M  V30 1581 C 146.85 3.56331 6.24836 0
M  V30 1582 C 148.876 2.55789 5.33222 0
M  V30 1583 C 148.238 3.56268 6.07662 0
M  V30 1584 H 144.337 -0.0435508 0.780786 0
M  V30 1585 H 146.921 0.506704 1.87991 0
M  V30 1586 H 145.092 -1.2649 3.67226 0
M  V30 1587 H 146.824 -1.13676 3.88407 0
M  V30 1588 H 143.579 0.718412 4.68119 0
M  V30 1589 H 144.003 2.91591 6.10986 0
M  V30 1590 H 148.645 0.766418 4.15795 0
M  V30 1591 H 146.363 4.33543 6.81958 0
M  V30 1592 H 149.949 2.58435 5.21251 0
M  V30 1593 H 148.829 4.34524 6.52808 0
M  V30 1594 N 146.332 -1.57332 0.0918853 0
M  V30 1595 C 147.279 -2.13847 -0.868211 0
M  V30 1596 C 148.249 -1.05618 -1.28196 0
M  V30 1597 O 149.434 -1.33387 -1.36427 0
M  V30 1598 C 146.574 -2.72062 -2.12312 0
M  V30 1599 C 145.687 -3.94514 -1.7602 0
M  V30 1600 C 144.822 -4.40903 -2.96273 0
M  V30 1601 C 143.861 -5.55953 -2.56092 0
M  V30 1602 N 142.998 -5.97209 -3.69169 0
M  V30 1603 H 147.838 -2.95575 -0.379406 0
M  V30 1604 H 145.375 -1.46048 -0.175606 0
M  V30 1605 H 147.333 -3.03931 -2.858 0
M  V30 1606 H 145.963 -1.93068 -2.58698 0
M  V30 1607 H 145.015 -3.68979 -0.925135 0
M  V30 1608 H 146.327 -4.7802 -1.42472 0
M  V30 1609 H 145.481 -4.74539 -3.78018 0
M  V30 1610 H 144.22 -3.56291 -3.33029 0
M  V30 1611 H 143.225 -5.21948 -1.72773 0
M  V30 1612 H 144.45 -6.42311 -2.20484 0
M  V30 1613 H 142.396 -5.15543 -4.05649 0
M  V30 1614 H 142.313 -6.75504 -3.39456 0
M  V30 1615 H 143.581 -6.35475 -4.51434 0
M  V30 1616 N 147.81 0.181792 -1.56548 0
M  V30 1617 C 149.035 0.920019 -1.85877 0
M  V30 1618 C 149.46 1.75494 -0.677021 0
M  V30 1619 O 148.818 1.77399 0.374056 0
M  V30 1620 C 148.866 1.78112 -3.13542 0
M  V30 1621 O 147.97 2.88152 -2.95029 0
M  V30 1622 H 147.311 0.258334 -0.611686 0
M  V30 1623 H 149.841 0.183092 -2.03779 0
M  V30 1624 H 149.851 2.18314 -3.44678 0
M  V30 1625 H 148.526 1.16777 -3.99169 0
M  V30 1626 H 147.103 2.51609 -2.75222 0
M  V30 1627 N 149.288 1.51039 0.449983 0
M  V30 1628 C 150.534 1.63322 1.20223 0
M  V30 1629 C 150.867 0.34241 1.91158 0
M  V30 1630 O 150.142 -0.657344 1.83055 0
M  V30 1631 C 150.425 2.82801 2.22925 0
M  V30 1632 C 150.278 4.21823 1.56157 0
M  V30 1633 C 151.597 2.97807 3.24035 0
M  V30 1634 H 148.716 0.594407 0.435718 0
M  V30 1635 H 151.358 1.83489 0.493136 0
M  V30 1636 H 149.508 2.65738 2.834 0
M  V30 1637 H 151.18 4.50526 0.991162 0
M  V30 1638 H 149.423 4.25105 0.864172 0
M  V30 1639 H 150.094 5.01391 2.30891 0
M  V30 1640 H 152.57 3.13497 2.73603 0
M  V30 1641 H 151.446 3.82992 3.93202 0
M  V30 1642 H 151.707 2.09328 3.89402 0
M  V30 1643 N 150.766 -0.704594 1.40972 0
M  V30 1644 C 151.676 -1.84856 1.44448 0
M  V30 1645 C 152.692 -1.70726 0.335961 0
M  V30 1646 O 153.868 -1.92799 0.582276 0
M  V30 1647 C 150.933 -3.20758 1.31587 0
M  V30 1648 C 149.994 -3.47063 2.52677 0
M  V30 1649 C 149.227 -4.76481 2.4042 0
M  V30 1650 O 149.45 -5.52341 1.42391 0
M  V30 1651 O 148.384 -5.03367 3.30007 0
M  V30 1652 H 152.21 -1.8488 2.40942 0
M  V30 1653 H 149.795 -0.85647 1.22413 0
M  V30 1654 H 151.677 -4.01913 1.26665 0
M  V30 1655 H 150.352 -3.21438 0.382049 0
M  V30 1656 H 149.259 -2.65873 2.63177 0
M  V30 1657 H 150.592 -3.5119 3.44858 0
M  V30 1658 N 152.244 -1.26651 -0.937939 0
M  V30 1659 C 153.472 -1.15173 -1.7188 0
M  V30 1660 C 153.887 0.292668 -1.86518 0
M  V30 1661 O 153.244 1.20014 -1.37488 0
M  V30 1662 C 153.295 -1.81925 -3.12387 0
M  V30 1663 O 153.016 -3.2072 -2.98446 0
M  V30 1664 C 154.517 -1.76442 -4.06673 0
M  V30 1665 H 151.737 -0.400911 -0.538063 0
M  V30 1666 H 154.281 -1.67332 -1.1756 0
M  V30 1667 H 152.436 -1.33696 -3.63599 0
M  V30 1668 H 152.85 -3.53802 -3.872 0
M  V30 1669 H 154.324 -2.27781 -5.02812 0
M  V30 1670 H 154.801 -0.731608 -4.33064 0
M  V30 1671 H 155.407 -2.24238 -3.61382 0
M  V30 1672 N 153.722 1.14298 -1.08507 0
M  V30 1673 C 154.67 2.21483 -0.710483 0
M  V30 1674 C 155.664 1.66998 0.284234 0
M  V30 1675 O 156.87 1.79401 0.146692 0
M  V30 1676 H 153.245 0.721578 -0.211729 0
M  V30 1677 H 155.216 2.50348 -1.62384 0
M  V30 1678 C 153.965 3.4743 -0.137007 0
M  V30 1679 H 153.288 3.89686 -0.893592 0
M  V30 1680 H 154.728 4.2391 0.0872789 0
M  V30 1681 C 153.187 3.17548 1.12538 0
M  V30 1682 O 153.717 3.35437 2.21009 0
M  V30 1683 N 151.923 2.71499 1.03617 0
M  V30 1684 H 151.47 2.57143 0.153403 0
M  V30 1685 H 151.428 2.51881 1.88158 0
M  V30 1686 N 155.201 0.870884 1.31352 0
M  V30 1687 C 156.111 0.330783 2.32256 0
M  V30 1688 C 157.127 -0.559767 1.6475 0
M  V30 1689 O 158.303 -0.456263 1.96164 0
M  V30 1690 C 155.368 -0.458137 3.4366 0
M  V30 1691 C 154.429 0.460482 4.26823 0
M  V30 1692 C 153.662 -0.290881 5.32907 0
M  V30 1693 O 153.885 -1.51885 5.49806 0
M  V30 1694 O 152.819 0.351732 6.00871 0
M  V30 1695 H 156.645 1.16718 2.80376 0
M  V30 1696 H 154.23 0.634285 1.35267 0
M  V30 1697 H 156.112 -0.905343 4.1156 0
M  V30 1698 H 154.787 -1.27106 2.97701 0
M  V30 1699 H 153.694 0.956207 3.61673 0
M  V30 1700 H 155.027 1.23903 4.7635 0
M  V30 1701 N 156.679 -1.44442 0.630414 0
M  V30 1702 C 157.928 -2.01267 0.132073 0
M  V30 1703 C 158.241 -1.50172 -1.25331 0
M  V30 1704 O 159.447 -1.9912 -1.84562 0
M  V30 1705 C 157.903 -3.59422 0.185362 0
M  V30 1706 C 157.511 -4.19514 1.57201 0
M  V30 1707 C 159.255 -4.23724 -0.256553 0
M  V30 1708 C 157.162 -5.69891 1.58045 0
M  V30 1709 H 156.092 -0.752619 0.0456092 0
M  V30 1710 H 158.743 -1.65666 0.789106 0
M  V30 1711 H 157.125 -3.92318 -0.538759 0
M  V30 1712 H 158.299 -3.98156 2.31966 0
M  V30 1713 H 156.614 -3.67496 1.95795 0
M  V30 1714 H 159.211 -5.34019 -0.269767 0
M  V30 1715 H 159.554 -3.96013 -1.28372 0
M  V30 1716 H 160.087 -3.95629 0.41505 0
M  V30 1717 H 156.826 -6.02336 2.58597 0
M  V30 1718 H 156.346 -5.93373 0.875725 0
M  V30 1719 H 158.025 -6.33515 1.31408 0
M  V30 1720 N 158.157 -0.370918 -1.53173 0
M  V30 1721 C 159.405 0.216673 -2.00935 0
M  V30 1722 C 159.726 1.48845 -1.25977 0
M  V30 1723 O 158.996 1.92286 -0.374551 0
M  V30 1724 H 157.576 0.0830565 -0.742368 0
M  V30 1725 H 160.238 -0.49838 -1.8842 0
M  V30 1726 H 159.334 0.439893 -3.08984 0
M  V30 1727 N 159.635 1.57281 -0.100228 0
M  V30 1728 C 160.565 2.17328 0.853857 0
M  V30 1729 C 161.546 1.10804 1.2906 0
M  V30 1730 O 162.731 1.38963 1.35657 0
M  V30 1731 C 159.861 2.75772 2.11109 0
M  V30 1732 C 158.815 3.87713 1.81279 0
M  V30 1733 C 158.141 4.32882 3.13874 0
M  V30 1734 C 159.441 5.10677 1.09574 0
M  V30 1735 H 161.135 2.97305 0.353545 0
M  V30 1736 H 158.681 1.43009 0.168612 0
M  V30 1737 H 160.634 3.16433 2.78296 0
M  V30 1738 H 159.358 1.93057 2.63432 0
M  V30 1739 H 158.017 3.476 1.16489 0
M  V30 1740 H 157.665 3.47051 3.64095 0
M  V30 1741 H 157.365 5.08358 2.94696 0
M  V30 1742 H 158.889 4.7618 3.82211 0
M  V30 1743 H 160.303 5.48474 1.66879 0
M  V30 1744 H 158.7 5.91615 1.00557 0
M  V30 1745 H 159.77 4.84835 0.0793299 0
M  V30 1746 N 161.113 -0.173488 1.56642 0
M  V30 1747 C 162.061 -1.23417 1.97157 0
M  V30 1748 C 163.055 -1.45946 0.860013 0
M  V30 1749 O 164.261 -1.46551 1.04512 0
M  V30 1750 H 160.636 -0.414818 0.62724 0
M  V30 1751 H 162.607 -0.865582 2.8557 0
M  V30 1752 C 161.356 -2.5665 2.34576 0
M  V30 1753 H 160.679 -2.40137 3.19647 0
M  V30 1754 H 162.119 -3.2956 2.6677 0
M  V30 1755 C 160.578 -3.15245 1.18836 0
M  V30 1756 O 161.108 -3.98883 0.474869 0
M  V30 1757 N 159.314 -2.74303 0.959497 0
M  V30 1758 H 158.861 -2.0639 1.54146 0
M  V30 1759 H 158.819 -3.13844 0.186932 0
M  V30 1760 N 162.591 -1.51276 -0.441967 0
M  V30 1761 C 163.501 -1.75092 -1.56141 0
M  V30 1762 C 164.517 -0.634963 -1.62001 0
M  V30 1763 O 165.693 -0.916686 -1.79329 0
M  V30 1764 C 162.758 -1.86666 -2.92158 0
M  V30 1765 C 161.819 -3.10506 -2.96453 0
M  V30 1766 C 161.052 -3.21519 -4.25982 0
M  V30 1767 O 161.275 -2.38586 -5.18105 0
M  V30 1768 O 160.209 -4.14465 -4.36466 0
M  V30 1769 H 164.035 -2.70044 -1.38961 0
M  V30 1770 H 161.62 -1.35722 -0.624499 0
M  V30 1771 H 163.502 -1.96292 -3.72891 0
M  V30 1772 H 162.177 -0.949014 -3.09476 0
M  V30 1773 H 161.084 -3.06363 -2.14692 0
M  V30 1774 H 162.417 -4.01945 -2.84079 0
M  V30 1775 N 164.069 0.697108 -1.41344 0
M  V30 1776 C 165.316 1.45714 -1.40619 0
M  V30 1777 C 165.644 1.94494 -0.0147907 0
M  V30 1778 O 164.899 1.69794 0.973066 0
M  V30 1779 C 165.198 2.68553 -2.35826 0
M  V30 1780 C 164.864 2.38438 -3.82698 0
M  V30 1781 C 163.526 2.29936 -4.22709 0
M  V30 1782 C 165.878 2.13567 -4.75435 0
M  V30 1783 C 163.206 1.94656 -5.53467 0
M  V30 1784 C 165.558 1.79797 -6.06511 0
M  V30 1785 C 164.222 1.69789 -6.45545 0
M  V30 1786 H 163.492 0.533206 -0.51456 0
M  V30 1787 H 166.139 0.796901 -1.74131 0
M  V30 1788 H 164.444 3.39503 -1.95563 0
M  V30 1789 H 166.141 3.2669 -2.32539 0
M  V30 1790 H 162.731 2.4595 -3.51008 0
M  V30 1791 H 166.915 2.19082 -4.45328 0
M  V30 1792 H 162.171 1.8546 -5.82593 0
M  V30 1793 H 166.345 1.59572 -6.77872 0
M  V30 1794 H 163.972 1.4222 -7.46778 0
M  V30 1795 N 165.547 1.27147 0.931209 0
M  V30 1796 C 166.48 1.0389 2.0318 0
M  V30 1797 C 167.458 -0.0395716 1.62552 0
M  V30 1798 O 168.642 0.104867 1.88208 0
M  V30 1799 C 165.769 0.575227 3.3378 0
M  V30 1800 C 164.815 1.64774 3.93385 0
M  V30 1801 S 165.648 3.23933 4.26413 0
M  V30 1802 C 166.804 2.79358 5.60098 0
M  V30 1803 H 167.037 1.97075 2.22596 0
M  V30 1804 H 164.57 1.10938 1.07387 0
M  V30 1805 H 166.528 0.314385 4.09294 0
M  V30 1806 H 165.189 -0.336505 3.12292 0
M  V30 1807 H 164.382 1.27454 4.87618 0
M  V30 1808 H 163.984 1.86048 3.24441 0
M  V30 1809 H 166.276 2.24443 6.39243 0
M  V30 1810 H 167.219 3.72322 6.02314 0
M  V30 1811 H 167.627 2.1861 5.20452 0
M  V30 1812 N 167.025 -1.13721 1.09112 0
M  V30 1813 C 168.302 -1.81155 0.737706 0
M  V30 1814 C 168.682 -1.96253 -0.777683 0
M  V30 1815 O 168.03 -1.52807 -1.69889 0
M  V30 1816 C 168.24 -3.16392 1.47299 0
M  V30 1817 C 169.588 -3.91787 1.63671 0
M  V30 1818 O 170.612 -3.26005 1.43524 0
M  V30 1819 O 169.471 -5.0977 1.96969 0
M  V30 1820 H 166.565 -0.783518 0.26463 0
M  V30 1821 H 169.111 -1.20676 1.19312 0
M  V30 1822 H 167.883 -3.0061 2.50498 0
M  V30 1823 H 167.506 -3.8457 1.00953 0
M  V30 1824 N 168.503 -0.877838 -1.30888 0
M  V30 1825 C 169.749 -0.502773 -1.97088 0
M  V30 1826 C 170.104 0.936274 -1.68082 0
M  V30 1827 O 169.397 1.65162 -0.971196 0
M  V30 1828 C 169.591 -0.705748 -3.50363 0
M  V30 1829 C 169.42 -2.16297 -3.94266 0
M  V30 1830 C 168.19 -2.80614 -4.20219 0
M  V30 1831 C 170.388 -3.13606 -4.07622 0
M  V30 1832 N 168.37 -4.17007 -4.50532 0
M  V30 1833 C 169.741 -4.35051 -4.41736 0
M  V30 1834 C 171.796 -3.09491 -3.90026 0
M  V30 1835 C 170.499 -5.52911 -4.60089 0
M  V30 1836 C 172.525 -4.26616 -4.09576 0
M  V30 1837 C 171.887 -5.46825 -4.44029 0
M  V30 1838 H 167.986 -0.233168 -0.746429 0
M  V30 1839 H 170.57 -1.13408 -1.58261 0
M  V30 1840 H 168.741 -0.103976 -3.88261 0
M  V30 1841 H 170.473 -0.298291 -4.03599 0
M  V30 1842 H 167.228 -2.3152 -4.13153 0
M  V30 1843 H 167.652 -4.87426 -4.69834 0
M  V30 1844 H 172.294 -2.17657 -3.62471 0
M  V30 1845 H 170.012 -6.45255 -4.86489 0
M  V30 1846 H 173.598 -4.24894 -3.97438 0
M  V30 1847 H 172.478 -6.35947 -4.58848 0
M  V30 1848 N 169.982 1.44106 -0.638065 0
M  V30 1849 C 170.945 2.29138 0.0531013 0
M  V30 1850 C 171.945 1.41409 0.765506 0
M  V30 1851 O 173.135 1.63206 0.609046 0
M  V30 1852 C 170.267 3.23144 1.08584 0
M  V30 1853 H 171.46 2.91739 -0.694883 0
M  V30 1854 H 169.013 1.51134 -0.398538 0
M  V30 1855 H 169.748 2.65408 1.86357 0
M  V30 1856 H 169.533 3.87804 0.578852 0
M  V30 1857 H 171.023 3.87004 1.56899 0
M  V30 1858 N 171.46 0.379036 1.52974 0
M  V30 1859 C 172.407 -0.461048 2.26148 0
M  V30 1860 C 173.377 -1.06637 1.27349 0
M  V30 1861 O 174.562 -1.09633 1.56157 0
M  V30 1862 C 171.702 -1.58782 3.06402 0
M  V30 1863 C 170.815 -1.00636 4.20115 0
M  V30 1864 C 169.95 -2.10334 4.87784 0
M  V30 1865 C 168.989 -1.49724 5.93506 0
M  V30 1866 N 168.126 -2.5331 6.54812 0
M  V30 1867 H 172.966 0.169429 2.97518 0
M  V30 1868 H 170.503 0.0953806 1.4679 0
M  V30 1869 H 172.461 -2.25174 3.51215 0
M  V30 1870 H 171.091 -2.18876 2.37261 0
M  V30 1871 H 170.143 -0.232332 3.7969 0
M  V30 1872 H 171.455 -0.523343 4.96047 0
M  V30 1873 H 170.609 -2.84519 5.35849 0
M  V30 1874 H 169.348 -2.61992 4.11353 0
M  V30 1875 H 168.353 -0.740598 5.44789 0
M  V30 1876 H 169.578 -0.988732 6.71864 0
M  V30 1877 H 167.524 -3.04156 5.81227 0
M  V30 1878 H 167.441 -2.09734 7.26325 0
M  V30 1879 H 168.709 -3.27155 7.07524 0
M  V30 1880 N 172.938 -1.57226 0.108567 0
M  V30 1881 C 173.871 -2.10447 -0.882464 0
M  V30 1882 C 174.849 -1.01829 -1.26766 0
M  V30 1883 O 176.033 -1.29415 -1.37054 0
M  V30 1884 C 173.16 -2.59258 -2.17952 0
M  V30 1885 C 172.206 -3.79662 -1.94318 0
M  V30 1886 S 173.039 -5.22586 -1.16892 0
M  V30 1887 C 174.195 -5.74758 -2.47799 0
M  V30 1888 H 174.428 -2.94178 -0.429745 0
M  V30 1889 H 171.961 -1.54043 -0.105 0
M  V30 1890 H 173.919 -2.88036 -2.92482 0
M  V30 1891 H 172.58 -1.75728 -2.60343 0
M  V30 1892 H 171.773 -4.11928 -2.90399 0
M  V30 1893 H 171.375 -3.51446 -1.27913 0
M  V30 1894 H 173.667 -5.83846 -3.43701 0
M  V30 1895 H 174.61 -6.73027 -2.20093 0
M  V30 1896 H 175.018 -5.02763 -2.56689 0
M  V30 1897 N 174.416 0.165178 -1.56732 0
M  V30 1898 C 175.662 0.882112 -1.82611 0
M  V30 1899 C 175.995 1.81628 -0.687378 0
M  V30 1900 O 175.27 1.92009 0.310267 0
M  V30 1901 C 175.553 1.67245 -3.18906 0
M  V30 1902 C 175.406 0.760987 -4.43316 0
M  V30 1903 C 176.725 2.63884 -3.52212 0
M  V30 1904 H 173.844 0.319242 -0.664269 0
M  V30 1905 H 176.486 0.148052 -1.89422 0
M  V30 1906 H 174.636 2.29824 -3.1323 0
M  V30 1907 H 176.308 0.147596 -4.61064 0
M  V30 1908 H 174.551 0.0694102 -4.33744 0
M  V30 1909 H 175.222 1.34962 -5.35247 0
M  V30 1910 H 177.698 2.11429 -3.58381 0
M  V30 1911 H 176.574 3.16245 -4.48643 0
M  V30 1912 H 176.835 3.44377 -2.77231 0
M  V30 1913 N 175.894 1.51508 0.433938 0
M  V30 1914 C 177.142 1.6402 1.18075 0
M  V30 1915 C 177.463 0.360328 1.91642 0
M  V30 1916 O 176.733 -0.623945 1.85698 0
M  V30 1917 H 175.313 0.6045 0.43885 0
M  V30 1918 H 177.975 1.88452 0.497178 0
M  V30 1919 H 177.071 2.46949 1.90847 0
M  V30 1920 N 177.372 -0.689602 1.41712 0
M  V30 1921 C 178.335 -1.78521 1.43746 0
M  V30 1922 C 179.335 -1.57436 0.327191 0
M  V30 1923 O 180.525 -1.64 0.587348 0
M  V30 1924 C 177.657 -3.16971 1.25467 0
M  V30 1925 H 178.85 -1.78108 2.41283 0
M  V30 1926 H 176.403 -0.89781 1.27942 0
M  V30 1927 H 177.138 -3.23019 0.287948 0
M  V30 1928 H 176.923 -3.33678 2.05917 0
M  V30 1929 H 178.413 -3.96935 1.2974 0
M  V30 1930 N 178.85 -1.27639 -0.924453 0
M  V30 1931 C 179.76 -1.12466 -2.05885 0
M  V30 1932 C 180.776 -0.053869 -1.73917 0
M  V30 1933 O 181.952 -0.261012 -1.99702 0
M  V30 1934 C 179.017 -0.776768 -3.37886 0
M  V30 1935 C 178.078 -1.92878 -3.83532 0
M  V30 1936 C 177.311 -1.59739 -5.09234 0
M  V30 1937 O 177.534 -0.506782 -5.68144 0
M  V30 1938 O 176.468 -2.43761 -5.50331 0
M  V30 1939 H 180.294 -2.07671 -2.21599 0
M  V30 1940 H 177.879 -1.06857 -1.04413 0
M  V30 1941 H 179.761 -0.596229 -4.17161 0
M  V30 1942 H 178.436 0.145732 -3.23372 0
M  V30 1943 H 177.343 -2.1644 -3.0513 0
M  V30 1944 H 178.676 -2.8316 -4.02593 0
M  V30 1945 N 180.328 1.1314 -1.09713 0
M  V30 1946 C 181.574 1.84757 -0.836224 0
M  V30 1947 C 181.907 1.8347 0.636598 0
M  V30 1948 O 181.182 1.27491 1.46889 0
M  V30 1949 C 181.465 3.32782 -1.37578 0
M  V30 1950 C 181.318 3.42567 -2.91493 0
M  V30 1951 C 182.637 4.28307 -1.01198 0
M  V30 1952 H 179.756 0.67082 -0.305236 0
M  V30 1953 H 182.398 1.3278 -1.35903 0
M  V30 1954 H 180.548 3.77177 -0.931097 0
M  V30 1955 H 182.22 3.06862 -3.44432 0
M  V30 1956 H 180.463 2.83349 -3.28475 0
M  V30 1957 H 181.134 4.46674 -3.24324 0
M  V30 1958 H 183.61 3.91999 -1.39556 0
M  V30 1959 H 182.486 5.30307 -1.41653 0
M  V30 1960 H 182.747 4.42029 0.0794833 0
M  V30 1961 N 181.806 0.884767 1.30421 0
M  V30 1962 C 182.754 0.340869 2.30089 0
M  V30 1963 C 183.748 -0.55201 1.60154 0
M  V30 1964 O 184.954 -0.436467 1.74628 0
M  V30 1965 H 181.329 0.0915739 0.746404 0
M  V30 1966 H 183.3 1.19513 2.73421 0
M  V30 1967 C 182.049 -0.429779 3.45034 0
M  V30 1968 H 181.372 0.248024 3.9903 0
M  V30 1969 H 182.812 -0.775445 4.16849 0
M  V30 1970 C 181.271 -1.62677 2.95022 0
M  V30 1971 O 181.801 -2.72614 2.95033 0
M  V30 1972 N 180.007 -1.46387 2.51036 0
M  V30 1973 H 179.554 -0.569506 2.51226 0
M  V30 1974 H 179.512 -2.26612 2.17932 0
M  V30 1975 N 183.284 -1.43765 0.645699 0
M  V30 1976 C 184.217 -2.2798 -0.100072 0
M  V30 1977 C 185.195 -1.39391 -0.837194 0
M  V30 1978 O 186.379 -1.68833 -0.838306 0
M  V30 1979 C 183.506 -3.18643 -1.14823 0
M  V30 1980 C 182.552 -4.2344 -0.510009 0
M  V30 1981 S 183.385 -5.30761 0.710824 0
M  V30 1982 C 184.541 -6.24992 -0.33699 0
M  V30 1983 H 184.774 -2.90884 0.614322 0
M  V30 1984 H 182.307 -1.48166 0.434304 0
M  V30 1985 H 184.265 -3.71424 -1.74799 0
M  V30 1986 H 182.926 -2.54932 -1.8349 0
M  V30 1987 H 182.119 -4.86948 -1.29991 0
M  V30 1988 H 181.721 -3.73997 0.0154577 0
M  V30 1989 H 184.013 -6.66691 -1.20537 0
M  V30 1990 H 184.956 -7.07612 0.262879 0
M  V30 1991 H 185.364 -5.60517 -0.669425 0
M  V30 1992 N 184.763 -0.387143 -1.52771 0
M  V30 1993 C 185.726 0.436939 -2.24997 0
M  V30 1994 C 186.726 0.991991 -1.26555 0
M  V30 1995 O 187.916 0.874335 -1.50669 0
M  V30 1996 C 185.048 1.61281 -3.00335 0
M  V30 1997 H 186.241 -0.195365 -2.99263 0
M  V30 1998 H 183.794 -0.139218 -1.55679 0
M  V30 1999 H 184.529 2.2826 -2.30364 0
M  V30 2000 H 184.314 1.22154 -3.72587 0
M  V30 2001 H 185.804 2.19629 -3.5518 0
M  V30 2002 N 186.241 1.57166 -0.116904 0
M  V30 2003 C 187.487 1.95412 0.542405 0
M  V30 2004 C 187.82 1.00019 1.66463 0
M  V30 2005 O 187.095 0.0370346 1.94465 0
M  V30 2006 C 187.378 3.43615 1.07708 0
M  V30 2007 C 187.231 4.49781 -0.0415868 0
M  V30 2008 C 188.55 3.93616 1.96861 0
M  V30 2009 H 185.669 0.710543 0.195696 0
M  V30 2010 H 188.311 1.89027 -0.192038 0
M  V30 2011 H 186.461 3.49187 1.70296 0
M  V30 2012 H 188.133 4.56308 -0.676793 0
M  V30 2013 H 186.376 4.28033 -0.705019 0
M  V30 2014 H 187.047 5.50733 0.373717 0
M  V30 2015 H 189.523 3.90335 1.44146 0
M  V30 2016 H 188.399 4.97838 2.3119 0
M  V30 2017 H 188.66 3.34188 2.89432 0
M  V30 2018 N 187.719 -0.156864 1.56817 0
M  V30 2019 C 188.667 -1.21319 1.98455 0
M  V30 2020 C 189.661 -1.45025 0.875444 0
M  V30 2021 O 190.867 -1.45435 1.0606 0
M  V30 2022 H 187.242 -0.408142 0.631605 0
M  V30 2023 H 189.213 -0.835244 2.86472 0
M  V30 2024 C 187.962 -2.54148 2.37285 0
M  V30 2025 H 187.285 -2.36733 3.22176 0
M  V30 2026 H 188.725 -3.26712 2.70251 0
M  V30 2027 C 187.184 -3.13967 1.22173 0
M  V30 2028 O 187.714 -3.98357 0.517149 0
M  V30 2029 N 185.92 -2.7327 0.988536 0
M  V30 2030 H 185.467 -2.04744 1.56326 0
M  V30 2031 H 185.425 -3.13628 0.220209 0
M  V30 2032 N 189.197 -1.51736 -0.425897 0
M  V30 2033 C 190.127 -1.76827 -1.52494 0
M  V30 2034 C 191.108 -0.618524 -1.58456 0
M  V30 2035 O 192.293 -0.862416 -1.74 0
M  V30 2036 C 189.423 -1.90374 -2.90474 0
M  V30 2037 C 188.377 -3.0588 -2.99369 0
M  V30 2038 C 187.703 -3.04625 -4.3944 0
M  V30 2039 C 189.003 -4.45644 -2.72394 0
M  V30 2040 H 190.697 -2.68855 -1.31748 0
M  V30 2041 H 188.243 -1.29372 -0.632362 0
M  V30 2042 H 190.196 -2.0651 -3.6733 0
M  V30 2043 H 188.92 -0.95004 -3.12477 0
M  V30 2044 H 187.579 -2.89467 -2.24954 0
M  V30 2045 H 187.227 -2.0701 -4.58428 0
M  V30 2046 H 186.927 -3.82195 -4.46319 0
M  V30 2047 H 188.451 -3.22869 -5.18255 0
M  V30 2048 H 189.865 -4.62348 -3.38979 0
M  V30 2049 H 188.262 -5.25006 -2.9067 0
M  V30 2050 H 189.332 -4.54893 -1.67929 0
M  V30 2051 N 190.675 0.682077 -1.42076 0
M  V30 2052 C 191.923 1.4393 -1.41876 0
M  V30 2053 C 192.244 1.94971 -0.0335599 0
M  V30 2054 O 191.514 1.72591 0.926773 0
M  V30 2055 H 190.094 0.534085 -0.522267 0
M  V30 2056 H 192.756 0.806427 -1.77434 0
M  V30 2057 H 191.852 2.29588 -2.11414 0
M  V30 2058 N 192.153 1.28127 0.917671 0
M  V30 2059 C 193.381 1.17892 1.70026 0
M  V30 2060 C 193.796 -0.262958 1.8696 0
M  V30 2061 O 193.153 -1.17811 1.3938 0
M  V30 2062 C 193.204 1.86872 3.09453 0
M  V30 2063 O 192.925 3.25428 2.93306 0
M  V30 2064 C 194.426 1.8289 4.03815 0
M  V30 2065 H 191.646 0.40942 0.531617 0
M  V30 2066 H 194.19 1.69181 1.14883 0
M  V30 2067 H 192.345 1.39464 3.61426 0
M  V30 2068 H 192.759 3.59918 3.81523 0
M  V30 2069 H 194.233 2.35751 4.99125 0
M  V30 2070 H 194.71 0.800412 4.31845 0
M  V30 2071 H 195.316 2.29959 3.57769 0
M  V30 2072 N 193.631 -1.12557 1.10312 0
M  V30 2073 C 195.047 -1.36036 0.834649 0
M  V30 2074 C 195.247 -1.93946 -0.546539 0
M  V30 2075 O 194.303 -2.16484 -1.29966 0
M  V30 2076 C 195.616 -2.30312 1.9333 0
M  V30 2077 C 197.164 -2.43906 1.9616 0
M  V30 2078 C 197.639 -3.41496 3.05195 0
M  V30 2079 N 199.13 -3.49053 3.04494 0
M  V30 2080 C 199.865 -4.24471 3.85502 0
M  V30 2081 N 199.361 -5.02966 4.76442 0
M  V30 2082 N 201.154 -4.19864 3.73725 0
M  V30 2083 H 193.305 -0.733246 1.99342 0
M  V30 2084 H 195.568 -0.385234 0.866198 0
M  V30 2085 H 195.274 -1.94933 2.92735 0
M  V30 2086 H 195.148 -3.30421 1.81939 0
M  V30 2087 H 197.535 -2.78567 0.973886 0
M  V30 2088 H 197.616 -1.4369 2.11629 0
M  V30 2089 H 197.26 -3.07565 4.04186 0
M  V30 2090 H 197.19 -4.41539 2.86968 0
M  V30 2091 H 199.681 -2.93053 2.38596 0
M  V30 2092 H 199.994 -5.57846 5.34815 0
M  V30 2093 H 198.339 -5.02167 4.80472 0
M  V30 2094 H 201.53 -3.57623 3.02032 0
M  V30 2095 H 201.703 -4.78386 4.37093 0
M  V30 2096 N 195.109 -0.891671 -1.2995 0
M  V30 2097 C 196.357 -0.512486 -1.95494 0
M  V30 2098 C 196.678 0.942776 -1.70695 0
M  V30 2099 O 195.948 1.66374 -1.03424 0
M  V30 2100 H 194.528 -0.186533 -0.723336 0
M  V30 2101 H 197.19 -1.13621 -1.58355 0
M  V30 2102 H 196.286 -0.688342 -3.04415 0
M  V30 2103 N 196.587 1.43421 -0.653314 0
M  V30 2104 C 197.836 2.01032 -0.164076 0
M  V30 2105 C 198.149 1.52147 1.22926 0
M  V30 2106 O 199.355 2.02031 1.81371 0
M  V30 2107 C 197.811 3.59082 -0.24252 0
M  V30 2108 C 197.419 4.1696 -1.63855 0
M  V30 2109 C 199.163 4.24079 0.18911 0
M  V30 2110 C 197.07 5.67304 -1.67092 0
M  V30 2111 H 196 0.751798 -0.0575769 0
M  V30 2112 H 198.651 1.6439 -0.815362 0
M  V30 2113 H 197.033 3.93125 0.476276 0
M  V30 2114 H 198.207 3.94416 -2.38271 0
M  V30 2115 H 196.522 3.64335 -2.01616 0
M  V30 2116 H 199.119 5.34381 0.184775 0
M  V30 2117 H 199.462 3.98005 1.22056 0
M  V30 2118 H 199.995 3.94918 -0.477938 0
M  V30 2119 H 196.734 5.98145 -2.68146 0
M  V30 2120 H 196.254 5.91904 -0.970014 0
M  V30 2121 H 197.933 6.31344 -1.4147 0
M  V30 2122 N 198.065 0.39524 1.52563 0
M  V30 2123 C 199.342 -0.242908 1.94086 0
M  V30 2124 C 199.722 -1.63841 1.33114 0
M  V30 2125 O 199.07 -2.22928 0.501529 0
M  V30 2126 C 199.28 -0.26327 3.48006 0
M  V30 2127 C 200.628 -0.489354 4.21771 0
M  V30 2128 O 201.652 -0.343226 3.54543 0
M  V30 2129 O 200.511 -0.776169 5.4096 0
M  V30 2130 H 197.605 -0.152536 0.812811 0
M  V30 2131 H 200.151 0.450178 1.6362 0
M  V30 2132 H 198.923 0.713985 3.84731 0
M  V30 2133 H 198.546 -1.00103 3.84792 0
M  V30 2134 N 199.544 -1.57102 0.125237 0
M  V30 2135 C 200.507 -2.14471 -0.80838 0
M  V30 2136 C 201.507 -1.0811 -1.19033 0
M  V30 2137 O 202.697 -1.33856 -1.11482 0
M  V30 2138 C 199.829 -2.69005 -2.09402 0
M  V30 2139 H 201.022 -2.98297 -0.309696 0
M  V30 2140 H 198.575 -1.55807 -0.124051 0
M  V30 2141 H 199.31 -1.88785 -2.63687 0
M  V30 2142 H 199.095 -3.46799 -1.82957 0
M  V30 2143 H 200.585 -3.13278 -2.76128 0
M  V30 2144 N 201.022 0.148545 -1.56898 0
M  V30 2145 C 201.985 1.16736 -1.97244 0
M  V30 2146 C 202.985 1.35947 -0.858777 0
M  V30 2147 O 204.175 1.32966 -1.12542 0
M  V30 2148 C 201.307 2.52798 -2.28705 0
M  V30 2149 H 202.5 0.821279 -2.88435 0
M  V30 2150 H 200.053 0.391831 -1.51309 0
M  V30 2151 H 200.788 2.92381 -1.403 0
M  V30 2152 H 200.573 2.40216 -3.09901 0
M  V30 2153 H 202.063 3.26179 -2.60762 0
M  V30 2154 N 202.5 1.5196 0.417844 0
M  V30 2155 C 203.916 1.40569 0.755816 0
M  V30 2156 C 204.116 0.503316 1.95113 0
M  V30 2157 O 203.172 -0.0341925 2.52477 0
M  V30 2158 C 204.485 2.82947 1.01791 0
M  V30 2159 C 206.033 2.92231 1.12116 0
M  V30 2160 C 206.508 4.35559 1.41608 0
M  V30 2161 N 207.999 4.38753 1.48491 0
M  V30 2162 C 208.734 5.46705 1.7292 0
M  V30 2163 N 208.23 6.64788 1.95011 0
M  V30 2164 N 210.023 5.34209 1.74863 0
M  V30 2165 H 202.174 2.09168 -0.369098 0
M  V30 2166 H 204.437 0.942409 -0.102809 0
M  V30 2167 H 204.143 3.5106 0.212081 0
M  V30 2168 H 204.017 3.23462 1.94042 0
M  V30 2169 H 206.404 2.24304 1.9176 0
M  V30 2170 H 206.485 2.55185 0.177225 0
M  V30 2171 H 206.129 5.04042 0.624848 0
M  V30 2172 H 206.059 4.70133 2.37239 0
M  V30 2173 H 208.55 3.5363 1.33244 0
M  V30 2174 H 208.863 7.42845 2.13076 0
M  V30 2175 H 207.208 6.67869 1.92293 0
M  V30 2176 H 210.399 4.40937 1.57137 0
M  V30 2177 H 210.572 6.18415 1.93563 0
M  V30 2178 N 203.978 -0.674533 1.42435 0
M  V30 2179 C 204.926 -1.80934 1.46169 0
M  V30 2180 C 205.92 -1.66006 0.3374 0
M  V30 2181 O 207.126 -1.72611 0.510425 0
M  V30 2182 H 203.501 -0.596594 0.457798 0
M  V30 2183 H 205.472 -1.74903 2.41767 0
M  V30 2184 C 204.221 -3.19088 1.38123 0
M  V30 2185 H 203.544 -3.31203 2.23931 0
M  V30 2186 H 204.984 -3.9851 1.44797 0
M  V30 2187 C 203.443 -3.36763 0.0960517 0
M  V30 2188 O 203.973 -3.92581 -0.851073 0
M  V30 2189 N 202.179 -2.90597 0.0131186 0
M  V30 2190 H 201.726 -2.45359 0.784639 0
M  V30 2191 H 201.684 -3.028 -0.846133 0
M  V30 2192 N 205.456 -1.28612 -0.910864 0
M  V30 2193 C 206.386 -1.15326 -2.03032 0
M  V30 2194 C 207.367 -0.0502924 -1.70026 0
M  V30 2195 O 208.552 -0.227797 -1.92859 0
M  V30 2196 C 205.682 -0.817343 -3.37545 0
M  V30 2197 C 204.636 -1.8754 -3.84724 0
M  V30 2198 C 203.962 -1.39305 -5.16235 0
M  V30 2199 C 205.262 -3.28244 -4.06267 0
M  V30 2200 H 206.956 -2.08975 -2.14406 0
M  V30 2201 H 204.502 -1.00612 -1.03021 0
M  V30 2202 H 206.455 -0.711151 -4.15356 0
M  V30 2203 H 205.179 0.154846 -3.26233 0
M  V30 2204 H 203.838 -1.97079 -3.09121 0
M  V30 2205 H 203.486 -0.409846 -5.01328 0
M  V30 2206 H 203.186 -2.10057 -5.48771 0
M  V30 2207 H 204.71 -1.30014 -5.96598 0
M  V30 2208 H 206.124 -3.21611 -4.74594 0
M  V30 2209 H 204.521 -3.96855 -4.5014 0
M  V30 2210 H 205.591 -3.72048 -3.10979 0
M  V30 2211 N 206.934 1.1197 -1.10907 0
M  V30 2212 C 208.18 1.8386 -0.855773 0
M  V30 2213 C 208.513 1.84134 0.617103 0
M  V30 2214 O 207.788 1.29041 1.45529 0
M  V30 2215 C 208.071 3.31305 -1.411 0
M  V30 2216 C 207.924 3.39456 -2.9511 0
M  V30 2217 C 209.243 4.2721 -1.05736 0
M  V30 2218 H 206.362 0.667545 -0.312334 0
M  V30 2219 H 209.004 1.31331 -1.37303 0
M  V30 2220 H 207.154 3.76169 -0.97105 0
M  V30 2221 H 208.826 3.03191 -3.47668 0
M  V30 2222 H 207.069 2.79849 -3.31462 0
M  V30 2223 H 207.74 4.43209 -3.29044 0
M  V30 2224 H 210.216 3.90497 -1.43706 0
M  V30 2225 H 209.092 5.28775 -1.47269 0
M  V30 2226 H 209.353 4.42088 0.0325958 0
M  V30 2227 N 208.412 0.89855 1.29475 0
M  V30 2228 C 209.322 0.379974 2.31502 0
M  V30 2229 C 210.338 -0.524695 1.659 0
M  V30 2230 O 211.514 -0.414551 1.97087 0
M  V30 2231 C 208.579 -0.385138 3.44554 0
M  V30 2232 C 207.64 0.550914 4.2575 0
M  V30 2233 C 206.873 -0.177778 5.33404 0
M  V30 2234 O 207.096 -1.40189 5.52904 0
M  V30 2235 O 206.03 0.479106 5.9999 0
M  V30 2236 H 209.856 1.22639 2.77837 0
M  V30 2237 H 207.441 0.662834 1.33891 0
M  V30 2238 H 209.323 -0.817841 4.13388 0
M  V30 2239 H 207.998 -1.20763 3.0033 0
M  V30 2240 H 206.905 1.03271 3.59564 0
M  V30 2241 H 208.238 1.33979 4.73614 0
M  V30 2242 N 209.89 -1.43072 0.660911 0
M  V30 2243 C 211.12 -2.05769 0.185153 0
M  V30 2244 C 211.528 -1.49668 -1.15742 0
M  V30 2245 O 210.871 -0.625649 -1.72717 0
M  V30 2246 C 210.933 -3.59489 0.0278237 0
M  V30 2247 C 210.597 -4.38212 1.2969 0
M  V30 2248 C 211.594 -4.69772 2.22734 0
M  V30 2249 C 209.279 -4.7809 1.54063 0
M  V30 2250 C 211.273 -5.40129 3.38437 0
M  V30 2251 C 208.96 -5.4819 2.70058 0
M  V30 2252 C 209.958 -5.79132 3.62071 0
M  V30 2253 O 209.646 -6.47798 4.76039 0
M  V30 2254 H 209.378 -0.669873 0.0908086 0
M  V30 2255 H 211.932 -1.84436 0.90402 0
M  V30 2256 H 210.162 -3.79426 -0.746489 0
M  V30 2257 H 211.851 -4.03862 -0.406275 0
M  V30 2258 H 212.617 -4.39476 2.05149 0
M  V30 2259 H 208.496 -4.53408 0.833215 0
M  V30 2260 H 212.04 -5.64198 4.10277 0
M  V30 2261 H 207.937 -5.77902 2.87574 0
M  V30 2262 H 208.705 -6.66283 4.75404 0
M  V30 2263 N 211.368 -0.403325 -1.52352 0
M  V30 2264 C 212.608 0.173946 -2.03659 0
M  V30 2265 C 212.972 1.42869 -1.28267 0
M  V30 2266 O 214.173 2.08403 -1.69769 0
M  V30 2267 C 212.444 0.421478 -3.54906 0
M  V30 2268 S 214.003 0.967027 -4.28012 0
M  V30 2269 H 210.821 0.0477461 -0.709395 0
M  V30 2270 H 213.423 -0.554906 -1.87459 0
M  V30 2271 H 212.127 -0.498616 -4.0736 0
M  V30 2272 H 211.658 1.17837 -3.75337 0
M  V30 2273 H 213.673 2.24812 -4.4235 0
M  V30 2274 N 212.846 1.57033 -0.133567 0
M  V30 2275 C 213.794 2.17348 0.828412 0
M  V30 2276 C 214.788 1.12671 1.26498 0
M  V30 2277 O 215.994 1.30947 1.23502 0
M  V30 2278 H 212.369 0.695775 0.285309 0
M  V30 2279 H 214.34 2.96935 0.295372 0
M  V30 2280 C 213.089 2.79893 2.06289 0
M  V30 2281 H 212.412 3.60147 1.73592 0
M  V30 2282 H 213.852 3.25615 2.71572 0
M  V30 2283 C 212.311 1.77713 2.86216 0
M  V30 2284 O 212.841 1.23937 3.82103 0
M  V30 2285 N 211.047 1.47321 2.50489 0
M  V30 2286 H 210.594 1.91243 1.7258 0
M  V30 2287 H 210.552 0.79199 3.04261 0
M  V30 2288 N 214.325 -0.140222 1.56975 0
M  V30 2289 C 215.275 -1.17827 1.95194 0
M  V30 2290 C 216.259 -1.38195 0.824075 0
M  V30 2291 O 217.451 -1.39643 1.0876 0
M  V30 2292 C 214.58 -2.51024 2.34184 0
M  V30 2293 C 213.666 -2.3422 3.53556 0
M  V30 2294 N 214.057 -1.87185 4.69889 0
M  V30 2295 C 212.355 -2.64949 3.58773 0
M  V30 2296 C 213.056 -1.83586 5.5197 0
M  V30 2297 N 212.032 -2.2715 4.93866 0
M  V30 2298 H 215.834 -0.806817 2.82609 0
M  V30 2299 H 213.348 -0.348208 1.58623 0
M  V30 2300 H 215.345 -3.26074 2.59772 0
M  V30 2301 H 214.005 -2.88945 1.48124 0
M  V30 2302 H 215.016 -1.57048 4.93514 0
M  V30 2303 H 211.693 -3.067 2.8327 0
M  V30 2304 H 213.083 -1.48655 6.55249 0
M  V30 2305 N 215.803 -1.52179 -0.40978 0
M  V30 2306 C 217.214 -1.58377 -0.988615 0
M  V30 2307 C 217.565 -0.423879 -1.91566 0
M  V30 2308 O 216.69 0.455844 -2.11544 0
M  V30 2309 C 217.285 -2.87044 -1.79976 0
M  V30 2310 C 215.844 -2.95722 -2.32863 0
M  V30 2311 C 214.991 -2.53309 -1.12828 0
M  V30 2312 H 217.942 -1.57558 -0.190039 0
M  V30 2313 H 217.963 -2.7236 -2.65707 0
M  V30 2314 H 217.475 -3.71444 -1.12478 0
M  V30 2315 H 215.576 -2.15814 -3.03735 0
M  V30 2316 H 215.689 -3.99951 -2.63773 0
M  V30 2317 H 214.053 -2.07142 -1.48204 0
M  V30 2318 H 214.836 -3.40082 -0.46897 0
M  V30 2319 N 217.281 0.66697 -1.42791 0
M  V30 2320 C 218.506 1.46004 -1.47301 0
M  V30 2321 C 218.931 1.87894 -0.0880317 0
M  V30 2322 O 218.289 1.56502 0.915253 0
M  V30 2323 C 218.337 2.68031 -2.41229 0
M  V30 2324 O 217.441 3.6659 -1.88906 0
M  V30 2325 H 216.782 0.43832 -0.49877 0
M  V30 2326 H 219.312 0.817391 -1.87563 0
M  V30 2327 H 219.322 3.1601 -2.58073 0
M  V30 2328 H 217.997 2.36883 -3.41847 0
M  V30 2329 H 216.574 3.25661 -1.81656 0
M  V30 2330 N 218.759 1.29093 0.90403 0
M  V30 2331 C 220.007 1.16583 1.65085 0
M  V30 2332 C 220.328 -0.283933 1.92922 0
M  V30 2333 O 219.598 -1.19509 1.55224 0
M  V30 2334 H 218.178 0.428467 0.611903 0
M  V30 2335 H 220.84 1.61959 1.08422 0
M  V30 2336 H 219.936 1.71266 2.6091 0
M  V30 2337 N 220.237 -1.11381 1.11499 0
M  V30 2338 C 221.462 -1.87475 0.887019 0
M  V30 2339 C 221.887 -1.79639 -0.557796 0
M  V30 2340 O 221.245 -1.15924 -1.39396 0
M  V30 2341 C 221.293 -3.34213 1.35403 0
M  V30 2342 O 220.397 -4.0903 0.526146 0
M  V30 2343 H 219.738 -0.582099 0.319463 0
M  V30 2344 H 222.268 -1.40785 1.48461 0
M  V30 2345 H 222.278 -3.8506 1.34881 0
M  V30 2346 H 220.953 -3.39232 2.40612 0
M  V30 2347 H 219.53 -3.68082 0.597522 0
M  V30 2348 N 221.715 -0.905404 -1.28997 0
M  V30 2349 C 222.945 -0.549049 -1.99171 0
M  V30 2350 C 223.353 0.87203 -1.67906 0
M  V30 2351 O 222.696 1.58796 -0.923561 0
M  V30 2352 C 222.758 -0.668306 -3.53234 0
M  V30 2353 C 222.422 -2.0574 -4.08069 0
M  V30 2354 C 223.419 -3.0292 -4.22534 0
M  V30 2355 C 221.104 -2.36833 -4.42962 0
M  V30 2356 C 223.098 -4.29314 -4.71135 0
M  V30 2357 C 220.785 -3.63467 -4.91258 0
M  V30 2358 C 221.783 -4.59522 -5.053 0
M  V30 2359 O 221.471 -5.83907 -5.52546 0
M  V30 2360 H 221.203 -0.208784 -0.64295 0
M  V30 2361 H 223.757 -1.21836 -1.65363 0
M  V30 2362 H 221.987 0.0580547 -3.86656 0
M  V30 2363 H 223.676 -0.320273 -4.04634 0
M  V30 2364 H 224.442 -2.80216 -3.95859 0
M  V30 2365 H 220.321 -1.62824 -4.31288 0
M  V30 2366 H 223.865 -5.04293 -4.8201 0
M  V30 2367 H 219.762 -3.86 -5.17372 0
M  V30 2368 H 220.53 -5.86578 -5.70849 0
M  V30 2369 N 223.193 1.4272 -0.668489 0
M  V30 2370 C 224.423 2.05668 -0.196063 0
M  V30 2371 C 224.831 1.5028 1.14946 0
M  V30 2372 O 224.174 0.6348 1.72383 0
M  V30 2373 C 224.236 3.59469 -0.0468879 0
M  V30 2374 C 223.9 4.37518 -1.32012 0
M  V30 2375 C 224.897 4.68584 -2.25222 0
M  V30 2376 C 222.582 4.77266 -1.56596 0
M  V30 2377 C 224.576 5.38326 -3.41297 0
M  V30 2378 C 222.263 5.4675 -2.72962 0
M  V30 2379 C 223.261 5.77204 -3.65137 0
M  V30 2380 O 222.949 6.45264 -4.79468 0
M  V30 2381 H 222.681 0.669382 -0.0943599 0
M  V30 2382 H 225.235 1.83954 -0.913788 0
M  V30 2383 H 223.465 3.79817 0.726357 0
M  V30 2384 H 225.154 4.04071 0.384852 0
M  V30 2385 H 225.92 4.38382 -2.07477 0
M  V30 2386 H 221.799 4.52959 -0.857249 0
M  V30 2387 H 225.343 5.62014 -4.13263 0
M  V30 2388 H 221.24 5.76369 -2.90635 0
M  V30 2389 H 222.008 6.63753 -4.78931 0
M  V30 2390 N 224.671 0.411399 1.52136 0
M  V30 2391 C 225.896 -0.165538 2.06738 0
M  V30 2392 C 226.321 -1.379 1.27926 0
M  V30 2393 O 225.679 -1.78628 0.310114 0
M  V30 2394 C 225.727 -0.492124 3.57226 0
M  V30 2395 O 224.831 -1.58276 3.80818 0
M  V30 2396 H 224.172 -0.0132132 0.663869 0
M  V30 2397 H 226.702 0.585253 1.96051 0
M  V30 2398 H 226.712 -0.750104 4.01045 0
M  V30 2399 H 225.387 0.394922 4.14021 0
M  V30 2400 H 223.964 -1.31677 3.48877 0
M  V30 2401 N 226.149 -1.5696 0.141893 0
M  V30 2402 C 227.426 -1.87553 -0.555281 0
M  V30 2403 C 227.806 -1.04699 -1.83306 0
M  V30 2404 O 227.154 -0.132346 -2.28116 0
M  V30 2405 C 227.364 -3.39093 -0.825664 0
M  V30 2406 C 228.712 -4.08199 -1.16869 0
M  V30 2407 O 229.736 -3.44242 -0.915185 0
M  V30 2408 O 228.595 -5.21139 -1.6455 0
M  V30 2409 H 225.689 -0.777188 -0.282679 0
M  V30 2410 H 228.235 -1.68763 0.17812 0
M  V30 2411 H 227.007 -3.91221 0.0788633 0
M  V30 2412 H 226.63 -3.63393 -1.61343 0
M  V30 2413 N 227.627 0.131896 -1.57047 0
M  V30 2414 C 228.557 1.16384 -2.02428 0
M  V30 2415 C 229.538 1.43936 -0.90644 0
M  V30 2416 O 230.723 1.54599 -1.17528 0
M  V30 2417 C 227.853 2.49328 -2.4177 0
M  V30 2418 C 226.807 2.36266 -3.56879 0
M  V30 2419 C 226.133 3.74057 -3.8208 0
M  V30 2420 C 227.433 1.834 -4.89042 0
M  V30 2421 H 229.127 0.786433 -2.88887 0
M  V30 2422 H 226.673 0.376855 -1.38981 0
M  V30 2423 H 228.626 3.21759 -2.7212 0
M  V30 2424 H 227.35 2.88934 -1.52266 0
M  V30 2425 H 226.009 1.66286 -3.26718 0
M  V30 2426 H 225.657 4.11125 -2.89803 0
M  V30 2427 H 225.357 3.66174 -4.59554 0
M  V30 2428 H 226.881 4.48012 -4.1487 0
M  V30 2429 H 228.295 2.45636 -5.18011 0
M  V30 2430 H 226.692 1.8637 -5.70426 0
M  V30 2431 H 227.762 0.790662 -4.7841 0
M  V30 2432 N 229.106 1.52395 0.401703 0
M  V30 2433 C 230.522 1.41363 0.740864 0
M  V30 2434 C 230.722 0.523982 1.94568 0
M  V30 2435 O 229.778 -0.00741204 2.52499 0
M  V30 2436 C 231.091 2.84011 0.987847 0
M  V30 2437 C 232.639 2.93404 1.09011 0
M  V30 2438 C 233.114 4.37036 1.3698 0
M  V30 2439 N 234.605 4.40304 1.43829 0
M  V30 2440 C 235.34 5.48508 1.67112 0
M  V30 2441 N 234.836 6.66819 1.87949 0
M  V30 2442 N 236.629 5.36034 1.69187 0
M  V30 2443 H 228.78 2.08765 -0.391262 0
M  V30 2444 H 231.043 0.941265 -0.112798 0
M  V30 2445 H 230.749 3.51265 0.174835 0
M  V30 2446 H 230.623 3.25502 1.906 0
M  V30 2447 H 233.01 2.26325 1.8937 0
M  V30 2448 H 233.091 2.55359 0.15015 0
M  V30 2449 H 232.735 5.04676 0.571353 0
M  V30 2450 H 232.665 4.72623 2.3224 0
M  V30 2451 H 235.156 3.55024 1.29486 0
M  V30 2452 H 235.469 7.45063 2.05185 0
M  V30 2453 H 233.814 6.6987 1.85199 0
M  V30 2454 H 237.005 4.42579 1.52451 0
M  V30 2455 H 237.178 6.20434 1.86993 0
M  V30 2456 N 230.584 -0.659388 1.43143 0
M  V30 2457 C 231.833 -1.41518 1.43721 0
M  V30 2458 C 232.146 -1.95499 0.0628176 0
M  V30 2459 O 233.352 -2.71446 -0.0539683 0
M  V30 2460 C 231.808 -2.5608 2.52885 0
M  V30 2461 C 231.416 -2.08733 3.96402 0
M  V30 2462 C 233.16 -3.3349 2.62649 0
M  V30 2463 C 231.067 -3.20469 4.97045 0
M  V30 2464 H 229.997 -0.531705 0.534608 0
M  V30 2465 H 232.648 -0.712343 1.69109 0
M  V30 2466 H 231.03 -3.28805 2.20688 0
M  V30 2467 H 232.204 -1.43059 4.3803 0
M  V30 2468 H 230.519 -1.44219 3.90627 0
M  V30 2469 H 233.116 -4.16734 3.35017 0
M  V30 2470 H 233.459 -3.8111 1.67513 0
M  V30 2471 H 233.992 -2.67842 2.94118 0
M  V30 2472 H 230.731 -2.77824 5.93712 0
M  V30 2473 H 230.251 -3.84874 4.60034 0
M  V30 2474 H 231.93 -3.85698 5.19467 0
M  V30 2475 N 232.062 -1.29571 -0.897171 0
M  V30 2476 C 233.025 -1.14913 -1.98312 0
M  V30 2477 C 234.025 -0.0838629 -1.60581 0
M  V30 2478 O 235.215 -0.331006 -1.71026 0
M  V30 2479 C 232.347 -0.757835 -3.3237 0
M  V30 2480 H 233.54 -2.11377 -2.12743 0
M  V30 2481 H 231.093 -1.12793 -1.08201 0
M  V30 2482 H 231.828 0.206837 -3.2364 0
M  V30 2483 H 231.613 -1.52755 -3.61121 0
M  V30 2484 H 233.103 -0.678408 -4.12053 0
M  V30 2485 N 233.54 1.10788 -1.12088 0
M  V30 2486 C 234.49 2.15158 -0.754401 0
M  V30 2487 C 235.474 1.59026 0.244846 0
M  V30 2488 O 236.666 1.76927 0.0509097 0
M  V30 2489 C 233.795 3.42677 -0.206657 0
M  V30 2490 C 232.881 4.05751 -1.23398 0
M  V30 2491 N 233.272 4.43582 -2.43041 0
M  V30 2492 C 231.57 4.32764 -1.07848 0
M  V30 2493 C 232.271 4.93085 -3.08613 0
M  V30 2494 N 231.247 4.89664 -2.36072 0
M  V30 2495 H 235.049 2.42195 -1.6649 0
M  V30 2496 H 232.563 1.27872 -1.00112 0
M  V30 2497 H 234.56 4.16834 0.0740646 0
M  V30 2498 H 233.22 3.17101 0.698342 0
M  V30 2499 H 234.231 4.35395 -2.80449 0
M  V30 2500 H 230.908 4.16863 -0.230483 0
M  V30 2501 H 232.298 5.31933 -4.10483 0
M  V30 2502 N 235.018 0.912232 1.28515 0
M  V30 2503 C 236.266 0.543523 1.94654 0
M  V30 2504 C 236.587 -0.9155 1.72173 0
M  V30 2505 O 235.857 -1.64708 1.06058 0
M  V30 2506 H 234.437 0.198017 0.720277 0
M  V30 2507 H 237.099 1.16126 1.56527 0
M  V30 2508 H 236.195 0.736684 3.03281 0
M  V30 2509 N 236.496 -1.42363 0.676048 0
M  V30 2510 C 237.726 -2.05561 0.206967 0
M  V30 2511 C 238.134 -1.50887 -1.14148 0
M  V30 2512 O 237.477 -0.643933 -1.72044 0
M  V30 2513 C 237.539 -3.5944 0.0659508 0
M  V30 2514 C 237.203 -4.36812 1.34331 0
M  V30 2515 C 238.2 -4.67383 2.27704 0
M  V30 2516 C 235.885 -4.76429 1.59125 0
M  V30 2517 C 237.879 -5.36509 3.44147 0
M  V30 2518 C 235.566 -5.45294 2.75857 0
M  V30 2519 C 236.564 -5.75259 3.68193 0
M  V30 2520 O 236.252 -6.42712 4.82883 0
M  V30 2521 H 235.984 -0.668872 0.0979084 0
M  V30 2522 H 238.538 -1.83467 0.923531 0
M  V30 2523 H 236.768 -3.80197 -0.706204 0
M  V30 2524 H 238.457 -4.0427 -0.363418 0
M  V30 2525 H 239.223 -4.37275 2.09799 0
M  V30 2526 H 235.102 -4.52498 0.881258 0
M  V30 2527 H 238.646 -5.59814 4.16238 0
M  V30 2528 H 234.543 -5.7482 2.93688 0
M  V30 2529 H 235.311 -6.61204 4.82444 0
M  V30 2530 N 237.974 -0.419461 -1.51915 0
M  V30 2531 C 238.921 0.400927 -2.27291 0
M  V30 2532 C 239.891 1.03224 -1.30131 0
M  V30 2533 O 241.076 1.05455 -1.59009 0
M  V30 2534 C 238.216 1.50603 -3.10504 0
M  V30 2535 C 237.329 0.89462 -4.22635 0
M  V30 2536 C 236.464 1.97328 -4.93189 0
M  V30 2537 C 235.503 1.33935 -5.97267 0
M  V30 2538 N 234.64 2.3586 -6.61298 0
M  V30 2539 H 239.48 -0.248251 -2.96964 0
M  V30 2540 H 237.017 -0.134266 -1.46486 0
M  V30 2541 H 238.975 2.15783 -3.57062 0
M  V30 2542 H 237.605 2.12509 -2.42981 0
M  V30 2543 H 236.657 0.131583 -3.80172 0
M  V30 2544 H 237.969 0.391641 -4.9726 0
M  V30 2545 H 237.123 2.70211 -5.43204 0
M  V30 2546 H 235.862 2.50994 -4.18155 0
M  V30 2547 H 234.867 0.595896 -5.46561 0
M  V30 2548 H 236.092 0.810252 -6.74249 0
M  V30 2549 H 234.038 2.88639 -5.89087 0
M  V30 2550 H 233.955 1.90403 -7.3163 0
M  V30 2551 H 235.223 3.08282 -7.15949 0
M  V30 2552 N 239.452 1.56882 -0.150215 0
M  V30 2553 C 240.362 2.20494 0.801222 0
M  V30 2554 C 241.378 1.19019 1.26927 0
M  V30 2555 O 242.554 1.51607 1.32579 0
M  V30 2556 C 239.619 2.81659 2.02161 0
M  V30 2557 C 238.68 3.9827 1.60249 0
M  V30 2558 C 237.913 4.56508 2.7647 0
M  V30 2559 O 238.136 4.13627 3.92771 0
M  V30 2560 O 237.07 5.46719 2.51757 0
M  V30 2561 H 240.896 3.02315 0.289717 0
M  V30 2562 H 238.481 1.49202 0.0769684 0
M  V30 2563 H 240.363 3.20522 2.73576 0
M  V30 2564 H 239.038 2.02849 2.52258 0
M  V30 2565 H 237.945 3.64117 0.858477 0
M  V30 2566 H 239.278 4.78609 1.14864 0
M  V30 2567 N 240.93 -0.123565 1.57115 0
M  V30 2568 C 242.341 -0.681198 1.73829 0
M  V30 2569 C 242.692 -1.80535 0.768214 0
M  V30 2570 O 241.817 -2.16317 -0.0599103 0
M  V30 2571 C 242.412 -1.24246 3.15196 0
M  V30 2572 C 240.971 -1.74643 3.33432 0
M  V30 2573 C 240.118 -0.644284 2.69711 0
M  V30 2574 H 243.069 0.102315 1.5837 0
M  V30 2575 H 243.09 -2.11216 3.16493 0
M  V30 2576 H 242.602 -0.424062 3.85776 0
M  V30 2577 H 240.703 -2.58974 2.67886 0
M  V30 2578 H 240.816 -1.85902 4.41562 0
M  V30 2579 H 239.18 -1.07676 2.3082 0
M  V30 2580 H 239.963 0.163058 3.42913 0
M  V30 2581 N 242.408 -1.52605 -0.393616 0
M  V30 2582 C 243.358 -1.73436 -1.48 0
M  V30 2583 C 244.342 -0.588386 -1.49756 0
M  V30 2584 O 245.534 -0.846047 -1.5547 0
M  V30 2585 C 242.663 -1.90247 -2.85764 0
M  V30 2586 C 241.749 -3.10763 -2.88595 0
M  V30 2587 N 242.14 -4.33196 -2.61103 0
M  V30 2588 C 240.438 -3.10914 -3.19763 0
M  V30 2589 C 241.139 -5.1477 -2.70899 0
M  V30 2590 N 240.115 -4.50356 -3.04435 0
M  V30 2591 H 243.917 -2.65727 -1.25563 0
M  V30 2592 H 241.431 -1.5085 -0.601513 0
M  V30 2593 H 243.428 -2.03291 -3.63976 0
M  V30 2594 H 242.088 -0.991663 -3.09186 0
M  V30 2595 H 243.099 -4.61408 -2.35209 0
M  V30 2596 H 239.776 -2.29626 -3.4868 0
M  V30 2597 H 241.166 -6.22355 -2.53227 0
M  V30 2598 N 243.887 0.651787 -1.4349 0
M  V30 2599 C 244.834 1.76462 -1.4876 0
M  V30 2600 C 245.804 1.62641 -0.337189 0
M  V30 2601 O 246.989 1.82864 -0.544544 0
M  V30 2602 C 244.129 3.14623 -1.41796 0
M  V30 2603 C 243.242 3.39568 -2.67053 0
M  V30 2604 C 242.377 4.67585 -2.52068 0
M  V30 2605 C 241.416 4.85639 -3.72587 0
M  V30 2606 N 240.553 6.04915 -3.56402 0
M  V30 2607 H 245.393 1.71293 -2.43849 0
M  V30 2608 H 242.93 0.835889 -1.21043 0
M  V30 2609 H 244.888 3.94496 -1.35753 0
M  V30 2610 H 243.518 3.18859 -0.50288 0
M  V30 2611 H 242.57 2.53783 -2.8337 0
M  V30 2612 H 243.882 3.48795 -3.56572 0
M  V30 2613 H 243.036 5.55586 -2.4374 0
M  V30 2614 H 241.775 4.60681 -1.60075 0
M  V30 2615 H 240.78 3.96073 -3.81321 0
M  V30 2616 H 242.005 4.94372 -4.65589 0
M  V30 2617 H 239.951 5.9914 -2.67146 0
M  V30 2618 H 239.868 6.15106 -4.39524 0
M  V30 2619 H 241.136 6.95533 -3.51929 0
M  V30 2620 N 245.365 1.30045 0.890287 0
M  V30 2621 C 246.614 1.17929 1.63633 0
M  V30 2622 C 246.927 -0.266204 1.9378 0
M  V30 2623 O 248.133 -0.508804 2.6669 0
M  V30 2624 C 246.589 2.06317 2.94892 0
M  V30 2625 C 246.197 3.55745 2.72305 0
M  V30 2626 C 247.941 2.0295 3.72843 0
M  V30 2627 C 245.848 4.36205 3.99348 0
M  V30 2628 H 244.778 0.437782 0.613892 0
M  V30 2629 H 247.429 1.54754 0.986075 0
M  V30 2630 H 245.811 1.6237 3.61182 0
M  V30 2631 H 246.985 4.07805 2.1455 0
M  V30 2632 H 245.3 3.6088 2.07737 0
M  V30 2633 H 247.897 2.60319 4.67053 0
M  V30 2634 H 248.24 1.0117 4.0382 0
M  V30 2635 H 248.773 2.4499 3.13408 0
M  V30 2636 H 245.512 5.38659 3.73533 0
M  V30 2637 H 245.032 3.8891 4.56628 0
M  V30 2638 H 246.711 4.47362 4.67415 0
M  V30 2639 N 246.843 -1.10192 1.12674 0
M  V30 2640 C 247.79 -2.16606 0.796906 0
M  V30 2641 C 248.76 -1.64394 -0.237476 0
M  V30 2642 O 249.945 -1.90474 -0.111484 0
M  V30 2643 C 247.085 -3.44116 0.26043 0
M  V30 2644 C 246.198 -4.10268 1.35293 0
M  V30 2645 C 245.333 -5.25507 0.775621 0
M  V30 2646 C 244.372 -5.83567 1.84706 0
M  V30 2647 N 243.509 -6.90179 1.28829 0
M  V30 2648 H 248.349 -2.44163 1.70846 0
M  V30 2649 H 245.886 -1.19846 0.85295 0
M  V30 2650 H 247.844 -4.17143 -0.0686814 0
M  V30 2651 H 246.474 -3.16901 -0.614274 0
M  V30 2652 H 245.526 -3.35184 1.79877 0
M  V30 2653 H 246.838 -4.4946 2.16303 0
M  V30 2654 H 245.992 -6.05398 0.397327 0
M  V30 2655 H 244.731 -4.87656 -0.0656581 0
M  V30 2656 H 243.736 -5.02344 2.23452 0
M  V30 2657 H 244.961 -6.23482 2.69161 0
M  V30 2658 H 242.907 -6.54322 0.468881 0
M  V30 2659 H 242.824 -7.28097 2.03497 0
M  V30 2660 H 244.092 -7.73844 0.937311 0
M  V30 2661 N 248.321 -0.919034 -1.28029 0
M  V30 2662 C 249.549 -0.570971 -1.98866 0
M  V30 2663 C 249.964 0.848996 -1.68634 0
M  V30 2664 O 249.321 1.56307 -0.942036 0
M  V30 2665 C 249.372 -0.776876 -3.53054 0
M  V30 2666 O 249.093 -2.14097 -3.82222 0
M  V30 2667 C 250.594 -0.436356 -4.41147 0
M  V30 2668 H 247.814 -0.217175 -0.634883 0
M  V30 2669 H 250.358 -1.23368 -1.63097 0
M  V30 2670 H 248.513 -0.161085 -3.87065 0
M  V30 2671 H 248.927 -2.18455 -4.76841 0
M  V30 2672 H 250.401 -0.63117 -5.4838 0
M  V30 2673 H 250.878 0.627686 -4.34692 0
M  V30 2674 H 251.484 -1.02991 -4.12641 0
M  V30 2675 N 249.799 1.42003 -0.683588 0
M  V30 2676 C 251.045 2.02223 -0.218536 0
M  V30 2677 C 251.4 1.53126 1.16492 0
M  V30 2678 O 250.693 0.727459 1.77253 0
M  V30 2679 C 250.887 3.56827 -0.202357 0
M  V30 2680 C 250.716 4.20928 -1.5827 0
M  V30 2681 C 249.486 4.5573 -2.18262 0
M  V30 2682 C 251.684 4.47933 -2.52706 0
M  V30 2683 N 249.666 5.05056 -3.48986 0
M  V30 2684 C 251.037 4.98906 -3.68094 0
M  V30 2685 C 253.092 4.29931 -2.51125 0
M  V30 2686 C 251.795 5.33768 -4.82166 0
M  V30 2687 C 253.821 4.65875 -3.643 0
M  V30 2688 C 253.183 5.17008 -4.78417 0
M  V30 2689 H 249.282 0.771931 -0.125088 0
M  V30 2690 H 251.866 1.72729 -0.898479 0
M  V30 2691 H 250.037 3.85819 0.447029 0
M  V30 2692 H 251.769 4.03755 0.276399 0
M  V30 2693 H 248.524 4.41781 -1.70665 0
M  V30 2694 H 248.948 5.34139 -4.15962 0
M  V30 2695 H 253.59 3.89647 -1.6412 0
M  V30 2696 H 251.308 5.72981 -5.6984 0
M  V30 2697 H 254.894 4.53615 -3.64314 0
M  V30 2698 H 253.774 5.44301 -5.64541 0
M  V30 2699 N 251.277 0.427512 1.51691 0
M  V30 2700 C 252.517 -0.141524 2.03909 0
M  V30 2701 C 252.881 -1.40811 1.30523 0
M  V30 2702 O 254.082 -2.05676 1.73063 0
M  V30 2703 C 252.353 -0.364962 3.55532 0
M  V30 2704 S 253.912 -0.898812 4.29496 0
M  V30 2705 H 250.73 -0.0364542 0.710065 0
M  V30 2706 H 253.332 0.584659 1.86553 0
M  V30 2707 H 252.036 0.56336 4.06515 0
M  V30 2708 H 251.567 -1.1185 3.77164 0
M  V30 2709 H 253.582 -2.17747 4.45871 0
M  V30 2710 N 252.755 -1.56801 0.158532 0
M  V30 2711 C 253.685 -2.20347 -0.772609 0
M  V30 2712 C 254.666 -1.15518 -1.24859 0
M  V30 2713 O 255.851 -1.43902 -1.30406 0
M  V30 2714 C 252.981 -2.83417 -2.00729 0
M  V30 2715 C 251.935 -3.94174 -1.66765 0
M  V30 2716 C 251.261 -4.44233 -2.97592 0
M  V30 2717 C 252.561 -5.14392 -0.905447 0
M  V30 2718 H 254.255 -2.98413 -0.242959 0
M  V30 2719 H 251.801 -1.43537 -0.115419 0
M  V30 2720 H 253.754 -3.26543 -2.6636 0
M  V30 2721 H 252.478 -2.02701 -2.56086 0
M  V30 2722 H 251.137 -3.51684 -1.03508 0
M  V30 2723 H 250.785 -3.60325 -3.50963 0
M  V30 2724 H 250.485 -5.18945 -2.75626 0
M  V30 2725 H 252.009 -4.90037 -3.64274 0
M  V30 2726 H 253.423 -5.5429 -1.46408 0
M  V30 2727 H 251.82 -5.9494 -0.7853 0
M  V30 2728 H 252.89 -4.84795 0.100668 0
M  V30 2729 N 254.233 0.115231 -1.57178 0
M  V30 2730 C 255.481 0.820727 -1.84685 0
M  V30 2731 C 255.802 1.80237 -0.744279 0
M  V30 2732 O 255.072 1.94529 0.231375 0
M  V30 2733 H 253.652 0.306084 -0.681411 0
M  V30 2734 H 256.314 0.101656 -1.94635 0
M  V30 2735 H 255.41 1.36366 -2.80733 0
M  V30 2736 N 255.711 1.52812 0.385517 0
M  V30 2737 C 256.659 1.78482 1.49155 0
M  V30 2738 C 257.653 0.652914 1.56312 0
M  V30 2739 O 258.859 0.835464 1.59436 0
M  V30 2740 H 255.234 0.5648 0.496493 0
M  V30 2741 H 257.205 2.71095 1.24699 0
M  V30 2742 C 255.954 1.97378 2.86247 0
M  V30 2743 H 255.277 2.83907 2.81491 0
M  V30 2744 H 256.717 2.19327 3.62866 0
M  V30 2745 C 255.176 0.74728 3.28508 0
M  V30 2746 O 255.706 -0.0736232 4.01633 0
M  V30 2747 N 253.912 0.576396 2.84826 0
M  V30 2748 H 253.459 1.24555 2.25486 0
M  V30 2749 H 253.417 -0.24288 3.1346 0
M  V30 2750 N 257.189 -0.644168 1.43834 0
M  V30 2751 C 258.099 -1.78563 1.52159 0
M  V30 2752 C 259.115 -1.69147 0.408069 0
M  V30 2753 O 260.291 -1.90156 0.663524 0
M  V30 2754 C 257.356 -3.14888 1.45073 0
M  V30 2755 C 256.417 -3.36034 2.6717 0
M  V30 2756 C 255.65 -4.65855 2.60413 0
M  V30 2757 O 255.873 -5.45805 1.65689 0
M  V30 2758 O 254.807 -4.88918 3.5106 0
M  V30 2759 H 258.633 -1.74494 2.48567 0
M  V30 2760 H 256.218 -0.80378 1.25935 0
M  V30 2761 H 258.1 -3.96179 1.43597 0
M  V30 2762 H 256.775 -3.19528 0.518037 0
M  V30 2763 H 255.682 -2.54472 2.74217 0
M  V30 2764 H 257.015 -3.36247 3.59442 0
M  V30 2765 N 258.668 -1.30515 -0.883378 0
M  V30 2766 C 259.601 -1.11359 -1.99184 0
M  V30 2767 C 260.579 -0.0207858 -1.62587 0
M  V30 2768 O 261.763 -0.174646 -1.87689 0
M  V30 2769 C 258.89 -0.69871 -3.31415 0
M  V30 2770 C 257.936 -1.79261 -3.86998 0
M  V30 2771 S 258.769 -3.39536 -4.14096 0
M  V30 2772 C 259.925 -2.99954 -5.49344 0
M  V30 2773 H 260.158 -2.052 -2.15128 0
M  V30 2774 H 257.691 -1.14847 -1.03196 0
M  V30 2775 H 259.649 -0.466075 -4.07846 0
M  V30 2776 H 258.31 0.220368 -3.13326 0
M  V30 2777 H 257.503 -1.45464 -4.82552 0
M  V30 2778 H 257.105 -1.97961 -3.17313 0
M  V30 2779 H 259.397 -2.48013 -6.30473 0
M  V30 2780 H 260.34 -3.9442 -5.8808 0
M  V30 2781 H 260.748 -2.37775 -5.1198 0
M  V30 2782 N 260.146 1.09593 -1.13257 0
M  V30 2783 C 261.423 1.78293 -0.804432 0
M  V30 2784 C 261.803 1.99004 0.70431 0
M  V30 2785 O 261.151 1.59007 1.641 0
M  V30 2786 C 261.361 3.10707 -1.5894 0
M  V30 2787 C 262.709 3.85443 -1.78099 0
M  V30 2788 O 263.733 3.20454 -1.55525 0
M  V30 2789 O 262.592 5.02108 -2.15753 0
M  V30 2790 H 259.686 0.773156 -0.293528 0
M  V30 2791 H 262.232 1.16164 -1.23709 0
M  V30 2792 H 261.004 2.91106 -2.61482 0
M  V30 2793 H 260.627 3.80558 -1.15157 0
M  V30 2794 N 261.624 0.925811 1.2754 0
M  V30 2795 C 262.872 0.564138 1.94067 0
M  V30 2796 C 263.193 -0.897188 1.73134 0
M  V30 2797 O 262.463 -1.63573 1.07799 0
M  V30 2798 H 261.043 0.205645 0.718136 0
M  V30 2799 H 263.705 1.1778 1.55287 0
M  V30 2800 H 262.801 0.76881 3.02483 0
M  V30 2801 N 263.102 -1.41638 0.69111 0
M  V30 2802 C 264.513 -1.84346 0.295517 0
M  V30 2803 C 264.864 -1.57833 -1.16547 0
M  V30 2804 O 263.989 -1.04648 -1.89414 0
M  V30 2805 C 264.584 -3.34636 0.529575 0
M  V30 2806 C 263.143 -3.7593 0.187944 0
M  V30 2807 C 262.29 -2.65082 0.814052 0
M  V30 2808 H 265.241 -1.31253 0.892092 0
M  V30 2809 H 265.262 -3.79903 -0.213148 0
M  V30 2810 H 264.774 -3.53901 1.59297 0
M  V30 2811 H 262.875 -3.62268 -0.871367 0
M  V30 2812 H 262.988 -4.74808 0.63985 0
M  V30 2813 H 261.352 -2.53528 0.244017 0
M  V30 2814 H 262.135 -2.87167 1.88123 0
M  V30 2815 N 264.58 -0.43555 -1.51462 0
M  V30 2816 C 265.826 0.123979 -2.03022 0
M  V30 2817 C 266.181 1.4054 -1.31401 0
M  V30 2818 O 265.474 1.86948 -0.419634 0
M  V30 2819 C 265.668 0.39942 -3.55161 0
M  V30 2820 C 265.497 -0.853754 -4.41521 0
M  V30 2821 C 264.267 -1.38675 -4.85898 0
M  V30 2822 C 266.465 -1.73939 -4.83994 0
M  V30 2823 N 264.447 -2.59265 -5.56466 0
M  V30 2824 C 265.818 -2.79135 -5.5361 0
M  V30 2825 C 267.873 -1.75402 -4.65981 0
M  V30 2826 C 266.576 -3.85737 -6.07124 0
M  V30 2827 C 268.602 -2.80938 -5.20411 0
M  V30 2828 C 267.964 -3.84854 -5.89972 0
M  V30 2829 H 264.063 0.00624887 -0.781975 0
M  V30 2830 H 266.647 -0.59582 -1.85359 0
M  V30 2831 H 264.818 1.08825 -3.72843 0
M  V30 2832 H 266.55 0.95015 -3.93388 0
M  V30 2833 H 263.305 -0.94094 -4.64159 0
M  V30 2834 H 263.729 -3.2041 -5.96378 0
M  V30 2835 H 268.371 -0.963926 -4.11665 0
M  V30 2836 H 266.089 -4.65586 -6.60496 0
M  V30 2837 H 269.675 -2.8301 -5.08327 0
M  V30 2838 H 268.555 -4.65176 -6.31333 0
M  V30 2839 N 266.058 1.56714 -0.166846 0
M  V30 2840 C 266.99 2.14914 0.796537 0
M  V30 2841 C 268.003 1.10357 1.19688 0
M  V30 2842 O 269.192 1.37561 1.13751 0
M  V30 2843 C 266.292 2.67326 2.08303 0
M  V30 2844 C 265.465 3.96493 1.84696 0
M  V30 2845 C 264.524 4.34014 2.97521 0
M  V30 2846 O 263.55 5.01973 2.6835 0
M  V30 2847 N 264.752 3.95208 4.25196 0
M  V30 2848 H 267.517 2.98205 0.299006 0
M  V30 2849 H 265.078 1.61892 0.0160839 0
M  V30 2850 H 267.07 2.89428 2.82867 0
M  V30 2851 H 265.64 1.88649 2.4926 0
M  V30 2852 H 264.86 3.82814 0.940602 0
M  V30 2853 H 266.148 4.8086 1.66285 0
M  V30 2854 H 265.546 3.40487 4.51758 0
M  V30 2855 H 264.103 4.2232 4.96477 0
M  V30 2856 N 267.536 -0.106894 1.57237 0
M  V30 2857 C 268.785 -0.811163 1.8467 0
M  V30 2858 C 269.098 -1.80469 0.754342 0
M  V30 2859 O 270.304 -2.55601 0.915439 0
M  V30 2860 C 268.76 -1.49337 3.27454 0
M  V30 2861 C 268.368 -0.540217 4.44731 0
M  V30 2862 C 270.112 -2.18206 3.64124 0
M  V30 2863 C 268.019 -1.22634 5.78545 0
M  V30 2864 H 266.949 -0.306679 0.688813 0
M  V30 2865 H 269.6 -0.0639887 1.83388 0
M  V30 2866 H 267.982 -2.2876 3.23241 0
M  V30 2867 H 269.156 0.221659 4.60267 0
M  V30 2868 H 267.471 0.042146 4.16379 0
M  V30 2869 H 270.068 -2.70253 4.61376 0
M  V30 2870 H 270.411 -2.96562 2.92158 0
M  V30 2871 H 270.944 -1.45658 3.70174 0
M  V30 2872 H 267.683 -0.483832 6.53712 0
M  V30 2873 H 267.203 -1.95993 5.66874 0
M  V30 2874 H 268.882 -1.75615 6.2271 0
M  V30 2875 N 269.014 -1.53014 -0.377408 0
M  V30 2876 C 270.262 -1.6829 -1.11906 0
M  V30 2877 C 270.583 -0.431206 -1.90173 0
M  V30 2878 O 269.853 0.554595 -1.87886 0
M  V30 2879 H 268.433 -0.620371 -0.416112 0
M  V30 2880 H 271.095 -1.90167 -0.426893 0
M  V30 2881 H 270.191 -2.53862 -1.8155 0
M  V30 2882 N 270.492 0.636531 -1.44174 0
M  V30 2883 C 271.442 1.74233 -1.47061 0
M  V30 2884 C 272.426 1.57331 -0.337034 0
M  V30 2885 O 273.618 1.67159 -0.581973 0
M  V30 2886 C 270.747 3.12897 -1.41246 0
M  V30 2887 C 269.833 3.35288 -2.59698 0
M  V30 2888 N 270.224 3.2807 -3.84972 0
M  V30 2889 C 268.522 3.66065 -2.54778 0
M  V30 2890 C 269.223 3.51001 -4.63867 0
M  V30 2891 N 268.199 3.73616 -3.94857 0
M  V30 2892 H 272.001 1.67103 -2.41773 0
M  V30 2893 H 269.515 0.838806 -1.3906 0
M  V30 2894 H 271.512 3.92189 -1.41398 0
M  V30 2895 H 270.172 3.21197 -0.47569 0
M  V30 2896 H 271.183 3.07109 -4.17019 0
M  V30 2897 H 267.86 3.81379 -1.6987 0
M  V30 2898 H 269.25 3.51059 -5.72894 0
M  V30 2899 N 271.97 1.30982 0.876444 0
M  V30 2900 C 272.917 1.18085 1.98304 0
M  V30 2901 C 273.887 0.0682263 1.6596 0
M  V30 2902 O 275.072 0.239937 1.89285 0
M  V30 2903 C 272.212 0.887475 3.33493 0
M  V30 2904 C 271.325 2.08281 3.78475 0
M  V30 2905 C 270.46 1.72678 5.0235 0
M  V30 2906 C 269.499 2.88657 5.39762 0
M  V30 2907 N 268.636 2.53292 6.54819 0
M  V30 2908 H 273.476 2.1275 2.08666 0
M  V30 2909 H 271.013 1.05839 1.02159 0
M  V30 2910 H 272.971 0.697961 4.1132 0
M  V30 2911 H 271.601 -0.022315 3.22792 0
M  V30 2912 H 270.653 2.3833 2.96484 0
M  V30 2913 H 271.965 2.95108 4.02135 0
M  V30 2914 H 271.119 1.50151 5.87826 0
M  V30 2915 H 269.858 0.830327 4.8058 0
M  V30 2916 H 268.863 3.1184 4.52809 0
M  V30 2917 H 270.088 3.79002 5.63502 0
M  V30 2918 H 268.034 1.66163 6.34607 0
M  V30 2919 H 267.951 3.3365 6.7839 0
M  V30 2920 H 269.219 2.34143 7.43503 0
M  V30 2921 N 273.449 -1.08991 1.13837 0
M  V30 2922 C 274.677 -1.85011 0.926202 0
M  V30 2923 C 275.092 -1.8135 -0.525127 0
M  V30 2924 O 274.449 -1.21287 -1.36366 0
M  V30 2925 C 274.5 -3.32802 1.41155 0
M  V30 2926 O 274.221 -3.36444 2.80601 0
M  V30 2927 C 275.722 -4.25649 1.23847 0
M  V30 2928 H 272.942 -0.584249 0.32999 0
M  V30 2929 H 275.486 -1.37688 1.51202 0
M  V30 2930 H 273.641 -3.77536 0.868631 0
M  V30 2931 H 274.055 -4.28657 3.02248 0
M  V30 2932 H 275.529 -5.27485 1.62675 0
M  V30 2933 H 276.006 -4.38828 0.18065 0
M  V30 2934 H 276.612 -3.86735 1.76964 0
M  V30 2935 N 274.927 -0.932562 -1.27047 0
M  V30 2936 C 275.89 -0.440064 -2.24936 0
M  V30 2937 C 276.89 0.444071 -1.54547 0
M  V30 2938 O 278.08 0.244465 -1.72476 0
M  V30 2939 C 275.212 0.36678 -3.38921 0
M  V30 2940 H 276.405 -1.305 -2.70018 0
M  V30 2941 H 273.958 -0.713707 -1.39054 0
M  V30 2942 H 274.693 1.25033 -2.99228 0
M  V30 2943 H 274.478 -0.267204 -3.91188 0
M  V30 2944 H 275.968 0.701567 -4.11665 0
M  V30 2945 N 276.405 1.4127 -0.698611 0
M  V30 2946 C 277.651 2.01478 -0.231207 0
M  V30 2947 C 277.984 1.55215 1.16713 0
M  V30 2948 O 277.259 0.764672 1.78838 0
M  V30 2949 C 277.542 3.58912 -0.292281 0
M  V30 2950 C 277.395 4.15293 -1.72778 0
M  V30 2951 C 278.714 4.38736 0.346194 0
M  V30 2952 H 275.833 0.732025 -0.0854878 0
M  V30 2953 H 278.475 1.67977 -0.887906 0
M  V30 2954 H 276.625 3.87582 0.26686 0
M  V30 2955 H 278.297 3.97486 -2.341 0
M  V30 2956 H 276.54 3.7022 -2.26096 0
M  V30 2957 H 277.211 5.24452 -1.72202 0
M  V30 2958 H 279.687 4.15897 -0.130035 0
M  V30 2959 H 278.563 5.48221 0.272932 0
M  V30 2960 H 278.824 4.18425 1.42734 0
M  V30 2961 N 277.883 0.443576 1.51229 0
M  V30 2962 C 278.793 -0.370721 2.31652 0
M  V30 2963 C 279.809 -1.02186 1.40833 0
M  V30 2964 O 280.985 -1.01586 1.73903 0
M  V30 2965 C 278.05 -1.45376 3.14749 0
M  V30 2966 C 277.111 -0.822099 4.21355 0
M  V30 2967 C 276.344 -1.85353 5.0048 0
M  V30 2968 O 276.567 -3.07656 4.80316 0
M  V30 2969 O 275.501 -1.4406 5.84406 0
M  V30 2970 H 279.327 0.286002 3.0235 0
M  V30 2971 H 276.912 0.20598 1.47973 0
M  V30 2972 H 278.794 -2.08173 3.66391 0
M  V30 2973 H 277.469 -2.09445 2.46809 0
M  V30 2974 H 276.376 -0.155909 3.73775 0
M  V30 2975 H 277.709 -0.224797 4.91686 0
M  V30 2976 N 279.361 -1.56624 0.175154 0
M  V30 2977 C 280.591 -2.01082 -0.474283 0
M  V30 2978 C 280.999 -1.05447 -1.57091 0
M  V30 2979 O 280.342 -0.0480595 -1.83637 0
M  V30 2980 C 280.404 -3.41963 -1.10911 0
M  V30 2981 C 280.068 -4.56742 -0.153666 0
M  V30 2982 C 281.065 -5.16076 0.629448 0
M  V30 2983 C 278.75 -5.02277 -0.0483776 0
M  V30 2984 C 280.744 -6.19377 1.50501 0
M  V30 2985 C 278.431 -6.05427 0.830768 0
M  V30 2986 C 279.429 -6.63849 1.60605 0
M  V30 2987 O 279.117 -7.64998 2.47049 0
M  V30 2988 H 278.849 -0.664261 -0.125432 0
M  V30 2989 H 281.403 -2.03549 0.275163 0
M  V30 2990 H 279.633 -3.36422 -1.90676 0
M  V30 2991 H 281.322 -3.70352 -1.66114 0
M  V30 2992 H 282.088 -4.81776 0.558297 0
M  V30 2993 H 277.967 -4.56513 -0.641611 0
M  V30 2994 H 281.511 -6.64906 2.1106 0
M  V30 2995 H 277.408 -6.39151 0.903107 0
M  V30 2996 H 278.176 -7.82336 2.40607 0
M  V30 2997 N 280.839 0.0985539 -1.57292 0
M  V30 2998 C 282.087 0.801092 -1.85545 0
M  V30 2999 C 282.408 1.79438 -0.763353 0
M  V30 3000 O 281.678 1.94763 0.21073 0
M  V30 3001 H 280.258 0.29884 -0.684619 0
M  V30 3002 H 282.92 0.0810064 -1.94732 0
M  V30 3003 H 282.016 1.3338 -2.82163 0
M  V30 3004 N 282.317 1.53212 0.369288 0
M  V30 3005 C 283.733 1.42902 0.710712 0
M  V30 3006 C 283.933 0.565135 1.93413 0
M  V30 3007 O 282.989 0.0461484 2.52458 0
M  V30 3008 C 284.302 2.86042 0.927382 0
M  V30 3009 C 285.85 2.9565 1.02762 0
M  V30 3010 C 286.325 4.39843 1.27679 0
M  V30 3011 N 287.816 4.43256 1.34457 0
M  V30 3012 C 288.551 5.51929 1.55439 0
M  V30 3013 N 288.047 6.70655 1.73762 0
M  V30 3014 N 289.84 5.39502 1.57779 0
M  V30 3015 H 281.991 2.07888 -0.435457 0
M  V30 3016 H 284.254 0.938661 -0.132739 0
M  V30 3017 H 283.96 3.51557 0.100287 0
M  V30 3018 H 283.834 3.29472 1.83653 0
M  V30 3019 H 286.221 2.30291 1.84527 0
M  V30 3020 H 286.302 2.5562 0.0959504 0
M  V30 3021 H 285.946 5.05774 0.464175 0
M  V30 3022 H 285.876 4.77443 2.22162 0
M  V30 3023 H 288.367 3.5769 1.21926 0
M  V30 3024 H 288.68 7.49248 1.89335 0
M  V30 3025 H 287.025 6.73648 1.70948 0
M  V30 3026 H 290.216 4.45713 1.43029 0
M  V30 3027 H 290.389 6.2426 1.7379 0
M  V30 3028 N 283.795 -0.628877 1.44509 0
M  V30 3029 C 285.044 -1.38437 1.4669 0
M  V30 3030 C 285.357 -1.95322 0.104272 0
M  V30 3031 O 286.563 -2.715 0.00362163 0
M  V30 3032 C 285.019 -2.50659 2.5826 0
M  V30 3033 C 284.627 -2.00277 4.0074 0
M  V30 3034 C 286.371 -3.27844 2.69664 0
M  V30 3035 C 284.278 -3.09854 5.0373 0
M  V30 3036 H 283.208 -0.520245 0.545766 0
M  V30 3037 H 285.859 -0.676313 1.70582 0
M  V30 3038 H 284.241 -3.2405 2.27612 0
M  V30 3039 H 285.415 -1.33736 4.40966 0
M  V30 3040 H 283.73 -1.35901 3.93599 0
M  V30 3041 H 286.327 -4.09534 3.43781 0
M  V30 3042 H 286.67 -3.77471 1.75559 0
M  V30 3043 H 287.203 -2.61543 2.99733 0
M  V30 3044 H 283.942 -2.65168 5.99472 0
M  V30 3045 H 283.462 -3.7503 4.68095 0
M  V30 3046 H 285.141 -3.74592 5.27532 0
M  V30 3047 N 285.273 -1.31445 -0.869486 0
M  V30 3048 C 286.236 -1.19094 -1.9583 0
M  V30 3049 C 287.236 -0.117906 -1.60367 0
M  V30 3050 O 288.426 -0.367208 -1.70286 0
M  V30 3051 C 285.558 -0.828165 -3.30688 0
M  V30 3052 H 286.751 -2.15842 -2.08212 0
M  V30 3053 H 284.304 -1.15063 -1.05784 0
M  V30 3054 H 285.039 0.138142 -3.24006 0
M  V30 3055 H 284.824 -1.6038 -3.578 0
M  V30 3056 H 286.314 -0.765658 -4.10521 0
M  V30 3057 N 286.751 1.08385 -1.14413 0
M  V30 3058 C 287.991 1.8238 -0.922868 0
M  V30 3059 C 288.355 1.84225 0.540842 0
M  V30 3060 O 289.556 2.53985 0.880058 0
M  V30 3061 C 287.827 3.24048 -1.50757 0
M  V30 3062 S 289.386 4.14917 -1.4279 0
M  V30 3063 H 286.204 0.628524 -0.332384 0
M  V30 3064 H 288.806 1.30278 -1.45766 0
M  V30 3065 H 287.51 3.20288 -2.56601 0
M  V30 3066 H 287.041 3.81224 -0.971178 0
M  V30 3067 H 289.056 4.94473 -0.413582 0
M  V30 3068 N 288.23 0.939286 1.26551 0
M  V30 3069 C 289.14 0.453432 2.30176 0
M  V30 3070 C 290.156 -0.471649 1.67486 0
M  V30 3071 O 291.332 -0.35164 1.98306 0
M  V30 3072 C 288.397 -0.275326 3.45605 0
M  V30 3073 C 287.458 0.686084 4.23782 0
M  V30 3074 C 286.691 -0.00798994 5.33699 0
M  V30 3075 O 286.914 -1.22528 5.57085 0
M  V30 3076 O 285.848 0.669746 5.98162 0
M  V30 3077 H 289.674 1.31416 2.73795 0
M  V30 3078 H 287.259 0.705095 1.31715 0
M  V30 3079 H 289.141 -0.685911 4.1578 0
M  V30 3080 H 287.816 -1.11147 3.0402 0
M  V30 3081 H 286.723 1.14658 3.56096 0
M  V30 3082 H 288.056 1.48979 4.69112 0
M  V30 3083 N 289.708 -1.40897 0.706093 0
M  V30 3084 C 290.671 -2.29131 0.0562841 0
M  V30 3085 C 291.671 -1.44901 -0.697166 0
M  V30 3086 O 292.861 -1.65926 -0.530484 0
M  V30 3087 C 289.993 -3.27957 -0.93043 0
M  V30 3088 H 291.186 -2.88091 0.833284 0
M  V30 3089 H 288.739 -1.4906 0.470192 0
M  V30 3090 H 289.474 -2.73997 -1.73482 0
M  V30 3091 H 289.259 -3.90124 -0.393166 0
M  V30 3092 H 290.749 -3.94049 -1.38256 0
M  V30 3093 N 291.186 -0.45159 -1.50991 0
M  V30 3094 C 292.149 0.341117 -2.26647 0
M  V30 3095 C 293.149 0.937422 -1.30649 0
M  V30 3096 O 294.339 0.809644 -1.54241 0
M  V30 3097 C 291.471 1.48398 -3.06905 0
M  V30 3098 H 292.664 -0.322117 -2.98165 0
M  V30 3099 H 290.217 -0.205122 -1.54948 0
M  V30 3100 H 290.952 2.18284 -2.39838 0
M  V30 3101 H 290.737 1.06241 -3.77432 0
M  V30 3102 H 292.227 2.04367 -3.64176 0
M  V30 3103 N 292.664 1.56529 -0.183458 0
M  V30 3104 C 293.611 2.18546 0.742055 0
M  V30 3105 C 294.581 1.12912 1.2182 0
M  V30 3106 O 295.766 1.41115 1.28418 0
M  V30 3107 C 292.906 2.83977 1.96089 0
M  V30 3108 C 292.019 4.04105 1.52719 0
M  V30 3109 C 291.154 4.57427 2.70063 0
M  V30 3110 C 290.193 5.69938 2.23243 0
M  V30 3111 N 289.33 6.17717 3.33722 0
M  V30 3112 H 294.17 2.97284 0.206432 0
M  V30 3113 H 291.707 1.46823 0.0901571 0
M  V30 3114 H 293.665 3.20077 2.67594 0
M  V30 3115 H 292.295 2.07822 2.47002 0
M  V30 3116 H 291.347 3.73745 0.708436 0
M  V30 3117 H 292.659 4.85513 1.1436 0
M  V30 3118 H 291.813 4.95772 3.49708 0
M  V30 3119 H 290.552 3.75101 3.11689 0
M  V30 3120 H 289.557 5.31133 1.42048 0
M  V30 3121 H 290.782 6.54073 1.82661 0
M  V30 3122 H 288.728 5.38317 3.74902 0
M  V30 3123 H 288.645 6.94146 2.99495 0
M  V30 3124 H 289.913 6.60713 4.13616 0
M  V30 3125 N 294.142 -0.090211 1.57342 0
M  V30 3126 C 295.388 -0.793982 1.86611 0
M  V30 3127 C 295.721 -1.78142 0.773252 0
M  V30 3128 O 294.996 -1.93271 -0.218304 0
M  V30 3129 C 295.279 -1.51839 3.26523 0
M  V30 3130 C 295.132 -0.548609 4.46442 0
M  V30 3131 C 296.451 -2.46779 3.64401 0
M  V30 3132 H 293.57 -0.287186 0.678744 0
M  V30 3133 H 296.212 -0.0575076 1.89913 0
M  V30 3134 H 294.362 -2.14617 3.23839 0
M  V30 3135 H 296.034 0.0725513 4.61243 0
M  V30 3136 H 294.277 0.137614 4.33582 0
M  V30 3137 H 294.948 -1.09271 5.41076 0
M  V30 3138 H 297.424 -1.94089 3.68061 0
M  V30 3139 H 296.3 -2.94479 4.63221 0
M  V30 3140 H 296.561 -3.30758 2.93346 0
M  V30 3141 N 295.62 -1.53406 -0.361157 0
M  V30 3142 C 296.553 -1.74946 -1.46524 0
M  V30 3143 C 297.531 -0.59795 -1.51206 0
M  V30 3144 O 298.715 -0.831062 -1.69191 0
M  V30 3145 C 295.842 -1.83224 -2.84863 0
M  V30 3146 C 294.888 -3.05233 -2.97885 0
M  V30 3147 S 295.721 -4.6466 -2.66179 0
M  V30 3148 C 296.877 -4.75793 -4.06659 0
M  V30 3149 H 297.11 -2.68319 -1.28033 0
M  V30 3150 H 294.643 -1.44051 -0.555764 0
M  V30 3151 H 296.601 -1.88679 -3.64569 0
M  V30 3152 H 295.262 -0.908948 -3.00661 0
M  V30 3153 H 294.455 -3.07648 -3.9921 0
M  V30 3154 H 294.057 -2.97913 -2.26106 0
M  V30 3155 H 296.349 -4.5612 -5.0096 0
M  V30 3156 H 297.292 -5.7786 -4.09247 0
M  V30 3157 H 297.7 -4.04389 -3.93865 0
M  V30 3158 N 297.098 0.621204 -1.44841 0
M  V30 3159 C 298.045 1.73267 -1.5247 0
M  V30 3160 C 299.015 1.6189 -0.371611 0
M  V30 3161 O 300.2 1.81668 -0.58321 0
M  V30 3162 C 297.34 3.11545 -1.48438 0
M  V30 3163 C 296.453 3.33827 -2.74196 0
M  V30 3164 C 295.588 4.62133 -2.61929 0
M  V30 3165 C 294.627 4.77627 -3.82804 0
M  V30 3166 N 293.764 5.97219 -3.69153 0
M  V30 3167 H 298.604 1.66082 -2.47428 0
M  V30 3168 H 296.141 0.810026 -1.22788 0
M  V30 3169 H 298.099 3.91528 -1.4409 0
M  V30 3170 H 296.729 3.1772 -0.570402 0
M  V30 3171 H 295.781 2.47715 -2.88689 0
M  V30 3172 H 297.093 3.41153 -3.6389 0
M  V30 3173 H 296.247 5.50291 -2.5547 0
M  V30 3174 H 294.986 4.57182 -1.69811 0
M  V30 3175 H 293.991 3.87896 -3.89637 0
M  V30 3176 H 295.216 4.84385 -4.75971 0
M  V30 3177 H 293.162 5.93339 -2.79794 0
M  V30 3178 H 293.079 6.05644 -4.52472 0
M  V30 3179 H 294.347 6.87912 -3.66603 0
M  V30 3180 N 298.576 1.31904 0.862503 0
M  V30 3181 C 299.822 1.23207 1.61838 0
M  V30 3182 C 300.177 -0.206062 1.91293 0
M  V30 3183 O 299.47 -1.14162 1.53875 0
M  V30 3184 C 299.664 2.01713 2.95037 0
M  V30 3185 C 299.493 3.53014 2.78588 0
M  V30 3186 C 298.263 4.22359 2.77382 0
M  V30 3187 C 300.461 4.47819 2.52909 0
M  V30 3188 N 298.443 5.59766 2.52062 0
M  V30 3189 C 299.814 5.72947 2.36922 0
M  V30 3190 C 301.869 4.37162 2.38314 0
M  V30 3191 C 300.572 6.88623 2.07823 0
M  V30 3192 C 302.598 5.5263 2.10604 0
M  V30 3193 C 301.96 6.76752 1.95411 0
M  V30 3194 H 298.059 0.505984 0.596242 0
M  V30 3195 H 300.643 1.66179 1.01452 0
M  V30 3196 H 298.814 1.61098 3.53415 0
M  V30 3197 H 300.546 1.84975 3.59953 0
M  V30 3198 H 297.301 3.74401 2.90036 0
M  V30 3199 H 297.725 6.32135 2.42352 0
M  V30 3200 H 302.367 3.41857 2.48784 0
M  V30 3201 H 300.085 7.83948 1.9609 0
M  V30 3202 H 303.671 5.46307 2.00101 0
M  V30 3203 H 302.551 7.6459 1.74274 0
M  V30 3204 N 300.054 -1.07777 1.14986 0
M  V30 3205 C 301.3 -1.80557 0.923422 0
M  V30 3206 C 301.633 -1.86298 -0.548337 0
M  V30 3207 O 300.908 -1.34354 -1.40639 0
M  V30 3208 C 301.191 -3.25839 1.53299 0
M  V30 3209 C 301.044 -3.28269 3.07505 0
M  V30 3210 C 302.363 -4.22991 1.21518 0
M  V30 3211 H 299.482 -0.655493 0.336894 0
M  V30 3212 H 302.124 -1.26144 1.42083 0
M  V30 3213 H 300.274 -3.72306 1.10999 0
M  V30 3214 H 301.946 -2.90079 3.58681 0
M  V30 3215 H 300.189 -2.67355 3.4162 0
M  V30 3216 H 300.86 -4.30691 3.45266 0
M  V30 3217 H 303.336 -3.84894 1.581 0
M  V30 3218 H 302.212 -5.22945 1.66793 0
M  V30 3219 H 302.473 -4.41904 0.131505 0
M  V30 3220 N 301.532 -0.945985 -1.26051 0
M  V30 3221 C 302.809 -0.513816 -1.88731 0
M  V30 3222 C 303.189 1.00872 -1.8544 0
M  V30 3223 O 302.537 1.8708 -1.312 0
M  V30 3224 C 302.747 -1.08062 -3.31849 0
M  V30 3225 C 304.095 -1.1522 -4.08668 0
M  V30 3226 O 305.119 -1.03155 -3.40936 0
M  V30 3227 O 303.978 -1.34044 -5.29806 0
M  V30 3228 H 301.072 -0.168193 -0.809716 0
M  V30 3229 H 303.618 -1.03886 -1.34186 0
M  V30 3230 H 302.39 -2.1241 -3.2863 0
M  V30 3231 H 302.013 -0.538307 -3.93939 0
M  V30 3232 N 303.011 1.40521 -0.713556 0
M  V30 3233 C 304.422 1.83853 -0.324807 0
M  V30 3234 C 304.773 1.59667 1.14021 0
M  V30 3235 O 303.898 1.07649 1.87725 0
M  V30 3236 C 304.493 3.33751 -0.582746 0
M  V30 3237 C 303.052 3.75584 -0.247727 0
M  V30 3238 C 302.199 2.63753 -0.856121 0
M  V30 3239 H 305.15 1.29817 -0.91286 0
M  V30 3240 H 305.171 3.80194 0.152682 0
M  V30 3241 H 304.683 3.51322 -1.64908 0
M  V30 3242 H 302.784 3.63608 0.813624 0
M  V30 3243 H 302.897 4.7373 -0.715307 0
M  V30 3244 H 301.261 2.53108 -0.28432 0
M  V30 3245 H 302.044 2.84137 -1.92668 0
M  V30 3246 N 304.489 0.459591 1.5075 0
M  V30 3247 C 305.717 -0.0973749 2.06671 0
M  V30 3248 C 306.132 -1.34524 1.32472 0
M  V30 3249 O 305.489 -1.7827 0.390634 0
M  V30 3250 C 305.54 -0.39714 3.59312 0
M  V30 3251 O 305.261 0.801214 4.30711 0
M  V30 3252 C 306.762 -1.00234 4.31819 0
M  V30 3253 H 303.982 0.00195854 0.670997 0
M  V30 3254 H 306.526 0.645072 1.94059 0
M  V30 3255 H 304.681 -1.08951 3.71764 0
M  V30 3256 H 305.095 0.538857 5.21725 0
M  V30 3257 H 306.569 -1.16193 5.39632 0
M  V30 3258 H 307.046 -1.98939 3.91561 0
M  V30 3259 H 307.652 -0.348699 4.23868 0
M  V30 3260 N 305.967 -1.56429 0.191757 0
M  V30 3261 C 307.216 -1.9666 -0.448088 0
M  V30 3262 C 307.529 -1.08136 -1.62991 0
M  V30 3263 O 308.735 -1.38135 -2.33733 0
M  V30 3264 C 307.191 -3.49753 -0.848585 0
M  V30 3265 C 306.799 -4.46935 0.308764 0
M  V30 3266 C 308.543 -3.9876 -1.4557 0
M  V30 3267 C 306.45 -5.91293 -0.112506 0
M  V30 3268 H 305.38 -0.734312 -0.171179 0
M  V30 3269 H 308.031 -1.81301 0.283242 0
M  V30 3270 H 306.413 -3.60604 -1.63649 0
M  V30 3271 H 307.587 -4.47813 1.08627 0
M  V30 3272 H 305.902 -4.08102 0.827158 0
M  V30 3273 H 308.499 -5.04086 -1.78328 0
M  V30 3274 H 308.842 -3.42875 -2.36099 0
M  V30 3275 H 309.375 -3.9101 -0.731836 0
M  V30 3276 H 306.114 -6.51097 0.758514 0
M  V30 3277 H 305.634 -5.93676 -0.854941 0
M  V30 3278 H 307.313 -6.44663 -0.549448 0
M  V30 3279 N 307.445 0.0818655 -1.57387 0
M  V30 3280 C 308.355 1.11642 -2.06333 0
M  V30 3281 C 309.371 1.43033 -0.99083 0
M  V30 3282 O 310.547 1.53411 -1.30488 0
M  V30 3283 C 307.612 2.41342 -2.48907 0
M  V30 3284 C 306.673 2.17014 -3.7041 0
M  V30 3285 C 305.906 3.4053 -4.10944 0
M  V30 3286 O 306.129 4.4927 -3.51444 0
M  V30 3287 O 305.063 3.29336 -5.03807 0
M  V30 3288 H 308.889 0.730657 -2.9478 0
M  V30 3289 H 306.474 0.295301 -1.46452 0
M  V30 3290 H 308.356 3.17691 -2.76858 0
M  V30 3291 H 307.031 2.79319 -1.63593 0
M  V30 3292 H 305.938 1.38403 -3.47556 0
M  V30 3293 H 307.271 1.83923 -4.56545 0
M  V30 3294 N 308.923 1.53595 0.353017 0
M  V30 3295 C 309.853 1.83902 1.43883 0
M  V30 3296 C 310.834 0.693421 1.55324 0
M  V30 3297 O 312.019 0.944452 1.69687 0
M  V30 3298 C 309.149 2.04016 2.8106 0
M  V30 3299 C 308.103 3.19814 2.84434 0
M  V30 3300 C 307.429 3.25244 4.24406 0
M  V30 3301 C 308.729 4.58133 2.50822 0
M  V30 3302 H 310.423 2.74835 1.1877 0
M  V30 3303 H 307.969 1.32242 0.569917 0
M  V30 3304 H 309.922 2.238 3.57059 0
M  V30 3305 H 308.646 1.09804 3.07588 0
M  V30 3306 H 307.305 2.9987 2.10887 0
M  V30 3307 H 306.953 2.28646 4.48029 0
M  V30 3308 H 306.653 4.03054 4.27576 0
M  V30 3309 H 308.177 3.47228 5.0226 0
M  V30 3310 H 309.591 4.77995 3.16534 0
M  V30 3311 H 307.988 5.38276 2.6529 0
M  V30 3312 H 309.058 4.62387 1.46034 0
M  V30 3313 N 310.401 -0.613514 1.45168 0
M  V30 3314 C 311.647 -1.37471 1.49096 0
M  V30 3315 C 311.98 -1.93765 0.129901 0
M  V30 3316 O 311.255 -1.74707 -0.854858 0
M  V30 3317 C 311.538 -2.52701 2.56542 0
M  V30 3318 C 311.391 -2.01643 4.0207 0
M  V30 3319 C 312.71 -3.54849 2.60327 0
M  V30 3320 H 309.829 -0.498502 0.54283 0
M  V30 3321 H 312.471 -0.692125 1.76945 0
M  V30 3322 H 310.621 -3.10931 2.32926 0
M  V30 3323 H 312.293 -1.48108 4.36877 0
M  V30 3324 H 310.536 -1.32688 4.13009 0
M  V30 3325 H 311.207 -2.84681 4.72928 0
M  V30 3326 H 313.683 -3.0645 2.81474 0
M  V30 3327 H 312.559 -4.32973 3.37381 0
M  V30 3328 H 312.82 -4.10079 1.6519 0
M  V30 3329 N 311.879 -1.3236 -0.855495 0
M  V30 3330 C 313.125 -1.23054 -1.612 0
M  V30 3331 C 313.458 0.207404 -1.93089 0
M  V30 3332 O 312.733 1.14432 -1.57275 0
M  V30 3333 C 313.016 -2.08937 -2.93287 0
M  V30 3334 C 312.869 -3.61105 -2.68185 0
M  V30 3335 C 314.188 -1.94986 -3.94549 0
M  V30 3336 H 311.307 -0.448364 -0.584926 0
M  V30 3337 H 313.949 -1.62297 -0.987917 0
M  V30 3338 H 312.099 -1.75599 -3.46551 0
M  V30 3339 H 313.771 -4.04652 -2.21483 0
M  V30 3340 H 312.014 -3.83813 -2.02164 0
M  V30 3341 H 312.685 -4.16522 -3.62234 0
M  V30 3342 H 315.161 -2.24189 -3.5054 0
M  V30 3343 H 314.037 -2.57356 -4.84829 0
M  V30 3344 H 314.298 -0.917263 -4.3248 0
M  V30 3345 N 313.357 1.07166 -1.15556 0
M  V30 3346 C 314.597 1.81391 -0.94216 0
M  V30 3347 C 314.961 1.84788 0.521272 0
M  V30 3348 O 316.162 2.54904 0.85307 0
M  V30 3349 C 314.433 3.22431 -1.54185 0
M  V30 3350 S 315.992 4.13379 -1.47183 0
M  V30 3351 H 312.81 0.624963 -0.339031 0
M  V30 3352 H 315.412 1.28725 -1.4714 0
M  V30 3353 H 314.116 3.17548 -2.59984 0
M  V30 3354 H 313.647 3.80172 -1.01156 0
M  V30 3355 H 315.662 4.94007 -0.466004 0
M  V30 3356 N 314.835 0.952656 1.25548 0
M  V30 3357 C 316.083 0.605176 1.92826 0
M  V30 3358 C 316.404 -0.860261 1.74999 0
M  V30 3359 O 315.674 -1.6125 1.11244 0
M  V30 3360 H 314.254 0.220832 0.713612 0
M  V30 3361 H 316.916 1.21047 1.52754 0
M  V30 3362 H 316.012 0.832798 3.00784 0
M  V30 3363 N 316.313 -1.40141 0.720998 0
M  V30 3364 C 317.538 -2.05618 0.271258 0
M  V30 3365 C 317.963 -1.53978 -1.08039 0
M  V30 3366 O 317.321 -0.677463 -1.68167 0
M  V30 3367 C 317.369 -3.59609 0.267197 0
M  V30 3368 O 316.473 -4.05526 -0.749814 0
M  V30 3369 H 315.814 -0.651904 0.126162 0
M  V30 3370 H 318.344 -1.79439 0.982997 0
M  V30 3371 H 318.354 -4.0786 0.106744 0
M  V30 3372 H 317.029 -3.96559 1.25354 0
M  V30 3373 H 315.606 -3.68722 -0.556644 0
M  V30 3374 N 317.792 -0.46758 -1.50504 0
M  V30 3375 C 319.017 0.0886943 -2.0721 0
M  V30 3376 C 319.442 1.33057 -1.32956 0
M  V30 3377 O 318.8 1.77354 -0.376197 0
M  V30 3378 C 318.848 0.359202 -3.58806 0
M  V30 3379 O 317.952 1.44034 -3.8643 0
M  V30 3380 H 317.293 -0.0114349 -0.663902 0
M  V30 3381 H 319.823 -0.657613 -1.93744 0
M  V30 3382 H 319.833 0.600742 -4.03553 0
M  V30 3383 H 318.508 -0.548311 -4.1227 0
M  V30 3384 H 317.085 1.18638 -3.53524 0
M  V30 3385 N 319.27 1.56325 -0.20005 0
M  V30 3386 C 320.218 2.20666 0.735482 0
M  V30 3387 C 321.212 1.17934 1.21605 0
M  V30 3388 O 322.418 1.36068 1.17837 0
M  V30 3389 H 318.793 0.70725 0.255542 0
M  V30 3390 H 320.764 2.9792 0.169166 0
M  V30 3391 C 319.513 2.88391 1.94232 0
M  V30 3392 H 318.836 3.67185 1.58161 0
M  V30 3393 H 320.276 3.3684 2.57517 0
M  V30 3394 C 318.735 1.89692 2.78421 0
M  V30 3395 O 319.265 1.40032 3.76502 0
M  V30 3396 N 317.471 1.57813 2.44015 0
M  V30 3397 H 317.018 1.9839 1.64314 0
M  V30 3398 H 316.976 0.920325 3.00628 0
M  V30 3399 N 320.748 -0.0735177 1.57428 0
M  V30 3400 C 322.164 -0.428264 1.53747 0
M  V30 3401 C 322.364 -1.79272 0.91998 0
M  V30 3402 O 321.42 -2.47051 0.521745 0
M  V30 3403 C 322.733 -0.370914 2.98404 0
M  V30 3404 C 324.281 -0.451224 3.0973 0
M  V30 3405 C 324.756 -0.4238 4.56035 0
M  V30 3406 N 326.247 -0.483925 4.60665 0
M  V30 3407 C 326.982 -0.484891 5.71346 0
M  V30 3408 N 326.478 -0.440775 6.91396 0
M  V30 3409 N 328.271 -0.531319 5.59583 0
M  V30 3410 H 320.422 0.819949 1.95935 0
M  V30 3411 H 322.685 0.307493 0.896745 0
M  V30 3412 H 322.391 0.564956 3.47133 0
M  V30 3413 H 322.265 -1.18176 3.5821 0
M  V30 3414 H 324.652 -1.37752 2.60976 0
M  V30 3415 H 324.733 0.388167 2.52838 0
M  V30 3416 H 324.377 0.498638 5.05446 0
M  V30 3417 H 324.307 -1.2807 5.10789 0
M  V30 3418 H 326.798 -0.522338 3.74273 0
M  V30 3419 H 327.111 -0.44539 7.71515 0
M  V30 3420 H 325.456 -0.40749 6.93804 0
M  V30 3421 H 328.647 -0.563464 4.64696 0
M  V30 3422 H 328.82 -0.528603 6.4584 0
M  V30 3423 N 322.226 -1.5378 -0.344866 0
M  V30 3424 C 323.174 -1.82373 -1.4437 0
M  V30 3425 C 324.168 -0.694128 -1.54526 0
M  V30 3426 O 325.374 -0.877442 -1.57165 0
M  V30 3427 H 321.749 -0.577765 -0.481344 0
M  V30 3428 H 323.72 -2.74306 -1.17468 0
M  V30 3429 C 322.469 -2.04898 -2.80913 0
M  V30 3430 H 321.792 -2.9127 -2.73865 0
M  V30 3431 H 323.232 -2.28871 -3.56923 0
M  V30 3432 C 321.691 -0.834116 -3.26411 0
M  V30 3433 O 322.221 -0.0328885 -4.01687 0
M  V30 3434 N 320.427 -0.65171 -2.83198 0
M  V30 3435 H 319.974 -1.30489 -2.22104 0
M  V30 3436 H 319.932 0.159686 -3.13994 0
M  V30 3437 N 323.704 0.605807 -1.45491 0
M  V30 3438 C 324.637 1.73022 -1.48791 0
M  V30 3439 C 325.615 1.58917 -0.344112 0
M  V30 3440 O 326.799 1.80453 -0.544876 0
M  V30 3441 C 323.926 3.10865 -1.34463 0
M  V30 3442 C 322.972 3.43554 -2.5273 0
M  V30 3443 S 323.805 3.38196 -4.15191 0
M  V30 3444 C 324.961 4.78616 -4.03333 0
M  V30 3445 H 325.194 1.69961 -2.43928 0
M  V30 3446 H 322.727 0.782611 -1.33096 0
M  V30 3447 H 324.685 3.90398 -1.26884 0
M  V30 3448 H 323.346 3.1144 -0.40794 0
M  V30 3449 H 322.539 4.43924 -2.38637 0
M  V30 3450 H 322.141 2.71541 -2.5718 0
M  V30 3451 H 324.433 5.68463 -3.68587 0
M  V30 3452 H 325.376 4.97767 -5.03621 0
M  V30 3453 H 325.784 4.54381 -3.34959 0
M  V30 3454 N 325.182 1.32811 0.848464 0
M  V30 3455 C 326.593 1.21315 1.41914 0
M  V30 3456 C 326.944 -0.171847 1.95446 0
M  V30 3457 O 326.069 -1.07093 1.88043 0
M  V30 3458 C 326.664 2.19631 2.57968 0
M  V30 3459 C 325.223 2.12003 3.11017 0
M  V30 3460 C 324.37 2.07651 1.83783 0
M  V30 3461 H 327.321 1.44549 0.655071 0
M  V30 3462 H 327.342 1.79845 3.35315 0
M  V30 3463 H 326.854 3.20423 2.18976 0
M  V30 3464 H 324.955 1.14481 3.54577 0
M  V30 3465 H 325.068 3.02111 3.71841 0
M  V30 3466 H 323.432 1.52983 2.03638 0
M  V30 3467 H 324.215 3.10235 1.47 0
M  V30 3468 N 326.66 -1.06551 1.16123 0
M  V30 3469 C 327.888 -1.83005 0.965237 0
M  V30 3470 C 328.303 -1.82423 -0.486542 0
M  V30 3471 O 327.66 -1.24152 -1.33763 0
M  V30 3472 C 327.711 -3.29733 1.48183 0
M  V30 3473 O 327.432 -3.30416 2.87674 0
M  V30 3474 C 328.933 -4.22926 1.32848 0
M  V30 3475 H 326.153 -0.577118 0.342309 0
M  V30 3476 H 328.697 -1.3445 1.54089 0
M  V30 3477 H 326.852 -3.75609 0.948517 0
M  V30 3478 H 327.266 -4.22149 3.11272 0
M  V30 3479 H 328.74 -5.23916 1.73827 0
M  V30 3480 H 329.217 -4.38346 0.273692 0
M  V30 3481 H 329.823 -3.82894 1.85127 0
M  V30 3482 N 328.138 -0.959301 -1.25041 0
M  V30 3483 C 329.385 -0.616611 -1.92884 0
M  V30 3484 C 329.713 0.847036 -1.75087 0
M  V30 3485 O 328.968 1.62374 -1.09239 0
M  V30 3486 C 329.267 -0.927136 -3.45165 0
M  V30 3487 C 328.933 -2.37757 -3.83122 0
M  V30 3488 C 327.595 -2.77402 -3.93194 0
M  V30 3489 C 329.947 -3.31929 -4.01836 0
M  V30 3490 C 327.275 -4.10277 -4.19392 0
M  V30 3491 C 329.627 -4.64423 -4.29528 0
M  V30 3492 C 328.291 -5.03857 -4.37818 0
M  V30 3493 H 327.561 -0.225634 -0.705812 0
M  V30 3494 H 330.208 -1.20921 -1.48493 0
M  V30 3495 H 328.513 -0.252195 -3.90987 0
M  V30 3496 H 330.21 -0.6405 -3.95852 0
M  V30 3497 H 326.8 -2.06013 -3.75841 0
M  V30 3498 H 330.984 -3.02488 -3.93465 0
M  V30 3499 H 326.24 -4.40467 -4.24027 0
M  V30 3500 H 330.414 -5.37369 -4.42953 0
M  V30 3501 H 328.041 -6.06843 -4.57871 0
M  V30 3502 N 329.616 1.39756 -0.72842 0
M  V30 3503 C 330.579 2.29012 -0.0927297 0
M  V30 3504 C 331.579 1.45992 0.674025 0
M  V30 3505 O 332.769 1.66749 0.50402 0
M  V30 3506 C 329.901 3.29396 0.878137 0
M  V30 3507 H 331.094 2.86729 -0.879011 0
M  V30 3508 H 328.647 1.48293 -0.493847 0
M  V30 3509 H 329.382 2.76722 1.69101 0
M  V30 3510 H 329.167 3.907 0.331051 0
M  V30 3511 H 330.657 3.96199 1.3197 0
M  V30 3512 N 331.094 0.475555 1.50254 0
M  V30 3513 C 332.004 -0.321501 2.32387 0
M  V30 3514 C 333.02 -0.991755 1.42969 0
M  V30 3515 O 334.196 -0.978747 1.76018 0
M  V30 3516 C 331.261 -1.38667 3.17762 0
M  V30 3517 C 330.322 -0.732538 4.23004 0
M  V30 3518 C 329.555 -1.74695 5.04299 0
M  V30 3519 O 329.778 -2.97399 4.86734 0
M  V30 3520 O 328.712 -1.31631 5.8733 0
M  V30 3521 H 332.538 0.350071 3.01676 0
M  V30 3522 H 330.123 0.237321 1.47503 0
M  V30 3523 H 332.005 -2.00354 3.70724 0
M  V30 3524 H 330.68 -2.04163 2.51196 0
M  V30 3525 H 329.587 -0.0765902 3.74022 0
M  V30 3526 H 330.92 -0.120452 4.92053 0
M  V30 3527 N 332.573 -1.56217 0.208337 0
M  V30 3528 C 333.819 -1.98998 -0.42086 0
M  V30 3529 C 334.174 -1.09331 -1.58317 0
M  V30 3530 O 333.467 -0.140466 -1.91084 0
M  V30 3531 C 333.661 -3.45441 -0.916797 0
M  V30 3532 C 333.49 -4.49273 0.195925 0
M  V30 3533 C 332.26 -5.00998 0.657956 0
M  V30 3534 C 334.458 -5.04294 1.00956 0
M  V30 3535 N 332.44 -5.88514 1.74712 0
M  V30 3536 C 333.811 -5.88607 1.94785 0
M  V30 3537 C 335.866 -4.86692 1.05049 0
M  V30 3538 C 334.569 -6.572 2.9237 0
M  V30 3539 C 336.595 -5.56034 2.01446 0
M  V30 3540 C 335.957 -6.40105 2.94016 0
M  V30 3541 H 332.056 -0.772574 -0.121048 0
M  V30 3542 H 334.64 -1.92101 0.317075 0
M  V30 3543 H 332.811 -3.52812 -1.62413 0
M  V30 3544 H 334.543 -3.75164 -1.51771 0
M  V30 3545 H 331.298 -4.72945 0.248912 0
M  V30 3546 H 331.722 -6.36975 2.2933 0
M  V30 3547 H 336.364 -4.21359 0.348759 0
M  V30 3548 H 334.082 -7.21723 3.63512 0
M  V30 3549 H 337.668 -5.44385 2.0527 0
M  V30 3550 H 336.548 -6.92816 3.6739 0
M  V30 3551 N 334.051 0.0651679 -1.57465 0
M  V30 3552 C 334.961 1.09448 -2.07505 0
M  V30 3553 C 335.977 1.41974 -1.00595 0
M  V30 3554 O 337.153 1.52018 -1.32107 0
M  V30 3555 C 334.218 2.38689 -2.51453 0
M  V30 3556 C 333.279 2.13073 -3.72691 0
M  V30 3557 C 332.512 3.36152 -4.14533 0
M  V30 3558 O 332.735 4.45517 -3.56189 0
M  V30 3559 O 331.669 3.23974 -5.07272 0
M  V30 3560 H 335.495 0.69935 -2.95538 0
M  V30 3561 H 333.08 0.279752 -1.46757 0
M  V30 3562 H 334.962 3.14736 -2.80212 0
M  V30 3563 H 333.637 2.77568 -1.66546 0
M  V30 3564 H 332.544 1.34709 -3.49005 0
M  V30 3565 H 333.877 1.79071 -4.5847 0
M  V30 3566 N 335.529 1.53961 0.336706 0
M  V30 3567 C 336.492 1.81724 1.39675 0
M  V30 3568 C 337.492 0.688532 1.45313 0
M  V30 3569 O 338.682 0.956829 1.45569 0
M  V30 3570 C 335.814 1.96543 2.78538 0
M  V30 3571 H 337.007 2.76424 1.16318 0
M  V30 3572 H 334.56 1.45478 0.571474 0
M  V30 3573 H 335.295 1.0401 3.07168 0
M  V30 3574 H 335.08 2.78665 2.75841 0
M  V30 3575 H 336.57 2.19516 3.5525 0
M  V30 3576 N 337.007 -0.598083 1.45811 0
M  V30 3577 C 338.235 -1.38322 1.53866 0
M  V30 3578 C 338.65 -1.87992 0.174479 0
M  V30 3579 O 338.007 -1.62756 -0.825627 0
M  V30 3580 C 338.058 -2.58125 2.53089 0
M  V30 3581 O 337.779 -2.10516 3.84206 0
M  V30 3582 C 339.28 -3.50869 2.70935 0
M  V30 3583 H 336.5 -0.423093 0.520801 0
M  V30 3584 H 339.044 -0.728527 1.91083 0
M  V30 3585 H 337.199 -3.19615 2.18917 0
M  V30 3586 H 337.613 -2.88425 4.38077 0
M  V30 3587 H 339.087 -4.31451 3.44317 0
M  V30 3588 H 339.564 -4.01822 1.77301 0
M  V30 3589 H 340.17 -2.95225 3.06141 0
M  V30 3590 N 338.485 -1.33259 -0.841409 0
M  V30 3591 C 339.731 -1.24757 -1.59886 0
M  V30 3592 C 340.064 0.186913 -1.93298 0
M  V30 3593 O 339.339 1.12757 -1.5848 0
M  V30 3594 C 339.622 -2.12036 -2.91055 0
M  V30 3595 C 339.475 -3.63929 -2.6434 0
M  V30 3596 C 340.794 -1.9916 -3.92458 0
M  V30 3597 H 337.913 -0.454542 -0.580138 0
M  V30 3598 H 340.555 -1.63335 -0.970647 0
M  V30 3599 H 338.705 -1.79265 -3.44669 0
M  V30 3600 H 340.377 -4.06978 -2.17178 0
M  V30 3601 H 338.62 -3.85935 -1.98082 0
M  V30 3602 H 339.291 -4.20341 -3.57796 0
M  V30 3603 H 341.767 -2.27895 -3.48143 0
M  V30 3604 H 340.643 -2.62484 -4.82072 0
M  V30 3605 H 340.904 -0.963082 -4.31482 0
M  V30 3606 N 339.963 1.05934 -1.16686 0
M  V30 3607 C 340.893 2.1546 -0.899949 0
M  V30 3608 C 341.874 1.69391 0.155154 0
M  V30 3609 O 343.059 1.94199 0.00648693 0
M  V30 3610 C 340.189 3.44939 -0.404241 0
M  V30 3611 C 339.143 4.04536 -1.39767 0
M  V30 3612 C 338.469 5.29268 -0.760216 0
M  V30 3613 C 339.769 4.42893 -2.76845 0
M  V30 3614 H 341.463 2.38046 -1.81588 0
M  V30 3615 H 339.009 1.14404 -0.874514 0
M  V30 3616 H 340.962 4.20901 -0.204971 0
M  V30 3617 H 339.686 3.21983 0.547206 0
M  V30 3618 H 338.345 3.30635 -1.58355 0
M  V30 3619 H 337.993 5.02611 0.197831 0
M  V30 3620 H 337.693 5.70101 -1.42332 0
M  V30 3621 H 339.217 6.07924 -0.57105 0
M  V30 3622 H 340.631 5.09921 -2.62019 0
M  V30 3623 H 339.028 4.94721 -3.39663 0
M  V30 3624 H 340.098 3.53584 -3.31823 0
M  V30 3625 N 341.441 0.965919 1.2453 0
M  V30 3626 C 342.718 0.543777 1.87889 0
M  V30 3627 C 343.098 -0.97909 1.87021 0
M  V30 3628 O 342.446 -1.84969 1.3416 0
M  V30 3629 C 342.656 1.13327 3.30088 0
M  V30 3630 C 344.004 1.21707 4.06783 0
M  V30 3631 O 345.028 1.08566 3.39252 0
M  V30 3632 O 343.887 1.42456 5.27606 0
M  V30 3633 H 340.981 0.181054 0.806938 0
M  V30 3634 H 343.527 1.06007 1.32516 0
M  V30 3635 H 342.299 2.17612 3.25209 0
M  V30 3636 H 341.922 0.600911 3.93033 0
M  V30 3637 N 342.919 -1.39368 0.735821 0
M  V30 3638 C 343.869 -2.27885 0.0724287 0
M  V30 3639 C 344.853 -1.44301 -0.711756 0
M  V30 3640 O 346.045 -1.67206 -0.58063 0
M  V30 3641 C 343.174 -3.33029 -0.833454 0
M  V30 3642 C 342.26 -4.24078 -0.0433749 0
M  V30 3643 N 342.651 -4.96138 0.983903 0
M  V30 3644 C 340.949 -4.45164 -0.272905 0
M  V30 3645 C 341.65 -5.63069 1.4604 0
M  V30 3646 N 340.626 -5.37991 0.778857 0
M  V30 3647 H 344.428 -2.81052 0.859467 0
M  V30 3648 H 341.942 -1.5206 0.570227 0
M  V30 3649 H 343.939 -3.95311 -1.32419 0
M  V30 3650 H 342.599 -2.81421 -1.61964 0
M  V30 3651 H 343.61 -4.9958 1.36528 0
M  V30 3652 H 340.287 -4.04497 -1.03383 0
M  V30 3653 H 341.677 -6.30755 2.31511 0
M  V30 3654 N 344.397 -0.483516 -1.5 0
M  V30 3655 C 345.625 0.0644831 -2.06799 0
M  V30 3656 C 346.04 1.32399 -1.34596 0
M  V30 3657 O 345.397 1.77626 -0.418946 0
M  V30 3658 C 345.448 0.339927 -3.59898 0
M  V30 3659 O 345.169 -0.869635 -4.29382 0
M  V30 3660 C 346.67 0.933515 -4.33359 0
M  V30 3661 H 343.89 -0.0126333 -0.670881 0
M  V30 3662 H 346.434 -0.675864 -1.93009 0
M  V30 3663 H 344.589 1.03022 -3.7345 0
M  V30 3664 H 345.003 -0.62179 -5.20801 0
M  V30 3665 H 346.477 1.07593 -5.41413 0
M  V30 3666 H 346.954 1.92685 -3.94676 0
M  V30 3667 H 347.56 0.281221 -4.24369 0
M  V30 3668 N 345.875 1.56104 -0.216619 0
M  V30 3669 C 347.105 2.02269 0.420802 0
M  V30 3670 C 347.513 1.09575 1.5424 0
M  V30 3671 O 346.856 0.0967308 1.83445 0
M  V30 3672 C 346.918 3.44784 1.01806 0
M  V30 3673 C 346.582 4.56988 0.0325154 0
M  V30 3674 C 347.579 5.14225 -0.766055 0
M  V30 3675 C 345.264 5.02228 -0.0848092 0
M  V30 3676 C 347.258 6.15169 -1.6687 0
M  V30 3677 C 344.945 6.03011 -0.990994 0
M  V30 3678 C 345.943 6.59357 -1.78149 0
M  V30 3679 O 345.631 7.58179 -2.67245 0
M  V30 3680 H 345.363 0.667353 0.107776 0
M  V30 3681 H 347.917 2.02747 -0.329034 0
M  V30 3682 H 346.147 3.41359 1.81689 0
M  V30 3683 H 347.836 3.74626 1.56237 0
M  V30 3684 H 348.602 4.80126 -0.685836 0
M  V30 3685 H 344.481 4.58054 0.520349 0
M  V30 3686 H 348.025 6.59076 -2.28615 0
M  V30 3687 H 343.922 6.36532 -1.07225 0
M  V30 3688 H 344.69 7.75682 -2.61265 0
M  V30 3689 N 347.353 -0.0568162 1.57498 0
M  V30 3690 C 348.63 -0.786954 1.79071 0
M  V30 3691 C 349.01 -1.95028 0.80792 0
M  V30 3692 O 348.358 -2.27968 -0.155858 0
M  V30 3693 C 348.568 -1.24594 3.26002 0
M  V30 3694 C 349.916 -1.67323 3.90241 0
M  V30 3695 O 350.94 -1.34124 3.29984 0
M  V30 3696 O 349.799 -2.28842 4.9628 0
M  V30 3697 H 346.893 -0.378262 0.735423 0
M  V30 3698 H 349.439 -0.035734 1.69662 0
M  V30 3699 H 348.211 -0.41423 3.89101 0
M  V30 3700 H 347.834 -2.05803 3.40192 0
M  V30 3701 N 348.832 -1.54138 -0.328536 0
M  V30 3702 C 349.782 -1.79557 -1.4051 0
M  V30 3703 C 350.766 -0.651373 -1.47126 0
M  V30 3704 O 351.958 -0.911226 -1.51742 0
M  V30 3705 C 349.087 -2.02196 -2.77438 0
M  V30 3706 C 348.173 -3.22724 -2.75155 0
M  V30 3707 N 348.564 -4.43881 -2.42494 0
M  V30 3708 C 346.862 -3.24196 -3.06289 0
M  V30 3709 C 347.563 -5.25797 -2.48822 0
M  V30 3710 N 346.539 -4.62862 -2.8506 0
M  V30 3711 H 350.341 -2.70814 -1.1418 0
M  V30 3712 H 347.855 -1.53265 -0.536991 0
M  V30 3713 H 349.852 -2.18546 -3.55026 0
M  V30 3714 H 348.512 -1.12191 -3.04702 0
M  V30 3715 H 349.523 -4.70969 -2.15428 0
M  V30 3716 H 346.2 -2.44208 -3.38627 0
M  V30 3717 H 347.59 -6.32535 -2.26603 0
M  V30 3718 N 350.31 0.590341 -1.46126 0
M  V30 3719 C 351.556 1.35082 -1.51264 0
M  V30 3720 C 351.889 1.93534 -0.160711 0
M  V30 3721 O 351.164 1.76045 0.826956 0
M  V30 3722 C 351.447 2.48588 -2.6053 0
M  V30 3723 C 351.3 1.95221 -4.05227 0
M  V30 3724 C 352.619 3.50662 -2.6594 0
M  V30 3725 H 349.738 0.489803 -0.550692 0
M  V30 3726 H 352.38 0.663887 -1.78024 0
M  V30 3727 H 350.53 3.07186 -2.37843 0
M  V30 3728 H 352.202 1.41139 -4.39178 0
M  V30 3729 H 350.445 1.26101 -4.15068 0
M  V30 3730 H 351.116 2.77121 -4.77397 0
M  V30 3731 H 353.592 3.01934 -2.86313 0
M  V30 3732 H 352.468 4.27551 -3.44226 0
M  V30 3733 H 352.729 4.07399 -1.71694 0
M  V30 3734 N 351.788 1.33704 0.83433 0
M  V30 3735 C 353.065 1.16011 1.57483 0
M  V30 3736 C 353.445 -0.27176 2.09343 0
M  V30 3737 O 352.793 -1.27146 1.89858 0
M  V30 3738 C 353.003 2.20507 2.70514 0
M  V30 3739 C 354.351 2.54898 3.39577 0
M  V30 3740 O 355.375 2.19209 2.80759 0
M  V30 3741 O 354.234 3.16158 4.45765 0
M  V30 3742 H 351.328 0.448992 0.694503 0
M  V30 3743 H 353.874 1.453 0.876691 0
M  V30 3744 H 352.646 3.16667 2.29865 0
M  V30 3745 H 352.269 1.92329 3.47987 0
M  V30 3746 N 353.266 -1.05314 1.17247 0
M  V30 3747 C 354.496 -1.81707 0.983166 0
M  V30 3748 C 354.904 -1.83222 -0.471822 0
M  V30 3749 O 354.247 -1.25721 -1.3394 0
M  V30 3750 C 354.309 -3.29134 1.44606 0
M  V30 3751 C 353.973 -3.51304 2.92292 0
M  V30 3752 C 354.97 -3.4353 3.90235 0
M  V30 3753 C 352.655 -3.78306 3.30439 0
M  V30 3754 C 354.649 -3.62442 5.24323 0
M  V30 3755 C 352.336 -3.96866 4.64694 0
M  V30 3756 C 353.334 -3.88933 5.61445 0
M  V30 3757 O 353.022 -4.06976 6.93272 0
M  V30 3758 H 352.754 -0.579476 0.348114 0
M  V30 3759 H 355.308 -1.33705 1.55924 0
M  V30 3760 H 353.538 -3.78046 0.813537 0
M  V30 3761 H 355.227 -3.87049 1.22262 0
M  V30 3762 H 355.993 -3.22648 3.62109 0
M  V30 3763 H 351.872 -3.83585 2.55702 0
M  V30 3764 H 355.416 -3.56165 5.99827 0
M  V30 3765 H 351.313 -4.1724 4.92525 0
M  V30 3766 H 352.081 -4.24209 6.99992 0
M  V30 3767 N 354.744 -0.972509 -1.24016 0
M  V30 3768 C 355.993 -0.632603 -1.91523 0
M  V30 3769 C 356.306 0.836641 -1.76804 0
M  V30 3770 O 357.512 1.28728 -2.39043 0
M  V30 3771 C 355.968 -1.08082 -3.43287 0
M  V30 3772 C 355.576 -2.57386 -3.66683 0
M  V30 3773 C 357.32 -0.814288 -4.16617 0
M  V30 3774 C 355.227 -2.95915 -5.12043 0
M  V30 3775 H 354.157 -0.232898 -0.717129 0
M  V30 3776 H 356.808 -1.17936 -1.40582 0
M  V30 3777 H 355.19 -0.462339 -3.93292 0
M  V30 3778 H 356.364 -3.24405 -3.27258 0
M  V30 3779 H 354.679 -2.81701 -3.06649 0
M  V30 3780 H 357.276 -1.0781 -5.23718 0
M  V30 3781 H 357.619 0.24955 -4.15551 0
M  V30 3782 H 358.152 -1.39397 -3.72577 0
M  V30 3783 H 354.891 -4.0139 -5.18234 0
M  V30 3784 H 354.411 -2.33584 -5.52448 0
M  V30 3785 H 356.09 -2.86086 -5.80314 0
M  V30 3786 N 356.222 1.38976 -0.743202 0
M  V30 3787 C 357.447 2.05161 -0.303936 0
M  V30 3788 C 357.872 1.55677 1.05576 0
M  V30 3789 O 357.23 0.704131 1.67068 0
M  V30 3790 C 357.278 3.59138 -0.324373 0
M  V30 3791 O 356.382 4.06668 0.685204 0
M  V30 3792 H 355.723 0.649815 -0.136518 0
M  V30 3793 H 358.253 1.77852 -1.01142 0
M  V30 3794 H 358.263 4.07639 -0.171618 0
M  V30 3795 H 356.938 3.94515 -1.31647 0
M  V30 3796 H 355.515 3.69561 0.497913 0
M  V30 3797 N 357.7 0.491464 1.49741 0
M  V30 3798 C 358.63 -0.28154 2.31796 0
M  V30 3799 C 359.611 -0.971473 1.3963 0
M  V30 3800 O 360.796 -0.964719 1.68543 0
M  V30 3801 C 357.926 -1.35203 3.19902 0
M  V30 3802 C 356.88 -0.782529 4.20786 0
M  V30 3803 C 356.206 -1.95283 4.97764 0
M  V30 3804 C 357.506 0.21999 5.21837 0
M  V30 3805 H 359.2 0.403355 2.96671 0
M  V30 3806 H 356.746 0.195425 1.42668 0
M  V30 3807 H 358.699 -1.90045 3.76113 0
M  V30 3808 H 357.423 -2.06598 2.52953 0
M  V30 3809 H 356.082 -0.255928 3.65706 0
M  V30 3810 H 355.73 -2.65423 4.2727 0
M  V30 3811 H 355.43 -1.57789 5.66018 0
M  V30 3812 H 356.954 -2.50577 5.56816 0
M  V30 3813 H 358.368 -0.23996 5.72798 0
M  V30 3814 H 356.765 0.51026 5.97927 0
M  V30 3815 H 357.835 1.13911 4.7133 0
M  V30 3816 N 359.178 -1.55987 0.224894 0
M  V30 3817 C 360.128 -2.17076 -0.697296 0
M  V30 3818 C 361.112 -1.12006 -1.15514 0
M  V30 3819 O 362.304 -1.37985 -1.10857 0
M  V30 3820 C 359.433 -2.85679 -1.90374 0
M  V30 3821 C 358.519 -3.97977 -1.46543 0
M  V30 3822 N 358.91 -5.00359 -0.739909 0
M  V30 3823 C 357.208 -4.10128 -1.75245 0
M  V30 3824 C 357.909 -5.79407 -0.515939 0
M  V30 3825 N 356.885 -5.32892 -1.07364 0
M  V30 3826 H 360.687 -2.93592 -0.134594 0
M  V30 3827 H 358.201 -1.62379 0.0262885 0
M  V30 3828 H 360.198 -3.27857 -2.57518 0
M  V30 3829 H 358.858 -2.1066 -2.47088 0
M  V30 3830 H 359.869 -5.16412 -0.392253 0
M  V30 3831 H 356.546 -3.46263 -2.33255 0
M  V30 3832 H 357.936 -6.71872 0.0617349 0
M  V30 3833 N 360.656 0.0484629 -1.57525 0
M  V30 3834 C 361.588 1.08222 -2.02041 0
M  V30 3835 C 362.601 1.33621 -0.930012 0
M  V30 3836 O 363.79 1.3145 -1.20761 0
M  V30 3837 C 360.89 2.42818 -2.36416 0
M  V30 3838 C 360.063 2.37049 -3.67596 0
M  V30 3839 C 359.122 3.53937 -3.89378 0
M  V30 3840 O 358.148 3.34308 -4.60681 0
M  V30 3841 N 359.35 4.75126 -3.3352 0
M  V30 3842 H 362.115 0.702946 -2.9134 0
M  V30 3843 H 359.676 0.236745 -1.6016 0
M  V30 3844 H 361.668 3.197 -2.48141 0
M  V30 3845 H 360.238 2.72661 -1.52888 0
M  V30 3846 H 359.458 1.45395 -3.66407 0
M  V30 3847 H 360.746 2.30318 -4.53686 0
M  V30 3848 H 360.144 4.93976 -2.75688 0
M  V30 3849 H 358.701 5.49439 -3.50656 0
M  V30 3850 N 362.134 1.5431 0.320358 0
M  V30 3851 C 363.364 1.7638 1.07582 0
M  V30 3852 C 363.772 0.513944 1.82086 0
M  V30 3853 O 363.115 -0.525123 1.76035 0
M  V30 3854 C 363.177 2.9055 2.1171 0
M  V30 3855 C 362.841 4.2934 1.56575 0
M  V30 3856 C 363.838 5.10077 1.00586 0
M  V30 3857 C 361.523 4.75893 1.60722 0
M  V30 3858 C 363.517 6.35477 0.494756 0
M  V30 3859 C 361.204 6.0126 1.09224 0
M  V30 3860 C 362.202 6.80886 0.53696 0
M  V30 3861 O 361.89 8.03894 0.0297371 0
M  V30 3862 H 361.622 0.592369 0.325692 0
M  V30 3863 H 364.176 2.02019 0.37116 0
M  V30 3864 H 362.406 2.60489 2.85801 0
M  V30 3865 H 364.095 3.00373 2.73003 0
M  V30 3866 H 364.861 4.75265 0.966869 0
M  V30 3867 H 360.74 4.13957 2.02882 0
M  V30 3868 H 364.284 6.97574 0.0606842 0
M  V30 3869 H 360.181 6.35562 1.12831 0
M  V30 3870 H 360.949 8.18372 0.14486 0
M  V30 3871 N 363.613 -0.582584 1.46437 0
M  V30 3872 C 364.843 -1.36484 1.55099 0
M  V30 3873 C 365.251 -1.88233 0.191056 0
M  V30 3874 O 364.594 -1.6429 -0.821858 0
M  V30 3875 C 364.656 -2.588 2.49525 0
M  V30 3876 C 364.32 -2.28517 3.95764 0
M  V30 3877 C 365.317 -1.87346 4.84972 0
M  V30 3878 C 363.002 -2.40658 4.40896 0
M  V30 3879 C 364.996 -1.5871 6.17325 0
M  V30 3880 C 362.683 -2.11635 5.73284 0
M  V30 3881 C 363.681 -1.70725 6.61318 0
M  V30 3882 O 363.369 -1.42057 7.91249 0
M  V30 3883 H 363.101 -0.423297 0.527063 0
M  V30 3884 H 365.655 -0.715188 1.92547 0
M  V30 3885 H 363.885 -3.26571 2.07095 0
M  V30 3886 H 365.574 -3.20868 2.48593 0
M  V30 3887 H 366.34 -1.77481 4.5136 0
M  V30 3888 H 362.219 -2.71463 3.72598 0
M  V30 3889 H 365.763 -1.26704 6.85997 0
M  V30 3890 H 361.66 -2.21124 6.06444 0
M  V30 3891 H 362.428 -1.55901 8.03515 0
M  V30 3892 N 365.091 -1.34144 -0.827227 0
M  V30 3893 C 366.339 -1.26009 -1.58007 0
M  V30 3894 C 366.66 0.170971 -1.94249 0
M  V30 3895 O 365.93 1.10256 -1.61927 0
M  V30 3896 H 364.51 -0.463414 -0.585881 0
M  V30 3897 H 367.172 -1.68005 -0.987951 0
M  V30 3898 H 366.268 -1.86187 -2.50481 0
M  V30 3899 N 366.569 1.04691 -1.17803 0
M  V30 3900 C 367.517 2.14665 -0.895635 0
M  V30 3901 C 368.511 1.68806 0.141679 0
M  V30 3902 O 369.717 1.79999 -0.00587914 0
M  V30 3903 H 366.092 0.701038 -0.272121 0
M  V30 3904 H 368.063 2.35685 -1.83017 0
M  V30 3905 C 366.812 3.45019 -0.430962 0
M  V30 3906 H 366.135 3.8071 -1.22064 0
M  V30 3907 H 367.575 4.23125 -0.272301 0
M  V30 3908 C 366.034 3.25943 0.852207 0
M  V30 3909 O 366.564 3.5296 1.91786 0
M  V30 3910 N 364.77 2.79304 0.802346 0
M  V30 3911 H 364.317 2.57518 -0.0650788 0
M  V30 3912 H 364.275 2.66921 1.66134 0
M  V30 3913 N 368.047 0.979072 1.23499 0
M  V30 3914 C 369.463 0.687475 1.44034 0
M  V30 3915 C 369.663 -0.746801 1.8715 0
M  V30 3916 O 368.719 -1.51939 2.0167 0
M  V30 3917 C 370.032 1.68127 2.49307 0
M  V30 3918 C 371.58 1.69516 2.63122 0
M  V30 3919 C 372.055 2.67723 3.71603 0
M  V30 3920 N 373.546 2.66233 3.79044 0
M  V30 3921 C 374.281 3.38891 4.62537 0
M  V30 3922 N 373.777 4.21103 5.50131 0
M  V30 3923 N 375.57 3.27661 4.56721 0
M  V30 3924 H 367.721 1.90559 0.938135 0
M  V30 3925 H 369.984 0.821051 0.473897 0
M  V30 3926 H 369.69 2.70693 2.2454 0
M  V30 3927 H 369.564 1.46306 3.4767 0
M  V30 3928 H 371.951 0.676561 2.8724 0
M  V30 3929 H 372.032 1.95404 1.65079 0
M  V30 3930 H 371.676 3.69724 3.48233 0
M  V30 3931 H 371.606 2.39111 4.69184 0
M  V30 3932 H 374.097 2.06568 3.16446 0
M  V30 3933 H 374.41 4.73403 6.10827 0
M  V30 3934 H 372.755 4.25195 5.49759 0
M  V30 3935 H 375.946 2.62887 3.87309 0
M  V30 3936 H 376.119 3.84547 5.21562 0
M  V30 3937 N 369.525 -1.3858 0.750561 0
M  V30 3938 C 370.802 -1.94231 0.231009 0
M  V30 3939 C 371.182 -1.68611 -1.27018 0
M  V30 3940 O 370.53 -1.02296 -2.04323 0
M  V30 3941 C 370.74 -3.44123 0.581428 0
M  V30 3942 C 372.088 -4.2116 0.539389 0
M  V30 3943 O 373.112 -3.52391 0.519541 0
M  V30 3944 O 371.971 -5.43749 0.54765 0
M  V30 3945 H 369.065 -0.825639 0.0474263 0
M  V30 3946 H 371.611 -1.4799 0.830478 0
M  V30 3947 H 370.383 -3.56267 1.61833 0
M  V30 3948 H 370.006 -3.97573 -0.0462047 0
M  V30 3949 N 371.003 -0.499398 -1.49478 0
M  V30 3950 C 371.951 0.293604 -2.3074 0
M  V30 3951 C 372.945 0.96427 -1.39277 0
M  V30 3952 O 374.151 0.892141 -1.56336 0
M  V30 3953 H 370.526 0.113541 -0.743379 0
M  V30 3954 H 372.497 -0.411772 -2.95545 0
M  V30 3955 C 371.246 1.3462 -3.20582 0
M  V30 3956 H 370.569 0.83954 -3.90886 0
M  V30 3957 H 372.009 1.87308 -3.80384 0
M  V30 3958 C 370.468 2.36351 -2.40083 0
M  V30 3959 O 370.998 3.422 -2.10385 0
M  V30 3960 N 369.204 2.0878 -2.02137 0
M  V30 3961 H 368.751 1.22723 -2.26488 0
M  V30 3962 H 368.709 2.77075 -1.48583 0
M  V30 3963 N 372.481 1.55866 -0.233164 0
M  V30 3964 C 373.758 1.90471 0.444988 0
M  V30 3965 C 374.138 1.15209 1.7689 0
M  V30 3966 O 373.486 0.265119 2.26957 0
M  V30 3967 C 373.696 3.4333 0.626559 0
M  V30 3968 C 375.044 4.14319 0.92871 0
M  V30 3969 O 376.068 3.48993 0.712926 0
M  V30 3970 O 374.927 5.29846 1.33887 0
M  V30 3971 H 372.021 0.792347 0.236885 0
M  V30 3972 H 374.567 1.67437 -0.276211 0
M  V30 3973 H 373.339 3.90095 -0.306822 0
M  V30 3974 H 372.962 3.72181 1.39881 0
M  V30 3975 N 373.959 -0.0401083 1.57549 0
M  V30 3976 C 375.187 -0.745196 1.93014 0
M  V30 3977 C 375.602 -1.6948 0.831984 0
M  V30 3978 O 374.959 -1.81482 -0.192463 0
M  V30 3979 C 375.01 -1.51176 3.28372 0
M  V30 3980 O 374.731 -0.600284 4.33968 0
M  V30 3981 C 376.232 -2.315 3.78051 0
M  V30 3982 H 373.452 -0.210088 0.637263 0
M  V30 3983 H 375.996 -0.000924689 2.045 0
M  V30 3984 H 374.151 -2.20801 3.18317 0
M  V30 3985 H 374.565 -1.13669 5.12035 0
M  V30 3986 H 376.039 -2.80697 4.75303 0
M  V30 3987 H 376.516 -3.12436 3.08675 0
M  V30 3988 H 377.122 -1.66971 3.91153 0
M  V30 3989 N 375.437 -1.54477 -0.31217 0
M  V30 3990 C 376.4 -1.83923 -1.36766 0
M  V30 3991 C 377.4 -0.711563 -1.44199 0
M  V30 3992 O 378.59 -0.979866 -1.44029 0
M  V30 3993 C 375.722 -2.0095 -2.75376 0
M  V30 3994 H 376.915 -2.78239 -1.11906 0
M  V30 3995 H 374.468 -1.46369 -0.548257 0
M  V30 3996 H 375.203 -1.08883 -3.05475 0
M  V30 3997 H 374.988 -2.83018 -2.71373 0
M  V30 3998 H 376.478 -2.2514 -3.51713 0
M  V30 3999 N 376.915 0.57481 -1.46744 0
M  V30 4000 C 377.863 1.70435 -1.58286 0
M  V30 4001 C 378.857 1.63287 -0.450956 0
M  V30 4002 O 380.063 1.68685 -0.628121 0
M  V30 4003 H 376.438 0.56364 -0.497809 0
M  V30 4004 H 378.409 1.57833 -2.53242 0
M  V30 4005 C 377.158 3.08815 -1.59776 0
M  V30 4006 H 376.481 3.1499 -2.46214 0
M  V30 4007 H 377.921 3.87588 -1.71905 0
M  V30 4008 C 376.38 3.35301 -0.327812 0
M  V30 4009 O 376.91 3.97511 0.57861 0
M  V30 4010 N 375.116 2.89816 -0.213274 0
M  V30 4011 H 374.663 2.39371 -0.951798 0
M  V30 4012 H 374.621 3.0791 0.63553 0
M  V30 4013 N 378.394 1.34581 0.820102 0
M  V30 4014 C 379.624 1.29991 1.6058 0
M  V30 4015 C 380.032 -0.127588 1.88769 0
M  V30 4016 O 379.375 -1.08595 1.48165 0
M  V30 4017 C 379.437 2.02548 2.9701 0
M  V30 4018 C 379.101 3.51794 2.91701 0
M  V30 4019 C 380.098 4.46647 2.66087 0
M  V30 4020 C 377.783 3.94249 3.11245 0
M  V30 4021 C 379.777 5.81929 2.60071 0
M  V30 4022 C 377.464 5.2963 3.04853 0
M  V30 4023 C 378.462 6.23282 2.793 0
M  V30 4024 O 378.15 7.56181 2.72847 0
M  V30 4025 H 377.882 0.448539 0.505756 0
M  V30 4026 H 380.436 1.77811 1.02822 0
M  V30 4027 H 378.666 1.49345 3.56697 0
M  V30 4028 H 380.355 1.91211 3.58041 0
M  V30 4029 H 381.121 4.15168 2.5072 0
M  V30 4030 H 377 3.21749 3.30149 0
M  V30 4031 H 380.544 6.54999 2.40046 0
M  V30 4032 H 376.441 5.60727 3.19774 0
M  V30 4033 H 377.209 7.6595 2.88553 0
M  V30 4034 N 379.872 -1.04064 1.18357 0
M  V30 4035 C 380.802 -2.14001 0.934113 0
M  V30 4036 C 381.783 -1.69616 -0.128186 0
M  V30 4037 O 382.968 -1.94185 0.0244093 0
M  V30 4038 C 380.098 -3.44253 0.459066 0
M  V30 4039 C 379.052 -4.02261 1.46185 0
M  V30 4040 C 378.378 -5.27992 0.844322 0
M  V30 4041 C 379.678 -4.38432 2.83856 0
M  V30 4042 H 381.372 -2.35127 1.85352 0
M  V30 4043 H 378.918 -1.12998 0.892604 0
M  V30 4044 H 380.871 -4.20522 0.271907 0
M  V30 4045 H 379.595 -3.22813 -0.495912 0
M  V30 4046 H 378.254 -3.28074 1.63595 0
M  V30 4047 H 377.902 -5.02862 -0.117845 0
M  V30 4048 H 377.602 -5.67765 1.51384 0
M  V30 4049 H 379.126 -6.06938 0.667693 0
M  V30 4050 H 380.54 -5.05688 2.70098 0
M  V30 4051 H 378.937 -4.89254 3.47491 0
M  V30 4052 H 380.007 -3.4826 3.37406 0
M  V30 4053 N 381.35 -0.985608 -1.22978 0
M  V30 4054 C 382.313 -0.535071 -2.22867 0
M  V30 4055 C 383.313 0.378123 -1.56291 0
M  V30 4056 O 384.503 0.171092 -1.73358 0
M  V30 4057 C 381.635 0.222702 -3.40172 0
M  V30 4058 H 382.828 -1.41835 -2.6424 0
M  V30 4059 H 380.381 -0.772042 -1.35901 0
M  V30 4060 H 381.116 1.12229 -3.04262 0
M  V30 4061 H 380.901 -0.43288 -3.89703 0
M  V30 4062 H 382.391 0.526335 -4.1427 0
M  V30 4063 N 382.828 1.3818 -0.7579 0
M  V30 4064 C 383.758 2.33027 -0.148597 0
M  V30 4065 C 384.739 1.55085 0.69875 0
M  V30 4066 O 385.924 1.83384 0.639053 0
M  V30 4067 C 383.054 3.3928 0.742034 0
M  V30 4068 C 382.008 4.28 -0.00291946 0
M  V30 4069 C 381.334 5.25146 1.00625 0
M  V30 4070 C 382.634 5.08938 -1.17385 0
M  V30 4071 H 384.328 2.84231 -0.940909 0
M  V30 4072 H 381.874 1.36659 -0.453908 0
M  V30 4073 H 383.827 4.046 1.17799 0
M  V30 4074 H 382.551 2.86569 1.56671 0
M  V30 4075 H 381.21 3.64192 -0.419504 0
M  V30 4076 H 380.858 4.68721 1.8251 0
M  V30 4077 H 380.558 5.85361 0.512428 0
M  V30 4078 H 382.082 5.93342 1.44143 0
M  V30 4079 H 383.496 5.67474 -0.815224 0
M  V30 4080 H 381.893 5.7841 -1.59882 0
M  V30 4081 H 382.963 4.42424 -1.98468 0
M  V30 4082 N 384.306 0.507319 1.49211 0
M  V30 4083 C 385.531 -0.033725 2.07373 0
M  V30 4084 C 385.956 -1.29485 1.36437 0
M  V30 4085 O 385.314 -1.76294 0.423087 0
M  V30 4086 C 385.362 -0.263945 3.59633 0
M  V30 4087 O 384.466 -1.33737 3.90113 0
M  V30 4088 H 383.807 0.0290331 0.663365 0
M  V30 4089 H 386.337 0.708749 1.91932 0
M  V30 4090 H 386.347 -0.493536 4.05004 0
M  V30 4091 H 385.022 0.657424 4.10671 0
M  V30 4092 H 383.599 -1.09224 3.56545 0
M  V30 4093 N 385.784 -1.5574 0.241426 0
M  V30 4094 C 386.714 -2.24133 -0.654722 0
M  V30 4095 C 387.695 -1.21974 -1.1856 0
M  V30 4096 O 388.88 -1.50612 -1.22595 0
M  V30 4097 C 386.01 -2.93659 -1.85423 0
M  V30 4098 C 384.964 -4.0246 -1.45636 0
M  V30 4099 C 384.29 -4.59383 -2.73626 0
M  V30 4100 C 385.59 -5.18468 -0.631506 0
M  V30 4101 H 387.284 -2.99281 -0.0844353 0
M  V30 4102 H 384.83 -1.43947 -0.0391707 0
M  V30 4103 H 386.783 -3.40203 -2.48676 0
M  V30 4104 H 385.507 -2.15991 -2.44981 0
M  V30 4105 H 384.166 -3.56676 -0.847202 0
M  V30 4106 H 383.814 -3.78422 -3.3137 0
M  V30 4107 H 383.514 -5.32826 -2.4773 0
M  V30 4108 H 385.038 -5.08658 -3.37786 0
M  V30 4109 H 386.452 -5.61272 -1.1682 0
M  V30 4110 H 384.849 -5.98266 -0.468831 0
M  V30 4111 H 385.919 -4.8358 0.357506 0
M  V30 4112 N 387.262 0.0317525 -1.57568 0
M  V30 4113 C 388.172 1.05021 -2.0978 0
M  V30 4114 C 389.188 1.39809 -1.03583 0
M  V30 4115 O 390.364 1.49182 -1.35302 0
M  V30 4116 C 387.429 2.33301 -2.56459 0
M  V30 4117 C 386.49 2.0512 -3.77127 0
M  V30 4118 C 385.723 3.27283 -4.2157 0
M  V30 4119 O 385.946 4.37861 -3.65559 0
M  V30 4120 O 384.88 3.13141 -5.14029 0
M  V30 4121 H 388.706 0.636505 -2.96955 0
M  V30 4122 H 386.291 0.248559 -1.47318 0
M  V30 4123 H 388.173 3.08722 -2.86825 0
M  V30 4124 H 386.848 2.73973 -1.72397 0
M  V30 4125 H 385.755 1.27276 -3.51784 0
M  V30 4126 H 387.088 1.69305 -4.62165 0
M  V30 4127 N 388.74 1.54641 0.303973 0
M  V30 4128 C 389.673 1.80263 1.3993 0
M  V30 4129 C 390.651 0.653657 1.48883 0
M  V30 4130 O 391.835 0.893284 1.6599 0
M  V30 4131 C 388.962 1.9367 2.77866 0
M  V30 4132 C 388.008 3.16078 2.86351 0
M  V30 4133 S 388.841 4.74219 2.4875 0
M  V30 4134 C 389.997 4.90558 3.88721 0
M  V30 4135 H 390.23 2.72886 1.17986 0
M  V30 4136 H 387.763 1.46014 0.501918 0
M  V30 4137 H 389.721 2.0208 3.57315 0
M  V30 4138 H 388.382 1.01991 2.9708 0
M  V30 4139 H 387.575 3.22252 3.87517 0
M  V30 4140 H 387.177 3.06099 2.14893 0
M  V30 4141 H 389.469 4.74398 4.83687 0
M  V30 4142 H 390.412 5.92651 3.87518 0
M  V30 4143 H 390.82 4.18728 3.78585 0
M  V30 4144 N 390.218 -0.567019 1.47046 0
M  V30 4145 C 391.495 -1.3276 1.43646 0
M  V30 4146 C 391.875 -2.1071 0.128186 0
M  V30 4147 O 391.223 -2.10441 -0.890326 0
M  V30 4148 C 391.433 -2.2404 2.67595 0
M  V30 4149 C 392.781 -2.85372 3.14401 0
M  V30 4150 O 393.805 -2.34346 2.68254 0
M  V30 4151 O 392.664 -3.78091 3.946 0
M  V30 4152 H 389.758 -0.597293 0.571988 0
M  V30 4153 H 392.304 -0.586735 1.59234 0
M  V30 4154 H 391.076 -1.65975 3.54356 0
M  V30 4155 H 390.699 -3.05439 2.54544 0
M  V30 4156 N 391.696 -1.35014 -0.812953 0
M  V30 4157 C 392.973 -1.18502 -1.55617 0
M  V30 4158 C 393.353 0.238421 -2.09749 0
M  V30 4159 O 392.701 1.2411 -1.91857 0
M  V30 4160 C 392.911 -2.24783 -2.66971 0
M  V30 4161 C 394.259 -2.60268 -3.35478 0
M  V30 4162 O 395.283 -2.23648 -2.77236 0
M  V30 4163 O 394.142 -3.2321 -4.40678 0
M  V30 4164 H 391.236 -0.459984 -0.687272 0
M  V30 4165 H 393.782 -1.46677 -0.853464 0
M  V30 4166 H 392.554 -3.20284 -2.24798 0
M  V30 4167 H 392.177 -1.97841 -3.44884 0
M  V30 4168 N 393.175 1.03435 -1.18907 0
M  V30 4169 C 394.422 1.76743 -0.988334 0
M  V30 4170 C 394.75 1.88447 0.481441 0
M  V30 4171 O 394.005 1.39383 1.37371 0
M  V30 4172 C 394.304 3.19792 -1.59586 0
M  V30 4173 C 393.97 3.28108 -3.09283 0
M  V30 4174 C 392.632 3.30084 -3.5014 0
M  V30 4175 C 394.984 3.27696 -4.05296 0
M  V30 4176 C 392.312 3.29299 -4.85571 0
M  V30 4177 C 394.664 3.28451 -5.4065 0
M  V30 4178 C 393.328 3.28723 -5.80946 0
M  V30 4179 H 392.598 0.64675 -0.361657 0
M  V30 4180 H 395.245 1.21442 -1.48068 0
M  V30 4181 H 393.55 3.78136 -1.02568 0
M  V30 4182 H 395.247 3.75171 -1.41589 0
M  V30 4183 H 391.837 3.27294 -2.76725 0
M  V30 4184 H 396.021 3.25354 -3.74778 0
M  V30 4185 H 391.277 3.2783 -5.16079 0
M  V30 4186 H 395.451 3.27082 -6.14809 0
M  V30 4187 H 393.078 3.27868 -6.85862 0
M  V30 4188 N 394.653 0.992116 1.22453 0
M  V30 4189 C 395.902 0.662992 1.90492 0
M  V30 4190 C 396.215 -0.808407 1.78113 0
M  V30 4191 O 397.421 -1.24908 2.41061 0
M  V30 4192 C 395.877 1.1353 3.41524 0
M  V30 4193 C 395.485 2.63187 3.62542 0
M  V30 4194 C 397.229 0.880465 4.15269 0
M  V30 4195 C 395.136 3.04024 5.0727 0
M  V30 4196 H 394.066 0.244278 0.713333 0
M  V30 4197 H 396.717 1.20157 1.38688 0
M  V30 4198 H 395.099 0.52485 3.92506 0
M  V30 4199 H 396.273 3.2957 3.22056 0
M  V30 4200 H 394.588 2.86543 3.02129 0
M  V30 4201 H 397.185 1.16128 5.21937 0
M  V30 4202 H 397.528 -0.183408 4.15896 0
M  V30 4203 H 398.061 1.45307 3.70312 0
M  V30 4204 H 394.8 4.09584 5.11782 0
M  V30 4205 H 394.32 2.42343 5.48662 0
M  V30 4206 H 395.999 2.95282 5.75689 0
M  V30 4207 N 396.131 -1.37776 0.765217 0
M  V30 4208 C 397.547 -1.53297 0.444108 0
M  V30 4209 C 397.747 -1.72515 -1.04119 0
M  V30 4210 O 396.803 -1.74278 -1.82711 0
M  V30 4211 C 398.116 -2.73328 1.25349 0
M  V30 4212 C 399.664 -2.87185 1.24473 0
M  V30 4213 C 400.139 -4.10191 2.03733 0
M  V30 4214 N 401.63 -4.17291 2.01053 0
M  V30 4215 C 402.365 -5.11488 2.59166 0
M  V30 4216 N 401.861 -6.11285 3.26041 0
M  V30 4217 N 403.654 -5.03924 2.49032 0
M  V30 4218 H 395.805 -1.23552 1.72768 0
M  V30 4219 H 398.068 -0.601103 0.733062 0
M  V30 4220 H 397.774 -2.6557 2.30577 0
M  V30 4221 H 397.648 -3.66834 0.87823 0
M  V30 4222 H 400.035 -2.94418 0.20047 0
M  V30 4223 H 400.116 -1.94657 1.65959 0
M  V30 4224 H 399.76 -4.0372 3.08176 0
M  V30 4225 H 399.69 -5.01821 1.59633 0
M  V30 4226 H 402.181 -3.45825 1.5236 0
M  V30 4227 H 402.494 -6.79678 3.67774 0
M  V30 4228 H 400.839 -6.11583 3.30138 0
M  V30 4229 H 404.03 -4.24902 1.96407 0
M  V30 4230 H 404.203 -5.77152 2.94617 0
M  V30 4231 N 397.609 -0.515225 -1.4894 0
M  V30 4232 C 398.834 0.022727 -2.07388 0
M  V30 4233 C 399.259 1.2876 -1.37122 0
M  V30 4234 O 398.617 1.76067 -0.432431 0
M  V30 4235 C 398.665 0.244869 -3.59768 0
M  V30 4236 O 397.769 1.31667 -3.90817 0
M  V30 4237 H 397.11 -0.0325506 -0.663202 0
M  V30 4238 H 399.64 -0.718918 -1.91553 0
M  V30 4239 H 399.65 0.47205 -4.0526 0
M  V30 4240 H 398.325 -0.679194 -4.10317 0
M  V30 4241 H 396.902 1.07331 -3.5712 0
M  V30 4242 N 399.087 1.5561 -0.249682 0
M  V30 4243 C 400.333 1.99306 0.374841 0
M  V30 4244 C 400.666 1.13767 1.57387 0
M  V30 4245 O 399.941 0.201711 1.93451 0
M  V30 4246 C 400.224 3.51507 0.781986 0
M  V30 4247 C 400.077 4.4781 -0.422629 0
M  V30 4248 C 401.396 4.08884 1.62793 0
M  V30 4249 H 398.515 0.724572 0.134773 0
M  V30 4250 H 401.157 1.86719 -0.351549 0
M  V30 4251 H 399.307 3.62363 1.4009 0
M  V30 4252 H 400.979 4.48931 -1.06108 0
M  V30 4253 H 399.222 4.20518 -1.06524 0
M  V30 4254 H 399.893 5.51919 -0.0943766 0
M  V30 4255 H 402.369 4.01147 1.10547 0
M  V30 4256 H 401.245 5.1564 1.88166 0
M  V30 4257 H 401.506 3.57515 2.60068 0
M  V30 4258 N 400.565 -0.0233959 1.57583 0
M  V30 4259 C 401.811 -0.714119 1.89811 0
M  V30 4260 C 402.144 -1.74702 0.848113 0
M  V30 4261 O 401.419 -1.94023 -0.136135 0
M  V30 4262 C 401.702 -1.37853 3.32669 0
M  V30 4263 C 401.555 -0.358764 4.48367 0
M  V30 4264 C 402.874 -2.31101 3.7454 0
M  V30 4265 H 399.993 -0.25814 0.690314 0
M  V30 4266 H 402.635 0.0230927 1.89986 0
M  V30 4267 H 400.785 -2.00689 3.3265 0
M  V30 4268 H 402.457 0.268115 4.6052 0
M  V30 4269 H 400.7 0.321387 4.32608 0
M  V30 4270 H 401.371 -0.862242 5.45224 0
M  V30 4271 H 403.847 -1.78304 3.75961 0
M  V30 4272 H 402.723 -2.74567 4.75294 0
M  V30 4273 H 402.984 -3.18018 3.0711 0
M  V30 4274 N 402.043 -1.548 -0.295768 0
M  V30 4275 C 403.006 -1.85363 -1.34808 0
M  V30 4276 C 404.006 -0.726817 -1.43436 0
M  V30 4277 O 405.196 -0.995088 -1.42981 0
M  V30 4278 C 402.328 -2.03859 -2.73229 0
M  V30 4279 H 403.521 -2.7941 -1.08949 0
M  V30 4280 H 401.074 -1.46942 -0.532702 0
M  V30 4281 H 401.809 -1.12117 -3.04303 0
M  V30 4282 H 401.594 -2.8588 -2.68356 0
M  V30 4283 H 403.084 -2.28857 -3.49305 0
M  V30 4284 N 403.521 0.559213 -1.47345 0
M  V30 4285 C 404.77 1.31281 -1.53128 0
M  V30 4286 C 405.083 1.94602 -0.197344 0
M  V30 4287 O 406.289 2.71173 -0.133154 0
M  V30 4288 C 404.745 2.38051 -2.69925 0
M  V30 4289 C 404.353 1.8093 -4.0984 0
M  V30 4290 C 406.097 3.14604 -2.84999 0
M  V30 4291 C 404.004 2.85468 -5.1794 0
M  V30 4292 H 402.934 0.493614 -0.569966 0
M  V30 4293 H 405.585 0.594155 -1.73615 0
M  V30 4294 H 403.967 3.12822 -2.42814 0
M  V30 4295 H 405.141 1.12544 -4.46845 0
M  V30 4296 H 403.456 1.16967 -3.99634 0
M  V30 4297 H 406.053 3.92666 -3.62929 0
M  V30 4298 H 406.396 3.68665 -1.93369 0
M  V30 4299 H 406.929 2.46945 -3.1187 0
M  V30 4300 H 403.668 2.36264 -6.1144 0
M  V30 4301 H 403.188 3.52269 -4.85455 0
M  V30 4302 H 404.867 3.48996 -5.44803 0
M  V30 4303 N 404.999 1.35443 0.805782 0
M  V30 4304 C 405.962 1.28301 1.89925 0
M  V30 4305 C 406.962 0.194285 1.59622 0
M  V30 4306 O 408.152 0.448036 1.6834 0
M  V30 4307 C 405.284 0.984997 3.2636 0
M  V30 4308 H 406.477 2.2553 1.97677 0
M  V30 4309 H 404.03 1.19979 1.00173 0
M  V30 4310 H 404.765 0.016603 3.24296 0
M  V30 4311 H 404.55 1.77269 3.4974 0
M  V30 4312 H 406.04 0.960651 4.064 0
M  V30 4313 N 406.477 -1.02803 1.19454 0
M  V30 4314 C 407.754 -1.73299 0.907013 0
M  V30 4315 C 408.134 -2.02772 -0.587086 0
M  V30 4316 O 407.482 -1.68304 -1.54551 0
M  V30 4317 C 407.692 -3.00912 1.76785 0
M  V30 4318 C 409.04 -3.74403 2.00268 0
M  V30 4319 O 410.064 -3.10841 1.73943 0
M  V30 4320 O 408.923 -4.88675 2.4466 0
M  V30 4321 H 406.017 -0.754727 0.338106 0
M  V30 4322 H 408.563 -1.08754 1.30271 0
M  V30 4323 H 407.335 -2.75366 2.7801 0
M  V30 4324 H 406.958 -3.73197 1.37149 0
M  V30 4325 N 407.956 -0.998596 -1.21925 0
M  V30 4326 C 409.186 -0.695276 -1.94549 0
M  V30 4327 C 409.594 0.745079 -1.73911 0
M  V30 4328 O 408.937 1.51507 -1.03881 0
M  V30 4329 C 408.999 -0.928485 -3.47303 0
M  V30 4330 C 408.663 -2.35443 -3.91683 0
M  V30 4331 C 409.66 -3.33428 -3.98901 0
M  V30 4332 C 407.345 -2.69038 -4.24174 0
M  V30 4333 C 409.339 -4.63079 -4.37992 0
M  V30 4334 C 407.026 -3.98906 -4.62944 0
M  V30 4335 C 408.024 -4.95738 -4.69822 0
M  V30 4336 O 407.712 -6.23285 -5.07711 0
M  V30 4337 H 407.444 -0.255902 -0.625692 0
M  V30 4338 H 409.998 -1.33767 -1.5587 0
M  V30 4339 H 408.228 -0.228917 -3.86022 0
M  V30 4340 H 409.917 -0.619539 -4.01144 0
M  V30 4341 H 410.683 -3.08807 -3.73983 0
M  V30 4342 H 406.562 -1.94367 -4.18022 0
M  V30 4343 H 410.106 -5.38658 -4.43275 0
M  V30 4344 H 406.003 -4.23314 -4.87314 0
M  V30 4345 H 406.771 -6.27306 -5.25766 0
M  V30 4346 N 409.434 1.37368 -0.772513 0
M  V30 4347 C 410.68 1.99969 -0.337681 0
M  V30 4348 C 411.013 1.61184 1.08321 0
M  V30 4349 O 410.288 0.858395 1.74533 0
M  V30 4350 C 410.571 3.56858 -0.482121 0
M  V30 4351 C 410.424 4.0555 -1.94549 0
M  V30 4352 C 411.743 4.39955 0.113143 0
M  V30 4353 H 408.862 0.726464 -0.124171 0
M  V30 4354 H 411.504 1.63034 -0.975699 0
M  V30 4355 H 409.654 3.88452 0.0610361 0
M  V30 4356 H 411.326 3.84518 -2.54841 0
M  V30 4357 H 409.569 3.57715 -2.45403 0
M  V30 4358 H 410.24 5.14587 -1.9976 0
M  V30 4359 H 412.716 4.14623 -0.35031 0
M  V30 4360 H 411.592 5.48897 -0.0180514 0
M  V30 4361 H 411.853 4.25403 1.20354 0
M  V30 4362 N 410.912 0.523116 1.48665 0
M  V30 4363 C 411.859 -0.243398 2.29513 0
M  V30 4364 C 412.829 -0.940139 1.36933 0
M  V30 4365 O 414.014 -0.942503 1.65896 0
M  V30 4366 C 411.154 -1.28855 3.20141 0
M  V30 4367 C 410.267 -0.60135 4.27794 0
M  V30 4368 C 409.402 -1.62884 5.05611 0
M  V30 4369 C 408.441 -0.924726 6.05075 0
M  V30 4370 N 407.578 -1.89744 6.75975 0
M  V30 4371 H 412.418 0.452234 2.94549 0
M  V30 4372 H 409.955 0.234858 1.45213 0
M  V30 4373 H 411.913 -1.90674 3.71079 0
M  V30 4374 H 410.543 -1.95266 2.57043 0
M  V30 4375 H 409.595 0.130623 3.80176 0
M  V30 4376 H 410.907 -0.0481585 4.98777 0
M  V30 4377 H 410.061 -2.32149 5.60528 0
M  V30 4378 H 408.8 -2.21592 4.34452 0
M  V30 4379 H 407.805 -0.217966 5.49368 0
M  V30 4380 H 409.03 -0.343851 6.78229 0
M  V30 4381 H 406.976 -2.47373 6.07571 0
M  V30 4382 H 406.893 -1.3955 7.43009 0
M  V30 4383 H 408.161 -2.58229 7.35485 0
M  V30 4384 N 412.39 -1.55475 0.257931 0
M  V30 4385 C 413.353 -2.20551 -0.623706 0
M  V30 4386 C 414.353 -1.17809 -1.09443 0
M  V30 4387 O 415.543 -1.42823 -0.997362 0
M  V30 4388 C 412.675 -2.85784 -1.8585 0
M  V30 4389 H 413.868 -2.99848 -0.0557743 0
M  V30 4390 H 411.421 -1.56298 0.0084422 0
M  V30 4391 H 412.156 -2.10453 -2.46739 0
M  V30 4392 H 411.941 -3.61057 -1.52907 0
M  V30 4393 H 413.431 -3.35553 -2.48584 0
M  V30 4394 N 413.868 0.0150385 -1.57593 0
M  V30 4395 C 414.815 1.01126 -2.07466 0
M  V30 4396 C 415.785 1.35064 -0.966794 0
M  V30 4397 O 416.97 1.4516 -1.23827 0
M  V30 4398 C 414.11 2.30276 -2.57035 0
M  V30 4399 C 413.223 2.02373 -3.81666 0
M  V30 4400 C 412.358 3.25496 -4.19793 0
M  V30 4401 C 411.397 2.93211 -5.37303 0
M  V30 4402 N 410.534 4.08826 -5.70794 0
M  V30 4403 H 415.374 0.57901 -2.92321 0
M  V30 4404 H 412.911 0.27426 -1.44521 0
M  V30 4405 H 414.869 3.05757 -2.83846 0
M  V30 4406 H 413.499 2.71197 -1.75077 0
M  V30 4407 H 412.551 1.17327 -3.61854 0
M  V30 4408 H 413.863 1.74567 -4.67256 0
M  V30 4409 H 413.017 4.09333 -4.47807 0
M  V30 4410 H 411.756 3.56428 -3.32882 0
M  V30 4411 H 410.761 2.07777 -5.09027 0
M  V30 4412 H 411.986 2.63542 -6.25877 0
M  V30 4413 H 409.932 4.39682 -4.86842 0
M  V30 4414 H 409.849 3.84491 -6.50924 0
M  V30 4415 H 411.117 4.93496 -6.03392 0
M  V30 4416 N 415.346 1.54954 0.287554 0
M  V30 4417 C 416.293 1.86834 1.35505 0
M  V30 4418 C 417.263 0.718452 1.49758 0
M  V30 4419 O 418.448 0.968358 1.644 0
M  V30 4420 C 415.588 2.13303 2.71286 0
M  V30 4421 C 414.701 3.40883 2.65373 0
M  V30 4422 C 413.836 3.57125 3.93236 0
M  V30 4423 C 412.875 4.78449 3.81776 0
M  V30 4424 N 412.012 4.91426 5.01443 0
M  V30 4425 H 416.852 2.77889 1.07619 0
M  V30 4426 H 414.389 1.37593 0.520241 0
M  V30 4427 H 416.347 2.26646 3.50267 0
M  V30 4428 H 414.977 1.25499 2.97405 0
M  V30 4429 H 414.029 3.36088 1.78182 0
M  V30 4430 H 415.341 4.29993 2.52799 0
M  V30 4431 H 414.495 3.70207 4.80658 0
M  V30 4432 H 413.234 2.66173 4.0866 0
M  V30 4433 H 412.239 4.65386 2.92738 0
M  V30 4434 H 413.464 5.70822 3.67884 0
M  V30 4435 H 411.41 4.03401 5.17304 0
M  V30 4436 H 411.327 5.74559 4.91343 0
M  V30 4437 H 412.595 5.08879 5.90477 0
M  V30 4438 N 416.824 -0.551391 1.4764 0
M  V30 4439 C 418.24 -0.877887 1.33287 0
M  V30 4440 C 418.44 -1.98817 0.327721 0
M  V30 4441 O 417.496 -2.51171 -0.258695 0
M  V30 4442 C 418.809 -1.26563 2.72768 0
M  V30 4443 C 420.357 -1.37673 2.81097 0
M  V30 4444 C 420.832 -1.79799 4.21232 0
M  V30 4445 N 422.323 -1.8694 4.23802 0
M  V30 4446 C 423.058 -2.20876 5.29151 0
M  V30 4447 N 422.554 -2.53386 6.448 0
M  V30 4448 N 424.347 -2.217 5.16532 0
M  V30 4449 H 416.498 0.18153 2.11623 0
M  V30 4450 H 418.761 0.0185514 0.947818 0
M  V30 4451 H 418.467 -0.523591 3.47781 0
M  V30 4452 H 418.341 -2.22052 3.04915 0
M  V30 4453 H 420.728 -2.10956 2.06353 0
M  V30 4454 H 420.809 -0.40357 2.52596 0
M  V30 4455 H 420.453 -1.07083 4.96483 0
M  V30 4456 H 420.383 -2.78128 4.4716 0
M  V30 4457 H 422.874 -1.64179 3.40373 0
M  V30 4458 H 423.187 -2.78325 7.20941 0
M  V30 4459 H 421.532 -2.50953 6.48111 0
M  V30 4460 H 424.723 -1.95745 4.25207 0
M  V30 4461 H 424.896 -2.47818 5.98741 0
M  V30 4462 N 418.302 -1.35869 -0.798587 0
M  V30 4463 C 419.527 -1.32883 -1.59238 0
M  V30 4464 C 419.952 0.0894587 -1.87887 0
M  V30 4465 O 419.31 1.05869 -1.47178 0
M  V30 4466 C 419.358 -2.14892 -2.89575 0
M  V30 4467 O 418.462 -1.53512 -3.82763 0
M  V30 4468 H 417.803 -0.455236 -0.48338 0
M  V30 4469 H 420.333 -1.79024 -0.990539 0
M  V30 4470 H 420.343 -2.27139 -3.38928 0
M  V30 4471 H 419.018 -3.17998 -2.68049 0
M  V30 4472 H 417.595 -1.50153 -3.41334 0
M  V30 4473 N 419.78 1.02168 -1.19998 0
M  V30 4474 C 420.727 2.10601 -0.944228 0
M  V30 4475 C 421.697 1.65639 0.123664 0
M  V30 4476 O 422.882 1.9079 -0.0199941 0
M  V30 4477 C 420.022 3.41504 -0.496865 0
M  V30 4478 C 419.135 3.99973 -1.63234 0
M  V30 4479 C 418.27 5.18915 -1.13579 0
M  V30 4480 C 417.309 5.69456 -2.24468 0
M  V30 4481 N 416.446 6.79665 -1.76068 0
M  V30 4482 H 421.286 2.31814 -1.8726 0
M  V30 4483 H 418.823 1.13686 -0.933483 0
M  V30 4484 H 420.781 4.16626 -0.218843 0
M  V30 4485 H 419.411 3.2038 0.394508 0
M  V30 4486 H 418.463 3.21997 -2.0254 0
M  V30 4487 H 419.775 4.33492 -2.46752 0
M  V30 4488 H 418.929 6.01222 -0.813429 0
M  V30 4489 H 417.668 4.8695 -0.270434 0
M  V30 4490 H 416.673 4.85757 -2.57526 0
M  V30 4491 H 417.898 6.03459 -3.11472 0
M  V30 4492 H 415.844 6.49538 -0.918516 0
M  V30 4493 H 415.761 7.12349 -2.5317 0
M  V30 4494 H 417.029 7.65549 -1.46817 0
M  V30 4495 N 421.258 1.00505 1.21394 0
M  V30 4496 C 422.205 0.565496 2.23765 0
M  V30 4497 C 423.175 -0.408466 1.60999 0
M  V30 4498 O 424.36 -0.310503 1.88257 0
M  V30 4499 C 421.5 -0.101667 3.4495 0
M  V30 4500 C 420.613 0.915479 4.22188 0
M  V30 4501 C 419.748 0.220574 5.30742 0
M  V30 4502 C 418.787 1.22527 5.99711 0
M  V30 4503 N 417.924 0.557831 6.9988 0
M  V30 4504 H 422.764 1.44314 2.60725 0
M  V30 4505 H 420.301 0.722643 1.28126 0
M  V30 4506 H 422.259 -0.505504 4.14126 0
M  V30 4507 H 420.889 -0.94303 3.08718 0
M  V30 4508 H 419.941 1.43756 3.52191 0
M  V30 4509 H 421.253 1.68005 4.69655 0
M  V30 4510 H 420.407 -0.239368 6.06228 0
M  V30 4511 H 419.146 -0.576401 4.84282 0
M  V30 4512 H 418.151 1.69571 5.22997 0
M  V30 4513 H 419.376 2.02332 6.48258 0
M  V30 4514 H 417.322 -0.219486 6.55633 0
M  V30 4515 H 417.239 1.26065 7.45415 0
M  V30 4516 H 418.507 0.121095 7.79406 0
M  V30 4517 N 422.737 -1.36956 0.779787 0
M  V30 4518 C 423.965 -2.03755 0.359398 0
M  V30 4519 C 424.38 -1.58807 -1.02106 0
M  V30 4520 O 423.737 -0.773024 -1.6532 0
M  V30 4521 C 423.788 -3.59251 0.402568 0
M  V30 4522 O 423.509 -4.02557 1.72858 0
M  V30 4523 C 425.01 -4.43291 -0.0284068 0
M  V30 4524 H 422.23 -0.654148 0.149437 0
M  V30 4525 H 424.774 -1.75128 1.05595 0
M  V30 4526 H 422.929 -3.86621 -0.245478 0
M  V30 4527 H 423.343 -4.97111 1.67275 0
M  V30 4528 H 424.817 -5.51975 0.0529466 0
M  V30 4529 H 425.294 -4.25719 -1.07982 0
M  V30 4530 H 425.9 -4.21163 0.591758 0
M  V30 4531 N 424.215 -0.530993 -1.48385 0
M  V30 4532 C 425.464 0.00474348 -2.01699 0
M  V30 4533 C 425.777 1.35227 -1.41325 0
M  V30 4534 O 426.983 1.97643 -1.86144 0
M  V30 4535 C 425.439 0.0588473 -3.59852 0
M  V30 4536 C 425.047 -1.28385 -4.2921 0
M  V30 4537 C 426.791 0.543358 -4.21008 0
M  V30 4538 C 424.698 -1.19028 -5.79298 0
M  V30 4539 H 423.628 0.00554317 -0.75398 0
M  V30 4540 H 426.279 -0.674924 -1.70637 0
M  V30 4541 H 424.661 0.803612 -3.8776 0
M  V30 4542 H 425.835 -2.04426 -4.12973 0
M  V30 4543 H 424.15 -1.70418 -3.7993 0
M  V30 4544 H 426.747 0.631351 -5.3096 0
M  V30 4545 H 427.09 1.54937 -3.86394 0
M  V30 4546 H 427.623 -0.145754 -3.97533 0
M  V30 4547 H 424.362 -2.17147 -6.18488 0
M  V30 4548 H 423.882 -0.471246 -5.97946 0
M  V30 4549 H 425.561 -0.881365 -6.40969 0
M  V30 4550 N 425.693 1.55336 -0.266172 0
M  V30 4551 C 426.643 2.18848 0.639497 0
M  V30 4552 C 427.627 1.1503 1.12503 0
M  V30 4553 O 428.819 1.40875 1.0716 0
M  V30 4554 C 425.948 2.90626 1.82733 0
M  V30 4555 C 425.034 4.01723 1.35939 0
M  V30 4556 N 425.425 5.02145 0.606988 0
M  V30 4557 C 423.723 4.1463 1.6431 0
M  V30 4558 C 424.424 5.80572 0.362138 0
M  V30 4559 N 423.4 5.35551 0.931971 0
M  V30 4560 H 427.202 2.93845 0.0567057 0
M  V30 4561 H 424.716 1.62252 -0.0693312 0
M  V30 4562 H 426.713 3.34569 2.48735 0
M  V30 4563 H 425.373 2.17137 2.41416 0
M  V30 4564 H 426.384 5.17271 0.255198 0
M  V30 4565 H 423.061 3.52326 2.23993 0
M  V30 4566 H 424.451 6.71472 -0.239848 0
M  V30 4567 N 427.171 -0.0066808 1.57599 0
M  V30 4568 C 428.101 -0.999296 2.11036 0
M  V30 4569 C 429.082 -1.36278 1.01795 0
M  V30 4570 O 430.267 -1.4477 1.29442 0
M  V30 4571 C 427.397 -2.29328 2.60818 0
M  V30 4572 C 426.351 -2.07159 3.74525 0
M  V30 4573 C 425.677 -3.42512 4.10596 0
M  V30 4574 C 426.977 -1.43959 5.02069 0
M  V30 4575 H 428.671 -0.554382 2.94223 0
M  V30 4576 H 426.217 -0.265221 1.41536 0
M  V30 4577 H 428.17 -2.99117 2.96828 0
M  V30 4578 H 426.894 -2.7592 1.74745 0
M  V30 4579 H 425.553 -1.39797 3.38899 0
M  V30 4580 H 425.201 -3.86795 3.21556 0
M  V30 4581 H 424.901 -3.28498 4.87199 0
M  V30 4582 H 426.425 -4.13628 4.4916 0
M  V30 4583 H 427.839 -2.03696 5.35893 0
M  V30 4584 H 426.236 -1.40452 5.83432 0
M  V30 4585 H 427.306 -0.407992 4.83181 0
M  V30 4586 N 428.649 -1.55105 -0.279332 0
M  V30 4587 C 429.874 -1.7976 -1.03446 0
M  V30 4588 C 430.299 -0.565952 -1.79384 0
M  V30 4589 O 429.657 0.484259 -1.74713 0
M  V30 4590 C 429.705 -3.0179 -1.97371 0
M  V30 4591 O 428.809 -2.76432 -3.06038 0
M  V30 4592 H 428.15 -0.594334 -0.29608 0
M  V30 4593 H 430.68 -2.02235 -0.310165 0
M  V30 4594 H 430.69 -3.30351 -2.39441 0
M  V30 4595 H 429.365 -3.91085 -1.4151 0
M  V30 4596 H 427.942 -2.58949 -2.68328 0
M  V30 4597 N 430.127 0.543554 -1.4793 0
M  V30 4598 C 431.374 1.30008 -1.55255 0
M  V30 4599 C 431.702 1.93245 -0.220612 0
M  V30 4600 O 430.957 1.79141 0.787843 0
M  V30 4601 C 431.256 2.42078 -2.62932 0
M  V30 4602 C 430.922 1.96583 -4.0579 0
M  V30 4603 C 429.584 1.83893 -4.44676 0
M  V30 4604 C 431.936 1.62034 -4.95373 0
M  V30 4605 C 429.264 1.34969 -5.70964 0
M  V30 4606 C 431.616 1.14577 -6.22137 0
M  V30 4607 C 430.28 1.00493 -6.59892 0
M  V30 4608 H 429.55 0.475735 -0.568117 0
M  V30 4609 H 432.197 0.608075 -1.81589 0
M  V30 4610 H 430.502 3.16892 -2.30406 0
M  V30 4611 H 432.199 3.00236 -2.65818 0
M  V30 4612 H 428.789 2.07407 -3.75074 0
M  V30 4613 H 432.973 1.70705 -4.66019 0
M  V30 4614 H 428.229 1.2274 -5.98953 0
M  V30 4615 H 432.403 0.869109 -6.90955 0
M  V30 4616 H 430.03 0.623624 -7.57638 0
M  V30 4617 N 431.605 1.3629 0.791371 0
M  V30 4618 C 432.882 1.20962 1.53712 0
M  V30 4619 C 433.262 -0.205021 2.10102 0
M  V30 4620 O 432.61 -1.21042 1.93807 0
M  V30 4621 C 432.82 2.29002 2.63361 0
M  V30 4622 C 434.168 2.65572 3.31295 0
M  V30 4623 O 435.192 2.2803 2.73643 0
M  V30 4624 O 434.051 3.3018 4.35481 0
M  V30 4625 H 431.145 0.47086 0.679867 0
M  V30 4626 H 433.691 1.48016 0.830021 0
M  V30 4627 H 432.463 3.2382 2.19674 0
M  V30 4628 H 432.086 2.03303 3.41692 0
M  V30 4629 N 433.083 -1.0153 1.20538 0
M  V30 4630 C 433.993 -2.13557 0.971113 0
M  V30 4631 C 435.009 -1.73845 -0.0734366 0
M  V30 4632 O 436.185 -2.01075 0.114299 0
M  V30 4633 C 433.25 -3.42661 0.527639 0
M  V30 4634 C 432.311 -3.96608 1.64319 0
M  V30 4635 C 431.544 -5.1955 1.22078 0
M  V30 4636 O 431.767 -5.70329 0.0900198 0
M  V30 4637 O 430.701 -5.66681 2.02871 0
M  V30 4638 H 434.527 -2.3619 1.90913 0
M  V30 4639 H 432.112 -1.11946 0.989362 0
M  V30 4640 H 433.994 -4.20404 0.289621 0
M  V30 4641 H 432.669 -3.21441 -0.381779 0
M  V30 4642 H 431.576 -3.20139 1.93551 0
M  V30 4643 H 432.909 -4.22219 2.52966 0
M  V30 4644 N 434.561 -1.01147 -1.20859 0
M  V30 4645 C 435.807 -0.708598 -1.90658 0
M  V30 4646 C 436.162 0.753069 -1.7705 0
M  V30 4647 O 435.455 1.53952 -1.14059 0
M  V30 4648 C 435.649 -1.0727 -3.40922 0
M  V30 4649 C 435.478 -2.56821 -3.69152 0
M  V30 4650 C 434.248 -3.23524 -3.8815 0
M  V30 4651 C 436.446 -3.54997 -3.72131 0
M  V30 4652 N 434.428 -4.62359 -4.03853 0
M  V30 4653 C 435.799 -4.79371 -3.93196 0
M  V30 4654 C 437.854 -3.49042 -3.55069 0
M  V30 4655 C 436.557 -5.98512 -3.98969 0
M  V30 4656 C 438.583 -4.67579 -3.6211 0
M  V30 4657 C 437.945 -5.9076 -3.83643 0
M  V30 4658 H 434.044 -0.31088 -0.71755 0
M  V30 4659 H 436.628 -1.29526 -1.45366 0
M  V30 4660 H 434.799 -0.51443 -3.84978 0
M  V30 4661 H 436.531 -0.723891 -3.98173 0
M  V30 4662 H 433.286 -2.73958 -3.86321 0
M  V30 4663 H 433.71 -5.34427 -4.15592 0
M  V30 4664 H 438.352 -2.54808 -3.37391 0
M  V30 4665 H 436.07 -6.93132 -4.15444 0
M  V30 4666 H 439.656 -4.64581 -3.50222 0
M  V30 4667 H 438.536 -6.8095 -3.88944 0
M  V30 4668 N 436.039 1.36541 -0.78704 0
M  V30 4669 C 436.987 2.31965 -0.171724 0
M  V30 4670 C 437.981 1.55689 0.667631 0
M  V30 4671 O 439.187 1.70969 0.562981 0
M  V30 4672 H 435.562 0.751101 -0.0367545 0
M  V30 4673 H 437.533 2.81428 -0.992017 0
M  V30 4674 C 436.282 3.40968 0.680904 0
M  V30 4675 H 435.605 3.99775 0.0443961 0
M  V30 4676 H 437.045 4.10063 1.07815 0
M  V30 4677 C 435.504 2.82338 1.83813 0
M  V30 4678 O 436.034 2.74311 2.93456 0
M  V30 4679 N 434.24 2.39661 1.6435 0
M  V30 4680 H 433.787 2.46389 0.751668 0
M  V30 4681 H 433.745 2.00779 2.4194 0
M  V30 4682 N 437.518 0.538854 1.48102 0
M  V30 4683 C 438.764 0.00801365 2.02798 0
M  V30 4684 C 439.097 -1.3309 1.41424 0
M  V30 4685 O 438.372 -1.86169 0.563158 0
M  V30 4686 C 438.655 -0.104589 3.59948 0
M  V30 4687 C 438.508 1.26012 4.31788 0
M  V30 4688 C 439.827 -0.827055 4.32259 0
M  V30 4689 H 436.946 0.00438624 0.736987 0
M  V30 4690 H 439.588 0.6976 1.7673 0
M  V30 4691 H 437.738 -0.691893 3.82289 0
M  V30 4692 H 439.41 1.88922 4.2084 0
M  V30 4693 H 437.653 1.83968 3.92859 0
M  V30 4694 H 438.324 1.13424 5.40221 0
M  V30 4695 H 440.8 -0.328578 4.14801 0
M  V30 4696 H 439.676 -0.87476 5.41885 0
M  V30 4697 H 439.937 -1.87927 4.0017 0
M  V30 4698 N 438.996 -1.55193 0.274407 0
M  V30 4699 C 440.242 -2.00604 -0.33608 0
M  V30 4700 C 440.597 -1.15948 -1.53538 0
M  V30 4701 O 439.89 -0.221385 -1.90317 0
M  V30 4702 C 440.084 -3.49019 -0.769458 0
M  V30 4703 C 439.913 -4.48038 0.386301 0
M  V30 4704 C 438.683 -4.97757 0.869854 0
M  V30 4705 C 440.881 -4.99558 1.22254 0
M  V30 4706 N 438.863 -5.80575 1.99515 0
M  V30 4707 C 440.234 -5.79816 2.19575 0
M  V30 4708 C 442.289 -4.81799 1.25597 0
M  V30 4709 C 440.992 -6.44208 3.19981 0
M  V30 4710 C 443.018 -5.46989 2.24848 0
M  V30 4711 C 442.38 -6.27058 3.20901 0
M  V30 4712 H 438.479 -0.777013 -0.088172 0
M  V30 4713 H 441.063 -1.90583 0.398266 0
M  V30 4714 H 439.234 -3.59383 -1.47303 0
M  V30 4715 H 440.966 -3.81263 -1.35722 0
M  V30 4716 H 437.721 -4.71464 0.449281 0
M  V30 4717 H 438.145 -6.26675 2.5614 0
M  V30 4718 H 442.787 -4.19501 0.527158 0
M  V30 4719 H 440.505 -7.05656 3.93796 0
M  V30 4720 H 444.091 -5.35189 2.28174 0
M  V30 4721 H 442.971 -6.7661 3.96445 0
M  V30 4722 N 440.474 -0.00167713 -1.576 0
M  V30 4723 C 441.704 0.692754 -1.94639 0
M  V30 4724 C 442.112 1.67744 -0.87513 0
M  V30 4725 O 441.455 1.8305 0.154382 0
M  V30 4726 C 441.517 1.47881 -3.27676 0
M  V30 4727 C 441.181 0.655518 -4.52274 0
M  V30 4728 C 442.178 -0.0575214 -5.19868 0
M  V30 4729 C 439.863 0.600994 -4.98692 0
M  V30 4730 C 441.857 -0.814052 -6.3218 0
M  V30 4731 C 439.544 -0.15926 -6.10892 0
M  V30 4732 C 440.542 -0.865515 -6.77494 0
M  V30 4733 O 440.23 -1.61336 -7.87544 0
M  V30 4734 H 439.962 0.197792 -0.646417 0
M  V30 4735 H 442.516 -0.049423 -2.05341 0
M  V30 4736 H 440.746 2.2655 -3.13388 0
M  V30 4737 H 442.435 2.05874 -3.49816 0
M  V30 4738 H 443.201 -0.0245611 -4.84994 0
M  V30 4739 H 439.08 1.14025 -4.46676 0
M  V30 4740 H 442.624 -1.36584 -6.84098 0
M  V30 4741 H 438.521 -0.194035 -6.45208 0
M  V30 4742 H 439.289 -1.53025 -8.04068 0
M  V30 4743 N 441.952 1.55251 0.271103 0
M  V30 4744 C 442.902 1.84649 1.33749 0
M  V30 4745 C 443.886 0.705529 1.44607 0
M  V30 4746 O 445.078 0.966916 1.48256 0
M  V30 4747 C 442.207 2.12354 2.69742 0
M  V30 4748 C 441.293 3.32714 2.62988 0
M  V30 4749 N 441.684 4.52575 2.25853 0
M  V30 4750 C 439.982 3.35341 2.94045 0
M  V30 4751 C 440.683 5.34669 2.29136 0
M  V30 4752 N 439.659 4.73123 2.67685 0
M  V30 4753 H 443.461 2.74865 1.0405 0
M  V30 4754 H 440.975 1.55152 0.479738 0
M  V30 4755 H 442.972 2.31572 3.4667 0
M  V30 4756 H 441.632 1.23422 3.00328 0
M  V30 4757 H 442.643 4.78639 1.978 0
M  V30 4758 H 439.32 2.56608 3.2933 0
M  V30 4759 H 440.71 6.40509 2.02971 0
M  V30 4760 N 443.43 -0.535701 1.48216 0
M  V30 4761 C 444.655 -1.32149 1.59848 0
M  V30 4762 C 445.08 -1.86338 0.256842 0
M  V30 4763 O 444.438 -1.64107 -0.770632 0
M  V30 4764 C 444.486 -2.45224 2.64381 0
M  V30 4765 O 443.59 -3.48093 2.21144 0
M  V30 4766 H 442.931 -0.391634 0.536208 0
M  V30 4767 H 445.461 -0.645202 1.94161 0
M  V30 4768 H 445.471 -2.91491 2.85476 0
M  V30 4769 H 444.146 -2.05143 3.61786 0
M  V30 4770 H 442.723 -3.07984 2.10239 0
M  V30 4771 N 444.908 -1.36708 -0.784132 0
M  V30 4772 C 445.856 -1.31533 -1.91838 0
M  V30 4773 C 446.85 -0.206205 -1.6814 0
M  V30 4774 O 448.056 -0.373519 -1.76082 0
M  V30 4775 H 444.431 -0.409613 -0.630651 0
M  V30 4776 H 446.402 -2.2731 -1.9332 0
M  V30 4777 C 445.151 -1.12679 -3.28936 0
M  V30 4778 H 444.474 -1.97274 -3.4774 0
M  V30 4779 H 445.914 -1.13106 -4.08636 0
M  V30 4780 C 444.373 0.168281 -3.36479 0
M  V30 4781 O 444.903 1.15625 -3.84699 0
M  V30 4782 N 443.109 0.214762 -2.89805 0
M  V30 4783 H 442.656 -0.589852 -2.50756 0
M  V30 4784 H 442.614 1.08094 -2.95234 0
M  V30 4785 N 446.386 1.0089 -1.21074 0
M  V30 4786 C 447.296 2.13039 -0.982425 0
M  V30 4787 C 448.312 1.73881 0.0642161 0
M  V30 4788 O 449.488 2.01012 -0.12496 0
M  V30 4789 C 446.553 3.42377 -0.545803 0
M  V30 4790 C 445.614 3.95731 -1.6642 0
M  V30 4791 C 444.847 5.18896 -1.24832 0
M  V30 4792 O 445.07 5.70273 -0.120265 0
M  V30 4793 O 444.004 5.65597 -2.05873 0
M  V30 4794 H 447.83 2.35175 -1.92163 0
M  V30 4795 H 445.415 1.1142 -0.995285 0
M  V30 4796 H 447.297 4.20244 -0.311912 0
M  V30 4797 H 445.972 3.21639 0.364727 0
M  V30 4798 H 444.879 3.19108 -1.95246 0
M  V30 4799 H 446.212 4.20872 -2.55201 0
M  V30 4800 N 447.864 1.01787 1.20321 0
M  V30 4801 C 448.827 0.593972 2.2137 0
M  V30 4802 C 449.827 -0.336553 1.57239 0
M  V30 4803 O 451.017 -0.125069 1.7375 0
M  V30 4804 C 448.149 -0.132433 3.40643 0
M  V30 4805 H 449.342 1.48791 2.60387 0
M  V30 4806 H 446.895 0.807803 1.33807 0
M  V30 4807 H 447.63 -1.04123 3.0713 0
M  V30 4808 H 447.415 0.53605 3.88418 0
M  V30 4809 H 448.905 -0.416314 4.1552 0
M  V30 4810 N 449.342 -1.36122 0.79427 0
M  V30 4811 C 450.619 -1.93398 0.292685 0
M  V30 4812 C 450.999 -1.72567 -1.21589 0
M  V30 4813 O 450.347 -1.08745 -2.00965 0
M  V30 4814 C 450.557 -3.42099 0.690614 0
M  V30 4815 C 451.905 -4.19231 0.673105 0
M  V30 4816 O 452.929 -3.50559 0.631389 0
M  V30 4817 O 451.788 -5.41732 0.720362 0
M  V30 4818 H 448.882 -0.823712 0.0736693 0
M  V30 4819 H 451.428 -1.45273 0.87714 0
M  V30 4820 H 450.2 -3.50938 1.73085 0
M  V30 4821 H 449.823 -3.97519 0.0803036 0
M  V30 4822 N 450.82 -0.546701 -1.47814 0
M  V30 4823 C 451.767 0.206854 -2.29871 0
M  V30 4824 C 452.737 0.918235 -1.38411 0
M  V30 4825 O 453.922 0.915991 -1.67375 0
M  V30 4826 C 451.062 1.23746 -3.22151 0
M  V30 4827 C 450.175 0.533216 -4.28697 0
M  V30 4828 C 449.31 1.5482 -5.08138 0
M  V30 4829 C 448.349 0.828347 -6.06469 0
M  V30 4830 N 447.486 1.78966 -6.78908 0
M  V30 4831 H 452.326 -0.499037 -2.93792 0
M  V30 4832 H 449.863 -0.25793 -1.44821 0
M  V30 4833 H 451.821 1.84746 -3.74065 0
M  V30 4834 H 450.451 1.91151 -2.60117 0
M  V30 4835 H 449.503 -0.191089 -3.7992 0
M  V30 4836 H 450.815 -0.0311987 -4.9879 0
M  V30 4837 H 449.969 2.23202 -5.6415 0
M  V30 4838 H 448.708 2.14652 -4.37922 0
M  V30 4839 H 447.713 0.130539 -5.49645 0
M  V30 4840 H 448.938 0.235907 -6.7869 0
M  V30 4841 H 446.884 2.37675 -6.1143 0
M  V30 4842 H 446.801 1.27712 -7.45135 0
M  V30 4843 H 448.069 2.46496 -7.395 0
M  V30 4844 N 452.299 1.55045 -0.282633 0
M  V30 4845 C 453.229 2.2579 0.595066 0
M  V30 4846 C 454.21 1.25074 1.15284 0
M  V30 4847 O 455.395 1.5381 1.18559 0
M  V30 4848 C 452.525 2.98472 1.77572 0
M  V30 4849 C 451.479 4.0618 1.34914 0
M  V30 4850 C 450.805 4.66477 2.6135 0
M  V30 4851 C 452.105 5.1996 0.493821 0
M  V30 4852 H 453.799 2.994 0.00505653 0
M  V30 4853 H 451.345 1.44 0.000992001 0
M  V30 4854 H 453.298 3.46677 2.39568 0
M  V30 4855 H 452.022 2.2241 2.39168 0
M  V30 4856 H 450.681 3.58797 0.752338 0
M  V30 4857 H 450.329 3.87074 3.2122 0
M  V30 4858 H 450.029 5.39207 2.33516 0
M  V30 4859 H 451.553 5.17435 3.24181 0
M  V30 4860 H 452.967 5.64172 1.01898 0
M  V30 4861 H 451.364 5.99299 0.310047 0
M  V30 4862 H 452.434 4.82462 -0.485593 0
M  V30 4863 N 453.777 0.010035 1.57597 0
M  V30 4864 C 455.026 -0.671945 1.90178 0
M  V30 4865 C 455.339 -1.74376 0.886131 0
M  V30 4866 O 456.545 -2.48107 1.10252 0
M  V30 4867 C 455.001 -1.24636 3.3763 0
M  V30 4868 C 454.609 -0.208838 4.47513 0
M  V30 4869 C 456.353 -1.90595 3.79307 0
M  V30 4870 C 454.26 -0.793814 5.86048 0
M  V30 4871 H 453.19 -0.25474 0.709665 0
M  V30 4872 H 455.841 0.0722206 1.83358 0
M  V30 4873 H 454.223 -2.04152 3.3932 0
M  V30 4874 H 455.397 0.562463 4.57354 0
M  V30 4875 H 453.712 0.350889 4.14919 0
M  V30 4876 H 456.309 -2.35284 4.80151 0
M  V30 4877 H 456.652 -2.74074 3.13352 0
M  V30 4878 H 457.185 -1.17798 3.79958 0
M  V30 4879 H 453.924 0.00240855 6.555 0
M  V30 4880 H 453.444 -1.53404 5.79851 0
M  V30 4881 H 455.123 -1.2894 6.34022 0
M  V30 4882 N 455.255 -1.55392 -0.262866 0
M  V30 4883 C 456.165 -1.92077 -1.34698 0
M  V30 4884 C 457.181 -0.819227 -1.53508 0
M  V30 4885 O 458.357 -1.11921 -1.67439 0
M  V30 4886 C 455.422 -2.19407 -2.68443 0
M  V30 4887 C 454.483 -3.42905 -2.58292 0
M  V30 4888 C 453.716 -3.68921 -3.85659 0
M  V30 4889 O 453.939 -2.97275 -4.8681 0
M  V30 4890 O 452.873 -4.62455 -3.85252 0
M  V30 4891 H 456.699 -2.84384 -1.06581 0
M  V30 4892 H 454.284 -1.42069 -0.462264 0
M  V30 4893 H 456.166 -2.38365 -3.47506 0
M  V30 4894 H 454.841 -1.30282 -2.96325 0
M  V30 4895 H 453.748 -3.29272 -1.7757 0
M  V30 4896 H 455.081 -4.32282 -2.35358 0
M  V30 4897 N 456.733 0.527833 -1.48498 0
M  V30 4898 C 458.144 1.10975 -1.50138 0
M  V30 4899 C 458.495 1.943 -0.272378 0
M  V30 4900 O 457.62 2.07319 0.620301 0
M  V30 4901 C 458.215 2.01927 -2.72049 0
M  V30 4902 C 456.774 2.55332 -2.76554 0
M  V30 4903 C 455.921 1.32341 -2.43683 0
M  V30 4904 H 458.872 0.312986 -1.55583 0
M  V30 4905 H 458.893 2.86244 -2.50689 0
M  V30 4906 H 458.405 1.41254 -3.61481 0
M  V30 4907 H 456.506 3.19721 -1.91336 0
M  V30 4908 H 456.619 2.94319 -3.78038 0
M  V30 4909 H 454.983 1.63989 -1.94884 0
M  V30 4910 H 455.766 0.734165 -3.35358 0
M  V30 4911 N 458.211 1.37122 0.776871 0
M  V30 4912 C 459.457 1.3325 1.53675 0
M  V30 4913 C 459.812 -0.0839891 1.92217 0
M  V30 4914 O 459.105 -1.04145 1.60824 0
M  V30 4915 C 459.299 2.20068 2.81611 0
M  V30 4916 C 459.128 3.70016 2.55574 0
M  V30 4917 C 457.898 4.39144 2.4996 0
M  V30 4918 C 460.096 4.62996 2.23917 0
M  V30 4919 N 458.078 5.74663 2.15953 0
M  V30 4920 C 459.449 5.86854 2.00005 0
M  V30 4921 C 461.504 4.51433 2.1003 0
M  V30 4922 C 460.207 7.00446 1.63609 0
M  V30 4923 C 462.233 5.64905 1.75033 0
M  V30 4924 C 461.595 6.8781 1.51977 0
M  V30 4925 H 457.694 0.542878 0.562856 0
M  V30 4926 H 460.278 1.72295 0.906784 0
M  V30 4927 H 458.449 1.83248 3.42454 0
M  V30 4928 H 460.181 2.07492 3.47461 0
M  V30 4929 H 456.936 3.92088 2.65639 0
M  V30 4930 H 457.36 6.46268 2.0166 0
M  V30 4931 H 462.002 3.56987 2.26539 0
M  V30 4932 H 459.72 7.94831 1.45837 0
M  V30 4933 H 463.306 5.57926 1.64952 0
M  V30 4934 H 462.186 7.74126 1.25296 0
M  V30 4935 N 459.689 -1.00246 1.21608 0
M  V30 4936 C 460.917 -1.77631 1.06089 0
M  V30 4937 C 461.332 -1.84746 -0.38916 0
M  V30 4938 O 460.689 -1.31068 -1.26994 0
M  V30 4939 C 460.74 -3.21415 1.65453 0
M  V30 4940 O 460.461 -3.14703 3.04785 0
M  V30 4941 C 461.962 -4.15289 1.55079 0
M  V30 4942 H 459.182 -0.558162 0.37242 0
M  V30 4943 H 461.726 -1.26093 1.60999 0
M  V30 4944 H 459.881 -3.70053 1.14629 0
M  V30 4945 H 460.295 -4.05056 3.33212 0
M  V30 4946 H 461.769 -5.13965 2.01355 0
M  V30 4947 H 462.246 -4.36279 0.505665 0
M  V30 4948 H 462.852 -3.72543 2.05163 0
M  V30 4949 N 461.167 -1.02423 -1.1978 0
M  V30 4950 C 462.413 -0.719051 -1.89625 0
M  V30 4951 C 462.746 0.750083 -1.7913 0
M  V30 4952 O 462.021 1.54574 -1.18056 0
M  V30 4953 C 462.304 -1.16499 -3.40735 0
M  V30 4954 C 462.157 -2.695 -3.60125 0
M  V30 4955 C 463.476 -0.742166 -4.33797 0
M  V30 4956 H 460.595 -0.26269 -0.688595 0
M  V30 4957 H 463.237 -1.27333 -1.41018 0
M  V30 4958 H 461.387 -0.69341 -3.82262 0
M  V30 4959 H 463.059 -3.24569 -3.278 0
M  V30 4960 H 461.302 -3.10113 -3.03336 0
M  V30 4961 H 461.973 -2.95757 -4.66081 0
M  V30 4962 H 464.449 -1.1477 -3.99959 0
M  V30 4963 H 463.325 -1.08213 -5.38127 0
M  V30 4964 H 463.586 0.355747 -4.40666 0
M  V30 4965 N 462.645 1.35699 -0.801477 0
M  V30 4966 C 463.608 2.28199 -0.213994 0
M  V30 4967 C 464.608 1.49359 0.595691 0
M  V30 4968 O 465.798 1.69186 0.414921 0
M  V30 4969 C 462.93 3.33587 0.702297 0
M  V30 4970 H 464.123 2.81666 -1.02976 0
M  V30 4971 H 461.676 1.45467 -0.571759 0
M  V30 4972 H 462.411 2.85297 1.54195 0
M  V30 4973 H 462.196 3.91906 0.123484 0
M  V30 4974 H 463.686 4.02638 1.10783 0
M  V30 4975 N 464.123 0.554532 1.47522 0
M  V30 4976 C 465.534 0.120446 1.86311 0
M  V30 4977 C 465.885 -1.30904 1.46145 0
M  V30 4978 O 465.01 -1.98434 0.863294 0
M  V30 4979 C 465.605 0.211808 3.38137 0
M  V30 4980 C 464.164 -0.167224 3.76028 0
M  V30 4981 C 463.311 0.560576 2.71575 0
M  V30 4982 H 466.262 0.764408 1.39077 0
M  V30 4983 H 466.283 -0.570275 3.76202 0
M  V30 4984 H 465.795 1.25232 3.6734 0
M  V30 4985 H 463.896 -1.20894 3.52442 0
M  V30 4986 H 464.009 0.189473 4.78725 0
M  V30 4987 H 462.373 0.00396836 2.547 0
M  V30 4988 H 463.156 1.60219 3.0362 0
M  V30 4989 N 465.601 -1.54893 0.290851 0
M  V30 4990 C 467.012 -1.85584 -0.203816 0
M  V30 4991 C 467.363 -1.21285 -1.54222 0
M  V30 4992 O 466.488 -0.506841 -2.10381 0
M  V30 4993 C 467.083 -3.367 -0.376595 0
M  V30 4994 C 465.642 -3.6746 -0.815485 0
M  V30 4995 C 464.789 -2.77178 0.0821087 0
M  V30 4996 H 467.74 -1.50208 0.512175 0
M  V30 4997 H 467.761 -3.60656 -1.21275 0
M  V30 4998 H 467.273 -3.8347 0.59767 0
M  V30 4999 H 465.374 -3.26201 -1.80066 0
M  V30 5000 H 465.487 -4.7478 -0.641905 0
M  V30 5001 H 463.851 -2.50925 -0.436895 0
M  V30 5002 H 464.634 -3.26767 1.05254 0
M  V30 5003 N 467.08 -0.0183926 -1.57589 0
M  V30 5004 C 468.01 0.965596 -2.12599 0
M  V30 5005 C 468.991 1.34641 -1.0395 0
M  V30 5006 O 470.176 1.42693 -1.31729 0
M  V30 5007 C 467.306 2.25149 -2.64434 0
M  V30 5008 C 466.26 2.01175 -3.77773 0
M  V30 5009 C 465.586 3.35937 -4.15994 0
M  V30 5010 C 466.886 1.35953 -5.04296 0
M  V30 5011 H 468.58 0.507504 -2.95067 0
M  V30 5012 H 466.126 0.242671 -1.41941 0
M  V30 5013 H 468.079 2.94357 -3.01549 0
M  V30 5014 H 466.803 2.73105 -1.79112 0
M  V30 5015 H 465.462 1.34388 -3.4108 0
M  V30 5016 H 465.11 3.81631 -3.27669 0
M  V30 5017 H 464.81 3.20705 -4.92364 0
M  V30 5018 H 466.334 4.0643 -4.55683 0
M  V30 5019 H 467.748 1.95144 -5.39065 0
M  V30 5020 H 466.145 1.31152 -5.85593 0
M  V30 5021 H 467.215 0.331071 -4.83768 0
M  V30 5022 N 468.558 1.5553 0.254621 0
M  V30 5023 C 469.488 1.9268 1.31897 0
M  V30 5024 C 470.469 0.790797 1.506 0
M  V30 5025 O 471.654 1.05045 1.63337 0
M  V30 5026 C 468.784 2.21477 2.67517 0
M  V30 5027 C 467.738 3.37256 2.63519 0
M  V30 5028 C 467.064 3.51576 4.02862 0
M  V30 5029 C 468.364 4.73157 2.21179 0
M  V30 5030 H 470.058 2.81832 1.01051 0
M  V30 5031 H 467.604 1.35599 0.484662 0
M  V30 5032 H 469.557 2.46055 3.42104 0
M  V30 5033 H 468.281 1.29144 2.99982 0
M  V30 5034 H 466.94 3.12675 1.9139 0
M  V30 5035 H 466.588 2.56676 4.32581 0
M  V30 5036 H 466.288 4.2943 4.01078 0
M  V30 5037 H 467.812 3.78467 4.79161 0
M  V30 5038 H 469.226 4.97158 2.85494 0
M  V30 5039 H 467.623 5.54058 2.30521 0
M  V30 5040 H 468.693 4.70739 1.16332 0
M  V30 5041 N 470.036 -0.519951 1.48776 0
M  V30 5042 C 470.946 -1.65025 1.66745 0
M  V30 5043 C 471.962 -1.6508 0.549954 0
M  V30 5044 O 473.138 -1.83848 0.822295 0
M  V30 5045 C 470.203 -3.0146 1.71238 0
M  V30 5046 C 469.264 -3.12182 2.94688 0
M  V30 5047 C 468.497 -4.42109 2.98958 0
M  V30 5048 O 468.72 -5.29799 2.1135 0
M  V30 5049 O 467.654 -4.57406 3.91233 0
M  V30 5050 H 471.48 -1.52801 2.62461 0
M  V30 5051 H 469.065 -0.694157 1.32294 0
M  V30 5052 H 470.947 -3.82584 1.76657 0
M  V30 5053 H 469.622 -3.13988 0.786975 0
M  V30 5054 H 468.529 -2.30316 2.94797 0
M  V30 5055 H 469.862 -3.04574 3.86646 0
M  V30 5056 N 471.514 -1.37532 -0.769588 0
M  V30 5057 C 472.791 -1.23392 -1.51768 0
M  V30 5058 C 473.171 0.17157 -2.10402 0
M  V30 5059 O 472.519 1.17943 -1.95708 0
M  V30 5060 C 472.729 -2.33163 -2.59685 0
M  V30 5061 C 474.077 -2.70809 -3.27028 0
M  V30 5062 O 475.101 -2.32355 -2.69981 0
M  V30 5063 O 473.96 -3.37066 -4.30173 0
M  V30 5064 H 471.054 -0.481617 -0.67229 0
M  V30 5065 H 473.6 -1.49318 -0.806368 0
M  V30 5066 H 472.372 -3.27273 -2.14494 0
M  V30 5067 H 471.995 -2.08713 -3.38415 0
M  V30 5068 N 472.992 0.995999 -1.22138 0
M  V30 5069 C 474.241 1.72928 -1.03821 0
M  V30 5070 C 474.554 1.90872 0.427444 0
M  V30 5071 O 475.76 2.61496 0.730212 0
M  V30 5072 C 474.216 3.11124 -1.80913 0
M  V30 5073 C 473.824 3.01122 -3.31707 0
M  V30 5074 C 475.568 3.8852 -1.71035 0
M  V30 5075 C 473.475 4.34453 -4.01253 0
M  V30 5076 H 472.405 0.648376 -0.384869 0
M  V30 5077 H 475.056 1.11213 -1.45959 0
M  V30 5078 H 473.438 3.73503 -1.31573 0
M  V30 5079 H 474.612 2.47926 -3.88419 0
M  V30 5080 H 472.927 2.3721 -3.42228 0
M  V30 5081 H 475.524 4.872 -2.20318 0
M  V30 5082 H 475.867 4.1087 -0.670196 0
M  V30 5083 H 476.4 3.32812 -2.17902 0
M  V30 5084 H 473.139 4.17303 -5.05508 0
M  V30 5085 H 472.659 4.87574 -3.49331 0
M  V30 5086 H 474.338 5.03215 -4.06674 0
M  V30 5087 N 474.47 1.03057 1.19235 0
M  V30 5088 C 475.7 0.746613 1.92638 0
M  V30 5089 C 476.108 -0.698708 1.75826 0
M  V30 5090 O 475.451 -1.487 1.07861 0
M  V30 5091 C 475.513 1.02024 3.44719 0
M  V30 5092 C 475.177 2.45745 3.85303 0
M  V30 5093 C 476.174 3.43887 3.8992 0
M  V30 5094 C 473.859 2.8019 4.16892 0
M  V30 5095 C 475.853 4.74529 4.2556 0
M  V30 5096 C 473.54 4.1104 4.52205 0
M  V30 5097 C 474.538 5.0802 4.56513 0
M  V30 5098 O 474.226 6.36527 4.91008 0
M  V30 5099 H 473.958 0.272401 0.618687 0
M  V30 5100 H 476.512 1.37853 1.52269 0
M  V30 5101 H 474.742 0.331184 3.85279 0
M  V30 5102 H 476.431 0.725677 3.9936 0
M  V30 5103 H 477.197 3.18614 3.65664 0
M  V30 5104 H 473.076 2.05382 4.12722 0
M  V30 5105 H 476.62 5.50222 4.28838 0
M  V30 5106 H 472.517 4.36086 4.7592 0
M  V30 5107 H 473.285 6.41025 5.08949 0
M  V30 5108 N 475.948 -1.35272 0.808662 0
M  V30 5109 C 476.896 -2.31663 0.208606 0
M  V30 5110 C 477.89 -1.56731 -0.642778 0
M  V30 5111 O 479.096 -1.71843 -0.53571 0
M  V30 5112 H 475.471 -0.750421 0.0486993 0
M  V30 5113 H 477.442 -2.79814 1.03666 0
M  V30 5114 C 476.191 -3.42008 -0.626573 0
M  V30 5115 H 475.514 -3.99795 0.0192103 0
M  V30 5116 H 476.954 -4.11727 -1.01278 0
M  V30 5117 C 475.413 -2.85226 -1.79298 0
M  V30 5118 O 475.943 -2.78945 -2.89055 0
M  V30 5119 N 474.149 -2.42245 -1.60516 0
M  V30 5120 H 473.696 -2.47554 -0.712375 0
M  V30 5121 H 473.654 -2.04603 -2.38715 0
M  V30 5122 N 477.426 -0.562348 -1.47226 0
M  V30 5123 C 478.673 -0.0402165 -2.0246 0
M  V30 5124 C 479.001 1.31169 -1.43614 0
M  V30 5125 O 478.256 1.86805 -0.5833 0
M  V30 5126 C 478.555 0.0969817 -3.57268 0
M  V30 5127 C 478.221 -1.1847 -4.35058 0
M  V30 5128 C 476.883 -1.53588 -4.56031 0
M  V30 5129 C 479.235 -2.03378 -4.79882 0
M  V30 5130 C 476.563 -2.73452 -5.19077 0
M  V30 5131 C 478.915 -3.2245 -5.44251 0
M  V30 5132 C 477.579 -3.57876 -5.63455 0
M  V30 5133 H 476.849 -0.0147163 -0.740854 0
M  V30 5134 H 479.496 -0.734895 -1.76838 0
M  V30 5135 H 477.801 0.87466 -3.81912 0
M  V30 5136 H 479.498 0.516408 -3.97661 0
M  V30 5137 H 476.088 -0.90126 -4.19017 0
M  V30 5138 H 480.272 -1.77553 -4.63453 0
M  V30 5139 H 475.528 -3.01062 -5.32139 0
M  V30 5140 H 479.702 -3.88526 -5.77945 0
M  V30 5141 H 477.329 -4.50849 -6.12078 0
M  V30 5142 N 478.904 1.54736 -0.299062 0
M  V30 5143 C 479.814 2.27127 0.587413 0
M  V30 5144 C 480.83 1.30575 1.15005 0
M  V30 5145 O 482.006 1.63554 1.17525 0
M  V30 5146 C 479.071 2.99645 1.74395 0
M  V30 5147 C 478.132 4.11731 1.21559 0
M  V30 5148 C 477.365 4.80781 2.317 0
M  V30 5149 O 477.588 4.4918 3.51558 0
M  V30 5150 O 476.522 5.68226 1.98501 0
M  V30 5151 H 480.348 3.037 0.000250109 0
M  V30 5152 H 477.933 1.49256 -0.0655919 0
M  V30 5153 H 479.815 3.45138 2.4178 0
M  V30 5154 H 478.49 2.25969 2.31775 0
M  V30 5155 H 477.397 3.70641 0.507514 0
M  V30 5156 H 478.73 4.87379 0.687233 0
M  V30 5157 N 480.382 0.0267497 1.57577 0
M  V30 5158 C 481.659 -0.690926 1.82991 0
M  V30 5159 C 482.039 -1.90471 0.910164 0
M  V30 5160 O 481.387 -2.28474 -0.0347985 0
M  V30 5161 C 481.597 -1.07139 3.32148 0
M  V30 5162 C 482.945 -1.46402 3.98562 0
M  V30 5163 O 483.969 -1.16443 3.36629 0
M  V30 5164 O 482.828 -2.02214 5.07712 0
M  V30 5165 H 479.922 -0.338747 0.75444 0
M  V30 5166 H 482.468 0.0542506 1.69613 0
M  V30 5167 H 481.24 -0.207394 3.9075 0
M  V30 5168 H 480.863 -1.87481 3.50623 0
M  V30 5169 N 481.861 -1.55662 -0.24637 0
M  V30 5170 C 482.824 -1.89558 -1.28842 0
M  V30 5171 C 483.824 -0.772082 -1.41052 0
M  V30 5172 O 485.014 -1.04007 -1.39743 0
M  V30 5173 C 482.146 -2.12449 -2.66605 0
M  V30 5174 H 483.339 -2.82735 -1.00004 0
M  V30 5175 H 480.892 -1.48562 -0.485684 0
M  V30 5176 H 481.627 -1.21742 -3.00582 0
M  V30 5177 H 481.412 -2.94273 -2.59125 0
M  V30 5178 H 482.902 -2.39854 -3.41847 0
M  V30 5179 N 483.339 0.512053 -1.4905 0
M  V30 5180 C 484.269 1.62365 -1.67809 0
M  V30 5181 C 485.25 1.61737 -0.526809 0
M  V30 5182 O 486.435 1.78651 -0.761404 0
M  V30 5183 C 483.565 3.00895 -1.73435 0
M  V30 5184 C 482.519 3.16387 -2.88242 0
M  V30 5185 C 481.845 4.56157 -2.78971 0
M  V30 5186 C 483.145 2.97457 -4.29321 0
M  V30 5187 H 484.839 1.46921 -2.60873 0
M  V30 5188 H 482.385 0.705379 -1.2554 0
M  V30 5189 H 484.338 3.78549 -1.85145 0
M  V30 5190 H 483.062 3.17403 -0.769619 0
M  V30 5191 H 481.721 2.41155 -2.76116 0
M  V30 5192 H 481.369 4.69525 -1.8043 0
M  V30 5193 H 481.069 4.67465 -3.5602 0
M  V30 5194 H 482.593 5.35886 -2.92675 0
M  V30 5195 H 484.007 3.64888 -4.42187 0
M  V30 5196 H 482.404 3.20245 -5.07507 0
M  V30 5197 H 483.474 1.93692 -4.44535 0
M  V30 5198 N 484.817 1.37938 0.762283 0
M  V30 5199 C 485.747 1.37176 1.88958 0
M  V30 5200 C 486.728 0.238945 1.68413 0
M  V30 5201 O 487.913 0.440726 1.89133 0
M  V30 5202 C 485.043 1.18742 3.2637 0
M  V30 5203 C 483.997 2.29136 3.61498 0
M  V30 5204 C 483.323 1.95816 4.97554 0
M  V30 5205 C 484.623 3.71363 3.6727 0
M  V30 5206 H 486.317 2.31509 1.89853 0
M  V30 5207 H 483.863 1.11438 0.912005 0
M  V30 5208 H 485.816 1.16837 4.04879 0
M  V30 5209 H 484.54 0.208683 3.25933 0
M  V30 5210 H 483.199 2.30213 2.85303 0
M  V30 5211 H 482.847 0.964475 4.93667 0
M  V30 5212 H 482.547 2.69745 5.22026 0
M  V30 5213 H 484.071 1.95513 5.78452 0
M  V30 5214 H 485.485 3.72364 4.35911 0
M  V30 5215 H 483.882 4.44425 4.03245 0
M  V30 5216 H 484.952 4.04305 2.67704 0
M  V30 5217 N 486.295 -0.989507 1.22664 0
M  V30 5218 C 487.541 -1.7321 1.05481 0
M  V30 5219 C 487.874 -1.89852 -0.408635 0
M  V30 5220 O 487.149 -1.44416 -1.30285 0
M  V30 5221 C 487.432 -3.1357 1.77047 0
M  V30 5222 C 487.285 -3.04555 3.31008 0
M  V30 5223 C 488.604 -4.12812 1.5256 0
M  V30 5224 H 485.723 -0.628697 0.384589 0
M  V30 5225 H 488.365 -1.15258 1.51049 0
M  V30 5226 H 486.515 -3.63046 1.3831 0
M  V30 5227 H 488.187 -2.62674 3.7921 0
M  V30 5228 H 486.43 -2.41278 3.6051 0
M  V30 5229 H 487.101 -4.03894 3.76263 0
M  V30 5230 H 489.577 -3.72106 1.86215 0
M  V30 5231 H 488.453 -5.09132 2.05124 0
M  V30 5232 H 488.714 -4.39711 0.458936 0
M  V30 5233 N 487.773 -1.03688 -1.18687 0
M  V30 5234 C 489.021 -0.736572 -1.88199 0
M  V30 5235 C 489.342 0.737665 -1.80509 0
M  V30 5236 O 488.612 1.53204 -1.22088 0
M  V30 5237 H 487.192 -0.269466 -0.696704 0
M  V30 5238 H 489.854 -1.31282 -1.44052 0
M  V30 5239 H 488.95 -1.03802 -2.94332 0
M  V30 5240 N 489.251 1.34841 -0.815825 0
M  V30 5241 C 490.491 2.00321 -0.406297 0
M  V30 5242 C 490.855 1.63293 1.00992 0
M  V30 5243 O 492.056 2.21563 1.52195 0
M  V30 5244 C 490.327 3.52421 -0.594469 0
M  V30 5245 S 491.886 4.37926 -0.276735 0
M  V30 5246 H 488.704 0.694155 -0.153848 0
M  V30 5247 H 491.306 1.64263 -1.06009 0
M  V30 5248 H 490.01 3.76858 -1.625 0
M  V30 5249 H 489.541 3.9333 0.0743157 0
M  V30 5250 H 491.556 4.87743 0.912215 0
M  V30 5251 N 490.729 0.570148 1.46925 0
M  V30 5252 C 491.662 -0.218362 2.27153 0
M  V30 5253 C 492.64 -0.90847 1.34854 0
M  V30 5254 O 493.824 -0.924875 1.64251 0
M  V30 5255 C 490.951 -1.3122 3.12248 0
M  V30 5256 C 489.997 -0.729277 4.20219 0
M  V30 5257 S 490.83 0.434159 5.33737 0
M  V30 5258 C 491.986 -0.661188 6.22398 0
M  V30 5259 H 492.219 0.462393 2.93682 0
M  V30 5260 H 489.752 0.356753 1.50222 0
M  V30 5261 H 491.71 -1.93856 3.61842 0
M  V30 5262 H 490.371 -1.96485 2.45056 0
M  V30 5263 H 489.564 -1.5511 4.79538 0
M  V30 5264 H 489.166 -0.178836 3.73572 0
M  V30 5265 H 491.458 -1.55006 6.5953 0
M  V30 5266 H 492.401 -0.105046 7.08022 0
M  V30 5267 H 492.809 -0.959682 5.56283 0
M  V30 5268 N 492.207 -1.54576 0.307264 0
M  V30 5269 C 493.137 -2.26708 -0.55907 0
M  V30 5270 C 494.118 -1.26893 -1.1328 0
M  V30 5271 O 495.303 -1.55677 -1.16097 0
M  V30 5272 C 492.433 -3.01259 -1.72801 0
M  V30 5273 C 491.387 -4.08275 -1.28435 0
M  V30 5274 C 490.713 -4.70575 -2.53895 0
M  V30 5275 C 492.013 -5.2068 -0.411038 0
M  V30 5276 H 493.707 -2.9937 0.042576 0
M  V30 5277 H 491.253 -1.43983 0.0219173 0
M  V30 5278 H 493.206 -3.50444 -2.34023 0
M  V30 5279 H 491.93 -2.26187 -2.356 0
M  V30 5280 H 490.589 -3.59949 -0.695161 0
M  V30 5281 H 490.237 -3.92136 -3.15021 0
M  V30 5282 H 489.937 -5.42854 -2.24908 0
M  V30 5283 H 491.461 -5.22527 -3.15908 0
M  V30 5284 H 492.875 -5.65721 -0.929097 0
M  V30 5285 H 491.272 -5.99716 -0.214664 0
M  V30 5286 H 492.342 -4.81629 0.562287 0
M  V30 5287 N 493.685 -0.035106 -1.57561 0
M  V30 5288 C 494.934 0.641604 -1.91223 0
M  V30 5289 C 495.247 1.72944 -0.913761 0
M  V30 5290 O 496.453 2.46321 -1.14185 0
M  V30 5291 C 494.909 1.19249 -3.3957 0
M  V30 5292 C 494.517 0.137616 -4.47789 0
M  V30 5293 C 496.261 1.84537 -3.82291 0
M  V30 5294 C 494.168 0.700478 -5.87237 0
M  V30 5295 H 493.098 0.243417 -0.713627 0
M  V30 5296 H 495.749 -0.101382 -1.8322 0
M  V30 5297 H 494.131 1.98728 -3.42525 0
M  V30 5298 H 495.305 -0.635153 -4.56402 0
M  V30 5299 H 493.62 -0.416855 -4.14308 0
M  V30 5300 H 496.217 2.27616 -4.83834 0
M  V30 5301 H 496.56 2.69054 -3.17672 0
M  V30 5302 H 497.093 1.11739 -3.81784 0
M  V30 5303 H 493.832 -0.106693 -6.55413 0
M  V30 5304 H 493.352 1.4416 -5.82218 0
M  V30 5305 H 495.031 1.18837 -6.35993 0
M  V30 5306 N 495.163 1.55791 0.238111 0
M  V30 5307 C 496.391 1.82098 0.982233 0
M  V30 5308 C 496.806 0.612025 1.78605 0
M  V30 5309 O 496.163 -0.419381 1.77616 0
M  V30 5310 C 496.214 3.0673 1.91309 0
M  V30 5311 O 495.935 4.2296 1.14179 0
M  V30 5312 C 497.436 3.45903 2.77248 0
M  V30 5313 H 494.656 0.605748 0.288635 0
M  V30 5314 H 497.2 2.02862 0.258341 0
M  V30 5315 H 495.355 2.87991 2.59114 0
M  V30 5316 H 495.769 4.93653 1.7722 0
M  V30 5317 H 497.243 4.36189 3.38295 0
M  V30 5318 H 497.72 2.66891 3.48806 0
M  V30 5319 H 498.326 3.67024 2.14881 0
M  V30 5320 N 496.642 -0.504142 1.49319 0
M  V30 5321 C 497.572 -1.61473 1.68667 0
M  V30 5322 C 498.553 -1.61455 0.535378 0
M  V30 5323 O 499.738 -1.78245 0.770868 0
M  V30 5324 C 496.868 -2.99971 1.75028 0
M  V30 5325 C 495.822 -3.14854 2.89916 0
M  V30 5326 C 495.148 -4.54671 2.81387 0
M  V30 5327 C 496.448 -2.95176 4.30893 0
M  V30 5328 H 498.142 -1.45535 2.61648 0
M  V30 5329 H 495.688 -0.698711 1.25913 0
M  V30 5330 H 497.641 -3.77562 1.8715 0
M  V30 5331 H 496.365 -3.1699 0.786441 0
M  V30 5332 H 495.024 -2.39687 2.77391 0
M  V30 5333 H 494.672 -4.68562 1.82917 0
M  V30 5334 H 494.372 -4.6557 3.58494 0
M  V30 5335 H 495.896 -5.34327 2.95512 0
M  V30 5336 H 497.31 -3.62538 4.44116 0
M  V30 5337 H 495.707 -3.17549 5.09198 0
M  V30 5338 H 496.777 -1.91332 4.45556 0
M  V30 5339 N 498.12 -1.38341 -0.754957 0
M  V30 5340 C 499.053 -1.29837 -1.87663 0
M  V30 5341 C 500.031 -0.175659 -1.61648 0
M  V30 5342 O 501.215 -0.352745 -1.8517 0
M  V30 5343 C 498.342 -1.01141 -3.23246 0
M  V30 5344 C 497.388 -2.15331 -3.6815 0
M  V30 5345 S 498.221 -3.77459 -3.79849 0
M  V30 5346 C 499.377 -3.50948 -5.18253 0
M  V30 5347 H 499.61 -2.24771 -1.9459 0
M  V30 5348 H 497.143 -1.24161 -0.917796 0
M  V30 5349 H 499.101 -0.852687 -4.01546 0
M  V30 5350 H 497.762 -0.0792784 -3.14 0
M  V30 5351 H 496.955 -1.90795 -4.6649 0
M  V30 5352 H 496.557 -2.27304 -2.97 0
M  V30 5353 H 498.849 -3.06977 -6.03963 0
M  V30 5354 H 499.792 -4.48677 -5.47809 0
M  V30 5355 H 500.2 -2.85492 -4.86985 0
M  V30 5356 N 499.598 0.982988 -1.23187 0
M  V30 5357 C 500.545 2.07491 -1.01075 0
M  V30 5358 C 501.515 1.65949 0.070905 0
M  V30 5359 O 502.7 1.90629 -0.0806822 0
M  V30 5360 C 499.84 3.39751 -0.605261 0
M  V30 5361 C 498.953 3.94578 -1.75876 0
M  V30 5362 C 498.088 5.15039 -1.3003 0
M  V30 5363 C 497.127 5.62027 -2.42472 0
M  V30 5364 N 496.264 6.73719 -1.97602 0
M  V30 5365 H 501.104 2.25739 -1.9454 0
M  V30 5366 H 498.641 1.10659 -0.969179 0
M  V30 5367 H 500.599 4.15719 -0.351279 0
M  V30 5368 H 499.229 3.21473 0.292382 0
M  V30 5369 H 498.281 3.1539 -2.12681 0
M  V30 5370 H 499.593 4.25422 -2.60418 0
M  V30 5371 H 498.747 5.9833 -1.00429 0
M  V30 5372 H 497.486 4.85843 -0.425216 0
M  V30 5373 H 496.491 4.77318 -2.7285 0
M  V30 5374 H 497.716 5.93244 -3.30512 0
M  V30 5375 H 495.662 6.46287 -1.1247 0
M  V30 5376 H 495.579 7.03934 -2.75705 0
M  V30 5377 H 496.847 7.6049 -1.71098 0
M  V30 5378 N 501.076 1.04316 1.18135 0
M  V30 5379 C 502.026 0.606731 2.19779 0
M  V30 5380 C 503.01 -0.352144 1.56999 0
M  V30 5381 O 504.202 -0.170795 1.76174 0
M  V30 5382 C 501.331 -0.0262443 3.4329 0
M  V30 5383 C 500.417 0.955928 4.13186 0
M  V30 5384 N 500.808 2.12395 4.59045 0
M  V30 5385 C 499.106 0.782473 4.39082 0
M  V30 5386 C 499.807 2.74458 5.12882 0
M  V30 5387 N 498.783 2.02316 5.04548 0
M  V30 5388 H 502.585 1.49679 2.5293 0
M  V30 5389 H 500.099 0.912088 1.34368 0
M  V30 5390 H 502.096 -0.356617 4.15372 0
M  V30 5391 H 500.756 -0.911811 3.11635 0
M  V30 5392 H 501.767 2.50272 4.53414 0
M  V30 5393 H 498.444 -0.0527906 4.17467 0
M  V30 5394 H 499.834 3.73459 5.5855 0
M  V30 5395 N 502.554 -1.34406 0.822964 0
M  V30 5396 C 503.517 -2.2783 0.250271 0
M  V30 5397 C 504.517 -1.50288 -0.571854 0
M  V30 5398 O 505.707 -1.69825 -0.387952 0
M  V30 5399 C 502.839 -3.34663 -0.649137 0
M  V30 5400 H 504.032 -2.79992 1.07444 0
M  V30 5401 H 501.585 -1.44539 0.594829 0
M  V30 5402 H 502.32 -2.87714 -1.49637 0
M  V30 5403 H 502.105 -3.92052 -0.0611199 0
M  V30 5404 H 503.595 -4.04349 -1.04363 0
M  V30 5405 N 504.032 -0.577932 -1.46621 0
M  V30 5406 C 505.309 0.00495287 -1.95599 0
M  V30 5407 C 505.689 1.46428 -1.5206 0
M  V30 5408 O 505.037 2.1517 -0.769046 0
M  V30 5409 C 505.247 -0.162114 -3.48623 0
M  V30 5410 C 506.595 -0.0274623 -4.24591 0
M  V30 5411 O 507.619 -0.0907067 -3.56084 0
M  V30 5412 O 506.478 0.1122 -5.46385 0
M  V30 5413 H 503.572 0.0525057 -0.825332 0
M  V30 5414 H 506.118 -0.645914 -1.56927 0
M  V30 5415 H 504.89 -1.17679 -3.73185 0
M  V30 5416 H 504.513 0.525407 -3.94113 0
M  V30 5417 N 505.51 1.54411 -0.315457 0
M  V30 5418 C 506.926 1.59556 0.037464 0
M  V30 5419 C 507.126 1.33217 1.5118 0
M  V30 5420 O 506.182 1.11264 2.26664 0
M  V30 5421 C 507.495 2.98372 -0.373477 0
M  V30 5422 C 509.043 3.11324 -0.323452 0
M  V30 5423 C 509.518 4.52472 -0.709433 0
M  V30 5424 N 511.009 4.58437 -0.662524 0
M  V30 5425 C 511.744 5.65751 -0.933474 0
M  V30 5426 N 511.24 6.81039 -1.27114 0
M  V30 5427 N 513.033 5.55489 -0.859573 0
M  V30 5428 H 505.184 1.6979 -1.27614 0
M  V30 5429 H 507.447 0.793732 -0.518356 0
M  V30 5430 H 507.153 3.22618 -1.40037 0
M  V30 5431 H 507.027 3.76264 0.265615 0
M  V30 5432 H 509.414 2.86818 0.694223 0
M  V30 5433 H 509.495 2.35555 -0.997367 0
M  V30 5434 H 509.139 4.7771 -1.72498 0
M  V30 5435 H 509.069 5.26598 -0.0132923 0
M  V30 5436 H 511.56 3.75636 -0.413065 0
M  V30 5437 H 511.873 7.58816 -1.46348 0
M  V30 5438 H 510.218 6.82555 -1.30932 0
M  V30 5439 H 513.409 4.64299 -0.595324 0
M  V30 5440 H 513.582 6.39036 -1.0741 0
M  V30 5441 N 506.988 0.0434614 1.5754 0
M  V30 5442 C 508.234 -0.632971 1.92669 0
M  V30 5443 C 508.567 -1.70947 0.921446 0
M  V30 5444 O 507.842 -1.94426 -0.0537202 0
M  V30 5445 C 508.125 -1.23619 3.38216 0
M  V30 5446 C 507.978 -0.168274 4.49485 0
M  V30 5447 C 509.297 -2.15008 3.84005 0
M  V30 5448 H 506.416 -0.228629 0.700641 0
M  V30 5449 H 509.058 0.103651 1.89717 0
M  V30 5450 H 507.208 -1.864 3.40863 0
M  V30 5451 H 508.88 0.463196 4.58969 0
M  V30 5452 H 507.123 0.504581 4.30855 0
M  V30 5453 H 507.794 -0.630218 5.48391 0
M  V30 5454 H 510.27 -1.62198 3.83185 0
M  V30 5455 H 509.146 -2.54161 4.86511 0
M  V30 5456 H 509.407 -3.04707 3.20322 0
M  V30 5457 N 508.466 -1.55915 -0.229846 0
M  V30 5458 C 509.413 -1.91734 -1.28478 0
M  V30 5459 C 510.383 -0.773539 -1.46988 0
M  V30 5460 O 511.568 -1.02871 -1.60693 0
M  V30 5461 C 508.708 -2.23224 -2.63182 0
M  V30 5462 C 507.821 -3.50497 -2.52539 0
M  V30 5463 C 506.956 -3.71474 -3.79711 0
M  V30 5464 C 505.995 -4.92289 -3.63755 0
M  V30 5465 N 505.132 -5.09698 -4.82858 0
M  V30 5466 H 509.972 -2.81692 -0.972308 0
M  V30 5467 H 507.509 -1.39429 -0.468815 0
M  V30 5468 H 509.467 -2.3949 -3.41614 0
M  V30 5469 H 508.097 -1.36451 -2.92542 0
M  V30 5470 H 507.149 -3.4247 -1.65585 0
M  V30 5471 H 508.461 -4.39079 -2.36666 0
M  V30 5472 H 507.615 -3.87791 -4.66586 0
M  V30 5473 H 506.354 -2.81157 -3.985 0
M  V30 5474 H 505.359 -4.7593 -2.75264 0
M  V30 5475 H 506.584 -5.84083 -3.46445 0
M  V30 5476 H 504.53 -4.22322 -5.01976 0
M  V30 5477 H 504.447 -5.92399 -4.69681 0
M  V30 5478 H 505.715 -5.30443 -5.71183 0
M  V30 5479 N 509.944 0.496216 -1.49584 0
M  V30 5480 C 511.193 1.24668 -1.58558 0
M  V30 5481 C 511.506 1.9359 -0.279703 0
M  V30 5482 O 512.712 2.70365 -0.248048 0
M  V30 5483 C 511.168 2.26388 -2.79779 0
M  V30 5484 C 510.776 1.63384 -4.17145 0
M  V30 5485 C 512.52 3.02233 -2.98086 0
M  V30 5486 C 510.427 2.63243 -5.29582 0
M  V30 5487 H 509.357 0.468995 -0.590389 0
M  V30 5488 H 512.008 0.519985 -1.75978 0
M  V30 5489 H 510.39 3.02241 -2.55863 0
M  V30 5490 H 511.564 0.93491 -4.51216 0
M  V30 5491 H 509.879 0.999121 -4.04236 0
M  V30 5492 H 512.476 3.76919 -3.79257 0
M  V30 5493 H 512.819 3.60132 -2.08831 0
M  V30 5494 H 513.352 2.33495 -3.22063 0
M  V30 5495 H 510.091 2.10119 -6.20911 0
M  V30 5496 H 509.611 3.31363 -4.99959 0
M  V30 5497 H 511.29 3.25575 -5.59115 0
M  V30 5498 N 511.423 1.38739 0.74761 0
M  V30 5499 C 512.386 1.36241 1.84312 0
M  V30 5500 C 513.386 0.261811 1.58654 0
M  V30 5501 O 514.576 0.519031 1.66288 0
M  V30 5502 C 511.708 1.12253 3.21888 0
M  V30 5503 H 512.901 2.33712 1.87933 0
M  V30 5504 H 510.454 1.2412 0.949946 0
M  V30 5505 H 511.189 0.154133 3.23934 0
M  V30 5506 H 510.974 1.91943 3.41907 0
M  V30 5507 H 512.464 1.13215 4.0196 0
M  V30 5508 N 512.901 -0.976442 1.23707 0
M  V30 5509 C 514.141 -1.73331 1.08332 0
M  V30 5510 C 514.505 -1.88346 -0.372781 0
M  V30 5511 O 515.706 -2.60877 -0.647813 0
M  V30 5512 C 513.977 -3.09159 1.7932 0
M  V30 5513 S 515.536 -4.00376 1.79567 0
M  V30 5514 H 512.354 -0.596045 0.387622 0
M  V30 5515 H 514.956 -1.16625 1.56904 0
M  V30 5516 H 513.66 -2.95884 2.84395 0
M  V30 5517 H 513.191 -3.70932 1.31046 0
M  V30 5518 H 515.206 -4.88742 0.857094 0
M  V30 5519 N 514.379 -1.04941 -1.1758 0
M  V30 5520 C 515.309 -0.669172 -2.23706 0
M  V30 5521 C 516.29 0.331835 -1.66832 0
M  V30 5522 O 517.475 0.209988 -1.93061 0
M  V30 5523 C 514.605 -0.0404889 -3.47276 0
M  V30 5524 C 513.559 -0.965983 -4.16957 0
M  V30 5525 C 512.885 -0.201312 -5.34321 0
M  V30 5526 C 514.185 -2.28902 -4.69469 0
M  V30 5527 H 515.879 -1.55639 -2.55767 0
M  V30 5528 H 513.425 -0.749793 -1.22939 0
M  V30 5529 H 515.378 0.237298 -4.20731 0
M  V30 5530 H 514.102 0.881658 -3.14475 0
M  V30 5531 H 512.761 -1.22829 -3.45411 0
M  V30 5532 H 512.409 0.723519 -4.97769 0
M  V30 5533 H 512.109 -0.817968 -5.81879 0
M  V30 5534 H 513.633 0.0692499 -6.10561 0
M  V30 5535 H 515.047 -2.07132 -5.34574 0
M  V30 5536 H 513.444 -2.85942 -5.27596 0
M  V30 5537 H 514.514 -2.92937 -3.86414 0
M  V30 5538 N 515.857 1.33968 -0.830081 0
M  V30 5539 C 516.82 2.27694 -0.26235 0
M  V30 5540 C 517.82 1.50589 0.563876 0
M  V30 5541 O 519.01 1.70028 0.378941 0
M  V30 5542 C 516.142 3.35002 0.63138 0
M  V30 5543 H 517.335 2.79419 -1.08928 0
M  V30 5544 H 514.888 1.44221 -0.602486 0
M  V30 5545 H 515.623 2.88504 1.48109 0
M  V30 5546 H 515.408 3.92079 0.0403276 0
M  V30 5547 H 516.898 4.04897 1.02217 0
M  V30 5548 N 517.335 0.585699 1.46312 0
M  V30 5549 C 518.267 -0.183687 2.28463 0
M  V30 5550 C 519.28 -0.85264 1.38686 0
M  V30 5551 O 520.469 -0.721701 1.6326 0
M  V30 5552 C 517.569 -1.27977 3.13808 0
M  V30 5553 C 516.742 -0.702164 4.31727 0
M  V30 5554 C 515.801 -1.68633 4.98447 0
M  V30 5555 O 514.827 -1.22121 5.55945 0
M  V30 5556 N 516.029 -3.02047 4.95729 0
M  V30 5557 H 518.794 0.521127 2.95134 0
M  V30 5558 H 516.355 0.423673 1.56258 0
M  V30 5559 H 518.347 -1.9375 3.55307 0
M  V30 5560 H 516.917 -1.8874 2.4919 0
M  V30 5561 H 516.137 0.1331 3.93975 0
M  V30 5562 H 517.425 -0.296101 5.07938 0
M  V30 5563 H 516.823 -3.42457 4.50266 0
M  V30 5564 H 515.38 -3.63301 5.41161 0
M  V30 5565 N 518.813 -1.54241 0.323641 0
M  V30 5566 C 519.743 -2.27289 -0.534993 0
M  V30 5567 C 520.724 -1.28087 -1.11927 0
M  V30 5568 O 521.909 -1.56899 -1.14439 0
M  V30 5569 C 519.039 -3.03075 -1.69596 0
M  V30 5570 C 517.993 -4.09614 -1.24098 0
M  V30 5571 C 517.319 -4.73242 -2.4889 0
M  V30 5572 C 518.619 -5.21087 -0.355789 0
M  V30 5573 H 520.313 -2.99308 0.0743257 0
M  V30 5574 H 517.859 -1.43952 0.0371874 0
M  V30 5575 H 519.812 -3.52907 -2.30293 0
M  V30 5576 H 518.536 -2.28673 -2.33187 0
M  V30 5577 H 517.195 -3.60666 -0.656945 0
M  V30 5578 H 516.843 -3.95455 -3.10845 0
M  V30 5579 H 516.543 -5.45209 -2.19138 0
M  V30 5580 H 518.067 -5.25848 -3.10348 0
M  V30 5581 H 519.481 -5.66675 -0.869042 0
M  V30 5582 H 517.878 -5.9991 -0.151045 0
M  V30 5583 H 518.948 -4.81005 0.613339 0
M  V30 5584 N 520.291 -0.0518155 -1.57515 0
M  V30 5585 C 521.537 0.622745 -1.93002 0
M  V30 5586 C 521.87 1.70456 -0.930499 0
M  V30 5587 O 521.145 1.94452 0.0434086 0
M  V30 5588 C 521.428 1.21824 -3.38867 0
M  V30 5589 C 521.281 0.144434 -4.49568 0
M  V30 5590 C 522.6 2.12968 -3.8514 0
M  V30 5591 H 519.719 0.22491 -0.701844 0
M  V30 5592 H 522.361 -0.113711 -1.89659 0
M  V30 5593 H 520.511 1.8459 -3.41846 0
M  V30 5594 H 522.183 -0.48753 -4.58717 0
M  V30 5595 H 520.426 -0.527424 -4.30582 0
M  V30 5596 H 521.097 0.601127 -5.48717 0
M  V30 5597 H 523.573 1.60163 -3.8404 0
M  V30 5598 H 522.449 2.51578 -4.87852 0
M  V30 5599 H 522.71 3.03004 -3.21934 0
M  V30 5600 N 521.769 1.56035 0.221574 0
M  V30 5601 C 522.717 1.93269 1.29421 0
M  V30 5602 C 523.711 0.814727 1.48521 0
M  V30 5603 O 524.917 0.999559 1.49696 0
M  V30 5604 H 521.292 0.614188 0.43391 0
M  V30 5605 H 523.263 2.82773 0.952987 0
M  V30 5606 C 522.012 2.26573 2.63742 0
M  V30 5607 H 521.335 3.12112 2.49853 0
M  V30 5608 H 522.775 2.5651 3.37607 0
M  V30 5609 C 521.234 1.09086 3.1875 0
M  V30 5610 O 521.764 0.351985 4.00155 0
M  V30 5611 N 519.97 0.874693 2.77124 0
M  V30 5612 H 519.517 1.47726 2.11033 0
M  V30 5613 H 519.475 0.0903349 3.1427 0
M  V30 5614 N 523.247 -0.488276 1.49845 0
M  V30 5615 C 524.493 -1.24341 1.6021 0
M  V30 5616 C 524.826 -1.91967 0.293651 0
M  V30 5617 O 524.101 -1.81323 -0.703718 0
M  V30 5618 C 524.384 -2.3005 2.77036 0
M  V30 5619 C 524.237 -1.66842 4.17713 0
M  V30 5620 C 525.556 -3.31509 2.89464 0
M  V30 5621 H 522.675 -0.450704 0.583125 0
M  V30 5622 H 525.317 -0.539673 1.82174 0
M  V30 5623 H 523.467 -2.90071 2.58439 0
M  V30 5624 H 525.139 -1.1055 4.47858 0
M  V30 5625 H 523.382 -0.972079 4.22768 0
M  V30 5626 H 524.053 -2.43576 4.95353 0
M  V30 5627 H 526.529 -2.81493 3.06433 0
M  V30 5628 H 525.405 -4.02822 3.72861 0
M  V30 5629 H 525.666 -3.94603 1.99351 0
M  V30 5630 N 524.725 -1.39134 -0.740242 0
M  V30 5631 C 525.974 -1.35384 -1.49512 0
M  V30 5632 C 526.287 0.04919 -1.95538 0
M  V30 5633 O 527.493 0.209257 -2.70692 0
M  V30 5634 C 525.949 -2.37812 -2.70136 0
M  V30 5635 C 525.557 -3.83804 -2.31081 0
M  V30 5636 C 527.301 -2.4313 -3.47977 0
M  V30 5637 C 525.208 -4.77886 -3.48395 0
M  V30 5638 H 524.138 -0.503297 -0.561434 0
M  V30 5639 H 526.789 -1.64754 -0.807974 0
M  V30 5640 H 525.171 -2.01505 -3.40899 0
M  V30 5641 H 526.345 -4.29123 -1.67898 0
M  V30 5642 H 524.66 -3.81732 -1.66343 0
M  V30 5643 H 527.257 -3.10614 -4.35228 0
M  V30 5644 H 527.6 -1.45423 -3.90074 0
M  V30 5645 H 528.133 -2.78304 -2.84239 0
M  V30 5646 H 524.872 -5.76836 -3.11353 0
M  V30 5647 H 524.392 -4.3725 -4.10576 0
M  V30 5648 H 526.071 -4.96538 -4.148 0
M  V30 5649 N 526.204 0.969867 -1.24223 0
M  V30 5650 C 527.167 2.04564 -1.03373 0
M  V30 5651 C 528.167 1.60798 0.00819206 0
M  V30 5652 O 529.357 1.72641 -0.232567 0
M  V30 5653 C 526.489 3.36163 -0.566343 0
M  V30 5654 H 527.682 2.24494 -1.98853 0
M  V30 5655 H 525.235 1.1448 -1.06415 0
M  V30 5656 H 525.97 3.21925 0.391751 0
M  V30 5657 H 525.755 3.69273 -1.31834 0
M  V30 5658 H 527.245 4.1526 -0.441435 0
M  V30 5659 N 527.682 1.05563 1.17022 0
M  V30 5660 C 529.093 0.793475 1.69 0
M  V30 5661 C 529.444 -0.683882 1.83895 0
M  V30 5662 O 528.569 -1.53116 1.5292 0
M  V30 5663 C 529.164 1.43376 3.06967 0
M  V30 5664 C 527.723 1.21956 3.56095 0
M  V30 5665 C 526.87 1.51494 2.3226 0
M  V30 5666 H 529.821 1.22008 1.01487 0
M  V30 5667 H 529.842 0.845068 3.70997 0
M  V30 5668 H 529.354 2.50899 2.96093 0
M  V30 5669 H 527.455 0.163749 3.7224 0
M  V30 5670 H 527.568 1.92713 4.38633 0
M  V30 5671 H 525.932 0.935175 2.3691 0
M  V30 5672 H 526.715 2.60159 2.23992 0
M  V30 5673 N 529.16 -1.33526 0.837174 0
M  V30 5674 C 530.409 -1.97098 0.428387 0
M  V30 5675 C 530.722 -1.67062 -1.01734 0
M  V30 5676 O 531.928 -2.24235 -1.53072 0
M  V30 5677 C 530.384 -3.52725 0.715075 0
M  V30 5678 C 529.992 -3.9164 2.17537 0
M  V30 5679 C 531.736 -4.22857 0.373154 0
M  V30 5680 C 529.643 -5.40237 2.40619 0
M  V30 5681 H 528.573 -0.737589 0.156455 0
M  V30 5682 H 531.224 -1.52169 1.02552 0
M  V30 5683 H 529.606 -3.95971 0.0475904 0
M  V30 5684 H 530.78 -3.59456 2.88319 0
M  V30 5685 H 529.095 -3.34485 2.4801 0
M  V30 5686 H 531.692 -5.32133 0.523264 0
M  V30 5687 H 532.035 -4.10647 -0.683708 0
M  V30 5688 H 532.568 -3.85135 0.995801 0
M  V30 5689 H 529.307 -5.57449 3.44864 0
M  V30 5690 H 528.827 -5.73887 1.74396 0
M  V30 5691 H 530.506 -6.07102 2.23688 0
M  V30 5692 N 530.638 -0.59345 -1.46 0
M  V30 5693 C 531.571 0.182196 -2.27472 0
M  V30 5694 C 532.549 0.886901 -1.36282 0
M  V30 5695 O 533.733 0.898627 -1.65701 0
M  V30 5696 C 530.86 1.26236 -3.14296 0
M  V30 5697 C 529.906 0.662331 -4.21326 0
M  V30 5698 S 530.739 -0.519017 -5.32979 0
M  V30 5699 C 531.895 0.562086 -6.23371 0
M  V30 5700 H 532.128 -0.509056 -2.92909 0
M  V30 5701 H 529.661 -0.380607 -1.49635 0
M  V30 5702 H 531.619 1.88075 -3.64881 0
M  V30 5703 H 530.28 1.92562 -2.48151 0
M  V30 5704 H 529.473 1.47461 -4.81945 0
M  V30 5705 H 529.075 0.119381 -3.73809 0
M  V30 5706 H 531.367 1.44494 -6.61912 0
M  V30 5707 H 532.31 -0.00760776 -7.081 0
M  V30 5708 H 532.718 0.871061 -5.57739 0
M  V30 5709 N 532.116 1.54067 -0.331816 0
M  V30 5710 C 533.344 2.05131 0.269996 0
M  V30 5711 C 533.759 1.20749 1.45138 0
M  V30 5712 O 533.116 0.240069 1.80914 0
M  V30 5713 C 533.167 3.54728 0.696456 0
M  V30 5714 O 532.888 4.35906 -0.43794 0
M  V30 5715 C 534.389 4.21916 1.36021 0
M  V30 5716 H 531.609 0.668807 0.0542042 0
M  V30 5717 H 534.153 1.98777 -0.4804 0
M  V30 5718 H 532.308 3.61342 1.39681 0
M  V30 5719 H 532.722 5.24404 -0.100334 0
M  V30 5720 H 534.196 5.28015 1.60947 0
M  V30 5721 H 534.673 3.73538 2.31011 0
M  V30 5722 H 535.279 4.19463 0.702212 0
M  V30 5723 N 533.594 0.0601682 1.57485 0
M  V30 5724 C 534.504 -0.926121 2.15546 0
M  V30 5725 C 535.52 -1.33532 1.11558 0
M  V30 5726 O 536.696 -1.4104 1.4377 0
M  V30 5727 C 533.761 -2.17952 2.69625 0
M  V30 5728 C 532.822 -1.82783 3.88444 0
M  V30 5729 C 532.055 -3.02148 4.39935 0
M  V30 5730 O 532.278 -4.15803 3.90466 0
M  V30 5731 O 531.212 -2.82639 5.31412 0
M  V30 5732 H 535.038 -0.462289 3.00161 0
M  V30 5733 H 532.623 -0.162246 1.48516 0
M  V30 5734 H 534.505 -2.91474 3.04337 0
M  V30 5735 H 533.18 -2.63456 1.88077 0
M  V30 5736 H 532.087 -1.06549 3.58606 0
M  V30 5737 H 533.42 -1.42072 4.7125 0
M  V30 5738 N 535.072 -1.5615 -0.213296 0
M  V30 5739 C 536.019 -1.93086 -1.26437 0
M  V30 5740 C 536.989 -0.789086 -1.4616 0
M  V30 5741 O 538.174 -1.04569 -1.59593 0
M  V30 5742 C 535.314 -2.26003 -2.608 0
M  V30 5743 C 534.427 -3.53156 -2.48807 0
M  V30 5744 C 533.562 -3.7548 -3.7575 0
M  V30 5745 C 532.601 -4.96119 -3.58514 0
M  V30 5746 N 531.738 -5.14791 -4.77425 0
M  V30 5747 H 536.578 -2.82707 -0.942376 0
M  V30 5748 H 534.115 -1.39919 -0.454001 0
M  V30 5749 H 536.073 -2.431 -3.39055 0
M  V30 5750 H 534.703 -1.39546 -2.91079 0
M  V30 5751 H 533.755 -3.44207 -1.61944 0
M  V30 5752 H 535.067 -4.41565 -2.31996 0
M  V30 5753 H 534.221 -3.92718 -4.62447 0
M  V30 5754 H 532.96 -2.85368 -3.95495 0
M  V30 5755 H 531.965 -4.78823 -2.70201 0
M  V30 5756 H 533.19 -5.87724 -3.40231 0
M  V30 5757 H 531.136 -4.27623 -4.97468 0
M  V30 5758 H 531.053 -5.97347 -4.63371 0
M  V30 5759 H 532.321 -5.36471 -5.65525 0
M  V30 5760 N 536.55 0.480323 -1.50102 0
M  V30 5761 C 537.498 1.60024 -1.68805 0
M  V30 5762 C 538.492 1.60089 -0.553888 0
M  V30 5763 O 539.698 1.64349 -0.734127 0
M  V30 5764 H 536.073 0.530841 -0.532646 0
M  V30 5765 H 538.044 1.41408 -2.62767 0
M  V30 5766 C 536.793 2.98029 -1.79092 0
M  V30 5767 H 536.116 2.98694 -2.65748 0
M  V30 5768 H 537.556 3.75871 -1.96206 0
M  V30 5769 C 536.015 3.32538 -0.540388 0
M  V30 5770 O 536.545 4.00386 0.324637 0
M  V30 5771 N 534.751 2.87873 -0.397154 0
M  V30 5772 H 534.298 2.32834 -1.1021 0
M  V30 5773 H 534.256 3.11328 0.438425 0
M  V30 5774 N 538.028 1.39524 0.732853 0
M  V30 5775 C 539.276 1.36594 1.48951 0
M  V30 5776 C 539.597 -0.0367507 1.94965 0
M  V30 5777 O 538.867 -0.988391 1.69138 0
M  V30 5778 H 537.447 0.502673 0.552566 0
M  V30 5779 H 540.109 1.74411 0.869869 0
M  V30 5780 H 539.205 2.03 2.3706 0
M  V30 5781 N 539.506 -0.963266 1.24736 0
M  V30 5782 C 540.917 -1.52145 1.08207 0
M  V30 5783 C 541.268 -1.93142 -0.345061 0
M  V30 5784 O 540.393 -1.77769 -1.23399 0
M  V30 5785 C 540.988 -2.76486 1.95808 0
M  V30 5786 C 539.547 -3.28646 1.8349 0
M  V30 5787 C 538.694 -2.01529 1.90476 0
M  V30 5788 H 541.645 -0.781083 1.38148 0
M  V30 5789 H 541.666 -3.49986 1.49297 0
M  V30 5790 H 541.178 -2.46617 2.99669 0
M  V30 5791 H 539.279 -3.63357 0.824787 0
M  V30 5792 H 539.392 -3.97246 2.67829 0
M  V30 5793 H 537.756 -2.16442 1.34258 0
M  V30 5794 H 538.539 -1.7402 2.95926 0
M  V30 5795 N 540.985 -1.06182 -1.16461 0
M  V30 5796 C 541.948 -0.675723 -2.19013 0
M  V30 5797 C 542.948 0.277963 -1.58379 0
M  V30 5798 O 544.138 0.0604962 -1.74095 0
M  V30 5799 C 541.27 0.00591459 -3.40899 0
M  V30 5800 H 542.463 -1.58353 -2.54685 0
M  V30 5801 H 540.016 -0.856908 -1.30716 0
M  V30 5802 H 540.751 0.92652 -3.10783 0
M  V30 5803 H 540.536 -0.67984 -3.86161 0
M  V30 5804 H 542.026 0.26181 -4.16778 0
M  V30 5805 N 542.463 1.3308 -0.844243 0
M  V30 5806 C 543.709 1.98304 -0.452453 0
M  V30 5807 C 544.064 1.65645 0.978746 0
M  V30 5808 O 543.357 0.928849 1.6758 0
M  V30 5809 C 543.551 3.52045 -0.616354 0
M  V30 5810 C 543.38 3.99643 -2.06193 0
M  V30 5811 C 542.15 4.27224 -2.69829 0
M  V30 5812 C 544.348 4.15471 -3.03131 0
M  V30 5813 N 542.33 4.60998 -4.05406 0
M  V30 5814 C 543.701 4.52665 -4.23668 0
M  V30 5815 C 545.756 3.97776 -2.99465 0
M  V30 5816 C 544.459 4.74011 -5.41023 0
M  V30 5817 C 546.485 4.20301 -4.16055 0
M  V30 5818 C 545.847 4.57801 -5.35348 0
M  V30 5819 H 541.946 0.752122 -0.214096 0
M  V30 5820 H 544.53 1.61096 -1.09344 0
M  V30 5821 H 542.701 3.884 -0.00513205 0
M  V30 5822 H 544.433 4.04228 -0.19548 0
M  V30 5823 H 541.188 4.18911 -2.20931 0
M  V30 5824 H 541.612 4.82087 -4.75312 0
M  V30 5825 H 546.254 3.67893 -2.08362 0
M  V30 5826 H 543.972 5.02753 -6.32665 0
M  V30 5827 H 547.558 4.08122 -4.14641 0
M  V30 5828 H 546.438 4.74884 -6.24063 0
M  V30 5829 N 543.941 0.601185 1.45683 0
M  V30 5830 C 544.888 -0.121396 2.30481 0
M  V30 5831 C 545.858 -0.866232 1.41724 0
M  V30 5832 O 547.043 -0.85324 1.70659 0
M  V30 5833 C 544.183 -1.11704 3.26521 0
M  V30 5834 C 543.296 -0.373741 4.3038 0
M  V30 5835 C 542.431 -1.35854 5.13534 0
M  V30 5836 C 541.47 -0.602689 6.09126 0
M  V30 5837 N 540.607 -1.53645 6.85082 0
M  V30 5838 H 545.447 0.607732 2.91737 0
M  V30 5839 H 542.984 0.311502 1.43764 0
M  V30 5840 H 544.942 -1.70735 3.80664 0
M  V30 5841 H 543.572 -1.81366 2.67032 0
M  V30 5842 H 542.624 0.331962 3.78949 0
M  V30 5843 H 543.936 0.2163 4.98331 0
M  V30 5844 H 543.09 -2.02111 5.72046 0
M  V30 5845 H 541.829 -1.98251 4.45587 0
M  V30 5846 H 540.834 0.0735482 5.49751 0
M  V30 5847 H 542.059 0.0161467 6.79098 0
M  V30 5848 H 540.005 -2.14819 6.1983 0
M  V30 5849 H 539.922 -0.999688 7.49361 0
M  V30 5850 H 541.19 -2.1888 7.48139 0
M  V30 5851 N 545.419 -1.53889 0.339982 0
M  V30 5852 C 546.351 -2.22435 -0.55275 0
M  V30 5853 C 547.364 -1.22975 -1.06681 0
M  V30 5854 O 548.553 -1.49351 -0.977575 0
M  V30 5855 C 545.653 -2.8882 -1.77302 0
M  V30 5856 C 544.826 -4.14563 -1.39486 0
M  V30 5857 C 543.885 -4.64391 -2.47442 0
M  V30 5858 O 542.911 -5.28687 -2.10899 0
M  V30 5859 N 544.113 -4.40015 -3.78639 0
M  V30 5860 H 546.878 -2.9968 0.0342669 0
M  V30 5861 H 544.439 -1.61068 0.16394 0
M  V30 5862 H 546.431 -3.19072 -2.48948 0
M  V30 5863 H 545.001 -2.15182 -2.26749 0
M  V30 5864 H 544.221 -3.90896 -0.509321 0
M  V30 5865 H 545.509 -4.96362 -1.11813 0
M  V30 5866 H 544.907 -3.88586 -4.11118 0
M  V30 5867 H 543.464 -4.74881 -4.46465 0
M  V30 5868 N 546.897 -0.0685191 -1.57451 0
M  V30 5869 C 548.125 0.610462 -1.97689 0
M  V30 5870 C 548.54 1.63346 -0.946758 0
M  V30 5871 O 547.897 1.82377 0.0669868 0
M  V30 5872 C 547.948 1.28196 -3.38006 0
M  V30 5873 O 547.669 0.299906 -4.37072 0
M  V30 5874 C 549.17 2.04907 -3.931 0
M  V30 5875 H 546.39 0.165689 -0.650222 0
M  V30 5876 H 548.934 -0.139953 -2.04021 0
M  V30 5877 H 547.089 1.98348 -3.32771 0
M  V30 5878 H 547.503 0.78126 -5.18649 0
M  V30 5879 H 548.977 2.47287 -4.93511 0
M  V30 5880 H 549.454 2.9043 -3.29465 0
M  V30 5881 H 550.06 1.39629 -4.01726 0
M  V30 5882 N 548.375 1.56261 0.205012 0
M  V30 5883 C 549.624 1.79236 0.925058 0
M  V30 5884 C 549.937 0.640011 1.84833 0
M  V30 5885 O 551.143 0.753809 2.60826 0
M  V30 5886 C 549.599 3.17475 1.69522 0
M  V30 5887 C 549.207 4.40482 0.817269 0
M  V30 5888 C 550.951 3.49766 2.4055 0
M  V30 5889 C 548.858 5.69744 1.58573 0
M  V30 5890 H 547.788 0.668287 0.349153 0
M  V30 5891 H 550.439 1.82629 0.178544 0
M  V30 5892 H 548.821 3.08304 2.48526 0
M  V30 5893 H 549.995 4.60752 0.0665988 0
M  V30 5894 H 548.31 4.15827 0.218316 0
M  V30 5895 H 550.907 4.43573 2.98575 0
M  V30 5896 H 551.25 2.73041 3.14252 0
M  V30 5897 H 551.783 3.60341 1.68522 0
M  V30 5898 H 548.522 6.49407 0.891679 0
M  V30 5899 H 548.042 5.53509 2.31059 0
M  V30 5900 H 549.721 6.1051 2.14212 0
M  V30 5901 N 549.853 -0.472356 1.50355 0
M  V30 5902 C 551.083 -1.24603 1.64796 0
M  V30 5903 C 551.491 -1.86297 0.330156 0
M  V30 5904 O 550.834 -1.69934 -0.697728 0
M  V30 5905 C 550.896 -2.39578 2.68035 0
M  V30 5906 C 550.56 -1.98531 4.11624 0
M  V30 5907 C 551.557 -1.50856 4.97532 0
M  V30 5908 C 549.242 -2.0729 4.57532 0
M  V30 5909 C 551.236 -1.12481 6.27397 0
M  V30 5910 C 548.923 -1.68527 5.87403 0
M  V30 5911 C 549.921 -1.212 6.7216 0
M  V30 5912 O 549.609 -0.829728 7.99607 0
M  V30 5913 H 549.341 -0.383035 0.55701 0
M  V30 5914 H 551.895 -0.570392 1.97321 0
M  V30 5915 H 550.125 -3.10309 2.30749 0
M  V30 5916 H 551.814 -3.01544 2.71709 0
M  V30 5917 H 552.58 -1.43511 4.63281 0
M  V30 5918 H 548.459 -2.43076 3.91708 0
M  V30 5919 H 552.003 -0.754698 6.93506 0
M  V30 5920 H 547.9 -1.7553 6.21176 0
M  V30 5921 H 548.668 -0.958689 8.12866 0
M  V30 5922 N 551.331 -1.39911 -0.725443 0
M  V30 5923 C 552.561 -1.40744 -1.51244 0
M  V30 5924 C 552.969 -0.00275403 -1.892 0
M  V30 5925 O 552.312 0.981299 -1.55294 0
M  V30 5926 C 552.374 -2.22527 -2.82351 0
M  V30 5927 C 552.038 -3.71053 -2.66774 0
M  V30 5928 C 553.035 -4.63916 -2.34686 0
M  V30 5929 C 550.72 -4.14753 -2.83347 0
M  V30 5930 C 552.714 -5.98463 -2.19366 0
M  V30 5931 C 550.401 -5.49372 -2.67644 0
M  V30 5932 C 551.399 -6.41042 -2.357 0
M  V30 5933 O 551.087 -7.73181 -2.20107 0
M  V30 5934 H 550.819 -0.482314 -0.473655 0
M  V30 5935 H 553.373 -1.84472 -0.903284 0
M  V30 5936 H 551.603 -1.73563 -3.45562 0
M  V30 5937 H 553.292 -2.15421 -3.44018 0
M  V30 5938 H 554.058 -4.31453 -2.21525 0
M  V30 5939 H 549.937 -3.43728 -3.072 0
M  V30 5940 H 553.481 -6.69979 -1.94354 0
M  V30 5941 H 549.378 -5.81424 -2.80387 0
M  V30 5942 H 550.146 -7.84008 -2.35103 0
M  V30 5943 N 552.809 0.956637 -1.25245 0
M  V30 5944 C 554.22 1.51569 -1.09012 0
M  V30 5945 C 554.571 1.93322 0.334813 0
M  V30 5946 O 553.696 1.78421 1.22454 0
M  V30 5947 C 554.291 2.75444 -1.97271 0
M  V30 5948 C 552.85 3.27669 -1.8523 0
M  V30 5949 C 551.997 2.00517 -1.91542 0
M  V30 5950 H 554.948 0.773746 -1.3856 0
M  V30 5951 H 554.969 3.4919 -1.51151 0
M  V30 5952 H 554.481 2.45024 -3.00973 0
M  V30 5953 H 552.582 3.62914 -0.844045 0
M  V30 5954 H 552.695 3.9582 -2.69932 0
M  V30 5955 H 551.059 2.15727 -1.35404 0
M  V30 5956 H 551.842 1.72448 -2.96844 0
M  V30 5957 N 554.287 1.06798 1.15896 0
M  V30 5958 C 555.534 0.787767 1.86549 0
M  V30 5959 C 555.862 -0.685959 1.82002 0
M  V30 5960 O 555.117 -1.5188 1.23414 0
M  V30 5961 C 555.416 1.23414 3.35416 0
M  V30 5962 C 555.082 2.71285 3.6016 0
M  V30 5963 C 553.744 3.11676 3.66622 0
M  V30 5964 C 556.096 3.6676 3.7032 0
M  V30 5965 C 553.424 4.4637 3.8075 0
M  V30 5966 C 555.776 5.01209 3.8597 0
M  V30 5967 C 554.44 5.41229 3.90676 0
M  V30 5968 H 553.71 0.288264 0.682631 0
M  V30 5969 H 556.357 1.338 1.37003 0
M  V30 5970 H 554.662 0.60319 3.87129 0
M  V30 5971 H 556.359 0.994298 3.88477 0
M  V30 5972 H 552.949 2.39015 3.55767 0
M  V30 5973 H 557.133 3.36685 3.64633 0
M  V30 5974 H 552.389 4.76855 3.82648 0
M  V30 5975 H 556.563 5.75067 3.92773 0
M  V30 5976 H 554.19 6.45602 4.01375 0
M  V30 5977 N 555.766 -1.3263 0.851289 0
M  V30 5978 C 556.699 -2.26952 0.238318 0
M  V30 5979 C 557.677 -1.50243 -0.621757 0
M  V30 5980 O 558.861 -1.79378 -0.579298 0
M  V30 5981 C 555.988 -3.32124 -0.664178 0
M  V30 5982 C 555.034 -4.26325 0.122067 0
M  V30 5983 S 555.867 -5.14404 1.48824 0
M  V30 5984 C 557.023 -6.231 0.591372 0
M  V30 5985 H 557.256 -2.78594 1.03791 0
M  V30 5986 H 554.789 -1.4011 0.648731 0
M  V30 5987 H 556.747 -3.93197 -1.17924 0
M  V30 5988 H 555.408 -2.79273 -1.43755 0
M  V30 5989 H 554.601 -5.00821 -0.565181 0
M  V30 5990 H 554.203 -3.69652 0.568602 0
M  V30 5991 H 556.495 -6.77187 -0.205762 0
M  V30 5992 H 557.438 -6.95936 1.30687 0
M  V30 5993 H 557.846 -5.64252 0.167206 0
M  V30 5994 N 557.244 -0.608902 -1.45362 0
M  V30 5995 C 558.194 0.130616 -2.27626 0
M  V30 5996 C 559.178 0.837323 -1.37396 0
M  V30 5997 O 560.37 0.727096 -1.61376 0
M  V30 5998 C 557.499 1.12646 -3.24293 0
M  V30 5999 C 556.585 0.42052 -4.2201 0
M  V30 6000 N 556.976 -0.538569 -5.02925 0
M  V30 6001 C 555.274 0.667901 -4.40971 0
M  V30 6002 C 555.975 -0.953625 -5.7383 0
M  V30 6003 N 554.951 -0.297097 -5.42788 0
M  V30 6004 H 558.753 -0.605996 -2.87585 0
M  V30 6005 H 556.267 -0.432672 -1.5653 0
M  V30 6006 H 558.264 1.67066 -3.81961 0
M  V30 6007 H 556.924 1.86361 -2.65894 0
M  V30 6008 H 557.935 -0.915375 -5.09746 0
M  V30 6009 H 554.612 1.38963 -3.93695 0
M  V30 6010 H 556.002 -1.74473 -6.48852 0
M  V30 6011 N 558.722 1.53707 -0.348139 0
M  V30 6012 C 559.685 2.23812 0.494058 0
M  V30 6013 C 560.685 1.23989 1.02388 0
M  V30 6014 O 561.875 1.48395 0.912396 0
M  V30 6015 C 559.007 2.96133 1.68872 0
M  V30 6016 H 560.2 2.99663 -0.119141 0
M  V30 6017 H 557.753 1.55983 -0.0995539 0
M  V30 6018 H 558.488 2.24481 2.34049 0
M  V30 6019 H 558.273 3.69357 1.31596 0
M  V30 6020 H 559.763 3.49475 2.28597 0
M  V30 6021 N 560.2 0.0768682 1.57412 0
M  V30 6022 C 561.425 -0.603404 1.98428 0
M  V30 6023 C 561.85 -1.62047 0.955108 0
M  V30 6024 O 561.208 -1.81129 -0.0786778 0
M  V30 6025 C 561.256 -1.24396 3.38464 0
M  V30 6026 O 560.36 -2.35982 3.3821 0
M  V30 6027 H 559.701 -0.154741 0.645718 0
M  V30 6028 H 562.231 0.152885 2.04028 0
M  V30 6029 H 562.241 -1.5896 3.7576 0
M  V30 6030 H 560.916 -0.498735 4.12899 0
M  V30 6031 H 559.493 -2.03173 3.1269 0
M  V30 6032 N 561.678 -1.56367 -0.196722 0
M  V30 6033 C 562.924 -1.80796 -0.918725 0
M  V30 6034 C 563.257 -0.650645 -1.82976 0
M  V30 6035 O 562.532 0.348889 -1.91345 0
M  V30 6036 C 562.815 -3.15472 -1.73636 0
M  V30 6037 C 562.668 -4.41693 -0.85015 0
M  V30 6038 C 563.987 -3.46824 -2.70927 0
M  V30 6039 H 561.106 -0.657702 -0.332561 0
M  V30 6040 H 563.748 -1.89086 -0.186186 0
M  V30 6041 H 561.898 -3.08536 -2.36088 0
M  V30 6042 H 563.57 -4.60673 -0.240459 0
M  V30 6043 H 561.813 -4.33517 -0.156785 0
M  V30 6044 H 562.484 -5.32419 -1.45719 0
M  V30 6045 H 564.96 -3.54049 -2.18607 0
M  V30 6046 H 563.836 -4.4218 -3.25219 0
M  V30 6047 H 564.097 -2.70236 -3.49893 0
M  V30 6048 N 563.156 0.464375 -1.50603 0
M  V30 6049 C 564.386 1.23727 -1.65454 0
M  V30 6050 C 564.794 1.86119 -0.340032 0
M  V30 6051 O 564.137 1.70301 0.688706 0
M  V30 6052 C 564.199 2.38153 -2.69301 0
M  V30 6053 C 563.863 1.96345 -4.12671 0
M  V30 6054 C 564.86 1.48215 -4.98326 0
M  V30 6055 C 562.545 2.04861 -4.58625 0
M  V30 6056 C 564.539 1.09152 -6.27985 0
M  V30 6057 C 562.226 1.65409 -5.88288 0
M  V30 6058 C 563.224 1.17634 -6.72794 0
M  V30 6059 O 562.912 0.787312 -8.00035 0
M  V30 6060 H 562.644 0.380075 -0.559034 0
M  V30 6061 H 565.198 0.559919 -1.97621 0
M  V30 6062 H 563.428 3.09081 -2.32392 0
M  V30 6063 H 565.117 3.00099 -2.73304 0
M  V30 6064 H 565.883 1.41052 -4.64036 0
M  V30 6065 H 561.762 2.40996 -3.92991 0
M  V30 6066 H 565.306 0.717909 -6.93896 0
M  V30 6067 H 561.203 1.72233 -6.22098 0
M  V30 6068 H 561.971 0.915567 -8.13363 0
M  V30 6069 N 564.634 1.40294 0.718013 0
M  V30 6070 C 565.882 1.38167 1.47494 0
M  V30 6071 C 566.203 -0.01607 1.94993 0
M  V30 6072 O 565.473 -0.970396 1.70177 0
M  V30 6073 H 564.053 0.508505 0.547203 0
M  V30 6074 H 566.715 1.75324 0.851322 0
M  V30 6075 H 565.811 2.05503 2.34894 0
M  V30 6076 N 566.112 -0.949982 1.2575 0
M  V30 6077 C 567.528 -1.22191 1.02672 0
M  V30 6078 C 567.728 -1.99898 -0.253588 0
M  V30 6079 O 566.784 -2.33329 -0.965076 0
M  V30 6080 C 568.097 -1.99175 2.25277 0
M  V30 6081 C 569.645 -2.12201 2.30087 0
M  V30 6082 C 570.12 -2.92586 3.5236 0
M  V30 6083 N 571.611 -3.00163 3.52784 0
M  V30 6084 C 572.346 -3.62766 4.44059 0
M  V30 6085 N 571.842 -4.26943 5.45611 0
M  V30 6086 N 573.635 -3.59953 4.3173 0
M  V30 6087 H 565.786 -0.430258 2.07996 0
M  V30 6088 H 568.049 -0.252844 0.91366 0
M  V30 6089 H 567.755 -1.49479 3.18354 0
M  V30 6090 H 567.629 -2.99868 2.28821 0
M  V30 6091 H 570.016 -2.61093 1.3753 0
M  V30 6092 H 570.097 -1.10799 2.30559 0
M  V30 6093 H 569.741 -2.44383 4.45241 0
M  V30 6094 H 569.671 -3.94224 3.49134 0
M  V30 6095 H 572.162 -2.54529 2.79327 0
M  V30 6096 H 572.475 -4.72583 6.11461 0
M  V30 6097 H 570.82 -4.25557 5.49478 0
M  V30 6098 H 574.011 -3.09003 3.51617 0
M  V30 6099 H 574.184 -4.08455 5.03059 0
M  V30 6100 N 567.59 -1.07411 -1.15328 0
M  V30 6101 C 568.838 -0.796073 -1.85761 0
M  V30 6102 C 569.159 0.679864 -1.82764 0
M  V30 6103 O 568.429 1.49242 -1.269 0
M  V30 6104 H 567.009 -0.291495 -0.687779 0
M  V30 6105 H 569.671 -1.35799 -1.39802 0
M  V30 6106 H 568.767 -1.13114 -2.90881 0
M  V30 6107 N 569.068 1.32177 -0.85831 0
M  V30 6108 C 570.314 1.97417 -0.46417 0
M  V30 6109 C 570.647 1.67746 0.978514 0
M  V30 6110 O 569.922 0.967654 1.68721 0
M  V30 6111 C 570.205 3.53069 -0.708094 0
M  V30 6112 C 570.058 3.92357 -2.19946 0
M  V30 6113 C 571.377 4.39783 -0.166881 0
M  V30 6114 H 568.496 0.717097 -0.17012 0
M  V30 6115 H 571.138 1.56499 -1.07741 0
M  V30 6116 H 569.288 3.88054 -0.186128 0
M  V30 6117 H 570.96 3.67533 -2.78779 0
M  V30 6118 H 569.203 3.41384 -2.67656 0
M  V30 6119 H 569.874 5.00841 -2.32082 0
M  V30 6120 H 572.35 4.11556 -0.613285 0
M  V30 6121 H 571.226 5.47671 -0.367093 0
M  V30 6122 H 571.487 4.32196 0.930559 0
M  V30 6123 N 570.547 0.616602 1.45037 0
M  V30 6124 C 571.51 -0.0871112 2.29034 0
M  V30 6125 C 572.51 -0.786414 1.40258 0
M  V30 6126 O 573.7 -0.633207 1.62284 0
M  V30 6127 C 570.832 -1.13369 3.21497 0
M  V30 6128 H 572.025 0.651497 2.92738 0
M  V30 6129 H 569.578 0.376058 1.51709 0
M  V30 6130 H 570.313 -1.90277 2.62612 0
M  V30 6131 H 570.098 -0.636358 3.86902 0
M  V30 6132 H 571.588 -1.62627 3.84633 0
M  V30 6133 N 572.025 -1.5352 0.356285 0
M  V30 6134 C 572.955 -2.28372 -0.486661 0
M  V30 6135 C 573.936 -1.30432 -1.09185 0
M  V30 6136 O 575.121 -1.59291 -1.11085 0
M  V30 6137 C 572.251 -3.06604 -1.63129 0
M  V30 6138 C 571.205 -4.12154 -1.15381 0
M  V30 6139 C 570.531 -4.78415 -2.38796 0
M  V30 6140 C 571.831 -5.21724 -0.245179 0
M  V30 6141 H 573.525 -2.99083 0.137797 0
M  V30 6142 H 571.071 -1.43841 0.0677134 0
M  V30 6143 H 573.024 -3.57712 -2.22755 0
M  V30 6144 H 571.748 -2.33568 -2.28284 0
M  V30 6145 H 570.407 -3.61978 -0.580294 0
M  V30 6146 H 570.055 -4.01959 -3.02387 0
M  V30 6147 H 569.755 -5.49734 -2.07524 0
M  V30 6148 H 571.279 -5.32313 -2.99125 0
M  V30 6149 H 572.693 -5.68391 -0.748646 0
M  V30 6150 H 571.09 -6.00095 -0.0237608 0
M  V30 6151 H 572.16 -4.79596 0.715229 0
M  V30 6152 N 573.503 -0.0852151 -1.57369 0
M  V30 6153 C 574.453 0.88767 -2.10011 0
M  V30 6154 C 575.437 1.25021 -1.01285 0
M  V30 6155 O 576.629 1.22694 -1.27574 0
M  V30 6156 C 573.758 2.15037 -2.67608 0
M  V30 6157 C 572.844 1.81371 -3.83361 0
M  V30 6158 N 573.235 1.18216 -4.91791 0
M  V30 6159 C 571.533 2.11041 -3.92909 0
M  V30 6160 C 572.234 1.02941 -5.72519 0
M  V30 6161 N 571.21 1.54351 -5.21226 0
M  V30 6162 H 575.012 0.395279 -2.9123 0
M  V30 6163 H 572.526 0.11829 -1.61969 0
M  V30 6164 H 574.523 2.85667 -3.03644 0
M  V30 6165 H 573.183 2.64851 -1.8784 0
M  V30 6166 H 574.194 0.850168 -5.10874 0
M  V30 6167 H 570.871 2.63138 -3.24136 0
M  V30 6168 H 572.261 0.536298 -6.69756 0
M  V30 6169 N 574.981 1.5647 0.188427 0
M  V30 6170 C 576.392 1.70864 0.752494 0
M  V30 6171 C 576.743 0.692905 1.83557 0
M  V30 6172 O 575.868 -0.149307 2.15884 0
M  V30 6173 C 576.463 3.09789 1.37173 0
M  V30 6174 C 575.022 3.25925 1.88281 0
M  V30 6175 C 574.169 2.66817 0.755259 0
M  V30 6176 H 577.12 1.58657 -0.0367408 0
M  V30 6177 H 577.141 3.07489 2.24122 0
M  V30 6178 H 576.653 3.83693 0.583219 0
M  V30 6179 H 574.754 2.56948 2.6983 0
M  V30 6180 H 574.867 4.33498 2.04001 0
M  V30 6181 H 573.231 2.2617 1.17128 0
M  V30 6182 H 574.014 3.43294 -0.0211237 0
M  V30 6183 N 576.459 -0.456382 1.50847 0
M  V30 6184 C 577.705 -1.20914 1.62811 0
M  V30 6185 C 578.038 -1.91301 0.334304 0
M  V30 6186 O 577.313 -1.82775 -0.665098 0
M  V30 6187 C 577.596 -2.24122 2.81853 0
M  V30 6188 C 577.449 -1.57944 4.21158 0
M  V30 6189 C 578.768 -3.25295 2.96431 0
M  V30 6190 H 575.887 -0.438233 0.592554 0
M  V30 6191 H 578.529 -0.50091 1.83278 0
M  V30 6192 H 576.679 -2.84524 2.64534 0
M  V30 6193 H 578.351 -1.01025 4.50102 0
M  V30 6194 H 576.594 -0.882185 4.24735 0
M  V30 6195 H 577.265 -2.33014 5.00408 0
M  V30 6196 H 579.741 -2.7493 3.12335 0
M  V30 6197 H 578.617 -3.94822 3.81322 0
M  V30 6198 H 578.878 -3.90286 2.07676 0
M  V30 6199 N 577.937 -1.40673 -0.710563 0
M  V30 6200 C 579.186 -1.38525 -1.46607 0
M  V30 6201 C 579.499 0.0077024 -1.95598 0
M  V30 6202 O 580.705 0.151792 -2.71075 0
M  V30 6203 C 579.161 -2.43489 -2.6503 0
M  V30 6204 C 578.769 -3.88619 -2.22888 0
M  V30 6205 C 580.513 -2.50456 -3.42742 0
M  V30 6206 C 578.42 -4.85168 -3.3818 0
M  V30 6207 H 577.35 -0.515092 -0.550632 0
M  V30 6208 H 580.001 -1.66431 -0.772846 0
M  V30 6209 H 578.383 -2.0869 -3.36548 0
M  V30 6210 H 579.557 -4.32588 -1.58758 0
M  V30 6211 H 577.872 -3.85174 -1.58208 0
M  V30 6212 H 580.469 -3.19776 -4.28541 0
M  V30 6213 H 580.812 -1.53665 -3.86902 0
M  V30 6214 H 581.345 -2.84271 -2.78271 0
M  V30 6215 H 578.084 -5.8331 -2.99047 0
M  V30 6216 H 577.604 -4.4586 -4.01209 0
M  V30 6217 H 579.283 -5.05225 -4.04174 0
M  V30 6218 N 579.415 0.9433 -1.26252 0
M  V30 6219 C 580.64 1.72898 -1.14547 0
M  V30 6220 C 581.065 1.85761 0.295743 0
M  V30 6221 O 580.423 1.3463 1.21427 0
M  V30 6222 C 580.471 3.11471 -1.8171 0
M  V30 6223 O 579.575 3.97336 -1.10445 0
M  V30 6224 H 578.916 0.530555 -0.399259 0
M  V30 6225 H 581.446 1.18159 -1.67032 0
M  V30 6226 H 581.456 3.61872 -1.88449 0
M  V30 6227 H 580.131 3.01425 -2.86558 0
M  V30 6228 H 578.708 3.55788 -1.11666 0
M  V30 6229 N 580.893 1.08022 1.14757 0
M  V30 6230 C 582.118 0.82895 1.90114 0
M  V30 6231 C 582.543 -0.612772 1.77839 0
M  V30 6232 O 581.901 -1.42895 1.11583 0
M  V30 6233 C 581.949 1.25062 3.38219 0
M  V30 6234 O 581.053 0.400119 4.10454 0
M  V30 6235 H 580.394 0.301412 0.591648 0
M  V30 6236 H 582.924 1.44062 1.45284 0
M  V30 6237 H 582.934 1.22977 3.89025 0
M  V30 6238 H 581.609 2.30067 3.46471 0
M  V30 6239 H 580.186 0.484052 3.69745 0
M  V30 6240 N 582.371 -1.3172 0.865308 0
M  V30 6241 C 583.782 -1.79104 0.527126 0
M  V30 6242 C 584.133 -1.7135 -0.955695 0
M  V30 6243 O 583.258 -1.27845 -1.74598 0
M  V30 6244 C 583.853 -3.25207 0.950061 0
M  V30 6245 C 582.412 -3.70504 0.663611 0
M  V30 6246 C 581.559 -2.52605 1.14395 0
M  V30 6247 H 584.51 -1.18868 1.05148 0
M  V30 6248 H 584.531 -3.79535 0.270805 0
M  V30 6249 H 584.043 -3.30818 2.02931 0
M  V30 6250 H 582.144 -3.70398 -0.404474 0
M  V30 6251 H 582.257 -4.62845 1.23737 0
M  V30 6252 H 580.621 -2.4838 0.563859 0
M  V30 6253 H 581.404 -2.60964 2.23053 0
M  V30 6254 N 583.85 -0.624285 -1.44708 0
M  V30 6255 C 584.797 0.0847135 -2.30644 0
M  V30 6256 C 585.767 0.843575 -1.43084 0
M  V30 6257 O 586.952 0.825982 -1.71995 0
M  V30 6258 C 584.091 1.06495 -3.28257 0
M  V30 6259 C 583.205 0.305224 -4.3092 0
M  V30 6260 C 582.34 1.27667 -5.1563 0
M  V30 6261 C 581.379 0.505706 -6.10007 0
M  V30 6262 N 580.516 1.42727 -6.8744 0
M  V30 6263 H 585.356 -0.654068 -2.90733 0
M  V30 6264 H 582.893 -0.334334 -1.4325 0
M  V30 6265 H 584.851 1.64658 -3.83332 0
M  V30 6266 H 583.481 1.77094 -2.69884 0
M  V30 6267 H 582.533 -0.392207 -3.78373 0
M  V30 6268 H 583.845 -0.295553 -4.97924 0
M  V30 6269 H 582.999 1.92984 -5.75189 0
M  V30 6270 H 581.738 1.91137 -4.48685 0
M  V30 6271 H 580.743 -0.160999 -5.49564 0
M  V30 6272 H 581.968 -0.124183 -6.78986 0
M  V30 6273 H 579.913 2.04931 -6.23169 0
M  V30 6274 H 579.831 0.880345 -7.50857 0
M  V30 6275 H 581.099 2.0695 -7.51526 0
M  V30 6276 N 585.328 1.53329 -0.364422 0
M  V30 6277 C 586.558 2.05359 0.226096 0
M  V30 6278 C 586.966 1.23777 1.43094 0
M  V30 6279 O 586.309 0.271139 1.81688 0
M  V30 6280 C 586.371 3.52918 0.684794 0
M  V30 6281 C 586.035 4.55218 -0.403206 0
M  V30 6282 C 587.032 5.04583 -1.2527 0
M  V30 6283 C 584.717 4.99134 -0.563117 0
M  V30 6284 C 586.711 5.96463 -2.24745 0
M  V30 6285 C 584.398 5.9082 -1.56124 0
M  V30 6286 C 585.396 6.39375 -2.40184 0
M  V30 6287 O 585.084 7.29255 -3.38293 0
M  V30 6288 H 584.816 0.674588 0.0436772 0
M  V30 6289 H 587.37 1.98688 -0.520782 0
M  V30 6290 H 585.6 3.57122 1.48326 0
M  V30 6291 H 587.289 3.87812 1.19818 0
M  V30 6292 H 588.055 4.71403 -1.14034 0
M  V30 6293 H 583.934 4.60928 0.0813909 0
M  V30 6294 H 587.478 6.34285 -2.90393 0
M  V30 6295 H 583.375 6.23414 -1.67407 0
M  V30 6296 H 584.143 7.47249 -3.34009 0
M  V30 6297 N 586.806 0.0935595 1.57322 0
M  V30 6298 C 588.083 -0.612692 1.85756 0
M  V30 6299 C 588.463 -1.86439 0.99013 0
M  V30 6300 O 587.811 -2.28416 0.0621362 0
M  V30 6301 C 588.021 -0.929547 3.36393 0
M  V30 6302 C 589.369 -1.29366 4.04413 0
M  V30 6303 O 590.393 -1.02061 3.41265 0
M  V30 6304 O 589.252 -1.80498 5.15832 0
M  V30 6305 H 586.346 -0.306444 0.768128 0
M  V30 6306 H 588.892 0.126141 1.69231 0
M  V30 6307 H 587.664 -0.0414766 3.91278 0
M  V30 6308 H 587.287 -1.72441 3.5826 0
M  V30 6309 N 588.284 -1.56567 -0.180126 0
M  V30 6310 C 589.509 -1.85975 -0.918041 0
M  V30 6311 C 589.934 -0.678888 -1.75422 0
M  V30 6312 O 589.292 0.372168 -1.77439 0
M  V30 6313 C 589.34 -3.13731 -1.77779 0
M  V30 6314 O 588.444 -2.95335 -2.87838 0
M  V30 6315 H 587.785 -0.61196 -0.257683 0
M  V30 6316 H 590.315 -2.03798 -0.180923 0
M  V30 6317 H 590.325 -3.4491 -2.17948 0
M  V30 6318 H 589 -3.99293 -1.16352 0
M  V30 6319 H 587.577 -2.7549 -2.51316 0
M  V30 6320 N 589.762 0.448376 -1.51087 0
M  V30 6321 C 590.709 1.54341 -1.71603 0
M  V30 6322 C 591.679 1.56463 -0.557536 0
M  V30 6323 O 592.864 1.73644 -0.79072 0
M  V30 6324 C 590.004 2.92148 -1.83695 0
M  V30 6325 C 589.117 2.99639 -3.11192 0
M  V30 6326 C 588.252 4.285 -3.13944 0
M  V30 6327 C 587.291 4.29819 -4.35801 0
M  V30 6328 N 586.428 5.50186 -4.36164 0
M  V30 6329 H 591.268 1.36151 -2.65079 0
M  V30 6330 H 588.805 0.661585 -1.31383 0
M  V30 6331 H 590.763 3.72093 -1.88687 0
M  V30 6332 H 589.393 3.0892 -0.936374 0
M  V30 6333 H 588.445 2.12425 -3.15562 0
M  V30 6334 H 589.757 2.96474 -4.01129 0
M  V30 6335 H 588.911 5.16811 -3.17791 0
M  V30 6336 H 587.65 4.34307 -2.21876 0
M  V30 6337 H 586.655 3.39902 -4.32142 0
M  V30 6338 H 587.88 4.25685 -5.29121 0
M  V30 6339 H 585.826 5.56735 -3.46961 0
M  V30 6340 H 585.743 5.48856 -5.19897 0
M  V30 6341 H 587.011 6.40559 -4.44189 0
M  V30 6342 N 591.24 1.41047 0.703093 0
M  V30 6343 C 592.517 1.30493 1.45708 0
M  V30 6344 C 592.897 -0.0709892 2.10981 0
M  V30 6345 O 592.245 -1.08471 2.01113 0
M  V30 6346 C 592.455 2.45287 2.48265 0
M  V30 6347 C 593.803 2.86104 3.13735 0
M  V30 6348 O 594.827 2.44971 2.58587 0
M  V30 6349 O 593.686 3.57206 4.13601 0
M  V30 6350 H 590.78 0.513144 0.648546 0
M  V30 6351 H 593.326 1.52995 0.734208 0
M  V30 6352 H 592.098 3.37135 1.98635 0
M  V30 6353 H 591.721 2.24622 3.28071 0
M  V30 6354 N 592.718 -0.936591 1.26751 0
M  V30 6355 C 593.965 -1.68331 1.12566 0
M  V30 6356 C 594.293 -1.91677 -0.330168 0
M  V30 6357 O 593.548 -1.49859 -1.2586 0
M  V30 6358 C 593.847 -3.06099 1.84494 0
M  V30 6359 C 593.513 -3.02493 3.34378 0
M  V30 6360 C 592.175 -3.01217 3.75262 0
M  V30 6361 C 594.527 -2.94453 4.30055 0
M  V30 6362 C 591.855 -2.89672 5.10203 0
M  V30 6363 C 594.207 -2.84449 5.65041 0
M  V30 6364 C 592.871 -2.81518 6.0523 0
M  V30 6365 H 592.141 -0.615965 0.411907 0
M  V30 6366 H 594.788 -1.09292 1.5725 0
M  V30 6367 H 593.093 -3.6879 1.32292 0
M  V30 6368 H 594.79 -3.62733 1.70955 0
M  V30 6369 H 591.38 -3.04269 3.01858 0
M  V30 6370 H 595.564 -2.94544 3.99447 0
M  V30 6371 H 590.82 -2.85783 5.40498 0
M  V30 6372 H 594.994 -2.77192 6.38856 0
M  V30 6373 H 592.621 -2.72329 7.09747 0
M  V30 6374 N 594.196 -1.08629 -1.14182 0
M  V30 6375 C 595.424 -0.838889 -1.8913 0
M  V30 6376 C 595.839 0.609153 -1.78703 0
M  V30 6377 O 595.196 1.41876 -1.14794 0
M  V30 6378 C 595.247 -1.25477 -3.39025 0
M  V30 6379 O 594.968 -2.64601 -3.49167 0
M  V30 6380 C 596.469 -1.03856 -4.30963 0
M  V30 6381 H 593.689 -0.302377 -0.599007 0
M  V30 6382 H 596.233 -1.44615 -1.44592 0
M  V30 6383 H 594.388 -0.691571 -3.81177 0
M  V30 6384 H 594.802 -2.81922 -4.42289 0
M  V30 6385 H 596.276 -1.37892 -5.345 0
M  V30 6386 H 596.753 0.0242522 -4.39193 0
M  V30 6387 H 597.359 -1.58731 -3.94569 0
M  V30 6388 N 595.674 1.31259 -0.872281 0
M  V30 6389 C 596.951 1.91362 -0.404943 0
M  V30 6390 C 597.331 1.79362 1.11321 0
M  V30 6391 O 596.679 1.20277 1.94283 0
M  V30 6392 C 596.889 3.3749 -0.888893 0
M  V30 6393 C 598.237 4.14593 -0.916384 0
M  V30 6394 O 599.261 3.46282 -0.834701 0
M  V30 6395 O 598.12 5.3661 -1.03498 0
M  V30 6396 H 595.214 0.818016 -0.121569 0
M  V30 6397 H 597.76 1.39912 -0.960346 0
M  V30 6398 H 596.532 3.40249 -1.93251 0
M  V30 6399 H 596.155 3.96375 -0.311932 0
M  V30 6400 N 597.152 0.631951 1.44375 0
M  V30 6401 C 598.398 0.13697 2.02337 0
M  V30 6402 C 598.731 -1.23826 1.49602 0
M  V30 6403 O 598.006 -1.8221 0.680415 0
M  V30 6404 C 598.289 0.124536 3.59885 0
M  V30 6405 C 598.142 1.53217 4.229 0
M  V30 6406 C 599.461 -0.550481 4.36644 0
M  V30 6407 H 596.58 0.051247 0.735216 0
M  V30 6408 H 599.222 0.808581 1.71936 0
M  V30 6409 H 597.372 -0.44737 3.85916 0
M  V30 6410 H 599.044 2.15303 4.07973 0
M  V30 6411 H 597.287 2.0858 3.80364 0
M  V30 6412 H 597.958 1.4755 5.31914 0
M  V30 6413 H 600.434 -0.0641154 4.16051 0
M  V30 6414 H 599.31 -0.528371 5.46351 0
M  V30 6415 H 599.571 -1.62097 4.11311 0
M  V30 6416 N 598.631 -1.53133 0.372548 0
M  V30 6417 C 600.042 -1.86404 -0.105155 0
M  V30 6418 C 600.393 -1.29289 -1.47576 0
M  V30 6419 O 599.518 -0.617646 -2.07398 0
M  V30 6420 C 600.113 -3.38223 -0.197588 0
M  V30 6421 C 598.672 -3.71266 -0.619556 0
M  V30 6422 C 597.819 -2.76353 0.228919 0
M  V30 6423 H 600.77 -1.47282 0.591077 0
M  V30 6424 H 600.791 -3.66577 -1.01987 0
M  V30 6425 H 600.303 -3.79763 0.800099 0
M  V30 6426 H 598.404 -3.35287 -1.62522 0
M  V30 6427 H 598.517 -4.77515 -0.389332 0
M  V30 6428 H 596.881 -2.52888 -0.303271 0
M  V30 6429 H 597.664 -3.20728 1.22428 0
M  V30 6430 N 600.109 -0.101901 -1.5727 0
M  V30 6431 C 601.339 0.567568 -1.98651 0
M  V30 6432 C 601.747 1.61839 -0.980037 0
M  V30 6433 O 601.09 1.83661 0.0376564 0
M  V30 6434 C 601.152 1.26742 -3.36417 0
M  V30 6435 C 600.816 0.366561 -4.55528 0
M  V30 6436 C 601.813 -0.388022 -5.1845 0
M  V30 6437 C 599.498 0.282629 -5.01504 0
M  V30 6438 C 601.492 -1.21445 -6.25724 0
M  V30 6439 C 599.179 -0.547443 -6.08643 0
M  V30 6440 C 600.177 -1.29462 -6.70618 0
M  V30 6441 O 599.865 -2.11095 -7.7569 0
M  V30 6442 H 599.597 0.156282 -0.657687 0
M  V30 6443 H 602.151 -0.179912 -2.04611 0
M  V30 6444 H 600.381 2.06162 -3.27161 0
M  V30 6445 H 602.07 1.8321 -3.622 0
M  V30 6446 H 602.836 -0.332949 -4.83856 0
M  V30 6447 H 598.715 0.853868 -4.53023 0
M  V30 6448 H 602.259 -1.79814 -6.74027 0
M  V30 6449 H 598.156 -0.603971 -6.42668 0
M  V30 6450 H 598.924 -2.03851 -7.92709 0
M  V30 6451 N 601.587 1.56661 0.17182 0
M  V30 6452 C 602.517 1.99401 1.21498 0
M  V30 6453 C 603.498 0.869516 1.46197 0
M  V30 6454 O 604.683 1.13556 1.57539 0
M  V30 6455 C 601.813 2.35346 2.55401 0
M  V30 6456 C 600.767 3.5075 2.45272 0
M  V30 6457 C 600.093 3.72437 3.8366 0
M  V30 6458 C 601.393 4.84216 1.95787 0
M  V30 6459 H 603.087 2.86792 0.859699 0
M  V30 6460 H 600.633 1.37977 0.412103 0
M  V30 6461 H 602.586 2.63843 3.2858 0
M  V30 6462 H 601.31 1.44864 2.92715 0
M  V30 6463 H 599.969 3.2238 1.74547 0
M  V30 6464 H 599.617 2.79246 4.18367 0
M  V30 6465 H 599.317 4.50087 3.77751 0
M  V30 6466 H 600.841 4.03334 4.58426 0
M  V30 6467 H 602.255 5.11592 2.5874 0
M  V30 6468 H 600.652 5.65498 2.00827 0
M  V30 6469 H 601.722 4.76243 0.912159 0
M  V30 6470 N 603.065 -0.440357 1.51323 0
M  V30 6471 C 603.975 -1.55955 1.75258 0
M  V30 6472 C 604.991 -1.61933 0.636687 0
M  V30 6473 O 606.167 -1.79231 0.918593 0
M  V30 6474 C 603.232 -2.9196 1.86977 0
M  V30 6475 C 602.293 -2.96122 3.10822 0
M  V30 6476 C 601.526 -4.2564 3.21973 0
M  V30 6477 O 601.749 -5.17851 2.39137 0
M  V30 6478 O 600.683 -4.36025 4.14929 0
M  V30 6479 H 604.509 -1.38673 2.70191 0
M  V30 6480 H 602.094 -0.623055 1.35788 0
M  V30 6481 H 603.976 -3.72682 1.96688 0
M  V30 6482 H 602.651 -3.09375 0.952307 0
M  V30 6483 H 601.558 -2.14366 3.06591 0
M  V30 6484 H 602.891 -2.83651 4.02247 0
M  V30 6485 N 604.543 -1.41418 -0.695603 0
M  V30 6486 C 605.768 -1.44329 -1.48942 0
M  V30 6487 C 606.193 -0.0501579 -1.88033 0
M  V30 6488 O 605.551 0.946598 -1.54626 0
M  V30 6489 C 605.599 -2.3578 -2.72837 0
M  V30 6490 O 604.703 -1.81482 -3.70322 0
M  V30 6491 H 604.044 -0.489838 -0.44828 0
M  V30 6492 H 606.574 -1.85878 -0.855014 0
M  V30 6493 H 606.584 -2.51654 -3.21145 0
M  V30 6494 H 605.259 -3.37005 -2.43722 0
M  V30 6495 H 603.836 -1.75058 -3.29255 0
M  V30 6496 N 606.021 0.929856 -1.27246 0
M  V30 6497 C 607.27 1.67182 -1.12842 0
M  V30 6498 C 607.583 1.9287 0.325666 0
M  V30 6499 O 608.789 2.64999 0.590572 0
M  V30 6500 C 607.245 3.01097 -1.97151 0
M  V30 6501 C 606.853 2.83115 -3.47203 0
M  V30 6502 C 608.597 3.78907 -1.91389 0
M  V30 6503 C 606.504 4.12573 -4.23719 0
M  V30 6504 H 605.434 0.627064 -0.418697 0
M  V30 6505 H 608.085 1.0332 -1.51649 0
M  V30 6506 H 606.467 3.66004 -1.51186 0
M  V30 6507 H 607.641 2.26989 -4.01015 0
M  V30 6508 H 605.956 2.18736 -3.54321 0
M  V30 6509 H 608.553 4.74837 -2.45834 0
M  V30 6510 H 608.896 4.0674 -0.887047 0
M  V30 6511 H 609.429 3.20794 -2.35237 0
M  V30 6512 H 606.168 3.8992 -5.26918 0
M  V30 6513 H 605.688 4.68371 -3.74685 0
M  V30 6514 H 607.367 4.8095 -4.32777 0
M  V30 6515 N 607.499 1.09233 1.13605 0
M  V30 6516 C 608.462 0.733553 2.17144 0
M  V30 6517 C 609.462 -0.235873 1.59061 0
M  V30 6518 O 610.652 -0.0143167 1.74194 0
M  V30 6519 C 607.784 0.084471 3.40795 0
M  V30 6520 H 608.977 1.65049 2.50397 0
M  V30 6521 H 606.53 0.891264 1.28399 0
M  V30 6522 H 607.265 -0.843795 3.1313 0
M  V30 6523 H 607.05 0.781985 3.84223 0
M  V30 6524 H 608.54 -0.151216 4.17326 0
M  V30 6525 N 608.977 -1.30795 0.87923 0
M  V30 6526 C 610.223 -1.96653 0.495519 0
M  V30 6527 C 610.556 -1.69282 -0.951703 0
M  V30 6528 O 609.831 -0.994374 -1.6716 0
M  V30 6529 C 610.114 -3.51898 0.764174 0
M  V30 6530 C 609.967 -3.88808 2.2616 0
M  V30 6531 C 611.286 -4.39462 0.236825 0
M  V30 6532 H 608.405 -0.7143 0.181507 0
M  V30 6533 H 611.047 -1.54765 1.10217 0
M  V30 6534 H 609.197 -3.87709 0.247841 0
M  V30 6535 H 610.869 -3.63051 2.8459 0
M  V30 6536 H 609.112 -3.37082 2.73053 0
M  V30 6537 H 609.783 -4.97086 2.4002 0
M  V30 6538 H 612.259 -4.10528 0.678683 0
M  V30 6539 H 611.135 -5.47018 0.454176 0
M  V30 6540 H 611.396 -4.33621 -0.861683 0
M  V30 6541 N 610.455 -0.639598 -1.44038 0
M  V30 6542 C 611.685 -0.154586 -2.06021 0
M  V30 6543 C 612.093 1.17951 -1.47933 0
M  V30 6544 O 611.436 1.73627 -0.59994 0
M  V30 6545 C 611.498 0.0255459 -3.59491 0
M  V30 6546 C 611.162 -1.2317 -4.40089 0
M  V30 6547 C 612.159 -2.15735 -4.73027 0
M  V30 6548 C 609.844 -1.46949 -4.80324 0
M  V30 6549 C 611.838 -3.30382 -5.45093 0
M  V30 6550 C 609.525 -2.61891 -5.52138 0
M  V30 6551 C 610.523 -3.53433 -5.84443 0
M  V30 6552 O 610.211 -4.6637 -6.54793 0
M  V30 6553 H 609.943 -0.0808543 -0.671147 0
M  V30 6554 H 612.497 -0.876541 -1.85758 0
M  V30 6555 H 610.727 0.802733 -3.78276 0
M  V30 6556 H 612.416 0.466184 -4.03214 0
M  V30 6557 H 613.182 -1.98602 -4.42473 0
M  V30 6558 H 609.061 -0.765815 -4.54595 0
M  V30 6559 H 612.605 -4.01856 -5.70226 0
M  V30 6560 H 608.502 -2.78964 -5.82108 0
M  V30 6561 H 609.27 -4.6546 -6.73267 0
M  V30 6562 N 611.933 1.52934 -0.380664 0
M  V30 6563 C 612.881 2.27727 0.47361 0
M  V30 6564 C 613.875 1.31288 1.0705 0
M  V30 6565 O 615.081 1.4886 1.01197 0
M  V30 6566 H 611.456 0.732189 0.171475 0
M  V30 6567 H 613.427 2.97864 -0.178785 0
M  V30 6568 C 612.176 3.0904 1.59341 0
M  V30 6569 H 611.499 3.831 1.14343 0
M  V30 6570 H 612.939 3.64527 2.16555 0
M  V30 6571 C 611.398 2.20813 2.54447 0
M  V30 6572 O 611.928 1.82907 3.57642 0
M  V30 6573 N 610.134 1.85145 2.23986 0
M  V30 6574 H 609.681 2.16169 1.40103 0
M  V30 6575 H 609.639 1.26402 2.87871 0
M  V30 6576 N 613.412 0.11024 1.57214 0
M  V30 6577 C 614.322 -0.857077 2.18383 0
M  V30 6578 C 615.338 -1.29915 1.1575 0
M  V30 6579 O 616.514 -1.36394 1.48184 0
M  V30 6580 C 613.579 -2.09264 2.76423 0
M  V30 6581 C 612.64 -1.70333 3.94063 0
M  V30 6582 C 611.873 -2.87999 4.49324 0
M  V30 6583 O 612.096 -4.0317 4.03497 0
M  V30 6584 O 611.03 -2.6559 5.40135 0
M  V30 6585 H 614.856 -0.366561 3.0148 0
M  V30 6586 H 612.441 -0.114914 1.48957 0
M  V30 6587 H 614.323 -2.81644 3.13456 0
M  V30 6588 H 612.998 -2.57339 1.96363 0
M  V30 6589 H 611.905 -0.950864 3.61814 0
M  V30 6590 H 613.238 -1.27007 4.75531 0
M  V30 6591 N 614.89 -1.56749 -0.16351 0
M  V30 6592 C 615.8 -2.00255 -1.2221 0
M  V30 6593 C 616.816 -0.915194 -1.47987 0
M  V30 6594 O 617.992 -1.22342 -1.59982 0
M  V30 6595 C 615.057 -2.36035 -2.53946 0
M  V30 6596 C 614.118 -3.58637 -2.35962 0
M  V30 6597 C 613.351 -3.92701 -3.61416 0
M  V30 6598 O 613.574 -3.27632 -4.66919 0
M  V30 6599 O 612.508 -4.86019 -3.55062 0
M  V30 6600 H 616.334 -2.90586 -0.882794 0
M  V30 6601 H 613.919 -1.44721 -0.370978 0
M  V30 6602 H 615.801 -2.59982 -3.31643 0
M  V30 6603 H 614.476 -1.48863 -2.8744 0
M  V30 6604 H 613.383 -3.39898 -1.5627 0
M  V30 6605 H 614.716 -4.46374 -2.0739 0
M  V30 6606 N 616.368 0.432326 -1.51554 0
M  V30 6607 C 617.315 1.52512 -1.7323 0
M  V30 6608 C 618.285 1.55863 -0.5741 0
M  V30 6609 O 619.47 1.72796 -0.809093 0
M  V30 6610 C 616.61 2.90183 -1.86783 0
M  V30 6611 C 615.723 2.96322 -3.14352 0
M  V30 6612 C 614.858 4.25147 -3.18471 0
M  V30 6613 C 613.897 4.25172 -4.40335 0
M  V30 6614 N 613.034 5.45529 -4.41975 0
M  V30 6615 H 617.874 1.33332 -2.66508 0
M  V30 6616 H 615.411 0.647613 -1.32077 0
M  V30 6617 H 617.369 3.70071 -1.92623 0
M  V30 6618 H 615.999 3.0791 -0.969087 0
M  V30 6619 H 615.051 2.09066 -3.17798 0
M  V30 6620 H 616.363 2.92203 -4.04251 0
M  V30 6621 H 615.517 5.13411 -3.23255 0
M  V30 6622 H 614.256 4.31929 -2.2647 0
M  V30 6623 H 613.261 3.353 -4.35723 0
M  V30 6624 H 614.486 4.20049 -5.33606 0
M  V30 6625 H 612.432 5.53024 -3.52847 0
M  V30 6626 H 612.349 5.43311 -5.25689 0
M  V30 6627 H 613.617 6.35812 -4.50958 0
M  V30 6628 N 617.846 1.41785 0.688094 0
M  V30 6629 C 618.756 1.46596 1.83158 0
M  V30 6630 C 619.772 0.355862 1.70322 0
M  V30 6631 O 620.948 0.604737 1.92106 0
M  V30 6632 C 618.013 1.35322 3.192 0
M  V30 6633 C 617.074 2.56711 3.4409 0
M  V30 6634 C 616.307 2.45965 4.73642 0
M  V30 6635 O 616.53 1.48827 5.50642 0
M  V30 6636 O 615.464 3.35859 4.99482 0
M  V30 6637 H 619.29 2.43083 1.82056 0
M  V30 6638 H 616.875 1.23404 0.842126 0
M  V30 6639 H 618.757 1.31347 4.00407 0
M  V30 6640 H 617.432 0.419536 3.2097 0
M  V30 6641 H 616.339 2.66262 2.62784 0
M  V30 6642 H 617.672 3.48933 3.47141 0
M  V30 6643 N 619.324 -0.923095 1.27737 0
M  V30 6644 C 620.234 -2.05765 1.12685 0
M  V30 6645 C 621.25 -1.73911 0.0557197 0
M  V30 6646 O 622.426 -1.99674 0.263137 0
M  V30 6647 C 619.491 -3.37804 0.780363 0
M  V30 6648 C 618.552 -3.83326 1.93286 0
M  V30 6649 C 617.785 -5.09064 1.60281 0
M  V30 6650 O 618.008 -5.6809 0.512828 0
M  V30 6651 O 616.942 -5.50071 2.44347 0
M  V30 6652 H 620.768 -2.21378 2.07907 0
M  V30 6653 H 618.353 -1.04299 1.06968 0
M  V30 6654 H 620.235 -4.17097 0.600668 0
M  V30 6655 H 618.91 -3.23387 -0.142291 0
M  V30 6656 H 617.817 -3.049 2.16764 0
M  V30 6657 H 619.15 -4.02292 2.83588 0
M  V30 6658 N 620.802 -1.09834 -1.13024 0
M  V30 6659 C 622.048 -0.83819 -1.84668 0
M  V30 6660 C 622.381 0.634645 -1.83537 0
M  V30 6661 O 621.656 1.46753 -1.27647 0
M  V30 6662 C 621.939 -1.37933 -3.32636 0
M  V30 6663 C 621.792 -2.91857 -3.42257 0
M  V30 6664 C 623.111 -1.01654 -4.28199 0
M  V30 6665 H 620.23 -0.30595 -0.670495 0
M  V30 6666 H 622.872 -1.36044 -1.32635 0
M  V30 6667 H 621.022 -0.935111 -3.77078 0
M  V30 6668 H 622.694 -3.44759 -3.06495 0
M  V30 6669 H 620.937 -3.28776 -2.83 0
M  V30 6670 H 621.608 -3.24799 -4.46329 0
M  V30 6671 H 624.084 -1.39973 -3.9185 0
M  V30 6672 H 622.96 -1.42217 -5.30156 0
M  V30 6673 H 623.221 0.0747794 -4.42037 0
M  V30 6674 N 622.28 1.30327 -0.886154 0
M  V30 6675 C 623.508 2.00254 -0.520176 0
M  V30 6676 C 623.923 1.66419 0.891637 0
M  V30 6677 O 623.28 0.901951 1.58654 0
M  V30 6678 C 623.331 3.54916 -0.686775 0
M  V30 6679 O 623.052 3.87547 -2.04301 0
M  V30 6680 C 624.553 4.42115 -0.323945 0
M  V30 6681 H 621.773 0.640204 -0.200947 0
M  V30 6682 H 624.317 1.66183 -1.19178 0
M  V30 6683 H 622.472 3.8735 -0.0625273 0
M  V30 6684 H 622.886 4.82247 -2.06249 0
M  V30 6685 H 624.36 5.49808 -0.491407 0
M  V30 6686 H 624.837 4.32953 0.73811 0
M  V30 6687 H 625.443 4.15129 -0.924565 0
M  V30 6688 N 623.758 0.647228 1.43697 0
M  V30 6689 C 625.007 0.155552 2.01099 0
M  V30 6690 C 625.32 -1.23569 1.51624 0
M  V30 6691 O 626.526 -1.82226 2.01261 0
M  V30 6692 C 624.982 0.227296 3.59182 0
M  V30 6693 C 624.59 1.62086 4.17651 0
M  V30 6694 C 626.334 -0.207085 4.23995 0
M  V30 6695 C 624.241 1.64685 5.68008 0
M  V30 6696 H 623.171 0.0543895 0.752036 0
M  V30 6697 H 625.822 0.808386 1.64734 0
M  V30 6698 H 624.204 -0.492937 3.9292 0
M  V30 6699 H 625.378 2.36597 3.95422 0
M  V30 6700 H 623.693 2.0007 3.65186 0
M  V30 6701 H 626.29 -0.207426 5.34298 0
M  V30 6702 H 626.633 -1.23742 3.97484 0
M  V30 6703 H 627.166 0.461193 3.95118 0
M  V30 6704 H 623.905 2.65608 5.99277 0
M  V30 6705 H 623.425 0.944914 5.9231 0
M  V30 6706 H 625.104 1.38792 6.31938 0
M  V30 6707 N 625.236 -1.5273 0.388769 0
M  V30 6708 C 626.483 -2.01573 -0.19359 0
M  V30 6709 C 626.811 -1.27525 -1.46859 0
M  V30 6710 O 626.066 -0.363926 -1.92286 0
M  V30 6711 C 626.365 -3.53765 -0.508445 0
M  V30 6712 C 626.031 -4.4582 0.674947 0
M  V30 6713 C 624.693 -4.70703 0.999596 0
M  V30 6714 C 627.045 -5.00138 1.46666 0
M  V30 6715 C 624.373 -5.47155 2.11751 0
M  V30 6716 C 626.725 -5.77812 2.57518 0
M  V30 6717 C 625.389 -6.00975 2.90492 0
M  V30 6718 H 624.659 -0.737606 -0.0708397 0
M  V30 6719 H 627.306 -1.84134 0.526006 0
M  V30 6720 H 625.611 -3.69274 -1.30936 0
M  V30 6721 H 627.308 -3.8905 -0.971664 0
M  V30 6722 H 623.898 -4.26616 0.411906 0
M  V30 6723 H 628.082 -4.8084 1.22909 0
M  V30 6724 H 623.338 -5.63314 2.3767 0
M  V30 6725 H 627.512 -6.18904 3.19267 0
M  V30 6726 H 625.139 -6.59998 3.77236 0
M  V30 6727 N 626.714 -0.118576 -1.57153 0
M  V30 6728 C 627.677 0.817464 -2.14127 0
M  V30 6729 C 628.677 1.1949 -1.07604 0
M  V30 6730 O 629.867 1.12048 -1.33382 0
M  V30 6731 C 626.999 2.10541 -2.68115 0
M  V30 6732 H 628.192 0.322339 -2.98163 0
M  V30 6733 H 625.745 0.130655 -1.55753 0
M  V30 6734 H 626.48 2.64485 -1.87665 0
M  V30 6735 H 626.265 1.84425 -3.4602 0
M  V30 6736 H 627.755 2.77453 -3.12105 0
M  V30 6737 N 628.193 1.56834 0.155195 0
M  V30 6738 C 629.439 1.83169 0.870467 0
M  V30 6739 C 629.772 0.698929 1.81187 0
M  V30 6740 O 629.047 -0.298035 1.92203 0
M  V30 6741 C 629.33 3.19965 1.65211 0
M  V30 6742 C 629.183 4.43792 0.732744 0
M  V30 6743 C 630.502 3.53885 2.61636 0
M  V30 6744 H 627.621 0.666288 0.315006 0
M  V30 6745 H 630.263 1.89513 0.135988 0
M  V30 6746 H 628.413 3.14687 2.27825 0
M  V30 6747 H 630.085 4.61148 0.118236 0
M  V30 6748 H 628.328 4.3378 0.0417906 0
M  V30 6749 H 628.999 5.36095 1.31552 0
M  V30 6750 H 631.475 3.5972 2.09143 0
M  V30 6751 H 630.351 4.50648 3.13381 0
M  V30 6752 H 630.612 2.79418 3.42605 0
M  V30 6753 N 629.671 -0.424282 1.51781 0
M  V30 6754 C 630.619 -1.53649 1.74628 0
M  V30 6755 C 631.613 -1.57923 0.612922 0
M  V30 6756 O 632.819 -1.61511 0.794618 0
M  V30 6757 H 629.194 -0.510706 0.551981 0
M  V30 6758 H 631.165 -1.31558 2.67834 0
M  V30 6759 C 629.914 -2.91177 1.9003 0
M  V30 6760 H 629.237 -2.88625 2.76651 0
M  V30 6761 H 630.677 -3.6833 2.10021 0
M  V30 6762 C 629.136 -3.30303 0.663435 0
M  V30 6763 O 629.666 -4.01315 -0.175812 0
M  V30 6764 N 627.872 -2.86201 0.503723 0
M  V30 6765 H 627.419 -2.28583 1.18776 0
M  V30 6766 H 627.377 -3.12741 -0.322575 0
M  V30 6767 N 631.149 -1.42148 -0.680565 0
M  V30 6768 C 632.565 -1.24947 -0.992995 0
M  V30 6769 C 632.765 -0.149527 -2.00944 0
M  V30 6770 O 631.821 0.481145 -2.47873 0
M  V30 6771 C 633.134 -2.60426 -1.5033 0
M  V30 6772 C 634.682 -2.67733 -1.62137 0
M  V30 6773 C 635.157 -4.03564 -2.16565 0
M  V30 6774 N 636.648 -4.05488 -2.23905 0
M  V30 6775 C 637.383 -5.07401 -2.67081 0
M  V30 6776 N 636.879 -6.19698 -3.09751 0
M  V30 6777 N 638.672 -4.94758 -2.66778 0
M  V30 6778 H 630.823 -2.12399 -0.0074788 0
M  V30 6779 H 633.086 -0.94571 -0.0658529 0
M  V30 6780 H 632.792 -3.41743 -0.830947 0
M  V30 6781 H 632.666 -2.83949 -2.483 0
M  V30 6782 H 635.053 -1.86765 -2.2848 0
M  V30 6783 H 635.134 -2.48004 -0.626713 0
M  V30 6784 H 634.778 -4.84987 -1.50833 0
M  V30 6785 H 634.708 -4.20641 -3.1681 0
M  V30 6786 H 637.199 -3.24415 -1.93812 0
M  V30 6787 H 637.512 -6.93318 -3.41365 0
M  V30 6788 H 635.857 -6.23212 -3.07623 0
M  V30 6789 H 639.048 -4.06105 -2.32801 0
M  V30 6790 H 639.221 -5.74317 -3.00107 0
M  V30 6791 N 632.627 0.916307 -1.28225 0
M  V30 6792 C 633.904 1.64429 -1.05936 0
M  V30 6793 C 634.284 2.07234 0.402139 0
M  V30 6794 O 633.632 1.81535 1.3877 0
M  V30 6795 C 633.842 2.83773 -2.03159 0
M  V30 6796 C 635.19 3.54852 -2.33164 0
M  V30 6797 O 636.214 2.93918 -2.01223 0
M  V30 6798 O 635.073 4.64663 -2.87664 0
M  V30 6799 H 632.167 0.721221 -0.404683 0
M  V30 6800 H 634.713 0.965838 -1.39534 0
M  V30 6801 H 633.485 2.49217 -3.01673 0
M  V30 6802 H 633.108 3.59333 -1.70192 0
M  V30 6803 N 634.105 1.10431 1.1244 0
M  V30 6804 C 635.038 0.696987 2.17296 0
M  V30 6805 C 636.016 -0.301673 1.59777 0
M  V30 6806 O 637.2 -0.200583 1.8743 0
M  V30 6807 C 634.327 0.0284094 3.38688 0
M  V30 6808 C 633.373 0.990536 4.14838 0
M  V30 6809 S 634.206 2.50785 4.73146 0
M  V30 6810 C 635.362 1.85198 5.97873 0
M  V30 6811 H 635.595 1.58523 2.51511 0
M  V30 6812 H 633.128 0.921312 1.239 0
M  V30 6813 H 635.086 -0.351009 4.08997 0
M  V30 6814 H 633.747 -0.836629 3.02753 0
M  V30 6815 H 632.94 0.469991 5.01804 0
M  V30 6816 H 632.542 1.31186 3.50237 0
M  V30 6817 H 634.834 1.18217 6.67106 0
M  V30 6818 H 635.777 2.7012 6.54554 0
M  V30 6819 H 636.185 1.31653 5.48933 0
M  V30 6820 N 635.583 -1.29855 0.893053 0
M  V30 6821 C 636.493 -2.31661 0.370157 0
M  V30 6822 C 637.509 -1.65677 -0.531723 0
M  V30 6823 O 638.685 -1.9691 -0.422902 0
M  V30 6824 C 635.75 -3.44388 -0.399741 0
M  V30 6825 C 634.811 -4.2598 0.532861 0
M  V30 6826 C 634.044 -5.33324 -0.200388 0
M  V30 6827 O 634.267 -5.52305 -1.42531 0
M  V30 6828 O 633.201 -6.00188 0.453668 0
M  V30 6829 H 637.027 -2.78354 1.2146 0
M  V30 6830 H 634.612 -1.34171 0.657153 0
M  V30 6831 H 636.494 -4.13037 -0.835358 0
M  V30 6832 H 635.169 -2.99815 -1.22035 0
M  V30 6833 H 634.076 -3.59998 1.01746 0
M  V30 6834 H 635.409 -4.74178 1.3197 0
M  V30 6835 N 637.061 -0.65484 -1.43351 0
M  V30 6836 C 638.338 -0.0987371 -1.95351 0
M  V30 6837 C 638.718 1.38161 -1.59608 0
M  V30 6838 O 638.066 2.10791 -0.882021 0
M  V30 6839 C 638.276 -0.346684 -3.47274 0
M  V30 6840 C 639.624 -0.25249 -4.23849 0
M  V30 6841 O 640.648 -0.279332 -3.55103 0
M  V30 6842 O 639.507 -0.177584 -5.46211 0
M  V30 6843 H 636.601 0.0086829 -0.826954 0
M  V30 6844 H 639.147 -0.728189 -1.53282 0
M  V30 6845 H 637.919 -1.37296 -3.66423 0
M  V30 6846 H 637.542 0.315757 -3.96344 0
M  V30 6847 N 638.539 1.52521 -0.396863 0
M  V30 6848 C 639.502 2.2527 0.422604 0
M  V30 6849 C 640.502 1.27184 0.983913 0
M  V30 6850 O 641.692 1.51222 0.864723 0
M  V30 6851 C 638.824 3.01356 1.59365 0
M  V30 6852 H 640.017 2.99133 -0.214416 0
M  V30 6853 H 637.57 1.55587 -0.149128 0
M  V30 6854 H 638.305 2.31813 2.26789 0
M  V30 6855 H 638.09 3.73357 1.19779 0
M  V30 6856 H 639.58 3.56571 2.17363 0
M  V30 6857 N 640.017 0.126909 1.57088 0
M  V30 6858 C 640.947 -0.816847 2.18746 0
M  V30 6859 C 641.928 -1.27161 1.12979 0
M  V30 6860 O 643.113 -1.33279 1.41246 0
M  V30 6861 C 640.243 -2.06398 2.79315 0
M  V30 6862 C 639.197 -1.74673 3.90735 0
M  V30 6863 C 638.523 -3.06482 4.38147 0
M  V30 6864 C 639.823 -1.0089 5.12463 0
M  V30 6865 H 641.517 -0.303032 2.97863 0
M  V30 6866 H 639.063 -0.144314 1.43275 0
M  V30 6867 H 641.016 -2.72885 3.2111 0
M  V30 6868 H 639.74 -2.60118 1.975 0
M  V30 6869 H 638.399 -1.10572 3.49527 0
M  V30 6870 H 638.047 -3.58152 3.5318 0
M  V30 6871 H 637.747 -2.86025 5.13287 0
M  V30 6872 H 639.271 -3.74073 4.82599 0
M  V30 6873 H 640.685 -1.57546 5.51228 0
M  V30 6874 H 639.082 -0.905006 5.93237 0
M  V30 6875 H 640.152 0.00297335 4.849 0
M  V30 6876 N 641.495 -1.56914 -0.146875 0
M  V30 6877 C 642.425 -2.01308 -1.1831 0
M  V30 6878 C 643.406 -0.892664 -1.44795 0
M  V30 6879 O 644.591 -1.16048 -1.55713 0
M  V30 6880 C 641.721 -2.3938 -2.51624 0
M  V30 6881 C 640.675 -3.54608 -2.3966 0
M  V30 6882 C 640.001 -3.78493 -3.77686 0
M  V30 6883 C 641.301 -4.87269 -1.88058 0
M  V30 6884 H 642.995 -2.88123 -0.813964 0
M  V30 6885 H 640.541 -1.38615 -0.3901 0
M  V30 6886 H 642.494 -2.69037 -3.24341 0
M  V30 6887 H 641.218 -1.49502 -2.90373 0
M  V30 6888 H 639.877 -3.25116 -1.69396 0
M  V30 6889 H 639.525 -2.85866 -4.13871 0
M  V30 6890 H 639.225 -4.56039 -3.70543 0
M  V30 6891 H 640.749 -4.10576 -4.51951 0
M  V30 6892 H 642.163 -5.15644 -2.50568 0
M  V30 6893 H 640.56 -5.68622 -1.91805 0
M  V30 6894 H 641.63 -4.77634 -0.836277 0
M  V30 6895 N 642.974 0.416227 -1.52004 0
M  V30 6896 C 643.904 1.51365 -1.77795 0
M  V30 6897 C 644.885 1.58059 -0.628601 0
M  V30 6898 O 646.07 1.73447 -0.873478 0
M  V30 6899 C 643.2 2.89256 -1.92219 0
M  V30 6900 C 642.154 2.97415 -3.0778 0
M  V30 6901 C 641.48 4.37492 -3.07417 0
M  V30 6902 C 642.78 2.69551 -4.47369 0
M  V30 6903 H 644.474 1.30033 -2.69688 0
M  V30 6904 H 642.02 0.624112 -1.29772 0
M  V30 6905 H 643.973 3.66008 -2.08845 0
M  V30 6906 H 642.697 3.11866 -0.969917 0
M  V30 6907 H 641.356 2.23107 -2.90893 0
M  V30 6908 H 641.004 4.571 -2.09925 0
M  V30 6909 H 640.704 4.43877 -3.85029 0
M  V30 6910 H 642.228 5.16188 -3.26162 0
M  V30 6911 H 643.642 3.36028 -4.64497 0
M  V30 6912 H 642.039 2.87321 -5.26846 0
M  V30 6913 H 643.109 1.65029 -4.55953 0
M  V30 6914 N 644.452 1.42507 0.673017 0
M  V30 6915 C 645.362 1.4853 1.81593 0
M  V30 6916 C 646.378 0.373907 1.69935 0
M  V30 6917 O 647.554 0.625078 1.91454 0
M  V30 6918 C 644.619 1.387 3.17747 0
M  V30 6919 C 643.68 2.60346 3.41348 0
M  V30 6920 C 642.913 2.50975 4.71007 0
M  V30 6921 O 643.136 1.54659 5.49033 0
M  V30 6922 O 642.07 3.41138 4.95892 0
M  V30 6923 H 645.896 2.45001 1.79467 0
M  V30 6924 H 643.481 1.2429 0.82899 0
M  V30 6925 H 645.363 1.35586 3.98992 0
M  V30 6926 H 644.038 0.453555 3.20507 0
M  V30 6927 H 642.945 2.69034 2.59945 0
M  V30 6928 H 644.278 3.52595 3.43421 0
M  V30 6929 N 645.93 -0.909495 1.28709 0
M  V30 6930 C 647.17 -1.67344 1.17368 0
M  V30 6931 C 647.534 -1.90058 -0.272419 0
M  V30 6932 O 648.735 -2.63944 -0.508617 0
M  V30 6933 C 647.006 -2.99219 1.95455 0
M  V30 6934 S 648.565 -3.90295 2.00538 0
M  V30 6935 H 645.383 -0.57466 0.418672 0
M  V30 6936 H 647.985 -1.08144 1.62865 0
M  V30 6937 H 646.689 -2.80393 2.9968 0
M  V30 6938 H 646.22 -3.63464 1.50524 0
M  V30 6939 H 648.235 -4.83511 1.11496 0
M  V30 6940 N 647.408 -1.11026 -1.11852 0
M  V30 6941 C 648.685 -0.768347 -1.79877 0
M  V30 6942 C 649.065 0.744261 -1.97545 0
M  V30 6943 O 648.413 1.67271 -1.55669 0
M  V30 6944 C 648.623 -1.52648 -3.13846 0
M  V30 6945 C 649.971 -1.70297 -3.88953 0
M  V30 6946 O 650.995 -1.49037 -3.23522 0
M  V30 6947 O 649.854 -2.05593 -5.06353 0
M  V30 6948 H 646.948 -0.277891 -0.778913 0
M  V30 6949 H 649.494 -1.21343 -1.18633 0
M  V30 6950 H 648.266 -2.55564 -2.96315 0
M  V30 6951 H 647.889 -1.07466 -3.82801 0
M  V30 6952 N 648.886 1.2938 -0.899927 0
M  V30 6953 C 650.132 1.9584 -0.526742 0
M  V30 6954 C 650.465 1.70774 0.924651 0
M  V30 6955 O 649.74 1.02084 1.65557 0
M  V30 6956 C 650.023 3.50638 -0.820062 0
M  V30 6957 C 649.876 3.85161 -2.32317 0
M  V30 6958 C 651.195 4.3903 -0.30671 0
M  V30 6959 H 648.314 0.711322 -0.192848 0
M  V30 6960 H 650.956 1.52992 -1.12665 0
M  V30 6961 H 649.106 3.87265 -0.309491 0
M  V30 6962 H 650.778 3.58477 -2.9033 0
M  V30 6963 H 649.021 3.32696 -2.78381 0
M  V30 6964 H 649.692 4.93204 -2.47898 0
M  V30 6965 H 652.168 4.09396 -0.743908 0
M  V30 6966 H 651.044 5.46226 -0.541144 0
M  V30 6967 H 651.305 4.34937 0.792588 0
M  V30 6968 N 650.364 0.662433 1.43002 0
M  V30 6969 C 651.78 0.330835 1.56133 0
M  V30 6970 C 651.98 -1.16454 1.64441 0
M  V30 6971 O 651.036 -1.94964 1.60453 0
M  V30 6972 C 652.349 1.05029 2.81761 0
M  V30 6973 C 653.897 1.03142 2.95518 0
M  V30 6974 C 654.372 1.73196 4.2399 0
M  V30 6975 N 655.863 1.70004 4.30875 0
M  V30 6976 C 656.598 2.21074 5.29069 0
M  V30 6977 N 656.094 2.80473 6.33488 0
M  V30 6978 N 657.887 2.1152 5.20784 0
M  V30 6979 H 650.038 1.63272 1.35853 0
M  V30 6980 H 652.301 0.687149 0.653092 0
M  V30 6981 H 652.007 2.10542 2.81718 0
M  V30 6982 H 651.881 0.607664 3.72273 0
M  V30 6983 H 654.268 -0.0153339 2.95096 0
M  V30 6984 H 654.349 1.51282 2.0627 0
M  V30 6985 H 653.993 2.77833 4.25172 0
M  V30 6986 H 653.923 1.22515 5.1215 0
M  V30 6987 H 656.414 1.26667 3.56039 0
M  V30 6988 H 656.727 3.17094 7.04749 0
M  V30 6989 H 655.072 2.84538 6.34085 0
M  V30 6990 H 658.263 1.64814 4.38126 0
M  V30 6991 H 658.436 2.51629 5.97149 0
M  V30 6992 N 651.842 -1.52309 0.404946 0
M  V30 6993 C 653.067 -2.06666 -0.1743 0
M  V30 6994 C 653.492 -1.27341 -1.38441 0
M  V30 6995 O 652.85 -0.302539 -1.78758 0
M  V30 6996 C 652.898 -3.57014 -0.507262 0
M  V30 6997 O 652.002 -3.80144 -1.59889 0
M  V30 6998 H 651.343 -0.663807 -0.0160273 0
M  V30 6999 H 653.873 -1.96297 0.576937 0
M  V30 7000 H 653.883 -4.00724 -0.767098 0
M  V30 7001 H 652.558 -4.14184 0.377368 0
M  V30 7002 H 651.135 -3.48316 -1.33155 0
M  V30 7003 N 653.32 -0.135238 -1.57019 0
M  V30 7004 C 654.567 0.518794 -1.95742 0
M  V30 7005 C 654.895 1.65642 -1.01947 0
M  V30 7006 O 654.15 1.95645 -0.0464016 0
M  V30 7007 C 654.449 1.07694 -3.40788 0
M  V30 7008 C 654.115 0.058992 -4.50861 0
M  V30 7009 C 652.777 -0.220872 -4.80693 0
M  V30 7010 C 655.129 -0.633856 -5.17331 0
M  V30 7011 C 652.457 -1.19959 -5.74305 0
M  V30 7012 C 654.809 -1.60131 -6.11997 0
M  V30 7013 C 653.473 -1.889 -6.40213 0
M  V30 7014 H 652.743 0.18984 -0.716269 0
M  V30 7015 H 655.39 -0.219581 -1.90237 0
M  V30 7016 H 653.695 1.89241 -3.43067 0
M  V30 7017 H 655.392 1.59137 -3.68071 0
M  V30 7018 H 651.982 0.287304 -4.27636 0
M  V30 7019 H 656.166 -0.430823 -4.94427 0
M  V30 7020 H 651.422 -1.42905 -5.94465 0
M  V30 7021 H 655.596 -2.14376 -6.62583 0
M  V30 7022 H 653.223 -2.64891 -7.12556 0
M  V30 7023 N 654.798 1.5699 0.138552 0
M  V30 7024 C 655.708 2.02174 1.19008 0
M  V30 7025 C 656.724 0.938622 1.46512 0
M  V30 7026 O 657.9 1.24872 1.58016 0
M  V30 7027 C 654.965 2.40045 2.50159 0
M  V30 7028 C 654.026 3.62346 2.30226 0
M  V30 7029 C 653.259 3.98401 3.55123 0
M  V30 7030 O 653.482 3.35019 4.61647 0
M  V30 7031 O 652.416 4.91606 3.47285 0
M  V30 7032 H 656.242 2.91954 0.836452 0
M  V30 7033 H 653.827 1.45293 0.347907 0
M  V30 7034 H 655.709 2.65225 3.27465 0
M  V30 7035 H 654.384 1.53417 2.85035 0
M  V30 7036 H 653.291 3.42341 1.50843 0
M  V30 7037 H 654.624 4.49617 2.00262 0
M  V30 7038 N 656.276 -0.40816 1.52223 0
M  V30 7039 C 657.553 -1.16807 1.56893 0
M  V30 7040 C 657.933 -2.08169 0.350537 0
M  V30 7041 O 657.281 -2.18684 -0.662536 0
M  V30 7042 C 657.491 -1.94451 2.8981 0
M  V30 7043 C 658.839 -2.50484 3.42845 0
M  V30 7044 O 659.863 -2.0463 2.91556 0
M  V30 7045 O 658.722 -3.34192 4.3241 0
M  V30 7046 H 655.816 -0.533382 0.632007 0
M  V30 7047 H 658.362 -0.414862 1.64551 0
M  V30 7048 H 657.134 -1.27527 3.69936 0
M  V30 7049 H 656.757 -2.76775 2.85449 0
M  V30 7050 N 657.755 -1.42862 -0.66545 0
M  V30 7051 C 658.985 -1.47032 -1.45138 0
M  V30 7052 C 659.393 -0.0829977 -1.89018 0
M  V30 7053 O 658.736 0.914551 -1.59316 0
M  V30 7054 C 658.798 -2.34302 -2.72659 0
M  V30 7055 C 658.462 -3.82034 -2.50796 0
M  V30 7056 C 659.459 -4.73453 -2.14799 0
M  V30 7057 C 657.144 -4.26397 -2.655 0
M  V30 7058 C 659.138 -6.07228 -1.93785 0
M  V30 7059 C 656.825 -5.6023 -2.44103 0
M  V30 7060 C 657.823 -6.50462 -2.08299 0
M  V30 7061 O 657.511 -7.8182 -1.87116 0
M  V30 7062 H 657.243 -0.501969 -0.452772 0
M  V30 7063 H 659.797 -1.88137 -0.82423 0
M  V30 7064 H 658.027 -1.88063 -3.37889 0
M  V30 7065 H 659.716 -2.29818 -3.34572 0
M  V30 7066 H 660.482 -4.4046 -2.03026 0
M  V30 7067 H 656.361 -3.56448 -2.92345 0
M  V30 7068 H 659.905 -6.7762 -1.65763 0
M  V30 7069 H 655.802 -5.92793 -2.55475 0
M  V30 7070 H 656.57 -7.93274 -2.01639 0
M  V30 7071 N 659.233 0.902656 -1.29189 0
M  V30 7072 C 660.649 1.18296 -1.07137 0
M  V30 7073 C 660.849 2.00701 0.179223 0
M  V30 7074 O 659.905 2.3675 0.877812 0
M  V30 7075 C 661.218 1.90677 -2.32514 0
M  V30 7076 C 662.766 2.03515 -2.37804 0
M  V30 7077 C 663.241 2.79307 -3.62976 0
M  V30 7078 N 664.732 2.86862 -3.63681 0
M  V30 7079 C 665.467 3.46035 -4.57217 0
M  V30 7080 N 664.963 4.06399 -5.61081 0
M  V30 7081 N 666.756 3.43681 -4.44792 0
M  V30 7082 H 658.907 0.352765 -2.0945 0
M  V30 7083 H 661.17 0.21876 -0.922414 0
M  V30 7084 H 660.876 1.3756 -3.23682 0
M  V30 7085 H 660.75 2.91169 -2.39793 0
M  V30 7086 H 663.137 2.55809 -1.47125 0
M  V30 7087 H 663.218 1.02166 -2.34512 0
M  V30 7088 H 662.862 2.2769 -4.54004 0
M  V30 7089 H 662.792 3.80995 -3.63525 0
M  V30 7090 H 665.283 2.43987 -2.88581 0
M  V30 7091 H 665.596 4.49564 -6.2858 0
M  V30 7092 H 663.941 4.0487 -5.64894 0
M  V30 7093 H 667.132 2.9574 -3.62843 0
M  V30 7094 H 667.305 3.89503 -5.17872 0
M  V30 7095 N 660.711 1.11618 1.11262 0
M  V30 7096 C 661.957 0.867463 1.83311 0
M  V30 7097 C 662.29 -0.605366 1.84524 0
M  V30 7098 O 661.565 -1.44704 1.29965 0
M  V30 7099 C 661.848 1.43207 3.30399 0
M  V30 7100 C 661.701 2.97265 3.3757 0
M  V30 7101 C 663.02 1.08454 4.26528 0
M  V30 7102 H 660.139 0.316578 0.665543 0
M  V30 7103 H 662.781 1.38137 1.30454 0
M  V30 7104 H 660.931 0.994982 3.75543 0
M  V30 7105 H 662.603 3.49591 3.00971 0
M  V30 7106 H 660.846 3.33237 2.77733 0
M  V30 7107 H 661.517 3.31859 4.41105 0
M  V30 7108 H 663.993 1.4619 3.89574 0
M  V30 7109 H 662.869 1.50633 5.27826 0
M  V30 7110 H 663.13 -0.00444568 4.421 0
M  V30 7111 N 662.189 -1.289 0.906776 0
M  V30 7112 C 663.438 -1.9455 0.532262 0
M  V30 7113 C 663.751 -1.72219 -0.927353 0
M  V30 7114 O 664.957 -2.32033 -1.40971 0
M  V30 7115 C 663.413 -3.48438 0.901041 0
M  V30 7116 C 663.021 -3.79558 2.37991 0
M  V30 7117 C 664.765 -4.20284 0.596777 0
M  V30 7118 C 662.672 -5.26723 2.68918 0
M  V30 7119 H 661.602 -0.728259 0.195333 0
M  V30 7120 H 664.253 -1.46519 1.10474 0
M  V30 7121 H 662.635 -3.95162 0.257419 0
M  V30 7122 H 663.809 -3.43668 3.06967 0
M  V30 7123 H 662.124 -3.20868 2.65391 0
M  V30 7124 H 664.721 -5.28612 0.8046 0
M  V30 7125 H 665.064 -4.13694 -0.465072 0
M  V30 7126 H 665.597 -3.79315 1.19855 0
M  V30 7127 H 662.336 -5.38384 3.73928 0
M  V30 7128 H 661.856 -5.63836 2.04571 0
M  V30 7129 H 663.535 -5.94391 2.55555 0
M  V30 7130 N 663.667 -0.670007 -1.42649 0
M  V30 7131 C 664.577 0.0114788 -2.34597 0
M  V30 7132 C 665.593 0.794055 -1.54825 0
M  V30 7133 O 666.769 0.737472 -1.87412 0
M  V30 7134 C 663.834 0.954436 -3.33304 0
M  V30 7135 C 662.895 0.166925 -4.28975 0
M  V30 7136 C 662.128 1.06497 -5.22967 0
M  V30 7137 O 662.351 2.30446 -5.21777 0
M  V30 7138 O 661.285 0.528347 -5.99577 0
M  V30 7139 H 665.111 -0.745794 -2.944 0
M  V30 7140 H 662.696 -0.430228 -1.43071 0
M  V30 7141 H 664.578 1.49589 -3.93956 0
M  V30 7142 H 663.253 1.69164 -2.7598 0
M  V30 7143 H 662.16 -0.418515 -3.71752 0
M  V30 7144 H 663.493 -0.531067 -4.89327 0
M  V30 7145 N 665.145 1.52092 -0.413018 0
M  V30 7146 C 666.095 2.23947 0.427993 0
M  V30 7147 C 667.079 1.25229 1.01027 0
M  V30 7148 O 668.271 1.50448 0.932444 0
M  V30 7149 C 665.4 3.0672 1.542 0
M  V30 7150 C 664.486 4.12851 0.970307 0
M  V30 7151 N 664.877 5.05644 0.125611 0
M  V30 7152 C 663.175 4.28404 1.24042 0
M  V30 7153 C 663.876 5.8138 -0.192876 0
M  V30 7154 N 662.852 5.41996 0.417273 0
M  V30 7155 H 666.654 2.93048 -0.223628 0
M  V30 7156 H 664.168 1.60852 -0.223664 0
M  V30 7157 H 666.165 3.56754 2.15714 0
M  V30 7158 H 664.825 2.39159 2.19621 0
M  V30 7159 H 665.836 5.17348 -0.238995 0
M  V30 7160 H 662.513 3.72071 1.89391 0
M  V30 7161 H 663.903 6.66129 -0.878762 0
M  V30 7162 N 666.623 0.143563 1.56945 0
M  V30 7163 C 667.872 -0.50835 1.95189 0
M  V30 7164 C 668.185 -1.66239 1.03073 0
M  V30 7165 O 669.391 -2.3787 1.30882 0
M  V30 7166 C 667.847 -0.955735 3.46978 0
M  V30 7167 C 667.455 0.171183 4.47673 0
M  V30 7168 C 669.199 -1.57763 3.94095 0
M  V30 7169 C 667.106 -0.294279 5.90667 0
M  V30 7170 H 666.036 -0.193679 0.728701 0
M  V30 7171 H 668.687 0.227357 1.82086 0
M  V30 7172 H 667.069 -1.7466 3.55401 0
M  V30 7173 H 668.243 0.948049 4.50942 0
M  V30 7174 H 666.558 0.701273 4.10452 0
M  V30 7175 H 669.155 -1.93745 4.98364 0
M  V30 7176 H 669.498 -2.46531 3.35452 0
M  V30 7177 H 670.031 -0.851728 3.88575 0
M  V30 7178 H 666.77 0.557939 6.53121 0
M  V30 7179 H 666.29 -1.0371 5.90766 0
M  V30 7180 H 667.969 -0.747426 6.42668 0
M  V30 7181 N 668.101 -1.57061 -0.130224 0
M  V30 7182 C 669.347 -1.8453 -0.841216 0
M  V30 7183 C 669.68 -0.727666 -1.80052 0
M  V30 7184 O 668.955 0.267419 -1.92653 0
M  V30 7185 C 669.238 -3.22553 -1.60099 0
M  V30 7186 C 669.091 -4.44901 -0.662048 0
M  V30 7187 C 670.41 -3.58003 -2.55973 0
M  V30 7188 H 667.529 -0.671215 -0.304366 0
M  V30 7189 H 670.171 -1.89705 -0.105821 0
M  V30 7190 H 668.321 -3.18272 -2.22789 0
M  V30 7191 H 669.993 -4.61278 -0.0448559 0
M  V30 7192 H 668.236 -4.33791 0.0272253 0
M  V30 7193 H 668.907 -5.3812 -1.23006 0
M  V30 7194 H 671.383 -3.63002 -2.03393 0
M  V30 7195 H 670.259 -4.55576 -3.06172 0
M  V30 7196 H 670.52 -2.84833 -3.38116 0
M  V30 7197 N 669.579 0.400081 -1.52437 0
M  V30 7198 C 670.509 1.4947 -1.7939 0
M  V30 7199 C 671.49 1.57383 -0.645329 0
M  V30 7200 O 672.675 1.72511 -0.891826 0
M  V30 7201 C 669.805 2.87201 -1.95276 0
M  V30 7202 C 668.759 2.94134 -3.10917 0
M  V30 7203 C 668.085 4.34207 -3.1204 0
M  V30 7204 C 669.385 2.64791 -4.50203 0
M  V30 7205 H 671.079 1.27165 -2.71052 0
M  V30 7206 H 668.625 0.610312 -1.30427 0
M  V30 7207 H 670.578 3.63772 -2.12715 0
M  V30 7208 H 669.302 3.10819 -1.00294 0
M  V30 7209 H 667.961 2.20009 -2.93243 0
M  V30 7210 H 667.609 4.54848 -2.14761 0
M  V30 7211 H 667.309 4.39768 -3.89715 0
M  V30 7212 H 668.833 5.127 -3.31619 0
M  V30 7213 H 670.247 3.31083 -4.68035 0
M  V30 7214 H 668.644 2.81717 -5.29864 0
M  V30 7215 H 669.714 1.60184 -4.57678 0
M  V30 7216 N 671.057 1.43213 0.657864 0
M  V30 7217 C 671.967 1.50448 1.80007 0
M  V30 7218 C 672.983 0.39191 1.69529 0
M  V30 7219 O 674.159 0.645349 1.90781 0
M  V30 7220 C 671.224 1.42062 3.16258 0
M  V30 7221 C 670.285 2.63951 3.38568 0
M  V30 7222 C 669.518 2.55956 4.68318 0
M  V30 7223 O 669.741 1.60473 5.47361 0
M  V30 7224 O 668.675 3.46378 4.92245 0
M  V30 7225 H 672.501 2.4689 1.76858 0
M  V30 7226 H 670.086 1.25163 0.81576 0
M  V30 7227 H 671.968 1.3981 3.97531 0
M  V30 7228 H 670.643 0.487524 3.20008 0
M  V30 7229 H 669.55 2.71776 2.57077 0
M  V30 7230 H 670.883 3.56217 3.39662 0
M  V30 7231 N 672.536 -0.895792 1.29666 0
M  V30 7232 C 673.486 -1.98736 1.1175 0
M  V30 7233 C 674.47 -1.6086 0.0357834 0
M  V30 7234 O 675.662 -1.75111 0.257926 0
M  V30 7235 C 672.791 -3.33845 0.800156 0
M  V30 7236 C 671.877 -3.78068 1.9216 0
M  V30 7237 N 672.268 -3.94489 3.16563 0
M  V30 7238 C 670.566 -4.07376 1.81552 0
M  V30 7239 C 671.267 -4.31819 3.89753 0
M  V30 7240 N 670.243 -4.41081 3.17724 0
M  V30 7241 H 674.045 -2.09507 2.06117 0
M  V30 7242 H 671.559 -1.08488 1.20848 0
M  V30 7243 H 673.556 -4.11757 0.652841 0
M  V30 7244 H 672.216 -3.24417 -0.135551 0
M  V30 7245 H 673.227 -3.79914 3.51974 0
M  V30 7246 H 669.904 -4.06483 0.952787 0
M  V30 7247 H 671.294 -4.52337 4.96831 0
M  V30 7248 N 674.014 -1.12206 -1.10668 0
M  V30 7249 C 675.291 -0.787382 -1.79052 0
M  V30 7250 C 675.671 0.723267 -1.98323 0
M  V30 7251 O 675.019 1.6561 -1.57434 0
M  V30 7252 C 675.229 -1.55968 -3.1221 0
M  V30 7253 C 676.577 -1.74413 -3.87125 0
M  V30 7254 O 677.601 -1.5246 -3.21923 0
M  V30 7255 O 676.46 -2.10952 -5.04144 0
M  V30 7256 H 673.554 -0.286137 -0.775922 0
M  V30 7257 H 676.1 -1.22595 -1.1734 0
M  V30 7258 H 674.872 -2.58692 -2.93588 0
M  V30 7259 H 674.495 -1.1152 -3.8164 0
M  V30 7260 N 675.492 1.28418 -0.913599 0
M  V30 7261 C 676.44 2.29272 -0.392037 0
M  V30 7262 C 677.434 1.61344 0.516198 0
M  V30 7263 O 678.64 1.75557 0.39746 0
M  V30 7264 H 675.015 0.744178 -0.108178 0
M  V30 7265 H 676.986 2.70691 -1.25574 0
M  V30 7266 C 675.735 3.45905 0.352815 0
M  V30 7267 H 675.058 3.98378 -0.336848 0
M  V30 7268 H 676.498 4.18473 0.682398 0
M  V30 7269 C 674.957 2.98572 1.56065 0
M  V30 7270 O 675.487 3.01033 2.65974 0
M  V30 7271 N 673.693 2.54235 1.40759 0
M  V30 7272 H 673.24 2.52432 0.513403 0
M  V30 7273 H 673.198 2.22925 2.21702 0
M  V30 7274 N 676.97 0.677563 1.42291 0
M  V30 7275 C 678.216 0.201272 2.01799 0
M  V30 7276 C 678.549 -1.19004 1.53465 0
M  V30 7277 O 677.824 -1.79953 0.738039 0
M  V30 7278 C 678.107 0.238968 3.59306 0
M  V30 7279 C 677.96 1.66594 4.17812 0
M  V30 7280 C 679.279 -0.411287 4.38174 0
M  V30 7281 H 676.398 0.0746114 0.733214 0
M  V30 7282 H 679.04 0.862872 1.69276 0
M  V30 7283 H 677.19 -0.324368 3.87144 0
M  V30 7284 H 678.862 2.28173 4.00917 0
M  V30 7285 H 677.105 2.20576 3.73536 0
M  V30 7286 H 677.776 1.64398 5.26951 0
M  V30 7287 H 680.252 0.0682804 4.16044 0
M  V30 7288 H 679.128 -0.354286 5.47755 0
M  V30 7289 H 679.389 -1.4893 4.1626 0
M  V30 7290 N 678.448 -1.51871 0.421078 0
M  V30 7291 C 679.395 -2.27334 -0.398508 0
M  V30 7292 C 680.365 -1.30241 -1.03085 0
M  V30 7293 O 681.55 -1.59121 -1.05285 0
M  V30 7294 C 678.69 -3.10664 -1.50272 0
M  V30 7295 C 677.803 -4.2273 -0.890122 0
M  V30 7296 C 676.938 -4.93399 -1.96803 0
M  V30 7297 C 675.977 -5.97409 -1.333 0
M  V30 7298 N 675.114 -6.61548 -2.35156 0
M  V30 7299 H 679.954 -2.96938 0.251411 0
M  V30 7300 H 677.491 -1.46472 0.135825 0
M  V30 7301 H 679.449 -3.57292 -2.15403 0
M  V30 7302 H 678.079 -2.43207 -2.1225 0
M  V30 7303 H 677.131 -3.80186 -0.127537 0
M  V30 7304 H 678.443 -4.97302 -0.386349 0
M  V30 7305 H 677.597 -5.43491 -2.69633 0
M  V30 7306 H 676.336 -4.18421 -2.50549 0
M  V30 7307 H 675.341 -5.46624 -0.59008 0
M  V30 7308 H 676.566 -6.74335 -0.803076 0
M  V30 7309 H 674.512 -5.89394 -2.88012 0
M  V30 7310 H 674.429 -7.31832 -1.89624 0
M  V30 7311 H 675.697 -7.16276 -3.0752 0
M  V30 7312 N 679.926 -0.151884 -1.56866 0
M  V30 7313 C 680.858 0.817008 -2.14144 0
M  V30 7314 C 681.871 1.20735 -1.0921 0
M  V30 7315 O 683.06 1.15058 -1.36469 0
M  V30 7316 C 680.16 2.10844 -2.65326 0
M  V30 7317 C 679.333 1.88471 -3.94712 0
M  V30 7318 C 678.392 3.01649 -4.31155 0
M  V30 7319 O 677.418 2.73127 -4.9939 0
M  V30 7320 N 678.62 4.28947 -3.91132 0
M  V30 7321 H 681.385 0.327448 -2.97906 0
M  V30 7322 H 678.946 0.0315313 -1.61869 0
M  V30 7323 H 680.938 2.85616 -2.86715 0
M  V30 7324 H 679.508 2.51049 -1.86262 0
M  V30 7325 H 678.728 0.977088 -3.81899 0
M  V30 7326 H 680.016 1.70866 -4.79252 0
M  V30 7327 H 679.414 4.54986 -3.36161 0
M  V30 7328 H 677.971 5.00484 -4.17563 0
M  V30 7329 N 681.404 1.57128 0.121893 0
M  V30 7330 C 682.632 1.88883 0.844451 0
M  V30 7331 C 683.047 0.742824 1.73573 0
M  V30 7332 O 682.404 -0.286475 1.80238 0
M  V30 7333 C 682.455 3.20076 1.68029 0
M  V30 7334 O 682.176 4.30264 0.824898 0
M  V30 7335 C 683.677 3.65515 2.50826 0
M  V30 7336 H 680.897 0.62549 0.242907 0
M  V30 7337 H 683.441 2.04219 0.107151 0
M  V30 7338 H 681.596 3.06418 2.37038 0
M  V30 7339 H 682.01 5.05439 1.40113 0
M  V30 7340 H 683.484 4.60081 3.05008 0
M  V30 7341 H 683.961 2.92029 3.28048 0
M  V30 7342 H 684.567 3.81952 1.87064 0
M  V30 7343 N 682.882 -0.391992 1.52647 0
M  V30 7344 C 683.83 -1.4991 1.77848 0
M  V30 7345 C 684.824 -1.56587 0.646282 0
M  V30 7346 O 686.03 -1.59789 0.828698 0
M  V30 7347 H 682.405 -0.498883 0.56269 0
M  V30 7348 H 684.376 -1.25847 2.70564 0
M  V30 7349 C 683.125 -2.87081 1.96163 0
M  V30 7350 H 682.448 -2.82692 2.82711 0
M  V30 7351 H 683.888 -3.63792 2.17787 0
M  V30 7352 C 682.347 -3.28822 0.733348 0
M  V30 7353 O 682.877 -4.01598 -0.0906481 0
M  V30 7354 N 681.083 -2.85068 0.564317 0
M  V30 7355 H 680.63 -2.26012 1.23598 0
M  V30 7356 H 680.588 -3.13355 -0.256166 0
M  V30 7357 N 684.36 -1.4356 -0.65026 0
M  V30 7358 C 685.585 -1.48995 -1.44275 0
M  V30 7359 C 686.01 -0.109954 -1.87778 0
M  V30 7360 O 685.368 0.896926 -1.57559 0
M  V30 7361 C 685.416 -2.44341 -2.65198 0
M  V30 7362 O 684.52 -1.93172 -3.6436 0
M  V30 7363 H 683.861 -0.503852 -0.432469 0
M  V30 7364 H 686.391 -1.88504 -0.795446 0
M  V30 7365 H 686.401 -2.61743 -3.12977 0
M  V30 7366 H 685.076 -3.44588 -2.32877 0
M  V30 7367 H 683.653 -1.85445 -3.23519 0
M  V30 7368 N 685.838 0.888903 -1.30139 0
M  V30 7369 C 686.801 1.97576 -1.16174 0
M  V30 7370 C 687.801 1.60525 -0.094086 0
M  V30 7371 O 688.991 1.70812 -0.341889 0
M  V30 7372 C 686.123 3.3188 -0.778983 0
M  V30 7373 H 687.316 2.11393 -2.12728 0
M  V30 7374 H 684.869 1.0748 -1.1348 0
M  V30 7375 H 685.604 3.23765 0.186225 0
M  V30 7376 H 685.389 3.60141 -1.55051 0
M  V30 7377 H 686.879 4.11612 -0.704631 0
M  V30 7378 N 687.317 1.12792 1.10072 0
M  V30 7379 C 688.249 0.757003 2.16338 0
M  V30 7380 C 689.262 -0.218144 1.61332 0
M  V30 7381 O 690.451 0.0010727 1.785 0
M  V30 7382 C 687.551 0.100303 3.38752 0
M  V30 7383 C 686.724 1.10586 4.2319 0
M  V30 7384 C 685.783 0.47609 5.24042 0
M  V30 7385 O 684.809 1.13418 5.57786 0
M  V30 7386 N 686.011 -0.754823 5.75572 0
M  V30 7387 H 688.776 1.6714 2.48766 0
M  V30 7388 H 686.337 1.02003 1.25726 0
M  V30 7389 H 688.329 -0.333092 4.03327 0
M  V30 7390 H 686.899 -0.716915 3.04268 0
M  V30 7391 H 686.119 1.71677 3.54853 0
M  V30 7392 H 687.407 1.78571 4.76435 0
M  V30 7393 H 686.805 -1.30838 5.50362 0
M  V30 7394 H 685.362 -1.13098 6.41913 0
M  V30 7395 N 688.795 -1.27931 0.920396 0
M  V30 7396 C 690.02 -1.99343 0.572478 0
M  V30 7397 C 690.445 -1.68267 -0.840696 0
M  V30 7398 O 689.803 -0.918805 -1.56294 0
M  V30 7399 C 689.851 -3.51698 0.796284 0
M  V30 7400 O 688.955 -4.12157 -0.141602 0
M  V30 7401 H 688.296 -0.626065 0.221221 0
M  V30 7402 H 690.826 -1.62921 1.23765 0
M  V30 7403 H 690.836 -4.01793 0.708984 0
M  V30 7404 H 689.511 -3.73649 1.82644 0
M  V30 7405 H 688.088 -3.729 -0.005007 0
M  V30 7406 N 690.273 -0.685099 -1.4193 0
M  V30 7407 C 691.498 -0.218842 -2.06242 0
M  V30 7408 C 691.923 1.11923 -1.51178 0
M  V30 7409 O 691.281 1.69837 -0.634446 0
M  V30 7410 C 691.329 -0.175592 -3.60172 0
M  V30 7411 O 690.433 0.852776 -4.03487 0
M  V30 7412 H 689.774 -0.109531 -0.654904 0
M  V30 7413 H 692.304 -0.937013 -1.81882 0
M  V30 7414 H 692.314 -0.00291151 -4.08 0
M  V30 7415 H 690.989 -1.15222 -3.99621 0
M  V30 7416 H 689.566 0.650301 -3.67186 0
M  V30 7417 N 691.751 1.51645 -0.429126 0
M  V30 7418 C 693.162 1.86665 0.0359003 0
M  V30 7419 C 693.513 1.34677 1.42676 0
M  V30 7420 O 692.638 0.694195 2.04963 0
M  V30 7421 C 693.233 3.38724 0.0719221 0
M  V30 7422 C 691.792 3.7331 0.481336 0
M  V30 7423 C 690.939 2.75313 -0.331329 0
M  V30 7424 H 693.89 1.44987 -0.645333 0
M  V30 7425 H 693.911 3.7011 0.883118 0
M  V30 7426 H 693.423 3.76532 -0.940495 0
M  V30 7427 H 691.524 3.41088 1.49966 0
M  V30 7428 H 691.637 4.78631 0.211837 0
M  V30 7429 H 690.001 2.53839 0.209204 0
M  V30 7430 H 690.784 3.15963 -1.34247 0
M  V30 7431 N 693.229 0.160201 1.56784 0
M  V30 7432 C 694.475 -0.48831 1.96833 0
M  V30 7433 C 694.808 -1.63641 1.04571 0
M  V30 7434 O 694.083 -1.94289 0.0906481 0
M  V30 7435 C 694.366 -0.981908 3.46454 0
M  V30 7436 C 694.219 0.165607 4.49495 0
M  V30 7437 C 695.538 -1.85931 3.98896 0
M  V30 7438 H 692.657 -0.176027 0.71567 0
M  V30 7439 H 695.299 0.244093 1.88426 0
M  V30 7440 H 693.449 -1.60602 3.5375 0
M  V30 7441 H 695.121 0.802372 4.54268 0
M  V30 7442 H 693.364 0.822789 4.25926 0
M  V30 7443 H 694.035 -0.221699 5.51555 0
M  V30 7444 H 696.511 -1.33327 3.94161 0
M  V30 7445 H 695.387 -2.17373 5.04024 0
M  V30 7446 H 695.648 -2.80106 3.42042 0
M  V30 7447 N 694.707 -1.5719 -0.113559 0
M  V30 7448 C 695.953 -1.85412 -0.821597 0
M  V30 7449 C 696.286 -0.746722 -1.7927 0
M  V30 7450 O 695.561 0.246971 -1.92926 0
M  V30 7451 C 695.844 -3.24233 -1.56669 0
M  V30 7452 C 695.697 -4.45578 -0.614823 0
M  V30 7453 C 697.016 -3.60697 -2.52161 0
M  V30 7454 H 694.135 -0.674406 -0.29723 0
M  V30 7455 H 696.777 -1.89807 -0.085694 0
M  V30 7456 H 694.927 -3.20617 -2.19401 0
M  V30 7457 H 696.599 -4.613 0.00407137 0
M  V30 7458 H 694.842 -4.33738 0.0732332 0
M  V30 7459 H 695.513 -5.39395 -1.17292 0
M  V30 7460 H 697.989 -3.65139 -1.99532 0
M  V30 7461 H 696.865 -4.58798 -3.01323 0
M  V30 7462 H 697.126 -2.88403 -3.35076 0
M  V30 7463 N 696.185 0.383891 -1.52853 0
M  V30 7464 C 697.596 0.961591 -1.60032 0
M  V30 7465 C 697.947 1.90819 -0.456333 0
M  V30 7466 O 697.072 2.12288 0.419873 0
M  V30 7467 C 697.667 1.75078 -2.90057 0
M  V30 7468 C 696.226 2.2781 -2.99632 0
M  V30 7469 C 695.373 1.08512 -2.55187 0
M  V30 7470 H 698.324 0.163269 -1.57858 0
M  V30 7471 H 698.345 2.61046 -2.7683 0
M  V30 7472 H 697.857 1.06157 -3.73299 0
M  V30 7473 H 695.958 3.00028 -2.20939 0
M  V30 7474 H 696.071 2.56947 -4.0437 0
M  V30 7475 H 694.435 1.44667 -2.09627 0
M  V30 7476 H 695.218 0.41118 -3.40829 0
M  V30 7477 N 697.663 1.43903 0.642637 0
M  V30 7478 C 698.613 1.46321 1.74854 0
M  V30 7479 C 699.597 0.330361 1.57472 0
M  V30 7480 O 700.789 0.574881 1.67404 0
M  V30 7481 C 697.918 1.39919 3.13493 0
M  V30 7482 C 697.004 2.58274 3.36385 0
M  V30 7483 N 697.395 3.83578 3.29699 0
M  V30 7484 C 695.693 2.53224 3.67142 0
M  V30 7485 C 696.394 4.62375 3.52965 0
M  V30 7486 N 695.37 3.93269 3.75287 0
M  V30 7487 H 699.172 2.41062 1.68126 0
M  V30 7488 H 696.686 1.38704 0.844693 0
M  V30 7489 H 698.683 1.39735 3.92785 0
M  V30 7490 H 697.343 0.46207 3.21395 0
M  V30 7491 H 698.354 4.15713 3.08874 0
M  V30 7492 H 695.031 1.68252 3.82096 0
M  V30 7493 H 696.421 5.714 3.53485 0
M  V30 7494 N 699.141 -0.881989 1.30609 0
M  V30 7495 C 700.557 -1.16576 1.09005 0
M  V30 7496 C 700.757 -2.00961 -0.14727 0
M  V30 7497 O 699.813 -2.38117 -0.840036 0
M  V30 7498 C 701.126 -1.86954 2.35518 0
M  V30 7499 C 702.674 -1.99706 2.41011 0
M  V30 7500 C 703.149 -2.73497 3.67374 0
M  V30 7501 N 704.64 -2.8104 3.68199 0
M  V30 7502 C 705.375 -3.38718 4.62664 0
M  V30 7503 N 704.871 -3.97421 5.67475 0
M  V30 7504 N 706.664 -3.36561 4.50203 0
M  V30 7505 H 698.815 -0.319398 2.09985 0
M  V30 7506 H 701.078 -0.204058 0.925778 0
M  V30 7507 H 700.784 -1.32393 3.2583 0
M  V30 7508 H 700.658 -2.87317 2.44395 0
M  V30 7509 H 703.045 -2.53436 1.51176 0
M  V30 7510 H 703.126 -0.984218 2.36108 0
M  V30 7511 H 702.77 -2.20438 4.57569 0
M  V30 7512 H 702.7 -3.75163 3.6954 0
M  V30 7513 H 705.191 -2.39365 2.92426 0
M  V30 7514 H 705.504 -4.39507 6.35652 0
M  V30 7515 H 703.849 -3.95832 5.71264 0
M  V30 7516 H 707.04 -2.8993 3.67503 0
M  V30 7517 H 707.213 -3.81215 5.24003 0
M  V30 7518 N 700.619 -1.13374 -1.09472 0
M  V30 7519 C 701.567 -0.806105 -2.18185 0
M  V30 7520 C 702.561 0.21136 -1.68076 0
M  V30 7521 O 703.767 0.0685558 -1.79869 0
M  V30 7522 H 700.142 -0.242901 -0.71169 0
M  V30 7523 H 702.113 -1.73115 -2.43051 0
M  V30 7524 C 700.862 -0.287928 -3.46506 0
M  V30 7525 H 700.185 -1.06217 -3.85432 0
M  V30 7526 H 701.625 -0.0971054 -4.23889 0
M  V30 7527 C 700.084 0.986256 -3.22141 0
M  V30 7528 O 700.614 2.06217 -3.44728 0
M  V30 7529 N 698.82 0.917153 -2.75747 0
M  V30 7530 H 698.367 0.0414609 -2.57567 0
M  V30 7531 H 698.325 1.77029 -2.59823 0
M  V30 7532 N 702.098 1.27442 -0.927168 0
M  V30 7533 C 703.346 1.94007 -0.566203 0
M  V30 7534 C 703.667 1.7323 0.895345 0
M  V30 7535 O 702.937 1.07973 1.63459 0
M  V30 7536 H 701.517 0.717917 -0.206409 0
M  V30 7537 H 704.179 1.55161 -1.17945 0
M  V30 7538 H 703.275 3.02401 -0.772028 0
M  V30 7539 N 703.576 0.692616 1.41565 0
M  V30 7540 C 704.853 0.150496 1.9502 0
M  V30 7541 C 705.233 -1.33881 1.63215 0
M  V30 7542 O 704.581 -2.08378 0.937598 0
M  V30 7543 C 704.791 0.438636 3.46233 0
M  V30 7544 C 706.139 0.364777 4.2303 0
M  V30 7545 O 707.163 0.373383 3.54238 0
M  V30 7546 O 706.022 0.32234 5.45549 0
M  V30 7547 H 703.116 0.0132454 0.826894 0
M  V30 7548 H 705.662 0.768574 1.51298 0
M  V30 7549 H 704.434 1.46962 3.62654 0
M  V30 7550 H 704.057 -0.210562 3.97042 0
M  V30 7551 N 705.054 -1.51416 0.437162 0
M  V30 7552 C 706.017 -2.26312 -0.362729 0
M  V30 7553 C 707.017 -1.29748 -0.949847 0
M  V30 7554 O 708.207 -1.53462 -0.824325 0
M  V30 7555 C 705.339 -3.05475 -1.5132 0
M  V30 7556 H 706.532 -2.98459 0.29365 0
M  V30 7557 H 704.085 -1.55137 0.190327 0
M  V30 7558 H 704.82 -2.37744 -2.20563 0
M  V30 7559 H 704.605 -3.76401 -1.09838 0
M  V30 7560 H 706.095 -3.62209 -2.07833 0
M  V30 7561 N 706.532 -0.168513 -1.56696 0
M  V30 7562 C 707.464 0.794249 -2.14998 0
M  V30 7563 C 708.477 1.1957 -1.10485 0
M  V30 7564 O 709.666 1.13604 -1.37682 0
M  V30 7565 C 706.766 2.08018 -2.67547 0
M  V30 7566 C 705.939 1.84274 -3.96689 0
M  V30 7567 C 704.998 2.97059 -4.3433 0
M  V30 7568 O 704.024 2.67815 -5.02259 0
M  V30 7569 N 705.226 4.24775 -3.9566 0
M  V30 7570 H 707.991 0.295832 -2.98236 0
M  V30 7571 H 705.552 0.0143611 -1.61894 0
M  V30 7572 H 707.544 2.82559 -2.89729 0
M  V30 7573 H 706.114 2.49059 -1.88914 0
M  V30 7574 H 705.334 0.936528 -3.82914 0
M  V30 7575 H 706.622 1.65773 -4.81037 0
M  V30 7576 H 706.02 4.51395 -3.40968 0
M  V30 7577 H 704.577 4.96027 -4.22848 0
M  V30 7578 N 708.01 1.57248 0.105221 0
M  V30 7579 C 708.94 2.04374 1.12931 0
M  V30 7580 C 709.921 0.93074 1.42377 0
M  V30 7581 O 711.106 1.20136 1.52581 0
M  V30 7582 C 708.236 2.45967 2.45189 0
M  V30 7583 C 707.19 3.60838 2.30174 0
M  V30 7584 C 706.516 3.88374 3.67518 0
M  V30 7585 C 707.816 4.92084 1.75073 0
M  V30 7586 H 709.51 2.9018 0.737287 0
M  V30 7587 H 707.056 1.39601 0.353211 0
M  V30 7588 H 709.009 2.77542 3.17094 0
M  V30 7589 H 707.733 1.57148 2.86308 0
M  V30 7590 H 706.392 3.29493 1.60716 0
M  V30 7591 H 706.04 2.96739 4.06147 0
M  V30 7592 H 705.74 4.65703 3.58321 0
M  V30 7593 H 707.264 4.22415 4.40906 0
M  V30 7594 H 708.678 5.22106 2.36809 0
M  V30 7595 H 707.075 5.73507 1.76662 0
M  V30 7596 H 708.145 4.79684 0.709347 0
M  V30 7597 N 709.488 -0.375779 1.53054 0
M  V30 7598 C 710.713 -1.14484 1.7294 0
M  V30 7599 C 711.138 -1.82572 0.452668 0
M  V30 7600 O 710.496 -1.71343 -0.592567 0
M  V30 7601 C 710.544 -2.15857 2.88857 0
M  V30 7602 O 709.648 -3.22725 2.56753 0
M  V30 7603 H 708.989 -0.332666 0.574656 0
M  V30 7604 H 711.519 -0.436025 1.999 0
M  V30 7605 H 711.529 -2.59631 3.14731 0
M  V30 7606 H 710.204 -1.65689 3.81471 0
M  V30 7607 H 708.781 -2.83996 2.41663 0
M  V30 7608 N 710.966 -1.44241 -0.634997 0
M  V30 7609 C 712.243 -1.37296 -1.39317 0
M  V30 7610 C 712.623 -0.0297532 -2.11079 0
M  V30 7611 O 711.971 0.987524 -2.06059 0
M  V30 7612 C 712.181 -2.56853 -2.36279 0
M  V30 7613 C 713.529 -3.00747 -2.99728 0
M  V30 7614 O 714.553 -2.5703 -2.46605 0
M  V30 7615 O 713.412 -3.76533 -3.96087 0
M  V30 7616 H 710.506 -0.543503 -0.623325 0
M  V30 7617 H 713.052 -1.56324 -0.660376 0
M  V30 7618 H 711.824 -3.46228 -1.82324 0
M  V30 7619 H 711.447 -2.40019 -3.16981 0
M  V30 7620 N 712.444 0.87505 -1.31075 0
M  V30 7621 C 713.86 1.15997 -1.09622 0
M  V30 7622 C 714.06 2.01036 0.136611 0
M  V30 7623 O 713.116 2.38559 0.827397 0
M  V30 7624 C 714.429 1.85702 -2.36506 0
M  V30 7625 C 715.977 1.98425 -2.42067 0
M  V30 7626 C 716.452 2.71544 -3.68819 0
M  V30 7627 N 717.943 2.79084 -3.69684 0
M  V30 7628 C 718.678 3.36259 -4.64454 0
M  V30 7629 N 718.174 3.94406 -5.69575 0
M  V30 7630 N 719.967 3.34169 -4.51982 0
M  V30 7631 H 712.118 0.308258 -2.10151 0
M  V30 7632 H 714.381 0.199145 -0.926847 0
M  V30 7633 H 714.087 1.30663 -3.26527 0
M  V30 7634 H 713.961 2.86017 -2.45915 0
M  V30 7635 H 716.348 2.5263 -1.52518 0
M  V30 7636 H 716.429 0.971682 -2.36626 0
M  V30 7637 H 716.073 2.18008 -4.58732 0
M  V30 7638 H 716.003 3.73198 -3.71525 0
M  V30 7639 H 718.494 2.3781 -2.93691 0
M  V30 7640 H 718.807 4.36129 -6.37974 0
M  V30 7641 H 717.152 3.92797 -5.73355 0
M  V30 7642 H 720.343 2.87977 -3.69035 0
M  V30 7643 H 720.516 3.78431 -5.26017 0
M  V30 7644 N 713.922 1.13953 1.08869 0
M  V30 7645 C 714.869 0.82213 2.15661 0
M  V30 7646 C 715.839 -0.218274 1.6466 0
M  V30 7647 O 717.024 -0.0892475 1.90591 0
M  V30 7648 C 714.164 0.300572 3.43789 0
M  V30 7649 C 713.277 1.40071 4.08661 0
M  V30 7650 C 712.412 0.836897 5.24566 0
M  V30 7651 C 711.451 1.91504 5.81371 0
M  V30 7652 N 710.588 1.36875 6.88629 0
M  V30 7653 H 715.428 1.73683 2.42153 0
M  V30 7654 H 712.965 0.866879 1.18843 0
M  V30 7655 H 714.923 -0.0199943 4.17195 0
M  V30 7656 H 713.553 -0.577248 3.17597 0
M  V30 7657 H 712.605 1.83776 3.33062 0
M  V30 7658 H 713.917 2.21534 4.46905 0
M  V30 7659 H 713.071 0.467953 6.04893 0
M  V30 7660 H 711.81 -0.00874207 4.87699 0
M  V30 7661 H 710.815 2.29299 4.99702 0
M  V30 7662 H 712.04 2.76419 6.20298 0
M  V30 7663 H 709.986 0.545211 6.5373 0
M  V30 7664 H 709.903 2.1198 7.25672 0
M  V30 7665 H 711.171 1.02756 7.72698 0
M  V30 7666 N 715.4 -1.26948 0.933913 0
M  V30 7667 C 716.646 -1.94374 0.57848 0
M  V30 7668 C 716.979 -1.73166 -0.879048 0
M  V30 7669 O 716.254 -1.06438 -1.62792 0
M  V30 7670 C 716.537 -3.4834 0.912739 0
M  V30 7671 C 716.39 -3.78866 2.42448 0
M  V30 7672 C 717.709 -4.38062 0.423003 0
M  V30 7673 H 714.828 -0.705959 0.211639 0
M  V30 7674 H 717.47 -1.49951 1.16682 0
M  V30 7675 H 715.62 -3.86309 0.412058 0
M  V30 7676 H 717.292 -3.50654 2.99733 0
M  V30 7677 H 715.535 -3.25198 2.87104 0
M  V30 7678 H 716.206 -4.86458 2.60887 0
M  V30 7679 H 718.682 -4.0728 0.852191 0
M  V30 7680 H 717.558 -5.44599 0.685776 0
M  V30 7681 H 717.819 -4.36886 -0.676994 0
M  V30 7682 N 716.879 -0.700114 -1.41195 0
M  V30 7683 C 718.104 -0.240704 -2.05998 0
M  V30 7684 C 718.529 1.10313 -1.52357 0
M  V30 7685 O 717.887 1.69154 -0.652424 0
M  V30 7686 C 717.935 -0.213783 -3.59966 0
M  V30 7687 O 717.039 0.809933 -4.04368 0
M  V30 7688 H 716.38 -0.116471 -0.653705 0
M  V30 7689 H 718.91 -0.956251 -1.80878 0
M  V30 7690 H 718.92 -0.0461852 -4.07974 0
M  V30 7691 H 717.595 -1.19454 -3.98376 0
M  V30 7692 H 716.172 0.611319 -3.67855 0
M  V30 7693 N 718.357 1.51182 -0.445186 0
M  V30 7694 C 719.32 2.26501 0.350722 0
M  V30 7695 C 720.32 1.3025 0.942952 0
M  V30 7696 O 721.51 1.53897 0.816175 0
M  V30 7697 C 718.642 3.06274 1.49697 0
M  V30 7698 H 719.835 2.98299 -0.309474 0
M  V30 7699 H 717.388 1.55034 -0.198551 0
M  V30 7700 H 718.123 2.38911 2.19299 0
M  V30 7701 H 717.908 3.76979 1.0784 0
M  V30 7702 H 719.398 3.63306 2.05909 0
M  V30 7703 N 719.835 0.176821 1.56605 0
M  V30 7704 C 721.063 -0.472828 2.01425 0
M  V30 7705 C 721.478 -1.56436 1.05703 0
M  V30 7706 O 720.835 -1.82405 0.058808 0
M  V30 7707 C 720.886 -1.04607 3.46034 0
M  V30 7708 O 720.607 0.00189608 4.381 0
M  V30 7709 C 722.108 -1.7734 4.06282 0
M  V30 7710 H 719.328 -0.120503 0.660091 0
M  V30 7711 H 721.872 0.280166 2.02572 0
M  V30 7712 H 720.027 -1.74953 3.45645 0
M  V30 7713 H 720.441 -0.422118 5.22799 0
M  V30 7714 H 721.915 -2.12703 5.09374 0
M  V30 7715 H 722.392 -2.67043 3.4869 0
M  V30 7716 H 722.998 -1.11623 4.10391 0
M  V30 7717 N 721.313 -1.57302 -0.09688 0
M  V30 7718 C 722.243 -2.0497 -1.11846 0
M  V30 7719 C 723.224 -0.938278 -1.41882 0
M  V30 7720 O 724.409 -1.20943 -1.51942 0
M  V30 7721 C 721.539 -2.47264 -2.43881 0
M  V30 7722 C 720.493 -3.62053 -2.28257 0
M  V30 7723 C 719.819 -3.90318 -3.65453 0
M  V30 7724 C 721.119 -4.93005 -1.72461 0
M  V30 7725 H 722.813 -2.90567 -0.721888 0
M  V30 7726 H 720.359 -1.39786 -0.345803 0
M  V30 7727 H 722.312 -2.7922 -3.15617 0
M  V30 7728 H 721.036 -1.58664 -2.8547 0
M  V30 7729 H 719.695 -3.30341 -1.58967 0
M  V30 7730 H 719.343 -2.98889 -4.04567 0
M  V30 7731 H 719.043 -4.67597 -3.55846 0
M  V30 7732 H 720.567 -4.24747 -4.3866 0
M  V30 7733 H 721.981 -5.23354 -2.34036 0
M  V30 7734 H 720.378 -5.74436 -1.73618 0
M  V30 7735 H 721.448 -4.80053 -0.683898 0
M  V30 7736 N 722.791 0.367657 -1.53252 0
M  V30 7737 C 724.202 0.944563 -1.61043 0
M  V30 7738 C 724.553 1.90325 -0.476546 0
M  V30 7739 O 723.678 2.12721 0.397333 0
M  V30 7740 C 724.273 1.71992 -2.91898 0
M  V30 7741 C 722.832 2.2462 -3.02031 0
M  V30 7742 C 721.979 1.05799 -2.56324 0
M  V30 7743 H 724.93 0.146516 -1.58022 0
M  V30 7744 H 724.951 2.58095 -2.79584 0
M  V30 7745 H 724.463 1.02192 -3.74404 0
M  V30 7746 H 722.564 2.97668 -2.24108 0
M  V30 7747 H 722.677 2.52644 -4.07073 0
M  V30 7748 H 721.041 1.42435 -2.1115 0
M  V30 7749 H 721.824 0.375008 -3.41246 0
M  V30 7750 N 724.269 1.44576 0.627338 0
M  V30 7751 C 725.216 1.51734 1.73912 0
M  V30 7752 C 726.186 0.364745 1.62046 0
M  V30 7753 O 727.371 0.575503 1.81914 0
M  V30 7754 C 724.511 1.47116 3.12171 0
M  V30 7755 C 723.624 2.72778 3.34986 0
M  V30 7756 C 722.759 2.59968 4.63239 0
M  V30 7757 C 721.798 3.80776 4.79245 0
M  V30 7758 N 720.935 3.66618 5.98778 0
M  V30 7759 H 725.775 2.46722 1.6713 0
M  V30 7760 H 723.312 1.22444 0.815224 0
M  V30 7761 H 725.27 1.42429 3.92135 0
M  V30 7762 H 723.9 0.556928 3.17959 0
M  V30 7763 H 722.952 2.87637 2.48936 0
M  V30 7764 H 724.264 3.62441 3.42692 0
M  V30 7765 H 723.418 2.53135 5.51369 0
M  V30 7766 H 722.157 1.67872 4.57898 0
M  V30 7767 H 721.162 3.87989 3.89544 0
M  V30 7768 H 722.387 4.73913 4.86398 0
M  V30 7769 H 720.333 2.77277 5.9452 0
M  V30 7770 H 720.25 4.499 6.07557 0
M  V30 7771 H 721.518 3.63684 6.89459 0
M  V30 7772 N 725.747 -0.868086 1.31537 0
M  V30 7773 C 726.677 -1.99131 1.21939 0
M  V30 7774 C 727.658 -1.69768 0.106166 0
M  V30 7775 O 728.843 -1.92006 0.291081 0
M  V30 7776 C 725.973 -3.34676 0.927879 0
M  V30 7777 C 724.927 -3.7835 2.00088 0
M  V30 7778 C 724.253 -5.11375 1.56203 0
M  V30 7779 C 725.553 -3.95256 3.41424 0
M  V30 7780 H 727.247 -2.07419 2.15911 0
M  V30 7781 H 724.793 -0.996569 1.03945 0
M  V30 7782 H 726.746 -4.12793 0.847327 0
M  V30 7783 H 725.47 -3.26565 -0.0475042 0
M  V30 7784 H 724.129 -3.02474 2.07135 0
M  V30 7785 H 723.777 -4.99709 0.57445 0
M  V30 7786 H 723.477 -5.41568 2.27985 0
M  V30 7787 H 725.001 -5.92001 1.49558 0
M  V30 7788 H 726.415 -4.63764 3.3704 0
M  V30 7789 H 724.812 -4.36849 4.1144 0
M  V30 7790 H 725.882 -2.98579 3.82072 0
M  V30 7791 N 727.225 -1.14528 -1.08264 0
M  V30 7792 C 728.45 -0.938381 -1.84957 0
M  V30 7793 C 728.875 0.508044 -1.81109 0
M  V30 7794 O 728.233 1.36146 -1.19724 0
M  V30 7795 C 728.281 -1.44568 -3.30352 0
M  V30 7796 O 727.385 -0.638745 -4.07423 0
M  V30 7797 H 726.726 -0.335394 -0.573068 0
M  V30 7798 H 729.256 -1.52287 -1.36637 0
M  V30 7799 H 729.266 -1.45449 -3.81194 0
M  V30 7800 H 727.941 -2.49876 -3.32468 0
M  V30 7801 H 726.518 -0.698801 -3.66294 0
M  V30 7802 N 728.703 1.26451 -0.940633 0
M  V30 7803 C 729.949 1.94401 -0.598303 0
M  V30 7804 C 730.304 1.72449 0.853178 0
M  V30 7805 O 729.597 1.0506 1.60228 0
M  V30 7806 C 729.791 3.46503 -0.875794 0
M  V30 7807 C 729.62 3.83247 -2.3527 0
M  V30 7808 C 728.39 4.06032 -3.00776 0
M  V30 7809 C 730.588 3.91841 -3.33114 0
M  V30 7810 N 728.57 4.29656 -4.38485 0
M  V30 7811 C 729.941 4.19991 -4.56078 0
M  V30 7812 C 731.996 3.74466 -3.28146 0
M  V30 7813 C 730.699 4.32574 -5.74693 0
M  V30 7814 C 732.725 3.88281 -4.46085 0
M  V30 7815 C 732.087 4.16829 -5.67831 0
M  V30 7816 H 728.186 0.734168 -0.269297 0
M  V30 7817 H 730.77 1.52541 -1.20992 0
M  V30 7818 H 728.941 3.87292 -0.293223 0
M  V30 7819 H 730.673 4.01664 -0.494788 0
M  V30 7820 H 727.428 4.01369 -2.51396 0
M  V30 7821 H 727.852 4.45501 -5.09762 0
M  V30 7822 H 732.494 3.51424 -2.35077 0
M  V30 7823 H 730.212 4.54438 -6.68215 0
M  V30 7824 H 733.798 3.76241 -4.43773 0
M  V30 7825 H 732.678 4.27284 -6.5757 0
M  V30 7826 N 730.181 0.707592 1.40822 0
M  V30 7827 C 731.129 0.0386643 2.32568 0
M  V30 7828 C 732.123 -0.755653 1.51612 0
M  V30 7829 O 733.329 -0.659921 1.67467 0
M  V30 7830 H 729.704 -0.00629912 0.751974 0
M  V30 7831 H 731.675 0.8293 2.86645 0
M  V30 7832 C 730.424 -0.87496 3.36511 0
M  V30 7833 H 729.747 -0.273157 3.98866 0
M  V30 7834 H 731.187 -1.31111 4.03219 0
M  V30 7835 C 729.646 -1.99672 2.71353 0
M  V30 7836 O 730.176 -3.08676 2.57064 0
M  V30 7837 N 728.382 -1.77799 2.29861 0
M  V30 7838 H 727.929 -0.89147 2.41683 0
M  V30 7839 H 727.887 -2.53036 1.86601 0
M  V30 7840 N 731.66 -1.50943 0.453197 0
M  V30 7841 C 732.906 -2.02512 -0.108082 0
M  V30 7842 C 733.239 -1.33574 -1.40967 0
M  V30 7843 O 732.514 -0.455671 -1.89087 0
M  V30 7844 C 732.797 -3.58759 -0.310453 0
M  V30 7845 C 732.65 -4.38293 1.0109 0
M  V30 7846 C 733.969 -4.26816 -1.07313 0
M  V30 7847 H 731.088 -0.73603 -0.0378064 0
M  V30 7848 H 733.73 -1.80433 0.595295 0
M  V30 7849 H 731.88 -3.77702 -0.909582 0
M  V30 7850 H 733.552 -4.30964 1.64523 0
M  V30 7851 H 731.795 -4.02745 1.61179 0
M  V30 7852 H 732.466 -5.45828 0.82315 0
M  V30 7853 H 734.942 -4.1224 -0.565473 0
M  V30 7854 H 733.818 -5.35989 -1.1835 0
M  V30 7855 H 734.079 -3.88757 -2.10525 0
M  V30 7856 N 733.138 -0.185124 -1.56509 0
M  V30 7857 C 734.387 0.456421 -1.96468 0
M  V30 7858 C 734.7 1.63448 -1.07444 0
M  V30 7859 O 735.906 2.34316 -1.37143 0
M  V30 7860 C 734.362 0.863404 -3.4939 0
M  V30 7861 C 733.97 -0.289815 -4.47062 0
M  V30 7862 C 735.714 1.47259 -3.98139 0
M  V30 7863 C 733.621 0.137571 -5.9124 0
M  V30 7864 H 732.551 0.17429 -0.733579 0
M  V30 7865 H 735.202 -0.275554 -1.81419 0
M  V30 7866 H 733.584 1.65176 -3.59907 0
M  V30 7867 H 734.758 -1.06728 -4.4827 0
M  V30 7868 H 733.073 -0.809851 -4.08449 0
M  V30 7869 H 735.67 1.80463 -5.03326 0
M  V30 7870 H 736.013 2.3755 -3.41871 0
M  V30 7871 H 736.546 0.748405 -3.90696 0
M  V30 7872 H 733.285 -0.730907 -6.51412 0
M  V30 7873 H 732.805 0.8801 -5.93308 0
M  V30 7874 H 734.484 0.576771 -6.44424 0
M  V30 7875 N 734.616 1.57351 0.0885366 0
M  V30 7876 C 736.032 1.53331 0.442916 0
M  V30 7877 C 736.232 0.902831 1.80142 0
M  V30 7878 O 735.288 0.498147 2.47537 0
M  V30 7879 C 736.601 2.98036 0.399372 0
M  V30 7880 C 738.149 3.09286 0.480759 0
M  V30 7881 C 738.624 4.5561 0.467296 0
M  V30 7882 N 740.115 4.60182 0.52786 0
M  V30 7883 C 740.85 5.70857 0.539388 0
M  V30 7884 N 740.346 6.90944 0.506729 0
M  V30 7885 N 742.139 5.59051 0.584691 0
M  V30 7886 H 734.29 1.96709 -0.801215 0
M  V30 7887 H 736.553 0.899639 -0.298922 0
M  V30 7888 H 736.259 3.47656 -0.531806 0
M  V30 7889 H 736.133 3.57066 1.21589 0
M  V30 7890 H 738.52 2.5965 1.40236 0
M  V30 7891 H 738.601 2.53197 -0.364023 0
M  V30 7892 H 738.245 5.05899 -0.450384 0
M  V30 7893 H 738.175 5.09544 1.32938 0
M  V30 7894 H 740.666 3.73757 0.558028 0
M  V30 7895 H 740.979 7.71055 0.518989 0
M  V30 7896 H 739.324 6.93384 0.473675 0
M  V30 7897 H 742.515 4.64138 0.607781 0
M  V30 7898 H 742.688 6.45307 0.590206 0
M  V30 7899 N 736.094 -0.359525 1.53444 0
M  V30 7900 C 737.024 -1.44662 1.8329 0
M  V30 7901 C 738.005 -1.55617 0.68683 0
M  V30 7902 O 739.19 -1.70086 0.93725 0
M  V30 7903 C 736.32 -2.81923 2.02822 0
M  V30 7904 C 735.274 -2.85787 3.18606 0
M  V30 7905 C 734.6 -4.25781 3.23442 0
M  V30 7906 C 735.9 -2.52762 4.57065 0
M  V30 7907 H 737.594 -1.19934 2.74329 0
M  V30 7908 H 735.14 -0.575517 1.31999 0
M  V30 7909 H 737.093 -3.58005 2.22285 0
M  V30 7910 H 735.817 -3.08051 1.085 0
M  V30 7911 H 734.476 -2.12157 2.98973 0
M  V30 7912 H 734.124 -4.48994 2.26745 0
M  V30 7913 H 733.824 -4.29281 4.01238 0
M  V30 7914 H 735.348 -5.03727 3.45096 0
M  V30 7915 H 736.762 -3.18557 4.76649 0
M  V30 7916 H 735.159 -2.67569 5.37147 0
M  V30 7917 H 736.229 -1.47993 4.61764 0
M  V30 7918 N 737.572 -1.44907 -0.619662 0
M  V30 7919 C 738.82 -1.47999 -1.37625 0
M  V30 7920 C 739.141 -0.118295 -1.94641 0
M  V30 7921 O 738.411 0.85086 -1.76457 0
M  V30 7922 H 736.991 -0.544993 -0.510873 0
M  V30 7923 H 739.653 -1.80772 -0.728522 0
M  V30 7924 H 738.749 -2.21196 -2.20179 0
M  V30 7925 N 739.05 0.861098 -1.31996 0
M  V30 7926 C 739.997 1.96912 -1.20392 0
M  V30 7927 C 740.967 1.65869 -0.0875899 0
M  V30 7928 O 742.152 1.88992 -0.262011 0
M  V30 7929 C 739.292 3.32435 -0.926335 0
M  V30 7930 C 738.405 3.76018 -2.12684 0
M  V30 7931 C 737.54 5.00301 -1.78529 0
M  V30 7932 C 736.579 5.36357 -2.94937 0
M  V30 7933 N 735.716 6.51818 -2.60917 0
M  V30 7934 H 740.556 2.06169 -2.1517 0
M  V30 7935 H 738.093 1.00917 -1.07024 0
M  V30 7936 H 740.051 4.10478 -0.745917 0
M  V30 7937 H 738.681 3.22796 -0.0153578 0
M  V30 7938 H 737.733 2.93683 -2.41774 0
M  V30 7939 H 739.045 3.98664 -2.99781 0
M  V30 7940 H 738.199 5.86034 -1.57001 0
M  V30 7941 H 736.938 4.79578 -0.886356 0
M  V30 7942 H 735.943 4.49139 -3.17103 0
M  V30 7943 H 737.168 5.59041 -3.85552 0
M  V30 7944 H 735.114 6.32624 -1.73558 0
M  V30 7945 H 735.031 6.7445 -3.41544 0
M  V30 7946 H 736.299 7.4072 -2.42804 0
M  V30 7947 N 740.528 1.15101 1.07655 0
M  V30 7948 C 741.944 0.893004 1.32279 0
M  V30 7949 C 742.144 -0.461701 1.96139 0
M  V30 7950 O 741.2 -1.20431 2.21929 0
M  V30 7951 C 742.513 2.03161 2.21689 0
M  V30 7952 C 744.061 2.06579 2.35147 0
M  V30 7953 C 744.536 3.19754 3.27905 0
M  V30 7954 N 746.027 3.19382 3.35484 0
M  V30 7955 C 746.762 4.03592 4.07309 0
M  V30 7956 N 746.258 4.97859 4.81776 0
M  V30 7957 N 748.051 3.91626 4.03219 0
M  V30 7958 H 740.202 2.02341 0.645886 0
M  V30 7959 H 742.465 0.882127 0.347211 0
M  V30 7960 H 742.171 3.00934 1.82021 0
M  V30 7961 H 742.045 1.96132 3.22199 0
M  V30 7962 H 744.432 1.09408 2.74069 0
M  V30 7963 H 744.513 2.17676 1.34353 0
M  V30 7964 H 744.157 4.17175 2.89702 0
M  V30 7965 H 744.087 3.05893 4.28645 0
M  V30 7966 H 746.578 2.51112 2.82403 0
M  V30 7967 H 746.891 5.58563 5.34067 0
M  V30 7968 H 745.236 5.0185 4.80803 0
M  V30 7969 H 748.427 3.17295 3.44154 0
M  V30 7970 H 748.6 4.57479 4.5893 0
M  V30 7971 O 742.045 -1.2028 1.07773 0
M  V30 7972 H 742.736 -1.77907 0.76608 0
M  V30 END ATOM
M  V30 BEGIN BOND
M  V30 END BOND
M  V30 END CTAB
M  END
$$$$
