drugbank_target|Q9Y296 Trafficking protein particle complex subunit 4 (DB08342)
 OpenBabel12092120503D

  0  0  0     0  0            999 V3000
M  V30 BEGIN CTAB
M  V30 COUNTS 3436 3472 0 0 0
M  V30 BEGIN ATOM
M  V30 1 H -0.908 1.98254 -0.117106 0
M  V30 2 N 0 1.576 0 0
M  V30 3 C 0.933 2.03868 1.02534 0
M  V30 4 C 1.911 0.928543 1.3348 0
M  V30 5 O 3.095 1.19667 1.45644 0
M  V30 6 C 0.222 2.43627 2.35294 0
M  V30 7 C -0.732 3.65373 2.2001 0
M  V30 8 S 0.101 5.13292 1.52614 0
M  V30 9 C 1.257 5.56322 2.86805 0
M  V30 10 H 1.49 2.90518 0.631377 0
M  V30 11 H -0.977 1.52953 0.210867 0
M  V30 12 H 0.981 2.67203 3.11629 0
M  V30 13 H -0.358 1.57376 2.7183 0
M  V30 14 H -1.165 3.90944 3.18086 0
M  V30 15 H -1.563 3.418 1.51819 0
M  V30 16 H 0.729 5.58782 3.83104 0
M  V30 17 H 1.672 6.56266 2.65933 0
M  V30 18 H 2.08 4.83886 2.90714 0
M  V30 19 N 1.4781 -0.272755 1.55222 0
M  V30 20 C 2.4411 -1.32041 1.87344 0
M  V30 21 C 3.4411 -1.42342 0.74803 0
M  V30 22 O 4.6311 -1.41488 1.0162 0
M  V30 23 C 1.7631 -2.70173 2.07893 0
M  V30 24 H 2.9561 -1.04789 2.80997 0
M  V30 25 H 0.5091 -0.51083 1.47717 0
M  V30 26 H 1.2441 -3.02605 1.16622 0
M  V30 27 H 1.0291 -2.64082 2.89833 0
M  V30 28 H 2.5191 -3.45869 2.34017 0
M  V30 29 N 2.9562 -1.48159 -0.537278 0
M  V30 30 C 4.2052 -1.5506 -1.28993 0
M  V30 31 C 4.5182 -0.226211 -1.94288 0
M  V30 32 O 5.7242 -0.173395 -2.70946 0
M  V30 33 C 4.1802 -2.73429 -2.34018 0
M  V30 34 C 3.7882 -4.1248 -1.74825 0
M  V30 35 C 5.5322 -2.89638 -3.10339 0
M  V30 36 C 3.4392 -5.22121 -2.77747 0
M  V30 37 H 2.3692 -0.577231 -0.485098 0
M  V30 38 H 5.0202 -1.74478 -0.568317 0
M  V30 39 H 3.4022 -2.47431 -3.09182 0
M  V30 40 H 4.5762 -4.48466 -1.05899 0
M  V30 41 H 2.8912 -4.01327 -1.11022 0
M  V30 42 H 5.4882 -3.68718 -3.87235 0
M  V30 43 H 5.8312 -1.9882 -3.65754 0
M  V30 44 H 6.3642 -3.15502 -2.42288 0
M  V30 45 H 3.1032 -6.1488 -2.27161 0
M  V30 46 H 2.6232 -4.90631 -3.45024 0
M  V30 47 H 4.3022 -5.49924 -3.4087 0
M  V30 48 N 4.4343 0.785586 -1.36625 0
M  V30 49 C 5.6813 1.54362 -1.31067 0
M  V30 50 C 6.0093 1.94195 0.10893 0
M  V30 51 O 5.2643 1.63262 1.07908 0
M  V30 52 C 5.5633 2.83007 -2.1827 0
M  V30 53 C 5.2293 2.62294 -3.6676 0
M  V30 54 C 3.8913 2.56353 -4.0723 0
M  V30 55 C 6.2433 2.43371 -4.6089 0
M  V30 56 C 3.5713 2.29461 -5.39967 0
M  V30 57 C 5.9233 2.18005 -5.93849 0
M  V30 58 C 4.5873 2.105 -6.3344 0
M  V30 59 H 3.8573 0.564851 -0.479609 0
M  V30 60 H 6.5043 0.906028 -1.68711 0
M  V30 61 H 4.8093 3.51253 -1.73576 0
M  V30 62 H 6.5063 3.40817 -2.11292 0
M  V30 63 H 3.0963 2.67774 -3.34656 0
M  V30 64 H 7.2803 2.46959 -4.30494 0
M  V30 65 H 2.5363 2.22135 -5.69619 0
M  V30 66 H 6.7103 2.02359 -6.66351 0
M  V30 67 H 4.3373 1.89425 -7.36222 0
M  V30 68 N 5.9124 1.20967 1.01018 0
M  V30 69 C 7.1374 1.0503 1.78839 0
M  V30 70 C 7.5624 -0.395752 1.8389 0
M  V30 71 O 6.9204 -1.28529 1.27867 0
M  V30 72 C 6.9684 1.64602 3.2084 0
M  V30 73 O 6.0724 0.887988 4.02726 0
M  V30 74 H 5.4134 0.369987 0.551367 0
M  V30 75 H 7.9434 1.60399 1.27018 0
M  V30 76 H 7.9534 1.68607 3.71532 0
M  V30 77 H 6.6284 2.69841 3.16479 0
M  V30 78 H 5.2054 0.922648 3.61305 0
M  V30 79 N 7.3905 -1.2043 1.01659 0
M  V30 80 C 8.6365 -1.90079 0.706963 0
M  V30 81 C 8.9695 -1.78648 -0.761474 0
M  V30 82 O 8.2445 -1.17069 -1.55323 0
M  V30 83 C 8.5275 -3.41469 1.14327 0
M  V30 84 C 8.3805 -3.61833 2.67201 0
M  V30 85 C 9.6995 -4.34261 0.714529 0
M  V30 86 H 6.8185 -0.690254 0.2583 0
M  V30 87 H 9.4605 -1.41826 1.26433 0
M  V30 88 H 7.6105 -3.82696 0.669056 0
M  V30 89 H 9.2825 -3.2986 3.22475 0
M  V30 90 H 7.5255 -3.05304 3.08175 0
M  V30 91 H 8.1965 -4.67955 2.92783 0
M  V30 92 H 10.6725 -4.00682 1.12221 0
M  V30 93 H 9.5485 -5.38806 1.04784 0
M  V30 94 H 9.8095 -4.40431 -0.383799 0
M  V30 95 N 8.8686 -0.792821 -1.36206 0
M  V30 96 C 10.0986 -0.378275 -2.03107 0
M  V30 97 C 10.5066 1.01119 -1.59911 0
M  V30 98 O 9.8496 1.66052 -0.785658 0
M  V30 99 C 9.9116 -0.366535 -3.57627 0
M  V30 100 C 9.5756 -1.70416 -4.24037 0
M  V30 101 C 10.5726 -2.6602 -4.46687 0
M  V30 102 C 8.2576 -1.98439 -4.6144 0
M  V30 103 C 10.2516 -3.8784 -5.05825 0
M  V30 104 C 7.9386 -3.20525 -5.20295 0
M  V30 105 C 8.9366 -4.15044 -5.42427 0
M  V30 106 O 8.6246 -5.34978 -6.00045 0
M  V30 107 H 8.3566 -0.153543 -0.658332 0
M  V30 108 H 10.9106 -1.07383 -1.75094 0
M  V30 109 H 9.1406 0.385539 -3.84773 0
M  V30 110 H 10.8296 0.0238088 -4.05893 0
M  V30 111 H 11.5956 -2.45658 -4.18183 0
M  V30 112 H 7.4746 -1.25686 -4.43536 0
M  V30 113 H 11.0186 -4.61628 -5.23015 0
M  V30 114 H 6.9156 -3.40764 -5.48225 0
M  V30 115 H 7.6836 -5.36088 -6.18508 0
M  V30 116 N 10.3467 1.47872 -0.545128 0
M  V30 117 C 11.5927 2.02793 -0.0166104 0
M  V30 118 C 11.9257 1.41987 1.32489 0
M  V30 119 O 11.2007 0.571045 1.85928 0
M  V30 120 C 11.4837 3.59989 0.0893294 0
M  V30 121 C 11.3367 4.3125 -1.27841 0
M  V30 122 C 12.6557 4.32606 0.808724 0
M  V30 123 H 9.7747 0.736962 -0.00751035 0
M  V30 124 H 12.4167 1.76433 -0.705085 0
M  V30 125 H 10.5667 3.82579 0.675681 0
M  V30 126 H 12.2387 4.20035 -1.90704 0
M  V30 127 H 10.4817 3.92076 -1.85632 0
M  V30 128 H 11.1527 5.39736 -1.15713 0
M  V30 129 H 13.6287 4.14936 0.310992 0
M  V30 130 H 12.5047 5.42251 0.851782 0
M  V30 131 H 12.7657 4.00963 1.86229 0
M  V30 132 N 11.8248 0.280983 1.55075 0
M  V30 133 C 13.0708 -0.33461 2.00021 0
M  V30 134 C 13.4038 -1.55063 1.16915 0
M  V30 135 O 12.6788 -1.93006 0.240646 0
M  V30 136 C 12.9618 -0.711007 3.53011 0
M  V30 137 C 12.8148 0.512766 4.46868 0
M  V30 138 C 14.1338 -1.54522 4.12081 0
M  V30 139 H 11.2528 -0.120147 0.727141 0
M  V30 140 H 13.8948 0.389097 1.85973 0
M  V30 141 H 12.0448 -1.32761 3.65112 0
M  V30 142 H 13.7168 1.15131 4.46702 0
M  V30 143 H 11.9598 1.14975 4.18286 0
M  V30 144 H 12.6308 0.205556 5.51617 0
M  V30 145 H 15.1068 -1.02442 4.03293 0
M  V30 146 H 13.9828 -1.77739 5.19327 0
M  V30 147 H 14.2438 -2.52813 3.62682 0
M  V30 148 N 13.3029 -1.57598 0.00835791 0
M  V30 149 C 14.2509 -2.10078 -0.998508 0
M  V30 150 C 15.2449 -1.02262 -1.35051 0
M  V30 151 O 16.4509 -1.20719 -1.33518 0
M  V30 152 H 12.8259 -0.670903 -0.339696 0
M  V30 153 H 14.7969 -2.93648 -0.530398 0
M  V30 154 C 13.5459 -2.62615 -2.27879 0
M  V30 155 H 12.8689 -3.45213 -2.01662 0
M  V30 156 H 14.3089 -3.03004 -2.96588 0
M  V30 157 C 12.7679 -1.54407 -2.99433 0
M  V30 158 O 13.2979 -0.931812 -3.90743 0
M  V30 159 N 11.5039 -1.2695 -2.61404 0
M  V30 160 H 11.0509 -1.76924 -1.87232 0
M  V30 161 H 11.0089 -0.547704 -3.09593 0
M  V30 162 N 14.781 0.264519 -1.55364 0
M  V30 163 C 15.728 1.32717 -1.88825 0
M  V30 164 C 16.698 1.48675 -0.740605 0
M  V30 165 O 17.883 1.62945 -0.992657 0
M  V30 166 C 15.023 2.68089 -2.17307 0
M  V30 167 C 14.136 2.60284 -3.44785 0
M  V30 168 C 13.271 3.87892 -3.62924 0
M  V30 169 C 12.31 3.74631 -4.84064 0
M  V30 170 N 11.447 4.94092 -4.98816 0
M  V30 171 H 16.287 1.03481 -2.79456 0
M  V30 172 H 13.824 0.499757 -1.3835 0
M  V30 173 H 15.782 3.46864 -2.31821 0
M  V30 174 H 14.412 2.95509 -1.299 0
M  V30 175 H 13.464 1.73173 -3.38697 0
M  V30 176 H 14.776 2.46388 -4.33698 0
M  V30 177 H 13.93 4.75109 -3.77302 0
M  V30 178 H 12.669 4.04664 -2.7221 0
M  V30 179 H 11.674 2.85797 -4.69681 0
M  V30 180 H 12.899 3.5937 -5.76221 0
M  V30 181 H 10.845 5.11259 -4.11036 0
M  V30 182 H 10.762 4.8276 -5.81789 0
M  V30 183 H 12.03 5.82857 -5.17588 0
M  V30 184 N 16.2591 1.48442 0.529413 0
M  V30 185 C 17.2221 1.62524 1.61612 0
M  V30 186 C 18.2221 0.498509 1.52877 0
M  V30 187 O 19.4121 0.76431 1.56537 0
M  V30 188 C 16.5441 1.59597 3.01233 0
M  V30 189 H 17.7371 2.59423 1.50465 0
M  V30 190 H 15.2901 1.37047 0.751514 0
M  V30 191 H 16.0251 0.641781 3.17886 0
M  V30 192 H 15.8101 2.41397 3.08982 0
M  V30 193 H 17.3001 1.72646 3.80241 0
M  V30 194 N 17.7372 -0.778329 1.37039 0
M  V30 195 C 18.9852 -1.53361 1.31623 0
M  V30 196 C 19.3062 -1.94739 -0.100831 0
M  V30 197 O 18.5762 -1.65797 -1.04347 0
M  V30 198 H 17.1562 -0.568794 0.484234 0
M  V30 199 H 19.8182 -0.926742 1.71457 0
M  V30 200 H 18.9142 -2.43606 1.95096 0
M  V30 201 N 19.2153 -1.21501 -1.00376 0
M  V30 202 C 20.4633 -1.03095 -1.73827 0
M  V30 203 C 20.7843 0.436341 -1.90055 0
M  V30 204 O 20.0543 1.31466 -1.45236 0
M  V30 205 H 18.6343 -0.378487 -0.644016 0
M  V30 206 H 21.2963 -1.52831 -1.20949 0
M  V30 207 H 20.3923 -1.49991 -2.73695 0
M  V30 208 N 20.6934 1.19889 -1.02296 0
M  V30 209 C 21.6234 2.25141 -0.619174 0
M  V30 210 C 22.6044 1.66051 0.368915 0
M  V30 211 O 23.7894 1.92546 0.252941 0
M  V30 212 C 20.9194 3.4728 0.0368783 0
M  V30 213 C 19.8734 4.19005 -0.872865 0
M  V30 214 C 19.1994 5.34637 -0.0822402 0
M  V30 215 C 20.4994 4.74452 -2.18387 0
M  V30 216 H 22.1934 2.59171 -1.49903 0
M  V30 217 H 19.7394 1.24579 -0.722222 0
M  V30 218 H 21.6924 4.20098 0.330958 0
M  V30 219 H 20.4164 3.12433 0.95149 0
M  V30 220 H 19.0754 3.48061 -1.15105 0
M  V30 221 H 18.7234 4.96034 0.83422 0
M  V30 222 H 18.4234 5.83557 -0.688149 0
M  V30 223 H 19.9474 6.10255 0.205238 0
M  V30 224 H 21.3614 5.39055 -1.95172 0
M  V30 225 H 19.7584 5.33834 -2.74119 0
M  V30 226 H 20.8284 3.92844 -2.84257 0
M  V30 227 N 22.1715 0.800033 1.35784 0
M  V30 228 C 23.4205 0.37387 1.98205 0
M  V30 229 C 23.7335 -1.06302 1.64193 0
M  V30 230 O 24.9395 -1.59198 2.19928 0
M  V30 231 C 23.3955 0.617532 3.54562 0
M  V30 232 C 23.0035 2.06654 3.9749 0
M  V30 233 C 24.7475 0.256401 4.23725 0
M  V30 234 C 22.6545 2.2563 5.46667 0
M  V30 235 H 21.5845 0.136055 0.741623 0
M  V30 236 H 24.2355 0.983166 1.54939 0
M  V30 237 H 22.6175 -0.0616248 3.95952 0
M  V30 238 H 23.7915 2.78296 3.67271 0
M  V30 239 H 22.1065 2.38691 3.41197 0
M  V30 240 H 24.7035 0.376318 5.33374 0
M  V30 241 H 25.0465 -0.796692 4.08606 0
M  V30 242 H 25.5795 0.889214 3.87734 0
M  V30 243 H 22.3185 3.2936 5.66747 0
M  V30 244 H 21.8385 1.58504 5.78478 0
M  V30 245 H 23.5175 2.06861 6.1304 0
M  V30 246 N 23.6496 -1.47581 0.552962 0
M  V30 247 C 24.8796 -2.06575 0.0320091 0
M  V30 248 C 25.2876 -1.4067 -1.26525 0
M  V30 249 O 24.6306 -0.495808 -1.76883 0
M  V30 250 C 24.6926 -3.58705 -0.238913 0
M  V30 251 C 24.3566 -4.46625 0.968272 0
M  V30 252 C 25.3536 -4.85 1.87274 0
M  V30 253 C 23.0386 -4.88201 1.18175 0
M  V30 254 C 25.0326 -5.63745 2.9744 0
M  V30 255 C 22.7196 -5.66712 2.28651 0
M  V30 256 C 23.7176 -6.04394 3.18114 0
M  V30 257 O 23.4056 -6.81324 4.26676 0
M  V30 258 H 23.1376 -0.674763 0.0408689 0
M  V30 259 H 25.6916 -1.90634 0.764719 0
M  V30 260 H 23.9216 -3.72844 -1.02588 0
M  V30 261 H 25.6106 -3.99735 -0.704731 0
M  V30 262 H 26.3766 -4.53482 1.71984 0
M  V30 263 H 22.2556 -4.58339 0.494593 0
M  V30 264 H 25.7996 -5.93077 3.67296 0
M  V30 265 H 21.6966 -5.97642 2.43915 0
M  V30 266 H 22.4646 -6.99712 4.24671 0
M  V30 267 N 25.1277 -0.289203 -1.54924 0
M  V30 268 C 26.0597 0.625583 -2.20497 0
M  V30 269 C 27.0727 1.10667 -1.19402 0
M  V30 270 O 28.2617 1.02615 -1.46056 0
M  V30 271 C 25.3617 1.86702 -2.82835 0
M  V30 272 C 24.5347 1.5304 -4.09753 0
M  V30 273 C 23.5937 2.62576 -4.56005 0
M  V30 274 O 22.6197 2.28167 -5.21468 0
M  V30 275 N 23.8217 3.92901 -4.27328 0
M  V30 276 H 26.5867 0.0642801 -2.99631 0
M  V30 277 H 24.1477 -0.110896 -1.6152 0
M  V30 278 H 26.1397 2.59304 -3.10715 0
M  V30 279 H 24.7097 2.33702 -2.07611 0
M  V30 280 H 23.9297 0.637564 -3.8901 0
M  V30 281 H 25.2177 1.28072 -4.92418 0
M  V30 282 H 24.6157 4.23671 -3.74859 0
M  V30 283 H 23.1727 4.61837 -4.59946 0
M  V30 284 N 26.6058 1.57591 -0.0167156 0
M  V30 285 C 27.5358 2.12496 0.967858 0
M  V30 286 C 28.5168 1.03807 1.34752 0
M  V30 287 O 29.7018 1.31577 1.42833 0
M  V30 288 C 26.8318 2.64194 2.25431 0
M  V30 289 C 25.7858 3.77559 2.01576 0
M  V30 290 C 25.1118 4.15636 3.36379 0
M  V30 291 C 26.4118 5.04151 1.36489 0
M  V30 292 H 28.1058 2.95013 0.510643 0
M  V30 293 H 25.6518 1.41915 0.244181 0
M  V30 294 H 27.6048 3.01236 2.94678 0
M  V30 295 H 26.3288 1.78821 2.73296 0
M  V30 296 H 24.9878 3.40937 1.34751 0
M  V30 297 H 24.6358 3.27263 3.81979 0
M  V30 298 H 24.3358 4.92022 3.21229 0
M  V30 299 H 25.8598 4.5525 4.06915 0
M  V30 300 H 27.2738 5.38857 1.95718 0
M  V30 301 H 25.6708 5.85453 1.31776 0
M  V30 302 H 26.7408 4.83733 0.336219 0
M  V30 303 N 28.0839 -0.256276 1.55502 0
M  V30 304 C 29.3609 -1.00789 1.67633 0
M  V30 305 C 29.7409 -2.03706 0.553826 0
M  V30 306 O 29.0889 -2.24145 -0.443969 0
M  V30 307 C 29.2989 -1.64968 3.07549 0
M  V30 308 C 30.6469 -2.15505 3.65845 0
M  V30 309 O 31.6709 -1.74925 3.1029 0
M  V30 310 O 30.5299 -2.89986 4.63217 0
M  V30 311 H 27.6239 -0.468553 0.681459 0
M  V30 312 H 30.1699 -0.250806 1.67836 0
M  V30 313 H 28.9419 -0.904785 3.80696 0
M  V30 314 H 28.5649 -2.47321 3.11317 0
M  V30 315 N 29.562 -1.4872 -0.521534 0
M  V30 316 C 30.787 -1.61101 -1.30618 0
M  V30 317 C 31.212 -0.274611 -1.86085 0
M  V30 318 O 30.57 0.754937 -1.64834 0
M  V30 319 C 30.618 -2.66709 -2.4269 0
M  V30 320 O 29.722 -2.24456 -3.45967 0
M  V30 321 H 29.063 -0.539921 -0.386499 0
M  V30 322 H 31.593 -1.94767 -0.626645 0
M  V30 323 H 31.603 -2.88245 -2.88754 0
M  V30 324 H 30.278 -3.63727 -2.01682 0
M  V30 325 H 28.855 -2.13168 -3.05964 0
M  V30 326 N 31.0401 0.771051 -1.3745 0
M  V30 327 C 32.2701 1.55789 -1.35696 0
M  V30 328 C 32.6781 1.89107 0.0594523 0
M  V30 329 O 32.0211 1.51984 1.03183 0
M  V30 330 C 32.0831 2.89515 -2.13123 0
M  V30 331 C 31.7471 2.78829 -3.62082 0
M  V30 332 C 32.7441 2.49812 -4.5595 0
M  V30 333 C 30.4291 2.9683 -4.05213 0
M  V30 334 C 32.4231 2.38923 -5.90927 0
M  V30 335 C 30.1101 2.85562 -5.40276 0
M  V30 336 C 31.1081 2.56649 -6.32946 0
M  V30 337 O 30.7961 2.45408 -7.65526 0
M  V30 338 H 30.5281 0.489257 -0.466481 0
M  V30 339 H 33.0821 0.963446 -1.81403 0
M  V30 340 H 31.3121 3.51081 -1.62107 0
M  V30 341 H 33.0011 3.50915 -2.03994 0
M  V30 342 H 33.7671 2.3559 -4.23937 0
M  V30 343 H 29.6461 3.18335 -3.33442 0
M  V30 344 H 33.1901 2.16277 -6.63227 0
M  V30 345 H 29.0871 2.99351 -5.71891 0
M  V30 346 H 29.8551 2.60753 -7.75855 0
M  V30 347 N 32.5182 1.22032 0.997298 0
M  V30 348 C 33.4812 0.987909 2.06816 0
M  V30 349 C 34.4812 -0.0440084 1.6074 0
M  V30 350 O 35.6712 0.194053 1.73116 0
M  V30 351 C 32.8032 0.49132 3.37341 0
M  V30 352 H 33.9962 1.93803 2.28868 0
M  V30 353 H 31.5492 1.03838 1.16822 0
M  V30 354 H 32.2842 -0.463364 3.20973 0
M  V30 355 H 32.0692 1.23575 3.72118 0
M  V30 356 H 33.5592 0.348824 4.16141 0
M  V30 357 N 33.9963 -1.19345 1.0293 0
M  V30 358 C 35.4073 -1.70725 0.755633 0
M  V30 359 C 35.7583 -1.82326 -0.724676 0
M  V30 360 O 34.8833 -1.49471 -1.56484 0
M  V30 361 C 35.4783 -3.10084 1.36503 0
M  V30 362 C 34.0373 -3.58723 1.13994 0
M  V30 363 C 33.1843 -2.35577 1.46283 0
M  V30 364 H 36.1353 -1.0418 1.19718 0
M  V30 365 H 36.1563 -3.72787 0.762217 0
M  V30 366 H 35.6683 -3.01609 2.44241 0
M  V30 367 H 33.7693 -3.72512 0.0807901 0
M  V30 368 H 33.8823 -4.42816 1.82894 0
M  V30 369 H 32.2463 -2.38935 0.88217 0
M  V30 370 H 33.0293 -2.29731 2.55105 0
M  V30 371 N 35.4744 -0.807222 -1.35358 0
M  V30 372 C 36.8904 -0.491038 -1.51858 0
M  V30 373 C 37.0904 0.987648 -1.75635 0
M  V30 374 O 36.1464 1.77265 -1.79815 0
M  V30 375 C 37.4594 -1.33695 -2.69344 0
M  V30 376 C 39.0074 -1.33246 -2.83222 0
M  V30 377 C 39.4824 -2.1625 -4.03733 0
M  V30 378 N 40.9734 -2.1379 -4.10911 0
M  V30 379 C 41.7084 -2.74772 -5.03277 0
M  V30 380 N 41.2044 -3.44684 -6.0097 0
M  V30 381 N 42.9974 -2.6441 -4.96028 0
M  V30 382 H 35.1484 -1.76485 -1.18181 0
M  V30 383 H 37.4114 -0.751199 -0.578276 0
M  V30 384 H 37.1174 -2.38634 -2.58354 0
M  V30 385 H 36.9914 -0.990618 -3.6396 0
M  V30 386 H 39.3784 -0.290911 -2.93663 0
M  V30 387 H 39.4594 -1.71866 -1.89461 0
M  V30 388 H 39.1034 -3.20445 -3.94052 0
M  V30 389 H 39.0334 -1.74989 -4.96675 0
M  V30 390 H 41.5244 -1.62923 -3.40976 0
M  V30 391 H 41.8374 -3.88501 -6.68047 0
M  V30 392 H 40.1824 -3.48788 -6.01142 0
M  V30 393 H 43.3734 -2.0938 -4.18662 0
M  V30 394 H 43.5464 -3.12225 -5.6782 0
M  V30 395 N 36.9525 1.47285 -0.560781 0
M  V30 396 C 37.9155 2.28535 0.174488 0
M  V30 397 C 38.9155 1.37153 0.839388 0
M  V30 398 O 40.1055 1.59748 0.694702 0
M  V30 399 C 37.2375 3.16934 1.25561 0
M  V30 400 H 38.4305 2.95012 -0.539262 0
M  V30 401 H 35.9835 1.53034 -0.317865 0
M  V30 402 H 36.7185 2.55157 2.00164 0
M  V30 403 H 36.5035 3.8419 0.783604 0
M  V30 404 H 37.9935 3.78143 1.77193 0
M  V30 405 N 38.4306 0.297415 1.54768 0
M  V30 406 C 39.3406 -0.58983 2.27064 0
M  V30 407 C 40.3566 -1.15144 1.30453 0
M  V30 408 O 41.5326 -1.17699 1.63428 0
M  V30 409 C 38.5976 -1.74714 2.9946 0
M  V30 410 C 37.6586 -1.21997 4.11601 0
M  V30 411 C 36.8916 -2.32212 4.80535 0
M  V30 412 O 37.1146 -3.52036 4.48806 0
M  V30 413 O 36.0486 -1.99106 5.68014 0
M  V30 414 H 39.8746 -0.00348199 3.037 0
M  V30 415 H 37.4596 0.0640035 1.49263 0
M  V30 416 H 39.3416 -2.42147 3.44881 0
M  V30 417 H 38.0166 -2.32016 2.25722 0
M  V30 418 H 36.9236 -0.511458 3.70587 0
M  V30 419 H 38.2566 -0.692419 4.87305 0
M  V30 420 N 39.9087 -1.5758 0.0250728 0
M  V30 421 C 40.8717 -2.08896 -0.943139 0
M  V30 422 C 41.8717 -1.00321 -1.25668 0
M  V30 423 O 43.0617 -1.26495 -1.19769 0
M  V30 424 C 40.1937 -2.55143 -2.26086 0
M  V30 425 H 41.3867 -2.95723 -0.498775 0
M  V30 426 H 38.9397 -1.54703 -0.222888 0
M  V30 427 H 39.6747 -1.71633 -2.75159 0
M  V30 428 H 39.4597 -3.34461 -2.04641 0
M  V30 429 H 40.9497 -2.95083 -2.95492 0
M  V30 430 N 41.3868 0.248026 -1.55636 0
M  V30 431 C 42.2968 1.32859 -1.93354 0
M  V30 432 C 43.3128 1.52719 -0.833838 0
M  V30 433 O 44.4888 1.66363 -1.13513 0
M  V30 434 C 41.5538 2.66337 -2.21958 0
M  V30 435 C 40.6148 2.55008 -3.45354 0
M  V30 436 C 39.8478 3.82121 -3.72584 0
M  V30 437 O 40.0708 4.83951 -3.01907 0
M  V30 438 O 39.0048 3.80822 -4.6611 0
M  V30 439 H 42.8308 1.03862 -2.85388 0
M  V30 440 H 40.4158 0.448686 -1.42503 0
M  V30 441 H 42.2978 3.45216 -2.4167 0
M  V30 442 H 40.9728 2.95068 -1.33103 0
M  V30 443 H 39.8798 1.7442 -3.30951 0
M  V30 444 H 41.2128 2.31222 -4.34508 0
M  V30 445 N 42.8649 1.48995 0.513639 0
M  V30 446 C 43.8119 1.6473 1.61656 0
M  V30 447 C 44.7819 0.488984 1.58739 0
M  V30 448 O 45.9669 0.714478 1.76918 0
M  V30 449 C 43.1069 1.7082 2.99858 0
M  V30 450 C 42.2199 2.9787 3.12885 0
M  V30 451 C 41.3549 2.95017 4.41744 0
M  V30 452 C 40.3939 4.16702 4.48359 0
M  V30 453 N 39.5309 4.11832 5.68629 0
M  V30 454 H 44.3709 2.58909 1.47547 0
M  V30 455 H 41.9079 1.28382 0.71808 0
M  V30 456 H 43.8659 1.72331 3.79944 0
M  V30 457 H 42.4959 0.801181 3.12699 0
M  V30 458 H 41.5479 3.06029 2.25944 0
M  V30 459 H 42.8599 3.8786 3.13633 0
M  V30 460 H 42.0139 2.95021 5.30139 0
M  V30 461 H 40.7529 2.02784 4.43542 0
M  V30 462 H 39.7579 4.16955 3.58369 0
M  V30 463 H 40.9829 5.10113 4.48287 0
M  V30 464 H 38.9289 3.22428 5.71293 0
M  V30 465 H 38.8459 4.95543 5.7094 0
M  V30 466 H 40.1139 4.1592 6.59266 0
M  V30 467 N 44.343 -0.763751 1.37857 0
M  V30 468 C 45.571 -1.55293 1.36718 0
M  V30 469 C 45.986 -1.88745 -0.0455434 0
M  V30 470 O 45.343 -1.52039 -1.00947 0
M  V30 471 C 45.394 -2.85831 2.2132 0
M  V30 472 O 45.115 -2.5381 3.57089 0
M  V30 473 C 46.616 -3.80023 2.28249 0
M  V30 474 H 43.836 -0.480841 0.468009 0
M  V30 475 H 46.38 -0.946009 1.81303 0
M  V30 476 H 44.535 -3.42926 1.80223 0
M  V30 477 H 44.949 -3.37459 4.01524 0
M  V30 478 H 46.423 -4.68599 2.91752 0
M  V30 479 H 46.9 -4.1973 1.2932 0
M  V30 480 H 47.506 -3.28855 2.69693 0
M  V30 481 N 45.8211 -1.22559 -0.990812 0
M  V30 482 C 47.0681 -1.05141 -1.73065 0
M  V30 483 C 47.3961 0.413191 -1.9006 0
M  V30 484 O 46.6511 1.32257 -1.44245 0
M  V30 485 C 46.9501 -1.71011 -3.13831 0
M  V30 486 C 46.6161 -3.20911 -3.16745 0
M  V30 487 C 45.2781 -3.61812 -3.17247 0
M  V30 488 C 47.6301 -4.16846 -3.12872 0
M  V30 489 C 44.9581 -4.97127 -3.1158 0
M  V30 490 C 47.3101 -5.5214 -3.08746 0
M  V30 491 C 45.9741 -5.92419 -3.07565 0
M  V30 492 H 45.2441 -0.384738 -0.633291 0
M  V30 493 H 47.8911 -1.5235 -1.16025 0
M  V30 494 H 46.1961 -1.16133 -3.74193 0
M  V30 495 H 47.8931 -1.55023 -3.69823 0
M  V30 496 H 44.4831 -2.88344 -3.17105 0
M  V30 497 H 48.6671 -3.86263 -3.11632 0
M  V30 498 H 43.9231 -5.27562 -3.09012 0
M  V30 499 H 48.0971 -6.26201 -3.04705 0
M  V30 500 H 45.7241 -6.97236 -3.02929 0
M  V30 501 N 47.2992 1.18797 -1.03562 0
M  V30 502 C 48.5242 1.9314 -0.755764 0
M  V30 503 C 48.9492 1.7537 0.68022 0
M  V30 504 O 48.3072 1.06046 1.47051 0
M  V30 505 C 48.3552 3.42747 -1.12058 0
M  V30 506 O 47.4592 4.11683 -0.243124 0
M  V30 507 H 46.8002 0.602724 -0.278604 0
M  V30 508 H 49.3302 1.50678 -1.3841 0
M  V30 509 H 49.3402 3.93437 -1.08035 0
M  V30 510 H 48.0152 3.55002 -2.16672 0
M  V30 511 H 46.5922 3.71323 -0.342539 0
M  V30 512 N 48.7773 0.814389 1.34928 0
M  V30 513 C 50.0073 0.41054 2.0248 0
M  V30 514 C 50.4153 -0.985625 1.61499 0
M  V30 515 O 49.7583 -1.64781 0.811976 0
M  V30 516 C 49.8203 0.423384 3.56998 0
M  V30 517 C 49.4843 1.77141 4.21272 0
M  V30 518 C 50.4813 2.73093 4.42398 0
M  V30 519 C 48.1663 2.05755 4.58225 0
M  V30 520 C 50.1603 3.95838 4.9959 0
M  V30 521 C 47.8473 3.28762 5.1513 0
M  V30 522 C 48.8453 4.23621 5.35755 0
M  V30 523 O 48.5333 5.44456 5.91458 0
M  V30 524 H 48.2653 0.163997 0.655806 0
M  V30 525 H 50.8193 1.10155 1.73364 0
M  V30 526 H 49.0493 -0.324276 3.85338 0
M  V30 527 H 50.7383 0.0407683 4.0588 0
M  V30 528 H 51.5043 2.5228 4.14222 0
M  V30 529 H 47.3833 1.32727 4.4148 0
M  V30 530 H 50.9273 4.69891 5.15605 0
M  V30 531 H 46.8243 3.49443 5.42734 0
M  V30 532 H 47.5923 5.4586 6.09901 0
M  V30 533 N 50.2554 -1.46986 0.568584 0
M  V30 534 C 51.6664 -1.86188 0.138219 0
M  V30 535 C 52.0174 -1.47388 -1.29504 0
M  V30 536 O 51.1424 -0.88219 -1.97602 0
M  V30 537 C 51.7374 -3.3792 0.244065 0
M  V30 538 C 50.2964 -3.76171 -0.131335 0
M  V30 539 C 49.4434 -2.71027 0.586465 0
M  V30 540 H 52.3944 -1.38342 0.777645 0
M  V30 541 H 52.4154 -3.76729 -0.534351 0
M  V30 542 H 51.9274 -3.66128 1.28731 0
M  V30 543 H 50.0284 -3.5358 -1.17526 0
M  V30 544 H 50.1414 -4.78523 0.235146 0
M  V30 545 H 48.5054 -2.54684 0.0282722 0
M  V30 546 H 49.2884 -3.02077 1.63109 0
M  V30 547 N 51.7335 -0.305618 -1.54608 0
M  V30 548 C 52.6635 0.561482 -2.26649 0
M  V30 549 C 53.6445 1.13415 -1.26772 0
M  V30 550 O 54.8295 1.16262 -1.55553 0
M  V30 551 C 51.9595 1.73122 -3.01075 0
M  V30 552 C 50.9135 1.2887 -4.08138 0
M  V30 553 C 50.2395 2.54396 -4.70305 0
M  V30 554 C 51.5395 0.416578 -5.20636 0
M  V30 555 H 53.2335 -0.0393902 -2.99374 0
M  V30 556 H 50.7795 -0.020385 -1.43986 0
M  V30 557 H 52.7325 2.34396 -3.50195 0
M  V30 558 H 51.4565 2.3584 -2.25936 0
M  V30 559 H 50.1155 0.698991 -3.59875 0
M  V30 560 H 49.7635 3.15439 -3.918 0
M  V30 561 H 49.4635 2.25486 -5.42614 0
M  V30 562 H 50.9875 3.16464 -5.2219 0
M  V30 563 H 52.4015 0.935116 -5.65622 0
M  V30 564 H 50.7985 0.221046 -5.99693 0
M  V30 565 H 51.8685 -0.557162 -4.81688 0
M  V30 566 N 53.2116 1.57565 -0.0334293 0
M  V30 567 C 54.4886 1.83282 0.683163 0
M  V30 568 C 54.8686 0.91823 1.90084 0
M  V30 569 O 54.2166 -0.025113 2.28486 0
M  V30 570 C 54.4266 3.32599 1.0573 0
M  V30 571 C 55.7746 3.99179 1.44711 0
M  V30 572 O 56.7986 3.3712 1.15015 0
M  V30 573 O 55.6576 5.08565 2.0006 0
M  V30 574 H 52.7516 0.755869 0.335546 0
M  V30 575 H 55.2976 1.69589 -0.0614402 0
M  V30 576 H 54.0696 3.90834 0.190828 0
M  V30 577 H 53.6926 3.51415 1.85993 0
M  V30 578 N 54.6897 -0.239769 1.55765 0
M  V30 579 C 55.6197 -1.30052 1.9393 0
M  V30 580 C 56.6007 -1.49839 0.805132 0
M  V30 581 O 57.7857 -1.62328 1.06599 0
M  V30 582 C 54.9157 -2.65391 2.2402 0
M  V30 583 C 53.8697 -2.60289 3.39755 0
M  V30 584 C 53.1957 -3.99489 3.55405 0
M  V30 585 C 54.4957 -2.16654 4.75246 0
M  V30 586 H 56.1897 -0.983573 2.82783 0
M  V30 587 H 53.7357 -0.471701 1.36055 0
M  V30 588 H 55.6887 -3.3974 2.49308 0
M  V30 589 H 54.4127 -2.98736 1.32 0
M  V30 590 H 53.0717 -1.88398 3.14487 0
M  V30 591 H 52.7197 -4.30112 2.60793 0
M  V30 592 H 52.4197 -3.96962 4.33238 0
M  V30 593 H 53.9437 -4.75528 3.83022 0
M  V30 594 H 55.3577 -2.80737 4.99859 0
M  V30 595 H 53.7547 -2.25223 5.56232 0
M  V30 596 H 54.8247 -1.11835 4.71827 0
M  V30 597 N 56.1678 -1.49265 -0.50573 0
M  V30 598 C 57.0978 -1.68495 -1.61653 0
M  V30 599 C 58.0788 -0.53366 -1.61512 0
M  V30 600 O 59.2638 -0.76897 -1.78327 0
M  V30 601 C 56.3938 -1.74709 -3.00157 0
M  V30 602 C 55.3478 -2.89581 -3.15162 0
M  V30 603 C 54.6738 -2.80903 -4.5497 0
M  V30 604 C 55.9738 -4.30578 -2.95634 0
M  V30 605 H 57.6678 -2.61493 -1.45814 0
M  V30 606 H 55.2138 -1.25838 -0.70005 0
M  V30 607 H 57.1668 -1.86748 -3.77761 0
M  V30 608 H 55.8908 -0.783067 -3.17074 0
M  V30 609 H 54.5498 -2.77136 -2.39982 0
M  V30 610 H 54.1978 -1.82419 -4.68756 0
M  V30 611 H 53.8978 -3.57999 -4.65951 0
M  V30 612 H 55.4218 -2.94944 -5.34641 0
M  V30 613 H 56.8358 -4.4373 -3.63011 0
M  V30 614 H 55.2328 -5.0886 -3.18091 0
M  V30 615 H 56.3028 -4.45352 -1.91806 0
M  V30 616 N 57.6459 0.756429 -1.3826 0
M  V30 617 C 58.5759 1.88374 -1.37976 0
M  V30 618 C 59.5569 1.68311 -0.246082 0
M  V30 619 O 60.7419 1.88944 -0.44874 0
M  V30 620 C 57.8719 3.25864 -1.20125 0
M  V30 621 C 56.8259 3.60523 -2.30666 0
M  V30 622 C 56.1519 4.9672 -1.97923 0
M  V30 623 C 57.4519 3.65692 -3.72916 0
M  V30 624 H 59.1459 1.88869 -2.32312 0
M  V30 625 H 56.6919 0.907272 -1.11824 0
M  V30 626 H 58.6449 4.0438 -1.18552 0
M  V30 627 H 57.3689 3.25841 -0.222498 0
M  V30 628 H 56.0279 2.84324 -2.3142 0
M  V30 629 H 55.6759 4.93253 -0.985393 0
M  V30 630 H 55.3759 5.20878 -2.71955 0
M  V30 631 H 56.8999 5.77618 -1.97964 0
M  V30 632 H 58.3139 4.34328 -3.74208 0
M  V30 633 H 56.7109 4.01358 -4.4613 0
M  V30 634 H 57.7809 2.65987 -4.05436 0
M  V30 635 N 59.124 1.23083 0.984299 0
M  V30 636 C 60.071 1.00854 2.07598 0
M  V30 637 C 61.041 -0.0726709 1.65941 0
M  V30 638 O 62.226 0.0786535 1.90638 0
M  V30 639 C 59.366 0.601645 3.39815 0
M  V30 640 C 58.479 1.75456 3.94765 0
M  V30 641 C 57.614 1.29482 5.15177 0
M  V30 642 C 56.653 2.41873 5.62284 0
M  V30 643 N 55.79 1.96885 6.73929 0
M  V30 644 H 60.63 1.943 2.25946 0
M  V30 645 H 58.167 0.968001 1.10762 0
M  V30 646 H 60.125 0.346854 4.15756 0
M  V30 647 H 58.755 -0.295803 3.21442 0
M  V30 648 H 57.807 2.12346 3.15616 0
M  V30 649 H 59.119 2.59965 4.25699 0
M  V30 650 H 58.273 0.997923 5.98437 0
M  V30 651 H 57.012 0.420046 4.85888 0
M  V30 652 H 56.017 2.72342 4.77608 0
M  V30 653 H 57.242 3.29881 5.93595 0
M  V30 654 H 55.188 1.11782 6.46406 0
M  V30 655 H 55.105 2.74956 7.04227 0
M  V30 656 H 56.373 1.70289 7.60672 0
M  V30 657 N 60.6021 -1.18246 1.0419 0
M  V30 658 C 61.5321 -2.24127 0.654914 0
M  V30 659 C 62.5131 -1.66617 -0.342451 0
M  V30 660 O 63.6981 -1.92924 -0.222277 0
M  V30 661 C 60.8281 -3.47295 0.0183757 0
M  V30 662 C 59.7821 -4.17563 0.939414 0
M  V30 663 C 59.1081 -5.34438 0.167286 0
M  V30 664 C 60.4081 -4.70917 2.25908 0
M  V30 665 H 62.1021 -2.56753 1.54007 0
M  V30 666 H 59.6481 -1.23414 0.74195 0
M  V30 667 H 61.6011 -4.20572 -0.264082 0
M  V30 668 H 60.3251 -3.13907 -0.901664 0
M  V30 669 H 58.9841 -3.46186 1.20628 0
M  V30 670 H 58.6321 -4.97298 -0.7552 0
M  V30 671 H 58.3321 -5.82388 0.780901 0
M  V30 672 H 59.8561 -6.10504 -0.108125 0
M  V30 673 H 61.2701 -5.35882 2.03724 0
M  V30 674 H 59.6671 -5.29406 2.82577 0
M  V30 675 H 60.7371 -3.88272 2.9047 0
M  V30 676 N 62.0802 -0.821533 -1.34494 0
M  V30 677 C 63.0302 -0.214793 -2.26986 0
M  V30 678 C 64.0142 0.620125 -1.4847 0
M  V30 679 O 65.2062 0.474933 -1.70509 0
M  V30 680 C 62.3352 0.623566 -3.37589 0
M  V30 681 C 61.4212 -0.221904 -4.23519 0
M  V30 682 N 61.8122 -1.29223 -4.89014 0
M  V30 683 C 60.1102 -0.00600922 -4.46 0
M  V30 684 C 60.8112 -1.80965 -5.52835 0
M  V30 685 N 59.7872 -1.11376 -5.32068 0
M  V30 686 H 63.5892 -1.03354 -2.75128 0
M  V30 687 H 61.1032 -0.6642 -1.48196 0
M  V30 688 H 63.1002 1.0744 -4.02818 0
M  V30 689 H 61.7602 1.44049 -2.90998 0
M  V30 690 H 62.7712 -1.67502 -4.90065 0
M  V30 691 H 59.4482 0.77886 -4.10171 0
M  V30 692 H 60.8382 -2.70502 -6.15043 0
M  V30 693 N 63.5583 1.46682 -0.576371 0
M  V30 694 C 64.8353 1.95599 0.00703437 0
M  V30 695 C 65.2153 1.51904 1.46589 0
M  V30 696 O 64.5633 0.766755 2.15251 0
M  V30 697 C 64.7733 3.4864 -0.158404 0
M  V30 698 C 66.1213 4.24594 -0.0229439 0
M  V30 699 O 67.1453 3.56094 -0.0869173 0
M  V30 700 O 66.0043 5.46373 0.118015 0
M  V30 701 H 63.0983 0.825275 0.053384 0
M  V30 702 H 65.6443 1.56996 -0.644244 0
M  V30 703 H 64.4163 3.7331 -1.17282 0
M  V30 704 H 64.0393 3.94057 0.5296 0
M  V30 705 N 65.0364 0.313813 1.54444 0
M  V30 706 C 65.9464 -0.565714 2.27677 0
M  V30 707 C 66.9624 -1.13754 1.31666 0
M  V30 708 O 68.1384 -1.15959 1.64668 0
M  V30 709 C 65.2034 -1.71528 3.01296 0
M  V30 710 C 64.2644 -1.17624 4.12872 0
M  V30 711 C 63.4974 -2.27102 4.8297 0
M  V30 712 O 63.7204 -3.47256 4.52514 0
M  V30 713 O 62.6544 -1.9307 5.70094 0
M  V30 714 H 66.4804 0.0287296 3.03686 0
M  V30 715 H 64.0654 0.0798312 1.49187 0
M  V30 716 H 65.9474 -2.38476 3.4743 0
M  V30 717 H 64.6224 -2.29608 2.2817 0
M  V30 718 H 63.5294 -0.472124 3.71109 0
M  V30 719 H 64.8624 -0.640695 4.88012 0
M  V30 720 N 66.5145 -1.57545 0.0417849 0
M  V30 721 C 67.9305 -1.56467 -0.314704 0
M  V30 722 C 68.1305 -1.04859 -1.72066 0
M  V30 723 O 67.1865 -0.700983 -2.42575 0
M  V30 724 C 68.4995 -3.00317 -0.15174 0
M  V30 725 C 70.0475 -3.12201 -0.223553 0
M  V30 726 C 70.5225 -4.57913 -0.0892295 0
M  V30 727 N 72.0135 -4.6297 -0.145808 0
M  V30 728 C 72.7485 -5.73362 -0.0658459 0
M  V30 729 N 72.2445 -6.92769 0.0659282 0
M  V30 730 N 74.0375 -5.6197 -0.12075 0
M  V30 731 H 66.1885 -1.89416 0.961014 0
M  V30 732 H 68.4515 -0.871862 0.372237 0
M  V30 733 H 68.1575 -3.42073 0.817254 0
M  V30 734 H 68.0315 -3.65892 -0.916692 0
M  V30 735 H 70.4185 -2.70349 -1.18301 0
M  V30 736 H 70.4995 -2.49323 0.571994 0
M  V30 737 H 70.1435 -5.00448 0.866867 0
M  V30 738 H 70.0735 -5.18786 -0.903802 0
M  V30 739 H 72.5645 -3.7709 -0.247286 0
M  V30 740 H 72.8775 -7.72707 0.119905 0
M  V30 741 H 71.2225 -6.94927 0.100885 0
M  V30 742 H 74.4135 -4.67572 -0.222187 0
M  V30 743 H 74.5865 -6.47977 -0.0549735 0
M  V30 744 N 67.9926 0.231505 -1.5589 0
M  V30 745 C 69.2386 0.95877 -1.78705 0
M  V30 746 C 69.5716 1.8438 -0.609725 0
M  V30 747 O 68.8466 1.90521 0.391426 0
M  V30 748 C 69.1296 1.8062 -3.11526 0
M  V30 749 C 68.9826 0.948328 -4.39689 0
M  V30 750 C 70.3016 2.78585 -3.40703 0
M  V30 751 H 67.4206 0.347129 -0.650131 0
M  V30 752 H 70.0626 0.228259 -1.88624 0
M  V30 753 H 68.2126 2.42902 -3.03201 0
M  V30 754 H 69.8846 0.343016 -4.60023 0
M  V30 755 H 68.1276 0.253314 -4.3306 0
M  V30 756 H 68.7986 1.57543 -5.29041 0
M  V30 757 H 71.2746 2.26439 -3.49091 0
M  V30 758 H 70.1506 3.34988 -4.34826 0
M  V30 759 H 70.4116 3.55825 -2.62375 0
M  V30 760 N 69.4707 1.49531 0.497807 0
M  V30 761 C 70.4007 1.6935 1.60757 0
M  V30 762 C 71.3817 0.542218 1.61227 0
M  V30 763 O 72.5667 0.778417 1.77917 0
M  V30 764 C 69.6967 1.76298 2.99226 0
M  V30 765 C 68.6507 2.91248 3.13622 0
M  V30 766 C 67.9767 2.83312 4.53474 0
M  V30 767 C 69.2767 4.3214 2.93346 0
M  V30 768 H 70.9707 2.62263 1.44425 0
M  V30 769 H 68.5167 1.26208 0.693367 0
M  V30 770 H 70.4697 1.88749 3.76765 0
M  V30 771 H 69.1937 0.799871 3.16654 0
M  V30 772 H 67.8527 2.78404 2.38509 0
M  V30 773 H 67.5007 1.84902 4.67782 0
M  V30 774 H 67.2007 3.60465 4.64046 0
M  V30 775 H 68.7247 2.97775 5.33069 0
M  V30 776 H 70.1387 4.45649 3.60652 0
M  V30 777 H 68.5357 5.1054 3.15387 0
M  V30 778 H 69.6057 4.46363 1.89441 0
M  V30 779 N 70.9488 -0.749086 1.3866 0
M  V30 780 C 72.1948 -1.51056 1.35314 0
M  V30 781 C 72.5278 -1.94121 -0.0553751 0
M  V30 782 O 71.8028 -1.65763 -1.01749 0
M  V30 783 C 72.0858 -2.76003 2.31288 0
M  V30 784 C 71.9388 -2.39047 3.8102 0
M  V30 785 C 73.2578 -3.78046 2.2532 0
M  V30 786 H 70.3768 -0.547972 0.492844 0
M  V30 787 H 73.0188 -0.857628 1.69543 0
M  V30 788 H 71.1688 -3.31716 2.02229 0
M  V30 789 H 72.8408 -1.89074 4.20771 0
M  V30 790 H 71.0838 -1.71449 3.98482 0
M  V30 791 H 71.7548 -3.28462 4.4364 0
M  V30 792 H 74.2308 -3.31884 2.50983 0
M  V30 793 H 73.1068 -4.63159 2.94576 0
M  V30 794 H 73.3678 -4.23957 1.25352 0
M  V30 795 N 72.4269 -1.23603 -0.977757 0
M  V30 796 C 73.3899 -1.02069 -2.05218 0
M  V30 797 C 74.3899 0.0184305 -1.60789 0
M  V30 798 O 75.5799 -0.221569 -1.72785 0
M  V30 799 C 72.7119 -0.544926 -3.36517 0
M  V30 800 H 73.9049 -1.9742 -2.25755 0
M  V30 801 H 71.4579 -1.05684 -1.15155 0
M  V30 802 H 72.1929 0.412241 -3.21669 0
M  V30 803 H 71.9779 -1.2948 -3.70105 0
M  V30 804 H 73.4679 -0.414985 -4.15533 0
M  V30 805 N 73.905 1.17692 -1.04816 0
M  V30 806 C 75.152 1.87859 -0.75599 0
M  V30 807 C 75.48 1.80812 0.716752 0
M  V30 808 O 74.735 1.20819 1.53952 0
M  V30 809 C 75.034 3.37462 -1.17703 0
M  V30 810 C 74.7 3.64713 -2.65133 0
M  V30 811 C 73.362 3.71859 -3.05408 0
M  V30 812 C 75.714 3.76492 -3.60421 0
M  V30 813 C 73.042 3.88271 -4.39843 0
M  V30 814 C 75.394 3.94421 -4.94585 0
M  V30 815 C 74.058 3.99806 -5.3452 0
M  V30 816 H 73.328 0.687425 -0.276636 0
M  V30 817 H 75.975 1.39255 -1.31455 0
M  V30 818 H 74.28 3.88097 -0.537395 0
M  V30 819 H 75.977 3.90109 -0.928218 0
M  V30 820 H 72.567 3.59772 -2.32942 0
M  V30 821 H 76.751 3.70295 -3.30447 0
M  V30 822 H 72.007 3.90687 -4.70291 0
M  V30 823 H 76.181 4.02477 -5.68318 0
M  V30 824 H 73.808 4.12276 -6.38696 0
M  V30 825 N 75.3831 0.828654 1.34056 0
M  V30 826 C 76.6311 0.41863 1.97717 0
M  V30 827 C 76.9521 -1.02314 1.66002 0
M  V30 828 O 76.2221 -1.71119 0.953683 0
M  V30 829 H 74.8021 0.151809 0.731412 0
M  V30 830 H 77.4641 1.05936 1.63596 0
M  V30 831 H 76.5601 0.542318 3.07352 0
M  V30 832 N 76.8612 -1.46375 0.584142 0
M  V30 833 C 77.7932 -2.28443 -0.186119 0
M  V30 834 C 78.8062 -1.38596 -0.854115 0
M  V30 835 O 79.9952 -1.63183 -0.723438 0
M  V30 836 C 77.0952 -3.13671 -1.28311 0
M  V30 837 C 76.2682 -4.31652 -0.706758 0
M  V30 838 C 75.3272 -4.98267 -1.69163 0
M  V30 839 O 74.3532 -5.55815 -1.22712 0
M  V30 840 N 75.5552 -4.95408 -3.02575 0
M  V30 841 H 78.3202 -2.9519 0.517986 0
M  V30 842 H 75.8812 -1.56303 0.42201 0
M  V30 843 H 77.8732 -3.55101 -1.94128 0
M  V30 844 H 76.4432 -2.48989 -1.89005 0
M  V30 845 H 75.6632 -3.93989 0.128908 0
M  V30 846 H 76.9512 -5.07906 -0.301506 0
M  V30 847 H 76.3492 -4.49902 -3.42936 0
M  V30 848 H 74.9062 -5.40774 -3.63877 0
M  V30 849 N 78.3393 -0.321999 -1.54275 0
M  V30 850 C 79.7553 0.0306999 -1.5957 0
M  V30 851 C 79.9553 1.50614 -1.33857 0
M  V30 852 O 79.0113 2.2619 -1.12223 0
M  V30 853 C 80.3243 -0.386122 -2.98211 0
M  V30 854 C 81.8723 -0.336647 -3.11184 0
M  V30 855 C 82.3473 -0.728607 -4.52167 0
M  V30 856 N 83.8383 -0.681952 -4.58152 0
M  V30 857 C 84.5733 -0.957449 -5.6535 0
M  V30 858 N 84.0693 -1.3 -6.80494 0
M  V30 859 N 85.8623 -0.883113 -5.55119 0
M  V30 860 H 78.0133 -1.28332 -1.69247 0
M  V30 861 H 80.2763 -0.521716 -0.791528 0
M  V30 862 H 79.9823 -1.41404 -3.22022 0
M  V30 863 H 79.8563 0.249662 -3.76373 0
M  V30 864 H 82.2433 0.682058 -2.8711 0
M  V30 865 H 82.3243 -1.00734 -2.3513 0
M  V30 866 H 81.9683 -1.74522 -4.76974 0
M  V30 867 H 81.8983 -0.0356152 -5.26588 0
M  V30 868 H 84.3893 -0.428985 -3.75457 0
M  V30 869 H 84.7023 -1.49563 -7.58189 0
M  V30 870 H 83.0473 -1.33824 -6.81994 0
M  V30 871 H 86.2383 -0.615001 -4.64042 0
M  V30 872 H 86.4113 -1.10118 -6.38575 0
M  V30 873 N 79.8174 1.5752 -0.0501392 0
M  V30 874 C 81.0944 1.83996 0.663685 0
M  V30 875 C 81.4744 0.938339 1.89099 0
M  V30 876 O 80.8224 -0.00087759 2.285 0
M  V30 877 C 81.0324 3.33702 1.02196 0
M  V30 878 C 82.3804 4.00691 1.40469 0
M  V30 879 O 83.4044 3.38321 1.11433 0
M  V30 880 O 82.2634 5.10658 1.94654 0
M  V30 881 H 79.3574 0.759385 0.32751 0
M  V30 882 H 81.9034 1.69514 -0.0794238 0
M  V30 883 H 80.6754 3.91015 0.149364 0
M  V30 884 H 80.2984 3.53368 1.82255 0
M  V30 885 N 81.2955 -0.223234 1.56011 0
M  V30 886 C 82.5435 -0.946003 1.78592 0
M  V30 887 C 82.8645 -1.84936 0.618349 0
M  V30 888 O 82.1345 -1.92473 -0.364833 0
M  V30 889 H 80.7145 -0.352298 0.658707 0
M  V30 890 H 83.3765 -0.235494 1.93472 0
M  V30 891 H 82.4725 -1.55381 2.70672 0
M  V30 892 N 82.7736 -1.49793 -0.48987 0
M  V30 893 C 84.0226 -1.59085 -1.23995 0
M  V30 894 C 84.3356 -0.287907 -1.9347 0
M  V30 895 O 85.5416 -0.259506 -2.70257 0
M  V30 896 C 83.9976 -2.80736 -2.252 0
M  V30 897 C 83.6056 -4.17833 -1.61614 0
M  V30 898 C 85.3496 -2.99364 -3.00967 0
M  V30 899 C 83.2566 -5.30693 -2.60996 0
M  V30 900 H 82.1866 -0.592372 -0.466488 0
M  V30 901 H 84.8376 -1.76197 -0.51252 0
M  V30 902 H 83.2196 -2.57142 -3.01154 0
M  V30 903 H 84.3936 -4.51608 -0.915774 0
M  V30 904 H 82.7086 -4.04656 -0.981977 0
M  V30 905 H 85.3056 -3.80851 -3.75308 0
M  V30 906 H 85.6486 -2.10356 -3.59244 0
M  V30 907 H 86.1816 -3.2305 -2.32128 0
M  V30 908 H 82.9206 -6.21796 -2.07485 0
M  V30 909 H 82.4406 -5.01359 -3.2924 0
M  V30 910 H 84.1196 -5.6049 -3.23202 0
M  V30 911 N 84.2517 0.741722 -1.39055 0
M  V30 912 C 85.6677 1.04638 -1.20512 0
M  V30 913 C 85.8677 2.01405 -0.0620218 0
M  V30 914 O 84.9237 2.45547 0.588457 0
M  V30 915 C 86.2367 1.6151 -2.53643 0
M  V30 916 C 87.7847 1.73623 -2.6043 0
M  V30 917 C 88.2597 2.33906 -3.93767 0
M  V30 918 N 89.7507 2.41323 -3.9537 0
M  V30 919 C 90.4857 2.88888 -4.95309 0
M  V30 920 N 89.9817 3.36401 -6.05645 0
M  V30 921 N 91.7747 2.88037 -4.82692 0
M  V30 922 H 83.9257 0.0998155 -2.12165 0
M  V30 923 H 86.1887 0.106907 -0.941953 0
M  V30 924 H 85.8947 0.978739 -3.37807 0
M  V30 925 H 85.7687 2.60411 -2.72885 0
M  V30 926 H 88.1557 2.36384 -1.76655 0
M  V30 927 H 88.2367 0.733945 -2.45045 0
M  V30 928 H 87.8807 1.71776 -4.7797 0
M  V30 929 H 87.8107 3.34799 -4.06469 0
M  V30 930 H 90.3017 2.07734 -3.15682 0
M  V30 931 H 90.6147 3.71186 -6.77821 0
M  V30 932 H 88.9597 3.34427 -6.09248 0
M  V30 933 H 92.1507 2.50237 -3.95599 0
M  V30 934 H 92.3237 3.24792 -5.60726 0
M  V30 935 N 85.7298 1.2412 0.971189 0
M  V30 936 C 86.9758 1.08041 1.71625 0
M  V30 937 C 87.3088 -0.380407 1.90438 0
M  V30 938 O 86.5838 -1.28127 1.46334 0
M  V30 939 C 86.8668 1.81682 3.10908 0
M  V30 940 C 86.7198 3.35493 2.99608 0
M  V30 941 C 88.0388 1.58671 4.10501 0
M  V30 942 H 85.1578 0.39388 0.622919 0
M  V30 943 H 87.7998 1.52743 1.13003 0
M  V30 944 H 85.9498 1.43684 3.60953 0
M  V30 945 H 87.6218 3.83068 2.57015 0
M  V30 946 H 85.8648 3.64052 2.35899 0
M  V30 947 H 86.5358 3.82217 3.98264 0
M  V30 948 H 89.0118 1.91719 3.69301 0
M  V30 949 H 87.8878 2.1266 5.06031 0
M  V30 950 H 88.1488 0.524161 4.38982 0
M  V30 951 N 87.2079 -1.17134 1.05439 0
M  V30 952 C 88.4559 -1.87085 0.764429 0
M  V30 953 C 88.7769 -1.81584 -0.710787 0
M  V30 954 O 88.0469 -1.24349 -1.51374 0
M  V30 955 H 86.6269 -0.692627 0.279779 0
M  V30 956 H 89.2889 -1.42087 1.33406 0
M  V30 957 H 88.3849 -2.92759 1.0816 0
M  V30 958 N 88.686 -0.835752 -1.33615 0
M  V30 959 C 89.636 -0.238856 -2.26745 0
M  V30 960 C 90.62 0.604343 -1.49119 0
M  V30 961 O 91.812 0.456822 -1.71003 0
M  V30 962 C 88.941 0.587725 -3.38232 0
M  V30 963 C 88.027 -0.266811 -4.2326 0
M  V30 964 N 88.418 -1.34403 -4.87616 0
M  V30 965 C 86.716 -0.0533131 -4.45968 0
M  V30 966 C 87.417 -1.86819 -5.50884 0
M  V30 967 N 86.393 -1.17013 -5.30857 0
M  V30 968 H 90.195 -1.06266 -2.74016 0
M  V30 969 H 87.709 -0.679881 -1.47483 0
M  V30 970 H 89.706 1.03161 -4.03935 0
M  V30 971 H 88.366 1.40954 -2.9251 0
M  V30 972 H 89.377 -1.7269 -4.88261 0
M  V30 973 H 86.054 0.735312 -4.10974 0
M  V30 974 H 87.444 -2.7701 -6.1214 0
M  V30 975 N 90.1641 1.46063 -0.591896 0
M  V30 976 C 91.1271 2.28854 0.125973 0
M  V30 977 C 92.1271 1.38903 0.810107 0
M  V30 978 O 93.3171 1.61186 0.66066 0
M  V30 979 C 90.4491 3.19526 1.1881 0
M  V30 980 H 91.6421 2.93802 -0.601717 0
M  V30 981 H 89.1951 1.52325 -0.350254 0
M  V30 982 H 89.9301 2.59345 1.94707 0
M  V30 983 H 89.7151 3.85766 0.701936 0
M  V30 984 H 91.2051 3.81817 1.69132 0
M  V30 985 N 91.6422 0.330177 1.54103 0
M  V30 986 C 92.8882 -0.270806 2.00984 0
M  V30 987 C 93.2212 -1.51265 1.21789 0
M  V30 988 O 92.4962 -1.92142 0.301927 0
M  V30 989 C 92.7792 -0.598339 3.55094 0
M  V30 990 C 92.6322 0.654674 4.4501 0
M  V30 991 C 93.9512 -1.41334 4.16789 0
M  V30 992 H 91.0702 -0.0969531 0.730595 0
M  V30 993 H 93.7122 0.448066 1.84641 0
M  V30 994 H 91.8622 -1.21078 3.69151 0
M  V30 995 H 93.5342 1.29285 4.42813 0
M  V30 996 H 91.7772 1.28224 4.14416 0
M  V30 997 H 92.4482 0.380944 5.50684 0
M  V30 998 H 94.9242 -0.895597 4.06347 0
M  V30 999 H 93.8002 -1.61127 5.24718 0
M  V30 1000 H 94.0612 -2.41146 3.70541 0
M  V30 1001 N 93.1203 -1.57491 0.0584922 0
M  V30 1002 C 94.0503 -2.14988 -0.911178 0
M  V30 1003 C 95.0313 -1.07343 -1.31952 0
M  V30 1004 O 96.2163 -1.35318 -1.39294 0
M  V30 1005 C 93.3463 -2.70078 -2.18347 0
M  V30 1006 C 92.3003 -3.82771 -1.91495 0
M  V30 1007 C 91.6263 -4.24408 -3.25241 0
M  V30 1008 C 92.9263 -5.07592 -1.23075 0
M  V30 1009 H 94.6203 -2.96263 -0.432246 0
M  V30 1010 H 92.1663 -1.42512 -0.206469 0
M  V30 1011 H 94.1193 -3.08943 -2.86587 0
M  V30 1012 H 92.8433 -1.86005 -2.68458 0
M  V30 1013 H 91.5023 -3.44389 -1.25664 0
M  V30 1014 H 91.1503 -3.37275 -3.73168 0
M  V30 1015 H 90.8503 -5.00366 -3.08071 0
M  V30 1016 H 92.3743 -4.65879 -3.94701 0
M  V30 1017 H 93.7883 -5.43857 -1.81362 0
M  V30 1018 H 92.1853 -5.88741 -1.16207 0
M  V30 1019 H 93.2553 -4.84454 -0.207847 0
M  V30 1020 N 94.5984 0.214957 -1.56127 0
M  V30 1021 C 95.5614 1.24997 -1.92116 0
M  V30 1022 C 96.5614 1.39467 -0.800344 0
M  V30 1023 O 97.7514 1.37619 -1.06802 0
M  V30 1024 C 94.8834 2.62271 -2.17777 0
M  V30 1025 H 96.0764 0.942875 -2.84693 0
M  V30 1026 H 93.6294 0.455654 -1.49511 0
M  V30 1027 H 94.3644 2.98068 -1.27773 0
M  V30 1028 H 94.1494 2.53143 -2.99434 0
M  V30 1029 H 95.6394 3.36946 -2.46693 0
M  V30 1030 N 96.0765 1.50051 0.48192 0
M  V30 1031 C 97.3255 1.59741 1.23149 0
M  V30 1032 C 97.6385 0.298163 1.93314 0
M  V30 1033 O 98.8445 0.273835 2.70116 0
M  V30 1034 C 97.3005 2.81926 2.23708 0
M  V30 1035 C 96.9085 4.18685 1.59396 0
M  V30 1036 C 98.6525 3.00956 2.99375 0
M  V30 1037 C 96.5595 5.3207 2.58178 0
M  V30 1038 H 95.4895 0.594838 0.46334 0
M  V30 1039 H 98.1405 1.76467 0.503169 0
M  V30 1040 H 96.5225 2.58736 2.99786 0
M  V30 1041 H 97.6965 4.52088 0.891811 0
M  V30 1042 H 96.0115 4.05171 0.960503 0
M  V30 1043 H 98.6085 3.82836 3.73283 0
M  V30 1044 H 98.9515 2.12258 3.58123 0
M  V30 1045 H 99.4845 3.24277 2.30411 0
M  V30 1046 H 96.2235 6.22888 2.04184 0
M  V30 1047 H 95.7435 5.03098 3.26577 0
M  V30 1048 H 97.4225 5.62196 3.20225 0
M  V30 1049 N 97.5546 -0.734337 1.39446 0
M  V30 1050 C 98.5026 -1.86971 1.38364 0
M  V30 1051 C 99.4966 -1.67288 0.266687 0
M  V30 1052 O 100.703 -1.74621 0.436755 0
M  V30 1053 H 97.0776 -0.615474 0.432082 0
M  V30 1054 H 99.0486 -1.85 2.34132 0
M  V30 1055 C 97.7976 -3.2466 1.24465 0
M  V30 1056 H 97.1206 -3.40402 2.09682 0
M  V30 1057 H 98.5606 -4.04292 1.27764 0
M  V30 1058 C 97.0196 -3.36867 -0.0468674 0
M  V30 1059 O 97.5496 -3.88618 -1.01681 0
M  V30 1060 N 95.7556 -2.90391 -0.110145 0
M  V30 1061 H 95.3026 -2.48466 0.679868 0
M  V30 1062 H 95.2606 -2.98939 -0.973799 0
M  V30 1063 N 99.0327 -1.24633 -0.964593 0
M  V30 1064 C 100.281 -1.08573 -1.70459 0
M  V30 1065 C 100.602 0.375655 -1.91347 0
M  V30 1066 O 99.8717 1.26779 -1.49345 0
M  V30 1067 H 98.4517 -0.398784 -0.631649 0
M  V30 1068 H 101.114 -1.56601 -1.16026 0
M  V30 1069 H 100.21 -1.58623 -2.68785 0
M  V30 1070 N 100.511 1.16574 -1.06058 0
M  V30 1071 C 101.444 2.19798 -0.61352 0
M  V30 1072 C 102.422 1.58509 0.362453 0
M  V30 1073 O 103.606 1.86527 0.271994 0
M  V30 1074 C 100.733 3.3855 0.100915 0
M  V30 1075 C 99.7788 4.18317 -0.831438 0
M  V30 1076 S 100.612 4.82375 -2.32539 0
M  V30 1077 C 101.768 6.04508 -1.62238 0
M  V30 1078 H 102.001 2.5738 -1.48805 0
M  V30 1079 H 99.5338 1.27327 -0.873338 0
M  V30 1080 H 101.492 4.07358 0.506898 0
M  V30 1081 H 100.153 2.99338 0.951604 0
M  V30 1082 H 99.3458 5.03232 -0.278071 0
M  V30 1083 H 98.9478 3.5499 -1.17719 0
M  V30 1084 H 101.24 6.71133 -0.926622 0
M  V30 1085 H 102.183 6.64389 -2.44934 0
M  V30 1086 H 102.591 5.53559 -1.106 0
M  V30 1087 N 101.989 0.842826 1.3317 0
M  V30 1088 C 103.266 0.362216 1.92217 0
M  V30 1089 C 103.646 -1.15289 1.76838 0
M  V30 1090 O 102.994 -1.96914 1.15919 0
M  V30 1091 C 103.204 0.813495 3.39387 0
M  V30 1092 C 104.552 0.823804 4.16532 0
M  V30 1093 O 105.576 0.757358 3.48055 0
M  V30 1094 O 104.435 0.915193 5.38782 0
M  V30 1095 H 101.529 0.103317 0.820521 0
M  V30 1096 H 104.075 0.928942 1.42017 0
M  V30 1097 H 102.847 1.85624 3.4447 0
M  V30 1098 H 102.47 0.223561 3.96971 0
M  V30 1099 N 103.467 -1.45747 0.599634 0
M  V30 1100 C 104.713 -2.02592 0.0918643 0
M  V30 1101 C 105.046 -1.46806 -1.27128 0
M  V30 1102 O 104.321 -0.639658 -1.83681 0
M  V30 1103 C 104.604 -3.60073 0.0443398 0
M  V30 1104 C 104.457 -4.26208 1.43759 0
M  V30 1105 C 105.776 -4.35309 -0.647608 0
M  V30 1106 H 102.895 -0.736175 0.034857 0
M  V30 1107 H 105.537 -1.73694 0.770081 0
M  V30 1108 H 103.687 -3.84823 -0.533224 0
M  V30 1109 H 105.359 -4.12668 2.06162 0
M  V30 1110 H 103.602 -3.84916 2.00056 0
M  V30 1111 H 104.273 -5.35069 1.35665 0
M  V30 1112 H 106.749 -4.15805 -0.156776 0
M  V30 1113 H 105.625 -5.45038 -0.649942 0
M  V30 1114 H 105.886 -4.07598 -1.71219 0
M  V30 1115 N 104.945 -0.338344 -1.53925 0
M  V30 1116 C 105.893 0.536231 -2.26335 0
M  V30 1117 C 106.887 1.1063 -1.28286 0
M  V30 1118 O 108.093 1.05264 -1.46012 0
M  V30 1119 H 104.468 0.191602 -0.727181 0
M  V30 1120 H 106.439 -0.0965747 -2.98244 0
M  V30 1121 C 105.188 1.67803 -3.04528 0
M  V30 1122 H 104.511 1.24864 -3.79801 0
M  V30 1123 H 105.951 2.26526 -3.58416 0
M  V30 1124 C 104.41 2.60439 -2.13712 0
M  V30 1125 O 104.94 3.6255 -1.72975 0
M  V30 1126 N 103.146 2.29006 -1.78898 0
M  V30 1127 H 102.693 1.46011 -2.12223 0
M  V30 1128 H 102.651 2.91248 -1.18416 0
M  V30 1129 N 106.423 1.57458 -0.0668435 0
M  V30 1130 C 107.671 1.92919 0.602214 0
M  V30 1131 C 107.992 0.947215 1.70449 0
M  V30 1132 O 107.262 -0.00544117 1.95899 0
M  V30 1133 H 105.842 0.71217 0.22544 0
M  V30 1134 H 108.504 1.94508 -0.123535 0
M  V30 1135 H 107.6 2.94589 1.03073 0
M  V30 1136 N 107.901 -0.206675 1.56239 0
M  V30 1137 C 109.317 -0.557025 1.49564 0
M  V30 1138 C 109.517 -1.86424 0.764735 0
M  V30 1139 O 108.573 -2.50584 0.310491 0
M  V30 1140 C 109.886 -0.622478 2.94186 0
M  V30 1141 C 111.434 -0.712099 3.04792 0
M  V30 1142 C 111.909 -0.808767 4.50803 0
M  V30 1143 N 113.4 -0.8726 4.54907 0
M  V30 1144 C 114.135 -0.967365 5.65181 0
M  V30 1145 N 113.631 -1.02515 6.85173 0
M  V30 1146 N 115.424 -1.00366 5.53067 0
M  V30 1147 H 107.575 0.650943 2.02179 0
M  V30 1148 H 109.838 0.230387 0.919579 0
M  V30 1149 H 109.544 0.268727 3.50672 0
M  V30 1150 H 109.418 -1.4811 3.46905 0
M  V30 1151 H 111.805 -1.59374 2.48363 0
M  V30 1152 H 111.886 0.172489 2.55218 0
M  V30 1153 H 111.53 0.0684754 5.07854 0
M  V30 1154 H 111.46 -1.70899 4.98098 0
M  V30 1155 H 113.951 -0.837657 3.68499 0
M  V30 1156 H 114.264 -1.09765 7.64965 0
M  V30 1157 H 112.609 -0.994026 6.87855 0
M  V30 1158 H 115.8 -0.95527 4.58249 0
M  V30 1159 H 115.973 -1.07405 6.39037 0
M  V30 1160 N 109.379 -1.50304 -0.473955 0
M  V30 1161 C 110.609 -1.64663 -1.24778 0
M  V30 1162 C 111.017 -0.328174 -1.86332 0
M  V30 1163 O 110.36 0.699536 -1.69859 0
M  V30 1164 C 110.422 -2.6778 -2.39863 0
M  V30 1165 C 110.086 -4.11413 -1.98969 0
M  V30 1166 C 111.083 -4.97372 -1.51385 0
M  V30 1167 C 108.768 -4.57312 -2.07777 0
M  V30 1168 C 110.762 -6.27277 -1.13148 0
M  V30 1169 C 108.449 -5.87223 -1.69152 0
M  V30 1170 C 109.447 -6.72031 -1.21915 0
M  V30 1171 O 109.135 -7.99518 -0.838237 0
M  V30 1172 H 108.867 -0.556602 -0.383627 0
M  V30 1173 H 111.421 -1.9726 -0.572491 0
M  V30 1174 H 109.651 -2.30419 -3.10554 0
M  V30 1175 H 111.34 -2.71388 -3.01833 0
M  V30 1176 H 112.106 -4.63128 -1.44004 0
M  V30 1177 H 107.985 -3.91449 -2.43493 0
M  V30 1178 H 111.529 -6.93425 -0.762077 0
M  V30 1179 H 107.426 -6.20989 -1.76191 0
M  V30 1180 H 108.194 -8.12764 -0.967339 0
M  V30 1181 N 110.857 0.726932 -1.39834 0
M  V30 1182 C 112.085 1.51613 -1.40787 0
M  V30 1183 C 112.5 1.88799 -0.00451505 0
M  V30 1184 O 111.857 1.54662 0.968809 0
M  V30 1185 C 111.908 2.79863 -2.28821 0
M  V30 1186 O 111.629 2.44253 -3.63692 0
M  V30 1187 C 113.13 3.73837 -2.38245 0
M  V30 1188 H 110.35 0.468264 -0.480593 0
M  V30 1189 H 112.894 0.897607 -1.83748 0
M  V30 1190 H 111.049 3.38027 -1.89252 0
M  V30 1191 H 111.463 3.26695 -4.1033 0
M  V30 1192 H 112.937 4.60699 -3.04073 0
M  V30 1193 H 113.414 4.16153 -1.40403 0
M  V30 1194 H 114.02 3.21589 -2.78317 0
M  V30 1195 N 112.336 1.25143 0.95797 0
M  V30 1196 C 113.299 1.05321 2.03569 0
M  V30 1197 C 114.299 0.007152 1.60798 0
M  V30 1198 O 115.489 0.24903 1.72411 0
M  V30 1199 C 112.621 0.598394 3.35607 0
M  V30 1200 H 113.814 2.00986 2.22586 0
M  V30 1201 H 111.367 1.07502 1.13459 0
M  V30 1202 H 112.102 -0.361014 3.22284 0
M  V30 1203 H 111.887 1.35351 3.67998 0
M  V30 1204 H 113.377 0.48104 4.1482 0
M  V30 1205 N 113.814 -1.1601 1.06675 0
M  V30 1206 C 115.091 -1.82679 0.699114 0
M  V30 1207 C 115.471 -1.94559 -0.819137 0
M  V30 1208 O 114.819 -1.49169 -1.73092 0
M  V30 1209 C 115.029 -3.19445 1.40555 0
M  V30 1210 C 116.377 -3.95171 1.55323 0
M  V30 1211 O 117.401 -3.28976 1.36577 0
M  V30 1212 O 116.26 -5.13833 1.86112 0
M  V30 1213 H 113.354 -0.788954 0.247951 0
M  V30 1214 H 115.9 -1.23179 1.16726 0
M  V30 1215 H 114.672 -3.05856 2.44065 0
M  V30 1216 H 114.295 -3.86625 0.927733 0
M  V30 1217 N 115.292 -0.849877 -1.32721 0
M  V30 1218 C 116.54 -0.450032 -1.97026 0
M  V30 1219 C 116.861 0.996604 -1.67609 0
M  V30 1220 O 116.131 1.6958 -0.980786 0
M  V30 1221 H 114.711 -0.163426 -0.728904 0
M  V30 1222 H 117.373 -1.08526 -1.6189 0
M  V30 1223 H 116.469 -0.591146 -3.0645 0
M  V30 1224 N 116.77 1.45427 -0.607355 0
M  V30 1225 C 117.717 2.3053 0.111625 0
M  V30 1226 C 118.687 1.4209 0.860216 0
M  V30 1227 O 119.872 1.71019 0.845998 0
M  V30 1228 C 117.012 3.26992 1.10319 0
M  V30 1229 C 116.125 4.30535 0.355493 0
M  V30 1230 C 115.26 5.14105 1.33676 0
M  V30 1231 C 114.299 6.09376 0.576862 0
M  V30 1232 N 113.436 6.85727 1.5074 0
M  V30 1233 H 118.276 2.91477 -0.620093 0
M  V30 1234 H 115.813 1.43631 -0.317594 0
M  V30 1235 H 117.771 3.81385 1.6912 0
M  V30 1236 H 116.401 2.67799 1.80232 0
M  V30 1237 H 115.453 3.78805 -0.348023 0
M  V30 1238 H 116.765 4.98235 -0.237423 0
M  V30 1239 H 115.919 5.72897 1.99684 0
M  V30 1240 H 114.658 4.46423 1.9636 0
M  V30 1241 H 113.663 5.49715 -0.0968519 0
M  V30 1242 H 114.888 6.79085 -0.0449341 0
M  V30 1243 H 112.834 6.20735 2.12189 0
M  V30 1244 H 112.751 7.49778 0.967913 0
M  V30 1245 H 114.019 7.4906 2.15706 0
M  V30 1246 N 118.248 0.346503 1.53744 0
M  V30 1247 C 119.158 -0.517293 2.28826 0
M  V30 1248 C 120.174 -1.10935 1.3405 0
M  V30 1249 O 121.35 -1.1244 1.6709 0
M  V30 1250 C 118.415 -1.65098 3.04866 0
M  V30 1251 C 117.476 -1.0884 4.15274 0
M  V30 1252 C 116.709 -2.16806 4.87679 0
M  V30 1253 O 116.932 -3.3758 4.59778 0
M  V30 1254 O 115.866 -1.80934 5.74061 0
M  V30 1255 H 119.692 0.0931396 3.03557 0
M  V30 1256 H 117.277 0.111458 1.48984 0
M  V30 1257 H 119.159 -2.31053 3.5241 0
M  V30 1258 H 117.834 -2.24717 2.32989 0
M  V30 1259 H 116.741 -0.3933 3.72027 0
M  V30 1260 H 118.074 -0.537036 4.89261 0
M  V30 1261 N 119.726 -1.57421 0.075193 0
M  V30 1262 C 120.972 -1.93905 -0.594025 0
M  V30 1263 C 121.305 -0.955701 -1.69056 0
M  V30 1264 O 120.58 0.0145373 -1.94495 0
M  V30 1265 C 120.863 -3.40638 -1.1678 0
M  V30 1266 C 120.716 -4.49733 -0.0776792 0
M  V30 1267 C 122.035 -3.88259 -2.07228 0
M  V30 1268 H 119.154 -0.705105 -0.214466 0
M  V30 1269 H 121.796 -1.8947 0.141854 0
M  V30 1270 H 119.946 -3.44549 -1.79494 0
M  V30 1271 H 121.618 -4.57942 0.555573 0
M  V30 1272 H 119.861 -4.29751 0.591286 0
M  V30 1273 H 120.532 -5.49549 -0.519603 0
M  V30 1274 H 123.008 -3.86376 -1.54445 0
M  V30 1275 H 121.884 -4.91533 -2.44308 0
M  V30 1276 H 122.145 -3.26396 -2.98191 0
M  V30 1277 N 121.204 0.198386 -1.56346 0
M  V30 1278 C 122.134 1.24865 -1.9731 0
M  V30 1279 C 123.115 1.47651 -0.844576 0
M  V30 1280 O 124.3 1.59444 -1.10866 0
M  V30 1281 C 121.43 2.59358 -2.30977 0
M  V30 1282 C 120.384 2.5119 -3.46537 0
M  V30 1283 C 119.71 3.89926 -3.65871 0
M  V30 1284 C 121.01 2.03977 -4.80823 0
M  V30 1285 H 122.704 0.908252 -2.85291 0
M  V30 1286 H 120.25 0.435462 -1.37258 0
M  V30 1287 H 122.203 3.33011 -2.58228 0
M  V30 1288 H 120.927 2.95132 -1.39874 0
M  V30 1289 H 119.586 1.79993 -3.19371 0
M  V30 1290 H 119.234 4.23046 -2.72105 0
M  V30 1291 H 118.934 3.85336 -4.4361 0
M  V30 1292 H 120.458 4.65205 -3.95495 0
M  V30 1293 H 121.872 2.67386 -5.07127 0
M  V30 1294 H 120.269 2.10397 -5.62008 0
M  V30 1295 H 121.339 0.992861 -4.74626 0
M  V30 1296 N 122.682 1.50554 0.465978 0
M  V30 1297 C 123.592 1.72585 1.58907 0
M  V30 1298 C 124.608 0.60911 1.6299 0
M  V30 1299 O 125.784 0.88804 1.80765 0
M  V30 1300 C 122.849 1.81995 2.95091 0
M  V30 1301 C 121.91 3.05751 3.01355 0
M  V30 1302 C 121.143 3.14702 4.31043 0
M  V30 1303 O 121.366 2.30313 5.21835 0
M  V30 1304 O 120.3 4.07468 4.43005 0
M  V30 1305 H 124.126 2.67799 1.43239 0
M  V30 1306 H 121.711 1.34711 0.646013 0
M  V30 1307 H 123.593 1.90335 3.75966 0
M  V30 1308 H 122.268 0.899659 3.10947 0
M  V30 1309 H 121.175 3.02908 2.19539 0
M  V30 1310 H 122.508 3.97375 2.90437 0
M  V30 1311 N 124.16 -0.719506 1.40217 0
M  V30 1312 C 125.39 -1.50646 1.41384 0
M  V30 1313 C 125.798 -1.89197 0.0107743 0
M  V30 1314 O 125.141 -1.55709 -0.974708 0
M  V30 1315 C 125.203 -2.81405 2.23722 0
M  V30 1316 C 124.867 -2.65199 3.72181 0
M  V30 1317 C 125.864 -2.32717 4.64907 0
M  V30 1318 C 123.549 -2.81586 4.1595 0
M  V30 1319 C 125.543 -2.16827 5.99387 0
M  V30 1320 C 123.23 -2.65313 5.50502 0
M  V30 1321 C 124.228 -2.32981 6.42035 0
M  V30 1322 O 123.916 -2.16827 7.74107 0
M  V30 1323 H 123.648 -0.471606 0.484318 0
M  V30 1324 H 126.202 -0.895456 1.84853 0
M  V30 1325 H 124.432 -3.44823 1.75026 0
M  V30 1326 H 126.121 -3.43102 2.16878 0
M  V30 1327 H 126.887 -2.19694 4.32388 0
M  V30 1328 H 122.766 -3.0574 3.45027 0
M  V30 1329 H 126.31 -1.91513 6.70797 0
M  V30 1330 H 122.207 -2.7792 5.82607 0
M  V30 1331 H 122.975 -2.31778 7.84998 0
M  V30 1332 N 125.638 -1.25649 -0.95132 0
M  V30 1333 C 126.568 -1.08808 -2.06599 0
M  V30 1334 C 127.549 0.00382547 -1.701 0
M  V30 1335 O 128.734 -0.166325 -1.93486 0
M  V30 1336 C 125.864 -0.709542 -3.39975 0
M  V30 1337 C 124.818 -1.75206 -3.90496 0
M  V30 1338 C 124.144 -1.22811 -5.20405 0
M  V30 1339 C 125.444 -3.15153 -4.16504 0
M  V30 1340 H 127.138 -2.02048 -2.20946 0
M  V30 1341 H 124.684 -0.972835 -1.06169 0
M  V30 1342 H 126.637 -0.578649 -4.17408 0
M  V30 1343 H 125.361 0.258556 -3.25575 0
M  V30 1344 H 124.02 -1.87145 -3.15234 0
M  V30 1345 H 123.668 -0.250145 -5.02378 0
M  V30 1346 H 123.368 -1.92492 -5.55176 0
M  V30 1347 H 124.892 -1.10968 -6.00432 0
M  V30 1348 H 126.306 -3.06349 -4.84586 0
M  V30 1349 H 124.703 -3.82333 -4.62538 0
M  V30 1350 H 125.773 -3.61966 -3.22658 0
M  V30 1351 N 127.117 1.15442 -1.07289 0
M  V30 1352 C 128.365 1.85845 -0.794096 0
M  V30 1353 C 128.686 1.82692 0.681809 0
M  V30 1354 O 127.956 1.26741 1.49377 0
M  V30 1355 H 126.536 0.688089 -0.290763 0
M  V30 1356 H 129.198 1.39947 -1.3565 0
M  V30 1357 H 128.294 2.91001 -1.12804 0
M  V30 1358 N 128.595 0.856903 1.32268 0
M  V30 1359 C 129.543 0.291987 2.3076 0
M  V30 1360 C 130.537 -0.585857 1.58947 0
M  V30 1361 O 131.743 -0.47341 1.73663 0
M  V30 1362 H 128.118 0.075721 0.748178 0
M  V30 1363 H 130.089 1.13687 2.75895 0
M  V30 1364 C 128.838 -0.502869 3.44044 0
M  V30 1365 H 128.161 0.163328 3.99466 0
M  V30 1366 H 129.601 -0.863691 4.1511 0
M  V30 1367 C 128.06 -1.68898 2.91505 0
M  V30 1368 O 128.59 -2.78811 2.89184 0
M  V30 1369 N 126.796 -1.51679 2.47875 0
M  V30 1370 H 126.343 -0.622666 2.49961 0
M  V30 1371 H 126.301 -2.31184 2.13076 0
M  V30 1372 N 130.073 -1.45103 0.615059 0
M  V30 1373 C 131.484 -1.85654 0.197383 0
M  V30 1374 C 131.835 -1.51433 -1.24749 0
M  V30 1375 O 130.96 -0.944608 -1.94695 0
M  V30 1376 C 131.555 -3.36972 0.351448 0
M  V30 1377 C 130.114 -3.76398 -0.011593 0
M  V30 1378 C 129.261 -2.69024 0.672394 0
M  V30 1379 H 132.212 -1.35797 0.821263 0
M  V30 1380 H 132.233 -3.78239 -0.414227 0
M  V30 1381 H 131.745 -3.61847 1.40314 0
M  V30 1382 H 129.846 -3.5714 -1.06217 0
M  V30 1383 H 129.959 -4.77532 0.387265 0
M  V30 1384 H 128.323 -2.54465 0.109284 0
M  V30 1385 H 129.106 -2.96735 1.72636 0
M  V30 1386 N 131.551 -0.354651 -1.53558 0
M  V30 1387 C 132.514 0.484566 -2.24019 0
M  V30 1388 C 133.514 1.01861 -1.24422 0
M  V30 1389 O 134.704 0.906097 -1.4878 0
M  V30 1390 C 131.836 1.67615 -2.96847 0
M  V30 1391 H 133.029 -0.131843 -2.9961 0
M  V30 1392 H 130.582 -0.106165 -1.55939 0
M  V30 1393 H 131.317 2.33095 -2.25471 0
M  V30 1394 H 131.102 1.30029 -3.69912 0
M  V30 1395 H 132.592 2.27114 -3.50441 0
M  V30 1396 N 133.029 1.57378 -0.0835403 0
M  V30 1397 C 133.977 2.14602 0.89714 0
M  V30 1398 C 134.971 1.08589 1.30018 0
M  V30 1399 O 136.177 1.26952 1.27606 0
M  V30 1400 H 132.552 0.686346 0.3073 0
M  V30 1401 H 134.523 2.95845 0.38969 0
M  V30 1402 C 133.272 2.73188 2.15089 0
M  V30 1403 H 132.595 3.54442 1.84962 0
M  V30 1404 H 134.035 3.1681 2.81793 0
M  V30 1405 C 132.494 1.68517 2.91725 0
M  V30 1406 O 133.024 1.11718 3.85852 0
M  V30 1407 N 131.23 1.39277 2.55049 0
M  V30 1408 H 130.777 1.85655 1.78577 0
M  V30 1409 H 130.735 0.694791 3.06627 0
M  V30 1410 N 134.507 -0.190092 1.56449 0
M  V30 1411 C 135.737 -0.92443 1.84764 0
M  V30 1412 C 136.145 -1.77146 0.664529 0
M  V30 1413 O 135.488 -1.79812 -0.375957 0
M  V30 1414 C 135.55 -1.86651 3.07248 0
M  V30 1415 C 135.214 -1.20094 4.40938 0
M  V30 1416 C 136.211 -0.575445 5.16706 0
M  V30 1417 C 133.896 -1.2033 4.87674 0
M  V30 1418 C 135.89 0.0388111 6.37388 0
M  V30 1419 C 133.577 -0.585214 6.08291 0
M  V30 1420 C 134.575 0.0347578 6.82991 0
M  V30 1421 O 134.263 0.643147 8.01323 0
M  V30 1422 H 133.995 -0.274974 0.617548 0
M  V30 1423 H 136.549 -0.200788 2.04416 0
M  V30 1424 H 134.779 -2.62998 2.83494 0
M  V30 1425 H 136.468 -2.46907 3.22167 0
M  V30 1426 H 137.234 -0.565728 4.81689 0
M  V30 1427 H 133.113 -1.67526 4.29484 0
M  V30 1428 H 136.657 0.523329 6.95634 0
M  V30 1429 H 132.554 -0.592451 6.42775 0
M  V30 1430 H 133.322 0.540545 8.16713 0
M  V30 1431 N 135.985 -1.50799 -0.457987 0
M  V30 1432 C 137.396 -1.55152 -1.0385 0
M  V30 1433 C 137.747 -0.362719 -1.92818 0
M  V30 1434 O 136.872 0.522915 -2.09987 0
M  V30 1435 C 137.467 -2.81173 -1.89017 0
M  V30 1436 C 136.026 -2.88164 -2.42154 0
M  V30 1437 C 135.173 -2.49591 -1.20829 0
M  V30 1438 H 138.124 -1.56874 -0.240068 0
M  V30 1439 H 138.145 -2.63769 -2.74238 0
M  V30 1440 H 137.657 -3.67677 -1.24238 0
M  V30 1441 H 135.758 -2.06042 -3.10447 0
M  V30 1442 H 135.871 -3.91356 -2.76364 0
M  V30 1443 H 134.235 -2.02322 -1.54719 0
M  V30 1444 H 135.018 -3.38418 -0.576927 0
M  V30 1445 N 137.463 0.71206 -1.40597 0
M  V30 1446 C 138.709 1.47416 -1.39271 0
M  V30 1447 C 139.042 1.942 0.00388791 0
M  V30 1448 O 138.317 1.68403 0.973179 0
M  V30 1449 C 138.6 2.69774 -2.38525 0
M  V30 1450 C 138.453 2.28861 -3.87224 0
M  V30 1451 C 139.772 3.71939 -2.35264 0
M  V30 1452 H 136.891 0.534713 -0.5072 0
M  V30 1453 H 139.533 0.812375 -1.71757 0
M  V30 1454 H 137.683 3.26238 -2.10953 0
M  V30 1455 H 139.355 1.77852 -4.25636 0
M  V30 1456 H 137.598 1.60824 -4.02887 0
M  V30 1457 H 138.269 3.16584 -4.52193 0
M  V30 1458 H 140.745 3.25113 -2.59694 0
M  V30 1459 H 139.621 4.55186 -3.06753 0
M  V30 1460 H 139.882 4.20484 -1.36549 0
M  V30 1461 N 138.941 1.26152 0.944643 0
M  V30 1462 C 140.166 1.14363 1.7302 0
M  V30 1463 C 140.591 -0.29772 1.85729 0
M  V30 1464 O 139.949 -1.2157 1.34501 0
M  V30 1465 C 139.997 1.81378 3.11664 0
M  V30 1466 O 139.101 1.10022 3.97453 0
M  V30 1467 H 138.442 0.398694 0.53098 0
M  V30 1468 H 140.972 1.66906 1.18337 0
M  V30 1469 H 140.982 1.88064 3.62072 0
M  V30 1470 H 139.657 2.86237 3.0173 0
M  V30 1471 H 138.234 1.11287 3.55907 0
M  V30 1472 N 140.419 -1.14872 1.07899 0
M  V30 1473 C 141.668 -1.85135 0.800499 0
M  V30 1474 C 141.981 -1.83547 -0.676014 0
M  V30 1475 O 143.187 -2.49548 -1.06948 0
M  V30 1476 C 141.643 -3.3231 1.38197 0
M  V30 1477 C 141.251 -3.42329 2.8899 0
M  V30 1478 C 142.995 -4.0772 1.18174 0
M  V30 1479 C 140.902 -4.83684 3.403 0
M  V30 1480 H 139.832 -0.693563 0.29578 0
M  V30 1481 H 142.483 -1.29532 1.29976 0
M  V30 1482 H 140.865 -3.87618 0.810431 0
M  V30 1483 H 142.039 -2.97097 3.52236 0
M  V30 1484 H 140.354 -2.80369 3.07867 0
M  V30 1485 H 142.951 -5.12049 1.5398 0
M  V30 1486 H 143.294 -4.16124 0.12117 0
M  V30 1487 H 143.827 -3.58696 1.71994 0
M  V30 1488 H 140.566 -4.80465 4.45907 0
M  V30 1489 H 140.086 -5.29474 2.81811 0
M  V30 1490 H 141.765 -5.52558 3.36584 0
M  V30 1491 N 141.898 -0.863906 -1.31812 0
M  V30 1492 C 143.314 -0.555004 -1.49639 0
M  V30 1493 C 143.514 0.912266 -1.79666 0
M  V30 1494 O 142.57 1.69479 -1.87171 0
M  V30 1495 C 143.883 -1.44998 -2.63431 0
M  V30 1496 C 145.431 -1.45138 -2.77316 0
M  V30 1497 C 145.906 -2.33179 -3.94197 0
M  V30 1498 N 147.397 -2.31025 -4.01474 0
M  V30 1499 C 148.132 -2.95871 -4.9117 0
M  V30 1500 N 147.628 -3.69863 -5.8581 0
M  V30 1501 N 149.421 -2.85211 -4.84367 0
M  V30 1502 H 141.572 -1.81339 -1.10589 0
M  V30 1503 H 143.835 -0.77505 -0.545895 0
M  V30 1504 H 143.541 -2.49377 -2.48 0
M  V30 1505 H 143.415 -1.14409 -3.59431 0
M  V30 1506 H 145.802 -0.415201 -2.92164 0
M  V30 1507 H 145.883 -1.79747 -1.82001 0
M  V30 1508 H 145.527 -3.3687 -3.80107 0
M  V30 1509 H 145.457 -1.95897 -4.88807 0
M  V30 1510 H 147.948 -1.77238 -3.33759 0
M  V30 1511 H 148.261 -4.16486 -6.50968 0
M  V30 1512 H 146.606 -3.73971 -5.85808 0
M  V30 1513 H 149.797 -2.26948 -4.09405 0
M  V30 1514 H 149.97 -3.36027 -5.54066 0
M  V30 1515 N 143.376 1.44774 -0.622745 0
M  V30 1516 C 144.623 2.02121 -0.1239 0
M  V30 1517 C 144.951 1.48915 1.25118 0
M  V30 1518 O 144.206 0.660045 1.84233 0
M  V30 1519 C 144.505 3.57364 -0.0508323 0
M  V30 1520 C 144.171 4.29787 -1.36358 0
M  V30 1521 C 142.833 4.4929 -1.72314 0
M  V30 1522 C 145.185 4.71062 -2.23048 0
M  V30 1523 C 142.513 5.07325 -2.94682 0
M  V30 1524 C 144.865 5.30452 -3.44679 0
M  V30 1525 C 143.529 5.48175 -3.80868 0
M  V30 1526 H 142.799 0.739612 -0.0453381 0
M  V30 1527 H 145.446 1.73648 -0.807389 0
M  V30 1528 H 143.751 3.85202 0.715991 0
M  V30 1529 H 145.448 3.99456 0.351533 0
M  V30 1530 H 142.038 4.14932 -1.07375 0
M  V30 1531 H 146.222 4.55715 -1.96565 0
M  V30 1532 H 141.478 5.19235 -3.22809 0
M  V30 1533 H 145.652 5.61385 -4.12092 0
M  V30 1534 H 143.279 5.92912 -4.75773 0
M  V30 1535 N 144.854 0.36279 1.53368 0
M  V30 1536 C 146.102 -0.227326 2.00817 0
M  V30 1537 C 146.423 -1.49511 1.25186 0
M  V30 1538 O 145.693 -1.92482 0.364348 0
M  V30 1539 H 144.273 -0.0869923 0.741917 0
M  V30 1540 H 146.935 0.488381 1.88682 0
M  V30 1541 H 146.031 -0.456273 3.08747 0
M  V30 1542 N 146.332 -1.57332 0.0918853 0
M  V30 1543 C 147.748 -1.57389 -0.264766 0
M  V30 1544 C 147.948 -1.10281 -1.68643 0
M  V30 1545 O 147.004 -0.777801 -2.40222 0
M  V30 1546 C 148.317 -3.00648 -0.0561195 0
M  V30 1547 C 149.865 -3.12754 -0.124116 0
M  V30 1548 C 150.34 -4.57965 0.0564972 0
M  V30 1549 N 151.831 -4.632 0.00155611 0
M  V30 1550 C 152.566 -5.73281 0.116598 0
M  V30 1551 N 152.062 -6.92208 0.286294 0
M  V30 1552 N 153.855 -5.6207 0.0580973 0
M  V30 1553 H 146.006 -1.86262 1.02079 0
M  V30 1554 H 148.269 -0.859579 0.399786 0
M  V30 1555 H 147.975 -3.393 0.925669 0
M  V30 1556 H 147.849 -3.68623 -0.799823 0
M  V30 1557 H 150.236 -2.73976 -1.09641 0
M  V30 1558 H 150.317 -2.47377 0.651024 0
M  V30 1559 H 149.961 -4.97436 1.02564 0
M  V30 1560 H 149.891 -5.21399 -0.738297 0
M  V30 1561 H 152.382 -3.77686 -0.127192 0
M  V30 1562 H 152.695 -7.71934 0.365676 0
M  V30 1563 H 151.04 -6.94254 0.32192 0
M  V30 1564 H 154.231 -4.68043 -0.0733204 0
M  V30 1565 H 154.404 -6.47824 0.151203 0
M  V30 1566 N 147.81 0.181792 -1.56548 0
M  V30 1567 C 149.221 0.745244 -1.71181 0
M  V30 1568 C 149.572 1.83262 -0.70068 0
M  V30 1569 O 148.697 2.15946 0.140154 0
M  V30 1570 C 149.292 1.35859 -3.10367 0
M  V30 1571 C 147.851 1.86898 -3.2672 0
M  V30 1572 C 146.998 0.743942 -2.67134 0
M  V30 1573 H 149.949 -0.0434661 -1.5864 0
M  V30 1574 H 149.97 2.22817 -3.08436 0
M  V30 1575 H 149.482 0.566948 -3.83937 0
M  V30 1576 H 147.583 2.68738 -2.5809 0
M  V30 1577 H 147.696 2.02162 -4.34359 0
M  V30 1578 H 146.06 1.16169 -2.26665 0
M  V30 1579 H 146.843 -0.035676 -3.43281 0
M  V30 1580 N 149.288 1.51039 0.449983 0
M  V30 1581 C 150.704 1.38934 0.785462 0
M  V30 1582 C 150.904 0.461817 1.96136 0
M  V30 1583 O 149.96 -0.0877389 2.52348 0
M  V30 1584 C 151.273 2.80724 1.0777 0
M  V30 1585 C 152.821 2.89787 1.1829 0
M  V30 1586 C 153.296 4.32457 1.50815 0
M  V30 1587 N 154.787 4.35505 1.57764 0
M  V30 1588 C 155.522 5.42914 1.84477 0
M  V30 1589 N 155.018 6.60502 2.09068 0
M  V30 1590 N 156.811 5.3038 1.86155 0
M  V30 1591 H 148.962 2.09904 -0.324647 0
M  V30 1592 H 151.225 0.944378 -0.0827957 0
M  V30 1593 H 150.931 3.50531 0.286498 0
M  V30 1594 H 150.805 3.19273 2.00859 0
M  V30 1595 H 153.192 2.20186 1.96474 0
M  V30 1596 H 153.273 2.54752 0.231314 0
M  V30 1597 H 152.917 5.02603 0.731622 0
M  V30 1598 H 152.847 4.64995 2.47158 0
M  V30 1599 H 155.338 3.50724 1.40715 0
M  V30 1600 H 155.651 7.38158 2.28785 0
M  V30 1601 H 153.996 6.63639 2.06416 0
M  V30 1602 H 157.187 4.37505 1.66454 0
M  V30 1603 H 157.36 6.1417 2.06637 0
M  V30 1604 N 150.766 -0.704594 1.40972 0
M  V30 1605 C 151.696 -1.83124 1.44872 0
M  V30 1606 C 152.677 -1.67281 0.30838 0
M  V30 1607 O 153.862 -1.87149 0.518556 0
M  V30 1608 C 150.992 -3.21181 1.32136 0
M  V30 1609 C 149.946 -3.51714 2.43888 0
M  V30 1610 C 149.272 -4.89032 2.16222 0
M  V30 1611 C 150.572 -3.516 3.86232 0
M  V30 1612 H 152.266 -1.80117 2.39161 0
M  V30 1613 H 149.812 -0.865145 1.15114 0
M  V30 1614 H 151.765 -3.99702 1.33479 0
M  V30 1615 H 150.489 -3.24791 0.343279 0
M  V30 1616 H 149.148 -2.75539 2.41813 0
M  V30 1617 H 148.796 -4.89256 1.16778 0
M  V30 1618 H 148.496 -5.10426 2.911 0
M  V30 1619 H 150.02 -5.69873 2.19265 0
M  V30 1620 H 151.434 -4.2014 3.9007 0
M  V30 1621 H 149.831 -3.84523 4.60719 0
M  V30 1622 H 150.901 -2.50757 4.15029 0
M  V30 1623 N 152.244 -1.26651 -0.937939 0
M  V30 1624 C 153.472 -1.15173 -1.7188 0
M  V30 1625 C 153.887 0.292668 -1.86518 0
M  V30 1626 O 153.244 1.20014 -1.37488 0
M  V30 1627 C 153.295 -1.81925 -3.12387 0
M  V30 1628 O 153.016 -3.2072 -2.98446 0
M  V30 1629 C 154.517 -1.76442 -4.06673 0
M  V30 1630 H 151.737 -0.400911 -0.538063 0
M  V30 1631 H 154.281 -1.67332 -1.1756 0
M  V30 1632 H 152.436 -1.33696 -3.63599 0
M  V30 1633 H 152.85 -3.53802 -3.872 0
M  V30 1634 H 154.324 -2.27781 -5.02812 0
M  V30 1635 H 154.801 -0.731608 -4.33064 0
M  V30 1636 H 155.407 -2.24238 -3.61382 0
M  V30 1637 N 153.722 1.14298 -1.08507 0
M  V30 1638 C 154.947 1.8976 -0.837001 0
M  V30 1639 C 155.372 1.78097 0.605228 0
M  V30 1640 O 154.73 1.12188 1.4242 0
M  V30 1641 C 154.778 3.37685 -1.26495 0
M  V30 1642 O 153.882 4.10281 -0.417514 0
M  V30 1643 H 153.223 0.590365 -0.303917 0
M  V30 1644 H 155.753 1.44672 -1.44676 0
M  V30 1645 H 155.763 3.88501 -1.24625 0
M  V30 1646 H 154.438 3.45492 -2.31534 0
M  V30 1647 H 153.015 3.69536 -0.499722 0
M  V30 1648 N 155.201 0.870884 1.31352 0
M  V30 1649 C 156.149 0.316445 2.30437 0
M  V30 1650 C 157.143 -0.568965 1.59559 0
M  V30 1651 O 158.349 -0.454964 1.74155 0
M  V30 1652 H 154.724 0.0836521 0.747333 0
M  V30 1653 H 156.695 1.16606 2.74673 0
M  V30 1654 C 155.444 -0.46635 3.44558 0
M  V30 1655 H 154.767 0.205687 3.99271 0
M  V30 1656 H 156.207 -0.819614 4.16003 0
M  V30 1657 C 154.666 -1.65797 2.9328 0
M  V30 1658 O 155.196 -2.75728 2.92125 0
M  V30 1659 N 153.402 -1.49041 2.4947 0
M  V30 1660 H 152.949 -0.59612 2.50608 0
M  V30 1661 H 152.907 -2.28911 2.15516 0
M  V30 1662 N 156.679 -1.44442 0.630414 0
M  V30 1663 C 157.589 -2.34476 -0.0761693 0
M  V30 1664 C 158.605 -1.52576 -0.836449 0
M  V30 1665 O 159.781 -1.85307 -0.788874 0
M  V30 1666 C 156.846 -3.30545 -1.04599 0
M  V30 1667 C 155.907 -4.28352 -0.28516 0
M  V30 1668 C 155.14 -5.19831 -1.20878 0
M  V30 1669 O 155.363 -5.15223 -2.44747 0
M  V30 1670 O 154.297 -5.97892 -0.693491 0
M  V30 1671 H 158.123 -2.96345 0.664324 0
M  V30 1672 H 155.708 -1.44203 0.39061 0
M  V30 1673 H 157.59 -3.89681 -1.60396 0
M  V30 1674 H 156.265 -2.7121 -1.76711 0
M  V30 1675 H 155.172 -3.72764 0.315837 0
M  V30 1676 H 156.505 -4.90605 0.395924 0
M  V30 1677 N 158.157 -0.370918 -1.53173 0
M  V30 1678 C 159.104 0.473035 -2.259 0
M  V30 1679 C 160.074 1.07311 -1.26781 0
M  V30 1680 O 161.259 1.1046 -1.55574 0
M  V30 1681 C 158.399 1.60405 -3.05556 0
M  V30 1682 C 157.512 1.02863 -4.19575 0
M  V30 1683 C 156.647 2.12918 -4.86661 0
M  V30 1684 C 155.686 1.52869 -5.92704 0
M  V30 1685 N 154.823 2.56779 -6.53459 0
M  V30 1686 H 159.663 -0.153649 -2.97604 0
M  V30 1687 H 157.2 -0.0875946 -1.46839 0
M  V30 1688 H 159.158 2.27034 -3.50016 0
M  V30 1689 H 157.788 2.20131 -2.36097 0
M  V30 1690 H 156.84 0.252465 -3.79561 0
M  V30 1691 H 158.152 0.549642 -4.95762 0
M  V30 1692 H 157.306 2.87356 -5.34333 0
M  V30 1693 H 156.045 2.6417 -4.09958 0
M  V30 1694 H 155.05 0.769479 -5.44389 0
M  V30 1695 H 156.275 1.02435 -6.7133 0
M  V30 1696 H 154.221 3.07235 -5.79606 0
M  V30 1697 H 154.138 2.13583 -7.25202 0
M  V30 1698 H 155.406 3.30903 -7.05779 0
M  V30 1699 N 159.635 1.57281 -0.100228 0
M  V30 1700 C 160.565 2.17328 0.853857 0
M  V30 1701 C 161.546 1.10804 1.2906 0
M  V30 1702 O 162.731 1.38963 1.35657 0
M  V30 1703 C 159.861 2.75772 2.11109 0
M  V30 1704 C 158.815 3.87713 1.81279 0
M  V30 1705 C 158.141 4.32882 3.13874 0
M  V30 1706 C 159.441 5.10677 1.09574 0
M  V30 1707 H 161.135 2.97305 0.353545 0
M  V30 1708 H 158.681 1.43009 0.168612 0
M  V30 1709 H 160.634 3.16433 2.78296 0
M  V30 1710 H 159.358 1.93057 2.63432 0
M  V30 1711 H 158.017 3.476 1.16489 0
M  V30 1712 H 157.665 3.47051 3.64095 0
M  V30 1713 H 157.365 5.08358 2.94696 0
M  V30 1714 H 158.889 4.7618 3.82211 0
M  V30 1715 H 160.303 5.48474 1.66879 0
M  V30 1716 H 158.7 5.91615 1.00557 0
M  V30 1717 H 159.77 4.84835 0.0793299 0
M  V30 1718 N 161.113 -0.173488 1.56642 0
M  V30 1719 C 162.046 -1.24353 1.91342 0
M  V30 1720 C 163.024 -1.4289 0.775965 0
M  V30 1721 O 164.208 -1.57932 1.02907 0
M  V30 1722 C 161.335 -2.60683 2.16245 0
M  V30 1723 C 160.381 -2.58894 3.38934 0
M  V30 1724 S 161.214 -2.0819 4.93373 0
M  V30 1725 C 162.37 -3.46302 5.21369 0
M  V30 1726 H 162.603 -0.947345 2.81803 0
M  V30 1727 H 160.136 -0.377958 1.49703 0
M  V30 1728 H 162.094 -3.39149 2.31275 0
M  V30 1729 H 160.755 -2.87502 1.26496 0
M  V30 1730 H 159.948 -3.59188 3.53553 0
M  V30 1731 H 159.55 -1.88522 3.2301 0
M  V30 1732 H 161.842 -4.42287 5.13214 0
M  V30 1733 H 162.785 -3.3656 6.23003 0
M  V30 1734 H 163.193 -3.42214 4.48943 0
M  V30 1735 N 162.591 -1.51276 -0.441967 0
M  V30 1736 C 163.521 -1.752 -1.54361 0
M  V30 1737 C 164.502 -0.601682 -1.59103 0
M  V30 1738 O 165.687 -0.843913 -1.74905 0
M  V30 1739 C 162.817 -1.87282 -2.92477 0
M  V30 1740 C 161.771 -3.02687 -3.02596 0
M  V30 1741 C 161.097 -2.99947 -4.42647 0
M  V30 1742 C 162.397 -4.4273 -2.77106 0
M  V30 1743 H 164.091 -2.67442 -1.34592 0
M  V30 1744 H 161.637 -1.28694 -0.646048 0
M  V30 1745 H 163.59 -2.02602 -3.695 0
M  V30 1746 H 162.314 -0.916844 -3.13467 0
M  V30 1747 H 160.973 -2.87065 -2.28012 0
M  V30 1748 H 160.621 -2.02136 -4.60597 0
M  V30 1749 H 160.321 -3.77439 -4.50348 0
M  V30 1750 H 161.845 -3.17354 -5.2165 0
M  V30 1751 H 163.259 -4.58727 -3.43864 0
M  V30 1752 H 161.656 -5.21893 -2.96222 0
M  V30 1753 H 162.726 -4.53087 -1.72744 0
M  V30 1754 N 164.069 0.697108 -1.41344 0
M  V30 1755 C 165.032 1.79281 -1.42797 0
M  V30 1756 C 166.032 1.57607 -0.318837 0
M  V30 1757 O 167.222 1.64309 -0.578642 0
M  V30 1758 C 164.354 3.17632 -1.23785 0
M  V30 1759 H 165.547 1.79385 -2.40335 0
M  V30 1760 H 163.1 0.904582 -1.27464 0
M  V30 1761 H 163.835 3.23167 -0.270814 0
M  V30 1762 H 163.62 3.34765 -2.04144 0
M  V30 1763 H 165.11 3.97617 -1.27633 0
M  V30 1764 N 165.547 1.27147 0.931209 0
M  V30 1765 C 166.772 1.16191 1.71797 0
M  V30 1766 C 167.197 -0.278004 1.86034 0
M  V30 1767 O 166.555 -1.20137 1.35782 0
M  V30 1768 C 166.603 1.84673 3.09723 0
M  V30 1769 O 165.707 1.14231 3.96264 0
M  V30 1770 H 165.048 0.404303 0.526721 0
M  V30 1771 H 167.578 1.68152 1.1656 0
M  V30 1772 H 167.588 1.91893 3.60057 0
M  V30 1773 H 166.263 2.89421 2.98677 0
M  V30 1774 H 164.84 1.15056 3.54706 0
M  V30 1775 N 167.025 -1.13721 1.09112 0
M  V30 1776 C 167.958 -2.18094 0.67158 0
M  V30 1777 C 168.936 -1.59414 -0.320299 0
M  V30 1778 O 170.12 -1.87183 -0.222444 0
M  V30 1779 C 167.247 -3.38698 -0.0111189 0
M  V30 1780 C 166.293 -4.15966 0.942055 0
M  V30 1781 S 167.126 -4.7604 2.45246 0
M  V30 1782 C 168.282 -5.99994 1.78208 0
M  V30 1783 H 168.515 -2.53344 1.55577 0
M  V30 1784 H 166.048 -1.24967 0.906789 0
M  V30 1785 H 168.006 -4.08559 -0.398716 0
M  V30 1786 H 166.667 -3.01756 -0.871905 0
M  V30 1787 H 165.86 -5.02318 0.411396 0
M  V30 1788 H 165.462 -3.51745 1.2709 0
M  V30 1789 H 167.754 -6.68441 1.10424 0
M  V30 1790 H 168.697 -6.57662 2.62463 0
M  V30 1791 H 169.105 -5.50432 1.25238 0
M  V30 1792 N 168.503 -0.877838 -1.30888 0
M  V30 1793 C 169.75 -0.492696 -1.96415 0
M  V30 1794 C 170.078 0.956671 -1.69346 0
M  V30 1795 O 169.333 1.68993 -0.986913 0
M  V30 1796 C 169.632 -0.705748 -3.50363 0
M  V30 1797 C 169.298 -2.1291 -3.97467 0
M  V30 1798 C 167.96 -2.51834 -4.1004 0
M  V30 1799 C 170.312 -3.05702 -4.22132 0
M  V30 1800 C 167.64 -3.82775 -4.44635 0
M  V30 1801 C 169.992 -4.36166 -4.58194 0
M  V30 1802 C 168.656 -4.74993 -4.68975 0
M  V30 1803 H 167.926 -0.18029 -0.718733 0
M  V30 1804 H 170.573 -1.11233 -1.55883 0
M  V30 1805 H 168.878 -0.00303058 -3.918 0
M  V30 1806 H 170.575 -0.387456 -3.99124 0
M  V30 1807 H 167.165 -1.81694 -3.88182 0
M  V30 1808 H 171.349 -2.76853 -4.11906 0
M  V30 1809 H 166.605 -4.12609 -4.51181 0
M  V30 1810 H 170.779 -5.08111 -4.76231 0
M  V30 1811 H 168.406 -5.76495 -4.95537 0
M  V30 1812 N 169.982 1.44106 -0.638065 0
M  V30 1813 C 170.932 2.27843 0.0847285 0
M  V30 1814 C 171.916 1.39055 0.809471 0
M  V30 1815 O 173.108 1.62808 0.694435 0
M  V30 1816 C 170.237 3.26497 1.06089 0
M  V30 1817 C 169.323 4.22772 0.33541 0
M  V30 1818 N 169.714 5.01737 -0.639787 0
M  V30 1819 C 168.012 4.42227 0.578921 0
M  V30 1820 C 168.713 5.71792 -1.06904 0
M  V30 1821 N 167.689 5.42079 -0.406395 0
M  V30 1822 H 171.491 2.86305 -0.663814 0
M  V30 1823 H 169.005 1.55627 -0.464122 0
M  V30 1824 H 171.002 3.8525 1.59337 0
M  V30 1825 H 169.662 2.69595 1.80966 0
M  V30 1826 H 170.673 5.07799 -1.01789 0
M  V30 1827 H 167.35 3.96415 1.31003 0
M  V30 1828 H 168.74 6.45205 -1.8751 0
M  V30 1829 N 171.46 0.379036 1.52974 0
M  V30 1830 C 172.685 -0.209353 2.06341 0
M  V30 1831 C 173.11 -1.40583 1.24972 0
M  V30 1832 O 172.468 -1.79246 0.272155 0
M  V30 1833 C 172.516 -0.567786 3.56102 0
M  V30 1834 O 171.62 -1.66318 3.77375 0
M  V30 1835 H 170.961 -0.0272919 0.663439 0
M  V30 1836 H 173.491 0.543536 1.97248 0
M  V30 1837 H 173.501 -0.835003 3.99364 0
M  V30 1838 H 172.176 0.307013 4.14765 0
M  V30 1839 H 170.753 -1.39048 3.46006 0
M  V30 1840 N 172.938 -1.57226 0.108567 0
M  V30 1841 C 173.868 -2.17778 -0.84232 0
M  V30 1842 C 174.849 -1.11487 -1.2847 0
M  V30 1843 O 176.034 -1.39681 -1.34918 0
M  V30 1844 C 173.164 -2.76888 -2.09644 0
M  V30 1845 C 172.118 -3.88669 -1.79221 0
M  V30 1846 C 171.444 -4.34541 -3.11574 0
M  V30 1847 C 172.744 -5.11251 -1.06864 0
M  V30 1848 H 174.438 -2.97489 -0.337774 0
M  V30 1849 H 171.984 -1.43097 -0.161025 0
M  V30 1850 H 173.937 -3.17904 -2.76614 0
M  V30 1851 H 172.661 -1.94451 -2.62405 0
M  V30 1852 H 171.32 -3.48213 -1.14644 0
M  V30 1853 H 170.968 -3.48977 -3.62249 0
M  V30 1854 H 170.668 -5.09914 -2.91996 0
M  V30 1855 H 172.192 -4.782 -3.7968 0
M  V30 1856 H 173.606 -5.49352 -1.63968 0
M  V30 1857 H 172.003 -5.9214 -0.974178 0
M  V30 1858 H 173.073 -4.8487 -0.0536168 0
M  V30 1859 N 174.416 0.165178 -1.56732 0
M  V30 1860 C 175.663 0.880807 -1.8234 0
M  V30 1861 C 175.991 1.81977 -0.686621 0
M  V30 1862 O 175.246 1.92971 0.325697 0
M  V30 1863 C 175.545 1.70405 -3.1416 0
M  V30 1864 C 175.211 0.913475 -4.4155 0
M  V30 1865 C 173.873 0.695303 -4.7615 0
M  V30 1866 C 176.225 0.359349 -5.1996 0
M  V30 1867 C 173.553 -0.0879947 -5.86634 0
M  V30 1868 C 175.905 -0.410893 -6.31264 0
M  V30 1869 C 174.569 -0.639808 -6.64427 0
M  V30 1870 H 173.839 0.32231 -0.667231 0
M  V30 1871 H 176.486 0.145402 -1.90947 0
M  V30 1872 H 174.791 2.50903 -3.00923 0
M  V30 1873 H 176.488 2.26091 -3.31186 0
M  V30 1874 H 173.078 1.09357 -4.14414 0
M  V30 1875 H 177.262 0.515228 -4.93618 0
M  V30 1876 H 172.518 -0.27503 -6.10781 0
M  V30 1877 H 176.692 -0.847494 -6.91224 0
M  V30 1878 H 174.319 -1.24864 -7.49875 0
M  V30 1879 N 175.894 1.51508 0.433938 0
M  V30 1880 C 176.857 1.72473 1.50949 0
M  V30 1881 C 177.857 0.594725 1.49398 0
M  V30 1882 O 179.047 0.862315 1.5136 0
M  V30 1883 C 176.179 1.78431 2.90474 0
M  V30 1884 H 177.372 2.68467 1.33662 0
M  V30 1885 H 174.925 1.41549 0.662836 0
M  V30 1886 H 175.66 0.842645 3.13161 0
M  V30 1887 H 175.445 2.60558 2.93005 0
M  V30 1888 H 176.935 1.96479 3.68491 0
M  V30 1889 N 177.372 -0.689602 1.41712 0
M  V30 1890 C 178.621 -1.44534 1.40686 0
M  V30 1891 C 178.934 -1.95588 0.0213352 0
M  V30 1892 O 180.14 -2.71271 -0.111534 0
M  V30 1893 C 178.596 -2.61387 2.47396 0
M  V30 1894 C 178.204 -2.17094 3.91885 0
M  V30 1895 C 179.948 -3.38986 2.55517 0
M  V30 1896 C 177.855 -3.3094 4.90135 0
M  V30 1897 H 176.785 -0.542925 0.52321 0
M  V30 1898 H 179.436 -0.748054 1.6756 0
M  V30 1899 H 177.818 -3.33412 2.13664 0
M  V30 1900 H 178.992 -1.52318 4.34897 0
M  V30 1901 H 177.307 -1.52473 3.8748 0
M  V30 1902 H 179.904 -4.23747 3.26102 0
M  V30 1903 H 180.247 -3.84578 1.59391 0
M  V30 1904 H 180.78 -2.74021 2.8837 0
M  V30 1905 H 177.519 -2.90355 5.87685 0
M  V30 1906 H 177.039 -3.94546 4.51767 0
M  V30 1907 H 178.718 -3.9663 5.11169 0
M  V30 1908 N 178.85 -1.27639 -0.924453 0
M  V30 1909 C 180.098 -1.13941 -1.66918 0
M  V30 1910 C 180.419 0.314589 -1.92446 0
M  V30 1911 O 179.689 1.21964 -1.53303 0
M  V30 1912 H 178.269 -0.418678 -0.618642 0
M  V30 1913 H 180.931 -1.60213 -1.10985 0
M  V30 1914 H 180.027 -1.67094 -2.63602 0
M  V30 1915 N 180.328 1.1314 -1.09713 0
M  V30 1916 C 181.553 1.88862 -0.857081 0
M  V30 1917 C 181.978 1.78729 0.586304 0
M  V30 1918 O 181.336 1.13692 1.41222 0
M  V30 1919 C 181.384 3.36325 -1.30069 0
M  V30 1920 O 180.488 4.09815 -0.461007 0
M  V30 1921 H 179.829 0.587108 -0.310162 0
M  V30 1922 H 182.359 1.43129 -1.46203 0
M  V30 1923 H 182.369 3.87157 -1.28738 0
M  V30 1924 H 181.044 3.43017 -2.35185 0
M  V30 1925 H 179.621 3.68986 -0.538888 0
M  V30 1926 N 181.806 0.884767 1.30421 0
M  V30 1927 C 182.738 0.308655 2.27112 0
M  V30 1928 C 183.751 -0.536655 1.53701 0
M  V30 1929 O 184.94 -0.35624 1.74909 0
M  V30 1930 C 182.04 -0.579782 3.33904 0
M  V30 1931 C 181.213 0.236417 4.36761 0
M  V30 1932 C 180.272 -0.582482 5.22966 0
M  V30 1933 O 179.298 -0.00525502 5.692 0
M  V30 1934 N 180.5 -1.89163 5.48815 0
M  V30 1935 H 183.265 1.13964 2.77186 0
M  V30 1936 H 180.826 0.747731 1.43599 0
M  V30 1937 H 182.818 -1.13366 3.88497 0
M  V30 1938 H 181.388 -1.31144 2.83761 0
M  V30 1939 H 180.608 0.97174 3.82035 0
M  V30 1940 H 181.896 0.795924 5.02536 0
M  V30 1941 H 181.294 -2.38352 5.13035 0
M  V30 1942 H 179.851 -2.39296 6.06284 0
M  V30 1943 N 183.284 -1.43765 0.645699 0
M  V30 1944 C 184.214 -2.33471 -0.0370477 0
M  V30 1945 C 185.195 -1.49042 -0.819779 0
M  V30 1946 O 186.38 -1.77726 -0.782758 0
M  V30 1947 C 183.51 -3.32311 -1.0093 0
M  V30 1948 C 182.464 -4.2667 -0.337201 0
M  V30 1949 C 181.79 -5.1549 -1.42037 0
M  V30 1950 C 183.09 -5.16657 0.765706 0
M  V30 1951 H 184.784 -2.90809 0.712069 0
M  V30 1952 H 182.33 -1.39834 0.343876 0
M  V30 1953 H 184.283 -3.9396 -1.49578 0
M  V30 1954 H 183.007 -2.73213 -1.78948 0
M  V30 1955 H 181.666 -3.66374 0.128771 0
M  V30 1956 H 181.314 -4.52735 -2.1918 0
M  V30 1957 H 181.014 -5.79438 -0.975966 0
M  V30 1958 H 182.538 -5.80012 -1.90838 0
M  V30 1959 H 183.952 -5.72158 0.361702 0
M  V30 1960 H 182.349 -5.89286 1.13413 0
M  V30 1961 H 183.419 -4.56796 1.62683 0
M  V30 1962 N 184.763 -0.387143 -1.52771 0
M  V30 1963 C 185.988 0.198407 -2.06449 0
M  V30 1964 C 186.413 1.39918 -1.25716 0
M  V30 1965 O 185.771 1.79099 -0.281657 0
M  V30 1966 C 185.819 0.548893 -3.56398 0
M  V30 1967 O 184.923 1.64315 -3.78252 0
M  V30 1968 H 184.264 0.0237731 -0.663574 0
M  V30 1969 H 186.794 -0.553989 -1.96957 0
M  V30 1970 H 186.804 0.813812 -3.99801 0
M  V30 1971 H 185.479 -0.329005 -4.14597 0
M  V30 1972 H 184.056 1.37211 -3.46738 0
M  V30 1973 N 186.241 1.57166 -0.116904 0
M  V30 1974 C 187.652 1.82169 0.408809 0
M  V30 1975 C 188.003 1.03393 1.66746 0
M  V30 1976 O 187.128 0.269886 2.1471 0
M  V30 1977 C 187.723 3.30429 0.748466 0
M  V30 1978 C 186.282 3.5612 1.21882 0
M  V30 1979 C 185.429 2.76374 0.226452 0
M  V30 1980 H 188.38 1.5497 -0.342063 0
M  V30 1981 H 188.401 3.44943 1.60607 0
M  V30 1982 H 187.913 3.87737 -0.167784 0
M  V30 1983 H 186.014 3.04168 2.15204 0
M  V30 1984 H 186.127 4.64705 1.16559 0
M  V30 1985 H 184.491 2.44515 0.713063 0
M  V30 1986 H 185.274 3.3644 -0.682859 0
M  V30 1987 N 187.719 -0.156864 1.56817 0
M  V30 1988 C 188.629 -1.2136 2.00771 0
M  V30 1989 C 189.645 -1.47598 0.921459 0
M  V30 1990 O 190.821 -1.59462 1.2302 0
M  V30 1991 C 187.886 -2.52943 2.37109 0
M  V30 1992 C 186.947 -2.34439 3.59634 0
M  V30 1993 C 186.18 -3.59748 3.94229 0
M  V30 1994 O 186.403 -4.65526 3.29609 0
M  V30 1995 O 185.337 -3.52998 4.8752 0
M  V30 1996 H 189.163 -0.870468 2.90958 0
M  V30 1997 H 186.748 -0.36484 1.44877 0
M  V30 1998 H 188.63 -3.30538 2.61386 0
M  V30 1999 H 187.305 -2.86806 1.5008 0
M  V30 2000 H 186.212 -1.54828 3.40557 0
M  V30 2001 H 187.545 -2.05496 4.4725 0
M  V30 2002 N 189.197 -1.51736 -0.425897 0
M  V30 2003 C 190.129 -1.70083 -1.53638 0
M  V30 2004 C 191.142 -0.581349 -1.52066 0
M  V30 2005 O 192.331 -0.856017 -1.56635 0
M  V30 2006 C 189.431 -1.71078 -2.9255 0
M  V30 2007 C 188.604 -2.99795 -3.185 0
M  V30 2008 C 187.663 -2.92825 -4.37196 0
M  V30 2009 O 186.689 -3.66756 -4.35291 0
M  V30 2010 N 187.891 -2.0946 -5.41393 0
M  V30 2011 H 190.656 -2.65882 -1.383 0
M  V30 2012 H 188.217 -1.49765 -0.614988 0
M  V30 2013 H 190.209 -1.63969 -3.69995 0
M  V30 2014 H 188.779 -0.828242 -3.01428 0
M  V30 2015 H 187.999 -3.20684 -2.2925 0
M  V30 2016 H 189.287 -3.84977 -3.32671 0
M  V30 2017 H 188.685 -1.48792 -5.45781 0
M  V30 2018 H 187.242 -2.08221 -6.17647 0
M  V30 2019 N 190.675 0.682077 -1.42076 0
M  V30 2020 C 191.923 1.4393 -1.41876 0
M  V30 2021 C 192.244 1.94971 -0.0335599 0
M  V30 2022 O 191.514 1.72591 0.926773 0
M  V30 2023 H 190.094 0.534085 -0.522267 0
M  V30 2024 H 192.756 0.806427 -1.77434 0
M  V30 2025 H 191.852 2.29588 -2.11414 0
M  V30 2026 N 192.153 1.28127 0.917671 0
M  V30 2027 C 193.378 1.18007 1.70555 0
M  V30 2028 C 193.803 -0.258257 1.86319 0
M  V30 2029 O 193.161 -1.1869 1.37049 0
M  V30 2030 C 193.209 1.87948 3.07746 0
M  V30 2031 O 192.313 1.18427 3.9503 0
M  V30 2032 H 191.654 0.409867 0.522403 0
M  V30 2033 H 194.184 1.69379 1.1477 0
M  V30 2034 H 194.194 1.95701 3.58001 0
M  V30 2035 H 192.869 2.92573 2.95591 0
M  V30 2036 H 191.446 1.18811 3.53466 0
M  V30 2037 N 193.631 -1.12557 1.10312 0
M  V30 2038 C 194.856 -1.88405 0.867085 0
M  V30 2039 C 195.281 -1.79038 -0.576817 0
M  V30 2040 O 194.639 -1.14439 -1.40618 0
M  V30 2041 C 194.687 -3.3563 1.31851 0
M  V30 2042 O 193.791 -4.09565 0.482734 0
M  V30 2043 H 193.132 -0.585455 0.313271 0
M  V30 2044 H 195.662 -1.42352 1.4696 0
M  V30 2045 H 195.672 -3.86469 1.3079 0
M  V30 2046 H 194.347 -3.41765 2.37001 0
M  V30 2047 H 192.924 -3.68695 0.558448 0
M  V30 2048 N 195.109 -0.891671 -1.2995 0
M  V30 2049 C 196.357 -0.512486 -1.95494 0
M  V30 2050 C 196.678 0.942776 -1.70695 0
M  V30 2051 O 195.948 1.66374 -1.03424 0
M  V30 2052 H 194.528 -0.186533 -0.723336 0
M  V30 2053 H 197.19 -1.13621 -1.58355 0
M  V30 2054 H 196.286 -0.688342 -3.04415 0
M  V30 2055 N 196.587 1.43421 -0.653314 0
M  V30 2056 C 197.836 2.01032 -0.164076 0
M  V30 2057 C 198.149 1.52147 1.22926 0
M  V30 2058 O 199.355 2.02031 1.81371 0
M  V30 2059 C 197.811 3.59082 -0.24252 0
M  V30 2060 C 197.419 4.1696 -1.63855 0
M  V30 2061 C 199.163 4.24079 0.18911 0
M  V30 2062 C 197.07 5.67304 -1.67092 0
M  V30 2063 H 196 0.751798 -0.0575769 0
M  V30 2064 H 198.651 1.6439 -0.815362 0
M  V30 2065 H 197.033 3.93125 0.476276 0
M  V30 2066 H 198.207 3.94416 -2.38271 0
M  V30 2067 H 196.522 3.64335 -2.01616 0
M  V30 2068 H 199.119 5.34381 0.184775 0
M  V30 2069 H 199.462 3.98005 1.22056 0
M  V30 2070 H 199.995 3.94918 -0.477938 0
M  V30 2071 H 196.734 5.98145 -2.68146 0
M  V30 2072 H 196.254 5.91904 -0.970014 0
M  V30 2073 H 197.933 6.31344 -1.4147 0
M  V30 2074 N 198.065 0.39524 1.52563 0
M  V30 2075 C 198.975 -0.444232 2.30356 0
M  V30 2076 C 199.991 -1.06615 1.37511 0
M  V30 2077 O 201.167 -1.07067 1.70583 0
M  V30 2078 C 198.232 -1.55315 3.09964 0
M  V30 2079 C 197.293 -0.955734 4.18526 0
M  V30 2080 C 196.526 -2.01181 4.9433 0
M  V30 2081 O 196.749 -3.22781 4.70285 0
M  V30 2082 O 195.683 -1.62579 5.79527 0
M  V30 2083 H 199.509 0.189667 3.03107 0
M  V30 2084 H 197.094 0.1588 1.48554 0
M  V30 2085 H 198.976 -2.19724 3.59582 0
M  V30 2086 H 197.651 -2.17191 2.4002 0
M  V30 2087 H 196.558 -0.274743 3.7309 0
M  V30 2088 H 197.891 -0.381109 4.90722 0
M  V30 2089 N 199.544 -1.57102 0.125237 0
M  V30 2090 C 200.477 -2.11371 -0.860094 0
M  V30 2091 C 201.455 -1.03168 -1.25679 0
M  V30 2092 O 202.639 -1.30862 -1.35674 0
M  V30 2093 C 199.766 -2.61555 -2.1519 0
M  V30 2094 C 198.812 -3.81701 -1.9028 0
M  V30 2095 S 199.645 -5.23797 -1.11343 0
M  V30 2096 C 200.801 -5.77353 -2.41689 0
M  V30 2097 H 201.034 -2.94617 -0.39852 0
M  V30 2098 H 198.567 -1.54145 -0.0886555 0
M  V30 2099 H 200.525 -2.91122 -2.89411 0
M  V30 2100 H 199.186 -1.78479 -2.58465 0
M  V30 2101 H 198.379 -4.14985 -2.86014 0
M  V30 2102 H 197.981 -3.52783 -1.24178 0
M  V30 2103 H 200.273 -5.87458 -3.37489 0
M  V30 2104 H 201.216 -6.75323 -2.12942 0
M  V30 2105 H 201.624 -5.05457 -2.51342 0
M  V30 2106 N 201.022 0.148545 -1.56898 0
M  V30 2107 C 201.952 1.18524 -2.01182 0
M  V30 2108 C 202.933 1.4489 -0.891123 0
M  V30 2109 O 204.118 1.55836 -1.15882 0
M  V30 2110 C 201.248 2.51879 -2.39112 0
M  V30 2111 C 200.202 2.40038 -3.54353 0
M  V30 2112 C 199.528 3.78089 -3.78091 0
M  V30 2113 C 200.828 1.88577 -4.87069 0
M  V30 2114 H 202.522 0.817029 -2.88036 0
M  V30 2115 H 200.068 0.391575 -1.38574 0
M  V30 2116 H 202.021 3.24627 -2.68692 0
M  V30 2117 H 200.745 2.90532 -1.49193 0
M  V30 2118 H 199.404 1.69742 -3.24936 0
M  V30 2119 H 199.052 4.14175 -2.85426 0
M  V30 2120 H 198.752 3.71028 -4.55645 0
M  V30 2121 H 200.276 4.52387 -4.10095 0
M  V30 2122 H 201.69 2.51117 -5.15377 0
M  V30 2123 H 200.087 1.9241 -5.68417 0
M  V30 2124 H 201.157 0.84136 -4.77545 0
M  V30 2125 N 202.5 1.5196 0.417844 0
M  V30 2126 C 203.41 1.77554 1.53336 0
M  V30 2127 C 204.426 0.660655 1.6097 0
M  V30 2128 O 205.602 0.945099 1.77848 0
M  V30 2129 C 202.667 1.91291 2.89152 0
M  V30 2130 C 201.728 3.15183 2.91475 0
M  V30 2131 C 200.961 3.28256 4.20813 0
M  V30 2132 O 201.184 2.46798 5.14244 0
M  V30 2133 O 200.118 4.21356 4.29817 0
M  V30 2134 H 203.944 2.7222 1.34647 0
M  V30 2135 H 201.529 1.36698 0.602828 0
M  V30 2136 H 203.411 2.02199 3.69721 0
M  V30 2137 H 202.086 0.998129 3.07927 0
M  V30 2138 H 200.993 3.09739 2.09791 0
M  V30 2139 H 202.326 4.06414 2.77648 0
M  V30 2140 N 203.978 -0.674533 1.42435 0
M  V30 2141 C 205.206 -1.46283 1.46317 0
M  V30 2142 C 205.621 -1.88653 0.0745836 0
M  V30 2143 O 204.978 -1.58151 -0.91074 0
M  V30 2144 C 205.029 -2.71178 2.3905 0
M  V30 2145 O 204.75 -2.30586 3.72507 0
M  V30 2146 C 206.251 -3.64738 2.51955 0
M  V30 2147 H 203.471 -0.450104 0.497642 0
M  V30 2148 H 206.015 -0.828792 1.86953 0
M  V30 2149 H 204.17 -3.3077 2.01667 0
M  V30 2150 H 204.584 -3.11241 4.22172 0
M  V30 2151 H 206.058 -4.49096 3.20962 0
M  V30 2152 H 206.535 -4.10656 1.55752 0
M  V30 2153 H 207.141 -3.11038 2.90061 0
M  V30 2154 N 205.456 -1.28612 -0.910864 0
M  V30 2155 C 206.733 -1.06632 -1.63979 0
M  V30 2156 C 207.113 0.393351 -2.07403 0
M  V30 2157 O 206.461 1.37999 -1.82122 0
M  V30 2158 C 206.671 -2.0436 -2.8291 0
M  V30 2159 C 208.019 -2.34666 -3.5386 0
M  V30 2160 O 209.043 -2.02467 -2.93062 0
M  V30 2161 O 207.902 -2.89631 -4.63439 0
M  V30 2162 H 204.996 -0.407737 -0.7195 0
M  V30 2163 H 207.542 -1.39942 -0.959914 0
M  V30 2164 H 206.314 -3.02727 -2.47936 0
M  V30 2165 H 205.937 -1.71714 -3.58609 0
M  V30 2166 N 206.934 1.1197 -1.10907 0
M  V30 2167 C 208.162 1.87402 -0.876824 0
M  V30 2168 C 208.577 1.79894 0.573025 0
M  V30 2169 O 207.934 1.17629 1.39534 0
M  V30 2170 C 207.985 3.36428 -1.32282 0
M  V30 2171 O 207.706 3.43765 -2.71582 0
M  V30 2172 C 209.207 4.28783 -1.12518 0
M  V30 2173 H 206.427 0.592793 -0.314384 0
M  V30 2174 H 208.971 1.41649 -1.47499 0
M  V30 2175 H 207.126 3.79706 -0.768229 0
M  V30 2176 H 207.54 4.3652 -2.90776 0
M  V30 2177 H 209.014 5.31613 -1.48633 0
M  V30 2178 H 209.491 4.39153 -0.0642394 0
M  V30 2179 H 210.097 3.91291 -1.66648 0
M  V30 2180 N 208.412 0.89855 1.29475 0
M  V30 2181 C 209.659 0.523882 1.95606 0
M  V30 2182 C 209.987 -0.929608 1.70847 0
M  V30 2183 O 209.242 -1.67401 1.01367 0
M  V30 2184 C 209.541 0.761398 3.49195 0
M  V30 2185 C 209.207 2.19207 3.94029 0
M  V30 2186 C 207.869 2.58326 4.05982 0
M  V30 2187 C 210.221 3.12379 4.17216 0
M  V30 2188 C 207.549 3.898 4.38489 0
M  V30 2189 C 209.901 4.43401 4.51197 0
M  V30 2190 C 208.565 4.82394 4.61359 0
M  V30 2191 H 207.835 0.191702 0.715773 0
M  V30 2192 H 210.482 1.13699 1.54094 0
M  V30 2193 H 208.787 0.0653622 3.91745 0
M  V30 2194 H 210.484 0.450904 3.98457 0
M  V30 2195 H 207.074 1.87846 3.85242 0
M  V30 2196 H 211.258 2.83371 4.07449 0
M  V30 2197 H 206.514 4.19734 4.44559 0
M  V30 2198 H 210.688 5.15623 4.68087 0
M  V30 2199 H 208.315 5.84306 4.86303 0
M  V30 2200 N 209.89 -1.43072 0.660911 0
M  V30 2201 C 210.837 -2.30785 -0.0259884 0
M  V30 2202 C 211.807 -1.45184 -0.806888 0
M  V30 2203 O 212.992 -1.74041 -0.781943 0
M  V30 2204 C 210.132 -3.30861 -0.981067 0
M  V30 2205 C 209.245 -4.31558 -0.195458 0
M  V30 2206 C 208.38 -5.18712 -1.14503 0
M  V30 2207 C 207.419 -6.11097 -0.350299 0
M  V30 2208 N 206.556 -6.90849 -1.25186 0
M  V30 2209 H 211.396 -2.88975 0.727846 0
M  V30 2210 H 208.933 -1.42353 0.370682 0
M  V30 2211 H 210.891 -3.87399 -1.54849 0
M  V30 2212 H 209.521 -2.74304 -1.70169 0
M  V30 2213 H 208.573 -3.77252 0.488374 0
M  V30 2214 H 209.885 -4.9701 0.422176 0
M  V30 2215 H 209.039 -5.79914 -1.78284 0
M  V30 2216 H 207.778 -4.53404 -1.79656 0
M  V30 2217 H 206.783 -5.48976 0.300808 0
M  V30 2218 H 208.008 -6.7845 0.296941 0
M  V30 2219 H 205.954 -6.28182 -1.89005 0
M  V30 2220 H 205.871 -7.52854 -0.688971 0
M  V30 2221 H 207.139 -7.5655 -1.87757 0
M  V30 2222 N 211.368 -0.403325 -1.52352 0
M  V30 2223 C 212.298 0.416205 -2.29761 0
M  V30 2224 C 213.279 1.05123 -1.33728 0
M  V30 2225 O 214.464 1.06134 -1.62632 0
M  V30 2226 C 211.594 1.53624 -3.11475 0
M  V30 2227 C 210.548 1.02653 -4.15507 0
M  V30 2228 C 209.874 2.23971 -4.85532 0
M  V30 2229 C 211.174 0.08463 -5.22231 0
M  V30 2230 H 212.868 -0.229701 -2.98518 0
M  V30 2231 H 210.414 -0.111913 -1.43564 0
M  V30 2232 H 212.367 2.1165 -3.64393 0
M  V30 2233 H 211.091 2.20994 -2.40477 0
M  V30 2234 H 209.75 0.46871 -3.63591 0
M  V30 2235 H 209.398 2.89883 -4.11068 0
M  V30 2236 H 209.098 1.90521 -5.55856 0
M  V30 2237 H 210.622 2.82614 -5.41259 0
M  V30 2238 H 212.036 0.573509 -5.70424 0
M  V30 2239 H 210.433 -0.160783 -5.99885 0
M  V30 2240 H 211.503 -0.86237 -4.7717 0
M  V30 2241 N 212.846 1.57033 -0.133567 0
M  V30 2242 C 213.796 2.12641 0.822671 0
M  V30 2243 C 214.78 1.05081 1.21847 0
M  V30 2244 O 215.972 1.31287 1.18713 0
M  V30 2245 C 213.101 2.74094 2.06706 0
M  V30 2246 C 212.187 3.88757 1.69497 0
M  V30 2247 N 212.578 4.95194 1.03037 0
M  V30 2248 C 210.876 3.99213 1.98859 0
M  V30 2249 C 211.577 5.75414 0.852873 0
M  V30 2250 N 210.553 5.25726 1.3825 0
M  V30 2251 H 214.355 2.92308 0.305537 0
M  V30 2252 H 211.869 1.62256 0.0684276 0
M  V30 2253 H 213.866 3.12285 2.76195 0
M  V30 2254 H 212.526 1.95896 2.5895 0
M  V30 2255 H 213.537 5.13247 0.692669 0
M  V30 2256 H 210.214 3.32075 2.53047 0
M  V30 2257 H 211.604 6.71089 0.330091 0
M  V30 2258 N 214.325 -0.140222 1.56975 0
M  V30 2259 C 215.565 -0.857823 1.85528 0
M  V30 2260 C 215.929 -1.78039 0.718768 0
M  V30 2261 O 217.13 -2.53795 0.885521 0
M  V30 2262 C 215.401 -1.60615 3.19277 0
M  V30 2263 S 216.96 -2.36824 3.69405 0
M  V30 2264 H 213.778 -0.286727 0.650622 0
M  V30 2265 H 216.38 -0.117408 1.95147 0
M  V30 2266 H 215.084 -0.919994 3.99955 0
M  V30 2267 H 214.615 -2.38735 3.12681 0
M  V30 2268 H 216.63 -3.62148 3.3921 0
M  V30 2269 N 215.803 -1.52179 -0.40978 0
M  V30 2270 C 217.033 -1.69807 -1.17682 0
M  V30 2271 C 217.441 -0.406908 -1.84773 0
M  V30 2272 O 216.784 0.626863 -1.72673 0
M  V30 2273 C 216.846 -2.77712 -2.2829 0
M  V30 2274 C 216.51 -4.19481 -1.81341 0
M  V30 2275 C 217.507 -5.03345 -1.30154 0
M  V30 2276 C 215.192 -4.65713 -1.88194 0
M  V30 2277 C 217.186 -6.31511 -0.864416 0
M  V30 2278 C 214.873 -5.93869 -1.44093 0
M  V30 2279 C 215.871 -6.76597 -0.933023 0
M  V30 2280 O 215.559 -8.02354 -0.49838 0
M  V30 2281 H 215.291 -0.572372 -0.359675 0
M  V30 2282 H 217.845 -1.99511 -0.488311 0
M  V30 2283 H 216.075 -2.43383 -3.00502 0
M  V30 2284 H 217.764 -2.83946 -2.90051 0
M  V30 2285 H 218.53 -4.68819 -1.24232 0
M  V30 2286 H 214.409 -4.01424 -2.26671 0
M  V30 2287 H 217.953 -6.96033 -0.467286 0
M  V30 2288 H 213.85 -6.27903 -1.49694 0
M  V30 2289 H 214.618 -8.16135 -0.621747 0
M  V30 2290 N 217.281 0.66697 -1.42791 0
M  V30 2291 C 218.213 1.7925 -1.42836 0
M  V30 2292 C 219.226 1.59496 -0.326333 0
M  V30 2293 O 220.415 1.6847 -0.589916 0
M  V30 2294 C 217.515 3.16476 -1.21229 0
M  V30 2295 C 216.688 3.63011 -2.44013 0
M  V30 2296 C 215.747 4.78993 -2.17834 0
M  V30 2297 O 214.773 4.89137 -2.91091 0
M  V30 2298 N 215.975 5.68248 -1.18635 0
M  V30 2299 H 218.74 1.79695 -2.39854 0
M  V30 2300 H 216.301 0.850338 -1.37771 0
M  V30 2301 H 218.293 3.91734 -1.01621 0
M  V30 2302 H 216.863 3.10884 -0.32706 0
M  V30 2303 H 216.083 2.78346 -2.79137 0
M  V30 2304 H 217.371 3.90845 -3.25757 0
M  V30 2305 H 216.769 5.62712 -0.580615 0
M  V30 2306 H 215.326 6.43285 -1.05013 0
M  V30 2307 N 218.759 1.29093 0.90403 0
M  V30 2308 C 219.987 1.19689 1.68766 0
M  V30 2309 C 220.402 -0.243113 1.87228 0
M  V30 2310 O 219.759 -1.16326 1.40621 0
M  V30 2311 C 219.81 1.90144 3.07453 0
M  V30 2312 O 219.531 3.2852 2.89838 0
M  V30 2313 C 221.032 1.87162 4.01852 0
M  V30 2314 H 218.252 0.415035 0.527244 0
M  V30 2315 H 220.796 1.7039 1.13082 0
M  V30 2316 H 218.951 1.43289 3.59926 0
M  V30 2317 H 219.365 3.63944 3.77684 0
M  V30 2318 H 220.839 2.41032 4.96596 0
M  V30 2319 H 221.316 0.84617 4.30972 0
M  V30 2320 H 221.922 2.33741 3.5531 0
M  V30 2321 N 220.237 -1.11381 1.11499 0
M  V30 2322 C 221.167 -2.19509 0.796125 0
M  V30 2323 C 222.148 -1.68458 -0.235796 0
M  V30 2324 O 223.333 -1.93947 -0.0991344 0
M  V30 2325 C 220.463 -3.46475 0.239205 0
M  V30 2326 C 219.417 -4.10744 1.20307 0
M  V30 2327 C 218.743 -5.32293 0.50683 0
M  V30 2328 C 220.043 -4.55597 2.55399 0
M  V30 2329 H 221.737 -2.46439 1.70024 0
M  V30 2330 H 219.283 -1.18446 0.818935 0
M  V30 2331 H 221.236 -4.214 0.00392006 0
M  V30 2332 H 219.96 -3.19006 -0.700206 0
M  V30 2333 H 218.619 -3.37813 1.42399 0
M  V30 2334 H 218.267 -5.01095 -0.437408 0
M  V30 2335 H 217.967 -5.76243 1.1497 0
M  V30 2336 H 219.491 -6.09956 0.280351 0
M  V30 2337 H 220.905 -5.21841 2.37391 0
M  V30 2338 H 219.302 -5.10363 3.15673 0
M  V30 2339 H 220.372 -3.69013 3.14575 0
M  V30 2340 N 221.715 -0.905404 -1.28997 0
M  V30 2341 C 222.943 -0.549846 -1.9946 0
M  V30 2342 C 223.358 0.866834 -1.67724 0
M  V30 2343 O 222.715 1.57298 -0.925404 0
M  V30 2344 C 222.766 -0.739387 -3.53858 0
M  V30 2345 O 222.487 -2.10031 -3.84472 0
M  V30 2346 C 223.988 -0.389541 -4.41585 0
M  V30 2347 H 221.208 -0.210429 -0.637151 0
M  V30 2348 H 223.752 -1.21632 -1.64396 0
M  V30 2349 H 221.907 -0.120023 -3.87214 0
M  V30 2350 H 222.321 -2.13385 -4.79132 0
M  V30 2351 H 223.795 -0.572972 -5.49018 0
M  V30 2352 H 224.272 0.673756 -4.34001 0
M  V30 2353 H 224.878 -0.986089 -4.1371 0
M  V30 2354 N 223.193 1.4272 -0.668489 0
M  V30 2355 C 224.441 2.01226 -0.187769 0
M  V30 2356 C 224.762 1.53092 1.2078 0
M  V30 2357 O 224.032 0.74993 1.80977 0
M  V30 2358 H 222.612 0.744041 -0.0664272 0
M  V30 2359 H 225.274 1.74723 -0.863583 0
M  V30 2360 H 224.37 3.11556 -0.184166 0
M  V30 2361 N 224.671 0.411399 1.52136 0
M  V30 2362 C 225.92 -0.165009 2.01024 0
M  V30 2363 C 226.233 -1.4603 1.30133 0
M  V30 2364 O 227.439 -2.1181 1.69849 0
M  V30 2365 C 225.895 -0.344618 3.58246 0
M  V30 2366 C 225.503 0.938716 4.38055 0
M  V30 2367 C 227.247 -0.876195 4.15359 0
M  V30 2368 C 225.154 0.726172 5.86925 0
M  V30 2369 H 224.084 -0.0654407 0.751155 0
M  V30 2370 H 226.735 0.537192 1.75461 0
M  V30 2371 H 225.117 -1.10921 3.80148 0
M  V30 2372 H 226.291 1.70963 4.27912 0
M  V30 2373 H 224.606 1.39688 3.92271 0
M  V30 2374 H 227.203 -1.05128 5.24263 0
M  V30 2375 H 227.546 -1.85152 3.7286 0
M  V30 2376 H 228.079 -0.170607 3.97434 0
M  V30 2377 H 224.818 1.67312 6.33788 0
M  V30 2378 H 224.338 -0.00540283 5.998 0
M  V30 2379 H 226.017 0.369231 6.45946 0
M  V30 2380 N 226.149 -1.5696 0.141893 0
M  V30 2381 C 227.096 -2.16501 -0.799737 0
M  V30 2382 C 228.066 -1.09643 -1.24771 0
M  V30 2383 O 229.251 -1.3766 -1.32115 0
M  V30 2384 C 226.391 -2.78679 -2.03549 0
M  V30 2385 C 225.504 -3.99914 -1.6338 0
M  V30 2386 C 224.639 -4.50106 -2.82096 0
M  V30 2387 C 223.678 -5.63819 -2.38275 0
M  V30 2388 N 222.815 -6.08651 -3.49983 0
M  V30 2389 H 227.655 -2.96632 -0.285179 0
M  V30 2390 H 225.192 -1.46533 -0.129053 0
M  V30 2391 H 227.15 -3.1287 -2.75986 0
M  V30 2392 H 225.78 -2.012 -2.52425 0
M  V30 2393 H 224.832 -3.71735 -0.807279 0
M  V30 2394 H 226.144 -4.82311 -1.27192 0
M  V30 2395 H 225.298 -4.86325 -3.62729 0
M  V30 2396 H 224.037 -3.66706 -3.21525 0
M  V30 2397 H 223.042 -5.2718 -1.56081 0
M  V30 2398 H 224.267 -6.49 -1.99938 0
M  V30 2399 H 222.213 -5.28188 -3.89042 0
M  V30 2400 H 222.13 -6.85961 -3.17794 0
M  V30 2401 H 223.398 -6.49515 -4.30988 0
M  V30 2402 N 227.627 0.131896 -1.57047 0
M  V30 2403 C 228.874 0.841932 -1.84168 0
M  V30 2404 C 229.202 1.8048 -0.725066 0
M  V30 2405 O 228.457 1.93618 0.284692 0
M  V30 2406 C 228.756 1.63703 -3.17704 0
M  V30 2407 C 228.422 0.81961 -4.43388 0
M  V30 2408 C 227.084 0.594148 -4.77518 0
M  V30 2409 C 229.436 0.248977 -5.20605 0
M  V30 2410 C 226.764 -0.212409 -5.86315 0
M  V30 2411 C 229.116 -0.544701 -6.30251 0
M  V30 2412 C 227.78 -0.780599 -6.6292 0
M  V30 2413 H 227.05 0.308085 -0.673917 0
M  V30 2414 H 229.697 0.104867 -1.91213 0
M  V30 2415 H 228.002 2.44464 -3.06177 0
M  V30 2416 H 229.699 2.19015 -3.35907 0
M  V30 2417 H 226.289 1.00542 -4.16641 0
M  V30 2418 H 230.473 0.410408 -4.946 0
M  V30 2419 H 225.729 -0.404524 -6.1006 0
M  V30 2420 H 229.903 -0.993922 -6.89271 0
M  V30 2421 H 227.53 -1.40742 -7.47058 0
M  V30 2422 N 229.106 1.52395 0.401703 0
M  V30 2423 C 230.352 1.67065 1.14966 0
M  V30 2424 C 230.685 0.403052 1.89971 0
M  V30 2425 O 229.96 -0.598774 1.85054 0
M  V30 2426 C 230.243 2.8975 2.13815 0
M  V30 2427 C 230.096 4.26578 1.42658 0
M  V30 2428 C 231.415 3.07965 3.14397 0
M  V30 2429 H 228.534 0.607968 0.416587 0
M  V30 2430 H 231.176 1.84965 0.434511 0
M  V30 2431 H 229.326 2.74619 2.74803 0
M  V30 2432 H 230.998 4.53451 0.847329 0
M  V30 2433 H 229.241 4.27639 0.72849 0
M  V30 2434 H 229.912 5.08483 2.14823 0
M  V30 2435 H 232.388 3.22043 2.63491 0
M  V30 2436 H 231.264 3.95308 3.80819 0
M  V30 2437 H 231.525 2.21611 3.82545 0
M  V30 2438 N 230.584 -0.659388 1.43143 0
M  V30 2439 C 231.83 -1.42145 1.44647 0
M  V30 2440 C 232.163 -1.9408 0.0681907 0
M  V30 2441 O 231.438 -1.71899 -0.910007 0
M  V30 2442 C 231.721 -2.60735 2.48373 0
M  V30 2443 C 231.574 -2.14332 3.95451 0
M  V30 2444 C 232.893 -3.62951 2.48906 0
M  V30 2445 H 230.012 -0.51552 0.526696 0
M  V30 2446 H 232.654 -0.748069 1.74654 0
M  V30 2447 H 230.804 -3.18184 2.22916 0
M  V30 2448 H 232.476 -1.61932 4.31944 0
M  V30 2449 H 230.719 -1.4576 4.08578 0
M  V30 2450 H 231.39 -2.99583 4.63631 0
M  V30 2451 H 233.866 -3.1525 2.71582 0
M  V30 2452 H 232.742 -4.43487 3.23435 0
M  V30 2453 H 233.003 -4.15126 1.52061 0
M  V30 2454 N 232.062 -1.29571 -0.897171 0
M  V30 2455 C 232.992 -1.17473 -2.01798 0
M  V30 2456 C 233.973 -0.068323 -1.69963 0
M  V30 2457 O 235.158 -0.248239 -1.92607 0
M  V30 2458 C 232.288 -0.853099 -3.36659 0
M  V30 2459 C 231.242 -1.9161 -3.82713 0
M  V30 2460 C 230.568 -1.44773 -5.14728 0
M  V30 2461 C 231.868 -3.32535 -4.02763 0
M  V30 2462 H 233.562 -2.11237 -2.12177 0
M  V30 2463 H 231.108 -1.01699 -1.01948 0
M  V30 2464 H 233.061 -0.755165 -4.14578 0
M  V30 2465 H 231.785 0.120236 -3.26379 0
M  V30 2466 H 230.444 -2.00346 -3.07013 0
M  V30 2467 H 230.092 -0.462995 -5.00865 0
M  V30 2468 H 229.792 -2.15865 -5.46513 0
M  V30 2469 H 231.316 -1.36334 -5.95185 0
M  V30 2470 H 232.73 -3.26626 -4.71156 0
M  V30 2471 H 231.127 -4.01607 -4.45905 0
M  V30 2472 H 232.197 -3.75326 -3.07016 0
M  V30 2473 N 233.54 1.10788 -1.12088 0
M  V30 2474 C 234.503 2.15207 -0.788577 0
M  V30 2475 C 235.503 1.59609 0.195317 0
M  V30 2476 O 236.693 1.74174 -0.0300193 0
M  V30 2477 C 233.825 3.4047 -0.171174 0
M  V30 2478 H 235.018 2.46116 -1.71368 0
M  V30 2479 H 232.571 1.26089 -0.923652 0
M  V30 2480 H 233.306 3.15176 0.763832 0
M  V30 2481 H 233.091 3.82109 -0.879514 0
M  V30 2482 H 234.581 4.17576 0.04496 0
M  V30 2483 N 235.018 0.912232 1.28515 0
M  V30 2484 C 236.295 0.463597 1.90027 0
M  V30 2485 C 236.675 -1.05753 1.82701 0
M  V30 2486 O 236.023 -1.90492 1.26194 0
M  V30 2487 C 236.233 0.992253 3.34597 0
M  V30 2488 C 237.581 1.04344 4.11579 0
M  V30 2489 O 238.605 0.94079 3.43551 0
M  V30 2490 O 237.464 1.1995 5.33174 0
M  V30 2491 H 234.558 0.146666 0.813891 0
M  V30 2492 H 237.104 1.00292 1.36893 0
M  V30 2493 H 235.876 2.03623 3.34146 0
M  V30 2494 H 235.499 0.433672 3.95228 0
M  V30 2495 N 236.496 -1.42363 0.676048 0
M  V30 2496 C 237.907 -1.84649 0.275948 0
M  V30 2497 C 238.258 -1.56588 -1.18214 0
M  V30 2498 O 237.383 -1.02634 -1.90513 0
M  V30 2499 C 237.978 -3.35178 0.494053 0
M  V30 2500 C 236.537 -3.76109 0.148061 0
M  V30 2501 C 235.684 -2.65931 0.785891 0
M  V30 2502 H 238.635 -1.32192 0.878121 0
M  V30 2503 H 238.656 -3.79655 -0.25343 0
M  V30 2504 H 238.168 -3.55571 1.55535 0
M  V30 2505 H 236.269 -3.61323 -0.909742 0
M  V30 2506 H 236.382 -4.7546 0.589454 0
M  V30 2507 H 234.746 -2.53773 0.217113 0
M  V30 2508 H 235.529 -2.89146 1.85067 0
M  V30 2509 N 237.974 -0.419461 -1.51915 0
M  V30 2510 C 239.39 -0.0708431 -1.59443 0
M  V30 2511 C 239.59 1.41796 -1.43164 0
M  V30 2512 O 238.646 2.18596 -1.26381 0
M  V30 2513 C 239.959 -0.574991 -2.95151 0
M  V30 2514 C 241.507 -0.533867 -3.08413 0
M  V30 2515 C 241.982 -1.01469 -4.46618 0
M  V30 2516 N 243.473 -0.971939 -4.52888 0
M  V30 2517 C 244.208 -1.31505 -5.58116 0
M  V30 2518 N 243.704 -1.73014 -6.70849 0
M  V30 2519 N 245.497 -1.23436 -5.48379 0
M  V30 2520 H 237.648 -1.38836 -1.60743 0
M  V30 2521 H 239.911 -0.570998 -0.756747 0
M  V30 2522 H 239.617 -1.61597 -3.12377 0
M  V30 2523 H 239.491 0.00979777 -3.77199 0
M  V30 2524 H 241.878 0.498086 -2.90866 0
M  V30 2525 H 241.959 -1.15484 -2.28248 0
M  V30 2526 H 241.603 -2.04502 -4.6491 0
M  V30 2527 H 241.533 -0.370433 -5.25295 0
M  V30 2528 H 244.024 -0.666893 -3.71969 0
M  V30 2529 H 244.337 -1.97479 -7.47143 0
M  V30 2530 H 242.682 -1.76926 -6.72103 0
M  V30 2531 H 245.873 -0.908869 -4.59192 0
M  V30 2532 H 246.046 -1.50506 -6.30279 0
M  V30 2533 N 239.452 1.56882 -0.150215 0
M  V30 2534 C 240.384 2.14057 0.819286 0
M  V30 2535 C 241.397 1.09082 1.20851 0
M  V30 2536 O 242.586 1.36347 1.15203 0
M  V30 2537 C 239.686 2.65102 2.11127 0
M  V30 2538 C 238.859 3.94511 1.88891 0
M  V30 2539 C 237.918 4.30834 3.02107 0
M  V30 2540 O 236.944 4.99099 2.73659 0
M  V30 2541 N 238.146 3.90676 4.29363 0
M  V30 2542 H 240.911 2.97871 0.330618 0
M  V30 2543 H 238.472 1.61866 0.0332538 0
M  V30 2544 H 240.464 2.86411 2.85921 0
M  V30 2545 H 239.034 1.85994 2.51247 0
M  V30 2546 H 238.254 3.81795 0.981152 0
M  V30 2547 H 239.542 4.7907 1.71376 0
M  V30 2548 H 238.94 3.35677 4.55343 0
M  V30 2549 H 237.497 4.1703 5.00928 0
M  V30 2550 N 240.93 -0.123565 1.57115 0
M  V30 2551 C 241.893 -1.13583 1.99076 0
M  V30 2552 C 242.893 -1.34564 0.880296 0
M  V30 2553 O 244.083 -1.31158 1.14644 0
M  V30 2554 C 241.215 -2.49128 2.32698 0
M  V30 2555 H 242.408 -0.775287 2.89706 0
M  V30 2556 H 239.961 -0.36771 1.51913 0
M  V30 2557 H 240.696 -2.90111 1.44934 0
M  V30 2558 H 240.481 -2.35255 3.13684 0
M  V30 2559 H 241.971 -3.2199 2.65918 0
M  V30 2560 N 242.408 -1.52605 -0.393616 0
M  V30 2561 C 243.656 -1.67093 -1.13685 0
M  V30 2562 C 243.977 -0.411011 -1.90619 0
M  V30 2563 O 243.247 0.574491 -1.87287 0
M  V30 2564 H 241.827 -0.615923 -0.422668 0
M  V30 2565 H 244.489 -1.89704 -0.447039 0
M  V30 2566 H 243.585 -2.51922 -1.84232 0
M  V30 2567 N 243.887 0.651787 -1.4349 0
M  V30 2568 C 245.136 1.40754 -1.44469 0
M  V30 2569 C 245.449 1.95463 -0.0731845 0
M  V30 2570 O 246.655 2.71471 0.0395721 0
M  V30 2571 C 245.111 2.54735 -2.5424 0
M  V30 2572 C 244.719 2.06628 -3.97504 0
M  V30 2573 C 246.463 3.32092 -2.64414 0
M  V30 2574 C 244.37 3.17829 -4.98737 0
M  V30 2575 H 243.3 0.528862 -0.53742 0
M  V30 2576 H 245.951 0.703365 -1.69485 0
M  V30 2577 H 244.333 3.2763 -2.22428 0
M  V30 2578 H 245.507 1.40734 -4.38783 0
M  V30 2579 H 243.822 1.42146 -3.91387 0
M  V30 2580 H 246.419 4.14952 -3.37223 0
M  V30 2581 H 246.762 3.80217 -1.69532 0
M  V30 2582 H 247.295 2.66279 -2.95534 0
M  V30 2583 H 244.034 2.74671 -5.95177 0
M  V30 2584 H 243.554 3.82429 -4.62069 0
M  V30 2585 H 245.233 3.82937 -5.21505 0
M  V30 2586 N 245.365 1.30045 0.890287 0
M  V30 2587 C 246.642 1.09227 1.62262 0
M  V30 2588 C 247.022 -0.360305 2.08002 0
M  V30 2589 O 246.37 -1.35084 1.84295 0
M  V30 2590 C 246.58 2.08835 2.79623 0
M  V30 2591 C 247.928 2.40266 3.50082 0
M  V30 2592 O 248.952 2.07104 2.89804 0
M  V30 2593 O 247.811 2.96967 4.58773 0
M  V30 2594 H 244.905 0.419132 0.712922 0
M  V30 2595 H 247.451 1.41451 0.937529 0
M  V30 2596 H 246.223 3.06633 2.43089 0
M  V30 2597 H 245.846 1.77397 3.55832 0
M  V30 2598 N 246.843 -1.10192 1.12674 0
M  V30 2599 C 248.068 -1.86523 0.906853 0
M  V30 2600 C 248.493 -1.80221 -0.538711 0
M  V30 2601 O 247.851 -1.17396 -1.38158 0
M  V30 2602 C 247.899 -3.32758 1.3894 0
M  V30 2603 O 247.003 -4.08449 0.5695 0
M  V30 2604 H 246.344 -0.578678 0.325619 0
M  V30 2605 H 248.874 -1.39203 1.49946 0
M  V30 2606 H 248.884 -3.83608 1.38958 0
M  V30 2607 H 247.559 -3.36661 2.44197 0
M  V30 2608 H 246.136 -3.67427 0.636528 0
M  V30 2609 N 248.321 -0.919034 -1.28029 0
M  V30 2610 C 249.251 -0.428581 -2.29533 0
M  V30 2611 C 250.232 0.50659 -1.62381 0
M  V30 2612 O 251.417 0.413195 -1.89753 0
M  V30 2613 C 248.547 0.327388 -3.45753 0
M  V30 2614 C 247.501 -0.519137 -4.2484 0
M  V30 2615 C 246.827 0.365486 -5.33449 0
M  V30 2616 C 248.127 -1.77914 -4.91064 0
M  V30 2617 H 249.821 -1.27687 -2.70807 0
M  V30 2618 H 247.367 -0.615428 -1.30186 0
M  V30 2619 H 249.32 0.681378 -4.15855 0
M  V30 2620 H 248.044 1.20963 -3.03374 0
M  V30 2621 H 246.703 -0.855717 -3.56473 0
M  V30 2622 H 246.351 1.24642 -4.87312 0
M  V30 2623 H 246.051 -0.197356 -5.87268 0
M  V30 2624 H 247.575 0.715241 -6.06396 0
M  V30 2625 H 248.989 -1.49374 -5.53498 0
M  V30 2626 H 247.386 -2.2848 -5.54903 0
M  V30 2627 H 248.456 -2.50382 -4.15255 0
M  V30 2628 N 249.799 1.42003 -0.683588 0
M  V30 2629 C 250.729 2.33487 -0.024866 0
M  V30 2630 C 251.71 1.51163 0.779975 0
M  V30 2631 O 252.895 1.79739 0.735362 0
M  V30 2632 C 250.025 3.3487 0.920836 0
M  V30 2633 C 248.979 4.27414 0.223958 0
M  V30 2634 C 248.305 5.19074 1.2832 0
M  V30 2635 C 249.605 5.14445 -0.90242 0
M  V30 2636 H 251.299 2.88819 -0.788921 0
M  V30 2637 H 248.845 1.38873 -0.38083 0
M  V30 2638 H 250.798 3.97787 1.39081 0
M  V30 2639 H 249.522 2.77861 1.71642 0
M  V30 2640 H 248.181 3.65904 -0.225864 0
M  V30 2641 H 247.829 4.58387 2.071 0
M  V30 2642 H 247.529 5.81822 0.821995 0
M  V30 2643 H 249.053 5.84867 1.75392 0
M  V30 2644 H 250.467 5.70998 -0.513272 0
M  V30 2645 H 248.864 5.86072 -1.28997 0
M  V30 2646 H 249.934 4.52322 -1.74737 0
M  V30 2647 N 251.277 0.427512 1.51691 0
M  V30 2648 C 252.693 0.0792977 1.59403 0
M  V30 2649 C 252.893 -1.41035 1.43914 0
M  V30 2650 O 251.949 -2.17922 1.27539 0
M  V30 2651 C 253.262 0.590636 2.94842 0
M  V30 2652 C 254.81 0.550215 3.08126 0
M  V30 2653 C 255.285 1.03836 4.46074 0
M  V30 2654 N 256.776 0.995943 4.52366 0
M  V30 2655 C 257.511 1.34463 5.57411 0
M  V30 2656 N 257.007 1.76569 6.69922 0
M  V30 2657 N 258.8 1.26343 5.47717 0
M  V30 2658 H 250.951 1.39687 1.60004 0
M  V30 2659 H 253.214 0.575003 0.753708 0
M  V30 2660 H 252.92 1.63251 3.11516 0
M  V30 2661 H 252.794 0.0102061 3.77199 0
M  V30 2662 H 255.181 -0.482654 2.91126 0
M  V30 2663 H 255.262 1.16693 2.27632 0
M  V30 2664 H 254.906 2.06965 4.63819 0
M  V30 2665 H 254.836 0.398286 5.25092 0
M  V30 2666 H 257.327 0.68661 3.7161 0
M  V30 2667 H 257.64 2.01438 7.46085 0
M  V30 2668 H 255.985 1.80488 6.71155 0
M  V30 2669 H 259.176 0.933209 4.58703 0
M  V30 2670 H 259.349 1.53846 6.29472 0
M  V30 2671 N 252.755 -1.56801 0.158532 0
M  V30 2672 C 253.702 -2.17337 -0.776729 0
M  V30 2673 C 254.672 -1.1096 -1.23601 0
M  V30 2674 O 255.857 -1.39054 -1.30647 0
M  V30 2675 C 252.997 -2.80822 -2.00582 0
M  V30 2676 C 252.11 -4.01624 -1.59129 0
M  V30 2677 C 251.245 -4.53072 -2.77306 0
M  V30 2678 C 250.284 -5.66314 -2.32282 0
M  V30 2679 N 249.421 -6.12329 -3.43508 0
M  V30 2680 H 254.261 -2.96918 -0.253701 0
M  V30 2681 H 251.798 -1.46661 -0.113504 0
M  V30 2682 H 253.756 -3.15779 -2.72652 0
M  V30 2683 H 252.386 -2.03866 -2.50277 0
M  V30 2684 H 251.438 -3.72571 -0.767806 0
M  V30 2685 H 252.75 -4.83633 -1.2207 0
M  V30 2686 H 251.904 -4.90145 -3.57551 0
M  V30 2687 H 250.643 -3.70095 -3.17617 0
M  V30 2688 H 249.648 -5.28806 -1.5048 0
M  V30 2689 H 250.873 -6.51085 -1.93043 0
M  V30 2690 H 248.819 -5.32284 -3.83418 0
M  V30 2691 H 248.736 -6.89293 -3.105 0
M  V30 2692 H 250.004 -6.5405 -4.24075 0
M  V30 2693 N 254.233 0.115231 -1.57178 0
M  V30 2694 C 255.482 0.820945 -1.84237 0
M  V30 2695 C 255.795 1.80866 -0.744761 0
M  V30 2696 O 257.001 2.56083 -0.901871 0
M  V30 2697 C 255.457 1.51072 -3.26658 0
M  V30 2698 C 255.065 0.563795 -4.44438 0
M  V30 2699 C 256.809 2.20134 -3.62962 0
M  V30 2700 C 254.716 1.25701 -5.77887 0
M  V30 2701 H 253.646 0.310328 -0.687177 0
M  V30 2702 H 256.297 0.0737134 -1.83352 0
M  V30 2703 H 254.679 2.30471 -3.22024 0
M  V30 2704 H 255.853 -0.197247 -4.60378 0
M  V30 2705 H 254.168 -0.0200638 -4.16395 0
M  V30 2706 H 256.765 2.72696 -4.59936 0
M  V30 2707 H 257.108 2.98107 -2.90582 0
M  V30 2708 H 257.641 1.47619 -3.69396 0
M  V30 2709 H 254.38 0.518493 -6.53446 0
M  V30 2710 H 253.9 1.98997 -5.65827 0
M  V30 2711 H 255.579 1.78915 -6.2177 0
M  V30 2712 N 255.711 1.52812 0.385517 0
M  V30 2713 C 256.941 1.71658 1.14966 0
M  V30 2714 C 257.349 0.436253 1.84102 0
M  V30 2715 O 256.692 -0.599313 1.73649 0
M  V30 2716 C 256.754 2.81309 2.23843 0
M  V30 2717 C 256.418 4.22313 1.74644 0
M  V30 2718 C 257.415 5.05352 1.22129 0
M  V30 2719 C 255.1 4.68648 1.80761 0
M  V30 2720 C 257.094 6.32807 0.763838 0
M  V30 2721 C 254.781 5.96086 1.34627 0
M  V30 2722 C 255.779 6.77996 0.825264 0
M  V30 2723 O 255.467 8.03045 0.370669 0
M  V30 2724 H 255.199 0.578022 0.350523 0
M  V30 2725 H 257.753 2.00263 0.456509 0
M  V30 2726 H 255.983 2.48133 2.96592 0
M  V30 2727 H 257.672 2.88524 2.85497 0
M  V30 2728 H 258.438 4.70736 1.16758 0
M  V30 2729 H 254.317 4.04979 2.20256 0
M  V30 2730 H 257.861 6.96689 0.356494 0
M  V30 2731 H 253.758 6.30205 1.39686 0
M  V30 2732 H 254.526 8.17021 0.491829 0
M  V30 2733 N 257.189 -0.644168 1.43834 0
M  V30 2734 C 258.099 -1.78563 1.52159 0
M  V30 2735 C 259.115 -1.69147 0.408069 0
M  V30 2736 O 260.291 -1.90156 0.663524 0
M  V30 2737 C 257.356 -3.14888 1.45073 0
M  V30 2738 C 256.417 -3.36034 2.6717 0
M  V30 2739 C 255.65 -4.65855 2.60413 0
M  V30 2740 O 255.873 -5.45805 1.65689 0
M  V30 2741 O 254.807 -4.88918 3.5106 0
M  V30 2742 H 258.633 -1.74494 2.48567 0
M  V30 2743 H 256.218 -0.80378 1.25935 0
M  V30 2744 H 258.1 -3.96179 1.43597 0
M  V30 2745 H 256.775 -3.19528 0.518037 0
M  V30 2746 H 255.682 -2.54472 2.74217 0
M  V30 2747 H 257.015 -3.36247 3.59442 0
M  V30 2748 N 258.668 -1.30515 -0.883378 0
M  V30 2749 C 259.917 -1.18795 -1.63005 0
M  V30 2750 C 260.23 0.255923 -1.93919 0
M  V30 2751 O 261.436 0.494654 -2.66956 0
M  V30 2752 C 259.892 -2.07878 -2.93794 0
M  V30 2753 C 259.5 -3.57184 -2.70414 0
M  V30 2754 C 261.244 -2.04924 -3.71761 0
M  V30 2755 C 259.151 -4.38317 -3.97029 0
M  V30 2756 H 258.081 -0.441031 -0.611562 0
M  V30 2757 H 260.732 -1.55275 -0.977854 0
M  V30 2758 H 259.114 -1.64283 -3.60315 0
M  V30 2759 H 260.288 -4.08937 -2.12384 0
M  V30 2760 H 258.603 -3.61976 -2.0582 0
M  V30 2761 H 261.2 -2.62792 -4.65665 0
M  V30 2762 H 261.543 -1.0331 -4.03277 0
M  V30 2763 H 262.076 -2.46649 -3.12104 0
M  V30 2764 H 258.815 -5.40632 -3.70671 0
M  V30 2765 H 258.335 -3.91326 -4.54559 0
M  V30 2766 H 260.014 -4.49834 -4.65036 0
M  V30 2767 N 260.146 1.09593 -1.13257 0
M  V30 2768 C 261.376 1.85231 -0.915049 0
M  V30 2769 C 261.784 1.81345 0.539498 0
M  V30 2770 O 261.127 1.20664 1.38513 0
M  V30 2771 C 261.189 3.34275 -1.3229 0
M  V30 2772 C 260.853 3.6191 -2.79052 0
M  V30 2773 C 261.85 3.57777 -3.77216 0
M  V30 2774 C 259.535 3.90309 -3.16171 0
M  V30 2775 C 261.529 3.81652 -5.1051 0
M  V30 2776 C 259.216 4.13839 -4.49644 0
M  V30 2777 C 260.214 4.09502 -5.46623 0
M  V30 2778 O 259.902 4.32426 -6.77689 0
M  V30 2779 H 259.634 0.591997 -0.326367 0
M  V30 2780 H 262.188 1.394 -1.50854 0
M  V30 2781 H 260.418 3.80805 -0.672667 0
M  V30 2782 H 262.107 3.9132 -1.07812 0
M  V30 2783 H 262.873 3.35865 -3.49885 0
M  V30 2784 H 258.752 3.92811 -2.41289 0
M  V30 2785 H 262.296 3.78182 -5.86195 0
M  V30 2786 H 258.193 4.35232 -4.767 0
M  V30 2787 H 258.961 4.49896 -6.83766 0
M  V30 2788 N 261.624 0.925811 1.2754 0
M  V30 2789 C 262.849 0.580924 1.99098 0
M  V30 2790 C 263.274 -0.833555 1.68622 0
M  V30 2791 O 262.632 -1.55903 0.925422 0
M  V30 2792 C 262.68 0.811186 3.51358 0
M  V30 2793 O 261.784 -0.124129 4.12213 0
M  V30 2794 H 261.125 0.223873 0.625122 0
M  V30 2795 H 263.655 1.24455 1.62395 0
M  V30 2796 H 263.665 0.72601 4.01489 0
M  V30 2797 H 262.34 1.84227 3.72872 0
M  V30 2798 H 260.917 0.0108006 3.72898 0
M  V30 2799 N 263.102 -1.41638 0.69111 0
M  V30 2800 C 264.379 -1.95036 0.148421 0
M  V30 2801 C 264.759 -1.63072 -1.34055 0
M  V30 2802 O 264.107 -0.93538 -2.08478 0
M  V30 2803 C 264.317 -3.46279 0.434951 0
M  V30 2804 C 265.665 -4.23069 0.360275 0
M  V30 2805 O 266.689 -3.54277 0.369613 0
M  V30 2806 O 265.548 -5.45583 0.316534 0
M  V30 2807 H 262.642 -0.826908 0.0123654 0
M  V30 2808 H 265.188 -1.5138 0.766963 0
M  V30 2809 H 263.96 -3.6281 1.46576 0
M  V30 2810 H 263.583 -3.97019 -0.214787 0
M  V30 2811 N 264.58 -0.43555 -1.51462 0
M  V30 2812 C 265.827 0.131514 -2.02072 0
M  V30 2813 C 266.155 1.42868 -1.31981 0
M  V30 2814 O 265.41 1.91076 -0.422883 0
M  V30 2815 C 265.709 0.39942 -3.55161 0
M  V30 2816 C 265.375 -0.81172 -4.43533 0
M  V30 2817 C 264.037 -1.14387 -4.67407 0
M  V30 2818 C 266.389 -1.61976 -4.95392 0
M  V30 2819 C 263.717 -2.28477 -5.40384 0
M  V30 2820 C 266.069 -2.75164 -5.6962 0
M  V30 2821 C 264.733 -3.08835 -5.91758 0
M  V30 2822 H 264.003 0.0481244 -0.739436 0
M  V30 2823 H 266.65 -0.58238 -1.8243 0
M  V30 2824 H 264.955 1.19519 -3.73125 0
M  V30 2825 H 266.652 0.85157 -3.91854 0
M  V30 2826 H 263.242 -0.542898 -4.25148 0
M  V30 2827 H 267.426 -1.37637 -4.76833 0
M  V30 2828 H 262.682 -2.5488 -5.55739 0
M  V30 2829 H 266.856 -3.38147 -6.08793 0
M  V30 2830 H 264.483 -3.97353 -6.48086 0
M  V30 2831 N 266.058 1.56714 -0.166846 0
M  V30 2832 C 267.021 2.16539 0.751232 0
M  V30 2833 C 268.021 1.11228 1.16125 0
M  V30 2834 O 269.211 1.36765 1.07894 0
M  V30 2835 C 266.343 2.74462 2.02196 0
M  V30 2836 H 267.536 2.99013 0.230499 0
M  V30 2837 H 265.089 1.56081 0.0826982 0
M  V30 2838 H 265.824 1.95709 2.58589 0
M  V30 2839 H 265.609 3.51527 1.73698 0
M  V30 2840 H 267.099 3.20489 2.67725 0
M  V30 2841 N 267.536 -0.106894 1.57237 0
M  V30 2842 C 268.466 -1.13148 2.04254 0
M  V30 2843 C 269.447 -1.42476 0.929224 0
M  V30 2844 O 270.632 -1.52709 1.19973 0
M  V30 2845 C 267.762 -2.4545 2.45706 0
M  V30 2846 C 266.716 -2.30558 3.60592 0
M  V30 2847 C 266.042 -3.67931 3.87983 0
M  V30 2848 C 267.342 -1.75597 4.91897 0
M  V30 2849 H 269.036 -0.740374 2.90101 0
M  V30 2850 H 266.582 -0.354696 1.39563 0
M  V30 2851 H 268.535 -3.17389 2.77205 0
M  V30 2852 H 267.259 -2.86475 1.56843 0
M  V30 2853 H 265.918 -1.61067 3.29322 0
M  V30 2854 H 265.566 -4.06462 2.96306 0
M  V30 2855 H 265.266 -3.58817 4.65322 0
M  V30 2856 H 266.79 -4.41356 4.21945 0
M  V30 2857 H 268.204 -2.37364 5.21854 0
M  V30 2858 H 266.601 -1.77272 5.73319 0
M  V30 2859 H 267.671 -0.714451 4.79608 0
M  V30 2860 N 269.014 -1.53014 -0.377408 0
M  V30 2861 C 269.961 -1.78616 -1.46168 0
M  V30 2862 C 270.931 -0.629917 -1.53692 0
M  V30 2863 O 272.116 -0.870861 -1.69766 0
M  V30 2864 C 269.256 -1.97123 -2.8326 0
M  V30 2865 C 268.369 -3.24831 -2.84796 0
M  V30 2866 C 267.504 -3.33591 -4.13389 0
M  V30 2867 C 266.543 -4.55377 -4.09021 0
M  V30 2868 N 265.68 -4.61355 -5.29241 0
M  V30 2869 H 270.52 -2.71142 -1.23637 0
M  V30 2870 H 268.057 -1.34326 -0.599577 0
M  V30 2871 H 270.015 -2.05839 -3.62886 0
M  V30 2872 H 268.645 -1.07946 -3.04216 0
M  V30 2873 H 267.697 -3.25128 -1.97474 0
M  V30 2874 H 269.009 -4.14523 -2.77439 0
M  V30 2875 H 268.163 -3.41554 -5.01424 0
M  V30 2876 H 266.902 -2.41894 -4.23484 0
M  V30 2877 H 265.907 -4.47527 -3.19373 0
M  V30 2878 H 267.132 -5.48402 -4.00539 0
M  V30 2879 H 265.078 -3.72554 -5.39944 0
M  V30 2880 H 264.995 -5.44935 -5.24006 0
M  V30 2881 H 266.263 -4.73586 -6.19141 0
M  V30 2882 N 270.492 0.636531 -1.44174 0
M  V30 2883 C 271.44 1.76995 -1.50915 0
M  V30 2884 C 272.434 1.65053 -0.381295 0
M  V30 2885 O 273.64 1.71197 -0.55601 0
M  V30 2886 H 270.015 0.584247 -0.473455 0
M  V30 2887 H 271.986 1.68432 -2.4632 0
M  V30 2888 C 270.735 3.15314 -1.46534 0
M  V30 2889 H 270.058 3.25149 -2.32633 0
M  V30 2890 H 271.498 3.9453 -1.55312 0
M  V30 2891 C 269.957 3.3639 -0.185305 0
M  V30 2892 O 270.487 3.94699 0.746688 0
M  V30 2893 N 268.693 2.9046 -0.0901606 0
M  V30 2894 H 268.24 2.43193 -0.849416 0
M  V30 2895 H 268.198 3.04937 0.765553 0
M  V30 2896 N 271.97 1.30982 0.876444 0
M  V30 2897 C 273.381 1.18277 1.44456 0
M  V30 2898 C 273.732 -0.213265 1.95037 0
M  V30 2899 O 272.857 -1.11057 1.85729 0
M  V30 2900 C 273.452 2.1411 2.62569 0
M  V30 2901 C 272.011 2.05358 3.15444 0
M  V30 2902 C 271.158 2.03706 1.88146 0
M  V30 2903 H 274.109 1.43127 0.685584 0
M  V30 2904 H 274.13 1.72692 3.39054 0
M  V30 2905 H 273.642 3.15706 2.25724 0
M  V30 2906 H 271.743 1.06934 3.56926 0
M  V30 2907 H 271.856 2.94156 3.78166 0
M  V30 2908 H 270.22 1.48629 2.06837 0
M  V30 2909 H 271.003 3.07047 1.53547 0
M  V30 2910 N 273.449 -1.08991 1.13837 0
M  V30 2911 C 274.696 -1.81258 0.902882 0
M  V30 2912 C 275.024 -1.85936 -0.570803 0
M  V30 2913 O 274.279 -1.3267 -1.43865 0
M  V30 2914 C 274.578 -3.27042 1.44147 0
M  V30 2915 C 274.244 -3.4249 2.93276 0
M  V30 2916 C 272.906 -3.46414 3.33992 0
M  V30 2917 C 275.258 -3.4666 3.892 0
M  V30 2918 C 272.586 -3.52091 4.69307 0
M  V30 2919 C 274.938 -3.53872 5.24364 0
M  V30 2920 C 273.602 -3.56066 5.646 0
M  V30 2921 H 272.872 -0.663268 0.330388 0
M  V30 2922 H 275.519 -1.28368 1.42105 0
M  V30 2923 H 273.824 -3.82599 0.844097 0
M  V30 2924 H 275.521 -3.81499 1.23528 0
M  V30 2925 H 272.111 -3.40124 2.60794 0
M  V30 2926 H 276.295 -3.42865 3.58828 0
M  V30 2927 H 271.551 -3.52079 4.9985 0
M  V30 2928 H 275.725 -3.56043 5.98503 0
M  V30 2929 H 273.352 -3.60218 6.69438 0
M  V30 2930 N 274.927 -0.932562 -1.27047 0
M  V30 2931 C 276.157 -0.591173 -1.97961 0
M  V30 2932 C 276.565 0.836219 -1.69717 0
M  V30 2933 O 275.908 1.56801 -0.957036 0
M  V30 2934 C 275.97 -0.743082 -3.51736 0
M  V30 2935 C 275.634 -2.1435 -4.03613 0
M  V30 2936 C 276.631 -3.11815 -4.16014 0
M  V30 2937 C 274.316 -2.46175 -4.37839 0
M  V30 2938 C 276.31 -4.39211 -4.61923 0
M  V30 2939 C 273.997 -3.73806 -4.83438 0
M  V30 2940 C 274.995 -4.70137 -4.95439 0
M  V30 2941 O 274.683 -5.95496 -5.40037 0
M  V30 2942 H 274.415 -0.222375 -0.638377 0
M  V30 2943 H 276.969 -1.25317 -1.62742 0
M  V30 2944 H 275.199 -0.0239739 -3.86693 0
M  V30 2945 H 276.888 -0.40603 -4.03864 0
M  V30 2946 H 277.654 -2.88549 -3.89826 0
M  V30 2947 H 273.533 -1.71936 -4.27737 0
M  V30 2948 H 277.077 -5.14404 -4.71205 0
M  V30 2949 H 272.974 -3.96888 -5.09068 0
M  V30 2950 H 273.742 -5.98554 -5.58279 0
M  V30 2951 N 276.405 1.4127 -0.698611 0
M  V30 2952 C 277.63 2.06024 -0.238512 0
M  V30 2953 C 278.055 1.5224 1.10475 0
M  V30 2954 O 277.413 0.650623 1.69223 0
M  V30 2955 C 277.461 3.59988 -0.209952 0
M  V30 2956 O 276.565 4.04282 0.814235 0
M  V30 2957 H 275.906 0.653829 -0.115775 0
M  V30 2958 H 278.436 1.8098 -0.954326 0
M  V30 2959 H 278.446 4.07979 -0.0418436 0
M  V30 2960 H 277.121 3.98503 -1.1903 0
M  V30 2961 H 275.698 3.6779 0.615234 0
M  V30 2962 N 277.883 0.443576 1.51229 0
M  V30 2963 C 278.813 -0.355142 2.30783 0
M  V30 2964 C 279.794 -1.0154 1.36468 0
M  V30 2965 O 280.979 -1.01785 1.65389 0
M  V30 2966 C 278.109 -1.45312 3.15439 0
M  V30 2967 C 277.063 -0.916002 4.18083 0
M  V30 2968 C 276.389 -2.1102 4.91299 0
M  V30 2969 C 277.689 0.0538602 5.22272 0
M  V30 2970 H 279.383 0.308767 2.97804 0
M  V30 2971 H 276.929 0.149937 1.43217 0
M  V30 2972 H 278.882 -2.01914 3.69876 0
M  V30 2973 H 277.606 -2.14541 2.46252 0
M  V30 2974 H 276.265 -0.372145 3.64706 0
M  V30 2975 H 275.913 -2.78882 4.18609 0
M  V30 2976 H 275.613 -1.75717 5.60712 0
M  V30 2977 H 277.137 -2.68164 5.48562 0
M  V30 2978 H 278.551 -0.422069 5.71744 0
M  V30 2979 H 276.948 0.319776 5.99247 0
M  V30 2980 H 278.018 0.98858 4.74716 0
M  V30 2981 N 279.361 -1.56624 0.175154 0
M  V30 2982 C 280.271 -2.21741 -0.766042 0
M  V30 2983 C 281.287 -1.21023 -1.25018 0
M  V30 2984 O 282.463 -1.53697 -1.3015 0
M  V30 2985 C 279.528 -2.84839 -1.97655 0
M  V30 2986 C 278.589 -4.00769 -1.53892 0
M  V30 2987 C 277.822 -4.60849 -2.69173 0
M  V30 2988 O 278.045 -4.19823 -3.86141 0
M  V30 2989 O 276.979 -5.50655 -2.43028 0
M  V30 2990 H 280.805 -3.02738 -0.241585 0
M  V30 2991 H 278.39 -1.49305 -0.053222 0
M  V30 2992 H 280.272 -3.24834 -2.68442 0
M  V30 2993 H 278.947 -2.06836 -2.48999 0
M  V30 2994 H 277.854 -3.65436 -0.80044 0
M  V30 2995 H 279.187 -4.80376 -1.07236 0
M  V30 2996 N 280.839 0.0985539 -1.57292 0
M  V30 2997 C 281.772 1.15082 -1.97057 0
M  V30 2998 C 282.75 1.39025 -0.843255 0
M  V30 2999 O 283.934 1.52842 -1.10325 0
M  V30 3000 C 281.061 2.50069 -2.28437 0
M  V30 3001 C 280.107 2.42428 -3.509 0
M  V30 3002 S 280.94 1.84414 -5.02744 0
M  V30 3003 C 282.096 3.21032 -5.37298 0
M  V30 3004 H 282.329 0.811815 -2.86002 0
M  V30 3005 H 279.862 0.306102 -1.51335 0
M  V30 3006 H 281.82 3.27729 -2.47192 0
M  V30 3007 H 280.481 2.8114 -1.40069 0
M  V30 3008 H 279.674 3.41911 -3.70288 0
M  V30 3009 H 279.276 1.72896 -3.31637 0
M  V30 3010 H 281.568 4.17297 -5.33731 0
M  V30 3011 H 282.511 3.06452 -6.38352 0
M  V30 3012 H 282.919 3.20404 -4.64759 0
M  V30 3013 N 282.317 1.53212 0.369288 0
M  V30 3014 C 283.728 1.60943 0.946276 0
M  V30 3015 C 284.079 0.47452 1.90375 0
M  V30 3016 O 283.204 -0.399597 2.12679 0
M  V30 3017 C 283.799 2.91715 1.72302 0
M  V30 3018 C 282.358 3.01792 2.24941 0
M  V30 3019 C 281.505 2.56211 1.06072 0
M  V30 3020 H 284.456 1.58007 0.148198 0
M  V30 3021 H 284.477 2.79309 2.58393 0
M  V30 3022 H 283.989 3.74295 1.0259 0
M  V30 3023 H 282.09 2.23791 2.97906 0
M  V30 3024 H 282.203 4.06803 2.53077 0
M  V30 3025 H 280.567 2.10998 1.4266 0
M  V30 3026 H 281.35 3.41206 0.378639 0
M  V30 3027 N 283.795 -0.628877 1.44509 0
M  V30 3028 C 285.044 -1.38437 1.4669 0
M  V30 3029 C 285.357 -1.95322 0.104272 0
M  V30 3030 O 286.563 -2.715 0.00362163 0
M  V30 3031 C 285.019 -2.50659 2.5826 0
M  V30 3032 C 284.627 -2.00277 4.0074 0
M  V30 3033 C 286.371 -3.27844 2.69664 0
M  V30 3034 C 284.278 -3.09854 5.0373 0
M  V30 3035 H 283.208 -0.520245 0.545766 0
M  V30 3036 H 285.859 -0.676313 1.70582 0
M  V30 3037 H 284.241 -3.2405 2.27612 0
M  V30 3038 H 285.415 -1.33736 4.40966 0
M  V30 3039 H 283.73 -1.35901 3.93599 0
M  V30 3040 H 286.327 -4.09534 3.43781 0
M  V30 3041 H 286.67 -3.77471 1.75559 0
M  V30 3042 H 287.203 -2.61543 2.99733 0
M  V30 3043 H 283.942 -2.65168 5.99472 0
M  V30 3044 H 283.462 -3.7503 4.68095 0
M  V30 3045 H 285.141 -3.74592 5.27532 0
M  V30 3046 N 285.273 -1.31445 -0.869486 0
M  V30 3047 C 286.689 -1.10113 -1.15531 0
M  V30 3048 C 286.889 0.128087 -2.01092 0
M  V30 3049 O 285.945 0.817276 -2.38908 0
M  V30 3050 C 287.258 -2.37291 -1.84698 0
M  V30 3051 C 288.806 -2.42906 -1.97397 0
M  V30 3052 C 289.281 -3.69967 -2.69979 0
M  V30 3053 N 290.772 -3.70864 -2.77514 0
M  V30 3054 C 291.507 -4.65875 -3.34287 0
M  V30 3055 N 291.003 -5.71242 -3.91988 0
M  V30 3056 N 292.796 -4.53394 -3.3225 0
M  V30 3057 H 284.947 -2.1028 -0.299347 0
M  V30 3058 H 287.21 -0.927683 -0.195214 0
M  V30 3059 H 286.916 -3.27078 -1.29278 0
M  V30 3060 H 286.79 -2.47125 -2.84972 0
M  V30 3061 H 289.177 -1.53588 -2.51982 0
M  V30 3062 H 289.258 -2.37036 -0.961643 0
M  V30 3063 H 288.902 -4.59652 -2.16062 0
M  V30 3064 H 288.832 -3.73103 -3.7162 0
M  V30 3065 H 291.323 -2.94697 -2.36563 0
M  V30 3066 H 291.636 -6.39817 -4.33421 0
M  V30 3067 H 289.981 -5.75015 -3.90362 0
M  V30 3068 H 293.172 -3.70252 -2.8641 0
M  V30 3069 H 293.345 -5.27617 -3.76197 0
M  V30 3070 N 286.751 1.08385 -1.14413 0
M  V30 3071 C 287.991 1.8238 -0.922868 0
M  V30 3072 C 288.355 1.84225 0.540842 0
M  V30 3073 O 289.556 2.53985 0.880058 0
M  V30 3074 C 287.827 3.24048 -1.50757 0
M  V30 3075 S 289.386 4.14917 -1.4279 0
M  V30 3076 H 286.204 0.628524 -0.332384 0
M  V30 3077 H 288.806 1.30278 -1.45766 0
M  V30 3078 H 287.51 3.20288 -2.56601 0
M  V30 3079 H 287.041 3.81224 -0.971178 0
M  V30 3080 H 289.056 4.94473 -0.413582 0
M  V30 3081 N 288.23 0.939286 1.26551 0
M  V30 3082 C 289.14 0.453432 2.30176 0
M  V30 3083 C 290.156 -0.471649 1.67486 0
M  V30 3084 O 291.332 -0.35164 1.98306 0
M  V30 3085 C 288.397 -0.275326 3.45605 0
M  V30 3086 C 287.458 0.686084 4.23782 0
M  V30 3087 C 286.691 -0.00798994 5.33699 0
M  V30 3088 O 286.914 -1.22528 5.57085 0
M  V30 3089 O 285.848 0.669746 5.98162 0
M  V30 3090 H 289.674 1.31416 2.73795 0
M  V30 3091 H 287.259 0.705095 1.31715 0
M  V30 3092 H 289.141 -0.685911 4.1578 0
M  V30 3093 H 287.816 -1.11147 3.0402 0
M  V30 3094 H 286.723 1.14658 3.56096 0
M  V30 3095 H 288.056 1.48979 4.69112 0
M  V30 3096 N 289.708 -1.40897 0.706093 0
M  V30 3097 C 290.638 -2.33418 0.0620085 0
M  V30 3098 C 291.619 -1.52385 -0.755827 0
M  V30 3099 O 292.804 -1.80886 -0.706674 0
M  V30 3100 C 289.934 -3.36293 -0.867445 0
M  V30 3101 C 288.888 -4.27716 -0.155932 0
M  V30 3102 C 288.214 -5.2105 -1.20046 0
M  V30 3103 C 289.514 -5.12944 0.984149 0
M  V30 3104 H 291.208 -2.87527 0.83477 0
M  V30 3105 H 288.754 -1.38249 0.402875 0
M  V30 3106 H 290.707 -3.99949 -1.32735 0
M  V30 3107 H 289.431 -2.80556 -1.67199 0
M  V30 3108 H 288.09 -3.65498 0.284047 0
M  V30 3109 H 287.738 -4.61624 -1.99781 0
M  V30 3110 H 287.438 -5.83056 -0.729328 0
M  V30 3111 H 288.962 -5.87584 -1.66066 0
M  V30 3112 H 290.376 -5.70109 0.604048 0
M  V30 3113 H 288.773 -5.83945 1.38304 0
M  V30 3114 H 289.843 -4.49485 1.81911 0
M  V30 3115 N 291.186 -0.45159 -1.50991 0
M  V30 3116 C 292.433 0.110074 -2.02201 0
M  V30 3117 C 292.761 1.4146 -1.33489 0
M  V30 3118 O 292.016 1.90617 -0.443125 0
M  V30 3119 C 292.315 0.361728 -3.55565 0
M  V30 3120 C 291.981 -0.858717 -4.42648 0
M  V30 3121 C 290.643 -1.19338 -4.66167 0
M  V30 3122 C 292.995 -1.67221 -4.93646 0
M  V30 3123 C 290.323 -2.34195 -5.37931 0
M  V30 3124 C 292.675 -2.8119 -5.6667 0
M  V30 3125 C 291.339 -3.15094 -5.88449 0
M  V30 3126 H 290.609 0.040279 -0.739904 0
M  V30 3127 H 293.256 -0.601696 -1.81802 0
M  V30 3128 H 291.561 1.15554 -3.74372 0
M  V30 3129 H 293.258 0.80996 -3.92735 0
M  V30 3130 H 289.848 -0.58796 -4.24548 0
M  V30 3131 H 294.032 -1.42686 -4.75347 0
M  V30 3132 H 289.288 -2.6076 -5.53005 0
M  V30 3133 H 293.462 -3.44585 -6.05173 0
M  V30 3134 H 291.089 -4.04204 -6.43835 0
M  V30 3135 N 292.664 1.56529 -0.183458 0
M  V30 3136 C 293.941 1.88959 0.50536 0
M  V30 3137 C 294.321 1.09523 1.80466 0
M  V30 3138 O 293.669 0.19278 2.27685 0
M  V30 3139 C 293.879 3.41162 0.73547 0
M  V30 3140 C 295.227 4.11155 1.06005 0
M  V30 3141 O 296.251 3.46548 0.823594 0
M  V30 3142 O 295.11 5.25318 1.50675 0
M  V30 3143 H 292.204 0.78441 0.261973 0
M  V30 3144 H 294.75 1.68231 -0.222802 0
M  V30 3145 H 293.522 3.90874 -0.182561 0
M  V30 3146 H 293.145 3.67543 1.51651 0
M  V30 3147 N 294.142 -0.090211 1.57342 0
M  V30 3148 C 295.074 -1.13541 1.99101 0
M  V30 3149 C 296.087 -1.3604 0.894258 0
M  V30 3150 O 297.276 -1.34606 1.17233 0
M  V30 3151 C 294.376 -2.49001 2.29895 0
M  V30 3152 C 293.549 -2.46712 3.61182 0
M  V30 3153 C 292.608 -3.64136 3.79857 0
M  V30 3154 O 291.634 -3.46405 4.51655 0
M  V30 3155 N 292.836 -4.83802 3.20806 0
M  V30 3156 H 295.601 -0.779942 2.89373 0
M  V30 3157 H 293.162 -0.279125 1.59476 0
M  V30 3158 H 295.154 -3.26166 2.39578 0
M  V30 3159 H 293.724 -2.76619 1.45605 0
M  V30 3160 H 292.944 -1.55058 3.62423 0
M  V30 3161 H 294.232 -2.42265 4.4742 0
M  V30 3162 H 293.63 -5.01112 2.62494 0
M  V30 3163 H 292.187 -5.58543 3.35966 0
M  V30 3164 N 295.62 -1.53406 -0.361157 0
M  V30 3165 C 296.568 -1.80832 -1.46296 0
M  V30 3166 C 297.562 -0.677699 -1.55253 0
M  V30 3167 O 298.768 -0.860723 -1.58087 0
M  V30 3168 H 295.143 -0.572627 -0.487445 0
M  V30 3169 H 297.114 -2.73045 -1.20371 0
M  V30 3170 C 295.863 -2.01907 -2.8307 0
M  V30 3171 H 295.186 -2.88349 -2.76938 0
M  V30 3172 H 296.626 -2.25072 -3.59331 0
M  V30 3173 C 295.085 -0.799449 -3.27277 0
M  V30 3174 O 295.615 0.00971761 -4.01699 0
M  V30 3175 N 293.821 -0.621637 -2.83873 0
M  V30 3176 H 293.368 -1.28126 -2.23476 0
M  V30 3177 H 293.326 0.19298 -3.13807 0
M  V30 3178 N 297.098 0.621204 -1.44841 0
M  V30 3179 C 298.028 1.74366 -1.55303 0
M  V30 3180 C 299.009 1.65199 -0.405385 0
M  V30 3181 O 300.194 1.83807 -0.626787 0
M  V30 3182 C 297.324 3.12931 -1.50637 0
M  V30 3183 C 296.278 3.36896 -2.63979 0
M  V30 3184 C 295.604 4.75594 -2.44366 0
M  V30 3185 C 296.904 3.28483 -4.06074 0
M  V30 3186 H 298.598 1.65867 -2.49256 0
M  V30 3187 H 296.144 0.796558 -1.19962 0
M  V30 3188 H 298.097 3.9124 -1.56555 0
M  V30 3189 H 296.821 3.22237 -0.532057 0
M  V30 3190 H 295.48 2.60972 -2.57467 0
M  V30 3191 H 295.128 4.81616 -1.45105 0
M  V30 3192 H 294.828 4.92586 -3.20364 0
M  V30 3193 H 296.352 5.5612 -2.52117 0
M  V30 3194 H 297.766 3.96684 -4.13902 0
M  V30 3195 H 296.163 3.57008 -4.82354 0
M  V30 3196 H 297.233 2.26133 -4.28943 0
M  V30 3197 N 298.576 1.31904 0.862503 0
M  V30 3198 C 299.523 1.20182 1.9704 0
M  V30 3199 C 300.493 0.0858247 1.65878 0
M  V30 3200 O 301.678 0.26 1.8902 0
M  V30 3201 C 298.818 0.922797 3.32533 0
M  V30 3202 C 297.931 2.12284 3.76244 0
M  V30 3203 C 297.066 1.77996 5.00491 0
M  V30 3204 C 296.105 2.94366 5.36671 0
M  V30 3205 N 295.242 2.60223 6.52095 0
M  V30 3206 H 300.082 2.14951 2.06398 0
M  V30 3207 H 297.619 1.06917 1.01031 0
M  V30 3208 H 299.577 0.741548 4.10557 0
M  V30 3209 H 298.207 0.0119227 3.22798 0
M  V30 3210 H 297.259 2.41461 2.9394 0
M  V30 3211 H 298.571 2.99357 3.98982 0
M  V30 3212 H 297.725 1.56377 5.862 0
M  V30 3213 H 296.464 0.881252 4.79672 0
M  V30 3214 H 295.469 3.16625 4.49476 0
M  V30 3215 H 296.694 3.84957 5.59451 0
M  V30 3216 H 294.64 1.72884 6.32809 0
M  V30 3217 H 294.557 3.40827 6.74814 0
M  V30 3218 H 295.825 2.42016 7.40978 0
M  V30 3219 N 300.054 -1.07777 1.14986 0
M  V30 3220 C 300.984 -2.16865 0.865557 0
M  V30 3221 C 301.965 -1.69123 -0.182083 0
M  V30 3222 O 303.15 -1.94164 -0.0373815 0
M  V30 3223 C 300.28 -3.45539 0.349313 0
M  V30 3224 C 299.234 -4.06708 1.33313 0
M  V30 3225 C 298.56 -5.30411 0.675918 0
M  V30 3226 C 299.86 -4.47241 2.69764 0
M  V30 3227 H 301.554 -2.40905 1.77778 0
M  V30 3228 H 299.1 -1.15781 0.856203 0
M  V30 3229 H 301.053 -4.21174 0.137983 0
M  V30 3230 H 299.777 -3.21072 -0.598362 0
M  V30 3231 H 298.436 -3.33112 1.53075 0
M  V30 3232 H 298.084 -5.02232 -0.277767 0
M  V30 3233 H 297.784 -5.72293 1.33244 0
M  V30 3234 H 299.308 -6.08755 0.474262 0
M  V30 3235 H 300.722 -5.14025 2.53873 0
M  V30 3236 H 299.119 -5.00062 3.3175 0
M  V30 3237 H 300.189 -3.58818 3.26156 0
M  V30 3238 N 301.532 -0.945985 -1.26051 0
M  V30 3239 C 302.495 -0.463897 -2.24456 0
M  V30 3240 C 303.495 0.427655 -1.55009 0
M  V30 3241 O 304.685 0.226157 -1.72726 0
M  V30 3242 C 301.817 0.330812 -3.39291 0
M  V30 3243 H 303.01 -1.33357 -2.68619 0
M  V30 3244 H 300.563 -0.728416 -1.38289 0
M  V30 3245 H 301.298 1.21852 -3.00537 0
M  V30 3246 H 301.083 -0.308679 -3.90883 0
M  V30 3247 H 302.573 0.657865 -4.12386 0
M  V30 3248 N 303.011 1.40521 -0.713556 0
M  V30 3249 C 303.941 2.33381 -0.0743864 0
M  V30 3250 C 304.922 1.52784 0.747735 0
M  V30 3251 O 306.107 1.81258 0.697071 0
M  V30 3252 C 303.237 3.36748 0.849598 0
M  V30 3253 C 302.191 4.27793 0.133247 0
M  V30 3254 C 301.517 5.21679 1.17281 0
M  V30 3255 C 302.817 5.12415 -1.01134 0
M  V30 3256 H 304.511 2.87081 -0.850007 0
M  V30 3257 H 302.057 1.38034 -0.410201 0
M  V30 3258 H 304.01 4.00648 1.30612 0
M  V30 3259 H 302.734 2.81439 1.65709 0
M  V30 3260 H 301.393 3.65342 -0.303426 0
M  V30 3261 H 301.041 4.62677 1.9733 0
M  V30 3262 H 300.741 5.83435 0.698397 0
M  V30 3263 H 302.265 5.88456 1.62947 0
M  V30 3264 H 303.679 5.69781 -0.634274 0
M  V30 3265 H 302.076 5.83203 -1.41399 0
M  V30 3266 H 303.146 4.48514 -1.84292 0
M  V30 3267 N 304.489 0.459591 1.5075 0
M  V30 3268 C 305.399 -0.34613 2.32033 0
M  V30 3269 C 306.415 -1.00686 1.41909 0
M  V30 3270 O 307.591 -0.997361 1.7497 0
M  V30 3271 C 304.656 -1.42029 3.16273 0
M  V30 3272 C 303.717 -0.777362 4.22203 0
M  V30 3273 C 302.95 -1.80034 5.02418 0
M  V30 3274 O 303.173 -3.02544 4.83553 0
M  V30 3275 O 302.107 -1.37853 5.85901 0
M  V30 3276 H 305.933 0.318054 3.0203 0
M  V30 3277 H 303.518 0.221663 1.47746 0
M  V30 3278 H 305.4 -2.04275 3.68578 0
M  V30 3279 H 304.075 -2.06815 2.49016 0
M  V30 3280 H 302.982 -0.116256 3.73919 0
M  V30 3281 H 304.315 -0.172634 4.91897 0
M  V30 3282 N 305.967 -1.56429 0.191757 0
M  V30 3283 C 307.213 -1.97777 -0.448554 0
M  V30 3284 C 307.546 -1.07847 -1.61501 0
M  V30 3285 O 306.821 -0.129774 -1.94067 0
M  V30 3286 C 307.104 -3.48362 -0.911906 0
M  V30 3287 C 306.957 -4.4907 0.256136 0
M  V30 3288 C 308.276 -4.02561 -1.77857 0
M  V30 3289 H 305.395 -0.719071 -0.161572 0
M  V30 3290 H 308.037 -1.87896 0.282007 0
M  V30 3291 H 306.187 -3.56914 -1.53442 0
M  V30 3292 H 307.859 -4.5256 0.893733 0
M  V30 3293 H 306.102 -4.24181 0.908436 0
M  V30 3294 H 306.773 -5.51889 -0.11053 0
M  V30 3295 H 309.249 -3.96767 -1.25359 0
M  V30 3296 H 308.125 -5.08301 -2.07174 0
M  V30 3297 H 308.386 -3.47616 -2.73158 0
M  V30 3298 N 307.445 0.0818655 -1.57387 0
M  V30 3299 C 308.408 1.08265 -2.02018 0
M  V30 3300 C 309.408 1.32183 -0.915664 0
M  V30 3301 O 310.598 1.28073 -1.18081 0
M  V30 3302 C 307.73 2.42871 -2.39221 0
M  V30 3303 H 308.923 0.698204 -2.91659 0
M  V30 3304 H 306.476 0.327303 -1.52835 0
M  V30 3305 H 307.211 2.86167 -1.52575 0
M  V30 3306 H 306.996 2.26855 -3.19811 0
M  V30 3307 H 308.486 3.14826 -2.74362 0
M  V30 3308 N 308.923 1.53595 0.353017 0
M  V30 3309 C 309.833 1.83897 1.45667 0
M  V30 3310 C 310.849 0.728334 1.58023 0
M  V30 3311 O 312.025 1.01968 1.73679 0
M  V30 3312 C 309.09 2.03383 2.80778 0
M  V30 3313 C 308.151 3.27262 2.77845 0
M  V30 3314 C 307.384 3.45809 4.06512 0
M  V30 3315 O 307.607 2.68387 5.03314 0
M  V30 3316 O 306.541 4.39207 4.11559 0
M  V30 3317 H 310.367 2.77686 1.2298 0
M  V30 3318 H 307.952 1.39132 0.544308 0
M  V30 3319 H 309.834 2.17698 3.60812 0
M  V30 3320 H 308.509 1.12783 3.03417 0
M  V30 3321 H 307.416 3.18359 1.96465 0
M  V30 3322 H 308.749 4.17824 2.60161 0
M  V30 3323 N 310.401 -0.613514 1.45168 0
M  V30 3324 C 311.348 -1.72456 1.53387 0
M  V30 3325 C 312.318 -1.6169 0.380191 0
M  V30 3326 O 313.503 -1.81356 0.592836 0
M  V30 3327 C 310.643 -3.10753 1.50088 0
M  V30 3328 C 309.756 -3.32368 2.75963 0
M  V30 3329 C 308.891 -4.60737 2.64376 0
M  V30 3330 C 307.93 -4.7559 3.85332 0
M  V30 3331 N 307.067 -5.95253 3.72315 0
M  V30 3332 H 311.907 -1.64768 2.48305 0
M  V30 3333 H 309.444 -0.803503 1.23216 0
M  V30 3334 H 311.402 -3.90758 1.46164 0
M  V30 3335 H 310.032 -3.17413 0.587243 0
M  V30 3336 H 309.084 -2.4618 2.89999 0
M  V30 3337 H 310.396 -3.39218 3.65695 0
M  V30 3338 H 309.55 -5.48928 2.58385 0
M  V30 3339 H 308.289 -4.56275 1.72233 0
M  V30 3340 H 307.294 -3.85824 3.91688 0
M  V30 3341 H 308.519 -4.81854 4.78533 0
M  V30 3342 H 306.465 -5.91847 2.82937 0
M  V30 3343 H 306.382 -6.03236 4.55677 0
M  V30 3344 H 307.65 -6.85958 3.70246 0
M  V30 3345 N 311.879 -1.3236 -0.855495 0
M  V30 3346 C 312.842 -1.21164 -1.94556 0
M  V30 3347 C 313.842 -0.134908 -1.60233 0
M  V30 3348 O 315.032 -0.385249 -1.69887 0
M  V30 3349 C 312.164 -0.863192 -3.29791 0
M  V30 3350 H 313.357 -2.18038 -2.05911 0
M  V30 3351 H 310.91 -1.16179 -1.04557 0
M  V30 3352 H 311.645 0.103769 -3.24134 0
M  V30 3353 H 311.43 -1.64166 -3.56078 0
M  V30 3354 H 312.92 -0.809156 -4.09686 0
M  V30 3355 N 313.357 1.07166 -1.15556 0
M  V30 3356 C 314.605 1.79443 -0.929764 0
M  V30 3357 C 314.926 1.87246 0.544414 0
M  V30 3358 O 314.196 1.37473 1.39564 0
M  V30 3359 H 312.776 0.664625 -0.341003 0
M  V30 3360 H 315.438 1.29499 -1.45657 0
M  V30 3361 H 314.534 2.81832 -1.34079 0
M  V30 3362 N 314.835 0.952656 1.25548 0
M  V30 3363 C 316.063 0.623496 1.97282 0
M  V30 3364 C 316.478 -0.803987 1.70826 0
M  V30 3365 O 315.835 -1.53755 0.983147 0
M  V30 3366 C 315.886 0.870209 3.5087 0
M  V30 3367 O 315.607 2.24156 3.76412 0
M  V30 3368 C 317.108 0.553164 4.39835 0
M  V30 3369 H 314.328 0.233931 0.628902 0
M  V30 3370 H 316.872 1.27649 1.59768 0
M  V30 3371 H 315.027 0.263652 3.86502 0
M  V30 3372 H 315.441 2.31021 4.70882 0
M  V30 3373 H 316.915 0.776342 5.46513 0
M  V30 3374 H 317.392 -0.512215 4.36203 0
M  V30 3375 H 317.998 1.13896 4.09766 0
M  V30 3376 N 316.313 -1.40141 0.720998 0
M  V30 3377 C 317.56 -2.00787 0.262842 0
M  V30 3378 C 317.888 -1.5718 -1.14563 0
M  V30 3379 O 317.143 -0.785391 -1.79249 0
M  V30 3380 C 317.442 -3.56165 0.296892 0
M  V30 3381 C 317.108 -4.19373 1.65641 0
M  V30 3382 C 315.77 -4.36352 2.02855 0
M  V30 3383 C 318.122 -4.54578 2.54968 0
M  V30 3384 C 315.45 -4.8582 3.28931 0
M  V30 3385 C 317.802 -5.05447 3.80402 0
M  V30 3386 C 316.466 -5.20635 4.17726 0
M  V30 3387 H 315.736 -0.734731 0.0961807 0
M  V30 3388 H 318.383 -1.67673 0.925093 0
M  V30 3389 H 316.688 -3.8922 -0.448932 0
M  V30 3390 H 318.385 -4.00929 -0.0755208 0
M  V30 3391 H 314.975 -4.06549 1.35704 0
M  V30 3392 H 319.159 -4.41091 2.27491 0
M  V30 3393 H 314.415 -4.95764 3.57811 0
M  V30 3394 H 318.589 -5.31663 4.49786 0
M  V30 3395 H 316.216 -5.58728 5.15487 0
M  V30 3396 N 317.792 -0.46758 -1.50504 0
M  V30 3397 C 319.04 0.0884469 -2.01906 0
M  V30 3398 C 319.361 1.40532 -1.35188 0
M  V30 3399 O 318.631 1.89515 -0.496079 0
M  V30 3400 H 317.211 0.0356765 -0.746148 0
M  V30 3401 H 319.873 -0.6172 -1.84869 0
M  V30 3402 H 318.969 0.2425 -3.11156 0
M  V30 3403 N 319.27 1.56325 -0.20005 0
M  V30 3404 C 320.681 1.8408 0.31167 0
M  V30 3405 C 321.032 1.12087 1.61031 0
M  V30 3406 O 320.157 0.38332 2.12978 0
M  V30 3407 C 320.752 3.33932 0.57226 0
M  V30 3408 C 319.311 3.6208 1.02834 0
M  V30 3409 C 318.458 2.77186 0.079634 0
M  V30 3410 H 321.409 1.52939 -0.423729 0
M  V30 3411 H 321.43 3.52971 1.42096 0
M  V30 3412 H 320.942 3.86303 -0.37308 0
M  V30 3413 H 319.043 3.15147 1.98778 0
M  V30 3414 H 319.156 4.7023 0.917624 0
M  V30 3415 H 317.52 2.47951 0.582448 0
M  V30 3416 H 318.303 3.32347 -0.860238 0
M  V30 3417 N 320.748 -0.0735177 1.57428 0
M  V30 3418 C 321.996 -0.771472 1.86796 0
M  V30 3419 C 322.317 -1.78201 0.791804 0
M  V30 3420 O 321.587 -1.95074 -0.179718 0
M  V30 3421 H 320.167 -0.28791 0.689287 0
M  V30 3422 H 322.829 -0.0500161 1.94836 0
M  V30 3423 H 321.925 -1.28874 2.8425 0
M  V30 3424 N 322.226 -1.5378 -0.344866 0
M  V30 3425 C 323.451 -1.75211 -1.10977 0
M  V30 3426 C 323.876 -0.48936 -1.81623 0
M  V30 3427 O 323.234 0.557925 -1.72502 0
M  V30 3428 C 323.282 -2.93147 -2.09993 0
M  V30 3429 O 322.386 -2.63203 -3.17487 0
M  V30 3430 H 321.727 -0.581241 -0.321021 0
M  V30 3431 H 324.257 -2.00738 -0.395661 0
M  V30 3432 H 324.267 -3.19898 -2.53237 0
M  V30 3433 H 322.942 -3.84731 -1.5797 0
M  V30 3434 H 321.519 -2.47336 -2.79069 0
M  V30 3435 O 323.743 0.490843 -1.5386 0
M  V30 3436 H 324.434 1.14557 -1.56193 0
M  V30 END ATOM
M  V30 BEGIN BOND
M  V30 END BOND
M  V30 END CTAB
M  END
$$$$
