drugbank_target|Q9Y234 Lipoyltransferase 1, mitochondrial (DB00166)
 OpenBabel12092119233D

  0  0  0     0  0            999 V3000
M  V30 BEGIN CTAB
M  V30 COUNTS 6000 6066 0 0 0
M  V30 BEGIN ATOM
M  V30 1 H -0.908 1.98254 -0.117106 0
M  V30 2 N 0 1.576 0 0
M  V30 3 C 0.933 2.03868 1.02534 0
M  V30 4 C 1.911 0.928543 1.3348 0
M  V30 5 O 3.095 1.19667 1.45644 0
M  V30 6 C 0.222 2.43627 2.35294 0
M  V30 7 C -0.732 3.65373 2.2001 0
M  V30 8 S 0.101 5.13292 1.52614 0
M  V30 9 C 1.257 5.56322 2.86805 0
M  V30 10 H 1.49 2.90518 0.631377 0
M  V30 11 H -0.977 1.52953 0.210867 0
M  V30 12 H 0.981 2.67203 3.11629 0
M  V30 13 H -0.358 1.57376 2.7183 0
M  V30 14 H -1.165 3.90944 3.18086 0
M  V30 15 H -1.563 3.418 1.51819 0
M  V30 16 H 0.729 5.58782 3.83104 0
M  V30 17 H 1.672 6.56266 2.65933 0
M  V30 18 H 2.08 4.83886 2.90714 0
M  V30 19 N 1.4781 -0.272755 1.55222 0
M  V30 20 C 2.4081 -1.34136 1.91127 0
M  V30 21 C 3.3891 -1.51513 0.773168 0
M  V30 22 O 4.5741 -1.64552 1.03132 0
M  V30 23 C 1.7041 -2.70083 2.1834 0
M  V30 24 C 0.6581 -2.67437 3.34158 0
M  V30 25 C -0.0159 -4.06938 3.46851 0
M  V30 26 C 1.2841 -2.26686 4.70543 0
M  V30 27 H 2.9781 -1.04333 2.80633 0
M  V30 28 H 0.5241 -0.500454 1.35024 0
M  V30 29 H 2.4771 -3.44952 2.42046 0
M  V30 30 H 1.2011 -3.01469 1.25634 0
M  V30 31 H -0.1399 -1.95026 3.1042 0
M  V30 32 H -0.4919 -4.35547 2.51611 0
M  V30 33 H -0.7919 -4.06062 4.2472 0
M  V30 34 H 0.7321 -4.83545 3.72849 0
M  V30 35 H 2.1461 -2.91277 4.93792 0
M  V30 36 H 0.5431 -2.36971 5.5133 0
M  V30 37 H 1.6131 -1.21818 4.69349 0
M  V30 38 N 2.9562 -1.48159 -0.537278 0
M  V30 39 C 4.2052 -1.5506 -1.28993 0
M  V30 40 C 4.5182 -0.226211 -1.94288 0
M  V30 41 O 5.7242 -0.173395 -2.70946 0
M  V30 42 C 4.1802 -2.73429 -2.34018 0
M  V30 43 C 3.7882 -4.1248 -1.74825 0
M  V30 44 C 5.5322 -2.89638 -3.10339 0
M  V30 45 C 3.4392 -5.22121 -2.77747 0
M  V30 46 H 2.3692 -0.577231 -0.485098 0
M  V30 47 H 5.0202 -1.74478 -0.568317 0
M  V30 48 H 3.4022 -2.47431 -3.09182 0
M  V30 49 H 4.5762 -4.48466 -1.05899 0
M  V30 50 H 2.8912 -4.01327 -1.11022 0
M  V30 51 H 5.4882 -3.68718 -3.87235 0
M  V30 52 H 5.8312 -1.9882 -3.65754 0
M  V30 53 H 6.3642 -3.15502 -2.42288 0
M  V30 54 H 3.1032 -6.1488 -2.27161 0
M  V30 55 H 2.6232 -4.90631 -3.45024 0
M  V30 56 H 4.3022 -5.49924 -3.4087 0
M  V30 57 N 4.4343 0.785586 -1.36625 0
M  V30 58 C 5.8453 1.36101 -1.27803 0
M  V30 59 C 6.1963 1.96035 0.0804875 0
M  V30 60 O 5.3213 1.92834 0.982042 0
M  V30 61 C 5.9163 2.47442 -2.31426 0
M  V30 62 C 4.4753 3.00789 -2.26281 0
M  V30 63 C 3.6223 1.73896 -2.15999 0
M  V30 64 H 6.5733 0.586928 -1.47448 0
M  V30 65 H 6.5943 3.2656 -1.95291 0
M  V30 66 H 6.1063 2.03791 -3.30289 0
M  V30 67 H 4.2073 3.48851 -1.30896 0
M  V30 68 H 4.3203 3.57343 -3.19128 0
M  V30 69 H 2.6843 1.9628 -1.62316 0
M  V30 70 H 3.4673 1.32368 -3.16755 0
M  V30 71 N 5.9124 1.20967 1.01018 0
M  V30 72 C 7.1594 1.02374 1.74716 0
M  V30 73 C 7.4874 -0.443375 1.89379 0
M  V30 74 O 6.7424 -1.34535 1.42123 0
M  V30 75 C 7.0414 1.65997 3.16512 0
M  V30 76 C 6.7074 3.15831 3.2181 0
M  V30 77 C 5.3694 3.56719 3.22963 0
M  V30 78 C 7.7214 4.11816 3.19464 0
M  V30 79 C 5.0494 4.92107 3.19449 0
M  V30 80 C 7.4014 5.47158 3.17491 0
M  V30 81 C 6.0654 5.87451 3.16951 0
M  V30 82 H 5.3354 0.374614 0.639332 0
M  V30 83 H 7.9824 1.50485 1.18434 0
M  V30 84 H 6.2874 1.10166 3.75993 0
M  V30 85 H 7.9844 1.49119 3.72242 0
M  V30 86 H 4.5744 2.83263 3.21652 0
M  V30 87 H 8.7584 3.81257 3.17737 0
M  V30 88 H 4.0144 5.22579 3.17366 0
M  V30 89 H 8.1884 6.21274 3.14629 0
M  V30 90 H 5.8154 6.92329 3.13983 0
M  V30 91 N 7.3905 -1.2043 1.01659 0
M  V30 92 C 8.6155 -1.94318 0.724942 0
M  V30 93 C 9.0405 -1.74266 -0.708034 0
M  V30 94 O 8.3985 -1.03694 -1.48719 0
M  V30 95 C 8.4465 -3.44486 1.06591 0
M  V30 96 O 7.5505 -4.12017 0.177599 0
M  V30 97 H 6.8915 -0.60708 0.26898 0
M  V30 98 H 9.4215 -1.52861 1.35995 0
M  V30 99 H 9.4315 -3.95106 1.01762 0
M  V30 100 H 8.1065 -3.58404 2.10997 0
M  V30 101 H 6.6835 -3.71821 0.283421 0
M  V30 102 N 8.8686 -0.792821 -1.36206 0
M  V30 103 C 9.8016 -0.139422 -2.27774 0
M  V30 104 C 10.7796 0.68649 -1.47398 0
M  V30 105 O 11.9636 0.656738 -1.7669 0
M  V30 106 C 9.0906 0.807947 -3.28922 0
M  V30 107 C 8.1366 0.0633999 -4.26453 0
M  V30 108 S 8.9696 -1.26319 -5.20388 0
M  V30 109 C 10.1256 -0.31991 -6.25082 0
M  V30 110 H 10.3586 -0.915809 -2.82843 0
M  V30 111 H 7.8916 -0.587203 -1.42798 0
M  V30 112 H 9.8496 1.34908 -3.87699 0
M  V30 113 H 8.5106 1.55761 -2.72759 0
M  V30 114 H 7.7036 0.782386 -4.9789 0
M  V30 115 H 7.3056 -0.407352 -3.71775 0
M  V30 116 H 9.5976 0.499985 -6.75653 0
M  V30 117 H 10.5406 -1.00307 -7.00959 0
M  V30 118 H 10.9486 0.0782694 -5.64446 0
M  V30 119 N 10.3467 1.47872 -0.545128 0
M  V30 120 C 11.2937 2.29849 0.2093 0
M  V30 121 C 12.2637 1.38313 0.919707 0
M  V30 122 O 13.4487 1.67277 0.917772 0
M  V30 123 C 10.5887 3.22019 1.24088 0
M  V30 124 C 9.7017 4.2864 0.537778 0
M  V30 125 C 8.8367 5.07973 1.5536 0
M  V30 126 C 7.8757 6.06381 0.8348 0
M  V30 127 N 7.0127 6.78717 1.79688 0
M  V30 128 H 11.8527 2.93845 -0.49591 0
M  V30 129 H 9.3897 1.44848 -0.256389 0
M  V30 130 H 11.3477 3.73868 1.85144 0
M  V30 131 H 9.9777 2.59914 1.91428 0
M  V30 132 H 9.0297 3.7994 -0.187046 0
M  V30 133 H 10.3417 4.98793 -0.0258907 0
M  V30 134 H 9.4957 5.63912 2.23803 0
M  V30 135 H 8.2347 4.37693 2.15118 0
M  V30 136 H 7.2397 5.49631 0.136388 0
M  V30 137 H 8.4647 6.78665 0.24313 0
M  V30 138 H 6.4107 6.11177 2.38326 0
M  V30 139 H 6.3277 7.44998 1.28505 0
M  V30 140 H 7.5957 7.39237 2.47282 0
M  V30 141 N 11.8248 0.280983 1.55075 0
M  V30 142 C 12.7728 -0.619864 2.24188 0
M  V30 143 C 13.7668 -1.15315 1.24092 0
M  V30 144 O 14.9728 -1.1061 1.42005 0
M  V30 145 H 11.3478 -0.218459 0.719569 0
M  V30 146 H 13.3188 -0.0141831 2.98397 0
M  V30 147 C 12.0678 -1.7899 2.98091 0
M  V30 148 H 11.3908 -1.38874 3.74905 0
M  V30 149 H 12.8308 -2.39672 3.49762 0
M  V30 150 C 11.2898 -2.68192 2.03899 0
M  V30 151 O 11.8198 -3.6872 1.594 0
M  V30 152 N 10.0258 -2.35488 1.70275 0
M  V30 153 H 9.5728 -1.53787 2.06658 0
M  V30 154 H 9.5308 -2.95442 1.07524 0
M  V30 155 N 13.3029 -1.57598 0.00835791 0
M  V30 156 C 14.5429 -1.92788 -0.679136 0
M  V30 157 C 14.9069 -0.883378 -1.70471 0
M  V30 158 O 16.1079 -1.12079 -2.44319 0
M  V30 159 C 14.3789 -3.32994 -1.29807 0
M  V30 160 S 15.9379 -3.90082 -2.00952 0
M  V30 161 H 12.7559 -0.67475 -0.224127 0
M  V30 162 H 15.3579 -1.95385 0.0670497 0
M  V30 163 H 14.0619 -4.06846 -0.538922 0
M  V30 164 H 13.5929 -3.33791 -2.082 0
M  V30 165 H 15.6079 -3.71834 -3.28563 0
M  V30 166 N 14.781 0.264519 -1.55364 0
M  V30 167 C 16.028 0.994986 -1.7637 0
M  V30 168 C 16.356 1.85976 -0.5695 0
M  V30 169 O 15.611 1.90509 0.44776 0
M  V30 170 C 15.91 1.9004 -3.02687 0
M  V30 171 C 15.576 1.19243 -4.34847 0
M  V30 172 C 14.238 0.996709 -4.70764 0
M  V30 173 C 16.59 0.689296 -5.16622 0
M  V30 174 C 13.918 0.285261 -5.86006 0
M  V30 175 C 16.27 -0.00860079 -6.32599 0
M  V30 176 C 14.934 -0.215963 -6.67151 0
M  V30 177 H 14.204 0.364091 -0.645383 0
M  V30 178 H 16.851 0.266543 -1.89636 0
M  V30 179 H 15.156 2.69533 -2.84357 0
M  V30 180 H 16.853 2.46695 -3.16137 0
M  V30 181 H 13.443 1.3549 -4.06621 0
M  V30 182 H 17.627 0.828108 -4.89342 0
M  V30 183 H 12.883 0.113961 -6.11294 0
M  V30 184 H 17.057 -0.406186 -6.95214 0
M  V30 185 H 14.684 -0.769217 -7.56298 0
M  V30 186 N 16.2591 1.48442 0.529413 0
M  V30 187 C 17.1911 1.59095 1.64989 0
M  V30 188 C 18.2041 0.475212 1.5571 0
M  V30 189 O 19.3931 0.746081 1.6216 0
M  V30 190 C 16.4931 1.50518 3.0364 0
M  V30 191 C 15.6661 2.77142 3.38395 0
M  V30 192 C 14.7251 2.62012 4.56329 0
M  V30 193 O 13.7511 3.35898 4.59522 0
M  V30 194 N 14.9531 1.71667 5.54536 0
M  V30 195 H 17.7181 2.55723 1.56287 0
M  V30 196 H 15.2791 1.45173 0.716697 0
M  V30 197 H 17.2711 1.38091 3.80412 0
M  V30 198 H 15.8411 0.618627 3.06418 0
M  V30 199 H 15.0611 3.0413 2.50796 0
M  V30 200 H 16.3491 3.61146 3.58401 0
M  V30 201 H 15.7471 1.10841 5.54735 0
M  V30 202 H 14.3041 1.65178 6.30523 0
M  V30 203 N 17.7372 -0.778329 1.37039 0
M  V30 204 C 18.6672 -1.90546 1.34962 0
M  V30 205 C 19.6482 -1.68681 0.219274 0
M  V30 206 O 20.8332 -1.89634 0.418624 0
M  V30 207 C 17.9632 -3.27734 1.14925 0
M  V30 208 C 16.9172 -3.64147 2.24902 0
M  V30 209 C 16.2432 -4.99806 1.89996 0
M  V30 210 C 17.5432 -3.71579 3.67051 0
M  V30 211 H 19.2372 -1.92541 2.29277 0
M  V30 212 H 16.7832 -0.924948 1.10366 0
M  V30 213 H 18.7362 -4.06215 1.12104 0
M  V30 214 H 17.4602 -3.26154 0.170631 0
M  V30 215 H 16.1192 -2.8797 2.26868 0
M  V30 216 H 15.7672 -4.94759 0.906796 0
M  V30 217 H 15.4672 -5.25139 2.63634 0
M  V30 218 H 16.9912 -5.80694 1.88749 0
M  V30 219 H 18.4052 -4.40227 3.67251 0
M  V30 220 H 16.8022 -4.08405 4.39688 0
M  V30 221 H 17.8722 -2.72404 4.01154 0
M  V30 222 N 19.2153 -1.21501 -1.00376 0
M  V30 223 C 20.1453 -0.999478 -2.11028 0
M  V30 224 C 21.1263 0.0759671 -1.6993 0
M  V30 225 O 22.3113 -0.0841106 -1.94018 0
M  V30 226 C 19.4413 -0.564709 -3.42678 0
M  V30 227 C 18.3953 -1.58486 -3.97576 0
M  V30 228 C 17.7213 -1.00628 -5.25146 0
M  V30 229 C 19.0213 -2.97204 -4.29496 0
M  V30 230 H 20.7153 -1.92495 -2.29317 0
M  V30 231 H 18.2613 -0.92693 -1.102 0
M  V30 232 H 20.2143 -0.401091 -4.19487 0
M  V30 233 H 18.9383 0.396411 -3.24185 0
M  V30 234 H 17.5973 -1.73606 -3.22888 0
M  V30 235 H 17.2453 -0.0368439 -5.02987 0
M  V30 236 H 16.9453 -1.68771 -5.62841 0
M  V30 237 H 18.4693 -0.854015 -6.04598 0
M  V30 238 H 19.8833 -2.8552 -4.97143 0
M  V30 239 H 18.2803 -3.62372 -4.78338 0
M  V30 240 H 19.3503 -3.47956 -3.3772 0
M  V30 241 N 20.6934 1.19889 -1.02296 0
M  V30 242 C 21.9334 1.91125 -0.724602 0
M  V30 243 C 22.2974 1.77464 0.732835 0
M  V30 244 O 23.4984 2.43241 1.144 0
M  V30 245 C 21.7694 3.38187 -1.15604 0
M  V30 246 S 23.3284 4.27702 -0.980621 0
M  V30 247 H 20.1464 0.66018 -0.263976 0
M  V30 248 H 22.7484 1.44978 -1.31155 0
M  V30 249 H 21.4524 3.45653 -2.21251 0
M  V30 250 H 20.9834 3.89363 -0.562131 0
M  V30 251 H 22.9984 4.96073 0.112225 0
M  V30 252 N 22.1715 0.800033 1.35784 0
M  V30 253 C 23.1195 0.193851 2.31791 0
M  V30 254 C 24.1135 -0.652744 1.56319 0
M  V30 255 O 25.3195 -0.546641 1.71499 0
M  V30 256 H 21.6945 0.04392 0.750716 0
M  V30 257 H 23.6655 1.01883 2.80468 0
M  V30 258 C 22.4145 -0.648338 3.41602 0
M  V30 259 H 21.7375 -0.00624665 3.998 0
M  V30 260 H 23.1775 -1.03898 4.11073 0
M  V30 261 C 21.6365 -1.8111 2.84079 0
M  V30 262 O 22.1665 -2.90825 2.77099 0
M  V30 263 N 20.3725 -1.62056 2.41218 0
M  V30 264 H 19.9195 -0.728123 2.47095 0
M  V30 265 H 19.8775 -2.40013 2.03079 0
M  V30 266 N 23.6496 -1.47581 0.552962 0
M  V30 267 C 24.8896 -2.04379 0.0296245 0
M  V30 268 C 25.2536 -1.4185 -1.29393 0
M  V30 269 O 26.4546 -1.89669 -1.90471 0
M  V30 270 C 24.7256 -3.57339 -0.0661371 0
M  V30 271 S 26.2846 -4.35511 -0.536213 0
M  V30 272 H 23.1026 -0.710625 0.0230991 0
M  V30 273 H 25.7046 -1.81005 0.738734 0
M  V30 274 H 24.4086 -4.00374 0.901596 0
M  V30 275 H 23.9396 -3.85202 -0.798931 0
M  V30 276 H 25.9546 -4.6253 -1.79668 0
M  V30 277 N 25.1277 -0.289203 -1.54924 0
M  V30 278 C 26.0597 0.625583 -2.20497 0
M  V30 279 C 27.0727 1.10667 -1.19402 0
M  V30 280 O 28.2617 1.02615 -1.46056 0
M  V30 281 C 25.3617 1.86702 -2.82835 0
M  V30 282 C 24.5347 1.5304 -4.09753 0
M  V30 283 C 23.5937 2.62576 -4.56005 0
M  V30 284 O 22.6197 2.28167 -5.21468 0
M  V30 285 N 23.8217 3.92901 -4.27328 0
M  V30 286 H 26.5867 0.0642801 -2.99631 0
M  V30 287 H 24.1477 -0.110896 -1.6152 0
M  V30 288 H 26.1397 2.59304 -3.10715 0
M  V30 289 H 24.7097 2.33702 -2.07611 0
M  V30 290 H 23.9297 0.637564 -3.8901 0
M  V30 291 H 25.2177 1.28072 -4.92418 0
M  V30 292 H 24.6157 4.23671 -3.74859 0
M  V30 293 H 23.1727 4.61837 -4.59946 0
M  V30 294 N 26.6058 1.57591 -0.0167156 0
M  V30 295 C 27.8518 1.91567 0.665582 0
M  V30 296 C 28.1848 0.892298 1.72487 0
M  V30 297 O 27.4598 -0.0867127 1.94307 0
M  V30 298 C 27.7428 3.36069 1.29342 0
M  V30 299 C 27.5958 4.49135 0.244541 0
M  V30 300 C 28.9148 3.803 2.21495 0
M  V30 301 H 26.0338 0.69666 0.240488 0
M  V30 302 H 28.6758 1.89866 -0.0714356 0
M  V30 303 H 26.8258 3.3765 1.92158 0
M  V30 304 H 28.4978 4.59689 -0.385228 0
M  V30 305 H 26.7408 4.3165 -0.431379 0
M  V30 306 H 27.4118 5.47242 0.723207 0
M  V30 307 H 29.8878 3.80377 1.68678 0
M  V30 308 H 28.7638 4.82127 2.62382 0
M  V30 309 H 29.0248 3.15104 3.101 0
M  V30 310 N 28.0839 -0.256276 1.55502 0
M  V30 311 C 29.4949 -0.826068 1.67431 0
M  V30 312 C 29.8459 -1.86396 0.612446 0
M  V30 313 O 28.9709 -2.15031 -0.243025 0
M  V30 314 C 29.5659 -1.50512 3.03532 0
M  V30 315 C 28.1249 -2.02273 3.17431 0
M  V30 316 C 27.2719 -0.870548 2.63281 0
M  V30 317 H 30.2229 -0.0322728 1.58667 0
M  V30 318 H 30.2439 -2.37279 2.97454 0
M  V30 319 H 29.7559 -0.749484 3.80794 0
M  V30 320 H 27.8569 -2.80746 2.44974 0
M  V30 321 H 27.9699 -2.22655 4.24219 0
M  V30 322 H 26.3339 -1.26851 2.20864 0
M  V30 323 H 27.1169 -0.128149 3.43061 0
M  V30 324 N 29.562 -1.4872 -0.521534 0
M  V30 325 C 30.525 -1.63379 -1.60748 0
M  V30 326 C 31.525 -0.50661 -1.52611 0
M  V30 327 O 32.715 -0.772601 -1.5613 0
M  V30 328 C 29.847 -1.61192 -3.00383 0
M  V30 329 H 31.04 -2.60217 -1.49087 0
M  V30 330 H 28.593 -1.37444 -0.744235 0
M  V30 331 H 29.328 -0.65863 -3.17541 0
M  V30 332 H 29.113 -2.43032 -3.07698 0
M  V30 333 H 30.603 -1.7466 -3.7932 0
M  V30 334 N 31.0401 0.771051 -1.3745 0
M  V30 335 C 32.0031 1.86598 -1.33093 0
M  V30 336 C 33.0031 1.59076 -0.234845 0
M  V30 337 O 34.1931 1.67145 -0.490732 0
M  V30 338 C 31.3251 3.23747 -1.06773 0
M  V30 339 H 32.5181 1.91873 -2.30488 0
M  V30 340 H 30.0711 0.970876 -1.2249 0
M  V30 341 H 30.8061 3.24148 -0.099129 0
M  V30 342 H 30.5911 3.45115 -1.86112 0
M  V30 343 H 32.0811 4.03824 -1.06377 0
M  V30 344 N 32.5182 1.22032 0.997298 0
M  V30 345 C 33.7662 1.04016 1.73278 0
M  V30 346 C 34.0872 -0.426255 1.90284 0
M  V30 347 O 33.3572 -1.30694 1.45931 0
M  V30 348 H 31.9372 0.381897 0.642 0
M  V30 349 H 34.5992 1.5347 1.20137 0
M  V30 350 H 33.6952 1.51441 2.72896 0
M  V30 351 N 33.9963 -1.19345 1.0293 0
M  V30 352 C 35.2433 -1.89038 0.726008 0
M  V30 353 C 35.5713 -1.79649 -0.745427 0
M  V30 354 O 34.8263 -1.18354 -1.55855 0
M  V30 355 C 35.1253 -3.39292 1.12319 0
M  V30 356 C 34.7913 -3.68885 2.59297 0
M  V30 357 C 33.4533 -3.76671 2.99453 0
M  V30 358 C 35.8053 -3.82178 3.54386 0
M  V30 359 C 33.1333 -3.9522 4.33611 0
M  V30 360 C 35.4853 -4.0224 4.88248 0
M  V30 361 C 34.1493 -4.08259 5.28092 0
M  V30 362 H 33.4193 -0.691739 0.265665 0
M  V30 363 H 36.0663 -1.41328 1.29223 0
M  V30 364 H 34.3713 -3.88903 0.475584 0
M  V30 365 H 36.0683 -3.91536 0.866037 0
M  V30 366 H 32.6583 -3.63433 2.27189 0
M  V30 367 H 36.8423 -3.75505 3.24514 0
M  V30 368 H 32.0983 -3.98119 4.64016 0
M  V30 369 H 36.2723 -4.11468 5.61843 0
M  V30 370 H 33.8993 -4.22384 6.32057 0
M  V30 371 N 35.4744 -0.807222 -1.35358 0
M  V30 372 C 36.4214 -0.216037 -2.29787 0
M  V30 373 C 37.3914 0.650278 -1.52842 0
M  V30 374 O 38.5764 0.595227 -1.81278 0
M  V30 375 C 35.7164 0.628893 -3.39321 0
M  V30 376 C 34.8294 -0.257927 -4.31229 0
M  V30 377 C 33.9644 0.595069 -5.27856 0
M  V30 378 C 33.0034 -0.292111 -6.11403 0
M  V30 379 N 32.1404 0.520895 -7.00165 0
M  V30 380 H 36.9804 -1.02671 -2.79755 0
M  V30 381 H 34.5174 -0.517839 -1.37684 0
M  V30 382 H 36.4754 1.13393 -4.01494 0
M  V30 383 H 35.1054 1.40482 -2.90628 0
M  V30 384 H 34.1574 -0.881076 -3.70056 0
M  V30 385 H 35.4694 -0.940759 -4.89848 0
M  V30 386 H 34.6234 1.16522 -5.95405 0
M  V30 387 H 33.3624 1.31146 -4.69736 0
M  V30 388 H 32.3674 -0.874525 -5.428 0
M  V30 389 H 33.5924 -1.00638 -6.71602 0
M  V30 390 H 31.5384 1.22125 -6.44532 0
M  V30 391 H 31.4554 -0.103877 -7.55929 0
M  V30 392 H 32.7234 1.0743 -7.72062 0
M  V30 393 N 36.9525 1.47285 -0.560781 0
M  V30 394 C 37.8995 2.30058 0.18491 0
M  V30 395 C 38.8695 1.39281 0.904986 0
M  V30 396 O 40.0545 1.68241 0.899979 0
M  V30 397 C 37.1945 3.23317 1.20666 0
M  V30 398 C 36.3075 4.29186 0.492285 0
M  V30 399 C 35.4425 5.09592 1.49964 0
M  V30 400 C 34.4815 6.07232 0.770439 0
M  V30 401 N 33.6185 6.80584 1.72479 0
M  V30 402 H 38.4585 2.93302 -0.527048 0
M  V30 403 H 35.9955 1.44568 -0.271738 0
M  V30 404 H 37.9535 3.75811 1.81168 0
M  V30 405 H 36.5835 2.61929 1.88661 0
M  V30 406 H 35.6355 3.7972 -0.227333 0
M  V30 407 H 36.9475 4.98738 -0.0787929 0
M  V30 408 H 36.1015 5.66254 2.17809 0
M  V30 409 H 34.8405 4.3995 2.10464 0
M  V30 410 H 33.8455 5.49745 0.0780846 0
M  V30 411 H 35.0705 6.78884 0.171134 0
M  V30 412 H 33.0165 6.1367 2.3183 0
M  V30 413 H 32.9335 7.46319 1.20596 0
M  V30 414 H 34.2015 7.41818 2.39428 0
M  V30 415 N 38.4306 0.297415 1.54768 0
M  V30 416 C 39.6586 -0.315623 2.04478 0
M  V30 417 C 40.0736 -1.47792 1.17486 0
M  V30 418 O 39.4306 -1.81404 0.19971 0
M  V30 419 C 39.4816 -0.7753 3.53088 0
M  V30 420 O 39.2026 0.340732 4.36773 0
M  V30 421 C 40.7036 -1.45386 4.18781 0
M  V30 422 H 37.9236 -0.0690887 0.667434 0
M  V30 423 H 40.4676 0.436003 1.99798 0
M  V30 424 H 38.6226 -1.47696 3.58141 0
M  V30 425 H 39.0366 -0.0165035 5.24497 0
M  V30 426 H 40.5106 -1.72669 5.24299 0
M  V30 427 H 40.9876 -2.39275 3.68299 0
M  V30 428 H 41.5936 -0.795475 4.17795 0
M  V30 429 N 39.9087 -1.5758 0.0250728 0
M  V30 430 C 41.1547 -1.91917 -0.655413 0
M  V30 431 C 41.4877 -0.901433 -1.72011 0
M  V30 432 O 40.7627 0.0764069 -1.9435 0
M  V30 433 C 41.0457 -3.36751 -1.27558 0
M  V30 434 C 40.8987 -4.49258 -0.220719 0
M  V30 435 C 42.2177 -3.81469 -2.19475 0
M  V30 436 H 39.3367 -0.697925 -0.23679 0
M  V30 437 H 41.9787 -1.89825 0.0815036 0
M  V30 438 H 40.1287 -3.38664 -1.90365 0
M  V30 439 H 41.8007 -4.59478 0.409601 0
M  V30 440 H 40.0437 -4.31415 0.454264 0
M  V30 441 H 40.7147 -5.47618 -0.694175 0
M  V30 442 H 43.1907 -3.81266 -1.66659 0
M  V30 443 H 42.0667 -4.83512 -2.59822 0
M  V30 444 H 42.3277 -3.16744 -3.08424 0
M  V30 445 N 41.3868 0.248026 -1.55636 0
M  V30 446 C 42.3338 1.30707 -1.90222 0
M  V30 447 C 43.3038 1.47881 -0.756332 0
M  V30 448 O 44.4888 1.61883 -1.00988 0
M  V30 449 C 41.6288 2.65769 -2.20138 0
M  V30 450 C 40.7418 2.56612 -3.47526 0
M  V30 451 C 39.8768 3.8402 -3.67017 0
M  V30 452 C 38.9158 3.69476 -4.8801 0
M  V30 453 N 38.0528 4.88774 -5.04029 0
M  V30 454 H 42.8928 1.00512 -2.80538 0
M  V30 455 H 40.4298 0.485055 -1.38873 0
M  V30 456 H 42.3878 3.44386 -2.35487 0
M  V30 457 H 41.0178 2.94115 -1.33027 0
M  V30 458 H 40.0698 1.69571 -3.40514 0
M  V30 459 H 41.3818 2.41774 -4.36287 0
M  V30 460 H 40.5358 4.7108 -3.8232 0
M  V30 461 H 39.2748 4.01754 -2.76487 0
M  V30 462 H 38.2798 2.80799 -4.72686 0
M  V30 463 H 39.5048 3.53238 -5.8 0
M  V30 464 H 37.4508 5.0687 -4.16435 0
M  V30 465 H 37.3678 4.76562 -5.86877 0
M  V30 466 H 38.6358 5.77335 -5.23741 0
M  V30 467 N 42.8649 1.48995 0.513639 0
M  V30 468 C 43.8129 1.65199 1.63744 0
M  V30 469 C 44.8069 0.51809 1.61283 0
M  V30 470 O 46.0129 0.697335 1.65943 0
M  V30 471 H 42.3879 0.52069 0.542574 0
M  V30 472 H 44.3589 2.59552 1.47226 0
M  V30 473 C 43.1079 1.72409 3.01945 0
M  V30 474 H 42.4309 2.59029 3.04539 0
M  V30 475 H 43.8709 1.87785 3.80148 0
M  V30 476 C 42.3299 0.46618 3.33659 0
M  V30 477 O 42.8599 -0.413744 3.99564 0
M  V30 478 N 41.0659 0.332931 2.88687 0
M  V30 479 H 40.6129 1.04996 2.35231 0
M  V30 480 H 40.5709 -0.507665 3.10274 0
M  V30 481 N 44.343 -0.763751 1.37857 0
M  V30 482 C 45.591 -1.51957 1.33243 0
M  V30 483 C 45.912 -1.94835 -0.0801709 0
M  V30 484 O 45.182 -1.66894 -1.02582 0
M  V30 485 H 43.762 -0.563626 0.49024 0
M  V30 486 H 46.424 -0.908504 1.7243 0
M  V30 487 H 45.52 -2.41523 1.97669 0
M  V30 488 N 45.8211 -1.22559 -0.990812 0
M  V30 489 C 46.7511 -1.0218 -2.09956 0
M  V30 490 C 47.7321 0.0579394 -1.70001 0
M  V30 491 O 48.9171 -0.104684 -1.93918 0
M  V30 492 C 46.0471 -0.601023 -3.4206 0
M  V30 493 C 45.0011 -1.62694 -3.95872 0
M  V30 494 C 44.3271 -1.06193 -5.24049 0
M  V30 495 C 45.6271 -3.01743 -4.2632 0
M  V30 496 H 47.3211 -1.94916 -2.27262 0
M  V30 497 H 44.8671 -0.938566 -1.09211 0
M  V30 498 H 46.8201 -0.445561 -4.19038 0
M  V30 499 H 45.5441 0.362005 -3.24588 0
M  V30 500 H 44.2031 -1.77021 -3.21028 0
M  V30 501 H 43.8511 -0.0901903 -5.02919 0
M  V30 502 H 43.5511 -1.74732 -5.61019 0
M  V30 503 H 45.0751 -0.918092 -6.03658 0
M  V30 504 H 46.4891 -2.90777 -4.94087 0
M  V30 505 H 44.8861 -3.67425 -4.74467 0
M  V30 506 H 45.9561 -3.51518 -3.34011 0
M  V30 507 N 47.2992 1.18797 -1.03562 0
M  V30 508 C 48.5482 1.87978 -0.731235 0
M  V30 509 C 48.8612 1.80911 0.743671 0
M  V30 510 O 50.0672 2.45407 1.16137 0
M  V30 511 C 48.5232 3.3721 -1.25768 0
M  V30 512 C 48.1312 3.52818 -2.76085 0
M  V30 513 C 49.8752 4.11825 -1.0296 0
M  V30 514 C 47.7822 4.9598 -3.22114 0
M  V30 515 H 46.7122 0.704063 -0.269835 0
M  V30 516 H 49.3632 1.34266 -1.25079 0
M  V30 517 H 47.7452 3.90359 -0.666011 0
M  V30 518 H 48.9192 3.09965 -3.40966 0
M  V30 519 H 47.2342 2.91602 -2.97249 0
M  V30 520 H 49.8312 5.17411 -1.34869 0
M  V30 521 H 50.1742 4.16287 0.0333546 0
M  V30 522 H 50.7072 3.64833 -1.58562 0
M  V30 523 H 47.4462 4.96684 -4.27768 0
M  V30 524 H 46.9662 5.39569 -2.61965 0
M  V30 525 H 48.6452 5.6467 -3.15844 0
M  V30 526 N 48.7773 0.814389 1.34928 0
M  V30 527 C 49.7073 0.244827 2.32213 0
M  V30 528 C 50.6883 -0.634024 1.57842 0
M  V30 529 O 51.8733 -0.562676 1.8587 0
M  V30 530 C 49.0033 -0.601106 3.42058 0
M  V30 531 C 47.9573 0.179896 4.27622 0
M  V30 532 C 47.2833 -0.788237 5.28858 0
M  V30 533 C 48.5833 1.38329 5.03649 0
M  V30 534 H 50.2773 1.05763 2.80097 0
M  V30 535 H 47.8233 0.510029 1.34665 0
M  V30 536 H 49.7763 -1.00968 4.09125 0
M  V30 537 H 48.5003 -1.44688 2.92802 0
M  V30 538 H 47.1593 0.569739 3.62146 0
M  V30 539 H 46.8073 -1.62973 4.75866 0
M  V30 540 H 46.5073 -0.269942 5.8698 0
M  V30 541 H 48.0313 -1.19485 5.98795 0
M  V30 542 H 49.4453 1.04918 5.63618 0
M  V30 543 H 47.8423 1.83662 5.71304 0
M  V30 544 H 48.9123 2.16592 4.33839 0
M  V30 545 N 50.2554 -1.46986 0.568584 0
M  V30 546 C 51.1874 -2.28233 -0.210337 0
M  V30 547 C 52.2004 -1.37682 -0.868767 0
M  V30 548 O 53.3894 -1.62406 -0.740705 0
M  V30 549 C 50.4894 -3.12293 -1.3163 0
M  V30 550 C 49.6624 -4.30878 -0.7525 0
M  V30 551 C 48.7214 -4.96445 -1.74439 0
M  V30 552 O 47.7474 -5.54482 -1.286 0
M  V30 553 N 48.9494 -4.92171 -3.07812 0
M  V30 554 H 51.7144 -2.95723 0.486648 0
M  V30 555 H 49.2754 -1.56742 0.405409 0
M  V30 556 H 51.2674 -3.53022 -1.97883 0
M  V30 557 H 49.8374 -2.46971 -1.91636 0
M  V30 558 H 49.0574 -3.94104 0.0871128 0
M  V30 559 H 50.3454 -5.07558 -0.35536 0
M  V30 560 H 49.7434 -4.46239 -3.47688 0
M  V30 561 H 48.3004 -5.36884 -3.69592 0
M  V30 562 N 51.7335 -0.305618 -1.54608 0
M  V30 563 C 52.9585 0.307562 -2.05107 0
M  V30 564 C 53.3835 1.46385 -1.18123 0
M  V30 565 O 52.7415 1.8034 -0.186324 0
M  V30 566 C 52.7895 0.73704 -3.52987 0
M  V30 567 O 51.8935 1.84134 -3.6901 0
M  V30 568 H 51.2345 0.0589143 -0.661381 0
M  V30 569 H 53.7645 -0.448807 -1.99617 0
M  V30 570 H 53.7745 1.02459 -3.94925 0
M  V30 571 H 52.4495 -0.108773 -4.15758 0
M  V30 572 H 51.0265 1.55398 -3.38978 0
M  V30 573 N 53.2116 1.57565 -0.0334293 0
M  V30 574 C 54.4606 1.91155 0.643639 0
M  V30 575 C 54.7736 0.91192 1.73042 0
M  V30 576 O 55.9796 1.13923 2.46442 0
M  V30 577 C 54.4356 3.39443 1.1961 0
M  V30 578 C 54.0436 4.47774 0.142381 0
M  V30 579 C 55.7876 3.82094 1.84944 0
M  V30 580 C 53.6946 5.87162 0.706727 0
M  V30 581 H 52.6246 0.713368 0.244176 0
M  V30 582 H 55.2756 1.8323 -0.0994323 0
M  V30 583 H 53.6576 3.42313 1.99092 0
M  V30 584 H 54.8316 4.56469 -0.630296 0
M  V30 585 H 53.1466 4.14352 -0.412446 0
M  V30 586 H 55.7436 4.83591 2.2813 0
M  V30 587 H 56.0866 3.17386 2.69392 0
M  V30 588 H 56.6196 3.81665 1.12145 0
M  V30 589 H 53.3586 6.55424 -0.0997178 0
M  V30 590 H 52.8786 5.82064 1.44779 0
M  V30 591 H 54.5576 6.35866 1.19514 0
M  V30 592 N 54.6897 -0.239769 1.55765 0
M  V30 593 C 55.9147 -0.988373 1.82335 0
M  V30 594 C 56.3397 -1.77886 0.611421 0
M  V30 595 O 55.6977 -1.75889 -0.439639 0
M  V30 596 C 55.7457 -1.89627 3.06715 0
M  V30 597 O 54.8497 -2.98904 2.84131 0
M  V30 598 H 54.1907 -0.280858 0.601677 0
M  V30 599 H 56.7207 -0.258597 2.02959 0
M  V30 600 H 56.7307 -2.30957 3.36338 0
M  V30 601 H 55.4057 -1.31511 3.9456 0
M  V30 602 H 53.9827 -2.61651 2.65694 0
M  V30 603 N 56.1678 -1.49265 -0.50573 0
M  V30 604 C 57.1158 -1.66065 -1.62866 0
M  V30 605 C 58.1098 -0.526636 -1.61006 0
M  V30 606 O 59.3158 -0.706126 -1.65571 0
M  V30 607 H 55.6908 -0.52356 -0.539805 0
M  V30 608 H 57.6618 -2.60329 -1.45848 0
M  V30 609 C 56.4108 -1.74008 -3.01026 0
M  V30 610 H 55.7338 -2.6064 -3.03161 0
M  V30 611 H 57.1738 -1.89798 -3.79147 0
M  V30 612 C 55.6328 -0.483868 -3.33407 0
M  V30 613 O 56.1628 0.392548 -3.99777 0
M  V30 614 N 54.3688 -0.348236 -2.88506 0
M  V30 615 H 53.9158 -1.06242 -2.34671 0
M  V30 616 H 53.8738 0.491204 -3.10539 0
M  V30 617 N 57.6459 0.756429 -1.3826 0
M  V30 618 C 58.9229 1.50584 -1.24835 0
M  V30 619 C 59.3029 2.10556 0.151485 0
M  V30 620 O 58.6509 1.96825 1.1607 0
M  V30 621 C 58.8609 2.57448 -2.3563 0
M  V30 622 C 60.2089 3.24429 -2.73917 0
M  V30 623 O 61.2329 2.67751 -2.34921 0
M  V30 624 O 60.0919 4.26937 -3.41156 0
M  V30 625 H 57.1859 0.667664 -0.48801 0
M  V30 626 H 59.7319 0.792083 -1.5008 0
M  V30 627 H 58.5039 2.11362 -3.29305 0
M  V30 628 H 58.1269 3.36408 -2.11933 0
M  V30 629 N 59.124 1.23083 0.984299 0
M  V30 630 C 60.37 1.06214 1.72761 0
M  V30 631 C 60.703 -0.400584 1.90024 0
M  V30 632 O 59.978 -1.29672 1.44967 0
M  V30 633 C 60.261 1.78375 3.12817 0
M  V30 634 C 60.114 3.32296 3.03149 0
M  V30 635 C 61.433 1.54309 4.12161 0
M  V30 636 H 58.552 0.387251 0.627061 0
M  V30 637 H 61.194 1.51536 1.14616 0
M  V30 638 H 59.344 1.39848 3.62457 0
M  V30 639 H 61.016 3.8032 2.61064 0
M  V30 640 H 59.259 3.6153 2.39747 0
M  V30 641 H 59.93 3.77972 4.02295 0
M  V30 642 H 62.406 1.87791 3.71314 0
M  V30 643 H 61.282 2.07281 5.08258 0
M  V30 644 H 61.543 0.477572 4.39513 0
M  V30 645 N 60.6021 -1.18246 1.0419 0
M  V30 646 C 61.8321 -1.91916 0.764961 0
M  V30 647 C 62.2401 -1.76485 -0.681898 0
M  V30 648 O 61.5831 -1.09275 -1.47664 0
M  V30 649 C 61.6451 -3.4373 1.05309 0
M  V30 650 C 61.3091 -3.8294 2.4941 0
M  V30 651 C 62.3061 -3.86621 3.47592 0
M  V30 652 C 59.9911 -4.142 2.84155 0
M  V30 653 C 61.9851 -4.21013 4.78568 0
M  V30 654 C 59.6721 -4.48262 4.15337 0
M  V30 655 C 60.6701 -4.51645 5.12353 0
M  V30 656 O 60.3581 -4.84911 6.41183 0
M  V30 657 H 60.0901 -0.61606 0.278292 0
M  V30 658 H 62.6441 -1.50947 1.39299 0
M  V30 659 H 60.8741 -3.84946 0.367933 0
M  V30 660 H 62.5631 -3.9865 0.763752 0
M  V30 661 H 63.3291 -3.62607 3.22089 0
M  V30 662 H 59.2081 -4.10743 2.09311 0
M  V30 663 H 62.7521 -4.23568 5.54289 0
M  V30 664 H 58.6491 -4.71737 4.40607 0
M  V30 665 H 59.4171 -5.02809 6.45852 0
M  V30 666 N 62.0802 -0.821533 -1.34494 0
M  V30 667 C 63.0122 -0.199946 -2.28326 0
M  V30 668 C 64.0252 0.609377 -1.50965 0
M  V30 669 O 65.2142 0.439285 -1.7301 0
M  V30 670 C 62.3142 0.738431 -3.30757 0
M  V30 671 C 61.4872 -0.0277632 -4.37391 0
M  V30 672 C 60.5462 0.831332 -5.19591 0
M  V30 673 O 59.5722 0.276822 -5.68526 0
M  V30 674 N 60.7742 2.15132 -5.39165 0
M  V30 675 H 63.5392 -1.00609 -2.82308 0
M  V30 676 H 61.1002 -0.678366 -1.47003 0
M  V30 677 H 63.0922 1.31773 -3.82646 0
M  V30 678 H 61.6622 1.44533 -2.7718 0
M  V30 679 H 60.8822 -0.788359 -3.86236 0
M  V30 680 H 62.1702 -0.555251 -5.05761 0
M  V30 681 H 61.5682 2.62559 -5.01078 0
M  V30 682 H 60.1252 2.6795 -5.94177 0
M  V30 683 N 63.5583 1.46682 -0.576371 0
M  V30 684 C 64.5063 2.31953 0.17335 0
M  V30 685 C 65.5003 1.44098 0.89062 0
M  V30 686 O 66.7063 1.60759 0.809728 0
M  V30 687 H 63.0813 0.748273 0.0747727 0
M  V30 688 H 65.0523 2.93007 -0.564738 0
M  V30 689 C 63.8013 3.27142 1.17786 0
M  V30 690 H 63.1243 3.94719 0.635361 0
M  V30 691 H 64.5643 3.896 1.67296 0
M  V30 692 C 63.0233 2.52036 2.23561 0
M  V30 693 O 63.5533 2.27877 3.3081 0
M  V30 694 N 61.7593 2.12709 1.97998 0
M  V30 695 H 61.3063 2.32557 1.10792 0
M  V30 696 H 61.2643 1.62776 2.68982 0
M  V30 697 N 65.0364 0.313813 1.54444 0
M  V30 698 C 65.9664 -0.549454 2.26943 0
M  V30 699 C 66.9474 -1.12741 1.27372 0
M  V30 700 O 68.1324 -1.15436 1.56167 0
M  V30 701 C 65.2624 -1.71523 3.01989 0
M  V30 702 C 64.2164 -1.26703 4.08816 0
M  V30 703 C 63.5424 -2.51898 4.71647 0
M  V30 704 C 64.8424 -0.388962 5.2085 0
M  V30 705 H 66.5364 0.0552661 2.99349 0
M  V30 706 H 64.0824 0.0280207 1.43973 0
M  V30 707 H 66.0354 -2.32535 3.51433 0
M  V30 708 H 64.7594 -2.34639 2.27183 0
M  V30 709 H 63.4184 -0.679896 3.6024 0
M  V30 710 H 63.0664 -3.13356 3.93468 0
M  V30 711 H 62.7664 -2.22605 5.43802 0
M  V30 712 H 64.2904 -3.1369 5.23861 0
M  V30 713 H 65.7044 -0.905107 5.6611 0
M  V30 714 H 64.1014 -0.18924 5.99802 0
M  V30 715 H 65.1714 0.582699 4.81386 0
M  V30 716 N 66.5145 -1.57545 0.0417849 0
M  V30 717 C 67.4775 -2.09885 -0.92093 0
M  V30 718 C 68.4775 -1.01648 -1.24596 0
M  V30 719 O 69.6675 -1.27759 -1.1842 0
M  V30 720 C 66.7995 -2.57527 -2.23367 0
M  V30 721 H 67.9925 -2.96236 -0.467382 0
M  V30 722 H 65.5455 -1.5493 -0.206467 0
M  V30 723 H 66.2805 -1.74542 -2.73323 0
M  V30 724 H 66.0655 -3.36613 -2.01083 0
M  V30 725 H 67.5555 -2.98201 -2.92346 0
M  V30 726 N 67.9926 0.231505 -1.5589 0
M  V30 727 C 69.2386 0.95877 -1.78705 0
M  V30 728 C 69.5716 1.8438 -0.609725 0
M  V30 729 O 68.8466 1.90521 0.391426 0
M  V30 730 C 69.1296 1.8062 -3.11526 0
M  V30 731 C 68.9826 0.948328 -4.39689 0
M  V30 732 C 70.3016 2.78585 -3.40703 0
M  V30 733 H 67.4206 0.347129 -0.650131 0
M  V30 734 H 70.0626 0.228259 -1.88624 0
M  V30 735 H 68.2126 2.42902 -3.03201 0
M  V30 736 H 69.8846 0.343016 -4.60023 0
M  V30 737 H 68.1276 0.253314 -4.3306 0
M  V30 738 H 68.7986 1.57543 -5.29041 0
M  V30 739 H 71.2746 2.26439 -3.49091 0
M  V30 740 H 70.1506 3.34988 -4.34826 0
M  V30 741 H 70.4116 3.55825 -2.62375 0
M  V30 742 N 69.4707 1.49531 0.497807 0
M  V30 743 C 70.3807 1.69176 1.62532 0
M  V30 744 C 71.3967 0.5744 1.64246 0
M  V30 745 O 72.5727 0.849497 1.82608 0
M  V30 746 C 69.6377 1.75695 2.98885 0
M  V30 747 C 68.6987 2.9929 3.07773 0
M  V30 748 C 67.9317 3.05488 4.37622 0
M  V30 749 O 68.1547 2.19192 5.26603 0
M  V30 750 O 67.0887 3.9798 4.51548 0
M  V30 751 H 70.9147 2.647 1.48887 0
M  V30 752 H 68.4997 1.3331 0.674441 0
M  V30 753 H 70.3817 1.82317 3.79919 0
M  V30 754 H 69.0567 0.8335 3.12785 0
M  V30 755 H 67.9637 2.98183 2.25915 0
M  V30 756 H 69.2967 3.91125 2.98801 0
M  V30 757 N 70.9488 -0.749086 1.3866 0
M  V30 758 C 72.2258 -1.4992 1.25632 0
M  V30 759 C 72.6058 -2.10633 -0.140317 0
M  V30 760 O 71.9538 -1.97437 -1.15025 0
M  V30 761 C 72.1638 -2.56195 2.36992 0
M  V30 762 C 73.5118 -3.22972 2.75634 0
M  V30 763 O 74.5358 -2.66502 2.36337 0
M  V30 764 O 73.3948 -4.25122 3.43415 0
M  V30 765 H 70.4888 -0.665067 0.491544 0
M  V30 766 H 73.0348 -0.784113 1.50498 0
M  V30 767 H 71.8068 -2.09612 3.30422 0
M  V30 768 H 71.4298 -3.35279 2.13714 0
M  V30 769 N 72.4269 -1.23603 -0.977757 0
M  V30 770 C 73.6729 -1.08136 -1.72274 0
M  V30 771 C 74.0279 0.377453 -1.88661 0
M  V30 772 O 73.3209 1.27552 -1.42972 0
M  V30 773 C 73.5149 -1.7433 -3.11999 0
M  V30 774 C 73.3439 -3.26498 -3.0924 0
M  V30 775 C 72.1139 -3.9567 -3.14282 0
M  V30 776 C 74.3119 -4.2323 -2.92201 0
M  V30 777 N 72.2939 -5.34799 -3.01436 0
M  V30 778 C 73.6649 -5.49289 -2.87544 0
M  V30 779 C 75.7199 -4.13931 -2.76705 0
M  V30 780 C 74.4229 -6.67116 -2.68978 0
M  V30 781 C 76.4489 -5.31424 -2.59504 0
M  V30 782 C 75.8109 -6.5641 -2.55548 0
M  V30 783 H 71.9099 -0.450247 -0.639376 0
M  V30 784 H 74.4939 -1.5637 -1.16002 0
M  V30 785 H 72.6649 -1.28624 -3.66484 0
M  V30 786 H 74.3969 -1.51815 -3.75146 0
M  V30 787 H 71.1519 -3.46767 -3.22567 0
M  V30 788 H 71.5759 -6.07748 -2.98281 0
M  V30 789 H 76.2179 -3.1807 -2.78552 0
M  V30 790 H 73.9359 -7.63109 -2.65876 0
M  V30 791 H 77.5219 -5.26072 -2.48474 0
M  V30 792 H 76.4019 -7.45795 -2.42405 0
M  V30 793 N 73.905 1.17692 -1.04816 0
M  V30 794 C 75.154 1.87192 -0.751132 0
M  V30 795 C 75.467 1.8169 0.724441 0
M  V30 796 O 76.673 2.46625 1.13527 0
M  V30 797 C 75.129 3.35857 -1.29338 0
M  V30 798 C 74.737 3.4987 -2.79812 0
M  V30 799 C 76.481 4.10709 -1.07322 0
M  V30 800 C 74.388 4.92536 -3.27356 0
M  V30 801 H 73.318 0.701162 -0.277288 0
M  V30 802 H 75.969 1.32932 -1.26496 0
M  V30 803 H 74.351 3.89631 -0.707376 0
M  V30 804 H 75.525 3.06332 -3.44235 0
M  V30 805 H 73.84 2.88433 -3.00325 0
M  V30 806 H 76.437 5.15952 -1.4035 0
M  V30 807 H 76.78 4.16299 -0.0108001 0
M  V30 808 H 77.313 3.6313 -1.62423 0
M  V30 809 H 74.052 4.92119 -4.33012 0
M  V30 810 H 73.572 5.3676 -2.67673 0
M  V30 811 H 75.251 5.61288 -3.21815 0
M  V30 812 N 75.3831 0.828654 1.34056 0
M  V30 813 C 76.3331 0.226828 2.26869 0
M  V30 814 C 77.3171 -0.612243 1.48796 0
M  V30 815 O 78.5091 -0.465884 1.70759 0
M  V30 816 C 75.6381 -0.605654 3.37915 0
M  V30 817 C 74.7241 0.244361 4.23395 0
M  V30 818 N 75.1151 1.31815 4.88322 0
M  V30 819 C 73.4131 0.0296616 4.4599 0
M  V30 820 C 74.1141 1.83895 5.51867 0
M  V30 821 N 73.0901 1.14196 5.3147 0
M  V30 822 H 76.8921 1.04811 2.74576 0
M  V30 823 H 74.4061 0.67205 1.47842 0
M  V30 824 H 76.4031 -1.05302 4.03382 0
M  V30 825 H 75.0631 -1.42504 2.91758 0
M  V30 826 H 76.0741 1.70099 4.8917 0
M  V30 827 H 72.7511 -0.757097 4.10578 0
M  V30 828 H 74.1411 2.7376 6.136 0
M  V30 829 N 76.8612 -1.46375 0.584142 0
M  V30 830 C 78.1382 -1.956 0.0033388 0
M  V30 831 C 78.5182 -1.52679 -1.45782 0
M  V30 832 O 77.8662 -0.77816 -2.14842 0
M  V30 833 C 78.0762 -3.48551 0.176891 0
M  V30 834 C 79.4242 -4.24576 0.0454609 0
M  V30 835 O 80.4482 -3.56043 0.105801 0
M  V30 836 O 79.3072 -5.46427 -0.0890376 0
M  V30 837 H 76.4012 -0.825547 -0.0490066 0
M  V30 838 H 78.9472 -1.56652 0.65256 0
M  V30 839 H 77.7192 -3.72683 1.1926 0
M  V30 840 H 77.3422 -3.94332 -0.508695 0
M  V30 841 N 78.3393 -0.321999 -1.54275 0
M  V30 842 C 79.2893 0.560185 -2.21011 0
M  V30 843 C 80.2733 1.08283 -1.19011 0
M  V30 844 O 81.4653 1.02011 -1.44647 0
M  V30 845 C 78.5943 1.72137 -2.97025 0
M  V30 846 C 77.6803 1.21369 -4.06363 0
M  V30 847 N 78.0713 0.425566 -5.04007 0
M  V30 848 C 76.3693 1.49255 -4.20284 0
M  V30 849 C 77.0703 0.152601 -5.815 0
M  V30 850 N 76.0463 0.738294 -5.38563 0
M  V30 851 H 79.8483 -0.049265 -2.93859 0
M  V30 852 H 77.3623 -0.127779 -1.61897 0
M  V30 853 H 79.3593 2.36512 -3.43319 0
M  V30 854 H 78.0193 2.33431 -2.25699 0
M  V30 855 H 79.0303 0.068551 -5.17855 0
M  V30 856 H 75.7073 2.11145 -3.60172 0
M  V30 857 H 77.0973 -0.481764 -6.70171 0
M  V30 858 N 79.8174 1.5752 -0.0501392 0
M  V30 859 C 80.7504 2.07026 0.959962 0
M  V30 860 C 81.7284 0.970539 1.30458 0
M  V30 861 O 82.9124 1.2424 1.41763 0
M  V30 862 C 80.0394 2.5099 2.27424 0
M  V30 863 C 79.0854 3.72188 2.08275 0
M  V30 864 S 79.9184 5.17888 1.36207 0
M  V30 865 C 81.0744 5.65165 2.6896 0
M  V30 866 H 81.3074 2.9238 0.538631 0
M  V30 867 H 78.8404 1.53547 0.162099 0
M  V30 868 H 80.7984 2.76982 3.02971 0
M  V30 869 H 79.4594 1.65944 2.66686 0
M  V30 870 H 78.6524 4.00866 3.05487 0
M  V30 871 H 78.2544 3.46457 1.40868 0
M  V30 872 H 80.5464 5.70687 3.65133 0
M  V30 873 H 81.4894 6.64394 2.4492 0
M  V30 874 H 81.8974 4.9289 2.75172 0
M  V30 875 N 81.2955 -0.223234 1.56011 0
M  V30 876 C 82.2435 -1.29627 1.93131 0
M  V30 877 C 83.2375 -1.48608 0.813146 0
M  V30 878 O 84.4435 -1.49802 0.997966 0
M  V30 879 H 80.8185 -0.434563 0.613726 0
M  V30 880 H 82.7895 -0.955995 2.82672 0
M  V30 881 C 81.5385 -2.63983 2.26292 0
M  V30 882 H 80.8615 -2.50185 3.11846 0
M  V30 883 H 82.3015 -3.3788 2.56151 0
M  V30 884 C 80.7605 -3.18866 1.08747 0
M  V30 885 O 81.2905 -4.00192 0.347727 0
M  V30 886 N 79.4965 -2.77217 0.871743 0
M  V30 887 H 79.0435 -2.1119 1.47501 0
M  V30 888 H 79.0015 -3.1428 0.0869905 0
M  V30 889 N 82.7736 -1.49793 -0.48987 0
M  V30 890 C 83.7036 -1.70201 -1.59856 0
M  V30 891 C 84.6846 -0.55076 -1.60937 0
M  V30 892 O 85.8696 -0.787841 -1.77501 0
M  V30 893 C 82.9996 -1.77882 -2.98287 0
M  V30 894 C 81.9536 -2.92907 -3.12073 0
M  V30 895 C 81.2796 -2.85712 -4.51965 0
M  V30 896 C 82.5796 -4.3369 -2.91051 0
M  V30 897 H 84.2736 -2.63025 -1.43032 0
M  V30 898 H 81.8196 -1.26574 -0.686664 0
M  V30 899 H 83.7726 -1.90744 -3.75759 0
M  V30 900 H 82.4966 -0.816653 -3.16225 0
M  V30 901 H 81.1556 -2.79665 -2.37029 0
M  V30 902 H 80.8036 -1.8738 -4.66795 0
M  V30 903 H 80.5036 -3.62921 -4.62128 0
M  V30 904 H 82.0276 -3.00598 -5.31482 0
M  V30 905 H 83.4416 -4.47555 -3.58284 0
M  V30 906 H 81.8386 -5.12205 -3.12675 0
M  V30 907 H 82.9086 -4.47362 -1.87071 0
M  V30 908 N 84.2517 0.741722 -1.39055 0
M  V30 909 C 85.1617 1.88621 -1.39496 0
M  V30 910 C 86.1777 1.71557 -0.290578 0
M  V30 911 O 87.3537 1.94275 -0.530954 0
M  V30 912 C 84.4187 3.24134 -1.23037 0
M  V30 913 C 83.4797 3.5364 -2.43387 0
M  V30 914 C 82.7127 4.82687 -2.27703 0
M  V30 915 O 82.9357 5.55922 -1.27696 0
M  V30 916 O 81.8697 5.1194 -3.16545 0
M  V30 917 H 85.6957 1.91203 -2.35956 0
M  V30 918 H 83.2807 0.888625 -1.20099 0
M  V30 919 H 85.1627 4.0513 -1.15964 0
M  V30 920 H 83.8377 3.22337 -0.296691 0
M  V30 921 H 82.7447 2.72758 -2.56035 0
M  V30 922 H 84.0777 3.60209 -3.35425 0
M  V30 923 N 85.7298 1.2412 0.971189 0
M  V30 924 C 86.9778 1.07668 1.71032 0
M  V30 925 C 87.2988 -0.385797 1.91146 0
M  V30 926 O 86.5688 -1.27569 1.4867 0
M  V30 927 H 85.1488 0.395429 0.633755 0
M  V30 928 H 87.8108 1.55984 1.16855 0
M  V30 929 H 86.9068 1.57195 2.69622 0
M  V30 930 N 87.2079 -1.17134 1.05439 0
M  V30 931 C 88.1549 -2.21235 0.657539 0
M  V30 932 C 89.1249 -1.62551 -0.341543 0
M  V30 933 O 90.3099 -1.89379 -0.232393 0
M  V30 934 C 87.4499 -3.45076 0.0410575 0
M  V30 935 C 86.5629 -4.18042 1.08927 0
M  V30 936 C 85.6979 -5.29376 0.439848 0
M  V30 937 C 84.7369 -5.94132 1.4722 0
M  V30 938 N 83.8739 -6.96975 0.846756 0
M  V30 939 H 88.7139 -2.54534 1.54972 0
M  V30 940 H 86.2509 -1.25028 0.775006 0
M  V30 941 H 88.2089 -4.15862 -0.33383 0
M  V30 942 H 86.8389 -3.12353 -0.814568 0
M  V30 943 H 85.8909 -3.45945 1.58196 0
M  V30 944 H 87.2029 -4.62306 1.87282 0
M  V30 945 H 86.3569 -6.06699 0.0115125 0
M  V30 946 H 85.0959 -4.86251 -0.375656 0
M  V30 947 H 84.1009 -5.15538 1.91052 0
M  V30 948 H 85.3259 -6.39337 2.28965 0
M  V30 949 H 83.2719 -6.5598 0.0518075 0
M  V30 950 H 83.1889 -7.39565 1.5678 0
M  V30 951 H 84.4569 -7.78239 0.443277 0
M  V30 952 N 88.686 -0.835752 -1.33615 0
M  V30 953 C 90.097 -0.487099 -1.80234 0
M  V30 954 C 90.448 0.993627 -1.69179 0
M  V30 955 O 89.573 1.77403 -1.23924 0
M  V30 956 C 90.168 -0.877385 -3.27242 0
M  V30 957 C 88.727 -0.580915 -3.7189 0
M  V30 958 C 87.874 -1.0874 -2.5509 0
M  V30 959 H 90.825 -1.02474 -1.2118 0
M  V30 960 H 90.846 -0.186195 -3.80044 0
M  V30 961 H 90.358 -1.95512 -3.35256 0
M  V30 962 H 88.459 0.486881 -3.69405 0
M  V30 963 H 88.572 -1.13396 -4.65487 0
M  V30 964 H 86.936 -0.508392 -2.49575 0
M  V30 965 H 87.719 -2.17184 -2.65868 0
M  V30 966 N 90.1641 1.46063 -0.591896 0
M  V30 967 C 91.4131 2.01547 -0.0786637 0
M  V30 968 C 91.7261 1.46796 1.29268 0
M  V30 969 O 92.9321 1.94157 1.89777 0
M  V30 970 C 91.3881 3.59787 -0.0900024 0
M  V30 971 C 90.9961 4.23534 -1.46023 0
M  V30 972 C 92.7401 4.22895 0.368806 0
M  V30 973 C 90.6471 5.73881 -1.4288 0
M  V30 974 H 89.5771 0.753564 -0.0256388 0
M  V30 975 H 92.2281 1.677 -0.744905 0
M  V30 976 H 90.6101 3.90752 0.642586 0
M  V30 977 H 91.7841 4.04167 -2.21328 0
M  V30 978 H 90.0991 3.72558 -1.85982 0
M  V30 979 H 92.6961 5.33116 0.411258 0
M  V30 980 H 93.0391 3.9247 1.38827 0
M  V30 981 H 93.5721 3.9659 -0.31001 0
M  V30 982 H 90.3111 6.0898 -2.42536 0
M  V30 983 H 89.8311 5.95486 -0.718095 0
M  V30 984 H 91.5101 6.36776 -1.14565 0
M  V30 985 N 91.6422 0.330177 1.54103 0
M  V30 986 C 92.5722 -0.525353 2.27513 0
M  V30 987 C 93.5532 -1.11383 1.2856 0
M  V30 988 O 94.7382 -1.13773 1.57383 0
M  V30 989 C 91.8682 -1.6831 3.03791 0
M  V30 990 C 90.8222 -1.2236 4.10137 0
M  V30 991 C 90.1482 -2.46882 4.74293 0
M  V30 992 C 91.4482 -0.333697 5.21233 0
M  V30 993 H 93.1422 0.087013 2.99274 0
M  V30 994 H 90.6882 0.0432893 1.43935 0
M  V30 995 H 92.6412 -2.28795 3.5388 0
M  V30 996 H 91.3652 -2.32216 2.29659 0
M  V30 997 H 90.0242 -0.64165 3.60941 0
M  V30 998 H 89.6722 -3.09165 3.96769 0
M  V30 999 H 89.3722 -2.16825 5.46133 0
M  V30 1000 H 90.8962 -3.08117 5.27159 0
M  V30 1001 H 92.3102 -0.845013 5.67038 0
M  V30 1002 H 90.7072 -0.125612 5.99969 0
M  V30 1003 H 91.7772 0.633724 4.80741 0
M  V30 1004 N 93.1203 -1.57491 0.0584922 0
M  V30 1005 C 94.3673 -1.92978 -0.613648 0
M  V30 1006 C 94.6953 -0.937461 -1.70417 0
M  V30 1007 O 93.9503 0.049078 -1.95638 0
M  V30 1008 C 94.2493 -3.3513 -1.24188 0
M  V30 1009 C 93.9153 -4.50037 -0.278826 0
M  V30 1010 C 92.5773 -4.81198 -0.0138447 0
M  V30 1011 C 94.9293 -5.19807 0.380777 0
M  V30 1012 C 92.2573 -5.79473 0.918052 0
M  V30 1013 C 94.6093 -6.19079 1.30091 0
M  V30 1014 C 93.2733 -6.48665 1.57449 0
M  V30 1015 H 92.5433 -0.706157 -0.22455 0
M  V30 1016 H 95.1903 -1.91082 0.126533 0
M  V30 1017 H 93.4953 -3.33429 -2.05749 0
M  V30 1018 H 95.1923 -3.59871 -1.769 0
M  V30 1019 H 91.7823 -4.25726 -0.495539 0
M  V30 1020 H 95.9663 -4.95939 0.189158 0
M  V30 1021 H 91.2223 -6.00727 1.1374 0
M  V30 1022 H 95.3963 -6.7225 1.81804 0
M  V30 1023 H 93.0233 -7.24628 2.29822 0
M  V30 1024 N 94.5984 0.214957 -1.56127 0
M  V30 1025 C 95.8454 0.938372 -1.79446 0
M  V30 1026 C 96.1734 1.8407 -0.628378 0
M  V30 1027 O 95.4284 1.91837 0.386925 0
M  V30 1028 C 95.7274 1.80314 -3.0858 0
M  V30 1029 C 95.3934 1.05349 -4.3842 0
M  V30 1030 C 94.0554 0.846435 -4.73697 0
M  V30 1031 C 96.4074 0.524588 -5.18553 0
M  V30 1032 C 93.7354 0.098683 -5.86617 0
M  V30 1033 C 96.0874 -0.209853 -6.32252 0
M  V30 1034 C 94.7514 -0.428102 -6.66126 0
M  V30 1035 H 94.0214 0.343375 -0.656639 0
M  V30 1036 H 96.6684 0.206077 -1.90388 0
M  V30 1037 H 94.9734 2.6035 -2.92789 0
M  V30 1038 H 96.6704 2.36513 -3.23825 0
M  V30 1039 H 93.2604 1.22486 -4.10725 0
M  V30 1040 H 97.4444 0.672008 -4.91729 0
M  V30 1041 H 92.7004 -0.0805753 -6.11347 0
M  V30 1042 H 96.8744 -0.627157 -6.9357 0
M  V30 1043 H 94.5014 -1.00944 -7.53468 0
M  V30 1044 N 96.0765 1.50051 0.48192 0
M  V30 1045 C 97.3225 1.61706 1.2338 0
M  V30 1046 C 97.6775 0.308488 1.89911 0
M  V30 1047 O 96.9705 -0.692798 1.78636 0
M  V30 1048 C 97.1645 2.72717 2.30998 0
M  V30 1049 C 96.9935 4.14242 1.75024 0
M  V30 1050 C 95.7635 4.80786 1.55476 0
M  V30 1051 C 97.9615 4.98846 1.25128 0
M  V30 1052 N 95.9435 6.06563 0.946311 0
M  V30 1053 C 97.3145 6.15258 0.765382 0
M  V30 1054 C 99.3695 4.84702 1.13881 0
M  V30 1055 C 98.0725 7.19079 0.178113 0
M  V30 1056 C 100.098 5.8869 0.565486 0
M  V30 1057 C 99.4605 7.04343 0.0899105 0
M  V30 1058 H 95.5595 0.645958 0.440753 0
M  V30 1059 H 98.1435 1.8713 0.537624 0
M  V30 1060 H 96.3145 2.49033 2.98055 0
M  V30 1061 H 98.0465 2.73789 2.9803 0
M  V30 1062 H 94.8015 4.37899 1.80392 0
M  V30 1063 H 95.2255 6.73767 0.660812 0
M  V30 1064 H 99.8675 3.95583 1.49244 0
M  V30 1065 H 97.5855 8.07882 -0.187749 0
M  V30 1066 H 101.171 5.79808 0.480974 0
M  V30 1067 H 100.051 7.83433 -0.346782 0
M  V30 1068 N 97.5546 -0.734337 1.39446 0
M  V30 1069 C 98.4866 -1.85861 1.34121 0
M  V30 1070 C 99.4996 -1.60871 0.249864 0
M  V30 1071 O 100.689 -1.71093 0.508865 0
M  V30 1072 C 97.7886 -3.21899 1.05991 0
M  V30 1073 C 96.9616 -3.74239 2.26415 0
M  V30 1074 C 96.0206 -4.88841 1.94733 0
M  V30 1075 O 95.0466 -5.02468 2.67422 0
M  V30 1076 N 96.2486 -5.73261 0.913884 0
M  V30 1077 H 99.0136 -1.90934 2.31007 0
M  V30 1078 H 96.5746 -0.915102 1.33557 0
M  V30 1079 H 98.5666 -3.96136 0.828147 0
M  V30 1080 H 97.1366 -3.12091 0.178361 0
M  V30 1081 H 96.3566 -2.91347 2.65539 0
M  V30 1082 H 97.6446 -4.05942 3.06738 0
M  V30 1083 H 97.0426 -5.64842 0.311476 0
M  V30 1084 H 95.5996 -6.47563 0.742015 0
M  V30 1085 N 99.0327 -1.24633 -0.964593 0
M  V30 1086 C 99.9807 -1.03917 -2.08096 0
M  V30 1087 C 100.975 0.0268581 -1.69379 0
M  V30 1088 O 102.181 -0.127952 -1.79545 0
M  V30 1089 H 98.5557 -0.319044 -0.680966 0
M  V30 1090 H 100.527 -1.98581 -2.22729 0
M  V30 1091 C 99.2757 -0.663983 -3.41301 0
M  V30 1092 H 98.5987 -1.47605 -3.71555 0
M  V30 1093 H 100.039 -0.558663 -4.20303 0
M  V30 1094 C 98.4977 0.629169 -3.30973 0
M  V30 1095 O 99.0277 1.67404 -3.65156 0
M  V30 1096 N 97.2337 0.611057 -2.84103 0
M  V30 1097 H 96.7807 -0.239593 -2.56483 0
M  V30 1098 H 96.7387 1.47647 -2.77575 0
M  V30 1099 N 100.511 1.16574 -1.06058 0
M  V30 1100 C 101.736 1.91493 -0.796562 0
M  V30 1101 C 102.161 1.76773 0.642868 0
M  V30 1102 O 101.519 1.09142 1.44768 0
M  V30 1103 C 101.567 3.40293 -1.19303 0
M  V30 1104 O 100.671 4.11074 -0.330394 0
M  V30 1105 H 100.012 0.596678 -0.291326 0
M  V30 1106 H 102.542 1.47708 -1.41575 0
M  V30 1107 H 102.552 3.91057 -1.16356 0
M  V30 1108 H 101.227 3.50326 -2.24153 0
M  V30 1109 H 99.8038 3.70513 -0.421225 0
M  V30 1110 N 101.989 0.842826 1.3317 0
M  V30 1111 C 103.4 0.496651 1.79973 0
M  V30 1112 C 103.751 -0.984641 1.69703 0
M  V30 1113 O 102.876 -1.76743 1.24863 0
M  V30 1114 C 103.471 0.894727 3.26772 0
M  V30 1115 C 102.03 0.600629 3.71577 0
M  V30 1116 C 101.177 1.10091 2.5451 0
M  V30 1117 H 104.128 1.03116 1.20635 0
M  V30 1118 H 104.149 0.206347 3.7994 0
M  V30 1119 H 103.661 1.97287 3.34215 0
M  V30 1120 H 101.762 -0.467284 3.69658 0
M  V30 1121 H 101.875 1.15863 4.64879 0
M  V30 1122 H 100.239 0.52162 2.49301 0
M  V30 1123 H 101.022 2.18591 2.64713 0
M  V30 1124 N 103.467 -1.45747 0.599634 0
M  V30 1125 C 104.692 -2.07178 0.0960198 0
M  V30 1126 C 105.117 -1.44268 -1.207 0
M  V30 1127 O 104.475 -0.532503 -1.73303 0
M  V30 1128 C 104.523 -3.60579 -0.0385348 0
M  V30 1129 O 103.627 -3.97713 -1.0908 0
M  V30 1130 H 102.968 -0.660251 0.0704593 0
M  V30 1131 H 105.498 -1.87124 0.827385 0
M  V30 1132 H 105.508 -4.07298 -0.239304 0
M  V30 1133 H 104.183 -4.05756 0.912947 0
M  V30 1134 H 102.76 -3.62678 -0.867135 0
M  V30 1135 N 104.945 -0.338344 -1.53925 0
M  V30 1136 C 106.191 0.260143 -2.01125 0
M  V30 1137 C 106.524 1.50617 -1.22589 0
M  V30 1138 O 105.799 1.91979 -0.312113 0
M  V30 1139 C 106.082 0.579499 -3.55407 0
M  V30 1140 C 105.935 -0.678264 -4.44657 0
M  V30 1141 C 107.254 1.39122 -4.17532 0
M  V30 1142 H 104.373 0.0930772 -0.731099 0
M  V30 1143 H 107.015 -0.457852 -1.84401 0
M  V30 1144 H 105.165 1.19118 -3.69788 0
M  V30 1145 H 106.837 -1.31631 -4.42121 0
M  V30 1146 H 105.08 -1.3042 -4.13731 0
M  V30 1147 H 105.751 -0.410143 -5.50474 0
M  V30 1148 H 108.227 0.874035 -4.06817 0
M  V30 1149 H 107.103 1.58342 -5.25565 0
M  V30 1150 H 107.364 2.39178 -3.71815 0
M  V30 1151 N 106.423 1.57458 -0.0668435 0
M  V30 1152 C 107.669 1.93587 0.6043 0
M  V30 1153 C 108.002 0.946722 1.69561 0
M  V30 1154 O 107.277 -0.0248516 1.94484 0
M  V30 1155 C 107.56 3.40014 1.18585 0
M  V30 1156 C 107.413 4.49685 0.101529 0
M  V30 1157 C 108.732 3.87154 2.09284 0
M  V30 1158 H 105.851 0.703958 0.218202 0
M  V30 1159 H 108.493 1.89542 -0.131804 0
M  V30 1160 H 106.643 3.43592 1.81319 0
M  V30 1161 H 108.315 4.5823 -0.531279 0
M  V30 1162 H 106.558 4.30059 -0.568487 0
M  V30 1163 H 107.229 5.49266 0.54874 0
M  V30 1164 H 109.705 3.85551 1.56491 0
M  V30 1165 H 108.581 4.90231 2.46911 0
M  V30 1166 H 108.842 3.2481 2.99918 0
M  V30 1167 N 107.901 -0.206675 1.56239 0
M  V30 1168 C 109.15 -0.926964 1.79138 0
M  V30 1169 C 109.463 -1.84901 0.638043 0
M  V30 1170 O 110.669 -2.60906 0.751033 0
M  V30 1171 C 109.125 -1.6986 3.17294 0
M  V30 1172 C 108.733 -0.821956 4.40395 0
M  V30 1173 C 110.477 -2.40922 3.4951 0
M  V30 1174 C 108.384 -1.59179 5.69575 0
M  V30 1175 H 107.314 -0.349864 0.667915 0
M  V30 1176 H 109.965 -0.180487 1.8261 0
M  V30 1177 H 108.347 -2.48853 3.08039 0
M  V30 1178 H 109.521 -0.0715019 4.60745 0
M  V30 1179 H 107.836 -0.222741 4.15804 0
M  V30 1180 H 110.433 -2.99047 4.43255 0
M  V30 1181 H 110.776 -3.14542 2.72707 0
M  V30 1182 H 111.309 -1.68905 3.60161 0
M  V30 1183 H 108.048 -0.898589 6.49312 0
M  V30 1184 H 107.568 -2.31648 5.53262 0
M  V30 1185 H 109.247 -2.14862 6.10281 0
M  V30 1186 N 109.379 -1.50304 -0.473955 0
M  V30 1187 C 110.627 -1.60832 -1.22382 0
M  V30 1188 C 110.948 -0.30939 -1.9253 0
M  V30 1189 O 110.218 0.67296 -1.83978 0
M  V30 1190 H 108.798 -0.592652 -0.454723 0
M  V30 1191 H 111.46 -1.87068 -0.546968 0
M  V30 1192 H 110.556 -2.41803 -1.97327 0
M  V30 1193 N 110.857 0.726932 -1.39834 0
M  V30 1194 C 112.273 1.03354 -1.21615 0
M  V30 1195 C 112.473 2.01327 -0.08338 0
M  V30 1196 O 111.529 2.46158 0.56238 0
M  V30 1197 C 112.842 1.58811 -2.55342 0
M  V30 1198 C 114.39 1.70851 -2.62257 0
M  V30 1199 C 114.865 2.29716 -3.96225 0
M  V30 1200 N 116.356 2.37116 -3.97907 0
M  V30 1201 C 117.091 2.83619 -4.98345 0
M  V30 1202 N 116.587 3.29958 -6.09179 0
M  V30 1203 N 118.38 2.82901 -4.8572 0
M  V30 1204 H 110.531 0.0773069 -2.12259 0
M  V30 1205 H 112.794 0.0969102 -0.943034 0
M  V30 1206 H 112.5 0.942855 -3.38826 0
M  V30 1207 H 112.374 2.57502 -2.75632 0
M  V30 1208 H 114.761 2.34497 -1.79152 0
M  V30 1209 H 114.842 0.707913 -2.45809 0
M  V30 1210 H 114.486 1.66696 -4.79765 0
M  V30 1211 H 114.416 3.30469 -4.09997 0
M  V30 1212 H 116.907 2.04374 -3.17868 0
M  V30 1213 H 117.22 3.63976 -6.8172 0
M  V30 1214 H 115.565 3.27946 -6.12761 0
M  V30 1215 H 118.756 2.46027 -3.98231 0
M  V30 1216 H 118.929 3.18827 -5.6414 0
M  V30 1217 N 112.336 1.25143 0.95797 0
M  V30 1218 C 113.286 1.01924 2.0395 0
M  V30 1219 C 114.27 -0.0427175 1.60843 0
M  V30 1220 O 115.462 0.17221 1.7616 0
M  V30 1221 C 112.591 0.636373 3.3735 0
M  V30 1222 C 111.677 1.73492 3.8699 0
M  V30 1223 N 112.068 2.96945 4.0946 0
M  V30 1224 C 110.366 1.61467 4.15746 0
M  V30 1225 C 111.067 3.68228 4.50315 0
M  V30 1226 N 110.043 2.95833 4.56053 0
M  V30 1227 H 113.845 1.95653 2.19311 0
M  V30 1228 H 111.359 1.15413 1.14253 0
M  V30 1229 H 113.356 0.451233 4.14451 0
M  V30 1230 H 112.016 -0.293621 3.2337 0
M  V30 1231 H 113.027 3.33025 3.96629 0
M  V30 1232 H 109.704 0.753394 4.10646 0
M  V30 1233 H 111.094 4.74178 4.76031 0
M  V30 1234 N 113.814 -1.1601 1.06675 0
M  V30 1235 C 114.746 -2.20115 0.638921 0
M  V30 1236 C 115.759 -1.59916 -0.305057 0
M  V30 1237 O 116.948 -1.78245 -0.0954446 0
M  V30 1238 C 114.048 -3.38798 -0.0830083 0
M  V30 1239 C 113.221 -4.2855 0.875426 0
M  V30 1240 C 112.28 -5.25849 0.192042 0
M  V30 1241 O 111.306 -5.63102 0.830921 0
M  V30 1242 N 112.508 -5.70648 -1.06493 0
M  V30 1243 H 115.273 -2.57439 1.53444 0
M  V30 1244 H 112.834 -1.31057 0.950557 0
M  V30 1245 H 114.826 -4.00936 -0.550685 0
M  V30 1246 H 113.396 -2.99947 -0.880386 0
M  V30 1247 H 112.616 -3.63617 1.52238 0
M  V30 1248 H 113.904 -4.85393 1.52548 0
M  V30 1249 H 113.302 -5.42482 -1.60405 0
M  V30 1250 H 111.859 -6.34859 -1.47641 0
M  V30 1251 N 115.292 -0.849877 -1.32721 0
M  V30 1252 C 116.24 -0.279745 -2.30912 0
M  V30 1253 C 117.234 0.594278 -1.58634 0
M  V30 1254 O 118.44 0.482613 -1.73409 0
M  V30 1255 H 114.815 -0.0717521 -0.748569 0
M  V30 1256 H 116.786 -1.12222 -2.76494 0
M  V30 1257 C 115.535 0.521108 -3.43773 0
M  V30 1258 H 114.858 -0.142141 -3.99547 0
M  V30 1259 H 116.298 0.885693 -4.14646 0
M  V30 1260 C 114.757 1.70442 -2.90605 0
M  V30 1261 O 115.287 2.8034 -2.87702 0
M  V30 1262 N 113.493 1.52991 -2.47067 0
M  V30 1263 H 113.04 0.635914 -2.49628 0
M  V30 1264 H 112.998 2.32311 -2.11847 0
M  V30 1265 N 116.77 1.45427 -0.607355 0
M  V30 1266 C 118.181 1.85756 -0.187535 0
M  V30 1267 C 118.532 1.5077 1.25551 0
M  V30 1268 O 117.657 0.93427 1.95193 0
M  V30 1269 C 118.252 3.37154 -0.333572 0
M  V30 1270 C 116.811 3.76387 0.0315542 0
M  V30 1271 C 115.958 2.69377 -0.658117 0
M  V30 1272 H 118.909 1.36231 -0.81405 0
M  V30 1273 H 118.93 3.78014 0.43428 0
M  V30 1274 H 118.442 3.62586 -1.38393 0
M  V30 1275 H 116.543 3.56571 1.0811 0
M  V30 1276 H 116.656 4.77731 -0.361935 0
M  V30 1277 H 115.02 2.5452 -0.0957873 0
M  V30 1278 H 115.803 2.97646 -1.7106 0
M  V30 1279 N 118.248 0.346503 1.53744 0
M  V30 1280 C 119.494 -0.242135 2.01954 0
M  V30 1281 C 119.849 -1.47962 1.22984 0
M  V30 1282 O 119.142 -1.89077 0.309924 0
M  V30 1283 C 119.336 -0.605809 3.52228 0
M  V30 1284 C 119.165 0.594882 4.45748 0
M  V30 1285 C 117.935 1.1011 4.93157 0
M  V30 1286 C 120.133 1.45425 4.93311 0
M  V30 1287 N 118.115 2.26381 5.70636 0
M  V30 1288 C 119.486 2.46383 5.68942 0
M  V30 1289 C 121.541 1.47935 4.75415 0
M  V30 1290 C 120.244 3.49684 6.28581 0
M  V30 1291 C 122.27 2.50119 5.35905 0
M  V30 1292 C 121.632 3.49803 6.11406 0
M  V30 1293 H 117.731 -0.0518296 0.780281 0
M  V30 1294 H 120.315 0.486736 1.88518 0
M  V30 1295 H 118.486 -1.30378 3.65864 0
M  V30 1296 H 120.218 -1.17789 3.87179 0
M  V30 1297 H 116.973 0.668721 4.68855 0
M  V30 1298 H 117.397 2.85094 6.14044 0
M  V30 1299 H 122.039 0.722274 4.16585 0
M  V30 1300 H 119.757 4.26285 6.86518 0
M  V30 1301 H 123.343 2.52892 5.23963 0
M  V30 1302 H 122.223 4.27576 6.5738 0
M  V30 1303 N 119.726 -1.57421 0.075193 0
M  V30 1304 C 120.658 -2.09904 -0.920483 0
M  V30 1305 C 121.671 -1.03191 -1.25918 0
M  V30 1306 O 122.86 -1.30695 -1.21577 0
M  V30 1307 C 119.96 -2.54726 -2.23534 0
M  V30 1308 C 119.133 -3.8505 -2.07498 0
M  V30 1309 C 118.192 -4.15929 -3.22319 0
M  V30 1310 O 117.218 -4.85474 -2.9716 0
M  V30 1311 N 118.42 -3.69745 -4.47514 0
M  V30 1312 H 121.185 -2.95954 -0.472359 0
M  V30 1313 H 118.746 -1.61523 -0.110444 0
M  V30 1314 H 120.738 -2.72443 -2.9926 0
M  V30 1315 H 119.308 -1.73795 -2.59835 0
M  V30 1316 H 118.528 -3.76679 -1.16219 0
M  V30 1317 H 119.816 -4.70348 -1.94038 0
M  V30 1318 H 119.214 -3.13569 -4.7084 0
M  V30 1319 H 117.771 -3.92655 -5.20255 0
M  V30 1320 N 121.204 0.198386 -1.56346 0
M  V30 1321 C 122.114 1.2664 -1.97483 0
M  V30 1322 C 123.13 1.49989 -0.882002 0
M  V30 1323 O 124.306 1.62668 -1.18748 0
M  V30 1324 C 121.371 2.59141 -2.30319 0
M  V30 1325 C 120.432 2.43892 -3.53292 0
M  V30 1326 C 119.665 3.70074 -3.84553 0
M  V30 1327 O 119.888 4.74101 -3.1715 0
M  V30 1328 O 118.822 3.658 -4.7799 0
M  V30 1329 H 122.648 0.947304 -2.88548 0
M  V30 1330 H 120.233 0.403123 -1.43859 0
M  V30 1331 H 122.115 3.37352 -2.5253 0
M  V30 1332 H 120.79 2.90684 -1.42423 0
M  V30 1333 H 119.697 1.63803 -3.36332 0
M  V30 1334 H 121.03 2.17282 -4.41644 0
M  V30 1335 N 122.682 1.50554 0.465978 0
M  V30 1336 C 123.922 1.63439 1.22747 0
M  V30 1337 C 124.286 0.329822 1.89146 0
M  V30 1338 O 125.487 0.334161 2.66715 0
M  V30 1339 C 123.758 2.78542 2.2394 0
M  V30 1340 S 125.317 3.11591 3.0896 0
M  V30 1341 H 122.135 0.576113 0.416672 0
M  V30 1342 H 124.737 1.88357 0.523641 0
M  V30 1343 H 123.441 3.71805 1.7375 0
M  V30 1344 H 122.972 2.55726 2.98944 0
M  V30 1345 H 124.987 2.55811 4.25176 0
M  V30 1346 N 124.16 -0.719506 1.40217 0
M  V30 1347 C 125.108 -1.85493 1.40339 0
M  V30 1348 C 126.102 -1.66995 0.284415 0
M  V30 1349 O 127.308 -1.74148 0.455252 0
M  V30 1350 H 123.683 -0.610857 0.438586 0
M  V30 1351 H 125.654 -1.82506 2.36081 0
M  V30 1352 C 124.403 -3.23321 1.27901 0
M  V30 1353 H 123.726 -3.38159 2.1328 0
M  V30 1354 H 125.166 -4.02914 1.32045 0
M  V30 1355 C 123.625 -3.36898 -0.0111355 0
M  V30 1356 O 124.155 -3.89674 -0.975538 0
M  V30 1357 N 122.361 -2.90492 -0.0793393 0
M  V30 1358 H 121.908 -2.47731 0.706183 0
M  V30 1359 H 121.866 -2.99955 -0.942038 0
M  V30 1360 N 125.638 -1.25649 -0.95132 0
M  V30 1361 C 126.568 -1.08808 -2.06599 0
M  V30 1362 C 127.549 0.00382547 -1.701 0
M  V30 1363 O 128.734 -0.166325 -1.93486 0
M  V30 1364 C 125.864 -0.709542 -3.39975 0
M  V30 1365 C 124.818 -1.75206 -3.90496 0
M  V30 1366 C 124.144 -1.22811 -5.20405 0
M  V30 1367 C 125.444 -3.15153 -4.16504 0
M  V30 1368 H 127.138 -2.02048 -2.20946 0
M  V30 1369 H 124.684 -0.972835 -1.06169 0
M  V30 1370 H 126.637 -0.578649 -4.17408 0
M  V30 1371 H 125.361 0.258556 -3.25575 0
M  V30 1372 H 124.02 -1.87145 -3.15234 0
M  V30 1373 H 123.668 -0.250145 -5.02378 0
M  V30 1374 H 123.368 -1.92492 -5.55176 0
M  V30 1375 H 124.892 -1.10968 -6.00432 0
M  V30 1376 H 126.306 -3.06349 -4.84586 0
M  V30 1377 H 124.703 -3.82333 -4.62538 0
M  V30 1378 H 125.773 -3.61966 -3.22658 0
M  V30 1379 N 127.117 1.15442 -1.07289 0
M  V30 1380 C 128.065 2.22225 -0.686952 0
M  V30 1381 C 129.059 1.66688 0.30193 0
M  V30 1382 O 130.265 1.79236 0.165712 0
M  V30 1383 H 126.64 0.723783 -0.204064 0
M  V30 1384 H 128.611 2.52056 -1.5972 0
M  V30 1385 C 127.36 3.47556 -0.100149 0
M  V30 1386 H 126.683 3.90612 -0.852211 0
M  V30 1387 H 128.123 4.23794 0.132235 0
M  V30 1388 C 126.582 3.16337 1.159 0
M  V30 1389 O 127.112 3.33074 2.24555 0
M  V30 1390 N 125.318 2.70385 1.06491 0
M  V30 1391 H 124.865 2.56966 0.180668 0
M  V30 1392 H 124.823 2.49871 1.90819 0
M  V30 1393 N 128.595 0.856903 1.32268 0
M  V30 1394 C 129.525 0.31858 2.31316 0
M  V30 1395 C 130.506 -0.583487 1.59779 0
M  V30 1396 O 131.691 -0.503259 1.87566 0
M  V30 1397 C 128.821 -0.491979 3.43798 0
M  V30 1398 C 127.775 0.315849 4.26833 0
M  V30 1399 C 127.101 -0.619586 5.31098 0
M  V30 1400 C 128.401 1.54282 4.98993 0
M  V30 1401 H 130.095 1.14621 2.76591 0
M  V30 1402 H 127.641 0.552613 1.32974 0
M  V30 1403 H 129.594 -0.879012 4.1213 0
M  V30 1404 H 128.318 -1.35299 2.97257 0
M  V30 1405 H 126.977 0.684664 3.6015 0
M  V30 1406 H 126.625 -1.47751 4.8081 0
M  V30 1407 H 126.325 -0.0830621 5.87541 0
M  V30 1408 H 127.849 -1.00375 6.02293 0
M  V30 1409 H 129.263 1.22796 5.59995 0
M  V30 1410 H 127.66 2.01745 5.65172 0
M  V30 1411 H 128.73 2.30285 4.26728 0
M  V30 1412 N 130.073 -1.45103 0.615059 0
M  V30 1413 C 131.006 -2.27717 -0.148408 0
M  V30 1414 C 131.984 -1.37584 -0.866572 0
M  V30 1415 O 133.168 -1.67017 -0.87393 0
M  V30 1416 C 130.295 -3.16136 -1.21557 0
M  V30 1417 C 129.341 -4.22263 -0.599712 0
M  V30 1418 S 130.174 -5.3215 0.598081 0
M  V30 1419 C 131.33 -6.24137 -0.469484 0
M  V30 1420 H 131.563 -2.92121 0.552483 0
M  V30 1421 H 129.096 -1.49054 0.402778 0
M  V30 1422 H 131.054 -3.67633 -1.82638 0
M  V30 1423 H 129.715 -2.50982 -1.88857 0
M  V30 1424 H 128.908 -4.84081 -1.4029 0
M  V30 1425 H 128.51 -3.73945 -0.063876 0
M  V30 1426 H 130.802 -6.63984 -1.34652 0
M  V30 1427 H 131.745 -7.0801 0.112725 0
M  V30 1428 H 132.153 -5.58971 -0.788168 0
M  V30 1429 N 131.551 -0.354651 -1.53558 0
M  V30 1430 C 132.967 -0.00315426 -1.596 0
M  V30 1431 C 133.167 1.47741 -1.37021 0
M  V30 1432 O 132.223 2.23759 -1.16996 0
M  V30 1433 C 133.536 -0.44929 -2.97325 0
M  V30 1434 C 135.084 -0.402578 -3.104 0
M  V30 1435 C 135.559 -0.824355 -4.5052 0
M  V30 1436 N 137.05 -0.778979 -4.56603 0
M  V30 1437 C 137.785 -1.07715 -5.63192 0
M  V30 1438 N 137.281 -1.44405 -6.77583 0
M  V30 1439 N 139.074 -1.00066 -5.53121 0
M  V30 1440 H 131.225 -1.31893 -1.66487 0
M  V30 1441 H 133.488 -0.538388 -0.780284 0
M  V30 1442 H 133.194 -1.48202 -3.1895 0
M  V30 1443 H 133.068 0.169772 -3.76818 0
M  V30 1444 H 135.455 0.621004 -2.88492 0
M  V30 1445 H 135.536 -1.05699 -2.32941 0
M  V30 1446 H 135.18 -1.846 -4.73165 0
M  V30 1447 H 135.11 -0.147304 -5.26394 0
M  V30 1448 H 137.601 -0.508528 -3.74463 0
M  V30 1449 H 137.914 -1.65612 -7.54846 0
M  V30 1450 H 136.259 -1.4826 -6.79002 0
M  V30 1451 H 139.45 -0.713293 -4.62633 0
M  V30 1452 H 139.623 -1.23638 -6.36096 0
M  V30 1453 N 133.029 1.57378 -0.0835403 0
M  V30 1454 C 133.939 2.16897 0.894021 0
M  V30 1455 C 134.955 1.13528 1.31861 0
M  V30 1456 O 136.131 1.45848 1.3889 0
M  V30 1457 C 133.196 2.72831 2.13925 0
M  V30 1458 C 132.257 3.91115 1.76997 0
M  V30 1459 C 131.49 4.44371 2.95584 0
M  V30 1460 O 131.713 3.96596 4.09961 0
M  V30 1461 O 130.647 5.35549 2.74719 0
M  V30 1462 H 134.473 3.00814 0.417679 0
M  V30 1463 H 132.058 1.48741 0.140181 0
M  V30 1464 H 133.94 3.0863 2.86924 0
M  V30 1465 H 132.615 1.91967 2.60635 0
M  V30 1466 H 131.522 3.60148 1.01214 0
M  V30 1467 H 132.855 4.73307 1.3506 0
M  V30 1468 N 134.507 -0.190092 1.56449 0
M  V30 1469 C 135.417 -1.25591 1.98152 0
M  V30 1470 C 136.433 -1.49519 0.889944 0
M  V30 1471 O 137.609 -1.62036 1.19609 0
M  V30 1472 C 134.674 -2.57916 2.3169 0
M  V30 1473 C 133.735 -2.42015 3.5458 0
M  V30 1474 C 132.968 -3.6803 3.8651 0
M  V30 1475 O 133.191 -4.72413 3.1966 0
M  V30 1476 O 132.125 -3.6326 4.79923 0
M  V30 1477 H 135.951 -0.931988 2.89046 0
M  V30 1478 H 133.536 -0.395488 1.4407 0
M  V30 1479 H 135.418 -3.36008 2.54316 0
M  V30 1480 H 134.093 -2.89925 1.43963 0
M  V30 1481 H 133 -1.62017 3.37196 0
M  V30 1482 H 134.333 -2.14937 4.4279 0
M  V30 1483 N 135.985 -1.50799 -0.457987 0
M  V30 1484 C 137.233 -1.62121 -1.2067 0
M  V30 1485 C 137.554 -0.329793 -1.92191 0
M  V30 1486 O 136.824 0.653409 -1.84682 0
M  V30 1487 H 135.404 -0.597441 -0.448411 0
M  V30 1488 H 138.066 -1.87637 -0.527096 0
M  V30 1489 H 137.162 -2.43882 -1.94751 0
M  V30 1490 N 137.463 0.71206 -1.40597 0
M  V30 1491 C 138.712 1.46754 -1.38369 0
M  V30 1492 C 139.025 1.95598 0.0097839 0
M  V30 1493 O 140.231 2.71059 0.154677 0
M  V30 1494 C 138.687 2.65289 -2.43207 0
M  V30 1495 C 138.295 2.23301 -3.88382 0
M  V30 1496 C 140.039 3.43008 -2.50091 0
M  V30 1497 C 137.946 3.38696 -4.84808 0
M  V30 1498 H 136.876 0.55118 -0.514506 0
M  V30 1499 H 139.527 0.774616 -1.66349 0
M  V30 1500 H 137.909 3.36769 -2.08332 0
M  V30 1501 H 139.083 1.59218 -4.32419 0
M  V30 1502 H 137.398 1.58618 -3.85006 0
M  V30 1503 H 139.995 4.28881 -3.1932 0
M  V30 1504 H 140.338 3.87065 -1.53253 0
M  V30 1505 H 140.871 2.78574 -2.83974 0
M  V30 1506 H 137.61 2.99668 -5.82992 0
M  V30 1507 H 137.13 4.01683 -4.45433 0
M  V30 1508 H 138.809 4.04712 -5.04794 0
M  V30 1509 N 138.941 1.26152 0.944643 0
M  V30 1510 C 139.888 1.07408 2.04285 0
M  V30 1511 C 140.858 -0.0198413 1.66088 0
M  V30 1512 O 142.043 0.139264 1.90291 0
M  V30 1513 C 139.183 0.70945 3.37729 0
M  V30 1514 C 138.296 1.87926 3.88983 0
M  V30 1515 C 137.431 1.45807 5.10797 0
M  V30 1516 C 136.47 2.5964 5.54305 0
M  V30 1517 N 135.607 2.18226 6.67324 0
M  V30 1518 H 140.447 2.01389 2.1965 0
M  V30 1519 H 137.984 1.00275 1.07626 0
M  V30 1520 H 139.942 0.478948 4.14442 0
M  V30 1521 H 138.572 -0.193389 3.2222 0
M  V30 1522 H 137.624 2.22279 3.08701 0
M  V30 1523 H 138.936 2.73377 4.17213 0
M  V30 1524 H 138.09 1.18781 5.94959 0
M  V30 1525 H 136.829 0.574414 4.84305 0
M  V30 1526 H 135.834 2.87399 4.68702 0
M  V30 1527 H 137.059 3.48599 5.828 0
M  V30 1528 H 135.005 1.3229 6.42523 0
M  V30 1529 H 134.922 2.97221 6.95123 0
M  V30 1530 H 136.19 1.94403 7.54869 0
M  V30 1531 N 140.419 -1.14872 1.07899 0
M  V30 1532 C 141.349 -2.2193 0.725887 0
M  V30 1533 C 142.33 -1.67622 -0.28927 0
M  V30 1534 O 143.515 -1.93533 -0.160787 0
M  V30 1535 C 140.645 -3.47061 0.128856 0
M  V30 1536 C 139.599 -4.14363 1.07178 0
M  V30 1537 C 138.925 -5.33636 0.337229 0
M  V30 1538 C 140.225 -4.63492 2.40775 0
M  V30 1539 H 141.919 -2.51724 1.62097 0
M  V30 1540 H 139.465 -1.20991 0.780838 0
M  V30 1541 H 141.418 -4.21199 -0.130147 0
M  V30 1542 H 140.142 -3.16617 -0.80134 0
M  V30 1543 H 138.801 -3.42173 1.3158 0
M  V30 1544 H 138.449 -4.99449 -0.596606 0
M  V30 1545 H 138.149 -5.79609 0.965788 0
M  V30 1546 H 139.673 -6.10539 0.0861567 0
M  V30 1547 H 141.087 -5.2913 2.20669 0
M  V30 1548 H 139.484 -5.20148 2.99276 0
M  V30 1549 H 140.554 -3.78834 3.02676 0
M  V30 1550 N 141.898 -0.863906 -1.31812 0
M  V30 1551 C 142.861 -0.320212 -2.26952 0
M  V30 1552 C 143.861 0.525369 -1.51975 0
M  V30 1553 O 145.051 0.335547 -1.70938 0
M  V30 1554 C 142.183 0.545919 -3.365 0
M  V30 1555 H 143.376 -1.16004 -2.76556 0
M  V30 1556 H 140.929 -0.638995 -1.42641 0
M  V30 1557 H 141.664 1.40718 -2.92179 0
M  V30 1558 H 141.449 -0.0594674 -3.92055 0
M  V30 1559 H 142.939 0.918796 -4.07367 0
M  V30 1560 N 143.376 1.44774 -0.622745 0
M  V30 1561 C 144.792 1.56986 -0.287652 0
M  V30 1562 C 144.992 1.61167 1.20944 0
M  V30 1563 O 144.048 1.55015 1.99315 0
M  V30 1564 C 145.361 2.84551 -0.972188 0
M  V30 1565 C 146.909 2.9825 -0.949536 0
M  V30 1566 C 147.384 4.28605 -1.61437 0
M  V30 1567 N 148.875 4.35399 -1.58057 0
M  V30 1568 C 149.61 5.34964 -2.064 0
M  V30 1569 N 149.106 6.40981 -2.62897 0
M  V30 1570 N 150.899 5.26419 -1.97078 0
M  V30 1571 H 143.05 1.40304 -1.59463 0
M  V30 1572 H 145.313 0.671794 -0.668878 0
M  V30 1573 H 145.019 2.87417 -2.02693 0
M  V30 1574 H 144.893 3.73807 -0.504771 0
M  V30 1575 H 147.28 2.94941 0.0967067 0
M  V30 1576 H 147.361 2.10364 -1.45536 0
M  V30 1577 H 147.005 4.32672 -2.66002 0
M  V30 1578 H 146.935 5.15334 -1.08344 0
M  V30 1579 H 149.426 3.59397 -1.16801 0
M  V30 1580 H 149.739 7.13225 -2.97539 0
M  V30 1581 H 148.084 6.4169 -2.66943 0
M  V30 1582 H 151.275 4.42504 -1.52669 0
M  V30 1583 H 151.448 6.03861 -2.35066 0
M  V30 1584 N 144.854 0.36279 1.53368 0
M  V30 1585 C 146.27 0.0116182 1.59596 0
M  V30 1586 C 146.47 -1.47012 1.37803 0
M  V30 1587 O 145.526 -2.23136 1.18181 0
M  V30 1588 C 146.839 0.465052 2.97082 0
M  V30 1589 C 148.387 0.419033 3.10182 0
M  V30 1590 C 148.862 0.848235 4.50077 0
M  V30 1591 N 150.353 0.803183 4.56183 0
M  V30 1592 C 151.088 1.107 5.62613 0
M  V30 1593 N 150.584 1.47996 6.76808 0
M  V30 1594 N 152.377 1.02998 5.52583 0
M  V30 1595 H 144.528 1.32775 1.65785 0
M  V30 1596 H 146.791 0.542518 0.777417 0
M  V30 1597 H 146.497 1.49892 3.18159 0
M  V30 1598 H 146.371 -0.149786 3.76902 0
M  V30 1599 H 148.758 -0.605696 2.88817 0
M  V30 1600 H 148.839 1.06933 2.32377 0
M  V30 1601 H 148.483 1.87107 4.7218 0
M  V30 1602 H 148.413 0.175218 5.26308 0
M  V30 1603 H 150.904 0.52838 3.74188 0
M  V30 1604 H 151.217 1.69613 7.53957 0
M  V30 1605 H 149.562 1.51859 6.78206 0
M  V30 1606 H 152.753 0.737817 4.62249 0
M  V30 1607 H 152.926 1.2701 6.35431 0
M  V30 1608 N 146.332 -1.57332 0.0918853 0
M  V30 1609 C 147.748 -1.57389 -0.264766 0
M  V30 1610 C 147.948 -1.10281 -1.68643 0
M  V30 1611 O 147.004 -0.777801 -2.40222 0
M  V30 1612 C 148.317 -3.00648 -0.0561195 0
M  V30 1613 C 149.865 -3.12754 -0.124116 0
M  V30 1614 C 150.34 -4.57965 0.0564972 0
M  V30 1615 N 151.831 -4.632 0.00155611 0
M  V30 1616 C 152.566 -5.73281 0.116598 0
M  V30 1617 N 152.062 -6.92208 0.286294 0
M  V30 1618 N 153.855 -5.6207 0.0580973 0
M  V30 1619 H 146.006 -1.86262 1.02079 0
M  V30 1620 H 148.269 -0.859579 0.399786 0
M  V30 1621 H 147.975 -3.393 0.925669 0
M  V30 1622 H 147.849 -3.68623 -0.799823 0
M  V30 1623 H 150.236 -2.73976 -1.09641 0
M  V30 1624 H 150.317 -2.47377 0.651024 0
M  V30 1625 H 149.961 -4.97436 1.02564 0
M  V30 1626 H 149.891 -5.21399 -0.738297 0
M  V30 1627 H 152.382 -3.77686 -0.127192 0
M  V30 1628 H 152.695 -7.71934 0.365676 0
M  V30 1629 H 151.04 -6.94254 0.32192 0
M  V30 1630 H 154.231 -4.68043 -0.0733204 0
M  V30 1631 H 154.404 -6.47824 0.151203 0
M  V30 1632 N 147.81 0.181792 -1.56548 0
M  V30 1633 C 149.035 0.920019 -1.85877 0
M  V30 1634 C 149.46 1.75494 -0.677021 0
M  V30 1635 O 148.818 1.77399 0.374056 0
M  V30 1636 C 148.866 1.78112 -3.13542 0
M  V30 1637 O 147.97 2.88152 -2.95029 0
M  V30 1638 H 147.311 0.258334 -0.611686 0
M  V30 1639 H 149.841 0.183092 -2.03779 0
M  V30 1640 H 149.851 2.18314 -3.44678 0
M  V30 1641 H 148.526 1.16777 -3.99169 0
M  V30 1642 H 147.103 2.51609 -2.75222 0
M  V30 1643 N 149.288 1.51039 0.449983 0
M  V30 1644 C 150.536 1.62759 1.19808 0
M  V30 1645 C 150.857 0.339981 1.92013 0
M  V30 1646 O 150.127 -0.643606 1.85026 0
M  V30 1647 H 148.707 0.599811 0.445237 0
M  V30 1648 H 151.369 1.87914 0.517138 0
M  V30 1649 H 150.465 2.44911 1.93455 0
M  V30 1650 N 150.766 -0.704594 1.40972 0
M  V30 1651 C 152.014 -1.46169 1.39568 0
M  V30 1652 C 152.335 -1.95 0.00253745 0
M  V30 1653 O 151.605 -1.71095 -0.954114 0
M  V30 1654 H 150.185 -0.542326 0.513704 0
M  V30 1655 H 152.847 -0.834553 1.76128 0
M  V30 1656 H 151.943 -2.32922 2.07735 0
M  V30 1657 N 152.244 -1.26651 -0.937939 0
M  V30 1658 C 153.492 -1.12165 -1.68118 0
M  V30 1659 C 153.813 0.334983 -1.92101 0
M  V30 1660 O 153.083 1.23583 -1.52 0
M  V30 1661 H 151.663 -0.412093 -0.623048 0
M  V30 1662 H 154.325 -1.59027 -1.12678 0
M  V30 1663 H 153.421 -1.64289 -2.6536 0
M  V30 1664 N 153.722 1.14298 -1.08507 0
M  V30 1665 C 154.95 1.89219 -0.836876 0
M  V30 1666 C 155.365 1.78638 0.611054 0
M  V30 1667 O 154.722 1.14643 1.41998 0
M  V30 1668 C 154.773 3.39158 -1.25116 0
M  V30 1669 O 154.494 3.49449 -2.64229 0
M  V30 1670 C 155.995 4.31073 -1.03398 0
M  V30 1671 H 153.215 0.599328 -0.301739 0
M  V30 1672 H 155.759 1.44746 -1.44461 0
M  V30 1673 H 153.914 3.81251 -0.687514 0
M  V30 1674 H 154.328 4.42589 -2.81452 0
M  V30 1675 H 155.802 5.34646 -1.37323 0
M  V30 1676 H 156.279 4.3919 0.0289259 0
M  V30 1677 H 156.885 3.94738 -1.58311 0
M  V30 1678 N 155.201 0.870884 1.31352 0
M  V30 1679 C 156.447 0.482987 1.96965 0
M  V30 1680 C 156.78 -0.962462 1.68672 0
M  V30 1681 O 156.055 -1.6779 0.98371 0
M  V30 1682 C 156.338 0.741752 3.52378 0
M  V30 1683 C 156.191 2.2368 3.9024 0
M  V30 1684 C 157.51 0.208838 4.39604 0
M  V30 1685 H 154.629 0.176955 0.715441 0
M  V30 1686 H 157.271 1.09229 1.55464 0
M  V30 1687 H 155.421 0.223149 3.87859 0
M  V30 1688 H 157.093 2.82273 3.64856 0
M  V30 1689 H 155.336 2.70901 3.38814 0
M  V30 1690 H 156.007 2.3685 4.98604 0
M  V30 1691 H 158.483 0.652529 4.10952 0
M  V30 1692 H 157.359 0.419336 5.47296 0
M  V30 1693 H 157.62 -0.889275 4.33064 0
M  V30 1694 N 156.679 -1.44442 0.630414 0
M  V30 1695 C 157.909 -2.06115 0.141465 0
M  V30 1696 C 158.317 -1.47179 -1.1889 0
M  V30 1697 O 157.66 -0.588873 -1.74006 0
M  V30 1698 C 157.722 -3.59467 -0.0484355 0
M  V30 1699 C 157.386 -4.40864 1.20366 0
M  V30 1700 C 158.383 -4.74391 2.12719 0
M  V30 1701 C 156.068 -4.8125 1.43887 0
M  V30 1702 C 158.062 -5.47186 3.26904 0
M  V30 1703 C 155.749 -5.53795 2.5837 0
M  V30 1704 C 156.747 -5.86682 3.49705 0
M  V30 1705 O 156.435 -6.57749 4.62191 0
M  V30 1706 H 156.167 -0.671648 0.0765792 0
M  V30 1707 H 158.721 -1.86312 0.864695 0
M  V30 1708 H 156.951 -3.77758 -0.826803 0
M  V30 1709 H 158.64 -4.02909 -0.491849 0
M  V30 1710 H 159.406 -4.43728 1.95781 0
M  V30 1711 H 155.285 -4.55073 0.736853 0
M  V30 1712 H 158.829 -5.72773 3.98217 0
M  V30 1713 H 154.726 -5.83872 2.75251 0
M  V30 1714 H 155.494 -6.76217 4.61164 0
M  V30 1715 N 158.157 -0.370918 -1.53173 0
M  V30 1716 C 159.107 0.489588 -2.22681 0
M  V30 1717 C 160.091 1.04442 -1.22395 0
M  V30 1718 O 161.283 0.973578 -1.47819 0
M  V30 1719 C 158.412 1.626 -3.02351 0
M  V30 1720 C 157.498 1.08379 -4.10018 0
M  V30 1721 N 157.889 0.265004 -5.05105 0
M  V30 1722 C 156.187 1.35809 -4.2482 0
M  V30 1723 C 156.888 -0.0324755 -5.81691 0
M  V30 1724 N 155.864 0.566581 -5.40639 0
M  V30 1725 H 159.666 -0.142729 -2.93553 0
M  V30 1726 H 157.18 -0.179221 -1.61408 0
M  V30 1727 H 159.177 2.2547 -3.50669 0
M  V30 1728 H 157.837 2.26132 -2.33011 0
M  V30 1729 H 158.848 -0.0962352 -5.17811 0
M  V30 1730 H 155.525 1.9958 -3.66707 0
M  V30 1731 H 156.915 -0.69473 -6.68299 0
M  V30 1732 N 159.635 1.57281 -0.100228 0
M  V30 1733 C 160.912 1.86014 0.604812 0
M  V30 1734 C 161.292 0.998025 1.86018 0
M  V30 1735 O 160.64 0.0718184 2.28387 0
M  V30 1736 C 160.85 3.36784 0.915278 0
M  V30 1737 C 162.198 4.04957 1.27651 0
M  V30 1738 O 163.222 3.41695 1.00613 0
M  V30 1739 O 162.081 5.16593 1.7831 0
M  V30 1740 H 159.175 0.76942 0.303185 0
M  V30 1741 H 161.721 1.69176 -0.133313 0
M  V30 1742 H 160.493 3.91292 0.0248896 0
M  V30 1743 H 160.116 3.58987 1.70921 0
M  V30 1744 N 161.113 -0.173488 1.56642 0
M  V30 1745 C 162.046 -1.24353 1.91342 0
M  V30 1746 C 163.024 -1.4289 0.775965 0
M  V30 1747 O 164.208 -1.57932 1.02907 0
M  V30 1748 C 161.335 -2.60683 2.16245 0
M  V30 1749 C 160.381 -2.58894 3.38934 0
M  V30 1750 S 161.214 -2.0819 4.93373 0
M  V30 1751 C 162.37 -3.46302 5.21369 0
M  V30 1752 H 162.603 -0.947345 2.81803 0
M  V30 1753 H 160.136 -0.377958 1.49703 0
M  V30 1754 H 162.094 -3.39149 2.31275 0
M  V30 1755 H 160.755 -2.87502 1.26496 0
M  V30 1756 H 159.948 -3.59188 3.53553 0
M  V30 1757 H 159.55 -1.88522 3.2301 0
M  V30 1758 H 161.842 -4.42287 5.13214 0
M  V30 1759 H 162.785 -3.3656 6.23003 0
M  V30 1760 H 163.193 -3.42214 4.48943 0
M  V30 1761 N 162.591 -1.51276 -0.441967 0
M  V30 1762 C 163.839 -1.63392 -1.18943 0
M  V30 1763 C 164.16 -0.350159 -1.9183 0
M  V30 1764 O 163.43 0.633784 -1.85364 0
M  V30 1765 H 162.01 -0.602164 -0.442049 0
M  V30 1766 H 164.672 -1.88186 -0.507165 0
M  V30 1767 H 163.768 -2.45934 -1.92154 0
M  V30 1768 N 164.069 0.697108 -1.41344 0
M  V30 1769 C 165.017 1.83237 -1.43272 0
M  V30 1770 C 166.011 1.66522 -0.310947 0
M  V30 1771 O 167.217 1.73402 -0.482899 0
M  V30 1772 H 163.592 0.603802 -0.448249 0
M  V30 1773 H 165.563 1.78727 -2.38954 0
M  V30 1774 C 164.312 3.21245 -1.33029 0
M  V30 1775 H 163.635 3.34723 -2.18633 0
M  V30 1776 H 165.075 4.00763 -1.38439 0
M  V30 1777 C 163.534 3.36873 -0.0424635 0
M  V30 1778 O 164.064 3.91177 0.913421 0
M  V30 1779 N 162.27 2.90581 0.0331145 0
M  V30 1780 H 161.817 2.46577 -0.745506 0
M  V30 1781 H 161.775 3.01416 0.894199 0
M  V30 1782 N 165.547 1.27147 0.931209 0
M  V30 1783 C 166.796 1.12664 1.67302 0
M  V30 1784 C 167.109 -0.327718 1.92835 0
M  V30 1785 O 168.315 -0.593392 2.64936 0
M  V30 1786 C 166.771 1.9683 3.01307 0
M  V30 1787 C 166.379 3.46901 2.83485 0
M  V30 1788 C 168.123 1.90985 3.79111 0
M  V30 1789 C 166.03 4.23279 4.13024 0
M  V30 1790 H 164.96 0.41803 0.627509 0
M  V30 1791 H 167.611 1.51539 1.03481 0
M  V30 1792 H 165.993 1.50797 3.66164 0
M  V30 1793 H 167.167 4.00773 2.27415 0
M  V30 1794 H 165.482 3.54088 2.19113 0
M  V30 1795 H 168.079 2.45328 4.75098 0
M  V30 1796 H 168.422 0.882718 4.06834 0
M  V30 1797 H 168.955 2.34895 3.21044 0
M  V30 1798 H 165.694 5.26503 3.90481 0
M  V30 1799 H 165.214 3.74186 4.6877 0
M  V30 1800 H 166.893 4.32265 4.81411 0
M  V30 1801 N 167.025 -1.13721 1.09112 0
M  V30 1802 C 167.973 -2.21103 0.722219 0
M  V30 1803 C 168.967 -1.67147 -0.275374 0
M  V30 1804 O 170.173 -1.79477 -0.137176 0
M  V30 1805 H 166.548 -0.720445 0.215553 0
M  V30 1806 H 168.519 -2.49483 1.63709 0
M  V30 1807 C 167.268 -3.47352 0.15543 0
M  V30 1808 H 166.591 -3.89206 0.914246 0
M  V30 1809 H 168.031 -4.2395 -0.0647967 0
M  V30 1810 C 166.49 -3.1814 -1.10852 0
M  V30 1811 O 167.02 -3.36604 -2.19227 0
M  V30 1812 N 165.226 -2.72045 -1.02176 0
M  V30 1813 H 164.773 -2.57221 -0.139764 0
M  V30 1814 H 164.731 -2.52875 -1.8682 0
M  V30 1815 N 168.503 -0.877838 -1.30888 0
M  V30 1816 C 169.433 -0.35534 -2.3078 0
M  V30 1817 C 170.414 0.557994 -1.60687 0
M  V30 1818 O 171.599 0.473355 -1.88343 0
M  V30 1819 C 168.729 0.437221 -3.44537 0
M  V30 1820 C 167.683 -0.383715 -4.26276 0
M  V30 1821 C 167.009 0.535014 -5.32017 0
M  V30 1822 C 168.309 -1.62201 -4.96476 0
M  V30 1823 H 170.003 -1.19007 -2.74732 0
M  V30 1824 H 167.549 -0.573698 -1.32078 0
M  V30 1825 H 169.502 0.813334 -4.13477 0
M  V30 1826 H 168.226 1.30553 -2.99372 0
M  V30 1827 H 166.885 -0.741874 -3.59015 0
M  V30 1828 H 166.533 1.40083 -4.831 0
M  V30 1829 H 166.233 -0.0104211 -5.87599 0
M  V30 1830 H 167.757 0.907799 -6.03814 0
M  V30 1831 H 169.171 -1.31689 -5.5797 0
M  V30 1832 H 167.568 -2.10711 -5.61891 0
M  V30 1833 H 168.638 -2.37044 -4.23011 0
M  V30 1834 N 169.982 1.44106 -0.638065 0
M  V30 1835 C 171.21 2.06336 -0.152615 0
M  V30 1836 C 171.625 1.47731 1.17563 0
M  V30 1837 O 170.982 0.602806 1.72257 0
M  V30 1838 C 171.033 3.61479 -0.0391491 0
M  V30 1839 O 170.754 4.17903 -1.31487 0
M  V30 1840 C 172.255 4.40757 0.474176 0
M  V30 1841 H 169.475 0.665862 -0.0828776 0
M  V30 1842 H 172.019 1.84862 -0.87443 0
M  V30 1843 H 170.174 3.82191 0.633142 0
M  V30 1844 H 170.588 5.11416 -1.16421 0
M  V30 1845 H 172.062 5.49707 0.502562 0
M  V30 1846 H 172.539 4.12697 1.50258 0
M  V30 1847 H 173.145 4.24979 -0.165102 0
M  V30 1848 N 171.46 0.379036 1.52974 0
M  V30 1849 C 172.707 -0.206421 2.01445 0
M  V30 1850 C 173.035 -1.47668 1.26587 0
M  V30 1851 O 172.29 -1.92514 0.351675 0
M  V30 1852 C 172.589 -0.53096 3.53434 0
M  V30 1853 C 172.255 0.646546 4.46241 0
M  V30 1854 C 170.917 0.969604 4.7133 0
M  V30 1855 C 173.269 1.43479 5.01062 0
M  V30 1856 C 170.597 2.08263 5.48492 0
M  V30 1857 C 172.949 2.53834 5.7944 0
M  V30 1858 C 171.613 2.86659 6.02812 0
M  V30 1859 H 170.883 -0.0755349 0.73714 0
M  V30 1860 H 173.53 0.514271 1.84465 0
M  V30 1861 H 171.835 -1.33285 3.68432 0
M  V30 1862 H 173.532 -0.996417 3.88423 0
M  V30 1863 H 170.122 0.384734 4.2687 0
M  V30 1864 H 174.306 1.19844 4.81613 0
M  V30 1865 H 169.562 2.34078 5.64816 0
M  V30 1866 H 173.736 3.15319 6.20924 0
M  V30 1867 H 171.363 3.73026 6.62387 0
M  V30 1868 N 172.938 -1.57226 0.108567 0
M  V30 1869 C 174.185 -1.94833 -0.551943 0
M  V30 1870 C 174.513 -0.991204 -1.67348 0
M  V30 1871 O 173.768 -0.0131878 -1.95696 0
M  V30 1872 C 174.067 -3.38911 -1.13463 0
M  V30 1873 C 173.733 -4.50696 -0.135509 0
M  V30 1874 C 172.395 -4.80998 0.139252 0
M  V30 1875 C 174.747 -5.18333 0.545957 0
M  V30 1876 C 172.075 -5.76259 1.10194 0
M  V30 1877 C 174.427 -6.14627 1.49721 0
M  V30 1878 C 173.091 -6.43327 1.78006 0
M  V30 1879 H 172.361 -0.712944 -0.20197 0
M  V30 1880 H 175.008 -1.90582 0.18726 0
M  V30 1881 H 173.313 -3.39805 -1.95037 0
M  V30 1882 H 175.01 -3.65317 -1.65362 0
M  V30 1883 H 171.6 -4.27087 -0.359846 0
M  V30 1884 H 175.784 -4.95087 0.346842 0
M  V30 1885 H 171.04 -5.96804 1.32795 0
M  V30 1886 H 175.214 -6.66126 2.03099 0
M  V30 1887 H 172.841 -7.1695 2.52759 0
M  V30 1888 N 174.416 0.165178 -1.56732 0
M  V30 1889 C 175.644 0.896218 -1.86482 0
M  V30 1890 C 176.059 1.75555 -0.694675 0
M  V30 1891 O 175.416 1.79379 0.33607 0
M  V30 1892 C 175.467 1.76792 -3.1532 0
M  V30 1893 O 175.188 0.943239 -4.27825 0
M  V30 1894 C 176.689 2.6081 -3.58459 0
M  V30 1895 H 173.909 0.260064 -0.618553 0
M  V30 1896 H 176.453 0.163428 -2.03846 0
M  V30 1897 H 174.608 2.45398 -2.99764 0
M  V30 1898 H 175.022 1.53998 -5.01383 0
M  V30 1899 H 176.496 3.17579 -4.51495 0
M  V30 1900 H 176.973 3.35977 -2.82872 0
M  V30 1901 H 177.579 1.97526 -3.76648 0
M  V30 1902 N 175.894 1.51508 0.433938 0
M  V30 1903 C 177.122 1.68157 1.20543 0
M  V30 1904 C 177.537 0.380362 1.84929 0
M  V30 1905 O 176.894 -0.641446 1.70856 0
M  V30 1906 C 176.945 2.79965 2.28696 0
M  V30 1907 O 176.666 4.05045 1.66943 0
M  V30 1908 C 178.167 3.07912 3.18912 0
M  V30 1909 H 175.387 0.56421 0.363191 0
M  V30 1910 H 177.931 1.97941 0.513754 0
M  V30 1911 H 176.086 2.5277 2.93574 0
M  V30 1912 H 176.5 4.67165 2.38448 0
M  V30 1913 H 177.974 3.89719 3.90926 0
M  V30 1914 H 178.451 2.20456 3.79863 0
M  V30 1915 H 179.057 3.36779 2.59731 0
M  V30 1916 N 177.372 -0.689602 1.41712 0
M  V30 1917 C 178.319 -1.80345 1.44029 0
M  V30 1918 C 179.289 -1.63478 0.293948 0
M  V30 1919 O 180.474 -1.84244 0.495869 0
M  V30 1920 C 177.614 -3.18272 1.33405 0
M  V30 1921 C 176.727 -3.46529 2.57956 0
M  V30 1922 C 175.862 -4.74103 2.39582 0
M  V30 1923 C 174.901 -4.95347 3.5958 0
M  V30 1924 N 174.038 -6.14151 3.40239 0
M  V30 1925 H 178.878 -1.77698 2.39222 0
M  V30 1926 H 176.415 -0.867688 1.18784 0
M  V30 1927 H 178.373 -3.97956 1.25246 0
M  V30 1928 H 177.003 -3.2008 0.418164 0
M  V30 1929 H 176.055 -2.61207 2.76542 0
M  V30 1930 H 177.367 -3.58126 3.47199 0
M  V30 1931 H 176.521 -5.61853 2.28924 0
M  V30 1932 H 175.26 -4.64763 1.47805 0
M  V30 1933 H 174.265 -4.06044 3.70686 0
M  V30 1934 H 175.49 -5.06542 4.52318 0
M  V30 1935 H 173.436 -6.06013 2.51167 0
M  V30 1936 H 173.353 -6.26543 4.23061 0
M  V30 1937 H 174.621 -7.04619 3.33365 0
M  V30 1938 N 178.85 -1.27639 -0.924453 0
M  V30 1939 C 179.797 -1.10644 -2.0255 0
M  V30 1940 C 180.767 -0.00658438 -1.66099 0
M  V30 1941 O 181.952 -0.16952 -1.90045 0
M  V30 1942 C 179.092 -0.76309 -3.36557 0
M  V30 1943 C 178.205 -1.94091 -3.85944 0
M  V30 1944 C 177.34 -1.53914 -5.08413 0
M  V30 1945 C 176.379 -2.68425 -5.50104 0
M  V30 1946 N 175.516 -2.28815 -6.63768 0
M  V30 1947 H 180.356 -2.04858 -2.16419 0
M  V30 1948 H 177.893 -1.01974 -1.06017 0
M  V30 1949 H 179.851 -0.544822 -4.13627 0
M  V30 1950 H 178.481 0.142102 -3.22487 0
M  V30 1951 H 177.533 -2.27162 -3.05125 0
M  V30 1952 H 178.845 -2.7998 -4.12811 0
M  V30 1953 H 177.999 -1.28231 -5.92994 0
M  V30 1954 H 176.738 -0.651391 -4.8333 0
M  V30 1955 H 175.743 -2.94819 -4.64071 0
M  V30 1956 H 176.968 -3.57826 -5.7718 0
M  V30 1957 H 174.914 -1.42495 -6.40337 0
M  V30 1958 H 174.831 -3.08242 -6.90306 0
M  V30 1959 H 176.099 -2.06387 -7.51681 0
M  V30 1960 N 180.328 1.1314 -1.09713 0
M  V30 1961 C 181.275 2.18642 -0.739196 0
M  V30 1962 C 182.245 1.63706 0.280978 0
M  V30 1963 O 183.43 1.90111 0.161946 0
M  V30 1964 C 180.57 3.44685 -0.169102 0
M  V30 1965 C 179.683 4.13711 -1.24367 0
M  V30 1966 C 178.818 5.27379 -0.636019 0
M  V30 1967 C 177.857 5.88259 -1.69169 0
M  V30 1968 N 176.994 6.93352 -1.10485 0
M  V30 1969 H 181.834 2.48607 -1.64312 0
M  V30 1970 H 179.371 1.22066 -0.820875 0
M  V30 1971 H 181.329 4.16815 0.179256 0
M  V30 1972 H 179.959 3.15161 0.698079 0
M  V30 1973 H 179.011 3.39835 -1.70927 0
M  V30 1974 H 180.323 4.55037 -2.04311 0
M  V30 1975 H 179.477 6.06238 -0.236677 0
M  V30 1976 H 178.216 4.8731 0.194928 0
M  V30 1977 H 177.221 5.08092 -2.10055 0
M  V30 1978 H 178.446 6.30399 -2.52536 0
M  V30 1979 H 176.392 6.55335 -0.295234 0
M  V30 1980 H 176.309 7.33236 -1.84121 0
M  V30 1981 H 177.577 7.76057 -0.73181 0
M  V30 1982 N 181.806 0.884767 1.30421 0
M  V30 1983 C 183.036 0.517293 2.00019 0
M  V30 1984 C 183.444 -0.898632 1.66497 0
M  V30 1985 O 182.787 -1.60245 0.898181 0
M  V30 1986 C 182.849 0.612025 3.54252 0
M  V30 1987 C 182.513 1.99222 4.1129 0
M  V30 1988 C 183.51 2.9616 4.273 0
M  V30 1989 C 181.195 2.29755 4.46674 0
M  V30 1990 C 183.189 4.21764 4.77906 0
M  V30 1991 C 180.876 3.55606 4.96979 0
M  V30 1992 C 181.874 4.51425 5.12547 0
M  V30 1993 O 181.562 5.75043 5.61766 0
M  V30 1994 H 181.294 0.198529 0.64619 0
M  V30 1995 H 183.848 1.1919 1.67281 0
M  V30 1996 H 182.078 -0.119561 3.86515 0
M  V30 1997 H 183.767 0.255859 4.05093 0
M  V30 1998 H 184.533 2.73882 4.00267 0
M  V30 1999 H 180.412 1.55942 4.33824 0
M  V30 2000 H 183.956 4.96561 4.89972 0
M  V30 2001 H 179.853 3.7772 5.23448 0
M  V30 2002 H 180.621 5.77422 5.80109 0
M  V30 2003 N 183.284 -1.43765 0.645699 0
M  V30 2004 C 184.561 -1.9541 0.0862963 0
M  V30 2005 C 184.941 -1.58725 -1.39175 0
M  V30 2006 O 184.289 -0.868581 -2.11348 0
M  V30 2007 C 184.499 -3.47488 0.324565 0
M  V30 2008 C 185.847 -4.24001 0.225497 0
M  V30 2009 O 186.871 -3.55274 0.256715 0
M  V30 2010 O 185.73 -5.46313 0.142801 0
M  V30 2011 H 182.824 -0.826882 -0.0139483 0
M  V30 2012 H 185.37 -1.53743 0.718415 0
M  V30 2013 H 184.142 -3.67289 1.3496 0
M  V30 2014 H 183.765 -3.96135 -0.340987 0
M  V30 2015 N 184.763 -0.387143 -1.52771 0
M  V30 2016 C 186.179 -0.037007 -1.59557 0
M  V30 2017 C 186.379 1.44801 -1.40124 0
M  V30 2018 O 185.435 2.21227 -1.21716 0
M  V30 2019 C 186.748 -0.512256 -2.96305 0
M  V30 2020 C 188.296 -0.468328 -3.09476 0
M  V30 2021 C 188.771 -0.919731 -4.4867 0
M  V30 2022 N 190.262 -0.875656 -4.54848 0
M  V30 2023 C 190.997 -1.19637 -5.6078 0
M  V30 2024 N 190.493 -1.58745 -6.74368 0
M  V30 2025 N 192.286 -1.11776 -5.50874 0
M  V30 2026 H 184.437 -1.35395 -1.63652 0
M  V30 2027 H 186.7 -0.554818 -0.768688 0
M  V30 2028 H 186.406 -1.54935 -3.15734 0
M  V30 2029 H 186.28 0.089805 -3.77093 0
M  V30 2030 H 188.667 0.559671 -2.89744 0
M  V30 2031 H 188.748 -1.10616 -2.30646 0
M  V30 2032 H 188.392 -1.94595 -4.69143 0
M  V30 2033 H 188.322 -0.258927 -5.25963 0
M  V30 2034 H 190.813 -0.587843 -3.733 0
M  V30 2035 H 191.126 -1.81586 -7.51163 0
M  V30 2036 H 189.471 -1.6263 -6.75705 0
M  V30 2037 H 192.662 -0.811264 -4.61016 0
M  V30 2038 H 192.835 -1.37103 -6.3333 0
M  V30 2039 N 186.241 1.57166 -0.116904 0
M  V30 2040 C 187.174 2.10912 0.871291 0
M  V30 2041 C 188.152 1.025 1.26224 0
M  V30 2042 O 189.336 1.3014 1.36366 0
M  V30 2043 C 186.463 2.6041 2.16574 0
M  V30 2044 C 185.509 3.80687 1.92302 0
M  V30 2045 S 186.342 5.23199 1.14119 0
M  V30 2046 C 187.498 5.76064 2.44748 0
M  V30 2047 H 187.731 2.94401 0.414138 0
M  V30 2048 H 185.264 1.54096 0.096829 0
M  V30 2049 H 187.222 2.89583 2.9095 0
M  V30 2050 H 185.883 1.77106 2.59408 0
M  V30 2051 H 185.076 4.13462 2.8821 0
M  V30 2052 H 184.678 3.5212 1.26047 0
M  V30 2053 H 186.97 5.8566 3.406 0
M  V30 2054 H 187.913 6.74184 2.16521 0
M  V30 2055 H 188.321 5.04117 2.54019 0
M  V30 2056 N 187.719 -0.156864 1.56817 0
M  V30 2057 C 188.629 -1.2136 2.00771 0
M  V30 2058 C 189.645 -1.47598 0.921459 0
M  V30 2059 O 190.821 -1.59462 1.2302 0
M  V30 2060 C 187.886 -2.52943 2.37109 0
M  V30 2061 C 186.947 -2.34439 3.59634 0
M  V30 2062 C 186.18 -3.59748 3.94229 0
M  V30 2063 O 186.403 -4.65526 3.29609 0
M  V30 2064 O 185.337 -3.52998 4.8752 0
M  V30 2065 H 189.163 -0.870468 2.90958 0
M  V30 2066 H 186.748 -0.36484 1.44877 0
M  V30 2067 H 188.63 -3.30538 2.61386 0
M  V30 2068 H 187.305 -2.86806 1.5008 0
M  V30 2069 H 186.212 -1.54828 3.40557 0
M  V30 2070 H 187.545 -2.05496 4.4725 0
M  V30 2071 N 189.197 -1.51736 -0.425897 0
M  V30 2072 C 190.145 -1.74464 -1.53834 0
M  V30 2073 C 191.139 -0.611241 -1.57988 0
M  V30 2074 O 192.345 -0.792899 -1.61596 0
M  V30 2075 H 188.72 -0.551437 -0.511293 0
M  V30 2076 H 190.691 -2.67694 -1.31843 0
M  V30 2077 C 189.44 -1.8972 -2.91379 0
M  V30 2078 H 188.763 -2.76344 -2.88919 0
M  V30 2079 H 190.203 -2.09629 -3.68553 0
M  V30 2080 C 188.662 -0.65992 -3.30374 0
M  V30 2081 O 189.192 0.180083 -4.01296 0
M  V30 2082 N 187.398 -0.500677 -2.86254 0
M  V30 2083 H 186.945 -1.18532 -2.28709 0
M  V30 2084 H 186.903 0.325903 -3.12706 0
M  V30 2085 N 190.675 0.682077 -1.42076 0
M  V30 2086 C 191.605 1.80796 -1.47767 0
M  V30 2087 C 192.586 1.6677 -0.334954 0
M  V30 2088 O 193.771 1.863 -0.548264 0
M  V30 2089 C 190.901 3.19038 -1.37229 0
M  V30 2090 C 189.855 3.47789 -2.49453 0
M  V30 2091 C 189.181 4.8553 -2.23975 0
M  V30 2092 C 190.481 3.45411 -3.91776 0
M  V30 2093 H 192.175 1.7629 -2.41997 0
M  V30 2094 H 189.721 0.846721 -1.16476 0
M  V30 2095 H 191.674 3.97528 -1.39821 0
M  V30 2096 H 190.398 3.24204 -0.394907 0
M  V30 2097 H 189.057 2.71657 -2.46166 0
M  V30 2098 H 188.705 4.87337 -1.24547 0
M  V30 2099 H 188.405 5.0573 -2.99184 0
M  V30 2100 H 189.929 5.66312 -2.28304 0
M  V30 2101 H 191.343 4.13882 -3.96705 0
M  V30 2102 H 189.74 3.77145 -4.66778 0
M  V30 2103 H 190.81 2.44122 -4.18966 0
M  V30 2104 N 192.153 1.28127 0.917671 0
M  V30 2105 C 193.1 1.11717 2.0196 0
M  V30 2106 C 194.07 0.0153929 1.66093 0
M  V30 2107 O 195.255 0.179596 1.89953 0
M  V30 2108 C 192.395 0.780927 3.36148 0
M  V30 2109 C 191.508 1.96135 3.84909 0
M  V30 2110 C 190.643 1.56609 5.0759 0
M  V30 2111 C 189.682 2.71339 5.48673 0
M  V30 2112 N 188.819 2.32332 6.62545 0
M  V30 2113 H 193.659 2.06003 2.15329 0
M  V30 2114 H 191.196 1.02535 1.05475 0
M  V30 2115 H 193.154 0.56675 4.13333 0
M  V30 2116 H 191.784 -0.124998 3.22558 0
M  V30 2117 H 190.836 2.28777 3.03916 0
M  V30 2118 H 192.148 2.82165 4.1132 0
M  V30 2119 H 191.302 1.31374 5.92305 0
M  V30 2120 H 190.041 0.677014 4.82978 0
M  V30 2121 H 189.046 2.97276 4.62501 0
M  V30 2122 H 190.271 3.60882 5.75274 0
M  V30 2123 H 188.217 1.45889 6.39572 0
M  V30 2124 H 188.134 3.11899 6.88662 0
M  V30 2125 H 189.402 2.10371 7.50576 0
M  V30 2126 N 193.631 -1.12557 1.10312 0
M  V30 2127 C 194.561 -2.20341 0.772798 0
M  V30 2128 C 195.542 -1.68198 -0.25365 0
M  V30 2129 O 196.727 -1.93831 -0.119699 0
M  V30 2130 C 193.857 -3.46709 0.202443 0
M  V30 2131 C 192.811 -4.11996 1.15943 0
M  V30 2132 C 192.137 -5.328 0.450345 0
M  V30 2133 C 193.437 -4.5828 2.50552 0
M  V30 2134 H 195.131 -2.48229 1.674 0
M  V30 2135 H 192.677 -1.19308 0.806326 0
M  V30 2136 H 194.63 -4.2138 -0.0407752 0
M  V30 2137 H 193.354 -3.18245 -0.734001 0
M  V30 2138 H 192.013 -3.39305 1.38808 0
M  V30 2139 H 191.661 -5.00602 -0.490531 0
M  V30 2140 H 191.361 -5.7743 1.08851 0
M  V30 2141 H 192.885 -6.10219 0.215642 0
M  V30 2142 H 194.299 -5.2433 2.31843 0
M  V30 2143 H 192.696 -5.13683 3.10242 0
M  V30 2144 H 193.766 -3.72329 3.10643 0
M  V30 2145 N 195.109 -0.891671 -1.2995 0
M  V30 2146 C 196.358 -0.509521 -1.95158 0
M  V30 2147 C 196.671 0.947388 -1.71125 0
M  V30 2148 O 197.877 1.43669 -2.30372 0
M  V30 2149 C 196.333 -0.860315 -3.49466 0
M  V30 2150 C 195.941 -2.33545 -3.8231 0
M  V30 2151 C 197.685 -0.547687 -4.20952 0
M  V30 2152 C 195.592 -2.62752 -5.29826 0
M  V30 2153 H 194.522 -0.18682 -0.730489 0
M  V30 2154 H 197.173 -1.08756 -1.47798 0
M  V30 2155 H 195.555 -0.211285 -3.95436 0
M  V30 2156 H 196.729 -3.02936 -3.47227 0
M  V30 2157 H 195.044 -2.61629 -3.23944 0
M  V30 2158 H 197.641 -0.742854 -5.29515 0
M  V30 2159 H 197.984 0.51332 -4.13123 0
M  V30 2160 H 198.517 -1.1542 -3.80688 0
M  V30 2161 H 195.256 -3.6762 -5.42712 0
M  V30 2162 H 194.776 -1.97977 -5.66185 0
M  V30 2163 H 196.455 -2.48601 -5.97333 0
M  V30 2164 N 196.587 1.43421 -0.653314 0
M  V30 2165 C 197.833 2.02111 -0.166992 0
M  V30 2166 C 198.166 1.51423 1.21592 0
M  V30 2167 O 197.441 0.707389 1.8118 0
M  V30 2168 C 197.724 3.5966 -0.177948 0
M  V30 2169 C 197.577 4.20579 -1.59478 0
M  V30 2170 C 198.896 4.37413 0.4856 0
M  V30 2171 H 196.015 0.734374 -0.0621557 0
M  V30 2172 H 198.657 1.70717 -0.834016 0
M  V30 2173 H 196.807 3.86537 0.390032 0
M  V30 2174 H 198.479 4.04732 -2.21336 0
M  V30 2175 H 196.722 3.77226 -2.14204 0
M  V30 2176 H 197.393 5.29665 -1.5543 0
M  V30 2177 H 199.869 4.161 0.00234528 0
M  V30 2178 H 198.745 5.47075 0.447207 0
M  V30 2179 H 199.006 4.13672 1.55974 0
M  V30 2180 N 198.065 0.39524 1.52563 0
M  V30 2181 C 199.481 0.0454682 1.59535 0
M  V30 2182 C 199.681 -1.44056 1.4089 0
M  V30 2183 O 198.737 -2.20579 1.22888 0
M  V30 2184 C 200.05 0.527963 2.96029 0
M  V30 2185 C 201.598 0.484733 3.09224 0
M  V30 2186 C 202.073 0.943512 4.48176 0
M  V30 2187 N 203.564 0.899765 4.54377 0
M  V30 2188 C 204.299 1.22609 5.60138 0
M  V30 2189 N 203.795 1.62319 6.73516 0
M  V30 2190 N 205.588 1.14696 5.50274 0
M  V30 2191 H 197.739 1.36261 1.62931 0
M  V30 2192 H 200.002 0.558887 0.765735 0
M  V30 2193 H 199.708 1.56607 3.14908 0
M  V30 2194 H 199.582 -0.0698056 3.77135 0
M  V30 2195 H 201.969 -0.544298 2.90037 0
M  V30 2196 H 202.05 1.11838 2.30056 0
M  V30 2197 H 201.694 1.9708 4.68104 0
M  V30 2198 H 201.624 0.286817 5.25818 0
M  V30 2199 H 204.115 0.607632 3.72983 0
M  V30 2200 H 204.428 1.85567 7.5019 0
M  V30 2201 H 202.773 1.66211 6.74833 0
M  V30 2202 H 205.964 0.835701 4.6058 0
M  V30 2203 H 206.137 1.40459 6.32594 0
M  V30 2204 N 199.544 -1.57102 0.125237 0
M  V30 2205 C 200.507 -2.14471 -0.80838 0
M  V30 2206 C 201.507 -1.0811 -1.19033 0
M  V30 2207 O 202.697 -1.33856 -1.11482 0
M  V30 2208 C 199.829 -2.69005 -2.09402 0
M  V30 2209 H 201.022 -2.98297 -0.309696 0
M  V30 2210 H 198.575 -1.55807 -0.124051 0
M  V30 2211 H 199.31 -1.88785 -2.63687 0
M  V30 2212 H 199.095 -3.46799 -1.82957 0
M  V30 2213 H 200.585 -3.13278 -2.76128 0
M  V30 2214 N 201.022 0.148545 -1.56898 0
M  V30 2215 C 201.952 1.18524 -2.01182 0
M  V30 2216 C 202.933 1.4489 -0.891123 0
M  V30 2217 O 204.118 1.55836 -1.15882 0
M  V30 2218 C 201.248 2.51879 -2.39112 0
M  V30 2219 C 200.202 2.40038 -3.54353 0
M  V30 2220 C 199.528 3.78089 -3.78091 0
M  V30 2221 C 200.828 1.88577 -4.87069 0
M  V30 2222 H 202.522 0.817029 -2.88036 0
M  V30 2223 H 200.068 0.391575 -1.38574 0
M  V30 2224 H 202.021 3.24627 -2.68692 0
M  V30 2225 H 200.745 2.90532 -1.49193 0
M  V30 2226 H 199.404 1.69742 -3.24936 0
M  V30 2227 H 199.052 4.14175 -2.85426 0
M  V30 2228 H 198.752 3.71028 -4.55645 0
M  V30 2229 H 200.276 4.52387 -4.10095 0
M  V30 2230 H 201.69 2.51117 -5.15377 0
M  V30 2231 H 200.087 1.9241 -5.68417 0
M  V30 2232 H 201.157 0.84136 -4.77545 0
M  V30 2233 N 202.5 1.5196 0.417844 0
M  V30 2234 C 203.448 1.75278 1.52907 0
M  V30 2235 C 204.442 0.619611 1.57662 0
M  V30 2236 O 205.648 0.801457 1.61173 0
M  V30 2237 H 202.023 0.554141 0.508362 0
M  V30 2238 H 203.994 2.68389 1.30422 0
M  V30 2239 C 202.743 1.91262 2.90369 0
M  V30 2240 H 202.066 2.77872 2.8745 0
M  V30 2241 H 203.506 2.11581 3.67436 0
M  V30 2242 C 201.965 0.677431 3.30019 0
M  V30 2243 O 202.495 -0.158799 4.01386 0
M  V30 2244 N 200.701 0.515851 2.85985 0
M  V30 2245 H 200.248 1.19744 2.28077 0
M  V30 2246 H 200.206 -0.309315 3.12875 0
M  V30 2247 N 203.978 -0.674533 1.42435 0
M  V30 2248 C 204.941 -1.76986 1.45632 0
M  V30 2249 C 205.941 -1.5708 0.343871 0
M  V30 2250 O 207.131 -1.63367 0.604709 0
M  V30 2251 C 204.263 -3.15623 1.28822 0
M  V30 2252 H 205.456 -1.75539 2.43158 0
M  V30 2253 H 203.009 -0.884189 1.28887 0
M  V30 2254 H 203.744 -3.22696 0.322193 0
M  V30 2255 H 203.529 -3.31475 2.09444 0
M  V30 2256 H 205.019 -3.95537 1.33942 0
M  V30 2257 N 205.456 -1.28612 -0.910864 0
M  V30 2258 C 206.702 -1.16106 -1.66274 0
M  V30 2259 C 207.035 0.289113 -1.92036 0
M  V30 2260 O 206.31 1.21 -1.52281 0
M  V30 2261 C 206.593 -1.96309 -3.01885 0
M  V30 2262 C 206.446 -3.49405 -2.8326 0
M  V30 2263 C 207.765 -1.78076 -4.02463 0
M  V30 2264 H 204.884 -0.423152 -0.603417 0
M  V30 2265 H 207.526 -1.57961 -1.05586 0
M  V30 2266 H 205.676 -1.60742 -3.53687 0
M  V30 2267 H 207.348 -3.94894 -2.38446 0
M  V30 2268 H 205.591 -3.74893 -2.18261 0
M  V30 2269 H 206.262 -4.00784 -3.79574 0
M  V30 2270 H 208.738 -2.0912 -3.59733 0
M  V30 2271 H 207.614 -2.36561 -4.95308 0
M  V30 2272 H 207.875 -0.733008 -4.35981 0
M  V30 2273 N 206.934 1.1197 -1.10907 0
M  V30 2274 C 207.866 2.17592 -0.720175 0
M  V30 2275 C 208.879 1.60938 0.245495 0
M  V30 2276 O 210.068 1.78476 0.0292245 0
M  V30 2277 C 207.168 3.38873 -0.0427917 0
M  V30 2278 C 206.341 4.25006 -1.03388 0
M  V30 2279 C 205.4 5.24774 -0.387075 0
M  V30 2280 O 204.426 5.59631 -1.03934 0
M  V30 2281 N 205.628 5.74208 0.852407 0
M  V30 2282 H 208.393 2.51567 -1.62893 0
M  V30 2283 H 205.954 1.27439 -0.998543 0
M  V30 2284 H 207.946 4.02703 0.401501 0
M  V30 2285 H 206.516 3.03007 0.768456 0
M  V30 2286 H 205.736 3.57716 -1.65629 0
M  V30 2287 H 207.024 4.79397 -1.70458 0
M  V30 2288 H 206.422 5.48062 1.40161 0
M  V30 2289 H 204.979 6.39901 1.23977 0
M  V30 2290 N 208.412 0.89855 1.29475 0
M  V30 2291 C 209.823 0.572537 1.77705 0
M  V30 2292 C 210.174 -0.911778 1.73727 0
M  V30 2293 O 209.299 -1.71288 1.32247 0
M  V30 2294 C 209.894 1.03252 3.22683 0
M  V30 2295 C 208.453 0.757687 3.68695 0
M  V30 2296 C 207.6 1.20787 2.49612 0
M  V30 2297 H 210.551 1.08139 1.16153 0
M  V30 2298 H 210.572 0.367307 3.78723 0
M  V30 2299 H 210.084 2.11285 3.25546 0
M  V30 2300 H 208.185 -0.310079 3.71308 0
M  V30 2301 H 208.298 1.35476 4.59547 0
M  V30 2302 H 206.662 0.626888 2.46865 0
M  V30 2303 H 207.445 2.29622 2.55203 0
M  V30 2304 N 209.89 -1.43072 0.660911 0
M  V30 2305 C 210.822 -2.29108 -0.0647641 0
M  V30 2306 C 211.835 -1.42928 -0.779448 0
M  V30 2307 O 213.024 -1.66788 -0.635921 0
M  V30 2308 C 210.124 -3.20032 -1.11503 0
M  V30 2309 C 209.297 -4.34792 -0.476955 0
M  V30 2310 C 208.356 -5.06534 -1.42513 0
M  V30 2311 O 207.382 -5.61538 -0.930771 0
M  V30 2312 N 208.584 -5.1075 -2.75889 0
M  V30 2313 H 211.349 -2.92029 0.673731 0
M  V30 2314 H 208.91 -1.53846 0.50427 0
M  V30 2315 H 210.902 -3.64892 -1.75032 0
M  V30 2316 H 209.472 -2.58658 -1.75541 0
M  V30 2317 H 208.692 -3.92752 0.337572 0
M  V30 2318 H 209.98 -5.0879 -0.0318525 0
M  V30 2319 H 209.378 -4.67447 -3.18606 0
M  V30 2320 H 207.935 -5.59302 -3.347 0
M  V30 2321 N 211.368 -0.403325 -1.52352 0
M  V30 2322 C 212.298 0.416205 -2.29761 0
M  V30 2323 C 213.279 1.05123 -1.33728 0
M  V30 2324 O 214.464 1.06134 -1.62632 0
M  V30 2325 C 211.594 1.53624 -3.11475 0
M  V30 2326 C 210.548 1.02653 -4.15507 0
M  V30 2327 C 209.874 2.23971 -4.85532 0
M  V30 2328 C 211.174 0.08463 -5.22231 0
M  V30 2329 H 212.868 -0.229701 -2.98518 0
M  V30 2330 H 210.414 -0.111913 -1.43564 0
M  V30 2331 H 212.367 2.1165 -3.64393 0
M  V30 2332 H 211.091 2.20994 -2.40477 0
M  V30 2333 H 209.75 0.46871 -3.63591 0
M  V30 2334 H 209.398 2.89883 -4.11068 0
M  V30 2335 H 209.098 1.90521 -5.55856 0
M  V30 2336 H 210.622 2.82614 -5.41259 0
M  V30 2337 H 212.036 0.573509 -5.70424 0
M  V30 2338 H 210.433 -0.160783 -5.99885 0
M  V30 2339 H 211.503 -0.86237 -4.7717 0
M  V30 2340 N 212.846 1.57033 -0.133567 0
M  V30 2341 C 214.123 1.87256 0.56522 0
M  V30 2342 C 214.503 1.03726 1.83859 0
M  V30 2343 O 213.851 0.120247 2.28183 0
M  V30 2344 C 214.061 3.3865 0.843636 0
M  V30 2345 C 215.409 4.07574 1.19032 0
M  V30 2346 O 216.433 3.43752 0.933429 0
M  V30 2347 O 215.292 5.20259 1.67312 0
M  V30 2348 H 212.386 0.775678 0.286796 0
M  V30 2349 H 214.932 1.68855 -0.169168 0
M  V30 2350 H 213.704 3.91257 -0.0581149 0
M  V30 2351 H 213.327 3.62532 1.63268 0
M  V30 2352 N 214.325 -0.140222 1.56975 0
M  V30 2353 C 215.571 -0.852949 1.83991 0
M  V30 2354 C 215.904 -1.80512 0.716187 0
M  V30 2355 O 215.179 -1.92479 -0.279681 0
M  V30 2356 C 215.462 -1.6215 3.21527 0
M  V30 2357 C 215.315 -0.690363 4.4447 0
M  V30 2358 C 216.634 -2.58247 3.56366 0
M  V30 2359 H 213.753 -0.308634 0.669264 0
M  V30 2360 H 216.395 -0.117898 1.89634 0
M  V30 2361 H 214.545 -2.24812 3.16847 0
M  V30 2362 H 216.217 -0.0742264 4.6124 0
M  V30 2363 H 214.46 -0.000396433 4.338 0
M  V30 2364 H 215.131 -1.2643 5.37326 0
M  V30 2365 H 217.607 -2.05701 3.61699 0
M  V30 2366 H 216.483 -3.09067 4.53617 0
M  V30 2367 H 216.744 -3.39923 2.82674 0
M  V30 2368 N 215.803 -1.52179 -0.40978 0
M  V30 2369 C 216.735 -1.71703 -1.51825 0
M  V30 2370 C 217.748 -0.597445 -1.51441 0
M  V30 2371 O 218.937 -0.872582 -1.55719 0
M  V30 2372 C 216.037 -1.74171 -2.90719 0
M  V30 2373 C 215.21 -3.03156 -3.15302 0
M  V30 2374 C 214.269 -2.97445 -4.34065 0
M  V30 2375 O 213.295 -3.71352 -4.31377 0
M  V30 2376 N 214.497 -2.15191 -5.39141 0
M  V30 2377 H 217.262 -2.67334 -1.35472 0
M  V30 2378 H 214.823 -1.50409 -0.599069 0
M  V30 2379 H 216.815 -1.67884 -3.68235 0
M  V30 2380 H 215.385 -0.860166 -3.00533 0
M  V30 2381 H 214.605 -3.23097 -2.25836 0
M  V30 2382 H 215.893 -3.88484 -3.28569 0
M  V30 2383 H 215.291 -1.54573 -5.44173 0
M  V30 2384 H 213.848 -2.1476 -6.15403 0
M  V30 2385 N 217.281 0.66697 -1.42791 0
M  V30 2386 C 218.244 1.76211 -1.46568 0
M  V30 2387 C 219.244 1.56896 -0.352196 0
M  V30 2388 O 220.434 1.63044 -0.613364 0
M  V30 2389 C 217.566 3.14935 -1.30494 0
M  V30 2390 H 218.759 1.74247 -2.44086 0
M  V30 2391 H 216.312 0.877342 -1.29354 0
M  V30 2392 H 217.047 3.2252 -0.339301 0
M  V30 2393 H 216.832 3.30359 -2.11199 0
M  V30 2394 H 218.322 3.94821 -1.36038 0
M  V30 2395 N 218.759 1.29093 0.90403 0
M  V30 2396 C 219.987 1.19689 1.68766 0
M  V30 2397 C 220.402 -0.243113 1.87228 0
M  V30 2398 O 219.759 -1.16326 1.40621 0
M  V30 2399 C 219.81 1.90144 3.07453 0
M  V30 2400 O 219.531 3.2852 2.89838 0
M  V30 2401 C 221.032 1.87162 4.01852 0
M  V30 2402 H 218.252 0.415035 0.527244 0
M  V30 2403 H 220.796 1.7039 1.13082 0
M  V30 2404 H 218.951 1.43289 3.59926 0
M  V30 2405 H 219.365 3.63944 3.77684 0
M  V30 2406 H 220.839 2.41032 4.96596 0
M  V30 2407 H 221.316 0.84617 4.30972 0
M  V30 2408 H 221.922 2.33741 3.5531 0
M  V30 2409 N 220.237 -1.11381 1.11499 0
M  V30 2410 C 221.184 -2.17439 0.773887 0
M  V30 2411 C 222.154 -1.64132 -0.254899 0
M  V30 2412 O 223.339 -1.90345 -0.13168 0
M  V30 2413 C 220.479 -3.44373 0.223917 0
M  V30 2414 C 219.592 -4.1168 1.30934 0
M  V30 2415 C 218.727 -5.263 0.71984 0
M  V30 2416 C 217.766 -5.85493 1.78507 0
M  V30 2417 N 216.903 -6.91507 1.21502 0
M  V30 2418 H 221.743 -2.45962 1.68246 0
M  V30 2419 H 219.28 -1.20744 0.840191 0
M  V30 2420 H 221.238 -4.17047 -0.112921 0
M  V30 2421 H 219.868 -3.16232 -0.647851 0
M  V30 2422 H 218.92 -3.37073 1.76312 0
M  V30 2423 H 220.232 -4.51729 2.11524 0
M  V30 2424 H 219.386 -6.05785 0.333094 0
M  V30 2425 H 218.125 -4.87559 -0.117377 0
M  V30 2426 H 217.13 -5.04686 2.18111 0
M  V30 2427 H 218.355 -6.26301 2.62533 0
M  V30 2428 H 216.301 -6.54783 0.399455 0
M  V30 2429 H 216.218 -7.30214 1.95763 0
M  V30 2430 H 217.486 -7.74795 0.855181 0
M  V30 2431 N 221.715 -0.905404 -1.28997 0
M  V30 2432 C 223.131 -0.60233 -1.47798 0
M  V30 2433 C 223.331 0.854645 -1.82478 0
M  V30 2434 O 222.387 1.63439 -1.92468 0
M  V30 2435 C 223.7 -1.53306 -2.58685 0
M  V30 2436 C 225.248 -1.53887 -2.72558 0
M  V30 2437 C 225.723 -2.45602 -3.86579 0
M  V30 2438 N 227.214 -2.43681 -3.93921 0
M  V30 2439 C 227.949 -3.11347 -4.81509 0
M  V30 2440 N 227.445 -3.88313 -5.73746 0
M  V30 2441 N 229.238 -3.00476 -4.75048 0
M  V30 2442 H 221.389 -1.84765 -1.04764 0
M  V30 2443 H 223.652 -0.792025 -0.520961 0
M  V30 2444 H 223.358 -2.57141 -2.39941 0
M  V30 2445 H 223.232 -1.25787 -3.55609 0
M  V30 2446 H 225.619 -0.507941 -2.90696 0
M  V30 2447 H 225.7 -1.85447 -1.76191 0
M  V30 2448 H 225.344 -3.48792 -3.69197 0
M  V30 2449 H 225.274 -2.11349 -4.82327 0
M  V30 2450 H 227.765 -1.87767 -3.27951 0
M  V30 2451 H 228.078 -4.36985 -6.37389 0
M  V30 2452 H 226.423 -3.92419 -5.73614 0
M  V30 2453 H 229.614 -2.39858 -4.01977 0
M  V30 2454 H 229.787 -3.53485 -5.43095 0
M  V30 2455 N 223.193 1.4272 -0.668489 0
M  V30 2456 C 224.44 2.01624 -0.18814 0
M  V30 2457 C 224.768 1.5282 1.20317 0
M  V30 2458 O 224.023 0.718323 1.8204 0
M  V30 2459 C 224.322 3.57021 -0.164499 0
M  V30 2460 C 223.988 4.25232 -1.49962 0
M  V30 2461 C 222.65 4.4358 -1.8652 0
M  V30 2462 C 225.002 4.63727 -2.37921 0
M  V30 2463 C 222.33 4.97694 -3.10674 0
M  V30 2464 C 224.682 5.19218 -3.6138 0
M  V30 2465 C 223.346 5.3578 -3.98115 0
M  V30 2466 H 222.616 0.737795 -0.0688454 0
M  V30 2467 H 225.263 1.70991 -0.862225 0
M  V30 2468 H 223.568 3.87285 0.593079 0
M  V30 2469 H 225.265 4.00372 0.224271 0
M  V30 2470 H 221.855 4.11306 -1.20522 0
M  V30 2471 H 226.039 4.4923 -2.10964 0
M  V30 2472 H 221.295 5.08702 -3.39164 0
M  V30 2473 H 225.469 5.4799 -4.29743 0
M  V30 2474 H 223.096 5.77475 -4.94395 0
M  V30 2475 N 224.671 0.411399 1.52136 0
M  V30 2476 C 225.948 -0.222308 1.94333 0
M  V30 2477 C 226.328 -1.6242 1.34844 0
M  V30 2478 O 225.676 -2.22384 0.525145 0
M  V30 2479 C 225.886 -0.226345 3.48265 0
M  V30 2480 C 227.234 -0.444592 4.22266 0
M  V30 2481 O 228.258 -0.305602 3.54887 0
M  V30 2482 O 227.117 -0.718749 5.41753 0
M  V30 2483 H 224.211 -0.143907 0.814383 0
M  V30 2484 H 226.757 0.467506 1.63133 0
M  V30 2485 H 225.529 0.75475 3.83952 0
M  V30 2486 H 225.152 -0.960163 3.85832 0
M  V30 2487 N 226.149 -1.5696 0.141893 0
M  V30 2488 C 227.079 -2.19516 -0.795936 0
M  V30 2489 C 228.06 -1.14187 -1.26077 0
M  V30 2490 O 229.245 -1.42511 -1.31925 0
M  V30 2491 C 226.375 -2.81272 -2.03723 0
M  V30 2492 C 225.329 -3.92384 -1.70936 0
M  V30 2493 C 224.655 -4.41052 -3.02287 0
M  V30 2494 C 225.955 -5.13403 -0.959954 0
M  V30 2495 H 227.649 -2.98138 -0.274596 0
M  V30 2496 H 225.195 -1.43406 -0.130636 0
M  V30 2497 H 227.148 -3.237 -2.69808 0
M  V30 2498 H 225.872 -1.99973 -2.58221 0
M  V30 2499 H 224.531 -3.50566 -1.07232 0
M  V30 2500 H 224.179 -3.56582 -3.54765 0
M  V30 2501 H 223.879 -5.15993 -2.81114 0
M  V30 2502 H 225.403 -4.86146 -3.69451 0
M  V30 2503 H 226.817 -5.52706 -1.52279 0
M  V30 2504 H 225.214 -5.94073 -0.848357 0
M  V30 2505 H 226.284 -4.84875 0.0492434 0
M  V30 2506 N 227.627 0.131896 -1.57047 0
M  V30 2507 C 228.557 1.16384 -2.02428 0
M  V30 2508 C 229.538 1.43936 -0.90644 0
M  V30 2509 O 230.723 1.54599 -1.17528 0
M  V30 2510 C 227.853 2.49328 -2.4177 0
M  V30 2511 C 226.807 2.36266 -3.56879 0
M  V30 2512 C 226.133 3.74057 -3.8208 0
M  V30 2513 C 227.433 1.834 -4.89042 0
M  V30 2514 H 229.127 0.786433 -2.88887 0
M  V30 2515 H 226.673 0.376855 -1.38981 0
M  V30 2516 H 228.626 3.21759 -2.7212 0
M  V30 2517 H 227.35 2.88934 -1.52266 0
M  V30 2518 H 226.009 1.66286 -3.26718 0
M  V30 2519 H 225.657 4.11125 -2.89803 0
M  V30 2520 H 225.357 3.66174 -4.59554 0
M  V30 2521 H 226.881 4.48012 -4.1487 0
M  V30 2522 H 228.295 2.45636 -5.18011 0
M  V30 2523 H 226.692 1.8637 -5.70426 0
M  V30 2524 H 227.762 0.790662 -4.7841 0
M  V30 2525 N 229.106 1.52395 0.401703 0
M  V30 2526 C 230.036 1.79231 1.49661 0
M  V30 2527 C 231.017 0.643654 1.57452 0
M  V30 2528 O 232.202 0.889989 1.72606 0
M  V30 2529 C 229.332 1.94971 2.87409 0
M  V30 2530 C 228.286 3.10604 2.94465 0
M  V30 2531 C 227.612 3.11577 4.34538 0
M  V30 2532 C 228.912 4.49921 2.6527 0
M  V30 2533 H 230.606 2.70917 1.27454 0
M  V30 2534 H 228.152 1.30362 0.6117 0
M  V30 2535 H 230.105 2.12328 3.63999 0
M  V30 2536 H 228.829 0.999632 3.10926 0
M  V30 2537 H 227.488 2.93009 2.20321 0
M  V30 2538 H 227.136 2.14277 4.55076 0
M  V30 2539 H 226.836 3.89247 4.40183 0
M  V30 2540 H 228.36 3.31073 5.13053 0
M  V30 2541 H 229.774 4.67683 3.31581 0
M  V30 2542 H 228.171 5.29564 2.82281 0
M  V30 2543 H 229.241 4.57507 1.60671 0
M  V30 2544 N 230.584 -0.659388 1.43143 0
M  V30 2545 C 231.861 -1.41627 1.34912 0
M  V30 2546 C 232.241 -2.11099 -0.00607785 0
M  V30 2547 O 231.589 -2.04353 -1.02236 0
M  V30 2548 C 231.799 -2.40604 2.52805 0
M  V30 2549 C 233.147 -3.04789 2.95616 0
M  V30 2550 O 234.171 -2.50932 2.52807 0
M  V30 2551 O 233.03 -4.02421 3.69756 0
M  V30 2552 H 230.124 -0.63246 0.532844 0
M  V30 2553 H 232.67 -0.686814 1.5518 0
M  V30 2554 H 231.442 -1.88174 3.43083 0
M  V30 2555 H 231.065 -3.21009 2.34604 0
M  V30 2556 N 232.062 -1.29571 -0.897171 0
M  V30 2557 C 233.31 -1.17456 -1.64464 0
M  V30 2558 C 233.631 0.273698 -1.9307 0
M  V30 2559 O 232.901 1.18684 -1.55855 0
M  V30 2560 H 231.481 -0.431706 -0.609622 0
M  V30 2561 H 234.143 -1.62531 -1.07562 0
M  V30 2562 H 233.239 -1.72648 -2.59998 0
M  V30 2563 N 233.54 1.10788 -1.12088 0
M  V30 2564 C 234.472 2.16816 -0.743213 0
M  V30 2565 C 235.485 1.6119 0.228412 0
M  V30 2566 O 236.674 1.78497 0.0102931 0
M  V30 2567 C 233.774 3.38809 -0.0787313 0
M  V30 2568 C 232.947 4.23885 -1.0789 0
M  V30 2569 C 232.006 5.24334 -0.442713 0
M  V30 2570 O 231.032 5.58497 -1.09864 0
M  V30 2571 N 232.234 5.75079 0.791457 0
M  V30 2572 H 234.999 2.49825 -1.65552 0
M  V30 2573 H 232.56 1.26373 -1.012 0
M  V30 2574 H 234.552 4.03107 0.358766 0
M  V30 2575 H 233.122 3.03805 0.736275 0
M  V30 2576 H 232.342 3.55939 -1.69414 0
M  V30 2577 H 233.63 4.77562 -1.75533 0
M  V30 2578 H 233.028 5.49517 1.3434 0
M  V30 2579 H 231.585 6.4118 1.17183 0
M  V30 2580 N 235.018 0.912232 1.28515 0
M  V30 2581 C 236.265 0.544599 1.95039 0
M  V30 2582 C 236.593 -0.911435 1.71823 0
M  V30 2583 O 235.848 -1.66317 1.03137 0
M  V30 2584 C 236.147 0.798392 3.48368 0
M  V30 2585 C 235.813 2.23374 3.91682 0
M  V30 2586 C 234.475 2.62617 4.03219 0
M  V30 2587 C 236.827 3.16786 4.13879 0
M  V30 2588 C 234.155 3.94429 4.3433 0
M  V30 2589 C 236.507 4.48161 4.46469 0
M  V30 2590 C 235.171 4.8726 4.56217 0
M  V30 2591 H 234.441 0.199283 0.7137 0
M  V30 2592 H 237.088 1.15327 1.52879 0
M  V30 2593 H 235.393 0.106908 3.91654 0
M  V30 2594 H 237.09 0.493141 3.97956 0
M  V30 2595 H 233.68 1.91922 3.83228 0
M  V30 2596 H 237.864 2.87677 4.0442 0
M  V30 2597 H 233.12 4.24426 4.40082 0
M  V30 2598 H 237.294 5.20559 4.62592 0
M  V30 2599 H 234.921 5.89431 4.80078 0
M  V30 2600 N 236.496 -1.42363 0.676048 0
M  V30 2601 C 237.443 -2.308 -0.00150904 0
M  V30 2602 C 238.413 -1.46032 -0.791444 0
M  V30 2603 O 239.598 -1.74861 -0.76344 0
M  V30 2604 C 236.738 -3.31883 -0.945919 0
M  V30 2605 C 235.851 -4.31741 -0.149675 0
M  V30 2606 C 234.986 -5.19898 -1.08995 0
M  V30 2607 C 234.025 -6.11434 -0.285465 0
M  V30 2608 N 233.162 -6.92138 -1.17851 0
M  V30 2609 H 238.002 -2.88187 0.758455 0
M  V30 2610 H 235.539 -1.41952 0.38576 0
M  V30 2611 H 237.497 -3.89019 -1.50731 0
M  V30 2612 H 236.127 -2.76093 -1.6725 0
M  V30 2613 H 235.179 -3.76713 0.528359 0
M  V30 2614 H 236.491 -4.96534 0.474866 0
M  V30 2615 H 235.645 -5.81772 -1.72123 0
M  V30 2616 H 234.384 -4.55284 -1.74837 0
M  V30 2617 H 233.389 -5.48627 0.359018 0
M  V30 2618 H 234.614 -6.78097 0.368883 0
M  V30 2619 H 232.56 -6.30152 -1.82332 0
M  V30 2620 H 232.477 -7.53542 -0.609082 0
M  V30 2621 H 233.745 -7.58499 -1.79722 0
M  V30 2622 N 237.974 -0.419461 -1.51915 0
M  V30 2623 C 239.223 0.154346 -2.01109 0
M  V30 2624 C 239.536 1.45338 -1.30905 0
M  V30 2625 O 240.742 2.10906 -1.7097 0
M  V30 2626 C 239.198 0.325615 -3.58424 0
M  V30 2627 C 238.806 -0.961934 -4.37551 0
M  V30 2628 C 240.55 0.854155 -4.15818 0
M  V30 2629 C 238.457 -0.757287 -5.86531 0
M  V30 2630 H 237.387 0.0614563 -0.751491 0
M  V30 2631 H 240.038 -0.54649 -1.75173 0
M  V30 2632 H 238.42 1.08903 -3.80731 0
M  V30 2633 H 239.594 -1.7323 -4.26999 0
M  V30 2634 H 237.909 -1.41766 -3.91524 0
M  V30 2635 H 240.506 1.02346 -5.24814 0
M  V30 2636 H 240.849 1.83172 -3.73837 0
M  V30 2637 H 241.382 0.149528 -3.97519 0
M  V30 2638 H 238.121 -1.70671 -6.32892 0
M  V30 2639 H 237.641 -0.0264061 -5.99794 0
M  V30 2640 H 239.32 -0.403482 -6.45741 0
M  V30 2641 N 239.452 1.56882 -0.150215 0
M  V30 2642 C 240.677 2.01027 0.510184 0
M  V30 2643 C 241.102 1.02966 1.57415 0
M  V30 2644 O 240.46 0.00590158 1.81299 0
M  V30 2645 C 240.508 3.43899 1.08472 0
M  V30 2646 O 239.612 3.4885 2.19948 0
M  V30 2647 H 238.953 0.652233 0.124451 0
M  V30 2648 H 241.483 2.03093 -0.247894 0
M  V30 2649 H 241.493 3.82766 1.41259 0
M  V30 2650 H 240.168 4.14776 0.305582 0
M  V30 2651 H 238.745 3.21827 1.88366 0
M  V30 2652 N 240.93 -0.123565 1.57115 0
M  V30 2653 C 242.178 -0.83051 1.84247 0
M  V30 2654 C 242.499 -1.80629 0.73471 0
M  V30 2655 O 241.769 -1.94403 -0.241688 0
M  V30 2656 H 240.349 -0.309694 0.679778 0
M  V30 2657 H 243.011 -0.111976 1.94578 0
M  V30 2658 H 242.107 -1.37852 2.80006 0
M  V30 2659 N 242.408 -1.52605 -0.393616 0
M  V30 2660 C 243.636 -1.71294 -1.16043 0
M  V30 2661 C 244.051 -0.429259 -1.83855 0
M  V30 2662 O 243.408 0.595921 -1.72496 0
M  V30 2663 C 243.459 -2.8593 -2.21193 0
M  V30 2664 O 243.18 -4.09329 -1.56146 0
M  V30 2665 C 244.681 -3.16259 -3.10636 0
M  V30 2666 H 241.901 -0.573641 -0.348104 0
M  V30 2667 H 244.445 -1.99234 -0.461092 0
M  V30 2668 H 242.6 -2.60465 -2.86769 0
M  V30 2669 H 243.014 -4.73323 -2.25978 0
M  V30 2670 H 244.488 -3.99946 -3.80456 0
M  V30 2671 H 244.965 -2.3045 -3.73884 0
M  V30 2672 H 245.571 -3.43547 -2.50711 0
M  V30 2673 N 243.887 0.651787 -1.4349 0
M  V30 2674 C 244.85 1.74647 -1.48429 0
M  V30 2675 C 245.85 1.56513 -0.368817 0
M  V30 2676 O 247.04 1.62385 -0.630623 0
M  V30 2677 C 244.172 3.13533 -1.33827 0
M  V30 2678 H 245.365 1.71649 -2.4592 0
M  V30 2679 H 242.918 0.863573 -1.30277 0
M  V30 2680 H 243.653 3.22142 -0.37349 0
M  V30 2681 H 243.438 3.28101 -2.14691 0
M  V30 2682 H 244.928 3.93356 -1.40218 0
M  V30 2683 N 245.365 1.30045 0.890287 0
M  V30 2684 C 246.59 1.21598 1.68014 0
M  V30 2685 C 247.015 -0.218678 1.86825 0
M  V30 2686 O 246.373 -1.15756 1.39536 0
M  V30 2687 C 246.421 1.94434 3.03691 0
M  V30 2688 O 245.525 1.2678 3.92429 0
M  V30 2689 H 244.866 0.420856 0.513592 0
M  V30 2690 H 247.396 1.71775 1.11151 0
M  V30 2691 H 247.406 2.03251 3.5377 0
M  V30 2692 H 246.081 2.98777 2.89318 0
M  V30 2693 H 244.658 1.26282 3.50866 0
M  V30 2694 N 246.843 -1.10192 1.12674 0
M  V30 2695 C 247.79 -2.16606 0.796906 0
M  V30 2696 C 248.76 -1.64394 -0.237476 0
M  V30 2697 O 249.945 -1.90474 -0.111484 0
M  V30 2698 C 247.085 -3.44116 0.26043 0
M  V30 2699 C 246.198 -4.10268 1.35293 0
M  V30 2700 C 245.333 -5.25507 0.775621 0
M  V30 2701 C 244.372 -5.83567 1.84706 0
M  V30 2702 N 243.509 -6.90179 1.28829 0
M  V30 2703 H 248.349 -2.44163 1.70846 0
M  V30 2704 H 245.886 -1.19846 0.85295 0
M  V30 2705 H 247.844 -4.17143 -0.0686814 0
M  V30 2706 H 246.474 -3.16901 -0.614274 0
M  V30 2707 H 245.526 -3.35184 1.79877 0
M  V30 2708 H 246.838 -4.4946 2.16303 0
M  V30 2709 H 245.992 -6.05398 0.397327 0
M  V30 2710 H 244.731 -4.87656 -0.0656581 0
M  V30 2711 H 243.736 -5.02344 2.23452 0
M  V30 2712 H 244.961 -6.23482 2.69161 0
M  V30 2713 H 242.907 -6.54322 0.468881 0
M  V30 2714 H 242.824 -7.28097 2.03497 0
M  V30 2715 H 244.092 -7.73844 0.937311 0
M  V30 2716 N 248.321 -0.919034 -1.28029 0
M  V30 2717 C 249.57 -0.550802 -1.94034 0
M  V30 2718 C 249.883 0.910877 -1.73096 0
M  V30 2719 O 251.089 1.3875 -2.33368 0
M  V30 2720 C 249.545 -0.934249 -3.47563 0
M  V30 2721 C 249.153 -2.41602 -3.7727 0
M  V30 2722 C 250.897 -0.636854 -4.19696 0
M  V30 2723 C 248.804 -2.73932 -5.24133 0
M  V30 2724 H 247.734 -0.202273 -0.726362 0
M  V30 2725 H 250.385 -1.11867 -1.45458 0
M  V30 2726 H 248.767 -0.295115 -3.94899 0
M  V30 2727 H 249.941 -3.10233 -3.40723 0
M  V30 2728 H 248.256 -2.68441 -3.18321 0
M  V30 2729 H 250.853 -0.855005 -5.2782 0
M  V30 2730 H 251.196 0.425575 -4.14119 0
M  V30 2731 H 251.729 -1.23469 -3.78154 0
M  V30 2732 H 248.468 -3.79049 -5.34792 0
M  V30 2733 H 247.988 -2.09942 -5.61858 0
M  V30 2734 H 249.667 -2.61215 -5.91925 0
M  V30 2735 N 249.799 1.42003 -0.683588 0
M  V30 2736 C 251.047 2.01015 -0.209101 0
M  V30 2737 C 251.368 1.54365 1.19149 0
M  V30 2738 O 250.638 0.769083 1.80172 0
M  V30 2739 H 249.218 0.743294 -0.074315 0
M  V30 2740 H 251.88 1.73798 -0.882066 0
M  V30 2741 H 250.976 3.11343 -0.2172 0
M  V30 2742 N 251.277 0.427512 1.51691 0
M  V30 2743 C 252.693 0.0792977 1.59403 0
M  V30 2744 C 252.893 -1.41035 1.43914 0
M  V30 2745 O 251.949 -2.17922 1.27539 0
M  V30 2746 C 253.262 0.590636 2.94842 0
M  V30 2747 C 254.81 0.550215 3.08126 0
M  V30 2748 C 255.285 1.03836 4.46074 0
M  V30 2749 N 256.776 0.995943 4.52366 0
M  V30 2750 C 257.511 1.34463 5.57411 0
M  V30 2751 N 257.007 1.76569 6.69922 0
M  V30 2752 N 258.8 1.26343 5.47717 0
M  V30 2753 H 250.951 1.39687 1.60004 0
M  V30 2754 H 253.214 0.575003 0.753708 0
M  V30 2755 H 252.92 1.63251 3.11516 0
M  V30 2756 H 252.794 0.0102061 3.77199 0
M  V30 2757 H 255.181 -0.482654 2.91126 0
M  V30 2758 H 255.262 1.16693 2.27632 0
M  V30 2759 H 254.906 2.06965 4.63819 0
M  V30 2760 H 254.836 0.398286 5.25092 0
M  V30 2761 H 257.327 0.68661 3.7161 0
M  V30 2762 H 257.64 2.01438 7.46085 0
M  V30 2763 H 255.985 1.80488 6.71155 0
M  V30 2764 H 259.176 0.933209 4.58703 0
M  V30 2765 H 259.349 1.53846 6.29472 0
M  V30 2766 N 252.755 -1.56801 0.158532 0
M  V30 2767 C 253.983 -2.00859 -0.496303 0
M  V30 2768 C 254.398 -1.03871 -1.57659 0
M  V30 2769 O 253.755 -0.0375165 -1.82461 0
M  V30 2770 C 253.806 -3.4479 -1.08638 0
M  V30 2771 O 253.527 -4.38072 -0.0492322 0
M  V30 2772 C 255.028 -4.04185 -1.8207 0
M  V30 2773 H 252.248 -0.65864 -0.128199 0
M  V30 2774 H 254.792 -2.02885 0.256506 0
M  V30 2775 H 252.947 -3.43579 -1.78975 0
M  V30 2776 H 253.361 -5.2227 -0.483102 0
M  V30 2777 H 254.835 -5.06857 -2.18633 0
M  V30 2778 H 255.312 -3.45549 -2.71095 0
M  V30 2779 H 255.918 -4.0906 -1.16405 0
M  V30 2780 N 254.233 0.115231 -1.57178 0
M  V30 2781 C 255.461 0.836437 -1.89239 0
M  V30 2782 C 255.876 1.73256 -0.750175 0
M  V30 2783 O 255.233 1.80357 0.278832 0
M  V30 2784 C 255.284 1.66671 -3.20785 0
M  V30 2785 O 255.005 0.806652 -4.3061 0
M  V30 2786 C 256.506 2.49274 -3.66575 0
M  V30 2787 H 253.726 0.240253 -0.626514 0
M  V30 2788 H 256.27 0.0984932 -2.04263 0
M  V30 2789 H 254.425 2.35737 -3.0742 0
M  V30 2790 H 254.839 1.37969 -5.06028 0
M  V30 2791 H 256.313 3.03055 -4.6137 0
M  V30 2792 H 256.79 3.26807 -2.93417 0
M  V30 2793 H 257.396 1.85443 -3.82741 0
M  V30 2794 N 255.711 1.52812 0.385517 0
M  V30 2795 C 256.674 1.77188 1.45386 0
M  V30 2796 C 257.674 0.641953 1.4743 0
M  V30 2797 O 258.864 0.910033 1.4854 0
M  V30 2798 C 255.996 1.87582 2.8465 0
M  V30 2799 H 257.189 2.72583 1.25054 0
M  V30 2800 H 254.742 1.43586 0.617467 0
M  V30 2801 H 255.477 0.941849 3.10322 0
M  V30 2802 H 255.262 2.69748 2.84567 0
M  V30 2803 H 256.752 2.08102 3.62054 0
M  V30 2804 N 257.189 -0.644168 1.43834 0
M  V30 2805 C 258.419 -1.42939 1.49171 0
M  V30 2806 C 258.827 -1.88874 0.111048 0
M  V30 2807 O 258.17 -1.60656 -0.8908 0
M  V30 2808 C 258.232 -2.69151 2.38324 0
M  V30 2809 C 257.896 -2.45097 3.85715 0
M  V30 2810 C 258.893 -2.07747 4.76589 0
M  V30 2811 C 256.578 -2.59141 4.30292 0
M  V30 2812 C 258.572 -1.8475 6.10038 0
M  V30 2813 C 256.259 -2.35759 5.63792 0
M  V30 2814 C 257.257 -1.9862 6.53482 0
M  V30 2815 O 256.945 -1.75489 7.84512 0
M  V30 2816 H 256.677 -0.445271 0.508635 0
M  V30 2817 H 259.231 -0.79621 1.8934 0
M  V30 2818 H 257.461 -3.3506 1.93058 0
M  V30 2819 H 259.15 -3.31123 2.3476 0
M  V30 2820 H 259.916 -1.96465 4.43426 0
M  V30 2821 H 255.795 -2.87022 3.60749 0
M  V30 2822 H 259.339 -1.55686 6.80006 0
M  V30 2823 H 255.236 -2.46646 5.9652 0
M  V30 2824 H 256.004 -1.89841 7.9618 0
M  V30 2825 N 258.668 -1.30515 -0.883378 0
M  V30 2826 C 259.618 -1.13641 -1.9766 0
M  V30 2827 C 260.602 -0.0511314 -1.60819 0
M  V30 2828 O 261.794 -0.274623 -1.74857 0
M  V30 2829 C 258.923 -0.831976 -3.33066 0
M  V30 2830 C 258.009 -1.95759 -3.76217 0
M  V30 2831 N 258.4 -3.20313 -3.9145 0
M  V30 2832 C 256.698 -1.85431 -4.05625 0
M  V30 2833 C 257.399 -3.93856 -4.2808 0
M  V30 2834 N 256.375 -3.21919 -4.38029 0
M  V30 2835 H 260.177 -2.08106 -2.07531 0
M  V30 2836 H 257.691 -1.21877 -1.0733 0
M  V30 2837 H 259.688 -0.692102 -4.11115 0
M  V30 2838 H 258.348 0.104588 -3.24532 0
M  V30 2839 H 259.359 -3.55583 -3.76538 0
M  V30 2840 H 256.036 -0.991531 -4.05555 0
M  V30 2841 H 257.426 -5.01125 -4.47575 0
M  V30 2842 N 260.146 1.09593 -1.13257 0
M  V30 2843 C 261.096 2.14345 -0.777179 0
M  V30 2844 C 262.08 1.59277 0.227966 0
M  V30 2845 O 263.272 1.76971 0.0321413 0
M  V30 2846 C 260.401 3.42439 -0.242991 0
M  V30 2847 C 259.487 4.04419 -1.27694 0
M  V30 2848 N 259.878 4.40979 -2.47732 0
M  V30 2849 C 258.176 4.31596 -1.12432 0
M  V30 2850 C 258.877 4.89784 -3.13826 0
M  V30 2851 N 257.853 4.87133 -2.41252 0
M  V30 2852 H 261.655 2.40415 -1.69049 0
M  V30 2853 H 259.169 1.26803 -1.01463 0
M  V30 2854 H 261.166 4.16889 0.0298496 0
M  V30 2855 H 259.826 3.17824 0.66467 0
M  V30 2856 H 260.837 4.32396 -2.85051 0
M  V30 2857 H 257.514 4.16595 -0.274684 0
M  V30 2858 H 258.904 5.2755 -4.16102 0
M  V30 2859 N 261.624 0.925811 1.2754 0
M  V30 2860 C 262.864 0.572521 1.96218 0
M  V30 2861 C 263.228 -0.869719 1.71172 0
M  V30 2862 O 264.429 -1.33119 2.33523 0
M  V30 2863 C 262.7 0.887325 3.4621 0
M  V30 2864 S 264.259 0.642266 4.34074 0
M  V30 2865 H 261.077 0.211403 0.678845 0
M  V30 2866 H 263.679 1.19384 1.54815 0
M  V30 2867 H 262.383 1.93469 3.61936 0
M  V30 2868 H 261.914 0.255123 3.92572 0
M  V30 2869 H 263.929 -0.500822 4.93666 0
M  V30 2870 N 263.102 -1.41638 0.69111 0
M  V30 2871 C 264.33 -2.05628 0.22909 0
M  V30 2872 C 264.745 -1.51992 -1.11999 0
M  V30 2873 O 264.102 -0.666322 -1.69901 0
M  V30 2874 C 264.153 -3.61084 0.173283 0
M  V30 2875 O 263.874 -4.12735 1.46907 0
M  V30 2876 C 265.375 -4.42213 -0.310266 0
M  V30 2877 H 262.595 -0.662327 0.107534 0
M  V30 2878 H 265.139 -1.81489 0.942438 0
M  V30 2879 H 263.294 -3.84278 -0.490858 0
M  V30 2880 H 263.708 -5.06743 1.35322 0
M  V30 2881 H 265.182 -5.51194 -0.298196 0
M  V30 2882 H 265.659 -4.1799 -1.34838 0
M  V30 2883 H 266.265 -4.24074 0.322716 0
M  V30 2884 N 264.58 -0.43555 -1.51462 0
M  V30 2885 C 265.51 0.367376 -2.30592 0
M  V30 2886 C 266.491 1.02263 -1.35928 0
M  V30 2887 O 267.676 1.02661 -1.64847 0
M  V30 2888 C 264.806 1.46983 -3.14664 0
M  V30 2889 C 263.76 0.938161 -4.17591 0
M  V30 2890 C 263.086 2.13622 -4.90173 0
M  V30 2891 C 264.386 -0.0261621 -5.22293 0
M  V30 2892 H 266.08 -0.292969 -2.97963 0
M  V30 2893 H 263.626 -0.14234 -1.43295 0
M  V30 2894 H 265.579 2.03873 -3.688 0
M  V30 2895 H 264.303 2.15843 -2.4511 0
M  V30 2896 H 262.962 0.391481 -3.64504 0
M  V30 2897 H 262.61 2.81098 -4.17124 0
M  V30 2898 H 262.31 1.78688 -5.59772 0
M  V30 2899 H 263.834 2.7107 -5.47132 0
M  V30 2900 H 265.248 0.452384 -5.71512 0
M  V30 2901 H 263.645 -0.287992 -5.99409 0
M  V30 2902 H 264.715 -0.963391 -4.75233 0
M  V30 2903 N 266.058 1.56714 -0.166846 0
M  V30 2904 C 266.988 2.20754 0.760913 0
M  V30 2905 C 267.969 1.16178 1.24244 0
M  V30 2906 O 269.154 1.44592 1.29641 0
M  V30 2907 C 266.284 2.84478 1.99223 0
M  V30 2908 C 265.238 3.95053 1.64672 0
M  V30 2909 C 264.564 4.45805 2.95232 0
M  V30 2910 C 265.864 5.14865 0.878155 0
M  V30 2911 H 267.558 2.98537 0.22713 0
M  V30 2912 H 265.104 1.43596 0.107805 0
M  V30 2913 H 267.057 3.27951 2.64624 0
M  V30 2914 H 265.781 2.04056 2.55007 0
M  V30 2915 H 264.44 3.52228 1.01641 0
M  V30 2916 H 264.088 3.62181 3.49047 0
M  V30 2917 H 263.788 5.204 2.7287 0
M  V30 2918 H 265.312 4.91962 3.6167 0
M  V30 2919 H 266.726 5.55059 1.43466 0
M  V30 2920 H 265.123 5.95348 0.753738 0
M  V30 2921 H 266.193 4.84735 -0.126377 0
M  V30 2922 N 267.536 -0.106894 1.57237 0
M  V30 2923 C 268.776 -0.818277 1.87306 0
M  V30 2924 C 269.14 -1.76474 0.756371 0
M  V30 2925 O 270.341 -2.5186 0.939155 0
M  V30 2926 C 268.612 -1.53806 3.22612 0
M  V30 2927 S 270.171 -2.28935 3.74345 0
M  V30 2928 H 266.989 -0.272862 0.656557 0
M  V30 2929 H 269.591 -0.075988 1.95352 0
M  V30 2930 H 268.295 -0.834951 4.01817 0
M  V30 2931 H 267.826 -2.32049 3.17674 0
M  V30 2932 H 269.841 -3.54871 3.46815 0
M  V30 2933 N 269.014 -1.53014 -0.377408 0
M  V30 2934 C 270.239 -1.72818 -1.14668 0
M  V30 2935 C 270.664 -0.450725 -1.8262 0
M  V30 2936 O 270.022 0.59439 -1.7128 0
M  V30 2937 C 270.07 -2.88627 -2.16164 0
M  V30 2938 O 269.174 -2.56409 -3.22998 0
M  V30 2939 H 268.515 -0.574301 -0.333278 0
M  V30 2940 H 271.045 -1.99853 -0.438152 0
M  V30 2941 H 271.055 -3.14455 -2.59966 0
M  V30 2942 H 269.73 -3.81294 -1.66095 0
M  V30 2943 H 268.307 -2.4136 -2.84253 0
M  V30 2944 N 270.492 0.636531 -1.44174 0
M  V30 2945 C 271.72 1.42353 -1.50144 0
M  V30 2946 C 272.135 1.88389 -0.124575 0
M  V30 2947 O 271.492 1.6051 0.868489 0
M  V30 2948 C 271.543 2.64744 -2.46156 0
M  V30 2949 O 271.264 2.20629 -3.7849 0
M  V30 2950 C 272.765 3.57929 -2.61537 0
M  V30 2951 H 269.985 0.436752 -0.5094 0
M  V30 2952 H 272.529 0.778933 -1.89084 0
M  V30 2953 H 270.684 3.25307 -2.10366 0
M  V30 2954 H 271.098 2.99938 -4.30276 0
M  V30 2955 H 272.572 4.40428 -3.32757 0
M  V30 2956 H 273.049 4.06382 -1.66585 0
M  V30 2957 H 273.655 3.03238 -2.98206 0
M  V30 2958 N 271.97 1.30982 0.876444 0
M  V30 2959 C 273.247 1.10942 1.61094 0
M  V30 2960 C 273.627 -0.338223 2.08373 0
M  V30 2961 O 272.975 -1.33122 1.85717 0
M  V30 2962 C 273.185 2.11789 2.77392 0
M  V30 2963 C 274.533 2.43965 3.47514 0
M  V30 2964 O 275.557 2.10166 2.87591 0
M  V30 2965 O 274.416 3.01817 4.55597 0
M  V30 2966 H 271.51 0.42667 0.708436 0
M  V30 2967 H 274.056 1.42438 0.922474 0
M  V30 2968 H 272.828 3.09194 2.39823 0
M  V30 2969 H 272.451 1.81161 3.5393 0
M  V30 2970 N 273.449 -1.08991 1.13837 0
M  V30 2971 C 274.697 -1.80899 0.901098 0
M  V30 2972 C 275.018 -1.86356 -0.574134 0
M  V30 2973 O 274.288 -1.35235 -1.41733 0
M  V30 2974 H 272.868 -0.669966 0.330386 0
M  V30 2975 H 275.53 -1.318 1.43578 0
M  V30 2976 H 274.626 -2.83929 1.29578 0
M  V30 2977 N 274.927 -0.932562 -1.27047 0
M  V30 2978 C 276.155 -0.592031 -1.98249 0
M  V30 2979 C 276.57 0.831062 -1.69525 0
M  V30 2980 O 275.927 1.55299 -0.958561 0
M  V30 2981 C 275.978 -0.814279 -3.5221 0
M  V30 2982 O 275.699 -2.18139 -3.7993 0
M  V30 2983 C 277.2 -0.483121 -4.4066 0
M  V30 2984 H 274.42 -0.223896 -0.632544 0
M  V30 2985 H 276.964 -1.25091 -1.61779 0
M  V30 2986 H 275.119 -0.20213 -3.86872 0
M  V30 2987 H 275.533 -2.235 -4.74498 0
M  V30 2988 H 277.007 -0.689298 -5.47679 0
M  V30 2989 H 277.484 0.581546 -4.35333 0
M  V30 2990 H 278.09 -1.07362 -4.11526 0
M  V30 2991 N 276.405 1.4127 -0.698611 0
M  V30 2992 C 277.652 2.0118 -0.230865 0
M  V30 2993 C 277.98 1.55338 1.17049 0
M  V30 2994 O 277.235 0.756775 1.80475 0
M  V30 2995 C 277.534 3.56592 -0.240192 0
M  V30 2996 C 277.2 4.21955 -1.58948 0
M  V30 2997 C 275.862 4.39524 -1.95887 0
M  V30 2998 C 278.214 4.58576 -2.47704 0
M  V30 2999 C 275.542 4.90992 -3.2116 0
M  V30 3000 C 277.894 5.11435 -3.72313 0
M  V30 3001 C 276.558 5.27215 -4.0939 0
M  V30 3002 H 275.828 0.736169 -0.0844796 0
M  V30 3003 H 278.475 1.69124 -0.8983 0
M  V30 3004 H 276.78 3.88456 0.510797 0
M  V30 3005 H 278.477 4.00758 0.139296 0
M  V30 3006 H 275.067 4.08657 -1.29219 0
M  V30 3007 H 279.251 4.44654 -2.20445 0
M  V30 3008 H 274.507 5.01393 -3.49878 0
M  V30 3009 H 278.681 5.38752 -4.4127 0
M  V30 3010 H 276.308 5.66859 -5.06533 0
M  V30 3011 N 277.883 0.443576 1.51229 0
M  V30 3012 C 278.813 -0.355142 2.30783 0
M  V30 3013 C 279.794 -1.0154 1.36468 0
M  V30 3014 O 280.979 -1.01785 1.65389 0
M  V30 3015 C 278.109 -1.45312 3.15439 0
M  V30 3016 C 277.063 -0.916002 4.18083 0
M  V30 3017 C 276.389 -2.1102 4.91299 0
M  V30 3018 C 277.689 0.0538602 5.22272 0
M  V30 3019 H 279.383 0.308767 2.97804 0
M  V30 3020 H 276.929 0.149937 1.43217 0
M  V30 3021 H 278.882 -2.01914 3.69876 0
M  V30 3022 H 277.606 -2.14541 2.46252 0
M  V30 3023 H 276.265 -0.372145 3.64706 0
M  V30 3024 H 275.913 -2.78882 4.18609 0
M  V30 3025 H 275.613 -1.75717 5.60712 0
M  V30 3026 H 277.137 -2.68164 5.48562 0
M  V30 3027 H 278.551 -0.422069 5.71744 0
M  V30 3028 H 276.948 0.319776 5.99247 0
M  V30 3029 H 278.018 0.98858 4.74716 0
M  V30 3030 N 279.361 -1.56624 0.175154 0
M  V30 3031 C 280.586 -2.01813 -0.478137 0
M  V30 3032 C 281.011 -1.05457 -1.55757 0
M  V30 3033 O 280.369 -0.0347439 -1.81267 0
M  V30 3034 C 280.417 -3.45581 -1.02987 0
M  V30 3035 O 279.521 -3.52305 -2.14371 0
M  V30 3036 H 278.862 -0.65413 -0.114059 0
M  V30 3037 H 281.392 -2.02673 0.280173 0
M  V30 3038 H 281.402 -3.84965 -1.35151 0
M  V30 3039 H 280.077 -4.1521 -0.239556 0
M  V30 3040 H 278.654 -3.24783 -1.83222 0
M  V30 3041 N 280.839 0.0985539 -1.57292 0
M  V30 3042 C 282.064 0.820196 -1.90493 0
M  V30 3043 C 282.489 1.71658 -0.769094 0
M  V30 3044 O 281.847 1.79133 0.279495 0
M  V30 3045 C 281.895 1.61242 -3.22542 0
M  V30 3046 O 280.999 2.72108 -3.09888 0
M  V30 3047 H 280.34 0.225547 -0.62452 0
M  V30 3048 H 282.87 0.0748159 -2.04463 0
M  V30 3049 H 282.88 1.99737 -3.55766 0
M  V30 3050 H 281.555 0.954535 -4.04798 0
M  V30 3051 H 280.132 2.36667 -2.88172 0
M  V30 3052 N 282.317 1.53212 0.369288 0
M  V30 3053 C 283.247 1.82365 1.45826 0
M  V30 3054 C 284.228 0.676907 1.56051 0
M  V30 3055 O 285.413 0.926401 1.70679 0
M  V30 3056 C 282.543 2.01023 2.83208 0
M  V30 3057 C 281.497 3.1678 2.8781 0
M  V30 3058 C 280.823 3.20724 4.27832 0
M  V30 3059 C 282.123 4.55447 2.55667 0
M  V30 3060 H 283.817 2.73559 1.21678 0
M  V30 3061 H 281.363 1.3163 0.583911 0
M  V30 3062 H 283.316 2.20001 3.59413 0
M  V30 3063 H 282.04 1.06536 3.08736 0
M  V30 3064 H 280.699 2.97616 2.14056 0
M  V30 3065 H 280.347 2.23882 4.50429 0
M  V30 3066 H 280.047 3.98496 4.31827 0
M  V30 3067 H 281.571 3.41881 5.05915 0
M  V30 3068 H 282.985 4.74611 3.21586 0
M  V30 3069 H 281.382 5.35432 2.70984 0
M  V30 3070 H 282.452 4.60812 1.5093 0
M  V30 3071 N 283.795 -0.628877 1.44509 0
M  V30 3072 C 284.725 -1.75187 1.54376 0
M  V30 3073 C 285.706 -1.65411 0.396618 0
M  V30 3074 O 286.891 -1.84137 0.617031 0
M  V30 3075 C 284.021 -3.13725 1.48976 0
M  V30 3076 C 282.975 -3.38291 2.62189 0
M  V30 3077 C 282.301 -4.76883 2.41841 0
M  V30 3078 C 283.601 -3.30632 4.04326 0
M  V30 3079 H 285.295 -1.67187 2.48373 0
M  V30 3080 H 282.841 -0.802909 1.19538 0
M  V30 3081 H 284.794 -3.92064 1.54478 0
M  V30 3082 H 283.518 -3.22515 0.514961 0
M  V30 3083 H 282.177 -2.62334 2.56079 0
M  V30 3084 H 281.825 -4.82378 1.42548 0
M  V30 3085 H 281.525 -4.94278 3.17747 0
M  V30 3086 H 283.049 -5.57449 2.49165 0
M  V30 3087 H 284.463 -3.98873 4.11793 0
M  V30 3088 H 282.86 -3.59561 4.80454 0
M  V30 3089 H 283.93 -2.28404 4.27738 0
M  V30 3090 N 285.273 -1.31445 -0.869486 0
M  V30 3091 C 286.22 -1.19135 -1.97675 0
M  V30 3092 C 287.19 -0.0770266 -1.65921 0
M  V30 3093 O 288.375 -0.249972 -1.89155 0
M  V30 3094 C 285.515 -0.905149 -3.33018 0
M  V30 3095 C 284.628 -2.10285 -3.77365 0
M  V30 3096 C 283.763 -1.75339 -5.01427 0
M  V30 3097 C 282.802 -2.91515 -5.38224 0
M  V30 3098 N 281.939 -2.56762 -6.53466 0
M  V30 3099 H 286.779 -2.13853 -2.07535 0
M  V30 3100 H 284.316 -1.06379 -1.01597 0
M  V30 3101 H 286.274 -0.719765 -4.10944 0
M  V30 3102 H 284.904 0.00519624 -3.228 0
M  V30 3103 H 283.956 -2.39899 -2.95216 0
M  V30 3104 H 285.268 -2.97237 -4.00564 0
M  V30 3105 H 284.422 -1.53266 -5.87022 0
M  V30 3106 H 283.161 -0.855801 -4.80133 0
M  V30 3107 H 282.166 -3.14237 -4.51149 0
M  V30 3108 H 283.391 -3.81985 -5.61484 0
M  V30 3109 H 281.337 -1.69526 -6.33717 0
M  V30 3110 H 281.254 -3.37243 -6.76612 0
M  V30 3111 H 282.522 -2.38083 -7.42251 0
M  V30 3112 N 286.751 1.08385 -1.14413 0
M  V30 3113 C 287.976 1.85057 -0.936413 0
M  V30 3114 C 288.401 1.81055 0.509971 0
M  V30 3115 O 287.759 1.1958 1.36273 0
M  V30 3116 C 287.807 3.30505 -1.44217 0
M  V30 3117 O 286.911 4.07491 -0.634409 0
M  V30 3118 H 286.252 0.573425 -0.334784 0
M  V30 3119 H 288.782 1.36799 -1.52142 0
M  V30 3120 H 288.792 3.81348 -1.45043 0
M  V30 3121 H 287.467 3.32734 -2.49522 0
M  V30 3122 H 286.044 3.66368 -0.694902 0
M  V30 3123 N 288.23 0.939286 1.26551 0
M  V30 3124 C 289.641 0.628782 1.75793 0
M  V30 3125 C 289.992 -0.856046 1.7654 0
M  V30 3126 O 289.117 -1.66994 1.3763 0
M  V30 3127 C 289.712 1.13465 3.19235 0
M  V30 3128 C 288.271 0.874601 3.66098 0
M  V30 3129 C 287.418 1.28667 2.45642 0
M  V30 3130 H 290.369 1.1178 1.12654 0
M  V30 3131 H 290.39 0.487609 3.77363 0
M  V30 3132 H 289.902 2.21535 3.1866 0
M  V30 3133 H 288.003 -0.191793 3.72106 0
M  V30 3134 H 288.116 1.50028 4.55004 0
M  V30 3135 H 286.48 0.705109 2.44745 0
M  V30 3136 H 287.263 2.37625 2.47769 0
M  V30 3137 N 289.708 -1.40897 0.706093 0
M  V30 3138 C 290.938 -2.05075 0.250523 0
M  V30 3139 C 291.346 -1.53275 -1.10921 0
M  V30 3140 O 290.689 -0.680281 -1.7064 0
M  V30 3141 C 290.751 -3.59219 0.142178 0
M  V30 3142 C 290.415 -4.33864 1.43566 0
M  V30 3143 C 291.412 -4.62448 2.37566 0
M  V30 3144 C 289.097 -4.72946 1.69195 0
M  V30 3145 C 291.091 -5.29088 3.5545 0
M  V30 3146 C 288.778 -5.3932 2.87362 0
M  V30 3147 C 289.776 -5.6732 3.80312 0
M  V30 3148 O 289.464 -6.32325 4.96408 0
M  V30 3149 H 289.196 -0.666645 0.112074 0
M  V30 3150 H 291.75 -1.81467 0.962239 0
M  V30 3151 H 289.98 -3.81609 -0.6254 0
M  V30 3152 H 291.669 -4.0495 -0.277584 0
M  V30 3153 H 292.435 -4.32727 2.19027 0
M  V30 3154 H 288.314 -4.50527 0.977042 0
M  V30 3155 H 291.858 -5.50859 4.28018 0
M  V30 3156 H 287.755 -5.68461 3.05814 0
M  V30 3157 H 288.523 -6.50821 4.9636 0
M  V30 3158 N 291.186 -0.45159 -1.50991 0
M  V30 3159 C 292.118 0.388634 -2.25881 0
M  V30 3160 C 293.131 0.974041 -1.30446 0
M  V30 3161 O 294.32 0.865758 -1.56099 0
M  V30 3162 C 291.42 1.5571 -3.01011 0
M  V30 3163 C 290.593 1.08801 -4.23652 0
M  V30 3164 C 289.652 2.12825 -4.8124 0
M  V30 3165 O 288.678 1.71678 -5.42693 0
M  V30 3166 N 289.88 3.45453 -4.66522 0
M  V30 3167 H 292.645 -0.25329 -2.98628 0
M  V30 3168 H 290.206 -0.281268 -1.59438 0
M  V30 3169 H 292.198 2.24952 -3.3642 0
M  V30 3170 H 290.768 2.10409 -2.31186 0
M  V30 3171 H 289.988 0.22215 -3.93574 0
M  V30 3172 H 291.276 0.752213 -5.03209 0
M  V30 3173 H 290.674 3.81605 -4.17605 0
M  V30 3174 H 289.231 4.10549 -5.06254 0
M  V30 3175 N 292.664 1.56529 -0.183458 0
M  V30 3176 C 293.912 1.96855 0.457452 0
M  V30 3177 C 294.233 1.07104 1.62953 0
M  V30 3178 O 293.503 0.139887 1.954 0
M  V30 3179 H 292.083 0.72693 0.171992 0
M  V30 3180 H 294.745 1.93056 -0.267476 0
M  V30 3181 H 293.841 3.01423 0.809368 0
M  V30 3182 N 294.142 -0.090211 1.57342 0
M  V30 3183 C 295.391 -0.791531 1.8552 0
M  V30 3184 C 295.704 -1.79659 0.773441 0
M  V30 3185 O 296.91 -2.54616 0.942497 0
M  V30 3186 C 295.366 -1.45856 3.2902 0
M  V30 3187 C 294.974 -0.493017 4.45279 0
M  V30 3188 C 296.718 -2.14332 3.66418 0
M  V30 3189 C 294.625 -1.16491 5.79814 0
M  V30 3190 H 293.555 -0.299356 0.692027 0
M  V30 3191 H 296.206 -0.0445343 1.83446 0
M  V30 3192 H 294.588 -2.25318 3.2565 0
M  V30 3193 H 295.762 0.270464 4.60006 0
M  V30 3194 H 294.077 0.0863061 4.16311 0
M  V30 3195 H 296.674 -2.65344 4.64216 0
M  V30 3196 H 297.017 -2.93447 2.95287 0
M  V30 3197 H 297.55 -1.41724 3.71698 0
M  V30 3198 H 294.289 -0.41447 6.54188 0
M  V30 3199 H 293.809 -1.8997 5.68921 0
M  V30 3200 H 295.488 -1.69001 6.24538 0
M  V30 3201 N 295.62 -1.53406 -0.361157 0
M  V30 3202 C 297.036 -1.43277 -0.703124 0
M  V30 3203 C 297.236 -0.575384 -1.9311 0
M  V30 3204 O 296.292 -0.0595362 -2.5243 0
M  V30 3205 C 297.605 -2.8653 -0.9122 0
M  V30 3206 C 299.153 -2.96191 -1.01193 0
M  V30 3207 C 299.628 -4.40514 -1.25345 0
M  V30 3208 N 301.119 -4.43962 -1.32105 0
M  V30 3209 C 301.854 -5.52746 -1.5251 0
M  V30 3210 N 301.35 -6.71567 -1.70203 0
M  V30 3211 N 303.143 -5.40331 -1.54916 0
M  V30 3212 H 295.294 -2.07654 0.446475 0
M  V30 3213 H 297.557 -0.937944 0.137715 0
M  V30 3214 H 297.263 -3.51605 -0.0816414 0
M  V30 3215 H 297.137 -3.30441 -1.81903 0
M  V30 3216 H 299.524 -2.31266 -1.83303 0
M  V30 3217 H 299.605 -2.55667 -0.0823929 0
M  V30 3218 H 299.249 -5.06014 -0.437346 0
M  V30 3219 H 299.179 -4.78614 -2.19627 0
M  V30 3220 H 301.67 -3.58332 -1.20028 0
M  V30 3221 H 301.983 -7.50241 -1.85359 0
M  V30 3222 H 300.328 -6.74545 -1.67373 0
M  V30 3223 H 303.519 -4.46465 -1.40663 0
M  V30 3224 H 303.692 -6.25173 -1.70477 0
M  V30 3225 N 297.098 0.621204 -1.44841 0
M  V30 3226 C 298.323 1.41244 -1.51871 0
M  V30 3227 C 298.748 1.87519 -0.147764 0
M  V30 3228 O 298.106 1.59334 0.865 0
M  V30 3229 C 298.154 2.60221 -2.49634 0
M  V30 3230 O 297.258 3.60395 -2.00473 0
M  V30 3231 H 296.599 0.42223 -0.512463 0
M  V30 3232 H 299.129 0.757305 -1.90069 0
M  V30 3233 H 299.139 3.0764 -2.67996 0
M  V30 3234 H 297.814 2.25887 -3.4921 0
M  V30 3235 H 296.391 3.19717 -1.91925 0
M  V30 3236 N 298.576 1.31904 0.862503 0
M  V30 3237 C 299.524 1.20125 1.9918 0
M  V30 3238 C 300.518 0.107824 1.69056 0
M  V30 3239 O 301.724 0.270223 1.7796 0
M  V30 3240 H 298.099 0.372148 0.65346 0
M  V30 3241 H 300.07 2.15652 2.06244 0
M  V30 3242 C 298.819 0.933099 3.34946 0
M  V30 3243 H 298.142 1.76664 3.5865 0
M  V30 3244 H 299.582 0.890892 4.14535 0
M  V30 3245 C 298.041 -0.364172 3.34926 0
M  V30 3246 O 298.571 -1.37858 3.77304 0
M  V30 3247 N 296.777 -0.383362 2.8806 0
M  V30 3248 H 296.324 0.442651 2.53768 0
M  V30 3249 H 296.282 -1.25123 2.8843 0
M  V30 3250 N 300.054 -1.07777 1.14986 0
M  V30 3251 C 301.017 -2.13041 0.845358 0
M  V30 3252 C 302.017 -1.60071 -0.152931 0
M  V30 3253 O 303.207 -1.74033 0.0761879 0
M  V30 3254 C 300.339 -3.39896 0.261383 0
M  V30 3255 H 301.532 -2.41485 1.77834 0
M  V30 3256 H 299.085 -1.23595 0.956757 0
M  V30 3257 H 299.82 -3.17091 -0.68 0
M  V30 3258 H 299.605 -3.79642 0.980514 0
M  V30 3259 H 301.095 -4.17548 0.0657687 0
M  V30 3260 N 301.532 -0.945985 -1.26051 0
M  V30 3261 C 302.76 -0.613025 -1.9761 0
M  V30 3262 C 303.175 0.813035 -1.70397 0
M  V30 3263 O 302.532 1.54274 -0.974979 0
M  V30 3264 C 302.583 -0.85159 -3.51326 0
M  V30 3265 O 302.304 -2.22157 -3.77595 0
M  V30 3266 C 303.805 -0.529831 -4.40122 0
M  V30 3267 H 301.025 -0.230593 -0.630133 0
M  V30 3268 H 303.569 -1.268 -1.60443 0
M  V30 3269 H 301.724 -0.243151 -3.86636 0
M  V30 3270 H 302.138 -2.2852 -4.721 0
M  V30 3271 H 303.612 -0.747348 -5.46917 0
M  V30 3272 H 304.089 0.535341 -4.35925 0
M  V30 3273 H 304.695 -1.11721 -4.10364 0
M  V30 3274 N 303.011 1.40521 -0.713556 0
M  V30 3275 C 303.974 2.29098 -0.0684347 0
M  V30 3276 C 304.974 1.45268 0.689472 0
M  V30 3277 O 306.164 1.66205 0.521677 0
M  V30 3278 C 303.296 3.28446 0.913024 0
M  V30 3279 H 304.489 2.87645 -0.84855 0
M  V30 3280 H 302.042 1.48809 -0.47809 0
M  V30 3281 H 302.777 2.74913 1.72027 0
M  V30 3282 H 302.562 3.90327 0.372472 0
M  V30 3283 H 304.052 3.94777 1.36165 0
M  V30 3284 N 304.489 0.459591 1.5075 0
M  V30 3285 C 305.714 -0.0996819 2.0716 0
M  V30 3286 C 306.139 -1.33761 1.32249 0
M  V30 3287 O 305.497 -1.77551 0.366786 0
M  V30 3288 C 305.545 -0.378226 3.58611 0
M  V30 3289 O 304.649 -1.46081 3.85661 0
M  V30 3290 H 303.99 0.00791392 0.663953 0
M  V30 3291 H 306.52 0.647329 1.9409 0
M  V30 3292 H 306.53 -0.622135 4.03229 0
M  V30 3293 H 305.205 0.526439 4.12555 0
M  V30 3294 H 303.782 -1.20511 3.5289 0
M  V30 3295 N 305.967 -1.56429 0.191757 0
M  V30 3296 C 307.216 -1.9666 -0.448088 0
M  V30 3297 C 307.529 -1.08136 -1.62991 0
M  V30 3298 O 308.735 -1.38135 -2.33733 0
M  V30 3299 C 307.191 -3.49753 -0.848585 0
M  V30 3300 C 306.799 -4.46935 0.308764 0
M  V30 3301 C 308.543 -3.9876 -1.4557 0
M  V30 3302 C 306.45 -5.91293 -0.112506 0
M  V30 3303 H 305.38 -0.734312 -0.171179 0
M  V30 3304 H 308.031 -1.81301 0.283242 0
M  V30 3305 H 306.413 -3.60604 -1.63649 0
M  V30 3306 H 307.587 -4.47813 1.08627 0
M  V30 3307 H 305.902 -4.08102 0.827158 0
M  V30 3308 H 308.499 -5.04086 -1.78328 0
M  V30 3309 H 308.842 -3.42875 -2.36099 0
M  V30 3310 H 309.375 -3.9101 -0.731836 0
M  V30 3311 H 306.114 -6.51097 0.758514 0
M  V30 3312 H 305.634 -5.93676 -0.854941 0
M  V30 3313 H 307.313 -6.44663 -0.549448 0
M  V30 3314 N 307.445 0.0818655 -1.57387 0
M  V30 3315 C 308.856 0.634871 -1.75574 0
M  V30 3316 C 309.207 1.78435 -0.815809 0
M  V30 3317 O 308.332 2.164 0.0025366 0
M  V30 3318 C 308.927 1.15845 -3.18379 0
M  V30 3319 C 307.486 1.65741 -3.37945 0
M  V30 3320 C 306.633 0.572549 -2.71325 0
M  V30 3321 H 309.584 -0.144268 -1.58043 0
M  V30 3322 H 309.605 2.02751 -3.21982 0
M  V30 3323 H 309.117 0.321631 -3.86765 0
M  V30 3324 H 307.218 2.51781 -2.74658 0
M  V30 3325 H 307.331 1.74129 -4.46336 0
M  V30 3326 H 305.695 1.01518 -2.33594 0
M  V30 3327 H 306.478 -0.253918 -3.4236 0
M  V30 3328 N 308.923 1.53595 0.353017 0
M  V30 3329 C 310.148 1.7462 1.11904 0
M  V30 3330 C 310.573 0.479721 1.8188 0
M  V30 3331 O 309.931 -0.567066 1.72204 0
M  V30 3332 C 309.979 2.92029 2.11545 0
M  V30 3333 O 309.083 2.61516 3.18878 0
M  V30 3334 H 308.424 0.579531 0.324099 0
M  V30 3335 H 310.954 2.00525 0.406301 0
M  V30 3336 H 310.964 3.18551 2.5493 0
M  V30 3337 H 309.639 3.83888 1.60008 0
M  V30 3338 H 308.216 2.45852 2.80377 0
M  V30 3339 N 310.401 -0.613514 1.45168 0
M  V30 3340 C 311.331 -1.7354 1.56225 0
M  V30 3341 C 312.312 -1.64981 0.41414 0
M  V30 3342 O 313.497 -1.83472 0.636526 0
M  V30 3343 C 310.627 -3.12128 1.52295 0
M  V30 3344 C 309.581 -3.35491 2.65762 0
M  V30 3345 C 308.907 -4.74291 2.46885 0
M  V30 3346 C 310.207 -3.26325 4.0781 0
M  V30 3347 H 311.901 -1.64543 2.50132 0
M  V30 3348 H 309.447 -0.790185 1.20383 0
M  V30 3349 H 311.4 -3.90404 1.58628 0
M  V30 3350 H 310.124 -3.2195 0.549139 0
M  V30 3351 H 308.783 -2.59603 2.58847 0
M  V30 3352 H 308.431 -4.80839 1.47657 0
M  V30 3353 H 308.131 -4.9088 3.22972 0
M  V30 3354 H 309.655 -5.54775 2.55063 0
M  V30 3355 H 311.069 -3.94483 4.16 0
M  V30 3356 H 309.466 -3.54445 4.8424 0
M  V30 3357 H 310.536 -2.23855 4.30136 0
M  V30 3358 N 311.879 -1.3236 -0.855495 0
M  V30 3359 C 313.125 -1.23054 -1.612 0
M  V30 3360 C 313.458 0.207404 -1.93089 0
M  V30 3361 O 312.733 1.14432 -1.57275 0
M  V30 3362 C 313.016 -2.08937 -2.93287 0
M  V30 3363 C 312.869 -3.61105 -2.68185 0
M  V30 3364 C 314.188 -1.94986 -3.94549 0
M  V30 3365 H 311.307 -0.448364 -0.584926 0
M  V30 3366 H 313.949 -1.62297 -0.987917 0
M  V30 3367 H 312.099 -1.75599 -3.46551 0
M  V30 3368 H 313.771 -4.04652 -2.21483 0
M  V30 3369 H 312.014 -3.83813 -2.02164 0
M  V30 3370 H 312.685 -4.16522 -3.62234 0
M  V30 3371 H 315.161 -2.24189 -3.5054 0
M  V30 3372 H 314.037 -2.57356 -4.84829 0
M  V30 3373 H 314.298 -0.917263 -4.3248 0
M  V30 3374 N 313.357 1.07166 -1.15556 0
M  V30 3375 C 314.304 2.14417 -0.854055 0
M  V30 3376 C 315.274 1.64965 0.193806 0
M  V30 3377 O 316.459 1.90703 0.0609443 0
M  V30 3378 C 313.599 3.43304 -0.351574 0
M  V30 3379 C 312.712 4.06537 -1.46123 0
M  V30 3380 C 311.847 5.23266 -0.914677 0
M  V30 3381 C 310.886 5.78464 -2.00114 0
M  V30 3382 N 310.023 6.86521 -1.47083 0
M  V30 3383 H 314.863 2.39548 -1.77259 0
M  V30 3384 H 312.4 1.17543 -0.884425 0
M  V30 3385 H 314.358 4.17179 -0.0419409 0
M  V30 3386 H 312.988 3.18419 0.530037 0
M  V30 3387 H 312.04 3.30297 -1.88701 0
M  V30 3388 H 313.352 4.43567 -2.28144 0
M  V30 3389 H 312.506 6.04131 -0.557698 0
M  V30 3390 H 311.245 4.87658 -0.0636583 0
M  V30 3391 H 310.25 4.96243 -2.36692 0
M  V30 3392 H 311.475 6.16126 -2.85597 0
M  V30 3393 H 309.421 6.52849 -0.642198 0
M  V30 3394 H 309.338 7.22446 -2.22729 0
M  V30 3395 H 310.606 7.71087 -1.14215 0
M  V30 3396 N 314.835 0.952656 1.25548 0
M  V30 3397 C 315.783 0.462354 2.27958 0
M  V30 3398 C 316.777 -0.46634 1.62855 0
M  V30 3399 O 317.983 -0.343287 1.76696 0
M  V30 3400 H 314.358 0.13101 0.7405 0
M  V30 3401 H 316.329 1.33839 2.66702 0
M  V30 3402 C 315.078 -0.24628 3.46827 0
M  V30 3403 H 314.401 0.459192 3.97154 0
M  V30 3404 H 315.841 -0.553393 4.20373 0
M  V30 3405 C 314.3 -1.4681 3.0323 0
M  V30 3406 O 314.83 -2.56591 3.09069 0
M  V30 3407 N 313.036 -1.32874 2.58443 0
M  V30 3408 H 312.583 -0.435536 2.53891 0
M  V30 3409 H 312.541 -2.14742 2.29637 0
M  V30 3410 N 316.313 -1.40141 0.720998 0
M  V30 3411 C 317.243 -2.33339 0.0867621 0
M  V30 3412 C 318.224 -1.53178 -0.739622 0
M  V30 3413 O 319.409 -1.81625 -0.687449 0
M  V30 3414 C 316.539 -3.37194 -0.831728 0
M  V30 3415 C 315.493 -4.27857 -0.110558 0
M  V30 3416 C 314.819 -5.22294 -1.14513 0
M  V30 3417 C 316.119 -5.11872 1.0385 0
M  V30 3418 H 317.813 -2.86626 0.865219 0
M  V30 3419 H 315.359 -1.37814 0.417516 0
M  V30 3420 H 317.312 -4.01335 -1.28485 0
M  V30 3421 H 316.036 -2.82314 -1.64214 0
M  V30 3422 H 314.695 -3.65176 0.322797 0
M  V30 3423 H 314.343 -4.63717 -1.94874 0
M  V30 3424 H 314.043 -5.83797 -0.667446 0
M  V30 3425 H 315.567 -5.89312 -1.59824 0
M  V30 3426 H 316.981 -5.69436 0.664482 0
M  V30 3427 H 315.378 -5.82445 1.4449 0
M  V30 3428 H 316.448 -4.4753 1.86668 0
M  V30 3429 N 317.792 -0.46758 -1.50504 0
M  V30 3430 C 318.722 0.318381 -2.31319 0
M  V30 3431 C 319.703 0.993564 -1.38066 0
M  V30 3432 O 320.888 0.991411 -1.66987 0
M  V30 3433 C 318.018 1.40275 -3.17711 0
M  V30 3434 C 316.972 0.849373 -4.19487 0
M  V30 3435 C 316.298 2.03177 -4.94594 0
M  V30 3436 C 317.598 -0.136942 -5.2212 0
M  V30 3437 H 319.292 -0.356106 -2.97275 0
M  V30 3438 H 316.838 -0.172703 -1.42961 0
M  V30 3439 H 318.791 1.96004 -3.73042 0
M  V30 3440 H 317.515 2.10596 -2.49634 0
M  V30 3441 H 316.174 0.314076 -3.65252 0
M  V30 3442 H 315.822 2.72187 -4.22993 0
M  V30 3443 H 315.522 1.66774 -5.63436 0
M  V30 3444 H 317.046 2.59403 -5.52759 0
M  V30 3445 H 318.46 0.331056 -5.72343 0
M  V30 3446 H 316.857 -0.41507 -5.98663 0
M  V30 3447 H 317.927 -1.06398 -4.73083 0
M  V30 3448 N 319.27 1.56325 -0.20005 0
M  V30 3449 C 320.18 2.22931 0.730668 0
M  V30 3450 C 321.196 1.22997 1.23076 0
M  V30 3451 O 322.372 1.55748 1.27689 0
M  V30 3452 C 319.437 2.87948 1.93098 0
M  V30 3453 C 318.498 4.03166 1.47497 0
M  V30 3454 C 317.731 4.65073 2.61807 0
M  V30 3455 O 317.954 4.25913 3.79413 0
M  V30 3456 O 316.888 5.54452 2.34237 0
M  V30 3457 H 320.714 3.03084 0.193391 0
M  V30 3458 H 318.299 1.49371 0.0294621 0
M  V30 3459 H 320.181 3.29063 2.6324 0
M  V30 3460 H 318.856 2.10771 2.45677 0
M  V30 3461 H 317.763 3.66664 0.742201 0
M  V30 3462 H 319.096 4.82022 0.995796 0
M  V30 3463 N 320.748 -0.0735177 1.57428 0
M  V30 3464 C 321.695 -1.08756 2.0357 0
M  V30 3465 C 322.665 -1.38559 0.916 0
M  V30 3466 O 323.85 -1.49656 1.18354 0
M  V30 3467 C 320.99 -2.39657 2.48311 0
M  V30 3468 C 320.103 -2.16399 3.73892 0
M  V30 3469 C 319.238 -3.40852 4.07423 0
M  V30 3470 C 318.277 -3.1295 5.2605 0
M  V30 3471 N 317.414 -4.29729 5.55228 0
M  V30 3472 H 322.254 -0.687104 2.8997 0
M  V30 3473 H 319.791 -0.327709 1.43403 0
M  V30 3474 H 321.749 -3.16081 2.72303 0
M  V30 3475 H 320.379 -2.77508 1.64891 0
M  V30 3476 H 319.431 -1.30676 3.57251 0
M  V30 3477 H 320.743 -1.91788 4.60455 0
M  V30 3478 H 319.897 -4.25671 4.32306 0
M  V30 3479 H 318.636 -3.68537 3.19425 0
M  V30 3480 H 317.641 -2.26526 5.00965 0
M  V30 3481 H 318.866 -2.86589 6.15665 0
M  V30 3482 H 316.812 -4.57448 4.70188 0
M  V30 3483 H 316.729 -4.08385 6.36206 0
M  V30 3484 H 317.997 -5.1555 5.84661 0
M  V30 3485 N 322.226 -1.5378 -0.344866 0
M  V30 3486 C 323.503 -1.61589 -1.10219 0
M  V30 3487 C 323.883 -0.436316 -2.06542 0
M  V30 3488 O 323.231 0.571543 -2.21237 0
M  V30 3489 C 323.441 -2.97602 -1.82301 0
M  V30 3490 C 324.789 -3.5291 -2.36093 0
M  V30 3491 O 325.813 -2.99768 -1.924 0
M  V30 3492 O 324.672 -4.45859 -3.16026 0
M  V30 3493 H 321.766 -0.653522 -0.506792 0
M  V30 3494 H 324.312 -1.66126 -0.346465 0
M  V30 3495 H 323.084 -3.74893 -1.12121 0
M  V30 3496 H 322.707 -2.9665 -2.64735 0
M  V30 3497 N 323.704 0.605807 -1.45491 0
M  V30 3498 C 325.115 1.18777 -1.44045 0
M  V30 3499 C 325.466 1.95471 -0.169001 0
M  V30 3500 O 324.591 2.0374 0.729324 0
M  V30 3501 C 325.186 2.16064 -2.60963 0
M  V30 3502 C 323.745 2.69633 -2.62631 0
M  V30 3503 C 322.892 1.45072 -2.36325 0
M  V30 3504 H 325.843 0.395017 -1.53705 0
M  V30 3505 H 325.864 2.9913 -2.35163 0
M  V30 3506 H 325.376 1.60217 -3.53486 0
M  V30 3507 H 323.477 3.29414 -1.74119 0
M  V30 3508 H 323.59 3.13944 -3.61906 0
M  V30 3509 H 321.954 1.74089 -1.85917 0
M  V30 3510 H 322.737 0.910899 -3.30995 0
M  V30 3511 N 325.182 1.32811 0.848464 0
M  V30 3512 C 326.41 1.26739 1.63538 0
M  V30 3513 C 326.825 -0.163484 1.88091 0
M  V30 3514 O 326.182 -1.10258 1.45429 0
M  V30 3515 C 326.233 2.03013 2.99112 0
M  V30 3516 O 325.954 3.40518 2.75643 0
M  V30 3517 C 327.455 2.04038 3.93552 0
M  V30 3518 H 324.675 0.437024 0.509167 0
M  V30 3519 H 327.219 1.75033 1.05753 0
M  V30 3520 H 325.374 1.58426 3.53525 0
M  V30 3521 H 325.788 3.79635 3.61908 0
M  V30 3522 H 327.262 2.61877 4.85926 0
M  V30 3523 H 327.739 1.0282 4.26995 0
M  V30 3524 H 328.345 2.486 3.45077 0
M  V30 3525 N 326.66 -1.06551 1.16123 0
M  V30 3526 C 327.59 -2.15935 0.88851 0
M  V30 3527 C 328.571 -1.69306 -0.164135 0
M  V30 3528 O 329.756 -1.94193 -0.0167857 0
M  V30 3529 C 326.886 -3.45149 0.385942 0
M  V30 3530 C 325.84 -4.05271 1.3762 0
M  V30 3531 C 325.166 -5.29664 0.732137 0
M  V30 3532 C 326.466 -4.44355 2.74493 0
M  V30 3533 H 328.16 -2.39006 1.80323 0
M  V30 3534 H 325.706 -1.14866 0.868435 0
M  V30 3535 H 327.659 -4.21004 0.182647 0
M  V30 3536 H 326.383 -3.21689 -0.564274 0
M  V30 3537 H 325.042 -3.3147 1.56599 0
M  V30 3538 H 324.69 -5.02499 -0.224483 0
M  V30 3539 H 324.39 -5.70848 1.39307 0
M  V30 3540 H 325.914 -6.08218 0.538802 0
M  V30 3541 H 327.328 -5.11303 2.59311 0
M  V30 3542 H 325.725 -4.96515 3.37035 0
M  V30 3543 H 326.795 -3.55339 3.29943 0
M  V30 3544 N 328.138 -0.959301 -1.25041 0
M  V30 3545 C 329.366 -0.633949 -1.96948 0
M  V30 3546 C 329.781 0.794916 -1.7125 0
M  V30 3547 O 329.138 1.53231 -0.991287 0
M  V30 3548 C 329.189 -0.888805 -3.50403 0
M  V30 3549 O 328.91 -2.26149 -3.75218 0
M  V30 3550 C 330.411 -0.576482 -4.39536 0
M  V30 3551 H 327.631 -0.237263 -0.627652 0
M  V30 3552 H 330.175 -1.28495 -1.59089 0
M  V30 3553 H 328.33 -0.284145 -3.86357 0
M  V30 3554 H 328.744 -2.33514 -4.6965 0
M  V30 3555 H 330.218 -0.805314 -5.46094 0
M  V30 3556 H 330.695 0.489075 -4.36468 0
M  V30 3557 H 331.301 -1.16067 -4.09156 0
M  V30 3558 N 329.616 1.39756 -0.72842 0
M  V30 3559 C 330.856 2.025 -0.278078 0
M  V30 3560 C 331.22 1.5654 1.11173 0
M  V30 3561 O 332.421 2.11435 1.65978 0
M  V30 3562 C 330.692 3.55489 -0.369139 0
M  V30 3563 S 332.251 4.388 0.00232983 0
M  V30 3564 H 329.069 0.702534 -0.109391 0
M  V30 3565 H 331.671 1.70672 -0.95348 0
M  V30 3566 H 330.375 3.86429 -1.38204 0
M  V30 3567 H 329.906 3.92061 0.324308 0
M  V30 3568 H 331.921 4.80954 1.22055 0
M  V30 3569 N 331.094 0.475555 1.50254 0
M  V30 3570 C 332.004 -0.321501 2.32387 0
M  V30 3571 C 333.02 -0.991755 1.42969 0
M  V30 3572 O 334.196 -0.978747 1.76018 0
M  V30 3573 C 331.261 -1.38667 3.17762 0
M  V30 3574 C 330.322 -0.732538 4.23004 0
M  V30 3575 C 329.555 -1.74695 5.04299 0
M  V30 3576 O 329.778 -2.97399 4.86734 0
M  V30 3577 O 328.712 -1.31631 5.8733 0
M  V30 3578 H 332.538 0.350071 3.01676 0
M  V30 3579 H 330.123 0.237321 1.47503 0
M  V30 3580 H 332.005 -2.00354 3.70724 0
M  V30 3581 H 330.68 -2.04163 2.51196 0
M  V30 3582 H 329.587 -0.0765902 3.74022 0
M  V30 3583 H 330.92 -0.120452 4.92053 0
M  V30 3584 N 332.573 -1.56217 0.208337 0
M  V30 3585 C 333.819 -1.98242 -0.427552 0
M  V30 3586 C 334.152 -1.09554 -1.60348 0
M  V30 3587 O 333.427 -0.15035 -1.93918 0
M  V30 3588 C 333.71 -3.4931 -0.874907 0
M  V30 3589 C 333.563 -4.48773 0.303751 0
M  V30 3590 C 334.882 -4.04424 -1.73577 0
M  V30 3591 H 332.001 -0.720744 -0.153936 0
M  V30 3592 H 334.643 -1.87586 0.30192 0
M  V30 3593 H 332.793 -3.58522 -1.49648 0
M  V30 3594 H 334.465 -4.51586 0.941682 0
M  V30 3595 H 332.708 -4.23194 0.953375 0
M  V30 3596 H 333.379 -5.51976 -0.0519883 0
M  V30 3597 H 335.855 -3.98075 -1.21143 0
M  V30 3598 H 334.731 -5.1047 -2.01771 0
M  V30 3599 H 334.992 -3.50494 -2.69456 0
M  V30 3600 N 334.051 0.0651679 -1.57465 0
M  V30 3601 C 334.981 1.07693 -2.07182 0
M  V30 3602 C 335.962 1.39962 -0.966673 0
M  V30 3603 O 337.147 1.49475 -1.2398 0
M  V30 3604 C 334.277 2.3885 -2.52127 0
M  V30 3605 C 333.231 2.20917 -3.66579 0
M  V30 3606 C 332.557 3.57515 -3.97601 0
M  V30 3607 C 333.857 1.62493 -4.9638 0
M  V30 3608 H 335.551 0.663199 -2.91962 0
M  V30 3609 H 333.097 0.317569 -1.40455 0
M  V30 3610 H 335.05 3.09928 -2.85522 0
M  V30 3611 H 333.774 2.82215 -1.64384 0
M  V30 3612 H 332.433 1.52279 -3.33477 0
M  V30 3613 H 332.081 3.98463 -3.06979 0
M  V30 3614 H 331.781 3.46353 -4.74672 0
M  V30 3615 H 333.305 4.30013 -4.33499 0
M  V30 3616 H 334.719 2.23445 -5.27963 0
M  V30 3617 H 333.116 1.62009 -5.77818 0
M  V30 3618 H 334.186 0.587041 -4.81333 0
M  V30 3619 N 335.529 1.53961 0.336706 0
M  V30 3620 C 336.462 1.77255 1.43722 0
M  V30 3621 C 337.44 0.62193 1.50236 0
M  V30 3622 O 338.624 0.857874 1.67847 0
M  V30 3623 C 335.751 1.87733 2.81912 0
M  V30 3624 C 334.797 3.09933 2.92991 0
M  V30 3625 S 335.63 4.68836 2.58753 0
M  V30 3626 C 336.786 4.82202 3.99039 0
M  V30 3627 H 337.019 2.70322 1.23748 0
M  V30 3628 H 334.552 1.44917 0.532777 0
M  V30 3629 H 336.51 1.94455 3.61521 0
M  V30 3630 H 335.171 0.956666 2.99177 0
M  V30 3631 H 334.364 3.1396 3.94265 0
M  V30 3632 H 333.966 3.01472 2.21338 0
M  V30 3633 H 336.258 4.64032 4.9364 0
M  V30 3634 H 337.201 5.84298 4.00002 0
M  V30 3635 H 337.609 4.10604 3.87382 0
M  V30 3636 N 337.007 -0.598083 1.45811 0
M  V30 3637 C 337.955 -1.72932 1.55555 0
M  V30 3638 C 338.949 -1.63984 0.424921 0
M  V30 3639 O 340.155 -1.69663 0.601205 0
M  V30 3640 H 336.53 -0.571489 0.488779 0
M  V30 3641 H 338.501 -1.61842 2.50699 0
M  V30 3642 C 337.25 -3.11318 1.54843 0
M  V30 3643 H 336.573 -3.18867 2.41172 0
M  V30 3644 H 338.013 -3.90274 1.65717 0
M  V30 3645 C 336.472 -3.3578 0.274427 0
M  V30 3646 O 337.002 -3.9654 -0.641778 0
M  V30 3647 N 335.208 -2.90119 0.167139 0
M  V30 3648 H 334.755 -2.40855 0.913596 0
M  V30 3649 H 334.713 -3.0686 -0.684435 0
M  V30 3650 N 338.485 -1.33259 -0.841409 0
M  V30 3651 C 339.448 -1.23221 -1.9326 0
M  V30 3652 C 340.448 -0.151895 -1.60081 0
M  V30 3653 O 341.638 -0.403246 -1.69468 0
M  V30 3654 C 338.77 -0.898123 -3.28856 0
M  V30 3655 H 339.963 -2.2021 -2.03587 0
M  V30 3656 H 337.516 -1.17281 -1.03319 0
M  V30 3657 H 338.251 0.0693841 -3.24226 0
M  V30 3658 H 338.036 -1.67934 -3.54317 0
M  V30 3659 H 339.526 -0.852563 -4.08805 0
M  V30 3660 N 339.963 1.05934 -1.16686 0
M  V30 3661 C 341.209 1.79065 -0.95203 0
M  V30 3662 C 341.542 1.87147 0.518629 0
M  V30 3663 O 340.817 1.36574 1.38484 0
M  V30 3664 C 341.1 3.23359 -1.58464 0
M  V30 3665 C 340.953 3.23336 -3.12689 0
M  V30 3666 C 342.272 4.21004 -1.28232 0
M  V30 3667 H 339.391 0.65005 -0.34728 0
M  V30 3668 H 342.033 1.23868 -1.44072 0
M  V30 3669 H 340.183 3.70493 -1.16908 0
M  V30 3670 H 341.855 2.84336 -3.6325 0
M  V30 3671 H 340.098 2.61886 -3.4583 0
M  V30 3672 H 340.769 4.25144 -3.52075 0
M  V30 3673 H 343.245 3.8233 -1.64203 0
M  V30 3674 H 342.121 5.20225 -1.75092 0
M  V30 3675 H 342.382 4.41639 -0.201791 0
M  V30 3676 N 341.441 0.965919 1.2453 0
M  V30 3677 C 342.404 0.499547 2.2369 0
M  V30 3678 C 343.404 -0.40294 1.5567 0
M  V30 3679 O 344.594 -0.19865 1.73064 0
M  V30 3680 C 341.726 -0.276792 3.39774 0
M  V30 3681 H 342.919 1.37613 2.66463 0
M  V30 3682 H 340.472 0.750324 1.37112 0
M  V30 3683 H 341.207 -1.17055 3.02438 0
M  V30 3684 H 340.992 0.370826 3.90343 0
M  V30 3685 H 342.482 -0.592175 4.1338 0
M  V30 3686 N 342.919 -1.39368 0.735821 0
M  V30 3687 C 344.147 -2.04795 0.294393 0
M  V30 3688 C 344.562 -1.55478 -1.07107 0
M  V30 3689 O 343.919 -0.720038 -1.67695 0
M  V30 3690 C 343.97 -3.6035 0.288071 0
M  V30 3691 O 343.691 -4.07852 1.59963 0
M  V30 3692 C 345.192 -4.42976 -0.169422 0
M  V30 3693 H 342.412 -0.658571 0.128551 0
M  V30 3694 H 344.956 -1.78399 0.999701 0
M  V30 3695 H 343.111 -3.85645 -0.368355 0
M  V30 3696 H 343.525 -5.02181 1.51375 0
M  V30 3697 H 344.999 -5.51864 -0.122687 0
M  V30 3698 H 345.476 -4.22068 -1.21472 0
M  V30 3699 H 346.082 -4.22832 0.457469 0
M  V30 3700 N 344.397 -0.483516 -1.5 0
M  V30 3701 C 345.307 0.309172 -2.32554 0
M  V30 3702 C 346.323 0.984159 -1.43493 0
M  V30 3703 O 347.499 0.969399 -1.76535 0
M  V30 3704 C 344.564 1.36979 -3.18493 0
M  V30 3705 C 343.625 0.710095 -4.23387 0
M  V30 3706 C 342.858 1.72018 -5.05218 0
M  V30 3707 O 343.081 2.94813 -4.88305 0
M  V30 3708 O 342.015 1.28515 -5.8802 0
M  V30 3709 H 345.841 -0.366064 -3.01486 0
M  V30 3710 H 343.426 -0.24514 -1.47375 0
M  V30 3711 H 345.308 1.98385 -3.71781 0
M  V30 3712 H 343.983 2.02828 -2.52275 0
M  V30 3713 H 342.89 0.0567539 -3.74057 0
M  V30 3714 H 344.223 0.0943557 -4.9211 0
M  V30 3715 N 345.875 1.56104 -0.216619 0
M  V30 3716 C 347.105 2.02269 0.420802 0
M  V30 3717 C 347.513 1.09575 1.5424 0
M  V30 3718 O 346.856 0.0967308 1.83445 0
M  V30 3719 C 346.918 3.44784 1.01806 0
M  V30 3720 C 346.582 4.56988 0.0325154 0
M  V30 3721 C 347.579 5.14225 -0.766055 0
M  V30 3722 C 345.264 5.02228 -0.0848092 0
M  V30 3723 C 347.258 6.15169 -1.6687 0
M  V30 3724 C 344.945 6.03011 -0.990994 0
M  V30 3725 C 345.943 6.59357 -1.78149 0
M  V30 3726 O 345.631 7.58179 -2.67245 0
M  V30 3727 H 345.363 0.667353 0.107776 0
M  V30 3728 H 347.917 2.02747 -0.329034 0
M  V30 3729 H 346.147 3.41359 1.81689 0
M  V30 3730 H 347.836 3.74626 1.56237 0
M  V30 3731 H 348.602 4.80126 -0.685836 0
M  V30 3732 H 344.481 4.58054 0.520349 0
M  V30 3733 H 348.025 6.59076 -2.28615 0
M  V30 3734 H 343.922 6.36532 -1.07225 0
M  V30 3735 H 344.69 7.75682 -2.61265 0
M  V30 3736 N 347.353 -0.0568162 1.57498 0
M  V30 3737 C 348.316 -1.05038 2.03715 0
M  V30 3738 C 349.316 -1.30709 0.936577 0
M  V30 3739 O 350.506 -1.26178 1.20103 0
M  V30 3740 C 347.638 -2.39034 2.43055 0
M  V30 3741 H 348.831 -0.651715 2.92733 0
M  V30 3742 H 346.384 -0.302947 1.53336 0
M  V30 3743 H 347.119 -2.83703 1.57108 0
M  V30 3744 H 346.904 -2.21739 3.2338 0
M  V30 3745 H 348.394 -3.10421 2.79336 0
M  V30 3746 N 348.832 -1.54138 -0.328536 0
M  V30 3747 C 349.795 -1.82462 -1.38709 0
M  V30 3748 C 350.795 -0.696229 -1.44946 0
M  V30 3749 O 351.985 -0.964535 -1.4506 0
M  V30 3750 C 349.117 -1.98018 -2.77492 0
M  V30 3751 H 350.31 -2.77037 -1.14851 0
M  V30 3752 H 347.863 -1.45779 -0.563751 0
M  V30 3753 H 348.598 -1.05637 -3.06613 0
M  V30 3754 H 348.383 -2.80124 -2.74359 0
M  V30 3755 H 349.873 -2.21396 -3.54081 0
M  V30 3756 N 350.31 0.590341 -1.46126 0
M  V30 3757 C 351.54 1.37304 -1.54373 0
M  V30 3758 C 351.948 1.88332 -0.181071 0
M  V30 3759 O 351.291 1.63852 0.830559 0
M  V30 3760 C 351.353 2.6012 -2.48149 0
M  V30 3761 C 351.017 2.30613 -3.94546 0
M  V30 3762 C 352.014 1.89915 -4.83971 0
M  V30 3763 C 349.699 2.42993 -4.39613 0
M  V30 3764 C 351.693 1.61981 -6.16475 0
M  V30 3765 C 349.38 2.14672 -5.72153 0
M  V30 3766 C 350.378 1.7423 -6.60404 0
M  V30 3767 O 350.066 1.46251 -7.90485 0
M  V30 3768 H 349.798 0.426086 -0.524811 0
M  V30 3769 H 352.352 0.72539 -1.92165 0
M  V30 3770 H 350.582 3.27664 -2.05361 0
M  V30 3771 H 352.271 3.22182 -2.46887 0
M  V30 3772 H 353.037 1.79872 -4.50412 0
M  V30 3773 H 348.916 2.73435 -3.71153 0
M  V30 3774 H 352.46 1.30341 -6.85315 0
M  V30 3775 H 348.357 2.24337 -6.05263 0
M  V30 3776 H 349.125 1.6016 -8.02677 0
M  V30 3777 N 351.788 1.33704 0.83433 0
M  V30 3778 C 352.738 1.20899 1.93306 0
M  V30 3779 C 353.722 0.110783 1.60518 0
M  V30 3780 O 354.914 0.339331 1.73717 0
M  V30 3781 C 352.043 0.955018 3.29749 0
M  V30 3782 C 351.129 2.09587 3.68692 0
M  V30 3783 N 351.52 3.34621 3.79292 0
M  V30 3784 C 349.818 2.00358 3.98463 0
M  V30 3785 C 350.519 4.09472 4.13167 0
M  V30 3786 N 349.495 3.37954 4.25779 0
M  V30 3787 H 353.297 2.15665 1.99664 0
M  V30 3788 H 350.811 1.25777 1.02732 0
M  V30 3789 H 352.808 0.844208 4.08263 0
M  V30 3790 H 351.468 0.0159317 3.24696 0
M  V30 3791 H 352.479 3.69313 3.63082 0
M  V30 3792 H 349.156 1.14137 4.01596 0
M  V30 3793 H 350.546 5.17391 4.28668 0
M  V30 3794 N 353.266 -1.05314 1.17247 0
M  V30 3795 C 354.198 -2.13023 0.845812 0
M  V30 3796 C 355.211 -1.62096 -0.151246 0
M  V30 3797 O 356.4 -1.78343 0.0748818 0
M  V30 3798 C 353.5 -3.38047 0.240292 0
M  V30 3799 C 352.673 -4.18255 1.27991 0
M  V30 3800 C 351.732 -5.21625 0.692375 0
M  V30 3801 O 350.758 -5.52619 1.36385 0
M  V30 3802 N 351.96 -5.78201 -0.516178 0
M  V30 3803 H 354.725 -2.41642 1.77283 0
M  V30 3804 H 352.286 -1.21401 1.07115 0
M  V30 3805 H 354.278 -4.04359 -0.16603 0
M  V30 3806 H 352.848 -3.06972 -0.590487 0
M  V30 3807 H 352.068 -3.47451 1.86203 0
M  V30 3808 H 353.356 -4.68643 1.98119 0
M  V30 3809 H 352.754 -5.55301 -1.07969 0
M  V30 3810 H 351.311 -6.4604 -0.86458 0
M  V30 3811 N 354.744 -0.972509 -1.24016 0
M  V30 3812 C 355.993 -0.632603 -1.91523 0
M  V30 3813 C 356.306 0.836641 -1.76804 0
M  V30 3814 O 357.512 1.28728 -2.39043 0
M  V30 3815 C 355.968 -1.08082 -3.43287 0
M  V30 3816 C 355.576 -2.57386 -3.66683 0
M  V30 3817 C 357.32 -0.814288 -4.16617 0
M  V30 3818 C 355.227 -2.95915 -5.12043 0
M  V30 3819 H 354.157 -0.232898 -0.717129 0
M  V30 3820 H 356.808 -1.17936 -1.40582 0
M  V30 3821 H 355.19 -0.462339 -3.93292 0
M  V30 3822 H 356.364 -3.24405 -3.27258 0
M  V30 3823 H 354.679 -2.81701 -3.06649 0
M  V30 3824 H 357.276 -1.0781 -5.23718 0
M  V30 3825 H 357.619 0.24955 -4.15551 0
M  V30 3826 H 358.152 -1.39397 -3.72577 0
M  V30 3827 H 354.891 -4.0139 -5.18234 0
M  V30 3828 H 354.411 -2.33584 -5.52448 0
M  V30 3829 H 356.09 -2.86086 -5.80314 0
M  V30 3830 N 356.222 1.38976 -0.743202 0
M  V30 3831 C 357.499 1.94351 -0.220705 0
M  V30 3832 C 357.879 1.67935 1.2791 0
M  V30 3833 O 357.227 1.01211 2.04862 0
M  V30 3834 C 357.437 3.44426 -0.563171 0
M  V30 3835 C 358.785 4.2144 -0.517046 0
M  V30 3836 O 359.809 3.52661 -0.500846 0
M  V30 3837 O 358.668 5.44032 -0.518806 0
M  V30 3838 H 355.762 0.825879 -0.043047 0
M  V30 3839 H 358.308 1.48429 -0.822618 0
M  V30 3840 H 357.08 3.5712 -1.59941 0
M  V30 3841 H 356.703 3.97543 0.0672883 0
M  V30 3842 N 357.7 0.491464 1.49741 0
M  V30 3843 C 358.648 -0.305837 2.30581 0
M  V30 3844 C 359.642 -0.971642 1.38764 0
M  V30 3845 O 360.848 -0.90042 1.5586 0
M  V30 3846 H 357.223 -0.117482 0.742767 0
M  V30 3847 H 359.194 0.396093 2.95759 0
M  V30 3848 C 357.943 -1.36319 3.19863 0
M  V30 3849 H 357.266 -0.860258 3.90435 0
M  V30 3850 H 358.706 -1.89323 3.79385 0
M  V30 3851 C 357.165 -2.37621 2.38826 0
M  V30 3852 O 357.695 -3.43311 2.08567 0
M  V30 3853 N 355.901 -2.09849 2.01026 0
M  V30 3854 H 355.448 -1.23922 2.25834 0
M  V30 3855 H 355.406 -2.77859 1.47112 0
M  V30 3856 N 359.178 -1.55987 0.224894 0
M  V30 3857 C 360.128 -2.17076 -0.697296 0
M  V30 3858 C 361.112 -1.12006 -1.15514 0
M  V30 3859 O 362.304 -1.37985 -1.10857 0
M  V30 3860 C 359.433 -2.85679 -1.90374 0
M  V30 3861 C 358.519 -3.97977 -1.46543 0
M  V30 3862 N 358.91 -5.00359 -0.739909 0
M  V30 3863 C 357.208 -4.10128 -1.75245 0
M  V30 3864 C 357.909 -5.79407 -0.515939 0
M  V30 3865 N 356.885 -5.32892 -1.07364 0
M  V30 3866 H 360.687 -2.93592 -0.134594 0
M  V30 3867 H 358.201 -1.62379 0.0262885 0
M  V30 3868 H 360.198 -3.27857 -2.57518 0
M  V30 3869 H 358.858 -2.1066 -2.47088 0
M  V30 3870 H 359.869 -5.16412 -0.392253 0
M  V30 3871 H 356.546 -3.46263 -2.33255 0
M  V30 3872 H 357.936 -6.71872 0.0617349 0
M  V30 3873 N 360.656 0.0484629 -1.57525 0
M  V30 3874 C 361.905 0.742065 -1.87553 0
M  V30 3875 C 362.218 1.77545 -0.820802 0
M  V30 3876 O 363.424 2.52027 -1.00967 0
M  V30 3877 C 361.88 1.37081 -3.32771 0
M  V30 3878 C 361.488 0.374786 -4.4643 0
M  V30 3879 C 363.232 2.04542 -3.71972 0
M  V30 3880 C 361.139 1.01077 -5.82698 0
M  V30 3881 H 360.069 0.280903 -0.699721 0
M  V30 3882 H 362.72 -0.00411877 -1.835 0
M  V30 3883 H 361.102 2.16605 -3.31509 0
M  V30 3884 H 362.276 -0.392331 -4.59127 0
M  V30 3885 H 360.591 -0.196653 -4.15935 0
M  V30 3886 H 363.188 2.52943 -4.71088 0
M  V30 3887 H 363.531 2.85515 -3.02964 0
M  V30 3888 H 364.064 1.31819 -3.75325 0
M  V30 3889 H 360.803 0.240878 -6.55057 0
M  V30 3890 H 360.323 1.74819 -5.73758 0
M  V30 3891 H 362.002 1.52383 -6.28799 0
M  V30 3892 N 362.134 1.5431 0.320358 0
M  V30 3893 C 363.084 1.803 1.39556 0
M  V30 3894 C 364.068 0.659166 1.46778 0
M  V30 3895 O 365.26 0.91926 1.51257 0
M  V30 3896 C 362.389 2.03665 2.76361 0
M  V30 3897 C 361.475 3.24178 2.73439 0
M  V30 3898 N 361.866 4.4516 2.40137 0
M  V30 3899 C 360.164 3.25816 3.04565 0
M  V30 3900 C 360.865 5.27109 2.4603 0
M  V30 3901 N 359.841 4.64368 2.82601 0
M  V30 3902 H 363.643 2.71416 1.12742 0
M  V30 3903 H 361.157 1.53548 0.528856 0
M  V30 3904 H 363.154 2.20425 3.53862 0
M  V30 3905 H 361.814 1.13805 3.04103 0
M  V30 3906 H 362.825 4.72104 2.12927 0
M  V30 3907 H 359.502 2.46001 3.37328 0
M  V30 3908 H 360.892 6.33728 2.23246 0
M  V30 3909 N 363.613 -0.582584 1.46437 0
M  V30 3910 C 364.543 -1.70187 1.59871 0
M  V30 3911 C 365.524 -1.64066 0.449042 0
M  V30 3912 O 366.709 -1.82081 0.6753 0
M  V30 3913 C 363.839 -3.08827 1.58881 0
M  V30 3914 C 362.793 -3.29779 2.72819 0
M  V30 3915 C 362.119 -4.68947 2.5689 0
M  V30 3916 C 363.419 -3.17601 4.1464 0
M  V30 3917 H 365.113 -1.592 2.53566 0
M  V30 3918 H 362.659 -0.764472 1.22032 0
M  V30 3919 H 364.612 -3.86951 1.66873 0
M  V30 3920 H 363.336 -3.20713 0.617306 0
M  V30 3921 H 361.995 -2.54054 2.64296 0
M  V30 3922 H 361.643 -4.77599 1.57823 0
M  V30 3923 H 361.343 -4.83919 3.33312 0
M  V30 3924 H 362.867 -5.4924 2.66773 0
M  V30 3925 H 364.281 -3.8557 4.24274 0
M  V30 3926 H 362.678 -3.44094 4.9165 0
M  V30 3927 H 363.748 -2.14681 4.34788 0
M  V30 3928 N 365.091 -1.34144 -0.827227 0
M  V30 3929 C 366.34 -1.25602 -1.5782 0
M  V30 3930 C 366.653 0.173445 -1.94829 0
M  V30 3931 O 367.859 0.380984 -2.68814 0
M  V30 3932 C 366.315 -2.20151 -2.84713 0
M  V30 3933 C 365.923 -3.68331 -2.55021 0
M  V30 3934 C 367.667 -2.20508 -3.62735 0
M  V30 3935 C 365.574 -4.54762 -3.78082 0
M  V30 3936 H 364.504 -0.466573 -0.592306 0
M  V30 3937 H 367.155 -1.59283 -0.911116 0
M  V30 3938 H 365.537 -1.79417 -3.53023 0
M  V30 3939 H 366.711 -4.17577 -1.94849 0
M  V30 3940 H 365.026 -3.7038 -1.90283 0
M  V30 3941 H 367.623 -2.82306 -4.54101 0
M  V30 3942 H 367.966 -1.20322 -3.98533 0
M  V30 3943 H 368.499 -2.59664 -3.01362 0
M  V30 3944 H 365.238 -5.55867 -3.47407 0
M  V30 3945 H 364.758 -4.10254 -4.37552 0
M  V30 3946 H 366.437 -4.69153 -4.45538 0
M  V30 3947 N 366.569 1.04691 -1.17803 0
M  V30 3948 C 367.517 2.14665 -0.895635 0
M  V30 3949 C 368.511 1.68806 0.141679 0
M  V30 3950 O 369.717 1.79999 -0.00587914 0
M  V30 3951 H 366.092 0.701038 -0.272121 0
M  V30 3952 H 368.063 2.35685 -1.83017 0
M  V30 3953 C 366.812 3.45019 -0.430962 0
M  V30 3954 H 366.135 3.8071 -1.22064 0
M  V30 3955 H 367.575 4.23125 -0.272301 0
M  V30 3956 C 366.034 3.25943 0.852207 0
M  V30 3957 O 366.564 3.5296 1.91786 0
M  V30 3958 N 364.77 2.79304 0.802346 0
M  V30 3959 H 364.317 2.57518 -0.0650788 0
M  V30 3960 H 364.275 2.66921 1.66134 0
M  V30 3961 N 368.047 0.979072 1.23499 0
M  V30 3962 C 369.458 0.684391 1.73704 0
M  V30 3963 C 369.809 -0.799448 1.79174 0
M  V30 3964 O 368.934 -1.62531 1.42873 0
M  V30 3965 C 369.529 1.23564 3.15464 0
M  V30 3966 C 368.088 0.99063 3.6313 0
M  V30 3967 C 367.235 1.36416 2.41425 0
M  V30 3968 H 370.186 1.15307 1.09041 0
M  V30 3969 H 370.207 0.607417 3.7562 0
M  V30 3970 H 369.719 2.31561 3.1145 0
M  V30 3971 H 367.82 -0.0733136 3.72528 0
M  V30 3972 H 367.933 1.64427 4.5 0
M  V30 3973 H 366.297 0.782616 2.42378 0
M  V30 3974 H 367.08 2.45387 2.40083 0
M  V30 3975 N 369.525 -1.3858 0.750561 0
M  V30 3976 C 370.753 -2.04471 0.316098 0
M  V30 3977 C 371.168 -1.56606 -1.05452 0
M  V30 3978 O 370.525 -0.737784 -1.66922 0
M  V30 3979 C 370.576 -3.60025 0.326275 0
M  V30 3980 O 370.297 -4.06133 1.6428 0
M  V30 3981 C 371.798 -4.43131 -0.122429 0
M  V30 3982 H 369.018 -0.65717 0.135528 0
M  V30 3983 H 371.562 -1.77329 1.01857 0
M  V30 3984 H 369.717 -3.86014 -0.327431 0
M  V30 3985 H 370.131 -5.00547 1.56693 0
M  V30 3986 H 371.605 -5.51963 -0.0641473 0
M  V30 3987 H 372.082 -4.23333 -1.16988 0
M  V30 3988 H 372.688 -4.22323 0.50229 0
M  V30 3989 N 371.003 -0.499398 -1.49478 0
M  V30 3990 C 372.28 0.108629 -1.95298 0
M  V30 3991 C 372.66 1.54282 -1.44084 0
M  V30 3992 O 372.008 2.18944 -0.653908 0
M  V30 3993 C 372.218 0.0229111 -3.48992 0
M  V30 3994 C 373.566 0.197643 -4.2414 0
M  V30 3995 O 374.59 0.0981735 -3.56065 0
M  V30 3996 O 373.449 0.401669 -5.45022 0
M  V30 3997 H 370.543 0.096181 -0.821388 0
M  V30 3998 H 373.089 -0.561822 -1.6013 0
M  V30 3999 H 371.861 -0.977321 -3.78899 0
M  V30 4000 H 371.484 0.733579 -3.90774 0
M  V30 4001 N 372.481 1.55866 -0.233164 0
M  V30 4002 C 373.391 2.24431 0.683217 0
M  V30 4003 C 374.407 1.2558 1.2044 0
M  V30 4004 O 375.583 1.58422 1.24356 0
M  V30 4005 C 372.648 2.91979 1.86947 0
M  V30 4006 C 371.709 4.06204 1.38912 0
M  V30 4007 C 370.942 4.70522 2.51883 0
M  V30 4008 O 371.165 4.33865 3.70293 0
M  V30 4009 O 370.099 5.59296 2.22423 0
M  V30 4010 H 373.925 3.03426 0.129059 0
M  V30 4011 H 371.51 1.494 -0.0022283 0
M  V30 4012 H 373.392 3.34573 2.56201 0
M  V30 4013 H 372.067 2.15935 2.41151 0
M  V30 4014 H 370.974 3.68155 0.664259 0
M  V30 4015 H 372.307 4.84025 0.893328 0
M  V30 4016 N 373.959 -0.0401083 1.57549 0
M  V30 4017 C 375.187 -0.745196 1.93014 0
M  V30 4018 C 375.602 -1.6948 0.831984 0
M  V30 4019 O 374.959 -1.81482 -0.192463 0
M  V30 4020 C 375.01 -1.51176 3.28372 0
M  V30 4021 O 374.731 -0.600284 4.33968 0
M  V30 4022 C 376.232 -2.315 3.78051 0
M  V30 4023 H 373.452 -0.210088 0.637263 0
M  V30 4024 H 375.996 -0.000924689 2.045 0
M  V30 4025 H 374.151 -2.20801 3.18317 0
M  V30 4026 H 374.565 -1.13669 5.12035 0
M  V30 4027 H 376.039 -2.80697 4.75303 0
M  V30 4028 H 376.516 -3.12436 3.08675 0
M  V30 4029 H 377.122 -1.66971 3.91153 0
M  V30 4030 N 375.437 -1.54477 -0.31217 0
M  V30 4031 C 376.367 -1.87652 -1.38957 0
M  V30 4032 C 377.348 -0.734358 -1.53431 0
M  V30 4033 O 378.533 -0.98911 -1.67123 0
M  V30 4034 C 375.663 -2.11396 -2.75552 0
M  V30 4035 C 374.617 -3.27243 -2.75855 0
M  V30 4036 C 373.943 -3.36382 -4.15633 0
M  V30 4037 C 375.243 -4.64622 -2.38587 0
M  V30 4038 H 376.937 -2.77887 -1.11442 0
M  V30 4039 H 374.483 -1.33707 -0.534655 0
M  V30 4040 H 376.436 -2.33189 -3.51 0
M  V30 4041 H 375.16 -1.17921 -3.04569 0
M  V30 4042 H 373.819 -3.05356 -2.02863 0
M  V30 4043 H 373.467 -2.40445 -4.41809 0
M  V30 4044 H 373.167 -4.14249 -4.1674 0
M  V30 4045 H 374.691 -3.60422 -4.92877 0
M  V30 4046 H 376.105 -4.86219 -3.03749 0
M  V30 4047 H 374.502 -5.45121 -2.50925 0
M  V30 4048 H 375.572 -4.66097 -1.33723 0
M  V30 4049 N 376.915 0.57481 -1.46744 0
M  V30 4050 C 378.162 1.33272 -1.52462 0
M  V30 4051 C 378.49 1.93669 -0.179572 0
M  V30 4052 O 377.745 1.7743 0.825664 0
M  V30 4053 C 378.044 2.476 -2.57738 0
M  V30 4054 C 377.71 2.05146 -4.01529 0
M  V30 4055 C 376.372 1.93284 -4.40676 0
M  V30 4056 C 378.724 1.72506 -4.91824 0
M  V30 4057 C 376.052 1.47049 -5.67973 0
M  V30 4058 C 378.404 1.27748 -6.19567 0
M  V30 4059 C 377.068 1.14468 -6.57612 0
M  V30 4060 H 376.338 0.487678 -0.557899 0
M  V30 4061 H 378.985 0.646456 -1.80259 0
M  V30 4062 H 377.29 3.21708 -2.23632 0
M  V30 4063 H 378.987 3.05807 -2.5939 0
M  V30 4064 H 375.577 2.15316 -3.7059 0
M  V30 4065 H 379.761 1.80552 -4.62293 0
M  V30 4066 H 375.017 1.35417 -5.96215 0
M  V30 4067 H 379.191 1.01547 -6.88957 0
M  V30 4068 H 376.818 0.78419 -7.56145 0
M  V30 4069 N 378.394 1.34581 0.820102 0
M  V30 4070 C 379.805 1.24298 1.39309 0
M  V30 4071 C 380.156 -0.130351 1.95767 0
M  V30 4072 O 379.281 -1.0308 1.90272 0
M  V30 4073 C 379.876 2.25054 2.53251 0
M  V30 4074 C 378.435 2.18552 3.0645 0
M  V30 4075 C 377.582 2.11503 1.79337 0
M  V30 4076 H 380.533 1.45906 0.624262 0
M  V30 4077 H 380.554 1.86917 3.31425 0
M  V30 4078 H 380.066 3.24996 2.1213 0
M  V30 4079 H 378.167 1.21976 3.52069 0
M  V30 4080 H 378.28 3.0993 3.65349 0
M  V30 4081 H 376.644 1.57268 2.00347 0
M  V30 4082 H 377.427 3.13284 1.40386 0
M  V30 4083 N 379.872 -1.04064 1.18357 0
M  V30 4084 C 381.12 -1.76915 0.977013 0
M  V30 4085 C 381.441 -1.88624 -0.494577 0
M  V30 4086 O 380.711 -1.41125 -1.3587 0
M  V30 4087 H 379.291 -0.65535 0.358504 0
M  V30 4088 H 381.953 -1.25592 1.49039 0
M  V30 4089 H 381.049 -2.78178 1.41504 0
M  V30 4090 N 381.35 -0.985608 -1.22978 0
M  V30 4091 C 382.599 -0.652881 -1.90841 0
M  V30 4092 C 382.912 0.817842 -1.77681 0
M  V30 4093 O 384.118 1.26185 -2.40395 0
M  V30 4094 C 382.574 -1.11717 -3.42122 0
M  V30 4095 C 382.182 -2.6126 -3.63933 0
M  V30 4096 C 383.926 -0.85843 -4.1573 0
M  V30 4097 C 381.833 -3.0133 -5.08876 0
M  V30 4098 H 380.763 -0.240491 -0.714619 0
M  V30 4099 H 383.414 -1.1942 -1.39324 0
M  V30 4100 H 381.796 -0.504027 -3.92779 0
M  V30 4101 H 382.97 -3.27858 -3.23799 0
M  V30 4102 H 381.285 -2.84937 -3.03644 0
M  V30 4103 H 383.882 -1.13359 -5.22546 0
M  V30 4104 H 384.225 0.205461 -4.15793 0
M  V30 4105 H 384.758 -1.43341 -3.71077 0
M  V30 4106 H 381.497 -4.06864 -5.13947 0
M  V30 4107 H 381.017 -2.3943 -5.49939 0
M  V30 4108 H 382.696 -2.92224 -5.77247 0
M  V30 4109 N 382.828 1.3818 -0.7579 0
M  V30 4110 C 383.776 2.32277 -0.122482 0
M  V30 4111 C 384.77 1.54238 0.700505 0
M  V30 4112 O 385.976 1.69737 0.599119 0
M  V30 4113 H 382.351 0.751712 -0.0208143 0
M  V30 4114 H 384.322 2.83469 -0.932099 0
M  V30 4115 C 383.071 3.39447 0.753076 0
M  V30 4116 H 382.394 3.99591 0.129184 0
M  V30 4117 H 383.834 4.07684 1.16489 0
M  V30 4118 C 382.293 2.78375 1.8976 0
M  V30 4119 O 382.823 2.68025 2.99208 0
M  V30 4120 N 381.029 2.36121 1.69397 0
M  V30 4121 H 380.576 2.4474 0.803762 0
M  V30 4122 H 380.534 1.95602 2.46145 0
M  V30 4123 N 384.306 0.507319 1.49211 0
M  V30 4124 C 385.531 -0.033725 2.07373 0
M  V30 4125 C 385.956 -1.29485 1.36437 0
M  V30 4126 O 385.314 -1.76294 0.423087 0
M  V30 4127 C 385.362 -0.263945 3.59633 0
M  V30 4128 O 384.466 -1.33737 3.90113 0
M  V30 4129 H 383.807 0.0290331 0.663365 0
M  V30 4130 H 386.337 0.708749 1.91932 0
M  V30 4131 H 386.347 -0.493536 4.05004 0
M  V30 4132 H 385.022 0.657424 4.10671 0
M  V30 4133 H 383.599 -1.09224 3.56545 0
M  V30 4134 N 385.784 -1.5574 0.241426 0
M  V30 4135 C 386.731 -2.21149 -0.660432 0
M  V30 4136 C 387.701 -1.17356 -1.17545 0
M  V30 4137 O 388.886 -1.45784 -1.23093 0
M  V30 4138 C 386.026 -2.91059 -1.85414 0
M  V30 4139 C 385.139 -4.09495 -1.37616 0
M  V30 4140 C 384.274 -4.67135 -2.529 0
M  V30 4141 C 383.313 -5.77831 -2.01936 0
M  V30 4142 N 382.45 -6.29677 -3.10566 0
M  V30 4143 H 387.29 -2.97845 -0.095955 0
M  V30 4144 H 384.827 -1.47057 -0.0356024 0
M  V30 4145 H 386.785 -3.29788 -2.5553 0
M  V30 4146 H 385.415 -2.16846 -2.39118 0
M  V30 4147 H 384.467 -3.76117 -0.569235 0
M  V30 4148 H 385.779 -4.89423 -0.962618 0
M  V30 4149 H 384.933 -5.08409 -3.31067 0
M  V30 4150 H 383.672 -3.86411 -2.97553 0
M  V30 4151 H 382.677 -5.36039 -1.22238 0
M  V30 4152 H 383.902 -6.60402 -1.58259 0
M  V30 4153 H 381.848 -5.5186 -3.54664 0
M  V30 4154 H 381.765 -7.04783 -2.73526 0
M  V30 4155 H 383.033 -6.75609 -3.88809 0
M  V30 4156 N 387.262 0.0317525 -1.57568 0
M  V30 4157 C 388.225 1.01783 -2.0536 0
M  V30 4158 C 389.225 1.29203 -0.957253 0
M  V30 4159 O 390.415 1.24251 -1.22095 0
M  V30 4160 C 387.547 2.35137 -2.46827 0
M  V30 4161 H 388.74 0.605062 -2.93733 0
M  V30 4162 H 386.293 0.278514 -1.53799 0
M  V30 4163 H 387.028 2.81168 -1.61602 0
M  V30 4164 H 386.813 2.16566 -3.26866 0
M  V30 4165 H 388.303 3.05938 -2.84239 0
M  V30 4166 N 388.74 1.54641 0.303973 0
M  V30 4167 C 389.687 1.85386 1.37479 0
M  V30 4168 C 390.657 0.702528 1.50512 0
M  V30 4169 O 391.842 0.950867 1.65418 0
M  V30 4170 C 388.982 2.10413 2.73533 0
M  V30 4171 C 388.095 3.38049 2.68974 0
M  V30 4172 C 387.23 3.52934 3.97002 0
M  V30 4173 C 386.269 4.74373 3.86829 0
M  V30 4174 N 385.406 4.8608 5.06627 0
M  V30 4175 H 390.246 2.76732 1.1056 0
M  V30 4176 H 387.783 1.37034 0.534805 0
M  V30 4177 H 389.741 2.22919 3.52652 0
M  V30 4178 H 388.371 1.22338 2.98719 0
M  V30 4179 H 387.423 3.3418 1.81736 0
M  V30 4180 H 388.735 4.27288 2.57346 0
M  V30 4181 H 387.889 3.65088 4.84557 0
M  V30 4182 H 386.628 2.61824 4.1146 0
M  V30 4183 H 385.633 4.62255 2.97658 0
M  V30 4184 H 386.858 5.66888 3.73918 0
M  V30 4185 H 384.804 3.97891 5.21554 0
M  V30 4186 H 384.721 5.69315 4.9741 0
M  V30 4187 H 385.989 5.02587 5.95841 0
M  V30 4188 N 390.218 -0.567019 1.47046 0
M  V30 4189 C 391.128 -1.70247 1.6141 0
M  V30 4190 C 392.144 -1.66746 0.497157 0
M  V30 4191 O 393.32 -1.86371 0.763389 0
M  V30 4192 C 390.385 -3.06756 1.61561 0
M  V30 4193 C 389.446 -3.21399 2.84607 0
M  V30 4194 C 388.679 -4.51396 2.84741 0
M  V30 4195 O 388.902 -5.36255 1.94388 0
M  V30 4196 O 387.836 -4.69621 3.76483 0
M  V30 4197 H 391.662 -1.61073 2.57467 0
M  V30 4198 H 389.247 -0.735894 1.30019 0
M  V30 4199 H 391.129 -3.8801 1.64396 0
M  V30 4200 H 389.804 -3.16333 0.686684 0
M  V30 4201 H 388.711 -2.39579 2.8732 0
M  V30 4202 H 390.044 -3.16721 3.76761 0
M  V30 4203 N 391.696 -1.35014 -0.812953 0
M  V30 4204 C 392.626 -1.30069 -1.93919 0
M  V30 4205 C 393.607 -0.176275 -1.69184 0
M  V30 4206 O 394.792 -0.370227 -1.90638 0
M  V30 4207 C 391.922 -1.06547 -3.30552 0
M  V30 4208 C 390.876 -2.15561 -3.69753 0
M  V30 4209 C 390.202 -1.77214 -5.04479 0
M  V30 4210 C 391.502 -3.57476 -3.808 0
M  V30 4211 H 393.196 -2.24303 -1.98314 0
M  V30 4212 H 390.742 -1.07977 -0.952736 0
M  V30 4213 H 392.695 -1.01729 -4.08937 0
M  V30 4214 H 391.419 -0.0875719 -3.26483 0
M  V30 4215 H 390.078 -2.19466 -2.9365 0
M  V30 4216 H 389.726 -0.780589 -4.96906 0
M  V30 4217 H 389.426 -2.50184 -5.31678 0
M  V30 4218 H 390.95 -1.7391 -5.8531 0
M  V30 4219 H 392.364 -3.55929 -4.4943 0
M  V30 4220 H 390.761 -4.29152 -4.19462 0
M  V30 4221 H 391.831 -3.94091 -2.82525 0
M  V30 4222 N 393.175 1.03435 -1.18907 0
M  V30 4223 C 394.107 2.1165 -0.879595 0
M  V30 4224 C 395.12 1.62316 0.125439 0
M  V30 4225 O 396.309 1.78201 -0.103245 0
M  V30 4226 C 393.409 3.37622 -0.294042 0
M  V30 4227 C 392.582 4.16166 -1.34629 0
M  V30 4228 C 391.641 5.20457 -0.775274 0
M  V30 4229 O 390.667 5.50379 -1.4516 0
M  V30 4230 N 391.869 5.78949 0.424126 0
M  V30 4231 H 394.634 2.38791 -1.81105 0
M  V30 4232 H 392.195 1.19681 -1.09032 0
M  V30 4233 H 394.187 4.04572 0.101679 0
M  V30 4234 H 392.757 3.07873 0.541575 0
M  V30 4235 H 391.977 3.44444 -1.91707 0
M  V30 4236 H 393.265 4.65432 -2.05549 0
M  V30 4237 H 392.663 5.56948 0.991209 0
M  V30 4238 H 391.22 6.47334 0.761691 0
M  V30 4239 N 394.653 0.992116 1.22453 0
M  V30 4240 C 395.881 0.685944 1.95198 0
M  V30 4241 C 396.296 -0.749233 1.73297 0
M  V30 4242 O 395.653 -1.50549 1.03156 0
M  V30 4243 C 395.704 0.981395 3.47924 0
M  V30 4244 O 395.425 2.36018 3.6909 0
M  V30 4245 C 396.926 0.692815 4.37853 0
M  V30 4246 H 394.146 0.253821 0.621141 0
M  V30 4247 H 396.69 1.32668 1.55626 0
M  V30 4248 H 394.845 0.386481 3.85467 0
M  V30 4249 H 395.259 2.45884 4.63294 0
M  V30 4250 H 396.733 0.949818 5.43767 0
M  V30 4251 H 397.21 -0.373181 4.37612 0
M  V30 4252 H 397.816 1.26874 4.05935 0
M  V30 4253 N 396.131 -1.37776 0.765217 0
M  V30 4254 C 397.377 -2.00604 0.336066 0
M  V30 4255 C 397.732 -1.59657 -1.07366 0
M  V30 4256 O 397.025 -0.829565 -1.7271 0
M  V30 4257 C 397.219 -3.5504 0.410053 0
M  V30 4258 C 397.048 -4.10985 1.82542 0
M  V30 4259 C 395.818 -4.42229 2.44461 0
M  V30 4260 C 398.016 -4.32438 2.78392 0
M  V30 4261 N 395.998 -4.8385 3.77839 0
M  V30 4262 C 397.369 -4.76596 3.96556 0
M  V30 4263 C 399.424 -4.14559 2.75764 0
M  V30 4264 C 398.127 -5.04748 5.12466 0
M  V30 4265 C 400.153 -4.43843 3.90842 0
M  V30 4266 C 399.515 -4.88235 5.07746 0
M  V30 4267 H 395.614 -0.763325 0.169881 0
M  V30 4268 H 398.198 -1.67197 0.997656 0
M  V30 4269 H 396.369 -3.87769 -0.221325 0
M  V30 4270 H 398.101 -4.0468 -0.0405285 0
M  V30 4271 H 394.856 -4.31079 1.96131 0
M  V30 4272 H 395.28 -5.08979 4.46396 0
M  V30 4273 H 399.922 -3.79415 1.86558 0
M  V30 4274 H 397.64 -5.38783 6.02277 0
M  V30 4275 H 401.226 -4.31603 3.90141 0
M  V30 4276 H 400.106 -5.10461 5.95315 0
M  V30 4277 N 397.609 -0.515225 -1.4894 0
M  V30 4278 C 398.519 0.259774 -2.33157 0
M  V30 4279 C 399.535 0.953501 -1.45548 0
M  V30 4280 O 400.711 0.931735 -1.78552 0
M  V30 4281 C 397.776 1.30193 -3.21326 0
M  V30 4282 C 396.837 0.620129 -4.24797 0
M  V30 4283 C 396.07 1.61263 -5.08753 0
M  V30 4284 O 396.293 2.84389 -4.94448 0
M  V30 4285 O 395.227 1.16013 -5.90614 0
M  V30 4286 H 399.053 -0.429932 -3.00641 0
M  V30 4287 H 396.638 -0.276346 -1.46822 0
M  V30 4288 H 398.52 1.90455 -3.75905 0
M  V30 4289 H 397.195 1.97431 -2.56521 0
M  V30 4290 H 396.102 -0.0226019 -3.74093 0
M  V30 4291 H 397.435 -0.0100493 -4.92199 0
M  V30 4292 N 399.087 1.5561 -0.249682 0
M  V30 4293 C 400.333 2.00044 0.367952 0
M  V30 4294 C 400.688 1.1349 1.55363 0
M  V30 4295 O 399.981 0.191079 1.90645 0
M  V30 4296 C 400.175 3.4775 0.824887 0
M  V30 4297 C 400.004 4.48596 -0.314973 0
M  V30 4298 C 398.774 4.99077 -0.790555 0
M  V30 4299 C 400.972 5.0144 -1.14291 0
M  V30 4300 N 398.954 5.83675 -1.90254 0
M  V30 4301 C 400.325 5.83236 -2.10322 0
M  V30 4302 C 402.38 4.83736 -1.17916 0
M  V30 4303 C 401.083 6.49217 -3.09692 0
M  V30 4304 C 403.109 5.50497 -2.16117 0
M  V30 4305 C 402.471 6.32084 -3.10884 0
M  V30 4306 H 398.57 0.775512 0.100522 0
M  V30 4307 H 401.154 1.91193 -0.367896 0
M  V30 4308 H 399.325 3.56994 1.53002 0
M  V30 4309 H 401.057 3.79056 1.4177 0
M  V30 4310 H 397.812 4.72119 -0.374218 0
M  V30 4311 H 398.236 6.30671 -2.46137 0
M  V30 4312 H 402.878 4.20286 -0.460352 0
M  V30 4313 H 400.596 7.11832 -3.8252 0
M  V30 4314 H 404.182 5.38752 -2.19631 0
M  V30 4315 H 403.062 6.82832 -3.8563 0
M  V30 4316 N 400.565 -0.0233959 1.57583 0
M  V30 4317 C 401.814 -0.712133 1.8871 0
M  V30 4318 C 402.127 -1.76217 0.848944 0
M  V30 4319 O 403.333 -2.50389 1.04964 0
M  V30 4320 C 401.789 -1.3177 3.3491 0
M  V30 4321 C 401.397 -0.303715 4.46969 0
M  V30 4322 C 403.141 -1.98598 3.75179 0
M  V30 4323 C 401.048 -0.917945 5.84233 0
M  V30 4324 H 399.978 -0.269735 0.704101 0
M  V30 4325 H 402.629 0.0333114 1.8347 0
M  V30 4326 H 401.011 -2.11304 3.34913 0
M  V30 4327 H 402.185 0.465325 4.58445 0
M  V30 4328 H 400.5 0.2628 4.1557 0
M  V30 4329 H 403.097 -2.45416 4.75053 0
M  V30 4330 H 403.44 -2.80659 3.07468 0
M  V30 4331 H 403.973 -1.25831 3.77374 0
M  V30 4332 H 400.712 -0.136633 6.55358 0
M  V30 4333 H 400.232 -1.65669 5.76467 0
M  V30 4334 H 401.911 -1.4236 6.31144 0
M  V30 4335 N 402.043 -1.548 -0.295768 0
M  V30 4336 C 403.273 -1.78069 -1.04762 0
M  V30 4337 C 403.681 -0.542847 -1.81245 0
M  V30 4338 O 403.024 0.497051 -1.76848 0
M  V30 4339 C 403.086 -2.93881 -2.07061 0
M  V30 4340 C 402.75 -4.31777 -1.49725 0
M  V30 4341 C 403.747 -5.11613 -0.924581 0
M  V30 4342 C 401.432 -4.78389 -1.5313 0
M  V30 4343 C 403.426 -6.36184 -0.393594 0
M  V30 4344 C 401.113 -6.02921 -0.996447 0
M  V30 4345 C 402.111 -6.81654 -0.428569 0
M  V30 4346 O 401.799 -8.0384 0.0981593 0
M  V30 4347 H 401.531 -0.597475 -0.316226 0
M  V30 4348 H 404.085 -2.02584 -0.338973 0
M  V30 4349 H 402.315 -2.65003 -2.81621 0
M  V30 4350 H 404.004 -3.04679 -2.6819 0
M  V30 4351 H 404.77 -4.76743 -0.891136 0
M  V30 4352 H 400.649 -4.17132 -1.9627 0
M  V30 4353 H 404.193 -6.97582 0.0503014 0
M  V30 4354 H 400.09 -6.37277 -1.02706 0
M  V30 4355 H 400.858 -8.18499 -0.0146455 0
M  V30 4356 N 403.521 0.559213 -1.47345 0
M  V30 4357 C 404.769 1.31388 -1.53563 0
M  V30 4358 C 405.09 1.93985 -0.198678 0
M  V30 4359 O 404.36 1.79825 0.777167 0
M  V30 4360 H 402.94 0.487901 -0.565652 0
M  V30 4361 H 405.602 0.65315 -1.8363 0
M  V30 4362 H 404.698 2.10844 -2.30111 0
M  V30 4363 N 404.999 1.35443 0.805782 0
M  V30 4364 C 405.946 1.28431 1.91766 0
M  V30 4365 C 406.916 0.156102 1.65365 0
M  V30 4366 O 408.101 0.339936 1.87747 0
M  V30 4367 C 405.241 1.06301 3.2832 0
M  V30 4368 C 404.354 2.2805 3.66902 0
M  V30 4369 C 403.489 1.99064 4.92491 0
M  V30 4370 C 402.528 3.16863 5.23703 0
M  V30 4371 N 401.665 2.87647 6.40471 0
M  V30 4372 H 406.505 2.23511 1.97096 0
M  V30 4373 H 404.042 1.11105 0.964054 0
M  V30 4374 H 406 0.915012 4.07042 0
M  V30 4375 H 404.63 0.148822 3.22457 0
M  V30 4376 H 403.682 2.53711 2.83434 0
M  V30 4377 H 404.994 3.1601 3.85927 0
M  V30 4378 H 404.148 1.81099 5.7904 0
M  V30 4379 H 402.887 1.0839 4.75503 0
M  V30 4380 H 401.892 3.35404 4.35642 0
M  V30 4381 H 403.117 4.08339 5.4262 0
M  V30 4382 H 401.063 1.99568 6.24907 0
M  V30 4383 H 400.98 3.69141 6.59751 0
M  V30 4384 H 402.248 2.73226 7.30047 0
M  V30 4385 N 406.477 -1.02803 1.19454 0
M  V30 4386 C 407.705 -1.79841 1.02297 0
M  V30 4387 C 408.12 -1.83879 -0.428259 0
M  V30 4388 O 407.477 -1.28345 -1.29745 0
M  V30 4389 C 407.528 -3.24852 1.58598 0
M  V30 4390 O 407.249 -3.21097 2.98041 0
M  V30 4391 C 408.75 -4.18485 1.46236 0
M  V30 4392 H 405.97 -0.565936 0.360496 0
M  V30 4393 H 408.514 -1.2948 1.58288 0
M  V30 4394 H 406.669 -3.72401 1.06753 0
M  V30 4395 H 407.083 -4.12033 3.24545 0
M  V30 4396 H 408.557 -5.18121 1.90407 0
M  V30 4397 H 409.034 -4.37254 0.41301 0
M  V30 4398 H 409.64 -3.76811 1.97215 0
M  V30 4399 N 407.956 -0.998596 -1.21925 0
M  V30 4400 C 409.367 -0.711939 -1.72593 0
M  V30 4401 C 409.718 0.770842 -1.80423 0
M  V30 4402 O 408.843 1.60237 -1.4544 0
M  V30 4403 C 409.438 -1.28567 -3.13458 0
M  V30 4404 C 407.997 -1.04828 -3.61508 0
M  V30 4405 C 407.144 -1.4024 -2.39224 0
M  V30 4406 H 410.095 -1.17027 -1.07193 0
M  V30 4407 H 410.116 -0.667098 -3.74607 0
M  V30 4408 H 409.628 -2.36486 -3.07727 0
M  V30 4409 H 407.729 0.0140383 -3.72597 0
M  V30 4410 H 407.842 -1.71566 -4.47328 0
M  V30 4411 H 406.206 -0.821077 -2.41103 0
M  V30 4412 H 406.989 -2.49176 -2.36149 0
M  V30 4413 N 409.434 1.37368 -0.772513 0
M  V30 4414 C 410.381 2.30262 -0.157488 0
M  V30 4415 C 411.351 1.51137 0.688965 0
M  V30 4416 O 412.536 1.79704 0.641168 0
M  V30 4417 C 409.676 3.37611 0.715045 0
M  V30 4418 C 408.789 4.31746 -0.148098 0
M  V30 4419 C 407.924 5.26171 0.729213 0
M  V30 4420 C 406.963 6.11948 -0.136418 0
M  V30 4421 N 406.1 6.98613 0.698914 0
M  V30 4422 H 410.94 2.82277 -0.955179 0
M  V30 4423 H 408.477 1.38957 -0.482631 0
M  V30 4424 H 410.435 3.98479 1.23575 0
M  V30 4425 H 409.065 2.86959 1.47833 0
M  V30 4426 H 408.117 3.72178 -0.786613 0
M  V30 4427 H 409.429 4.92084 -0.81579 0
M  V30 4428 H 408.583 5.92247 1.31637 0
M  V30 4429 H 407.322 4.66246 1.43059 0
M  V30 4430 H 406.327 5.4485 -0.736102 0
M  V30 4431 H 407.552 6.73945 -0.835134 0
M  V30 4432 H 405.498 6.41215 1.38489 0
M  V30 4433 H 405.415 7.55948 0.0885358 0
M  V30 4434 H 406.683 7.69077 1.27044 0
M  V30 4435 N 410.912 0.523116 1.48665 0
M  V30 4436 C 412.159 -0.0134763 2.02496 0
M  V30 4437 C 412.487 -1.3493 1.40086 0
M  V30 4438 O 411.742 -1.88286 0.533567 0
M  V30 4439 C 412.041 -0.191671 3.56886 0
M  V30 4440 C 411.707 1.06893 4.38046 0
M  V30 4441 C 410.369 1.41443 4.59943 0
M  V30 4442 C 412.721 1.90584 4.85106 0
M  V30 4443 C 410.049 2.59594 5.26144 0
M  V30 4444 C 412.401 3.07907 5.52609 0
M  V30 4445 C 411.065 3.42811 5.72745 0
M  V30 4446 H 410.335 -0.00493133 0.740984 0
M  V30 4447 H 412.982 0.687751 1.78724 0
M  V30 4448 H 411.287 -0.97561 3.79459 0
M  V30 4449 H 412.984 -0.621659 3.96152 0
M  V30 4450 H 409.574 0.789848 4.21259 0
M  V30 4451 H 413.758 1.65203 4.67997 0
M  V30 4452 H 409.014 2.86847 5.39934 0
M  V30 4453 H 413.188 3.73066 5.88043 0
M  V30 4454 H 410.815 4.34462 6.23816 0
M  V30 4455 N 412.39 -1.55475 0.257931 0
M  V30 4456 C 413.615 -2.04064 -0.370488 0
M  V30 4457 C 414.04 -1.13565 -1.49948 0
M  V30 4458 O 413.398 -0.130781 -1.80828 0
M  V30 4459 C 413.446 -3.50554 -0.845237 0
M  V30 4460 O 412.55 -3.63173 -1.95394 0
M  V30 4461 H 411.891 -0.659257 -0.0792243 0
M  V30 4462 H 414.421 -2.00903 0.387212 0
M  V30 4463 H 414.431 -3.91588 -1.14555 0
M  V30 4464 H 413.106 -4.15896 -0.0191259 0
M  V30 4465 H 411.683 -3.34039 -1.65748 0
M  V30 4466 N 413.868 0.0150385 -1.57593 0
M  V30 4467 C 415.117 0.702115 -1.89085 0
M  V30 4468 C 415.43 1.75764 -0.858277 0
M  V30 4469 O 416.636 2.49829 -1.0629 0
M  V30 4470 C 415.092 1.29992 -3.35604 0
M  V30 4471 C 414.7 0.280007 -4.47124 0
M  V30 4472 C 416.444 1.96606 -3.76227 0
M  V30 4473 C 414.351 0.886949 -5.84711 0
M  V30 4474 H 413.281 0.265997 -0.705522 0
M  V30 4475 H 415.932 -0.0430408 -1.8345 0
M  V30 4476 H 414.314 2.09525 -3.36029 0
M  V30 4477 H 415.488 -0.489631 -4.58191 0
M  V30 4478 H 413.803 -0.284835 -4.15425 0
M  V30 4479 H 416.4 2.42893 -4.76347 0
M  V30 4480 H 416.743 2.79024 -3.08952 0
M  V30 4481 H 417.276 1.23828 -3.78036 0
M  V30 4482 H 414.015 0.101876 -6.55421 0
M  V30 4483 H 413.535 1.6261 -5.77337 0
M  V30 4484 H 415.214 1.39011 -6.3189 0
M  V30 4485 N 415.346 1.54954 0.287554 0
M  V30 4486 C 416.294 1.87606 1.37502 0
M  V30 4487 C 417.288 0.751001 1.51843 0
M  V30 4488 O 418.494 0.935169 1.53801 0
M  V30 4489 H 414.869 0.595231 0.459569 0
M  V30 4490 H 416.84 2.78477 1.07206 0
M  V30 4491 C 415.589 2.15183 2.73115 0
M  V30 4492 H 414.912 3.01234 2.62866 0
M  V30 4493 H 416.352 2.4196 3.48183 0
M  V30 4494 C 414.811 0.954686 3.2309 0
M  V30 4495 O 415.341 0.181949 4.01288 0
M  V30 4496 N 413.547 0.756368 2.80584 0
M  V30 4497 H 413.094 1.38643 2.17108 0
M  V30 4498 H 413.052 -0.0430391 3.14371 0
M  V30 4499 N 416.824 -0.551391 1.4764 0
M  V30 4500 C 418.052 -1.33357 1.58189 0
M  V30 4501 C 418.467 -1.87342 0.234199 0
M  V30 4502 O 417.824 -1.65301 -0.77343 0
M  V30 4503 C 417.875 -2.49942 2.61173 0
M  V30 4504 O 417.596 -1.98187 3.90709 0
M  V30 4505 C 419.097 -3.42072 2.8196 0
M  V30 4506 H 416.317 -0.40631 0.533998 0
M  V30 4507 H 418.861 -0.667367 1.93304 0
M  V30 4508 H 417.016 -3.12489 2.28975 0
M  V30 4509 H 417.43 -2.74342 4.47031 0
M  V30 4510 H 418.904 -4.20278 3.57869 0
M  V30 4511 H 419.381 -3.95978 1.89995 0
M  V30 4512 H 419.987 -2.85336 3.15378 0
M  V30 4513 N 418.302 -1.35869 -0.798587 0
M  V30 4514 C 419.527 -1.32883 -1.59238 0
M  V30 4515 C 419.952 0.0894587 -1.87887 0
M  V30 4516 O 419.31 1.05869 -1.47178 0
M  V30 4517 C 419.358 -2.14892 -2.89575 0
M  V30 4518 O 418.462 -1.53512 -3.82763 0
M  V30 4519 H 417.803 -0.455236 -0.48338 0
M  V30 4520 H 420.333 -1.79024 -0.990539 0
M  V30 4521 H 420.343 -2.27139 -3.38928 0
M  V30 4522 H 419.018 -3.17998 -2.68049 0
M  V30 4523 H 417.595 -1.50153 -3.41334 0
M  V30 4524 N 419.78 1.02168 -1.19998 0
M  V30 4525 C 421.027 1.75685 -1.00702 0
M  V30 4526 C 421.355 1.88947 0.461426 0
M  V30 4527 O 420.61 1.40832 1.35885 0
M  V30 4528 C 420.909 3.18081 -1.62969 0
M  V30 4529 C 420.575 3.24809 -3.12746 0
M  V30 4530 C 419.237 3.26352 -3.53621 0
M  V30 4531 C 421.589 3.23379 -4.08749 0
M  V30 4532 C 418.917 3.2413 -4.89036 0
M  V30 4533 C 421.269 3.22698 -5.44104 0
M  V30 4534 C 419.933 3.22542 -5.84399 0
M  V30 4535 H 419.203 0.642877 -0.368496 0
M  V30 4536 H 421.85 1.19865 -1.49348 0
M  V30 4537 H 420.155 3.77027 -1.06573 0
M  V30 4538 H 421.852 3.73648 -1.45561 0
M  V30 4539 H 418.442 3.2434 -2.80181 0
M  V30 4540 H 422.626 3.21361 -3.78207 0
M  V30 4541 H 417.882 3.22338 -5.19527 0
M  V30 4542 H 422.056 3.20543 -6.18244 0
M  V30 4543 H 419.683 3.20575 -6.89301 0
M  V30 4544 N 421.258 1.00505 1.21394 0
M  V30 4545 C 422.208 0.536503 2.21598 0
M  V30 4546 C 423.192 -0.401914 1.55799 0
M  V30 4547 O 424.384 -0.226757 1.75541 0
M  V30 4548 C 421.513 -0.135446 3.43033 0
M  V30 4549 C 420.599 0.823992 4.16018 0
M  V30 4550 N 420.99 1.97683 4.6557 0
M  V30 4551 C 419.288 0.642387 4.4135 0
M  V30 4552 C 419.989 2.58003 5.21354 0
M  V30 4553 N 418.965 1.86162 5.1073 0
M  V30 4554 H 422.767 1.41557 2.57563 0
M  V30 4555 H 420.281 0.868878 1.37202 0
M  V30 4556 H 422.278 -0.488584 4.14027 0
M  V30 4557 H 420.938 -1.01049 3.08576 0
M  V30 4558 H 421.949 2.3572 4.61147 0
M  V30 4559 H 418.626 -0.185578 4.17087 0
M  V30 4560 H 420.016 3.555 5.70149 0
M  V30 4561 N 422.737 -1.36956 0.779787 0
M  V30 4562 C 423.983 -1.99787 0.348281 0
M  V30 4563 C 424.316 -1.61756 -1.07465 0
M  V30 4564 O 423.591 -0.867639 -1.74075 0
M  V30 4565 C 423.874 -3.56597 0.50104 0
M  V30 4566 C 423.727 -4.04513 1.96697 0
M  V30 4567 C 425.046 -4.40008 -0.0898097 0
M  V30 4568 H 422.165 -0.725796 0.128022 0
M  V30 4569 H 424.807 -1.62514 0.984331 0
M  V30 4570 H 422.957 -3.88479 -0.0404347 0
M  V30 4571 H 424.629 -3.83161 2.56876 0
M  V30 4572 H 422.872 -3.56408 2.47297 0
M  V30 4573 H 423.543 -5.1352 2.02486 0
M  V30 4574 H 426.019 -4.14431 0.372293 0
M  V30 4575 H 424.895 -5.4888 0.0471605 0
M  V30 4576 H 425.156 -4.26035 -1.18096 0
M  V30 4577 N 424.215 -0.530993 -1.48385 0
M  V30 4578 C 425.145 0.219985 -2.32461 0
M  V30 4579 C 426.126 0.934111 -1.42156 0
M  V30 4580 O 427.311 0.919694 -1.71042 0
M  V30 4581 C 424.441 1.26674 -3.23375 0
M  V30 4582 C 423.395 0.67069 -4.22712 0
M  V30 4583 C 422.721 1.82017 -5.02766 0
M  V30 4584 C 424.021 -0.358268 -5.2107 0
M  V30 4585 H 425.715 -0.48187 -2.95497 0
M  V30 4586 H 423.261 -0.233182 -1.42099 0
M  V30 4587 H 425.214 1.80006 -3.81019 0
M  V30 4588 H 423.938 1.99818 -2.58341 0
M  V30 4589 H 422.597 0.158878 -3.66256 0
M  V30 4590 H 422.245 2.54002 -4.34157 0
M  V30 4591 H 421.945 1.42727 -5.70003 0
M  V30 4592 H 423.469 2.35725 -5.63264 0
M  V30 4593 H 424.883 0.0880081 -5.73232 0
M  V30 4594 H 423.28 -0.66861 -5.96364 0
M  V30 4595 H 424.35 -1.26367 -4.68145 0
M  V30 4596 N 425.693 1.55336 -0.266172 0
M  V30 4597 C 426.923 2.03506 0.356239 0
M  V30 4598 C 427.331 1.14426 1.50676 0
M  V30 4599 O 426.674 0.155043 1.83045 0
M  V30 4600 C 426.736 3.47848 0.90785 0
M  V30 4601 C 426.4 4.56861 -0.112888 0
M  V30 4602 C 427.397 5.11528 -0.929264 0
M  V30 4603 C 425.082 5.01704 -0.244546 0
M  V30 4604 C 427.076 6.09549 -1.86357 0
M  V30 4605 C 424.763 5.99553 -1.18234 0
M  V30 4606 C 425.761 6.53356 -1.99036 0
M  V30 4607 O 425.449 7.49293 -2.91231 0
M  V30 4608 H 425.181 0.670444 0.08649 0
M  V30 4609 H 427.735 2.01598 -0.39337 0
M  V30 4610 H 425.965 3.46967 1.70737 0
M  V30 4611 H 427.654 3.79407 1.44239 0
M  V30 4612 H 428.42 4.77701 -0.838237 0
M  V30 4613 H 424.299 4.59477 0.374359 0
M  V30 4614 H 427.843 6.51469 -2.49467 0
M  V30 4615 H 423.74 6.32799 -1.27421 0
M  V30 4616 H 424.508 7.66978 -2.8581 0
M  V30 4617 N 427.171 -0.0066808 1.57599 0
M  V30 4618 C 428.081 -1.01671 2.11424 0
M  V30 4619 C 429.097 -1.38143 1.05795 0
M  V30 4620 O 430.273 -1.47011 1.37658 0
M  V30 4621 C 427.338 -2.29192 2.60139 0
M  V30 4622 C 426.399 -1.99094 3.80342 0
M  V30 4623 C 425.632 -3.20535 4.26724 0
M  V30 4624 O 425.855 -4.3199 3.72479 0
M  V30 4625 O 424.789 -3.04924 5.18946 0
M  V30 4626 H 428.615 -0.589181 2.9793 0
M  V30 4627 H 426.2 -0.225091 1.47695 0
M  V30 4628 H 428.082 -3.0412 2.917 0
M  V30 4629 H 426.757 -2.71195 1.76733 0
M  V30 4630 H 425.664 -1.21663 3.53764 0
M  V30 4631 H 426.997 -1.61931 4.648 0
M  V30 4632 N 428.649 -1.55105 -0.279332 0
M  V30 4633 C 429.581 -1.83952 -1.36727 0
M  V30 4634 C 430.594 -0.723642 -1.45833 0
M  V30 4635 O 431.783 -1.00141 -1.47763 0
M  V30 4636 C 428.883 -1.98183 -2.74912 0
M  V30 4637 C 428.056 -3.28787 -2.88475 0
M  V30 4638 C 427.115 -3.33162 -4.07295 0
M  V30 4639 O 426.141 -4.06576 -3.98353 0
M  V30 4640 N 427.343 -2.60109 -5.18964 0
M  V30 4641 H 430.108 -2.77853 -1.12328 0
M  V30 4642 H 427.669 -1.54945 -0.469442 0
M  V30 4643 H 429.661 -1.98488 -3.52682 0
M  V30 4644 H 428.231 -1.11177 -2.92162 0
M  V30 4645 H 427.451 -3.41075 -1.97641 0
M  V30 4646 H 428.739 -4.14933 -2.94463 0
M  V30 4647 H 428.137 -2.00136 -5.29115 0
M  V30 4648 H 426.694 -2.66143 -5.94988 0
M  V30 4649 N 430.127 0.543554 -1.4793 0
M  V30 4650 C 431.352 1.32995 -1.59145 0
M  V30 4651 C 431.777 1.86472 -0.246956 0
M  V30 4652 O 431.135 1.63696 0.779324 0
M  V30 4653 C 431.183 2.46623 -2.63077 0
M  V30 4654 O 430.287 3.49261 -2.19295 0
M  V30 4655 H 429.628 0.394472 -0.534124 0
M  V30 4656 H 432.158 0.655489 -1.93816 0
M  V30 4657 H 432.168 2.93001 -2.83926 0
M  V30 4658 H 430.843 2.07059 -3.60693 0
M  V30 4659 H 429.42 3.09094 -2.08603 0
M  V30 4660 N 431.605 1.3629 0.791371 0
M  V30 4661 C 432.555 1.26988 1.89362 0
M  V30 4662 C 433.539 0.161795 1.60084 0
M  V30 4663 O 434.731 0.394426 1.72549 0
M  V30 4664 C 431.86 1.05944 3.26544 0
M  V30 4665 C 430.946 2.21211 3.61838 0
M  V30 4666 N 431.337 3.46518 3.68455 0
M  V30 4667 C 429.635 2.12933 3.91887 0
M  V30 4668 C 430.336 4.2241 3.99931 0
M  V30 4669 N 429.312 3.51329 4.14812 0
M  V30 4670 H 433.114 2.21908 1.92702 0
M  V30 4671 H 430.628 1.28982 0.986787 0
M  V30 4672 H 432.625 0.973666 4.05371 0
M  V30 4673 H 431.285 0.119223 3.24481 0
M  V30 4674 H 432.296 3.80677 3.51148 0
M  V30 4675 H 428.973 1.26855 3.97761 0
M  V30 4676 H 430.363 5.30767 4.1199 0
M  V30 4677 N 433.083 -1.0153 1.20538 0
M  V30 4678 C 434.013 -2.11972 0.979295 0
M  V30 4679 C 434.994 -1.6985 -0.0921787 0
M  V30 4680 O 436.179 -1.94089 0.0655932 0
M  V30 4681 C 433.309 -3.43201 0.531984 0
M  V30 4682 C 432.263 -3.9907 1.54685 0
M  V30 4683 C 431.589 -5.26082 0.956127 0
M  V30 4684 C 432.889 -4.32313 2.93092 0
M  V30 4685 H 434.583 -2.31143 1.90298 0
M  V30 4686 H 432.129 -1.11079 0.916372 0
M  V30 4687 H 434.082 -4.1985 0.361044 0
M  V30 4688 H 432.806 -3.23792 -0.427327 0
M  V30 4689 H 431.465 -3.2453 1.70517 0
M  V30 4690 H 431.113 -5.02999 -0.0111538 0
M  V30 4691 H 430.813 -5.64426 1.63393 0
M  V30 4692 H 432.337 -6.05386 0.796284 0
M  V30 4693 H 433.751 -4.99845 2.80763 0
M  V30 4694 H 432.148 -4.81774 3.57791 0
M  V30 4695 H 433.218 -3.41025 3.44717 0
M  V30 4696 N 434.561 -1.01147 -1.20859 0
M  V30 4697 C 435.471 -0.58686 -2.27141 0
M  V30 4698 C 436.487 0.373198 -1.69951 0
M  V30 4699 O 437.663 0.235423 -2.00019 0
M  V30 4700 C 434.728 0.0733602 -3.46622 0
M  V30 4701 C 433.789 -0.931995 -4.19061 0
M  V30 4702 C 433.022 -0.303186 -5.32838 0
M  V30 4703 O 433.245 0.898395 -5.63281 0
M  V30 4704 O 432.179 -1.01735 -5.9324 0
M  V30 4705 H 436.005 -1.47155 -2.65667 0
M  V30 4706 H 433.59 -0.780689 -1.2738 0
M  V30 4707 H 435.472 0.442333 -4.19072 0
M  V30 4708 H 434.147 0.932329 -3.09983 0
M  V30 4709 H 433.054 -1.35224 -3.48805 0
M  V30 4710 H 434.387 -1.76076 -4.59628 0
M  V30 4711 N 436.039 1.36541 -0.78704 0
M  V30 4712 C 437.288 1.98552 -0.35494 0
M  V30 4713 C 437.601 1.63171 1.07864 0
M  V30 4714 O 438.807 2.18399 1.61289 0
M  V30 4715 C 437.263 3.55136 -0.583671 0
M  V30 4716 C 436.871 3.99444 -2.02851 0
M  V30 4717 C 438.615 4.2395 -0.215957 0
M  V30 4718 C 436.522 5.48796 -2.20403 0
M  V30 4719 H 435.452 0.742888 -0.128972 0
M  V30 4720 H 438.103 1.5587 -0.968337 0
M  V30 4721 H 436.485 3.95875 0.0994046 0
M  V30 4722 H 437.659 3.6991 -2.74779 0
M  V30 4723 H 435.974 3.43459 -2.35425 0
M  V30 4724 H 438.571 5.33709 -0.325405 0
M  V30 4725 H 438.914 4.07827 0.835646 0
M  V30 4726 H 439.447 3.88565 -0.852175 0
M  V30 4727 H 436.186 5.69864 -3.23937 0
M  V30 4728 H 435.706 5.79964 -1.52977 0
M  V30 4729 H 437.385 6.14986 -2.01002 0
M  V30 4730 N 437.518 0.538854 1.48102 0
M  V30 4731 C 438.465 -0.219042 2.29758 0
M  V30 4732 C 439.435 -0.925562 1.37922 0
M  V30 4733 O 440.62 -0.924855 1.66886 0
M  V30 4734 C 437.76 -1.25452 3.2149 0
M  V30 4735 C 436.873 -0.555943 4.28408 0
M  V30 4736 C 436.008 -1.57512 5.0731 0
M  V30 4737 C 435.047 -0.860498 6.06021 0
M  V30 4738 N 434.184 -1.82564 6.77949 0
M  V30 4739 H 439.024 0.483449 2.94052 0
M  V30 4740 H 436.561 0.250247 1.44956 0
M  V30 4741 H 438.519 -1.86727 3.7308 0
M  V30 4742 H 437.149 -1.92528 2.591 0
M  V30 4743 H 436.201 0.170938 3.80016 0
M  V30 4744 H 437.513 0.00474616 4.988 0
M  V30 4745 H 436.667 -2.26191 5.62959 0
M  V30 4746 H 435.406 -2.16972 4.36778 0
M  V30 4747 H 434.411 -0.159686 5.49568 0
M  V30 4748 H 435.636 -0.271897 6.78555 0
M  V30 4749 H 433.582 -2.40915 6.10161 0
M  V30 4750 H 433.499 -1.31662 7.44447 0
M  V30 4751 H 434.767 -2.50414 7.38182 0
M  V30 4752 N 438.996 -1.55193 0.274407 0
M  V30 4753 C 440.242 -1.99877 -0.343086 0
M  V30 4754 C 440.575 -1.16256 -1.55558 0
M  V30 4755 O 439.85 -0.232462 -1.93106 0
M  V30 4756 C 440.133 -3.52706 -0.725965 0
M  V30 4757 C 439.986 -4.47081 0.493818 0
M  V30 4758 C 441.305 -4.11422 -1.56268 0
M  V30 4759 H 438.424 -0.726625 -0.123229 0
M  V30 4760 H 441.066 -1.86136 0.38121 0
M  V30 4761 H 439.216 -3.64546 -1.34307 0
M  V30 4762 H 440.888 -4.47186 1.13237 0
M  V30 4763 H 439.131 -4.1877 1.13201 0
M  V30 4764 H 439.802 -5.51699 0.18217 0
M  V30 4765 H 442.278 -4.02855 -1.04151 0
M  V30 4766 H 441.154 -5.18568 -1.79939 0
M  V30 4767 H 441.415 -3.61607 -2.54348 0
M  V30 4768 N 440.474 -0.00167713 -1.576 0
M  V30 4769 C 441.721 0.68282 -1.90641 0
M  V30 4770 C 442.049 1.73686 -0.875415 0
M  V30 4771 O 441.304 1.95334 0.119575 0
M  V30 4772 C 441.603 1.36189 -3.30435 0
M  V30 4773 C 441.269 0.440887 -4.48739 0
M  V30 4774 C 439.931 0.187312 -4.80835 0
M  V30 4775 C 442.283 -0.193134 -5.20842 0
M  V30 4776 C 439.611 -0.70855 -5.82406 0
M  V30 4777 C 441.963 -1.07688 -6.23367 0
M  V30 4778 C 440.627 -1.33962 -6.53919 0
M  V30 4779 H 439.897 0.249862 -0.697603 0
M  V30 4780 H 442.544 -0.0575642 -1.91413 0
M  V30 4781 H 440.849 2.17636 -3.25794 0
M  V30 4782 H 442.546 1.89759 -3.5326 0
M  V30 4783 H 439.136 0.648694 -4.23663 0
M  V30 4784 H 443.32 -0.0102445 -4.96299 0
M  V30 4785 H 438.576 -0.920097 -6.04437 0
M  V30 4786 H 442.75 -1.57451 -6.78367 0
M  V30 4787 H 440.377 -2.03549 -7.32442 0
M  V30 4788 N 441.952 1.55251 0.271103 0
M  V30 4789 C 443.201 1.75151 1.00025 0
M  V30 4790 C 443.514 0.561041 1.87381 0
M  V30 4791 O 444.72 0.642506 2.63788 0
M  V30 4792 C 443.176 3.09999 1.82835 0
M  V30 4793 C 442.784 4.3662 1.00336 0
M  V30 4794 C 444.528 3.39249 2.55168 0
M  V30 4795 C 442.435 5.62506 1.82595 0
M  V30 4796 H 441.365 0.652877 0.377183 0
M  V30 4797 H 444.016 1.81708 0.255843 0
M  V30 4798 H 442.398 2.97485 2.61378 0
M  V30 4799 H 443.572 4.60055 0.261959 0
M  V30 4800 H 441.887 4.14527 0.394486 0
M  V30 4801 H 444.484 4.3051 3.1712 0
M  V30 4802 H 444.827 2.59467 3.2555 0
M  V30 4803 H 445.36 3.52869 1.83653 0
M  V30 4804 H 442.099 6.45041 1.16631 0
M  V30 4805 H 441.619 5.43211 2.54327 0
M  V30 4806 H 443.298 6.00875 2.39913 0
M  V30 4807 N 443.43 -0.535701 1.48216 0
M  V30 4808 C 444.707 -1.29683 1.46429 0
M  V30 4809 C 445.087 -2.10391 0.172852 0
M  V30 4810 O 444.435 -2.12282 -0.845488 0
M  V30 4811 C 444.645 -2.18313 2.72287 0
M  V30 4812 C 445.993 -2.78639 3.20383 0
M  V30 4813 O 447.017 -2.28604 2.73164 0
M  V30 4814 O 445.876 -3.69636 4.02531 0
M  V30 4815 H 442.97 -0.585026 0.584529 0
M  V30 4816 H 445.516 -0.552827 1.60443 0
M  V30 4817 H 444.288 -1.58421 3.57797 0
M  V30 4818 H 443.911 -2.99971 2.60966 0
M  V30 4819 N 444.908 -1.36708 -0.784132 0
M  V30 4820 C 446.157 -1.30559 -1.53744 0
M  V30 4821 C 446.47 0.111374 -1.95283 0
M  V30 4822 O 447.676 0.29527 -2.6989 0
M  V30 4823 C 446.132 -2.29098 -2.77565 0
M  V30 4824 C 445.74 -3.76258 -2.43174 0
M  V30 4825 C 447.484 -2.31936 -3.55536 0
M  V30 4826 C 445.391 -4.6656 -3.63422 0
M  V30 4827 H 444.321 -0.48518 -0.577162 0
M  V30 4828 H 446.972 -1.62101 -0.859981 0
M  V30 4829 H 445.354 -1.90557 -3.47137 0
M  V30 4830 H 446.528 -4.23565 -1.81465 0
M  V30 4831 H 444.843 -3.76246 -1.78403 0
M  V30 4832 H 447.44 -2.9661 -4.44889 0
M  V30 4833 H 447.783 -1.3294 -3.94503 0
M  V30 4834 H 448.316 -2.6912 -2.92949 0
M  V30 4835 H 445.055 -5.66638 -3.29547 0
M  V30 4836 H 444.575 -4.23966 -4.24279 0
M  V30 4837 H 446.254 -4.8309 -4.30387 0
M  V30 4838 N 446.386 1.0089 -1.21074 0
M  V30 4839 C 447.333 2.09588 -0.966512 0
M  V30 4840 C 448.303 1.65761 0.106089 0
M  V30 4841 O 449.488 1.90758 -0.0402287 0
M  V30 4842 C 446.628 3.40958 -0.533058 0
M  V30 4843 C 445.741 3.9822 -1.67467 0
M  V30 4844 C 444.876 5.17682 -1.19076 0
M  V30 4845 C 443.915 5.67043 -2.30496 0
M  V30 4846 N 443.052 6.77759 -1.83267 0
M  V30 4847 H 447.892 2.29815 -1.89708 0
M  V30 4848 H 445.429 1.12689 -0.945489 0
M  V30 4849 H 447.387 4.1637 -0.263019 0
M  V30 4850 H 446.017 3.20781 0.360505 0
M  V30 4851 H 445.069 3.1983 -2.05944 0
M  V30 4852 H 446.381 4.3085 -2.51336 0
M  V30 4853 H 445.535 6.00326 -0.877151 0
M  V30 4854 H 444.274 4.86635 -0.322066 0
M  V30 4855 H 443.279 4.82999 -2.62664 0
M  V30 4856 H 444.504 6.00121 -3.17855 0
M  V30 4857 H 442.45 6.48527 -0.987356 0
M  V30 4858 H 442.367 7.09624 -2.60711 0
M  V30 4859 H 443.635 7.63949 -1.54928 0
M  V30 4860 N 447.864 1.01787 1.20321 0
M  V30 4861 C 448.812 0.58254 2.25187 0
M  V30 4862 C 449.806 -0.379359 1.65098 0
M  V30 4863 O 451.012 -0.249142 1.78267 0
M  V30 4864 H 447.387 0.170078 0.732514 0
M  V30 4865 H 449.358 1.47788 2.59232 0
M  V30 4866 C 448.107 -0.0620885 3.47645 0
M  V30 4867 H 447.43 0.669069 3.94162 0
M  V30 4868 H 448.87 -0.329784 4.22716 0
M  V30 4869 C 447.329 -1.3053 3.10586 0
M  V30 4870 O 447.859 -2.39848 3.22236 0
M  V30 4871 N 446.065 -1.18988 2.65123 0
M  V30 4872 H 445.612 -0.300341 2.55843 0
M  V30 4873 H 445.57 -2.02267 2.40698 0
M  V30 4874 N 449.342 -1.36122 0.79427 0
M  V30 4875 C 450.59 -1.98718 0.368177 0
M  V30 4876 C 450.911 -1.63345 -1.06506 0
M  V30 4877 O 450.181 -0.909825 -1.73491 0
M  V30 4878 H 448.761 -0.735038 0.133146 0
M  V30 4879 H 451.423 -1.66239 1.01739 0
M  V30 4880 H 450.519 -3.08633 0.463923 0
M  V30 4881 N 450.82 -0.546701 -1.47814 0
M  V30 4882 C 452.236 -0.205717 -1.58269 0
M  V30 4883 C 452.436 1.29153 -1.54667 0
M  V30 4884 O 451.492 2.07098 -1.44453 0
M  V30 4885 C 452.805 -0.823065 -2.89216 0
M  V30 4886 C 454.353 -0.793328 -3.02779 0
M  V30 4887 C 454.828 -1.38955 -4.36412 0
M  V30 4888 N 456.319 -1.35227 -4.43021 0
M  V30 4889 C 457.054 -1.78333 -5.44963 0
M  V30 4890 N 456.55 -2.29246 -6.53772 0
M  V30 4891 N 458.343 -1.69467 -5.35945 0
M  V30 4892 H 450.494 -1.5196 -1.48398 0
M  V30 4893 H 452.757 -0.633078 -0.705632 0
M  V30 4894 H 452.463 -1.8749 -2.97558 0
M  V30 4895 H 452.337 -0.309915 -3.75925 0
M  V30 4896 H 454.724 0.249784 -2.94041 0
M  V30 4897 H 454.805 -1.34412 -2.17639 0
M  V30 4898 H 454.449 -2.43168 -4.45906 0
M  V30 4899 H 454.379 -0.814291 -5.20266 0
M  V30 4900 H 456.87 -0.979739 -3.64979 0
M  V30 4901 H 457.183 -2.60089 -7.27718 0
M  V30 4902 H 455.528 -2.3325 -6.5469 0
M  V30 4903 H 458.719 -1.29477 -4.49837 0
M  V30 4904 H 458.892 -2.03381 -6.15256 0
M  V30 4905 N 452.299 1.55045 -0.282633 0
M  V30 4906 C 453.548 1.98938 0.332667 0
M  V30 4907 C 453.861 1.17455 1.56409 0
M  V30 4908 O 455.067 1.51527 2.25282 0
M  V30 4909 C 453.523 3.54105 0.643226 0
M  V30 4910 C 453.131 4.44374 -0.568814 0
M  V30 4911 C 454.875 4.06569 1.22074 0
M  V30 4912 C 452.782 5.90943 -0.232426 0
M  V30 4913 H 451.712 0.743043 0.128075 0
M  V30 4914 H 454.363 1.79341 -0.388464 0
M  V30 4915 H 452.745 3.69532 1.42346 0
M  V30 4916 H 453.919 4.40718 -1.34551 0
M  V30 4917 H 452.234 4.02585 -1.06369 0
M  V30 4918 H 454.831 5.13626 1.48635 0
M  V30 4919 H 455.174 3.56057 2.15707 0
M  V30 4920 H 455.707 3.94612 0.502621 0
M  V30 4921 H 452.446 6.45567 -1.13683 0
M  V30 4922 H 451.966 5.9765 0.507357 0
M  V30 4923 H 453.645 6.4677 0.172657 0
M  V30 4924 N 453.777 0.010035 1.57597 0
M  V30 4925 C 454.687 -0.994226 2.12491 0
M  V30 4926 C 455.703 -1.37013 1.07254 0
M  V30 4927 O 456.879 -1.45542 1.3921 0
M  V30 4928 C 453.944 -2.2642 2.62555 0
M  V30 4929 C 453.005 -1.95049 3.82432 0
M  V30 4930 C 452.238 -3.15991 4.30099 0
M  V30 4931 O 452.461 -4.28015 3.7704 0
M  V30 4932 O 451.395 -2.99403 5.22151 0
M  V30 4933 H 455.221 -0.557549 2.98538 0
M  V30 4934 H 452.806 -0.209413 1.47925 0
M  V30 4935 H 454.688 -3.01009 2.9491 0
M  V30 4936 H 453.363 -2.69306 1.796 0
M  V30 4937 H 452.27 -1.17904 3.55034 0
M  V30 4938 H 453.603 -1.56992 4.66491 0
M  V30 4939 N 455.255 -1.55392 -0.262866 0
M  V30 4940 C 456.504 -1.75679 -0.990943 0
M  V30 4941 C 456.817 -0.57097 -1.87081 0
M  V30 4942 O 458.023 -0.656486 -2.63444 0
M  V30 4943 C 456.479 -3.10964 -1.81188 0
M  V30 4944 C 456.087 -4.37146 -0.980188 0
M  V30 4945 C 457.831 -3.40597 -2.53365 0
M  V30 4946 C 455.738 -5.63466 -1.7961 0
M  V30 4947 H 454.668 -0.654868 -0.373716 0
M  V30 4948 H 457.319 -1.81841 -0.246203 0
M  V30 4949 H 455.701 -2.98867 -2.59797 0
M  V30 4950 H 456.875 -4.60187 -0.237558 0
M  V30 4951 H 455.19 -4.14731 -0.372497 0
M  V30 4952 H 457.787 -4.32186 -3.14833 0
M  V30 4953 H 458.13 -2.6119 -3.24169 0
M  V30 4954 H 458.663 -3.53838 -1.81779 0
M  V30 4955 H 455.402 -6.4565 -1.13209 0
M  V30 4956 H 454.922 -5.44552 -2.51443 0
M  V30 4957 H 456.601 -6.02139 -2.36723 0
M  V30 4958 N 456.733 0.527833 -1.48498 0
M  V30 4959 C 457.973 1.29401 -1.58224 0
M  V30 4960 C 458.337 1.90348 -0.251327 0
M  V30 4961 O 459.538 2.67868 -0.223588 0
M  V30 4962 C 457.809 2.35266 -2.69044 0
M  V30 4963 S 459.368 3.2158 -2.98549 0
M  V30 4964 H 456.186 0.440138 -0.558391 0
M  V30 4965 H 458.788 0.601079 -1.8603 0
M  V30 4966 H 457.492 1.88975 -3.64303 0
M  V30 4967 H 457.023 3.09263 -2.43146 0
M  V30 4968 H 459.038 4.35391 -2.38011 0
M  V30 4969 N 458.211 1.37122 0.776871 0
M  V30 4970 C 459.159 1.32549 1.91138 0
M  V30 4971 C 460.153 0.215119 1.68029 0
M  V30 4972 O 461.359 0.382852 1.75881 0
M  V30 4973 H 457.734 0.412952 0.62847 0
M  V30 4974 H 459.705 2.28332 1.92112 0
M  V30 4975 C 458.454 1.14422 3.28333 0
M  V30 4976 H 457.777 1.99115 3.46689 0
M  V30 4977 H 459.217 1.15272 4.0803 0
M  V30 4978 C 457.676 -0.150434 3.36564 0
M  V30 4979 O 458.206 -1.13584 3.85307 0
M  V30 4980 N 456.412 -0.19939 2.89915 0
M  V30 4981 H 455.959 0.603142 2.5044 0
M  V30 4982 H 455.917 -1.06526 2.95803 0
M  V30 4983 N 459.689 -1.00246 1.21608 0
M  V30 4984 C 460.938 -1.73476 1.02902 0
M  V30 4985 C 461.251 -1.90643 -0.437561 0
M  V30 4986 O 462.457 -2.61105 -0.74407 0
M  V30 4987 C 460.913 -3.12079 1.79261 0
M  V30 4988 C 460.521 -3.02877 3.30106 0
M  V30 4989 C 462.265 -3.89421 1.68972 0
M  V30 4990 C 460.172 -4.36575 3.98944 0
M  V30 4991 H 459.102 -0.650408 0.381425 0
M  V30 4992 H 461.753 -1.11985 1.45367 0
M  V30 4993 H 460.135 -3.74196 1.2959 0
M  V30 4994 H 461.309 -2.49983 3.87098 0
M  V30 4995 H 459.624 -2.39022 3.40965 0
M  V30 4996 H 462.221 -4.88362 2.17731 0
M  V30 4997 H 462.564 -4.1122 0.648397 0
M  V30 4998 H 463.097 -3.33963 2.16133 0
M  V30 4999 H 459.836 -4.19978 5.03288 0
M  V30 5000 H 459.356 -4.8942 3.4674 0
M  V30 5001 H 461.035 -5.05364 4.04 0
M  V30 5002 N 461.167 -1.02423 -1.1978 0
M  V30 5003 C 462.077 -0.610919 -2.26506 0
M  V30 5004 C 463.093 0.355152 -1.70337 0
M  V30 5005 O 464.269 0.214195 -2.00258 0
M  V30 5006 C 461.334 0.0365921 -3.46681 0
M  V30 5007 C 460.395 -0.976389 -4.18049 0
M  V30 5008 C 459.628 -0.359683 -5.32487 0
M  V30 5009 O 459.851 0.838601 -5.64202 0
M  V30 5010 O 458.785 -1.08022 -5.92127 0
M  V30 5011 H 462.611 -1.49965 -2.64091 0
M  V30 5012 H 460.196 -0.794156 -1.26545 0
M  V30 5013 H 462.078 0.39786 -4.19518 0
M  V30 5014 H 460.753 0.899398 -3.10954 0
M  V30 5015 H 459.66 -1.38916 -3.47352 0
M  V30 5016 H 460.993 -1.80941 -4.57735 0
M  V30 5017 N 462.645 1.35699 -0.801477 0
M  V30 5018 C 463.608 2.28199 -0.213994 0
M  V30 5019 C 464.608 1.49359 0.595691 0
M  V30 5020 O 465.798 1.69186 0.414921 0
M  V30 5021 C 462.93 3.33587 0.702297 0
M  V30 5022 H 464.123 2.81666 -1.02976 0
M  V30 5023 H 461.676 1.45467 -0.571759 0
M  V30 5024 H 462.411 2.85297 1.54195 0
M  V30 5025 H 462.196 3.91906 0.123484 0
M  V30 5026 H 463.686 4.02638 1.10783 0
M  V30 5027 N 464.123 0.554532 1.47522 0
M  V30 5028 C 465.534 0.120446 1.86311 0
M  V30 5029 C 465.885 -1.30904 1.46145 0
M  V30 5030 O 465.01 -1.98434 0.863294 0
M  V30 5031 C 465.605 0.211808 3.38137 0
M  V30 5032 C 464.164 -0.167224 3.76028 0
M  V30 5033 C 463.311 0.560576 2.71575 0
M  V30 5034 H 466.262 0.764408 1.39077 0
M  V30 5035 H 466.283 -0.570275 3.76202 0
M  V30 5036 H 465.795 1.25232 3.6734 0
M  V30 5037 H 463.896 -1.20894 3.52442 0
M  V30 5038 H 464.009 0.189473 4.78725 0
M  V30 5039 H 462.373 0.00396836 2.547 0
M  V30 5040 H 463.156 1.60219 3.0362 0
M  V30 5041 N 465.601 -1.54893 0.290851 0
M  V30 5042 C 466.878 -1.91991 -0.373989 0
M  V30 5043 C 467.258 -1.21694 -1.72493 0
M  V30 5044 O 466.606 -0.34917 -2.25816 0
M  V30 5045 C 466.816 -3.45419 -0.498703 0
M  V30 5046 C 468.164 -4.1748 -0.774298 0
M  V30 5047 O 469.188 -3.51398 -0.582908 0
M  V30 5048 O 468.047 -5.3445 -1.14129 0
M  V30 5049 H 465.141 -0.800593 -0.207315 0
M  V30 5050 H 467.687 -1.66297 0.338164 0
M  V30 5051 H 466.459 -3.88688 0.451392 0
M  V30 5052 H 466.082 -3.77117 -1.25972 0
M  V30 5053 N 467.08 -0.0183926 -1.57589 0
M  V30 5054 C 468.03 0.975944 -2.06057 0
M  V30 5055 C 469.014 1.29204 -0.958908 0
M  V30 5056 O 470.206 1.27995 -1.22255 0
M  V30 5057 C 467.335 2.26194 -2.58247 0
M  V30 5058 C 466.421 1.97467 -3.75323 0
M  V30 5059 N 466.812 1.38968 -4.86335 0
M  V30 5060 C 465.11 2.27515 -3.83605 0
M  V30 5061 C 465.811 1.27131 -5.67638 0
M  V30 5062 N 464.787 1.76319 -5.14211 0
M  V30 5063 H 468.589 0.518444 -2.89291 0
M  V30 5064 H 466.103 0.18688 -1.61321 0
M  V30 5065 H 468.1 2.98289 -2.91255 0
M  V30 5066 H 466.76 2.7258 -1.76438 0
M  V30 5067 H 467.771 1.06608 -5.06809 0
M  V30 5068 H 464.448 2.76649 -3.12684 0
M  V30 5069 H 465.838 0.819882 -6.66879 0
M  V30 5070 N 468.558 1.5553 0.254621 0
M  V30 5071 C 469.804 1.7818 0.980989 0
M  V30 5072 C 470.159 0.586059 1.83257 0
M  V30 5073 O 469.452 -0.420889 1.8692 0
M  V30 5074 C 469.646 3.03891 1.88109 0
M  V30 5075 C 469.475 4.35578 1.11812 0
M  V30 5076 C 468.245 4.98497 0.826343 0
M  V30 5077 C 470.443 5.11869 0.499486 0
M  V30 5078 N 468.425 6.13888 0.0385095 0
M  V30 5079 C 469.796 6.1981 -0.153292 0
M  V30 5080 C 471.851 4.96216 0.409175 0
M  V30 5081 C 470.554 7.13801 -0.8877 0
M  V30 5082 C 472.58 5.90578 -0.311683 0
M  V30 5083 C 471.942 6.97922 -0.953129 0
M  V30 5084 H 468.041 0.704057 0.340335 0
M  V30 5085 H 470.625 1.93025 0.254855 0
M  V30 5086 H 468.796 2.90389 2.57932 0
M  V30 5087 H 470.528 3.14869 2.54244 0
M  V30 5088 H 467.283 4.59769 1.13621 0
M  V30 5089 H 467.707 6.76129 -0.343275 0
M  V30 5090 H 472.349 4.1331 0.890765 0
M  V30 5091 H 470.067 7.96214 -1.38092 0
M  V30 5092 H 473.653 5.80544 -0.382125 0
M  V30 5093 H 472.533 7.69681 -1.50203 0
M  V30 5094 N 470.036 -0.519951 1.48776 0
M  V30 5095 C 470.966 -1.63253 1.66945 0
M  V30 5096 C 471.947 -1.62014 0.518224 0
M  V30 5097 O 473.132 -1.79053 0.751919 0
M  V30 5098 C 470.262 -3.0181 1.71836 0
M  V30 5099 C 469.216 -3.17911 2.8656 0
M  V30 5100 C 468.542 -4.5763 2.76548 0
M  V30 5101 C 469.842 -2.99729 4.27738 0
M  V30 5102 H 471.536 -1.48302 2.6009 0
M  V30 5103 H 469.082 -0.712026 1.25165 0
M  V30 5104 H 471.035 -3.79525 1.83135 0
M  V30 5105 H 469.759 -3.17806 0.752775 0
M  V30 5106 H 468.418 -2.42616 2.74833 0
M  V30 5107 H 468.066 -4.70476 1.77937 0
M  V30 5108 H 467.766 -4.69346 3.53536 0
M  V30 5109 H 469.29 -5.37431 2.89828 0
M  V30 5110 H 470.704 -3.67228 4.40246 0
M  V30 5111 H 469.101 -3.22932 5.05801 0
M  V30 5112 H 470.171 -1.96047 4.43502 0
M  V30 5113 N 471.514 -1.37532 -0.769588 0
M  V30 5114 C 472.925 -1.29382 -1.346 0
M  V30 5115 C 473.276 0.0576039 -1.96115 0
M  V30 5116 O 472.401 0.95947 -1.93967 0
M  V30 5117 C 472.996 -2.34298 -2.44724 0
M  V30 5118 C 471.555 -2.29776 -2.98128 0
M  V30 5119 C 470.702 -2.18013 -1.71364 0
M  V30 5120 H 473.653 -1.48123 -0.56968 0
M  V30 5121 H 473.674 -1.99089 -3.24259 0
M  V30 5122 H 473.186 -3.32645 -1.99922 0
M  V30 5123 H 471.287 -1.34959 -3.47299 0
M  V30 5124 H 471.4 -3.23276 -3.53595 0
M  V30 5125 H 469.764 -1.64595 -1.94372 0
M  V30 5126 H 470.547 -3.18278 -1.28662 0
M  V30 5127 N 472.992 0.995999 -1.22138 0
M  V30 5128 C 473.922 2.10387 -1.01289 0
M  V30 5129 C 474.903 1.69975 0.0651454 0
M  V30 5130 O 476.088 1.9396 -0.0964628 0
M  V30 5131 C 473.218 3.42312 -0.586517 0
M  V30 5132 C 472.172 3.96558 -1.61014 0
M  V30 5133 C 471.498 5.24494 -1.0397 0
M  V30 5134 C 472.798 4.27595 -2.99933 0
M  V30 5135 H 474.492 2.28086 -1.93951 0
M  V30 5136 H 472.038 1.09607 -0.933928 0
M  V30 5137 H 473.991 4.19223 -0.427793 0
M  V30 5138 H 472.715 3.24431 0.375761 0
M  V30 5139 H 471.374 3.21776 -1.75658 0
M  V30 5140 H 471.022 5.02953 -0.0688703 0
M  V30 5141 H 470.722 5.61755 -1.72352 0
M  V30 5142 H 472.246 6.04042 -0.892494 0
M  V30 5143 H 473.66 4.95315 -2.8868 0
M  V30 5144 H 472.057 4.76021 -3.6541 0
M  V30 5145 H 473.127 3.35498 -3.50099 0
M  V30 5146 N 474.47 1.03057 1.19235 0
M  V30 5147 C 475.38 0.622922 2.26179 0
M  V30 5148 C 476.396 -0.346113 1.70523 0
M  V30 5149 O 477.572 -0.203572 2.00369 0
M  V30 5150 C 474.637 -0.0182063 3.46695 0
M  V30 5151 C 473.698 0.998546 4.17526 0
M  V30 5152 C 472.931 0.387917 5.32288 0
M  V30 5153 O 473.154 -0.808668 5.64639 0
M  V30 5154 O 472.088 1.1116 5.91546 0
M  V30 5155 H 475.914 1.51363 2.63292 0
M  V30 5156 H 473.499 0.800856 1.26122 0
M  V30 5157 H 475.381 -0.375606 4.19723 0
M  V30 5158 H 474.056 -0.882895 3.11427 0
M  V30 5159 H 472.963 1.40756 3.4661 0
M  V30 5160 H 474.296 1.83366 4.56769 0
M  V30 5161 N 475.948 -1.35272 0.808662 0
M  V30 5162 C 477.197 -1.97963 0.386483 0
M  V30 5163 C 477.51 -1.64866 -1.05255 0
M  V30 5164 O 478.716 -2.20937 -1.57794 0
M  V30 5165 C 477.172 -3.54162 0.640096 0
M  V30 5166 C 476.78 -3.96166 2.0918 0
M  V30 5167 C 478.524 -4.23553 0.283376 0
M  V30 5168 C 476.431 -5.4522 2.29106 0
M  V30 5169 H 475.361 -0.740742 0.140774 0
M  V30 5170 H 478.012 -1.5431 0.993012 0
M  V30 5171 H 476.394 -3.95983 -0.0364117 0
M  V30 5172 H 477.568 -3.65491 2.80629 0
M  V30 5173 H 475.883 -3.3967 2.40859 0
M  V30 5174 H 478.48 -5.33124 0.410273 0
M  V30 5175 H 478.823 -4.09105 -0.770659 0
M  V30 5176 H 479.356 -3.8716 0.913884 0
M  V30 5177 H 476.095 -5.64638 3.32962 0
M  V30 5178 H 475.615 -5.77457 1.62184 0
M  V30 5179 H 477.294 -6.1171 2.1076 0
M  V30 5180 N 477.426 -0.562348 -1.47226 0
M  V30 5181 C 478.842 -0.222492 -1.58042 0
M  V30 5182 C 479.042 1.27505 -1.56028 0
M  V30 5183 O 478.098 2.05555 -1.46641 0
M  V30 5184 C 479.411 -0.853694 -2.88327 0
M  V30 5185 C 480.959 -0.825397 -3.01921 0
M  V30 5186 C 481.434 -1.43576 -4.34914 0
M  V30 5187 N 482.925 -1.39918 -4.41562 0
M  V30 5188 C 483.66 -1.84103 -5.43041 0
M  V30 5189 N 483.156 -2.36167 -6.51304 0
M  V30 5190 N 484.949 -1.75142 -5.34118 0
M  V30 5191 H 477.1 -1.53525 -1.46778 0
M  V30 5192 H 479.363 -0.640527 -0.698877 0
M  V30 5193 H 479.069 -1.90635 -2.95552 0
M  V30 5194 H 478.943 -0.34977 -3.75575 0
M  V30 5195 H 481.33 0.218583 -2.94289 0
M  V30 5196 H 481.411 -1.36713 -2.16202 0
M  V30 5197 H 481.055 -2.47884 -4.43301 0
M  V30 5198 H 480.985 -0.869427 -5.19373 0
M  V30 5199 H 483.476 -1.0184 -3.63919 0
M  V30 5200 H 483.789 -2.67793 -7.24919 0
M  V30 5201 H 482.134 -2.40181 -6.52179 0
M  V30 5202 H 485.325 -1.34241 -4.48439 0
M  V30 5203 H 485.498 -2.09895 -6.13065 0
M  V30 5204 N 478.904 1.54736 -0.299062 0
M  V30 5205 C 480.181 1.92187 0.363802 0
M  V30 5206 C 480.561 1.22607 1.71845 0
M  V30 5207 O 479.909 0.361141 2.25628 0
M  V30 5208 C 480.119 3.45678 0.480377 0
M  V30 5209 C 481.467 4.17885 0.752147 0
M  V30 5210 O 482.491 3.51702 0.564264 0
M  V30 5211 O 481.35 5.35048 1.11294 0
M  V30 5212 H 478.444 0.801681 0.203066 0
M  V30 5213 H 480.99 1.66115 -0.346978 0
M  V30 5214 H 479.762 3.88443 -0.471999 0
M  V30 5215 H 479.385 3.77779 1.2397 0
M  V30 5216 N 480.382 0.0267497 1.57577 0
M  V30 5217 C 481.329 -0.955894 2.10075 0
M  V30 5218 C 482.299 -1.32453 1.00226 0
M  V30 5219 O 483.484 -1.41826 1.27632 0
M  V30 5220 C 480.624 -2.2338 2.6305 0
M  V30 5221 C 479.737 -1.92183 3.86898 0
M  V30 5222 C 478.872 -3.14251 4.28275 0
M  V30 5223 C 477.911 -2.78862 5.44888 0
M  V30 5224 N 477.048 -3.93548 5.81433 0
M  V30 5225 H 481.888 -0.501303 2.93753 0
M  V30 5226 H 479.425 -0.235847 1.45197 0
M  V30 5227 H 481.383 -2.98124 2.91853 0
M  V30 5228 H 480.013 -2.6646 1.82205 0
M  V30 5229 H 479.065 -1.07692 3.64838 0
M  V30 5230 H 480.377 -1.62117 4.7172 0
M  V30 5231 H 479.531 -3.97317 4.58502 0
M  V30 5232 H 478.27 -3.47476 3.42215 0
M  V30 5233 H 477.275 -1.94208 5.14357 0
M  V30 5234 H 478.5 -2.46855 6.32645 0
M  V30 5235 H 476.446 -4.2662 4.98328 0
M  V30 5236 H 476.363 -3.67098 6.6089 0
M  V30 5237 H 477.631 -4.77325 6.16264 0
M  V30 5238 N 481.861 -1.55662 -0.24637 0
M  V30 5239 C 482.791 -1.93377 -1.30873 0
M  V30 5240 C 483.772 -0.798773 -1.50179 0
M  V30 5241 O 484.957 -1.0591 -1.62778 0
M  V30 5242 C 482.087 -2.22893 -2.66338 0
M  V30 5243 C 481.041 -3.38649 -2.61727 0
M  V30 5244 C 480.367 -3.53708 -4.00992 0
M  V30 5245 C 481.667 -4.74323 -2.18666 0
M  V30 5246 H 483.361 -2.82363 -0.995552 0
M  V30 5247 H 480.907 -1.35854 -0.477464 0
M  V30 5248 H 482.86 -2.47866 -3.40794 0
M  V30 5249 H 481.584 -1.30733 -2.99293 0
M  V30 5250 H 480.243 -3.13685 -1.89729 0
M  V30 5251 H 479.891 -2.58967 -4.31214 0
M  V30 5252 H 479.591 -4.31551 -3.98795 0
M  V30 5253 H 481.115 -3.81003 -4.77147 0
M  V30 5254 H 482.529 -4.98665 -2.82854 0
M  V30 5255 H 480.926 -5.55273 -2.27579 0
M  V30 5256 H 481.996 -4.71349 -1.13834 0
M  V30 5257 N 483.339 0.512053 -1.4905 0
M  V30 5258 C 484.287 1.63568 -1.65373 0
M  V30 5259 C 485.281 1.61228 -0.519806 0
M  V30 5260 O 486.487 1.65869 -0.699101 0
M  V30 5261 H 482.862 0.542019 -0.521267 0
M  V30 5262 H 484.833 1.4695 -2.59708 0
M  V30 5263 C 483.582 3.01761 -1.7273 0
M  V30 5264 H 482.905 3.04263 -2.59353 0
M  V30 5265 H 484.345 3.79948 -1.8819 0
M  V30 5266 C 482.804 3.33609 -0.46973 0
M  V30 5267 O 483.334 3.99607 0.409492 0
M  V30 5268 N 481.54 2.88651 -0.336003 0
M  V30 5269 H 481.087 2.35119 -1.05247 0
M  V30 5270 H 481.045 3.10328 0.504363 0
M  V30 5271 N 484.817 1.37938 0.762283 0
M  V30 5272 C 486.042 1.37059 1.55659 0
M  V30 5273 C 486.467 -0.0396123 1.88058 0
M  V30 5274 O 485.825 -1.01929 1.49934 0
M  V30 5275 C 485.873 2.22494 2.83776 0
M  V30 5276 O 484.977 1.63607 3.78559 0
M  V30 5277 H 484.318 0.467892 0.47114 0
M  V30 5278 H 486.848 1.81587 0.942725 0
M  V30 5279 H 486.858 2.36045 3.32786 0
M  V30 5280 H 485.533 3.24993 2.59524 0
M  V30 5281 H 484.11 1.5915 3.37233 0
M  V30 5282 N 486.295 -0.989507 1.22664 0
M  V30 5283 C 487.52 -1.77031 1.08051 0
M  V30 5284 C 487.945 -1.84535 -0.364483 0
M  V30 5285 O 487.303 -1.3003 -1.2634 0
M  V30 5286 C 487.351 -3.18 1.70024 0
M  V30 5287 O 486.455 -4.01161 0.956216 0
M  V30 5288 H 485.796 -0.545008 0.379292 0
M  V30 5289 H 488.326 -1.24277 1.62531 0
M  V30 5290 H 488.336 -3.68616 1.74888 0
M  V30 5291 H 487.011 -3.11853 2.75174 0
M  V30 5292 H 485.588 -3.59687 0.98384 0
M  V30 5293 N 487.773 -1.03688 -1.18687 0
M  V30 5294 C 488.703 -0.645407 -2.24403 0
M  V30 5295 C 489.684 0.349511 -1.66471 0
M  V30 5296 O 490.869 0.230453 -1.92828 0
M  V30 5297 C 487.999 -0.00365337 -3.473 0
M  V30 5298 C 486.953 -0.921705 -4.17958 0
M  V30 5299 C 486.279 -0.144629 -5.34504 0
M  V30 5300 C 487.579 -2.23909 -4.71871 0
M  V30 5301 H 489.273 -1.52917 -2.57404 0
M  V30 5302 H 486.819 -0.736711 -1.23728 0
M  V30 5303 H 488.772 0.281908 -4.20456 0
M  V30 5304 H 487.496 0.914963 -3.13522 0
M  V30 5305 H 486.155 -1.19159 -3.46694 0
M  V30 5306 H 485.803 0.776274 -4.96974 0
M  V30 5307 H 485.503 -0.756206 -5.82714 0
M  V30 5308 H 487.027 0.134004 -6.10453 0
M  V30 5309 H 488.441 -2.0145 -5.36741 0
M  V30 5310 H 486.838 -2.8033 -5.30599 0
M  V30 5311 H 487.908 -2.88822 -3.895 0
M  V30 5312 N 489.251 1.34841 -0.815825 0
M  V30 5313 C 490.5 1.97755 -0.396976 0
M  V30 5314 C 490.813 1.65422 1.04379 0
M  V30 5315 O 492.019 2.21771 1.5662 0
M  V30 5316 C 490.475 3.53818 -0.658869 0
M  V30 5317 C 490.083 3.95051 -2.11278 0
M  V30 5318 C 491.827 4.23397 -0.305834 0
M  V30 5319 C 489.734 5.43997 -2.31994 0
M  V30 5320 H 488.664 0.739985 -0.1447 0
M  V30 5321 H 491.315 1.53781 -1.00118 0
M  V30 5322 H 489.697 3.95997 0.0154112 0
M  V30 5323 H 490.871 3.63998 -2.82564 0
M  V30 5324 H 489.186 3.38388 -2.42657 0
M  V30 5325 H 491.783 5.32899 -0.43854 0
M  V30 5326 H 492.126 4.09508 0.748952 0
M  V30 5327 H 492.659 3.8667 -0.934403 0
M  V30 5328 H 489.398 5.62865 -3.35952 0
M  V30 5329 H 488.918 5.76589 -1.65244 0
M  V30 5330 H 490.597 6.10584 -2.14001 0
M  V30 5331 N 490.729 0.570148 1.46925 0
M  V30 5332 C 491.977 0.0508523 2.02036 0
M  V30 5333 C 492.298 -1.30885 1.44548 0
M  V30 5334 O 491.568 -1.85647 0.625453 0
M  V30 5335 H 490.148 0.0158088 0.746833 0
M  V30 5336 H 492.81 0.743086 1.80178 0
M  V30 5337 H 491.906 -0.027575 3.12088 0
M  V30 5338 N 492.207 -1.54576 0.307264 0
M  V30 5339 C 493.432 -2.05139 -0.305379 0
M  V30 5340 C 493.857 -1.18278 -1.46259 0
M  V30 5341 O 493.215 -0.188243 -1.8032 0
M  V30 5342 C 493.263 -3.53066 -0.733283 0
M  V30 5343 O 492.367 -3.69206 -1.83741 0
M  V30 5344 H 491.708 -0.661444 -0.0582105 0
M  V30 5345 H 494.238 -1.99569 0.450931 0
M  V30 5346 H 494.248 -3.95034 -1.02039 0
M  V30 5347 H 492.923 -4.15746 0.113198 0
M  V30 5348 H 491.5 -3.39143 -1.55037 0
M  V30 5349 N 493.685 -0.035106 -1.57561 0
M  V30 5350 C 494.632 0.94474 -2.10578 0
M  V30 5351 C 495.602 1.3192 -1.00927 0
M  V30 5352 O 496.787 1.41147 -1.28382 0
M  V30 5353 C 493.927 2.21982 -2.64231 0
M  V30 5354 C 493.04 1.90128 -3.87911 0
M  V30 5355 C 492.175 3.11975 -4.29936 0
M  V30 5356 C 491.214 2.75968 -5.46359 0
M  V30 5357 N 490.351 3.90459 -5.83512 0
M  V30 5358 H 495.191 0.485717 -2.94015 0
M  V30 5359 H 492.728 0.228143 -1.4532 0
M  V30 5360 H 494.686 2.96572 -2.9343 0
M  V30 5361 H 493.316 2.6549 -1.83616 0
M  V30 5362 H 492.368 1.05755 -3.65404 0
M  V30 5363 H 493.68 1.59613 -4.72573 0
M  V30 5364 H 492.834 3.9488 -4.60603 0
M  V30 5365 H 491.573 3.45657 -3.44053 0
M  V30 5366 H 490.578 1.91478 -5.1538 0
M  V30 5367 H 491.803 2.43497 -6.33945 0
M  V30 5368 H 489.749 4.23971 -5.00584 0
M  V30 5369 H 489.666 3.63588 -6.62827 0
M  V30 5370 H 490.934 4.7405 -6.18787 0
M  V30 5371 N 495.163 1.55791 0.238111 0
M  V30 5372 C 496.41 1.78033 0.964907 0
M  V30 5373 C 496.738 0.600984 1.84982 0
M  V30 5374 O 495.993 -0.41536 1.91241 0
M  V30 5375 C 496.292 3.05869 1.84875 0
M  V30 5376 C 495.958 4.36808 1.11846 0
M  V30 5377 C 494.62 4.72388 0.916662 0
M  V30 5378 C 496.972 5.17717 0.60151 0
M  V30 5379 C 494.3 5.86406 0.185756 0
M  V30 5380 C 496.652 6.32494 -0.115972 0
M  V30 5381 C 495.316 6.66688 -0.329168 0
M  V30 5382 H 494.586 0.651469 0.353085 0
M  V30 5383 H 497.233 1.90061 0.234318 0
M  V30 5384 H 495.538 2.88891 2.64668 0
M  V30 5385 H 497.235 3.20278 2.41294 0
M  V30 5386 H 493.825 4.08862 1.28569 0
M  V30 5387 H 498.009 4.90678 0.744932 0
M  V30 5388 H 493.265 6.11399 0.0101886 0
M  V30 5389 H 497.439 6.94425 -0.524127 0
M  V30 5390 H 495.066 7.54884 -0.897474 0
M  V30 5391 N 496.642 -0.504142 1.49319 0
M  V30 5392 C 497.882 -1.26867 1.60263 0
M  V30 5393 C 498.246 -1.89924 0.281578 0
M  V30 5394 O 499.447 -2.67479 0.266176 0
M  V30 5395 C 497.718 -2.30956 2.72753 0
M  V30 5396 S 499.277 -3.1679 3.03628 0
M  V30 5397 H 496.095 -0.431198 0.565322 0
M  V30 5398 H 498.697 -0.571407 1.86963 0
M  V30 5399 H 497.401 -1.83156 3.67263 0
M  V30 5400 H 496.932 -3.05356 2.48035 0
M  V30 5401 H 498.947 -4.31549 2.44908 0
M  V30 5402 N 498.12 -1.38341 -0.754957 0
M  V30 5403 C 499.531 -1.30803 -1.3322 0
M  V30 5404 C 499.882 0.0368 -1.96165 0
M  V30 5405 O 499.007 0.938844 -1.94974 0
M  V30 5406 C 499.602 -2.3688 -2.42225 0
M  V30 5407 C 498.161 -2.32925 -2.95674 0
M  V30 5408 C 497.308 -2.19819 -1.69042 0
M  V30 5409 H 500.259 -1.48719 -0.553937 0
M  V30 5410 H 500.28 -2.02517 -3.22129 0
M  V30 5411 H 499.792 -3.34747 -1.96383 0
M  V30 5412 H 497.893 -1.38635 -3.45848 0
M  V30 5413 H 498.006 -3.27008 -3.50146 0
M  V30 5414 H 496.37 -1.66648 -1.92615 0
M  V30 5415 H 497.153 -3.19625 -1.25279 0
M  V30 5416 N 499.598 0.982988 -1.23187 0
M  V30 5417 C 500.826 1.75921 -1.08901 0
M  V30 5418 C 501.241 1.85341 0.359719 0
M  V30 5419 O 500.598 1.33072 1.24892 0
M  V30 5420 C 500.649 3.18742 -1.70545 0
M  V30 5421 O 500.37 3.09814 -3.09753 0
M  V30 5422 C 501.871 4.1277 -1.61667 0
M  V30 5423 H 499.091 0.552166 -0.381252 0
M  V30 5424 H 501.635 1.23516 -1.62985 0
M  V30 5425 H 499.79 3.68182 -1.20501 0
M  V30 5426 H 500.204 3.99703 -3.39614 0
M  V30 5427 H 501.678 5.10697 -2.09506 0
M  V30 5428 H 502.155 4.3542 -0.575009 0
M  V30 5429 H 502.761 3.69232 -2.11064 0
M  V30 5430 N 501.076 1.04316 1.18135 0
M  V30 5431 C 501.986 0.646876 2.25505 0
M  V30 5432 C 503.002 -0.328008 1.7088 0
M  V30 5433 O 504.178 -0.182309 2.00573 0
M  V30 5434 C 501.243 0.0185664 3.46695 0
M  V30 5435 C 500.304 1.04277 4.16443 0
M  V30 5436 C 499.537 0.444352 5.31847 0
M  V30 5437 O 499.76 -0.748735 5.65465 0
M  V30 5438 O 498.694 1.17428 5.90334 0
M  V30 5439 H 502.52 1.54147 2.61672 0
M  V30 5440 H 500.105 0.814188 1.25265 0
M  V30 5441 H 501.987 -0.331068 4.20097 0
M  V30 5442 H 500.662 -0.849814 3.12346 0
M  V30 5443 H 499.569 1.44425 3.45098 0
M  V30 5444 H 500.902 1.882 4.54798 0
M  V30 5445 N 502.554 -1.34406 0.822964 0
M  V30 5446 C 503.782 -2.02508 0.424039 0
M  V30 5447 C 504.197 -1.61975 -0.970022 0
M  V30 5448 O 503.554 -0.825228 -1.62777 0
M  V30 5449 C 503.605 -3.57789 0.516657 0
M  V30 5450 O 503.326 -3.96853 1.85577 0
M  V30 5451 C 504.827 -4.43157 0.112637 0
M  V30 5452 H 502.047 -0.649063 0.170173 0
M  V30 5453 H 504.591 -1.7168 1.11113 0
M  V30 5454 H 502.746 -3.87207 -0.122353 0
M  V30 5455 H 503.16 -4.91538 1.83005 0
M  V30 5456 H 504.634 -5.51527 0.228526 0
M  V30 5457 H 505.111 -4.28939 -0.943837 0
M  V30 5458 H 505.717 -4.19067 0.725449 0
M  V30 5459 N 504.032 -0.577932 -1.46621 0
M  V30 5460 C 505.26 -0.0671642 -2.06791 0
M  V30 5461 C 505.675 1.23571 -1.42743 0
M  V30 5462 O 505.032 1.74602 -0.531062 0
M  V30 5463 C 505.083 0.110357 -3.61332 0
M  V30 5464 O 504.804 -1.14095 -4.22982 0
M  V30 5465 C 506.305 0.656025 -4.38419 0
M  V30 5466 H 503.525 -0.0552732 -0.66872 0
M  V30 5467 H 506.069 -0.797242 -1.8832 0
M  V30 5468 H 504.224 0.790637 -3.79246 0
M  V30 5469 H 504.638 -0.951742 -5.15793 0
M  V30 5470 H 506.112 0.729438 -5.47159 0
M  V30 5471 H 506.589 1.67195 -4.06131 0
M  V30 5472 H 507.195 0.0107692 -4.25299 0
M  V30 5473 N 505.51 1.54411 -0.315457 0
M  V30 5474 C 506.443 2.20265 0.596522 0
M  V30 5475 C 507.421 1.17693 1.12192 0
M  V30 5476 O 508.605 1.46397 1.18744 0
M  V30 5477 C 505.732 2.85794 1.81767 0
M  V30 5478 C 504.778 4.02017 1.42424 0
M  V30 5479 S 505.611 5.33452 0.467836 0
M  V30 5480 C 506.767 6.02471 1.69645 0
M  V30 5481 H 507 2.97277 0.0370896 0
M  V30 5482 H 504.533 1.54079 -0.0995562 0
M  V30 5483 H 506.491 3.24172 2.51839 0
M  V30 5484 H 505.152 2.08601 2.34828 0
M  V30 5485 H 504.345 4.46701 2.33396 0
M  V30 5486 H 503.947 3.65271 0.803311 0
M  V30 5487 H 506.239 6.24157 2.63504 0
M  V30 5488 H 507.182 6.96215 1.29192 0
M  V30 5489 H 507.59 5.32284 1.87974 0
M  V30 5490 N 506.988 0.0434614 1.5754 0
M  V30 5491 C 507.918 -0.931651 2.14109 0
M  V30 5492 C 508.899 -1.32971 1.06079 0
M  V30 5493 O 510.084 -1.40579 1.33982 0
M  V30 5494 C 507.214 -2.20914 2.67982 0
M  V30 5495 C 506.168 -1.95139 3.80926 0
M  V30 5496 C 505.494 -3.29276 4.21285 0
M  V30 5497 C 506.794 -1.27913 5.06395 0
M  V30 5498 H 508.488 -0.460497 2.95837 0
M  V30 5499 H 506.034 -0.220058 1.42309 0
M  V30 5500 H 507.987 -2.89522 3.06194 0
M  V30 5501 H 506.711 -2.70221 1.83434 0
M  V30 5502 H 505.37 -1.28945 3.43175 0
M  V30 5503 H 505.018 -3.76369 3.33699 0
M  V30 5504 H 504.718 -3.12831 4.97404 0
M  V30 5505 H 506.242 -3.99129 4.62091 0
M  V30 5506 H 507.656 -1.86544 5.42102 0
M  V30 5507 H 506.053 -1.2182 5.87605 0
M  V30 5508 H 507.123 -0.254066 4.84234 0
M  V30 5509 N 508.466 -1.55915 -0.229846 0
M  V30 5510 C 509.694 -1.82617 -0.972562 0
M  V30 5511 C 510.109 -0.621488 -1.78278 0
M  V30 5512 O 509.466 0.409956 -1.77836 0
M  V30 5513 C 509.517 -3.0774 -1.89679 0
M  V30 5514 O 509.238 -4.23559 -1.11934 0
M  V30 5515 C 510.739 -3.47368 -2.75409 0
M  V30 5516 H 507.959 -0.60727 -0.285419 0
M  V30 5517 H 510.503 -2.02996 -0.247579 0
M  V30 5518 H 508.658 -2.89361 -2.57583 0
M  V30 5519 H 509.072 -4.94586 -1.74599 0
M  V30 5520 H 510.546 -4.37977 -3.35977 0
M  V30 5521 H 511.023 -2.68737 -3.47386 0
M  V30 5522 H 511.629 -3.68158 -2.12931 0
M  V30 5523 N 509.944 0.496216 -1.49584 0
M  V30 5524 C 510.892 1.61805 -1.67098 0
M  V30 5525 C 511.886 1.60667 -0.536877 0
M  V30 5526 O 513.092 1.65118 -0.716654 0
M  V30 5527 H 509.467 0.53646 -0.526986 0
M  V30 5528 H 511.438 1.44187 -2.61252 0
M  V30 5529 C 510.187 2.99912 -1.75921 0
M  V30 5530 H 509.51 3.01496 -2.62565 0
M  V30 5531 H 510.95 3.77931 -1.92209 0
M  V30 5532 C 509.409 3.33092 -0.505088 0
M  V30 5533 O 509.939 4.00019 0.367085 0
M  V30 5534 N 508.145 2.88278 -0.366599 0
M  V30 5535 H 507.692 2.33989 -1.07735 0
M  V30 5536 H 507.65 3.10846 0.47142 0
M  V30 5537 N 511.423 1.38739 0.74761 0
M  V30 5538 C 512.672 1.3459 1.50228 0
M  V30 5539 C 512.985 -0.0595592 1.95509 0
M  V30 5540 O 514.191 -0.22361 2.70578 0
M  V30 5541 C 512.647 2.36377 2.71393 0
M  V30 5542 C 512.255 3.82573 2.33113 0
M  V30 5543 C 513.999 2.41281 3.49262 0
M  V30 5544 C 511.906 4.76032 3.50924 0
M  V30 5545 H 510.836 0.500312 0.564096 0
M  V30 5546 H 513.487 1.64324 0.8167 0
M  V30 5547 H 511.869 1.99694 3.41962 0
M  V30 5548 H 513.043 4.28227 1.70171 0
M  V30 5549 H 511.358 3.80844 1.68365 0
M  V30 5550 H 513.955 3.08301 4.36869 0
M  V30 5551 H 514.298 1.43353 3.9084 0
M  V30 5552 H 514.831 2.76793 2.85711 0
M  V30 5553 H 511.57 5.75177 3.14408 0
M  V30 5554 H 511.09 4.35066 4.12889 0
M  V30 5555 H 512.769 4.94331 4.17427 0
M  V30 5556 N 512.901 -0.976442 1.23707 0
M  V30 5557 C 513.831 -2.08749 1.04624 0
M  V30 5558 C 514.812 -1.70057 -0.0380956 0
M  V30 5559 O 515.997 -1.93782 0.127308 0
M  V30 5560 C 513.127 -3.41335 0.640902 0
M  V30 5561 C 512.081 -3.93947 1.67302 0
M  V30 5562 C 511.407 -5.22774 1.12301 0
M  V30 5563 C 512.707 -4.22769 3.06697 0
M  V30 5564 H 514.401 -2.24972 1.97555 0
M  V30 5565 H 511.947 -1.08108 0.951247 0
M  V30 5566 H 513.9 -4.18489 0.494434 0
M  V30 5567 H 512.624 -3.24988 -0.324099 0
M  V30 5568 H 511.283 -3.18941 1.80755 0
M  V30 5569 H 510.931 -5.0278 0.148877 0
M  V30 5570 H 510.631 -5.58942 1.81267 0
M  V30 5571 H 512.155 -6.02546 0.988479 0
M  V30 5572 H 513.569 -4.90659 2.96524 0
M  V30 5573 H 511.966 -4.70147 3.72937 0
M  V30 5574 H 513.036 -3.29885 3.55392 0
M  V30 5575 N 514.379 -1.04941 -1.1758 0
M  V30 5576 C 515.309 -0.669172 -2.23706 0
M  V30 5577 C 516.29 0.331835 -1.66832 0
M  V30 5578 O 517.475 0.209988 -1.93061 0
M  V30 5579 C 514.605 -0.0404889 -3.47276 0
M  V30 5580 C 513.559 -0.965983 -4.16957 0
M  V30 5581 C 512.885 -0.201312 -5.34321 0
M  V30 5582 C 514.185 -2.28902 -4.69469 0
M  V30 5583 H 515.879 -1.55639 -2.55767 0
M  V30 5584 H 513.425 -0.749793 -1.22939 0
M  V30 5585 H 515.378 0.237298 -4.20731 0
M  V30 5586 H 514.102 0.881658 -3.14475 0
M  V30 5587 H 512.761 -1.22829 -3.45411 0
M  V30 5588 H 512.409 0.723519 -4.97769 0
M  V30 5589 H 512.109 -0.817968 -5.81879 0
M  V30 5590 H 513.633 0.0692499 -6.10561 0
M  V30 5591 H 515.047 -2.07132 -5.34574 0
M  V30 5592 H 513.444 -2.85942 -5.27596 0
M  V30 5593 H 514.514 -2.92937 -3.86414 0
M  V30 5594 N 515.857 1.33968 -0.830081 0
M  V30 5595 C 517.273 1.51003 -0.516742 0
M  V30 5596 C 517.473 1.77286 0.957694 0
M  V30 5597 O 516.529 1.82797 1.74188 0
M  V30 5598 C 517.842 2.67036 -1.38247 0
M  V30 5599 C 519.39 2.80919 -1.38034 0
M  V30 5600 C 519.865 4.00004 -2.23071 0
M  V30 5601 N 521.356 4.07224 -2.20733 0
M  V30 5602 C 522.091 4.98541 -2.83275 0
M  V30 5603 N 521.587 5.95033 -3.54835 0
M  V30 5604 N 523.38 4.91469 -2.72791 0
M  V30 5605 H 515.531 1.15168 -1.78466 0
M  V30 5606 H 517.794 0.565443 -0.760906 0
M  V30 5607 H 517.5 2.54266 -2.42985 0
M  V30 5608 H 517.374 3.62226 -1.05225 0
M  V30 5609 H 519.761 2.93127 -0.340713 0
M  V30 5610 H 519.842 1.86517 -1.75057 0
M  V30 5611 H 519.486 3.88557 -3.27087 0
M  V30 5612 H 519.416 4.93634 -1.83394 0
M  V30 5613 H 521.907 3.38162 -1.68687 0
M  V30 5614 H 522.22 6.61357 -3.99784 0
M  V30 5615 H 520.565 5.95135 -3.58942 0
M  V30 5616 H 523.756 4.15048 -2.16456 0
M  V30 5617 H 523.929 5.62439 -3.21818 0
M  V30 5618 N 517.335 0.585699 1.46312 0
M  V30 5619 C 518.563 0.0781299 2.06752 0
M  V30 5620 C 518.978 -1.22812 1.43396 0
M  V30 5621 O 518.335 -1.74318 0.540314 0
M  V30 5622 C 518.386 -0.0911927 3.61385 0
M  V30 5623 O 518.107 1.16336 4.22371 0
M  V30 5624 C 519.608 -0.632765 4.38761 0
M  V30 5625 H 516.828 0.0588188 0.668417 0
M  V30 5626 H 519.372 0.807218 1.87894 0
M  V30 5627 H 517.527 -0.770514 3.7966 0
M  V30 5628 H 517.941 0.979082 5.15281 0
M  V30 5629 H 519.415 -0.70041 5.47538 0
M  V30 5630 H 519.892 -1.65039 4.07012 0
M  V30 5631 H 520.498 0.0117856 4.25298 0
M  V30 5632 N 518.813 -1.54241 0.323641 0
M  V30 5633 C 520.053 -2.0248 -0.279502 0
M  V30 5634 C 520.417 -1.20672 -1.49339 0
M  V30 5635 O 521.618 -1.58715 -2.1694 0
M  V30 5636 C 519.889 -3.52238 -0.605266 0
M  V30 5637 S 521.448 -4.22411 -1.18805 0
M  V30 5638 H 518.266 -0.705957 -0.0845313 0
M  V30 5639 H 520.868 -1.90089 0.456781 0
M  V30 5640 H 519.572 -4.094 0.286339 0
M  V30 5641 H 519.103 -3.6871 -1.37174 0
M  V30 5642 H 521.118 -4.30075 -2.47487 0
M  V30 5643 N 520.291 -0.0518155 -1.57515 0
M  V30 5644 C 521.702 0.483787 -1.80323 0
M  V30 5645 C 522.053 1.70879 -0.964099 0
M  V30 5646 O 521.178 2.15643 -0.180872 0
M  V30 5647 C 521.773 0.884459 -3.27052 0
M  V30 5648 C 520.332 1.36504 -3.50776 0
M  V30 5649 C 519.479 0.340539 -2.75201 0
M  V30 5650 H 522.43 -0.277691 -1.56252 0
M  V30 5651 H 522.451 1.74733 -3.38007 0
M  V30 5652 H 521.963 -0.00731093 -3.88099 0
M  V30 5653 H 520.064 2.27598 -2.95009 0
M  V30 5654 H 520.177 1.35675 -4.59488 0
M  V30 5655 H 518.541 0.81356 -2.41357 0
M  V30 5656 H 519.324 -0.543156 -3.38976 0
M  V30 5657 N 521.769 1.56035 0.221574 0
M  V30 5658 C 522.701 1.889 1.29805 0
M  V30 5659 C 523.714 0.777269 1.43047 0
M  V30 5660 O 524.903 1.05557 1.43945 0
M  V30 5661 C 522.003 2.0825 2.67367 0
M  V30 5662 C 521.176 3.39267 2.76073 0
M  V30 5663 C 520.235 3.48049 3.94649 0
M  V30 5664 O 519.261 4.2108 3.82988 0
M  V30 5665 N 520.463 2.79191 5.08953 0
M  V30 5666 H 523.228 2.81831 1.01938 0
M  V30 5667 H 520.789 1.5658 0.411612 0
M  V30 5668 H 522.781 2.11441 3.45072 0
M  V30 5669 H 521.351 1.21944 2.87834 0
M  V30 5670 H 520.571 3.48175 1.84846 0
M  V30 5671 H 521.859 4.25575 2.7886 0
M  V30 5672 H 521.257 2.19635 5.21322 0
M  V30 5673 H 519.814 2.88043 5.84701 0
M  V30 5674 N 523.247 -0.488276 1.49845 0
M  V30 5675 C 524.524 -1.24959 1.50481 0
M  V30 5676 C 524.904 -2.09735 0.239698 0
M  V30 5677 O 524.252 -2.14865 -0.777524 0
M  V30 5678 C 524.462 -2.0954 2.79095 0
M  V30 5679 C 525.81 -2.68305 3.29086 0
M  V30 5680 O 526.834 -2.19797 2.80299 0
M  V30 5681 O 525.693 -3.56643 4.14087 0
M  V30 5682 H 522.787 -0.566133 0.602845 0
M  V30 5683 H 525.333 -0.501504 1.6212 0
M  V30 5684 H 524.105 -1.46958 3.62656 0
M  V30 5685 H 523.728 -2.91517 2.70377 0
M  V30 5686 N 524.725 -1.39134 -0.740242 0
M  V30 5687 C 525.675 -1.33928 -1.84519 0
M  V30 5688 C 526.659 -0.221097 -1.59374 0
M  V30 5689 O 527.851 -0.458195 -1.70967 0
M  V30 5690 C 524.98 -1.17991 -3.22387 0
M  V30 5691 C 524.066 -2.34488 -3.53378 0
M  V30 5692 N 524.457 -3.59954 -3.5534 0
M  V30 5693 C 522.755 -2.27331 -3.83714 0
M  V30 5694 C 523.456 -4.36962 -3.83978 0
M  V30 5695 N 522.432 -3.66482 -4.01487 0
M  V30 5696 H 526.234 -2.28907 -1.84333 0
M  V30 5697 H 523.748 -1.32555 -0.938237 0
M  V30 5698 H 525.745 -1.12345 -4.01478 0
M  V30 5699 H 524.405 -0.23957 -3.23815 0
M  V30 5700 H 525.416 -3.93448 -3.36778 0
M  V30 5701 H 522.093 -1.41531 -3.92779 0
M  V30 5702 H 523.483 -5.45692 -3.92008 0
M  V30 5703 N 526.204 0.969867 -1.24223 0
M  V30 5704 C 527.151 2.06407 -1.0327 0
M  V30 5705 C 528.121 1.66014 0.0533 0
M  V30 5706 O 529.306 1.90533 -0.100896 0
M  V30 5707 C 526.446 3.3909 -0.641262 0
M  V30 5708 C 525.559 3.9269 -1.80051 0
M  V30 5709 C 524.694 5.13631 -1.35486 0
M  V30 5710 C 523.733 5.59423 -2.48419 0
M  V30 5711 N 522.87 6.71586 -2.04737 0
M  V30 5712 H 527.71 2.23663 -1.96923 0
M  V30 5713 H 525.247 1.09624 -0.980862 0
M  V30 5714 H 527.205 4.15323 -0.395351 0
M  V30 5715 H 525.835 3.21765 0.258269 0
M  V30 5716 H 524.887 3.13116 -2.16014 0
M  V30 5717 H 526.199 4.22636 -2.64916 0
M  V30 5718 H 525.353 5.97231 -1.0677 0
M  V30 5719 H 524.092 4.85364 -0.476722 0
M  V30 5720 H 523.097 4.74398 -2.77897 0
M  V30 5721 H 524.322 5.89705 -3.36786 0
M  V30 5722 H 522.268 6.45058 -1.19318 0
M  V30 5723 H 522.185 7.0097 -2.83156 0
M  V30 5724 H 523.453 7.58633 -1.79154 0
M  V30 5725 N 527.682 1.05563 1.17022 0
M  V30 5726 C 528.612 0.681026 2.23348 0
M  V30 5727 C 529.593 -0.322983 1.67005 0
M  V30 5728 O 530.778 -0.199746 1.9317 0
M  V30 5729 C 527.908 0.0589053 3.4725 0
M  V30 5730 C 526.862 0.988082 4.16438 0
M  V30 5731 C 526.188 0.229646 5.34207 0
M  V30 5732 C 527.488 2.31388 4.68249 0
M  V30 5733 H 529.182 1.56993 2.54938 0
M  V30 5734 H 526.728 0.756302 1.2254 0
M  V30 5735 H 528.681 -0.214982 4.20851 0
M  V30 5736 H 527.405 -0.864968 3.14938 0
M  V30 5737 H 526.064 1.24659 3.44754 0
M  V30 5738 H 525.712 -0.697111 4.98146 0
M  V30 5739 H 525.412 0.848815 5.81437 0
M  V30 5740 H 526.936 -0.0368694 6.10589 0
M  V30 5741 H 528.35 2.09964 5.33468 0
M  V30 5742 H 526.747 2.88736 5.26072 0
M  V30 5743 H 527.817 2.94982 3.84855 0
M  V30 5744 N 529.16 -1.33526 0.837174 0
M  V30 5745 C 530.108 -2.31168 0.257698 0
M  V30 5746 C 531.102 -1.5806 -0.609388 0
M  V30 5747 O 532.308 -1.72941 -0.499139 0
M  V30 5748 H 528.683 -0.74922 0.0646058 0
M  V30 5749 H 530.654 -2.77552 1.09578 0
M  V30 5750 C 529.403 -3.4326 -0.553887 0
M  V30 5751 H 528.726 -3.99665 0.104008 0
M  V30 5752 H 530.166 -4.13782 -0.925219 0
M  V30 5753 C 528.625 -2.88965 -1.73207 0
M  V30 5754 O 529.155 -2.85013 -2.83073 0
M  V30 5755 N 527.361 -2.45596 -1.55342 0
M  V30 5756 H 526.908 -2.49009 -0.659705 0
M  V30 5757 H 526.866 -2.0962 -2.34322 0
M  V30 5758 N 530.638 -0.59345 -1.46 0
M  V30 5759 C 531.863 -0.0872365 -2.07216 0
M  V30 5760 C 532.288 1.2131 -1.43755 0
M  V30 5761 O 531.646 1.73528 -0.525152 0
M  V30 5762 C 531.694 0.0538197 -3.6056 0
M  V30 5763 O 530.798 1.10765 -3.97247 0
M  V30 5764 H 530.139 -0.0676598 -0.660544 0
M  V30 5765 H 532.669 -0.819445 -1.87473 0
M  V30 5766 H 532.679 0.256567 -4.07193 0
M  V30 5767 H 531.354 -0.895739 -4.0614 0
M  V30 5768 H 529.931 0.882501 -3.62307 0
M  V30 5769 N 532.116 1.54067 -0.331816 0
M  V30 5770 C 533.063 2.24623 0.530372 0
M  V30 5771 C 534.033 1.24009 1.10503 0
M  V30 5772 O 535.218 1.52712 1.14384 0
M  V30 5773 C 532.358 3.01374 1.68129 0
M  V30 5774 C 531.471 4.16821 1.13507 0
M  V30 5775 C 530.606 4.81085 2.25234 0
M  V30 5776 C 529.645 5.88621 1.67903 0
M  V30 5777 N 528.782 6.46713 2.73326 0
M  V30 5778 H 533.622 2.97898 -0.0778607 0
M  V30 5779 H 531.159 1.47014 -0.0501965 0
M  V30 5780 H 533.117 3.44125 2.35868 0
M  V30 5781 H 531.747 2.30419 2.26069 0
M  V30 5782 H 530.799 3.78796 0.348979 0
M  V30 5783 H 532.111 4.94203 0.675633 0
M  V30 5784 H 531.265 5.26846 3.00862 0
M  V30 5785 H 530.004 4.03102 2.74518 0
M  V30 5786 H 529.009 5.42254 0.907773 0
M  V30 5787 H 530.234 6.68506 1.19487 0
M  V30 5788 H 528.18 5.71599 3.21886 0
M  V30 5789 H 528.097 7.19532 2.3197 0
M  V30 5790 H 529.365 6.97129 3.48758 0
M  V30 5791 N 533.594 0.0601682 1.57485 0
M  V30 5792 C 534.84 -0.606552 1.94146 0
M  V30 5793 C 535.195 -1.67918 0.939225 0
M  V30 5794 O 534.488 -1.91558 -0.0402649 0
M  V30 5795 C 534.682 -1.23831 3.35262 0
M  V30 5796 C 534.511 -0.228408 4.4912 0
M  V30 5797 C 533.281 0.182813 5.04969 0
M  V30 5798 C 535.479 0.52975 5.11564 0
M  V30 5799 N 533.461 1.18464 6.02362 0
M  V30 5800 C 534.832 1.38439 6.04346 0
M  V30 5801 C 536.887 0.587084 4.94427 0
M  V30 5802 C 535.59 2.29125 6.81832 0
M  V30 5803 C 537.616 1.4814 5.72546 0
M  V30 5804 C 536.978 2.32375 6.64967 0
M  V30 5805 H 533.077 -0.193328 0.757726 0
M  V30 5806 H 535.661 0.1346 1.94234 0
M  V30 5807 H 533.832 -1.94944 3.35933 0
M  V30 5808 H 535.564 -1.86456 3.59188 0
M  V30 5809 H 532.319 -0.197968 4.73186 0
M  V30 5810 H 532.743 1.68271 6.55754 0
M  V30 5811 H 537.385 -0.049944 4.22771 0
M  V30 5812 H 535.103 2.93868 7.52773 0
M  V30 5813 H 538.689 1.53045 5.6131 0
M  V30 5814 H 537.569 3.00454 7.2436 0
M  V30 5815 N 535.072 -1.5615 -0.213296 0
M  V30 5816 C 536.02 -1.93953 -1.28394 0
M  V30 5817 C 537.014 -0.822592 -1.48087 0
M  V30 5818 O 538.22 -1.00748 -1.49164 0
M  V30 5819 H 534.595 -0.61648 -0.430646 0
M  V30 5820 H 536.566 -2.83275 -0.937977 0
M  V30 5821 C 535.315 -2.27969 -2.62537 0
M  V30 5822 H 534.638 -3.13432 -2.48194 0
M  V30 5823 H 536.078 -2.58297 -3.36242 0
M  V30 5824 C 534.537 -1.10775 -3.18167 0
M  V30 5825 O 535.067 -0.373201 -3.99963 0
M  V30 5826 N 533.273 -0.889377 -2.76656 0
M  V30 5827 H 532.82 -1.48843 -2.10246 0
M  V30 5828 H 532.778 -0.107 -3.14218 0
M  V30 5829 N 536.55 0.480323 -1.50102 0
M  V30 5830 C 537.799 1.22979 -1.59872 0
M  V30 5831 C 538.112 1.93282 -0.30022 0
M  V30 5832 O 539.318 2.70086 -0.276709 0
M  V30 5833 C 537.774 2.23408 -2.82164 0
M  V30 5834 C 537.382 1.5895 -4.18854 0
M  V30 5835 C 539.126 2.99055 -3.01275 0
M  V30 5836 C 537.033 2.57611 -5.32344 0
M  V30 5837 H 535.963 0.462707 -0.59533 0
M  V30 5838 H 538.614 0.501291 -1.7652 0
M  V30 5839 H 536.996 2.99511 -2.59055 0
M  V30 5840 H 538.17 0.887 -4.52182 0
M  V30 5841 H 536.485 0.956191 -4.05273 0
M  V30 5842 H 539.082 3.72876 -3.83233 0
M  V30 5843 H 539.425 3.57897 -2.12639 0
M  V30 5844 H 539.958 2.30066 -3.24522 0
M  V30 5845 H 536.697 2.03521 -6.23105 0
M  V30 5846 H 536.217 3.26041 -5.03445 0
M  V30 5847 H 537.896 3.19627 -5.62537 0
M  V30 5848 N 538.028 1.39524 0.732853 0
M  V30 5849 C 538.958 1.41153 1.86005 0
M  V30 5850 C 539.939 0.274614 1.67869 0
M  V30 5851 O 541.124 0.480745 1.88155 0
M  V30 5852 C 538.254 1.25638 3.23778 0
M  V30 5853 C 537.208 2.36752 3.56556 0
M  V30 5854 C 536.534 2.06326 4.93289 0
M  V30 5855 C 537.834 3.79069 3.5931 0
M  V30 5856 H 539.528 2.35484 1.84899 0
M  V30 5857 H 537.074 1.13348 0.888162 0
M  V30 5858 H 539.027 1.25398 4.0231 0
M  V30 5859 H 537.751 0.277772 3.25417 0
M  V30 5860 H 536.41 2.36213 2.80355 0
M  V30 5861 H 536.058 1.06897 4.9151 0
M  V30 5862 H 535.758 2.80757 5.16187 0
M  V30 5863 H 537.282 2.07739 5.74175 0
M  V30 5864 H 538.696 3.81526 4.27914 0
M  V30 5865 H 537.093 4.52878 3.93728 0
M  V30 5866 H 538.163 4.09893 2.59068 0
M  V30 5867 N 539.506 -0.963266 1.24736 0
M  V30 5868 C 540.746 -1.72172 1.10165 0
M  V30 5869 C 541.11 -1.88731 -0.352784 0
M  V30 5870 O 542.311 -2.61549 -0.620107 0
M  V30 5871 C 540.582 -3.0724 1.82589 0
M  V30 5872 S 542.141 -3.98449 1.83803 0
M  V30 5873 H 538.959 -0.591901 0.393922 0
M  V30 5874 H 541.561 -1.14955 1.58132 0
M  V30 5875 H 540.265 -2.92851 2.87518 0
M  V30 5876 H 539.796 -3.69521 1.34973 0
M  V30 5877 H 541.811 -4.87805 0.908883 0
M  V30 5878 N 540.985 -1.06182 -1.16461 0
M  V30 5879 C 541.895 -0.682671 -2.24448 0
M  V30 5880 C 542.911 0.30078 -1.71381 0
M  V30 5881 O 544.087 0.150376 -2.00838 0
M  V30 5882 C 541.152 -0.0737202 -3.46622 0
M  V30 5883 C 540.213 -1.10889 -4.14731 0
M  V30 5884 C 539.446 -0.528908 -5.31073 0
M  V30 5885 O 539.669 0.65868 -5.66584 0
M  V30 5886 O 538.603 -1.26805 -5.88391 0
M  V30 5887 H 542.429 -1.58291 -2.59187 0
M  V30 5888 H 540.014 -0.834013 -1.23954 0
M  V30 5889 H 541.896 0.264192 -4.20571 0
M  V30 5890 H 540.571 0.800015 -3.13658 0
M  V30 5891 H 539.478 -1.49896 -3.42756 0
M  V30 5892 H 540.811 -1.95412 -4.51747 0
M  V30 5893 N 542.463 1.3308 -0.844243 0
M  V30 5894 C 543.41 2.29104 -0.279323 0
M  V30 5895 C 544.38 1.54577 0.607882 0
M  V30 5896 O 545.565 1.8285 0.545009 0
M  V30 5897 C 542.705 3.40927 0.53508 0
M  V30 5898 C 541.818 4.30354 -0.376749 0
M  V30 5899 C 540.953 5.29297 0.449276 0
M  V30 5900 C 539.992 6.10365 -0.460606 0
M  V30 5901 N 539.129 7.01335 0.327612 0
M  V30 5902 H 543.969 2.76817 -1.10346 0
M  V30 5903 H 541.506 1.36203 -0.555611 0
M  V30 5904 H 543.464 4.04469 1.02278 0
M  V30 5905 H 542.094 2.94391 1.32414 0
M  V30 5906 H 541.146 3.67485 -0.982791 0
M  V30 5907 H 542.458 4.87067 -1.07549 0
M  V30 5908 H 541.612 5.98392 1.00058 0
M  V30 5909 H 540.351 4.73174 1.18143 0
M  V30 5910 H 539.356 5.40182 -1.02388 0
M  V30 5911 H 540.581 6.68571 -1.1912 0
M  V30 5912 H 538.527 6.47655 1.04305 0
M  V30 5913 H 538.444 7.55355 -0.3123 0
M  V30 5914 H 539.712 7.74731 0.86098 0
M  V30 5915 N 543.941 0.601185 1.45683 0
M  V30 5916 C 545.19 0.0914953 2.01492 0
M  V30 5917 C 545.503 -1.28331 1.47616 0
M  V30 5918 O 546.709 -1.88537 1.95362 0
M  V30 5919 C 545.165 0.11291 3.59723 0
M  V30 5920 C 544.773 1.48717 4.22596 0
M  V30 5921 C 546.517 -0.341871 4.23121 0
M  V30 5922 C 544.424 1.46531 5.7296 0
M  V30 5923 H 543.354 0.0304365 0.753385 0
M  V30 5924 H 546.005 0.755568 1.67223 0
M  V30 5925 H 544.387 -0.617692 3.91153 0
M  V30 5926 H 545.561 2.23897 4.02749 0
M  V30 5927 H 543.876 1.88351 3.71366 0
M  V30 5928 H 546.473 -0.377304 5.33367 0
M  V30 5929 H 546.816 -1.36325 3.93346 0
M  V30 5930 H 547.349 0.335256 3.96385 0
M  V30 5931 H 544.088 2.46408 6.07423 0
M  V30 5932 H 543.608 0.755997 5.95017 0
M  V30 5933 H 545.287 1.18618 6.36034 0
M  V30 5934 N 545.419 -1.53889 0.339982 0
M  V30 5935 C 546.366 -2.24902 -0.518452 0
M  V30 5936 C 547.336 -1.24593 -1.09844 0
M  V30 5937 O 548.521 -1.53317 -1.13572 0
M  V30 5938 C 545.661 -3.02262 -1.66529 0
M  V30 5939 C 544.774 -4.17418 -1.11295 0
M  V30 5940 C 543.909 -4.82273 -2.2268 0
M  V30 5941 C 542.948 -5.89503 -1.6478 0
M  V30 5942 N 542.085 -6.48153 -2.69893 0
M  V30 5943 H 546.925 -2.97853 0.0936579 0
M  V30 5944 H 544.462 -1.46986 0.0579924 0
M  V30 5945 H 546.42 -3.45371 -2.3404 0
M  V30 5946 H 545.05 -2.31614 -2.24844 0
M  V30 5947 H 544.102 -3.78976 -0.328886 0
M  V30 5948 H 545.414 -4.94554 -0.649414 0
M  V30 5949 H 544.568 -5.28435 -2.98063 0
M  V30 5950 H 543.307 -4.04552 -2.72376 0
M  V30 5951 H 542.312 -5.42728 -0.879004 0
M  V30 5952 H 543.537 -6.6913 -1.1594 0
M  V30 5953 H 541.483 -5.73298 -3.1885 0
M  V30 5954 H 541.4 -7.20752 -2.28151 0
M  V30 5955 H 542.668 -6.98968 -3.45056 0
M  V30 5956 N 546.897 -0.0685191 -1.57451 0
M  V30 5957 C 548.145 0.60016 -1.92983 0
M  V30 5958 C 548.466 1.70348 -0.949028 0
M  V30 5959 O 547.736 1.959 0.00335647 0
M  V30 5960 H 546.316 0.224682 -0.712409 0
M  V30 5961 H 548.978 -0.125605 -1.94495 0
M  V30 5962 H 548.074 1.02759 -2.94698 0
M  V30 5963 N 548.375 1.56261 0.205012 0
M  V30 5964 C 549.624 1.79236 0.925058 0
M  V30 5965 C 549.937 0.640011 1.84833 0
M  V30 5966 O 551.143 0.753809 2.60826 0
M  V30 5967 C 549.599 3.17475 1.69522 0
M  V30 5968 C 549.207 4.40482 0.817269 0
M  V30 5969 C 550.951 3.49766 2.4055 0
M  V30 5970 C 548.858 5.69744 1.58573 0
M  V30 5971 H 547.788 0.668287 0.349153 0
M  V30 5972 H 550.439 1.82629 0.178544 0
M  V30 5973 H 548.821 3.08304 2.48526 0
M  V30 5974 H 549.995 4.60752 0.0665988 0
M  V30 5975 H 548.31 4.15827 0.218316 0
M  V30 5976 H 550.907 4.43573 2.98575 0
M  V30 5977 H 551.25 2.73041 3.14252 0
M  V30 5978 H 551.783 3.60341 1.68522 0
M  V30 5979 H 548.522 6.49407 0.891679 0
M  V30 5980 H 548.042 5.53509 2.31059 0
M  V30 5981 H 549.721 6.1051 2.14212 0
M  V30 5982 N 549.853 -0.472356 1.50355 0
M  V30 5983 C 550.786 -1.58923 1.63764 0
M  V30 5984 C 551.764 -1.55173 0.485793 0
M  V30 5985 O 552.948 -1.74815 0.705132 0
M  V30 5986 C 550.075 -2.97497 1.61905 0
M  V30 5987 C 549.121 -3.19405 2.82635 0
M  V30 5988 S 549.954 -2.99441 4.43954 0
M  V30 5989 C 551.11 -4.40359 4.44786 0
M  V30 5990 H 551.343 -1.47309 2.58239 0
M  V30 5991 H 548.876 -0.659601 1.39602 0
M  V30 5992 H 550.834 -3.77389 1.61518 0
M  V30 5993 H 549.495 -3.06502 0.686683 0
M  V30 5994 H 548.688 -4.20636 2.77636 0
M  V30 5995 H 548.29 -2.47283 2.80583 0
M  V30 5996 H 550.582 -5.32969 4.1827 0
M  V30 5997 H 551.525 -4.50403 5.46391 0
M  V30 5998 H 551.933 -4.22378 3.74509 0
M  V30 5999 O 551.37 -1.49213 -0.617887 0
M  V30 6000 H 552.061 -1.46058 -1.27227 0
M  V30 END ATOM
M  V30 BEGIN BOND
M  V30 END BOND
M  V30 END CTAB
M  END
$$$$
