drugbank_target|Q9Y2K2 Serine/threonine-protein kinase SIK3 (DB12010)
 OpenBabel12092121163D

  0  0  0     0  0            999 V3000
M  V30 BEGIN CTAB
M  V30 COUNTS 20090 20339 0 0 0
M  V30 BEGIN ATOM
M  V30 1 H -0.908 1.98254 -0.117106 0
M  V30 2 N 0 1.576 0 0
M  V30 3 C 0.933 2.03868 1.02534 0
M  V30 4 C 1.911 0.928543 1.3348 0
M  V30 5 O 3.095 1.19667 1.45644 0
M  V30 6 C 0.222 2.43627 2.35294 0
M  V30 7 C -0.732 3.65373 2.2001 0
M  V30 8 S 0.101 5.13292 1.52614 0
M  V30 9 C 1.257 5.56322 2.86805 0
M  V30 10 H 1.49 2.90518 0.631377 0
M  V30 11 H -0.977 1.52953 0.210867 0
M  V30 12 H 0.981 2.67203 3.11629 0
M  V30 13 H -0.358 1.57376 2.7183 0
M  V30 14 H -1.165 3.90944 3.18086 0
M  V30 15 H -1.563 3.418 1.51819 0
M  V30 16 H 0.729 5.58782 3.83104 0
M  V30 17 H 1.672 6.56266 2.65933 0
M  V30 18 H 2.08 4.83886 2.90714 0
M  V30 19 N 1.4781 -0.272755 1.55222 0
M  V30 20 C 2.4411 -1.32041 1.87344 0
M  V30 21 C 3.4411 -1.42342 0.74803 0
M  V30 22 O 4.6311 -1.41488 1.0162 0
M  V30 23 C 1.7631 -2.70173 2.07893 0
M  V30 24 H 2.9561 -1.04789 2.80997 0
M  V30 25 H 0.5091 -0.51083 1.47717 0
M  V30 26 H 1.2441 -3.02605 1.16622 0
M  V30 27 H 1.0291 -2.64082 2.89833 0
M  V30 28 H 2.5191 -3.45869 2.34017 0
M  V30 29 N 2.9562 -1.48159 -0.537278 0
M  V30 30 C 3.9192 -1.61665 -1.62472 0
M  V30 31 C 4.9192 -0.490395 -1.5314 0
M  V30 32 O 6.1092 -0.755998 -1.5694 0
M  V30 33 C 3.2412 -1.57997 -3.02076 0
M  V30 34 H 4.4342 -2.58621 -1.51839 0
M  V30 35 H 1.9872 -1.36647 -0.758771 0
M  V30 36 H 2.7222 -0.624913 -3.18222 0
M  V30 37 H 2.5072 -2.39755 -3.10258 0
M  V30 38 H 3.9972 -1.70627 -3.81151 0
M  V30 39 N 4.4343 0.785586 -1.36625 0
M  V30 40 C 5.3973 1.87999 -1.31107 0
M  V30 41 C 6.3973 1.59316 -0.217959 0
M  V30 42 O 7.5873 1.67656 -0.472977 0
M  V30 43 C 4.7193 3.24861 -1.03334 0
M  V30 44 H 5.9123 1.94307 -2.2844 0
M  V30 45 H 3.4653 0.983813 -1.21453 0
M  V30 46 H 4.2003 3.24235 -0.0647432 0
M  V30 47 H 3.9853 3.4707 -1.82441 0
M  V30 48 H 5.4753 4.04929 -1.02088 0
M  V30 49 N 5.9124 1.20967 1.01018 0
M  V30 50 C 6.8754 0.965918 2.07853 0
M  V30 51 C 7.8754 -0.0610545 1.60684 0
M  V30 52 O 9.0654 0.175681 1.73312 0
M  V30 53 C 6.1974 0.455513 3.37843 0
M  V30 54 H 7.3904 1.91365 2.3091 0
M  V30 55 H 4.9434 1.02594 1.17916 0
M  V30 56 H 5.6784 -0.497381 3.20463 0
M  V30 57 H 5.4634 1.19622 3.73407 0
M  V30 58 H 6.9534 0.304667 4.16487 0
M  V30 59 N 7.3905 -1.2043 1.01659 0
M  V30 60 C 8.3535 -2.21433 0.591616 0
M  V30 61 C 9.3535 -1.57203 -0.338226 0
M  V30 62 O 10.5435 -1.73737 -0.126918 0
M  V30 63 C 7.6755 -3.40628 -0.136058 0
M  V30 64 H 8.8685 -2.60545 1.48514 0
M  V30 65 H 6.4215 -1.33893 0.806379 0
M  V30 66 H 7.1565 -3.07019 -1.04449 0
M  V30 67 H 6.9415 -3.88475 0.531917 0
M  V30 68 H 8.4315 -4.15475 -0.420735 0
M  V30 69 N 8.8686 -0.792821 -1.36206 0
M  V30 70 C 10.0936 -0.377701 -2.03932 0
M  V30 71 C 10.5186 0.998947 -1.59382 0
M  V30 72 O 9.8766 1.64421 -0.763903 0
M  V30 73 C 9.9246 -0.453635 -3.57735 0
M  V30 74 O 9.0286 0.538151 -4.08874 0
M  V30 75 H 8.3696 -0.159855 -0.644471 0
M  V30 76 H 10.8996 -1.07488 -1.7409 0
M  V30 77 H 10.9096 -0.318464 -4.06755 0
M  V30 78 H 9.5846 -1.45784 -3.89512 0
M  V30 79 H 8.1616 0.364359 -3.71116 0
M  V30 80 N 10.3467 1.47872 -0.545128 0
M  V30 81 C 11.5947 2.02093 -0.016553 0
M  V30 82 C 11.9157 1.42305 1.3332 0
M  V30 83 O 11.1857 0.593853 1.86682 0
M  V30 84 H 9.7657 0.746993 -0.00313038 0
M  V30 85 H 12.4277 1.81414 -0.712397 0
M  V30 86 H 11.5237 3.11996 0.0805422 0
M  V30 87 N 11.8248 0.280983 1.55075 0
M  V30 88 C 12.7878 -0.590896 2.21452 0
M  V30 89 C 13.7878 -1.07682 1.19421 0
M  V30 90 O 14.9778 -0.97605 1.44288 0
M  V30 91 C 12.1098 -1.81587 2.88511 0
M  V30 92 H 13.3028 -0.0112554 2.99898 0
M  V30 93 H 10.8558 0.0316438 1.56268 0
M  V30 94 H 11.5908 -2.43587 2.14093 0
M  V30 95 H 11.3758 -1.4753 3.63287 0
M  V30 96 H 12.8658 -2.43575 3.39206 0
M  V30 97 N 13.3029 -1.57598 0.00835791 0
M  V30 98 C 14.5509 -1.90551 -0.6734 0
M  V30 99 C 14.8719 -0.883301 -1.73847 0
M  V30 100 O 14.1419 0.0781442 -1.95744 0
M  V30 101 H 12.7219 -0.703312 -0.251717 0
M  V30 102 H 15.3839 -1.94833 0.0512592 0
M  V30 103 H 14.4799 -2.9056 -1.13935 0
M  V30 104 N 14.781 0.264519 -1.55364 0
M  V30 105 C 16.029 0.993021 -1.76021 0
M  V30 106 C 16.35 1.86511 -0.569099 0
M  V30 107 O 15.62 1.91438 0.415735 0
M  V30 108 H 14.2 0.369639 -0.649135 0
M  V30 109 H 16.862 0.286707 -1.9278 0
M  V30 110 H 15.958 1.62502 -2.66457 0
M  V30 111 N 16.2591 1.48442 0.529413 0
M  V30 112 C 17.2221 1.62524 1.61612 0
M  V30 113 C 18.2221 0.498509 1.52877 0
M  V30 114 O 19.4121 0.76431 1.56537 0
M  V30 115 C 16.5441 1.59597 3.01233 0
M  V30 116 H 17.7371 2.59423 1.50465 0
M  V30 117 H 15.2901 1.37047 0.751514 0
M  V30 118 H 16.0251 0.641781 3.17886 0
M  V30 119 H 15.8101 2.41397 3.08982 0
M  V30 120 H 17.3001 1.72646 3.80241 0
M  V30 121 N 17.7372 -0.778329 1.37039 0
M  V30 122 C 18.7002 -1.87301 1.32102 0
M  V30 123 C 19.7002 -1.59198 0.226405 0
M  V30 124 O 20.8902 -1.67403 0.481861 0
M  V30 125 C 18.0222 -3.24309 1.05055 0
M  V30 126 H 19.2152 -1.93093 2.29467 0
M  V30 127 H 16.7682 -0.977358 1.21973 0
M  V30 128 H 17.5032 -3.24196 0.0819373 0
M  V30 129 H 17.2882 -3.46098 1.84279 0
M  V30 130 H 18.7782 -4.04382 1.04234 0
M  V30 131 N 19.2153 -1.21501 -1.00376 0
M  V30 132 C 20.4633 -1.03095 -1.73827 0
M  V30 133 C 20.7843 0.436341 -1.90055 0
M  V30 134 O 20.0543 1.31466 -1.45236 0
M  V30 135 H 18.6343 -0.378487 -0.644016 0
M  V30 136 H 21.2963 -1.52831 -1.20949 0
M  V30 137 H 20.3923 -1.49991 -2.73695 0
M  V30 138 N 20.6934 1.19889 -1.02296 0
M  V30 139 C 21.6564 2.21116 -0.603351 0
M  V30 140 C 22.6564 1.5738 0.329884 0
M  V30 141 O 23.8464 1.73802 0.117702 0
M  V30 142 C 20.9784 3.40696 0.117992 0
M  V30 143 H 22.1714 2.59754 -1.49893 0
M  V30 144 H 19.7244 1.33463 -0.813468 0
M  V30 145 H 20.4594 3.07569 1.0282 0
M  V30 146 H 20.2444 3.88188 -0.552511 0
M  V30 147 H 21.7344 4.15692 0.398696 0
M  V30 148 N 22.1715 0.800033 1.35784 0
M  V30 149 C 23.4195 0.376597 1.9856 0
M  V30 150 C 23.7405 -1.05812 1.63795 0
M  V30 151 O 23.0105 -1.73103 0.917171 0
M  V30 152 H 21.5905 0.136261 0.734467 0
M  V30 153 H 24.2525 1.02442 1.65806 0
M  V30 154 H 23.3485 0.477002 3.08433 0
M  V30 155 N 23.6496 -1.47581 0.552962 0
M  V30 156 C 24.8776 -2.06875 0.0320556 0
M  V30 157 C 25.2926 -1.40625 -1.25976 0
M  V30 158 O 24.6496 -0.501349 -1.75479 0
M  V30 159 C 24.7006 -3.61092 -0.17167 0
M  V30 160 O 24.4216 -4.24858 1.06899 0
M  V30 161 C 25.9226 -4.37242 -0.730344 0
M  V30 162 H 23.1426 -0.669561 0.043915 0
M  V30 163 H 25.6866 -1.89646 0.765163 0
M  V30 164 H 23.8416 -3.7785 -0.854894 0
M  V30 165 H 24.2556 -5.17334 0.864059 0
M  V30 166 H 25.7296 -5.45842 -0.822203 0
M  V30 167 H 26.2066 -4.03235 -1.74064 0
M  V30 168 H 26.8126 -4.25219 -0.0829543 0
M  V30 169 N 25.1277 -0.289203 -1.54924 0
M  V30 170 C 26.3757 0.322879 -1.99504 0
M  V30 171 C 26.6967 1.55313 -1.1791 0
M  V30 172 O 25.9667 1.94001 -0.272097 0
M  V30 173 H 24.5467 0.122291 -0.736922 0
M  V30 174 H 27.2087 -0.397802 -1.90797 0
M  V30 175 H 26.3047 0.603061 -3.06218 0
M  V30 176 N 26.6058 1.57591 -0.0167156 0
M  V30 177 C 27.8538 1.90906 0.663285 0
M  V30 178 C 28.1748 0.892509 1.73376 0
M  V30 179 O 27.4448 -0.0677623 1.95783 0
M  V30 180 H 26.0248 0.704637 0.247983 0
M  V30 181 H 28.6868 1.94803 -0.0615909 0
M  V30 182 H 27.7828 2.9116 1.12393 0
M  V30 183 N 28.0839 -0.256276 1.55502 0
M  V30 184 C 29.0469 -1.30047 1.88734 0
M  V30 185 C 30.0469 -1.4154 0.763086 0
M  V30 186 O 31.2369 -1.40403 1.03115 0
M  V30 187 C 28.3689 -2.67953 2.10747 0
M  V30 188 H 29.5619 -1.01802 2.82093 0
M  V30 189 H 27.1149 -0.495134 1.4825 0
M  V30 190 H 27.8499 -3.01351 1.19825 0
M  V30 191 H 27.6349 -2.60993 2.92617 0
M  V30 192 H 29.1249 -3.43368 2.37673 0
M  V30 193 N 29.562 -1.4872 -0.521534 0
M  V30 194 C 30.81 -1.56857 -1.27437 0
M  V30 195 C 31.131 -0.247982 -1.93417 0
M  V30 196 O 30.401 0.731151 -1.81744 0
M  V30 197 H 28.981 -0.577885 -0.473347 0
M  V30 198 H 31.643 -1.85233 -0.606205 0
M  V30 199 H 30.739 -2.35402 -2.0492 0
M  V30 200 N 31.0401 0.771051 -1.3745 0
M  V30 201 C 32.4511 1.34737 -1.29239 0
M  V30 202 C 32.8021 1.96109 0.0596908 0
M  V30 203 O 31.9271 1.93865 0.961534 0
M  V30 204 C 32.5221 2.44973 -2.34037 0
M  V30 205 C 31.0811 2.98372 -2.29458 0
M  V30 206 C 30.2281 1.71595 -2.17831 0
M  V30 207 H 33.1791 0.571256 -1.48062 0
M  V30 208 H 33.2001 3.24471 -1.98744 0
M  V30 209 H 32.7121 2.00276 -3.32432 0
M  V30 210 H 30.8131 3.47443 -1.34589 0
M  V30 211 H 30.9261 3.53939 -3.229 0
M  V30 212 H 29.2901 1.94547 -1.64388 0
M  V30 213 H 30.0731 1.29001 -3.18141 0
M  V30 214 N 32.5182 1.22032 0.997298 0
M  V30 215 C 33.4812 0.987909 2.06816 0
M  V30 216 C 34.4812 -0.0440084 1.6074 0
M  V30 217 O 35.6712 0.194053 1.73116 0
M  V30 218 C 32.8032 0.49132 3.37341 0
M  V30 219 H 33.9962 1.93803 2.28868 0
M  V30 220 H 31.5492 1.03838 1.16822 0
M  V30 221 H 32.2842 -0.463364 3.20973 0
M  V30 222 H 32.0692 1.23575 3.72118 0
M  V30 223 H 33.5592 0.348824 4.16141 0
M  V30 224 N 33.9963 -1.19345 1.0293 0
M  V30 225 C 35.2443 -1.88665 0.724574 0
M  V30 226 C 35.5653 -1.80036 -0.749144 0
M  V30 227 O 34.8353 -1.2111 -1.53978 0
M  V30 228 H 33.4153 -0.698406 0.265025 0
M  V30 229 H 36.0773 -1.44885 1.30362 0
M  V30 230 H 35.1733 -2.94987 1.01926 0
M  V30 231 N 35.4744 -0.807222 -1.35358 0
M  V30 232 C 36.8904 -0.491038 -1.51858 0
M  V30 233 C 37.0904 0.987648 -1.75635 0
M  V30 234 O 36.1464 1.77265 -1.79815 0
M  V30 235 C 37.4594 -1.33695 -2.69344 0
M  V30 236 C 39.0074 -1.33246 -2.83222 0
M  V30 237 C 39.4824 -2.1625 -4.03733 0
M  V30 238 N 40.9734 -2.1379 -4.10911 0
M  V30 239 C 41.7084 -2.74772 -5.03277 0
M  V30 240 N 41.2044 -3.44684 -6.0097 0
M  V30 241 N 42.9974 -2.6441 -4.96028 0
M  V30 242 H 35.1484 -1.76485 -1.18181 0
M  V30 243 H 37.4114 -0.751199 -0.578276 0
M  V30 244 H 37.1174 -2.38634 -2.58354 0
M  V30 245 H 36.9914 -0.990618 -3.6396 0
M  V30 246 H 39.3784 -0.290911 -2.93663 0
M  V30 247 H 39.4594 -1.71866 -1.89461 0
M  V30 248 H 39.1034 -3.20445 -3.94052 0
M  V30 249 H 39.0334 -1.74989 -4.96675 0
M  V30 250 H 41.5244 -1.62923 -3.40976 0
M  V30 251 H 41.8374 -3.88501 -6.68047 0
M  V30 252 H 40.1824 -3.48788 -6.01142 0
M  V30 253 H 43.3734 -2.0938 -4.18662 0
M  V30 254 H 43.5464 -3.12225 -5.6782 0
M  V30 255 N 36.9525 1.47285 -0.560781 0
M  V30 256 C 37.8825 2.32857 0.173105 0
M  V30 257 C 38.8635 1.44009 0.905281 0
M  V30 258 O 40.0485 1.7286 0.885046 0
M  V30 259 C 37.1785 3.25861 1.20133 0
M  V30 260 C 36.1325 4.23978 0.585388 0
M  V30 261 C 35.4585 5.06332 1.7185 0
M  V30 262 C 36.7585 5.20242 -0.463178 0
M  V30 263 H 38.4525 2.94466 -0.541307 0
M  V30 264 H 35.9985 1.41601 -0.261764 0
M  V30 265 H 37.9515 3.84569 1.72293 0
M  V30 266 H 36.6755 2.62315 1.94573 0
M  V30 267 H 35.3345 3.66501 0.085054 0
M  V30 268 H 34.9825 4.39186 2.45203 0
M  V30 269 H 34.6825 5.72762 1.31213 0
M  V30 270 H 36.2065 5.67899 2.24329 0
M  V30 271 H 37.6205 5.73293 -0.027502 0
M  V30 272 H 36.0175 5.94896 -0.788627 0
M  V30 273 H 37.0875 4.65504 -1.35773 0
M  V30 274 N 38.4306 0.297415 1.54768 0
M  V30 275 C 39.3606 -0.573494 2.26348 0
M  V30 276 C 40.3416 -1.14085 1.26169 0
M  V30 277 O 41.5266 -1.17086 1.54934 0
M  V30 278 C 38.6566 -1.74716 3.00153 0
M  V30 279 C 37.6106 -1.31032 4.07449 0
M  V30 280 C 36.9366 -2.56887 4.68949 0
M  V30 281 C 38.2366 -0.444183 5.20408 0
M  V30 282 H 39.9306 0.0235131 2.99391 0
M  V30 283 H 37.4766 0.0127488 1.43994 0
M  V30 284 H 39.4296 -2.3625 3.48947 0
M  V30 285 H 38.1536 -2.37035 2.24682 0
M  V30 286 H 36.8126 -0.718066 3.59499 0
M  V30 287 H 36.4606 -3.17512 3.90122 0
M  V30 288 H 36.1606 -2.2836 5.41411 0
M  V30 289 H 37.6846 -3.19229 5.20505 0
M  V30 290 H 39.0986 -0.9651 5.65118 0
M  V30 291 H 37.4956 -0.252846 5.99567 0
M  V30 292 H 38.5656 0.531609 4.81977 0
M  V30 293 N 39.9087 -1.5758 0.0250728 0
M  V30 294 C 41.3197 -1.79476 -0.514323 0
M  V30 295 C 41.6707 -0.934956 -1.72491 0
M  V30 296 O 40.7957 -0.144245 -2.15919 0
M  V30 297 C 41.3907 -3.25503 -0.939842 0
M  V30 298 C 39.9497 -3.48408 -1.42438 0
M  V30 299 C 39.0967 -2.74583 -0.387201 0
M  V30 300 H 42.0477 -1.567 0.25113 0
M  V30 301 H 42.0687 -3.34992 -1.80445 0
M  V30 302 H 41.5807 -3.88056 -0.0585628 0
M  V30 303 H 39.6817 -2.91103 -2.32572 0
M  V30 304 H 39.7947 -4.57119 -1.43455 0
M  V30 305 H 38.1587 -2.39942 -0.854409 0
M  V30 306 H 38.9417 -3.39849 0.485543 0
M  V30 307 N 41.3868 0.248026 -1.55636 0
M  V30 308 C 42.7978 0.817177 -1.67866 0
M  V30 309 C 43.1488 1.86069 -0.622322 0
M  V30 310 O 42.2738 2.15157 0.231618 0
M  V30 311 C 42.8688 1.489 -3.04326 0
M  V30 312 C 41.4278 2.00587 -3.185 0
M  V30 313 C 40.5748 0.856573 -2.63739 0
M  V30 314 H 43.5258 0.0238579 -1.58682 0
M  V30 315 H 43.5468 2.35698 -2.98708 0
M  V30 316 H 43.0588 0.729279 -3.81186 0
M  V30 317 H 41.1598 2.79443 -2.4646 0
M  V30 318 H 41.2728 2.20402 -4.25393 0
M  V30 319 H 39.6368 1.25678 -2.21534 0
M  V30 320 H 40.4198 0.109953 -3.43124 0
M  V30 321 N 42.8649 1.48995 0.513639 0
M  V30 322 C 44.2759 1.5119 1.09537 0
M  V30 323 C 44.6269 0.290906 1.94031 0
M  V30 324 O 43.7519 -0.60049 2.07902 0
M  V30 325 C 44.3469 2.73964 1.99322 0
M  V30 326 C 42.9059 2.78978 2.52682 0
M  V30 327 C 42.0529 2.44934 1.30009 0
M  V30 328 H 45.0039 1.55875 0.298125 0
M  V30 329 H 45.0249 2.53409 2.83838 0
M  V30 330 H 44.5369 3.62813 1.37799 0
M  V30 331 H 42.6379 1.94378 3.1788 0
M  V30 332 H 42.7509 3.8083 2.90698 0
M  V30 333 H 41.1149 1.9644 1.62122 0
M  V30 334 H 41.8979 3.36043 0.702131 0
M  V30 335 N 44.343 -0.763751 1.37857 0
M  V30 336 C 45.306 -1.85889 1.34081 0
M  V30 337 C 46.306 -1.58949 0.243277 0
M  V30 338 O 47.496 -1.66882 0.499589 0
M  V30 339 C 44.628 -3.23176 1.08489 0
M  V30 340 H 45.821 -1.90648 2.31502 0
M  V30 341 H 43.374 -0.964367 1.23003 0
M  V30 342 H 44.109 -3.24091 0.116318 0
M  V30 343 H 43.894 -3.44124 1.8794 0
M  V30 344 H 45.384 -4.03254 1.08517 0
M  V30 345 N 45.8211 -1.22559 -0.990812 0
M  V30 346 C 47.2321 -1.04791 -1.54518 0
M  V30 347 C 47.5831 0.387998 -1.92325 0
M  V30 348 O 46.7081 1.27328 -1.74976 0
M  V30 349 C 47.3031 -1.896 -2.80779 0
M  V30 350 C 45.8621 -1.76124 -3.32652 0
M  V30 351 C 45.0091 -1.8594 -2.05722 0
M  V30 352 H 47.9601 -1.36374 -0.811662 0
M  V30 353 H 47.9811 -1.41464 -3.53225 0
M  V30 354 H 47.4931 -2.94101 -2.53231 0
M  V30 355 H 45.5941 -0.743643 -3.65104 0
M  V30 356 H 45.7071 -2.58913 -4.03114 0
M  V30 357 H 44.0711 -1.29403 -2.19379 0
M  V30 358 H 44.8541 -2.91976 -1.80568 0
M  V30 359 N 47.2992 1.18797 -1.03562 0
M  V30 360 C 48.5472 1.88278 -0.734569 0
M  V30 361 C 48.8682 1.8043 0.739586 0
M  V30 362 O 48.1382 1.21925 1.53333 0
M  V30 363 H 46.7182 0.696991 -0.268725 0
M  V30 364 H 49.3802 1.44192 -1.31129 0
M  V30 365 H 48.4762 2.94443 -1.03489 0
M  V30 366 N 48.7773 0.814389 1.34928 0
M  V30 367 C 50.0023 0.410097 2.03305 0
M  V30 368 C 50.4273 -0.973464 1.60951 0
M  V30 369 O 49.7853 -1.63185 0.789964 0
M  V30 370 C 49.8333 0.51049 3.56968 0
M  V30 371 O 48.9373 -0.473035 4.09678 0
M  V30 372 H 48.2783 0.170088 0.641846 0
M  V30 373 H 50.8083 1.10244 1.72358 0
M  V30 374 H 50.8183 0.383135 4.06197 0
M  V30 375 H 49.4933 1.51963 3.87144 0
M  V30 376 H 48.0703 -0.305272 3.71648 0
M  V30 377 N 50.2554 -1.46986 0.568584 0
M  V30 378 C 51.6664 -1.86188 0.138219 0
M  V30 379 C 52.0174 -1.47388 -1.29504 0
M  V30 380 O 51.1424 -0.88219 -1.97602 0
M  V30 381 C 51.7374 -3.3792 0.244065 0
M  V30 382 C 50.2964 -3.76171 -0.131335 0
M  V30 383 C 49.4434 -2.71027 0.586465 0
M  V30 384 H 52.3944 -1.38342 0.777645 0
M  V30 385 H 52.4154 -3.76729 -0.534351 0
M  V30 386 H 51.9274 -3.66128 1.28731 0
M  V30 387 H 50.0284 -3.5358 -1.17526 0
M  V30 388 H 50.1414 -4.78523 0.235146 0
M  V30 389 H 48.5054 -2.54684 0.0282722 0
M  V30 390 H 49.2884 -3.02077 1.63109 0
M  V30 391 N 51.7335 -0.305618 -1.54608 0
M  V30 392 C 52.6965 0.555591 -2.22364 0
M  V30 393 C 53.6965 1.05768 -1.21119 0
M  V30 394 O 54.8865 0.952972 -1.45822 0
M  V30 395 C 52.0185 1.76974 -2.91364 0
M  V30 396 H 53.2115 -0.0364572 -2.99878 0
M  V30 397 H 50.7645 -0.0565007 -1.56198 0
M  V30 398 H 51.4995 2.40151 -2.17941 0
M  V30 399 H 51.2845 1.41732 -3.65588 0
M  V30 400 H 52.7745 2.38148 -3.43038 0
M  V30 401 N 53.2116 1.57565 -0.0334293 0
M  V30 402 C 54.1746 2.09393 0.932048 0
M  V30 403 C 55.1746 1.00986 1.25134 0
M  V30 404 O 56.3646 1.27129 1.19096 0
M  V30 405 C 53.4966 2.56338 2.2473 0
M  V30 406 H 54.6896 2.95984 0.483085 0
M  V30 407 H 52.2426 1.54819 0.21468 0
M  V30 408 H 52.9776 1.7309 2.74245 0
M  V30 409 H 52.7626 3.35542 2.02865 0
M  V30 410 H 54.2526 2.96646 2.93923 0
M  V30 411 N 54.6897 -0.239769 1.55765 0
M  V30 412 C 56.1007 -0.808263 1.68297 0
M  V30 413 C 56.4517 -1.85736 0.632181 0
M  V30 414 O 55.5767 -2.15277 -0.220204 0
M  V30 415 C 56.1717 -1.47284 3.05111 0
M  V30 416 C 54.7307 -1.98895 3.19559 0
M  V30 417 C 53.8777 -0.842575 2.64189 0
M  V30 418 H 56.8287 -0.0154422 1.58692 0
M  V30 419 H 56.8497 -2.34111 2.99954 0
M  V30 420 H 56.3617 -0.709053 3.81568 0
M  V30 421 H 54.4627 -2.78132 2.47938 0
M  V30 422 H 54.5757 -2.18143 4.26556 0
M  V30 423 H 52.9397 -1.24501 2.22197 0
M  V30 424 H 53.7227 -0.0917552 3.43177 0
M  V30 425 N 56.1678 -1.49265 -0.50573 0
M  V30 426 C 57.1308 -1.65075 -1.59006 0
M  V30 427 C 58.1308 -0.522768 -1.52065 0
M  V30 428 O 59.3208 -0.789117 -1.55302 0
M  V30 429 C 56.4528 -1.64369 -2.98656 0
M  V30 430 H 57.6458 -2.61784 -1.46319 0
M  V30 431 H 55.1988 -1.38226 -0.729616 0
M  V30 432 H 55.9338 -0.692272 -3.16825 0
M  V30 433 H 55.7188 -2.46282 -3.05103 0
M  V30 434 H 57.2088 -1.78674 -3.77446 0
M  V30 435 N 57.6459 0.756429 -1.3826 0
M  V30 436 C 58.6089 1.85176 -1.35065 0
M  V30 437 C 59.6089 1.58818 -0.251703 0
M  V30 438 O 60.7989 1.66615 -0.508433 0
M  V30 439 C 57.9309 3.22596 -1.10201 0
M  V30 440 H 59.1239 1.89417 -2.3251 0
M  V30 441 H 56.6769 0.95783 -1.23512 0
M  V30 442 H 57.4119 3.24025 -0.133504 0
M  V30 443 H 57.1969 3.43122 -1.89762 0
M  V30 444 H 58.6869 4.02673 -1.10654 0
M  V30 445 N 59.124 1.23083 0.984299 0
M  V30 446 C 60.37 1.06214 1.72761 0
M  V30 447 C 60.703 -0.400584 1.90024 0
M  V30 448 O 59.978 -1.29672 1.44967 0
M  V30 449 C 60.261 1.78375 3.12817 0
M  V30 450 C 60.114 3.32296 3.03149 0
M  V30 451 C 61.433 1.54309 4.12161 0
M  V30 452 H 58.552 0.387251 0.627061 0
M  V30 453 H 61.194 1.51536 1.14616 0
M  V30 454 H 59.344 1.39848 3.62457 0
M  V30 455 H 61.016 3.8032 2.61064 0
M  V30 456 H 59.259 3.6153 2.39747 0
M  V30 457 H 59.93 3.77972 4.02295 0
M  V30 458 H 62.406 1.87791 3.71314 0
M  V30 459 H 61.282 2.07281 5.08258 0
M  V30 460 H 61.543 0.477572 4.39513 0
M  V30 461 N 60.6021 -1.18246 1.0419 0
M  V30 462 C 61.8271 -1.92736 0.765996 0
M  V30 463 C 62.2521 -1.75728 -0.67091 0
M  V30 464 O 61.6101 -1.06825 -1.46486 0
M  V30 465 C 61.6581 -3.42148 1.13875 0
M  V30 466 O 60.7621 -4.11548 0.264954 0
M  V30 467 H 60.1031 -0.601238 0.281797 0
M  V30 468 H 62.6331 -1.49942 1.39207 0
M  V30 469 H 62.6431 -3.92858 1.1012 0
M  V30 470 H 61.3181 -3.53848 2.18551 0
M  V30 471 H 59.8951 -3.71137 0.362226 0
M  V30 472 N 62.0802 -0.821533 -1.34494 0
M  V30 473 C 63.4912 -0.467956 -1.8074 0
M  V30 474 C 63.8422 1.01151 -1.68116 0
M  V30 475 O 62.9672 1.78707 -1.22036 0
M  V30 476 C 63.5622 -0.842627 -3.28154 0
M  V30 477 C 62.1212 -0.541439 -3.72485 0
M  V30 478 C 61.2682 -1.06028 -2.56229 0
M  V30 479 H 64.2192 -1.01183 -1.22261 0
M  V30 480 H 64.2402 -0.145876 -3.8022 0
M  V30 481 H 63.7522 -1.91945 -3.37311 0
M  V30 482 H 61.8532 0.526034 -3.68868 0
M  V30 483 H 61.9662 -1.08453 -4.66663 0
M  V30 484 H 60.3302 -0.481892 -2.501 0
M  V30 485 H 61.1132 -2.14352 -2.68157 0
M  V30 486 N 63.5583 1.46682 -0.576371 0
M  V30 487 C 64.5213 2.28707 0.150239 0
M  V30 488 C 65.5213 1.38035 0.824794 0
M  V30 489 O 66.7113 1.60476 0.677719 0
M  V30 490 C 63.8433 3.18248 1.22192 0
M  V30 491 H 65.0363 2.94423 -0.570521 0
M  V30 492 H 62.5893 1.52688 -0.334078 0
M  V30 493 H 63.3243 2.57265 1.97447 0
M  V30 494 H 63.1093 3.85 0.742812 0
M  V30 495 H 64.5993 3.80001 1.73172 0
M  V30 496 N 65.0364 0.313813 1.54444 0
M  V30 497 C 65.9994 -0.54379 2.22656 0
M  V30 498 C 66.9994 -1.05124 1.21678 0
M  V30 499 O 68.1894 -0.945225 1.46325 0
M  V30 500 C 65.3214 -1.75427 2.92298 0
M  V30 501 H 66.5144 0.0523599 2.99854 0
M  V30 502 H 64.0674 0.0647834 1.56166 0
M  V30 503 H 64.8024 -2.38991 2.19211 0
M  V30 504 H 64.5874 -1.39791 3.66334 0
M  V30 505 H 66.0774 -2.36325 3.44297 0
M  V30 506 N 66.5145 -1.57545 0.0417849 0
M  V30 507 C 67.7625 -1.91937 -0.632829 0
M  V30 508 C 68.0835 -0.919978 -1.71934 0
M  V30 509 O 67.3535 0.0366064 -1.95866 0
M  V30 510 H 65.9335 -0.708493 -0.236742 0
M  V30 511 H 68.5955 -1.9468 0.0925745 0
M  V30 512 H 67.6915 -2.92912 -1.07746 0
M  V30 513 N 67.9926 0.231505 -1.5589 0
M  V30 514 C 68.9246 1.31006 -1.8807 0
M  V30 515 C 69.9376 1.43539 -0.768145 0
M  V30 516 O 71.1266 1.44614 -1.04638 0
M  V30 517 C 68.2266 2.68688 -2.06543 0
M  V30 518 C 67.3996 2.78228 -3.37502 0
M  V30 519 C 66.4586 3.96857 -3.4553 0
M  V30 520 O 65.4846 3.85662 -4.18633 0
M  V30 521 N 66.6866 5.1072 -2.75944 0
M  V30 522 H 69.4516 1.03731 -2.81176 0
M  V30 523 H 67.0126 0.421573 -1.56315 0
M  V30 524 H 69.0046 3.46412 -2.09239 0
M  V30 525 H 67.5746 2.88605 -1.20109 0
M  V30 526 H 66.7946 1.87059 -3.46991 0
M  V30 527 H 68.0826 2.81564 -4.23791 0
M  V30 528 H 67.4806 5.2271 -2.16311 0
M  V30 529 H 66.0376 5.86523 -2.84314 0
M  V30 530 N 69.4707 1.49531 0.497807 0
M  V30 531 C 70.8817 1.52344 1.07927 0
M  V30 532 C 71.2327 0.311469 1.93712 0
M  V30 533 O 70.3577 -0.578405 2.08527 0
M  V30 534 C 70.9527 2.76062 1.96405 0
M  V30 535 C 69.5117 2.81643 2.49709 0
M  V30 536 C 68.6587 2.46299 1.27404 0
M  V30 537 H 71.6097 1.56182 0.281576 0
M  V30 538 H 71.6307 2.56405 2.81135 0
M  V30 539 H 71.1427 3.64254 1.33943 0
M  V30 540 H 69.2437 1.97739 3.15801 0
M  V30 541 H 69.3567 3.83891 2.86643 0
M  V30 542 H 67.7207 1.98148 1.60029 0
M  V30 543 H 68.5037 3.36769 0.66645 0
M  V30 544 N 70.9488 -0.749086 1.3866 0
M  V30 545 C 72.3648 -1.05276 1.19955 0
M  V30 546 C 72.5648 -2.01435 0.05134 0
M  V30 547 O 71.6208 -2.45232 -0.60147 0
M  V30 548 C 72.9338 -1.62853 2.52783 0
M  V30 549 C 74.4818 -1.75002 2.59506 0
M  V30 550 C 74.9568 -2.35991 3.92521 0
M  V30 551 N 76.4478 -2.43416 3.94085 0
M  V30 552 C 77.1828 -2.91511 4.9377 0
M  V30 553 N 76.6788 -3.39608 6.03853 0
M  V30 554 N 78.4718 -2.90592 4.81157 0
M  V30 555 H 70.6228 -0.111066 2.12109 0
M  V30 556 H 72.8858 -0.111901 0.941373 0
M  V30 557 H 72.5918 -0.99664 3.37283 0
M  V30 558 H 72.4658 -2.61854 2.715 0
M  V30 559 H 74.8528 -2.37317 1.75398 0
M  V30 560 H 74.9338 -0.74693 2.44652 0
M  V30 561 H 74.5778 -1.74308 4.77053 0
M  V30 562 H 74.5078 -3.3695 4.04688 0
M  V30 563 H 76.9988 -2.09405 3.14576 0
M  V30 564 H 77.3118 -3.74775 6.75843 0
M  V30 565 H 75.6568 -3.37653 6.07466 0
M  V30 566 H 78.8478 -2.52332 3.94267 0
M  V30 567 H 79.0208 -3.27762 5.58996 0
M  V30 568 N 72.4269 -1.23603 -0.977757 0
M  V30 569 C 73.8379 -1.06424 -1.53398 0
M  V30 570 C 74.1889 0.367578 -1.92726 0
M  V30 571 O 73.3139 1.25465 -1.76316 0
M  V30 572 C 73.9089 -1.92568 -2.78753 0
M  V30 573 C 72.4679 -1.79642 -3.30765 0
M  V30 574 C 71.6149 -1.88111 -2.03739 0
M  V30 575 H 74.5659 -1.37227 -0.797152 0
M  V30 576 H 74.5869 -1.45203 -3.51705 0
M  V30 577 H 74.0989 -2.96771 -2.50098 0
M  V30 578 H 72.1999 -0.782325 -3.64294 0
M  V30 579 H 72.3129 -2.63174 -4.00345 0
M  V30 580 H 70.6769 -1.31723 -2.17994 0
M  V30 581 H 71.4599 -2.93875 -1.77461 0
M  V30 582 N 73.905 1.17692 -1.04816 0
M  V30 583 C 75.316 1.69501 -0.782698 0
M  V30 584 C 75.667 1.83456 0.695577 0
M  V30 585 O 74.792 1.51942 1.54086 0
M  V30 586 C 75.387 3.07874 -1.41419 0
M  V30 587 C 73.946 3.56864 -1.19686 0
M  V30 588 C 73.093 2.3322 -1.50012 0
M  V30 589 H 76.044 1.02262 -1.2136 0
M  V30 590 H 76.065 3.71528 -0.821428 0
M  V30 591 H 75.577 2.97685 -2.49009 0
M  V30 592 H 73.678 3.72337 -0.140043 0
M  V30 593 H 73.791 4.39851 -1.89916 0
M  V30 594 H 72.155 2.37501 -0.920071 0
M  V30 595 H 72.938 2.25644 -2.58727 0
M  V30 596 N 75.3831 0.828654 1.34056 0
M  V30 597 C 76.3461 0.259927 2.27721 0
M  V30 598 C 77.3461 -0.565478 1.50529 0
M  V30 599 O 78.5361 -0.38075 1.69988 0
M  V30 600 C 75.6681 -0.634944 3.34935 0
M  V30 601 H 76.8611 1.0863 2.79534 0
M  V30 602 H 74.4141 0.600951 1.44285 0
M  V30 603 H 75.1491 -1.48416 2.88346 0
M  V30 604 H 74.9341 -0.0444999 3.92075 0
M  V30 605 H 76.4241 -1.02648 4.04788 0
M  V30 606 N 76.8612 -1.46375 0.584142 0
M  V30 607 C 78.2722 -1.86031 0.157959 0
M  V30 608 C 78.6232 -1.48753 -1.27933 0
M  V30 609 O 77.7482 -0.903098 -1.96655 0
M  V30 610 C 78.3432 -3.37642 0.279892 0
M  V30 611 C 76.9022 -3.76289 -0.09143 0
M  V30 612 C 76.0492 -2.7039 0.615178 0
M  V30 613 H 79.0002 -1.37509 0.792274 0
M  V30 614 H 79.0212 -3.77275 -0.494364 0
M  V30 615 H 78.5332 -3.64742 1.32607 0
M  V30 616 H 76.6342 -3.54806 -1.13769 0
M  V30 617 H 76.7472 -4.78246 0.285886 0
M  V30 618 H 75.1112 -2.5464 0.0552833 0
M  V30 619 H 75.8942 -3.0033 1.66303 0
M  V30 620 N 78.3393 -0.321999 -1.54275 0
M  V30 621 C 79.3023 0.531975 -2.22941 0
M  V30 622 C 80.3023 1.04478 -1.22234 0
M  V30 623 O 81.4923 0.937452 -1.46825 0
M  V30 624 C 78.6243 1.73874 -2.93224 0
M  V30 625 H 79.8173 -0.0682612 -2.99822 0
M  V30 626 H 77.3703 -0.0730644 -1.56129 0
M  V30 627 H 78.1053 2.37825 -2.20476 0
M  V30 628 H 77.8903 1.37847 -3.6707 0
M  V30 629 H 79.3803 2.34496 -3.45545 0
M  V30 630 N 79.8174 1.5752 -0.0501392 0
M  V30 631 C 81.0424 1.97376 0.636997 0
M  V30 632 C 81.4674 0.927466 1.63645 0
M  V30 633 O 80.8254 -0.10941 1.8097 0
M  V30 634 C 80.8734 3.36304 1.30123 0
M  V30 635 O 79.9774 3.34156 2.41689 0
M  V30 636 H 79.3184 0.642998 0.165679 0
M  V30 637 H 81.8484 2.04258 -0.118233 0
M  V30 638 H 81.8584 3.73008 1.65315 0
M  V30 639 H 80.5334 4.11993 0.568746 0
M  V30 640 H 79.1104 3.09196 2.08451 0
M  V30 641 N 81.2955 -0.223234 1.56011 0
M  V30 642 C 82.7115 -0.572856 1.48965 0
M  V30 643 C 82.9115 -1.87225 0.74492 0
M  V30 644 O 81.9675 -2.50899 0.283896 0
M  V30 645 C 83.2805 -0.653646 2.9351 0
M  V30 646 C 84.8285 -0.744386 3.0402 0
M  V30 647 C 85.3035 -0.856535 4.49919 0
M  V30 648 N 86.7945 -0.9208 4.53955 0
M  V30 649 C 87.5295 -1.02726 5.64123 0
M  V30 650 N 87.0255 -1.09777 6.84047 0
M  V30 651 N 88.8185 -1.06226 5.51971 0
M  V30 652 H 80.9695 0.629462 2.02858 0
M  V30 653 H 83.2325 0.220621 0.921971 0
M  V30 654 H 82.9385 0.231518 3.50937 0
M  V30 655 H 82.8125 -1.51781 3.45315 0
M  V30 656 H 85.1995 -1.61999 2.46658 0
M  V30 657 H 85.2805 0.14541 2.55386 0
M  V30 658 H 84.9245 0.0146069 5.07898 0
M  V30 659 H 84.8545 -1.76172 4.96257 0
M  V30 660 H 87.3455 -0.876694 3.6759 0
M  V30 661 H 87.6585 -1.17872 7.63758 0
M  V30 662 H 86.0035 -1.06693 6.86762 0
M  V30 663 H 89.1945 -1.00382 4.5721 0
M  V30 664 H 89.3675 -1.14177 6.37862 0
M  V30 665 N 82.7736 -1.49793 -0.48987 0
M  V30 666 C 84.0216 -1.59525 -1.24081 0
M  V30 667 C 84.3426 -0.288953 -1.92847 0
M  V30 668 O 83.6126 0.692436 -1.83254 0
M  V30 669 H 82.1926 -0.587796 -0.460983 0
M  V30 670 H 84.8546 -1.86477 -0.566778 0
M  V30 671 H 83.9506 -2.39696 -1.99881 0
M  V30 672 N 84.2517 0.741722 -1.39055 0
M  V30 673 C 85.6627 1.31966 -1.32068 0
M  V30 674 C 86.0137 1.96192 0.0180797 0
M  V30 675 O 85.1387 1.95861 0.920196 0
M  V30 676 C 85.7337 2.39954 -2.39181 0
M  V30 677 C 84.2927 2.93438 -2.35735 0
M  V30 678 C 83.4397 1.66936 -2.21422 0
M  V30 679 H 86.3907 0.539721 -1.4924 0
M  V30 680 H 86.4117 3.20182 -2.05581 0
M  V30 681 H 85.9237 1.9318 -3.36605 0
M  V30 682 H 84.0247 3.4451 -1.41929 0
M  V30 683 H 84.1377 3.4701 -3.30335 0
M  V30 684 H 82.5017 1.91016 -1.68478 0
M  V30 685 H 83.2847 1.22224 -3.20806 0
M  V30 686 N 85.7298 1.2412 0.971189 0
M  V30 687 C 86.6628 0.97373 2.06382 0
M  V30 688 C 87.6408 -0.0912662 1.62344 0
M  V30 689 O 88.8248 0.0449365 1.88446 0
M  V30 690 C 85.9518 0.468746 3.35441 0
M  V30 691 C 84.9978 1.52176 3.98428 0
M  V30 692 S 85.8308 3.10203 4.36503 0
M  V30 693 C 86.9868 2.61398 5.68702 0
M  V30 694 H 87.2198 1.89893 2.28753 0
M  V30 695 H 84.7528 1.07466 1.10862 0
M  V30 696 H 86.7108 0.184012 4.10087 0
M  V30 697 H 85.3718 -0.435688 3.11064 0
M  V30 698 H 84.5648 1.11876 4.91426 0
M  V30 699 H 84.1668 1.75632 3.30196 0
M  V30 700 H 86.4588 2.03992 6.4606 0
M  V30 701 H 87.4018 3.52972 6.13854 0
M  V30 702 H 87.8098 2.01941 5.27143 0
M  V30 703 N 87.2079 -1.17134 1.05439 0
M  V30 704 C 88.6189 -1.69084 0.791676 0
M  V30 705 C 88.9699 -1.83822 -0.685839 0
M  V30 706 O 88.0949 -1.52757 -1.53278 0
M  V30 707 C 88.6899 -3.07119 1.4305 0
M  V30 708 C 87.2489 -3.56225 1.21577 0
M  V30 709 C 86.3959 -2.32421 1.51247 0
M  V30 710 H 89.3469 -1.01617 1.219 0
M  V30 711 H 89.3679 -3.71087 0.84112 0
M  V30 712 H 88.8799 -2.9636 2.50584 0
M  V30 713 H 86.9809 -3.72257 0.159787 0
M  V30 714 H 87.0939 -4.38837 1.92246 0
M  V30 715 H 85.4579 -2.3701 0.932653 0
M  V30 716 H 86.2409 -2.24268 2.5992 0
M  V30 717 N 88.686 -0.835752 -1.33615 0
M  V30 718 C 89.649 -0.272 -2.2758 0
M  V30 719 C 90.649 0.557487 -1.50827 0
M  V30 720 O 91.839 0.37173 -1.70188 0
M  V30 721 C 88.971 0.617173 -3.35267 0
M  V30 722 H 90.164 -1.10111 -2.78954 0
M  V30 723 H 87.717 -0.608594 -1.43965 0
M  V30 724 H 88.452 1.46884 -2.89129 0
M  V30 725 H 88.237 0.0237066 -3.92093 0
M  V30 726 H 89.727 1.005 -4.05326 0
M  V30 727 N 90.1641 1.46063 -0.591896 0
M  V30 728 C 91.5801 1.57561 -0.254288 0
M  V30 729 C 91.7801 1.58565 1.24336 0
M  V30 730 O 90.8361 1.50753 2.02558 0
M  V30 731 C 92.1491 2.86549 -0.911611 0
M  V30 732 C 93.6971 3.00197 -0.886059 0
M  V30 733 C 94.1721 4.31933 -1.5231 0
M  V30 734 N 95.6631 4.38654 -1.48786 0
M  V30 735 C 96.3981 5.39222 -1.95006 0
M  V30 736 N 95.8941 6.46414 -2.49241 0
M  V30 737 N 97.6871 5.3048 -1.85868 0
M  V30 738 H 89.8381 1.43655 -1.56451 0
M  V30 739 H 92.1011 0.68583 -0.654478 0
M  V30 740 H 91.8071 2.91651 -1.96551 0
M  V30 741 H 91.6811 3.74794 -0.425368 0
M  V30 742 H 94.0681 2.9467 0.159246 0
M  V30 743 H 94.1491 2.13403 -1.41041 0
M  V30 744 H 93.7931 4.38217 -2.56765 0
M  V30 745 H 93.7231 5.17516 -0.973891 0
M  V30 746 H 96.2141 3.61793 -1.09151 0
M  V30 747 H 96.5271 7.19376 -2.82344 0
M  V30 748 H 94.8721 6.47208 -2.53272 0
M  V30 749 H 98.0631 4.45643 -1.43248 0
M  V30 750 H 98.2361 6.08711 -2.22204 0
M  V30 751 N 91.6422 0.330177 1.54103 0
M  V30 752 C 92.8912 -0.271336 1.99867 0
M  V30 753 C 93.2042 -1.52723 1.22209 0
M  V30 754 O 94.4102 -2.20515 1.58383 0
M  V30 755 C 92.8662 -0.534032 3.55916 0
M  V30 756 C 92.4742 0.705193 4.42415 0
M  V30 757 C 94.2182 -1.09514 4.1013 0
M  V30 758 C 92.1252 0.414035 5.89949 0
M  V30 759 H 91.0552 -0.105166 0.74663 0
M  V30 760 H 93.7062 0.443429 1.78062 0
M  V30 761 H 92.0882 -1.30915 3.73734 0
M  V30 762 H 93.2622 1.4804 4.36372 0
M  V30 763 H 91.5772 1.18698 3.99124 0
M  V30 764 H 94.1742 -1.3277 5.17954 0
M  V30 765 H 94.5172 -2.04656 3.62521 0
M  V30 766 H 95.0502 -0.381038 3.95971 0
M  V30 767 H 91.7892 1.33481 6.41766 0
M  V30 768 H 91.3092 -0.323336 5.98928 0
M  V30 769 H 92.9882 0.0263105 6.46995 0
M  V30 770 N 93.1203 -1.57491 0.0584922 0
M  V30 771 C 94.3683 -1.92597 -0.612436 0
M  V30 772 C 94.6893 -0.938162 -1.70949 0
M  V30 773 O 93.9593 0.0158301 -1.95894 0
M  V30 774 H 92.5393 -0.710964 -0.229214 0
M  V30 775 H 95.2013 -1.94571 0.113218 0
M  V30 776 H 94.2973 -2.94038 -1.04633 0
M  V30 777 N 94.5984 0.214957 -1.56127 0
M  V30 778 C 95.8284 0.953707 -1.8327 0
M  V30 779 C 96.2364 1.78181 -0.636262 0
M  V30 780 O 95.5794 1.79191 0.404516 0
M  V30 781 C 95.6414 1.91516 -3.0424 0
M  V30 782 C 95.3054 1.27094 -4.38972 0
M  V30 783 C 96.3024 0.657575 -5.15725 0
M  V30 784 C 93.9874 1.28073 -4.85698 0
M  V30 785 C 95.9814 0.0625968 -6.37369 0
M  V30 786 C 93.6684 0.681914 -6.07283 0
M  V30 787 C 94.6664 0.0739046 -6.8296 0
M  V30 788 O 94.3544 -0.515582 -8.02245 0
M  V30 789 H 94.0864 0.284764 -0.613095 0
M  V30 790 H 96.6404 0.233283 -2.04071 0
M  V30 791 H 94.8704 2.67475 -2.79274 0
M  V30 792 H 96.5594 2.52001 -3.18198 0
M  V30 793 H 97.3254 0.642288 -4.80728 0
M  V30 794 H 93.2044 1.74337 -4.26764 0
M  V30 795 H 96.7484 -0.412593 -6.96379 0
M  V30 796 H 92.6454 0.694636 -6.41752 0
M  V30 797 H 93.4134 -0.410544 -8.1747 0
M  V30 798 N 96.0765 1.50051 0.48192 0
M  V30 799 C 97.3065 1.63999 1.2565 0
M  V30 800 C 97.7145 0.318288 1.86504 0
M  V30 801 O 97.0575 -0.708534 1.69486 0
M  V30 802 C 97.1195 2.66504 2.4128 0
M  V30 803 C 96.7835 4.10352 2.01148 0
M  V30 804 C 97.7805 4.96562 1.54021 0
M  V30 805 C 95.4655 4.56203 2.10199 0
M  V30 806 C 97.4595 6.26668 1.16473 0
M  V30 807 C 95.1465 5.86318 1.72264 0
M  V30 808 C 96.1445 6.71375 1.25477 0
M  V30 809 O 95.8325 7.99062 0.880626 0
M  V30 810 H 95.5645 0.55456 0.386574 0
M  V30 811 H 98.1185 1.96954 0.582944 0
M  V30 812 H 96.3485 2.28769 3.11772 0
M  V30 813 H 98.0375 2.69783 3.03268 0
M  V30 814 H 98.8035 4.62358 1.46458 0
M  V30 815 H 94.6825 3.90152 2.45566 0
M  V30 816 H 98.2265 6.93011 0.798841 0
M  V30 817 H 94.1235 6.20046 1.79482 0
M  V30 818 H 94.8915 8.12239 1.01043 0
M  V30 819 N 97.5546 -0.734337 1.39446 0
M  V30 820 C 98.4646 -1.87879 1.40495 0
M  V30 821 C 99.4806 -1.714 0.299672 0
M  V30 822 O 100.657 -1.93991 0.541249 0
M  V30 823 C 97.7216 -3.23477 1.24754 0
M  V30 824 C 96.7826 -3.52344 2.45259 0
M  V30 825 C 96.0156 -4.81473 2.30259 0
M  V30 826 O 96.2386 -5.55237 1.30643 0
M  V30 827 O 95.1726 -5.10254 3.19256 0
M  V30 828 H 98.9986 -1.89949 2.36966 0
M  V30 829 H 96.5836 -0.882243 1.20569 0
M  V30 830 H 98.4656 -4.04509 1.18111 0
M  V30 831 H 97.1406 -3.22176 0.313781 0
M  V30 832 H 96.0476 -2.71396 2.57478 0
M  V30 833 H 97.3806 -3.58426 3.37331 0
M  V30 834 N 99.0327 -1.24633 -0.964593 0
M  V30 835 C 100.282 -1.08188 -1.7023 0
M  V30 836 C 100.595 0.37873 -1.91898 0
M  V30 837 O 101.801 0.663427 -2.6327 0
M  V30 838 C 100.257 -1.88773 -3.06419 0
M  V30 839 C 99.8647 -3.39263 -2.92582 0
M  V30 840 C 101.609 -1.80867 -3.84041 0
M  V30 841 C 99.5157 -4.1218 -4.24101 0
M  V30 842 H 98.4457 -0.401245 -0.638372 0
M  V30 843 H 101.097 -1.48742 -1.07462 0
M  V30 844 H 99.4787 -1.41035 -3.70034 0
M  V30 845 H 100.653 -3.94603 -2.37961 0
M  V30 846 H 98.9677 -3.48154 -2.28424 0
M  V30 847 H 101.565 -2.32646 -4.81435 0
M  V30 848 H 101.908 -0.774543 -4.09031 0
M  V30 849 H 102.441 -2.26301 -3.27159 0
M  V30 850 H 99.1797 -5.15965 -4.04303 0
M  V30 851 H 98.6997 -3.61626 -4.78526 0
M  V30 852 H 100.379 -4.19349 -4.92702 0
M  V30 853 N 100.511 1.16574 -1.06058 0
M  V30 854 C 101.788 1.83048 -0.689416 0
M  V30 855 C 102.168 1.94122 0.829443 0
M  V30 856 O 101.516 1.48249 1.7388 0
M  V30 857 C 101.726 3.20186 -1.38859 0
M  V30 858 C 103.074 3.95989 -1.53226 0
M  V30 859 O 104.098 3.29696 -1.3483 0
M  V30 860 O 102.957 5.14813 -1.83384 0
M  V30 861 H 100.051 0.790258 -0.243764 0
M  V30 862 H 102.597 1.23797 -1.16071 0
M  V30 863 H 101.369 3.07146 -2.4244 0
M  V30 864 H 100.992 3.87112 -0.907216 0
M  V30 865 N 101.989 0.842826 1.3317 0
M  V30 866 C 103.405 0.531128 1.50503 0
M  V30 867 C 103.605 -0.940734 1.78192 0
M  V30 868 O 102.661 -1.72436 1.84451 0
M  V30 869 C 103.974 1.40789 2.65705 0
M  V30 870 C 105.522 1.40708 2.79589 0
M  V30 871 C 105.997 2.26878 3.97857 0
M  V30 872 N 107.488 2.24609 4.05099 0
M  V30 873 C 108.223 2.88019 4.95815 0
M  V30 874 N 107.719 3.60496 5.9162 0
M  V30 875 N 109.512 2.77469 4.88843 0
M  V30 876 H 101.663 1.79557 1.1346 0
M  V30 877 H 103.926 0.766267 0.558156 0
M  V30 878 H 103.632 2.454 2.51936 0
M  V30 879 H 103.506 1.08677 3.61205 0
M  V30 880 H 105.893 0.368668 2.92788 0
M  V30 881 H 105.974 1.76829 1.84838 0
M  V30 882 H 105.618 3.3078 3.85418 0
M  V30 883 H 105.548 1.88096 4.91861 0
M  V30 884 H 108.039 1.71906 3.36536 0
M  V30 885 H 108.352 4.06076 6.57512 0
M  V30 886 H 106.697 3.64604 5.91683 0
M  V30 887 H 109.888 2.20406 4.12963 0
M  V30 888 H 110.061 3.2717 5.59342 0
M  V30 889 N 103.467 -1.45747 0.599634 0
M  V30 890 C 104.695 -2.06668 0.0978551 0
M  V30 891 C 105.11 -1.44562 -1.21439 0
M  V30 892 O 104.467 -0.556923 -1.73795 0
M  V30 893 C 104.518 -3.61456 -0.0567044 0
M  V30 894 O 104.239 -4.21242 1.20361 0
M  V30 895 C 105.74 -4.39345 -0.590869 0
M  V30 896 H 102.96 -0.667825 0.0651943 0
M  V30 897 H 105.504 -1.87115 0.82511 0
M  V30 898 H 103.659 -3.80378 -0.734251 0
M  V30 899 H 104.073 -5.14323 1.02821 0
M  V30 900 H 105.547 -5.48182 -0.648131 0
M  V30 901 H 106.024 -4.08568 -1.61147 0
M  V30 902 H 106.63 -4.25268 0.0523679 0
M  V30 903 N 104.945 -0.338344 -1.53925 0
M  V30 904 C 106.194 0.260732 -2.00008 0
M  V30 905 C 106.507 1.52073 -1.23017 0
M  V30 906 O 107.713 2.19672 -1.5955 0
M  V30 907 C 106.169 0.51515 -3.56194 0
M  V30 908 C 105.777 -0.728645 -4.42035 0
M  V30 909 C 107.521 1.07337 -4.10706 0
M  V30 910 C 105.428 -0.445315 -5.89721 0
M  V30 911 H 104.358 0.101205 -0.747177 0
M  V30 912 H 107.009 -0.452866 -1.77824 0
M  V30 913 H 105.391 1.28932 -3.74423 0
M  V30 914 H 106.565 -1.50352 -4.35581 0
M  V30 915 H 104.88 -1.20813 -3.98489 0
M  V30 916 H 107.477 1.30022 -5.18651 0
M  V30 917 H 107.82 2.0273 -3.63602 0
M  V30 918 H 108.353 0.360034 -3.96167 0
M  V30 919 H 105.092 -1.36883 -6.41049 0
M  V30 920 H 104.612 0.291569 -5.99091 0
M  V30 921 H 106.291 -0.0606218 -6.46972 0
M  V30 922 N 106.423 1.57458 -0.0668435 0
M  V30 923 C 107.671 1.92919 0.602214 0
M  V30 924 C 107.992 0.947215 1.70449 0
M  V30 925 O 107.262 -0.00544117 1.95899 0
M  V30 926 H 105.842 0.71217 0.22544 0
M  V30 927 H 108.504 1.94508 -0.123535 0
M  V30 928 H 107.6 2.94589 1.03073 0
M  V30 929 N 107.901 -0.206675 1.56239 0
M  V30 930 C 108.848 -1.25617 1.93621 0
M  V30 931 C 109.818 -1.45824 0.795274 0
M  V30 932 O 111.003 -1.59148 1.05245 0
M  V30 933 C 108.143 -2.59839 2.27107 0
M  V30 934 C 107.256 -2.47308 3.54207 0
M  V30 935 C 106.391 -3.74155 3.7707 0
M  V30 936 C 105.43 -3.56407 4.97635 0
M  V30 937 N 104.567 -4.75238 5.1681 0
M  V30 938 H 109.407 -0.930383 2.83104 0
M  V30 939 H 106.944 -0.448065 1.4011 0
M  V30 940 H 108.902 -3.38021 2.44535 0
M  V30 941 H 107.532 -2.90485 1.40778 0
M  V30 942 H 106.584 -1.60483 3.4489 0
M  V30 943 H 107.896 -2.30122 4.42544 0
M  V30 944 H 107.05 -4.60778 3.94675 0
M  V30 945 H 105.789 -3.94282 2.87042 0
M  V30 946 H 104.794 -2.68168 4.79964 0
M  V30 947 H 106.019 -3.37736 5.89161 0
M  V30 948 H 103.965 -4.95651 4.29728 0
M  V30 949 H 103.882 -4.60835 5.99306 0
M  V30 950 H 105.15 -5.63246 5.38864 0
M  V30 951 N 109.379 -1.50304 -0.473955 0
M  V30 952 C 110.627 -1.60832 -1.22382 0
M  V30 953 C 110.948 -0.30939 -1.9253 0
M  V30 954 O 110.218 0.67296 -1.83978 0
M  V30 955 H 108.798 -0.592652 -0.454723 0
M  V30 956 H 111.46 -1.87068 -0.546968 0
M  V30 957 H 110.556 -2.41803 -1.97327 0
M  V30 958 N 110.857 0.726932 -1.39834 0
M  V30 959 C 111.805 1.86235 -1.39353 0
M  V30 960 C 112.799 1.67144 -0.275555 0
M  V30 961 O 114.005 1.74387 -0.44601 0
M  V30 962 H 110.38 0.613174 -0.43534 0
M  V30 963 H 112.351 1.83756 -2.35109 0
M  V30 964 C 111.1 3.23995 -1.26185 0
M  V30 965 H 110.423 3.39285 -2.11484 0
M  V30 966 H 111.863 4.03609 -1.29907 0
M  V30 967 C 110.322 3.36888 0.0290018 0
M  V30 968 O 110.852 3.89152 0.99619 0
M  V30 969 N 109.058 2.90446 0.0947437 0
M  V30 970 H 108.605 2.48102 -0.693035 0
M  V30 971 H 108.563 2.99451 0.957932 0
M  V30 972 N 112.336 1.25143 0.95797 0
M  V30 973 C 113.583 1.09692 1.70217 0
M  V30 974 C 113.911 -0.362654 1.91089 0
M  V30 975 O 113.166 -1.28386 1.47701 0
M  V30 976 C 113.465 1.79272 3.09187 0
M  V30 977 C 113.131 3.29196 3.08125 0
M  V30 978 C 111.793 3.70096 3.07543 0
M  V30 979 C 114.145 4.24995 3.0171 0
M  V30 980 C 111.473 5.05213 2.9829 0
M  V30 981 C 113.825 5.60132 2.93999 0
M  V30 982 C 112.489 6.00365 2.9175 0
M  V30 983 H 111.759 0.401393 0.622868 0
M  V30 984 H 114.406 1.55372 1.11945 0
M  V30 985 H 112.711 1.26014 3.70982 0
M  V30 986 H 114.408 1.64773 3.65583 0
M  V30 987 H 110.998 2.96651 3.09348 0
M  V30 988 H 115.182 3.9439 3.01281 0
M  V30 989 H 110.438 5.35569 2.94916 0
M  V30 990 H 114.612 6.3406 2.87996 0
M  V30 991 H 112.239 7.05023 2.84336 0
M  V30 992 N 113.814 -1.1601 1.06675 0
M  V30 993 C 114.777 -2.18724 0.685001 0
M  V30 994 C 115.777 -1.58496 -0.271246 0
M  V30 995 O 116.967 -1.74119 -0.0531156 0
M  V30 996 C 114.099 -3.40899 0.00853648 0
M  V30 997 H 115.292 -2.54011 1.59431 0
M  V30 998 H 112.845 -1.30352 0.862441 0
M  V30 999 H 113.58 -3.11173 -0.913337 0
M  V30 1000 H 113.365 -3.8587 0.696204 0
M  V30 1001 H 114.855 -4.16886 -0.24414 0
M  V30 1002 N 115.292 -0.849877 -1.32721 0
M  V30 1003 C 116.538 -0.451591 -1.97708 0
M  V30 1004 C 116.871 0.989175 -1.6712 0
M  V30 1005 O 116.146 1.69334 -0.956891 0
M  V30 1006 C 116.429 -0.685598 -3.53513 0
M  V30 1007 C 116.282 -2.17444 -3.93749 0
M  V30 1008 C 117.601 -0.138874 -4.39881 0
M  V30 1009 H 114.72 -0.16555 -0.718166 0
M  V30 1010 H 117.362 -1.06742 -1.57182 0
M  V30 1011 H 115.512 -0.161416 -3.88165 0
M  V30 1012 H 117.184 -2.76433 -3.693 0
M  V30 1013 H 115.427 -2.65476 -3.43081 0
M  V30 1014 H 116.098 -2.28888 -5.02309 0
M  V30 1015 H 118.574 -0.587068 -4.11938 0
M  V30 1016 H 117.45 -0.332213 -5.47894 0
M  V30 1017 H 117.711 0.95806 -4.31594 0
M  V30 1018 N 116.77 1.45427 -0.607355 0
M  V30 1019 C 118.016 2.0254 -0.102607 0
M  V30 1020 C 118.349 1.47478 1.26348 0
M  V30 1021 O 117.624 0.64939 1.83339 0
M  V30 1022 C 117.907 3.60044 -0.0634347 0
M  V30 1023 C 117.76 4.2544 -1.46017 0
M  V30 1024 C 119.079 4.35646 0.624514 0
M  V30 1025 H 116.198 0.73598 -0.0387607 0
M  V30 1026 H 118.84 1.73284 -0.779282 0
M  V30 1027 H 116.99 3.85101 0.512808 0
M  V30 1028 H 118.662 4.11569 -2.08347 0
M  V30 1029 H 116.905 3.83849 -2.02094 0
M  V30 1030 H 117.576 5.34342 -1.385 0
M  V30 1031 H 120.052 4.15882 0.134723 0
M  V30 1032 H 118.928 5.45376 0.621028 0
M  V30 1033 H 119.189 4.08501 1.69055 0
M  V30 1034 N 118.248 0.346503 1.53744 0
M  V30 1035 C 119.195 -0.508914 2.25119 0
M  V30 1036 C 120.165 -1.09315 1.25058 0
M  V30 1037 O 121.35 -1.12921 1.53797 0
M  V30 1038 C 118.49 -1.65246 3.02965 0
M  V30 1039 C 117.603 -1.09525 4.17886 0
M  V30 1040 C 116.738 -2.20634 4.83212 0
M  V30 1041 C 115.777 -1.62279 5.90196 0
M  V30 1042 N 114.914 -2.67143 6.49291 0
M  V30 1043 H 119.754 0.106283 2.9781 0
M  V30 1044 H 117.291 0.0642227 1.4696 0
M  V30 1045 H 119.249 -2.32574 3.4636 0
M  V30 1046 H 117.879 -2.2386 2.32565 0
M  V30 1047 H 116.931 -0.312818 3.79112 0
M  V30 1048 H 118.243 -0.628444 4.94825 0
M  V30 1049 H 117.397 -2.95821 5.29693 0
M  V30 1050 H 116.136 -2.70659 4.05703 0
M  V30 1051 H 115.141 -0.855989 5.43096 0
M  V30 1052 H 116.366 -1.13102 6.69615 0
M  V30 1053 H 114.312 -3.16417 5.74645 0
M  V30 1054 H 114.229 -2.25093 7.21713 0
M  V30 1055 H 115.497 -3.4209 7.00425 0
M  V30 1056 N 119.726 -1.57421 0.075193 0
M  V30 1057 C 121.142 -1.57099 -0.281444 0
M  V30 1058 C 121.342 -1.08486 -1.69803 0
M  V30 1059 O 120.398 -0.752279 -2.41033 0
M  V30 1060 C 121.711 -3.00571 -0.0880041 0
M  V30 1061 C 123.259 -3.12605 -0.157281 0
M  V30 1062 C 123.734 -4.57999 0.0079207 0
M  V30 1063 N 125.225 -4.63176 -0.0475725 0
M  V30 1064 C 125.96 -5.73373 0.0557876 0
M  V30 1065 N 125.456 -6.92473 0.21286 0
M  V30 1066 N 127.249 -5.621 -0.00152098 0
M  V30 1067 H 119.4 -1.87335 1.00098 0
M  V30 1068 H 121.663 -0.86377 0.390646 0
M  V30 1069 H 121.369 -3.40262 0.889629 0
M  V30 1070 H 121.243 -3.67754 -0.838875 0
M  V30 1071 H 123.63 -2.72798 -1.1254 0
M  V30 1072 H 123.711 -2.48053 0.62475 0
M  V30 1073 H 123.355 -4.98496 0.972824 0
M  V30 1074 H 123.285 -5.20586 -0.793556 0
M  V30 1075 H 125.776 -3.7753 -0.167244 0
M  V30 1076 H 126.089 -7.72279 0.283781 0
M  V30 1077 H 124.434 -6.94556 0.248267 0
M  V30 1078 H 127.625 -4.67938 -0.122958 0
M  V30 1079 H 127.798 -6.47948 0.0824844 0
M  V30 1080 N 121.204 0.198386 -1.56346 0
M  V30 1081 C 122.167 1.22952 -1.93431 0
M  V30 1082 C 123.167 1.38611 -0.815092 0
M  V30 1083 O 124.357 1.36479 -1.08255 0
M  V30 1084 C 121.489 2.59946 -2.20546 0
M  V30 1085 H 122.682 0.912626 -2.85677 0
M  V30 1086 H 120.235 0.43977 -1.49986 0
M  V30 1087 H 120.97 2.96696 -1.30927 0
M  V30 1088 H 120.755 2.49953 -3.02102 0
M  V30 1089 H 122.245 3.3431 -2.50253 0
M  V30 1090 N 122.682 1.50554 0.465978 0
M  V30 1091 C 123.91 1.65563 1.24083 0
M  V30 1092 C 124.325 0.341051 1.85694 0
M  V30 1093 O 123.682 -0.677543 1.69457 0
M  V30 1094 C 123.733 2.75051 2.34583 0
M  V30 1095 O 123.454 4.01413 1.75497 0
M  V30 1096 C 124.955 3.01078 3.25372 0
M  V30 1097 H 122.175 0.55638 0.375077 0
M  V30 1098 H 124.719 1.96807 0.555624 0
M  V30 1099 H 122.874 2.46486 2.9887 0
M  V30 1100 H 123.288 4.62002 2.48303 0
M  V30 1101 H 124.762 3.81339 3.99105 0
M  V30 1102 H 125.239 2.12349 3.84453 0
M  V30 1103 H 125.845 3.31194 2.66816 0
M  V30 1104 N 124.16 -0.719506 1.40217 0
M  V30 1105 C 125.11 -1.8251 1.36653 0
M  V30 1106 C 126.094 -1.59028 0.244732 0
M  V30 1107 O 127.286 -1.70268 0.483524 0
M  V30 1108 C 124.415 -3.20599 1.22763 0
M  V30 1109 C 123.501 -3.49858 2.39708 0
M  V30 1110 N 123.892 -3.49957 3.6519 0
M  V30 1111 C 122.19 -3.80297 2.33002 0
M  V30 1112 C 122.891 -3.77449 4.42614 0
M  V30 1113 N 121.867 -3.96002 3.72402 0
M  V30 1114 H 125.669 -1.80914 2.31619 0
M  V30 1115 H 123.183 -0.918455 1.33933 0
M  V30 1116 H 125.18 -3.99766 1.18292 0
M  V30 1117 H 123.84 -3.23424 0.287614 0
M  V30 1118 H 124.851 -3.309 3.98404 0
M  V30 1119 H 121.528 -3.90635 1.47346 0
M  V30 1120 H 122.918 -3.83863 5.51451 0
M  V30 1121 N 125.638 -1.25649 -0.95132 0
M  V30 1122 C 126.568 -1.08808 -2.06599 0
M  V30 1123 C 127.549 0.00382547 -1.701 0
M  V30 1124 O 128.734 -0.166325 -1.93486 0
M  V30 1125 C 125.864 -0.709542 -3.39975 0
M  V30 1126 C 124.818 -1.75206 -3.90496 0
M  V30 1127 C 124.144 -1.22811 -5.20405 0
M  V30 1128 C 125.444 -3.15153 -4.16504 0
M  V30 1129 H 127.138 -2.02048 -2.20946 0
M  V30 1130 H 124.684 -0.972835 -1.06169 0
M  V30 1131 H 126.637 -0.578649 -4.17408 0
M  V30 1132 H 125.361 0.258556 -3.25575 0
M  V30 1133 H 124.02 -1.87145 -3.15234 0
M  V30 1134 H 123.668 -0.250145 -5.02378 0
M  V30 1135 H 123.368 -1.92492 -5.55176 0
M  V30 1136 H 124.892 -1.10968 -6.00432 0
M  V30 1137 H 126.306 -3.06349 -4.84586 0
M  V30 1138 H 124.703 -3.82333 -4.62538 0
M  V30 1139 H 125.773 -3.61966 -3.22658 0
M  V30 1140 N 127.117 1.15442 -1.07289 0
M  V30 1141 C 128.363 1.86489 -0.796846 0
M  V30 1142 C 128.696 1.82078 0.675371 0
M  V30 1143 O 127.971 1.24346 1.4956 0
M  V30 1144 C 128.254 3.35626 -1.30489 0
M  V30 1145 C 128.107 3.48673 -2.84161 0
M  V30 1146 C 129.426 4.30357 -0.920907 0
M  V30 1147 H 126.545 0.677144 -0.290939 0
M  V30 1148 H 129.187 1.35633 -1.33056 0
M  V30 1149 H 127.337 3.79068 -0.850883 0
M  V30 1150 H 129.009 3.14099 -3.37846 0
M  V30 1151 H 127.252 2.90253 -3.22391 0
M  V30 1152 H 127.923 4.53453 -3.14777 0
M  V30 1153 H 130.399 3.94871 -1.3121 0
M  V30 1154 H 129.275 5.33193 -1.30372 0
M  V30 1155 H 129.536 4.4176 0.173226 0
M  V30 1156 N 128.595 0.856903 1.32268 0
M  V30 1157 C 129.823 0.475439 2.01363 0
M  V30 1158 C 130.238 -0.928486 1.64392 0
M  V30 1159 O 129.595 -1.60624 0.866387 0
M  V30 1160 C 129.646 0.607545 3.56358 0
M  V30 1161 O 129.367 1.95617 3.92002 0
M  V30 1162 C 130.868 0.225382 4.42727 0
M  V30 1163 H 128.088 0.186636 0.644521 0
M  V30 1164 H 130.632 1.15446 1.68797 0
M  V30 1165 H 128.787 -0.0237719 3.87393 0
M  V30 1166 H 129.201 1.95455 4.86721 0
M  V30 1167 H 130.675 0.368813 5.50767 0
M  V30 1168 H 131.152 -0.834369 4.31202 0
M  V30 1169 H 131.758 0.831864 4.17085 0
M  V30 1170 N 130.073 -1.45103 0.615059 0
M  V30 1171 C 131.02 -2.30586 -0.0993978 0
M  V30 1172 C 131.99 -1.42544 -0.852669 0
M  V30 1173 O 133.175 -1.71465 -0.836917 0
M  V30 1174 C 130.315 -3.27572 -1.08583 0
M  V30 1175 C 129.428 -4.30717 -0.332656 0
M  V30 1176 C 128.563 -5.14807 -1.30947 0
M  V30 1177 C 127.602 -6.09673 -0.544538 0
M  V30 1178 N 126.739 -6.86517 -1.47101 0
M  V30 1179 H 131.579 -2.91144 0.635542 0
M  V30 1180 H 129.116 -1.4346 0.325206 0
M  V30 1181 H 131.074 -3.82276 -1.67095 0
M  V30 1182 H 129.704 -2.68751 -1.78809 0
M  V30 1183 H 128.756 -3.78615 0.368107 0
M  V30 1184 H 130.068 -4.98102 0.263842 0
M  V30 1185 H 129.222 -5.73948 -1.96643 0
M  V30 1186 H 127.961 -4.47458 -1.9399 0
M  V30 1187 H 126.966 -5.49656 0.126003 0
M  V30 1188 H 128.191 -6.79052 0.080947 0
M  V30 1189 H 126.137 -6.21851 -2.08895 0
M  V30 1190 H 126.054 -7.50281 -0.928137 0
M  V30 1191 H 127.322 -7.50194 -2.11731 0
M  V30 1192 N 131.551 -0.354651 -1.53558 0
M  V30 1193 C 132.514 0.484566 -2.24019 0
M  V30 1194 C 133.514 1.01861 -1.24422 0
M  V30 1195 O 134.704 0.906097 -1.4878 0
M  V30 1196 C 131.836 1.67615 -2.96847 0
M  V30 1197 H 133.029 -0.131843 -2.9961 0
M  V30 1198 H 130.582 -0.106165 -1.55939 0
M  V30 1199 H 131.317 2.33095 -2.25471 0
M  V30 1200 H 131.102 1.30029 -3.69912 0
M  V30 1201 H 132.592 2.27114 -3.50441 0
M  V30 1202 N 133.029 1.57378 -0.0835403 0
M  V30 1203 C 133.976 2.13384 0.879539 0
M  V30 1204 C 134.946 1.04936 1.28754 0
M  V30 1205 O 136.131 1.32662 1.37133 0
M  V30 1206 C 133.271 2.70932 2.13752 0
M  V30 1207 C 132.384 3.93575 1.7811 0
M  V30 1208 C 131.519 4.39326 2.98607 0
M  V30 1209 C 130.558 5.54587 2.59037 0
M  V30 1210 N 129.695 5.95243 3.72331 0
M  V30 1211 H 134.535 2.9537 0.395076 0
M  V30 1212 H 132.072 1.45953 0.183349 0
M  V30 1213 H 134.03 3.02411 2.87408 0
M  V30 1214 H 132.66 1.91693 2.59718 0
M  V30 1215 H 131.712 3.68483 0.94469 0
M  V30 1216 H 133.024 4.77258 1.45005 0
M  V30 1217 H 132.178 4.72528 3.80529 0
M  V30 1218 H 130.917 3.5452 3.34913 0
M  V30 1219 H 129.922 5.21024 1.75539 0
M  V30 1220 H 131.147 6.41133 2.23887 0
M  V30 1221 H 129.093 5.13385 4.08378 0
M  V30 1222 H 129.01 6.73694 3.43034 0
M  V30 1223 H 130.278 6.33072 4.54797 0
M  V30 1224 N 134.507 -0.190092 1.56449 0
M  V30 1225 C 135.753 -0.911052 1.81184 0
M  V30 1226 C 136.086 -1.82699 0.658396 0
M  V30 1227 O 135.361 -1.91491 -0.340775 0
M  V30 1228 C 135.644 -1.72297 3.16205 0
M  V30 1229 C 135.497 -0.831419 4.42049 0
M  V30 1230 C 136.816 -2.69454 3.47969 0
M  V30 1231 H 133.935 -0.32977 0.659106 0
M  V30 1232 H 136.577 -0.178169 1.89163 0
M  V30 1233 H 134.727 -2.34778 3.09534 0
M  V30 1234 H 136.399 -0.220929 4.60771 0
M  V30 1235 H 134.642 -0.138406 4.33579 0
M  V30 1236 H 135.313 -1.43461 5.33032 0
M  V30 1237 H 137.789 -2.17104 3.54972 0
M  V30 1238 H 136.665 -3.23342 4.43555 0
M  V30 1239 H 136.926 -3.48744 2.71717 0
M  V30 1240 N 135.985 -1.50799 -0.457987 0
M  V30 1241 C 136.948 -1.7005 -1.53674 0
M  V30 1242 C 137.948 -0.570881 -1.50325 0
M  V30 1243 O 139.138 -0.838126 -1.52712 0
M  V30 1244 C 136.27 -1.73788 -2.93276 0
M  V30 1245 H 137.463 -2.66306 -1.37917 0
M  V30 1246 H 135.016 -1.40477 -0.685271 0
M  V30 1247 H 135.751 -0.792717 -3.14462 0
M  V30 1248 H 135.536 -2.55864 -2.97113 0
M  V30 1249 H 137.026 -1.90591 -3.71571 0
M  V30 1250 N 137.463 0.71206 -1.40597 0
M  V30 1251 C 138.712 1.46754 -1.38369 0
M  V30 1252 C 139.025 1.95598 0.0097839 0
M  V30 1253 O 140.231 2.71059 0.154677 0
M  V30 1254 C 138.687 2.65289 -2.43207 0
M  V30 1255 C 138.295 2.23301 -3.88382 0
M  V30 1256 C 140.039 3.43008 -2.50091 0
M  V30 1257 C 137.946 3.38696 -4.84808 0
M  V30 1258 H 136.876 0.55118 -0.514506 0
M  V30 1259 H 139.527 0.774616 -1.66349 0
M  V30 1260 H 137.909 3.36769 -2.08332 0
M  V30 1261 H 139.083 1.59218 -4.32419 0
M  V30 1262 H 137.398 1.58618 -3.85006 0
M  V30 1263 H 139.995 4.28881 -3.1932 0
M  V30 1264 H 140.338 3.87065 -1.53253 0
M  V30 1265 H 140.871 2.78574 -2.83974 0
M  V30 1266 H 137.61 2.99668 -5.82992 0
M  V30 1267 H 137.13 4.01683 -4.45433 0
M  V30 1268 H 138.809 4.04712 -5.04794 0
M  V30 1269 N 138.941 1.26152 0.944643 0
M  V30 1270 C 139.888 1.07408 2.04285 0
M  V30 1271 C 140.858 -0.0198413 1.66088 0
M  V30 1272 O 142.043 0.139264 1.90291 0
M  V30 1273 C 139.183 0.70945 3.37729 0
M  V30 1274 C 138.296 1.87926 3.88983 0
M  V30 1275 C 137.431 1.45807 5.10797 0
M  V30 1276 C 136.47 2.5964 5.54305 0
M  V30 1277 N 135.607 2.18226 6.67324 0
M  V30 1278 H 140.447 2.01389 2.1965 0
M  V30 1279 H 137.984 1.00275 1.07626 0
M  V30 1280 H 139.942 0.478948 4.14442 0
M  V30 1281 H 138.572 -0.193389 3.2222 0
M  V30 1282 H 137.624 2.22279 3.08701 0
M  V30 1283 H 138.936 2.73377 4.17213 0
M  V30 1284 H 138.09 1.18781 5.94959 0
M  V30 1285 H 136.829 0.574414 4.84305 0
M  V30 1286 H 135.834 2.87399 4.68702 0
M  V30 1287 H 137.059 3.48599 5.828 0
M  V30 1288 H 135.005 1.3229 6.42523 0
M  V30 1289 H 134.922 2.97221 6.95123 0
M  V30 1290 H 136.19 1.94403 7.54869 0
M  V30 1291 N 140.419 -1.14872 1.07899 0
M  V30 1292 C 141.668 -1.85135 0.800499 0
M  V30 1293 C 141.981 -1.83547 -0.676014 0
M  V30 1294 O 143.187 -2.49548 -1.06948 0
M  V30 1295 C 141.643 -3.3231 1.38197 0
M  V30 1296 C 141.251 -3.42329 2.8899 0
M  V30 1297 C 142.995 -4.0772 1.18174 0
M  V30 1298 C 140.902 -4.83684 3.403 0
M  V30 1299 H 139.832 -0.693563 0.29578 0
M  V30 1300 H 142.483 -1.29532 1.29976 0
M  V30 1301 H 140.865 -3.87618 0.810431 0
M  V30 1302 H 142.039 -2.97097 3.52236 0
M  V30 1303 H 140.354 -2.80369 3.07867 0
M  V30 1304 H 142.951 -5.12049 1.5398 0
M  V30 1305 H 143.294 -4.16124 0.12117 0
M  V30 1306 H 143.827 -3.58696 1.71994 0
M  V30 1307 H 140.566 -4.80465 4.45907 0
M  V30 1308 H 140.086 -5.29474 2.81811 0
M  V30 1309 H 141.765 -5.52558 3.36584 0
M  V30 1310 N 141.898 -0.863906 -1.31812 0
M  V30 1311 C 143.147 -0.46801 -1.96195 0
M  V30 1312 C 143.46 0.983474 -1.69077 0
M  V30 1313 O 144.666 1.48523 -2.27273 0
M  V30 1314 C 143.122 -0.785995 -3.51212 0
M  V30 1315 C 142.73 -2.25383 -3.87178 0
M  V30 1316 C 144.474 -0.458274 -4.22019 0
M  V30 1317 C 142.381 -2.51455 -5.3528 0
M  V30 1318 H 141.311 -0.171283 -0.734287 0
M  V30 1319 H 143.962 -1.05597 -1.50072 0
M  V30 1320 H 142.344 -0.127359 -3.95795 0
M  V30 1321 H 143.518 -2.95502 -3.53575 0
M  V30 1322 H 141.833 -2.54698 -3.2942 0
M  V30 1323 H 144.43 -0.630369 -5.30971 0
M  V30 1324 H 144.773 0.600834 -4.11941 0
M  V30 1325 H 145.306 -1.07319 -3.8305 0
M  V30 1326 H 142.045 -3.56025 -5.50387 0
M  V30 1327 H 141.565 -1.85923 -5.70257 0
M  V30 1328 H 143.244 -2.35874 -6.02472 0
M  V30 1329 N 143.376 1.44774 -0.622745 0
M  V30 1330 C 144.653 1.95522 -0.0551974 0
M  V30 1331 C 145.033 1.5649 1.41683 0
M  V30 1332 O 144.381 0.834848 2.12703 0
M  V30 1333 C 144.591 3.4796 -0.269242 0
M  V30 1334 C 145.939 4.24306 -0.158014 0
M  V30 1335 O 146.963 3.55637 -0.200162 0
M  V30 1336 O 145.822 5.46471 -0.0558693 0
M  V30 1337 H 142.916 0.826556 0.0271015 0
M  V30 1338 H 145.462 1.54866 -0.693864 0
M  V30 1339 H 144.234 3.6939 -1.29099 0
M  V30 1340 H 143.857 3.95543 0.403966 0
M  V30 1341 N 144.854 0.36279 1.53368 0
M  V30 1342 C 145.801 -0.485008 2.25646 0
M  V30 1343 C 146.771 -1.07982 1.2621 0
M  V30 1344 O 147.956 -1.11284 1.54986 0
M  V30 1345 C 145.096 -1.62023 3.04701 0
M  V30 1346 C 144.209 -1.05086 4.19024 0
M  V30 1347 C 143.344 -2.15496 4.85525 0
M  V30 1348 C 142.383 -1.5601 5.91884 0
M  V30 1349 N 141.52 -2.60241 6.52088 0
M  V30 1350 H 146.36 0.137864 2.97681 0
M  V30 1351 H 143.897 0.0798061 1.46883 0
M  V30 1352 H 145.855 -2.28887 3.48807 0
M  V30 1353 H 144.485 -2.2138 2.34927 0
M  V30 1354 H 143.537 -0.27259 3.79422 0
M  V30 1355 H 144.849 -0.575926 4.95464 0
M  V30 1356 H 144.003 -2.90186 5.32801 0
M  V30 1357 H 142.742 -2.66341 4.08551 0
M  V30 1358 H 141.747 -0.798338 5.43973 0
M  V30 1359 H 142.972 -1.05994 6.70777 0
M  V30 1360 H 140.918 -3.10304 5.77968 0
M  V30 1361 H 140.835 -2.17426 7.24059 0
M  V30 1362 H 142.103 -3.34641 7.04014 0
M  V30 1363 N 146.332 -1.57332 0.0918853 0
M  V30 1364 C 147.56 -1.98574 -0.581048 0
M  V30 1365 C 147.975 -0.970903 -1.61923 0
M  V30 1366 O 147.332 0.0399054 -1.82456 0
M  V30 1367 C 147.383 -3.39872 -1.23164 0
M  V30 1368 O 147.104 -4.37469 -0.234989 0
M  V30 1369 C 148.605 -3.96099 -1.99049 0
M  V30 1370 H 145.825 -0.65261 -0.156018 0
M  V30 1371 H 148.369 -2.0379 0.170225 0
M  V30 1372 H 146.524 -3.35679 -1.93386 0
M  V30 1373 H 146.938 -5.19751 -0.70418 0
M  V30 1374 H 148.412 -4.97127 -2.39934 0
M  V30 1375 H 148.889 -3.3374 -2.85507 0
M  V30 1376 H 149.495 -4.03755 -1.3365 0
M  V30 1377 N 147.81 0.181792 -1.56548 0
M  V30 1378 C 148.742 1.24956 -1.92142 0
M  V30 1379 C 149.755 1.41022 -0.813422 0
M  V30 1380 O 150.944 1.41212 -1.09186 0
M  V30 1381 C 148.044 2.61981 -2.14987 0
M  V30 1382 C 147.217 2.6735 -3.46183 0
M  V30 1383 C 146.276 3.85664 -3.5798 0
M  V30 1384 O 145.302 3.72148 -4.30691 0
M  V30 1385 N 146.504 5.01683 -2.92053 0
M  V30 1386 H 149.269 0.947329 -2.84334 0
M  V30 1387 H 146.83 0.371629 -1.57577 0
M  V30 1388 H 148.822 3.3958 -2.20154 0
M  V30 1389 H 147.392 2.84637 -1.2923 0
M  V30 1390 H 146.612 1.75925 -3.52766 0
M  V30 1391 H 147.9 2.67939 -4.32534 0
M  V30 1392 H 147.298 5.15564 -2.32832 0
M  V30 1393 H 145.855 5.77181 -3.0283 0
M  V30 1394 N 149.288 1.51039 0.449983 0
M  V30 1395 C 150.218 1.74379 1.55288 0
M  V30 1396 C 151.199 0.593236 1.5942 0
M  V30 1397 O 152.384 0.834625 1.7535 0
M  V30 1398 C 149.514 1.85728 2.93466 0
M  V30 1399 C 148.468 3.01078 3.04197 0
M  V30 1400 C 147.794 2.97595 4.44231 0
M  V30 1401 C 149.094 4.41254 2.7945 0
M  V30 1402 H 150.788 2.66725 1.36008 0
M  V30 1403 H 148.334 1.2835 0.652864 0
M  V30 1404 H 150.287 2.0064 3.70569 0
M  V30 1405 H 149.011 0.900207 3.13949 0
M  V30 1406 H 147.67 2.85851 2.29531 0
M  V30 1407 H 147.318 1.99691 4.61663 0
M  V30 1408 H 147.018 3.75046 4.52343 0
M  V30 1409 H 148.542 3.14583 5.23326 0
M  V30 1410 H 149.956 4.56897 3.46292 0
M  V30 1411 H 148.353 5.20315 2.98985 0
M  V30 1412 H 149.423 4.52164 1.75144 0
M  V30 1413 N 150.766 -0.704594 1.40972 0
M  V30 1414 C 152.043 -1.45847 1.30338 0
M  V30 1415 C 152.423 -2.10973 -0.0732344 0
M  V30 1416 O 151.771 -2.00997 -1.08685 0
M  V30 1417 C 151.981 -2.48525 2.45023 0
M  V30 1418 C 153.329 -3.1404 2.8577 0
M  V30 1419 O 154.353 -2.58848 2.44696 0
M  V30 1420 O 153.212 -4.13981 3.56766 0
M  V30 1421 H 150.306 -0.649092 0.512454 0
M  V30 1422 H 152.852 -0.735836 1.52917 0
M  V30 1423 H 151.624 -1.98994 3.36923 0
M  V30 1424 H 151.247 -3.2831 2.24272 0
M  V30 1425 N 152.244 -1.26651 -0.937939 0
M  V30 1426 C 153.154 -1.10276 -2.07066 0
M  V30 1427 C 154.17 -0.0354197 -1.73964 0
M  V30 1428 O 155.346 -0.239816 -1.99967 0
M  V30 1429 C 152.411 -0.740887 -3.38691 0
M  V30 1430 C 151.472 -1.88799 -3.85556 0
M  V30 1431 C 150.705 -1.54329 -5.10899 0
M  V30 1432 O 150.928 -0.446494 -5.6865 0
M  V30 1433 O 149.862 -2.37911 -5.52885 0
M  V30 1434 H 153.688 -2.05309 -2.23789 0
M  V30 1435 H 151.273 -1.05743 -1.0554 0
M  V30 1436 H 153.155 -0.55195 -4.1777 0
M  V30 1437 H 151.83 0.180022 -3.23199 0
M  V30 1438 H 150.737 -2.13191 -3.07409 0
M  V30 1439 H 152.07 -2.78874 -4.05574 0
M  V30 1440 N 153.722 1.14298 -1.08507 0
M  V30 1441 C 154.632 2.23027 -0.727753 0
M  V30 1442 C 155.648 1.71952 0.26619 0
M  V30 1443 O 156.824 2.011 0.109882 0
M  V30 1444 C 153.889 3.46403 -0.143541 0
M  V30 1445 C 152.95 4.12413 -1.19223 0
M  V30 1446 C 152.183 5.29899 -0.635798 0
M  V30 1447 O 152.406 5.67796 0.544393 0
M  V30 1448 O 151.34 5.85717 -1.38634 0
M  V30 1449 H 155.166 2.55945 -1.63481 0
M  V30 1450 H 152.751 1.22248 -0.858817 0
M  V30 1451 H 154.633 4.21018 0.179404 0
M  V30 1452 H 153.308 3.15206 0.736659 0
M  V30 1453 H 152.215 3.39667 -1.56772 0
M  V30 1454 H 153.548 4.47718 -2.04474 0
M  V30 1455 N 155.201 0.870884 1.31352 0
M  V30 1456 C 156.149 0.316445 2.30437 0
M  V30 1457 C 157.143 -0.568965 1.59559 0
M  V30 1458 O 158.349 -0.454964 1.74155 0
M  V30 1459 H 154.724 0.0836521 0.747333 0
M  V30 1460 H 156.695 1.16606 2.74673 0
M  V30 1461 C 155.444 -0.46635 3.44558 0
M  V30 1462 H 154.767 0.205687 3.99271 0
M  V30 1463 H 156.207 -0.819614 4.16003 0
M  V30 1464 C 154.666 -1.65797 2.9328 0
M  V30 1465 O 155.196 -2.75728 2.92125 0
M  V30 1466 N 153.402 -1.49041 2.4947 0
M  V30 1467 H 152.949 -0.59612 2.50608 0
M  V30 1468 H 152.907 -2.28911 2.15516 0
M  V30 1469 N 156.679 -1.44442 0.630414 0
M  V30 1470 C 157.609 -2.33418 -0.0618083 0
M  V30 1471 C 158.59 -1.48165 -0.835541 0
M  V30 1472 O 159.775 -1.76886 -0.801564 0
M  V30 1473 C 156.905 -3.31222 -1.04449 0
M  V30 1474 C 155.859 -4.26288 -0.382436 0
M  V30 1475 C 155.185 -5.13954 -1.47497 0
M  V30 1476 C 156.485 -5.1744 0.710865 0
M  V30 1477 H 158.179 -2.91548 0.681184 0
M  V30 1478 H 155.725 -1.40191 0.329026 0
M  V30 1479 H 157.678 -3.92351 -1.53748 0
M  V30 1480 H 156.402 -2.71299 -1.81836 0
M  V30 1481 H 155.061 -3.6649 0.0899054 0
M  V30 1482 H 154.709 -4.50385 -2.2397 0
M  V30 1483 H 154.409 -5.7837 -1.03737 0
M  V30 1484 H 155.933 -5.77955 -1.96979 0
M  V30 1485 H 157.347 -5.72509 0.300996 0
M  V30 1486 H 155.744 -5.90455 1.07156 0
M  V30 1487 H 156.814 -4.58496 1.57829 0
M  V30 1488 N 158.157 -0.370918 -1.53173 0
M  V30 1489 C 159.104 0.473035 -2.259 0
M  V30 1490 C 160.074 1.07311 -1.26781 0
M  V30 1491 O 161.259 1.1046 -1.55574 0
M  V30 1492 C 158.399 1.60405 -3.05556 0
M  V30 1493 C 157.512 1.02863 -4.19575 0
M  V30 1494 C 156.647 2.12918 -4.86661 0
M  V30 1495 C 155.686 1.52869 -5.92704 0
M  V30 1496 N 154.823 2.56779 -6.53459 0
M  V30 1497 H 159.663 -0.153649 -2.97604 0
M  V30 1498 H 157.2 -0.0875946 -1.46839 0
M  V30 1499 H 159.158 2.27034 -3.50016 0
M  V30 1500 H 157.788 2.20131 -2.36097 0
M  V30 1501 H 156.84 0.252465 -3.79561 0
M  V30 1502 H 158.152 0.549642 -4.95762 0
M  V30 1503 H 157.306 2.87356 -5.34333 0
M  V30 1504 H 156.045 2.6417 -4.09958 0
M  V30 1505 H 155.05 0.769479 -5.44389 0
M  V30 1506 H 156.275 1.02435 -6.7133 0
M  V30 1507 H 154.221 3.07235 -5.79606 0
M  V30 1508 H 154.138 2.13583 -7.25202 0
M  V30 1509 H 155.406 3.30903 -7.05779 0
M  V30 1510 N 159.635 1.57281 -0.100228 0
M  V30 1511 C 160.582 2.14305 0.856858 0
M  V30 1512 C 161.552 1.06296 1.27634 0
M  V30 1513 O 162.737 1.34109 1.35718 0
M  V30 1514 C 159.877 2.73184 2.10866 0
M  V30 1515 C 158.99 3.95442 1.73925 0
M  V30 1516 C 158.125 4.42468 2.93931 0
M  V30 1517 C 157.164 5.57303 2.5314 0
M  V30 1518 N 156.301 5.99158 3.65997 0
M  V30 1519 H 161.141 2.95772 0.363726 0
M  V30 1520 H 158.678 1.46139 0.167858 0
M  V30 1521 H 160.636 3.05442 2.84185 0
M  V30 1522 H 159.266 1.94437 2.57671 0
M  V30 1523 H 158.318 3.69464 0.905554 0
M  V30 1524 H 159.63 4.78769 1.39935 0
M  V30 1525 H 158.784 4.76537 3.75496 0
M  V30 1526 H 157.523 3.58052 3.31134 0
M  V30 1527 H 156.528 5.22857 1.70003 0
M  V30 1528 H 157.753 6.43471 2.17075 0
M  V30 1529 H 155.699 5.17687 4.02909 0
M  V30 1530 H 155.616 6.77295 3.35869 0
M  V30 1531 H 156.884 6.3786 4.48057 0
M  V30 1532 N 161.113 -0.173488 1.56642 0
M  V30 1533 C 162.362 -0.888758 1.81063 0
M  V30 1534 C 162.675 -1.83506 0.67712 0
M  V30 1535 O 163.881 -2.59254 0.806206 0
M  V30 1536 C 162.337 -1.63091 3.20826 0
M  V30 1537 C 161.945 -0.728357 4.4204 0
M  V30 1538 C 163.689 -2.33454 3.54541 0
M  V30 1539 C 161.596 -1.47062 5.72823 0
M  V30 1540 H 160.526 -0.335618 0.675186 0
M  V30 1541 H 163.177 -0.141712 1.82952 0
M  V30 1542 H 161.559 -2.42263 3.13248 0
M  V30 1543 H 162.733 0.0262449 4.60793 0
M  V30 1544 H 161.048 -0.134492 4.16183 0
M  V30 1545 H 163.645 -2.89578 4.49498 0
M  V30 1546 H 163.988 -3.08687 2.79317 0
M  V30 1547 H 164.521 -1.61227 3.63663 0
M  V30 1548 H 161.26 -0.760658 6.51072 0
M  V30 1549 H 160.78 -2.1986 5.58052 0
M  V30 1550 H 162.459 -2.01868 6.14702 0
M  V30 1551 N 162.591 -1.51276 -0.441967 0
M  V30 1552 C 163.838 -1.63715 -1.19179 0
M  V30 1553 C 164.166 -0.351175 -1.91303 0
M  V30 1554 O 163.421 0.664524 -1.84072 0
M  V30 1555 C 163.72 -2.78746 -2.23686 0
M  V30 1556 C 163.386 -4.18189 -1.68607 0
M  V30 1557 C 162.048 -4.56125 -1.53308 0
M  V30 1558 C 164.4 -5.05222 -1.28062 0
M  V30 1559 C 161.728 -5.78804 -0.959317 0
M  V30 1560 C 164.08 -6.28476 -0.721162 0
M  V30 1561 C 162.744 -6.65188 -0.55504 0
M  V30 1562 H 162.014 -0.599076 -0.436106 0
M  V30 1563 H 164.661 -1.85296 -0.48351 0
M  V30 1564 H 162.966 -2.51369 -3.00535 0
M  V30 1565 H 164.663 -2.8557 -2.81515 0
M  V30 1566 H 161.253 -3.88277 -1.8149 0
M  V30 1567 H 165.437 -4.76524 -1.38704 0
M  V30 1568 H 160.693 -6.05899 -0.81833 0
M  V30 1569 H 164.867 -6.95259 -0.398458 0
M  V30 1570 H 162.494 -7.60123 -0.108311 0
M  V30 1571 N 164.069 0.697108 -1.41344 0
M  V30 1572 C 165.485 1.00751 -1.2378 0
M  V30 1573 C 165.685 2.01105 -0.126066 0
M  V30 1574 O 164.741 2.47295 0.51004 0
M  V30 1575 C 166.054 1.53359 -2.58653 0
M  V30 1576 C 167.602 1.6525 -2.65822 0
M  V30 1577 C 168.077 2.2126 -4.01009 0
M  V30 1578 N 169.568 2.28622 -4.02847 0
M  V30 1579 C 170.303 2.72984 -5.04249 0
M  V30 1580 N 169.799 3.16962 -6.16041 0
M  V30 1581 N 171.592 2.72534 -4.91611 0
M  V30 1582 H 163.743 0.0322662 -2.12375 0
M  V30 1583 H 166.006 0.0768853 -0.944877 0
M  V30 1584 H 165.712 0.870773 -3.4075 0
M  V30 1585 H 165.586 2.51597 -2.81032 0
M  V30 1586 H 167.973 2.30644 -1.84086 0
M  V30 1587 H 168.054 0.655614 -2.47256 0
M  V30 1588 H 167.698 1.56482 -4.83193 0
M  V30 1589 H 167.628 3.21698 -4.16915 0
M  V30 1590 H 170.119 1.97585 -3.22131 0
M  V30 1591 H 170.432 3.49434 -6.89287 0
M  V30 1592 H 168.777 3.14875 -6.1958 0
M  V30 1593 H 171.968 2.37525 -4.0336 0
M  V30 1594 H 172.141 3.06789 -5.70775 0
M  V30 1595 N 165.547 1.27147 0.931209 0
M  V30 1596 C 166.457 1.11372 2.06478 0
M  V30 1597 C 167.473 0.044645 1.73943 0
M  V30 1598 O 168.649 0.250417 1.99837 0
M  V30 1599 C 165.714 0.758838 3.38294 0
M  V30 1600 C 164.775 1.90841 3.84549 0
M  V30 1601 C 164.008 1.57036 5.10074 0
M  V30 1602 O 164.231 0.476645 5.68405 0
M  V30 1603 O 163.165 2.40839 5.51616 0
M  V30 1604 H 166.991 2.06493 2.22698 0
M  V30 1605 H 164.576 1.06301 1.04978 0
M  V30 1606 H 166.458 0.574098 4.17471 0
M  V30 1607 H 165.133 -0.162879 3.2329 0
M  V30 1608 H 164.04 2.14819 3.06274 0
M  V30 1609 H 165.373 2.81021 4.04089 0
M  V30 1610 N 167.025 -1.13721 1.09112 0
M  V30 1611 C 168.271 -1.85198 0.826414 0
M  V30 1612 C 168.604 -1.83129 -0.646319 0
M  V30 1613 O 167.879 -1.2671 -1.47563 0
M  V30 1614 C 168.162 -3.33507 1.35812 0
M  V30 1615 C 168.015 -3.44108 2.89672 0
M  V30 1616 C 169.334 -4.28838 0.989256 0
M  V30 1617 H 166.453 -0.67243 0.301675 0
M  V30 1618 H 169.095 -1.33499 1.35197 0
M  V30 1619 H 167.245 -3.77666 0.911082 0
M  V30 1620 H 168.917 -3.08684 3.428 0
M  V30 1621 H 167.16 -2.85087 3.26967 0
M  V30 1622 H 167.831 -4.48388 3.21951 0
M  V30 1623 H 170.307 -3.92734 1.37475 0
M  V30 1624 H 169.183 -5.31051 1.38838 0
M  V30 1625 H 169.444 -4.4198 -0.102924 0
M  V30 1626 N 168.503 -0.877838 -1.30888 0
M  V30 1627 C 169.435 -0.296607 -2.27273 0
M  V30 1628 C 170.448 0.544799 -1.53414 0
M  V30 1629 O 171.637 0.365511 -1.74718 0
M  V30 1630 C 168.737 0.597481 -3.33592 0
M  V30 1631 C 167.91 -0.213251 -4.3688 0
M  V30 1632 C 166.969 0.610208 -5.2265 0
M  V30 1633 O 165.995 0.035441 -5.69189 0
M  V30 1634 N 167.197 1.92071 -5.47804 0
M  V30 1635 H 169.962 -1.12492 -2.77787 0
M  V30 1636 H 167.523 -0.740105 -1.43993 0
M  V30 1637 H 169.515 1.15425 -3.87891 0
M  V30 1638 H 168.085 1.32647 -2.83061 0
M  V30 1639 H 167.305 -0.951466 -3.82545 0
M  V30 1640 H 168.593 -0.769262 -5.02951 0
M  V30 1641 H 167.991 2.4107 -5.11763 0
M  V30 1642 H 166.548 2.42508 -6.05007 0
M  V30 1643 N 169.982 1.44106 -0.638065 0
M  V30 1644 C 171.231 2.01194 -0.142744 0
M  V30 1645 C 171.544 1.50835 1.24532 0
M  V30 1646 O 172.75 2.00096 1.83504 0
M  V30 1647 C 171.206 3.59319 -0.20442 0
M  V30 1648 C 170.814 4.18674 -1.59423 0
M  V30 1649 C 172.558 4.23854 0.234079 0
M  V30 1650 C 170.465 5.69045 -1.61065 0
M  V30 1651 H 169.395 0.752367 -0.0495998 0
M  V30 1652 H 172.046 1.65246 -0.797881 0
M  V30 1653 H 170.428 3.92598 0.517946 0
M  V30 1654 H 171.602 3.96921 -2.34074 0
M  V30 1655 H 169.917 3.66453 -1.97741 0
M  V30 1656 H 172.514 5.34155 0.241443 0
M  V30 1657 H 172.857 3.96688 1.2627 0
M  V30 1658 H 173.39 3.95403 -0.436025 0
M  V30 1659 H 170.129 6.00956 -2.61787 0
M  V30 1660 H 169.649 5.929 -0.90718 0
M  V30 1661 H 171.328 6.32809 -1.34766 0
M  V30 1662 N 171.46 0.379036 1.52974 0
M  V30 1663 C 172.393 -0.504932 2.22544 0
M  V30 1664 C 173.371 -1.0723 1.22231 0
M  V30 1665 O 174.555 -1.12589 1.51182 0
M  V30 1666 C 171.682 -1.69794 2.93066 0
M  V30 1667 C 170.728 -1.25678 4.07563 0
M  V30 1668 S 171.561 -0.246852 5.34931 0
M  V30 1669 C 172.717 -1.44588 6.08971 0
M  V30 1670 H 172.95 0.0858666 2.97176 0
M  V30 1671 H 170.483 0.163183 1.53535 0
M  V30 1672 H 172.441 -2.38219 3.34308 0
M  V30 1673 H 171.102 -2.26002 2.18133 0
M  V30 1674 H 170.295 -2.14725 4.5597 0
M  V30 1675 H 169.897 -0.651584 3.6828 0
M  V30 1676 H 172.189 -2.37469 6.34519 0
M  V30 1677 H 173.132 -1.00292 7.00962 0
M  V30 1678 H 173.54 -1.65804 5.39601 0
M  V30 1679 N 172.938 -1.57226 0.108567 0
M  V30 1680 C 173.885 -2.14756 -0.845481 0
M  V30 1681 C 174.855 -1.06971 -1.27068 0
M  V30 1682 O 176.04 -1.34827 -1.35005 0
M  V30 1683 C 173.18 -2.74298 -2.09415 0
M  V30 1684 C 172.293 -3.96358 -1.71826 0
M  V30 1685 C 171.428 -4.44021 -2.9158 0
M  V30 1686 C 170.467 -5.58637 -2.50181 0
M  V30 1687 N 169.604 -6.01091 -3.62814 0
M  V30 1688 H 174.444 -2.95961 -0.348035 0
M  V30 1689 H 171.981 -1.46226 -0.160106 0
M  V30 1690 H 173.939 -3.06945 -2.82561 0
M  V30 1691 H 172.569 -1.95801 -2.56636 0
M  V30 1692 H 171.621 -3.69939 -0.885947 0
M  V30 1693 H 172.933 -4.79504 -1.37394 0
M  V30 1694 H 172.087 -4.78522 -3.72963 0
M  V30 1695 H 170.826 -3.59803 -3.29231 0
M  V30 1696 H 169.831 -5.23751 -1.67228 0
M  V30 1697 H 171.056 -6.44613 -2.13659 0
M  V30 1698 H 169.002 -5.19817 -4.00158 0
M  V30 1699 H 168.919 -6.79066 -3.32273 0
M  V30 1700 H 170.187 -6.40227 -4.44668 0
M  V30 1701 N 174.416 0.165178 -1.56732 0
M  V30 1702 C 175.349 1.23336 -1.91998 0
M  V30 1703 C 176.327 1.42476 -0.783531 0
M  V30 1704 O 177.511 1.57384 -1.03743 0
M  V30 1705 C 174.638 2.59533 -2.17625 0
M  V30 1706 C 173.684 2.57093 -3.40302 0
M  V30 1707 S 174.517 2.05571 -4.9447 0
M  V30 1708 C 175.673 3.43532 -5.23198 0
M  V30 1709 H 175.906 0.932387 -2.82301 0
M  V30 1710 H 173.439 0.370013 -1.49901 0
M  V30 1711 H 175.397 3.37918 -2.3307 0
M  V30 1712 H 174.058 2.86827 -1.28019 0
M  V30 1713 H 173.251 3.57308 -3.55453 0
M  V30 1714 H 172.853 1.86806 -3.24005 0
M  V30 1715 H 175.145 4.39559 -5.15552 0
M  V30 1716 H 176.088 3.33251 -6.2478 0
M  V30 1717 H 176.496 3.39828 -4.50752 0
M  V30 1718 N 175.894 1.51508 0.433938 0
M  V30 1719 C 176.824 1.76016 1.53429 0
M  V30 1720 C 177.805 0.610112 1.58782 0
M  V30 1721 O 178.99 0.853177 1.74455 0
M  V30 1722 C 176.12 1.88831 2.9148 0
M  V30 1723 C 175.074 3.04288 3.00987 0
M  V30 1724 C 174.4 3.0229 4.4105 0
M  V30 1725 C 175.7 4.44193 2.74754 0
M  V30 1726 H 177.394 2.68152 1.33171 0
M  V30 1727 H 174.94 1.29035 0.639214 0
M  V30 1728 H 176.893 2.04559 3.6842 0
M  V30 1729 H 175.617 0.933455 3.12976 0
M  V30 1730 H 174.276 2.8827 2.26486 0
M  V30 1731 H 173.924 2.04576 4.59519 0
M  V30 1732 H 173.624 3.79822 4.4834 0
M  V30 1733 H 175.148 3.20116 5.1996 0
M  V30 1734 H 176.562 4.60544 3.41426 0
M  V30 1735 H 174.959 5.23457 2.9345 0
M  V30 1736 H 176.029 4.53996 1.70339 0
M  V30 1737 N 177.372 -0.689602 1.41712 0
M  V30 1738 C 178.612 -1.46184 1.42862 0
M  V30 1739 C 178.976 -1.91962 0.0382204 0
M  V30 1740 O 180.177 -2.68694 -0.0755019 0
M  V30 1741 C 178.448 -2.6371 2.4123 0
M  V30 1742 S 180.007 -3.52768 2.6096 0
M  V30 1743 H 176.825 -0.49947 0.506015 0
M  V30 1744 H 179.427 -0.804107 1.78198 0
M  V30 1745 H 178.131 -2.28293 3.41044 0
M  V30 1746 H 177.662 -3.3437 2.07269 0
M  V30 1747 H 179.677 -4.59146 1.88148 0
M  V30 1748 N 178.85 -1.27639 -0.924453 0
M  V30 1749 C 179.8 -1.07295 -2.01176 0
M  V30 1750 C 180.784 5.77352e-05 -1.609 0
M  V30 1751 O 181.976 -0.218855 -1.75642 0
M  V30 1752 C 179.105 -0.725592 -3.35544 0
M  V30 1753 C 178.191 -1.83691 -3.82254 0
M  V30 1754 N 178.582 -3.07697 -4.01443 0
M  V30 1755 C 176.88 -1.72433 -4.11319 0
M  V30 1756 C 177.581 -3.80037 -4.40394 0
M  V30 1757 N 176.557 -3.0782 -4.48049 0
M  V30 1758 H 180.359 -2.01399 -2.14046 0
M  V30 1759 H 177.873 -1.18401 -1.11153 0
M  V30 1760 H 179.87 -0.560959 -4.13109 0
M  V30 1761 H 178.53 0.207782 -3.24034 0
M  V30 1762 H 179.541 -3.43424 -3.8766 0
M  V30 1763 H 176.218 -0.862005 -4.08504 0
M  V30 1764 H 177.608 -4.86632 -4.63291 0
M  V30 1765 N 180.328 1.1314 -1.09713 0
M  V30 1766 C 181.739 1.66029 -0.853885 0
M  V30 1767 C 182.09 1.86241 0.617142 0
M  V30 1768 O 181.215 1.5834 1.47503 0
M  V30 1769 C 181.81 3.01599 -1.5435 0
M  V30 1770 C 180.369 3.51467 -1.34714 0
M  V30 1771 C 179.516 2.26648 -1.59769 0
M  V30 1772 H 182.467 0.970226 -1.25588 0
M  V30 1773 H 182.488 3.67709 -0.978267 0
M  V30 1774 H 182 2.86856 -2.6141 0
M  V30 1775 H 180.101 3.71408 -0.297838 0
M  V30 1776 H 180.214 4.314 -2.08401 0
M  V30 1777 H 178.578 2.33385 -1.01998 0
M  V30 1778 H 179.361 2.14467 -2.68065 0
M  V30 1779 N 181.806 0.884767 1.30421 0
M  V30 1780 C 182.756 0.322846 2.25703 0
M  V30 1781 C 183.74 -0.548582 1.51259 0
M  V30 1782 O 184.932 -0.39304 1.72581 0
M  V30 1783 C 182.061 -0.461787 3.4018 0
M  V30 1784 C 181.147 0.423717 4.21978 0
M  V30 1785 N 181.538 1.52408 4.82292 0
M  V30 1786 C 179.836 0.218795 4.45463 0
M  V30 1787 C 180.537 2.07136 5.43571 0
M  V30 1788 N 179.513 1.36635 5.26148 0
M  V30 1789 H 183.315 1.16363 2.69883 0
M  V30 1790 H 180.829 0.73415 1.44859 0
M  V30 1791 H 182.826 -0.880985 4.07485 0
M  V30 1792 H 181.486 -1.30001 2.9754 0
M  V30 1793 H 182.497 1.90693 4.81515 0
M  V30 1794 H 179.174 -0.582275 4.1342 0
M  V30 1795 H 180.564 2.99538 6.01437 0
M  V30 1796 N 183.284 -1.43765 0.645699 0
M  V30 1797 C 184.533 -2.01116 0.153412 0
M  V30 1798 C 184.846 -1.51493 -1.23731 0
M  V30 1799 O 186.052 -2.01067 -1.8244 0
M  V30 1800 C 184.508 -3.59206 0.223473 0
M  V30 1801 C 184.116 -4.17823 1.61642 0
M  V30 1802 C 185.86 -4.23972 -0.211597 0
M  V30 1803 C 183.767 -5.68183 1.64081 0
M  V30 1804 H 182.697 -0.752093 0.0535891 0
M  V30 1805 H 185.348 -1.6482 0.806633 0
M  V30 1806 H 183.73 -3.92867 -0.497118 0
M  V30 1807 H 184.904 -3.95674 2.36176 0
M  V30 1808 H 183.219 -3.65399 1.99681 0
M  V30 1809 H 185.816 -5.34275 -0.213112 0
M  V30 1810 H 186.159 -3.97352 -1.24165 0
M  V30 1811 H 186.692 -3.95166 0.456988 0
M  V30 1812 H 183.431 -5.99559 2.64971 0
M  V30 1813 H 182.951 -5.9241 0.938611 0
M  V30 1814 H 184.63 -6.32085 1.3812 0
M  V30 1815 N 184.763 -0.387143 -1.52771 0
M  V30 1816 C 186.012 0.19697 -2.00736 0
M  V30 1817 C 186.325 1.48082 -1.27793 0
M  V30 1818 O 187.531 2.14485 -1.66458 0
M  V30 1819 C 185.987 0.401568 -3.57653 0
M  V30 1820 C 185.595 -0.868907 -4.39493 0
M  V30 1821 C 187.339 0.942164 -4.13912 0
M  V30 1822 C 185.246 -0.632705 -5.88006 0
M  V30 1823 H 184.176 0.0773827 -0.750019 0
M  V30 1824 H 186.827 -0.50921 -1.76293 0
M  V30 1825 H 185.209 1.16954 -3.78335 0
M  V30 1826 H 186.383 -1.64133 -4.30577 0
M  V30 1827 H 184.698 -1.33429 -3.94443 0
M  V30 1828 H 187.295 1.13455 -5.22525 0
M  V30 1829 H 187.638 1.9106 -3.69867 0
M  V30 1830 H 188.171 0.233814 -3.97112 0
M  V30 1831 H 184.91 -1.57208 -6.36369 0
M  V30 1832 H 184.43 0.100825 -5.99715 0
M  V30 1833 H 186.109 -0.26642 -6.46451 0
M  V30 1834 N 186.241 1.57166 -0.116904 0
M  V30 1835 C 187.657 1.5779 0.239693 0
M  V30 1836 C 187.857 1.1295 1.66867 0
M  V30 1837 O 186.913 0.81592 2.38954 0
M  V30 1838 C 188.226 3.00699 0.00828202 0
M  V30 1839 C 189.774 3.12912 0.0743438 0
M  V30 1840 C 190.249 4.57817 -0.129348 0
M  V30 1841 N 191.74 4.63139 -0.075247 0
M  V30 1842 C 192.475 5.73023 -0.207788 0
M  V30 1843 N 191.971 6.91665 -0.396382 0
M  V30 1844 N 193.764 5.61906 -0.14751 0
M  V30 1845 H 185.915 1.84615 -1.05029 0
M  V30 1846 H 188.178 0.85311 -0.41341 0
M  V30 1847 H 187.884 3.37784 -0.979531 0
M  V30 1848 H 187.758 3.69848 0.741077 0
M  V30 1849 H 190.145 2.75686 1.05268 0
M  V30 1850 H 190.226 2.4631 -0.690297 0
M  V30 1851 H 189.87 4.95742 -1.10465 0
M  V30 1852 H 189.8 5.22507 0.655253 0
M  V30 1853 H 192.291 3.7784 0.0670898 0
M  V30 1854 H 192.604 7.71255 -0.488437 0
M  V30 1855 H 190.949 6.93654 -0.432329 0
M  V30 1856 H 194.14 4.681 -0.00115036 0
M  V30 1857 H 194.313 6.47501 -0.254247 0
M  V30 1858 N 187.719 -0.156864 1.56817 0
M  V30 1859 C 188.649 -1.19589 2.00551 0
M  V30 1860 C 189.63 -1.4536 0.883426 0
M  V30 1861 O 190.815 -1.56449 1.15054 0
M  V30 1862 C 187.945 -2.53143 2.37773 0
M  V30 1863 C 186.899 -2.41913 3.53075 0
M  V30 1864 C 186.225 -3.80088 3.76081 0
M  V30 1865 C 187.525 -1.91157 4.86062 0
M  V30 1866 H 189.219 -0.832293 2.87599 0
M  V30 1867 H 186.765 -0.398918 1.38364 0
M  V30 1868 H 188.718 -3.26047 2.66967 0
M  V30 1869 H 187.442 -2.91319 1.4765 0
M  V30 1870 H 186.101 -1.71462 3.24031 0
M  V30 1871 H 185.749 -4.15683 2.83225 0
M  V30 1872 H 185.449 -3.73439 4.53671 0
M  V30 1873 H 186.973 -4.54556 4.0769 0
M  V30 1874 H 188.387 -2.53846 5.14038 0
M  V30 1875 H 186.784 -1.95422 5.67389 0
M  V30 1876 H 187.854 -0.866673 4.77092 0
M  V30 1877 N 189.197 -1.51736 -0.425897 0
M  V30 1878 C 190.427 -1.68549 -1.19476 0
M  V30 1879 C 190.835 -0.387288 -1.85194 0
M  V30 1880 O 190.178 0.645142 -1.71999 0
M  V30 1881 C 190.24 -2.75275 -2.31223 0
M  V30 1882 C 189.904 -4.17534 -1.8578 0
M  V30 1883 C 190.901 -5.01936 -1.35485 0
M  V30 1884 C 188.586 -4.6369 -1.93123 0
M  V30 1885 C 190.58 -6.30559 -0.931347 0
M  V30 1886 C 188.267 -5.92307 -1.50384 0
M  V30 1887 C 189.265 -6.75569 -1.00473 0
M  V30 1888 O 188.953 -8.0178 -0.583452 0
M  V30 1889 H 188.685 -0.568525 -0.365725 0
M  V30 1890 H 191.239 -1.98982 -0.509444 0
M  V30 1891 H 189.469 -2.40182 -3.03067 0
M  V30 1892 H 191.158 -2.80853 -2.93047 0
M  V30 1893 H 191.924 -4.67475 -1.29197 0
M  V30 1894 H 187.803 -3.98997 -2.30916 0
M  V30 1895 H 191.347 -6.95498 -0.541084 0
M  V30 1896 H 187.244 -6.2628 -1.56346 0
M  V30 1897 H 188.012 -8.1543 -0.708275 0
M  V30 1898 N 190.675 0.682077 -1.42076 0
M  V30 1899 C 191.607 1.80755 -1.40926 0
M  V30 1900 C 192.62 1.59833 -0.309398 0
M  V30 1901 O 193.809 1.69087 -0.572014 0
M  V30 1902 C 190.909 3.17744 -1.17865 0
M  V30 1903 C 190.082 3.65578 -2.40149 0
M  V30 1904 C 189.141 4.81277 -2.12742 0
M  V30 1905 O 188.167 4.92197 -2.85887 0
M  V30 1906 N 189.369 5.69474 -1.12602 0
M  V30 1907 H 192.134 1.82229 -2.37935 0
M  V30 1908 H 189.695 0.864903 -1.36861 0
M  V30 1909 H 191.687 3.9279 -0.9746 0
M  V30 1910 H 190.257 3.11214 -0.294068 0
M  V30 1911 H 189.477 2.81291 -2.76169 0
M  V30 1912 H 190.765 3.94278 -3.21593 0
M  V30 1913 H 190.163 5.63297 -0.520899 0
M  V30 1914 H 188.72 6.44363 -0.981842 0
M  V30 1915 N 192.153 1.28127 0.917671 0
M  V30 1916 C 193.399 1.15223 1.66888 0
M  V30 1917 C 193.732 -0.299293 1.9188 0
M  V30 1918 O 193.007 -1.21805 1.51637 0
M  V30 1919 C 193.29 1.94706 3.02922 0
M  V30 1920 C 193.143 3.47898 2.85109 0
M  V30 1921 C 194.462 1.75939 4.03402 0
M  V30 1922 H 191.581 0.419946 0.605652 0
M  V30 1923 H 194.223 1.57398 1.06423 0
M  V30 1924 H 192.373 1.58864 3.54534 0
M  V30 1925 H 194.045 3.93624 2.40537 0
M  V30 1926 H 192.288 3.7373 2.20246 0
M  V30 1927 H 192.959 3.98765 3.81694 0
M  V30 1928 H 195.435 2.07209 3.60837 0
M  V30 1929 H 194.311 2.33931 4.96556 0
M  V30 1930 H 194.572 0.709877 4.36364 0
M  V30 1931 N 193.631 -1.12557 1.10312 0
M  V30 1932 C 194.564 -2.1737 0.694674 0
M  V30 1933 C 195.542 -1.59745 -0.303373 0
M  V30 1934 O 196.726 -1.87408 -0.202578 0
M  V30 1935 C 193.853 -3.38691 0.0248052 0
M  V30 1936 C 192.899 -4.14943 0.986121 0
M  V30 1937 S 193.732 -4.73413 2.50281 0
M  V30 1938 C 194.888 -5.9807 1.84562 0
M  V30 1939 H 195.121 -2.5168 1.58255 0
M  V30 1940 H 192.654 -1.23998 0.919992 0
M  V30 1941 H 194.612 -4.08959 -0.355361 0
M  V30 1942 H 193.273 -3.02664 -0.839851 0
M  V30 1943 H 192.466 -5.01854 0.464651 0
M  V30 1944 H 192.068 -3.50377 1.30813 0
M  V30 1945 H 194.36 -6.67232 1.17507 0
M  V30 1946 H 195.303 -6.54841 2.69423 0
M  V30 1947 H 195.711 -5.49073 1.31069 0
M  V30 1948 N 195.109 -0.891671 -1.2995 0
M  V30 1949 C 196.019 -0.367691 -2.31701 0
M  V30 1950 C 197.035 0.533486 -1.6562 0
M  V30 1951 O 198.211 0.424997 -1.96865 0
M  V30 1952 C 195.276 0.403406 -3.44345 0
M  V30 1953 C 194.337 -0.528328 -4.26037 0
M  V30 1954 C 193.57 0.206063 -5.33302 0
M  V30 1955 O 193.793 1.43119 -5.52153 0
M  V30 1956 O 192.727 -0.447281 -6.00236 0
M  V30 1957 H 196.553 -1.21163 -2.78484 0
M  V30 1958 H 194.138 -0.655725 -1.34241 0
M  V30 1959 H 196.02 0.839753 -4.12948 0
M  V30 1960 H 194.695 1.22354 -2.99685 0
M  V30 1961 H 193.602 -1.01362 -3.60106 0
M  V30 1962 H 194.935 -1.31465 -4.74318 0
M  V30 1963 N 196.587 1.43421 -0.653314 0
M  V30 1964 C 197.815 2.06163 -0.174491 0
M  V30 1965 C 198.23 1.48969 1.1599 0
M  V30 1966 O 197.587 0.621042 1.71608 0
M  V30 1967 C 197.638 3.61417 -0.0774865 0
M  V30 1968 O 197.359 4.16485 -1.35912 0
M  V30 1969 C 198.86 4.41235 0.427402 0
M  V30 1970 H 196.08 0.664946 -0.0899353 0
M  V30 1971 H 198.624 1.83924 -0.893988 0
M  V30 1972 H 196.779 3.82841 0.59257 0
M  V30 1973 H 197.193 5.10153 -1.21839 0
M  V30 1974 H 198.667 5.5021 0.44423 0
M  V30 1975 H 199.144 4.14268 1.45873 0
M  V30 1976 H 199.75 4.2478 -0.210167 0
M  V30 1977 N 198.065 0.39524 1.52563 0
M  V30 1978 C 198.975 -0.444232 2.30356 0
M  V30 1979 C 199.991 -1.06615 1.37511 0
M  V30 1980 O 201.167 -1.07067 1.70583 0
M  V30 1981 C 198.232 -1.55315 3.09964 0
M  V30 1982 C 197.293 -0.955734 4.18526 0
M  V30 1983 C 196.526 -2.01181 4.9433 0
M  V30 1984 O 196.749 -3.22781 4.70285 0
M  V30 1985 O 195.683 -1.62579 5.79527 0
M  V30 1986 H 199.509 0.189667 3.03107 0
M  V30 1987 H 197.094 0.1588 1.48554 0
M  V30 1988 H 198.976 -2.19724 3.59582 0
M  V30 1989 H 197.651 -2.17191 2.4002 0
M  V30 1990 H 196.558 -0.274743 3.7309 0
M  V30 1991 H 197.891 -0.381109 4.90722 0
M  V30 1992 N 199.544 -1.57102 0.125237 0
M  V30 1993 C 200.96 -1.57915 -0.231322 0
M  V30 1994 C 201.16 -1.13833 -1.66266 0
M  V30 1995 O 200.216 -0.828581 -2.38518 0
M  V30 1996 C 201.529 -3.00699 0.00766489 0
M  V30 1997 C 203.077 -3.12947 -0.0577483 0
M  V30 1998 C 203.552 -4.57742 0.153626 0
M  V30 1999 N 205.043 -4.63092 0.0998073 0
M  V30 2000 C 205.778 -5.72905 0.238174 0
M  V30 2001 N 205.274 -6.91445 0.433057 0
M  V30 2002 N 207.067 -5.6182 0.177308 0
M  V30 2003 H 199.218 -1.84055 1.06007 0
M  V30 2004 H 201.481 -0.850905 0.417929 0
M  V30 2005 H 201.187 -3.3726 0.997431 0
M  V30 2006 H 201.061 -3.70236 -0.721452 0
M  V30 2007 H 203.448 -2.7624 -1.03804 0
M  V30 2008 H 203.529 -2.4594 0.70335 0
M  V30 2009 H 203.173 -4.95149 1.13092 0
M  V30 2010 H 203.103 -5.22848 -0.627534 0
M  V30 2011 H 205.594 -3.77871 -0.047051 0
M  V30 2012 H 205.907 -7.70985 0.529332 0
M  V30 2013 H 204.252 -6.93415 0.469109 0
M  V30 2014 H 207.443 -4.68093 0.0259748 0
M  V30 2015 H 207.616 -6.47357 0.288582 0
M  V30 2016 N 201.022 0.148545 -1.56898 0
M  V30 2017 C 201.955 1.21293 -1.93296 0
M  V30 2018 C 202.933 1.41637 -0.798599 0
M  V30 2019 O 204.117 1.56275 -1.05406 0
M  V30 2020 C 201.244 2.5721 -2.20365 0
M  V30 2021 C 200.29 2.53469 -3.4301 0
M  V30 2022 S 201.123 2.00315 -4.96623 0
M  V30 2023 C 202.279 3.37964 -5.26812 0
M  V30 2024 H 202.512 0.902393 -2.83274 0
M  V30 2025 H 200.045 0.354094 -1.50285 0
M  V30 2026 H 202.003 3.35427 -2.36641 0
M  V30 2027 H 200.664 2.85454 -1.31054 0
M  V30 2028 H 199.857 3.53518 -3.59223 0
M  V30 2029 H 199.459 1.83359 -3.25968 0
M  V30 2030 H 201.751 4.34066 -5.20185 0
M  V30 2031 H 202.694 3.26606 -6.28279 0
M  V30 2032 H 203.102 3.35028 -4.54331 0
M  V30 2033 N 202.5 1.5196 0.417844 0
M  V30 2034 C 203.749 1.6482 1.16264 0
M  V30 2035 C 204.062 0.379886 1.91876 0
M  V30 2036 O 205.268 0.388154 2.68711 0
M  V30 2037 C 203.724 2.91161 2.1155 0
M  V30 2038 C 203.332 4.25068 1.41495 0
M  V30 2039 C 205.076 3.13383 2.86341 0
M  V30 2040 C 202.983 5.42541 2.35379 0
M  V30 2041 H 201.913 0.613954 0.437694 0
M  V30 2042 H 204.564 1.78442 0.427871 0
M  V30 2043 H 202.946 2.71218 2.88543 0
M  V30 2044 H 204.12 4.55463 0.699263 0
M  V30 2045 H 202.435 4.0888 0.787792 0
M  V30 2046 H 205.032 3.98324 3.5671 0
M  V30 2047 H 205.375 2.27256 3.48798 0
M  V30 2048 H 205.908 3.33757 2.1645 0
M  V30 2049 H 202.647 6.30987 1.77582 0
M  V30 2050 H 202.167 5.16497 3.04945 0
M  V30 2051 H 203.846 5.75272 2.96093 0
M  V30 2052 N 203.978 -0.674533 1.42435 0
M  V30 2053 C 205.208 -1.46071 1.46105 0
M  V30 2054 C 205.616 -1.89067 0.0709605 0
M  V30 2055 O 204.959 -1.58731 -0.924677 0
M  V30 2056 C 205.021 -2.74145 2.32561 0
M  V30 2057 C 204.685 -2.53224 3.8043 0
M  V30 2058 C 205.682 -2.17809 4.72075 0
M  V30 2059 C 203.367 -2.6821 4.24698 0
M  V30 2060 C 205.361 -1.97648 6.05982 0
M  V30 2061 C 203.048 -2.47665 5.58664 0
M  V30 2062 C 204.046 -2.12437 6.49122 0
M  V30 2063 O 203.734 -1.9209 7.80613 0
M  V30 2064 H 203.466 -0.455959 0.499076 0
M  V30 2065 H 206.02 -0.836193 1.87609 0
M  V30 2066 H 204.25 -3.3908 1.85908 0
M  V30 2067 H 205.939 -3.36028 2.27683 0
M  V30 2068 H 206.705 -2.05826 4.39159 0
M  V30 2069 H 202.584 -2.94609 3.54579 0
M  V30 2070 H 206.128 -1.70075 6.7655 0
M  V30 2071 H 202.025 -2.59244 5.91154 0
M  V30 2072 H 202.793 -2.06686 7.91974 0
M  V30 2073 N 205.456 -1.28612 -0.910864 0
M  V30 2074 C 206.386 -1.15326 -2.03032 0
M  V30 2075 C 207.367 -0.0502924 -1.70026 0
M  V30 2076 O 208.552 -0.227797 -1.92859 0
M  V30 2077 C 205.682 -0.817343 -3.37545 0
M  V30 2078 C 204.636 -1.8754 -3.84724 0
M  V30 2079 C 203.962 -1.39305 -5.16235 0
M  V30 2080 C 205.262 -3.28244 -4.06267 0
M  V30 2081 H 206.956 -2.08975 -2.14406 0
M  V30 2082 H 204.502 -1.00612 -1.03021 0
M  V30 2083 H 206.455 -0.711151 -4.15356 0
M  V30 2084 H 205.179 0.154846 -3.26233 0
M  V30 2085 H 203.838 -1.97079 -3.09121 0
M  V30 2086 H 203.486 -0.409846 -5.01328 0
M  V30 2087 H 203.186 -2.10057 -5.48771 0
M  V30 2088 H 204.71 -1.30014 -5.96598 0
M  V30 2089 H 206.124 -3.21611 -4.74594 0
M  V30 2090 H 204.521 -3.96855 -4.5014 0
M  V30 2091 H 205.591 -3.72048 -3.10979 0
M  V30 2092 N 206.934 1.1197 -1.10907 0
M  V30 2093 C 208.18 1.8386 -0.855773 0
M  V30 2094 C 208.513 1.84134 0.617103 0
M  V30 2095 O 207.788 1.29041 1.45529 0
M  V30 2096 C 208.071 3.31305 -1.411 0
M  V30 2097 C 207.924 3.39456 -2.9511 0
M  V30 2098 C 209.243 4.2721 -1.05736 0
M  V30 2099 H 206.362 0.667545 -0.312334 0
M  V30 2100 H 209.004 1.31331 -1.37303 0
M  V30 2101 H 207.154 3.76169 -0.97105 0
M  V30 2102 H 208.826 3.03191 -3.47668 0
M  V30 2103 H 207.069 2.79849 -3.31462 0
M  V30 2104 H 207.74 4.43209 -3.29044 0
M  V30 2105 H 210.216 3.90497 -1.43706 0
M  V30 2106 H 209.092 5.28775 -1.47269 0
M  V30 2107 H 209.353 4.42088 0.0325958 0
M  V30 2108 N 208.412 0.89855 1.29475 0
M  V30 2109 C 209.64 0.539261 1.99749 0
M  V30 2110 C 210.055 -0.875716 1.67262 0
M  V30 2111 O 209.412 -1.57786 0.917049 0
M  V30 2112 C 209.463 0.72061 3.54245 0
M  V30 2113 O 209.184 2.07989 3.8558 0
M  V30 2114 C 210.685 0.366118 4.41786 0
M  V30 2115 H 207.905 0.207047 0.638258 0
M  V30 2116 H 210.449 1.20758 1.65039 0
M  V30 2117 H 208.604 0.0994862 3.87272 0
M  V30 2118 H 209.018 2.10841 4.80257 0
M  V30 2119 H 210.492 0.543848 5.49314 0
M  V30 2120 H 210.969 -0.696763 4.33638 0
M  V30 2121 H 211.575 0.964135 4.14228 0
M  V30 2122 N 209.89 -1.43072 0.660911 0
M  V30 2123 C 210.8 -2.34585 -0.0264163 0
M  V30 2124 C 211.816 -1.54316 -0.803898 0
M  V30 2125 O 212.992 -1.86939 -0.749391 0
M  V30 2126 C 210.057 -3.32689 -0.975639 0
M  V30 2127 C 209.118 -4.2886 -0.194236 0
M  V30 2128 C 208.351 -5.22278 -1.09825 0
M  V30 2129 O 208.574 -5.20299 -2.33763 0
M  V30 2130 O 207.508 -5.99228 -0.566513 0
M  V30 2131 H 211.334 -2.94869 0.727034 0
M  V30 2132 H 208.919 -1.43342 0.42111 0
M  V30 2133 H 210.801 -3.92995 -1.52094 0
M  V30 2134 H 209.476 -2.74898 -1.70918 0
M  V30 2135 H 208.383 -3.72011 0.394835 0
M  V30 2136 H 209.716 -4.89655 0.499899 0
M  V30 2137 N 211.368 -0.403325 -1.52352 0
M  V30 2138 C 212.598 0.17376 -2.05868 0
M  V30 2139 C 213.006 1.39898 -1.27378 0
M  V30 2140 O 212.349 1.80939 -0.31729 0
M  V30 2141 C 212.411 0.594756 -3.54546 0
M  V30 2142 C 212.075 -0.518926 -4.54044 0
M  V30 2143 C 213.072 -1.3807 -5.01231 0
M  V30 2144 C 210.757 -0.689961 -4.97539 0
M  V30 2145 C 212.751 -2.39852 -5.90551 0
M  V30 2146 C 210.438 -1.71109 -5.86656 0
M  V30 2147 C 211.436 -2.56378 -6.33056 0
M  V30 2148 O 211.124 -3.56743 -7.20409 0
M  V30 2149 H 210.856 0.0264951 -0.675481 0
M  V30 2150 H 213.41 -0.571179 -1.97299 0
M  V30 2151 H 211.64 1.39189 -3.60782 0
M  V30 2152 H 213.329 1.0991 -3.90736 0
M  V30 2153 H 214.095 -1.25994 -4.68349 0
M  V30 2154 H 209.974 -0.035939 -4.60986 0
M  V30 2155 H 213.518 -3.06441 -6.26689 0
M  V30 2156 H 209.415 -1.83218 -6.18952 0
M  V30 2157 H 210.183 -3.52918 -7.38506 0
M  V30 2158 N 212.846 1.57033 -0.133567 0
M  V30 2159 C 213.809 2.14897 0.796995 0
M  V30 2160 C 214.809 1.0874 1.18458 0
M  V30 2161 O 215.999 1.34446 1.1077 0
M  V30 2162 C 213.131 2.70112 2.07973 0
M  V30 2163 H 214.324 2.98457 0.293873 0
M  V30 2164 H 211.877 1.55871 0.115787 0
M  V30 2165 H 212.612 1.9018 2.62682 0
M  V30 2166 H 212.397 3.47764 1.81115 0
M  V30 2167 H 213.887 3.14738 2.74462 0
M  V30 2168 N 214.325 -0.140222 1.56975 0
M  V30 2169 C 215.55 -0.870414 1.88251 0
M  V30 2170 C 215.975 -1.73637 0.723312 0
M  V30 2171 O 215.333 -1.78329 -0.32689 0
M  V30 2172 C 215.381 -1.69737 3.18154 0
M  V30 2173 O 214.485 -2.80229 3.02565 0
M  V30 2174 H 213.826 -0.242025 0.61832 0
M  V30 2175 H 216.356 -0.128999 2.04193 0
M  V30 2176 H 216.366 -2.09099 3.50345 0
M  V30 2177 H 215.041 -1.06152 4.02125 0
M  V30 2178 H 213.618 -2.44224 2.81796 0
M  V30 2179 N 215.803 -1.52179 -0.40978 0
M  V30 2180 C 217.051 -1.65878 -1.15451 0
M  V30 2181 C 217.372 -0.390771 -1.91044 0
M  V30 2182 O 216.642 0.594323 -1.86667 0
M  V30 2183 H 215.222 -0.611405 -0.429177 0
M  V30 2184 H 217.884 -1.89219 -0.467134 0
M  V30 2185 H 216.98 -2.49954 -1.86894 0
M  V30 2186 N 217.281 0.66697 -1.42791 0
M  V30 2187 C 218.529 1.42417 -1.43394 0
M  V30 2188 C 218.85 1.94925 -0.0542373 0
M  V30 2189 O 218.12 1.73564 0.908415 0
M  V30 2190 H 216.7 0.528515 -0.527902 0
M  V30 2191 H 219.362 0.787562 -1.78279 0
M  V30 2192 H 218.458 2.27333 -2.13837 0
M  V30 2193 N 218.759 1.29093 0.90403 0
M  V30 2194 C 219.669 1.15727 2.0407 0
M  V30 2195 C 220.685 0.0815308 1.73809 0
M  V30 2196 O 221.861 0.292749 1.99261 0
M  V30 2197 C 218.926 0.830424 3.36608 0
M  V30 2198 C 217.987 1.98955 3.80415 0
M  V30 2199 C 217.22 1.6782 5.06628 0
M  V30 2200 O 217.443 0.597105 5.67266 0
M  V30 2201 O 216.377 2.52486 5.46383 0
M  V30 2202 H 220.203 2.11171 2.18267 0
M  V30 2203 H 217.788 1.08504 1.027 0
M  V30 2204 H 219.67 0.662521 4.16159 0
M  V30 2205 H 218.345 -0.0942678 3.23563 0
M  V30 2206 H 217.252 2.21267 3.01648 0
M  V30 2207 H 218.585 2.89529 3.98037 0
M  V30 2208 N 220.237 -1.11381 1.11499 0
M  V30 2209 C 221.486 -1.82494 0.858993 0
M  V30 2210 C 221.799 -1.85605 -0.617278 0
M  V30 2211 O 223.005 -2.52824 -0.989552 0
M  V30 2212 C 221.461 -3.27745 1.48699 0
M  V30 2213 C 221.069 -3.32961 2.99735 0
M  V30 2214 C 222.813 -4.03754 1.31085 0
M  V30 2215 C 220.72 -4.72612 3.55516 0
M  V30 2216 H 219.65 -0.683802 0.317696 0
M  V30 2217 H 222.301 -1.25331 1.34031 0
M  V30 2218 H 220.683 -3.84844 0.933339 0
M  V30 2219 H 221.857 -2.85741 3.61509 0
M  V30 2220 H 220.172 -2.70433 3.16631 0
M  V30 2221 H 222.769 -5.06891 1.70192 0
M  V30 2222 H 223.112 -4.15527 0.253496 0
M  V30 2223 H 223.645 -3.53043 1.83318 0
M  V30 2224 H 220.384 -4.66036 4.60967 0
M  V30 2225 H 219.904 -5.2024 2.98513 0
M  V30 2226 H 221.583 -5.4157 3.53992 0
M  V30 2227 N 221.715 -0.905404 -1.28997 0
M  V30 2228 C 222.962 -0.534248 -1.95325 0
M  V30 2229 C 223.29 0.920535 -1.71337 0
M  V30 2230 O 222.545 1.66861 -1.02254 0
M  V30 2231 C 222.844 -0.779906 -3.48787 0
M  V30 2232 C 222.51 -2.21293 -3.92861 0
M  V30 2233 C 221.172 -2.60475 -4.04606 0
M  V30 2234 C 223.524 -3.14587 -4.15553 0
M  V30 2235 C 220.852 -3.9212 -4.36416 0
M  V30 2236 C 223.204 -4.45787 -4.48839 0
M  V30 2237 C 221.868 -4.84834 -4.58794 0
M  V30 2238 H 221.138 -0.195495 -0.714747 0
M  V30 2239 H 223.785 -1.14514 -1.53488 0
M  V30 2240 H 222.09 -0.0861365 -3.91705 0
M  V30 2241 H 223.787 -0.472029 -3.98212 0
M  V30 2242 H 220.377 -1.89887 -3.84241 0
M  V30 2243 H 224.561 -2.85528 -4.0594 0
M  V30 2244 H 219.817 -4.22086 -4.42327 0
M  V30 2245 H 223.991 -5.18098 -4.65346 0
M  V30 2246 H 221.618 -5.86877 -4.83197 0
M  V30 2247 N 223.193 1.4272 -0.668489 0
M  V30 2248 C 224.47 1.95248 -0.117373 0
M  V30 2249 C 224.85 1.60919 1.36632 0
M  V30 2250 O 224.198 0.902095 2.09939 0
M  V30 2251 C 224.408 3.46927 -0.379806 0
M  V30 2252 C 225.756 4.23588 -0.292923 0
M  V30 2253 O 226.78 3.5482 -0.313204 0
M  V30 2254 O 225.639 5.46017 -0.229697 0
M  V30 2255 H 222.733 0.827 0.00079152 0
M  V30 2256 H 225.279 1.52581 -0.742783 0
M  V30 2257 H 224.051 3.65096 -1.40786 0
M  V30 2258 H 223.674 3.96627 0.277923 0
M  V30 2259 N 224.671 0.411399 1.52136 0
M  V30 2260 C 225.621 -0.430376 2.23901 0
M  V30 2261 C 226.605 -1.0116 1.25121 0
M  V30 2262 O 227.797 -0.934044 1.50348 0
M  V30 2263 C 224.926 -1.54527 3.06556 0
M  V30 2264 C 224.012 -0.9747 4.12747 0
M  V30 2265 N 224.403 -0.130991 5.0563 0
M  V30 2266 C 222.701 -1.24497 4.28271 0
M  V30 2267 C 223.402 0.186689 5.814 0
M  V30 2268 N 222.378 -0.42304 5.41951 0
M  V30 2269 H 226.18 0.220509 2.93072 0
M  V30 2270 H 223.694 0.221952 1.60876 0
M  V30 2271 H 225.691 -2.16093 3.56524 0
M  V30 2272 H 224.351 -2.19875 2.38925 0
M  V30 2273 H 225.362 0.23349 5.17373 0
M  V30 2274 H 222.039 -1.89787 3.7187 0
M  V30 2275 H 223.429 0.871673 6.66222 0
M  V30 2276 N 226.149 -1.5696 0.141893 0
M  V30 2277 C 227.079 -2.19516 -0.795936 0
M  V30 2278 C 228.06 -1.14187 -1.26077 0
M  V30 2279 O 229.245 -1.42511 -1.31925 0
M  V30 2280 C 226.375 -2.81272 -2.03723 0
M  V30 2281 C 225.329 -3.92384 -1.70936 0
M  V30 2282 C 224.655 -4.41052 -3.02287 0
M  V30 2283 C 225.955 -5.13403 -0.959954 0
M  V30 2284 H 227.649 -2.98138 -0.274596 0
M  V30 2285 H 225.195 -1.43406 -0.130636 0
M  V30 2286 H 227.148 -3.237 -2.69808 0
M  V30 2287 H 225.872 -1.99973 -2.58221 0
M  V30 2288 H 224.531 -3.50566 -1.07232 0
M  V30 2289 H 224.179 -3.56582 -3.54765 0
M  V30 2290 H 223.879 -5.15993 -2.81114 0
M  V30 2291 H 225.403 -4.86146 -3.69451 0
M  V30 2292 H 226.817 -5.52706 -1.52279 0
M  V30 2293 H 225.214 -5.94073 -0.848357 0
M  V30 2294 H 226.284 -4.84875 0.0492434 0
M  V30 2295 N 227.627 0.131896 -1.57047 0
M  V30 2296 C 228.873 0.843179 -1.84441 0
M  V30 2297 C 229.206 1.80129 -0.725749 0
M  V30 2298 O 228.481 1.92624 0.269469 0
M  V30 2299 C 228.764 1.60442 -3.22382 0
M  V30 2300 C 228.617 0.666782 -4.4483 0
M  V30 2301 C 229.936 2.56354 -3.5773 0
M  V30 2302 H 227.055 0.305081 -0.670891 0
M  V30 2303 H 229.697 0.107839 -1.89694 0
M  V30 2304 H 227.847 2.23128 -3.18035 0
M  V30 2305 H 229.519 0.0497646 -4.61273 0
M  V30 2306 H 227.762 -0.022609 -4.33794 0
M  V30 2307 H 228.433 1.23579 -5.37989 0
M  V30 2308 H 230.909 2.0378 -3.62785 0
M  V30 2309 H 229.785 3.06657 -4.5525 0
M  V30 2310 H 230.046 3.38419 -2.84473 0
M  V30 2311 N 229.106 1.52395 0.401703 0
M  V30 2312 C 230.069 1.75636 1.47257 0
M  V30 2313 C 231.069 0.62628 1.48103 0
M  V30 2314 O 232.259 0.894227 1.49497 0
M  V30 2315 C 229.391 1.84553 2.86624 0
M  V30 2316 H 230.584 2.71241 1.27938 0
M  V30 2317 H 228.137 1.42923 0.632662 0
M  V30 2318 H 228.872 0.908882 3.11303 0
M  V30 2319 H 228.657 2.66715 2.87412 0
M  V30 2320 H 230.147 2.04251 3.64241 0
M  V30 2321 N 230.584 -0.659388 1.43143 0
M  V30 2322 C 231.534 -1.7655 1.44271 0
M  V30 2323 C 232.518 -1.57847 0.311961 0
M  V30 2324 O 233.71 -1.68064 0.555306 0
M  V30 2325 C 230.839 -3.15104 1.36251 0
M  V30 2326 C 229.925 -3.39377 2.54331 0
M  V30 2327 N 230.316 -3.34153 3.79704 0
M  V30 2328 C 228.614 -3.70072 2.48922 0
M  V30 2329 C 229.315 -3.58337 4.58225 0
M  V30 2330 N 228.291 -3.79851 3.88863 0
M  V30 2331 H 232.093 -1.70928 2.39083 0
M  V30 2332 H 229.607 -0.860823 1.37708 0
M  V30 2333 H 231.604 -3.94389 1.35141 0
M  V30 2334 H 230.264 -3.21913 0.424531 0
M  V30 2335 H 231.275 -3.13704 4.1208 0
M  V30 2336 H 227.952 -3.84034 1.63781 0
M  V30 2337 H 229.342 -3.60129 5.67236 0
M  V30 2338 N 232.062 -1.29571 -0.897171 0
M  V30 2339 C 233.31 -1.17456 -1.64464 0
M  V30 2340 C 233.631 0.273698 -1.9307 0
M  V30 2341 O 232.901 1.18684 -1.55855 0
M  V30 2342 H 231.481 -0.431706 -0.609622 0
M  V30 2343 H 234.143 -1.62531 -1.07562 0
M  V30 2344 H 233.239 -1.72648 -2.59998 0
M  V30 2345 N 233.54 1.10788 -1.12088 0
M  V30 2346 C 234.956 1.34691 -0.856186 0
M  V30 2347 C 235.156 1.94791 0.515615 0
M  V30 2348 O 234.212 2.18524 1.26505 0
M  V30 2349 C 235.525 2.27208 -1.9697 0
M  V30 2350 C 237.073 2.40755 -2.00016 0
M  V30 2351 C 237.548 3.36598 -3.1059 0
M  V30 2352 N 239.039 3.44164 -3.10008 0
M  V30 2353 C 239.774 4.18284 -3.92206 0
M  V30 2354 N 239.27 4.95322 -4.84384 0
M  V30 2355 N 241.063 4.13865 -3.80357 0
M  V30 2356 H 233.214 0.70144 -2.00483 0
M  V30 2357 H 235.477 0.371405 -0.872217 0
M  V30 2358 H 235.183 1.90251 -2.958 0
M  V30 2359 H 235.057 3.27485 -1.87172 0
M  V30 2360 H 237.444 2.76982 -1.01808 0
M  V30 2361 H 237.525 1.40305 -2.13888 0
M  V30 2362 H 237.169 3.01096 -4.09028 0
M  V30 2363 H 237.099 4.36918 -2.93956 0
M  V30 2364 H 239.59 2.8922 -2.43228 0
M  V30 2365 H 239.903 5.49267 -5.43623 0
M  V30 2366 H 238.248 4.94459 -4.884 0
M  V30 2367 H 241.439 3.52773 -3.07683 0
M  V30 2368 H 241.612 4.71372 -4.44649 0
M  V30 2369 N 235.018 0.912232 1.28515 0
M  V30 2370 C 235.951 0.343928 2.25593 0
M  V30 2371 C 236.929 -0.550994 1.5298 0
M  V30 2372 O 238.113 -0.494991 1.81885 0
M  V30 2373 C 235.24 -0.508525 3.34861 0
M  V30 2374 C 234.286 0.320808 4.25292 0
M  V30 2375 S 235.119 1.72658 5.06902 0
M  V30 2376 C 236.275 0.881394 6.19663 0
M  V30 2377 H 236.508 1.16674 2.73449 0
M  V30 2378 H 234.041 0.713384 1.36931 0
M  V30 2379 H 235.999 -0.994539 3.9827 0
M  V30 2380 H 234.66 -1.30571 2.85675 0
M  V30 2381 H 233.853 -0.330941 5.02912 0
M  V30 2382 H 233.455 0.74042 3.66598 0
M  V30 2383 H 235.747 0.110359 6.7741 0
M  V30 2384 H 236.69 1.63009 6.89082 0
M  V30 2385 H 237.098 0.430239 5.62858 0
M  V30 2386 N 236.496 -1.42363 0.676048 0
M  V30 2387 C 237.459 -2.29199 0.00766941 0
M  V30 2388 C 238.459 -1.43389 -0.727745 0
M  V30 2389 O 239.649 -1.64764 -0.56556 0
M  V30 2390 C 236.781 -3.2591 -0.999785 0
M  V30 2391 H 237.974 -2.89794 0.771988 0
M  V30 2392 H 235.527 -1.50024 0.438468 0
M  V30 2393 H 236.262 -2.70256 -1.79255 0
M  V30 2394 H 236.047 -3.89202 -0.475829 0
M  V30 2395 H 237.537 -3.91028 -1.46583 0
M  V30 2396 N 237.974 -0.419461 -1.51915 0
M  V30 2397 C 238.884 0.407528 -2.31033 0
M  V30 2398 C 239.9 1.04413 -1.3919 0
M  V30 2399 O 241.076 1.0434 -1.72265 0
M  V30 2400 C 238.141 1.50365 -3.12396 0
M  V30 2401 C 237.202 0.889029 -4.19994 0
M  V30 2402 C 236.435 1.93291 -4.97468 0
M  V30 2403 O 236.658 3.15259 -4.75361 0
M  V30 2404 O 235.592 1.53339 -5.8204 0
M  V30 2405 H 239.418 -0.237865 -3.02767 0
M  V30 2406 H 237.003 -0.182413 -1.48282 0
M  V30 2407 H 238.885 2.13975 -3.63032 0
M  V30 2408 H 237.56 2.13345 -2.43445 0
M  V30 2409 H 236.467 0.215353 -3.7348 0
M  V30 2410 H 237.8 0.302991 -4.91267 0
M  V30 2411 N 239.452 1.56882 -0.150215 0
M  V30 2412 C 240.399 2.16922 0.788244 0
M  V30 2413 C 241.369 1.10303 1.24187 0
M  V30 2414 O 242.554 1.38359 1.31383 0
M  V30 2415 C 239.694 2.79754 2.02068 0
M  V30 2416 C 238.807 4.00775 1.61257 0
M  V30 2417 C 237.942 4.51595 2.79705 0
M  V30 2418 C 236.981 5.65074 2.35282 0
M  V30 2419 N 236.118 6.10499 3.4675 0
M  V30 2420 H 240.958 2.96779 0.269444 0
M  V30 2421 H 238.495 1.46599 0.12128 0
M  V30 2422 H 240.453 3.14329 2.74323 0
M  V30 2423 H 239.083 2.02536 2.51354 0
M  V30 2424 H 238.135 3.72158 0.787553 0
M  V30 2425 H 239.447 4.82978 1.24633 0
M  V30 2426 H 238.601 4.88242 3.60145 0
M  V30 2427 H 237.34 3.68406 3.19576 0
M  V30 2428 H 236.345 5.28 1.53283 0
M  V30 2429 H 237.57 6.50052 1.96493 0
M  V30 2430 H 235.516 5.30243 3.86236 0
M  V30 2431 H 235.433 6.87637 3.14152 0
M  V30 2432 H 236.701 6.51791 4.27537 0
M  V30 2433 N 240.93 -0.123565 1.57115 0
M  V30 2434 C 241.84 -1.17074 2.033 0
M  V30 2435 C 242.856 -1.4561 0.952559 0
M  V30 2436 O 244.032 -1.56817 1.26374 0
M  V30 2437 C 241.097 -2.47857 2.42421 0
M  V30 2438 C 240.158 -2.26758 3.64526 0
M  V30 2439 C 239.391 -3.51305 4.01771 0
M  V30 2440 O 239.614 -4.5843 3.39409 0
M  V30 2441 O 238.548 -3.42578 4.94898 0
M  V30 2442 H 242.374 -0.808555 2.92739 0
M  V30 2443 H 239.959 -0.334027 1.45618 0
M  V30 2444 H 241.841 -3.2492 2.68338 0
M  V30 2445 H 240.516 -2.83558 1.5613 0
M  V30 2446 H 239.423 -1.47569 3.43765 0
M  V30 2447 H 240.756 -1.95963 4.51508 0
M  V30 2448 N 242.408 -1.52605 -0.393616 0
M  V30 2449 C 243.371 -1.76415 -1.46323 0
M  V30 2450 C 244.371 -0.634126 -1.47768 0
M  V30 2451 O 245.561 -0.902142 -1.4902 0
M  V30 2452 C 242.693 -1.8607 -2.85641 0
M  V30 2453 H 243.886 -2.71916 -1.26498 0
M  V30 2454 H 241.439 -1.43257 -0.625073 0
M  V30 2455 H 242.174 -0.925378 -3.10817 0
M  V30 2456 H 241.959 -2.68235 -2.85993 0
M  V30 2457 H 243.449 -2.06179 -3.63153 0
M  V30 2458 N 243.887 0.651787 -1.4349 0
M  V30 2459 C 245.303 0.96762 -1.26922 0
M  V30 2460 C 245.503 2.00602 -0.189982 0
M  V30 2461 O 244.559 2.48793 0.431107 0
M  V30 2462 C 245.872 1.45052 -2.63401 0
M  V30 2463 C 247.42 1.5671 -2.70945 0
M  V30 2464 C 247.895 2.0839 -4.07845 0
M  V30 2465 N 249.386 2.1569 -4.09917 0
M  V30 2466 C 250.121 2.56804 -5.12679 0
M  V30 2467 N 249.617 2.97203 -6.25813 0
M  V30 2468 N 251.41 2.56756 -5.00033 0
M  V30 2469 H 243.561 -0.0353158 -2.12371 0
M  V30 2470 H 245.824 0.0467858 -0.946845 0
M  V30 2471 H 245.53 0.761926 -3.43348 0
M  V30 2472 H 245.404 2.42529 -2.88894 0
M  V30 2473 H 247.791 2.2467 -1.9133 0
M  V30 2474 H 247.872 0.57662 -2.49216 0
M  V30 2475 H 247.516 1.41031 -4.87927 0
M  V30 2476 H 247.446 3.08271 -4.26938 0
M  V30 2477 H 249.937 1.87237 -3.28254 0
M  V30 2478 H 250.25 3.27328 -7.00055 0
M  V30 2479 H 248.595 2.95004 -6.29283 0
M  V30 2480 H 251.786 2.24572 -4.10713 0
M  V30 2481 H 251.959 2.88475 -5.80247 0
M  V30 2482 N 245.365 1.30045 0.890287 0
M  V30 2483 C 246.781 1.08261 1.17268 0
M  V30 2484 C 246.981 -0.160063 2.00863 0
M  V30 2485 O 246.037 -0.855181 2.37577 0
M  V30 2486 C 247.35 2.34323 1.8845 0
M  V30 2487 C 248.898 2.39735 2.01237 0
M  V30 2488 C 249.373 3.65625 2.7583 0
M  V30 2489 N 250.864 3.66402 2.83379 0
M  V30 2490 C 251.599 4.60498 3.41657 0
M  V30 2491 N 251.095 5.64933 4.01026 0
M  V30 2492 N 252.888 4.48051 3.39421 0
M  V30 2493 H 245.039 2.09777 0.332762 0
M  V30 2494 H 247.302 0.92446 0.209948 0
M  V30 2495 H 247.008 3.2498 1.34465 0
M  V30 2496 H 246.882 2.4256 2.88867 0
M  V30 2497 H 249.269 1.4956 2.54393 0
M  V30 2498 H 249.35 2.35476 0.999232 0
M  V30 2499 H 248.994 4.56156 2.23347 0
M  V30 2500 H 248.924 3.67144 3.77509 0
M  V30 2501 H 251.415 2.90896 2.41222 0
M  V30 2502 H 251.728 6.32841 4.43545 0
M  V30 2503 H 250.073 5.68732 3.99461 0
M  V30 2504 H 253.264 3.65649 2.92264 0
M  V30 2505 H 253.437 5.21565 3.84544 0
M  V30 2506 N 246.843 -1.10192 1.12674 0
M  V30 2507 C 247.79 -2.16606 0.796906 0
M  V30 2508 C 248.76 -1.64394 -0.237476 0
M  V30 2509 O 249.945 -1.90474 -0.111484 0
M  V30 2510 C 247.085 -3.44116 0.26043 0
M  V30 2511 C 246.198 -4.10268 1.35293 0
M  V30 2512 C 245.333 -5.25507 0.775621 0
M  V30 2513 C 244.372 -5.83567 1.84706 0
M  V30 2514 N 243.509 -6.90179 1.28829 0
M  V30 2515 H 248.349 -2.44163 1.70846 0
M  V30 2516 H 245.886 -1.19846 0.85295 0
M  V30 2517 H 247.844 -4.17143 -0.0686814 0
M  V30 2518 H 246.474 -3.16901 -0.614274 0
M  V30 2519 H 245.526 -3.35184 1.79877 0
M  V30 2520 H 246.838 -4.4946 2.16303 0
M  V30 2521 H 245.992 -6.05398 0.397327 0
M  V30 2522 H 244.731 -4.87656 -0.0656581 0
M  V30 2523 H 243.736 -5.02344 2.23452 0
M  V30 2524 H 244.961 -6.23482 2.69161 0
M  V30 2525 H 242.907 -6.54322 0.468881 0
M  V30 2526 H 242.824 -7.28097 2.03497 0
M  V30 2527 H 244.092 -7.73844 0.937311 0
M  V30 2528 N 248.321 -0.919034 -1.28029 0
M  V30 2529 C 249.568 -0.554934 -1.94748 0
M  V30 2530 C 249.896 0.90231 -1.72304 0
M  V30 2531 O 249.151 1.65767 -1.04018 0
M  V30 2532 C 249.45 -0.816855 -3.4794 0
M  V30 2533 C 249.116 -2.25448 -3.90492 0
M  V30 2534 C 247.778 -2.64752 -4.01821 0
M  V30 2535 C 250.13 -3.18977 -4.12193 0
M  V30 2536 C 247.458 -3.96727 -4.32232 0
M  V30 2537 C 249.81 -4.50523 -4.44086 0
M  V30 2538 C 248.474 -4.89673 -4.53626 0
M  V30 2539 H 247.744 -0.203065 -0.712633 0
M  V30 2540 H 250.391 -1.16136 -1.52265 0
M  V30 2541 H 248.696 -0.127677 -3.91592 0
M  V30 2542 H 250.393 -0.514238 -3.97689 0
M  V30 2543 H 246.983 -1.93952 -3.82205 0
M  V30 2544 H 251.167 -2.89817 -4.02889 0
M  V30 2545 H 246.423 -4.26754 -4.37825 0
M  V30 2546 H 250.597 -5.23005 -4.59825 0
M  V30 2547 H 248.224 -5.91969 -4.76946 0
M  V30 2548 N 249.799 1.42003 -0.683588 0
M  V30 2549 C 250.746 2.30798 -0.0107309 0
M  V30 2550 C 251.716 1.4645 0.783688 0
M  V30 2551 O 252.901 1.75263 0.754156 0
M  V30 2552 C 250.041 3.3238 0.928306 0
M  V30 2553 C 249.154 4.31814 0.126776 0
M  V30 2554 C 248.289 5.20468 1.06236 0
M  V30 2555 C 247.328 6.11577 0.253035 0
M  V30 2556 N 246.465 6.92754 1.14179 0
M  V30 2557 H 251.305 2.8778 -0.773727 0
M  V30 2558 H 248.842 1.41745 -0.393283 0
M  V30 2559 H 250.8 3.89813 1.48666 0
M  V30 2560 H 249.43 2.76976 1.65783 0
M  V30 2561 H 248.482 3.76427 -0.54833 0
M  V30 2562 H 249.794 4.96276 -0.501192 0
M  V30 2563 H 248.948 5.82677 1.69035 0
M  V30 2564 H 247.687 4.56204 1.7242 0
M  V30 2565 H 246.692 5.48428 -0.388108 0
M  V30 2566 H 247.917 6.77892 -0.404839 0
M  V30 2567 H 245.863 6.3111 1.78987 0
M  V30 2568 H 245.78 7.53855 0.569111 0
M  V30 2569 H 247.048 7.59441 1.75697 0
M  V30 2570 N 251.277 0.427512 1.51691 0
M  V30 2571 C 252.209 -0.424521 2.25234 0
M  V30 2572 C 253.222 -0.994671 1.2888 0
M  V30 2573 O 254.411 -0.890483 1.54702 0
M  V30 2574 C 251.511 -1.60479 2.98496 0
M  V30 2575 C 250.684 -1.15527 4.21868 0
M  V30 2576 C 249.743 -2.20454 4.77793 0
M  V30 2577 O 248.769 -1.8029 5.39893 0
M  V30 2578 N 249.971 -3.52831 4.60967 0
M  V30 2579 H 252.736 0.205749 2.98993 0
M  V30 2580 H 250.297 0.255867 1.59865 0
M  V30 2581 H 252.289 -2.30276 3.32799 0
M  V30 2582 H 250.859 -2.14061 2.27809 0
M  V30 2583 H 250.079 -0.284736 3.9317 0
M  V30 2584 H 251.367 -0.832173 5.01949 0
M  V30 2585 H 250.765 -3.88201 4.11481 0
M  V30 2586 H 249.322 -4.18551 4.99658 0
M  V30 2587 N 252.755 -1.56801 0.158532 0
M  V30 2588 C 254.004 -1.95665 -0.489702 0
M  V30 2589 C 254.317 -1.04654 -1.65248 0
M  V30 2590 O 255.523 -1.33146 -2.3661 0
M  V30 2591 C 253.979 -3.47874 -0.922582 0
M  V30 2592 C 253.587 -4.47489 0.213893 0
M  V30 2593 C 255.331 -3.95583 -1.53996 0
M  V30 2594 C 253.238 -5.90921 -0.237903 0
M  V30 2595 H 252.168 -0.730516 -0.186716 0
M  V30 2596 H 254.819 -1.81861 0.244722 0
M  V30 2597 H 253.201 -3.57051 -1.71261 0
M  V30 2598 H 254.375 -4.50017 0.991036 0
M  V30 2599 H 252.69 -4.09764 0.740407 0
M  V30 2600 H 255.287 -5.0019 -1.8898 0
M  V30 2601 H 255.63 -3.37789 -2.43319 0
M  V30 2602 H 256.163 -3.8937 -0.814611 0
M  V30 2603 H 252.902 -6.52559 0.620236 0
M  V30 2604 H 252.422 -5.91729 -0.980676 0
M  V30 2605 H 254.101 -6.43352 -0.686067 0
M  V30 2606 N 254.233 0.115231 -1.57178 0
M  V30 2607 C 255.479 0.82357 -1.85325 0
M  V30 2608 C 255.812 1.79349 -0.744814 0
M  V30 2609 O 255.087 1.92899 0.249024 0
M  V30 2610 C 255.37 1.57014 -3.24066 0
M  V30 2611 C 255.223 0.619565 -4.45513 0
M  V30 2612 C 256.542 2.52545 -3.60429 0
M  V30 2613 H 253.661 0.297948 -0.674089 0
M  V30 2614 H 256.303 0.0877138 -1.89797 0
M  V30 2615 H 254.453 2.19742 -3.20383 0
M  V30 2616 H 256.125 0.000837639 -4.613 0
M  V30 2617 H 254.368 -0.0686174 -4.33746 0
M  V30 2618 H 255.039 1.17866 -5.3927 0
M  V30 2619 H 257.515 1.9992 -3.64926 0
M  V30 2620 H 256.391 3.01811 -4.58477 0
M  V30 2621 H 256.652 3.35383 -2.88047 0
M  V30 2622 N 255.711 1.52812 0.385517 0
M  V30 2623 C 256.939 1.71907 1.15133 0
M  V30 2624 C 257.354 0.439004 1.83625 0
M  V30 2625 O 256.711 -0.586765 1.7281 0
M  V30 2626 C 256.762 2.87099 2.19673 0
M  V30 2627 O 256.483 4.10151 1.53973 0
M  V30 2628 C 257.984 3.17902 3.08955 0
M  V30 2629 H 255.204 0.575479 0.345057 0
M  V30 2630 H 257.748 1.99476 0.45052 0
M  V30 2631 H 255.903 2.61982 2.85384 0
M  V30 2632 H 256.317 4.74514 2.23465 0
M  V30 2633 H 257.791 4.01959 3.7833 0
M  V30 2634 H 258.268 2.3243 3.72657 0
M  V30 2635 H 258.874 3.44871 2.48885 0
M  V30 2636 N 257.189 -0.644168 1.43834 0
M  V30 2637 C 258.152 -1.73857 1.49353 0
M  V30 2638 C 259.152 -1.56315 0.377112 0
M  V30 2639 O 260.342 -1.62048 0.639226 0
M  V30 2640 C 257.474 -3.12819 1.35488 0
M  V30 2641 H 258.667 -1.70342 2.46827 0
M  V30 2642 H 256.22 -0.856652 1.30733 0
M  V30 2643 H 256.955 -3.2194 0.390569 0
M  V30 2644 H 256.74 -3.26958 2.16428 0
M  V30 2645 H 258.23 -3.92606 1.42302 0
M  V30 2646 N 258.668 -1.30515 -0.883378 0
M  V30 2647 C 259.914 -1.19607 -1.63774 0
M  V30 2648 C 260.247 0.248314 -1.92606 0
M  V30 2649 O 259.522 1.17742 -1.54813 0
M  V30 2650 C 259.805 -2.02669 -2.97653 0
M  V30 2651 C 259.658 -3.55335 -2.75784 0
M  V30 2652 C 260.977 -1.86573 -3.98596 0
M  V30 2653 H 258.096 -0.435856 -0.594305 0
M  V30 2654 H 260.738 -1.60165 -1.02212 0
M  V30 2655 H 258.888 -1.68208 -3.50197 0
M  V30 2656 H 260.56 -3.99863 -2.30016 0
M  V30 2657 H 258.803 -3.79438 -2.1026 0
M  V30 2658 H 259.474 -4.08745 -3.70988 0
M  V30 2659 H 261.95 -2.16703 -3.55217 0
M  V30 2660 H 260.826 -2.47014 -4.90179 0
M  V30 2661 H 261.087 -0.825321 -4.34328 0
M  V30 2662 N 260.146 1.09593 -1.13257 0
M  V30 2663 C 261.376 1.85231 -0.915049 0
M  V30 2664 C 261.784 1.81345 0.539498 0
M  V30 2665 O 261.127 1.20664 1.38513 0
M  V30 2666 C 261.189 3.34275 -1.3229 0
M  V30 2667 C 260.853 3.6191 -2.79052 0
M  V30 2668 C 261.85 3.57777 -3.77216 0
M  V30 2669 C 259.535 3.90309 -3.16171 0
M  V30 2670 C 261.529 3.81652 -5.1051 0
M  V30 2671 C 259.216 4.13839 -4.49644 0
M  V30 2672 C 260.214 4.09502 -5.46623 0
M  V30 2673 O 259.902 4.32426 -6.77689 0
M  V30 2674 H 259.634 0.591997 -0.326367 0
M  V30 2675 H 262.188 1.394 -1.50854 0
M  V30 2676 H 260.418 3.80805 -0.672667 0
M  V30 2677 H 262.107 3.9132 -1.07812 0
M  V30 2678 H 262.873 3.35865 -3.49885 0
M  V30 2679 H 258.752 3.92811 -2.41289 0
M  V30 2680 H 262.296 3.78182 -5.86195 0
M  V30 2681 H 258.193 4.35232 -4.767 0
M  V30 2682 H 258.961 4.49896 -6.83766 0
M  V30 2683 N 261.624 0.925811 1.2754 0
M  V30 2684 C 262.871 0.565255 1.94451 0
M  V30 2685 C 263.199 -0.89316 1.7278 0
M  V30 2686 O 262.454 -1.65213 1.04895 0
M  V30 2687 C 262.753 0.835296 3.47502 0
M  V30 2688 C 262.419 2.27515 3.89291 0
M  V30 2689 C 261.081 2.66879 4.00411 0
M  V30 2690 C 263.433 3.21158 4.10496 0
M  V30 2691 C 260.761 3.99014 4.30122 0
M  V30 2692 C 263.113 4.52871 4.4169 0
M  V30 2693 C 261.777 4.92072 4.51023 0
M  V30 2694 H 261.047 0.206841 0.711546 0
M  V30 2695 H 263.694 1.16942 1.51647 0
M  V30 2696 H 261.999 0.148442 3.91519 0
M  V30 2697 H 263.696 0.535322 3.97411 0
M  V30 2698 H 260.286 1.95976 3.81171 0
M  V30 2699 H 264.47 2.9195 4.01346 0
M  V30 2700 H 259.726 4.2907 4.35556 0
M  V30 2701 H 263.9 5.25436 4.57045 0
M  V30 2702 H 261.527 5.9449 4.738 0
M  V30 2703 N 263.102 -1.41638 0.69111 0
M  V30 2704 C 264.342 -2.03166 0.224291 0
M  V30 2705 C 264.706 -1.53537 -1.15284 0
M  V30 2706 O 265.907 -2.0696 -1.71525 0
M  V30 2707 C 264.178 -3.56342 0.274758 0
M  V30 2708 S 265.737 -4.3864 -0.118669 0
M  V30 2709 H 262.555 -0.705188 0.0907263 0
M  V30 2710 H 265.157 -1.7314 0.907895 0
M  V30 2711 H 263.861 -3.89958 1.2791 0
M  V30 2712 H 263.392 -3.91063 -0.428142 0
M  V30 2713 H 265.407 -4.77549 -1.34764 0
M  V30 2714 N 264.58 -0.43555 -1.51462 0
M  V30 2715 C 265.53 0.394701 -2.24558 0
M  V30 2716 C 266.514 0.99157 -1.26715 0
M  V30 2717 O 267.706 0.910007 -1.51815 0
M  V30 2718 C 264.835 1.4963 -3.08975 0
M  V30 2719 C 263.921 0.908912 -4.14246 0
M  V30 2720 N 264.312 0.0505335 -5.05775 0
M  V30 2721 C 262.61 1.17668 -4.30198 0
M  V30 2722 C 263.311 -0.279161 -5.8103 0
M  V30 2723 N 262.287 0.336767 -5.42556 0
M  V30 2724 H 266.089 -0.267106 -2.92684 0
M  V30 2725 H 263.603 -0.247518 -1.60503 0
M  V30 2726 H 265.6 2.10394 -3.59917 0
M  V30 2727 H 264.26 2.16046 -2.42393 0
M  V30 2728 H 265.271 -0.31577 -5.16936 0
M  V30 2729 H 261.948 1.83847 -3.74842 0
M  V30 2730 H 263.338 -0.977553 -6.64751 0
M  V30 2731 N 266.058 1.56714 -0.166846 0
M  V30 2732 C 267.298 1.98641 0.481763 0
M  V30 2733 C 267.662 1.05038 1.6072 0
M  V30 2734 O 268.863 1.36087 2.31805 0
M  V30 2735 C 267.134 3.44362 0.956517 0
M  V30 2736 S 268.693 4.08317 1.60694 0
M  V30 2737 H 265.511 0.693873 0.155116 0
M  V30 2738 H 268.113 1.93719 -0.263251 0
M  V30 2739 H 266.817 4.10204 0.126936 0
M  V30 2740 H 266.348 3.53041 1.73568 0
M  V30 2741 H 268.363 4.02999 2.89494 0
M  V30 2742 N 267.536 -0.106894 1.57237 0
M  V30 2743 C 268.952 -0.46078 1.52804 0
M  V30 2744 C 269.152 -1.81184 0.881746 0
M  V30 2745 O 268.208 -2.48102 0.469224 0
M  V30 2746 C 269.521 -0.434127 2.9755 0
M  V30 2747 C 271.069 -0.516821 3.08704 0
M  V30 2748 C 271.544 -0.520436 4.55033 0
M  V30 2749 N 273.035 -0.58153 4.59535 0
M  V30 2750 C 273.77 -0.605973 5.70189 0
M  V30 2751 N 273.266 -0.587331 6.90306 0
M  V30 2752 N 275.059 -0.649895 5.5833 0
M  V30 2753 H 267.21 0.778203 1.9763 0
M  V30 2754 H 269.473 0.288403 0.903066 0
M  V30 2755 H 269.179 0.491197 3.48253 0
M  V30 2756 H 269.053 -1.25748 3.55622 0
M  V30 2757 H 271.44 -1.43256 2.57995 0
M  V30 2758 H 271.521 0.334449 2.53604 0
M  V30 2759 H 271.165 0.391313 5.0639 0
M  V30 2760 H 271.095 -1.38876 5.07958 0
M  V30 2761 H 273.586 -0.60161 3.73081 0
M  V30 2762 H 273.899 -0.60894 7.70397 0
M  V30 2763 H 272.244 -0.554564 6.92784 0
M  V30 2764 H 275.435 -0.661907 4.63397 0
M  V30 2765 H 275.608 -0.665476 6.44574 0
M  V30 2766 N 269.014 -1.53014 -0.377408 0
M  V30 2767 C 269.962 -1.7927 -1.48206 0
M  V30 2768 C 270.956 -0.661195 -1.55963 0
M  V30 2769 O 272.162 -0.843908 -1.58991 0
M  V30 2770 H 268.537 -0.567425 -0.493491 0
M  V30 2771 H 270.508 -2.71753 -1.2326 0
M  V30 2772 C 269.257 -1.98894 -2.85196 0
M  V30 2773 H 268.58 -2.85395 -2.79981 0
M  V30 2774 H 270.02 -2.21249 -3.61698 0
M  V30 2775 C 268.479 -0.764691 -3.28107 0
M  V30 2776 O 269.009 0.0523226 -4.01666 0
M  V30 2777 N 267.215 -0.591493 -2.84517 0
M  V30 2778 H 266.762 -1.25749 -2.24822 0
M  V30 2779 H 266.72 0.226253 -3.13585 0
M  V30 2780 N 270.492 0.636531 -1.44174 0
M  V30 2781 C 271.741 1.39213 -1.45954 0
M  V30 2782 C 272.054 1.95374 -0.0939119 0
M  V30 2783 O 273.26 2.71498 0.0107767 0
M  V30 2784 C 271.716 2.52025 -2.56927 0
M  V30 2785 C 271.324 2.024 -3.99673 0
M  V30 2786 C 273.068 3.29269 -2.67922 0
M  V30 2787 C 270.975 3.12521 -5.0208 0
M  V30 2788 H 269.905 0.523132 -0.542999 0
M  V30 2789 H 272.556 0.685349 -1.70221 0
M  V30 2790 H 270.938 3.25253 -2.25891 0
M  V30 2791 H 272.112 1.36073 -4.40251 0
M  V30 2792 H 270.427 1.37987 -3.92872 0
M  V30 2793 H 273.024 4.11352 -3.41605 0
M  V30 2794 H 273.367 3.78397 -1.73555 0
M  V30 2795 H 273.9 2.63129 -2.98342 0
M  V30 2796 H 270.639 2.68343 -5.98057 0
M  V30 2797 H 270.159 3.77507 -4.66099 0
M  V30 2798 H 271.838 3.77385 -5.25538 0
M  V30 2799 N 271.97 1.30982 0.876444 0
M  V30 2800 C 273.216 1.20474 1.63138 0
M  V30 2801 C 273.549 -0.238096 1.92735 0
M  V30 2802 O 272.824 -1.1692 1.55435 0
M  V30 2803 C 273.107 2.04244 2.96574 0
M  V30 2804 C 272.96 3.56793 2.73896 0
M  V30 2805 C 274.279 1.88684 3.97601 0
M  V30 2806 H 271.398 0.439001 0.591985 0
M  V30 2807 H 274.04 1.60704 1.01361 0
M  V30 2808 H 272.19 1.70063 3.493 0
M  V30 2809 H 273.862 4.01077 2.27892 0
M  V30 2810 H 272.105 3.80548 2.08245 0
M  V30 2811 H 272.776 4.10706 3.68815 0
M  V30 2812 H 275.252 2.18584 3.54062 0
M  V30 2813 H 274.128 2.4961 4.88862 0
M  V30 2814 H 274.389 0.848343 4.33884 0
M  V30 2815 N 273.449 -1.08991 1.13837 0
M  V30 2816 C 274.399 -2.1393 0.788535 0
M  V30 2817 C 275.383 -1.59396 -0.219516 0
M  V30 2818 O 276.575 -1.76985 -0.0227557 0
M  V30 2819 C 273.704 -3.42305 0.261147 0
M  V30 2820 C 272.79 -4.03736 1.29837 0
M  V30 2821 N 273.181 -4.39659 2.50067 0
M  V30 2822 C 271.479 -4.30993 1.1472 0
M  V30 2823 C 272.18 -4.88113 3.16419 0
M  V30 2824 N 271.156 -4.85846 2.43832 0
M  V30 2825 H 274.958 -2.39516 1.70322 0
M  V30 2826 H 272.472 -1.26263 1.02134 0
M  V30 2827 H 274.469 -4.16899 -0.0077405 0
M  V30 2828 H 273.129 -3.18172 -0.647805 0
M  V30 2829 H 274.14 -4.30878 2.8734 0
M  V30 2830 H 270.817 -4.16444 0.296773 0
M  V30 2831 H 272.207 -5.25336 4.18894 0
M  V30 2832 N 274.927 -0.932562 -1.27047 0
M  V30 2833 C 276.343 -0.633544 -1.46487 0
M  V30 2834 C 276.543 0.815746 -1.84249 0
M  V30 2835 O 275.599 1.59319 -1.95892 0
M  V30 2836 C 276.912 -1.58758 -2.55375 0
M  V30 2837 C 278.46 -1.59634 -2.69232 0
M  V30 2838 C 278.935 -2.53747 -3.81283 0
M  V30 2839 N 280.426 -2.51982 -3.88664 0
M  V30 2840 C 281.161 -3.21491 -4.74796 0
M  V30 2841 N 280.657 -4.00395 -5.65381 0
M  V30 2842 N 282.45 -3.10485 -4.68568 0
M  V30 2843 H 274.601 -1.86946 -1.00821 0
M  V30 2844 H 276.864 -0.802897 -0.504044 0
M  V30 2845 H 276.57 -2.62172 -2.34432 0
M  V30 2846 H 276.444 -1.33301 -3.52861 0
M  V30 2847 H 278.831 -0.569488 -2.89553 0
M  V30 2848 H 278.912 -1.89142 -1.72218 0
M  V30 2849 H 278.556 -3.56545 -3.61715 0
M  V30 2850 H 278.486 -2.21532 -4.77735 0
M  V30 2851 H 280.977 -1.94681 -3.23895 0
M  V30 2852 H 281.29 -4.50406 -6.27976 0
M  V30 2853 H 279.635 -4.04498 -5.65161 0
M  V30 2854 H 282.826 -2.48331 -3.96799 0
M  V30 2855 H 282.999 -3.64925 -5.35475 0
M  V30 2856 N 276.405 1.4127 -0.698611 0
M  V30 2857 C 277.682 1.94955 -0.158762 0
M  V30 2858 C 278.062 1.63781 1.33188 0
M  V30 2859 O 277.41 0.946423 2.07979 0
M  V30 2860 C 277.62 3.46044 -0.453309 0
M  V30 2861 C 278.968 4.22872 -0.382707 0
M  V30 2862 O 279.992 3.54076 -0.388396 0
M  V30 2863 O 278.851 5.45407 -0.345463 0
M  V30 2864 H 275.945 0.82683 -0.0167505 0
M  V30 2865 H 278.491 1.50971 -0.77498 0
M  V30 2866 H 277.263 3.62028 -1.48498 0
M  V30 2867 H 276.886 3.97128 0.19373 0
M  V30 2868 N 277.883 0.443576 1.51229 0
M  V30 2869 C 278.813 -0.355142 2.30783 0
M  V30 2870 C 279.794 -1.0154 1.36468 0
M  V30 2871 O 280.979 -1.01785 1.65389 0
M  V30 2872 C 278.109 -1.45312 3.15439 0
M  V30 2873 C 277.063 -0.916002 4.18083 0
M  V30 2874 C 276.389 -2.1102 4.91299 0
M  V30 2875 C 277.689 0.0538602 5.22272 0
M  V30 2876 H 279.383 0.308767 2.97804 0
M  V30 2877 H 276.929 0.149937 1.43217 0
M  V30 2878 H 278.882 -2.01914 3.69876 0
M  V30 2879 H 277.606 -2.14541 2.46252 0
M  V30 2880 H 276.265 -0.372145 3.64706 0
M  V30 2881 H 275.913 -2.78882 4.18609 0
M  V30 2882 H 275.613 -1.75717 5.60712 0
M  V30 2883 H 277.137 -2.68164 5.48562 0
M  V30 2884 H 278.551 -0.422069 5.71744 0
M  V30 2885 H 276.948 0.319776 5.99247 0
M  V30 2886 H 278.018 0.98858 4.74716 0
M  V30 2887 N 279.361 -1.56624 0.175154 0
M  V30 2888 C 280.308 -2.18149 -0.753634 0
M  V30 2889 C 281.278 -1.12265 -1.22417 0
M  V30 2890 O 282.463 -1.40432 -1.29165 0
M  V30 2891 C 279.603 -2.82933 -1.97592 0
M  V30 2892 C 278.716 -4.03289 -1.5486 0
M  V30 2893 C 277.851 -4.55988 -2.72485 0
M  V30 2894 C 276.89 -5.68746 -2.26262 0
M  V30 2895 N 276.027 -6.15938 -3.36994 0
M  V30 2896 H 280.867 -2.9717 -0.222195 0
M  V30 2897 H 278.404 -1.46774 -0.0979422 0
M  V30 2898 H 280.362 -3.18653 -2.69288 0
M  V30 2899 H 278.992 -2.06509 -2.481 0
M  V30 2900 H 278.044 -3.73364 -0.728246 0
M  V30 2901 H 279.356 -4.849 -1.16933 0
M  V30 2902 H 278.51 -4.9391 -3.52332 0
M  V30 2903 H 277.249 -3.73443 -3.13674 0
M  V30 2904 H 276.254 -5.30372 -1.44863 0
M  V30 2905 H 277.479 -6.53095 -1.86127 0
M  V30 2906 H 275.425 -5.36321 -3.77751 0
M  V30 2907 H 275.342 -6.92548 -3.03172 0
M  V30 2908 H 276.61 -6.58511 -4.17114 0
M  V30 2909 N 280.839 0.0985539 -1.57292 0
M  V30 2910 C 281.802 1.10402 -2.00858 0
M  V30 2911 C 282.802 1.33146 -0.901593 0
M  V30 2912 O 283.992 1.29318 -1.16716 0
M  V30 2913 C 281.124 2.45394 -2.36632 0
M  V30 2914 H 282.317 0.729099 -2.90902 0
M  V30 2915 H 279.87 0.343495 -1.52479 0
M  V30 2916 H 280.605 2.87769 -1.49531 0
M  V30 2917 H 280.39 2.30235 -3.17387 0
M  V30 2918 H 281.88 3.17718 -2.71007 0
M  V30 2919 N 282.317 1.53212 0.369288 0
M  V30 2920 C 283.227 1.82342 1.47609 0
M  V30 2921 C 284.243 0.711532 1.58787 0
M  V30 2922 O 285.419 1.0012 1.74751 0
M  V30 2923 C 282.484 2.00393 2.8292 0
M  V30 2924 C 281.545 3.24297 2.81301 0
M  V30 2925 C 280.778 3.41478 4.10157 0
M  V30 2926 O 281.001 2.63033 5.06132 0
M  V30 2927 O 279.935 4.34817 4.16194 0
M  V30 2928 H 283.761 2.76366 1.25918 0
M  V30 2929 H 281.346 1.38547 0.559034 0
M  V30 2930 H 283.228 2.13859 3.63101 0
M  V30 2931 H 281.903 1.09559 3.04596 0
M  V30 2932 H 280.81 3.16257 1.99831 0
M  V30 2933 H 282.143 4.15041 2.64578 0
M  V30 2934 N 283.795 -0.628877 1.44509 0
M  V30 2935 C 284.743 -1.76193 1.51852 0
M  V30 2936 C 285.737 -1.64849 0.390042 0
M  V30 2937 O 286.943 -1.709 0.565082 0
M  V30 2938 H 283.318 -0.581728 0.476547 0
M  V30 2939 H 285.289 -1.67123 2.47209 0
M  V30 2940 C 284.038 -3.14533 1.48204 0
M  V30 2941 H 283.361 -3.23911 2.34354 0
M  V30 2942 H 284.801 -3.93701 1.57402 0
M  V30 2943 C 283.26 -3.36287 0.203142 0
M  V30 2944 O 283.79 -3.9509 -0.725745 0
M  V30 2945 N 281.996 -2.90408 0.105563 0
M  V30 2946 H 281.543 -2.42739 0.862301 0
M  V30 2947 H 281.501 -3.05339 -0.749371 0
M  V30 2948 N 285.273 -1.31445 -0.869486 0
M  V30 2949 C 286.203 -1.21727 -1.99261 0
M  V30 2950 C 287.184 -0.104359 -1.6978 0
M  V30 2951 O 288.369 -0.289038 -1.92037 0
M  V30 2952 C 285.499 -0.924317 -3.34774 0
M  V30 2953 C 284.453 -1.99685 -3.78563 0
M  V30 2954 C 283.779 -1.55658 -5.11541 0
M  V30 2955 C 285.079 -3.41003 -3.95619 0
M  V30 2956 H 286.773 -2.1569 -2.07649 0
M  V30 2957 H 284.319 -1.03839 -0.997675 0
M  V30 2958 H 286.272 -0.842934 -4.12883 0
M  V30 2959 H 284.996 0.0509793 -3.2656 0
M  V30 2960 H 283.655 -2.06813 -3.02694 0
M  V30 2961 H 283.303 -0.569132 -4.9977 0
M  V30 2962 H 283.003 -2.27409 -5.41811 0
M  V30 2963 H 284.527 -1.48928 -5.92159 0
M  V30 2964 H 285.941 -3.36547 -4.64122 0
M  V30 2965 H 284.338 -4.10975 -4.37286 0
M  V30 2966 H 285.408 -3.81754 -2.98985 0
M  V30 2967 N 286.751 1.08385 -1.14413 0
M  V30 2968 C 287.681 2.17321 -0.854044 0
M  V30 2969 C 288.662 1.69024 0.191049 0
M  V30 2970 O 289.847 1.94141 0.0476779 0
M  V30 2971 C 286.977 3.45719 -0.330983 0
M  V30 2972 C 285.931 4.07409 -1.31155 0
M  V30 2973 C 285.257 5.30762 -0.64778 0
M  V30 2974 C 286.557 4.48665 -2.67388 0
M  V30 2975 H 288.251 2.41845 -1.76498 0
M  V30 2976 H 285.797 1.16233 -0.850051 0
M  V30 2977 H 287.75 4.21241 -0.115645 0
M  V30 2978 H 286.474 3.2075 0.615381 0
M  V30 2979 H 285.133 3.33919 -1.51306 0
M  V30 2980 H 284.781 5.02078 0.304398 0
M  V30 2981 H 284.481 5.72992 -1.30207 0
M  V30 2982 H 286.005 6.08998 -0.441972 0
M  V30 2983 H 287.419 5.15364 -2.51143 0
M  V30 2984 H 285.816 5.01814 -3.29093 0
M  V30 2985 H 286.886 3.60543 -3.24248 0
M  V30 2986 N 288.23 0.939286 1.26551 0
M  V30 2987 C 289.16 0.465044 2.28822 0
M  V30 2988 C 290.141 -0.480692 1.63167 0
M  V30 2989 O 291.326 -0.382955 1.90387 0
M  V30 2990 C 288.456 -0.27234 3.46231 0
M  V30 2991 C 287.41 0.58666 4.2396 0
M  V30 2992 C 286.736 -0.280573 5.33963 0
M  V30 2993 C 288.036 1.85704 4.88171 0
M  V30 2994 H 289.73 1.31979 2.68741 0
M  V30 2995 H 287.276 0.636061 1.29191 0
M  V30 2996 H 289.229 -0.615133 4.16886 0
M  V30 2997 H 287.953 -1.16121 3.0526 0
M  V30 2998 H 286.612 0.91232 3.55067 0
M  V30 2999 H 286.26 -1.16874 4.89234 0
M  V30 3000 H 285.96 0.29076 5.8688 0
M  V30 3001 H 287.484 -0.618678 6.07458 0
M  V30 3002 H 288.898 1.58161 5.51052 0
M  V30 3003 H 287.295 2.37279 5.51197 0
M  V30 3004 H 288.365 2.56957 4.11219 0
M  V30 3005 N 289.708 -1.40897 0.706093 0
M  V30 3006 C 290.985 -1.94868 0.169099 0
M  V30 3007 C 291.365 -1.64485 -1.32318 0
M  V30 3008 O 290.713 -0.95744 -2.07474 0
M  V30 3009 C 290.923 -3.45798 0.471654 0
M  V30 3010 C 292.271 -4.22663 0.405127 0
M  V30 3011 O 293.295 -3.53865 0.407168 0
M  V30 3012 O 292.154 -5.45216 0.374383 0
M  V30 3013 H 289.248 -0.82673 0.0211352 0
M  V30 3014 H 291.794 -1.50558 0.782976 0
M  V30 3015 H 290.566 -3.61235 1.50416 0
M  V30 3016 H 290.189 -3.97225 -0.172666 0
M  V30 3017 N 291.186 -0.45159 -1.50991 0
M  V30 3018 C 292.149 0.341117 -2.26647 0
M  V30 3019 C 293.149 0.937422 -1.30649 0
M  V30 3020 O 294.339 0.809644 -1.54241 0
M  V30 3021 C 291.471 1.48398 -3.06905 0
M  V30 3022 H 292.664 -0.322117 -2.98165 0
M  V30 3023 H 290.217 -0.205122 -1.54948 0
M  V30 3024 H 290.952 2.18284 -2.39838 0
M  V30 3025 H 290.737 1.06241 -3.77432 0
M  V30 3026 H 292.227 2.04367 -3.64176 0
M  V30 3027 N 292.664 1.56529 -0.183458 0
M  V30 3028 C 293.612 2.19873 0.758845 0
M  V30 3029 C 294.606 1.16638 1.22849 0
M  V30 3030 O 295.812 1.3481 1.19274 0
M  V30 3031 H 292.187 0.7045 0.263029 0
M  V30 3032 H 294.158 2.97724 0.200755 0
M  V30 3033 C 292.907 2.86314 1.9728 0
M  V30 3034 H 292.23 3.65487 1.62047 0
M  V30 3035 H 293.67 3.3409 2.61075 0
M  V30 3036 C 292.129 1.86729 2.80418 0
M  V30 3037 O 292.659 1.36031 3.77966 0
M  V30 3038 N 290.865 1.55216 2.45675 0
M  V30 3039 H 290.412 1.96636 1.66409 0
M  V30 3040 H 290.37 0.888388 3.01588 0
M  V30 3041 N 294.142 -0.090211 1.57342 0
M  V30 3042 C 295.072 -1.10976 2.05443 0
M  V30 3043 C 296.053 -1.41482 0.944284 0
M  V30 3044 O 297.238 -1.51428 1.21586 0
M  V30 3045 C 294.368 -2.42831 2.48295 0
M  V30 3046 C 293.322 -2.26721 3.63018 0
M  V30 3047 C 292.648 -3.63796 3.91863 0
M  V30 3048 C 293.948 -1.7037 4.93732 0
M  V30 3049 H 295.642 -0.709564 2.9087 0
M  V30 3050 H 293.188 -0.339874 1.39932 0
M  V30 3051 H 295.141 -3.14431 2.80555 0
M  V30 3052 H 293.865 -2.84795 1.59873 0
M  V30 3053 H 292.524 -1.57565 3.31012 0
M  V30 3054 H 292.172 -4.03297 3.00601 0
M  V30 3055 H 291.872 -3.53861 4.69101 0
M  V30 3056 H 293.396 -4.36855 4.26603 0
M  V30 3057 H 294.81 -2.31816 5.24342 0
M  V30 3058 H 293.207 -1.71181 5.75167 0
M  V30 3059 H 294.277 -0.663542 4.80339 0
M  V30 3060 N 295.62 -1.53406 -0.361157 0
M  V30 3061 C 296.568 -1.80832 -1.46296 0
M  V30 3062 C 297.562 -0.677699 -1.55253 0
M  V30 3063 O 298.768 -0.860723 -1.58087 0
M  V30 3064 H 295.143 -0.572627 -0.487445 0
M  V30 3065 H 297.114 -2.73045 -1.20371 0
M  V30 3066 C 295.863 -2.01907 -2.8307 0
M  V30 3067 H 295.186 -2.88349 -2.76938 0
M  V30 3068 H 296.626 -2.25072 -3.59331 0
M  V30 3069 C 295.085 -0.799449 -3.27277 0
M  V30 3070 O 295.615 0.00971761 -4.01699 0
M  V30 3071 N 293.821 -0.621637 -2.83873 0
M  V30 3072 H 293.368 -1.28126 -2.23476 0
M  V30 3073 H 293.326 0.19298 -3.13807 0
M  V30 3074 N 297.098 0.621204 -1.44841 0
M  V30 3075 C 298.347 1.37658 -1.47422 0
M  V30 3076 C 298.66 1.95264 -0.114629 0
M  V30 3077 O 299.866 2.71494 -0.0180199 0
M  V30 3078 C 298.322 2.49285 -2.59586 0
M  V30 3079 C 297.93 1.98149 -4.01797 0
M  V30 3080 C 299.674 3.26409 -2.71399 0
M  V30 3081 C 297.581 3.07178 -5.05367 0
M  V30 3082 H 296.511 0.517344 -0.548517 0
M  V30 3083 H 299.162 0.667257 -1.70938 0
M  V30 3084 H 297.544 3.22839 -2.29328 0
M  V30 3085 H 298.718 1.31395 -4.41669 0
M  V30 3086 H 297.033 1.33812 -3.94314 0
M  V30 3087 H 299.63 4.07706 -3.45948 0
M  V30 3088 H 299.973 3.76535 -1.77559 0
M  V30 3089 H 300.506 2.5995 -3.01116 0
M  V30 3090 H 297.245 2.61985 -6.00869 0
M  V30 3091 H 296.765 3.72542 -4.70077 0
M  V30 3092 H 298.444 3.71789 -5.29511 0
M  V30 3093 N 298.576 1.31904 0.862503 0
M  V30 3094 C 299.523 1.20182 1.9704 0
M  V30 3095 C 300.493 0.0858247 1.65878 0
M  V30 3096 O 301.678 0.26 1.8902 0
M  V30 3097 C 298.818 0.922797 3.32533 0
M  V30 3098 C 297.931 2.12284 3.76244 0
M  V30 3099 C 297.066 1.77996 5.00491 0
M  V30 3100 C 296.105 2.94366 5.36671 0
M  V30 3101 N 295.242 2.60223 6.52095 0
M  V30 3102 H 300.082 2.14951 2.06398 0
M  V30 3103 H 297.619 1.06917 1.01031 0
M  V30 3104 H 299.577 0.741548 4.10557 0
M  V30 3105 H 298.207 0.0119227 3.22798 0
M  V30 3106 H 297.259 2.41461 2.9394 0
M  V30 3107 H 298.571 2.99357 3.98982 0
M  V30 3108 H 297.725 1.56377 5.862 0
M  V30 3109 H 296.464 0.881252 4.79672 0
M  V30 3110 H 295.469 3.16625 4.49476 0
M  V30 3111 H 296.694 3.84957 5.59451 0
M  V30 3112 H 294.64 1.72884 6.32809 0
M  V30 3113 H 294.557 3.40827 6.74814 0
M  V30 3114 H 295.825 2.42016 7.40978 0
M  V30 3115 N 300.054 -1.07777 1.14986 0
M  V30 3116 C 301.303 -1.79669 0.916617 0
M  V30 3117 C 301.616 -1.87474 -0.557917 0
M  V30 3118 O 302.822 -2.55845 -0.908617 0
M  V30 3119 C 301.278 -3.22848 1.59051 0
M  V30 3120 C 300.886 -3.23257 3.10176 0
M  V30 3121 C 302.63 -3.99379 1.43864 0
M  V30 3122 C 300.537 -4.61063 3.70372 0
M  V30 3123 H 299.467 -0.673349 0.33929 0
M  V30 3124 H 302.118 -1.21003 1.37951 0
M  V30 3125 H 300.5 -3.8168 1.0553 0
M  V30 3126 H 301.674 -2.74095 3.70417 0
M  V30 3127 H 299.989 -2.60222 3.25074 0
M  V30 3128 H 302.586 -5.0122 1.86232 0
M  V30 3129 H 302.929 -4.14511 0.385564 0
M  V30 3130 H 303.462 -3.47032 1.94457 0
M  V30 3131 H 300.201 -4.51135 4.7556 0
M  V30 3132 H 299.721 -5.1048 3.14913 0
M  V30 3133 H 301.4 -5.30034 3.71043 0
M  V30 3134 N 301.532 -0.945985 -1.26051 0
M  V30 3135 C 302.495 -0.463897 -2.24456 0
M  V30 3136 C 303.495 0.427655 -1.55009 0
M  V30 3137 O 304.685 0.226157 -1.72726 0
M  V30 3138 C 301.817 0.330812 -3.39291 0
M  V30 3139 H 303.01 -1.33357 -2.68619 0
M  V30 3140 H 300.563 -0.728416 -1.38289 0
M  V30 3141 H 301.298 1.21852 -3.00537 0
M  V30 3142 H 301.083 -0.308679 -3.90883 0
M  V30 3143 H 302.573 0.657865 -4.12386 0
M  V30 3144 N 303.011 1.40521 -0.713556 0
M  V30 3145 C 304.288 1.94775 -0.17943 0
M  V30 3146 C 304.668 1.65184 1.31444 0
M  V30 3147 O 304.016 0.968429 2.06963 0
M  V30 3148 C 304.226 3.45543 -0.489986 0
M  V30 3149 C 305.574 4.22442 -0.427536 0
M  V30 3150 O 306.598 3.53644 -0.425929 0
M  V30 3151 O 305.457 5.4501 -0.403292 0
M  V30 3152 H 302.551 0.826606 -0.0255192 0
M  V30 3153 H 305.097 1.5014 -0.790949 0
M  V30 3154 H 303.869 3.60432 -1.5233 0
M  V30 3155 H 303.492 3.97311 0.151598 0
M  V30 3156 N 304.489 0.459591 1.5075 0
M  V30 3157 C 305.736 -0.0993495 2.02256 0
M  V30 3158 C 306.064 -1.40751 1.34237 0
M  V30 3159 O 305.319 -1.90379 0.453228 0
M  V30 3160 C 305.618 -0.342866 3.55752 0
M  V30 3161 C 305.284 0.88218 4.42186 0
M  V30 3162 C 303.946 1.21808 4.65528 0
M  V30 3163 C 306.298 1.69837 4.92752 0
M  V30 3164 C 303.626 2.37045 5.36681 0
M  V30 3165 C 305.978 2.84192 5.65171 0
M  V30 3166 C 304.642 3.1821 5.8677 0
M  V30 3167 H 303.912 -0.0363545 0.740108 0
M  V30 3168 H 306.559 0.611329 1.8148 0
M  V30 3169 H 304.864 -1.13567 3.7498 0
M  V30 3170 H 306.561 -0.789121 3.93159 0
M  V30 3171 H 303.151 0.610467 4.2423 0
M  V30 3172 H 307.335 1.45205 4.74583 0
M  V30 3173 H 302.591 2.63689 5.51614 0
M  V30 3174 H 306.765 3.4779 6.03337 0
M  V30 3175 H 304.392 4.07613 6.41682 0
M  V30 3176 N 305.967 -1.56429 0.191757 0
M  V30 3177 C 307.215 -1.97095 -0.447006 0
M  V30 3178 C 307.536 -1.07967 -1.62383 0
M  V30 3179 O 306.806 -0.150248 -1.95323 0
M  V30 3180 H 305.386 -0.727832 -0.168135 0
M  V30 3181 H 308.048 -1.92911 0.27771 0
M  V30 3182 H 307.144 -3.01848 -0.793371 0
M  V30 3183 N 307.445 0.0818655 -1.57387 0
M  V30 3184 C 308.692 0.782914 -1.86753 0
M  V30 3185 C 309.02 1.78082 -0.782118 0
M  V30 3186 O 308.275 1.94426 0.22295 0
M  V30 3187 C 308.574 1.53513 -3.22752 0
M  V30 3188 C 308.24 0.678134 -4.45771 0
M  V30 3189 C 306.902 0.441929 -4.79166 0
M  V30 3190 C 309.254 0.0832243 -5.21134 0
M  V30 3191 C 306.582 -0.398833 -5.85343 0
M  V30 3192 C 308.934 -0.744935 -6.28199 0
M  V30 3193 C 307.598 -0.991107 -6.60101 0
M  V30 3194 H 306.868 0.286489 -0.683378 0
M  V30 3195 H 309.515 0.0439808 -1.91449 0
M  V30 3196 H 307.82 2.34599 -3.138 0
M  V30 3197 H 309.517 2.08218 -3.42705 0
M  V30 3198 H 306.107 0.872357 -4.19628 0
M  V30 3199 H 310.291 0.252847 -4.95655 0
M  V30 3200 H 305.547 -0.598405 -6.08465 0
M  V30 3201 H 309.721 -1.21271 -6.8576 0
M  V30 3202 H 307.348 -1.64437 -7.42202 0
M  V30 3203 N 308.923 1.53595 0.353017 0
M  V30 3204 C 310.148 1.7462 1.11904 0
M  V30 3205 C 310.573 0.479721 1.8188 0
M  V30 3206 O 309.931 -0.567066 1.72204 0
M  V30 3207 C 309.979 2.92029 2.11545 0
M  V30 3208 O 309.083 2.61516 3.18878 0
M  V30 3209 H 308.424 0.579531 0.324099 0
M  V30 3210 H 310.954 2.00525 0.406301 0
M  V30 3211 H 310.964 3.18551 2.5493 0
M  V30 3212 H 309.639 3.83888 1.60008 0
M  V30 3213 H 308.216 2.45852 2.80377 0
M  V30 3214 N 310.401 -0.613514 1.45168 0
M  V30 3215 C 311.349 -1.74572 1.53712 0
M  V30 3216 C 312.343 -1.64426 0.407505 0
M  V30 3217 O 313.549 -1.70291 0.583176 0
M  V30 3218 H 309.924 -0.576641 0.48269 0
M  V30 3219 H 311.895 -1.64492 2.48968 0
M  V30 3220 C 310.644 -3.12943 1.51532 0
M  V30 3221 H 309.967 -3.21407 2.37776 0
M  V30 3222 H 311.407 -3.9201 1.61569 0
M  V30 3223 C 309.866 -3.36053 0.238798 0
M  V30 3224 O 310.396 -3.95837 -0.6838 0
M  V30 3225 N 308.602 -2.9028 0.136359 0
M  V30 3226 H 308.149 -2.41811 0.887999 0
M  V30 3227 H 308.107 -3.06116 -0.716944 0
M  V30 3228 N 311.879 -1.3236 -0.855495 0
M  V30 3229 C 312.809 -1.23833 -1.97958 0
M  V30 3230 C 313.79 -0.122361 -1.69659 0
M  V30 3231 O 314.975 -0.30939 -1.9172 0
M  V30 3232 C 312.105 -0.959772 -3.33775 0
M  V30 3233 C 311.059 -2.03689 -3.76424 0
M  V30 3234 C 310.385 -1.61075 -5.09862 0
M  V30 3235 C 311.685 -3.4518 -3.9198 0
M  V30 3236 H 313.379 -2.1788 -2.0535 0
M  V30 3237 H 310.925 -1.04891 -0.986605 0
M  V30 3238 H 312.878 -0.886678 -4.11966 0
M  V30 3239 H 311.602 0.0163404 -3.26596 0
M  V30 3240 H 310.261 -2.10012 -3.00484 0
M  V30 3241 H 309.909 -0.622107 -4.99138 0
M  V30 3242 H 309.609 -2.33143 -5.39368 0
M  V30 3243 H 311.133 -1.55201 -5.90546 0
M  V30 3244 H 312.547 -3.4145 -4.60526 0
M  V30 3245 H 310.944 -4.1559 -4.32903 0
M  V30 3246 H 312.014 -3.84903 -2.94919 0
M  V30 3247 N 313.357 1.07166 -1.15556 0
M  V30 3248 C 314.604 1.79798 -0.931604 0
M  V30 3249 C 314.932 1.8682 0.54115 0
M  V30 3250 O 314.187 1.34942 1.41736 0
M  V30 3251 C 314.486 3.24707 -1.49332 0
M  V30 3252 C 314.152 3.37781 -2.98688 0
M  V30 3253 C 312.814 3.41057 -3.39461 0
M  V30 3254 C 315.166 3.40424 -3.94665 0
M  V30 3255 C 312.494 3.4458 -4.74849 0
M  V30 3256 C 314.846 3.45485 -5.29927 0
M  V30 3257 C 313.51 3.47039 -5.70193 0
M  V30 3258 H 312.78 0.657928 -0.340898 0
M  V30 3259 H 315.427 1.26091 -1.44129 0
M  V30 3260 H 313.732 3.81208 -0.904859 0
M  V30 3261 H 315.429 3.79486 -1.29582 0
M  V30 3262 H 312.019 3.35932 -2.66172 0
M  V30 3263 H 316.203 3.37113 -3.64237 0
M  V30 3264 H 311.459 3.44083 -5.05388 0
M  V30 3265 H 315.633 3.46476 -6.04092 0
M  V30 3266 H 313.26 3.49522 -6.75084 0
M  V30 3267 N 314.835 0.952656 1.25548 0
M  V30 3268 C 316.063 0.623496 1.97282 0
M  V30 3269 C 316.478 -0.803987 1.70826 0
M  V30 3270 O 315.835 -1.53755 0.983147 0
M  V30 3271 C 315.886 0.870209 3.5087 0
M  V30 3272 O 315.607 2.24156 3.76412 0
M  V30 3273 C 317.108 0.553164 4.39835 0
M  V30 3274 H 314.328 0.233931 0.628902 0
M  V30 3275 H 316.872 1.27649 1.59768 0
M  V30 3276 H 315.027 0.263652 3.86502 0
M  V30 3277 H 315.441 2.31021 4.70882 0
M  V30 3278 H 316.915 0.776342 5.46513 0
M  V30 3279 H 317.392 -0.512215 4.36203 0
M  V30 3280 H 317.998 1.13896 4.09766 0
M  V30 3281 N 316.313 -1.40141 0.720998 0
M  V30 3282 C 317.724 -1.83678 0.334553 0
M  V30 3283 C 318.075 -1.6027 -1.13173 0
M  V30 3284 O 317.2 -1.08643 -1.87152 0
M  V30 3285 C 317.795 -3.33437 0.600437 0
M  V30 3286 C 316.354 -3.75447 0.267642 0
M  V30 3287 C 315.501 -2.63296 0.870097 0
M  V30 3288 H 318.452 -1.29331 0.919732 0
M  V30 3289 H 318.473 -3.80269 -0.132517 0
M  V30 3290 H 317.985 -3.50442 1.66768 0
M  V30 3291 H 316.086 -3.64035 -0.794329 0
M  V30 3292 H 316.199 -4.73344 0.74042 0
M  V30 3293 H 314.563 -2.52954 0.297739 0
M  V30 3294 H 315.346 -2.83112 1.94172 0
M  V30 3295 N 317.792 -0.46758 -1.50504 0
M  V30 3296 C 319.04 0.0884469 -2.01906 0
M  V30 3297 C 319.361 1.40532 -1.35188 0
M  V30 3298 O 318.631 1.89515 -0.496079 0
M  V30 3299 H 317.211 0.0356765 -0.746148 0
M  V30 3300 H 319.873 -0.6172 -1.84869 0
M  V30 3301 H 318.969 0.2425 -3.11156 0
M  V30 3302 N 319.27 1.56325 -0.20005 0
M  V30 3303 C 320.202 2.16555 0.750771 0
M  V30 3304 C 321.215 1.12871 1.1732 0
M  V30 3305 O 322.404 1.39943 1.10807 0
M  V30 3306 C 319.504 2.71684 2.02586 0
M  V30 3307 C 318.677 4.00321 1.76244 0
M  V30 3308 C 317.736 4.40227 2.88248 0
M  V30 3309 O 316.762 5.07552 2.57642 0
M  V30 3310 N 317.964 4.04138 4.16717 0
M  V30 3311 H 320.729 2.98772 0.235685 0
M  V30 3312 H 318.29 1.6189 -0.0182594 0
M  V30 3313 H 320.282 2.95363 2.76664 0
M  V30 3314 H 318.852 1.93893 2.45202 0
M  V30 3315 H 318.072 3.84723 0.85919 0
M  V30 3316 H 319.36 4.84279 1.56048 0
M  V30 3317 H 318.758 3.49993 4.44434 0
M  V30 3318 H 317.315 4.32756 4.87407 0
M  V30 3319 N 320.748 -0.0735177 1.57428 0
M  V30 3320 C 321.678 -1.0879 2.06608 0
M  V30 3321 C 322.659 -1.40473 0.959237 0
M  V30 3322 O 323.844 -1.5013 1.23185 0
M  V30 3323 C 320.974 -2.40183 2.50857 0
M  V30 3324 C 319.928 -2.22858 3.65402 0
M  V30 3325 C 319.254 -3.59619 3.957 0
M  V30 3326 C 320.554 -1.65123 4.95511 0
M  V30 3327 H 322.248 -0.678673 2.91607 0
M  V30 3328 H 319.794 -0.325013 1.40284 0
M  V30 3329 H 321.747 -3.11437 2.83874 0
M  V30 3330 H 320.471 -2.83083 1.62885 0
M  V30 3331 H 319.13 -1.54045 3.32664 0
M  V30 3332 H 318.778 -4.00086 3.04861 0
M  V30 3333 H 318.478 -3.48866 4.72828 0
M  V30 3334 H 320.002 -4.32306 4.31212 0
M  V30 3335 H 321.416 -2.26241 5.26771 0
M  V30 3336 H 319.813 -1.65071 5.7695 0
M  V30 3337 H 320.883 -0.612559 4.81015 0
M  V30 3338 N 322.226 -1.5378 -0.344866 0
M  V30 3339 C 323.156 -1.84662 -1.42906 0
M  V30 3340 C 324.137 -0.701648 -1.54955 0
M  V30 3341 O 325.322 -0.953438 -1.69184 0
M  V30 3342 C 322.452 -2.05503 -2.79974 0
M  V30 3343 C 321.406 -3.21318 -2.82734 0
M  V30 3344 C 320.732 -3.2749 -4.22675 0
M  V30 3345 C 322.032 -4.59456 -2.48389 0
M  V30 3346 H 323.726 -2.75461 -1.17311 0
M  V30 3347 H 321.272 -1.32542 -0.562896 0
M  V30 3348 H 323.225 -2.25691 -3.55867 0
M  V30 3349 H 321.949 -1.11434 -3.07002 0
M  V30 3350 H 320.608 -3.00984 -2.09294 0
M  V30 3351 H 320.256 -2.31019 -4.4681 0
M  V30 3352 H 319.956 -4.05316 -4.25433 0
M  V30 3353 H 321.48 -3.49887 -5.00412 0
M  V30 3354 H 322.894 -4.79667 -3.13995 0
M  V30 3355 H 321.291 -5.39675 -2.62432 0
M  V30 3356 H 322.361 -4.63155 -1.4358 0
M  V30 3357 N 323.704 0.605807 -1.45491 0
M  V30 3358 C 324.651 1.7164 -1.54299 0
M  V30 3359 C 325.621 1.61486 -0.388761 0
M  V30 3360 O 326.806 1.81039 -0.602445 0
M  V30 3361 C 323.946 3.09953 -1.51734 0
M  V30 3362 C 323.059 3.309 -2.77721 0
M  V30 3363 C 322.194 4.59329 -2.66816 0
M  V30 3364 C 321.233 4.7354 -3.87848 0
M  V30 3365 N 320.37 5.9327 -3.75467 0
M  V30 3366 H 325.21 1.63449 -2.49176 0
M  V30 3367 H 322.747 0.796957 -1.23641 0
M  V30 3368 H 324.705 3.89977 -1.48235 0
M  V30 3369 H 323.335 3.17098 -0.604068 0
M  V30 3370 H 322.387 2.44639 -2.913 0
M  V30 3371 H 323.699 3.37274 -3.67488 0
M  V30 3372 H 322.853 5.4755 -2.61292 0
M  V30 3373 H 321.592 4.55355 -1.74651 0
M  V30 3374 H 320.597 3.83741 -3.93729 0
M  V30 3375 H 321.822 4.79309 -4.81082 0
M  V30 3376 H 319.768 5.90338 -2.86072 0
M  V30 3377 H 319.685 6.00811 -4.5887 0
M  V30 3378 H 320.953 6.83984 -3.73879 0
M  V30 3379 N 325.182 1.32811 0.848464 0
M  V30 3380 C 326.41 1.26739 1.63538 0
M  V30 3381 C 326.825 -0.163484 1.88091 0
M  V30 3382 O 326.182 -1.10258 1.45429 0
M  V30 3383 C 326.233 2.03013 2.99112 0
M  V30 3384 O 325.954 3.40518 2.75643 0
M  V30 3385 C 327.455 2.04038 3.93552 0
M  V30 3386 H 324.675 0.437024 0.509167 0
M  V30 3387 H 327.219 1.75033 1.05753 0
M  V30 3388 H 325.374 1.58426 3.53525 0
M  V30 3389 H 325.788 3.79635 3.61908 0
M  V30 3390 H 327.262 2.61877 4.85926 0
M  V30 3391 H 327.739 1.0282 4.26995 0
M  V30 3392 H 328.345 2.486 3.45077 0
M  V30 3393 N 326.66 -1.06551 1.16123 0
M  V30 3394 C 327.906 -1.79719 0.952505 0
M  V30 3395 C 328.261 -1.85396 -0.514385 0
M  V30 3396 O 327.554 -1.33263 -1.37665 0
M  V30 3397 C 327.748 -3.23911 1.51052 0
M  V30 3398 C 327.577 -3.32284 3.03013 0
M  V30 3399 C 326.347 -3.42371 3.71632 0
M  V30 3400 C 328.545 -3.22363 4.00732 0
M  V30 3401 N 326.527 -3.39732 5.11327 0
M  V30 3402 C 327.898 -3.26937 5.26794 0
M  V30 3403 C 329.953 -3.0623 3.92591 0
M  V30 3404 C 328.656 -3.17035 6.45663 0
M  V30 3405 C 330.682 -2.97665 5.11028 0
M  V30 3406 C 330.044 -3.02858 6.35969 0
M  V30 3407 H 326.143 -0.670585 0.402293 0
M  V30 3408 H 328.727 -1.27125 1.4747 0
M  V30 3409 H 326.898 -3.74907 1.01484 0
M  V30 3410 H 328.63 -3.85242 1.2398 0
M  V30 3411 H 325.385 -3.47058 3.22254 0
M  V30 3412 H 325.809 -3.41919 5.84312 0
M  V30 3413 H 330.451 -3.01063 2.96852 0
M  V30 3414 H 328.169 -3.2096 7.41627 0
M  V30 3415 H 331.755 -2.86273 5.06497 0
M  V30 3416 H 330.635 -2.96286 7.26075 0
M  V30 3417 N 328.138 -0.959301 -1.25041 0
M  V30 3418 C 329.378 -0.624343 -1.94631 0
M  V30 3419 C 329.742 0.82403 -1.73418 0
M  V30 3420 O 330.943 1.26881 -2.3697 0
M  V30 3421 C 329.214 -0.978805 -3.43736 0
M  V30 3422 S 330.773 -0.757127 -4.32219 0
M  V30 3423 H 327.591 -0.229327 -0.673001 0
M  V30 3424 H 330.193 -1.23447 -1.51595 0
M  V30 3425 H 328.897 -2.02997 -3.56679 0
M  V30 3426 H 328.428 -0.359117 -3.91757 0
M  V30 3427 H 330.443 0.369759 -4.9482 0
M  V30 3428 N 329.616 1.39756 -0.72842 0
M  V30 3429 C 330.864 2.00248 -0.272946 0
M  V30 3430 C 331.185 1.58077 1.14178 0
M  V30 3431 O 330.455 0.826014 1.77634 0
M  V30 3432 H 329.035 0.740554 -0.0979247 0
M  V30 3433 H 331.697 1.70903 -0.936912 0
M  V30 3434 H 330.793 3.10495 -0.316142 0
M  V30 3435 N 331.094 0.475555 1.50254 0
M  V30 3436 C 332.319 -0.0777042 2.07254 0
M  V30 3437 C 332.744 -1.3235 1.3366 0
M  V30 3438 O 332.102 -1.77152 0.385597 0
M  V30 3439 C 332.15 -0.340169 3.58992 0
M  V30 3440 O 331.254 -1.41982 3.87188 0
M  V30 3441 H 330.595 0.0149556 0.663832 0
M  V30 3442 H 333.125 0.667878 1.93392 0
M  V30 3443 H 333.135 -0.579332 4.03866 0
M  V30 3444 H 331.81 0.570167 4.11973 0
M  V30 3445 H 330.387 -1.16762 3.54148 0
M  V30 3446 N 332.573 -1.56217 0.208337 0
M  V30 3447 C 333.984 -1.84243 -0.301904 0
M  V30 3448 C 334.335 -1.12939 -1.60434 0
M  V30 3449 O 333.46 -0.39461 -2.12772 0
M  V30 3450 C 334.055 -3.34231 -0.554543 0
M  V30 3451 C 332.614 -3.62621 -1.00912 0
M  V30 3452 C 331.761 -2.77224 -0.064933 0
M  V30 3453 H 334.712 -1.52712 0.431833 0
M  V30 3454 H 334.733 -3.5372 -1.40223 0
M  V30 3455 H 334.245 -3.86099 0.393561 0
M  V30 3456 H 332.346 -3.16197 -1.97104 0
M  V30 3457 H 332.459 -4.7071 -0.892674 0
M  V30 3458 H 330.823 -2.48256 -0.56929 0
M  V30 3459 H 331.606 -3.31887 0.877851 0
M  V30 3460 N 334.051 0.0651679 -1.57465 0
M  V30 3461 C 335.462 0.616213 -1.76238 0
M  V30 3462 C 335.813 1.7756 -0.834689 0
M  V30 3463 O 334.938 2.1639 -0.0204156 0
M  V30 3464 C 335.533 1.12462 -3.1959 0
M  V30 3465 C 334.092 1.62147 -3.39684 0
M  V30 3466 C 333.239 0.543739 -2.71917 0
M  V30 3467 H 336.19 -0.161022 -1.57881 0
M  V30 3468 H 336.211 1.99324 -3.24114 0
M  V30 3469 H 335.723 0.280592 -3.87084 0
M  V30 3470 H 333.824 2.48854 -2.77313 0
M  V30 3471 H 333.937 1.69385 -4.48158 0
M  V30 3472 H 332.301 0.990352 -2.34657 0
M  V30 3473 H 333.084 -0.290216 -3.42071 0
M  V30 3474 N 335.529 1.53961 0.336706 0
M  V30 3475 C 336.759 1.75229 1.09446 0
M  V30 3476 C 337.167 0.494602 1.82621 0
M  V30 3477 O 336.51 -0.543764 1.75468 0
M  V30 3478 C 336.572 2.88288 2.1478 0
M  V30 3479 C 336.236 4.27656 1.6112 0
M  V30 3480 C 337.233 5.08981 1.0599 0
M  V30 3481 C 334.918 4.74161 1.6576 0
M  V30 3482 C 336.912 6.34916 0.562129 0
M  V30 3483 C 334.599 6.00067 1.15595 0
M  V30 3484 C 335.597 6.80278 0.609147 0
M  V30 3485 O 335.285 8.03818 0.114999 0
M  V30 3486 H 335.017 0.588881 0.331956 0
M  V30 3487 H 337.571 2.01614 0.392566 0
M  V30 3488 H 335.801 2.57443 2.88548 0
M  V30 3489 H 337.49 2.97461 2.76174 0
M  V30 3490 H 338.256 4.74213 1.01722 0
M  V30 3491 H 334.135 4.11781 2.07261 0
M  V30 3492 H 337.679 6.9747 0.134668 0
M  V30 3493 H 333.576 6.3433 1.19566 0
M  V30 3494 H 334.344 8.18172 0.231651 0
M  V30 3495 N 337.007 -0.598083 1.45811 0
M  V30 3496 C 337.97 -1.69018 1.54808 0
M  V30 3497 C 338.97 -1.55037 0.426652 0
M  V30 3498 O 340.16 -1.59932 0.690456 0
M  V30 3499 C 337.292 -3.0835 1.45371 0
M  V30 3500 H 338.485 -1.62403 2.52121 0
M  V30 3501 H 336.038 -0.814626 1.33392 0
M  V30 3502 H 336.773 -3.20534 0.492793 0
M  V30 3503 H 336.558 -3.19907 2.26721 0
M  V30 3504 H 338.048 -3.8788 1.54721 0
M  V30 3505 N 338.485 -1.33259 -0.841409 0
M  V30 3506 C 339.448 -1.23221 -1.9326 0
M  V30 3507 C 340.448 -0.151895 -1.60081 0
M  V30 3508 O 341.638 -0.403246 -1.69468 0
M  V30 3509 C 338.77 -0.898123 -3.28856 0
M  V30 3510 H 339.963 -2.2021 -2.03587 0
M  V30 3511 H 337.516 -1.17281 -1.03319 0
M  V30 3512 H 338.251 0.0693841 -3.24226 0
M  V30 3513 H 338.036 -1.67934 -3.54317 0
M  V30 3514 H 339.526 -0.852563 -4.08805 0
M  V30 3515 N 339.963 1.05934 -1.16686 0
M  V30 3516 C 341.374 1.60263 -0.957745 0
M  V30 3517 C 341.725 1.89789 0.49745 0
M  V30 3518 O 340.85 1.67401 1.37135 0
M  V30 3519 C 341.445 2.91172 -1.73218 0
M  V30 3520 C 340.004 3.42188 -1.56794 0
M  V30 3521 C 339.151 2.16028 -1.73859 0
M  V30 3522 H 342.102 0.888392 -1.31504 0
M  V30 3523 H 342.123 3.60744 -1.21014 0
M  V30 3524 H 341.635 2.6965 -2.79124 0
M  V30 3525 H 339.736 3.68762 -0.533437 0
M  V30 3526 H 339.849 4.17273 -2.35414 0
M  V30 3527 H 338.213 2.26426 -1.16633 0
M  V30 3528 H 338.996 1.96985 -2.81161 0
M  V30 3529 N 341.441 0.965919 1.2453 0
M  V30 3530 C 342.351 0.502154 2.29163 0
M  V30 3531 C 343.367 -0.436017 1.68448 0
M  V30 3532 O 344.543 -0.309497 1.99008 0
M  V30 3533 C 341.608 -0.201956 3.46111 0
M  V30 3534 C 340.669 0.775821 4.22232 0
M  V30 3535 C 339.902 0.105217 5.33596 0
M  V30 3536 O 340.125 -1.10683 5.59558 0
M  V30 3537 O 339.059 0.796475 5.96607 0
M  V30 3538 H 342.885 1.37194 2.70946 0
M  V30 3539 H 340.47 0.732875 1.30189 0
M  V30 3540 H 342.352 -0.597564 4.17142 0
M  V30 3541 H 341.027 -1.04673 3.06309 0
M  V30 3542 H 339.934 1.22185 3.53584 0
M  V30 3543 H 341.267 1.58896 4.65846 0
M  V30 3544 N 342.919 -1.39368 0.735821 0
M  V30 3545 C 343.849 -2.33234 0.111506 0
M  V30 3546 C 344.83 -1.53954 -0.723334 0
M  V30 3547 O 346.015 -1.82344 -0.668147 0
M  V30 3548 C 343.145 -3.38057 -0.795917 0
M  V30 3549 C 342.099 -4.2795 -0.065172 0
M  V30 3550 C 341.425 -5.23479 -1.08967 0
M  V30 3551 C 342.725 -5.10741 1.09273 0
M  V30 3552 H 344.419 -2.85692 0.895571 0
M  V30 3553 H 341.965 -1.37364 0.432109 0
M  V30 3554 H 343.918 -4.02675 -1.24221 0
M  V30 3555 H 342.642 -2.8404 -1.61211 0
M  V30 3556 H 341.301 -3.64813 0.361511 0
M  V30 3557 H 340.949 -4.65758 -1.89944 0
M  V30 3558 H 340.649 -5.84472 -0.605489 0
M  V30 3559 H 342.173 -5.90974 -1.53565 0
M  V30 3560 H 343.587 -5.68699 0.724841 0
M  V30 3561 H 341.984 -5.8088 1.50659 0
M  V30 3562 H 343.054 -4.45525 1.91404 0
M  V30 3563 N 344.397 -0.483516 -1.5 0
M  V30 3564 C 345.644 0.0671597 -2.02389 0
M  V30 3565 C 345.972 1.38597 -1.36459 0
M  V30 3566 O 345.227 1.89634 -0.483458 0
M  V30 3567 C 345.526 0.286226 -3.56252 0
M  V30 3568 C 345.192 -0.952416 -4.40726 0
M  V30 3569 C 343.854 -1.29199 -4.63531 0
M  V30 3570 C 346.206 -1.77655 -4.89988 0
M  V30 3571 C 343.534 -2.45553 -5.32842 0
M  V30 3572 C 345.886 -2.93147 -5.60578 0
M  V30 3573 C 344.55 -3.27505 -5.81633 0
M  V30 3574 H 343.82 0.0245755 -0.740592 0
M  V30 3575 H 346.467 -0.640124 -1.80485 0
M  V30 3576 H 344.772 1.07587 -3.76739 0
M  V30 3577 H 346.469 0.726473 -3.94365 0
M  V30 3578 H 343.059 -0.677881 -4.23205 0
M  V30 3579 H 347.243 -1.52737 -4.72213 0
M  V30 3580 H 342.499 -2.72431 -5.47349 0
M  V30 3581 H 346.673 -3.57344 -5.97727 0
M  V30 3582 H 344.3 -4.1777 -6.35116 0
M  V30 3583 N 345.875 1.56104 -0.216619 0
M  V30 3584 C 346.785 2.23694 0.706982 0
M  V30 3585 C 347.801 1.24295 1.21765 0
M  V30 3586 O 348.977 1.57094 1.2603 0
M  V30 3587 C 346.042 2.8998 1.90033 0
M  V30 3588 C 345.103 4.04708 1.43213 0
M  V30 3589 C 344.336 4.67824 2.56859 0
M  V30 3590 O 344.559 4.29913 3.74874 0
M  V30 3591 O 343.493 5.56905 2.28343 0
M  V30 3592 H 347.319 3.03272 0.161235 0
M  V30 3593 H 344.904 1.49394 0.0136177 0
M  V30 3594 H 346.786 3.31837 2.59735 0
M  V30 3595 H 345.461 2.13365 2.43428 0
M  V30 3596 H 344.368 3.6743 0.70327 0
M  V30 3597 H 345.701 4.83051 0.944615 0
M  V30 3598 N 347.353 -0.0568162 1.57498 0
M  V30 3599 C 348.601 -0.751617 1.87604 0
M  V30 3600 C 348.922 -1.77351 0.81066 0
M  V30 3601 O 348.192 -1.95254 -0.159018 0
M  V30 3602 H 346.772 -0.280583 0.692302 0
M  V30 3603 H 349.434 -0.0293483 1.94878 0
M  V30 3604 H 348.53 -1.25852 2.856 0
M  V30 3605 N 348.832 -1.54138 -0.328536 0
M  V30 3606 C 349.779 -1.83176 -1.40411 0
M  V30 3607 C 350.749 -0.678494 -1.5161 0
M  V30 3608 O 351.934 -0.92443 -1.6691 0
M  V30 3609 C 349.074 -2.06035 -2.76846 0
M  V30 3610 C 348.187 -3.33727 -2.74318 0
M  V30 3611 C 347.322 -3.46574 -4.02567 0
M  V30 3612 C 346.361 -4.68159 -3.94327 0
M  V30 3613 N 345.498 -4.77959 -5.14296 0
M  V30 3614 H 350.338 -2.74938 -1.14948 0
M  V30 3615 H 347.875 -1.36166 -0.556538 0
M  V30 3616 H 349.833 -2.1728 -3.56153 0
M  V30 3617 H 348.463 -1.1757 -3.00628 0
M  V30 3618 H 347.515 -3.31246 -1.8703 0
M  V30 3619 H 348.827 -4.23139 -2.64111 0
M  V30 3620 H 347.981 -3.57333 -4.90304 0
M  V30 3621 H 346.72 -2.55245 -4.15574 0
M  V30 3622 H 345.725 -4.57461 -3.04974 0
M  V30 3623 H 346.95 -5.60868 -3.82889 0
M  V30 3624 H 344.896 -3.89544 -5.27818 0
M  V30 3625 H 344.813 -5.6133 -5.06404 0
M  V30 3626 H 346.081 -4.93044 -6.03761 0
M  V30 3627 N 350.31 0.590341 -1.46126 0
M  V30 3628 C 351.22 1.72793 -1.58681 0
M  V30 3629 C 352.236 1.67516 -0.470566 0
M  V30 3630 O 353.412 1.87562 -0.733642 0
M  V30 3631 C 350.477 3.09287 -1.5666 0
M  V30 3632 C 349.538 3.25886 -2.79458 0
M  V30 3633 C 348.771 4.55869 -2.77524 0
M  V30 3634 O 348.994 5.3928 -1.85832 0
M  V30 3635 O 347.928 4.75552 -3.68964 0
M  V30 3636 H 351.754 1.65149 -2.54872 0
M  V30 3637 H 349.339 0.756486 -1.28832 0
M  V30 3638 H 351.221 3.90577 -1.58202 0
M  V30 3639 H 349.896 3.17385 -0.636271 0
M  V30 3640 H 348.803 2.44119 -2.83472 0
M  V30 3641 H 350.136 3.22675 -3.71674 0
M  V30 3642 N 351.788 1.33704 0.83433 0
M  V30 3643 C 353.018 1.28281 1.6195 0
M  V30 3644 C 353.426 -0.147603 1.88623 0
M  V30 3645 O 352.769 -1.1016 1.47005 0
M  V30 3646 C 352.831 1.99386 2.99141 0
M  V30 3647 C 352.495 3.48681 2.95416 0
M  V30 3648 C 353.492 4.438 2.70809 0
M  V30 3649 C 351.177 3.90925 3.15409 0
M  V30 3650 C 353.171 5.79138 2.66229 0
M  V30 3651 C 350.858 5.26366 3.10454 0
M  V30 3652 C 351.856 6.20284 2.85895 0
M  V30 3653 O 351.544 7.53245 2.80852 0
M  V30 3654 H 351.276 0.44315 0.510484 0
M  V30 3655 H 353.83 1.76711 1.04702 0
M  V30 3656 H 352.06 1.45554 3.58261 0
M  V30 3657 H 353.749 1.87403 3.60049 0
M  V30 3658 H 354.515 4.12485 2.5511 0
M  V30 3659 H 350.394 3.18229 3.33543 0
M  V30 3660 H 353.938 6.52416 2.4698 0
M  V30 3661 H 349.835 5.57304 3.25703 0
M  V30 3662 H 350.603 7.62846 2.96661 0
M  V30 3663 N 353.266 -1.05314 1.17247 0
M  V30 3664 C 354.543 -1.75184 0.87005 0
M  V30 3665 C 354.923 -2.01481 -0.629965 0
M  V30 3666 O 354.271 -1.64988 -1.58086 0
M  V30 3667 C 354.481 -3.04594 1.70363 0
M  V30 3668 C 355.829 -3.78567 1.92281 0
M  V30 3669 O 356.853 -3.14461 1.67311 0
M  V30 3670 O 355.712 -4.93755 2.3424 0
M  V30 3671 H 352.806 -0.761729 0.322021 0
M  V30 3672 H 355.352 -1.11493 1.27935 0
M  V30 3673 H 354.124 -2.81201 2.72106 0
M  V30 3674 H 353.747 -3.76022 1.29202 0
M  V30 3675 N 354.744 -0.972509 -1.24016 0
M  V30 3676 C 355.992 -0.635776 -1.91839 0
M  V30 3677 C 356.313 0.832312 -1.76345 0
M  V30 3678 O 355.583 1.5946 -1.13795 0
M  V30 3679 H 354.163 -0.232157 -0.710009 0
M  V30 3680 H 356.825 -1.23462 -1.50809 0
M  V30 3681 H 355.921 -0.880545 -2.99421 0
M  V30 3682 N 356.222 1.38976 -0.743202 0
M  V30 3683 C 357.633 1.83123 -0.363732 0
M  V30 3684 C 357.984 1.6205 1.10609 0
M  V30 3685 O 357.109 1.11606 1.854 0
M  V30 3686 C 357.704 3.32439 -0.653408 0
M  V30 3687 C 356.263 3.74974 -0.327338 0
M  V30 3688 C 355.41 2.61878 -0.911875 0
M  V30 3689 H 358.361 1.27852 -0.940191 0
M  V30 3690 H 358.382 3.80432 0.0720031 0
M  V30 3691 H 357.894 3.47745 -1.72323 0
M  V30 3692 H 355.995 3.65252 0.736314 0
M  V30 3693 H 356.108 4.72106 -0.815631 0
M  V30 3694 H 354.472 2.52448 -0.337944 0
M  V30 3695 H 355.255 2.79987 -1.98651 0
M  V30 3696 N 357.7 0.491464 1.49741 0
M  V30 3697 C 358.647 -0.292027 2.28945 0
M  V30 3698 C 359.617 -0.968973 1.34908 0
M  V30 3699 O 360.802 -0.97748 1.6386 0
M  V30 3700 C 357.942 -1.35617 3.17336 0
M  V30 3701 C 357.055 -0.691957 4.26422 0
M  V30 3702 C 356.19 -1.73572 5.02042 0
M  V30 3703 C 355.229 -1.05286 6.02977 0
M  V30 3704 N 354.366 -2.0404 6.71798 0
M  V30 3705 H 359.206 0.389654 2.95442 0
M  V30 3706 H 356.743 0.204003 1.45679 0
M  V30 3707 H 358.701 -1.98502 3.66951 0
M  V30 3708 H 357.331 -2.00674 2.52844 0
M  V30 3709 H 356.383 0.0499523 3.80367 0
M  V30 3710 H 357.695 -0.153946 4.98562 0
M  V30 3711 H 356.849 -2.43987 5.55478 0
M  V30 3712 H 355.588 -2.30757 4.29654 0
M  V30 3713 H 354.593 -0.334446 5.48782 0
M  V30 3714 H 355.818 -0.487636 6.77347 0
M  V30 3715 H 353.764 -2.60205 6.02187 0
M  V30 3716 H 353.681 -1.55279 7.39881 0
M  V30 3717 H 354.949 -2.73772 7.29842 0
M  V30 3718 N 359.178 -1.55987 0.224894 0
M  V30 3719 C 360.424 -1.98684 -0.406502 0
M  V30 3720 C 360.757 -1.11248 -1.59177 0
M  V30 3721 O 360.032 -0.170909 -1.93748 0
M  V30 3722 C 360.315 -3.50218 -0.837808 0
M  V30 3723 C 360.168 -4.48426 0.351332 0
M  V30 3724 C 361.487 -4.06243 -1.69278 0
M  V30 3725 H 358.606 -0.722337 -0.146283 0
M  V30 3726 H 361.248 -1.87255 0.321799 0
M  V30 3727 H 359.398 -3.60089 -1.45837 0
M  V30 3728 H 361.07 -4.50562 0.989526 0
M  V30 3729 H 359.313 -4.22159 0.998207 0
M  V30 3730 H 359.984 -5.52 0.00655905 0
M  V30 3731 H 362.46 -3.99337 -1.16914 0
M  V30 3732 H 361.336 -5.12581 -1.96346 0
M  V30 3733 H 361.597 -3.53332 -2.65723 0
M  V30 3734 N 360.656 0.0484629 -1.57525 0
M  V30 3735 C 361.933 0.777447 -1.79486 0
M  V30 3736 C 362.313 1.94597 -0.818251 0
M  V30 3737 O 361.661 2.28047 0.143767 0
M  V30 3738 C 361.871 1.22864 -3.26658 0
M  V30 3739 C 363.219 1.65251 -3.91123 0
M  V30 3740 O 364.243 1.32372 -3.3069 0
M  V30 3741 O 363.102 2.26207 -4.97486 0
M  V30 3742 H 360.196 0.374357 -0.737419 0
M  V30 3743 H 362.742 0.0267359 -1.69679 0
M  V30 3744 H 361.514 0.393589 -3.89316 0
M  V30 3745 H 361.137 2.03996 -3.41279 0
M  V30 3746 N 362.134 1.5431 0.320358 0
M  V30 3747 C 363.383 1.7188 1.05546 0
M  V30 3748 C 363.696 0.501143 1.89071 0
M  V30 3749 O 364.902 0.558258 2.65699 0
M  V30 3750 C 363.358 3.04025 1.92605 0
M  V30 3751 C 362.966 4.33207 1.14176 0
M  V30 3752 C 364.71 3.30959 2.65832 0
M  V30 3753 C 362.617 5.56412 2.00399 0
M  V30 3754 H 361.547 0.640547 0.397763 0
M  V30 3755 H 364.198 1.80802 0.313522 0
M  V30 3756 H 362.58 2.89019 2.7071 0
M  V30 3757 H 363.754 4.58989 0.40819 0
M  V30 3758 H 362.069 4.13062 0.526165 0
M  V30 3759 H 364.666 4.20203 3.30656 0
M  V30 3760 H 365.009 2.48979 3.33639 0
M  V30 3761 H 365.542 3.46847 1.94787 0
M  V30 3762 H 362.281 6.41004 1.37094 0
M  V30 3763 H 361.801 5.34844 2.7148 0
M  V30 3764 H 363.48 5.92938 2.58908 0
M  V30 3765 N 363.613 -0.582584 1.46437 0
M  V30 3766 C 364.859 -1.34064 1.52965 0
M  V30 3767 C 365.214 -1.91566 0.178968 0
M  V30 3768 O 364.507 -1.73526 -0.812365 0
M  V30 3769 C 364.701 -2.48964 2.56421 0
M  V30 3770 C 364.53 -2.02717 4.01417 0
M  V30 3771 C 363.3 -1.87728 4.69134 0
M  V30 3772 C 365.498 -1.58675 4.8921 0
M  V30 3773 N 363.48 -1.35554 5.98747 0
M  V30 3774 C 364.851 -1.18093 6.08649 0
M  V30 3775 C 366.906 -1.46494 4.75861 0
M  V30 3776 C 365.609 -0.665427 7.16215 0
M  V30 3777 C 367.635 -0.96347 5.83499 0
M  V30 3778 C 366.997 -0.567432 7.02111 0
M  V30 3779 H 363.096 -0.483551 0.614575 0
M  V30 3780 H 365.68 -0.663309 1.83053 0
M  V30 3781 H 363.851 -3.1426 2.28244 0
M  V30 3782 H 365.583 -3.15913 2.52944 0
M  V30 3783 H 362.338 -2.09678 4.24655 0
M  V30 3784 H 362.762 -1.11628 6.67734 0
M  V30 3785 H 367.404 -1.75731 3.8455 0
M  V30 3786 H 365.122 -0.360639 8.07295 0
M  V30 3787 H 368.708 -0.873129 5.75211 0
M  V30 3788 H 367.588 -0.185389 7.83981 0
M  V30 3789 N 365.091 -1.34144 -0.827227 0
M  V30 3790 C 366.316 -1.29476 -1.62021 0
M  V30 3791 C 366.741 0.129292 -1.87655 0
M  V30 3792 O 366.099 1.08967 -1.449 0
M  V30 3793 C 366.147 -2.08702 -2.94068 0
M  V30 3794 O 365.251 -1.45359 -3.85933 0
M  V30 3795 H 364.592 -0.444881 -0.492927 0
M  V30 3796 H 367.122 -1.76882 -1.02829 0
M  V30 3797 H 367.132 -2.19898 -3.43669 0
M  V30 3798 H 365.807 -3.12241 -2.74734 0
M  V30 3799 H 364.384 -1.42879 -3.44442 0
M  V30 3800 N 366.569 1.04691 -1.17803 0
M  V30 3801 C 367.499 2.14494 -0.92275 0
M  V30 3802 C 368.48 1.69546 0.137179 0
M  V30 3803 O 369.665 1.94195 -0.0141108 0
M  V30 3804 C 366.795 3.44491 -0.440803 0
M  V30 3805 C 365.749 4.03031 -1.4405 0
M  V30 3806 C 365.075 5.28432 -0.81631 0
M  V30 3807 C 366.375 4.39932 -2.81527 0
M  V30 3808 H 368.069 2.36107 -1.84103 0
M  V30 3809 H 365.615 1.1347 -0.886599 0
M  V30 3810 H 367.568 4.2066 -0.249602 0
M  V30 3811 H 366.292 3.22546 0.513025 0
M  V30 3812 H 364.951 3.28937 -1.61853 0
M  V30 3813 H 364.599 5.02792 0.144511 0
M  V30 3814 H 364.299 5.68559 -1.48371 0
M  V30 3815 H 365.823 6.07284 -0.635496 0
M  V30 3816 H 367.237 5.07113 -2.67412 0
M  V30 3817 H 365.634 4.9109 -3.44892 0
M  V30 3818 H 366.704 3.50045 -3.35554 0
M  V30 3819 N 368.047 0.979072 1.23499 0
M  V30 3820 C 369.295 0.645941 1.91499 0
M  V30 3821 C 369.616 -0.822948 1.76784 0
M  V30 3822 O 368.886 -1.58854 1.14639 0
M  V30 3823 H 367.466 0.235919 0.708767 0
M  V30 3824 H 370.128 1.2426 1.50152 0
M  V30 3825 H 369.224 0.896411 2.9895 0
M  V30 3826 N 369.525 -1.3858 0.750561 0
M  V30 3827 C 370.771 -2.00481 0.305825 0
M  V30 3828 C 371.104 -1.5944 -1.10872 0
M  V30 3829 O 370.379 -0.83052 -1.75877 0
M  V30 3830 C 370.662 -3.5758 0.425287 0
M  V30 3831 C 370.515 -4.08594 1.88072 0
M  V30 3832 C 371.834 -4.39719 -0.183122 0
M  V30 3833 H 368.953 -0.728348 0.112598 0
M  V30 3834 H 371.595 -1.64566 0.949638 0
M  V30 3835 H 369.745 -3.88306 -0.122828 0
M  V30 3836 H 371.417 -3.88523 2.48691 0
M  V30 3837 H 369.66 -3.61574 2.39681 0
M  V30 3838 H 370.331 -5.177 1.91548 0
M  V30 3839 H 372.807 -4.15128 0.284303 0
M  V30 3840 H 371.683 -5.48856 -0.0692757 0
M  V30 3841 H 371.944 -4.23434 -1.27106 0
M  V30 3842 N 371.003 -0.499398 -1.49478 0
M  V30 3843 C 372.249 0.0457576 -2.02748 0
M  V30 3844 C 372.582 1.36793 -1.37846 0
M  V30 3845 O 371.857 1.87596 -0.513601 0
M  V30 3846 C 372.14 0.199986 -3.59544 0
M  V30 3847 C 371.993 -1.1452 -4.34977 0
M  V30 3848 C 373.312 0.94137 -4.29914 0
M  V30 3849 H 370.431 0.0151552 -0.736844 0
M  V30 3850 H 373.073 -0.650498 -1.78518 0
M  V30 3851 H 371.223 0.793007 -3.8032 0
M  V30 3852 H 372.895 -1.77697 -4.25701 0
M  V30 3853 H 371.138 -1.73488 -3.97598 0
M  V30 3854 H 371.809 -0.990607 -5.43039 0
M  V30 3855 H 374.285 0.43844 -4.13784 0
M  V30 3856 H 373.161 1.01812 -5.39375 0
M  V30 3857 H 373.422 1.98471 -3.95046 0
M  V30 3858 N 372.481 1.55866 -0.233164 0
M  V30 3859 C 373.411 2.23783 0.666599 0
M  V30 3860 C 374.392 1.21343 1.19205 0
M  V30 3861 O 375.577 1.4996 1.23392 0
M  V30 3862 C 372.707 2.92671 1.86978 0
M  V30 3863 C 371.661 4.01682 1.47768 0
M  V30 3864 C 370.987 4.57926 2.76058 0
M  V30 3865 C 372.287 5.18126 0.658993 0
M  V30 3866 H 373.981 2.99232 0.100306 0
M  V30 3867 H 371.527 1.43924 0.046804 0
M  V30 3868 H 373.48 3.3888 2.50476 0
M  V30 3869 H 372.204 2.14688 2.46123 0
M  V30 3870 H 370.863 3.56222 0.866106 0
M  V30 3871 H 370.511 3.76659 3.33372 0
M  V30 3872 H 370.211 5.31505 2.50552 0
M  V30 3873 H 371.735 5.06859 3.40479 0
M  V30 3874 H 373.149 5.60644 1.19795 0
M  V30 3875 H 371.546 5.98009 0.500552 0
M  V30 3876 H 372.616 4.83763 -0.331856 0
M  V30 3877 N 373.959 -0.0401083 1.57549 0
M  V30 3878 C 375.189 -0.744115 1.92734 0
M  V30 3879 C 375.597 -1.70005 0.830348 0
M  V30 3880 O 374.94 -1.82576 -0.20286 0
M  V30 3881 C 375.002 -1.56516 3.2364 0
M  V30 3882 C 374.666 -0.7752 4.50377 0
M  V30 3883 C 375.663 -0.0803326 5.19838 0
M  V30 3884 C 373.348 -0.733002 4.96923 0
M  V30 3885 C 375.342 0.646154 6.34116 0
M  V30 3886 C 373.029 -0.00276321 6.111 0
M  V30 3887 C 374.027 0.685585 6.7955 0
M  V30 3888 O 373.715 1.40399 7.91545 0
M  V30 3889 H 373.447 -0.214861 0.640945 0
M  V30 3890 H 376.001 -0.00503675 2.05399 0
M  V30 3891 H 374.231 -2.3478 3.07271 0
M  V30 3892 H 375.92 -2.15076 3.44234 0
M  V30 3893 H 376.686 -0.104035 4.84888 0
M  V30 3894 H 372.565 -1.25827 4.43496 0
M  V30 3895 H 376.109 1.18398 6.87479 0
M  V30 3896 H 372.006 0.0229012 6.45496 0
M  V30 3897 H 372.774 1.31653 8.07843 0
M  V30 3898 N 375.437 -1.54477 -0.31217 0
M  V30 3899 C 376.683 -1.73483 -1.0503 0
M  V30 3900 C 377.016 -0.513125 -1.87298 0
M  V30 3901 O 376.291 0.489864 -1.8823 0
M  V30 3902 C 376.574 -3.01723 -1.96558 0
M  V30 3903 C 376.427 -4.3417 -1.17545 0
M  V30 3904 C 377.746 -3.25772 -2.95907 0
M  V30 3905 H 374.865 -0.631222 -0.380432 0
M  V30 3906 H 377.507 -1.87184 -0.325932 0
M  V30 3907 H 375.657 -2.90174 -2.58324 0
M  V30 3908 H 377.329 -4.5762 -0.581513 0
M  V30 3909 H 375.572 -4.31159 -0.477925 0
M  V30 3910 H 376.243 -5.20143 -1.84811 0
M  V30 3911 H 378.719 -3.36857 -2.44267 0
M  V30 3912 H 377.595 -4.16838 -3.57123 0
M  V30 3913 H 377.856 -2.43537 -3.68974 0
M  V30 3914 N 376.915 0.57481 -1.46744 0
M  V30 3915 C 377.845 1.69337 -1.60771 0
M  V30 3916 C 378.826 1.63825 -0.457736 0
M  V30 3917 O 380.011 1.8172 -0.684947 0
M  V30 3918 C 377.141 3.0798 -1.60517 0
M  V30 3919 C 376.095 3.28327 -2.74564 0
M  V30 3920 C 375.421 4.67578 -2.59373 0
M  V30 3921 C 376.721 3.15398 -4.16319 0
M  V30 3922 H 378.415 1.57853 -2.54407 0
M  V30 3923 H 375.961 0.75799 -1.22436 0
M  V30 3924 H 377.914 3.86061 -1.68923 0
M  V30 3925 H 376.638 3.20381 -0.634305 0
M  V30 3926 H 375.297 2.52649 -2.65639 0
M  V30 3927 H 374.945 4.76755 -1.60353 0
M  V30 3928 H 374.645 4.82144 -3.35873 0
M  V30 3929 H 376.169 5.47817 -2.69682 0
M  V30 3930 H 377.583 3.83315 -4.26313 0
M  V30 3931 H 375.98 3.41482 -4.93468 0
M  V30 3932 H 377.05 2.12372 -4.3592 0
M  V30 3933 N 378.394 1.34581 0.820102 0
M  V30 3934 C 379.64 1.27285 1.57881 0
M  V30 3935 C 379.973 -0.156137 1.93571 0
M  V30 3936 O 379.248 -1.10222 1.60254 0
M  V30 3937 C 379.531 2.16639 2.87645 0
M  V30 3938 C 379.384 3.68088 2.58517 0
M  V30 3939 C 380.703 2.05378 3.8924 0
M  V30 3940 H 377.822 0.463714 0.572833 0
M  V30 3941 H 380.464 1.64859 0.944539 0
M  V30 3942 H 378.614 1.84725 3.41773 0
M  V30 3943 H 380.286 4.10382 2.10676 0
M  V30 3944 H 378.529 3.89038 1.91917 0
M  V30 3945 H 379.2 4.2598 3.51063 0
M  V30 3946 H 381.676 2.33404 3.44473 0
M  V30 3947 H 380.552 2.7012 4.77835 0
M  V30 3948 H 380.813 1.0316 4.29896 0
M  V30 3949 N 379.872 -1.04064 1.18357 0
M  V30 3950 C 381.112 -1.78829 0.989921 0
M  V30 3951 C 381.476 -1.86106 -0.472095 0
M  V30 3952 O 382.677 -2.57076 -0.785187 0
M  V30 3953 C 380.948 -3.1823 1.6268 0
M  V30 3954 S 382.507 -4.09332 1.58091 0
M  V30 3955 H 379.325 -0.615754 0.355482 0
M  V30 3956 H 381.927 -1.24778 1.50501 0
M  V30 3957 H 380.631 -3.10543 2.68311 0
M  V30 3958 H 380.162 -3.77357 1.112 0
M  V30 3959 H 382.177 -4.92598 0.596817 0
M  V30 3960 N 381.35 -0.985608 -1.22978 0
M  V30 3961 C 382.598 -0.656087 -1.91154 0
M  V30 3962 C 382.919 0.813561 -1.77218 0
M  V30 3963 O 382.189 1.58244 -1.1548 0
M  V30 3964 H 380.769 -0.239674 -0.707506 0
M  V30 3965 H 383.431 -1.25054 -1.49491 0
M  V30 3966 H 382.527 -0.912253 -2.9847 0
M  V30 3967 N 382.828 1.3818 -0.7579 0
M  V30 3968 C 383.791 2.28764 -0.141286 0
M  V30 3969 C 384.791 1.47388 0.642907 0
M  V30 3970 O 385.981 1.67781 0.468536 0
M  V30 3971 C 383.113 3.31184 0.808069 0
M  V30 3972 H 384.306 2.848 -0.939633 0
M  V30 3973 H 381.859 1.47212 -0.525191 0
M  V30 3974 H 382.594 2.80247 1.63193 0
M  V30 3975 H 382.379 3.91314 0.248104 0
M  V30 3976 H 383.869 3.98909 1.23536 0
M  V30 3977 N 384.306 0.507319 1.49211 0
M  V30 3978 C 385.236 -0.256939 2.32082 0
M  V30 3979 C 386.217 -0.956609 1.40652 0
M  V30 3980 O 387.402 -0.946788 1.69557 0
M  V30 3981 C 384.532 -1.31802 3.21318 0
M  V30 3982 C 383.486 -0.737855 4.21592 0
M  V30 3983 C 382.812 -1.89992 4.99807 0
M  V30 3984 C 384.112 0.275325 5.21574 0
M  V30 3985 H 385.806 0.434798 2.96226 0
M  V30 3986 H 383.352 0.210546 1.42452 0
M  V30 3987 H 385.305 -1.86045 3.78107 0
M  V30 3988 H 384.029 -2.03903 2.5513 0
M  V30 3989 H 382.688 -0.217126 3.65956 0
M  V30 3990 H 382.336 -2.60877 4.30061 0
M  V30 3991 H 382.036 -1.51777 5.6766 0
M  V30 3992 H 383.56 -2.44657 5.59442 0
M  V30 3993 H 384.974 -0.179193 5.7302 0
M  V30 3994 H 383.371 0.573649 5.97352 0
M  V30 3995 H 384.441 1.18903 4.70096 0
M  V30 3996 N 385.784 -1.5574 0.241426 0
M  V30 3997 C 387.195 -1.84842 -0.262755 0
M  V30 3998 C 387.546 -1.16317 -1.58003 0
M  V30 3999 O 386.671 -0.439653 -2.11887 0
M  V30 4000 C 387.266 -3.35332 -0.483523 0
M  V30 4001 C 385.825 -3.6468 -0.931977 0
M  V30 4002 C 384.972 -2.77299 -0.0061151 0
M  V30 4003 H 387.923 -1.51761 0.464129 0
M  V30 4004 H 387.944 -3.56615 -1.32688 0
M  V30 4005 H 387.456 -3.85178 0.47537 0
M  V30 4006 H 385.557 -3.20307 -1.90353 0
M  V30 4007 H 385.67 -4.72498 -0.792628 0
M  V30 4008 H 384.034 -2.49408 -0.516503 0
M  V30 4009 H 384.817 -3.2995 0.948052 0
M  V30 4010 N 387.262 0.0317525 -1.57568 0
M  V30 4011 C 388.509 0.723104 -1.89149 0
M  V30 4012 C 388.837 1.75504 -0.838377 0
M  V30 4013 O 388.092 1.95037 0.160982 0
M  V30 4014 C 388.391 1.43167 -3.27472 0
M  V30 4015 C 388.057 0.535972 -4.47703 0
M  V30 4016 C 386.719 0.289262 -4.8033 0
M  V30 4017 C 389.071 -0.0826125 -5.21135 0
M  V30 4018 C 386.399 -0.584853 -5.83778 0
M  V30 4019 C 388.751 -0.944414 -6.25511 0
M  V30 4020 C 387.415 -1.20061 -6.56614 0
M  V30 4021 H 386.685 0.264602 -0.692146 0
M  V30 4022 H 389.332 -0.0169496 -1.91492 0
M  V30 4023 H 387.637 2.24497 -3.21105 0
M  V30 4024 H 389.334 1.97209 -3.49155 0
M  V30 4025 H 385.924 0.738414 -4.22191 0
M  V30 4026 H 390.108 0.0950302 -4.96209 0
M  V30 4027 H 385.364 -0.79168 -6.06253 0
M  V30 4028 H 389.538 -1.43026 -6.81554 0
M  V30 4029 H 387.165 -1.87967 -7.36595 0
M  V30 4030 N 388.74 1.54641 0.303973 0
M  V30 4031 C 390.017 1.64455 1.05896 0
M  V30 4032 C 390.397 0.490923 2.05312 0
M  V30 4033 O 389.745 -0.512685 2.22674 0
M  V30 4034 C 389.955 3.02331 1.74347 0
M  V30 4035 C 391.303 3.59045 2.26653 0
M  V30 4036 O 392.327 3.04764 1.84384 0
M  V30 4037 O 391.186 4.54081 3.04093 0
M  V30 4038 H 388.28 0.666729 0.489287 0
M  V30 4039 H 390.826 1.66986 0.302298 0
M  V30 4040 H 389.598 3.77734 1.02142 0
M  V30 4041 H 389.221 3.03565 2.56777 0
M  V30 4042 N 390.218 -0.567019 1.47046 0
M  V30 4043 C 391.466 -1.322 1.52864 0
M  V30 4044 C 391.787 -1.94088 0.188388 0
M  V30 4045 O 391.057 -1.7941 -0.786693 0
M  V30 4046 H 389.637 -0.490894 0.563056 0
M  V30 4047 H 392.299 -0.662879 1.83281 0
M  V30 4048 H 391.395 -2.12062 2.2899 0
M  V30 4049 N 391.696 -1.35014 -0.812953 0
M  V30 4050 C 392.921 -1.31187 -1.60639 0
M  V30 4051 C 393.346 0.109382 -1.87782 0
M  V30 4052 O 392.704 1.07424 -1.46047 0
M  V30 4053 C 392.752 -2.11809 -2.91838 0
M  V30 4054 O 391.856 -1.49444 -3.8437 0
M  V30 4055 H 391.197 -0.450084 -0.488181 0
M  V30 4056 H 393.727 -1.77963 -1.00947 0
M  V30 4057 H 393.737 -2.23531 -3.41318 0
M  V30 4058 H 392.412 -3.15137 -2.71407 0
M  V30 4059 H 390.989 -1.46524 -3.42907 0
M  V30 4060 N 393.175 1.03435 -1.18907 0
M  V30 4061 C 394.403 1.80381 -1.01342 0
M  V30 4062 C 394.818 1.83649 0.438005 0
M  V30 4063 O 394.175 1.27655 1.30424 0
M  V30 4064 C 394.226 3.25689 -1.56873 0
M  V30 4065 O 393.947 3.22673 -2.96334 0
M  V30 4066 C 395.448 4.19255 -1.44014 0
M  V30 4067 H 392.668 0.56784 -0.35749 0
M  V30 4068 H 395.212 1.30317 -1.576 0
M  V30 4069 H 393.367 3.72962 -1.04777 0
M  V30 4070 H 393.781 4.13748 -3.22355 0
M  V30 4071 H 395.255 5.19123 -1.87657 0
M  V30 4072 H 395.732 4.37467 -0.389815 0
M  V30 4073 H 396.338 3.77851 -1.95214 0
M  V30 4074 N 394.653 0.992116 1.22453 0
M  V30 4075 C 395.583 0.561677 2.26644 0
M  V30 4076 C 396.564 -0.411055 1.65059 0
M  V30 4077 O 397.749 -0.301861 1.9184 0
M  V30 4078 C 394.879 -0.125247 3.47074 0
M  V30 4079 C 393.833 0.765948 4.21091 0
M  V30 4080 C 393.159 -0.0538484 5.34673 0
M  V30 4081 C 394.459 2.06242 4.79856 0
M  V30 4082 H 396.153 1.43259 2.62902 0
M  V30 4083 H 393.699 0.690283 1.26377 0
M  V30 4084 H 395.652 -0.437764 4.1912 0
M  V30 4085 H 394.376 -1.03069 3.0991 0
M  V30 4086 H 393.035 1.0621 3.50878 0
M  V30 4087 H 392.683 -0.960188 4.9375 0
M  V30 4088 H 392.383 0.539415 5.85119 0
M  V30 4089 H 393.907 -0.360477 6.09535 0
M  V30 4090 H 395.321 1.8139 5.43848 0
M  V30 4091 H 393.718 2.60444 5.40638 0
M  V30 4092 H 394.788 2.74167 3.99951 0
M  V30 4093 N 396.131 -1.37776 0.765217 0
M  V30 4094 C 397.063 -2.28958 0.105361 0
M  V30 4095 C 398.076 -1.48316 -0.67128 0
M  V30 4096 O 399.265 -1.71046 -0.51045 0
M  V30 4097 C 396.365 -3.27421 -0.874569 0
M  V30 4098 C 395.538 -4.37132 -0.153123 0
M  V30 4099 C 394.597 -5.1571 -1.04547 0
M  V30 4100 O 393.623 -5.66896 -0.511672 0
M  V30 4101 N 394.825 -5.29808 -2.37243 0
M  V30 4102 H 397.59 -2.86227 0.888495 0
M  V30 4103 H 395.151 -1.49682 0.617 0
M  V30 4104 H 397.143 -3.7687 -1.47483 0
M  V30 4105 H 395.713 -2.70967 -1.55871 0
M  V30 4106 H 394.933 -3.89166 0.627975 0
M  V30 4107 H 396.221 -5.07625 0.345643 0
M  V30 4108 H 395.619 -4.89793 -2.83054 0
M  V30 4109 H 394.176 -5.82589 -2.9229 0
M  V30 4110 N 397.609 -0.515225 -1.4894 0
M  V30 4111 C 398.557 0.269115 -2.31038 0
M  V30 4112 C 399.551 0.949443 -1.40292 0
M  V30 4113 O 400.757 0.87551 -1.57273 0
M  V30 4114 H 397.132 0.10565 -0.744542 0
M  V30 4115 H 399.103 -0.443096 -2.95092 0
M  V30 4116 C 397.852 1.31213 -3.21991 0
M  V30 4117 H 397.175 0.798034 -3.91754 0
M  V30 4118 H 398.615 1.83263 -3.82349 0
M  V30 4119 C 397.074 2.33791 -2.42576 0
M  V30 4120 O 397.604 3.3995 -2.14003 0
M  V30 4121 N 395.81 2.06625 -2.0434 0
M  V30 4122 H 395.357 1.20314 -2.27777 0
M  V30 4123 H 395.315 2.75483 -1.51514 0
M  V30 4124 N 399.087 1.5561 -0.249682 0
M  V30 4125 C 400.017 2.24477 0.642826 0
M  V30 4126 C 400.998 1.22601 1.17911 0
M  V30 4127 O 402.183 1.5126 1.21795 0
M  V30 4128 C 399.313 2.94638 1.83863 0
M  V30 4129 C 398.267 4.03227 1.435 0
M  V30 4130 C 397.593 4.60828 2.71186 0
M  V30 4131 C 398.893 5.18796 0.604002 0
M  V30 4132 H 400.587 2.99321 0.0685625 0
M  V30 4133 H 398.133 1.43965 0.0315363 0
M  V30 4134 H 400.086 3.41517 2.46868 0
M  V30 4135 H 398.81 2.17287 2.43832 0
M  V30 4136 H 397.469 3.57121 0.828275 0
M  V30 4137 H 397.117 3.80174 3.29358 0
M  V30 4138 H 396.817 5.34132 2.44901 0
M  V30 4139 H 398.341 5.10442 3.35084 0
M  V30 4140 H 399.755 5.61883 1.13842 0
M  V30 4141 H 398.152 5.98506 0.437097 0
M  V30 4142 H 399.222 4.83384 -0.383147 0
M  V30 4143 N 400.565 -0.0233959 1.57583 0
M  V30 4144 C 401.981 -0.379134 1.55031 0
M  V30 4145 C 402.181 -1.76255 0.976548 0
M  V30 4146 O 401.237 -2.45266 0.600078 0
M  V30 4147 C 402.55 -0.275792 2.99433 0
M  V30 4148 C 404.098 -0.352458 3.11009 0
M  V30 4149 C 404.573 -0.278501 4.57152 0
M  V30 4150 N 406.064 -0.337123 4.61972 0
M  V30 4151 C 406.799 -0.302876 5.726 0
M  V30 4152 N 406.295 -0.220589 6.92449 0
M  V30 4153 N 408.088 -0.353023 5.6099 0
M  V30 4154 H 400.239 0.881869 1.93227 0
M  V30 4155 H 402.502 0.335867 0.886509 0
M  V30 4156 H 402.208 0.675108 3.4516 0
M  V30 4157 H 402.082 -1.06721 3.61788 0
M  V30 4158 H 404.469 -1.29379 2.65226 0
M  V30 4159 H 404.55 0.468409 2.51475 0
M  V30 4160 H 404.194 0.659189 5.03604 0
M  V30 4161 H 404.124 -1.11755 5.14605 0
M  V30 4162 H 406.615 -0.403002 3.75745 0
M  V30 4163 H 406.928 -0.199713 7.72542 0
M  V30 4164 H 405.273 -0.186555 6.9475 0
M  V30 4165 H 408.464 -0.415339 4.66254 0
M  V30 4166 H 408.637 -0.322866 6.47195 0
M  V30 4167 N 402.043 -1.548 -0.295768 0
M  V30 4168 C 403.006 -1.85363 -1.34808 0
M  V30 4169 C 404.006 -0.726817 -1.43436 0
M  V30 4170 O 405.196 -0.995088 -1.42981 0
M  V30 4171 C 402.328 -2.03859 -2.73229 0
M  V30 4172 H 403.521 -2.7941 -1.08949 0
M  V30 4173 H 401.074 -1.46942 -0.532702 0
M  V30 4174 H 401.809 -1.12117 -3.04303 0
M  V30 4175 H 401.594 -2.8588 -2.68356 0
M  V30 4176 H 403.084 -2.28857 -3.49305 0
M  V30 4177 N 403.521 0.559213 -1.47345 0
M  V30 4178 C 404.937 0.884943 -1.32819 0
M  V30 4179 C 405.137 1.98988 -0.317173 0
M  V30 4180 O 404.193 2.51031 0.272011 0
M  V30 4181 C 405.506 1.28007 -2.72093 0
M  V30 4182 C 407.054 1.39161 -2.80363 0
M  V30 4183 C 407.529 1.82031 -4.20272 0
M  V30 4184 N 409.02 1.89185 -4.22804 0
M  V30 4185 C 409.755 2.2368 -5.27973 0
M  V30 4186 N 409.251 2.56802 -6.43447 0
M  V30 4187 N 411.044 2.24436 -5.15349 0
M  V30 4188 H 403.195 -0.170304 -2.11716 0
M  V30 4189 H 405.458 -0.0135247 -0.947904 0
M  V30 4190 H 405.164 0.542027 -3.47498 0
M  V30 4191 H 405.038 2.23665 -3.03733 0
M  V30 4192 H 407.425 2.12048 -2.05231 0
M  V30 4193 H 407.506 0.41696 -2.52379 0
M  V30 4194 H 407.15 1.09715 -4.95908 0
M  V30 4195 H 407.08 2.80495 -4.45679 0
M  V30 4196 H 409.571 1.65982 -3.39497 0
M  V30 4197 H 409.884 2.82144 -7.19454 0
M  V30 4198 H 408.229 2.54387 -6.46771 0
M  V30 4199 H 411.42 1.97998 -4.24163 0
M  V30 4200 H 411.593 2.50989 -5.97418 0
M  V30 4201 N 404.999 1.35443 0.805782 0
M  V30 4202 C 406.245 1.28952 1.56522 0
M  V30 4203 C 406.578 -0.135597 1.93726 0
M  V30 4204 O 405.853 -1.08516 1.61414 0
M  V30 4205 C 406.136 2.19678 2.85331 0
M  V30 4206 C 405.989 3.7081 2.54598 0
M  V30 4207 C 407.308 2.09495 3.8704 0
M  V30 4208 H 404.427 0.469764 0.567883 0
M  V30 4209 H 407.069 1.65851 0.927001 0
M  V30 4210 H 405.219 1.8834 3.39795 0
M  V30 4211 H 406.891 4.12593 2.06312 0
M  V30 4212 H 405.134 3.91051 1.8778 0
M  V30 4213 H 405.805 4.29679 3.46525 0
M  V30 4214 H 408.281 2.37045 3.41978 0
M  V30 4215 H 407.157 2.75173 4.74943 0
M  V30 4216 H 407.418 1.07714 4.28777 0
M  V30 4217 N 406.477 -1.02803 1.19454 0
M  V30 4218 C 407.407 -2.12999 0.956758 0
M  V30 4219 C 408.388 -1.69743 -0.110188 0
M  V30 4220 O 409.573 -1.94148 0.0450038 0
M  V30 4221 C 406.703 -3.43746 0.495553 0
M  V30 4222 C 405.657 -4.00688 1.50443 0
M  V30 4223 C 404.983 -5.27067 0.900275 0
M  V30 4224 C 406.283 -4.35397 2.8849 0
M  V30 4225 H 407.977 -2.33148 1.87836 0
M  V30 4226 H 405.523 -1.12045 0.904539 0
M  V30 4227 H 407.476 -4.2021 0.316493 0
M  V30 4228 H 406.2 -3.23321 -0.461646 0
M  V30 4229 H 404.859 -3.2632 1.67065 0
M  V30 4230 H 404.507 -5.02959 -0.064503 0
M  V30 4231 H 404.207 -5.66127 1.57397 0
M  V30 4232 H 405.731 -6.06196 0.73203 0
M  V30 4233 H 407.145 -5.02795 2.75446 0
M  V30 4234 H 405.542 -4.85541 3.52661 0
M  V30 4235 H 406.612 -3.44662 3.41081 0
M  V30 4236 N 407.956 -0.998596 -1.21925 0
M  V30 4237 C 409.181 -0.696015 -1.95372 0
M  V30 4238 C 409.606 0.733826 -1.73195 0
M  V30 4239 O 408.964 1.50242 -1.01474 0
M  V30 4240 C 409.012 -1.01466 -3.4603 0
M  V30 4241 O 408.116 -0.116415 -4.12236 0
M  V30 4242 H 407.457 -0.259938 -0.611006 0
M  V30 4243 H 409.987 -1.33711 -1.54863 0
M  V30 4244 H 409.997 -0.958855 -3.96573 0
M  V30 4245 H 408.672 -2.05653 -3.61497 0
M  V30 4246 H 407.249 -0.228193 -3.72201 0
M  V30 4247 N 409.434 1.37368 -0.772513 0
M  V30 4248 C 410.682 1.99279 -0.336516 0
M  V30 4249 C 411.003 1.6163 1.09091 0
M  V30 4250 O 410.273 0.882109 1.74916 0
M  V30 4251 H 408.853 0.737063 -0.121435 0
M  V30 4252 H 411.515 1.67836 -0.990809 0
M  V30 4253 H 410.611 3.09332 -0.414763 0
M  V30 4254 N 410.912 0.523116 1.48665 0
M  V30 4255 C 411.859 -0.243398 2.29513 0
M  V30 4256 C 412.829 -0.940139 1.36933 0
M  V30 4257 O 414.014 -0.942503 1.65896 0
M  V30 4258 C 411.154 -1.28855 3.20141 0
M  V30 4259 C 410.267 -0.60135 4.27794 0
M  V30 4260 C 409.402 -1.62884 5.05611 0
M  V30 4261 C 408.441 -0.924726 6.05075 0
M  V30 4262 N 407.578 -1.89744 6.75975 0
M  V30 4263 H 412.418 0.452234 2.94549 0
M  V30 4264 H 409.955 0.234858 1.45213 0
M  V30 4265 H 411.913 -1.90674 3.71079 0
M  V30 4266 H 410.543 -1.95266 2.57043 0
M  V30 4267 H 409.595 0.130623 3.80176 0
M  V30 4268 H 410.907 -0.0481585 4.98777 0
M  V30 4269 H 410.061 -2.32149 5.60528 0
M  V30 4270 H 408.8 -2.21592 4.34452 0
M  V30 4271 H 407.805 -0.217966 5.49368 0
M  V30 4272 H 409.03 -0.343851 6.78229 0
M  V30 4273 H 406.976 -2.47373 6.07571 0
M  V30 4274 H 406.893 -1.3955 7.43009 0
M  V30 4275 H 408.161 -2.58229 7.35485 0
M  V30 4276 N 412.39 -1.55475 0.257931 0
M  V30 4277 C 413.637 -1.99207 -0.363728 0
M  V30 4278 C 413.965 -1.1462 -1.57139 0
M  V30 4279 O 413.22 -0.199653 -1.94679 0
M  V30 4280 C 413.519 -3.48183 -0.806433 0
M  V30 4281 C 413.185 -4.49936 0.294684 0
M  V30 4282 C 411.847 -4.77481 0.597076 0
M  V30 4283 C 414.199 -5.10769 1.03751 0
M  V30 4284 C 411.527 -5.63132 1.64618 0
M  V30 4285 C 413.879 -5.97558 2.07622 0
M  V30 4286 C 412.543 -6.23432 2.38514 0
M  V30 4287 H 411.813 -0.728949 -0.133097 0
M  V30 4288 H 414.46 -1.8793 0.368059 0
M  V30 4289 H 412.765 -3.56848 -1.61761 0
M  V30 4290 H 414.462 -3.79415 -1.29789 0
M  V30 4291 H 411.052 -4.28572 0.0488649 0
M  V30 4292 H 415.236 -4.89527 0.817149 0
M  V30 4293 H 410.492 -5.8143 1.89074 0
M  V30 4294 H 414.666 -6.43735 2.65666 0
M  V30 4295 H 412.293 -6.89594 3.19943 0
M  V30 4296 N 413.868 0.0150385 -1.57593 0
M  V30 4297 C 415.284 0.370907 -1.5523 0
M  V30 4298 C 415.484 1.75735 -0.985882 0
M  V30 4299 O 414.54 2.44944 -0.613077 0
M  V30 4300 C 415.853 0.259908 -2.99575 0
M  V30 4301 C 417.401 0.335959 -3.11192 0
M  V30 4302 C 417.876 0.254253 -4.57294 0
M  V30 4303 N 419.367 0.312618 -4.62144 0
M  V30 4304 C 420.102 0.272505 -5.72752 0
M  V30 4305 N 419.598 0.183864 -6.92556 0
M  V30 4306 N 421.391 0.323267 -5.6117 0
M  V30 4307 H 413.542 -0.892104 -1.92757 0
M  V30 4308 H 415.805 -0.340563 -0.884715 0
M  V30 4309 H 415.511 -0.693403 -3.44797 0
M  V30 4310 H 415.385 1.048 -3.62349 0
M  V30 4311 H 417.772 1.27971 -2.65909 0
M  V30 4312 H 417.853 -0.481739 -2.51223 0
M  V30 4313 H 417.497 -0.685887 -5.03247 0
M  V30 4314 H 417.427 1.09024 -5.15191 0
M  V30 4315 H 419.918 0.38307 -3.75953 0
M  V30 4316 H 420.231 0.15874 -7.72637 0
M  V30 4317 H 418.576 0.149708 -6.94839 0
M  V30 4318 H 421.767 0.390607 -4.66467 0
M  V30 4319 H 421.94 0.288539 -6.47357 0
M  V30 4320 N 415.346 1.54954 0.287554 0
M  V30 4321 C 416.595 1.74081 1.01877 0
M  V30 4322 C 416.908 0.541135 1.87966 0
M  V30 4323 O 418.114 0.614491 2.64455 0
M  V30 4324 C 416.57 3.08042 1.86113 0
M  V30 4325 C 416.178 4.35531 1.04961 0
M  V30 4326 C 417.922 3.36523 2.58752 0
M  V30 4327 C 415.829 5.60538 1.88551 0
M  V30 4328 H 414.759 0.64884 0.384087 0
M  V30 4329 H 417.41 1.81426 0.275101 0
M  V30 4330 H 415.792 2.94696 2.64519 0
M  V30 4331 H 416.966 4.59751 0.31074 0
M  V30 4332 H 415.281 4.14085 0.43843 0
M  V30 4333 H 417.878 4.27122 3.21668 0
M  V30 4334 H 418.221 2.56 3.28283 0
M  V30 4335 H 418.754 3.50901 1.87386 0
M  V30 4336 H 415.493 6.43767 1.23466 0
M  V30 4337 H 415.013 5.40483 2.60074 0
M  V30 4338 H 416.692 5.98297 2.46273 0
M  V30 4339 N 416.824 -0.551391 1.4764 0
M  V30 4340 C 418.235 -1.13349 1.48354 0
M  V30 4341 C 418.586 -1.94709 0.241432 0
M  V30 4342 O 417.711 -2.06306 -0.653205 0
M  V30 4343 C 418.306 -2.0623 2.68802 0
M  V30 4344 C 416.865 -2.597 2.72457 0
M  V30 4345 C 416.012 -1.36201 2.41546 0
M  V30 4346 H 418.963 -0.337698 1.55065 0
M  V30 4347 H 418.984 -2.90196 2.46103 0
M  V30 4348 H 418.496 -1.46987 3.59188 0
M  V30 4349 H 416.597 -3.22724 1.86225 0
M  V30 4350 H 416.71 -3.00296 3.73308 0
M  V30 4351 H 415.074 -1.67068 1.9225 0
M  V30 4352 H 415.857 -0.787425 3.34147 0
M  V30 4353 N 418.302 -1.35869 -0.798587 0
M  V30 4354 C 419.549 -1.29588 -1.55606 0
M  V30 4355 C 419.877 0.127456 -1.94082 0
M  V30 4356 O 419.132 1.09461 -1.62225 0
M  V30 4357 C 419.431 -2.1556 -2.85077 0
M  V30 4358 C 419.097 -3.6424 -2.65781 0
M  V30 4359 C 417.759 -4.04766 -2.60227 0
M  V30 4360 C 420.111 -4.58547 -2.47758 0
M  V30 4361 C 417.439 -5.37753 -2.34603 0
M  V30 4362 C 419.791 -5.91742 -2.23662 0
M  V30 4363 C 418.455 -6.31402 -2.16534 0
M  V30 4364 H 417.725 -0.474197 -0.569402 0
M  V30 4365 H 420.372 -1.67839 -0.922086 0
M  V30 4366 H 418.677 -1.70216 -3.52893 0
M  V30 4367 H 420.374 -2.08031 -3.42818 0
M  V30 4368 H 416.964 -3.32086 -2.70956 0
M  V30 4369 H 421.148 -4.28117 -2.51056 0
M  V30 4370 H 416.404 -5.67474 -2.2756 0
M  V30 4371 H 420.578 -6.6439 -2.08708 0
M  V30 4372 H 418.205 -7.34381 -1.96441 0
M  V30 4373 N 419.78 1.02168 -1.19998 0
M  V30 4374 C 421.027 1.75685 -1.00702 0
M  V30 4375 C 421.355 1.88947 0.461426 0
M  V30 4376 O 420.61 1.40832 1.35885 0
M  V30 4377 C 420.909 3.18081 -1.62969 0
M  V30 4378 C 420.575 3.24809 -3.12746 0
M  V30 4379 C 419.237 3.26352 -3.53621 0
M  V30 4380 C 421.589 3.23379 -4.08749 0
M  V30 4381 C 418.917 3.2413 -4.89036 0
M  V30 4382 C 421.269 3.22698 -5.44104 0
M  V30 4383 C 419.933 3.22542 -5.84399 0
M  V30 4384 H 419.203 0.642877 -0.368496 0
M  V30 4385 H 421.85 1.19865 -1.49348 0
M  V30 4386 H 420.155 3.77027 -1.06573 0
M  V30 4387 H 421.852 3.73648 -1.45561 0
M  V30 4388 H 418.442 3.2434 -2.80181 0
M  V30 4389 H 422.626 3.21361 -3.78207 0
M  V30 4390 H 417.882 3.22338 -5.19527 0
M  V30 4391 H 422.056 3.20543 -6.18244 0
M  V30 4392 H 419.683 3.20575 -6.89301 0
M  V30 4393 N 421.258 1.00505 1.21394 0
M  V30 4394 C 422.191 0.51032 2.22421 0
M  V30 4395 C 423.169 -0.436 1.56645 0
M  V30 4396 O 424.353 -0.358709 1.85055 0
M  V30 4397 C 421.48 -0.258733 3.3771 0
M  V30 4398 C 420.526 0.635395 4.2174 0
M  V30 4399 S 421.359 2.09783 4.92698 0
M  V30 4400 C 422.515 1.33862 6.11418 0
M  V30 4401 H 422.748 1.36637 2.64041 0
M  V30 4402 H 420.281 0.812991 1.31262 0
M  V30 4403 H 422.239 -0.696372 4.0455 0
M  V30 4404 H 420.9 -1.0902 2.94573 0
M  V30 4405 H 420.093 0.0430189 5.03982 0
M  V30 4406 H 419.695 1.01031 3.60095 0
M  V30 4407 H 421.987 0.612541 6.74725 0
M  V30 4408 H 422.93 2.13675 6.75092 0
M  V30 4409 H 423.338 0.846568 5.58116 0
M  V30 4410 N 422.737 -1.36956 0.779787 0
M  V30 4411 C 423.962 -2.04283 0.358224 0
M  V30 4412 C 424.387 -1.58422 -1.01411 0
M  V30 4413 O 423.745 -0.748179 -1.65142 0
M  V30 4414 C 423.793 -3.58152 0.419479 0
M  V30 4415 O 422.897 -4.08342 -0.577142 0
M  V30 4416 H 422.238 -0.645967 0.153698 0
M  V30 4417 H 424.768 -1.75108 1.05822 0
M  V30 4418 H 424.778 -4.07041 0.279636 0
M  V30 4419 H 423.453 -3.90886 1.42061 0
M  V30 4420 H 422.03 -3.70751 -0.399755 0
M  V30 4421 N 424.215 -0.530993 -1.48385 0
M  V30 4422 C 425.443 -0.00134122 -2.069 0
M  V30 4423 C 425.858 1.2805 -1.3874 0
M  V30 4424 O 425.215 1.76204 -0.475244 0
M  V30 4425 C 425.266 0.225256 -3.60798 0
M  V30 4426 O 424.987 -1.0058 -4.26398 0
M  V30 4427 C 426.488 0.795172 -4.3611 0
M  V30 4428 H 423.708 -0.0339704 -0.67014 0
M  V30 4429 H 426.252 -0.736926 -1.90761 0
M  V30 4430 H 424.407 0.910891 -3.76539 0
M  V30 4431 H 424.821 -0.787165 -5.1856 0
M  V30 4432 H 426.295 0.903143 -5.44562 0
M  V30 4433 H 426.772 1.80031 -4.00606 0
M  V30 4434 H 427.378 0.146069 -4.25049 0
M  V30 4435 N 425.693 1.55336 -0.266172 0
M  V30 4436 C 426.603 2.2583 0.635458 0
M  V30 4437 C 427.619 1.28106 1.17749 0
M  V30 4438 O 428.795 1.61024 1.20968 0
M  V30 4439 C 425.86 2.95879 1.80712 0
M  V30 4440 C 424.921 4.09059 1.30265 0
M  V30 4441 C 424.154 4.75759 2.41846 0
M  V30 4442 O 424.377 4.41622 3.61007 0
M  V30 4443 O 423.311 5.63888 2.1051 0
M  V30 4444 H 427.137 3.03631 0.0646693 0
M  V30 4445 H 424.722 1.49361 -0.0339177 0
M  V30 4446 H 426.604 3.39932 2.49047 0
M  V30 4447 H 425.279 2.21002 2.36516 0
M  V30 4448 H 424.186 3.69482 0.586019 0
M  V30 4449 H 425.519 4.85811 0.790458 0
M  V30 4450 N 427.171 -0.0066808 1.57599 0
M  V30 4451 C 428.411 -0.697501 1.92131 0
M  V30 4452 C 428.775 -1.71306 0.867071 0
M  V30 4453 O 429.976 -2.45377 1.09743 0
M  V30 4454 C 428.247 -1.32978 3.3174 0
M  V30 4455 S 429.806 -2.04665 3.88146 0
M  V30 4456 H 426.624 -0.230555 0.672581 0
M  V30 4457 H 429.226 0.0484026 1.9544 0
M  V30 4458 H 427.93 -0.57772 4.06313 0
M  V30 4459 H 427.461 -2.11376 3.31789 0
M  V30 4460 H 429.476 -3.32097 3.68682 0
M  V30 4461 N 428.649 -1.55105 -0.279332 0
M  V30 4462 C 429.559 -1.90638 -1.36727 0
M  V30 4463 C 430.575 -0.802899 -1.54368 0
M  V30 4464 O 431.751 -1.10138 -1.68616 0
M  V30 4465 C 428.816 -2.16547 -2.70755 0
M  V30 4466 C 427.877 -3.40146 -2.61915 0
M  V30 4467 C 427.11 -3.6481 -3.8955 0
M  V30 4468 O 427.333 -2.92095 -4.89935 0
M  V30 4469 O 426.267 -4.58343 -3.90135 0
M  V30 4470 H 430.093 -2.83237 -1.09591 0
M  V30 4471 H 427.678 -1.4157 -0.477306 0
M  V30 4472 H 429.56 -2.34665 -3.50014 0
M  V30 4473 H 428.235 -1.27131 -2.9769 0
M  V30 4474 H 427.142 -3.2737 -1.81052 0
M  V30 4475 H 428.475 -4.29761 -2.3993 0
M  V30 4476 N 430.127 0.543554 -1.4793 0
M  V30 4477 C 431.077 1.64527 -1.57844 0
M  V30 4478 C 432.061 1.54869 -0.436408 0
M  V30 4479 O 433.253 1.63119 -0.687101 0
M  V30 4480 C 430.382 3.03281 -1.6086 0
M  V30 4481 C 429.468 3.18093 -2.80495 0
M  V30 4482 N 429.859 3.02923 -4.05057 0
M  V30 4483 C 428.157 3.49121 -2.77543 0
M  V30 4484 C 428.858 3.20791 -4.85251 0
M  V30 4485 N 427.834 3.47749 -4.17818 0
M  V30 4486 H 431.636 1.51388 -2.5191 0
M  V30 4487 H 429.15 0.748671 -1.44113 0
M  V30 4488 H 431.147 3.82403 -1.66054 0
M  V30 4489 H 429.807 3.17521 -0.678996 0
M  V30 4490 H 430.818 2.79966 -4.35705 0
M  V30 4491 H 427.495 3.69804 -1.93781 0
M  V30 4492 H 428.885 3.13915 -5.9406 0
M  V30 4493 N 431.605 1.3629 0.791371 0
M  V30 4494 C 432.535 1.33137 1.91825 0
M  V30 4495 C 433.516 0.203168 1.68882 0
M  V30 4496 O 434.701 0.400509 1.90025 0
M  V30 4497 C 431.831 1.11793 3.28816 0
M  V30 4498 C 430.785 2.21417 3.66277 0
M  V30 4499 C 430.111 1.85218 5.01596 0
M  V30 4500 C 431.411 3.63489 3.75064 0
M  V30 4501 H 433.105 2.2743 1.9472 0
M  V30 4502 H 430.651 1.09479 0.935437 0
M  V30 4503 H 432.604 1.08222 4.07266 0
M  V30 4504 H 431.328 0.139501 3.26302 0
M  V30 4505 H 429.987 2.2411 2.90121 0
M  V30 4506 H 429.635 0.859544 4.95602 0
M  V30 4507 H 429.335 2.58611 5.27631 0
M  V30 4508 H 430.859 1.832 5.82469 0
M  V30 4509 H 432.273 3.63034 4.43711 0
M  V30 4510 H 430.67 4.35771 4.12582 0
M  V30 4511 H 431.74 3.98536 2.76219 0
M  V30 4512 N 433.083 -1.0153 1.20538 0
M  V30 4513 C 434.332 -1.74558 1.01057 0
M  V30 4514 C 434.645 -1.90168 -0.457756 0
M  V30 4515 O 435.851 -2.60301 -0.771722 0
M  V30 4516 C 434.307 -3.13963 1.75941 0
M  V30 4517 C 433.915 -3.06361 3.26875 0
M  V30 4518 C 435.659 -3.91191 1.64832 0
M  V30 4519 C 433.566 -4.40782 3.94291 0
M  V30 4520 H 432.496 -0.654417 0.374505 0
M  V30 4521 H 435.147 -1.13521 1.44171 0
M  V30 4522 H 433.529 -3.75549 1.25614 0
M  V30 4523 H 434.703 -2.54074 3.84425 0
M  V30 4524 H 433.018 -2.42625 3.38411 0
M  V30 4525 H 435.615 -4.90644 2.12539 0
M  V30 4526 H 435.958 -4.11884 0.604745 0
M  V30 4527 H 436.491 -3.36236 2.12579 0
M  V30 4528 H 433.23 -4.25292 4.98805 0
M  V30 4529 H 432.75 -4.9307 3.41529 0
M  V30 4530 H 434.429 -5.09621 3.98617 0
M  V30 4531 N 434.561 -1.01147 -1.20859 0
M  V30 4532 C 435.977 -0.725422 -1.42161 0
M  V30 4533 C 436.177 0.696919 -1.89064 0
M  V30 4534 O 435.233 1.46539 -2.05627 0
M  V30 4535 C 436.546 -1.74678 -2.44761 0
M  V30 4536 C 438.094 -1.76433 -2.58535 0
M  V30 4537 C 438.569 -2.77481 -3.64374 0
M  V30 4538 N 440.06 -2.76189 -3.71852 0
M  V30 4539 C 440.795 -3.51035 -4.53389 0
M  V30 4540 N 440.291 -4.35541 -5.38773 0
M  V30 4541 N 442.084 -3.39655 -4.47873 0
M  V30 4542 H 434.235 -1.92979 -0.887282 0
M  V30 4543 H 436.498 -0.833327 -0.451962 0
M  V30 4544 H 436.204 -2.76551 -2.17285 0
M  V30 4545 H 436.078 -1.55472 -3.43669 0
M  V30 4546 H 438.465 -0.75248 -2.85345 0
M  V30 4547 H 438.546 -1.99712 -1.5984 0
M  V30 4548 H 438.19 -3.78827 -3.38308 0
M  V30 4549 H 438.12 -2.51466 -4.6268 0
M  V30 4550 H 440.611 -2.14885 -3.10858 0
M  V30 4551 H 440.924 -4.89432 -5.98061 0
M  V30 4552 H 439.269 -4.39621 -5.38292 0
M  V30 4553 H 442.46 -2.73063 -3.80203 0
M  V30 4554 H 442.633 -3.9824 -5.11184 0
M  V30 4555 N 436.039 1.36541 -0.78704 0
M  V30 4556 C 436.989 2.27459 -0.156957 0
M  V30 4557 C 437.973 1.46843 0.657709 0
M  V30 4558 O 439.165 1.69245 0.518173 0
M  V30 4559 C 436.294 3.35893 0.709278 0
M  V30 4560 C 435.38 4.23947 -0.114049 0
M  V30 4561 N 435.771 4.92145 -1.16736 0
M  V30 4562 C 434.069 4.4587 0.107497 0
M  V30 4563 C 434.77 5.57261 -1.66837 0
M  V30 4564 N 433.746 5.3473 -0.977992 0
M  V30 4565 H 437.548 2.77669 -0.963185 0
M  V30 4566 H 435.062 1.49839 -0.62627 0
M  V30 4567 H 437.059 3.99953 1.17656 0
M  V30 4568 H 435.719 2.87238 1.51408 0
M  V30 4569 H 436.73 4.94169 -1.54976 0
M  V30 4570 H 433.407 4.08056 0.882994 0
M  V30 4571 H 434.797 6.21728 -2.54762 0
M  V30 4572 N 437.518 0.538854 1.48102 0
M  V30 4573 C 438.451 -0.266495 2.26639 0
M  V30 4574 C 439.429 -0.93687 1.32897 0
M  V30 4575 O 440.613 -0.959507 1.62252 0
M  V30 4576 C 437.74 -1.37814 3.09394 0
M  V30 4577 C 436.786 -0.818247 4.18577 0
M  V30 4578 S 437.619 0.320848 5.34538 0
M  V30 4579 C 438.775 -0.793059 6.20855 0
M  V30 4580 H 439.008 0.399994 2.94597 0
M  V30 4581 H 436.541 0.324808 1.50945 0
M  V30 4582 H 438.499 -2.01488 3.57649 0
M  V30 4583 H 437.16 -2.01639 2.40833 0
M  V30 4584 H 436.353 -1.65247 4.7614 0
M  V30 4585 H 435.955 -0.258036 3.73109 0
M  V30 4586 H 438.247 -1.68961 6.56093 0
M  V30 4587 H 439.19 -0.255204 7.0764 0
M  V30 4588 H 439.598 -1.07746 5.54122 0
M  V30 4589 N 438.996 -1.55193 0.274407 0
M  V30 4590 C 439.926 -2.25471 -0.607032 0
M  V30 4591 C 440.907 -1.24461 -1.15946 0
M  V30 4592 O 442.092 -1.53179 -1.19373 0
M  V30 4593 C 439.222 -2.97526 -1.79153 0
M  V30 4594 C 438.176 -4.05459 -1.37067 0
M  V30 4595 C 437.502 -4.65084 -2.6382 0
M  V30 4596 C 438.802 -5.19691 -0.521389 0
M  V30 4597 H 440.496 -2.99393 -0.0209343 0
M  V30 4598 H 438.042 -1.43997 -0.00862866 0
M  V30 4599 H 439.995 -3.45402 -2.41404 0
M  V30 4600 H 438.719 -2.21138 -2.40344 0
M  V30 4601 H 437.378 -3.58393 -0.771355 0
M  V30 4602 H 437.026 -3.85365 -3.23268 0
M  V30 4603 H 436.726 -5.37961 -2.36372 0
M  V30 4604 H 438.25 -5.15708 -3.26921 0
M  V30 4605 H 439.664 -5.63623 -1.04889 0
M  V30 4606 H 438.061 -5.99126 -0.341825 0
M  V30 4607 H 439.131 -4.82713 0.46 0
M  V30 4608 N 440.474 -0.00167713 -1.576 0
M  V30 4609 C 441.72 0.683832 -1.90923 0
M  V30 4610 C 442.053 1.7333 -0.875799 0
M  V30 4611 O 441.328 1.94215 0.10525 0
M  V30 4612 C 441.611 1.32543 -3.3482 0
M  V30 4613 C 441.464 0.287387 -4.48881 0
M  V30 4614 C 442.783 2.25114 -3.78169 0
M  V30 4615 H 439.902 0.247125 -0.694333 0
M  V30 4616 H 442.544 -0.0533149 -1.89925 0
M  V30 4617 H 440.694 1.95372 -3.35801 0
M  V30 4618 H 442.366 -0.341346 -4.60035 0
M  V30 4619 H 440.609 -0.39017 -4.32042 0
M  V30 4620 H 441.28 0.775393 -5.46527 0
M  V30 4621 H 443.756 1.723 -3.7875 0
M  V30 4622 H 442.632 2.66971 -4.79602 0
M  V30 4623 H 442.893 3.13092 -3.12131 0
M  V30 4624 N 441.952 1.55251 0.271103 0
M  V30 4625 C 442.882 1.9127 1.33933 0
M  V30 4626 C 443.863 0.77478 1.5143 0
M  V30 4627 O 445.048 1.03307 1.64442 0
M  V30 4628 C 442.178 2.18627 2.69851 0
M  V30 4629 C 441.132 3.34442 2.67081 0
M  V30 4630 C 440.458 3.47284 4.06569 0
M  V30 4631 C 441.758 4.70784 2.26185 0
M  V30 4632 H 443.452 2.80744 1.04035 0
M  V30 4633 H 440.998 1.35077 0.499017 0
M  V30 4634 H 442.951 2.42413 3.44694 0
M  V30 4635 H 441.675 1.25955 3.01335 0
M  V30 4636 H 440.334 3.10627 1.94695 0
M  V30 4637 H 439.982 2.52074 4.35279 0
M  V30 4638 H 439.682 4.25152 4.0561 0
M  V30 4639 H 441.206 3.73363 4.83148 0
M  V30 4640 H 442.62 4.94102 2.90751 0
M  V30 4641 H 441.017 5.51582 2.36384 0
M  V30 4642 H 442.087 4.69478 1.21319 0
M  V30 4643 N 443.43 -0.535701 1.48216 0
M  V30 4644 C 444.707 -1.29683 1.46429 0
M  V30 4645 C 445.087 -2.10391 0.172852 0
M  V30 4646 O 444.435 -2.12282 -0.845488 0
M  V30 4647 C 444.645 -2.18313 2.72287 0
M  V30 4648 C 445.993 -2.78639 3.20383 0
M  V30 4649 O 447.017 -2.28604 2.73164 0
M  V30 4650 O 445.876 -3.69636 4.02531 0
M  V30 4651 H 442.97 -0.585026 0.584529 0
M  V30 4652 H 445.516 -0.552827 1.60443 0
M  V30 4653 H 444.288 -1.58421 3.57797 0
M  V30 4654 H 443.911 -2.99971 2.60966 0
M  V30 4655 N 444.908 -1.36708 -0.784132 0
M  V30 4656 C 446.319 -1.27947 -1.35965 0
M  V30 4657 C 446.67 0.0784013 -1.96043 0
M  V30 4658 O 445.795 0.979989 -1.92938 0
M  V30 4659 C 446.39 -2.31689 -2.47195 0
M  V30 4660 C 444.949 -2.26601 -3.00548 0
M  V30 4661 C 444.096 -2.16184 -1.73666 0
M  V30 4662 H 447.047 -1.4751 -0.585358 0
M  V30 4663 H 447.068 -1.95638 -3.26352 0
M  V30 4664 H 446.58 -3.30506 -2.03439 0
M  V30 4665 H 444.681 -1.31268 -3.48711 0
M  V30 4666 H 444.794 -3.19508 -3.57004 0
M  V30 4667 H 443.158 -1.62524 -1.96107 0
M  V30 4668 H 443.941 -3.16896 -1.32031 0
M  V30 4669 N 446.386 1.0089 -1.21074 0
M  V30 4670 C 447.334 2.11707 -0.963476 0
M  V30 4671 C 448.328 1.69172 0.0879032 0
M  V30 4672 O 449.534 1.79889 -0.0631415 0
M  V30 4673 H 445.909 0.692026 -0.294287 0
M  V30 4674 H 447.88 2.29743 -1.90422 0
M  V30 4675 C 446.629 3.43473 -0.540509 0
M  V30 4676 H 445.952 3.76634 -1.34114 0
M  V30 4677 H 447.392 4.22044 -0.406777 0
M  V30 4678 C 445.851 3.2849 0.748079 0
M  V30 4679 O 446.381 3.58883 1.8046 0
M  V30 4680 N 444.587 2.81715 0.713081 0
M  V30 4681 H 444.134 2.5718 -0.146973 0
M  V30 4682 H 444.092 2.72071 1.57558 0
M  V30 4683 N 447.864 1.01787 1.20321 0
M  V30 4684 C 448.811 0.589197 2.23153 0
M  V30 4685 C 449.781 -0.391367 1.61423 0
M  V30 4686 O 450.966 -0.290518 1.88575 0
M  V30 4687 C 448.106 -0.0650747 3.45039 0
M  V30 4688 C 447.219 0.960207 4.21194 0
M  V30 4689 C 446.354 0.276854 5.30478 0
M  V30 4690 C 445.393 1.2888 5.98378 0
M  V30 4691 N 444.53 0.632031 6.99249 0
M  V30 4692 H 449.37 1.47071 2.59179 0
M  V30 4693 H 446.907 0.736192 1.27352 0
M  V30 4694 H 448.865 -0.461552 4.14639 0
M  V30 4695 H 447.495 -0.910233 3.09701 0
M  V30 4696 H 446.547 1.47484 3.50646 0
M  V30 4697 H 447.859 1.72977 4.67847 0
M  V30 4698 H 447.013 -0.175056 6.06447 0
M  V30 4699 H 445.752 -0.525004 4.84866 0
M  V30 4700 H 444.757 1.75109 5.21169 0
M  V30 4701 H 445.982 2.09196 6.46076 0
M  V30 4702 H 443.928 -0.149935 6.55829 0
M  V30 4703 H 443.845 1.33964 7.44036 0
M  V30 4704 H 445.113 0.203755 7.79234 0
M  V30 4705 N 449.342 -1.36122 0.79427 0
M  V30 4706 C 450.758 -1.5232 0.476525 0
M  V30 4707 C 450.958 -1.74685 -1.00436 0
M  V30 4708 O 450.014 -1.78115 -1.78973 0
M  V30 4709 C 451.327 -2.70607 1.31119 0
M  V30 4710 C 452.875 -2.8448 1.30537 0
M  V30 4711 C 453.35 -4.05778 2.12387 0
M  V30 4712 N 454.841 -4.12933 2.09859 0
M  V30 4713 C 455.576 -5.05876 2.69957 0
M  V30 4714 N 455.072 -6.04232 3.38934 0
M  V30 4715 N 456.865 -4.98528 2.59665 0
M  V30 4716 H 449.016 -1.1986 1.75349 0
M  V30 4717 H 451.279 -0.585418 0.745647 0
M  V30 4718 H 450.985 -2.60619 2.36158 0
M  V30 4719 H 450.859 -3.64888 0.955843 0
M  V30 4720 H 453.246 -2.93927 0.262876 0
M  V30 4721 H 453.327 -1.91093 1.70051 0
M  V30 4722 H 452.971 -3.97092 3.1667 0
M  V30 4723 H 452.901 -4.98323 1.70242 0
M  V30 4724 H 455.392 -3.42515 1.59662 0
M  V30 4725 H 455.705 -6.71724 3.82109 0
M  V30 4726 H 454.05 -6.04443 3.43036 0
M  V30 4727 H 457.241 -4.20641 2.05375 0
M  V30 4728 H 457.414 -5.70773 3.06793 0
M  V30 4729 N 450.82 -0.546701 -1.47814 0
M  V30 4730 C 451.75 0.195317 -2.32682 0
M  V30 4731 C 452.731 0.918981 -1.43139 0
M  V30 4732 O 453.916 0.901501 -1.72008 0
M  V30 4733 C 451.046 1.23237 -3.247 0
M  V30 4734 C 450 0.625818 -4.234 0
M  V30 4735 C 449.326 1.76674 -5.04669 0
M  V30 4736 C 450.626 -0.413515 -5.2066 0
M  V30 4737 H 452.32 -0.513184 -2.94969 0
M  V30 4738 H 449.866 -0.248241 -1.41844 0
M  V30 4739 H 451.819 1.75955 -3.82907 0
M  V30 4740 H 450.543 1.97067 -2.60446 0
M  V30 4741 H 449.202 0.120023 -3.66403 0
M  V30 4742 H 448.85 2.49383 -4.36826 0
M  V30 4743 H 448.55 1.36673 -5.71484 0
M  V30 4744 H 450.074 2.29738 -5.65732 0
M  V30 4745 H 451.488 0.0272042 -5.73294 0
M  V30 4746 H 449.885 -0.731825 -5.95621 0
M  V30 4747 H 450.955 -1.31325 -4.66778 0
M  V30 4748 N 452.299 1.55045 -0.282633 0
M  V30 4749 C 453.524 2.04628 0.337977 0
M  V30 4750 C 453.949 1.15937 1.48123 0
M  V30 4751 O 453.307 0.159532 1.80597 0
M  V30 4752 C 453.355 3.51854 0.78936 0
M  V30 4753 O 452.459 3.66236 1.89592 0
M  V30 4754 H 451.8 0.660434 0.0687261 0
M  V30 4755 H 454.33 2.00261 -0.419124 0
M  V30 4756 H 454.34 3.93361 1.08311 0
M  V30 4757 H 453.015 4.15873 -0.0470419 0
M  V30 4758 H 451.592 3.36633 1.60413 0
M  V30 4759 N 453.777 0.010035 1.57597 0
M  V30 4760 C 454.71 -1.01234 2.04516 0
M  V30 4761 C 455.688 -1.32886 0.937024 0
M  V30 4762 O 456.872 -1.44879 1.20592 0
M  V30 4763 C 453.999 -2.33738 2.45121 0
M  V30 4764 C 453.045 -2.17679 3.66767 0
M  V30 4765 S 453.878 -1.49343 5.14254 0
M  V30 4766 C 455.034 -2.83256 5.58137 0
M  V30 4767 H 455.267 -0.612866 2.90914 0
M  V30 4768 H 452.8 -0.201124 1.53084 0
M  V30 4769 H 454.758 -3.09922 2.69182 0
M  V30 4770 H 453.419 -2.70823 1.59103 0
M  V30 4771 H 452.612 -3.1559 3.92962 0
M  V30 4772 H 452.214 -1.4964 3.42759 0
M  V30 4773 H 454.506 -3.79538 5.6121 0
M  V30 4774 H 455.449 -2.61749 6.57946 0
M  V30 4775 H 455.857 -2.87627 4.85727 0
M  V30 4776 N 455.255 -1.55392 -0.262866 0
M  V30 4777 C 456.165 -1.92077 -1.34698 0
M  V30 4778 C 457.181 -0.819227 -1.53508 0
M  V30 4779 O 458.357 -1.11921 -1.67439 0
M  V30 4780 C 455.422 -2.19407 -2.68443 0
M  V30 4781 C 454.483 -3.42905 -2.58292 0
M  V30 4782 C 453.716 -3.68921 -3.85659 0
M  V30 4783 O 453.939 -2.97275 -4.8681 0
M  V30 4784 O 452.873 -4.62455 -3.85252 0
M  V30 4785 H 456.699 -2.84384 -1.06581 0
M  V30 4786 H 454.284 -1.42069 -0.462264 0
M  V30 4787 H 456.166 -2.38365 -3.47506 0
M  V30 4788 H 454.841 -1.30282 -2.96325 0
M  V30 4789 H 453.748 -3.29272 -1.7757 0
M  V30 4790 H 455.081 -4.32282 -2.35358 0
M  V30 4791 N 456.733 0.527833 -1.48498 0
M  V30 4792 C 457.665 1.6482 -1.5927 0
M  V30 4793 C 458.678 1.55659 -0.476869 0
M  V30 4794 O 459.867 1.62081 -0.747806 0
M  V30 4795 C 456.967 3.0348 -1.50842 0
M  V30 4796 C 456.14 3.381 -2.77502 0
M  V30 4797 C 455.199 4.5605 -2.62497 0
M  V30 4798 O 454.225 4.59165 -3.36387 0
M  V30 4799 N 455.427 5.54353 -1.72257 0
M  V30 4800 H 458.192 1.56015 -2.55889 0
M  V30 4801 H 455.753 0.715152 -1.45249 0
M  V30 4802 H 457.745 3.80264 -1.38496 0
M  V30 4803 H 456.315 3.06352 -0.621887 0
M  V30 4804 H 455.535 2.50473 -3.04396 0
M  V30 4805 H 456.823 3.58017 -3.61527 0
M  V30 4806 H 456.221 5.54617 -1.11431 0
M  V30 4807 H 454.778 6.30347 -1.65849 0
M  V30 4808 N 458.211 1.37122 0.776871 0
M  V30 4809 C 459.46 1.31373 1.53049 0
M  V30 4810 C 459.773 -0.101016 1.95339 0
M  V30 4811 O 460.979 -0.280953 2.70042 0
M  V30 4812 C 459.435 2.30567 2.76346 0
M  V30 4813 C 459.043 3.77543 2.41175 0
M  V30 4814 C 460.787 2.33818 3.54301 0
M  V30 4815 C 458.694 4.68481 3.60943 0
M  V30 4816 H 457.624 0.488234 0.574581 0
M  V30 4817 H 460.275 1.62554 0.851372 0
M  V30 4818 H 458.657 1.92396 3.46121 0
M  V30 4819 H 459.831 4.24521 1.79216 0
M  V30 4820 H 458.146 3.77187 1.76405 0
M  V30 4821 H 460.743 2.98965 4.4331 0
M  V30 4822 H 461.086 1.3503 3.93793 0
M  V30 4823 H 461.619 2.7067 2.91518 0
M  V30 4824 H 458.358 5.68378 3.26537 0
M  V30 4825 H 457.878 4.2621 4.22025 0
M  V30 4826 H 459.557 4.85366 4.27819 0
M  V30 4827 N 459.689 -1.00246 1.21608 0
M  V30 4828 C 460.929 -1.75589 1.04631 0
M  V30 4829 C 461.293 -1.87513 -0.412648 0
M  V30 4830 O 462.494 -2.59444 -0.703003 0
M  V30 4831 C 460.765 -3.12893 1.72722 0
M  V30 4832 S 462.324 -4.04095 1.71034 0
M  V30 4833 H 459.142 -0.604133 0.374892 0
M  V30 4834 H 461.744 -1.19927 1.54395 0
M  V30 4835 H 460.448 -3.0185 2.78055 0
M  V30 4836 H 459.979 -3.73628 1.23149 0
M  V30 4837 H 461.994 -4.9045 0.753231 0
M  V30 4838 N 461.167 -1.02423 -1.1978 0
M  V30 4839 C 462.114 -0.601023 -2.22837 0
M  V30 4840 C 463.084 0.382801 -1.61629 0
M  V30 4841 O 464.269 0.280514 -1.88727 0
M  V30 4842 C 461.409 0.0467755 -3.45068 0
M  V30 4843 C 460.522 -0.98253 -4.20678 0
M  V30 4844 C 459.657 -0.304982 -5.30324 0
M  V30 4845 C 458.696 -1.32052 -5.97686 0
M  V30 4846 N 457.833 -0.669105 -6.98904 0
M  V30 4847 H 462.673 -1.48444 -2.58396 0
M  V30 4848 H 460.21 -0.742936 -1.2696 0
M  V30 4849 H 462.168 0.439556 -4.14878 0
M  V30 4850 H 460.798 0.893796 -3.10179 0
M  V30 4851 H 459.85 -1.49341 -3.49859 0
M  V30 4852 H 461.162 -1.75455 -4.66923 0
M  V30 4853 H 460.316 0.142893 -6.06532 0
M  V30 4854 H 459.055 0.499283 -4.85138 0
M  V30 4855 H 458.06 -1.7787 -5.20233 0
M  V30 4856 H 459.285 -2.1262 -6.44957 0
M  V30 4857 H 457.231 0.115152 -6.55899 0
M  V30 4858 H 457.148 -1.37908 -7.43315 0
M  V30 4859 H 458.416 -0.245076 -7.79115 0
M  V30 4860 N 462.645 1.35699 -0.801477 0
M  V30 4861 C 463.595 2.2728 -0.181073 0
M  V30 4862 C 464.579 1.47533 0.642098 0
M  V30 4863 O 465.771 1.69785 0.500193 0
M  V30 4864 C 462.9 3.36626 0.673612 0
M  V30 4865 C 461.986 4.23802 -0.159008 0
M  V30 4866 N 462.377 4.90879 -1.2195 0
M  V30 4867 C 460.675 4.45959 0.0602005 0
M  V30 4868 C 461.376 5.5546 -1.72738 0
M  V30 4869 N 460.352 5.33663 -1.03465 0
M  V30 4870 H 464.154 2.76632 -0.992582 0
M  V30 4871 H 461.668 1.49166 -0.642127 0
M  V30 4872 H 463.665 4.01179 1.13408 0
M  V30 4873 H 462.325 2.88828 1.48353 0
M  V30 4874 H 463.336 4.92497 -1.60209 0
M  V30 4875 H 460.013 4.08969 0.839664 0
M  V30 4876 H 461.403 6.18991 -2.61342 0
M  V30 4877 N 464.123 0.554532 1.47522 0
M  V30 4878 C 465.07 -0.19466 2.29978 0
M  V30 4879 C 466.04 -0.910882 1.38896 0
M  V30 4880 O 467.225 -0.907102 1.67858 0
M  V30 4881 C 464.365 -1.22035 3.22802 0
M  V30 4882 C 463.478 -0.510474 4.28973 0
M  V30 4883 C 462.613 -1.52123 5.08952 0
M  V30 4884 C 461.652 -0.796173 6.069 0
M  V30 4885 N 460.789 -1.75363 6.79847 0
M  V30 4886 H 465.629 0.51461 2.93523 0
M  V30 4887 H 463.166 0.265607 1.44682 0
M  V30 4888 H 465.124 -1.8276 3.7504 0
M  V30 4889 H 463.754 -1.89769 2.61127 0
M  V30 4890 H 462.806 0.211234 3.79813 0
M  V30 4891 H 464.118 0.0576503 4.98767 0
M  V30 4892 H 463.272 -2.20207 5.65326 0
M  V30 4893 H 462.011 -2.12327 4.39054 0
M  V30 4894 H 461.016 -0.101388 5.49707 0
M  V30 4895 H 462.241 -0.199911 6.78806 0
M  V30 4896 H 460.187 -2.3443 6.12682 0
M  V30 4897 H 460.104 -1.23759 7.45801 0
M  V30 4898 H 461.372 -2.4257 7.40797 0
M  V30 4899 N 465.601 -1.54893 0.290851 0
M  V30 4900 C 466.847 -2.00949 -0.314784 0
M  V30 4901 C 467.202 -1.1757 -1.52299 0
M  V30 4902 O 466.495 -0.241558 -1.90071 0
M  V30 4903 C 466.689 -3.49815 -0.732397 0
M  V30 4904 C 466.518 -4.47603 0.433799 0
M  V30 4905 C 465.288 -4.96806 0.922599 0
M  V30 4906 C 467.486 -4.98233 1.27546 0
M  V30 4907 N 465.468 -5.78426 2.05662 0
M  V30 4908 C 466.839 -5.77455 2.25712 0
M  V30 4909 C 468.894 -4.80439 1.307 0
M  V30 4910 C 467.597 -6.40778 3.26796 0
M  V30 4911 C 469.623 -5.44574 2.30637 0
M  V30 4912 C 468.985 -6.23619 3.27533 0
M  V30 4913 H 465.084 -0.777905 -0.0799257 0
M  V30 4914 H 467.668 -1.9015 0.418458 0
M  V30 4915 H 465.839 -3.60925 -1.43483 0
M  V30 4916 H 467.571 -3.82681 -1.31671 0
M  V30 4917 H 464.326 -4.70961 0.49926 0
M  V30 4918 H 464.75 -6.23923 2.62772 0
M  V30 4919 H 469.392 -4.18918 0.571622 0
M  V30 4920 H 467.11 -7.01439 4.01258 0
M  V30 4921 H 470.696 -5.32739 2.33838 0
M  V30 4922 H 469.576 -6.72367 4.03599 0
M  V30 4923 N 467.08 -0.0183926 -1.57589 0
M  V30 4924 C 468.013 1.00148 -2.0505 0
M  V30 4925 C 468.991 1.32387 -0.944058 0
M  V30 4926 O 470.175 1.44237 -1.21358 0
M  V30 4927 C 467.302 2.32435 -2.46357 0
M  V30 4928 C 466.348 2.15731 -3.67916 0
M  V30 4929 S 467.181 1.46613 -5.15039 0
M  V30 4930 C 468.337 2.80293 -5.59631 0
M  V30 4931 H 468.57 0.597429 -2.91235 0
M  V30 4932 H 466.103 0.193002 -1.53189 0
M  V30 4933 H 468.061 3.0849 -2.70822 0
M  V30 4934 H 466.722 2.69975 -1.60537 0
M  V30 4935 H 465.915 3.13502 -3.9463 0
M  V30 4936 H 465.517 1.4782 -3.43548 0
M  V30 4937 H 467.809 3.76557 -5.63215 0
M  V30 4938 H 468.752 2.58256 -6.59325 0
M  V30 4939 H 469.16 2.85047 -4.87246 0
M  V30 4940 N 468.558 1.5553 0.254621 0
M  V30 4941 C 469.505 1.89666 1.31512 0
M  V30 4942 C 470.475 0.750057 1.482 0
M  V30 4943 O 471.66 1.00301 1.62309 0
M  V30 4944 C 468.8 2.19009 2.667 0
M  V30 4945 C 467.913 3.46435 2.58083 0
M  V30 4946 C 467.048 3.65386 3.85573 0
M  V30 4947 C 466.087 4.8644 3.71541 0
M  V30 4948 N 465.224 5.01952 4.90906 0
M  V30 4949 H 470.064 2.80109 1.017 0
M  V30 4950 H 467.601 1.38666 0.490938 0
M  V30 4951 H 469.559 2.34025 3.45381 0
M  V30 4952 H 468.189 1.31779 2.94676 0
M  V30 4953 H 467.241 3.39792 1.71013 0
M  V30 4954 H 468.553 4.35258 2.43622 0
M  V30 4955 H 467.707 3.80319 4.72697 0
M  V30 4956 H 466.446 2.74781 4.02922 0
M  V30 4957 H 465.451 4.71491 2.82801 0
M  V30 4958 H 466.676 5.78497 3.55694 0
M  V30 4959 H 464.622 4.14283 5.08631 0
M  V30 4960 H 464.539 5.84851 4.79046 0
M  V30 4961 H 465.807 5.21289 5.7955 0
M  V30 4962 N 470.036 -0.519951 1.48776 0
M  V30 4963 C 470.966 -1.63253 1.66945 0
M  V30 4964 C 471.947 -1.62014 0.518224 0
M  V30 4965 O 473.132 -1.79053 0.751919 0
M  V30 4966 C 470.262 -3.0181 1.71836 0
M  V30 4967 C 469.216 -3.17911 2.8656 0
M  V30 4968 C 468.542 -4.5763 2.76548 0
M  V30 4969 C 469.842 -2.99729 4.27738 0
M  V30 4970 H 471.536 -1.48302 2.6009 0
M  V30 4971 H 469.082 -0.712026 1.25165 0
M  V30 4972 H 471.035 -3.79525 1.83135 0
M  V30 4973 H 469.759 -3.17806 0.752775 0
M  V30 4974 H 468.418 -2.42616 2.74833 0
M  V30 4975 H 468.066 -4.70476 1.77937 0
M  V30 4976 H 467.766 -4.69346 3.53536 0
M  V30 4977 H 469.29 -5.37431 2.89828 0
M  V30 4978 H 470.704 -3.67228 4.40246 0
M  V30 4979 H 469.101 -3.22932 5.05801 0
M  V30 4980 H 470.171 -1.96047 4.43502 0
M  V30 4981 N 471.514 -1.37532 -0.769588 0
M  V30 4982 C 472.762 -1.32597 -1.5252 0
M  V30 4983 C 473.083 0.0884294 -1.94799 0
M  V30 4984 O 472.353 1.03289 -1.66458 0
M  V30 4985 H 470.933 -0.487846 -0.565699 0
M  V30 4986 H 473.595 -1.72044 -0.915806 0
M  V30 4987 H 472.691 -1.96643 -2.42359 0
M  V30 4988 N 472.992 0.995999 -1.22138 0
M  V30 4989 C 474.269 1.70834 -0.952642 0
M  V30 4990 C 474.649 2.04257 0.533119 0
M  V30 4991 O 473.997 1.72343 1.50034 0
M  V30 4992 C 474.207 2.96119 -1.84701 0
M  V30 4993 C 475.555 3.68962 -2.10124 0
M  V30 4994 O 476.579 3.0612 -1.82124 0
M  V30 4995 O 475.438 4.82017 -2.57531 0
M  V30 4996 H 472.532 0.745498 -0.357997 0
M  V30 4997 H 475.078 1.05262 -1.33109 0
M  V30 4998 H 473.85 2.67898 -2.85213 0
M  V30 4999 H 473.473 3.6943 -1.46995 0
M  V30 5000 N 474.47 1.03057 1.19235 0
M  V30 5001 C 475.433 0.617418 2.20727 0
M  V30 5002 C 476.433 -0.319856 1.57587 0
M  V30 5003 O 477.623 -0.106633 1.73873 0
M  V30 5004 C 474.755 -0.096296 3.40764 0
M  V30 5005 H 475.948 1.51544 2.58794 0
M  V30 5006 H 473.501 0.821949 1.32942 0
M  V30 5007 H 474.236 -1.00859 3.08217 0
M  V30 5008 H 474.021 0.577217 3.87828 0
M  V30 5009 H 475.511 -0.372219 4.15938 0
M  V30 5010 N 475.948 -1.35272 0.808662 0
M  V30 5011 C 477.225 -1.93077 0.313181 0
M  V30 5012 C 477.605 -1.73847 -1.19752 0
M  V30 5013 O 476.953 -1.1087 -1.998 0
M  V30 5014 C 477.163 -3.41347 0.726859 0
M  V30 5015 C 478.511 -4.18493 0.717532 0
M  V30 5016 O 479.535 -3.4987 0.668535 0
M  V30 5017 O 478.394 -5.40937 0.777779 0
M  V30 5018 H 475.488 -0.822885 0.0824018 0
M  V30 5019 H 478.034 -1.44335 0.892499 0
M  V30 5020 H 476.806 -3.49082 1.76797 0
M  V30 5021 H 476.429 -3.97411 0.122461 0
M  V30 5022 N 477.426 -0.562348 -1.47226 0
M  V30 5023 C 478.837 -0.130325 -1.86245 0
M  V30 5024 C 479.188 1.30128 -1.46838 0
M  V30 5025 O 478.313 1.97974 -0.873805 0
M  V30 5026 C 478.908 -0.229738 -3.3802 0
M  V30 5027 C 477.467 0.14728 -3.76112 0
M  V30 5028 C 476.614 -0.574971 -2.71274 0
M  V30 5029 H 479.565 -0.771773 -1.3867 0
M  V30 5030 H 479.586 0.550316 -3.76499 0
M  V30 5031 H 479.098 -1.27178 -3.66671 0
M  V30 5032 H 477.199 1.19023 -3.53078 0
M  V30 5033 H 477.312 -0.214858 -4.78618 0
M  V30 5034 H 475.676 -0.0174756 -2.54694 0
M  V30 5035 H 476.459 -1.61827 -3.02766 0
M  V30 5036 N 478.904 1.54736 -0.299062 0
M  V30 5037 C 479.852 2.24897 0.593658 0
M  V30 5038 C 480.846 1.25429 1.13859 0
M  V30 5039 O 482.052 1.43286 1.08945 0
M  V30 5040 H 478.427 0.72207 0.210046 0
M  V30 5041 H 480.398 2.98393 -0.0206421 0
M  V30 5042 C 479.147 3.00159 1.75499 0
M  V30 5043 H 478.47 3.76501 1.34489 0
M  V30 5044 H 479.91 3.52535 2.35574 0
M  V30 5045 C 478.369 2.07015 2.65794 0
M  V30 5046 O 478.899 1.63692 3.66835 0
M  V30 5047 N 477.105 1.73012 2.33485 0
M  V30 5048 H 476.652 2.08439 1.51364 0
M  V30 5049 H 476.61 1.10965 2.94167 0
M  V30 5050 N 480.382 0.0267497 1.57577 0
M  V30 5051 C 481.629 -0.652404 1.91703 0
M  V30 5052 C 481.957 -1.72271 0.902936 0
M  V30 5053 O 481.212 -1.955 -0.0884843 0
M  V30 5054 C 481.511 -1.30914 3.3256 0
M  V30 5055 C 481.177 -0.369441 4.49384 0
M  V30 5056 C 479.839 -0.110791 4.81072 0
M  V30 5057 C 482.191 0.275971 5.20469 0
M  V30 5058 C 479.519 0.801116 5.81205 0
M  V30 5059 C 481.871 1.17592 6.21575 0
M  V30 5060 C 480.535 1.44348 6.51705 0
M  V30 5061 H 479.805 -0.238732 0.70149 0
M  V30 5062 H 482.452 0.0880091 1.91298 0
M  V30 5063 H 480.757 -2.12425 3.29216 0
M  V30 5064 H 482.454 -1.84115 3.56234 0
M  V30 5065 H 479.044 -0.581211 4.24641 0
M  V30 5066 H 483.228 0.0892 4.9622 0
M  V30 5067 H 478.484 1.01614 6.02897 0
M  V30 5068 H 482.658 1.68223 6.75777 0
M  V30 5069 H 480.285 2.15176 7.29111 0
M  V30 5070 N 481.861 -1.55662 -0.24637 0
M  V30 5071 C 483.138 -1.68272 -0.997198 0
M  V30 5072 C 483.518 -0.566785 -2.03349 0
M  V30 5073 O 482.866 0.429688 -2.24424 0
M  V30 5074 C 483.076 -3.08594 -1.63006 0
M  V30 5075 C 484.424 -3.6721 -2.13171 0
M  V30 5076 O 485.448 -3.11397 -1.72946 0
M  V30 5077 O 484.307 -4.65054 -2.87031 0
M  V30 5078 H 481.401 -0.684429 -0.464205 0
M  V30 5079 H 483.947 -1.67993 -0.240114 0
M  V30 5080 H 482.719 -3.81264 -0.880527 0
M  V30 5081 H 482.342 -3.12886 -2.45333 0
M  V30 5082 N 483.339 0.512053 -1.4905 0
M  V30 5083 C 484.755 0.84224 -1.35567 0
M  V30 5084 C 484.955 1.97878 -0.380319 0
M  V30 5085 O 484.011 2.51769 0.19201 0
M  V30 5086 C 485.324 1.19286 -2.76028 0
M  V30 5087 C 486.872 1.30171 -2.84648 0
M  V30 5088 C 487.347 1.68568 -4.25851 0
M  V30 5089 N 488.838 1.75638 -4.28609 0
M  V30 5090 C 489.573 2.06769 -5.34821 0
M  V30 5091 N 489.069 2.36201 -6.51292 0
M  V30 5092 N 490.862 2.07927 -5.22229 0
M  V30 5093 H 483.013 -0.237574 -2.11067 0
M  V30 5094 H 485.276 -0.0436747 -0.946993 0
M  V30 5095 H 484.982 0.431199 -3.49047 0
M  V30 5096 H 484.856 2.13889 -3.10695 0
M  V30 5097 H 487.243 2.05411 -2.11873 0
M  V30 5098 H 487.324 0.336457 -2.53578 0
M  V30 5099 H 486.968 0.938824 -4.99148 0
M  V30 5100 H 486.898 2.66174 -4.54377 0
M  V30 5101 H 489.389 1.55097 -3.44606 0
M  V30 5102 H 489.702 2.59112 -7.28066 0
M  V30 5103 H 488.047 2.33681 -6.54536 0
M  V30 5104 H 491.238 1.84403 -4.30248 0
M  V30 5105 H 491.411 2.31856 -6.05101 0
M  V30 5106 N 484.817 1.37938 0.762283 0
M  V30 5107 C 485.747 1.37176 1.88958 0
M  V30 5108 C 486.728 0.238945 1.68413 0
M  V30 5109 O 487.913 0.440726 1.89133 0
M  V30 5110 C 485.043 1.18742 3.2637 0
M  V30 5111 C 483.997 2.29136 3.61498 0
M  V30 5112 C 483.323 1.95816 4.97554 0
M  V30 5113 C 484.623 3.71363 3.6727 0
M  V30 5114 H 486.317 2.31509 1.89853 0
M  V30 5115 H 483.863 1.11438 0.912005 0
M  V30 5116 H 485.816 1.16837 4.04879 0
M  V30 5117 H 484.54 0.208683 3.25933 0
M  V30 5118 H 483.199 2.30213 2.85303 0
M  V30 5119 H 482.847 0.964475 4.93667 0
M  V30 5120 H 482.547 2.69745 5.22026 0
M  V30 5121 H 484.071 1.95513 5.78452 0
M  V30 5122 H 485.485 3.72364 4.35911 0
M  V30 5123 H 483.882 4.44425 4.03245 0
M  V30 5124 H 484.952 4.04305 2.67704 0
M  V30 5125 N 486.295 -0.989507 1.22664 0
M  V30 5126 C 487.544 -1.72375 1.04737 0
M  V30 5127 C 487.857 -1.91096 -0.417316 0
M  V30 5128 O 489.063 -2.6188 -0.716334 0
M  V30 5129 C 487.519 -3.10161 1.82561 0
M  V30 5130 C 487.127 -2.99358 3.333 0
M  V30 5131 C 488.871 -3.87607 1.73093 0
M  V30 5132 C 486.778 -4.32319 4.03552 0
M  V30 5133 H 485.708 -0.646326 0.388302 0
M  V30 5134 H 488.359 -1.10437 1.46546 0
M  V30 5135 H 486.741 -3.728 1.33552 0
M  V30 5136 H 487.915 -2.45863 3.89728 0
M  V30 5137 H 486.23 -2.35392 3.43481 0
M  V30 5138 H 488.827 -4.86025 2.22899 0
M  V30 5139 H 489.17 -4.10509 0.691976 0
M  V30 5140 H 489.703 -3.31652 2.19663 0
M  V30 5141 H 486.442 -4.14616 5.07714 0
M  V30 5142 H 485.962 -4.85714 3.51911 0
M  V30 5143 H 487.641 -5.01051 4.09337 0
M  V30 5144 N 487.773 -1.03688 -1.18687 0
M  V30 5145 C 488.736 -0.629115 -2.20397 0
M  V30 5146 C 489.736 0.311495 -1.57754 0
M  V30 5147 O 490.926 0.0974107 -1.73927 0
M  V30 5148 C 488.058 0.0782231 -3.4081 0
M  V30 5149 H 489.251 -1.52915 -2.57987 0
M  V30 5150 H 486.804 -0.828988 -1.32505 0
M  V30 5151 H 487.539 0.992233 -3.08748 0
M  V30 5152 H 487.324 -0.597776 -3.87517 0
M  V30 5153 H 488.814 0.350156 -4.16129 0
M  V30 5154 N 489.251 1.34841 -0.815825 0
M  V30 5155 C 490.161 2.33425 -0.234462 0
M  V30 5156 C 491.177 1.62295 0.627413 0
M  V30 5157 O 492.353 1.94109 0.536987 0
M  V30 5158 C 489.418 3.41471 0.599849 0
M  V30 5159 C 488.479 4.28362 -0.283596 0
M  V30 5160 C 487.712 5.31248 0.51099 0
M  V30 5161 O 487.935 5.43056 1.7449 0
M  V30 5162 O 486.869 6.01812 -0.10297 0
M  V30 5163 H 490.695 2.84962 -1.05024 0
M  V30 5164 H 488.28 1.37774 -0.577809 0
M  V30 5165 H 490.162 4.07464 1.07475 0
M  V30 5166 H 488.837 2.9219 1.39308 0
M  V30 5167 H 487.744 3.65318 -0.805836 0
M  V30 5168 H 489.077 4.81066 -1.041 0
M  V30 5169 N 490.729 0.570148 1.46925 0
M  V30 5170 C 491.969 0.0534743 2.0433 0
M  V30 5171 C 492.333 -1.27729 1.4335 0
M  V30 5172 O 493.534 -1.88244 1.91879 0
M  V30 5173 C 491.805 -0.0244296 3.57392 0
M  V30 5174 S 493.364 -0.485351 4.36108 0
M  V30 5175 H 490.182 0.0313908 0.710307 0
M  V30 5176 H 492.784 0.759808 1.80131 0
M  V30 5177 H 491.488 0.948261 3.99295 0
M  V30 5178 H 491.019 -0.753922 3.86108 0
M  V30 5179 H 493.034 -1.74258 4.64595 0
M  V30 5180 N 492.207 -1.54576 0.307264 0
M  V30 5181 C 493.139 -2.21212 -0.599807 0
M  V30 5182 C 494.152 -1.20685 -1.09266 0
M  V30 5183 O 495.341 -1.47244 -1.00903 0
M  V30 5184 C 492.441 -2.84994 -1.83389 0
M  V30 5185 C 491.614 -4.11511 -1.48248 0
M  V30 5186 C 490.673 -4.59038 -2.57237 0
M  V30 5187 O 489.699 -5.24095 -2.22065 0
M  V30 5188 N 490.901 -4.31884 -3.87887 0
M  V30 5189 H 493.666 -2.99686 -0.0293075 0
M  V30 5190 H 491.227 -1.61379 0.129738 0
M  V30 5191 H 493.219 -3.1372 -2.5566 0
M  V30 5192 H 491.789 -2.10324 -2.31263 0
M  V30 5193 H 491.009 -3.89728 -0.592122 0
M  V30 5194 H 492.297 -4.93879 -1.22316 0
M  V30 5195 H 491.695 -3.79778 -4.19268 0
M  V30 5196 H 490.252 -4.65304 -4.56438 0
M  V30 5197 N 493.685 -0.035106 -1.57561 0
M  V30 5198 C 494.617 0.973604 -2.07494 0
M  V30 5199 C 495.63 1.28504 -0.999534 0
M  V30 5200 O 496.819 1.24864 -1.27559 0
M  V30 5201 C 493.919 2.29945 -2.48955 0
M  V30 5202 C 493.092 2.1723 -3.79644 0
M  V30 5203 C 492.151 3.328 -4.07592 0
M  V30 5204 O 491.177 3.09418 -4.77754 0
M  V30 5205 N 492.379 4.56779 -3.58236 0
M  V30 5206 H 495.144 0.547525 -2.94656 0
M  V30 5207 H 492.705 0.151515 -1.61189 0
M  V30 5208 H 494.697 3.06097 -2.64739 0
M  V30 5209 H 493.267 2.64173 -1.67126 0
M  V30 5210 H 492.487 1.25768 -3.73599 0
M  V30 5211 H 493.775 2.05945 -4.65257 0
M  V30 5212 H 493.173 4.78668 -3.01485 0
M  V30 5213 H 491.73 5.30079 -3.79288 0
M  V30 5214 N 495.163 1.55791 0.238111 0
M  V30 5215 C 496.093 1.94068 1.29846 0
M  V30 5216 C 497.074 0.806726 1.49753 0
M  V30 5217 O 498.259 1.06772 1.62214 0
M  V30 5218 C 495.389 2.24302 2.65153 0
M  V30 5219 C 494.343 3.40032 2.59927 0
M  V30 5220 C 493.669 3.55829 3.99111 0
M  V30 5221 C 494.969 4.75476 2.16148 0
M  V30 5222 H 496.663 2.82887 0.980563 0
M  V30 5223 H 494.209 1.36105 0.470253 0
M  V30 5224 H 496.162 2.4967 3.39475 0
M  V30 5225 H 494.886 1.32318 2.98596 0
M  V30 5226 H 493.545 3.14687 1.88063 0
M  V30 5227 H 493.193 2.6125 4.29834 0
M  V30 5228 H 492.893 4.3366 3.96501 0
M  V30 5229 H 494.417 3.83528 4.7512 0
M  V30 5230 H 495.831 5.00158 2.80205 0
M  V30 5231 H 494.228 5.56472 2.24631 0
M  V30 5232 H 495.298 4.71946 1.11333 0
M  V30 5233 N 496.642 -0.504142 1.49319 0
M  V30 5234 C 497.589 -1.60603 1.65756 0
M  V30 5235 C 498.559 -1.58425 0.499082 0
M  V30 5236 O 499.744 -1.76459 0.725728 0
M  V30 5237 C 496.884 -2.98764 1.72726 0
M  V30 5238 C 495.997 -3.10982 2.99857 0
M  V30 5239 C 495.132 -4.39857 2.97824 0
M  V30 5240 C 494.171 -4.45697 4.19548 0
M  V30 5241 N 493.308 -5.65995 4.15444 0
M  V30 5242 H 498.148 -1.45895 2.59843 0
M  V30 5243 H 495.685 -0.709891 1.28837 0
M  V30 5244 H 497.643 -3.78839 1.74747 0
M  V30 5245 H 496.273 -3.12183 0.821075 0
M  V30 5246 H 495.325 -2.23991 3.07461 0
M  V30 5247 H 496.637 -3.11157 3.89849 0
M  V30 5248 H 495.791 -5.2825 2.98391 0
M  V30 5249 H 494.53 -4.42242 2.05604 0
M  V30 5250 H 493.535 -3.55707 4.19229 0
M  V30 5251 H 494.76 -4.4503 5.12957 0
M  V30 5252 H 492.706 -5.69229 3.26059 0
M  V30 5253 H 492.623 -5.67773 4.99169 0
M  V30 5254 H 493.891 -6.56604 4.20109 0
M  V30 5255 N 498.12 -1.38341 -0.754957 0
M  V30 5256 C 499.03 -1.3769 -1.89944 0
M  V30 5257 C 500.046 -0.274194 -1.71826 0
M  V30 5258 O 501.222 -0.512391 -1.94773 0
M  V30 5259 C 498.287 -1.19938 -3.25293 0
M  V30 5260 C 497.348 -2.40001 -3.55946 0
M  V30 5261 C 496.581 -2.23087 -4.84838 0
M  V30 5262 O 496.804 -1.22386 -5.57116 0
M  V30 5263 O 495.738 -3.11646 -5.14937 0
M  V30 5264 H 499.564 -2.3412 -1.93446 0
M  V30 5265 H 497.149 -1.19246 -0.900044 0
M  V30 5266 H 499.031 -1.12093 -4.06218 0
M  V30 5267 H 497.706 -0.265919 -3.22606 0
M  V30 5268 H 496.613 -2.53421 -2.75188 0
M  V30 5269 H 497.946 -3.31973 -3.63394 0
M  V30 5270 N 499.598 0.982988 -1.23187 0
M  V30 5271 C 500.508 2.10907 -1.02739 0
M  V30 5272 C 501.524 1.73979 0.0273188 0
M  V30 5273 O 502.7 2.00702 -0.16757 0
M  V30 5274 C 499.765 3.41142 -0.618304 0
M  V30 5275 C 498.826 3.92112 -1.74777 0
M  V30 5276 C 498.059 5.16131 -1.3581 0
M  V30 5277 O 498.282 5.6989 -0.241201 0
M  V30 5278 O 497.216 5.61103 -2.17824 0
M  V30 5279 H 501.042 2.31046 -1.97108 0
M  V30 5280 H 498.627 1.09284 -1.01869 0
M  V30 5281 H 500.509 4.19488 -0.400982 0
M  V30 5282 H 499.184 3.2234 0.296421 0
M  V30 5283 H 498.091 3.14895 -2.0197 0
M  V30 5284 H 499.424 4.15364 -2.64071 0
M  V30 5285 N 501.076 1.04316 1.18135 0
M  V30 5286 C 502.492 0.762858 1.40188 0
M  V30 5287 C 502.692 -0.646547 1.90846 0
M  V30 5288 O 501.748 -1.41036 2.0944 0
M  V30 5289 C 503.061 1.81106 2.40044 0
M  V30 5290 C 504.609 1.83226 2.53766 0
M  V30 5291 C 505.084 2.87044 3.56889 0
M  V30 5292 N 506.575 2.85951 3.64398 0
M  V30 5293 C 507.31 3.62932 4.43923 0
M  V30 5294 N 506.806 4.49672 5.27036 0
M  V30 5295 N 508.599 3.51411 4.38711 0
M  V30 5296 H 500.75 1.95264 0.835805 0
M  V30 5297 H 503.013 0.845017 0.429709 0
M  V30 5298 H 502.719 2.82214 2.09876 0
M  V30 5299 H 502.593 1.64529 3.39426 0
M  V30 5300 H 504.98 0.827869 2.8325 0
M  V30 5301 H 505.061 2.03879 1.54489 0
M  V30 5302 H 504.705 3.87663 3.28145 0
M  V30 5303 H 504.635 2.63645 4.5585 0
M  V30 5304 H 507.126 2.23051 3.05052 0
M  V30 5305 H 507.439 5.05116 5.84874 0
M  V30 5306 H 505.784 4.53738 5.26447 0
M  V30 5307 H 508.975 2.83047 3.72829 0
M  V30 5308 H 509.148 4.11654 5.00445 0
M  V30 5309 N 502.554 -1.34406 0.822964 0
M  V30 5310 C 503.486 -2.28305 0.202375 0
M  V30 5311 C 504.499 -1.5103 -0.60777 0
M  V30 5312 O 505.688 -1.73057 -0.437444 0
M  V30 5313 C 502.788 -3.30836 -0.734911 0
M  V30 5314 C 501.961 -4.37388 0.0324177 0
M  V30 5315 C 501.02 -5.1968 -0.825803 0
M  V30 5316 O 500.046 -5.68556 -0.270771 0
M  V30 5317 N 501.248 -5.39393 -2.14558 0
M  V30 5318 H 504.013 -2.82201 1.00909 0
M  V30 5319 H 501.574 -1.4693 0.67993 0
M  V30 5320 H 503.566 -3.82786 -1.31365 0
M  V30 5321 H 502.136 -2.77334 -1.44238 0
M  V30 5322 H 501.356 -3.86152 0.792469 0
M  V30 5323 H 502.644 -5.05702 0.560633 0
M  V30 5324 H 502.042 -5.01357 -2.62025 0
M  V30 5325 H 500.599 -5.94461 -2.67318 0
M  V30 5326 N 504.032 -0.577932 -1.46621 0
M  V30 5327 C 505.278 -0.0617793 -2.02706 0
M  V30 5328 C 505.611 1.29294 -1.44903 0
M  V30 5329 O 504.886 1.8461 -0.61232 0
M  V30 5330 C 505.169 0.00911824 -3.60099 0
M  V30 5331 C 505.022 -1.37416 -4.28295 0
M  V30 5332 C 506.341 0.712159 -4.343 0
M  V30 5333 H 503.46 -0.0239246 -0.736612 0
M  V30 5334 H 506.102 -0.744211 -1.74818 0
M  V30 5335 H 504.252 0.590292 -3.83989 0
M  V30 5336 H 505.924 -2.00013 -4.15683 0
M  V30 5337 H 504.167 -1.94319 -3.87843 0
M  V30 5338 H 504.838 -1.27707 -5.37024 0
M  V30 5339 H 507.314 0.218486 -4.15526 0
M  V30 5340 H 506.19 0.730782 -5.44014 0
M  V30 5341 H 506.451 1.77251 -4.05012 0
M  V30 5342 N 505.51 1.54411 -0.315457 0
M  V30 5343 C 506.787 1.92562 0.343398 0
M  V30 5344 C 507.167 1.24423 1.70535 0
M  V30 5345 O 506.515 0.385051 2.25232 0
M  V30 5346 C 506.725 3.46168 0.443687 0
M  V30 5347 C 508.073 4.18659 0.707783 0
M  V30 5348 O 509.097 3.52281 0.52693 0
M  V30 5349 O 507.956 5.36198 1.05612 0
M  V30 5350 H 505.05 0.80379 0.194552 0
M  V30 5351 H 507.596 1.65738 -0.364577 0
M  V30 5352 H 506.368 3.8792 -0.513172 0
M  V30 5353 H 505.991 3.79073 1.19956 0
M  V30 5354 N 506.988 0.0434614 1.5754 0
M  V30 5355 C 508.399 -0.493343 1.80064 0
M  V30 5356 C 508.75 -1.71388 0.955023 0
M  V30 5357 O 507.875 -2.15736 0.169434 0
M  V30 5358 C 508.47 -0.90179 3.26578 0
M  V30 5359 C 507.029 -1.38362 3.50047 0
M  V30 5360 C 506.176 -0.355129 2.75017 0
M  V30 5361 H 509.127 0.2694 1.56397 0
M  V30 5362 H 509.148 -1.76523 3.37075 0
M  V30 5363 H 508.66 -0.013271 3.88098 0
M  V30 5364 H 506.761 -2.29159 2.93798 0
M  V30 5365 H 506.874 -1.3811 4.58762 0
M  V30 5366 H 505.238 -0.826348 2.40922 0
M  V30 5367 H 506.021 0.525172 3.39259 0
M  V30 5368 N 508.466 -1.55915 -0.229846 0
M  V30 5369 C 509.396 -1.94754 -1.28815 0
M  V30 5370 C 510.377 -0.814657 -1.49323 0
M  V30 5371 O 511.562 -1.07631 -1.61645 0
M  V30 5372 C 508.692 -2.25705 -2.63959 0
M  V30 5373 C 507.646 -3.41406 -2.5812 0
M  V30 5374 C 506.972 -3.57941 -3.97218 0
M  V30 5375 C 508.272 -4.76616 -2.13623 0
M  V30 5376 H 509.966 -2.83404 -0.965547 0
M  V30 5377 H 507.512 -1.36353 -0.463028 0
M  V30 5378 H 509.465 -2.51467 -3.38146 0
M  V30 5379 H 508.189 -1.339 -2.9789 0
M  V30 5380 H 506.848 -3.1568 -1.86391 0
M  V30 5381 H 506.496 -2.63526 -4.28443 0
M  V30 5382 H 506.196 -4.35757 -3.94195 0
M  V30 5383 H 507.72 -3.86042 -4.73079 0
M  V30 5384 H 509.134 -5.01637 -2.77549 0
M  V30 5385 H 507.531 -5.57655 -2.21677 0
M  V30 5386 H 508.601 -4.7253 -1.08829 0
M  V30 5387 N 509.944 0.496216 -1.49584 0
M  V30 5388 C 510.892 1.61805 -1.67098 0
M  V30 5389 C 511.886 1.60667 -0.536877 0
M  V30 5390 O 513.092 1.65118 -0.716654 0
M  V30 5391 H 509.467 0.53646 -0.526986 0
M  V30 5392 H 511.438 1.44187 -2.61252 0
M  V30 5393 C 510.187 2.99912 -1.75921 0
M  V30 5394 H 509.51 3.01496 -2.62565 0
M  V30 5395 H 510.95 3.77931 -1.92209 0
M  V30 5396 C 509.409 3.33092 -0.505088 0
M  V30 5397 O 509.939 4.00019 0.367085 0
M  V30 5398 N 508.145 2.88278 -0.366599 0
M  V30 5399 H 507.692 2.33989 -1.07735 0
M  V30 5400 H 507.65 3.10846 0.47142 0
M  V30 5401 N 511.423 1.38739 0.74761 0
M  V30 5402 C 512.333 1.38696 1.89211 0
M  V30 5403 C 513.349 0.283303 1.71678 0
M  V30 5404 O 514.525 0.522713 1.94498 0
M  V30 5405 C 511.59 1.21662 3.24653 0
M  V30 5406 C 510.651 2.41886 3.54669 0
M  V30 5407 C 509.884 2.25655 4.83648 0
M  V30 5408 O 510.107 1.25339 5.56459 0
M  V30 5409 O 509.041 3.14372 5.13277 0
M  V30 5410 H 512.867 2.35143 1.92202 0
M  V30 5411 H 510.452 1.19721 0.893708 0
M  V30 5412 H 512.334 1.14246 4.05618 0
M  V30 5413 H 511.009 0.283024 3.2246 0
M  V30 5414 H 509.916 2.54877 2.73841 0
M  V30 5415 H 511.249 3.33895 3.61628 0
M  V30 5416 N 512.901 -0.976442 1.23707 0
M  V30 5417 C 514.178 -1.69296 0.979699 0
M  V30 5418 C 514.558 -2.0508 -0.500555 0
M  V30 5419 O 513.906 -1.74708 -1.47273 0
M  V30 5420 C 514.116 -2.93143 1.89389 0
M  V30 5421 C 515.464 -3.65572 2.15968 0
M  V30 5422 O 516.488 -3.03184 1.86971 0
M  V30 5423 O 515.347 -4.77859 2.65167 0
M  V30 5424 H 512.441 -0.739708 0.369812 0
M  V30 5425 H 514.987 -1.03131 1.34767 0
M  V30 5426 H 513.759 -2.63327 2.89439 0
M  V30 5427 H 513.382 -3.67044 1.52854 0
M  V30 5428 N 514.379 -1.04941 -1.1758 0
M  V30 5429 C 515.625 -0.759112 -1.88057 0
M  V30 5430 C 515.958 0.711918 -1.8068 0
M  V30 5431 O 515.233 1.52035 -1.21308 0
M  V30 5432 C 515.516 -1.237 -3.38187 0
M  V30 5433 C 515.369 -2.77078 -3.54327 0
M  V30 5434 C 516.688 -0.834014 -4.32125 0
M  V30 5435 H 513.807 -0.277237 -0.682868 0
M  V30 5436 H 516.449 -1.30296 -1.38286 0
M  V30 5437 H 514.599 -0.774337 -3.80705 0
M  V30 5438 H 516.271 -3.31449 -3.20842 0
M  V30 5439 H 514.514 -3.16477 -2.96689 0
M  V30 5440 H 515.185 -3.05577 -4.59703 0
M  V30 5441 H 517.661 -1.23228 -3.97434 0
M  V30 5442 H 516.537 -1.19603 -5.35711 0
M  V30 5443 H 516.798 0.262195 -4.41322 0
M  V30 5444 N 515.857 1.33968 -0.830081 0
M  V30 5445 C 516.787 2.31911 -0.271911 0
M  V30 5446 C 517.768 1.58571 0.61556 0
M  V30 5447 O 518.953 1.86514 0.540946 0
M  V30 5448 C 516.083 3.42737 0.561146 0
M  V30 5449 C 515.037 4.27383 -0.229789 0
M  V30 5450 C 514.363 5.29742 0.726463 0
M  V30 5451 C 515.663 5.02 -1.44197 0
M  V30 5452 H 517.357 2.78844 -1.09025 0
M  V30 5453 H 514.903 1.34061 -0.52571 0
M  V30 5454 H 516.856 4.10276 0.961867 0
M  V30 5455 H 515.58 2.94471 1.41261 0
M  V30 5456 H 514.239 3.61456 -0.611964 0
M  V30 5457 H 513.887 4.77736 1.57408 0
M  V30 5458 H 513.587 5.87255 0.20142 0
M  V30 5459 H 515.111 6.00149 1.12489 0
M  V30 5460 H 516.525 5.62355 -1.11488 0
M  V30 5461 H 514.922 5.69122 -1.90317 0
M  V30 5462 H 515.992 4.31281 -2.2164 0
M  V30 5463 N 517.335 0.585699 1.46312 0
M  V30 5464 C 518.265 -0.133556 2.33118 0
M  V30 5465 C 519.246 -0.880707 1.45525 0
M  V30 5466 O 520.431 -0.855579 1.74337 0
M  V30 5467 C 517.561 -1.14585 3.27853 0
M  V30 5468 C 516.515 -0.513341 4.2491 0
M  V30 5469 C 515.841 -1.63231 5.09175 0
M  V30 5470 C 517.141 0.551413 5.19381 0
M  V30 5471 H 518.835 0.59121 2.93505 0
M  V30 5472 H 516.381 0.285761 1.41136 0
M  V30 5473 H 518.334 -1.65741 3.87438 0
M  V30 5474 H 517.058 -1.90093 2.65579 0
M  V30 5475 H 515.717 -0.0228349 3.66593 0
M  V30 5476 H 515.365 -2.37713 4.43285 0
M  V30 5477 H 515.065 -1.21473 5.74907 0
M  V30 5478 H 516.589 -2.14658 5.71624 0
M  V30 5479 H 518.003 0.124804 5.73164 0
M  V30 5480 H 516.4 0.889486 5.93471 0
M  V30 5481 H 517.47 1.43655 4.63132 0
M  V30 5482 N 518.813 -1.54241 0.323641 0
M  V30 5483 C 519.776 -2.22997 -0.529602 0
M  V30 5484 C 520.776 -1.22345 -1.04347 0
M  V30 5485 O 521.966 -1.46924 -0.935889 0
M  V30 5486 C 519.098 -2.93409 -1.73562 0
M  V30 5487 H 520.291 -2.99815 0.0714518 0
M  V30 5488 H 517.844 -1.56121 0.0747258 0
M  V30 5489 H 518.579 -2.20729 -2.37591 0
M  V30 5490 H 518.364 -3.67217 -1.37456 0
M  V30 5491 H 519.854 -3.45794 -2.34128 0
M  V30 5492 N 520.291 -0.0518155 -1.57515 0
M  V30 5493 C 521.224 0.957758 -2.07129 0
M  V30 5494 C 522.202 1.30355 -0.971927 0
M  V30 5495 O 523.386 1.41631 -1.2439 0
M  V30 5496 C 520.513 2.27157 -2.51232 0
M  V30 5497 C 519.559 2.07879 -3.72409 0
M  V30 5498 S 520.392 1.35656 -5.18033 0
M  V30 5499 C 521.548 2.68359 -5.65451 0
M  V30 5500 H 521.781 0.53552 -2.92437 0
M  V30 5501 H 519.314 0.160465 -1.53564 0
M  V30 5502 H 521.272 3.02676 -2.77304 0
M  V30 5503 H 519.933 2.66509 -1.66228 0
M  V30 5504 H 519.126 3.05061 -4.01191 0
M  V30 5505 H 518.728 1.40499 -3.46606 0
M  V30 5506 H 521.02 3.64526 -5.71076 0
M  V30 5507 H 521.963 2.44213 -6.64654 0
M  V30 5508 H 522.371 2.74647 -4.93183 0
M  V30 5509 N 521.769 1.56035 0.221574 0
M  V30 5510 C 522.679 1.95581 1.29558 0
M  V30 5511 C 523.695 0.859639 1.51282 0
M  V30 5512 O 524.871 1.16321 1.64413 0
M  V30 5513 C 521.936 2.26447 2.62531 0
M  V30 5514 C 520.997 3.49632 2.4911 0
M  V30 5515 C 520.23 3.79017 3.75742 0
M  V30 5516 O 520.453 3.10077 4.78757 0
M  V30 5517 O 519.387 4.72507 3.72855 0
M  V30 5518 H 523.213 2.8711 0.990035 0
M  V30 5519 H 520.798 1.43244 0.424434 0
M  V30 5520 H 522.68 2.47494 3.41064 0
M  V30 5521 H 521.355 1.38092 2.92766 0
M  V30 5522 H 520.262 3.33864 1.68777 0
M  V30 5523 H 521.595 4.3837 2.23814 0
M  V30 5524 N 523.247 -0.488276 1.49845 0
M  V30 5525 C 524.524 -1.24959 1.50481 0
M  V30 5526 C 524.904 -2.09735 0.239698 0
M  V30 5527 O 524.252 -2.14865 -0.777524 0
M  V30 5528 C 524.462 -2.0954 2.79095 0
M  V30 5529 C 525.81 -2.68305 3.29086 0
M  V30 5530 O 526.834 -2.19797 2.80299 0
M  V30 5531 O 525.693 -3.56643 4.14087 0
M  V30 5532 H 522.787 -0.566133 0.602845 0
M  V30 5533 H 525.333 -0.501504 1.6212 0
M  V30 5534 H 524.105 -1.46958 3.62656 0
M  V30 5535 H 523.728 -2.91517 2.70377 0
M  V30 5536 N 524.725 -1.39134 -0.740242 0
M  V30 5537 C 525.658 -1.3182 -1.86276 0
M  V30 5538 C 526.636 -0.192794 -1.61453 0
M  V30 5539 O 527.82 -0.372365 -1.84786 0
M  V30 5540 C 524.947 -1.04564 -3.22155 0
M  V30 5541 C 523.993 -2.19224 -3.65846 0
M  V30 5542 S 524.826 -3.81466 -3.75824 0
M  V30 5543 C 525.982 -3.56425 -5.14502 0
M  V30 5544 H 526.215 -2.26822 -1.92195 0
M  V30 5545 H 523.748 -1.25127 -0.904576 0
M  V30 5546 H 525.706 -0.895228 -4.00619 0
M  V30 5547 H 524.367 -0.112578 -3.13898 0
M  V30 5548 H 523.56 -1.95732 -4.6444 0
M  V30 5549 H 523.162 -2.30441 -2.94572 0
M  V30 5550 H 525.454 -3.13366 -6.00673 0
M  V30 5551 H 526.397 -4.54462 -5.43019 0
M  V30 5552 H 526.805 -2.90641 -4.8393 0
M  V30 5553 N 526.204 0.969867 -1.24223 0
M  V30 5554 C 527.452 1.70918 -1.0785 0
M  V30 5555 C 527.773 1.91186 0.383763 0
M  V30 5556 O 527.043 1.48806 1.27411 0
M  V30 5557 H 525.623 0.633334 -0.396103 0
M  V30 5558 H 528.285 1.16689 -1.56108 0
M  V30 5559 H 527.381 2.69455 -1.57482 0
M  V30 5560 N 527.682 1.05563 1.17022 0
M  V30 5561 C 528.612 0.681026 2.23348 0
M  V30 5562 C 529.593 -0.322983 1.67005 0
M  V30 5563 O 530.778 -0.199746 1.9317 0
M  V30 5564 C 527.908 0.0589053 3.4725 0
M  V30 5565 C 526.862 0.988082 4.16438 0
M  V30 5566 C 526.188 0.229646 5.34207 0
M  V30 5567 C 527.488 2.31388 4.68249 0
M  V30 5568 H 529.182 1.56993 2.54938 0
M  V30 5569 H 526.728 0.756302 1.2254 0
M  V30 5570 H 528.681 -0.214982 4.20851 0
M  V30 5571 H 527.405 -0.864968 3.14938 0
M  V30 5572 H 526.064 1.24659 3.44754 0
M  V30 5573 H 525.712 -0.697111 4.98146 0
M  V30 5574 H 525.412 0.848815 5.81437 0
M  V30 5575 H 526.936 -0.0368694 6.10589 0
M  V30 5576 H 528.35 2.09964 5.33468 0
M  V30 5577 H 526.747 2.88736 5.26072 0
M  V30 5578 H 527.817 2.94982 3.84855 0
M  V30 5579 N 529.16 -1.33526 0.837174 0
M  V30 5580 C 530.437 -1.92369 0.354065 0
M  V30 5581 C 530.817 -1.76348 -1.16038 0
M  V30 5582 O 530.165 -1.15083 -1.97403 0
M  V30 5583 C 530.375 -3.39728 0.799101 0
M  V30 5584 C 531.723 -4.16877 0.806139 0
M  V30 5585 O 532.747 -3.48373 0.742597 0
M  V30 5586 O 531.606 -5.39166 0.892345 0
M  V30 5587 H 528.7 -0.820952 0.0998378 0
M  V30 5588 H 531.246 -1.42409 0.922913 0
M  V30 5589 H 530.018 -3.45254 1.84162 0
M  V30 5590 H 529.641 -3.97062 0.206731 0
M  V30 5591 N 530.638 -0.59345 -1.46 0
M  V30 5592 C 531.585 0.133618 -2.30413 0
M  V30 5593 C 532.555 0.873736 -1.41262 0
M  V30 5594 O 533.74 0.862279 -1.70204 0
M  V30 5595 C 530.88 1.13434 -3.25924 0
M  V30 5596 C 529.993 0.39656 -4.30176 0
M  V30 5597 C 529.128 1.38575 -5.12806 0
M  V30 5598 C 528.167 0.634984 -6.08797 0
M  V30 5599 N 527.304 1.57276 -6.84258 0
M  V30 5600 H 532.144 -0.592252 -2.92055 0
M  V30 5601 H 529.681 -0.303874 -1.43927 0
M  V30 5602 H 531.639 1.72752 -3.79753 0
M  V30 5603 H 530.269 1.82779 -2.66067 0
M  V30 5604 H 529.321 -0.311861 -3.79119 0
M  V30 5605 H 530.633 -0.189869 -4.98438 0
M  V30 5606 H 529.787 2.05141 -5.70966 0
M  V30 5607 H 528.526 2.00611 -4.44529 0
M  V30 5608 H 527.531 -0.0443925 -5.49782 0
M  V30 5609 H 528.756 0.0198678 -6.79097 0
M  V30 5610 H 526.702 2.18103 -6.18682 0
M  V30 5611 H 526.619 1.03941 -7.48821 0
M  V30 5612 H 527.887 2.22844 -7.46968 0
M  V30 5613 N 532.116 1.54067 -0.331816 0
M  V30 5614 C 533.026 2.28322 0.539104 0
M  V30 5615 C 534.042 1.32985 1.1221 0
M  V30 5616 O 535.218 1.6601 1.1403 0
M  V30 5617 C 532.283 3.03277 1.68 0
M  V30 5618 C 531.344 4.14216 1.12798 0
M  V30 5619 C 530.577 4.85588 2.2145 0
M  V30 5620 O 530.8 4.56536 3.41952 0
M  V30 5621 O 529.734 5.72309 1.86404 0
M  V30 5622 H 533.56 3.03632 -0.0641692 0
M  V30 5623 H 531.145 1.49083 -0.0972365 0
M  V30 5624 H 533.027 3.50189 2.34405 0
M  V30 5625 H 531.702 2.30834 2.2693 0
M  V30 5626 H 530.609 3.71635 0.428782 0
M  V30 5627 H 531.942 4.88727 0.583698 0
M  V30 5628 N 533.594 0.0601682 1.57485 0
M  V30 5629 C 534.526 -0.94047 2.09016 0
M  V30 5630 C 535.539 -1.26897 1.01985 0
M  V30 5631 O 536.728 -1.22819 1.29529 0
M  V30 5632 C 533.828 -2.25955 2.52582 0
M  V30 5633 C 533.001 -2.11163 3.83052 0
M  V30 5634 C 532.06 -3.26273 4.12835 0
M  V30 5635 O 531.086 -3.01779 4.82616 0
M  V30 5636 N 532.288 -4.51022 3.65458 0
M  V30 5637 H 535.053 -0.500578 2.9549 0
M  V30 5638 H 532.614 -0.125852 1.6141 0
M  V30 5639 H 534.606 -3.01846 2.69575 0
M  V30 5640 H 533.176 -2.61481 1.71308 0
M  V30 5641 H 532.396 -1.19808 3.75552 0
M  V30 5642 H 533.684 -1.98517 4.68475 0
M  V30 5643 H 533.082 -4.73811 3.09062 0
M  V30 5644 H 531.639 -5.23978 3.87673 0
M  V30 5645 N 535.072 -1.5615 -0.213296 0
M  V30 5646 C 536.3 -1.83638 -0.953139 0
M  V30 5647 C 536.715 -0.640362 -1.77609 0
M  V30 5648 O 536.072 0.391071 -1.78261 0
M  V30 5649 C 536.123 -3.09735 -1.86405 0
M  V30 5650 O 535.844 -4.24723 -1.07435 0
M  V30 5651 C 537.345 -3.5027 -2.71709 0
M  V30 5652 H 534.565 -0.610263 -0.278962 0
M  V30 5653 H 537.109 -2.03247 -0.226035 0
M  V30 5654 H 535.264 -2.92077 -2.545 0
M  V30 5655 H 535.678 -4.9641 -1.69343 0
M  V30 5656 H 537.152 -4.41515 -3.31313 0
M  V30 5657 H 537.629 -2.72406 -3.44516 0
M  V30 5658 H 538.235 -3.70396 -2.09015 0
M  V30 5659 N 536.55 0.480323 -1.50102 0
M  V30 5660 C 537.48 1.58769 -1.71215 0
M  V30 5661 C 538.461 1.60583 -0.560997 0
M  V30 5662 O 539.646 1.76996 -0.799127 0
M  V30 5663 C 536.776 2.97148 -1.79778 0
M  V30 5664 C 535.73 3.10201 -2.94888 0
M  V30 5665 C 535.056 4.50137 -2.88584 0
M  V30 5666 C 536.356 2.88283 -4.35534 0
M  V30 5667 H 538.05 1.41354 -2.6393 0
M  V30 5668 H 535.596 0.678591 -1.27008 0
M  V30 5669 H 537.549 3.74536 -1.93133 0
M  V30 5670 H 536.273 3.15699 -0.836772 0
M  V30 5671 H 534.932 2.35244 -2.81169 0
M  V30 5672 H 534.58 4.65593 -1.90349 0
M  V30 5673 H 534.28 4.59808 -3.65856 0
M  V30 5674 H 535.804 5.29558 -3.03976 0
M  V30 5675 H 537.218 3.55427 -4.49827 0
M  V30 5676 H 535.615 3.09408 -5.14186 0
M  V30 5677 H 536.685 1.84219 -4.48544 0
M  V30 5678 N 538.028 1.39524 0.732853 0
M  V30 5679 C 538.96 1.34318 1.85718 0
M  V30 5680 C 539.973 0.251576 1.60844 0
M  V30 5681 O 541.162 0.510685 1.71039 0
M  V30 5682 C 538.262 1.06334 3.21786 0
M  V30 5683 C 537.435 2.26813 3.73998 0
M  V30 5684 C 536.494 1.95253 4.88634 0
M  V30 5685 O 535.52 2.67957 5.02183 0
M  V30 5686 N 536.722 0.919984 5.73164 0
M  V30 5687 H 539.487 2.3121 1.90688 0
M  V30 5688 H 537.048 1.33654 0.91368 0
M  V30 5689 H 539.04 0.832363 3.96048 0
M  V30 5690 H 537.61 0.181682 3.12072 0
M  V30 5691 H 536.83 2.65849 2.91064 0
M  V30 5692 H 538.118 3.0717 4.05616 0
M  V30 5693 H 537.516 0.317487 5.64808 0
M  V30 5694 H 536.073 0.748905 6.47483 0
M  V30 5695 N 539.506 -0.963266 1.24736 0
M  V30 5696 C 540.731 -1.74699 1.11781 0
M  V30 5697 C 541.156 -1.85267 -0.325258 0
M  V30 5698 O 540.514 -1.32681 -1.23553 0
M  V30 5699 C 540.562 -3.14322 1.76731 0
M  V30 5700 O 539.666 -3.99043 1.04109 0
M  V30 5701 H 539.007 -0.53684 0.390767 0
M  V30 5702 H 541.537 -1.20801 1.65131 0
M  V30 5703 H 541.547 -3.64824 1.82668 0
M  V30 5704 H 540.222 -3.05946 2.81726 0
M  V30 5705 H 538.799 -3.5752 1.05991 0
M  V30 5706 N 540.985 -1.06182 -1.16461 0
M  V30 5707 C 541.915 -0.692861 -2.22984 0
M  V30 5708 C 542.896 0.314122 -1.67174 0
M  V30 5709 O 544.081 0.189499 -1.93273 0
M  V30 5710 C 541.211 -0.07732 -3.47214 0
M  V30 5711 C 540.165 -1.01015 -4.15909 0
M  V30 5712 C 539.491 -0.257973 -5.34077 0
M  V30 5713 C 540.791 -2.33868 -4.67015 0
M  V30 5714 H 542.485 -1.58343 -2.54102 0
M  V30 5715 H 540.031 -0.76279 -1.22137 0
M  V30 5716 H 541.984 0.19266 -4.20959 0
M  V30 5717 H 540.708 0.848254 -3.15392 0
M  V30 5718 H 539.367 -1.26486 -3.44088 0
M  V30 5719 H 539.015 0.670684 -4.98509 0
M  V30 5720 H 538.715 -0.879638 -5.80979 0
M  V30 5721 H 540.239 0.00448788 -6.106 0
M  V30 5722 H 541.653 -2.1279 -5.32347 0
M  V30 5723 H 540.05 -2.91522 -5.24533 0
M  V30 5724 H 541.12 -2.97019 -3.83286 0
M  V30 5725 N 542.463 1.3308 -0.844243 0
M  V30 5726 C 543.879 1.50447 -0.532729 0
M  V30 5727 C 544.079 1.78292 0.938837 0
M  V30 5728 O 543.135 1.84635 1.72239 0
M  V30 5729 C 544.448 2.65555 -1.41072 0
M  V30 5730 C 545.996 2.7944 -1.41005 0
M  V30 5731 C 546.471 3.97616 -2.27301 0
M  V30 5732 N 547.962 4.0486 -2.2504 0
M  V30 5733 C 548.697 4.95508 -2.88547 0
M  V30 5734 N 548.193 5.91236 -3.61126 0
M  V30 5735 N 549.986 4.88548 -2.77989 0
M  V30 5736 H 542.137 1.13269 -1.79677 0
M  V30 5737 H 544.4 0.55734 -0.766861 0
M  V30 5738 H 544.106 2.51675 -2.45668 0
M  V30 5739 H 543.98 3.61089 -1.09061 0
M  V30 5740 H 546.367 2.92749 -0.371784 0
M  V30 5741 H 546.448 1.8465 -1.77026 0
M  V30 5742 H 546.092 3.85066 -3.3119 0
M  V30 5743 H 546.022 4.91661 -1.88619 0
M  V30 5744 H 548.513 3.36353 -1.72264 0
M  V30 5745 H 548.826 6.57079 -4.06776 0
M  V30 5746 H 547.171 5.91295 -3.65234 0
M  V30 5747 H 550.362 4.12729 -2.20846 0
M  V30 5748 H 550.535 5.58994 -3.27765 0
M  V30 5749 N 543.941 0.601185 1.45683 0
M  V30 5750 C 545.166 0.0982245 2.07167 0
M  V30 5751 C 545.591 -1.20546 1.44396 0
M  V30 5752 O 544.949 -1.73247 0.534347 0
M  V30 5753 C 544.997 -0.0346976 3.60583 0
M  V30 5754 O 544.101 -1.08657 3.97828 0
M  V30 5755 H 543.442 0.0711618 0.660176 0
M  V30 5756 H 545.972 0.829376 1.87036 0
M  V30 5757 H 545.982 -0.234969 4.07323 0
M  V30 5758 H 544.657 0.917265 4.05659 0
M  V30 5759 H 543.234 -0.863275 3.6277 0
M  V30 5760 N 545.419 -1.53889 0.339982 0
M  V30 5761 C 546.696 -1.93084 -0.312719 0
M  V30 5762 C 547.076 -1.2712 -1.68534 0
M  V30 5763 O 546.424 -0.420835 -2.24591 0
M  V30 5764 C 546.634 -3.4683 -0.388558 0
M  V30 5765 C 547.982 -4.19732 -0.641088 0
M  V30 5766 O 549.006 -3.53075 -0.470818 0
M  V30 5767 O 547.865 -5.3781 -0.970685 0
M  V30 5768 H 544.959 -0.806784 -0.18174 0
M  V30 5769 H 547.505 -1.65137 0.390898 0
M  V30 5770 H 546.277 -3.87055 0.574821 0
M  V30 5771 H 545.9 -3.80933 -1.1391 0
M  V30 5772 N 546.897 -0.0685191 -1.57451 0
M  V30 5773 C 547.86 0.885173 -2.11417 0
M  V30 5774 C 548.86 1.22853 -1.03748 0
M  V30 5775 O 550.05 1.16235 -1.2975 0
M  V30 5776 C 547.182 2.18964 -2.61281 0
M  V30 5777 H 548.375 0.417034 -2.96986 0
M  V30 5778 H 545.928 0.18014 -1.55258 0
M  V30 5779 H 546.663 2.70321 -1.79156 0
M  V30 5780 H 546.448 1.9534 -3.39977 0
M  V30 5781 H 547.938 2.87242 -3.0312 0
M  V30 5782 N 548.375 1.56261 0.205012 0
M  V30 5783 C 549.605 1.83874 0.942018 0
M  V30 5784 C 550.013 0.647595 1.77772 0
M  V30 5785 O 549.356 -0.393098 1.79445 0
M  V30 5786 C 549.418 3.05453 1.89575 0
M  V30 5787 C 549.082 4.39772 1.24296 0
M  V30 5788 C 550.079 5.16133 0.624724 0
M  V30 5789 C 547.764 4.86504 1.24978 0
M  V30 5790 C 549.758 6.37396 0.0220117 0
M  V30 5791 C 547.445 6.07705 0.643232 0
M  V30 5792 C 548.443 6.82993 0.0304164 0
M  V30 5793 O 548.131 8.019 -0.566654 0
M  V30 5794 H 547.863 0.614896 0.280854 0
M  V30 5795 H 550.417 2.04215 0.220285 0
M  V30 5796 H 548.647 2.80972 2.65691 0
M  V30 5797 H 550.336 3.19797 2.4997 0
M  V30 5798 H 551.102 4.81127 0.611666 0
M  V30 5799 H 546.981 4.27865 1.71616 0
M  V30 5800 H 550.525 6.96102 -0.456926 0
M  V30 5801 H 546.422 6.42181 0.653759 0
M  V30 5802 H 547.19 8.17192 -0.462588 0
M  V30 5803 N 549.853 -0.472356 1.50355 0
M  V30 5804 C 551.13 -1.23356 1.51798 0
M  V30 5805 C 551.51 -2.09469 0.26193 0
M  V30 5806 O 550.858 -2.15677 -0.754691 0
M  V30 5807 C 551.068 -2.06568 2.81302 0
M  V30 5808 C 552.416 -2.648 3.31913 0
M  V30 5809 O 553.44 -2.16812 2.82614 0
M  V30 5810 O 552.299 -3.52231 4.17846 0
M  V30 5811 H 549.393 -0.559707 0.608816 0
M  V30 5812 H 551.939 -0.48428 1.62643 0
M  V30 5813 H 550.711 -1.43103 3.64194 0
M  V30 5814 H 550.334 -2.88633 2.73454 0
M  V30 5815 N 551.331 -1.39911 -0.725443 0
M  V30 5816 C 552.281 -1.35878 -1.83088 0
M  V30 5817 C 553.265 -0.237989 -1.5913 0
M  V30 5818 O 554.457 -0.476302 -1.70471 0
M  V30 5819 C 551.586 -1.21403 -3.21117 0
M  V30 5820 C 550.672 -2.38223 -3.50871 0
M  V30 5821 N 551.063 -3.63703 -3.51502 0
M  V30 5822 C 549.361 -2.31388 -3.81281 0
M  V30 5823 C 550.062 -4.4101 -3.79322 0
M  V30 5824 N 549.038 -3.7072 -3.97577 0
M  V30 5825 H 552.84 -2.3085 -1.81895 0
M  V30 5826 H 550.354 -1.33543 -0.924125 0
M  V30 5827 H 552.351 -1.16597 -4.00263 0
M  V30 5828 H 551.011 -0.273902 -3.23543 0
M  V30 5829 H 552.022 -3.96998 -3.32586 0
M  V30 5830 H 548.699 -1.45689 -3.91256 0
M  V30 5831 H 550.089 -5.49819 -3.86198 0
M  V30 5832 N 552.809 0.956637 -1.25245 0
M  V30 5833 C 554.039 1.7332 -1.12445 0
M  V30 5834 C 554.447 1.86392 0.324732 0
M  V30 5835 O 553.79 1.35967 1.23526 0
M  V30 5836 C 553.852 3.16603 -1.70303 0
M  V30 5837 C 553.516 3.26966 -3.19284 0
M  V30 5838 C 554.513 3.11434 -4.16299 0
M  V30 5839 C 552.198 3.50851 -3.59456 0
M  V30 5840 C 554.192 3.1963 -5.51467 0
M  V30 5841 C 551.879 3.58684 -4.94761 0
M  V30 5842 C 552.877 3.43087 -5.90576 0
M  V30 5843 O 552.565 3.50598 -7.2342 0
M  V30 5844 H 552.297 0.549981 -0.393061 0
M  V30 5845 H 554.851 1.20892 -1.66055 0
M  V30 5846 H 553.081 3.70385 -1.11138 0
M  V30 5847 H 554.77 3.76109 -1.52632 0
M  V30 5848 H 555.536 2.92853 -3.86604 0
M  V30 5849 H 551.415 3.62053 -2.85375 0
M  V30 5850 H 554.959 3.07373 -6.26233 0
M  V30 5851 H 550.856 3.76782 -5.24124 0
M  V30 5852 H 551.624 3.67242 -7.31489 0
M  V30 5853 N 554.287 1.06798 1.15896 0
M  V30 5854 C 555.512 0.808739 1.90982 0
M  V30 5855 C 555.937 -0.6316 1.77179 0
M  V30 5856 O 555.295 -1.4407 1.10061 0
M  V30 5857 C 555.343 1.21468 3.39526 0
M  V30 5858 O 554.447 0.356562 4.10856 0
M  V30 5859 H 553.788 0.29512 0.594811 0
M  V30 5860 H 556.318 1.42513 1.46804 0
M  V30 5861 H 556.328 1.18844 3.90308 0
M  V30 5862 H 555.003 2.26379 3.48891 0
M  V30 5863 H 553.58 0.444808 3.70238 0
M  V30 5864 N 555.766 -1.3263 0.851289 0
M  V30 5865 C 556.729 -2.27247 0.298541 0
M  V30 5866 C 557.729 -1.51467 -0.539847 0
M  V30 5867 O 558.919 -1.7061 -0.351843 0
M  V30 5868 C 556.051 -3.35964 -0.578004 0
M  V30 5869 H 557.244 -2.7765 1.13359 0
M  V30 5870 H 554.797 -1.43245 0.625354 0
M  V30 5871 H 555.532 -2.90823 -1.435 0
M  V30 5872 H 555.317 -3.92094 0.0220539 0
M  V30 5873 H 556.807 -4.06472 -0.957626 0
M  V30 5874 N 557.244 -0.608902 -1.45362 0
M  V30 5875 C 558.493 -0.10218 -2.01441 0
M  V30 5876 C 558.806 1.27546 -1.48295 0
M  V30 5877 O 560.012 1.87498 -1.96359 0
M  V30 5878 C 558.468 -0.131985 -3.59658 0
M  V30 5879 C 558.076 -1.50956 -4.21801 0
M  V30 5880 C 559.82 0.319427 -4.23296 0
M  V30 5881 C 557.727 -1.49568 -5.72174 0
M  V30 5882 H 556.657 -0.0344314 -0.753213 0
M  V30 5883 H 559.308 -0.764426 -1.6682 0
M  V30 5884 H 557.69 0.596939 -3.91475 0
M  V30 5885 H 558.864 -2.26029 -4.01556 0
M  V30 5886 H 557.179 -1.90318 -3.70362 0
M  V30 5887 H 559.776 0.349013 -5.3356 0
M  V30 5888 H 560.119 1.34237 -3.94064 0
M  V30 5889 H 560.652 -0.356273 -3.96201 0
M  V30 5890 H 557.391 -2.49626 -6.06108 0
M  V30 5891 H 556.911 -0.787542 -5.94607 0
M  V30 5892 H 558.59 -1.21989 -6.35396 0
M  V30 5893 N 558.722 1.53707 -0.348139 0
M  V30 5894 C 559.952 2.05108 0.247864 0
M  V30 5895 C 560.36 1.22252 1.44399 0
M  V30 5896 O 559.703 0.251853 1.81965 0
M  V30 5897 C 559.765 3.52171 0.722187 0
M  V30 5898 C 559.429 4.5562 -0.354902 0
M  V30 5899 C 560.426 5.05883 -1.19911 0
M  V30 5900 C 558.111 4.99703 -0.510145 0
M  V30 5901 C 560.105 5.98814 -2.18406 0
M  V30 5902 C 557.792 5.92443 -1.49848 0
M  V30 5903 C 558.79 6.41887 -2.33389 0
M  V30 5904 O 558.478 7.32802 -3.3054 0
M  V30 5905 H 558.21 0.674086 0.0508296 0
M  V30 5906 H 560.764 1.99229 -0.49968 0
M  V30 5907 H 558.994 3.55529 1.52105 0
M  V30 5908 H 560.683 3.8652 1.23925 0
M  V30 5909 H 561.449 4.72586 -1.09028 0
M  V30 5910 H 557.328 4.60816 0.130274 0
M  V30 5911 H 560.872 6.3733 -2.83649 0
M  V30 5912 H 556.769 6.25155 -1.60786 0
M  V30 5913 H 557.537 7.50749 -3.26064 0
M  V30 5914 N 560.2 0.0768682 1.57412 0
M  V30 5915 C 561.425 -0.603404 1.98428 0
M  V30 5916 C 561.85 -1.62047 0.955108 0
M  V30 5917 O 561.208 -1.81129 -0.0786778 0
M  V30 5918 C 561.256 -1.24396 3.38464 0
M  V30 5919 O 560.36 -2.35982 3.3821 0
M  V30 5920 H 559.701 -0.154741 0.645718 0
M  V30 5921 H 562.231 0.152885 2.04028 0
M  V30 5922 H 562.241 -1.5896 3.7576 0
M  V30 5923 H 560.916 -0.498735 4.12899 0
M  V30 5924 H 559.493 -2.03173 3.1269 0
M  V30 5925 N 561.678 -1.56367 -0.196722 0
M  V30 5926 C 562.608 -1.97442 -1.24655 0
M  V30 5927 C 563.589 -0.846147 -1.47561 0
M  V30 5928 O 564.774 -1.11035 -1.59326 0
M  V30 5929 C 561.904 -2.31253 -2.59112 0
M  V30 5930 C 560.858 -3.46804 -2.50821 0
M  V30 5931 C 560.184 -3.66286 -3.89536 0
M  V30 5932 C 561.484 -4.8104 -2.03465 0
M  V30 5933 H 563.178 -2.85388 -0.905216 0
M  V30 5934 H 560.724 -1.37304 -0.434002 0
M  V30 5935 H 562.677 -2.58583 -3.32736 0
M  V30 5936 H 561.401 -1.40188 -2.94983 0
M  V30 5937 H 560.06 -3.19563 -1.79653 0
M  V30 5938 H 559.708 -2.72555 -4.22756 0
M  V30 5939 H 559.408 -4.4402 -3.84864 0
M  V30 5940 H 560.932 -3.9599 -4.64784 0
M  V30 5941 H 562.346 -5.07411 -2.66846 0
M  V30 5942 H 560.743 -5.62232 -2.09798 0
M  V30 5943 H 561.813 -4.74732 -0.98781 0
M  V30 5944 N 563.156 0.464375 -1.50603 0
M  V30 5945 C 564.086 1.56944 -1.72889 0
M  V30 5946 C 565.067 1.59979 -0.577997 0
M  V30 5947 O 566.252 1.76138 -0.817855 0
M  V30 5948 C 563.382 2.95225 -1.8292 0
M  V30 5949 C 562.336 3.07056 -2.98162 0
M  V30 5950 C 561.662 4.47051 -2.93343 0
M  V30 5951 C 562.962 2.83648 -4.38567 0
M  V30 5952 H 564.656 1.38547 -2.65415 0
M  V30 5953 H 562.202 0.665082 -1.27721 0
M  V30 5954 H 564.155 3.72467 -1.97095 0
M  V30 5955 H 562.879 3.14793 -0.870209 0
M  V30 5956 H 561.538 2.32248 -2.83648 0
M  V30 5957 H 561.186 4.63547 -1.95276 0
M  V30 5958 H 560.886 4.55902 -3.70712 0
M  V30 5959 H 562.41 5.26304 -3.09575 0
M  V30 5960 H 563.824 3.50636 -4.53572 0
M  V30 5961 H 562.221 3.03937 -5.17438 0
M  V30 5962 H 563.291 1.79451 -4.50472 0
M  V30 5963 N 564.634 1.40294 0.718013 0
M  V30 5964 C 565.874 1.39888 1.49032 0
M  V30 5965 C 566.238 -0.000462935 1.92 0
M  V30 5966 O 567.439 -0.129622 2.68487 0
M  V30 5967 C 565.71 2.35868 2.68516 0
M  V30 5968 S 567.269 2.53799 3.57954 0
M  V30 5969 H 564.087 0.495849 0.509563 0
M  V30 5970 H 566.689 1.76541 0.839846 0
M  V30 5971 H 565.393 3.36375 2.35117 0
M  V30 5972 H 564.924 2.0049 3.38478 0
M  V30 5973 H 566.939 1.78859 4.62843 0
M  V30 5974 N 566.112 -0.949982 1.2575 0
M  V30 5975 C 567.389 -1.6718 1.01539 0
M  V30 5976 C 567.769 -2.06095 -0.456942 0
M  V30 5977 O 567.117 -1.77792 -1.43534 0
M  V30 5978 C 567.327 -2.8906 1.95564 0
M  V30 5979 C 568.675 -3.60909 2.23673 0
M  V30 5980 O 569.699 -2.9915 1.9336 0
M  V30 5981 O 568.558 -4.72127 2.75243 0
M  V30 5982 H 565.652 -0.731697 0.385419 0
M  V30 5983 H 568.198 -1.00249 1.36924 0
M  V30 5984 H 566.97 -2.57128 2.94959 0
M  V30 5985 H 566.593 -3.63719 1.60605 0
M  V30 5986 N 567.59 -1.07411 -1.15328 0
M  V30 5987 C 569.006 -0.799759 -1.38116 0
M  V30 5988 C 569.206 0.59572 -1.92493 0
M  V30 5989 O 568.262 1.35433 -2.13106 0
M  V30 5990 C 569.575 -1.87407 -2.35158 0
M  V30 5991 C 571.123 -1.89889 -2.48819 0
M  V30 5992 C 571.598 -2.96406 -3.49153 0
M  V30 5993 N 573.089 -2.95512 -3.56689 0
M  V30 5994 C 573.824 -3.74575 -4.34144 0
M  V30 5995 N 573.32 -4.63488 -5.14928 0
M  V30 5996 N 575.113 -3.62919 -4.29239 0
M  V30 5997 H 567.264 -1.97411 -0.78374 0
M  V30 5998 H 569.527 -0.856113 -0.407154 0
M  V30 5999 H 569.233 -2.8768 -2.0232 0
M  V30 6000 H 569.107 -1.73471 -3.34944 0
M  V30 6001 H 571.494 -0.902677 -2.80955 0
M  V30 6002 H 571.575 -2.07904 -1.49029 0
M  V30 6003 H 571.219 -3.96227 -3.17752 0
M  V30 6004 H 571.149 -2.75638 -4.48699 0
M  V30 6005 H 573.64 -2.31061 -2.99031 0
M  V30 6006 H 573.953 -5.20445 -5.71276 0
M  V30 6007 H 572.298 -4.67537 -5.14232 0
M  V30 6008 H 575.489 -2.92833 -3.65194 0
M  V30 6009 H 575.662 -4.24777 -4.89355 0
M  V30 6010 N 569.068 1.32177 -0.85831 0
M  V30 6011 C 570.018 2.26307 -0.277307 0
M  V30 6012 C 571.002 1.50123 0.578946 0
M  V30 6013 O 572.194 1.71754 0.427731 0
M  V30 6014 C 569.323 3.39181 0.530232 0
M  V30 6015 C 568.409 4.22746 -0.338613 0
M  V30 6016 N 568.8 4.85265 -1.4266 0
M  V30 6017 C 567.098 4.45813 -0.129 0
M  V30 6018 C 567.799 5.47634 -1.96142 0
M  V30 6019 N 566.775 5.28794 -1.26007 0
M  V30 6020 H 570.577 2.72173 -1.10902 0
M  V30 6021 H 568.091 1.46308 -0.704816 0
M  V30 6022 H 570.088 4.05628 0.962904 0
M  V30 6023 H 568.748 2.9486 1.35969 0
M  V30 6024 H 569.759 4.85259 -1.80953 0
M  V30 6025 H 566.436 4.12163 0.665451 0
M  V30 6026 H 567.826 6.0735 -2.8736 0
M  V30 6027 N 570.547 0.616602 1.45037 0
M  V30 6028 C 571.494 -0.0969439 2.30596 0
M  V30 6029 C 572.464 -0.851151 1.42635 0
M  V30 6030 O 573.649 -0.835092 1.71554 0
M  V30 6031 C 570.789 -1.08234 3.27688 0
M  V30 6032 C 569.902 -0.328072 4.30752 0
M  V30 6033 C 569.037 -1.30399 5.14946 0
M  V30 6034 C 568.076 -0.538049 6.09731 0
M  V30 6035 N 567.213 -1.46371 6.86673 0
M  V30 6036 H 572.053 0.63864 2.91076 0
M  V30 6037 H 569.59 0.326733 1.43425 0
M  V30 6038 H 571.548 -1.66688 3.82454 0
M  V30 6039 H 570.178 -1.78523 2.68941 0
M  V30 6040 H 569.23 0.372136 3.78575 0
M  V30 6041 H 570.542 0.269142 4.98073 0
M  V30 6042 H 569.696 -1.96032 5.74157 0
M  V30 6043 H 568.435 -1.93514 4.47665 0
M  V30 6044 H 567.44 0.131852 5.49642 0
M  V30 6045 H 568.665 0.0881732 6.79043 0
M  V30 6046 H 566.611 -2.08233 6.22073 0
M  V30 6047 H 566.528 -0.920152 7.50379 0
M  V30 6048 H 567.796 -2.10932 7.50418 0
M  V30 6049 N 572.025 -1.5352 0.356285 0
M  V30 6050 C 573.441 -1.59599 0.00485267 0
M  V30 6051 C 573.641 -1.37179 -1.47595 0
M  V30 6052 O 572.697 -1.17234 -2.23635 0
M  V30 6053 C 574.01 -2.97277 0.452454 0
M  V30 6054 C 575.558 -3.10357 0.405881 0
M  V30 6055 C 576.033 -4.50432 0.829148 0
M  V30 6056 N 577.524 -4.5652 0.783838 0
M  V30 6057 C 578.259 -5.63077 1.08315 0
M  V30 6058 N 577.755 -6.77429 1.45126 0
M  V30 6059 N 579.548 -5.53014 1.00655 0
M  V30 6060 H 571.699 -1.66346 1.32071 0
M  V30 6061 H 573.962 -0.77971 0.539218 0
M  V30 6062 H 573.668 -3.18792 1.48542 0
M  V30 6063 H 573.542 -3.76836 -0.165762 0
M  V30 6064 H 575.929 -2.88558 -0.617934 0
M  V30 6065 H 576.01 -2.32828 1.05947 0
M  V30 6066 H 575.654 -4.72968 1.85103 0
M  V30 6067 H 575.584 -5.26378 0.152906 0
M  V30 6068 H 578.075 -3.74408 0.512513 0
M  V30 6069 H 578.388 -7.54669 1.66415 0
M  V30 6070 H 576.733 -6.78844 1.48983 0
M  V30 6071 H 579.924 -4.62557 0.718215 0
M  V30 6072 H 580.097 -6.35964 1.24315 0
M  V30 6073 N 573.503 -0.0852151 -1.57369 0
M  V30 6074 C 574.453 0.88767 -2.10011 0
M  V30 6075 C 575.437 1.25021 -1.01285 0
M  V30 6076 O 576.629 1.22694 -1.27574 0
M  V30 6077 C 573.758 2.15037 -2.67608 0
M  V30 6078 C 572.844 1.81371 -3.83361 0
M  V30 6079 N 573.235 1.18216 -4.91791 0
M  V30 6080 C 571.533 2.11041 -3.92909 0
M  V30 6081 C 572.234 1.02941 -5.72519 0
M  V30 6082 N 571.21 1.54351 -5.21226 0
M  V30 6083 H 575.012 0.395279 -2.9123 0
M  V30 6084 H 572.526 0.11829 -1.61969 0
M  V30 6085 H 574.523 2.85667 -3.03644 0
M  V30 6086 H 573.183 2.64851 -1.8784 0
M  V30 6087 H 574.194 0.850168 -5.10874 0
M  V30 6088 H 570.871 2.63138 -3.24136 0
M  V30 6089 H 572.261 0.536298 -6.69756 0
M  V30 6090 N 574.981 1.5647 0.188427 0
M  V30 6091 C 575.928 1.95073 1.23349 0
M  V30 6092 C 576.898 0.812238 1.44886 0
M  V30 6093 O 578.083 1.07095 1.57909 0
M  V30 6094 C 575.223 2.30124 2.57171 0
M  V30 6095 C 574.336 3.57069 2.43157 0
M  V30 6096 C 573.471 3.81411 3.69729 0
M  V30 6097 C 572.51 5.0176 3.50575 0
M  V30 6098 N 571.647 5.22321 4.69175 0
M  V30 6099 H 576.487 2.84171 0.89728 0
M  V30 6100 H 574.024 1.40623 0.431683 0
M  V30 6101 H 575.982 2.48463 3.35145 0
M  V30 6102 H 574.612 1.44159 2.88822 0
M  V30 6103 H 573.664 3.4674 1.56447 0
M  V30 6104 H 574.976 4.452 2.24942 0
M  V30 6105 H 574.13 4.00026 4.56141 0
M  V30 6106 H 572.869 2.91624 3.90905 0
M  V30 6107 H 571.874 4.83061 2.62549 0
M  V30 6108 H 573.099 5.93063 3.30837 0
M  V30 6109 H 571.045 4.35483 4.90602 0
M  V30 6110 H 570.962 6.04643 4.53809 0
M  V30 6111 H 572.23 5.45401 5.56919 0
M  V30 6112 N 576.459 -0.456382 1.50847 0
M  V30 6113 C 577.687 -1.23026 1.66349 0
M  V30 6114 C 578.102 -1.85473 0.352868 0
M  V30 6115 O 577.459 -1.69885 -0.666739 0
M  V30 6116 C 577.51 -2.32827 2.76539 0
M  V30 6117 O 577.231 -1.72938 4.02522 0
M  V30 6118 C 578.732 -3.23448 3.03144 0
M  V30 6119 H 575.952 -0.371527 0.558756 0
M  V30 6120 H 578.496 -0.543082 1.97157 0
M  V30 6121 H 576.651 -2.97294 2.48384 0
M  V30 6122 H 577.065 -2.45357 4.63573 0
M  V30 6123 H 578.539 -3.96669 3.83872 0
M  V30 6124 H 579.016 -3.83094 2.14793 0
M  V30 6125 H 579.622 -2.64702 3.32886 0
M  V30 6126 N 577.937 -1.40673 -0.710563 0
M  V30 6127 C 578.867 -1.44095 -1.83736 0
M  V30 6128 C 579.848 -0.301286 -1.67411 0
M  V30 6129 O 581.033 -0.510618 -1.87367 0
M  V30 6130 C 578.163 -1.30773 -3.21738 0
M  V30 6131 C 577.117 -2.42395 -3.52745 0
M  V30 6132 C 576.443 -2.14147 -4.89944 0
M  V30 6133 C 577.743 -3.84738 -3.53234 0
M  V30 6134 H 579.437 -2.38396 -1.81129 0
M  V30 6135 H 576.983 -1.14746 -0.870017 0
M  V30 6136 H 578.936 -1.31783 -4.00264 0
M  V30 6137 H 577.66 -0.329507 -3.24934 0
M  V30 6138 H 576.319 -2.40643 -2.76562 0
M  V30 6139 H 575.967 -1.14703 -4.89747 0
M  V30 6140 H 575.667 -2.88934 -5.11655 0
M  V30 6141 H 577.191 -2.16848 -5.70797 0
M  V30 6142 H 578.605 -3.88286 -4.2179 0
M  V30 6143 H 577.002 -4.59085 -3.86473 0
M  V30 6144 H 578.072 -4.13962 -2.52514 0
M  V30 6145 N 579.415 0.9433 -1.26252 0
M  V30 6146 C 580.831 1.21644 -1.03319 0
M  V30 6147 C 581.031 2.0003 0.242983 0
M  V30 6148 O 580.087 2.33838 0.952688 0
M  V30 6149 C 581.4 1.97978 -2.2633 0
M  V30 6150 C 582.948 2.10978 -2.31209 0
M  V30 6151 C 583.423 2.90713 -3.53907 0
M  V30 6152 N 584.914 2.98287 -3.54371 0
M  V30 6153 C 585.649 3.60406 -4.45976 0
M  V30 6154 N 585.145 4.24043 -5.47868 0
M  V30 6155 N 586.938 3.57658 -4.33633 0
M  V30 6156 H 579.089 0.419221 -2.08222 0
M  V30 6157 H 581.352 0.247995 -0.914988 0
M  V30 6158 H 581.058 1.47788 -3.19142 0
M  V30 6159 H 580.932 2.9865 -2.30408 0
M  V30 6160 H 583.319 2.6036 -1.38913 0
M  V30 6161 H 583.4 1.09575 -2.31143 0
M  V30 6162 H 583.044 2.42018 -4.46531 0
M  V30 6163 H 582.974 3.92367 -3.5122 0
M  V30 6164 H 585.465 2.53044 -2.80673 0
M  V30 6165 H 585.778 4.69334 -6.13959 0
M  V30 6166 H 584.123 4.22637 -5.51728 0
M  V30 6167 H 587.314 3.07134 -3.53251 0
M  V30 6168 H 587.487 4.05782 -5.05218 0
M  V30 6169 N 580.893 1.08022 1.14757 0
M  V30 6170 C 581.823 0.728248 2.21853 0
M  V30 6171 C 582.804 -0.287486 1.67653 0
M  V30 6172 O 583.989 -0.158727 1.9355 0
M  V30 6173 C 581.119 0.132549 3.47047 0
M  V30 6174 C 580.073 1.07619 4.14249 0
M  V30 6175 C 579.399 0.342907 5.33599 0
M  V30 6176 C 580.699 2.41268 4.63235 0
M  V30 6177 H 582.393 1.62365 2.51551 0
M  V30 6178 H 579.939 0.782125 1.20908 0
M  V30 6179 H 581.892 -0.125665 4.21213 0
M  V30 6180 H 580.616 -0.797971 3.16702 0
M  V30 6181 H 579.275 1.31944 3.42033 0
M  V30 6182 H 578.923 -0.59129 4.99513 0
M  V30 6183 H 578.623 0.971955 5.79506 0
M  V30 6184 H 580.147 0.0926538 6.1053 0
M  V30 6185 H 581.561 2.21232 5.28894 0
M  V30 6186 H 579.958 2.9983 5.19829 0
M  V30 6187 H 581.028 3.03079 3.78512 0
M  V30 6188 N 582.371 -1.3172 0.865308 0
M  V30 6189 C 583.619 -1.96487 0.472995 0
M  V30 6190 C 583.94 -1.68761 -0.976975 0
M  V30 6191 O 583.21 -1.00051 -1.68424 0
M  V30 6192 H 581.79 -0.726947 0.171922 0
M  V30 6193 H 584.452 -1.60612 1.10407 0
M  V30 6194 H 583.548 -3.0574 0.62687 0
M  V30 6195 N 583.85 -0.624285 -1.44708 0
M  V30 6196 C 584.812 0.0749638 -2.29077 0
M  V30 6197 C 585.812 0.778965 -1.40673 0
M  V30 6198 O 587.003 0.624591 -1.62618 0
M  V30 6199 C 584.135 1.11663 -3.22094 0
M  V30 6200 H 585.327 -0.667013 -2.92388 0
M  V30 6201 H 582.88 -0.384098 -1.51507 0
M  V30 6202 H 583.615 1.88881 -2.63618 0
M  V30 6203 H 583.401 0.61583 -3.87234 0
M  V30 6204 H 584.891 1.60585 -3.8549 0
M  V30 6205 N 585.328 1.53329 -0.364422 0
M  V30 6206 C 586.258 2.28627 0.474543 0
M  V30 6207 C 587.239 1.31009 1.08492 0
M  V30 6208 O 588.424 1.59878 1.10239 0
M  V30 6209 C 585.554 3.07465 1.61501 0
M  V30 6210 C 584.508 4.1276 1.13194 0
M  V30 6211 C 583.834 4.79674 2.36255 0
M  V30 6212 C 585.134 5.21847 0.217507 0
M  V30 6213 H 586.828 2.99005 -0.153656 0
M  V30 6214 H 584.374 1.43803 -0.0753406 0
M  V30 6215 H 586.327 3.58889 2.20855 0
M  V30 6216 H 585.051 2.34775 2.27042 0
M  V30 6217 H 583.71 3.62281 0.56109 0
M  V30 6218 H 583.358 4.03557 3.00251 0
M  V30 6219 H 583.058 5.50827 2.04606 0
M  V30 6220 H 584.582 5.33892 2.96297 0
M  V30 6221 H 585.996 5.6878 0.718493 0
M  V30 6222 H 584.393 6.00099 -0.00806408 0
M  V30 6223 H 585.463 4.7921 -0.740653 0
M  V30 6224 N 586.806 0.0935595 1.57322 0
M  V30 6225 C 588.217 -0.435807 1.81542 0
M  V30 6226 C 588.568 -1.68263 1.00907 0
M  V30 6227 O 587.693 -2.15087 0.237983 0
M  V30 6228 C 588.288 -0.797436 3.29282 0
M  V30 6229 C 586.847 -1.27155 3.54272 0
M  V30 6230 C 585.994 -0.267455 2.76007 0
M  V30 6231 H 588.945 0.31902 1.5546 0
M  V30 6232 H 588.966 -1.6571 3.42521 0
M  V30 6233 H 588.478 0.110206 3.87943 0
M  V30 6234 H 586.579 -2.19696 3.00939 0
M  V30 6235 H 586.692 -1.23445 4.62923 0
M  V30 6236 H 585.056 -0.749282 2.43429 0
M  V30 6237 H 585.839 0.632839 3.37417 0
M  V30 6238 N 588.284 -1.56567 -0.180126 0
M  V30 6239 C 589.509 -1.85975 -0.918041 0
M  V30 6240 C 589.934 -0.678888 -1.75422 0
M  V30 6241 O 589.292 0.372168 -1.77439 0
M  V30 6242 C 589.34 -3.13731 -1.77779 0
M  V30 6243 O 588.444 -2.95335 -2.87838 0
M  V30 6244 H 587.785 -0.61196 -0.257683 0
M  V30 6245 H 590.315 -2.03798 -0.180923 0
M  V30 6246 H 590.325 -3.4491 -2.17948 0
M  V30 6247 H 589 -3.99293 -1.16352 0
M  V30 6248 H 587.577 -2.7549 -2.51316 0
M  V30 6249 N 589.762 0.448376 -1.51087 0
M  V30 6250 C 590.695 1.56298 -1.66272 0
M  V30 6251 C 591.673 1.54381 -0.510419 0
M  V30 6252 O 592.857 1.73671 -0.732854 0
M  V30 6253 C 589.984 2.94883 -1.66618 0
M  V30 6254 C 589.03 3.14868 -2.87681 0
M  V30 6255 S 589.863 2.9234 -4.48662 0
M  V30 6256 C 591.019 4.33227 -4.51735 0
M  V30 6257 H 591.252 1.43182 -2.6055 0
M  V30 6258 H 588.785 0.637309 -1.40633 0
M  V30 6259 H 590.743 3.74771 -1.67502 0
M  V30 6260 H 589.404 3.05371 -0.735358 0
M  V30 6261 H 588.597 4.16166 -2.84292 0
M  V30 6262 H 588.199 2.42788 -2.84482 0
M  V30 6263 H 590.491 5.26247 -4.26697 0
M  V30 6264 H 591.434 4.41653 -5.53487 0
M  V30 6265 H 591.842 4.16367 -3.81181 0
M  V30 6266 N 591.24 1.41047 0.703093 0
M  V30 6267 C 592.651 1.35657 1.28274 0
M  V30 6268 C 593.002 0.0360309 1.96167 0
M  V30 6269 O 592.127 -0.865833 1.98324 0
M  V30 6270 C 592.722 2.45707 2.33267 0
M  V30 6271 C 591.281 2.43738 2.86825 0
M  V30 6272 C 590.428 2.25941 1.60767 0
M  V30 6273 H 593.379 1.50672 0.49836 0
M  V30 6274 H 593.4 2.14333 3.14391 0
M  V30 6275 H 592.912 3.41805 1.83824 0
M  V30 6276 H 591.013 1.51375 3.40465 0
M  V30 6277 H 591.126 3.39779 3.37768 0
M  V30 6278 H 589.49 1.73681 1.86298 0
M  V30 6279 H 590.273 3.24054 1.1333 0
M  V30 6280 N 592.718 -0.936591 1.26751 0
M  V30 6281 C 594.134 -1.21095 1.03963 0
M  V30 6282 C 594.334 -2.00156 -0.232372 0
M  V30 6283 O 593.39 -2.3434 -0.940274 0
M  V30 6284 C 594.703 -1.96775 2.27377 0
M  V30 6285 C 596.251 -2.09749 2.32324 0
M  V30 6286 C 596.726 -2.88832 3.55443 0
M  V30 6287 N 598.217 -2.96404 3.55948 0
M  V30 6288 C 598.952 -3.58036 4.47881 0
M  V30 6289 N 598.448 -4.21132 5.50109 0
M  V30 6290 N 600.241 -3.55353 4.35523 0
M  V30 6291 H 592.392 -0.408173 2.08441 0
M  V30 6292 H 594.655 -0.243139 0.91629 0
M  V30 6293 H 594.361 -1.46094 3.19921 0
M  V30 6294 H 594.235 -2.97424 2.31989 0
M  V30 6295 H 596.622 -2.5962 1.40291 0
M  V30 6296 H 596.703 -1.08347 2.31721 0
M  V30 6297 H 596.347 -2.39647 4.47808 0
M  V30 6298 H 596.277 -3.90499 3.53296 0
M  V30 6299 H 598.768 -2.51552 2.82011 0
M  V30 6300 H 599.081 -4.66071 6.16439 0
M  V30 6301 H 597.426 -4.19705 5.53961 0
M  V30 6302 H 600.617 -3.05256 3.54875 0
M  V30 6303 H 600.79 -4.03097 5.07363 0
M  V30 6304 N 594.196 -1.08629 -1.14182 0
M  V30 6305 C 595.159 -0.722027 -2.1753 0
M  V30 6306 C 596.159 0.244305 -1.58933 0
M  V30 6307 O 597.349 0.0235545 -1.74184 0
M  V30 6308 C 594.481 -0.0663966 -3.40835 0
M  V30 6309 H 595.674 -1.63719 -2.51269 0
M  V30 6310 H 593.227 -0.884442 -1.28869 0
M  V30 6311 H 593.962 0.860389 -3.12678 0
M  V30 6312 H 593.747 -0.761598 -3.84632 0
M  V30 6313 H 595.237 0.173346 -4.1724 0
M  V30 6314 N 595.674 1.31259 -0.872281 0
M  V30 6315 C 596.604 2.30929 -0.345554 0
M  V30 6316 C 597.585 1.60449 0.5648 0
M  V30 6317 O 598.77 1.8814 0.481335 0
M  V30 6318 C 595.9 3.44348 0.451823 0
M  V30 6319 C 594.854 4.26435 -0.365641 0
M  V30 6320 C 594.18 5.31785 0.557562 0
M  V30 6321 C 595.48 4.97159 -1.60095 0
M  V30 6322 H 597.174 2.75234 -1.17841 0
M  V30 6323 H 594.72 1.3232 -0.568094 0
M  V30 6324 H 596.673 4.13128 0.830854 0
M  V30 6325 H 595.397 2.98816 1.31821 0
M  V30 6326 H 594.056 3.59326 -0.726649 0
M  V30 6327 H 593.704 4.82502 1.4213 0
M  V30 6328 H 593.404 5.87598 0.0144878 0
M  V30 6329 H 594.928 6.03424 0.933387 0
M  V30 6330 H 596.342 5.58523 -1.29323 0
M  V30 6331 H 594.739 5.62779 -2.08327 0
M  V30 6332 H 595.809 4.24012 -2.35249 0
M  V30 6333 N 597.152 0.631951 1.44375 0
M  V30 6334 C 598.115 -0.0628142 2.29114 0
M  V30 6335 C 599.115 -0.771494 1.41084 0
M  V30 6336 O 600.305 -0.615959 1.62947 0
M  V30 6337 C 597.437 -1.09953 3.22681 0
M  V30 6338 H 598.63 0.682509 2.92031 0
M  V30 6339 H 596.183 0.392128 1.51301 0
M  V30 6340 H 596.918 -1.87481 2.64616 0
M  V30 6341 H 596.703 -0.595286 3.87555 0
M  V30 6342 H 598.193 -1.58538 3.86336 0
M  V30 6343 N 598.631 -1.53133 0.372548 0
M  V30 6344 C 599.878 -2.01356 -0.214959 0
M  V30 6345 C 600.206 -1.2596 -1.48204 0
M  V30 6346 O 599.461 -0.343511 -1.92662 0
M  V30 6347 C 599.76 -3.53206 -0.545938 0
M  V30 6348 C 599.426 -4.46511 0.627624 0
M  V30 6349 C 598.088 -4.71737 0.949615 0
M  V30 6350 C 600.44 -5.01666 1.41353 0
M  V30 6351 C 597.768 -5.4937 2.05936 0
M  V30 6352 C 600.12 -5.80511 2.51375 0
M  V30 6353 C 598.784 -6.04022 2.84101 0
M  V30 6354 H 598.054 -0.736813 -0.078659 0
M  V30 6355 H 600.701 -1.84682 0.506447 0
M  V30 6356 H 599.006 -3.67864 -1.34845 0
M  V30 6357 H 600.703 -3.87997 -1.01287 0
M  V30 6358 H 597.293 -4.27029 0.366635 0
M  V30 6359 H 601.477 -4.82117 1.17802 0
M  V30 6360 H 596.733 -5.65803 2.31682 0
M  V30 6361 H 600.907 -6.22255 3.12684 0
M  V30 6362 H 598.534 -6.63962 3.70214 0
M  V30 6363 N 600.109 -0.101901 -1.5727 0
M  V30 6364 C 601.041 0.884723 -2.11436 0
M  V30 6365 C 602.054 1.24149 -1.05314 0
M  V30 6366 O 603.243 1.19341 -1.3274 0
M  V30 6367 C 600.343 2.19179 -2.58484 0
M  V30 6368 C 599.516 2.00933 -3.88516 0
M  V30 6369 C 598.575 3.15213 -4.2134 0
M  V30 6370 O 597.601 2.88877 -4.90448 0
M  V30 6371 N 598.803 4.41174 -3.77288 0
M  V30 6372 H 601.568 0.422058 -2.96713 0
M  V30 6373 H 599.129 0.0830128 -1.61687 0
M  V30 6374 H 601.121 2.94593 -2.77484 0
M  V30 6375 H 599.691 2.56847 -1.7818 0
M  V30 6376 H 598.911 1.09809 -3.78597 0
M  V30 6377 H 600.199 1.86026 -4.73573 0
M  V30 6378 H 599.597 4.6545 -3.21516 0
M  V30 6379 H 598.154 5.13515 -4.01429 0
M  V30 6380 N 601.587 1.56661 0.17182 0
M  V30 6381 C 602.55 1.9549 1.19651 0
M  V30 6382 C 603.55 0.838501 1.37207 0
M  V30 6383 O 604.74 1.10556 1.34622 0
M  V30 6384 C 601.872 2.24927 2.56166 0
M  V30 6385 H 603.065 2.87184 0.864007 0
M  V30 6386 H 600.618 1.50711 0.41425 0
M  V30 6387 H 601.353 1.35944 2.94431 0
M  V30 6388 H 601.138 3.06301 2.4479 0
M  V30 6389 H 602.628 2.55891 3.30014 0
M  V30 6390 N 603.065 -0.440357 1.51323 0
M  V30 6391 C 604.476 -1.02032 1.56353 0
M  V30 6392 C 604.827 -1.92382 0.385197 0
M  V30 6393 O 603.952 -2.10583 -0.498373 0
M  V30 6394 C 604.547 -1.85723 2.83359 0
M  V30 6395 C 603.106 -2.38774 2.90971 0
M  V30 6396 C 602.253 -1.17908 2.50984 0
M  V30 6397 H 605.204 -0.221744 1.57143 0
M  V30 6398 H 605.225 -2.71141 2.66951 0
M  V30 6399 H 604.737 -1.19939 3.69102 0
M  V30 6400 H 602.838 -3.08021 2.09651 0
M  V30 6401 H 602.951 -2.71778 3.94555 0
M  V30 6402 H 601.315 -1.52347 2.04114 0
M  V30 6403 H 602.098 -0.537393 3.39068 0
M  V30 6404 N 604.543 -1.41418 -0.695603 0
M  V30 6405 C 605.789 -1.40982 -1.4578 0
M  V30 6406 C 606.122 -0.0187763 -1.94191 0
M  V30 6407 O 605.397 0.95346 -1.69527 0
M  V30 6408 C 605.68 -2.41657 -2.66972 0
M  V30 6409 C 605.533 -3.89869 -2.24327 0
M  V30 6410 C 606.852 -2.39589 -3.69168 0
M  V30 6411 H 603.971 -0.513405 -0.528757 0
M  V30 6412 H 606.613 -1.72693 -0.792275 0
M  V30 6413 H 604.763 -2.14746 -3.23754 0
M  V30 6414 H 606.435 -4.27683 -1.72872 0
M  V30 6415 H 604.678 -4.04737 -1.56111 0
M  V30 6416 H 605.349 -4.55857 -3.11285 0
M  V30 6417 H 607.825 -2.63471 -3.2206 0
M  V30 6418 H 606.701 -3.12044 -4.51575 0
M  V30 6419 H 606.962 -1.41447 -4.18862 0
M  V30 6420 N 606.021 0.929856 -1.27246 0
M  V30 6421 C 606.969 2.05151 -1.09616 0
M  V30 6422 C 607.963 1.69388 -0.0198617 0
M  V30 6423 O 609.169 1.79124 -0.177417 0
M  V30 6424 H 605.544 0.671909 -0.337701 0
M  V30 6425 H 607.515 2.17168 -2.04648 0
M  V30 6426 C 606.264 3.3934 -0.757851 0
M  V30 6427 H 605.587 3.67343 -1.57795 0
M  V30 6428 H 607.027 4.18603 -0.674358 0
M  V30 6429 C 605.486 3.32582 0.537658 0
M  V30 6430 O 606.016 3.69633 1.57271 0
M  V30 6431 N 604.222 2.8568 0.532478 0
M  V30 6432 H 603.769 2.55725 -0.310233 0
M  V30 6433 H 603.727 2.81541 1.39936 0
M  V30 6434 N 607.499 1.09233 1.13605 0
M  V30 6435 C 608.748 0.82205 1.84188 0
M  V30 6436 C 609.061 -0.654548 1.84323 0
M  V30 6437 O 610.267 -1.04029 2.50779 0
M  V30 6438 C 608.723 1.42066 3.30674 0
M  V30 6439 C 608.331 2.92965 3.38933 0
M  V30 6440 C 610.075 1.22924 4.06313 0
M  V30 6441 C 607.982 3.45922 4.79679 0
M  V30 6442 H 606.912 0.303854 0.690064 0
M  V30 6443 H 609.563 1.31479 1.28006 0
M  V30 6444 H 607.945 0.855613 3.86646 0
M  V30 6445 H 609.119 3.55679 2.92966 0
M  V30 6446 H 607.434 3.11118 2.76757 0
M  V30 6447 H 610.031 1.59945 5.10217 0
M  V30 6448 H 610.374 0.169726 4.15954 0
M  V30 6449 H 610.907 1.76168 3.56665 0
M  V30 6450 H 607.646 4.51484 4.75229 0
M  V30 6451 H 607.166 2.87971 5.26149 0
M  V30 6452 H 608.845 3.43009 5.48592 0
M  V30 6453 N 608.977 -1.30795 0.87923 0
M  V30 6454 C 609.909 -2.27241 0.299025 0
M  V30 6455 C 610.922 -1.53472 -0.543166 0
M  V30 6456 O 612.111 -1.74756 -0.363651 0
M  V30 6457 C 609.211 -3.33655 -0.593931 0
M  V30 6458 C 608.384 -4.36857 0.2179 0
M  V30 6459 C 607.443 -5.22715 -0.604646 0
M  V30 6460 O 606.469 -5.69192 -0.0293838 0
M  V30 6461 N 607.671 -5.48008 -1.91488 0
M  V30 6462 H 610.436 -2.77667 1.12788 0
M  V30 6463 H 607.997 -1.43914 0.741637 0
M  V30 6464 H 609.989 -3.88013 -1.15012 0
M  V30 6465 H 608.559 -2.83202 -1.32346 0
M  V30 6466 H 607.779 -3.82444 0.955536 0
M  V30 6467 H 609.067 -5.02869 0.774614 0
M  V30 6468 H 608.465 -5.1202 -2.40525 0
M  V30 6469 H 607.022 -6.05264 -2.41864 0
M  V30 6470 N 610.455 -0.639598 -1.44038 0
M  V30 6471 C 611.418 0.0506628 -2.29144 0
M  V30 6472 C 612.418 0.764001 -1.41491 0
M  V30 6473 O 613.608 0.607309 -1.63271 0
M  V30 6474 C 610.74 1.0824 -3.2326 0
M  V30 6475 H 611.933 -0.697987 -2.91664 0
M  V30 6476 H 609.486 -0.400146 -1.51091 0
M  V30 6477 H 610.221 1.86075 -2.65606 0
M  V30 6478 H 610.006 0.574725 -3.87865 0
M  V30 6479 H 611.496 1.56487 -3.87171 0
M  V30 6480 N 611.933 1.52934 -0.380664 0
M  V30 6481 C 612.843 2.29921 0.466192 0
M  V30 6482 C 613.859 1.36488 1.07922 0
M  V30 6483 O 615.035 1.69553 1.0869 0
M  V30 6484 C 612.1 3.08468 1.58266 0
M  V30 6485 C 611.161 4.17595 0.995627 0
M  V30 6486 C 610.394 4.92387 2.05889 0
M  V30 6487 O 610.617 4.67184 3.27254 0
M  V30 6488 O 609.551 5.77949 1.68102 0
M  V30 6489 H 613.377 3.03274 -0.160735 0
M  V30 6490 H 610.962 1.48698 -0.144617 0
M  V30 6491 H 612.844 3.57469 2.23145 0
M  V30 6492 H 611.519 2.37937 2.19471 0
M  V30 6493 H 610.426 3.72811 0.310332 0
M  V30 6494 H 611.759 4.90336 0.427918 0
M  V30 6495 N 613.412 0.11024 1.57214 0
M  V30 6496 C 614.344 -0.873497 2.11902 0
M  V30 6497 C 615.357 -1.23588 1.05971 0
M  V30 6498 O 616.546 -1.18636 1.33371 0
M  V30 6499 C 613.646 -2.17805 2.59643 0
M  V30 6500 C 612.819 -1.98869 3.89576 0
M  V30 6501 C 611.878 -3.12974 4.23006 0
M  V30 6502 O 610.904 -2.86272 4.91973 0
M  V30 6503 N 612.106 -4.39167 3.79622 0
M  V30 6504 H 614.871 -0.406317 2.96933 0
M  V30 6505 H 612.432 -0.074437 1.61729 0
M  V30 6506 H 614.424 -2.93117 2.79042 0
M  V30 6507 H 612.994 -2.55899 1.7954 0
M  V30 6508 H 612.214 -1.078 3.79174 0
M  V30 6509 H 613.502 -1.83512 4.74553 0
M  V30 6510 H 612.9 -4.63739 3.2398 0
M  V30 6511 H 611.457 -5.11379 4.04147 0
M  V30 6512 N 614.89 -1.56749 -0.16351 0
M  V30 6513 C 615.853 -1.96121 -1.18613 0
M  V30 6514 C 616.853 -0.845765 -1.36761 0
M  V30 6515 O 618.043 -1.11268 -1.34033 0
M  V30 6516 C 615.175 -2.26282 -2.54969 0
M  V30 6517 H 616.368 -2.87639 -0.848764 0
M  V30 6518 H 613.921 -1.50928 -0.406251 0
M  V30 6519 H 614.656 -1.37504 -2.93706 0
M  V30 6520 H 614.441 -3.07595 -2.43162 0
M  V30 6521 H 615.931 -2.57638 -3.28653 0
M  V30 6522 N 616.368 0.432326 -1.51554 0
M  V30 6523 C 617.616 1.17901 -1.64146 0
M  V30 6524 C 617.937 1.91604 -0.362367 0
M  V30 6525 O 617.207 1.85764 0.621968 0
M  V30 6526 H 615.787 0.438206 -0.604966 0
M  V30 6527 H 618.449 0.495172 -1.88505 0
M  V30 6528 H 617.545 1.90584 -2.47152 0
M  V30 6529 N 617.846 1.41785 0.688094 0
M  V30 6530 C 619.074 1.44915 1.47673 0
M  V30 6531 C 619.489 0.0565786 1.88715 0
M  V30 6532 O 618.846 -0.92579 1.57275 0
M  V30 6533 C 618.897 2.36452 2.73446 0
M  V30 6534 O 618.618 3.7029 2.34131 0
M  V30 6535 C 620.119 2.48463 3.67125 0
M  V30 6536 H 617.339 0.493324 0.454832 0
M  V30 6537 H 619.883 1.86153 0.846594 0
M  V30 6538 H 618.038 1.98502 3.3268 0
M  V30 6539 H 618.452 4.19183 3.15255 0
M  V30 6540 H 619.926 3.16662 4.52138 0
M  V30 6541 H 620.403 1.51826 4.12123 0
M  V30 6542 H 621.009 2.8708 3.13792 0
M  V30 6543 N 619.324 -0.923095 1.27737 0
M  V30 6544 C 620.287 -2.00587 1.10894 0
M  V30 6545 C 621.287 -1.60718 0.0514927 0
M  V30 6546 O 622.477 -1.71658 0.296481 0
M  V30 6547 C 619.609 -3.33829 0.690717 0
M  V30 6548 H 620.802 -2.16959 2.07048 0
M  V30 6549 H 618.355 -1.10451 1.1059 0
M  V30 6550 H 619.09 -3.23157 -0.272 0
M  V30 6551 H 618.875 -3.64125 1.45448 0
M  V30 6552 H 620.365 -4.13336 0.595252 0
M  V30 6553 N 620.802 -1.09834 -1.13024 0
M  V30 6554 C 621.735 -0.685453 -2.17662 0
M  V30 6555 C 622.713 0.310142 -1.59615 0
M  V30 6556 O 623.897 0.21052 -1.87321 0
M  V30 6557 C 621.024 -0.0104476 -3.38698 0
M  V30 6558 C 620.07 -0.968522 -4.15358 0
M  V30 6559 S 620.903 -2.48272 -4.74469 0
M  V30 6560 C 622.059 -1.82025 -5.98847 0
M  V30 6561 H 622.292 -1.57187 -2.52348 0
M  V30 6562 H 619.825 -0.914728 -1.24387 0
M  V30 6563 H 621.783 0.372694 -4.08805 0
M  V30 6564 H 620.444 0.852673 -3.02305 0
M  V30 6565 H 619.637 -0.443373 -5.02046 0
M  V30 6566 H 619.239 -1.29327 -3.50928 0
M  V30 6567 H 621.531 -1.14678 -6.67724 0
M  V30 6568 H 622.474 -2.66645 -6.55977 0
M  V30 6569 H 622.882 -1.2874 -5.49624 0
M  V30 6570 N 622.28 1.30327 -0.886154 0
M  V30 6571 C 623.228 2.30052 -0.343317 0
M  V30 6572 C 624.222 1.60212 0.550305 0
M  V30 6573 O 625.428 1.74674 0.434609 0
M  V30 6574 H 621.803 0.746306 -0.0923681 0
M  V30 6575 H 623.774 2.73294 -1.19804 0
M  V30 6576 C 622.523 3.45079 0.426107 0
M  V30 6577 H 621.846 3.99003 -0.25227 0
M  V30 6578 H 623.286 4.16931 0.771009 0
M  V30 6579 C 621.745 2.95195 1.62363 0
M  V30 6580 O 622.275 2.95323 2.723 0
M  V30 6581 N 620.481 2.51192 1.4612 0
M  V30 6582 H 620.028 2.51286 0.566832 0
M  V30 6583 H 619.986 2.18173 2.2638 0
M  V30 6584 N 623.758 0.647228 1.43697 0
M  V30 6585 C 625.007 0.155552 2.01099 0
M  V30 6586 C 625.32 -1.23569 1.51624 0
M  V30 6587 O 626.526 -1.82226 2.01261 0
M  V30 6588 C 624.982 0.227296 3.59182 0
M  V30 6589 C 624.59 1.62086 4.17651 0
M  V30 6590 C 626.334 -0.207085 4.23995 0
M  V30 6591 C 624.241 1.64685 5.68008 0
M  V30 6592 H 623.171 0.0543895 0.752036 0
M  V30 6593 H 625.822 0.808386 1.64734 0
M  V30 6594 H 624.204 -0.492937 3.9292 0
M  V30 6595 H 625.378 2.36597 3.95422 0
M  V30 6596 H 623.693 2.0007 3.65186 0
M  V30 6597 H 626.29 -0.207426 5.34298 0
M  V30 6598 H 626.633 -1.23742 3.97484 0
M  V30 6599 H 627.166 0.461193 3.95118 0
M  V30 6600 H 623.905 2.65608 5.99277 0
M  V30 6601 H 623.425 0.944914 5.9231 0
M  V30 6602 H 625.104 1.38792 6.31938 0
M  V30 6603 N 625.236 -1.5273 0.388769 0
M  V30 6604 C 626.461 -2.0647 -0.19621 0
M  V30 6605 C 626.886 -1.25865 -1.39784 0
M  V30 6606 O 626.244 -0.283562 -1.79069 0
M  V30 6607 C 626.292 -3.56456 -0.5451 0
M  V30 6608 O 625.396 -3.78426 -1.63912 0
M  V30 6609 H 624.737 -0.663599 -0.023067 0
M  V30 6610 H 627.267 -1.96898 0.556084 0
M  V30 6611 H 627.277 -3.99888 -0.809557 0
M  V30 6612 H 625.952 -4.14561 0.333417 0
M  V30 6613 H 624.529 -3.46884 -1.36842 0
M  V30 6614 N 626.714 -0.118576 -1.57153 0
M  V30 6615 C 627.96 0.540326 -1.95469 0
M  V30 6616 C 628.293 1.66356 -1.00196 0
M  V30 6617 O 627.568 1.94461 -0.039104 0
M  V30 6618 C 627.851 1.07342 -3.43729 0
M  V30 6619 C 627.704 -0.0463732 -4.49776 0
M  V30 6620 C 629.023 1.96442 -3.93826 0
M  V30 6621 H 626.142 0.19494 -0.710751 0
M  V30 6622 H 628.784 -0.19405 -1.89006 0
M  V30 6623 H 626.934 1.69925 -3.49368 0
M  V30 6624 H 628.606 -0.681648 -4.56236 0
M  V30 6625 H 626.849 -0.709574 -4.27957 0
M  V30 6626 H 627.52 0.367856 -5.50773 0
M  V30 6627 H 629.996 1.43731 -3.90488 0
M  V30 6628 H 628.872 2.3066 -4.98084 0
M  V30 6629 H 629.133 2.89077 -3.34495 0
M  V30 6630 N 628.193 1.56834 0.155195 0
M  V30 6631 C 629.604 1.72421 0.716082 0
M  V30 6632 C 629.955 0.731685 1.82046 0
M  V30 6633 O 629.08 -0.103481 2.16152 0
M  V30 6634 C 629.675 3.12629 1.30571 0
M  V30 6635 C 628.234 3.29846 1.81325 0
M  V30 6636 C 627.381 2.68359 0.698494 0
M  V30 6637 H 630.332 1.58544 -0.0703861 0
M  V30 6638 H 630.353 3.12174 2.1755 0
M  V30 6639 H 629.865 3.84844 0.501701 0
M  V30 6640 H 627.966 2.62614 2.64319 0
M  V30 6641 H 628.079 4.37727 1.9476 0
M  V30 6642 H 626.443 2.28604 1.12305 0
M  V30 6643 H 627.226 3.43171 -0.0939366 0
M  V30 6644 N 629.671 -0.424282 1.51781 0
M  V30 6645 C 630.603 -1.53457 1.70246 0
M  V30 6646 C 631.616 -1.52004 0.582967 0
M  V30 6647 O 632.805 -1.56544 0.857683 0
M  V30 6648 C 629.905 -2.92368 1.71389 0
M  V30 6649 C 629.078 -3.1818 3.00133 0
M  V30 6650 C 628.137 -4.36884 2.9329 0
M  V30 6651 O 627.163 -4.34901 3.67219 0
M  V30 6652 N 628.365 -5.4117 2.10036 0
M  V30 6653 H 631.13 -1.38017 2.66029 0
M  V30 6654 H 628.691 -0.613394 1.4983 0
M  V30 6655 H 630.683 -3.6982 1.64362 0
M  V30 6656 H 629.253 -3.0134 0.831449 0
M  V30 6657 H 628.473 -2.28908 3.20928 0
M  V30 6658 H 629.761 -3.32261 3.85331 0
M  V30 6659 H 629.159 -5.45623 1.49373 0
M  V30 6660 H 627.716 -6.17425 2.08878 0
M  V30 6661 N 631.149 -1.42148 -0.680565 0
M  V30 6662 C 632.395 -1.42521 -1.44277 0
M  V30 6663 C 632.728 -0.0393718 -1.9416 0
M  V30 6664 O 632.003 0.935425 -1.70529 0
M  V30 6665 C 632.286 -2.44475 -2.64394 0
M  V30 6666 C 632.139 -3.92226 -2.20179 0
M  V30 6667 C 633.458 -2.43491 -3.66606 0
M  V30 6668 H 630.577 -0.518985 -0.523282 0
M  V30 6669 H 633.219 -1.73524 -0.773914 0
M  V30 6670 H 631.369 -2.18168 -3.21458 0
M  V30 6671 H 633.041 -4.29493 -1.68327 0
M  V30 6672 H 631.284 -4.0637 -1.5181 0
M  V30 6673 H 631.955 -4.59133 -3.06433 0
M  V30 6674 H 634.431 -2.66872 -3.19247 0
M  V30 6675 H 633.307 -3.16816 -4.4824 0
M  V30 6676 H 633.568 -1.45881 -4.17338 0
M  V30 6677 N 632.627 0.916307 -1.28225 0
M  V30 6678 C 633.559 2.02303 -1.07732 0
M  V30 6679 C 634.572 1.62773 -0.0298421 0
M  V30 6680 O 635.761 1.76406 -0.272626 0
M  V30 6681 C 632.861 3.33282 -0.614504 0
M  V30 6682 C 632.034 4.01439 -1.73682 0
M  V30 6683 C 631.093 5.10698 -1.26781 0
M  V30 6684 O 630.119 5.34038 -1.96958 0
M  V30 6685 N 631.321 5.80355 -0.129624 0
M  V30 6686 H 634.086 2.20442 -2.03041 0
M  V30 6687 H 631.647 1.08744 -1.19943 0
M  V30 6688 H 633.639 4.03699 -0.284397 0
M  V30 6689 H 632.209 3.11633 0.245664 0
M  V30 6690 H 631.429 3.24604 -2.23665 0
M  V30 6691 H 632.717 4.43721 -2.48976 0
M  V30 6692 H 632.115 5.6386 0.455847 0
M  V30 6693 H 630.672 6.51647 0.141224 0
M  V30 6694 N 634.105 1.10431 1.1244 0
M  V30 6695 C 635.035 0.775143 2.20258 0
M  V30 6696 C 636.016 -0.25186 1.68225 0
M  V30 6697 O 637.201 -0.117637 1.93843 0
M  V30 6698 C 634.331 0.206133 3.46688 0
M  V30 6699 C 633.285 1.16382 4.11873 0
M  V30 6700 C 632.611 0.456014 5.32752 0
M  V30 6701 C 633.911 2.5104 4.58013 0
M  V30 6702 H 635.605 1.67665 2.4805 0
M  V30 6703 H 633.151 0.807595 1.19222 0
M  V30 6704 H 635.104 -0.036291 4.21384 0
M  V30 6705 H 633.828 -0.730614 3.18323 0
M  V30 6706 H 632.487 1.39169 3.39157 0
M  V30 6707 H 632.135 -0.485203 5.00654 0
M  V30 6708 H 631.835 1.09466 5.77314 0
M  V30 6709 H 633.359 0.222135 6.10196 0
M  V30 6710 H 634.773 2.32401 5.24083 0
M  V30 6711 H 633.17 3.10789 5.13352 0
M  V30 6712 H 634.24 3.11039 3.71998 0
M  V30 6713 N 635.583 -1.29855 0.893053 0
M  V30 6714 C 636.832 -1.95104 0.511597 0
M  V30 6715 C 637.145 -1.71226 -0.945567 0
M  V30 6716 O 638.351 -2.30525 -1.43424 0
M  V30 6717 C 636.807 -3.49374 0.864034 0
M  V30 6718 C 636.415 -3.82061 2.33952 0
M  V30 6719 C 638.159 -4.20894 0.552167 0
M  V30 6720 C 636.066 -5.29546 2.63316 0
M  V30 6721 H 634.996 -0.73029 0.187597 0
M  V30 6722 H 637.647 -1.47682 1.08914 0
M  V30 6723 H 636.029 -3.95413 0.215493 0
M  V30 6724 H 637.203 -3.46904 3.03305 0
M  V30 6725 H 635.518 -3.23665 2.61973 0
M  V30 6726 H 638.115 -5.29435 0.748489 0
M  V30 6727 H 638.458 -4.13178 -0.508924 0
M  V30 6728 H 638.991 -3.80564 1.15825 0
M  V30 6729 H 635.73 -5.4232 3.68197 0
M  V30 6730 H 635.25 -5.65974 1.9858 0
M  V30 6731 H 636.929 -5.97068 2.49236 0
M  V30 6732 N 637.061 -0.65484 -1.43351 0
M  V30 6733 C 638.009 0.0476784 -2.32551 0
M  V30 6734 C 639.003 0.811403 -1.48703 0
M  V30 6735 O 640.209 0.721621 -1.64902 0
M  V30 6736 H 636.584 0.0342038 -0.751222 0
M  V30 6737 H 638.555 -0.722342 -2.89525 0
M  V30 6738 C 637.304 0.999251 -3.33032 0
M  V30 6739 H 636.627 0.421005 -3.97577 0
M  V30 6740 H 638.067 1.45986 -3.98076 0
M  V30 6741 C 636.526 2.09606 -2.63756 0
M  V30 6742 O 637.056 3.18004 -2.4543 0
M  V30 6743 N 635.262 1.86207 -2.23103 0
M  V30 6744 H 634.809 0.980555 -2.38208 0
M  V30 6745 H 634.767 2.59787 -1.77081 0
M  V30 6746 N 638.539 1.52521 -0.396863 0
M  V30 6747 C 639.95 1.86547 0.0754868 0
M  V30 6748 C 640.301 1.31621 1.45501 0
M  V30 6749 O 639.426 0.650563 2.0639 0
M  V30 6750 C 640.021 3.38495 0.143754 0
M  V30 6751 C 638.58 3.72205 0.560413 0
M  V30 6752 C 637.727 2.75954 -0.272856 0
M  V30 6753 H 640.678 1.46323 -0.614434 0
M  V30 6754 H 640.699 3.68153 0.961425 0
M  V30 6755 H 640.211 3.78442 -0.860415 0
M  V30 6756 H 638.312 3.3783 1.57167 0
M  V30 6757 H 638.425 4.78074 0.313314 0
M  V30 6758 H 636.789 2.53339 0.263 0
M  V30 6759 H 637.572 3.1874 -1.27515 0
M  V30 6760 N 640.017 0.126909 1.57088 0
M  V30 6761 C 640.927 -0.833867 2.1928 0
M  V30 6762 C 641.943 -1.2868 1.17122 0
M  V30 6763 O 643.119 -1.34815 1.49622 0
M  V30 6764 C 640.184 -2.0632 2.78627 0
M  V30 6765 C 639.245 -1.66143 3.95847 0
M  V30 6766 C 638.478 -2.83217 4.52354 0
M  V30 6767 O 638.701 -3.98868 4.0775 0
M  V30 6768 O 637.635 -2.59846 5.42922 0
M  V30 6769 H 641.461 -0.334564 3.01852 0
M  V30 6770 H 639.046 -0.0991091 1.49071 0
M  V30 6771 H 640.928 -2.78304 3.16425 0
M  V30 6772 H 639.603 -2.55242 1.99082 0
M  V30 6773 H 638.51 -0.912435 3.62802 0
M  V30 6774 H 639.843 -1.21957 4.76852 0
M  V30 6775 N 641.495 -1.56914 -0.146875 0
M  V30 6776 C 642.443 -1.99224 -1.20053 0
M  V30 6777 C 643.437 -0.884661 -1.44465 0
M  V30 6778 O 644.643 -1.06984 -1.44756 0
M  V30 6779 H 641.018 -0.634191 -0.404112 0
M  V30 6780 H 642.989 -2.86998 -0.816987 0
M  V30 6781 C 641.738 -2.38899 -2.52632 0
M  V30 6782 H 641.061 -3.23677 -2.34677 0
M  V30 6783 H 642.501 -2.72326 -3.24984 0
M  V30 6784 C 640.96 -1.2417 -3.13183 0
M  V30 6785 O 641.49 -0.542503 -3.9802 0
M  V30 6786 N 639.696 -1.00592 -2.72635 0
M  V30 6787 H 639.243 -1.57627 -2.03744 0
M  V30 6788 H 639.201 -0.240174 -3.13481 0
M  V30 6789 N 642.974 0.416227 -1.52004 0
M  V30 6790 C 643.906 1.52552 -1.71058 0
M  V30 6791 C 644.919 1.51693 -0.59102 0
M  V30 6792 O 646.108 1.56087 -0.865973 0
M  V30 6793 C 643.208 2.91455 -1.72937 0
M  V30 6794 C 642.381 3.16584 -3.01816 0
M  V30 6795 C 641.44 4.35322 -2.95603 0
M  V30 6796 O 640.466 4.32947 -3.6952 0
M  V30 6797 N 641.668 5.40049 -2.12903 0
M  V30 6798 H 644.433 1.36604 -2.66757 0
M  V30 6799 H 641.994 0.60544 -1.50153 0
M  V30 6800 H 643.986 3.68944 -1.66321 0
M  V30 6801 H 642.556 3.00895 -0.847418 0
M  V30 6802 H 641.776 2.27203 -3.22137 0
M  V30 6803 H 643.064 3.30213 -3.87088 0
M  V30 6804 H 642.462 5.44823 -1.52265 0
M  V30 6805 H 641.019 6.16308 -2.1215 0
M  V30 6806 N 644.452 1.42507 0.673017 0
M  V30 6807 C 645.701 1.42364 1.42883 0
M  V30 6808 C 646.014 0.0441598 1.9555 0
M  V30 6809 O 647.22 -0.0798679 2.71382 0
M  V30 6810 C 645.676 2.5043 2.58482 0
M  V30 6811 C 645.284 3.94392 2.12506 0
M  V30 6812 C 647.028 2.59455 3.35981 0
M  V30 6813 C 644.935 4.93964 3.25198 0
M  V30 6814 H 643.865 0.52951 0.536782 0
M  V30 6815 H 646.516 1.68422 0.728448 0
M  V30 6816 H 644.898 2.1754 3.30896 0
M  V30 6817 H 646.072 4.36645 1.47233 0
M  V30 6818 H 644.387 3.89233 1.4794 0
M  V30 6819 H 646.984 3.31025 4.19912 0
M  V30 6820 H 647.327 1.63869 3.82691 0
M  V30 6821 H 647.86 2.91549 2.70637 0
M  V30 6822 H 644.599 5.91034 2.83477 0
M  V30 6823 H 644.119 4.56341 3.89247 0
M  V30 6824 H 645.798 5.15763 3.90637 0
M  V30 6825 N 645.93 -0.909495 1.28709 0
M  V30 6826 C 647.176 -1.66151 1.16283 0
M  V30 6827 C 647.509 -1.92067 -0.287069 0
M  V30 6828 O 646.784 -1.52409 -1.20837 0
M  V30 6829 C 647.067 -3.01676 1.9663 0
M  V30 6830 C 646.92 -2.82888 3.49707 0
M  V30 6831 C 648.239 -4.02274 1.78504 0
M  V30 6832 H 645.358 -0.602966 0.423793 0
M  V30 6833 H 648 -1.05418 1.58073 0
M  V30 6834 H 646.15 -3.53515 1.61119 0
M  V30 6835 H 647.822 -2.38026 3.95147 0
M  V30 6836 H 646.065 -2.17862 3.75125 0
M  V30 6837 H 646.736 -3.79147 4.01187 0
M  V30 6838 H 649.212 -3.59511 2.09503 0
M  V30 6839 H 648.088 -4.95056 2.37088 0
M  V30 6840 H 648.349 -4.35903 0.737647 0
M  V30 6841 N 647.408 -1.11026 -1.11852 0
M  V30 6842 C 648.318 -0.777252 -2.2135 0
M  V30 6843 C 649.334 0.227821 -1.72502 0
M  V30 6844 O 650.51 0.0650587 -2.01295 0
M  V30 6845 C 647.575 -0.220668 -3.45997 0
M  V30 6846 C 646.636 -1.2838 -4.09655 0
M  V30 6847 C 645.869 -0.753678 -5.28352 0
M  V30 6848 O 646.092 0.417779 -5.68868 0
M  V30 6849 O 645.026 -1.51647 -5.82483 0
M  V30 6850 H 648.852 -1.69141 -2.5224 0
M  V30 6851 H 646.437 -0.885836 -1.20305 0
M  V30 6852 H 648.319 0.0855756 -4.21313 0
M  V30 6853 H 646.994 0.666262 -3.16769 0
M  V30 6854 H 645.901 -1.64299 -3.3609 0
M  V30 6855 H 647.234 -2.14396 -4.43052 0
M  V30 6856 N 648.886 1.2938 -0.899927 0
M  V30 6857 C 650.297 1.77644 -0.574427 0
M  V30 6858 C 650.648 1.73824 0.909928 0
M  V30 6859 O 649.773 1.32429 1.71147 0
M  V30 6860 C 650.368 3.22573 -1.03595 0
M  V30 6861 C 648.927 3.68614 -0.76161 0
M  V30 6862 C 648.074 2.49483 -1.21052 0
M  V30 6863 H 651.025 1.16038 -1.08263 0
M  V30 6864 H 651.046 3.78684 -0.371337 0
M  V30 6865 H 650.558 3.25321 -2.11631 0
M  V30 6866 H 648.659 3.7134 0.306127 0
M  V30 6867 H 648.772 4.59402 -1.35965 0
M  V30 6868 H 647.136 2.46798 -0.629515 0
M  V30 6869 H 647.919 2.54959 -2.29893 0
M  V30 6870 N 650.364 0.662433 1.43002 0
M  V30 6871 C 651.641 0.109096 1.95296 0
M  V30 6872 C 652.021 -1.37313 1.60338 0
M  V30 6873 O 651.369 -2.1032 0.893187 0
M  V30 6874 C 651.579 0.365096 3.47085 0
M  V30 6875 C 652.927 0.274964 4.23709 0
M  V30 6876 O 653.951 0.29816 3.5495 0
M  V30 6877 O 652.81 0.206549 5.4611 0
M  V30 6878 H 649.904 -0.00429724 0.826989 0
M  V30 6879 H 652.45 0.736308 1.52894 0
M  V30 6880 H 651.222 1.39237 3.65689 0
M  V30 6881 H 650.845 -0.294733 3.96506 0
M  V30 6882 N 651.842 -1.52309 0.404946 0
M  V30 6883 C 653.09 -2.01368 -0.17186 0
M  V30 6884 C 653.411 -1.29261 -1.46002 0
M  V30 6885 O 652.681 -0.41729 -1.91404 0
M  V30 6886 H 651.261 -0.744034 -0.0664993 0
M  V30 6887 H 653.923 -1.87263 0.540228 0
M  V30 6888 H 653.019 -3.09888 -0.370957 0
M  V30 6889 N 653.32 -0.135238 -1.57019 0
M  V30 6890 C 654.548 0.526066 -2.001 0
M  V30 6891 C 654.963 1.59184 -1.01519 0
M  V30 6892 O 654.32 1.82497 -0.0104258 0
M  V30 6893 C 654.371 1.13744 -3.43139 0
M  V30 6894 O 654.092 0.114259 -4.37951 0
M  V30 6895 C 655.593 1.8805 -4.01438 0
M  V30 6896 H 652.813 0.137962 -0.656664 0
M  V30 6897 H 655.357 -0.226359 -2.03243 0
M  V30 6898 H 653.512 1.84056 -3.40885 0
M  V30 6899 H 653.926 0.56058 -5.21496 0
M  V30 6900 H 655.4 2.26133 -5.03555 0
M  V30 6901 H 655.877 2.76194 -3.41487 0
M  V30 6902 H 656.483 1.22464 -4.07287 0
M  V30 6903 N 654.798 1.5699 0.138552 0
M  V30 6904 C 655.728 2.01933 1.17241 0
M  V30 6905 C 656.709 0.90033 1.44319 0
M  V30 6906 O 657.894 1.16872 1.55095 0
M  V30 6907 C 655.024 2.40711 2.50351 0
M  V30 6908 C 653.978 3.55874 2.37776 0
M  V30 6909 C 653.304 3.80491 3.75674 0
M  V30 6910 C 654.604 4.8826 1.85472 0
M  V30 6911 H 656.298 2.88551 0.798672 0
M  V30 6912 H 653.844 1.3882 0.382743 0
M  V30 6913 H 655.797 2.70754 3.22909 0
M  V30 6914 H 654.521 1.5104 2.89576 0
M  V30 6915 H 653.18 3.2601 1.67669 0
M  V30 6916 H 652.828 2.88057 4.12349 0
M  V30 6917 H 652.528 4.57998 3.68119 0
M  V30 6918 H 654.052 4.12967 4.49767 0
M  V30 6919 H 655.466 5.16965 2.4783 0
M  V30 6920 H 653.863 5.69631 1.88787 0
M  V30 6921 H 654.933 4.78071 0.810935 0
M  V30 6922 N 656.276 -0.40816 1.52223 0
M  V30 6923 C 657.224 -1.51788 1.76248 0
M  V30 6924 C 658.218 -1.57264 0.629638 0
M  V30 6925 O 659.424 -1.60659 0.811704 0
M  V30 6926 H 655.799 -0.504823 0.557367 0
M  V30 6927 H 657.77 -1.2871 2.69214 0
M  V30 6928 C 656.519 -2.89145 1.93107 0
M  V30 6929 H 655.842 -2.85674 2.79697 0
M  V30 6930 H 657.282 -3.66082 2.13916 0
M  V30 6931 C 655.741 -3.29581 0.698431 0
M  V30 6932 O 656.271 -4.01479 -0.133238 0
M  V30 6933 N 654.477 -2.85651 0.53405 0
M  V30 6934 H 654.024 -2.2731 1.21194 0
M  V30 6935 H 653.982 -3.13065 -0.289387 0
M  V30 6936 N 657.755 -1.42862 -0.66545 0
M  V30 6937 C 658.685 -1.49867 -1.79059 0
M  V30 6938 C 659.666 -0.354394 -1.66367 0
M  V30 6939 O 660.851 -0.569969 -1.85647 0
M  V30 6940 C 657.981 -1.40943 -3.17415 0
M  V30 6941 C 656.935 -2.53495 -3.44854 0
M  V30 6942 C 656.261 -2.29626 -4.82883 0
M  V30 6943 C 657.561 -3.95781 -3.40815 0
M  V30 6944 H 659.255 -2.44037 -1.73453 0
M  V30 6945 H 656.801 -1.17456 -0.833071 0
M  V30 6946 H 658.754 -1.4445 -3.95869 0
M  V30 6947 H 657.478 -0.432716 -3.23721 0
M  V30 6948 H 656.137 -2.4932 -2.68766 0
M  V30 6949 H 655.785 -1.30226 -4.8585 0
M  V30 6950 H 655.485 -3.05065 -5.02204 0
M  V30 6951 H 657.009 -2.34897 -5.63609 0
M  V30 6952 H 658.423 -4.01508 -4.09224 0
M  V30 6953 H 656.82 -4.71148 -3.71672 0
M  V30 6954 H 657.89 -4.21786 -2.39216 0
M  V30 6955 N 659.233 0.902656 -1.29189 0
M  V30 6956 C 660.51 1.63296 -1.07674 0
M  V30 6957 C 660.89 2.07649 0.380137 0
M  V30 6958 O 660.238 1.82997 1.36837 0
M  V30 6959 C 660.448 2.81603 -2.06158 0
M  V30 6960 C 661.796 3.52359 -2.36914 0
M  V30 6961 O 662.82 2.91767 -2.04329 0
M  V30 6962 O 661.679 4.61586 -2.92576 0
M  V30 6963 H 658.773 0.716889 -0.41231 0
M  V30 6964 H 661.319 0.950984 -1.4055 0
M  V30 6965 H 660.091 2.46004 -3.04299 0
M  V30 6966 H 659.714 3.57508 -1.73993 0
M  V30 6967 N 660.711 1.11618 1.11262 0
M  V30 6968 C 661.936 0.889013 1.8738 0
M  V30 6969 C 662.361 -0.555884 1.79698 0
M  V30 6970 O 661.719 -1.39272 1.16073 0
M  V30 6971 C 661.767 1.35759 3.34069 0
M  V30 6972 O 660.871 0.530499 4.08974 0
M  V30 6973 H 660.212 0.320082 0.581759 0
M  V30 6974 H 662.742 1.48611 1.40627 0
M  V30 6975 H 662.752 1.35291 3.84916 0
M  V30 6976 H 661.427 2.40973 3.38976 0
M  V30 6977 H 660.004 0.601439 3.68018 0
M  V30 6978 N 662.189 -1.289 0.906776 0
M  V30 6979 C 663.466 -1.90221 0.455537 0
M  V30 6980 C 663.846 -1.82251 -1.06527 0
M  V30 6981 O 663.194 -1.25385 -1.91026 0
M  V30 6982 C 663.404 -3.35015 0.97806 0
M  V30 6983 C 664.752 -4.12018 1.02598 0
M  V30 6984 O 665.776 -3.43947 0.926218 0
M  V30 6985 O 664.635 -5.33677 1.17689 0
M  V30 6986 H 661.729 -0.814505 0.143214 0
M  V30 6987 H 664.275 -1.37317 0.997104 0
M  V30 6988 H 663.047 -3.35006 2.02204 0
M  V30 6989 H 662.67 -3.95408 0.416914 0
M  V30 6990 N 663.667 -0.670007 -1.42649 0
M  V30 6991 C 664.577 0.0114788 -2.34597 0
M  V30 6992 C 665.593 0.794055 -1.54825 0
M  V30 6993 O 666.769 0.737472 -1.87412 0
M  V30 6994 C 663.834 0.954436 -3.33304 0
M  V30 6995 C 662.895 0.166925 -4.28975 0
M  V30 6996 C 662.128 1.06497 -5.22967 0
M  V30 6997 O 662.351 2.30446 -5.21777 0
M  V30 6998 O 661.285 0.528347 -5.99577 0
M  V30 6999 H 665.111 -0.745794 -2.944 0
M  V30 7000 H 662.696 -0.430228 -1.43071 0
M  V30 7001 H 664.578 1.49589 -3.93956 0
M  V30 7002 H 663.253 1.69164 -2.7598 0
M  V30 7003 H 662.16 -0.418515 -3.71752 0
M  V30 7004 H 663.493 -0.531067 -4.89327 0
M  V30 7005 N 665.145 1.52092 -0.413018 0
M  V30 7006 C 666.393 2.01456 0.161178 0
M  V30 7007 C 666.714 1.30034 1.45314 0
M  V30 7008 O 665.984 0.427435 1.9118 0
M  V30 7009 H 664.564 0.744376 0.0625526 0
M  V30 7010 H 667.226 1.86974 -0.550151 0
M  V30 7011 H 666.322 3.1008 0.354517 0
M  V30 7012 N 666.623 0.143563 1.56945 0
M  V30 7013 C 667.533 -0.810562 2.20152 0
M  V30 7014 C 668.549 -1.27431 1.1848 0
M  V30 7015 O 669.725 -1.33221 1.51044 0
M  V30 7016 C 666.79 -2.03353 2.80799 0
M  V30 7017 C 665.851 -1.61936 3.97587 0
M  V30 7018 C 665.084 -2.78403 4.55332 0
M  V30 7019 O 665.307 -3.94521 4.11958 0
M  V30 7020 O 664.241 -2.54073 5.45647 0
M  V30 7021 H 668.067 -0.30253 3.02189 0
M  V30 7022 H 665.652 -0.0832925 1.49168 0
M  V30 7023 H 667.534 -2.74932 3.19359 0
M  V30 7024 H 666.209 -2.53116 2.01777 0
M  V30 7025 H 665.116 -0.873904 3.6375 0
M  V30 7026 H 666.449 -1.16892 4.78118 0
M  V30 7027 N 668.101 -1.57061 -0.130224 0
M  V30 7028 C 669.011 -2.02802 -1.17934 0
M  V30 7029 C 670.027 -0.946378 -1.46013 0
M  V30 7030 O 671.203 -1.25708 -1.57351 0
M  V30 7031 C 668.268 -2.41368 -2.48882 0
M  V30 7032 C 667.329 -3.63561 -2.28301 0
M  V30 7033 C 666.562 -4.00279 -3.53005 0
M  V30 7034 O 666.785 -3.37463 -4.59864 0
M  V30 7035 O 665.719 -4.93441 -3.44673 0
M  V30 7036 H 669.545 -2.92394 -0.820958 0
M  V30 7037 H 667.13 -1.45475 -0.340197 0
M  V30 7038 H 669.012 -2.66958 -3.26054 0
M  V30 7039 H 667.687 -1.54926 -2.84217 0
M  V30 7040 H 666.594 -3.43136 -1.49025 0
M  V30 7041 H 667.927 -4.50673 -1.97875 0
M  V30 7042 N 669.579 0.400081 -1.52437 0
M  V30 7043 C 670.99 0.97851 -1.59003 0
M  V30 7044 C 671.341 1.91293 -0.436068 0
M  V30 7045 O 670.466 2.1183 0.442365 0
M  V30 7046 C 671.061 1.78145 -2.88184 0
M  V30 7047 C 669.62 2.30976 -2.97199 0
M  V30 7048 C 668.767 1.11212 -2.54022 0
M  V30 7049 H 671.718 0.180002 -1.57676 0
M  V30 7050 H 671.739 2.63968 -2.74046 0
M  V30 7051 H 671.251 1.1011 -3.72152 0
M  V30 7052 H 669.352 3.02355 -2.17744 0
M  V30 7053 H 669.465 2.61221 -4.01622 0
M  V30 7054 H 667.829 1.46882 -2.08081 0
M  V30 7055 H 668.612 0.447307 -3.40373 0
M  V30 7056 N 671.057 1.43213 0.657864 0
M  V30 7057 C 672.282 1.48227 1.45064 0
M  V30 7058 C 672.707 0.0999939 1.87834 0
M  V30 7059 O 672.065 -0.905269 1.57081 0
M  V30 7060 C 672.113 2.42931 2.6649 0
M  V30 7061 O 671.217 1.91237 3.6538 0
M  V30 7062 H 670.558 0.501551 0.435135 0
M  V30 7063 H 673.088 1.8808 0.805431 0
M  V30 7064 H 673.098 2.6008 3.1436 0
M  V30 7065 H 671.773 3.43348 2.34701 0
M  V30 7066 H 670.35 1.83726 3.24498 0
M  V30 7067 N 672.536 -0.895792 1.29666 0
M  V30 7068 C 673.947 -1.46195 1.1612 0
M  V30 7069 C 674.298 -1.94699 -0.242195 0
M  V30 7070 O 673.423 -1.8406 -1.13802 0
M  V30 7071 C 674.018 -2.65718 2.10189 0
M  V30 7072 C 672.577 -3.18458 2.00653 0
M  V30 7073 C 671.724 -1.91149 2.00891 0
M  V30 7074 H 674.675 -0.706756 1.42094 0
M  V30 7075 H 674.696 -3.4158 1.6764 0
M  V30 7076 H 674.208 -2.30386 3.12321 0
M  V30 7077 H 672.309 -3.58474 1.01623 0
M  V30 7078 H 672.422 -3.82491 2.88509 0
M  V30 7079 H 670.786 -2.09021 1.45542 0
M  V30 7080 H 671.569 -1.58089 3.04734 0
M  V30 7081 N 674.014 -1.12206 -1.10668 0
M  V30 7082 C 674.924 -0.800686 -2.20513 0
M  V30 7083 C 675.94 0.209512 -1.72734 0
M  V30 7084 O 677.116 0.043705 -2.01353 0
M  V30 7085 C 674.181 -0.257353 -3.45744 0
M  V30 7086 C 673.242 -1.32718 -4.0827 0
M  V30 7087 C 672.475 -0.809674 -5.27522 0
M  V30 7088 O 672.698 0.35742 -5.69279 0
M  V30 7089 O 671.632 -1.57816 -5.80842 0
M  V30 7090 H 675.458 -1.71807 -2.50432 0
M  V30 7091 H 673.043 -0.898546 -1.19359 0
M  V30 7092 H 674.925 0.0408849 -4.2138 0
M  V30 7093 H 673.6 0.632627 -3.17458 0
M  V30 7094 H 672.507 -1.67855 -3.34329 0
M  V30 7095 H 673.84 -2.19083 -4.40753 0
M  V30 7096 N 675.492 1.28418 -0.913599 0
M  V30 7097 C 676.455 2.25564 -0.406624 0
M  V30 7098 C 677.455 1.5387 0.466965 0
M  V30 7099 O 678.645 1.72094 0.270042 0
M  V30 7100 C 675.777 3.38339 0.417053 0
M  V30 7101 H 676.97 2.71926 -1.26477 0
M  V30 7102 H 674.523 1.40098 -0.692986 0
M  V30 7103 H 675.258 2.97339 1.29461 0
M  V30 7104 H 675.043 3.91542 -0.209102 0
M  V30 7105 H 676.533 4.10578 0.762602 0
M  V30 7106 N 676.97 0.677563 1.42291 0
M  V30 7107 C 677.9 0.014968 2.33495 0
M  V30 7108 C 678.881 -0.786376 1.50831 0
M  V30 7109 O 680.066 -0.742975 1.79426 0
M  V30 7110 C 677.196 -0.935023 3.34477 0
M  V30 7111 C 676.15 -0.242074 4.27315 0
M  V30 7112 C 675.476 -1.30519 5.18526 0
M  V30 7113 C 676.776 0.880604 5.14823 0
M  V30 7114 H 678.47 0.776671 2.89151 0
M  V30 7115 H 676.016 0.37494 1.39033 0
M  V30 7116 H 677.969 -1.40766 3.97194 0
M  V30 7117 H 676.693 -1.72818 2.77131 0
M  V30 7118 H 675.352 0.210351 3.65996 0
M  V30 7119 H 675 -2.09041 4.57505 0
M  V30 7120 H 674.7 -0.846652 5.81468 0
M  V30 7121 H 676.224 -1.7787 5.84119 0
M  V30 7122 H 677.638 0.489062 5.7121 0
M  V30 7123 H 676.035 1.26511 5.86613 0
M  V30 7124 H 677.105 1.72818 4.53059 0
M  V30 7125 N 678.448 -1.51871 0.421078 0
M  V30 7126 C 679.694 -2.02237 -0.151014 0
M  V30 7127 C 680.027 -1.30554 -1.43768 0
M  V30 7128 O 679.302 -0.41546 -1.90011 0
M  V30 7129 C 679.585 -3.5802 -0.386482 0
M  V30 7130 C 679.438 -4.40339 0.9177 0
M  V30 7131 C 680.757 -4.24444 -1.16342 0
M  V30 7132 H 677.876 -0.735062 -0.0534102 0
M  V30 7133 H 680.518 -1.81656 0.556888 0
M  V30 7134 H 678.668 -3.75688 -0.989494 0
M  V30 7135 H 680.34 -4.34357 1.55344 0
M  V30 7136 H 678.583 -4.06073 1.526 0
M  V30 7137 H 679.254 -5.47451 0.707187 0
M  V30 7138 H 681.73 -4.10948 -0.652788 0
M  V30 7139 H 680.606 -5.33358 -1.29693 0
M  V30 7140 H 680.867 -3.84204 -2.18724 0
M  V30 7141 N 679.926 -0.151884 -1.56866 0
M  V30 7142 C 681.342 0.204486 -1.58285 0
M  V30 7143 C 681.542 1.6431 -1.16639 0
M  V30 7144 O 680.598 2.37077 -0.868946 0
M  V30 7145 C 681.911 -0.0587019 -3.00643 0
M  V30 7146 C 683.459 0.00462303 -3.13 0
M  V30 7147 C 683.934 -0.231297 -4.57416 0
M  V30 7148 N 685.425 -0.178394 -4.62856 0
M  V30 7149 C 686.16 -0.335379 -5.72418 0
M  V30 7150 N 685.656 -0.550355 -6.90611 0
M  V30 7151 N 687.449 -0.272641 -5.61438 0
M  V30 7152 H 679.6 -1.09116 -1.82229 0
M  V30 7153 H 681.863 -0.432311 -0.843689 0
M  V30 7154 H 681.569 -1.05453 -3.35518 0
M  V30 7155 H 681.443 0.658508 -3.71407 0
M  V30 7156 H 683.83 0.991009 -2.77962 0
M  V30 7157 H 683.911 -0.744992 -2.44711 0
M  V30 7158 H 683.555 -1.2148 -4.93158 0
M  V30 7159 H 683.485 0.5387 -5.23837 0
M  V30 7160 H 685.976 -0.0170923 -3.77896 0
M  V30 7161 H 686.289 -0.660116 -7.69976 0
M  V30 7162 H 684.634 -0.586736 -6.92519 0
M  V30 7163 H 687.825 -0.105421 -4.67981 0
M  V30 7164 H 687.998 -0.398418 -6.46774 0
M  V30 7165 N 681.404 1.57128 0.121893 0
M  V30 7166 C 682.634 1.88609 0.843227 0
M  V30 7167 C 683.042 0.740917 1.74089 0
M  V30 7168 O 682.385 -0.297426 1.81276 0
M  V30 7169 C 682.447 3.15073 1.73117 0
M  V30 7170 C 682.111 4.45742 1.0081 0
M  V30 7171 C 683.108 5.18719 0.350255 0
M  V30 7172 C 680.793 4.92444 0.99014 0
M  V30 7173 C 682.787 6.36617 -0.315889 0
M  V30 7174 C 680.474 6.10261 0.320196 0
M  V30 7175 C 681.472 6.82194 -0.331666 0
M  V30 7176 O 681.16 7.97769 -0.990927 0
M  V30 7177 H 680.892 0.628919 0.247865 0
M  V30 7178 H 683.446 2.05096 0.111725 0
M  V30 7179 H 681.676 2.9466 2.50424 0
M  V30 7180 H 683.365 3.32597 2.32667 0
M  V30 7181 H 684.131 4.83693 0.35577 0
M  V30 7182 H 680.01 4.36361 1.48695 0
M  V30 7183 H 683.554 6.92701 -0.825272 0
M  V30 7184 H 679.451 6.44743 0.312433 0
M  V30 7185 H 680.219 8.13591 -0.895113 0
M  V30 7186 N 682.882 -0.391992 1.52647 0
M  V30 7187 C 683.812 -1.48517 1.8018 0
M  V30 7188 C 684.793 -1.57039 0.653667 0
M  V30 7189 O 685.978 -1.72036 0.900962 0
M  V30 7190 C 683.108 -2.86161 1.96797 0
M  V30 7191 C 682.062 -2.92481 3.12472 0
M  V30 7192 C 681.388 -4.32546 3.14338 0
M  V30 7193 C 682.688 -2.624 4.51601 0
M  V30 7194 H 684.382 -1.25726 2.71723 0
M  V30 7195 H 681.928 -0.603387 1.30749 0
M  V30 7196 H 683.881 -3.62639 2.14641 0
M  V30 7197 H 682.605 -3.10283 1.01941 0
M  V30 7198 H 681.264 -2.18451 2.94406 0
M  V30 7199 H 680.912 -4.53703 2.1717 0
M  V30 7200 H 680.612 -4.37695 3.92042 0
M  V30 7201 H 682.136 -5.10934 3.34333 0
M  V30 7202 H 683.55 -3.28596 4.69785 0
M  V30 7203 H 681.947 -2.78903 5.3135 0
M  V30 7204 H 683.017 -1.57754 4.58521 0
M  V30 7205 N 684.36 -1.4356 -0.65026 0
M  V30 7206 C 685.585 -1.48995 -1.44275 0
M  V30 7207 C 686.01 -0.109954 -1.87778 0
M  V30 7208 O 685.368 0.896926 -1.57559 0
M  V30 7209 C 685.416 -2.44341 -2.65198 0
M  V30 7210 O 684.52 -1.93172 -3.6436 0
M  V30 7211 H 683.861 -0.503852 -0.432469 0
M  V30 7212 H 686.391 -1.88504 -0.795446 0
M  V30 7213 H 686.401 -2.61743 -3.12977 0
M  V30 7214 H 685.076 -3.44588 -2.32877 0
M  V30 7215 H 683.653 -1.85445 -3.23519 0
M  V30 7216 N 685.838 0.888903 -1.30139 0
M  V30 7217 C 686.771 1.99655 -1.10514 0
M  V30 7218 C 687.749 1.62594 -0.0138934 0
M  V30 7219 O 688.933 1.87762 -0.166689 0
M  V30 7220 C 686.06 3.31708 -0.684655 0
M  V30 7221 C 685.106 3.87755 -1.77619 0
M  V30 7222 S 685.939 4.15532 -3.37777 0
M  V30 7223 C 687.095 5.5061 -2.97622 0
M  V30 7224 H 687.328 2.15996 -2.04287 0
M  V30 7225 H 684.861 1.03682 -1.14409 0
M  V30 7226 H 686.819 4.08039 -0.448782 0
M  V30 7227 H 685.48 3.1323 0.233648 0
M  V30 7228 H 684.673 4.83164 -1.43417 0
M  V30 7229 H 684.275 3.18149 -1.96614 0
M  V30 7230 H 686.567 6.31518 -2.45338 0
M  V30 7231 H 687.51 5.89747 -3.91924 0
M  V30 7232 H 687.918 5.12983 -2.35603 0
M  V30 7233 N 687.317 1.12792 1.10072 0
M  V30 7234 C 688.733 0.864745 1.34143 0
M  V30 7235 C 688.933 -0.503201 1.95116 0
M  V30 7236 O 687.989 -1.25111 2.19325 0
M  V30 7237 C 689.302 1.98413 2.25949 0
M  V30 7238 C 690.85 2.01545 2.39476 0
M  V30 7239 C 691.325 3.12727 3.34613 0
M  V30 7240 N 692.816 3.12194 3.42183 0
M  V30 7241 C 693.551 3.94862 4.15779 0
M  V30 7242 N 693.047 4.87528 4.92228 0
M  V30 7243 N 694.84 3.82985 4.11435 0
M  V30 7244 H 686.991 2.00926 0.68866 0
M  V30 7245 H 689.254 0.874564 0.365844 0
M  V30 7246 H 688.96 2.97005 1.88364 0
M  V30 7247 H 688.834 1.89254 3.26287 0
M  V30 7248 H 691.221 1.0357 2.76328 0
M  V30 7249 H 691.302 2.14777 1.3894 0
M  V30 7250 H 690.946 4.10936 2.98486 0
M  V30 7251 H 690.876 2.96732 4.35037 0
M  V30 7252 H 693.367 2.45065 2.87666 0
M  V30 7253 H 693.68 5.47109 5.45794 0
M  V30 7254 H 692.025 4.91539 4.9134 0
M  V30 7255 H 695.216 3.09923 3.50807 0
M  V30 7256 H 695.389 4.47641 4.68531 0
M  V30 7257 N 688.795 -1.27931 0.920396 0
M  V30 7258 C 690.211 -1.47085 0.619537 0
M  V30 7259 C 690.411 -1.83463 -0.833291 0
M  V30 7260 O 689.467 -1.94363 -1.61181 0
M  V30 7261 C 690.78 -2.56878 1.56314 0
M  V30 7262 C 692.328 -2.70743 1.57058 0
M  V30 7263 C 692.803 -3.83687 2.50097 0
M  V30 7264 N 694.294 -3.9105 2.48262 0
M  V30 7265 C 695.029 -4.77842 3.16945 0
M  V30 7266 N 694.525 -5.69176 3.94982 0
M  V30 7267 N 696.318 -4.71509 3.06 0
M  V30 7268 H 688.469 -1.02601 1.85975 0
M  V30 7269 H 690.732 -0.511682 0.798051 0
M  V30 7270 H 690.438 -2.36923 2.59923 0
M  V30 7271 H 690.312 -3.54117 1.29928 0
M  V30 7272 H 692.699 -2.90083 0.541832 0
M  V30 7273 H 692.78 -1.74015 1.8749 0
M  V30 7274 H 692.424 -3.65101 3.53077 0
M  V30 7275 H 692.354 -4.79827 2.16964 0
M  V30 7276 H 694.845 -3.25738 1.91581 0
M  V30 7277 H 695.158 -6.32245 4.44394 0
M  V30 7278 H 693.503 -5.68995 3.99086 0
M  V30 7279 H 696.694 -3.99151 2.44533 0
M  V30 7280 H 696.867 -5.38933 3.59799 0
M  V30 7281 N 690.273 -0.685099 -1.4193 0
M  V30 7282 C 691.223 0.00977295 -2.27998 0
M  V30 7283 C 692.207 0.763315 -1.41641 0
M  V30 7284 O 693.399 0.640532 -1.65004 0
M  V30 7285 C 690.528 0.952972 -3.29808 0
M  V30 7286 C 689.614 0.196231 -4.23646 0
M  V30 7287 N 690.005 -0.804401 -4.99363 0
M  V30 7288 C 688.303 0.433213 -4.43891 0
M  V30 7289 C 689.004 -1.25646 -5.67968 0
M  V30 7290 N 687.98 -0.5844 -5.4045 0
M  V30 7291 H 691.782 -0.757586 -2.83968 0
M  V30 7292 H 689.296 -0.515037 -1.54017 0
M  V30 7293 H 691.293 1.46585 -3.9028 0
M  V30 7294 H 689.953 1.72004 -2.75399 0
M  V30 7295 H 690.964 -1.18429 -5.04177 0
M  V30 7296 H 687.641 1.17899 -4.00507 0
M  V30 7297 H 689.031 -2.08622 -6.38691 0
M  V30 7298 N 691.751 1.51645 -0.429126 0
M  V30 7299 C 692.979 2.06433 0.138994 0
M  V30 7300 C 693.394 1.29735 1.37165 0
M  V30 7301 O 692.751 0.354638 1.79021 0
M  V30 7302 C 692.802 3.58439 0.469452 0
M  V30 7303 O 692.523 4.32238 -0.714273 0
M  V30 7304 C 694.024 4.29712 1.08914 0
M  V30 7305 H 691.244 0.6709 0.0115608 0
M  V30 7306 H 693.788 1.9532 -0.605843 0
M  V30 7307 H 691.943 3.69494 1.16419 0
M  V30 7308 H 692.357 5.22704 -0.433633 0
M  V30 7309 H 693.831 5.37182 1.27042 0
M  V30 7310 H 694.308 3.87473 2.06788 0
M  V30 7311 H 694.914 4.2308 0.434028 0
M  V30 7312 N 693.229 0.160201 1.56784 0
M  V30 7313 C 694.475 -0.48831 1.96833 0
M  V30 7314 C 694.808 -1.63641 1.04571 0
M  V30 7315 O 694.083 -1.94289 0.0906481 0
M  V30 7316 C 694.366 -0.981908 3.46454 0
M  V30 7317 C 694.219 0.165607 4.49495 0
M  V30 7318 C 695.538 -1.85931 3.98896 0
M  V30 7319 H 692.657 -0.176027 0.71567 0
M  V30 7320 H 695.299 0.244093 1.88426 0
M  V30 7321 H 693.449 -1.60602 3.5375 0
M  V30 7322 H 695.121 0.802372 4.54268 0
M  V30 7323 H 693.364 0.822789 4.25926 0
M  V30 7324 H 694.035 -0.221699 5.51555 0
M  V30 7325 H 696.511 -1.33327 3.94161 0
M  V30 7326 H 695.387 -2.17373 5.04024 0
M  V30 7327 H 695.648 -2.80106 3.42042 0
M  V30 7328 N 694.707 -1.5719 -0.113559 0
M  V30 7329 C 695.955 -1.84772 -0.818761 0
M  V30 7330 C 696.276 -0.746196 -1.80158 0
M  V30 7331 O 695.546 0.229305 -1.94553 0
M  V30 7332 H 694.126 -0.681737 -0.305359 0
M  V30 7333 H 696.788 -1.94645 -0.0995845 0
M  V30 7334 H 695.884 -2.80878 -1.36067 0
M  V30 7335 N 696.185 0.383891 -1.52853 0
M  V30 7336 C 697.431 1.13009 -1.68395 0
M  V30 7337 C 697.764 1.89488 -0.425195 0
M  V30 7338 O 697.039 1.8574 0.577136 0
M  V30 7339 C 697.322 2.10419 -2.92226 0
M  V30 7340 C 697.175 1.3767 -4.28214 0
M  V30 7341 C 698.494 3.10781 -3.11614 0
M  V30 7342 H 695.613 0.409463 -0.612788 0
M  V30 7343 H 698.255 0.412895 -1.85459 0
M  V30 7344 H 696.405 2.71579 -2.77808 0
M  V30 7345 H 698.077 0.794352 -4.54409 0
M  V30 7346 H 696.32 0.678533 -4.2846 0
M  V30 7347 H 696.991 2.08874 -5.10956 0
M  V30 7348 H 699.467 2.59715 -3.25096 0
M  V30 7349 H 698.343 3.76179 -3.99725 0
M  V30 7350 H 698.604 3.79933 -2.2606 0
M  V30 7351 N 697.663 1.43903 0.642637 0
M  V30 7352 C 698.626 1.49538 1.73698 0
M  V30 7353 C 699.626 0.378776 1.56275 0
M  V30 7354 O 700.816 0.64095 1.6198 0
M  V30 7355 C 697.948 1.35821 3.12675 0
M  V30 7356 H 699.141 2.47008 1.70079 0
M  V30 7357 H 696.694 1.30824 0.85526 0
M  V30 7358 H 697.429 0.393994 3.21898 0
M  V30 7359 H 697.214 2.16776 3.26727 0
M  V30 7360 H 698.704 1.4272 3.92455 0
M  V30 7361 N 699.141 -0.881989 1.30609 0
M  V30 7362 C 700.418 -1.61563 1.10258 0
M  V30 7363 C 700.798 -2.08228 -0.347053 0
M  V30 7364 O 700.146 -1.85151 -1.33908 0
M  V30 7365 C 700.356 -2.78287 2.10612 0
M  V30 7366 C 701.704 -3.48545 2.4249 0
M  V30 7367 O 702.728 -2.88479 2.08945 0
M  V30 7368 O 701.587 -4.56873 2.99883 0
M  V30 7369 H 698.681 -0.710238 0.423663 0
M  V30 7370 H 701.227 -0.928503 1.42045 0
M  V30 7371 H 699.999 -2.41131 3.08174 0
M  V30 7372 H 699.622 -3.54695 1.79659 0
M  V30 7373 N 700.619 -1.13374 -1.09472 0
M  V30 7374 C 702.03 -0.90801 -1.63132 0
M  V30 7375 C 702.381 0.555576 -1.8817 0
M  V30 7376 O 701.506 1.42218 -1.63104 0
M  V30 7377 C 702.101 -1.64182 -2.96361 0
M  V30 7378 C 700.66 -1.46197 -3.46848 0
M  V30 7379 C 699.807 -1.67134 -2.21273 0
M  V30 7380 H 702.758 -1.2871 -0.928411 0
M  V30 7381 H 702.779 -1.09863 -3.64294 0
M  V30 7382 H 702.291 -2.707 -2.78106 0
M  V30 7383 H 700.392 -0.419788 -3.70228 0
M  V30 7384 H 700.505 -2.22472 -4.24315 0
M  V30 7385 H 698.869 -1.09616 -2.29905 0
M  V30 7386 H 699.652 -2.74971 -2.05538 0
M  V30 7387 N 702.098 1.27442 -0.927168 0
M  V30 7388 C 703.514 1.46754 -0.627329 0
M  V30 7389 C 703.714 1.83902 0.823549 0
M  V30 7390 O 702.77 1.95215 1.60148 0
M  V30 7391 C 704.083 2.56045 -1.57674 0
M  V30 7392 C 705.631 2.69906 -1.58491 0
M  V30 7393 C 706.106 3.82355 -2.52128 0
M  V30 7394 N 707.597 3.89728 -2.50332 0
M  V30 7395 C 708.332 4.76155 -3.19475 0
M  V30 7396 N 707.828 5.67073 -3.97995 0
M  V30 7397 N 709.621 4.6988 -3.08496 0
M  V30 7398 H 701.772 1.01613 -1.86517 0
M  V30 7399 H 704.035 0.507443 -0.800753 0
M  V30 7400 H 703.741 2.35542 -2.61176 0
M  V30 7401 H 703.615 3.53423 -1.31804 0
M  V30 7402 H 706.002 2.89792 -0.557208 0
M  V30 7403 H 706.083 1.73018 -1.8841 0
M  V30 7404 H 705.727 3.63224 -3.55008 0
M  V30 7405 H 705.657 4.7867 -2.19505 0
M  V30 7406 H 708.148 3.24717 -1.93306 0
M  V30 7407 H 708.461 6.2988 -4.4774 0
M  V30 7408 H 706.806 5.6687 -4.02098 0
M  V30 7409 H 709.997 3.97848 -2.46646 0
M  V30 7410 H 710.17 5.37017 -3.62652 0
M  V30 7411 N 703.576 0.692616 1.41565 0
M  V30 7412 C 704.804 0.231279 2.05603 0
M  V30 7413 C 705.219 -1.11837 1.52111 0
M  V30 7414 O 704.576 -1.6983 0.66813 0
M  V30 7415 C 704.627 0.177125 3.61066 0
M  V30 7416 O 704.348 1.47346 4.12578 0
M  V30 7417 C 705.849 -0.30556 4.42246 0
M  V30 7418 H 703.069 0.108238 0.662213 0
M  V30 7419 H 705.613 0.944369 1.81389 0
M  V30 7420 H 703.768 -0.486769 3.8433 0
M  V30 7421 H 704.182 1.35861 5.06599 0
M  V30 7422 H 705.656 -0.29233 5.51225 0
M  V30 7423 H 706.133 -1.34393 4.18133 0
M  V30 7424 H 706.739 0.327229 4.24039 0
M  V30 7425 N 705.054 -1.51416 0.437162 0
M  V30 7426 C 705.964 -2.31493 -0.380537 0
M  V30 7427 C 706.98 -1.40399 -1.02782 0
M  V30 7428 O 708.156 -1.73471 -1.02323 0
M  V30 7429 C 705.221 -3.1413 -1.46709 0
M  V30 7430 C 704.282 -4.21003 -0.839953 0
M  V30 7431 C 703.515 -4.9969 -1.87473 0
M  V30 7432 O 703.738 -4.79008 -3.09689 0
M  V30 7433 O 702.672 -5.8379 -1.46536 0
M  V30 7434 H 706.498 -3.02469 0.273183 0
M  V30 7435 H 704.083 -1.48059 0.199706 0
M  V30 7436 H 705.965 -3.65505 -2.09724 0
M  V30 7437 H 704.64 -2.45919 -2.10489 0
M  V30 7438 H 703.547 -3.73706 -0.171752 0
M  V30 7439 H 704.88 -4.91587 -0.245638 0
M  V30 7440 N 706.532 -0.168513 -1.56696 0
M  V30 7441 C 707.778 0.477865 -1.9709 0
M  V30 7442 C 708.111 1.63084 -1.05438 0
M  V30 7443 O 707.386 1.94238 -0.10095 0
M  V30 7444 C 707.669 0.963521 -3.4697 0
M  V30 7445 C 707.522 -0.189443 -4.49401 0
M  V30 7446 C 708.841 1.83813 -3.99876 0
M  V30 7447 H 705.96 0.172229 -0.716593 0
M  V30 7448 H 708.602 -0.254083 -1.88293 0
M  V30 7449 H 706.752 1.58724 -3.54597 0
M  V30 7450 H 708.424 -0.826451 -4.53836 0
M  V30 7451 H 706.667 -0.845366 -4.25483 0
M  V30 7452 H 707.338 0.192446 -5.51664 0
M  V30 7453 H 709.814 1.31235 -3.94863 0
M  V30 7454 H 708.69 2.14697 -5.0517 0
M  V30 7455 H 708.951 2.78289 -3.43523 0
M  V30 7456 N 708.01 1.57248 0.105221 0
M  V30 7457 C 708.943 1.96567 1.15916 0
M  V30 7458 C 709.921 0.837355 1.39381 0
M  V30 7459 O 711.105 1.09676 1.53308 0
M  V30 7460 C 708.232 2.27375 2.51035 0
M  V30 7461 C 707.278 3.49869 2.43913 0
M  V30 7462 S 708.111 5.01958 1.86543 0
M  V30 7463 C 709.267 5.35932 3.23307 0
M  V30 7464 H 709.5 2.85655 0.823931 0
M  V30 7465 H 707.033 1.51204 0.312515 0
M  V30 7466 H 708.991 2.45801 3.28774 0
M  V30 7467 H 707.652 1.38876 2.81731 0
M  V30 7468 H 706.845 3.68835 3.43477 0
M  V30 7469 H 706.447 3.30901 1.743 0
M  V30 7470 H 708.739 5.31958 4.19556 0
M  V30 7471 H 709.682 6.37047 3.09155 0
M  V30 7472 H 710.09 4.63397 3.22372 0
M  V30 7473 N 709.488 -0.375779 1.53054 0
M  V30 7474 C 710.398 -1.48381 1.81715 0
M  V30 7475 C 711.414 -1.59087 0.704795 0
M  V30 7476 O 712.59 -1.75174 0.993785 0
M  V30 7477 C 709.655 -2.83767 1.99192 0
M  V30 7478 C 708.716 -2.82673 3.23102 0
M  V30 7479 C 707.949 -4.11601 3.39736 0
M  V30 7480 O 708.172 -5.07243 2.60885 0
M  V30 7481 O 707.106 -4.18034 4.33049 0
M  V30 7482 H 710.932 -1.27089 2.7583 0
M  V30 7483 H 708.517 -0.564902 1.38308 0
M  V30 7484 H 710.399 -3.64004 2.12318 0
M  V30 7485 H 709.074 -3.05057 1.08267 0
M  V30 7486 H 707.981 -2.0117 3.15407 0
M  V30 7487 H 709.314 -2.66335 4.13916 0
M  V30 7488 N 710.966 -1.44241 -0.634997 0
M  V30 7489 C 712.243 -1.37296 -1.39317 0
M  V30 7490 C 712.623 -0.0297532 -2.11079 0
M  V30 7491 O 711.971 0.987524 -2.06059 0
M  V30 7492 C 712.181 -2.56853 -2.36279 0
M  V30 7493 C 713.529 -3.00747 -2.99728 0
M  V30 7494 O 714.553 -2.5703 -2.46605 0
M  V30 7495 O 713.412 -3.76533 -3.96087 0
M  V30 7496 H 710.506 -0.543503 -0.623325 0
M  V30 7497 H 713.052 -1.56324 -0.660376 0
M  V30 7498 H 711.824 -3.46228 -1.82324 0
M  V30 7499 H 711.447 -2.40019 -3.16981 0
M  V30 7500 N 712.444 0.87505 -1.31075 0
M  V30 7501 C 713.374 1.99775 -1.20881 0
M  V30 7502 C 714.355 1.69822 -0.0971612 0
M  V30 7503 O 715.54 1.92158 -0.280895 0
M  V30 7504 C 712.67 3.35163 -0.910118 0
M  V30 7505 C 711.624 3.79406 -1.98078 0
M  V30 7506 C 710.95 5.12197 -1.53488 0
M  V30 7507 C 712.25 3.97061 -3.39323 0
M  V30 7508 H 713.944 2.08562 -2.14808 0
M  V30 7509 H 711.49 1.00207 -1.03415 0
M  V30 7510 H 713.443 4.13237 -0.825423 0
M  V30 7511 H 712.167 3.26536 0.064822 0
M  V30 7512 H 710.826 3.03568 -2.05528 0
M  V30 7513 H 710.474 5.00007 -0.547941 0
M  V30 7514 H 710.174 5.4277 -2.2511 0
M  V30 7515 H 711.698 5.92785 -1.46417 0
M  V30 7516 H 713.112 4.65545 -3.34576 0
M  V30 7517 H 711.509 4.39025 -4.09118 0
M  V30 7518 H 712.579 3.00601 -3.80483 0
M  V30 7519 N 713.922 1.13953 1.08869 0
M  V30 7520 C 714.854 0.779906 2.15523 0
M  V30 7521 C 715.867 -0.20102 1.61554 0
M  V30 7522 O 717.056 0.0200049 1.78489 0
M  V30 7523 C 714.156 0.136226 3.38626 0
M  V30 7524 C 713.329 1.15069 4.21993 0
M  V30 7525 C 712.388 0.531645 5.23507 0
M  V30 7526 O 711.414 1.19327 5.56552 0
M  V30 7527 N 712.616 -0.693734 5.7634 0
M  V30 7528 H 715.381 1.69769 2.46979 0
M  V30 7529 H 712.942 1.03331 1.24637 0
M  V30 7530 H 714.934 -0.290295 4.03658 0
M  V30 7531 H 713.504 -0.684603 3.05011 0
M  V30 7532 H 712.724 1.75431 3.53012 0
M  V30 7533 H 714.012 1.83614 4.74514 0
M  V30 7534 H 713.41 -1.24994 5.51718 0
M  V30 7535 H 711.967 -1.06283 6.43076 0
M  V30 7536 N 715.4 -1.26948 0.933913 0
M  V30 7537 C 716.347 -2.26635 0.436484 0
M  V30 7538 C 717.317 -1.58397 -0.499953 0
M  V30 7539 O 718.502 -1.86171 -0.417753 0
M  V30 7540 C 715.642 -3.43803 -0.298951 0
M  V30 7541 C 714.755 -4.26736 0.672316 0
M  V30 7542 C 713.89 -5.31134 -0.0835872 0
M  V30 7543 C 712.929 -6.05742 0.879979 0
M  V30 7544 N 712.066 -7.01926 0.156301 0
M  V30 7545 H 716.906 -2.68558 1.29154 0
M  V30 7546 H 714.443 -1.32052 0.648118 0
M  V30 7547 H 716.401 -4.10554 -0.741723 0
M  V30 7548 H 715.031 -3.02814 -1.1182 0
M  V30 7549 H 714.083 -3.59842 1.23361 0
M  V30 7550 H 715.395 -4.78502 1.40846 0
M  V30 7551 H 714.549 -6.03863 -0.585984 0
M  V30 7552 H 713.288 -4.80188 -0.852661 0
M  V30 7553 H 712.293 -5.31846 1.39357 0
M  V30 7554 H 713.518 -6.58777 1.64894 0
M  V30 7555 H 711.464 -6.53301 -0.594413 0
M  V30 7556 H 711.381 -7.51409 0.831906 0
M  V30 7557 H 712.649 -7.78821 -0.325239 0
M  V30 7558 N 716.879 -0.700114 -1.41195 0
M  V30 7559 C 717.809 -0.0521132 -2.33442 0
M  V30 7560 C 718.79 0.76228 -1.52063 0
M  V30 7561 O 719.975 0.714336 -1.80585 0
M  V30 7562 C 717.105 0.881693 -3.35922 0
M  V30 7563 C 716.059 0.174062 -4.27646 0
M  V30 7564 C 715.385 1.22254 -5.20536 0
M  V30 7565 C 716.685 -0.962396 -5.13357 0
M  V30 7566 H 718.379 -0.822574 -2.87879 0
M  V30 7567 H 715.925 -0.397011 -1.38419 0
M  V30 7568 H 717.878 1.34429 -3.99383 0
M  V30 7569 H 716.602 1.68387 -2.79845 0
M  V30 7570 H 715.261 -0.268551 -3.65615 0
M  V30 7571 H 714.909 2.01736 -4.60773 0
M  V30 7572 H 714.609 0.754038 -5.82742 0
M  V30 7573 H 716.133 1.68555 -5.86874 0
M  V30 7574 H 717.547 -0.579875 -5.7036 0
M  V30 7575 H 715.944 -1.35828 -5.84526 0
M  V30 7576 H 717.014 -1.80003 -4.50252 0
M  V30 7577 N 718.357 1.51182 -0.445186 0
M  V30 7578 C 719.287 2.30821 0.352686 0
M  V30 7579 C 720.268 1.36576 1.01395 0
M  V30 7580 O 721.453 1.65497 1.01609 0
M  V30 7581 C 718.583 3.15593 1.44976 0
M  V30 7582 C 717.537 4.1818 0.911553 0
M  V30 7583 C 716.863 4.91523 2.10497 0
M  V30 7584 C 718.163 5.22266 -0.059418 0
M  V30 7585 H 719.857 2.97771 -0.311936 0
M  V30 7586 H 717.403 1.43201 -0.151461 0
M  V30 7587 H 719.356 3.70091 2.01521 0
M  V30 7588 H 718.08 2.4648 2.14278 0
M  V30 7589 H 716.739 3.64746 0.368264 0
M  V30 7590 H 716.387 4.18906 2.78437 0
M  V30 7591 H 716.087 5.60898 1.7512 0
M  V30 7592 H 717.611 5.48847 2.6758 0
M  V30 7593 H 719.025 5.71789 0.415985 0
M  V30 7594 H 717.422 5.99213 -0.326152 0
M  V30 7595 H 718.492 4.7461 -0.993631 0
M  V30 7596 N 719.835 0.176821 1.56605 0
M  V30 7597 C 721.246 -0.338963 1.83597 0
M  V30 7598 C 721.597 -1.62677 1.09684 0
M  V30 7599 O 720.722 -2.13524 0.351661 0
M  V30 7600 C 721.317 -0.62177 3.33046 0
M  V30 7601 C 719.876 -1.08198 3.60514 0
M  V30 7602 C 719.023 -0.120774 2.77037 0
M  V30 7603 H 721.974 0.400978 1.53551 0
M  V30 7604 H 721.995 -1.47321 3.50823 0
M  V30 7605 H 721.507 0.315692 3.86814 0
M  V30 7606 H 719.608 -2.03435 3.12162 0
M  V30 7607 H 719.721 -0.987329 4.68816 0
M  V30 7608 H 718.085 -0.619192 2.47059 0
M  V30 7609 H 718.868 0.810806 3.33588 0
M  V30 7610 N 721.313 -1.57302 -0.09688 0
M  V30 7611 C 722.561 -1.8563 -0.799117 0
M  V30 7612 C 722.882 -0.765263 -1.79356 0
M  V30 7613 O 722.152 0.208657 -1.94786 0
M  V30 7614 H 720.732 -0.684937 -0.298111 0
M  V30 7615 H 723.394 -1.9474 -0.0789341 0
M  V30 7616 H 722.49 -2.82305 -1.3308 0
M  V30 7617 N 722.791 0.367657 -1.53252 0
M  V30 7618 C 724.038 1.11052 -1.69333 0
M  V30 7619 C 724.366 1.89363 -0.444064 0
M  V30 7620 O 723.621 1.87094 0.573953 0
M  V30 7621 C 723.92 2.09825 -2.89324 0
M  V30 7622 C 723.586 1.4801 -4.25915 0
M  V30 7623 C 722.248 1.30879 -4.6306 0
M  V30 7624 C 724.6 1.03268 -5.10867 0
M  V30 7625 C 721.928 0.675868 -5.82794 0
M  V30 7626 C 724.28 0.41377 -6.31245 0
M  V30 7627 C 722.944 0.229939 -6.67104 0
M  V30 7628 H 722.214 0.406367 -0.619634 0
M  V30 7629 H 724.861 0.392558 -1.87433 0
M  V30 7630 H 723.166 2.87917 -2.65728 0
M  V30 7631 H 724.863 2.67252 -2.98961 0
M  V30 7632 H 721.453 1.62336 -3.96667 0
M  V30 7633 H 725.637 1.15297 -4.82722 0
M  V30 7634 H 720.893 0.521833 -6.09169 0
M  V30 7635 H 725.067 0.0588768 -6.96375 0
M  V30 7636 H 722.694 -0.262562 -7.59746 0
M  V30 7637 N 724.269 1.44576 0.627338 0
M  V30 7638 C 725.68 1.42266 1.20902 0
M  V30 7639 C 726.031 0.139964 1.957 0
M  V30 7640 O 725.156 -0.759489 2.02634 0
M  V30 7641 C 725.751 2.57727 2.19914 0
M  V30 7642 C 724.31 2.58599 2.73502 0
M  V30 7643 C 723.457 2.34145 1.48564 0
M  V30 7644 H 726.408 1.53102 0.417791 0
M  V30 7645 H 726.429 2.30697 3.02588 0
M  V30 7646 H 725.941 3.51068 1.65447 0
M  V30 7647 H 724.042 1.6921 3.31962 0
M  V30 7648 H 724.155 3.57205 3.19282 0
M  V30 7649 H 722.519 1.83313 1.76829 0
M  V30 7650 H 723.302 3.29606 0.959935 0
M  V30 7651 N 725.747 -0.868086 1.31537 0
M  V30 7652 C 726.995 -1.61807 1.21091 0
M  V30 7653 C 727.316 -1.93631 -0.230623 0
M  V30 7654 O 726.586 -1.5846 -1.15183 0
M  V30 7655 H 725.166 -0.599854 0.445178 0
M  V30 7656 H 727.828 -1.03915 1.64887 0
M  V30 7657 H 726.924 -2.56088 1.78396 0
M  V30 7658 N 727.225 -1.14528 -1.08264 0
M  V30 7659 C 728.471 -0.91576 -1.80947 0
M  V30 7660 C 728.804 0.55623 -1.86064 0
M  V30 7661 O 728.079 1.41207 -1.33756 0
M  V30 7662 C 728.362 -1.51917 -3.26486 0
M  V30 7663 C 728.215 -3.06111 -3.2957 0
M  V30 7664 C 729.534 -1.19724 -4.23502 0
M  V30 7665 H 726.653 -0.334113 -0.656915 0
M  V30 7666 H 729.295 -1.41547 -1.26746 0
M  V30 7667 H 727.445 -1.0942 -3.72773 0
M  V30 7668 H 729.117 -3.57448 -2.91597 0
M  V30 7669 H 727.36 -3.40483 -2.688 0
M  V30 7670 H 728.031 -3.43438 -4.32151 0
M  V30 7671 H 730.507 -1.56467 -3.85561 0
M  V30 7672 H 729.383 -1.64575 -5.23647 0
M  V30 7673 H 729.644 -0.112771 -4.41956 0
M  V30 7674 N 728.703 1.26451 -0.940633 0
M  V30 7675 C 729.651 2.28389 -0.440581 0
M  V30 7676 C 730.645 1.62402 0.481859 0
M  V30 7677 O 731.851 1.76361 0.360132 0
M  V30 7678 H 728.226 0.741716 -0.123938 0
M  V30 7679 H 730.197 2.67967 -1.31288 0
M  V30 7680 C 728.946 3.46576 0.279364 0
M  V30 7681 H 728.269 3.97574 -0.421274 0
M  V30 7682 H 729.709 4.19826 0.59348 0
M  V30 7683 C 728.168 3.01815 1.49697 0
M  V30 7684 O 728.698 3.06607 2.59529 0
M  V30 7685 N 726.904 2.57163 1.35334 0
M  V30 7686 H 726.451 2.53464 0.459743 0
M  V30 7687 H 726.409 2.27578 2.16923 0
M  V30 7688 N 730.181 0.707592 1.40822 0
M  V30 7689 C 731.592 0.317011 1.83989 0
M  V30 7690 C 731.943 -1.14697 1.59182 0
M  V30 7691 O 731.068 -1.8818 1.06852 0
M  V30 7692 C 731.663 0.568593 3.33995 0
M  V30 7693 C 730.222 0.231804 3.75686 0
M  V30 7694 C 729.369 0.844933 2.64114 0
M  V30 7695 H 732.32 0.907349 1.30203 0
M  V30 7696 H 732.341 -0.168798 3.80125 0
M  V30 7697 H 731.853 1.63417 3.52018 0
M  V30 7698 H 729.954 -0.82903 3.6326 0
M  V30 7699 H 730.067 0.695219 4.74029 0
M  V30 7700 H 728.431 0.273588 2.53226 0
M  V30 7701 H 729.214 1.91462 2.84951 0
M  V30 7702 N 731.66 -1.50943 0.453197 0
M  V30 7703 C 732.592 -2.25922 -0.38623 0
M  V30 7704 C 733.605 -1.3055 -0.972652 0
M  V30 7705 O 734.794 -1.56191 -0.864097 0
M  V30 7706 C 731.894 -3.01176 -1.5539 0
M  V30 7707 C 731.067 -4.23768 -1.0835 0
M  V30 7708 C 730.126 -4.81466 -2.12313 0
M  V30 7709 O 729.152 -5.42875 -1.71101 0
M  V30 7710 N 730.354 -4.66889 -3.44956 0
M  V30 7711 H 733.119 -2.98601 0.256468 0
M  V30 7712 H 730.68 -1.59408 0.282965 0
M  V30 7713 H 732.672 -3.36659 -2.24594 0
M  V30 7714 H 731.242 -2.31409 -2.10163 0
M  V30 7715 H 730.462 -3.93597 -0.217961 0
M  V30 7716 H 731.75 -5.03289 -0.746857 0
M  V30 7717 H 731.148 -4.18011 -3.81161 0
M  V30 7718 H 729.705 -5.06691 -4.1001 0
M  V30 7719 N 733.138 -0.185124 -1.56509 0
M  V30 7720 C 734.101 0.72591 -2.17401 0
M  V30 7721 C 735.101 1.14819 -1.12575 0
M  V30 7722 O 736.291 1.0629 -1.38015 0
M  V30 7723 C 733.423 1.98979 -2.76803 0
M  V30 7724 H 734.616 0.195588 -2.99262 0
M  V30 7725 H 732.169 0.0644772 -1.56167 0
M  V30 7726 H 732.904 2.56287 -1.98714 0
M  V30 7727 H 732.689 1.69583 -3.53531 0
M  V30 7728 H 734.179 2.63966 -3.23592 0
M  V30 7729 N 734.616 1.57351 0.0885366 0
M  V30 7730 C 736.027 1.75303 0.642308 0
M  V30 7731 C 736.378 0.808238 1.78779 0
M  V30 7732 O 735.503 -0.01171 2.16397 0
M  V30 7733 C 736.098 3.17885 1.17194 0
M  V30 7734 C 734.657 3.37239 1.67172 0
M  V30 7735 C 733.804 2.7108 0.584045 0
M  V30 7736 H 736.755 1.58103 -0.137567 0
M  V30 7737 H 736.776 3.2112 2.04114 0
M  V30 7738 H 736.288 3.86625 0.338024 0
M  V30 7739 H 734.389 2.73588 2.52943 0
M  V30 7740 H 734.502 4.45594 1.76019 0
M  V30 7741 H 732.866 2.33161 1.02508 0
M  V30 7742 H 733.649 3.42464 -0.239403 0
M  V30 7743 N 736.094 -0.359525 1.53444 0
M  V30 7744 C 737.341 -1.10152 1.6992 0
M  V30 7745 C 737.669 -1.89125 0.4541 0
M  V30 7746 O 736.924 -1.87396 -0.564023 0
M  V30 7747 C 737.223 -2.08287 2.90433 0
M  V30 7748 C 736.889 -1.45749 4.26694 0
M  V30 7749 C 735.551 -1.28421 4.63747 0
M  V30 7750 C 737.903 -1.00557 5.11408 0
M  V30 7751 C 735.231 -0.644951 5.83144 0
M  V30 7752 C 737.583 -0.380288 6.31456 0
M  V30 7753 C 736.247 -0.194557 6.67216 0
M  V30 7754 H 735.517 -0.403076 0.621781 0
M  V30 7755 H 738.164 -0.382612 1.87639 0
M  V30 7756 H 736.469 -2.86503 2.67251 0
M  V30 7757 H 738.166 -2.65662 3.00374 0
M  V30 7758 H 734.756 -1.6023 3.97523 0
M  V30 7759 H 738.94 -1.12735 4.83326 0
M  V30 7760 H 734.196 -0.48952 6.09437 0
M  V30 7761 H 738.37 -0.0219455 6.96397 0
M  V30 7762 H 735.997 0.30285 7.59597 0
M  V30 7763 N 737.572 -1.44907 -0.619662 0
M  V30 7764 C 738.502 -1.55488 -1.742 0
M  V30 7765 C 739.483 -0.407143 -1.65156 0
M  V30 7766 O 740.668 -0.628743 -1.8374 0
M  V30 7767 C 737.798 -1.5097 -3.1277 0
M  V30 7768 C 736.752 -2.64337 -3.36615 0
M  V30 7769 C 736.078 -2.44872 -4.75333 0
M  V30 7770 C 737.378 -4.06423 -3.28051 0
M  V30 7771 H 739.072 -2.49432 -1.65602 0
M  V30 7772 H 736.618 -1.20047 -0.795281 0
M  V30 7773 H 738.571 -1.56971 -3.91073 0
M  V30 7774 H 737.295 -0.535486 -3.2218 0
M  V30 7775 H 735.954 -2.57744 -2.60698 0
M  V30 7776 H 735.602 -1.45617 -4.81461 0
M  V30 7777 H 735.302 -3.20888 -4.92244 0
M  V30 7778 H 736.826 -2.52709 -5.55851 0
M  V30 7779 H 738.24 -4.14324 -3.96243 0
M  V30 7780 H 736.637 -4.82733 -3.56495 0
M  V30 7781 H 737.707 -4.29183 -2.25676 0
M  V30 7782 N 739.05 0.861098 -1.31996 0
M  V30 7783 C 739.982 1.97551 -1.16216 0
M  V30 7784 C 740.995 1.625 -0.0988527 0
M  V30 7785 O 742.184 1.75091 -0.3472 0
M  V30 7786 C 739.284 3.30376 -0.755307 0
M  V30 7787 C 738.457 3.93711 -1.90552 0
M  V30 7788 C 737.516 5.04862 -1.48328 0
M  V30 7789 O 736.542 5.25204 -2.19431 0
M  V30 7790 N 737.744 5.79283 -0.375656 0
M  V30 7791 H 740.509 2.11632 -2.12208 0
M  V30 7792 H 738.07 1.03559 -1.24448 0
M  V30 7793 H 740.062 4.0213 -0.455364 0
M  V30 7794 H 738.632 3.12395 0.113269 0
M  V30 7795 H 737.852 3.14825 -2.37231 0
M  V30 7796 H 739.14 4.32762 -2.67571 0
M  V30 7797 H 738.538 5.65286 0.216284 0
M  V30 7798 H 737.095 6.5166 -0.135289 0
M  V30 7799 N 740.528 1.15101 1.07655 0
M  V30 7800 C 741.774 0.925343 1.80458 0
M  V30 7801 C 742.107 -0.546354 1.86356 0
M  V30 7802 O 741.382 -1.40496 1.34503 0
M  V30 7803 C 741.665 1.53646 3.25676 0
M  V30 7804 C 741.518 3.07854 3.27942 0
M  V30 7805 C 742.837 1.21968 4.22861 0
M  V30 7806 H 739.956 0.337592 0.655134 0
M  V30 7807 H 742.598 1.42217 1.25993 0
M  V30 7808 H 740.748 1.11395 3.72187 0
M  V30 7809 H 742.42 3.58989 2.89697 0
M  V30 7810 H 740.663 3.41904 2.66991 0
M  V30 7811 H 741.334 3.45725 4.30324 0
M  V30 7812 H 743.81 1.5851 3.84726 0
M  V30 7813 H 742.686 1.67349 5.22767 0
M  V30 7814 H 742.947 0.136207 4.4189 0
M  V30 7815 N 742.006 -1.2595 0.947325 0
M  V30 7816 C 742.969 -2.24407 0.466285 0
M  V30 7817 C 743.969 -1.55054 -0.426005 0
M  V30 7818 O 745.159 -1.7275 -0.224319 0
M  V30 7819 C 742.291 -3.39326 -0.327201 0
M  V30 7820 H 743.484 -2.68477 1.33642 0
M  V30 7821 H 741.037 -1.38211 0.729887 0
M  V30 7822 H 741.772 -3.00667 -1.21532 0
M  V30 7823 H 741.557 -3.9085 0.312839 0
M  V30 7824 H 743.047 -4.12455 -0.653477 0
M  V30 7825 N 743.484 -0.715051 -1.40445 0
M  V30 7826 C 744.895 -0.326763 -1.83818 0
M  V30 7827 C 745.246 1.13851 -1.59789 0
M  V30 7828 O 744.371 1.87611 -1.07848 0
M  V30 7829 C 744.966 -0.586297 -3.33688 0
M  V30 7830 C 743.525 -0.251724 -3.75557 0
M  V30 7831 C 742.672 -0.858928 -2.63662 0
M  V30 7832 H 745.623 -0.914241 -1.2972 0
M  V30 7833 H 745.644 0.148636 -3.8021 0
M  V30 7834 H 745.156 -1.65281 -3.51146 0
M  V30 7835 H 743.257 0.809754 -3.63695 0
M  V30 7836 H 743.37 -0.720348 -4.73654 0
M  V30 7837 H 741.734 -0.287013 -2.53078 0
M  V30 7838 H 742.517 -1.9297 -2.83932 0
M  V30 7839 N 744.962 1.50701 -0.461195 0
M  V30 7840 C 745.91 2.29918 0.352231 0
M  V30 7841 C 746.904 1.36778 0.999403 0
M  V30 7842 O 748.11 1.54015 0.931639 0
M  V30 7843 H 744.485 0.740249 0.132423 0
M  V30 7844 H 746.456 2.96497 -0.336424 0
M  V30 7845 C 745.205 3.17052 1.42736 0
M  V30 7846 H 744.528 3.88623 0.938747 0
M  V30 7847 H 745.968 3.75493 1.96928 0
M  V30 7848 C 744.427 2.3399 2.42384 0
M  V30 7849 O 744.957 2.01608 3.47444 0
M  V30 7850 N 743.163 1.96758 2.13857 0
M  V30 7851 H 742.71 2.23292 1.28447 0
M  V30 7852 H 742.668 1.41484 2.80766 0
M  V30 7853 N 746.441 0.193421 1.56409 0
M  V30 7854 C 747.687 -0.446449 1.97825 0
M  V30 7855 C 748.02 -1.61386 1.08019 0
M  V30 7856 O 747.295 -1.94053 0.131839 0
M  V30 7857 C 747.578 -0.908199 3.48459 0
M  V30 7858 C 747.431 0.260914 4.49043 0
M  V30 7859 C 748.75 -1.77428 4.0275 0
M  V30 7860 H 745.869 -0.160807 0.719243 0
M  V30 7861 H 748.511 0.284006 1.87865 0
M  V30 7862 H 746.661 -1.53062 3.57077 0
M  V30 7863 H 748.333 0.898548 4.52464 0
M  V30 7864 H 746.576 0.912949 4.24085 0
M  V30 7865 H 747.247 -0.104657 5.51901 0
M  V30 7866 H 749.723 -1.24936 3.96901 0
M  V30 7867 H 748.599 -2.06633 5.08521 0
M  V30 7868 H 748.86 -2.72788 3.47907 0
M  V30 7869 N 747.919 -1.57396 -0.0801906 0
M  V30 7870 C 748.867 -2.04136 -1.11495 0
M  V30 7871 C 749.861 -0.945137 -1.40583 0
M  V30 7872 O 751.067 -1.13028 -1.40088 0
M  V30 7873 H 747.442 -0.65076 -0.37685 0
M  V30 7874 H 749.413 -2.90205 -0.694526 0
M  V30 7875 C 748.162 -2.49399 -2.42272 0
M  V30 7876 H 747.485 -3.33339 -2.20737 0
M  V30 7877 H 748.925 -2.85864 -3.13142 0
M  V30 7878 C 747.384 -1.37341 -3.07635 0
M  V30 7879 O 747.914 -0.710829 -3.95361 0
M  V30 7880 N 746.12 -1.12064 -2.68123 0
M  V30 7881 H 745.667 -1.66126 -1.96875 0
M  V30 7882 H 745.625 -0.372916 -3.12181 0
M  V30 7883 N 749.397 0.351382 -1.53633 0
M  V30 7884 C 750.644 1.0925 -1.70502 0
M  V30 7885 C 750.972 1.88881 -0.464123 0
M  V30 7886 O 750.227 1.87693 0.554077 0
M  V30 7887 C 750.526 2.06744 -2.91533 0
M  V30 7888 C 750.192 1.43484 -4.27461 0
M  V30 7889 C 748.854 1.2596 -4.64422 0
M  V30 7890 C 751.206 0.978436 -5.11934 0
M  V30 7891 C 748.534 0.614017 -5.83478 0
M  V30 7892 C 750.886 0.346795 -6.31649 0
M  V30 7893 C 749.55 0.15917 -6.6731 0
M  V30 7894 H 748.82 0.399773 -0.623909 0
M  V30 7895 H 751.467 0.372656 -1.87839 0
M  V30 7896 H 749.772 2.85082 -2.68767 0
M  V30 7897 H 751.469 2.64066 -3.01778 0
M  V30 7898 H 748.059 1.5812 -3.98367 0
M  V30 7899 H 752.243 1.1017 -4.83918 0
M  V30 7900 H 747.499 0.457194 -6.09688 0
M  V30 7901 H 751.673 -0.0149864 -6.96398 0
M  V30 7902 H 749.3 -0.343129 -7.59425 0
M  V30 7903 N 750.875 1.45233 0.611969 0
M  V30 7904 C 751.808 1.48056 1.73651 0
M  V30 7905 C 752.786 0.337373 1.59061 0
M  V30 7906 O 753.97 0.537222 1.80683 0
M  V30 7907 C 751.097 1.33144 3.11433 0
M  V30 7908 C 750.143 2.51272 3.44623 0
M  V30 7909 S 750.976 4.13754 3.39953 0
M  V30 7910 C 752.132 4.013 4.80322 0
M  V30 7911 H 752.365 2.43205 1.70993 0
M  V30 7912 H 749.898 1.32763 0.788246 0
M  V30 7913 H 751.856 1.25228 3.90932 0
M  V30 7914 H 750.517 0.394734 3.1161 0
M  V30 7915 H 749.71 2.36753 4.44932 0
M  V30 7916 H 749.312 2.56027 2.72629 0
M  V30 7917 H 751.604 3.66174 5.7002 0
M  V30 7918 H 752.547 5.01506 4.99897 0
M  V30 7919 H 752.955 3.3303 4.55797 0
M  V30 7920 N 752.353 -0.854086 1.3245 0
M  V30 7921 C 753.303 -1.9508 1.18016 0
M  V30 7922 C 754.287 -1.60665 0.0869417 0
M  V30 7923 O 755.479 -1.74201 0.313505 0
M  V30 7924 C 752.608 -3.3113 0.905961 0
M  V30 7925 C 751.694 -3.71763 2.04091 0
M  V30 7926 N 752.085 -3.84218 3.28953 0
M  V30 7927 C 750.383 -4.01393 1.94421 0
M  V30 7928 C 751.084 -4.192 4.03294 0
M  V30 7929 N 750.06 -4.30749 3.31596 0
M  V30 7930 H 753.862 -2.02843 2.12678 0
M  V30 7931 H 751.376 -1.04588 1.24238 0
M  V30 7932 H 753.373 -4.09471 0.783508 0
M  V30 7933 H 752.033 -3.24684 -0.0322715 0
M  V30 7934 H 753.044 -3.68524 3.63883 0
M  V30 7935 H 749.721 -4.03246 1.08162 0
M  V30 7936 H 751.111 -4.36301 5.1097 0
M  V30 7937 N 753.831 -1.1567 -1.07043 0
M  V30 7938 C 754.779 -0.852204 -2.16426 0
M  V30 7939 C 755.773 0.175661 -1.68487 0
M  V30 7940 O 756.979 0.0303874 -1.79974 0
M  V30 7941 H 753.354 -0.257942 -0.706378 0
M  V30 7942 H 755.325 -1.78231 -2.39324 0
M  V30 7943 C 754.074 -0.361362 -3.45817 0
M  V30 7944 H 753.397 -1.14369 -3.83092 0
M  V30 7945 H 754.837 -0.186997 -4.23587 0
M  V30 7946 C 753.296 0.917703 -3.2416 0
M  V30 7947 O 753.826 1.98858 -3.49025 0
M  V30 7948 N 752.032 0.858456 -2.77631 0
M  V30 7949 H 751.579 -0.0131821 -2.57597 0
M  V30 7950 H 751.537 1.71478 -2.6352 0
M  V30 7951 N 755.309 1.25446 -0.953992 0
M  V30 7952 C 756.239 2.28264 -0.491717 0
M  V30 7953 C 757.22 1.63717 0.461617 0
M  V30 7954 O 758.405 1.90821 0.36071 0
M  V30 7955 C 755.535 3.46525 0.231915 0
M  V30 7956 C 754.489 4.23247 -0.636098 0
M  V30 7957 C 753.815 5.34254 0.218238 0
M  V30 7958 C 755.115 4.85971 -1.91389 0
M  V30 7959 H 756.809 2.67183 -1.35106 0
M  V30 7960 H 754.355 1.2844 -0.651095 0
M  V30 7961 H 756.308 4.17576 0.566439 0
M  V30 7962 H 755.032 3.06594 1.12551 0
M  V30 7963 H 753.691 3.53978 -0.953696 0
M  V30 7964 H 753.339 4.90564 1.11156 0
M  V30 7965 H 753.039 5.86501 -0.359232 0
M  V30 7966 H 754.563 6.08138 0.547743 0
M  V30 7967 H 755.977 5.49168 -1.64581 0
M  V30 7968 H 754.374 5.48391 -2.43696 0
M  V30 7969 H 755.444 4.08192 -2.61738 0
M  V30 7970 N 756.787 0.722489 1.40064 0
M  V30 7971 C 757.717 0.0892452 2.33329 0
M  V30 7972 C 758.698 -0.737992 1.53257 0
M  V30 7973 O 759.883 -0.685516 1.81698 0
M  V30 7974 C 757.013 -0.828139 3.37282 0
M  V30 7975 C 755.967 -0.106005 4.27869 0
M  V30 7976 C 755.293 -1.13957 5.22415 0
M  V30 7977 C 756.593 1.04395 5.11761 0
M  V30 7978 H 758.287 0.868269 2.86534 0
M  V30 7979 H 755.833 0.418982 1.3777 0
M  V30 7980 H 757.786 -1.28058 4.01471 0
M  V30 7981 H 756.51 -1.63914 2.82489 0
M  V30 7982 H 755.169 0.326683 3.65142 0
M  V30 7983 H 754.817 -1.9438 4.63924 0
M  V30 7984 H 754.517 -0.661233 5.83868 0
M  V30 7985 H 756.041 -1.59197 5.89482 0
M  V30 7986 H 757.455 0.670541 5.69365 0
M  V30 7987 H 755.852 1.4511 5.82291 0
M  V30 7988 H 756.922 1.87144 4.47331 0
M  V30 7989 N 758.265 -1.50454 0.469181 0
M  V30 7990 C 759.676 -1.86695 0.0136034 0
M  V30 7991 C 760.027 -1.38413 -1.39055 0
M  V30 7992 O 759.152 -0.748294 -2.03051 0
M  V30 7993 C 759.747 -3.38795 0.0179098 0
M  V30 7994 C 758.306 -3.74455 -0.382191 0
M  V30 7995 C 757.453 -2.74338 0.404207 0
M  V30 7996 H 760.404 -1.43225 0.683547 0
M  V30 7997 H 760.425 -3.72321 -0.78468 0
M  V30 7998 H 759.937 -3.73906 1.04 0
M  V30 7999 H 758.038 -3.44944 -1.4087 0
M  V30 8000 H 758.151 -4.79025 -0.084862 0
M  V30 8001 H 756.515 -2.54305 -0.141829 0
M  V30 8002 H 757.298 -3.12293 1.42577 0
M  V30 8003 N 759.743 -0.201713 -1.56304 0
M  V30 8004 C 760.676 0.755976 -2.15314 0
M  V30 8005 C 761.654 1.20497 -1.09175 0
M  V30 8006 O 762.838 1.2913 -1.37323 0
M  V30 8007 C 759.965 2.02177 -2.71739 0
M  V30 8008 C 759.011 1.71436 -3.90528 0
M  V30 8009 S 759.844 0.856624 -5.28604 0
M  V30 8010 C 761 2.13242 -5.88455 0
M  V30 8011 H 761.233 0.254348 -2.9621 0
M  V30 8012 H 758.766 0.0133669 -1.54394 0
M  V30 8013 H 760.724 2.74867 -3.04891 0
M  V30 8014 H 759.385 2.49452 -1.90873 0
M  V30 8015 H 758.578 2.65433 -4.28441 0
M  V30 8016 H 758.18 1.06823 -3.5842 0
M  V30 8017 H 760.472 3.08435 -6.0322 0
M  V30 8018 H 761.415 1.7975 -6.84905 0
M  V30 8019 H 761.823 2.2639 -5.17115 0
M  V30 8020 N 761.222 1.57436 0.0718424 0
M  V30 8021 C 762.154 2.00412 1.1121 0
M  V30 8022 C 763.167 0.910074 1.34987 0
M  V30 8023 O 764.356 1.18796 1.33228 0
M  V30 8024 C 761.456 2.32786 2.46301 0
M  V30 8025 C 760.629 3.64036 2.4248 0
M  V30 8026 C 759.688 3.8408 3.59679 0
M  V30 8027 O 758.714 4.55667 3.4111 0
M  V30 8028 N 759.916 3.2643 4.80025 0
M  V30 8029 H 762.681 2.90264 0.746118 0
M  V30 8030 H 760.242 1.59791 0.260495 0
M  V30 8031 H 762.234 2.43368 3.23348 0
M  V30 8032 H 760.804 1.48824 2.74901 0
M  V30 8033 H 760.024 3.64208 1.50818 0
M  V30 8034 H 761.312 4.50217 2.37027 0
M  V30 8035 H 760.71 2.68325 4.98014 0
M  V30 8036 H 759.267 3.42461 5.54584 0
M  V30 8037 N 762.7 -0.34323 1.53817 0
M  V30 8038 C 763.648 -1.44176 1.82527 0
M  V30 8039 C 764.642 -1.54452 0.695772 0
M  V30 8040 O 765.848 -1.57072 0.879114 0
M  V30 8041 H 762.223 -0.480729 0.578277 0
M  V30 8042 H 764.194 -1.17176 2.74431 0
M  V30 8043 C 762.943 -2.80695 2.05197 0
M  V30 8044 H 762.266 -2.73554 2.91561 0
M  V30 8045 H 763.706 -3.56679 2.29251 0
M  V30 8046 C 762.165 -3.26322 0.837589 0
M  V30 8047 O 762.695 -4.01683 0.0371631 0
M  V30 8048 N 760.901 -2.83128 0.654724 0
M  V30 8049 H 760.448 -2.21965 1.30725 0
M  V30 8050 H 760.406 -3.14011 -0.156345 0
M  V30 8051 N 764.178 -1.45556 -0.604258 0
M  V30 8052 C 765.108 -1.57327 -1.72541 0
M  V30 8053 C 766.089 -0.424637 -1.64714 0
M  V30 8054 O 767.274 -0.648196 -1.83063 0
M  V30 8055 C 764.404 -1.54279 -3.11152 0
M  V30 8056 C 763.358 -2.67893 -3.33792 0
M  V30 8057 C 762.684 -2.499 -4.72709 0
M  V30 8058 C 763.984 -4.0988 -3.23722 0
M  V30 8059 H 765.678 -2.51175 -1.62947 0
M  V30 8060 H 763.224 -1.20884 -0.782504 0
M  V30 8061 H 765.177 -1.6111 -3.89386 0
M  V30 8062 H 763.901 -0.569627 -3.21594 0
M  V30 8063 H 762.56 -2.60495 -2.57949 0
M  V30 8064 H 762.208 -1.50715 -4.79889 0
M  V30 8065 H 761.908 -3.26091 -4.88813 0
M  V30 8066 H 763.432 -2.5859 -5.5314 0
M  V30 8067 H 764.846 -4.18503 -3.91826 0
M  V30 8068 H 763.243 -4.86487 -3.51355 0
M  V30 8069 H 764.313 -4.31553 -2.21111 0
M  V30 8070 N 765.656 0.84705 -1.32902 0
M  V30 8071 C 766.588 1.96308 -1.18304 0
M  V30 8072 C 767.601 1.62386 -0.116082 0
M  V30 8073 O 768.79 1.74713 -0.365751 0
M  V30 8074 C 765.89 3.29556 -0.790305 0
M  V30 8075 C 765.063 3.91668 -1.94717 0
M  V30 8076 C 764.122 5.0326 -1.53674 0
M  V30 8077 O 763.148 5.22847 -2.24989 0
M  V30 8078 N 764.35 5.78852 -0.437075 0
M  V30 8079 H 767.115 2.09369 -2.14441 0
M  V30 8080 H 764.676 1.02233 -1.25539 0
M  V30 8081 H 766.668 4.01624 -0.49799 0
M  V30 8082 H 765.238 3.12497 0.0801286 0
M  V30 8083 H 764.458 3.12292 -2.40557 0
M  V30 8084 H 765.746 4.299 -2.72146 0
M  V30 8085 H 765.144 5.65484 0.156316 0
M  V30 8086 H 763.701 6.51479 -0.204399 0
M  V30 8087 N 767.134 1.16236 1.06428 0
M  V30 8088 C 768.545 0.950942 1.60667 0
M  V30 8089 C 768.896 -0.505491 1.89576 0
M  V30 8090 O 768.021 -1.37843 1.66818 0
M  V30 8091 C 768.616 1.71982 2.91904 0
M  V30 8092 C 767.175 1.55342 3.4285 0
M  V30 8093 C 766.322 1.72942 2.16763 0
M  V30 8094 H 769.273 1.31126 0.893959 0
M  V30 8095 H 769.294 1.19483 3.61253 0
M  V30 8096 H 768.806 2.77978 2.70831 0
M  V30 8097 H 766.907 0.5178 3.68985 0
M  V30 8098 H 767.02 2.33643 4.18267 0
M  V30 8099 H 765.384 1.15673 2.26918 0
M  V30 8100 H 766.167 2.80324 1.98175 0
M  V30 8101 N 768.612 -1.24939 0.960631 0
M  V30 8102 C 769.84 -1.96881 0.636045 0
M  V30 8103 C 770.255 -1.71334 -0.793093 0
M  V30 8104 O 769.612 -0.992917 -1.53125 0
M  V30 8105 C 769.663 -3.50309 0.892533 0
M  V30 8106 O 769.384 -3.74977 2.26548 0
M  V30 8107 C 770.885 -4.39474 0.581159 0
M  V30 8108 H 768.105 -0.627399 0.237931 0
M  V30 8109 H 770.649 -1.58952 1.28664 0
M  V30 8110 H 768.804 -3.86326 0.288257 0
M  V30 8111 H 769.218 -4.69401 2.34014 0
M  V30 8112 H 770.692 -5.46008 0.811125 0
M  V30 8113 H 771.169 -4.3652 -0.48443 0
M  V30 8114 H 771.775 -4.09032 1.16502 0
M  V30 8115 N 770.09 -0.729906 -1.39679 0
M  V30 8116 C 771.338 -0.275077 -2.00219 0
M  V30 8117 C 771.659 1.1401 -1.58199 0
M  V30 8118 O 770.929 1.77546 -0.827904 0
M  V30 8119 H 769.509 -0.0987127 -0.740449 0
M  V30 8120 H 772.171 -0.93873 -1.70804 0
M  V30 8121 H 771.267 -0.319446 -3.10461 0
M  V30 8122 N 771.568 1.50203 -0.477153 0
M  V30 8123 C 772.5 2.26508 0.350239 0
M  V30 8124 C 773.513 1.32081 0.95176 0
M  V30 8125 O 774.702 1.57546 0.839139 0
M  V30 8126 C 771.802 3.0361 1.50579 0
M  V30 8127 C 770.975 4.25438 1.01595 0
M  V30 8128 C 770.034 4.84783 2.04626 0
M  V30 8129 O 769.06 5.45528 1.62442 0
M  V30 8130 N 770.262 4.72318 3.37485 0
M  V30 8131 H 773.027 2.98155 -0.30394 0
M  V30 8132 H 770.588 1.58938 -0.308289 0
M  V30 8133 H 772.58 3.4019 2.1921 0
M  V30 8134 H 771.15 2.34724 2.06455 0
M  V30 8135 H 770.37 3.93894 0.155316 0
M  V30 8136 H 771.658 5.04413 0.666694 0
M  V30 8137 H 771.056 4.24022 3.74462 0
M  V30 8138 H 769.613 5.13149 4.01897 0
M  V30 8139 N 773.046 0.209999 1.56195 0
M  V30 8140 C 773.976 -0.699746 2.22769 0
M  V30 8141 C 774.957 -1.20993 1.1956 0
M  V30 8142 O 776.142 -1.25605 1.48112 0
M  V30 8143 C 773.272 -1.91302 2.89863 0
M  V30 8144 C 772.226 -1.53715 3.99444 0
M  V30 8145 C 771.552 -2.82826 4.53777 0
M  V30 8146 C 772.852 -0.735836 5.17091 0
M  V30 8147 H 774.546 -0.144716 2.9905 0
M  V30 8148 H 772.092 -0.0681645 1.43839 0
M  V30 8149 H 774.045 -2.5548 3.35124 0
M  V30 8150 H 772.769 -2.49283 2.11011 0
M  V30 8151 H 771.428 -0.918892 3.54897 0
M  V30 8152 H 771.076 -3.38927 3.71669 0
M  V30 8153 H 770.776 -2.58415 5.27727 0
M  V30 8154 H 772.3 -3.47966 5.01749 0
M  V30 8155 H 773.714 -1.28105 5.58804 0
M  V30 8156 H 772.111 -0.589272 5.972 0
M  V30 8157 H 773.181 0.260004 4.84202 0
M  V30 8158 N 774.524 -1.57472 -0.0634922 0
M  V30 8159 C 775.434 -2.07621 -1.09227 0
M  V30 8160 C 776.45 -1.00746 -1.41867 0
M  V30 8161 O 777.626 -1.32269 -1.51878 0
M  V30 8162 C 774.691 -2.51707 -2.38421 0
M  V30 8163 C 773.752 -3.72917 -2.12676 0
M  V30 8164 C 772.985 -4.14891 -3.3571 0
M  V30 8165 O 773.208 -3.56663 -4.45137 0
M  V30 8166 O 772.142 -5.07616 -3.23434 0
M  V30 8167 H 775.968 -2.95612 -0.696205 0
M  V30 8168 H 773.553 -1.46787 -0.27819 0
M  V30 8169 H 775.435 -2.80547 -3.14438 0
M  V30 8170 H 774.11 -1.66842 -2.77391 0
M  V30 8171 H 773.017 -3.49148 -1.34337 0
M  V30 8172 H 774.35 -4.5866 -1.78583 0
M  V30 8173 N 776.003 0.335068 -1.53997 0
M  V30 8174 C 777.233 1.0926 -1.75345 0
M  V30 8175 C 777.641 1.82568 -0.496545 0
M  V30 8176 O 776.984 1.75525 0.541897 0
M  V30 8177 C 777.046 2.14473 -2.88516 0
M  V30 8178 C 776.71 1.60665 -4.27827 0
M  V30 8179 C 777.707 1.05448 -5.09094 0
M  V30 8180 C 775.392 1.65255 -4.74337 0
M  V30 8181 C 777.386 0.555372 -6.34976 0
M  V30 8182 C 775.073 1.14956 -6.0019 0
M  V30 8183 C 776.071 0.601907 -6.80343 0
M  V30 8184 O 775.759 0.106445 -8.0383 0
M  V30 8185 H 775.491 0.331329 -0.589234 0
M  V30 8186 H 778.045 0.39042 -2.01655 0
M  V30 8187 H 776.275 2.88274 -2.5775 0
M  V30 8188 H 777.964 2.75857 -2.97755 0
M  V30 8189 H 778.73 1.01218 -4.74321 0
M  V30 8190 H 774.609 2.06822 -4.12002 0
M  V30 8191 H 778.153 0.127245 -6.97484 0
M  V30 8192 H 774.05 1.18891 -6.34457 0
M  V30 8193 H 774.818 0.222944 -8.18196 0
M  V30 8194 N 777.481 1.45874 0.596531 0
M  V30 8195 C 778.428 1.55389 1.70655 0
M  V30 8196 C 779.398 0.399036 1.61236 0
M  V30 8197 O 780.583 0.61396 1.80652 0
M  V30 8198 C 777.723 1.53705 3.0898 0
M  V30 8199 C 776.836 2.79823 3.29125 0
M  V30 8200 C 775.971 2.69735 4.5762 0
M  V30 8201 C 775.01 3.90856 4.71061 0
M  V30 8202 N 774.147 3.79237 5.90867 0
M  V30 8203 H 778.987 2.50211 1.61859 0
M  V30 8204 H 776.524 1.24146 0.789069 0
M  V30 8205 H 778.482 1.50715 3.89026 0
M  V30 8206 H 777.112 0.624247 3.16706 0
M  V30 8207 H 776.164 2.92852 2.42779 0
M  V30 8208 H 777.476 3.69628 3.34927 0
M  V30 8209 H 776.63 2.64773 5.45875 0
M  V30 8210 H 775.369 1.77547 4.54234 0
M  V30 8211 H 774.374 3.96164 3.81227 0
M  V30 8212 H 775.599 4.84124 4.76236 0
M  V30 8213 H 773.545 2.89825 5.88504 0
M  V30 8214 H 773.462 4.62686 5.97877 0
M  V30 8215 H 774.73 3.78227 6.8159 0
M  V30 8216 N 778.959 -0.83999 1.33349 0
M  V30 8217 C 779.869 -1.98182 1.25543 0
M  V30 8218 C 780.885 -1.73204 0.166208 0
M  V30 8219 O 782.061 -1.97596 0.389589 0
M  V30 8220 C 779.126 -3.32157 0.993614 0
M  V30 8221 C 778.187 -3.70258 2.17273 0
M  V30 8222 C 777.42 -4.9784 1.92331 0
M  V30 8223 O 777.643 -5.63679 0.873074 0
M  V30 8224 O 776.577 -5.33418 2.78835 0
M  V30 8225 H 780.403 -2.07708 2.21565 0
M  V30 8226 H 777.988 -0.972852 1.13384 0
M  V30 8227 H 779.87 -4.12433 0.864711 0
M  V30 8228 H 778.545 -3.23637 0.0636596 0
M  V30 8229 H 777.452 -2.90497 2.35716 0
M  V30 8230 H 778.785 -3.83442 3.08598 0
M  V30 8231 N 780.437 -1.16799 -1.0581 0
M  V30 8232 C 781.369 -0.836774 -2.13379 0
M  V30 8233 C 782.382 0.158116 -1.6203 0
M  V30 8234 O 783.571 -0.0673211 -1.78373 0
M  V30 8235 C 780.671 -0.225959 -3.38146 0
M  V30 8236 C 779.844 -1.26217 -4.18794 0
M  V30 8237 C 778.903 -0.670257 -5.21914 0
M  V30 8238 O 777.929 -1.34042 -5.53192 0
M  V30 8239 N 779.131 0.540683 -5.77977 0
M  V30 8240 H 781.896 -1.76257 -2.42391 0
M  V30 8241 H 779.457 -1.06599 -1.21853 0
M  V30 8242 H 781.449 0.18317 -4.04285 0
M  V30 8243 H 780.019 0.603494 -3.06719 0
M  V30 8244 H 779.239 -1.84729 -3.48237 0
M  V30 8245 H 780.527 -1.9613 -4.69479 0
M  V30 8246 H 779.925 1.10322 -5.54838 0
M  V30 8247 H 778.482 0.891958 -6.45668 0
M  V30 8248 N 781.915 1.24427 -0.967243 0
M  V30 8249 C 783.14 1.9708 -0.646069 0
M  V30 8250 C 783.565 1.71272 0.777665 0
M  V30 8251 O 782.923 0.976179 1.52776 0
M  V30 8252 C 782.971 3.48501 -0.926266 0
M  V30 8253 O 782.075 4.12398 -0.0114653 0
M  V30 8254 H 781.416 0.617423 -0.244304 0
M  V30 8255 H 783.946 1.58215 -1.29727 0
M  V30 8256 H 783.956 3.98885 -0.857619 0
M  V30 8257 H 782.631 3.66613 -1.96386 0
M  V30 8258 H 781.208 3.72661 -0.133396 0
M  V30 8259 N 783.393 0.737304 1.3929 0
M  V30 8260 C 784.323 0.113988 2.33222 0
M  V30 8261 C 785.304 -0.721695 1.54031 0
M  V30 8262 O 786.489 -0.666206 1.82415 0
M  V30 8263 C 783.619 -0.792319 3.38141 0
M  V30 8264 C 782.573 -0.0606178 4.27957 0
M  V30 8265 C 781.899 -1.08409 5.23595 0
M  V30 8266 C 783.199 1.09817 5.10625 0
M  V30 8267 H 784.893 0.898611 2.85596 0
M  V30 8268 H 782.439 0.433571 1.37318 0
M  V30 8269 H 784.392 -1.23793 4.02807 0
M  V30 8270 H 783.116 -1.60908 2.84211 0
M  V30 8271 H 781.775 0.365393 3.64775 0
M  V30 8272 H 781.423 -1.89449 4.6596 0
M  V30 8273 H 781.123 -0.599269 5.84536 0
M  V30 8274 H 782.647 -1.52936 5.91137 0
M  V30 8275 H 784.061 0.730892 5.68622 0
M  V30 8276 H 782.458 1.51278 5.80719 0
M  V30 8277 H 783.528 1.91878 4.45321 0
M  V30 8278 N 784.871 -1.49948 0.485112 0
M  V30 8279 C 785.801 -2.31675 -0.291364 0
M  V30 8280 C 786.782 -1.39216 -0.977383 0
M  V30 8281 O 787.967 -1.68133 -0.971855 0
M  V30 8282 C 785.097 -3.19326 -1.36558 0
M  V30 8283 C 784.051 -4.2045 -0.800359 0
M  V30 8284 C 783.377 -4.96931 -1.97391 0
M  V30 8285 C 784.677 -5.21925 0.197867 0
M  V30 8286 H 786.371 -2.96839 0.390775 0
M  V30 8287 H 783.917 -1.42749 0.189375 0
M  V30 8288 H 785.87 -3.75304 -1.91638 0
M  V30 8289 H 784.594 -2.52074 -2.07668 0
M  V30 8290 H 783.253 -3.65594 -0.271428 0
M  V30 8291 H 782.901 -4.26141 -2.67232 0
M  V30 8292 H 782.601 -5.65344 -1.60187 0
M  V30 8293 H 784.125 -5.55749 -2.52935 0
M  V30 8294 H 785.539 -5.72691 -0.264239 0
M  V30 8295 H 783.936 -5.98138 0.484908 0
M  V30 8296 H 785.006 -4.71809 1.11912 0
M  V30 8297 N 786.349 -0.21828 -1.56081 0
M  V30 8298 C 787.281 0.725447 -2.17416 0
M  V30 8299 C 788.294 1.15995 -1.14233 0
M  V30 8300 O 789.483 1.09166 -1.41227 0
M  V30 8301 C 786.583 1.99401 -2.7403 0
M  V30 8302 C 785.756 1.7156 -4.02351 0
M  V30 8303 C 784.815 2.8309 -4.43561 0
M  V30 8304 O 783.841 2.51701 -5.10525 0
M  V30 8305 N 785.043 4.11972 -4.08973 0
M  V30 8306 H 787.808 0.200801 -2.99027 0
M  V30 8307 H 785.369 -0.0371514 -1.61857 0
M  V30 8308 H 787.361 2.73198 -2.98571 0
M  V30 8309 H 785.931 2.42923 -1.96742 0
M  V30 8310 H 785.151 0.814233 -3.85699 0
M  V30 8311 H 786.439 1.50385 -4.86068 0
M  V30 8312 H 785.837 4.40319 -3.55156 0
M  V30 8313 H 784.394 4.82323 -4.38415 0
M  V30 8314 N 787.827 1.57504 0.0551401 0
M  V30 8315 C 789.238 1.76626 0.604979 0
M  V30 8316 C 789.589 0.845978 1.77024 0
M  V30 8317 O 788.714 0.0341936 2.16373 0
M  V30 8318 C 789.309 3.203 1.10425 0
M  V30 8319 C 787.868 3.4071 1.59981 0
M  V30 8320 C 787.015 2.72258 0.526414 0
M  V30 8321 H 789.966 1.57775 -0.171072 0
M  V30 8322 H 789.987 3.25377 1.97256 0
M  V30 8323 H 789.499 3.87255 0.255939 0
M  V30 8324 H 787.6 2.78892 2.47083 0
M  V30 8325 H 787.713 4.49227 1.66528 0
M  V30 8326 H 786.077 2.35283 0.97539 0
M  V30 8327 H 786.86 3.41879 -0.311991 0
M  V30 8328 N 789.305 -0.326896 1.54172 0
M  V30 8329 C 790.716 -0.901533 1.63491 0
M  V30 8330 C 791.067 -1.88994 0.52684 0
M  V30 8331 O 790.192 -2.137 -0.340794 0
M  V30 8332 C 790.787 -1.64192 2.96355 0
M  V30 8333 C 789.346 -2.16533 3.07881 0
M  V30 8334 C 788.493 -0.98966 2.59039 0
M  V30 8335 H 791.444 -0.104568 1.58355 0
M  V30 8336 H 791.465 -2.50592 2.86328 0
M  V30 8337 H 790.977 -0.922291 3.76982 0
M  V30 8338 H 789.078 -2.91622 2.31922 0
M  V30 8339 H 789.191 -2.41762 4.13628 0
M  V30 8340 H 787.555 -1.36787 2.14852 0
M  V30 8341 H 788.338 -0.284401 3.4212 0
M  V30 8342 N 790.784 -1.46188 -0.588786 0
M  V30 8343 C 792.012 -1.54743 -1.37339 0
M  V30 8344 C 792.427 -0.186446 -1.87877 0
M  V30 8345 O 791.784 0.815247 -1.63279 0
M  V30 8346 C 791.835 -2.54727 -2.56508 0
M  V30 8347 O 791.556 -3.85539 -2.08066 0
M  V30 8348 C 793.057 -2.73163 -3.49137 0
M  V30 8349 H 790.277 -0.523484 -0.419768 0
M  V30 8350 H 792.821 -1.91543 -0.716345 0
M  V30 8351 H 790.976 -2.20948 -3.18215 0
M  V30 8352 H 791.39 -4.39905 -2.85629 0
M  V30 8353 H 792.864 -3.47057 -4.2925 0
M  V30 8354 H 793.341 -1.79856 -4.00685 0
M  V30 8355 H 793.947 -3.08014 -2.9327 0
M  V30 8356 N 792.262 0.832906 -1.33792 0
M  V30 8357 C 793.192 1.95828 -1.27176 0
M  V30 8358 C 794.173 1.69427 -0.15114 0
M  V30 8359 O 795.358 1.91167 -0.341886 0
M  V30 8360 C 792.488 3.32098 -1.01629 0
M  V30 8361 C 791.442 3.72912 -2.10049 0
M  V30 8362 C 790.768 5.07054 -1.69706 0
M  V30 8363 C 792.068 3.86064 -3.51783 0
M  V30 8364 H 793.762 2.01622 -2.21334 0
M  V30 8365 H 791.308 0.96866 -1.0655 0
M  V30 8366 H 793.261 4.10402 -0.956474 0
M  V30 8367 H 791.985 3.26577 -0.0390956 0
M  V30 8368 H 790.644 2.96876 -2.15082 0
M  V30 8369 H 790.292 4.9801 -0.706737 0
M  V30 8370 H 789.992 5.35333 -2.42264 0
M  V30 8371 H 791.516 5.87827 -1.65202 0
M  V30 8372 H 792.93 4.54665 -3.49218 0
M  V30 8373 H 791.327 4.25787 -4.22878 0
M  V30 8374 H 792.397 2.88344 -3.89854 0
M  V30 8375 N 793.74 1.17359 1.05189 0
M  V30 8376 C 794.672 0.848078 2.12933 0
M  V30 8377 C 795.685 -0.149521 1.62112 0
M  V30 8378 O 796.874 0.0767797 1.78335 0
M  V30 8379 C 793.974 0.243889 3.38021 0
M  V30 8380 C 793.147 1.28436 4.18118 0
M  V30 8381 C 792.206 0.697926 5.21551 0
M  V30 8382 O 791.232 1.36973 5.52473 0
M  V30 8383 N 792.434 -0.510024 5.78255 0
M  V30 8384 H 795.199 1.7754 2.41453 0
M  V30 8385 H 792.76 1.07244 1.21286 0
M  V30 8386 H 794.752 -0.161727 4.04377 0
M  V30 8387 H 793.322 -0.58722 3.07035 0
M  V30 8388 H 792.542 1.86573 3.47252 0
M  V30 8389 H 793.83 1.98617 4.68432 0
M  V30 8390 H 793.228 -1.07378 5.55416 0
M  V30 8391 H 791.785 -0.857705 6.46132 0
M  V30 8392 N 795.218 -1.23913 0.973828 0
M  V30 8393 C 796.148 -2.27453 0.527969 0
M  V30 8394 C 797.129 -1.6443 -0.435513 0
M  V30 8395 O 798.314 -1.9137 -0.330306 0
M  V30 8396 C 795.444 -3.4685 -0.176757 0
M  V30 8397 C 794.398 -4.22181 0.703352 0
M  V30 8398 C 793.724 -5.34534 -0.133215 0
M  V30 8399 C 795.024 -4.82865 1.99096 0
M  V30 8400 H 796.718 -2.65 1.3934 0
M  V30 8401 H 794.264 -1.27388 0.671446 0
M  V30 8402 H 796.217 -4.18424 -0.499934 0
M  V30 8403 H 794.941 -3.08346 -1.07659 0
M  V30 8404 H 793.6 -3.52416 1.00989 0
M  V30 8405 H 793.248 -4.92271 -1.03338 0
M  V30 8406 H 792.948 -5.85855 0.452494 0
M  V30 8407 H 794.472 -6.08933 -0.450924 0
M  V30 8408 H 795.886 -5.46481 1.73297 0
M  V30 8409 H 794.283 -5.44444 2.52389 0
M  V30 8410 H 795.353 -4.03977 2.68199 0
M  V30 8411 N 796.696 -0.74468 -1.38897 0
M  V30 8412 C 797.626 -0.126355 -2.33158 0
M  V30 8413 C 798.607 0.713517 -1.54412 0
M  V30 8414 O 799.792 0.656523 -1.82766 0
M  V30 8415 C 796.922 0.774375 -3.38557 0
M  V30 8416 C 795.876 0.0379214 -4.27983 0
M  V30 8417 C 795.202 1.05631 -5.24162 0
M  V30 8418 C 796.502 -1.12523 -5.10035 0
M  V30 8419 H 798.196 -0.913744 -2.85116 0
M  V30 8420 H 795.742 -0.440847 -1.37086 0
M  V30 8421 H 797.695 1.21655 -4.03458 0
M  V30 8422 H 796.419 1.59399 -2.85061 0
M  V30 8423 H 795.078 -0.384733 -3.64576 0
M  V30 8424 H 794.726 1.86975 -4.66958 0
M  V30 8425 H 794.426 0.568261 -5.84846 0
M  V30 8426 H 795.95 1.49799 -5.9194 0
M  V30 8427 H 797.364 -0.761037 -5.68226 0
M  V30 8428 H 795.761 -1.54355 -5.79909 0
M  V30 8429 H 796.831 -1.94237 -4.44297 0
M  V30 8430 N 798.174 1.49689 -0.493057 0
M  V30 8431 C 799.122 2.30613 0.303383 0
M  V30 8432 C 800.116 1.38867 0.970165 0
M  V30 8433 O 801.322 1.55956 0.898761 0
M  V30 8434 H 797.697 0.742891 0.116691 0
M  V30 8435 H 799.668 2.95717 -0.39924 0
M  V30 8436 C 798.417 3.20008 1.35978 0
M  V30 8437 H 797.74 3.90526 0.856103 0
M  V30 8438 H 799.18 3.79586 1.88919 0
M  V30 8439 C 797.639 2.39079 2.37367 0
M  V30 8440 O 798.169 2.08933 3.43089 0
M  V30 8441 N 796.375 2.0125 2.09635 0
M  V30 8442 H 795.922 2.25966 1.23682 0
M  V30 8443 H 795.88 1.47408 2.77702 0
M  V30 8444 N 799.652 0.226554 1.55963 0
M  V30 8445 C 800.9 -0.402991 1.98041 0
M  V30 8446 C 801.221 -1.59938 1.11557 0
M  V30 8447 O 800.491 -1.9494 0.193719 0
M  V30 8448 H 799.071 -0.15188 0.731397 0
M  V30 8449 H 801.733 0.320613 1.92245 0
M  V30 8450 H 800.829 -0.725937 3.0354 0
M  V30 8451 N 801.13 -1.57531 -0.0467866 0
M  V30 8452 C 802.063 -2.00734 -1.08541 0
M  V30 8453 C 803.041 -0.888508 -1.36177 0
M  V30 8454 O 804.225 -1.1529 -1.49132 0
M  V30 8455 C 801.352 -2.36535 -2.42423 0
M  V30 8456 C 800.398 -3.58681 -2.3076 0
M  V30 8457 S 801.231 -5.08536 -1.67785 0
M  V30 8458 C 802.387 -5.47562 -3.03194 0
M  V30 8459 H 802.62 -2.88516 -0.717345 0
M  V30 8460 H 800.153 -1.5226 -0.256181 0
M  V30 8461 H 802.111 -2.57834 -3.19424 0
M  V30 8462 H 800.772 -1.49236 -2.76382 0
M  V30 8463 H 799.965 -3.81329 -3.29552 0
M  V30 8464 H 799.567 -3.37142 -1.61899 0
M  V30 8465 H 801.859 -5.47163 -3.99524 0
M  V30 8466 H 802.802 -6.48082 -2.85299 0
M  V30 8467 H 803.21 -4.75042 -3.04951 0
M  V30 8468 N 802.608 0.318715 -1.54344 0
M  V30 8469 C 803.856 1.054 -1.72439 0
M  V30 8470 C 804.177 1.88388 -0.503495 0
M  V30 8471 O 803.447 1.89866 0.48246 0
M  V30 8472 H 802.027 0.392124 -0.635805 0
M  V30 8473 H 804.689 0.35398 -1.91659 0
M  V30 8474 H 803.785 1.71726 -2.60608 0
M  V30 8475 N 804.086 1.46499 0.581025 0
M  V30 8476 C 805.497 1.4604 1.16315 0
M  V30 8477 C 805.848 0.202154 1.95156 0
M  V30 8478 O 804.973 -0.694638 2.04948 0
M  V30 8479 C 805.568 2.64593 2.11604 0
M  V30 8480 C 804.127 2.6717 2.65136 0
M  V30 8481 C 803.274 2.38753 1.4104 0
M  V30 8482 H 806.225 1.54354 0.368871 0
M  V30 8483 H 806.246 2.40207 2.95095 0
M  V30 8484 H 805.758 3.56154 1.54194 0
M  V30 8485 H 803.859 1.79685 3.26411 0
M  V30 8486 H 803.972 3.67182 3.07757 0
M  V30 8487 H 802.336 1.88845 1.70908 0
M  V30 8488 H 803.119 3.32493 0.854588 0
M  V30 8489 N 805.565 -0.825799 1.34232 0
M  V30 8490 C 806.495 -1.95151 1.28212 0
M  V30 8491 C 807.476 -1.69345 0.160123 0
M  V30 8492 O 808.661 -1.90983 0.352019 0
M  V30 8493 C 805.791 -3.31554 1.03388 0
M  V30 8494 C 804.745 -3.71793 2.12023 0
M  V30 8495 C 804.071 -5.06147 1.72392 0
M  V30 8496 C 805.371 -3.84193 3.53826 0
M  V30 8497 H 807.065 -2.00445 2.22401 0
M  V30 8498 H 804.611 -0.962996 1.07063 0
M  V30 8499 H 806.564 -4.09889 0.978225 0
M  V30 8500 H 805.288 -3.26551 0.0564142 0
M  V30 8501 H 803.947 -2.95731 2.16654 0
M  V30 8502 H 803.595 -4.97628 0.733137 0
M  V30 8503 H 803.295 -5.34041 2.451 0
M  V30 8504 H 804.819 -5.86943 1.68317 0
M  V30 8505 H 806.233 -4.52806 3.51624 0
M  V30 8506 H 804.63 -4.23538 4.2513 0
M  V30 8507 H 805.7 -2.86272 3.91377 0
M  V30 8508 N 807.043 -1.17915 -1.04565 0
M  V30 8509 C 808.291 -0.969505 -1.77327 0
M  V30 8510 C 808.612 0.502569 -1.88412 0
M  V30 8511 O 807.882 1.36467 -1.40547 0
M  V30 8512 H 806.462 -0.355723 -0.656864 0
M  V30 8513 H 809.124 -1.48506 -1.26223 0
M  V30 8514 H 808.22 -1.40324 -2.78775 0
M  V30 8515 N 808.521 1.23394 -0.980386 0
M  V30 8516 C 809.937 1.43961 -0.689008 0
M  V30 8517 C 810.137 1.87229 0.744809 0
M  V30 8518 O 809.193 2.01831 1.51725 0
M  V30 8519 C 810.506 2.49128 -1.68392 0
M  V30 8520 C 812.054 2.62941 -1.69796 0
M  V30 8521 C 812.529 3.71317 -2.68118 0
M  V30 8522 N 814.02 3.7876 -2.66636 0
M  V30 8523 C 814.755 4.62176 -3.39383 0
M  V30 8524 N 814.251 5.49682 -4.21688 0
M  V30 8525 N 816.044 4.56372 -3.28147 0
M  V30 8526 H 808.195 0.936106 -1.90659 0
M  V30 8527 H 810.458 0.473023 -0.821555 0
M  V30 8528 H 810.164 2.24252 -2.70931 0
M  V30 8529 H 810.038 3.47514 -1.46675 0
M  V30 8530 H 812.425 2.87168 -0.679617 0
M  V30 8531 H 812.506 1.64871 -1.95579 0
M  V30 8532 H 812.15 3.4784 -3.70095 0
M  V30 8533 H 812.08 4.68929 -2.3961 0
M  V30 8534 H 814.571 3.16226 -2.06904 0
M  V30 8535 H 814.884 6.10323 -4.74053 0
M  V30 8536 H 813.229 5.49306 -4.25779 0
M  V30 8537 H 816.42 3.87029 -2.63299 0
M  V30 8538 H 816.593 5.21153 -3.85102 0
M  V30 8539 N 809.999 0.752036 1.385 0
M  V30 8540 C 811.415 0.42946 1.53713 0
M  V30 8541 C 811.615 -1.0576 1.71514 0
M  V30 8542 O 810.671 -1.84366 1.72527 0
M  V30 8543 C 811.984 1.22735 2.74511 0
M  V30 8544 C 813.532 1.21727 2.8836 0
M  V30 8545 C 814.007 1.99809 4.12117 0
M  V30 8546 N 815.498 1.97062 4.19191 0
M  V30 8547 C 816.233 2.54274 5.13938 0
M  V30 8548 N 815.729 3.20193 6.14368 0
M  V30 8549 N 817.522 2.44212 5.06277 0
M  V30 8550 H 809.673 1.71581 1.25195 0
M  V30 8551 H 811.936 0.727293 0.60807 0
M  V30 8552 H 811.642 2.28032 2.67758 0
M  V30 8553 H 811.516 0.843186 3.67655 0
M  V30 8554 H 813.903 0.172367 2.94596 0
M  V30 8555 H 813.984 1.64094 1.96232 0
M  V30 8556 H 813.628 3.0431 4.06642 0
M  V30 8557 H 813.558 1.54837 5.03322 0
M  V30 8558 H 816.049 1.49054 3.47263 0
M  V30 8559 H 816.362 3.61272 6.83156 0
M  V30 8560 H 814.707 3.24287 6.14705 0
M  V30 8561 H 817.898 1.92343 4.26757 0
M  V30 8562 H 818.071 2.89096 5.79937 0
M  V30 8563 N 811.477 -1.49425 0.500989 0
M  V30 8564 C 812.44 -2.27646 -0.266416 0
M  V30 8565 C 813.44 -1.3366 -0.893961 0
M  V30 8566 O 814.63 -1.5682 -0.758495 0
M  V30 8567 C 811.762 -3.11618 -1.38227 0
M  V30 8568 H 812.955 -2.96945 0.419973 0
M  V30 8569 H 810.508 -1.5419 0.255954 0
M  V30 8570 H 811.243 -2.46885 -2.10281 0
M  V30 8571 H 811.028 -3.80721 -0.937746 0
M  V30 8572 H 812.518 -3.70698 -1.92283 0
M  V30 8573 N 812.955 -0.234822 -1.55841 0
M  V30 8574 C 814.18 0.400741 -2.03492 0
M  V30 8575 C 814.605 1.51618 -1.11327 0
M  V30 8576 O 813.963 1.81002 -0.103922 0
M  V30 8577 C 814.011 0.897184 -3.49261 0
M  V30 8578 O 813.115 2.00764 -3.60233 0
M  V30 8579 H 812.456 0.0890023 -0.658008 0
M  V30 8580 H 814.986 -0.357345 -2.01455 0
M  V30 8581 H 814.996 1.20356 -3.89844 0
M  V30 8582 H 813.671 0.0808639 -4.15821 0
M  V30 8583 H 812.248 1.70689 -3.31541 0
M  V30 8584 N 814.433 1.57553 0.0384317 0
M  V30 8585 C 815.71 1.79977 0.766002 0
M  V30 8586 C 816.09 0.830625 1.94072 0
M  V30 8587 O 815.438 -0.129243 2.28134 0
M  V30 8588 C 815.648 3.27434 1.20781 0
M  V30 8589 C 816.996 3.92167 1.62758 0
M  V30 8590 O 818.02 3.31527 1.30263 0
M  V30 8591 O 816.879 4.98917 2.23035 0
M  V30 8592 H 813.973 0.739787 0.369654 0
M  V30 8593 H 816.519 1.69693 0.0159312 0
M  V30 8594 H 815.291 3.89558 0.368792 0
M  V30 8595 H 814.914 3.42571 2.01819 0
M  V30 8596 N 815.911 -0.310526 1.54511 0
M  V30 8597 C 817.159 -1.04484 1.72996 0
M  V30 8598 C 817.48 -1.88118 0.513479 0
M  V30 8599 O 816.75 -1.90119 -0.472384 0
M  V30 8600 H 815.33 -0.388747 0.637875 0
M  V30 8601 H 817.992 -0.343811 1.91844 0
M  V30 8602 H 817.088 -1.70341 2.61515 0
M  V30 8603 N 817.389 -1.46805 -0.573248 0
M  V30 8604 C 818.637 -1.52302 -1.32847 0
M  V30 8605 C 818.958 -0.180159 -1.94166 0
M  V30 8606 O 818.228 0.794291 -1.79075 0
M  V30 8607 H 816.808 -0.56097 -0.493276 0
M  V30 8608 H 819.47 -1.82998 -0.670642 0
M  V30 8609 H 818.566 -2.28089 -2.13031 0
M  V30 8610 N 818.867 0.818669 -1.34668 0
M  V30 8611 C 819.83 1.9114 -1.26483 0
M  V30 8612 C 820.83 1.598 -0.179044 0
M  V30 8613 O 822.02 1.6876 -0.431952 0
M  V30 8614 C 819.152 3.27285 -0.95381 0
M  V30 8615 H 820.345 1.9982 -2.23634 0
M  V30 8616 H 817.898 1.01314 -1.19018 0
M  V30 8617 H 818.633 3.24297 0.0143428 0
M  V30 8618 H 818.418 3.51416 -1.73924 0
M  V30 8619 H 819.908 4.07299 -0.921827 0
M  V30 8620 N 820.346 1.18468 1.03938 0
M  V30 8621 C 821.294 0.909286 2.14091 0
M  V30 8622 C 822.288 -0.130928 1.68893 0
M  V30 8623 O 823.494 0.0173403 1.79992 0
M  V30 8624 H 819.869 0.27658 0.699291 0
M  V30 8625 H 821.84 1.84514 2.34515 0
M  V30 8626 C 820.589 0.452922 3.44737 0
M  V30 8627 H 819.912 1.24485 3.79926 0
M  V30 8628 H 821.352 0.299238 4.22943 0
M  V30 8629 C 819.811 -0.831435 3.26479 0
M  V30 8630 O 820.341 -1.89535 3.54174 0
M  V30 8631 N 818.547 -0.784545 2.79809 0
M  V30 8632 H 818.094 0.0814746 2.57471 0
M  V30 8633 H 818.052 -1.64431 2.67973 0
M  V30 8634 N 821.824 -1.22873 0.986916 0
M  V30 8635 C 823.073 -1.90772 0.654911 0
M  V30 8636 C 823.386 -1.77768 -0.81595 0
M  V30 8637 O 824.592 -2.40529 -1.25929 0
M  V30 8638 C 823.048 -3.42003 1.12081 0
M  V30 8639 C 822.656 -3.63655 2.61647 0
M  V30 8640 C 824.4 -4.15638 0.862854 0
M  V30 8641 C 822.307 -5.08555 3.01871 0
M  V30 8642 H 821.237 -0.714362 0.241252 0
M  V30 8643 H 823.888 -1.39196 1.19568 0
M  V30 8644 H 822.27 -3.92725 0.508207 0
M  V30 8645 H 823.444 -3.2345 3.28202 0
M  V30 8646 H 821.759 -3.03341 2.8526 0
M  V30 8647 H 824.356 -5.22425 1.13915 0
M  V30 8648 H 824.699 -4.15814 -0.201036 0
M  V30 8649 H 825.232 -3.70924 1.43736 0
M  V30 8650 H 821.971 -5.13514 4.07411 0
M  V30 8651 H 821.491 -5.49684 2.40015 0
M  V30 8652 H 823.17 -5.76936 2.92839 0
M  V30 8653 N 823.302 -0.75937 -1.38099 0
M  V30 8654 C 824.234 -0.0956547 -2.29 0
M  V30 8655 C 825.247 0.677561 -1.4803 0
M  V30 8656 O 826.436 0.517696 -1.70828 0
M  V30 8657 C 823.536 0.88844 -3.27047 0
M  V30 8658 C 822.709 0.171652 -4.37063 0
M  V30 8659 C 821.768 1.06733 -5.15262 0
M  V30 8660 O 820.794 0.535698 -5.66674 0
M  V30 8661 N 821.996 2.39486 -5.28797 0
M  V30 8662 H 824.761 -0.876354 -2.86601 0
M  V30 8663 H 822.322 -0.61065 -1.49942 0
M  V30 8664 H 824.314 1.49079 -3.76241 0
M  V30 8665 H 822.884 1.57018 -2.70304 0
M  V30 8666 H 822.104 -0.611473 -3.89429 0
M  V30 8667 H 823.392 -0.324121 -5.07767 0
M  V30 8668 H 822.79 2.85127 -4.88589 0
M  V30 8669 H 821.347 2.94758 -5.81344 0
M  V30 8670 N 824.78 1.49157 -0.508906 0
M  V30 8671 C 825.71 2.32109 0.254469 0
M  V30 8672 C 826.691 1.40754 0.955111 0
M  V30 8673 O 827.876 1.69658 0.944983 0
M  V30 8674 C 825.006 3.21458 1.3146 0
M  V30 8675 C 823.96 4.2167 0.733368 0
M  V30 8676 C 823.286 5.00009 1.8946 0
M  V30 8677 C 824.586 5.21544 -0.280875 0
M  V30 8678 H 826.28 2.9618 -0.43795 0
M  V30 8679 H 823.826 1.4243 -0.212062 0
M  V30 8680 H 825.779 3.78305 1.85643 0
M  V30 8681 H 824.503 2.55346 2.03632 0
M  V30 8682 H 823.162 3.65979 0.213231 0
M  V30 8683 H 822.81 4.30338 2.60419 0
M  V30 8684 H 822.51 5.67821 1.51173 0
M  V30 8685 H 824.034 5.59702 2.44061 0
M  V30 8686 H 825.448 5.73039 0.173095 0
M  V30 8687 H 823.845 5.97291 -0.580006 0
M  V30 8688 H 824.915 4.69969 -1.19404 0
M  V30 8689 N 826.258 0.243083 1.55714 0
M  V30 8690 C 827.208 -0.671915 2.17875 0
M  V30 8691 C 828.192 -1.14199 1.13347 0
M  V30 8692 O 829.384 -1.09239 1.39269 0
M  V30 8693 C 826.513 -1.87027 2.87881 0
M  V30 8694 C 825.599 -1.41888 3.99661 0
M  V30 8695 N 825.99 -0.681465 5.01188 0
M  V30 8696 C 824.288 -1.70447 4.12145 0
M  V30 8697 C 824.989 -0.448285 5.7997 0
M  V30 8698 N 823.965 -1.01137 5.34109 0
M  V30 8699 H 827.767 -0.100321 2.93729 0
M  V30 8700 H 825.281 0.0452371 1.62337 0
M  V30 8701 H 827.278 -2.53674 3.3084 0
M  V30 8702 H 825.938 -2.44613 2.13529 0
M  V30 8703 H 826.949 -0.331959 5.16835 0
M  V30 8704 H 823.626 -2.29198 3.48962 0
M  V30 8705 H 825.016 0.140141 6.71754 0
M  V30 8706 N 827.736 -1.57571 -0.0300757 0
M  V30 8707 C 828.699 -2.05468 -1.01565 0
M  V30 8708 C 829.699 -0.958628 -1.29101 0
M  V30 8709 O 830.889 -1.22228 -1.24121 0
M  V30 8710 C 828.021 -2.47077 -2.34874 0
M  V30 8711 H 829.214 -2.93797 -0.601936 0
M  V30 8712 H 826.767 -1.53828 -0.276878 0
M  V30 8713 H 827.502 -1.61901 -2.80996 0
M  V30 8714 H 827.287 -3.27097 -2.16218 0
M  V30 8715 H 828.777 -2.84564 -3.05635 0
M  V30 8716 N 829.214 0.302327 -1.54673 0
M  V30 8717 C 830.146 1.39443 -1.81902 0
M  V30 8718 C 831.159 1.46891 -0.701914 0
M  V30 8719 O 832.348 1.49233 -0.979369 0
M  V30 8720 C 829.448 2.77824 -1.9408 0
M  V30 8721 C 828.621 2.93324 -3.24468 0
M  V30 8722 C 827.68 4.12196 -3.27079 0
M  V30 8723 O 826.706 4.04344 -4.00617 0
M  V30 8724 N 827.908 5.22768 -2.52376 0
M  V30 8725 H 830.673 1.1644 -2.76155 0
M  V30 8726 H 828.234 0.492392 -1.54231 0
M  V30 8727 H 830.226 3.5559 -1.9323 0
M  V30 8728 H 828.796 2.9378 -1.06828 0
M  V30 8729 H 828.016 2.02682 -3.38103 0
M  V30 8730 H 829.304 3.0059 -4.10516 0
M  V30 8731 H 828.702 5.32027 -1.92259 0
M  V30 8732 H 827.259 5.98874 -2.57281 0
M  V30 8733 N 830.692 1.47107 0.565454 0
M  V30 8734 C 831.624 1.55024 1.6882 0
M  V30 8735 C 832.637 0.4371 1.56822 0
M  V30 8736 O 833.826 0.706315 1.63931 0
M  V30 8737 C 830.926 1.43069 3.0722 0
M  V30 8738 C 830.099 2.68807 3.45053 0
M  V30 8739 C 829.158 2.50806 4.62583 0
M  V30 8740 O 828.184 3.24593 4.67577 0
M  V30 8741 N 829.386 1.58093 5.58558 0
M  V30 8742 H 832.151 2.51836 1.62477 0
M  V30 8743 H 829.712 1.43382 0.751885 0
M  V30 8744 H 831.704 1.28773 3.83666 0
M  V30 8745 H 830.274 0.543721 3.07835 0
M  V30 8746 H 829.494 2.97923 2.58138 0
M  V30 8747 H 830.782 3.52298 3.67101 0
M  V30 8748 H 830.18 0.972807 5.57273 0
M  V30 8749 H 828.737 1.49753 6.34364 0
M  V30 8750 N 832.17 -0.811516 1.35101 0
M  V30 8751 C 833.1 -1.9378 1.30275 0
M  V30 8752 C 834.081 -1.69165 0.178075 0
M  V30 8753 O 835.266 -1.90599 0.372256 0
M  V30 8754 C 832.396 -3.30439 1.06899 0
M  V30 8755 C 831.35 -3.69523 2.15955 0
M  V30 8756 C 830.676 -5.0429 1.77751 0
M  V30 8757 C 831.976 -3.80419 3.57881 0
M  V30 8758 H 833.67 -1.98075 2.24514 0
M  V30 8759 H 831.216 -0.951586 1.08078 0
M  V30 8760 H 833.169 -4.08828 1.02164 0
M  V30 8761 H 831.893 -3.26473 0.0910462 0
M  V30 8762 H 830.552 -2.93416 2.19778 0
M  V30 8763 H 830.2 -4.96823 0.785876 0
M  V30 8764 H 829.9 -5.31411 2.5075 0
M  V30 8765 H 831.424 -5.85125 1.74533 0
M  V30 8766 H 832.838 -4.49051 3.56407 0
M  V30 8767 H 831.235 -4.19005 4.29598 0
M  V30 8768 H 832.305 -2.82105 3.94391 0
M  V30 8769 N 833.648 -1.19017 -1.03309 0
M  V30 8770 C 834.578 -0.94772 -2.13402 0
M  V30 8771 C 835.559 0.117383 -1.69694 0
M  V30 8772 O 836.744 -0.0367733 -1.94165 0
M  V30 8773 C 833.874 -0.480977 -3.43953 0
M  V30 8774 C 832.828 -1.48743 -4.01322 0
M  V30 8775 C 832.154 -0.877924 -5.27443 0
M  V30 8776 C 833.454 -2.86642 -4.36616 0
M  V30 8777 H 835.148 -1.86846 -2.33942 0
M  V30 8778 H 832.694 -0.899781 -1.12427 0
M  V30 8779 H 834.647 -0.298677 -4.2034 0
M  V30 8780 H 833.371 0.475348 -3.23122 0
M  V30 8781 H 832.03 -1.65681 -3.27025 0
M  V30 8782 H 831.678 0.0858232 -5.02927 0
M  V30 8783 H 831.378 -1.54996 -5.66789 0
M  V30 8784 H 832.902 -0.706326 -6.06501 0
M  V30 8785 H 834.316 -2.73312 -5.03958 0
M  V30 8786 H 832.713 -3.50599 -4.87032 0
M  V30 8787 H 833.783 -3.39617 -3.46105 0
M  V30 8788 N 835.127 1.22348 -0.993418 0
M  V30 8789 C 836.074 2.24294 -0.544118 0
M  V30 8790 C 837.044 1.60602 0.42381 0
M  V30 8791 O 838.229 1.87952 0.328453 0
M  V30 8792 C 835.369 3.44837 0.134578 0
M  V30 8793 C 834.482 4.23043 -0.875151 0
M  V30 8794 C 833.617 5.30928 -0.169919 0
M  V30 8795 C 832.656 6.00853 -1.16798 0
M  V30 8796 N 831.793 7.00381 -0.491021 0
M  V30 8797 H 836.633 2.6209 -1.4182 0
M  V30 8798 H 834.17 1.2881 -0.710384 0
M  V30 8799 H 836.128 4.13625 0.544998 0
M  V30 8800 H 834.758 3.07804 0.972446 0
M  V30 8801 H 833.81 3.53546 -1.40389 0
M  V30 8802 H 835.122 4.71237 -1.63516 0
M  V30 8803 H 834.276 6.05972 0.297205 0
M  V30 8804 H 833.015 4.8371 0.622586 0
M  V30 8805 H 832.02 5.24591 -1.64573 0
M  V30 8806 H 833.245 6.50159 -1.96137 0
M  V30 8807 H 831.191 6.55393 0.282037 0
M  V30 8808 H 831.108 7.46584 -1.18947 0
M  V30 8809 H 832.376 7.79486 -0.0467169 0
M  V30 8810 N 836.605 0.766683 1.37694 0
M  V30 8811 C 838.021 0.445739 1.53249 0
M  V30 8812 C 838.221 -1.03935 1.72626 0
M  V30 8813 O 837.277 -1.82525 1.74473 0
M  V30 8814 C 838.59 1.2564 2.73194 0
M  V30 8815 C 840.138 1.24779 2.87053 0
M  V30 8816 C 840.613 2.04169 4.09974 0
M  V30 8817 N 842.104 2.01497 4.17077 0
M  V30 8818 C 842.839 2.5971 5.11212 0
M  V30 8819 N 842.335 3.26691 6.10938 0
M  V30 8820 N 844.128 2.49568 5.03659 0
M  V30 8821 H 836.279 1.72899 1.23368 0
M  V30 8822 H 838.542 0.733701 0.600322 0
M  V30 8823 H 838.248 2.30859 2.65324 0
M  V30 8824 H 838.122 0.882133 3.6674 0
M  V30 8825 H 840.509 0.203603 2.94397 0
M  V30 8826 H 840.59 1.66166 1.9448 0
M  V30 8827 H 840.234 3.08606 4.03392 0
M  V30 8828 H 840.164 1.60167 5.01651 0
M  V30 8829 H 842.655 1.52728 3.45662 0
M  V30 8830 H 842.968 3.68497 6.79286 0
M  V30 8831 H 841.313 3.30789 6.11231 0
M  V30 8832 H 844.504 1.96859 4.24693 0
M  V30 8833 H 844.677 2.95231 5.76839 0
M  V30 8834 N 838.083 -1.48885 0.516809 0
M  V30 8835 C 839.494 -1.86557 0.0729921 0
M  V30 8836 C 839.845 -1.42767 -1.34581 0
M  V30 8837 O 838.97 -0.812514 -2.00567 0
M  V30 8838 C 839.565 -3.38567 0.125686 0
M  V30 8839 C 838.124 -3.75481 -0.262867 0
M  V30 8840 C 837.271 -2.72913 0.491281 0
M  V30 8841 H 840.222 -1.40978 0.728767 0
M  V30 8842 H 840.243 -3.74629 -0.665831 0
M  V30 8843 H 839.755 -3.70408 1.15842 0
M  V30 8844 H 837.856 -3.49251 -1.29824 0
M  V30 8845 H 837.969 -4.79052 0.067579 0
M  V30 8846 H 836.333 -2.54627 -0.0608525 0
M  V30 8847 H 837.116 -3.07599 1.5244 0
M  V30 8848 N 839.561 -0.251338 -1.55583 0
M  V30 8849 C 840.977 0.103409 -1.59265 0
M  V30 8850 C 841.177 1.56559 -1.26852 0
M  V30 8851 O 840.233 2.31071 -1.01796 0
M  V30 8852 C 841.546 -0.249781 -2.99661 0
M  V30 8853 C 843.094 -0.194442 -3.12395 0
M  V30 8854 C 843.569 -0.521728 -4.55019 0
M  V30 8855 N 845.06 -0.472393 -4.60785 0
M  V30 8856 C 845.795 -0.698737 -5.69127 0
M  V30 8857 N 845.291 -0.988443 -6.85713 0
M  V30 8858 N 847.084 -0.629143 -5.58568 0
M  V30 8859 H 839.235 -1.20484 -1.74921 0
M  V30 8860 H 841.498 -0.485092 -0.814488 0
M  V30 8861 H 841.204 -1.26577 -3.28133 0
M  V30 8862 H 841.078 0.420973 -3.74844 0
M  V30 8863 H 843.465 0.812229 -2.83702 0
M  V30 8864 H 843.546 -0.899111 -2.39478 0
M  V30 8865 H 843.19 -1.52597 -4.84434 0
M  V30 8866 H 843.12 0.204468 -5.26203 0
M  V30 8867 H 845.611 -0.257386 -3.77022 0
M  V30 8868 H 845.924 -1.14846 -7.64219 0
M  V30 8869 H 844.269 -1.02596 -6.87386 0
M  V30 8870 H 847.46 -0.402826 -4.66364 0
M  V30 8871 H 847.633 -0.808935 -6.42931 0
M  V30 8872 N 841.039 1.57585 0.0217189 0
M  V30 8873 C 842.287 1.89231 0.709641 0
M  V30 8874 C 842.608 0.849964 1.75501 0
M  V30 8875 O 841.878 -0.115485 1.95559 0
M  V30 8876 H 840.458 0.69838 0.265092 0
M  V30 8877 H 843.12 1.94895 -0.0140688 0
M  V30 8878 H 842.216 2.88333 1.19459 0
M  V30 8879 N 842.517 -0.29412 1.54831 0
M  V30 8880 C 843.928 -0.866651 1.65366 0
M  V30 8881 C 844.279 -1.87834 0.56681 0
M  V30 8882 O 843.404 -2.14374 -0.295389 0
M  V30 8883 C 843.999 -1.57869 2.99771 0
M  V30 8884 C 842.558 -2.09954 3.12404 0
M  V30 8885 C 841.705 -0.934492 2.6108 0
M  V30 8886 H 844.656 -0.0709551 1.58541 0
M  V30 8887 H 844.677 -2.44462 2.91579 0
M  V30 8888 H 844.189 -0.84212 3.78853 0
M  V30 8889 H 842.29 -2.86637 2.38055 0
M  V30 8890 H 842.403 -2.32934 4.18663 0
M  V30 8891 H 840.767 -1.32199 2.17705 0
M  V30 8892 H 841.55 -0.211768 3.42646 0
M  V30 8893 N 843.995 -1.47404 -0.557645 0
M  V30 8894 C 845.22 -1.57868 -1.34508 0
M  V30 8895 C 845.645 -0.229151 -1.86699 0
M  V30 8896 O 845.003 0.794908 -1.62944 0
M  V30 8897 C 845.051 -2.60712 -2.49122 0
M  V30 8898 O 844.155 -2.15952 -3.51338 0
M  V30 8899 H 843.496 -0.530335 -0.399551 0
M  V30 8900 H 846.026 -1.93181 -0.673954 0
M  V30 8901 H 846.036 -2.81118 -2.95697 0
M  V30 8902 H 844.711 -3.58701 -2.10491 0
M  V30 8903 H 843.288 -2.05644 -3.11071 0
M  V30 8904 N 845.473 0.80434 -1.35529 0
M  V30 8905 C 846.884 1.37849 -1.25915 0
M  V30 8906 C 847.235 1.95905 0.107495 0
M  V30 8907 O 846.36 1.91462 1.00852 0
M  V30 8908 C 846.955 2.50608 -2.27994 0
M  V30 8909 C 845.514 3.03879 -2.22114 0
M  V30 8910 C 844.661 1.76856 -2.13582 0
M  V30 8911 H 847.612 0.607192 -1.46625 0
M  V30 8912 H 847.633 3.29221 -1.90772 0
M  V30 8913 H 847.145 2.08323 -3.27449 0
M  V30 8914 H 845.246 3.50622 -1.26077 0
M  V30 8915 H 845.359 3.61707 -3.14173 0
M  V30 8916 H 843.723 1.98498 -1.59595 0
M  V30 8917 H 844.506 1.36721 -3.14901 0
M  V30 8918 N 846.951 1.19563 1.02676 0
M  V30 8919 C 847.881 0.959024 2.12897 0
M  V30 8920 C 848.862 -0.108382 1.69754 0
M  V30 8921 O 850.047 0.0470698 1.94143 0
M  V30 8922 C 847.177 0.499211 3.43693 0
M  V30 8923 C 846.131 1.5087 4.00528 0
M  V30 8924 C 845.457 0.905884 5.2697 0
M  V30 8925 C 846.757 2.88954 4.3509 0
M  V30 8926 H 848.451 1.88084 2.32948 0
M  V30 8927 H 845.997 0.905731 1.11949 0
M  V30 8928 H 847.95 0.320965 4.20176 0
M  V30 8929 H 846.674 -0.458205 3.2337 0
M  V30 8930 H 845.333 1.67413 3.26142 0
M  V30 8931 H 844.981 -0.0591506 5.02965 0
M  V30 8932 H 844.681 1.58 5.65959 0
M  V30 8933 H 846.205 0.73848 6.06118 0
M  V30 8934 H 847.619 2.75981 5.02501 0
M  V30 8935 H 846.016 3.53177 4.85166 0
M  V30 8936 H 847.086 3.41447 3.44299 0
M  V30 8937 N 848.429 -1.21819 0.999893 0
M  V30 8938 C 849.675 -1.91035 0.680701 0
M  V30 8939 C 850.008 -1.77582 -0.786021 0
M  V30 8940 O 849.283 -1.14917 -1.56921 0
M  V30 8941 C 849.566 -3.43013 1.0961 0
M  V30 8942 C 849.419 -3.65481 2.6219 0
M  V30 8943 C 850.738 -4.35204 0.654616 0
M  V30 8944 H 847.857 -0.693748 0.248763 0
M  V30 8945 H 850.499 -1.43555 1.24466 0
M  V30 8946 H 848.649 -3.83581 0.616253 0
M  V30 8947 H 850.321 -3.34273 3.17899 0
M  V30 8948 H 848.564 -3.09522 3.03938 0
M  V30 8949 H 849.235 -4.71945 2.86307 0
M  V30 8950 H 851.711 -4.0219 1.06688 0
M  V30 8951 H 850.587 -5.40198 0.973492 0
M  V30 8952 H 850.848 -4.3986 -0.444458 0
M  V30 8953 N 849.908 -0.773975 -1.37286 0
M  V30 8954 C 851.136 -0.350758 -2.03905 0
M  V30 8955 C 851.551 1.02779 -1.58373 0
M  V30 8956 O 850.908 1.65646 -0.766009 0
M  V30 8957 C 850.959 -0.387335 -3.59419 0
M  V30 8958 O 850.68 -1.7115 -4.03286 0
M  V30 8959 C 852.181 0.047198 -4.43275 0
M  V30 8960 H 849.401 -0.146663 -0.654775 0
M  V30 8961 H 851.945 -1.04852 -1.75574 0
M  V30 8962 H 850.1 0.261865 -3.86514 0
M  V30 8963 H 850.514 -1.65166 -4.97816 0
M  V30 8964 H 851.988 -0.0295474 -5.51992 0
M  V30 8965 H 852.465 1.09786 -4.25257 0
M  V30 8966 H 853.071 -0.573899 -4.2141 0
M  V30 8967 N 851.386 1.48609 -0.524698 0
M  V30 8968 C 852.319 2.26374 0.288109 0
M  V30 8969 C 853.297 1.31997 0.949509 0
M  V30 8970 O 854.481 1.61329 0.974946 0
M  V30 8971 C 851.608 3.08065 1.4076 0
M  V30 8972 C 850.654 4.17777 0.858152 0
M  V30 8973 S 851.487 5.3482 -0.269827 0
M  V30 8974 C 852.643 6.2007 0.852266 0
M  V30 8975 H 852.876 2.94965 -0.371865 0
M  V30 8976 H 850.409 1.51248 -0.31039 0
M  V30 8977 H 852.367 3.5571 2.04892 0
M  V30 8978 H 851.028 2.38898 2.03928 0
M  V30 8979 H 850.221 4.74542 1.69783 0
M  V30 8980 H 849.823 3.72846 0.293627 0
M  V30 8981 H 852.115 6.54451 1.75213 0
M  V30 8982 H 853.058 7.07364 0.322717 0
M  V30 8983 H 853.466 5.53068 1.13029 0
M  V30 8984 N 852.864 0.259585 1.55447 0
M  V30 8985 C 854.092 -0.365392 2.03648 0
M  V30 8986 C 854.507 -1.50613 1.13847 0
M  V30 8987 O 853.864 -1.81837 0.155414 0
M  V30 8988 C 853.915 -0.861172 3.51093 0
M  V30 8989 O 853.636 0.234121 4.37474 0
M  V30 8990 C 855.137 -1.55555 4.15111 0
M  V30 8991 H 852.357 -0.0853439 0.66555 0
M  V30 8992 H 854.901 0.387151 2.00802 0
M  V30 8993 H 853.056 -1.56385 3.54433 0
M  V30 8994 H 853.47 -0.1444 5.24301 0
M  V30 8995 H 854.944 -1.85403 5.19932 0
M  V30 8996 H 855.421 -2.48185 3.62355 0
M  V30 8997 H 856.027 -0.89712 4.15731 0
M  V30 8998 N 854.342 -1.57594 -0.0133615 0
M  V30 8999 C 855.753 -1.78168 -0.557937 0
M  V30 9000 C 856.104 -0.892616 -1.74719 0
M  V30 9001 O 855.229 -0.0915491 -2.16206 0
M  V30 9002 C 855.824 -3.23115 -1.01894 0
M  V30 9003 C 854.383 -3.44831 -1.50892 0
M  V30 9004 C 853.53 -2.73558 -0.454044 0
M  V30 9005 H 856.481 -1.57266 0.212843 0
M  V30 9006 H 856.502 -3.30493 -1.8856 0
M  V30 9007 H 856.014 -3.87798 -0.153175 0
M  V30 9008 H 854.115 -2.85345 -2.39602 0
M  V30 9009 H 854.228 -4.53485 -1.54559 0
M  V30 9010 H 852.592 -2.37787 -0.912666 0
M  V30 9011 H 853.375 -3.40932 0.402524 0
M  V30 9012 N 855.82 0.285905 -1.54985 0
M  V30 9013 C 856.783 1.33625 -1.86218 0
M  V30 9014 C 857.783 1.42971 -0.735936 0
M  V30 9015 O 858.973 1.42345 -1.00417 0
M  V30 9016 C 856.105 2.71926 -2.05595 0
M  V30 9017 H 857.298 1.07167 -2.80099 0
M  V30 9018 H 854.851 0.523335 -1.47278 0
M  V30 9019 H 855.586 3.03583 -1.14053 0
M  V30 9020 H 855.371 2.6653 -2.87583 0
M  V30 9021 H 856.861 3.47841 -2.31077 0
M  V30 9022 N 857.298 1.47698 0.54982 0
M  V30 9023 C 858.544 1.54931 1.30859 0
M  V30 9024 C 858.877 0.214021 1.93017 0
M  V30 9025 O 858.152 -0.778093 1.78258 0
M  V30 9026 C 858.435 2.67286 2.41309 0
M  V30 9027 C 858.288 4.10457 1.83971 0
M  V30 9028 C 859.607 2.75509 3.43195 0
M  V30 9029 H 856.726 0.56399 0.474431 0
M  V30 9030 H 859.368 1.79787 0.614541 0
M  V30 9031 H 857.518 2.46224 3.0051 0
M  V30 9032 H 859.19 4.42903 1.28974 0
M  V30 9033 H 857.433 4.18387 1.14606 0
M  V30 9034 H 858.104 4.84857 2.63851 0
M  V30 9035 H 860.58 2.94531 2.93923 0
M  V30 9036 H 859.456 3.55886 4.17895 0
M  V30 9037 H 859.717 1.82863 4.02509 0
M  V30 9038 N 858.776 -0.797141 1.35954 0
M  V30 9039 C 860.187 -1.37179 1.26644 0
M  V30 9040 C 860.538 -1.9596 -0.0971046 0
M  V30 9041 O 859.663 -1.91994 -0.998355 0
M  V30 9042 C 860.258 -2.49395 2.2932 0
M  V30 9043 C 858.817 -3.02697 2.23722 0
M  V30 9044 C 857.964 -1.75721 2.14517 0
M  V30 9045 H 860.915 -0.599407 1.46945 0
M  V30 9046 H 860.936 -3.28204 1.92515 0
M  V30 9047 H 860.448 -2.06584 3.2855 0
M  V30 9048 H 858.549 -3.49948 1.27934 0
M  V30 9049 H 858.662 -3.60036 3.16087 0
M  V30 9050 H 857.026 -1.97649 1.60646 0
M  V30 9051 H 857.809 -1.35049 3.15621 0
M  V30 9052 N 860.254 -1.20106 -1.0204 0
M  V30 9053 C 861.217 -0.948261 -2.08664 0
M  V30 9054 C 862.217 0.0746753 -1.60627 0
M  V30 9055 O 863.407 -0.160981 -1.73455 0
M  V30 9056 C 860.539 -0.426854 -3.38217 0
M  V30 9057 H 861.732 -1.894 -2.32524 0
M  V30 9058 H 859.285 -1.0159 -1.18782 0
M  V30 9059 H 860.02 0.524532 -3.2003 0
M  V30 9060 H 859.805 -1.16451 -3.74408 0
M  V30 9061 H 861.295 -0.269346 -4.1673 0
M  V30 9062 N 861.732 1.21287 -1.00634 0
M  V30 9063 C 862.978 1.90671 -0.690822 0
M  V30 9064 C 863.311 1.77996 0.776592 0
M  V30 9065 O 862.586 1.15748 1.5631 0
M  V30 9066 C 862.869 3.42426 -1.11428 0
M  V30 9067 C 862.722 3.64086 -2.64124 0
M  V30 9068 C 864.041 4.34851 -0.677686 0
M  V30 9069 H 861.16 0.692419 -0.252439 0
M  V30 9070 H 863.802 1.42893 -1.25226 0
M  V30 9071 H 861.952 3.83249 -0.636586 0
M  V30 9072 H 863.624 3.32582 -3.19667 0
M  V30 9073 H 861.867 3.07906 -3.05576 0
M  V30 9074 H 862.538 4.7042 -2.88806 0
M  V30 9075 H 865.014 4.01619 -1.0882 0
M  V30 9076 H 863.89 5.39675 -1.00213 0
M  V30 9077 H 864.151 4.4009 0.421125 0
M  V30 9078 N 863.21 0.781244 1.36873 0
M  V30 9079 C 864.438 0.361566 2.03716 0
M  V30 9080 C 864.853 -1.01937 1.58916 0
M  V30 9081 O 864.21 -1.65237 0.774783 0
M  V30 9082 C 864.261 0.406391 3.59208 0
M  V30 9083 O 863.982 1.73286 4.02372 0
M  V30 9084 C 865.483 -0.0236894 4.43294 0
M  V30 9085 H 862.703 0.150133 0.653988 0
M  V30 9086 H 865.247 1.05781 1.75016 0
M  V30 9087 H 863.402 -0.241364 3.86647 0
M  V30 9088 H 863.816 1.67804 4.96933 0
M  V30 9089 H 865.29 0.0588205 5.51969 0
M  V30 9090 H 865.767 -1.07529 4.25833 0
M  V30 9091 H 866.373 0.59624 4.211 0
M  V30 9092 N 864.689 -1.48329 0.532571 0
M  V30 9093 C 866.1 -1.86469 0.0927749 0
M  V30 9094 C 866.451 -1.44186 -1.3306 0
M  V30 9095 O 865.576 -0.833741 -1.99694 0
M  V30 9096 C 866.171 -3.38414 0.161588 0
M  V30 9097 C 864.73 -3.75739 -0.223028 0
M  V30 9098 C 863.877 -2.72377 0.520199 0
M  V30 9099 H 866.828 -1.40197 0.743678 0
M  V30 9100 H 866.849 -3.75314 -0.626059 0
M  V30 9101 H 866.361 -3.69159 1.19765 0
M  V30 9102 H 864.462 -3.50608 -1.26113 0
M  V30 9103 H 864.575 -4.78954 0.118385 0
M  V30 9104 H 862.939 -2.54678 -0.0338425 0
M  V30 9105 H 863.722 -3.05965 1.55694 0
M  V30 9106 N 866.167 -0.267825 -1.55308 0
M  V30 9107 C 867.413 0.351556 -1.9973 0
M  V30 9108 C 867.746 1.56049 -1.15596 0
M  V30 9109 O 867.021 1.93203 -0.224274 0
M  V30 9110 C 867.304 0.74091 -3.52395 0
M  V30 9111 C 867.157 -0.474861 -4.47286 0
M  V30 9112 C 868.476 1.5801 -4.10756 0
M  V30 9113 H 865.595 0.126308 -0.726096 0
M  V30 9114 H 868.237 -0.373316 -1.86296 0
M  V30 9115 H 866.387 1.35851 -3.63973 0
M  V30 9116 H 868.059 -1.1134 -4.47662 0
M  V30 9117 H 866.302 -1.11425 -4.19246 0
M  V30 9118 H 866.973 -0.158782 -5.51772 0
M  V30 9119 H 869.449 1.05857 -4.0241 0
M  V30 9120 H 868.325 1.82135 -5.17801 0
M  V30 9121 H 868.586 2.55878 -3.60526 0
M  V30 9122 N 867.645 1.57599 0.00500368 0
M  V30 9123 C 868.922 1.81561 0.727654 0
M  V30 9124 C 869.302 0.871604 1.92266 0
M  V30 9125 O 868.65 -0.0808232 2.28357 0
M  V30 9126 C 868.86 3.29922 1.13809 0
M  V30 9127 C 870.208 3.95531 1.54403 0
M  V30 9128 O 871.232 3.34215 1.23202 0
M  V30 9129 O 870.091 5.03535 2.12402 0
M  V30 9130 H 867.185 0.747462 0.353878 0
M  V30 9131 H 869.731 1.69688 -0.0200667 0
M  V30 9132 H 868.503 3.90253 0.286078 0
M  V30 9133 H 868.126 3.46775 1.94507 0
M  V30 9134 N 869.123 -0.277682 1.55134 0
M  V30 9135 C 870.033 -1.36524 1.90783 0
M  V30 9136 C 871.049 -1.54283 0.804542 0
M  V30 9137 O 872.225 -1.68499 1.10318 0
M  V30 9138 C 869.29 -2.70524 2.16835 0
M  V30 9139 C 868.351 -2.61552 3.40424 0
M  V30 9140 C 867.584 -3.89162 3.65224 0
M  V30 9141 O 867.807 -4.89624 2.92616 0
M  V30 9142 O 866.741 -3.89647 4.58758 0
M  V30 9143 H 870.567 -1.0929 2.83354 0
M  V30 9144 H 868.152 -0.475799 1.41621 0
M  V30 9145 H 870.034 -3.49765 2.35038 0
M  V30 9146 H 868.709 -2.97555 1.27448 0
M  V30 9147 H 867.616 -1.80704 3.27562 0
M  V30 9148 H 868.949 -2.39472 4.30016 0
M  V30 9149 N 870.601 -1.47988 -0.541979 0
M  V30 9150 C 871.511 -1.64276 -1.67483 0
M  V30 9151 C 872.527 -0.525387 -1.65879 0
M  V30 9152 O 873.703 -0.794912 -1.85049 0
M  V30 9153 C 870.768 -1.66744 -3.03969 0
M  V30 9154 C 869.829 -2.90021 -3.16522 0
M  V30 9155 C 869.062 -2.92362 -4.46498 0
M  V30 9156 O 869.285 -2.03462 -5.32878 0
M  V30 9157 O 868.219 -3.84399 -4.63164 0
M  V30 9158 H 872.045 -2.60164 -1.5668 0
M  V30 9159 H 869.63 -1.31249 -0.71372 0
M  V30 9160 H 871.512 -1.70958 -3.85164 0
M  V30 9161 H 870.187 -0.740277 -3.15122 0
M  V30 9162 H 869.094 -2.91345 -2.34667 0
M  V30 9163 H 870.427 -3.82082 -3.10281 0
M  V30 9164 N 872.079 0.78992 -1.36375 0
M  V30 9165 C 873.304 1.58389 -1.33895 0
M  V30 9166 C 873.729 1.8794 0.0774934 0
M  V30 9167 O 873.087 1.4785 1.0493 0
M  V30 9168 C 873.135 2.88201 -2.16732 0
M  V30 9169 O 872.239 3.81778 -1.55946 0
M  V30 9170 H 871.58 0.480471 -0.458305 0
M  V30 9171 H 874.11 0.979119 -1.79651 0
M  V30 9172 H 874.12 3.37475 -2.29292 0
M  V30 9173 H 872.795 2.66019 -3.19698 0
M  V30 9174 H 871.372 3.40371 -1.52323 0
M  V30 9175 N 873.557 1.20646 1.01402 0
M  V30 9176 C 874.782 1.04462 1.79172 0
M  V30 9177 C 875.207 -0.401588 1.83763 0
M  V30 9178 O 874.565 -1.28934 1.27459 0
M  V30 9179 C 874.613 1.63583 3.21361 0
M  V30 9180 O 873.717 0.875198 4.03006 0
M  V30 9181 H 873.058 0.368235 0.552539 0
M  V30 9182 H 875.588 1.59994 1.27526 0
M  V30 9183 H 875.598 1.67426 3.72065 0
M  V30 9184 H 874.273 2.68835 3.17334 0
M  V30 9185 H 872.85 0.911172 3.61597 0
M  V30 9186 N 875.035 -1.20752 1.01276 0
M  V30 9187 C 876.312 -1.85676 0.615112 0
M  V30 9188 C 876.692 -1.90623 -0.906976 0
M  V30 9189 O 876.04 -1.41124 -1.79712 0
M  V30 9190 C 876.25 -3.2552 1.25847 0
M  V30 9191 C 877.598 -4.0184 1.37148 0
M  V30 9192 O 878.622 -3.3486 1.21438 0
M  V30 9193 O 877.481 -5.21783 1.62495 0
M  V30 9194 H 874.575 -0.799437 0.211729 0
M  V30 9195 H 877.121 -1.28372 1.10989 0
M  V30 9196 H 875.893 -3.16664 2.29869 0
M  V30 9197 H 875.516 -3.90452 0.750524 0
M  V30 9198 N 876.513 -0.788492 -1.36457 0
M  V30 9199 C 877.761 -0.359749 -1.98872 0
M  V30 9200 C 878.082 1.07197 -1.62892 0
M  V30 9201 O 877.352 1.73875 -0.902463 0
M  V30 9202 H 875.932 -0.130029 -0.735596 0
M  V30 9203 H 878.594 -1.01033 -1.66668 0
M  V30 9204 H 877.69 -0.450835 -3.08827 0
M  V30 9205 N 877.991 1.48044 -0.54043 0
M  V30 9206 C 878.901 2.33565 0.220163 0
M  V30 9207 C 879.917 1.47146 0.928659 0
M  V30 9208 O 881.093 1.80107 0.901295 0
M  V30 9209 C 878.158 3.2349 1.2472 0
M  V30 9210 C 877.219 4.25789 0.547938 0
M  V30 9211 C 876.452 5.11417 1.52605 0
M  V30 9212 O 876.675 4.99204 2.75956 0
M  V30 9213 O 875.609 5.92498 1.05972 0
M  V30 9214 H 879.435 2.99868 -0.480898 0
M  V30 9215 H 877.02 1.46332 -0.301226 0
M  V30 9216 H 878.902 3.79084 1.84047 0
M  V30 9217 H 877.577 2.59835 1.93048 0
M  V30 9218 H 876.484 3.74001 -0.0860941 0
M  V30 9219 H 877.817 4.92111 -0.0935896 0
M  V30 9220 N 879.47 0.276058 1.55163 0
M  V30 9221 C 880.881 -0.221516 1.85381 0
M  V30 9222 C 881.232 -1.55372 1.19808 0
M  V30 9223 O 880.357 -2.10855 0.486742 0
M  V30 9224 C 880.952 -0.408706 3.36326 0
M  V30 9225 C 879.511 -0.850512 3.66665 0
M  V30 9226 C 878.658 0.055656 2.77244 0
M  V30 9227 H 881.609 0.497819 1.5069 0
M  V30 9228 H 881.63 -1.24711 3.59482 0
M  V30 9229 H 881.142 0.561052 3.84023 0
M  V30 9230 H 879.243 -1.83171 3.24468 0
M  V30 9231 H 879.356 -0.687181 4.74146 0
M  V30 9232 H 877.72 -0.460819 2.50497 0
M  V30 9233 H 878.503 1.02131 3.27756 0
M  V30 9234 N 880.948 -1.576 0.00335426 0
M  V30 9235 C 882.225 -1.81945 -0.718015 0
M  V30 9236 C 882.605 -0.881788 -1.91801 0
M  V30 9237 O 881.953 0.0687118 -2.28397 0
M  V30 9238 C 882.163 -3.30521 -1.12058 0
M  V30 9239 C 883.511 -3.96345 -1.52303 0
M  V30 9240 O 884.535 -3.34864 -1.21428 0
M  V30 9241 O 883.394 -5.04655 -2.09728 0
M  V30 9242 H 880.488 -0.749328 -0.34991 0
M  V30 9243 H 883.034 -1.69675 0.0290654 0
M  V30 9244 H 881.806 -3.90399 -0.265378 0
M  V30 9245 H 881.429 -3.47802 -1.92665 0
M  V30 9246 N 882.426 0.269451 -1.5528 0
M  V30 9247 C 883.358 1.35553 -1.84819 0
M  V30 9248 C 884.371 1.45369 -0.732914 0
M  V30 9249 O 885.56 1.47122 -1.0108 0
M  V30 9250 C 882.66 2.73645 -1.9993 0
M  V30 9251 C 881.833 2.86376 -3.30617 0
M  V30 9252 C 880.892 4.05165 -3.35749 0
M  V30 9253 O 879.918 3.95756 -4.09104 0
M  V30 9254 N 881.12 5.17297 -2.63408 0
M  V30 9255 H 883.885 1.10557 -2.78563 0
M  V30 9256 H 881.446 0.459566 -1.5524 0
M  V30 9257 H 883.438 3.51411 -2.00729 0
M  V30 9258 H 882.008 2.91448 -1.13035 0
M  V30 9259 H 881.228 1.95465 -3.42326 0
M  V30 9260 H 882.516 2.91815 -4.16799 0
M  V30 9261 H 881.914 5.2783 -2.03501 0
M  V30 9262 H 880.471 5.93281 -2.69927 0
M  V30 9263 N 883.904 1.48273 0.534124 0
M  V30 9264 C 884.814 1.65162 1.66609 0
M  V30 9265 C 885.83 0.534177 1.65598 0
M  V30 9266 O 887.006 0.804715 1.84625 0
M  V30 9267 C 884.071 1.68354 3.03081 0
M  V30 9268 C 883.132 2.91696 3.1498 0
M  V30 9269 C 882.365 2.94725 4.44941 0
M  V30 9270 O 882.588 2.06285 5.31792 0
M  V30 9271 O 881.522 3.8685 4.61119 0
M  V30 9272 H 885.348 2.60991 1.55298 0
M  V30 9273 H 882.933 1.31626 0.706749 0
M  V30 9274 H 884.815 1.72998 3.84252 0
M  V30 9275 H 883.49 0.756978 3.14725 0
M  V30 9276 H 882.397 2.92586 2.33119 0
M  V30 9277 H 883.73 3.83722 3.0825 0
M  V30 9278 N 885.382 -0.782676 1.36792 0
M  V30 9279 C 886.345 -1.8772 1.31507 0
M  V30 9280 C 887.345 -1.59269 0.221349 0
M  V30 9281 O 888.535 -1.67555 0.476544 0
M  V30 9282 C 885.667 -3.24641 1.04025 0
M  V30 9283 H 886.86 -1.9382 2.28853 0
M  V30 9284 H 884.413 -0.981226 1.21662 0
M  V30 9285 H 885.148 -3.24221 0.0716439 0
M  V30 9286 H 884.933 -3.46681 1.8318 0
M  V30 9287 H 886.423 -4.04711 1.02949 0
M  V30 9288 N 886.86 -1.21182 -1.00761 0
M  V30 9289 C 888.106 -1.02898 -1.74756 0
M  V30 9290 C 888.439 0.436774 -1.89225 0
M  V30 9291 O 887.714 1.32415 -1.42466 0
M  V30 9292 C 887.997 -1.72372 -3.16164 0
M  V30 9293 C 887.85 -3.2645 -3.09435 0
M  V30 9294 C 889.169 -1.46415 -4.15031 0
M  V30 9295 H 886.288 -0.375214 -0.634337 0
M  V30 9296 H 888.93 -1.49321 -1.17487 0
M  V30 9297 H 887.08 -1.32906 -3.65059 0
M  V30 9298 H 888.752 -3.75269 -2.68274 0
M  V30 9299 H 886.995 -3.56889 -2.46603 0
M  V30 9300 H 887.666 -3.70226 -4.09435 0
M  V30 9301 H 890.142 -1.80671 -3.7483 0
M  V30 9302 H 889.018 -1.97544 -5.12121 0
M  V30 9303 H 889.279 -0.39361 -4.40344 0
M  V30 9304 N 888.338 1.20213 -1.01915 0
M  V30 9305 C 889.27 2.2251 -0.549725 0
M  V30 9306 C 890.283 1.58558 0.369235 0
M  V30 9307 O 891.472 1.77715 0.167176 0
M  V30 9308 C 888.572 3.38189 0.219432 0
M  V30 9309 C 887.745 4.31729 -0.702066 0
M  V30 9310 C 886.804 5.26196 0.0199624 0
M  V30 9311 O 885.83 5.65993 -0.60339 0
M  V30 9312 N 887.032 5.65895 1.29397 0
M  V30 9313 H 889.797 2.63412 -1.42948 0
M  V30 9314 H 887.358 1.3478 -0.896987 0
M  V30 9315 H 889.35 3.98392 0.711763 0
M  V30 9316 H 887.92 2.96156 1.00051 0
M  V30 9317 H 887.14 3.69455 -1.37466 0
M  V30 9318 H 888.428 4.91145 -1.3287 0
M  V30 9319 H 887.826 5.35579 1.8213 0
M  V30 9320 H 886.383 6.28395 1.73098 0
M  V30 9321 N 889.816 0.795718 1.36037 0
M  V30 9322 C 891.041 0.38204 2.03851 0
M  V30 9323 C 891.466 -0.995553 1.59594 0
M  V30 9324 O 890.824 -1.64258 0.767401 0
M  V30 9325 C 890.872 0.461248 3.57638 0
M  V30 9326 O 889.976 -0.529448 4.08987 0
M  V30 9327 H 889.317 0.161227 0.644129 0
M  V30 9328 H 891.847 1.07858 1.73861 0
M  V30 9329 H 891.857 0.32712 4.06687 0
M  V30 9330 H 890.532 1.46613 3.89201 0
M  V30 9331 H 889.109 -0.35646 3.71192 0
M  V30 9332 N 891.294 -1.47756 0.548274 0
M  V30 9333 C 892.519 -2.07387 0.023475 0
M  V30 9334 C 892.944 -1.39956 -1.25674 0
M  V30 9335 O 892.302 -0.471543 -1.7506 0
M  V30 9336 C 892.35 -3.60224 -0.164669 0
M  V30 9337 O 891.454 -3.93653 -1.22928 0
M  V30 9338 H 890.795 -0.662312 0.0473156 0
M  V30 9339 H 893.325 -1.89905 0.761409 0
M  V30 9340 H 893.335 -4.06211 -0.38166 0
M  V30 9341 H 892.01 -4.08702 0.770425 0
M  V30 9342 H 890.587 -3.59422 -0.993495 0
M  V30 9343 N 892.772 -0.284283 -1.55015 0
M  V30 9344 C 894 0.332948 -2.04203 0
M  V30 9345 C 894.415 1.48783 -1.16229 0
M  V30 9346 O 893.772 1.81567 -0.184323 0
M  V30 9347 C 893.823 0.805207 -3.52418 0
M  V30 9348 O 893.544 -0.303689 -4.37046 0
M  V30 9349 C 895.045 1.48931 -4.17534 0
M  V30 9350 H 892.265 0.0747447 -0.666824 0
M  V30 9351 H 894.809 -0.419048 -2.00161 0
M  V30 9352 H 892.964 1.50727 -3.56876 0
M  V30 9353 H 893.378 0.0609703 -5.24465 0
M  V30 9354 H 894.852 1.77108 -5.22816 0
M  V30 9355 H 895.329 2.42389 -3.66257 0
M  V30 9356 H 895.935 0.830867 -4.17105 0
M  V30 9357 N 894.251 1.57596 -0.0117121 0
M  V30 9358 C 895.481 1.95077 0.680346 0
M  V30 9359 C 895.889 0.885793 1.67184 0
M  V30 9360 O 895.232 -0.142723 1.83145 0
M  V30 9361 C 895.294 3.28611 1.45791 0
M  V30 9362 C 894.958 4.52682 0.626706 0
M  V30 9363 C 895.955 5.19821 -0.0906223 0
M  V30 9364 C 893.64 4.99064 0.569229 0
M  V30 9365 C 895.634 6.31649 -0.854289 0
M  V30 9366 C 893.321 6.10779 -0.198155 0
M  V30 9367 C 894.319 6.76929 -0.908636 0
M  V30 9368 O 894.007 7.86501 -1.66348 0
M  V30 9369 H 893.739 0.647663 0.193672 0
M  V30 9370 H 896.293 2.05305 -0.0624969 0
M  V30 9371 H 894.523 3.14824 2.2455 0
M  V30 9372 H 896.212 3.51119 2.03642 0
M  V30 9373 H 896.978 4.84968 -0.0554421 0
M  V30 9374 H 892.857 4.47393 1.11178 0
M  V30 9375 H 896.401 6.83215 -1.40937 0
M  V30 9376 H 892.298 6.45072 -0.235114 0
M  V30 9377 H 893.066 8.03078 -1.58141 0
M  V30 9378 N 895.729 -0.261212 1.5542 0
M  V30 9379 C 896.676 -1.32315 1.89107 0
M  V30 9380 C 897.646 -1.48517 0.743767 0
M  V30 9381 O 898.831 -1.62733 0.996123 0
M  V30 9382 C 895.971 -2.67626 2.17877 0
M  V30 9383 C 895.084 -2.59549 3.45338 0
M  V30 9384 C 894.219 -3.87118 3.63748 0
M  V30 9385 C 893.258 -3.736 4.8486 0
M  V30 9386 N 892.395 -4.93029 4.99867 0
M  V30 9387 H 897.235 -1.02886 2.79675 0
M  V30 9388 H 894.772 -0.496812 1.38456 0
M  V30 9389 H 896.73 -3.4637 2.32559 0
M  V30 9390 H 895.36 -2.95232 1.30529 0
M  V30 9391 H 894.412 -1.72452 3.39064 0
M  V30 9392 H 895.724 -2.45465 4.34222 0
M  V30 9393 H 894.878 -4.74305 3.78312 0
M  V30 9394 H 893.617 -4.04084 2.73071 0
M  V30 9395 H 892.622 -2.84797 4.70288 0
M  V30 9396 H 893.847 -3.58143 5.76984 0
M  V30 9397 H 891.793 -5.10383 4.12123 0
M  V30 9398 H 891.71 -4.81521 5.82815 0
M  V30 9399 H 892.978 -5.81754 5.18828 0
M  V30 9400 N 897.207 -1.48554 -0.526253 0
M  V30 9401 C 898.484 -1.47252 -1.28748 0
M  V30 9402 C 898.864 -0.186245 -2.10277 0
M  V30 9403 O 898.212 0.831954 -2.12816 0
M  V30 9404 C 898.422 -2.73672 -2.16575 0
M  V30 9405 C 899.77 -3.22151 -2.76593 0
M  V30 9406 O 900.794 -2.74614 -2.2686 0
M  V30 9407 O 899.653 -4.04877 -3.67066 0
M  V30 9408 H 896.747 -0.588242 -0.581292 0
M  V30 9409 H 899.293 -1.60792 -0.5426 0
M  V30 9410 H 898.065 -3.58798 -1.56139 0
M  V30 9411 H 897.688 -2.6287 -2.98304 0
M  V30 9412 N 898.685 0.775411 -1.37205 0
M  V30 9413 C 899.91 1.5696 -1.35567 0
M  V30 9414 C 900.335 1.88012 0.0575554 0
M  V30 9415 O 899.693 1.48954 1.03355 0
M  V30 9416 C 899.741 2.85886 -2.19776 0
M  V30 9417 O 898.845 3.80103 -1.59987 0
M  V30 9418 H 898.186 0.475583 -0.463375 0
M  V30 9419 H 900.716 0.96001 -1.80679 0
M  V30 9420 H 900.726 3.35024 -2.32859 0
M  V30 9421 H 899.401 2.62613 -3.22502 0
M  V30 9422 H 897.978 3.38736 -1.55924 0
M  V30 9423 N 900.163 1.21714 1.00117 0
M  V30 9424 C 901.111 0.976937 2.11089 0
M  V30 9425 C 902.105 -0.0771295 1.69224 0
M  V30 9426 O 903.311 0.0745945 1.79845 0
M  V30 9427 H 899.686 0.298687 0.690138 0
M  V30 9428 H 901.657 1.91881 2.28526 0
M  V30 9429 C 900.406 0.562369 3.43122 0
M  V30 9430 H 899.729 1.36509 3.75773 0
M  V30 9431 H 901.169 0.433642 4.21777 0
M  V30 9432 C 899.628 -0.727148 3.28959 0
M  V30 9433 O 900.158 -1.78171 3.60025 0
M  V30 9434 N 898.364 -0.695129 2.82164 0
M  V30 9435 H 897.911 0.163346 2.57082 0
M  V30 9436 H 897.869 -1.55822 2.73069 0
M  V30 9437 N 901.641 -1.19671 1.02551 0
M  V30 9438 C 902.869 -1.93233 0.739513 0
M  V30 9439 C 903.284 -1.75298 -0.701158 0
M  V30 9440 O 902.641 -1.07269 -1.47647 0
M  V30 9441 C 902.692 -3.45085 1.07697 0
M  V30 9442 O 902.413 -3.62441 2.46106 0
M  V30 9443 C 903.914 -4.35776 0.813298 0
M  V30 9444 H 901.134 -0.613905 0.270853 0
M  V30 9445 H 903.678 -1.51909 1.36909 0
M  V30 9446 H 901.833 -3.84255 0.492635 0
M  V30 9447 H 902.247 -4.56337 2.58567 0
M  V30 9448 H 903.721 -5.40941 1.09941 0
M  V30 9449 H 904.198 -4.38474 -0.252359 0
M  V30 9450 H 904.804 -4.02282 1.38021 0
M  V30 9451 N 903.119 -0.802921 -1.35613 0
M  V30 9452 C 904.049 -0.225131 -2.32412 0
M  V30 9453 C 905.03 0.647383 -1.57299 0
M  V30 9454 O 906.215 0.578414 -1.85386 0
M  V30 9455 C 903.345 0.630085 -3.41537 0
M  V30 9456 C 902.299 -0.143635 -4.27759 0
M  V30 9457 C 901.625 0.833046 -5.28171 0
M  V30 9458 C 902.925 -1.34054 -5.04804 0
M  V30 9459 H 904.619 -1.03385 -2.80984 0
M  V30 9460 H 902.165 -0.498593 -1.35093 0
M  V30 9461 H 904.118 1.04433 -4.08254 0
M  V30 9462 H 902.842 1.47165 -2.91565 0
M  V30 9463 H 901.501 -0.539015 -3.62616 0
M  V30 9464 H 901.149 1.67001 -4.74468 0
M  V30 9465 H 900.849 0.319697 -5.8673 0
M  V30 9466 H 902.373 1.24558 -5.97761 0
M  V30 9467 H 903.787 -1.00136 -5.64487 0
M  V30 9468 H 902.184 -1.78812 -5.72841 0
M  V30 9469 H 903.254 -2.12906 -4.35659 0
M  V30 9470 N 904.597 1.47463 -0.556102 0
M  V30 9471 C 905.547 2.27007 0.212592 0
M  V30 9472 C 906.531 1.34288 0.886312 0
M  V30 9473 O 907.723 1.5865 0.784801 0
M  V30 9474 C 904.852 3.20021 1.24263 0
M  V30 9475 C 903.938 4.2022 0.572385 0
M  V30 9476 N 904.329 5.04539 -0.35691 0
M  V30 9477 C 902.627 4.38276 0.826441 0
M  V30 9478 C 903.328 5.76895 -0.746134 0
M  V30 9479 N 902.304 5.43506 -0.101225 0
M  V30 9480 H 906.106 2.89582 -0.501925 0
M  V30 9481 H 903.62 1.57988 -0.375961 0
M  V30 9482 H 905.617 3.7569 1.80728 0
M  V30 9483 H 904.277 2.59003 1.95826 0
M  V30 9484 H 905.288 5.12715 -0.731012 0
M  V30 9485 H 901.965 3.88429 1.53066 0
M  V30 9486 H 903.355 6.5472 -1.50967 0
M  V30 9487 N 906.075 0.2925 1.54862 0
M  V30 9488 C 907.005 -0.580677 2.26165 0
M  V30 9489 C 907.986 -1.14485 1.25806 0
M  V30 9490 O 909.171 -1.17577 1.54562 0
M  V30 9491 C 906.301 -1.75668 2.99596 0
M  V30 9492 C 905.255 -1.32325 4.07031 0
M  V30 9493 C 904.581 -2.58374 4.68131 0
M  V30 9494 C 905.881 -0.460703 5.20264 0
M  V30 9495 H 907.575 0.0140075 2.99397 0
M  V30 9496 H 905.121 0.00817706 1.43998 0
M  V30 9497 H 907.074 -2.37356 3.48195 0
M  V30 9498 H 905.798 -2.37747 2.23928 0
M  V30 9499 H 904.457 -0.729477 3.59269 0
M  V30 9500 H 904.105 -3.18749 3.89112 0
M  V30 9501 H 903.805 -2.30078 5.40683 0
M  V30 9502 H 905.329 -3.2088 5.19489 0
M  V30 9503 H 906.743 -0.983037 5.64809 0
M  V30 9504 H 905.14 -0.271881 5.99484 0
M  V30 9505 H 906.21 0.516304 4.82143 0
M  V30 9506 N 907.553 -1.57587 0.0200696 0
M  V30 9507 C 908.964 -1.79312 -0.520019 0
M  V30 9508 C 909.315 -0.929475 -1.72787 0
M  V30 9509 O 908.44 -0.137389 -2.15963 0
M  V30 9510 C 909.035 -3.25203 -0.950172 0
M  V30 9511 C 907.594 -3.47954 -1.43543 0
M  V30 9512 C 906.741 -2.74459 -0.395917 0
M  V30 9513 H 909.692 -1.56779 0.246153 0
M  V30 9514 H 909.713 -3.34418 -1.81508 0
M  V30 9515 H 909.225 -3.88035 -0.070883 0
M  V30 9516 H 907.326 -2.90363 -2.33495 0
M  V30 9517 H 907.439 -4.56661 -1.44905 0
M  V30 9518 H 905.803 -2.39669 -0.862022 0
M  V30 9519 H 906.586 -3.40001 0.47475 0
M  V30 9520 N 909.032 0.252966 -1.55557 0
M  V30 9521 C 910.26 0.999565 -1.81153 0
M  V30 9522 C 910.675 1.79181 -0.594955 0
M  V30 9523 O 910.032 1.77208 0.436311 0
M  V30 9524 C 910.083 1.94227 -3.04891 0
M  V30 9525 O 909.804 1.18209 -4.21851 0
M  V30 9526 C 911.305 2.80536 -3.43241 0
M  V30 9527 H 908.525 0.294402 -0.602966 0
M  V30 9528 H 911.069 0.277686 -2.02606 0
M  V30 9529 H 909.224 2.6185 -2.85505 0
M  V30 9530 H 909.638 1.81922 -4.9194 0
M  V30 9531 H 911.112 3.42442 -4.32941 0
M  V30 9532 H 911.589 3.51337 -2.6355 0
M  V30 9533 H 912.195 2.18373 -3.64956 0
M  V30 9534 N 910.51 1.48831 0.518367 0
M  V30 9535 C 911.42 1.6692 1.64848 0
M  V30 9536 C 912.436 0.551711 1.65022 0
M  V30 9537 O 913.612 0.824251 1.83761 0
M  V30 9538 C 910.677 1.71559 3.01278 0
M  V30 9539 C 909.738 2.9502 3.11868 0
M  V30 9540 C 908.971 2.99428 4.4179 0
M  V30 9541 O 909.194 2.11914 5.29574 0
M  V30 9542 O 908.128 3.91719 4.5699 0
M  V30 9543 H 911.954 2.62623 1.52521 0
M  V30 9544 H 909.539 1.32368 0.692749 0
M  V30 9545 H 911.421 1.77064 3.82396 0
M  V30 9546 H 910.096 0.790316 3.13904 0
M  V30 9547 H 909.003 2.95042 2.30003 0
M  V30 9548 H 910.336 3.8697 3.04163 0
M  V30 9549 N 911.988 -0.768124 1.37614 0
M  V30 9550 C 913.404 -1.06919 1.18493 0
M  V30 9551 C 913.604 -2.01486 0.0235753 0
M  V30 9552 O 912.66 -2.4438 -0.635209 0
M  V30 9553 C 913.973 -1.66321 2.50515 0
M  V30 9554 C 915.521 -1.78562 2.57069 0
M  V30 9555 C 915.996 -2.41377 3.89231 0
M  V30 9556 N 917.487 -2.48824 3.90693 0
M  V30 9557 C 918.222 -2.98288 4.89706 0
M  V30 9558 N 917.718 -3.47897 5.99115 0
M  V30 9559 N 919.511 -2.97196 4.77107 0
M  V30 9560 H 911.662 -0.140286 2.11936 0
M  V30 9561 H 913.925 -0.124863 0.939741 0
M  V30 9562 H 913.631 -1.04303 3.35878 0
M  V30 9563 H 913.505 -2.65571 2.67866 0
M  V30 9564 H 915.892 -2.39712 1.72111 0
M  V30 9565 H 915.973 -0.780574 2.43599 0
M  V30 9566 H 915.617 -1.80866 4.74605 0
M  V30 9567 H 915.547 -3.42495 4.00006 0
M  V30 9568 H 918.038 -2.1372 3.1166 0
M  V30 9569 H 918.351 -3.84053 6.70614 0
M  V30 9570 H 916.696 -3.45993 6.02755 0
M  V30 9571 H 919.887 -2.57741 3.90752 0
M  V30 9572 H 920.06 -3.35434 5.54426 0
M  V30 9573 N 913.466 -1.22244 -0.994698 0
M  V30 9574 C 914.713 -1.04591 -1.73398 0
M  V30 9575 C 915.041 0.419223 -1.89928 0
M  V30 9576 O 914.296 1.32714 -1.43824 0
M  V30 9577 C 914.595 -1.70014 -3.14372 0
M  V30 9578 C 914.261 -3.19903 -3.17762 0
M  V30 9579 C 912.923 -3.60803 -3.18394 0
M  V30 9580 C 915.275 -4.15851 -3.14194 0
M  V30 9581 C 912.603 -4.96135 -3.13157 0
M  V30 9582 C 914.955 -5.51157 -3.10498 0
M  V30 9583 C 913.619 -5.91439 -3.09445 0
M  V30 9584 H 912.889 -0.382725 -0.63451 0
M  V30 9585 H 915.536 -1.51981 -1.16508 0
M  V30 9586 H 913.841 -1.14945 -3.7456 0
M  V30 9587 H 915.538 -1.53848 -3.70313 0
M  V30 9588 H 912.128 -2.87336 -3.18019 0
M  V30 9589 H 916.312 -3.85272 -3.12857 0
M  V30 9590 H 911.568 -5.26578 -3.10685 0
M  V30 9591 H 915.742 -6.2523 -3.06692 0
M  V30 9592 H 913.369 -6.96271 -3.05141 0
M  V30 9593 N 914.944 1.19125 -1.03184 0
M  V30 9594 C 916.169 1.93379 -0.749628 0
M  V30 9595 C 916.594 1.75153 0.685785 0
M  V30 9596 O 915.952 1.05579 1.47386 0
M  V30 9597 C 916 3.43101 -1.1097 0
M  V30 9598 O 915.104 4.11758 -0.230053 0
M  V30 9599 H 914.445 0.603605 -0.276689 0
M  V30 9600 H 916.975 1.51116 -1.37931 0
M  V30 9601 H 916.985 3.93778 -1.06785 0
M  V30 9602 H 915.66 3.55688 -2.15544 0
M  V30 9603 H 914.237 3.7143 -0.330748 0
M  V30 9604 N 916.422 0.810101 1.35185 0
M  V30 9605 C 917.833 0.452616 1.81131 0
M  V30 9606 C 918.184 -1.02573 1.67252 0
M  V30 9607 O 917.309 -1.79735 1.20516 0
M  V30 9608 C 917.904 0.814775 3.28857 0
M  V30 9609 C 916.463 0.509839 3.72931 0
M  V30 9610 C 915.61 1.03852 2.57119 0
M  V30 9611 H 918.561 1.00143 1.23114 0
M  V30 9612 H 918.582 0.113635 3.8033 0
M  V30 9613 H 918.094 1.89078 3.38926 0
M  V30 9614 H 916.195 -0.557289 3.68409 0
M  V30 9615 H 916.308 1.04493 4.67566 0
M  V30 9616 H 914.672 0.460671 2.50499 0
M  V30 9617 H 915.455 2.12071 2.69964 0
M  V30 9618 N 917.9 -1.47166 0.563914 0
M  V30 9619 C 919.146 -2.02756 0.0424338 0
M  V30 9620 C 919.479 -1.43662 -1.3067 0
M  V30 9621 O 918.754 -0.594676 -1.85186 0
M  V30 9622 C 919.037 -3.60074 -0.0434793 0
M  V30 9623 C 918.89 -4.29587 1.33323 0
M  V30 9624 C 920.209 -4.336 -0.753568 0
M  V30 9625 H 917.328 -0.736806 0.0168946 0
M  V30 9626 H 919.97 -1.75521 0.727496 0
M  V30 9627 H 918.12 -3.83409 -0.626906 0
M  V30 9628 H 919.792 -4.17573 1.96037 0
M  V30 9629 H 918.035 -3.8968 1.9061 0
M  V30 9630 H 918.706 -5.38218 1.22576 0
M  V30 9631 H 921.182 -4.15299 -0.258126 0
M  V30 9632 H 920.058 -5.43291 -0.782659 0
M  V30 9633 H 920.319 -4.03302 -1.81108 0
M  V30 9634 N 919.378 -0.300708 -1.54705 0
M  V30 9635 C 920.794 0.0526874 -1.59513 0
M  V30 9636 C 920.994 1.52444 -1.31769 0
M  V30 9637 O 920.05 2.27716 -1.09096 0
M  V30 9638 C 921.363 -0.344989 -2.98714 0
M  V30 9639 C 922.911 -0.29373 -3.11619 0
M  V30 9640 C 923.386 -0.666225 -4.53129 0
M  V30 9641 N 924.877 -0.618749 -4.59049 0
M  V30 9642 C 925.612 -0.879447 -5.66616 0
M  V30 9643 N 925.108 -1.2061 -6.82221 0
M  V30 9644 N 926.901 -0.806528 -5.56284 0
M  V30 9645 H 919.052 -1.25988 -1.71 0
M  V30 9646 H 921.315 -0.510758 -0.798643 0
M  V30 9647 H 921.021 -1.36953 -3.2394 0
M  V30 9648 H 920.895 0.301507 -3.75993 0
M  V30 9649 H 923.282 0.72156 -2.86142 0
M  V30 9650 H 923.363 -0.974844 -2.36496 0
M  V30 9651 H 923.007 -1.67932 -4.79334 0
M  V30 9652 H 922.937 0.0369575 -5.26587 0
M  V30 9653 H 925.428 -0.377202 -3.76013 0
M  V30 9654 H 925.741 -1.391 -7.60178 0
M  V30 9655 H 924.086 -1.24413 -6.83774 0
M  V30 9656 H 927.277 -0.550993 -4.64846 0
M  V30 9657 H 927.45 -1.01307 -6.40032 0
M  V30 9658 N 920.856 1.57574 -0.0284266 0
M  V30 9659 C 922.272 1.56194 0.327958 0
M  V30 9660 C 922.472 1.03397 1.72949 0
M  V30 9661 O 921.528 0.680392 2.4316 0
M  V30 9662 C 922.841 3.00177 0.177196 0
M  V30 9663 C 924.389 3.12 0.250014 0
M  V30 9664 C 924.864 4.57821 0.128049 0
M  V30 9665 N 926.355 4.6283 0.185054 0
M  V30 9666 C 927.09 5.73286 0.114454 0
M  V30 9667 N 926.586 6.928 -0.00719225 0
M  V30 9668 N 928.379 5.61848 0.16839 0
M  V30 9669 H 920.53 1.90224 -0.944921 0
M  V30 9670 H 922.793 0.874987 -0.364832 0
M  V30 9671 H 922.499 3.42753 -0.788224 0
M  V30 9672 H 922.373 3.65101 0.94768 0
M  V30 9673 H 924.76 2.69337 1.20589 0
M  V30 9674 H 924.841 2.49799 -0.550835 0
M  V30 9675 H 924.485 5.01165 -0.824407 0
M  V30 9676 H 924.415 5.18001 0.947753 0
M  V30 9677 H 926.906 3.76867 0.279247 0
M  V30 9678 H 927.219 7.72781 -0.0543903 0
M  V30 9679 H 925.564 6.94987 -0.0419648 0
M  V30 9680 H 928.755 4.67367 0.261821 0
M  V30 9681 H 928.928 6.47907 0.109908 0
M  V30 9682 N 922.334 -0.244713 1.55689 0
M  V30 9683 C 923.581 -0.972446 1.77622 0
M  V30 9684 C 923.909 -1.85235 0.593137 0
M  V30 9685 O 923.164 -1.91064 -0.423464 0
M  V30 9686 C 923.463 -1.8617 3.05083 0
M  V30 9687 C 923.129 -1.13696 4.3633 0
M  V30 9688 C 921.791 -0.936679 4.71996 0
M  V30 9689 C 924.143 -0.623451 5.17458 0
M  V30 9690 C 921.471 -0.210612 5.86322 0
M  V30 9691 C 923.823 0.0891587 6.32537 0
M  V30 9692 C 922.487 0.300904 6.66821 0
M  V30 9693 H 921.757 -0.355843 0.649967 0
M  V30 9694 H 924.404 -0.242372 1.8996 0
M  V30 9695 H 922.709 -2.6589 2.87767 0
M  V30 9696 H 924.406 -2.4265 3.19253 0
M  V30 9697 H 920.996 -1.30301 4.08313 0
M  V30 9698 H 925.18 -0.765725 4.90357 0
M  V30 9699 H 920.436 -0.0361062 6.11389 0
M  V30 9700 H 924.61 0.494685 6.94641 0
M  V30 9701 H 922.237 0.865466 7.55257 0
M  V30 9702 N 923.813 -1.49104 -0.510467 0
M  V30 9703 C 925.038 -1.62068 -1.29417 0
M  V30 9704 C 925.463 -0.288432 -1.85875 0
M  V30 9705 O 924.821 0.742667 -1.65391 0
M  V30 9706 C 924.869 -2.68506 -2.40701 0
M  V30 9707 O 923.973 -2.27021 -3.4429 0
M  V30 9708 H 923.314 -0.542778 -0.382476 0
M  V30 9709 H 925.844 -1.95228 -0.612154 0
M  V30 9710 H 925.854 -2.90383 -2.86604 0
M  V30 9711 H 924.529 -3.65216 -1.98973 0
M  V30 9712 H 923.106 -2.15436 -3.04371 0
M  V30 9713 N 925.291 0.760815 -1.38019 0
M  V30 9714 C 926.568 1.5098 -1.24356 0
M  V30 9715 C 926.948 2.10507 0.158169 0
M  V30 9716 O 926.296 1.96455 1.16695 0
M  V30 9717 C 926.506 2.58195 -2.34811 0
M  V30 9718 C 927.854 3.25297 -2.72886 0
M  V30 9719 O 928.878 2.68496 -2.34069 0
M  V30 9720 O 927.737 4.28018 -3.39799 0
M  V30 9721 H 924.831 0.66921 -0.485888 0
M  V30 9722 H 927.377 0.796844 -1.49828 0
M  V30 9723 H 926.149 2.12406 -3.28633 0
M  V30 9724 H 925.772 3.37079 -2.10864 0
M  V30 9725 N 926.769 1.22769 0.988202 0
M  V30 9726 C 928.017 1.05301 1.725 0
M  V30 9727 C 928.338 -0.412103 1.90596 0
M  V30 9728 O 927.608 -1.29606 1.46898 0
M  V30 9729 H 926.188 0.386658 0.639144 0
M  V30 9730 H 928.85 1.54359 1.18993 0
M  V30 9731 H 927.946 1.53465 2.71763 0
M  V30 9732 N 928.247 -1.18576 1.03814 0
M  V30 9733 C 929.21 -2.2033 0.63146 0
M  V30 9734 C 930.21 -1.57787 -0.309816 0
M  V30 9735 O 931.4 -1.73938 -0.0955598 0
M  V30 9736 C 928.532 -3.40818 -0.0745963 0
M  V30 9737 H 929.725 -2.57824 1.53189 0
M  V30 9738 H 927.278 -1.32416 0.830398 0
M  V30 9739 H 928.013 -3.08853 -0.988947 0
M  V30 9740 H 927.798 -3.87453 0.6019 0
M  V30 9741 H 929.288 -4.16166 -0.345727 0
M  V30 9742 N 929.725 -0.817259 -1.34754 0
M  V30 9743 C 930.688 -0.240611 -2.27934 0
M  V30 9744 C 931.688 0.578219 -1.50044 0
M  V30 9745 O 932.878 0.395148 -1.69659 0
M  V30 9746 C 930.01 0.663318 -3.34384 0
M  V30 9747 H 931.203 -1.06257 -2.80445 0
M  V30 9748 H 928.756 -0.588697 -1.4479 0
M  V30 9749 H 929.491 1.50855 -2.87077 0
M  V30 9750 H 929.276 0.0777388 -3.92023 0
M  V30 9751 H 930.766 1.06076 -4.03903 0
M  V30 9752 N 931.203 1.46865 -0.571711 0
M  V30 9753 C 932.428 2.07323 -0.0564655 0
M  V30 9754 C 932.853 1.41938 1.23431 0
M  V30 9755 O 932.211 0.499334 1.74288 0
M  V30 9756 C 932.259 3.6044 0.107339 0
M  V30 9757 O 931.363 3.95558 1.1665 0
M  V30 9758 H 930.704 0.661475 -0.0578465 0
M  V30 9759 H 933.234 1.88669 -0.791524 0
M  V30 9760 H 933.244 4.06767 0.316987 0
M  V30 9761 H 931.919 4.07425 -0.835348 0
M  V30 9762 H 930.496 3.60957 0.936189 0
M  V30 9763 N 932.681 0.308908 1.54543 0
M  V30 9764 C 933.93 -0.298854 1.99474 0
M  V30 9765 C 934.243 -1.54393 1.20093 0
M  V30 9766 O 935.449 -2.22677 1.55329 0
M  V30 9767 C 933.905 -0.58303 3.55146 0
M  V30 9768 C 933.513 0.644157 4.43345 0
M  V30 9769 C 935.257 -1.15155 4.08582 0
M  V30 9770 C 933.164 0.332694 5.90463 0
M  V30 9771 H 932.094 -0.115445 0.74511 0
M  V30 9772 H 934.745 0.418848 1.78656 0
M  V30 9773 H 933.127 -1.36053 3.71894 0
M  V30 9774 H 934.301 1.42012 4.38371 0
M  V30 9775 H 932.616 1.13186 4.00722 0
M  V30 9776 H 935.213 -1.39896 5.16075 0
M  V30 9777 H 935.556 -2.09632 3.59667 0
M  V30 9778 H 936.089 -0.435571 3.95408 0
M  V30 9779 H 932.828 1.24624 6.43544 0
M  V30 9780 H 932.348 -0.405844 5.98425 0
M  V30 9781 H 934.027 -0.0628545 6.46969 0
M  V30 9782 N 934.159 -1.57557 0.0367827 0
M  V30 9783 C 935.091 -2.07597 -0.971395 0
M  V30 9784 C 936.104 -1.0009 -1.28397 0
M  V30 9785 O 937.293 -1.27692 -1.24728 0
M  V30 9786 C 934.393 -2.492 -2.2968 0
M  V30 9787 C 933.566 -3.79875 -2.16826 0
M  V30 9788 C 932.625 -4.07946 -3.32366 0
M  V30 9789 O 931.651 -4.78083 -3.0891 0
M  V30 9790 N 932.853 -3.58722 -4.56397 0
M  V30 9791 H 935.618 -2.94714 -0.544389 0
M  V30 9792 H 933.179 -1.61205 -0.1498 0
M  V30 9793 H 935.171 -2.65065 -3.05815 0
M  V30 9794 H 933.741 -1.67407 -2.63995 0
M  V30 9795 H 932.961 -3.73732 -1.2537 0
M  V30 9796 H 934.249 -4.65476 -2.0545 0
M  V30 9797 H 933.647 -3.01994 -4.78347 0
M  V30 9798 H 932.204 -3.79852 -5.29675 0
M  V30 9799 N 935.637 0.236453 -1.55816 0
M  V30 9800 C 936.6 1.27633 -1.90375 0
M  V30 9801 C 937.6 1.40557 -0.781048 0
M  V30 9802 O 938.79 1.39078 -1.04895 0
M  V30 9803 C 935.922 2.65247 -2.14142 0
M  V30 9804 H 937.115 0.982019 -2.83366 0
M  V30 9805 H 934.668 0.476215 -1.48869 0
M  V30 9806 H 935.403 2.99801 -1.23653 0
M  V30 9807 H 935.188 2.57246 -2.95917 0
M  V30 9808 H 936.678 3.40313 -2.42026 0
M  V30 9809 N 937.115 1.49373 0.502552 0
M  V30 9810 C 938.362 1.58781 1.25678 0
M  V30 9811 C 938.69 0.273819 1.92563 0
M  V30 9812 O 937.945 -0.738141 1.81246 0
M  V30 9813 C 938.244 2.69508 2.34735 0
M  V30 9814 C 937.91 4.11057 1.85318 0
M  V30 9815 C 936.572 4.49578 1.7156 0
M  V30 9816 C 938.924 4.99653 1.48312 0
M  V30 9817 C 936.252 5.74469 1.19172 0
M  V30 9818 C 938.604 6.2506 0.97377 0
M  V30 9819 C 937.268 6.62412 0.822573 0
M  V30 9820 H 936.538 0.581021 0.459887 0
M  V30 9821 H 939.185 1.83197 0.557767 0
M  V30 9822 H 937.49 2.39057 3.10418 0
M  V30 9823 H 939.187 2.73997 2.92791 0
M  V30 9824 H 935.777 3.80651 1.96985 0
M  V30 9825 H 939.961 4.70549 1.57789 0
M  V30 9826 H 935.217 6.0211 1.06176 0
M  V30 9827 H 939.391 6.93089 0.678233 0
M  V30 9828 H 937.018 7.59069 0.414453 0
M  V30 9829 N 938.594 -0.753485 1.38421 0
M  V30 9830 C 939.541 -1.86723 1.35659 0
M  V30 9831 C 940.511 -1.64648 0.219121 0
M  V30 9832 O 941.696 -1.86313 0.411366 0
M  V30 9833 C 938.836 -3.24023 1.18758 0
M  V30 9834 C 937.949 -3.57928 2.41892 0
M  V30 9835 C 937.084 -4.84532 2.17721 0
M  V30 9836 C 936.123 -5.11224 3.36626 0
M  V30 9837 N 935.26 -6.29023 3.11889 0
M  V30 9838 H 940.1 -1.88419 2.30873 0
M  V30 9839 H 937.637 -0.920934 1.14705 0
M  V30 9840 H 939.595 -4.03252 1.06974 0
M  V30 9841 H 938.225 -3.21654 0.27182 0
M  V30 9842 H 937.277 -2.73541 2.64347 0
M  V30 9843 H 938.589 -3.73581 3.30513 0
M  V30 9844 H 937.743 -5.71704 2.03074 0
M  V30 9845 H 936.482 -4.71018 1.26465 0
M  V30 9846 H 935.487 -4.2252 3.51791 0
M  V30 9847 H 936.712 -5.26635 4.28757 0
M  V30 9848 H 934.658 -6.16832 2.2328 0
M  V30 9849 H 934.575 -6.45177 3.9406 0
M  V30 9850 H 935.843 -7.19083 3.00898 0
M  V30 9851 N 940.072 -1.23292 -0.981677 0
M  V30 9852 C 941.035 -1.01417 -2.05542 0
M  V30 9853 C 942.035 0.0235354 -1.60783 0
M  V30 9854 O 943.225 -0.216082 -1.72855 0
M  V30 9855 C 940.357 -0.534239 -3.36688 0
M  V30 9856 H 941.55 -1.96702 -2.26381 0
M  V30 9857 H 939.103 -1.05318 -1.1549 0
M  V30 9858 H 939.838 0.422452 -3.21537 0
M  V30 9859 H 939.623 -1.28304 -3.70514 0
M  V30 9860 H 941.113 -0.40179 -4.15663 0
M  V30 9861 N 941.55 1.18024 -1.04442 0
M  V30 9862 C 942.5 2.19714 -0.609069 0
M  V30 9863 C 943.484 1.57037 0.350473 0
M  V30 9864 O 944.676 1.76192 0.16892 0
M  V30 9865 C 941.805 3.43293 0.0225911 0
M  V30 9866 C 940.891 4.13084 -0.960325 0
M  V30 9867 N 941.282 4.58819 -2.12883 0
M  V30 9868 C 939.58 4.38999 -0.787146 0
M  V30 9869 C 940.281 5.12589 -2.75004 0
M  V30 9870 N 939.257 5.04333 -2.02853 0
M  V30 9871 H 943.059 2.5277 -1.49948 0
M  V30 9872 H 940.573 1.34271 -0.913517 0
M  V30 9873 H 942.57 4.1541 0.352196 0
M  V30 9874 H 941.23 3.11731 0.908495 0
M  V30 9875 H 942.241 4.53148 -2.50754 0
M  V30 9876 H 938.918 4.17472 0.048348 0
M  V30 9877 H 940.308 5.58152 -3.74053 0
M  V30 9878 N 943.028 0.824394 1.34319 0
M  V30 9879 C 943.958 0.262077 2.32025 0
M  V30 9880 C 944.939 -0.622277 1.58309 0
M  V30 9881 O 946.124 -0.548848 1.86283 0
M  V30 9882 C 943.254 -0.57567 3.42496 0
M  V30 9883 C 942.208 0.21167 4.27476 0
M  V30 9884 C 941.534 -0.748913 5.29429 0
M  V30 9885 C 942.834 1.42068 5.02607 0
M  V30 9886 H 944.528 1.07842 2.79304 0
M  V30 9887 H 942.074 0.520022 1.34282 0
M  V30 9888 H 944.027 -0.979251 4.09864 0
M  V30 9889 H 942.751 -1.42508 2.93869 0
M  V30 9890 H 941.41 0.596636 3.61712 0
M  V30 9891 H 941.058 -1.59432 4.77064 0
M  V30 9892 H 940.758 -0.226313 5.87164 0
M  V30 9893 H 942.282 -1.15032 5.99667 0
M  V30 9894 H 943.696 1.09103 5.62823 0
M  V30 9895 H 942.093 1.87903 5.69923 0
M  V30 9896 H 943.163 2.1981 4.32217 0
M  V30 9897 N 944.506 -1.46559 0.579492 0
M  V30 9898 C 945.416 -2.34066 -0.15816 0
M  V30 9899 C 946.432 -1.49556 -0.88932 0
M  V30 9900 O 947.608 -1.82434 -0.853226 0
M  V30 9901 C 944.673 -3.26683 -1.161 0
M  V30 9902 C 943.734 -4.27092 -0.434855 0
M  V30 9903 C 942.967 -5.15283 -1.38992 0
M  V30 9904 O 943.19 -5.06345 -2.62623 0
M  V30 9905 O 942.124 -5.95099 -0.902253 0
M  V30 9906 H 945.95 -2.98488 0.560234 0
M  V30 9907 H 943.535 -1.45482 0.339918 0
M  V30 9908 H 945.417 -3.8383 -1.73932 0
M  V30 9909 H 944.092 -2.64862 -1.86091 0
M  V30 9910 H 942.999 -3.73641 0.185224 0
M  V30 9911 H 944.332 -4.9169 0.224031 0
M  V30 9912 N 945.984 -0.3171 -1.54377 0
M  V30 9913 C 946.931 0.551782 -2.24107 0
M  V30 9914 C 947.901 1.11681 -1.22949 0
M  V30 9915 O 949.086 1.15836 -1.51614 0
M  V30 9916 C 946.226 1.70997 -2.99756 0
M  V30 9917 C 945.339 1.17479 -4.15719 0
M  V30 9918 C 944.474 2.29815 -4.78914 0
M  V30 9919 C 943.513 1.73513 -5.86992 0
M  V30 9920 N 942.65 2.79485 -6.44075 0
M  V30 9921 H 947.49 -0.049431 -2.97959 0
M  V30 9922 H 945.027 -0.0361658 -1.47056 0
M  V30 9923 H 946.985 2.39141 -3.41859 0
M  V30 9924 H 945.615 2.28257 -2.28251 0
M  V30 9925 H 944.667 0.385109 -3.78446 0
M  V30 9926 H 945.979 0.72276 -4.93536 0
M  V30 9927 H 945.133 3.05875 -5.23952 0
M  V30 9928 H 943.872 2.78352 -4.00464 0
M  V30 9929 H 942.877 0.959475 -5.41363 0
M  V30 9930 H 944.102 1.2586 -6.67335 0
M  V30 9931 H 942.048 3.27325 -5.68502 0
M  V30 9932 H 941.965 2.38825 -7.17286 0
M  V30 9933 H 943.233 3.55394 -6.93769 0
M  V30 9934 N 947.462 1.57535 -0.0451378 0
M  V30 9935 C 948.395 2.06721 0.96653 0
M  V30 9936 C 949.373 0.966392 1.30766 0
M  V30 9937 O 950.557 1.23789 1.42157 0
M  V30 9938 C 947.684 2.50266 2.2822 0
M  V30 9939 C 946.73 3.71525 2.09455 0
M  V30 9940 S 947.563 5.17453 1.37851 0
M  V30 9941 C 948.719 5.64308 2.70753 0
M  V30 9942 H 948.952 2.92207 0.547911 0
M  V30 9943 H 946.485 1.53494 0.166973 0
M  V30 9944 H 948.443 2.76019 3.03849 0
M  V30 9945 H 947.104 1.65097 2.67211 0
M  V30 9946 H 946.297 3.99894 3.06759 0
M  V30 9947 H 945.899 3.46008 1.41967 0
M  V30 9948 H 948.191 5.69525 3.66943 0
M  V30 9949 H 949.134 6.63613 2.47028 0
M  V30 9950 H 949.542 4.92014 2.76736 0
M  V30 9951 N 948.94 -0.228186 1.55939 0
M  V30 9952 C 950.188 -0.951668 1.78291 0
M  V30 9953 C 950.509 -1.85132 0.612474 0
M  V30 9954 O 949.779 -1.92356 -0.370942 0
M  V30 9955 H 948.359 -0.354388 0.657585 0
M  V30 9956 H 951.021 -0.241635 1.93396 0
M  V30 9957 H 950.117 -1.56239 2.70177 0
M  V30 9958 N 950.418 -1.49637 -0.494624 0
M  V30 9959 C 951.366 -1.6727 -1.61627 0
M  V30 9960 C 952.36 -0.538587 -1.6061 0
M  V30 9961 O 953.566 -0.718411 -1.65042 0
M  V30 9962 H 949.941 -0.527557 -0.535899 0
M  V30 9963 H 951.912 -2.61405 -1.43909 0
M  V30 9964 C 950.661 -1.7624 -2.99725 0
M  V30 9965 H 949.984 -2.62886 -3.01216 0
M  V30 9966 H 951.424 -1.92611 -3.77726 0
M  V30 9967 C 949.883 -0.508632 -3.33038 0
M  V30 9968 O 950.413 0.362828 -4.00058 0
M  V30 9969 N 948.619 -0.369667 -2.88239 0
M  V30 9970 H 948.166 -1.07984 -2.33875 0
M  V30 9971 H 948.124 0.468112 -3.10896 0
M  V30 9972 N 951.896 0.746133 -1.38819 0
M  V30 9973 C 952.844 1.88137 -1.36774 0
M  V30 9974 C 953.838 1.67508 -0.252495 0
M  V30 9975 O 955.044 1.74985 -0.421935 0
M  V30 9976 H 951.419 0.619116 -0.426849 0
M  V30 9977 H 953.39 1.86978 -2.32555 0
M  V30 9978 C 952.139 3.25703 -1.21708 0
M  V30 9979 H 951.462 3.42168 -2.06788 0
M  V30 9980 H 952.902 4.05361 -1.24332 0
M  V30 9981 C 951.361 3.36816 0.0754257 0
M  V30 9982 O 951.891 3.87742 1.04972 0
M  V30 9983 N 950.097 2.90287 0.134761 0
M  V30 9984 H 949.644 2.49034 -0.658779 0
M  V30 9985 H 949.602 2.98103 0.999109 0
M  V30 9986 N 953.375 1.23811 0.975125 0
M  V30 9987 C 954.6 1.10109 1.75757 0
M  V30 9988 C 955.025 -0.342922 1.84948 0
M  V30 9989 O 954.383 -1.24814 1.31496 0
M  V30 9990 C 954.431 1.73724 3.15994 0
M  V30 9991 O 953.535 1.00297 4.00018 0
M  V30 9992 H 952.876 0.385627 0.540544 0
M  V30 9993 H 955.406 1.63971 1.22372 0
M  V30 9994 H 955.416 1.79178 3.6655 0
M  V30 9995 H 954.091 2.78794 3.0862 0
M  V30 9996 H 952.668 1.02575 3.58515 0
M  V30 9997 N 954.853 -1.17469 1.05066 0
M  V30 9998 C 956.078 -1.92162 0.780298 0
M  V30 9999 C 956.503 -1.76222 -0.657832 0
M  V30 10000 O 955.861 -1.0791 -1.45688 0
M  V30 10001 C 955.909 -3.41292 1.16414 0
M  V30 10002 O 955.013 -4.1134 0.295531 0
M  V30 10003 H 954.354 -0.599127 0.286257 0
M  V30 10004 H 956.884 -1.48903 1.40318 0
M  V30 10005 H 956.894 -3.92029 1.13036 0
M  V30 10006 H 955.569 -3.52214 2.21175 0
M  V30 10007 H 954.146 -3.70857 0.389797 0
M  V30 10008 N 956.331 -0.831506 -1.3388 0
M  V30 10009 C 957.58 -0.420028 -1.97278 0
M  V30 10010 C 957.893 1.02441 -1.66629 0
M  V30 10011 O 959.099 1.54021 -2.23584 0
M  V30 10012 C 957.555 -0.700116 -3.53025 0
M  V30 10013 C 957.163 -2.15874 -3.92559 0
M  V30 10014 C 958.907 -0.355226 -4.23011 0
M  V30 10015 C 956.814 -2.38327 -5.41252 0
M  V30 10016 H 955.744 -0.153326 -0.738246 0
M  V30 10017 H 958.395 -1.01906 -1.52602 0
M  V30 10018 H 956.777 -0.0308044 -3.95988 0
M  V30 10019 H 957.951 -2.86792 -3.60675 0
M  V30 10020 H 956.266 -2.4659 -3.35533 0
M  V30 10021 H 958.863 -0.500701 -5.32351 0
M  V30 10022 H 959.206 0.70111 -4.10354 0
M  V30 10023 H 959.739 -0.979466 -3.85553 0
M  V30 10024 H 956.478 -3.42498 -5.58906 0
M  V30 10025 H 955.998 -1.71962 -5.74621 0
M  V30 10026 H 957.677 -2.21113 -6.08045 0
M  V30 10027 N 957.809 1.4625 -0.587256 0
M  V30 10028 C 958.756 2.30354 0.143384 0
M  V30 10029 C 959.726 1.40891 0.879716 0
M  V30 10030 O 960.911 1.69837 0.869486 0
M  V30 10031 C 958.051 3.25441 1.14815 0
M  V30 10032 C 957.164 4.30004 0.414792 0
M  V30 10033 C 956.299 5.12214 1.40748 0
M  V30 10034 C 955.338 6.08523 0.660786 0
M  V30 10035 N 954.475 6.83585 1.60176 0
M  V30 10036 H 959.315 2.92304 -0.579866 0
M  V30 10037 H 956.852 1.44055 -0.29777 0
M  V30 10038 H 958.81 3.79018 1.7436 0
M  V30 10039 H 957.44 2.6529 1.83906 0
M  V30 10040 H 956.492 3.79248 -0.295787 0
M  V30 10041 H 957.804 4.98515 -0.168738 0
M  V30 10042 H 956.958 5.70091 2.0756 0
M  V30 10043 H 955.697 4.43675 2.02494 0
M  V30 10044 H 954.702 5.49796 -0.0210864 0
M  V30 10045 H 955.927 6.79083 0.0486551 0
M  V30 10046 H 953.873 6.17752 2.20724 0
M  V30 10047 H 953.79 7.48373 1.07115 0
M  V30 10048 H 955.058 7.46016 2.26009 0
M  V30 10049 N 959.287 0.325282 1.54207 0
M  V30 10050 C 960.219 -0.57395 2.21897 0
M  V30 10051 C 961.232 -1.0785 1.21952 0
M  V30 10052 O 962.421 -0.991782 1.48411 0
M  V30 10053 C 959.521 -1.8005 2.87115 0
M  V30 10054 C 958.694 -1.43435 4.13213 0
M  V30 10055 C 957.753 -2.51862 4.62009 0
M  V30 10056 O 956.779 -2.15934 5.26651 0
M  V30 10057 N 957.981 -3.8282 4.36382 0
M  V30 10058 H 960.746 0.00566918 2.99699 0
M  V30 10059 H 958.307 0.148563 1.61217 0
M  V30 10060 H 960.299 -2.51981 3.16682 0
M  V30 10061 H 958.869 -2.28792 2.13009 0
M  V30 10062 H 958.089 -0.546598 3.90392 0
M  V30 10063 H 959.377 -1.16544 4.95273 0
M  V30 10064 H 958.775 -4.14807 3.84645 0
M  V30 10065 H 957.332 -4.50976 4.70599 0
M  V30 10066 N 960.765 -1.57509 0.0534917 0
M  V30 10067 C 961.695 -2.14698 -0.917999 0
M  V30 10068 C 962.676 -1.06924 -1.32292 0
M  V30 10069 O 963.861 -1.34875 -1.39723 0
M  V30 10070 C 960.991 -2.69383 -2.19203 0
M  V30 10071 C 959.945 -3.82161 -1.9271 0
M  V30 10072 C 959.271 -4.23373 -3.26587 0
M  V30 10073 C 960.571 -5.07199 -1.24686 0
M  V30 10074 H 962.265 -2.96125 -0.44165 0
M  V30 10075 H 959.811 -1.42446 -0.210993 0
M  V30 10076 H 961.764 -3.08031 -2.87567 0
M  V30 10077 H 960.488 -1.85151 -2.69048 0
M  V30 10078 H 959.147 -3.43989 -1.26757 0
M  V30 10079 H 958.795 -3.36089 -3.74237 0
M  V30 10080 H 958.495 -4.99385 -3.09658 0
M  V30 10081 H 960.019 -4.64623 -3.96178 0
M  V30 10082 H 961.433 -5.43279 -1.83088 0
M  V30 10083 H 959.83 -5.88369 -1.18076 0
M  V30 10084 H 960.9 -4.84386 -0.223227 0
M  V30 10085 N 962.243 0.219913 -1.56058 0
M  V30 10086 C 963.175 1.29604 -1.89038 0
M  V30 10087 C 964.188 1.42964 -0.778791 0
M  V30 10088 O 965.377 1.43832 -1.0571 0
M  V30 10089 C 962.477 2.67145 -2.08534 0
M  V30 10090 C 961.65 2.75712 -3.39561 0
M  V30 10091 C 960.709 3.94279 -3.48469 0
M  V30 10092 O 959.735 3.8254 -4.21487 0
M  V30 10093 N 960.937 5.08655 -2.79732 0
M  V30 10094 H 963.702 1.01638 -2.81939 0
M  V30 10095 H 961.263 0.409945 -1.56624 0
M  V30 10096 H 963.255 3.44847 -2.11808 0
M  V30 10097 H 961.825 2.87704 -1.2225 0
M  V30 10098 H 961.045 1.84475 -3.48371 0
M  V30 10099 H 962.333 2.78407 -4.25872 0
M  V30 10100 H 961.731 5.21088 -2.2019 0
M  V30 10101 H 960.288 5.84394 -2.88665 0
M  V30 10102 N 963.721 1.49897 0.486681 0
M  V30 10103 C 964.653 1.63755 1.60365 0
M  V30 10104 C 965.666 0.519614 1.54285 0
M  V30 10105 O 966.855 0.792219 1.59957 0
M  V30 10106 C 963.955 1.59153 2.99205 0
M  V30 10107 C 963.128 2.8672 3.30319 0
M  V30 10108 C 962.187 2.74974 4.48638 0
M  V30 10109 O 961.213 3.48922 4.49714 0
M  V30 10110 N 962.415 1.87479 5.49392 0
M  V30 10111 H 965.18 2.60094 1.48899 0
M  V30 10112 H 962.741 1.47166 0.674825 0
M  V30 10113 H 964.733 1.4893 3.76301 0
M  V30 10114 H 963.303 0.706133 3.0452 0
M  V30 10115 H 962.523 3.11188 2.41983 0
M  V30 10116 H 963.811 3.71262 3.47911 0
M  V30 10117 H 963.209 1.26684 5.51333 0
M  V30 10118 H 961.766 1.83169 6.25534 0
M  V30 10119 N 965.199 -0.738761 1.39212 0
M  V30 10120 C 966.109 -1.88324 1.39897 0
M  V30 10121 C 967.125 -1.71494 0.294229 0
M  V30 10122 O 968.301 -1.94162 0.535087 0
M  V30 10123 C 965.366 -3.23871 1.23726 0
M  V30 10124 C 964.427 -3.53121 2.44139 0
M  V30 10125 C 963.66 -4.82202 2.2873 0
M  V30 10126 O 963.883 -5.55649 1.28879 0
M  V30 10127 O 962.817 -5.11265 3.17634 0
M  V30 10128 H 966.643 -1.90701 2.36362 0
M  V30 10129 H 964.228 -0.886067 1.20288 0
M  V30 10130 H 966.11 -4.04882 1.16826 0
M  V30 10131 H 964.785 -3.22274 0.303551 0
M  V30 10132 H 963.692 -2.72212 2.56615 0
M  V30 10133 H 965.025 -3.59495 3.36191 0
M  V30 10134 N 966.677 -1.24326 -0.968545 0
M  V30 10135 C 967.917 -1.09434 -1.72637 0
M  V30 10136 C 968.281 0.360781 -1.8858 0
M  V30 10137 O 969.482 0.631188 -2.61284 0
M  V30 10138 C 967.753 -1.81285 -3.08011 0
M  V30 10139 S 969.312 -1.82113 -3.99225 0
M  V30 10140 H 966.13 -0.391409 -0.593565 0
M  V30 10141 H 968.732 -1.57643 -1.15624 0
M  V30 10142 H 967.436 -2.86274 -2.94067 0
M  V30 10143 H 966.967 -1.33405 -3.7009 0
M  V30 10144 H 968.982 -0.888196 -4.88186 0
M  V30 10145 N 968.156 1.1691 -1.05688 0
M  V30 10146 C 969.066 2.24735 -0.67315 0
M  V30 10147 C 970.082 1.71252 0.308043 0
M  V30 10148 O 971.258 2.00772 0.158889 0
M  V30 10149 C 968.323 3.4665 -0.059026 0
M  V30 10150 C 967.384 4.15198 -1.0913 0
M  V30 10151 C 966.617 5.31292 -0.50639 0
M  V30 10152 O 966.84 5.663 0.682692 0
M  V30 10153 O 965.774 5.88923 -1.2431 0
M  V30 10154 H 969.6 2.59855 -1.57191 0
M  V30 10155 H 967.185 1.24306 -0.828751 0
M  V30 10156 H 969.067 4.20455 0.282018 0
M  V30 10157 H 967.742 3.13316 0.813304 0
M  V30 10158 H 966.649 3.43389 -1.48442 0
M  V30 10159 H 967.982 4.52571 -1.93495 0
M  V30 10160 N 969.634 0.838594 1.33437 0
M  V30 10161 C 970.566 0.229006 2.28053 0
M  V30 10162 C 971.579 -0.590103 1.51729 0
M  V30 10163 O 972.768 -0.417218 1.73556 0
M  V30 10164 C 969.868 -0.696251 3.31671 0
M  V30 10165 C 969.041 0.0834606 4.3732 0
M  V30 10166 C 968.1 -0.765097 5.20608 0
M  V30 10167 O 967.126 -0.2044 5.68833 0
M  V30 10168 N 968.328 -2.08249 5.4186 0
M  V30 10169 H 971.093 1.04196 2.81004 0
M  V30 10170 H 968.654 0.697031 1.46127 0
M  V30 10171 H 970.646 -1.26889 3.84293 0
M  V30 10172 H 969.216 -1.40992 2.78998 0
M  V30 10173 H 968.436 0.837481 3.85201 0
M  V30 10174 H 969.724 0.619613 5.05013 0
M  V30 10175 H 969.122 -2.56156 5.04381 0
M  V30 10176 H 967.679 -2.60362 5.97541 0
M  V30 10177 N 971.112 -1.45937 0.595003 0
M  V30 10178 C 972.042 -2.33198 -0.11871 0
M  V30 10179 C 973.023 -1.46083 -0.871423 0
M  V30 10180 O 974.208 -1.74879 -0.844461 0
M  V30 10181 C 971.338 -3.28576 -1.12495 0
M  V30 10182 C 970.292 -4.25229 -0.486275 0
M  V30 10183 C 969.618 -5.10204 -1.59986 0
M  V30 10184 C 970.918 -5.19019 0.584473 0
M  V30 10185 H 972.612 -2.93122 0.609886 0
M  V30 10186 H 970.158 -1.40951 0.294742 0
M  V30 10187 H 972.111 -3.88485 -1.6327 0
M  V30 10188 H 970.835 -2.66784 -1.88398 0
M  V30 10189 H 969.494 -3.666 0.000507962 0
M  V30 10190 H 969.142 -4.44789 -2.34886 0
M  V30 10191 H 968.842 -5.75669 -1.1781 0
M  V30 10192 H 970.366 -5.7298 -2.11014 0
M  V30 10193 H 971.78 -5.73073 0.161297 0
M  V30 10194 H 970.177 -5.92893 0.927256 0
M  V30 10195 H 971.247 -4.62208 1.46601 0
M  V30 10196 N 972.59 -0.333456 -1.54032 0
M  V30 10197 C 973.522 0.562174 -2.22199 0
M  V30 10198 C 974.535 1.07202 -1.22522 0
M  V30 10199 O 975.724 0.983897 -1.48935 0
M  V30 10200 C 972.824 1.78525 -2.88066 0
M  V30 10201 C 971.997 1.41242 -4.13968 0
M  V30 10202 C 971.056 2.49408 -4.63338 0
M  V30 10203 O 970.082 2.13138 -5.27789 0
M  V30 10204 N 971.284 3.805 -4.38406 0
M  V30 10205 H 974.049 -0.0215629 -2.99692 0
M  V30 10206 H 971.61 -0.157111 -1.61136 0
M  V30 10207 H 973.602 2.50298 -3.18014 0
M  V30 10208 H 972.172 2.2766 -2.14219 0
M  V30 10209 H 971.392 0.525887 -3.90676 0
M  V30 10210 H 972.68 1.13916 -4.95884 0
M  V30 10211 H 972.078 4.12761 -3.86839 0
M  V30 10212 H 970.635 4.48474 -4.72984 0
M  V30 10213 N 974.068 1.57479 -0.061844 0
M  V30 10214 C 975.015 2.12152 0.908862 0
M  V30 10215 C 975.985 1.03152 1.30188 0
M  V30 10216 O 977.17 1.3076 1.38948 0
M  V30 10217 C 974.31 2.6796 2.17465 0
M  V30 10218 C 973.423 3.91083 1.83517 0
M  V30 10219 C 972.558 4.35169 3.04633 0
M  V30 10220 C 971.597 5.50964 2.66655 0
M  V30 10221 N 970.734 5.90055 3.80499 0
M  V30 10222 H 975.574 2.94797 0.435743 0
M  V30 10223 H 973.111 1.45686 0.203445 0
M  V30 10224 H 975.069 2.98421 2.91548 0
M  V30 10225 H 973.699 1.88096 2.62335 0
M  V30 10226 H 972.751 3.67146 0.995381 0
M  V30 10227 H 974.063 4.75214 1.51569 0
M  V30 10228 H 973.217 4.67239 3.87005 0
M  V30 10229 H 971.956 3.49871 3.39767 0
M  V30 10230 H 970.961 5.18556 1.82703 0
M  V30 10231 H 972.186 6.37986 2.32702 0
M  V30 10232 H 970.132 5.07708 4.15414 0
M  V30 10233 H 970.049 6.68903 3.52285 0
M  V30 10234 H 971.317 6.26744 4.63479 0
M  V30 10235 N 975.546 -0.211634 1.56173 0
M  V30 10236 C 976.479 -1.28982 1.88252 0
M  V30 10237 C 977.457 -1.4474 0.740889 0
M  V30 10238 O 978.641 -1.60394 0.990249 0
M  V30 10239 C 975.768 -2.65879 2.09824 0
M  V30 10240 C 974.814 -2.67082 3.3252 0
M  V30 10241 S 975.647 -2.2016 4.8815 0
M  V30 10242 C 976.803 -3.58913 5.12769 0
M  V30 10243 H 977.036 -1.01578 2.79409 0
M  V30 10244 H 974.569 -0.414351 1.48736 0
M  V30 10245 H 976.527 -3.44688 2.22935 0
M  V30 10246 H 975.188 -2.90502 1.19447 0
M  V30 10247 H 974.381 -3.67703 3.44689 0
M  V30 10248 H 973.983 -1.96343 3.18317 0
M  V30 10249 H 976.275 -4.54671 5.02276 0
M  V30 10250 H 977.218 -3.51652 6.14611 0
M  V30 10251 H 977.626 -3.5306 4.40465 0
M  V30 10252 N 977.024 -1.50153 -0.478725 0
M  V30 10253 C 978.254 -1.64266 -1.253 0
M  V30 10254 C 978.662 -0.322256 -1.86435 0
M  V30 10255 O 978.005 0.704925 -1.69636 0
M  V30 10256 C 978.067 -2.67017 -2.40712 0
M  V30 10257 C 977.731 -4.10779 -2.00274 0
M  V30 10258 C 978.728 -4.96889 -1.52963 0
M  V30 10259 C 976.413 -4.5665 -2.09228 0
M  V30 10260 C 978.407 -6.26914 -1.15139 0
M  V30 10261 C 976.094 -5.86683 -1.71015 0
M  V30 10262 C 977.092 -6.71641 -1.24048 0
M  V30 10263 O 976.78 -7.99248 -0.863617 0
M  V30 10264 H 976.512 -0.555382 -0.385392 0
M  V30 10265 H 979.066 -1.97078 -0.578751 0
M  V30 10266 H 977.296 -2.29432 -3.11284 0
M  V30 10267 H 978.985 -2.70428 -3.02694 0
M  V30 10268 H 979.751 -4.62669 -1.45474 0
M  V30 10269 H 975.63 -3.90674 -2.44735 0
M  V30 10270 H 979.174 -6.93179 -0.784089 0
M  V30 10271 H 975.071 -6.20426 -1.78162 0
M  V30 10272 H 975.839 -8.12452 -0.993139 0
M  V30 10273 N 978.502 0.731368 -1.39602 0
M  V30 10274 C 979.75 1.48805 -1.36753 0
M  V30 10275 C 980.071 1.94969 0.034676 0
M  V30 10276 O 979.341 1.69243 0.986591 0
M  V30 10277 H 977.921 0.55203 -0.503261 0
M  V30 10278 H 980.583 0.868013 -1.74504 0
M  V30 10279 H 979.679 2.36844 -2.03252 0
M  V30 10280 N 979.98 1.24838 0.961938 0
M  V30 10281 C 981.228 1.08936 1.70227 0
M  V30 10282 C 981.549 -0.371582 1.91427 0
M  V30 10283 O 980.819 -1.26461 1.49614 0
M  V30 10284 H 979.399 0.400128 0.630799 0
M  V30 10285 H 982.061 1.56848 1.15692 0
M  V30 10286 H 981.157 1.59195 2.68446 0
M  V30 10287 N 981.458 -1.16348 1.06306 0
M  V30 10288 C 982.39 -2.20316 0.631929 0
M  V30 10289 C 983.403 -1.59819 -0.310133 0
M  V30 10290 O 984.592 -1.78213 -0.101103 0
M  V30 10291 C 981.692 -3.3877 -0.0937645 0
M  V30 10292 C 980.865 -4.28826 0.861816 0
M  V30 10293 C 979.924 -5.25908 0.175346 0
M  V30 10294 O 978.95 -5.63363 0.813039 0
M  V30 10295 N 980.152 -5.70307 -1.08305 0
M  V30 10296 H 982.917 -2.57925 1.52626 0
M  V30 10297 H 980.478 -1.31358 0.946392 0
M  V30 10298 H 982.47 -4.00759 -0.563412 0
M  V30 10299 H 981.04 -2.99666 -0.889904 0
M  V30 10300 H 980.26 -3.64098 1.51083 0
M  V30 10301 H 981.548 -4.85875 1.51007 0
M  V30 10302 H 980.946 -5.4197 -1.62127 0
M  V30 10303 H 979.503 -6.34387 -1.49656 0
M  V30 10304 N 982.937 -0.845659 -1.3299 0
M  V30 10305 C 984.186 -0.440928 -1.96822 0
M  V30 10306 C 984.499 1.00668 -1.67706 0
M  V30 10307 O 985.705 1.51641 -2.25205 0
M  V30 10308 C 984.161 -0.73752 -3.52262 0
M  V30 10309 C 983.769 -2.20026 -3.90247 0
M  V30 10310 C 985.513 -0.400072 -4.22611 0
M  V30 10311 C 983.42 -2.44054 -5.38694 0
M  V30 10312 H 982.35 -0.161148 -0.736578 0
M  V30 10313 H 985.001 -1.03519 -1.51513 0
M  V30 10314 H 983.383 -0.0728025 -3.95933 0
M  V30 10315 H 984.557 -2.90602 -3.57613 0
M  V30 10316 H 982.872 -2.50135 -3.32899 0
M  V30 10317 H 985.469 -0.557136 -5.3179 0
M  V30 10318 H 985.812 0.657547 -4.11074 0
M  V30 10319 H 986.345 -1.0203 -3.84493 0
M  V30 10320 H 983.084 -3.48407 -5.55241 0
M  V30 10321 H 982.604 -1.78047 -5.72765 0
M  V30 10322 H 984.283 -2.27549 -6.05665 0
M  V30 10323 N 984.415 1.45619 -0.602734 0
M  V30 10324 C 985.692 1.9558 -0.0282472 0
M  V30 10325 C 986.072 1.54523 1.43826 0
M  V30 10326 O 985.42 0.805456 2.13833 0
M  V30 10327 C 985.63 3.48298 -0.221263 0
M  V30 10328 C 986.978 4.24483 -0.0995249 0
M  V30 10329 O 988.002 3.55879 -0.151132 0
M  V30 10330 O 986.861 5.46497 0.0194454 0
M  V30 10331 H 983.955 0.826104 0.0384897 0
M  V30 10332 H 986.501 1.55808 -0.672456 0
M  V30 10333 H 985.273 3.71134 -1.23997 0
M  V30 10334 H 984.896 3.94948 0.458437 0
M  V30 10335 N 985.893 0.34162 1.53853 0
M  V30 10336 C 986.803 -0.524555 2.2866 0
M  V30 10337 C 987.819 -1.1136 1.33697 0
M  V30 10338 O 988.995 -1.1297 1.66732 0
M  V30 10339 C 986.06 -1.66065 3.04341 0
M  V30 10340 C 985.121 -1.10158 4.14926 0
M  V30 10341 C 984.354 -2.18353 4.86988 0
M  V30 10342 O 984.577 -3.39038 4.58704 0
M  V30 10343 O 983.511 -1.82756 5.73484 0
M  V30 10344 H 987.337 0.0835014 3.03585 0
M  V30 10345 H 984.922 0.106727 1.49018 0
M  V30 10346 H 986.804 -2.3217 3.51674 0
M  V30 10347 H 985.479 -2.25456 2.32275 0
M  V30 10348 H 984.386 -0.405109 3.719 0
M  V30 10349 H 985.719 -0.552567 4.89088 0
M  V30 10350 N 987.371 -1.57444 0.0701946 0
M  V30 10351 C 988.787 -1.57009 -0.286431 0
M  V30 10352 C 988.987 -1.07946 -1.70147 0
M  V30 10353 O 988.043 -0.744622 -2.41271 0
M  V30 10354 C 989.356 -3.00542 -0.0975466 0
M  V30 10355 C 990.904 -3.12553 -0.167205 0
M  V30 10356 C 991.379 -4.58 -0.00662047 0
M  V30 10357 N 992.87 -4.63158 -0.0622778 0
M  V30 10358 C 993.605 -5.73388 0.0375831 0
M  V30 10359 N 993.101 -6.92537 0.190873 0
M  V30 10360 N 994.894 -5.62097 -0.0193672 0
M  V30 10361 H 987.045 -1.87651 0.995023 0
M  V30 10362 H 989.308 -0.865006 0.387902 0
M  V30 10363 H 989.014 -3.40543 0.878822 0
M  V30 10364 H 988.888 -3.67485 -0.850547 0
M  V30 10365 H 991.275 -2.72439 -1.13406 0
M  V30 10366 H 991.356 -2.48251 0.616871 0
M  V30 10367 H 991 -4.98803 0.956992 0
M  V30 10368 H 990.93 -5.20332 -0.810081 0
M  V30 10369 H 993.421 -3.77475 -0.179229 0
M  V30 10370 H 993.734 -7.72365 0.25926 0
M  V30 10371 H 992.079 -6.94632 0.226214 0
M  V30 10372 H 995.27 -4.67897 -0.137815 0
M  V30 10373 H 995.443 -6.4797 0.0619121 0
M  V30 10374 N 988.849 0.203349 -1.56283 0
M  V30 10375 C 990.077 0.941426 -1.84241 0
M  V30 10376 C 990.492 1.77197 -0.651658 0
M  V30 10377 O 989.849 1.78506 0.379713 0
M  V30 10378 C 989.9 1.84429 -3.10915 0
M  V30 10379 O 989.621 1.04729 -4.25398 0
M  V30 10380 C 991.122 2.69474 -3.51993 0
M  V30 10381 H 988.342 0.27507 -0.612027 0
M  V30 10382 H 990.886 0.213088 -2.03387 0
M  V30 10383 H 989.041 2.52635 -2.93691 0
M  V30 10384 H 989.455 1.66179 -4.97478 0
M  V30 10385 H 990.929 3.28495 -4.43616 0
M  V30 10386 H 991.406 3.42775 -2.74594 0
M  V30 10387 H 992.012 2.06652 -3.71719 0
M  V30 10388 N 990.327 1.50405 0.470755 0
M  V30 10389 C 991.257 1.72222 1.57676 0
M  V30 10390 C 992.238 0.57121 1.60222 0
M  V30 10391 O 993.423 0.810381 1.76484 0
M  V30 10392 C 990.553 1.81666 2.95998 0
M  V30 10393 C 989.507 2.96857 3.08318 0
M  V30 10394 C 988.833 2.91445 4.4829 0
M  V30 10395 C 990.133 4.37361 2.85504 0
M  V30 10396 H 991.827 2.64825 1.39671 0
M  V30 10397 H 989.373 1.27438 0.67049 0
M  V30 10398 H 991.326 1.95514 3.73299 0
M  V30 10399 H 990.05 0.856856 3.1516 0
M  V30 10400 H 988.709 2.82661 2.33449 0
M  V30 10401 H 988.357 1.93309 4.64371 0
M  V30 10402 H 988.057 3.68776 4.57469 0
M  V30 10403 H 989.581 3.07341 5.27611 0
M  V30 10404 H 990.995 4.52081 3.52555 0
M  V30 10405 H 989.392 5.16145 3.06127 0
M  V30 10406 H 990.462 4.49708 1.81359 0
M  V30 10407 N 991.805 -0.723954 1.39988 0
M  V30 10408 C 992.715 -1.86829 1.41887 0
M  V30 10409 C 993.731 -1.71173 0.312401 0
M  V30 10410 O 994.907 -1.93583 0.555651 0
M  V30 10411 C 991.972 -3.22541 1.27154 0
M  V30 10412 C 991.033 -3.50512 2.47871 0
M  V30 10413 C 990.266 -4.79749 2.33831 0
M  V30 10414 O 990.489 -5.54251 1.34765 0
M  V30 10415 O 989.423 -5.07868 3.23039 0
M  V30 10416 H 993.249 -1.88183 2.38371 0
M  V30 10417 H 990.834 -0.873259 1.21221 0
M  V30 10418 H 992.716 -4.0362 1.21114 0
M  V30 10419 H 991.391 -3.21933 0.337715 0
M  V30 10420 H 990.298 -2.69475 2.59488 0
M  V30 10421 H 991.631 -3.55909 3.39985 0
M  V30 10422 N 993.283 -1.25346 -0.955304 0
M  V30 10423 C 994.23 -1.05672 -2.05188 0
M  V30 10424 C 995.2 0.0339217 -1.66065 0
M  V30 10425 O 996.385 -0.123126 -1.90402 0
M  V30 10426 C 993.525 -0.680791 -3.38318 0
M  V30 10427 C 992.638 -1.84622 -3.90562 0
M  V30 10428 C 991.773 -1.41471 -5.12015 0
M  V30 10429 C 990.812 -2.54931 -5.56486 0
M  V30 10430 N 989.949 -2.1256 -6.69151 0
M  V30 10431 H 994.789 -1.9952 -2.2135 0
M  V30 10432 H 992.326 -0.993588 -1.08472 0
M  V30 10433 H 994.284 -0.443794 -4.14833 0
M  V30 10434 H 992.914 0.2207 -3.22045 0
M  V30 10435 H 991.966 -2.19654 -3.10574 0
M  V30 10436 H 993.278 -2.6983 -4.19515 0
M  V30 10437 H 992.432 -1.13732 -5.95945 0
M  V30 10438 H 991.171 -0.533334 -4.84775 0
M  V30 10439 H 990.176 -2.83415 -4.71122 0
M  V30 10440 H 991.401 -3.43645 -5.85734 0
M  V30 10441 H 989.347 -1.26838 -6.43621 0
M  V30 10442 H 989.264 -2.91317 -6.97618 0
M  V30 10443 H 990.532 -1.87996 -7.5649 0
M  V30 10444 N 994.761 1.15782 -1.06922 0
M  V30 10445 C 995.989 1.90355 -0.81072 0
M  V30 10446 C 996.404 1.77779 0.635614 0
M  V30 10447 O 995.761 1.12675 1.43564 0
M  V30 10448 C 995.812 3.4085 -1.2043 0
M  V30 10449 O 995.533 3.53057 -2.59388 0
M  V30 10450 C 997.034 4.32457 -0.974473 0
M  V30 10451 H 994.254 0.60343 -0.293451 0
M  V30 10452 H 996.798 1.46723 -1.42452 0
M  V30 10453 H 994.953 3.82162 -0.634909 0
M  V30 10454 H 995.367 4.46426 -2.75326 0
M  V30 10455 H 996.841 5.36488 -1.29942 0
M  V30 10456 H 997.318 4.39109 0.0894481 0
M  V30 10457 H 997.924 3.96882 -1.52856 0
M  V30 10458 N 996.239 0.8527 1.3254 0
M  V30 10459 C 997.171 0.253181 2.27797 0
M  V30 10460 C 998.184 -0.573977 1.52346 0
M  V30 10461 O 999.373 -0.398786 1.73988 0
M  V30 10462 C 996.473 -0.661034 3.32391 0
M  V30 10463 C 995.646 0.12984 4.37207 0
M  V30 10464 C 994.705 -0.709837 5.2139 0
M  V30 10465 O 993.731 -0.144056 5.69018 0
M  V30 10466 N 994.933 -2.0249 5.44039 0
M  V30 10467 H 997.698 1.07171 2.79883 0
M  V30 10468 H 995.259 0.712491 1.45379 0
M  V30 10469 H 997.251 -1.22806 3.85617 0
M  V30 10470 H 995.821 -1.38025 2.80478 0
M  V30 10471 H 995.041 0.878289 3.84291 0
M  V30 10472 H 996.329 0.673141 5.04328 0
M  V30 10473 H 995.727 -2.50792 5.0707 0
M  V30 10474 H 994.284 -2.5401 6.00269 0
M  V30 10475 N 997.718 -1.45297 0.610449 0
M  V30 10476 C 998.65 -2.28742 -0.144884 0
M  V30 10477 C 999.663 -1.40114 -0.828977 0
M  V30 10478 O 1000.85 -1.64461 -0.693887 0
M  V30 10479 C 997.952 -3.15934 -1.22632 0
M  V30 10480 C 997.125 -4.32857 -0.628785 0
M  V30 10481 C 996.184 -5.01237 -1.60148 0
M  V30 10482 O 995.21 -5.57938 -1.12667 0
M  V30 10483 N 996.412 -5.00785 -2.9359 0
M  V30 10484 H 999.177 -2.94207 0.571145 0
M  V30 10485 H 996.738 -1.55517 0.450134 0
M  V30 10486 H 998.73 -3.58545 -1.87691 0
M  V30 10487 H 997.3 -2.52358 -1.84483 0
M  V30 10488 H 996.52 -3.93693 0.199951 0
M  V30 10489 H 997.808 -5.08367 -0.209845 0
M  V30 10490 H 997.206 -4.56014 -3.34765 0
M  V30 10491 H 995.763 -5.4725 -3.54064 0
M  V30 10492 N 999.196 -0.349774 -1.5367 0
M  V30 10493 C 1000.13 0.538575 -2.22782 0
M  V30 10494 C 1001.14 1.05896 -1.23652 0
M  V30 10495 O 1002.33 0.968045 -1.4997 0
M  V30 10496 C 999.43 1.7546 -2.89943 0
M  V30 10497 C 998.603 1.36843 -4.15443 0
M  V30 10498 C 997.662 2.4448 -4.65957 0
M  V30 10499 O 996.688 2.07528 -5.3002 0
M  V30 10500 N 997.89 3.75829 -4.42417 0
M  V30 10501 H 1000.65 -0.053348 -2.99653 0
M  V30 10502 H 998.216 -0.174193 -1.6096 0
M  V30 10503 H 1000.21 2.46911 -3.20651 0
M  V30 10504 H 998.778 2.25375 -2.16622 0
M  V30 10505 H 997.998 0.484421 -3.91212 0
M  V30 10506 H 999.286 1.0865 -4.97064 0
M  V30 10507 H 998.684 4.08635 -3.91196 0
M  V30 10508 H 997.241 4.43432 -4.77714 0
M  V30 10509 N 1000.67 1.57404 -0.0785433 0
M  V30 10510 C 1001.62 2.09632 0.896565 0
M  V30 10511 C 1002.61 1.00754 1.25449 0
M  V30 10512 O 1003.8 1.27053 1.23234 0
M  V30 10513 C 1000.93 2.66694 2.16169 0
M  V30 10514 C 1000.01 3.82588 1.82994 0
M  V30 10515 N 1000.41 4.91286 1.203 0
M  V30 10516 C 998.704 3.92011 2.12704 0
M  V30 10517 C 999.405 5.72077 1.05367 0
M  V30 10518 N 998.381 5.20567 1.56559 0
M  V30 10519 H 1002.18 2.9106 0.407621 0
M  V30 10520 H 999.697 1.61917 0.125155 0
M  V30 10521 H 1001.69 3.0243 2.86952 0
M  V30 10522 H 1000.35 1.86716 2.65645 0
M  V30 10523 H 1001.36 5.10509 0.871817 0
M  V30 10524 H 998.042 3.23018 2.6451 0
M  V30 10525 H 999.432 6.69523 0.564685 0
M  V30 10526 N 1002.15 -0.195058 1.56388 0
M  V30 10527 C 1003.08 -1.26978 1.8961 0
M  V30 10528 C 1004.06 -1.43946 0.756199 0
M  V30 10529 O 1005.25 -1.59335 1.0072 0
M  V30 10530 C 1002.37 -2.63638 2.12632 0
M  V30 10531 C 1001.42 -2.6354 3.35334 0
M  V30 10532 S 1002.25 -2.1497 4.90457 0
M  V30 10533 C 1003.41 -3.53454 5.16547 0
M  V30 10534 H 1003.64 -0.986091 2.8047 0
M  V30 10535 H 1001.17 -0.398552 1.49167 0
M  V30 10536 H 1003.13 -3.42304 2.26579 0
M  V30 10537 H 1001.79 -2.89218 1.22522 0
M  V30 10538 H 1000.99 -3.64027 3.48569 0
M  V30 10539 H 1000.59 -1.92956 3.20381 0
M  V30 10540 H 1002.88 -4.49318 5.0707 0
M  V30 10541 H 1003.82 -3.45113 6.18306 0
M  V30 10542 H 1004.23 -3.48368 4.44185 0
M  V30 10543 N 1003.63 -1.50653 -0.462772 0
M  V30 10544 C 1004.56 -1.73056 -1.5676 0
M  V30 10545 C 1005.54 -0.579699 -1.59917 0
M  V30 10546 O 1006.73 -0.819729 -1.76051 0
M  V30 10547 C 1003.86 -1.83234 -2.9503 0
M  V30 10548 C 1002.81 -2.98488 -3.06739 0
M  V30 10549 C 1002.14 -2.93818 -4.46738 0
M  V30 10550 C 1003.44 -4.38869 -2.83181 0
M  V30 10551 H 1005.13 -2.65562 -1.38265 0
M  V30 10552 H 1002.68 -1.27792 -0.663722 0
M  V30 10553 H 1004.63 -1.97491 -3.72257 0
M  V30 10554 H 1003.35 -0.873558 -3.14701 0
M  V30 10555 H 1002.01 -2.83895 -2.31946 0
M  V30 10556 H 1001.66 -1.95769 -4.63339 0
M  V30 10557 H 1001.36 -3.71197 -4.55507 0
M  V30 10558 H 1002.88 -3.10135 -5.25974 0
M  V30 10559 H 1004.3 -4.53945 -3.50153 0
M  V30 10560 H 1002.69 -5.17762 -3.03386 0
M  V30 10561 H 1003.76 -4.50663 -1.78972 0
M  V30 10562 N 1005.11 0.71652 -1.4037 0
M  V30 10563 C 1006.34 1.50344 -1.41704 0
M  V30 10564 C 1006.75 1.89194 -0.0148011 0
M  V30 10565 O 1006.09 1.55916 0.971391 0
M  V30 10566 C 1006.15 2.80928 -2.2432 0
M  V30 10567 C 1005.82 2.64406 -3.72744 0
M  V30 10568 C 1006.81 2.31727 -4.65401 0
M  V30 10569 C 1004.5 2.807 -4.16549 0
M  V30 10570 C 1006.49 2.15551 -5.99847 0
M  V30 10571 C 1004.18 2.64141 -5.51065 0
M  V30 10572 C 1005.18 2.31614 -6.42529 0
M  V30 10573 O 1004.86 2.15179 -7.74566 0
M  V30 10574 H 1004.6 0.470574 -0.48532 0
M  V30 10575 H 1007.15 0.89152 -1.85043 0
M  V30 10576 H 1005.38 3.4445 -1.75759 0
M  V30 10577 H 1007.07 3.4264 -2.17607 0
M  V30 10578 H 1007.84 2.18773 -4.32855 0
M  V30 10579 H 1003.71 3.05005 -3.45677 0
M  V30 10580 H 1007.26 1.90084 -6.71203 0
M  V30 10581 H 1003.16 2.76679 -5.83197 0
M  V30 10582 H 1003.92 2.30106 -7.85489 0
M  V30 10583 N 1006.59 1.25851 0.948643 0
M  V30 10584 C 1007.52 1.02549 2.04979 0
M  V30 10585 C 1008.53 -0.0115923 1.62796 0
M  V30 10586 O 1009.72 0.227643 1.77042 0
M  V30 10587 C 1006.82 0.529486 3.34738 0
M  V30 10588 C 1005.99 1.6341 4.05729 0
M  V30 10589 C 1005.05 1.13743 5.1376 0
M  V30 10590 O 1004.08 1.83303 5.38877 0
M  V30 10591 N 1005.28 -0.0181151 5.80497 0
M  V30 10592 H 1008.05 1.97365 2.25537 0
M  V30 10593 H 1005.61 1.17137 1.11761 0
M  V30 10594 H 1007.6 0.181566 4.04293 0
M  V30 10595 H 1006.17 -0.324893 3.10907 0
M  V30 10596 H 1005.39 2.15331 3.30191 0
M  V30 10597 H 1006.68 2.37603 4.49914 0
M  V30 10598 H 1006.07 -0.599198 5.62518 0
M  V30 10599 H 1004.63 -0.307019 6.51077 0
M  V30 10600 N 1008.06 -1.15214 1.07534 0
M  V30 10601 C 1009 -2.19634 0.655261 0
M  V30 10602 C 1010.01 -1.60139 -0.293165 0
M  V30 10603 O 1011.2 -1.78311 -0.0821957 0
M  V30 10604 C 1008.3 -3.38851 -0.0578281 0
M  V30 10605 C 1007.47 -4.27888 0.90725 0
M  V30 10606 C 1006.53 -5.25692 0.231115 0
M  V30 10607 O 1005.56 -5.62469 0.872746 0
M  V30 10608 N 1006.76 -5.71424 -1.0225 0
M  V30 10609 H 1009.52 -2.56292 1.55353 0
M  V30 10610 H 1007.08 -1.30347 0.960271 0
M  V30 10611 H 1009.08 -4.01334 -0.520874 0
M  V30 10612 H 1007.65 -3.00593 -0.858071 0
M  V30 10613 H 1006.87 -3.62475 1.54937 0
M  V30 10614 H 1008.15 -4.84246 1.56151 0
M  V30 10615 H 1007.55 -5.43659 -1.56369 0
M  V30 10616 H 1006.11 -6.35938 -1.42919 0
M  V30 10617 N 1009.54 -0.859717 -1.32086 0
M  V30 10618 C 1010.45 -0.31108 -2.32528 0
M  V30 10619 C 1011.47 0.573714 -1.6427 0
M  V30 10620 O 1012.64 0.472878 -1.9577 0
M  V30 10621 C 1009.71 0.487256 -3.43259 0
M  V30 10622 C 1008.77 -0.424279 -4.27198 0
M  V30 10623 C 1008 0.336051 -5.32641 0
M  V30 10624 O 1008.23 1.56541 -5.48499 0
M  V30 10625 O 1007.16 -0.300777 -6.01148 0
M  V30 10626 H 1010.99 -1.14336 -2.81355 0
M  V30 10627 H 1008.57 -0.622794 -1.358 0
M  V30 10628 H 1010.45 0.940203 -4.10777 0
M  V30 10629 H 1009.13 1.29626 -2.96612 0
M  V30 10630 H 1008.04 -0.925509 -3.62471 0
M  V30 10631 H 1009.37 -1.1986 -4.77383 0
M  V30 10632 N 1011.02 1.44971 -0.618145 0
M  V30 10633 C 1011.95 2.28815 0.132751 0
M  V30 10634 C 1012.97 1.40551 0.821535 0
M  V30 10635 O 1014.15 1.64827 0.685155 0
M  V30 10636 C 1011.25 3.1658 1.20955 0
M  V30 10637 C 1010.43 4.33184 0.605821 0
M  V30 10638 C 1009.49 5.0208 1.57488 0
M  V30 10639 O 1008.51 5.58528 1.09706 0
M  V30 10640 N 1009.71 5.02335 2.9093 0
M  V30 10641 H 1012.48 2.939 -0.58674 0
M  V30 10642 H 1010.04 1.55276 -0.458375 0
M  V30 10643 H 1012.03 3.59535 1.85787 0
M  V30 10644 H 1010.6 2.53333 1.83143 0
M  V30 10645 H 1009.82 3.93581 -0.220827 0
M  V30 10646 H 1011.11 5.08471 0.182883 0
M  V30 10647 H 1010.51 4.57783 3.32342 0
M  V30 10648 H 1009.07 5.49119 3.51157 0
M  V30 10649 N 1012.5 0.357919 1.53482 0
M  V30 10650 C 1013.45 -0.50845 2.22258 0
M  V30 10651 C 1014.43 -1.05476 1.21506 0
M  V30 10652 O 1015.62 -0.986075 1.46988 0
M  V30 10653 C 1012.75 -1.65157 3.00962 0
M  V30 10654 C 1011.84 -1.11851 4.09084 0
M  V30 10655 N 1012.23 -0.307818 5.04862 0
M  V30 10656 C 1010.53 -1.39405 4.23653 0
M  V30 10657 C 1011.23 -0.016842 5.81698 0
M  V30 10658 N 1010.21 -0.612396 5.40139 0
M  V30 10659 H 1014.01 0.117836 2.93664 0
M  V30 10660 H 1011.52 0.16553 1.61554 0
M  V30 10661 H 1013.52 -2.28435 3.48745 0
M  V30 10662 H 1012.18 -2.281 2.31086 0
M  V30 10663 H 1013.19 0.0523313 5.17874 0
M  V30 10664 H 1009.87 -2.02682 3.65002 0
M  V30 10665 H 1011.26 0.638046 6.68864 0
M  V30 10666 N 1013.98 -1.5736 0.0868897 0
M  V30 10667 C 1014.93 -2.10105 -0.885435 0
M  V30 10668 C 1015.91 -1.01417 -1.24913 0
M  V30 10669 O 1017.1 -1.27704 -1.22558 0
M  V30 10670 C 1014.23 -2.67837 -2.14752 0
M  V30 10671 C 1013.32 -3.83553 -1.80963 0
M  V30 10672 N 1013.71 -4.91917 -1.17693 0
M  V30 10673 C 1012.01 -3.93134 -2.10622 0
M  V30 10674 C 1012.71 -5.72628 -1.02332 0
M  V30 10675 N 1011.68 -5.2139 -1.53796 0
M  V30 10676 H 1015.49 -2.91272 -0.392179 0
M  V30 10677 H 1013 -1.61981 -0.116566 0
M  V30 10678 H 1015 -3.03948 -2.85344 0
M  V30 10679 H 1013.66 -1.88122 -2.64651 0
M  V30 10680 H 1014.67 -5.10964 -0.844731 0
M  V30 10681 H 1011.34 -3.24416 -2.62793 0
M  V30 10682 H 1012.73 -6.69813 -0.529171 0
M  V30 10683 N 1015.45 0.186762 -1.56489 0
M  V30 10684 C 1016.39 1.25565 -1.91745 0
M  V30 10685 C 1017.4 1.4128 -0.80894 0
M  V30 10686 O 1018.59 1.41558 -1.08737 0
M  V30 10687 C 1015.69 2.62662 -2.14154 0
M  V30 10688 C 1014.86 2.68448 -3.45333 0
M  V30 10689 C 1013.92 3.86798 -3.56754 0
M  V30 10690 O 1012.95 3.73514 -4.29507 0
M  V30 10691 N 1014.15 5.02607 -2.90459 0
M  V30 10692 H 1016.91 0.956351 -2.84032 0
M  V30 10693 H 1014.47 0.376631 -1.57458 0
M  V30 10694 H 1016.47 3.40277 -2.19075 0
M  V30 10695 H 1015.04 2.85046 -1.28326 0
M  V30 10696 H 1014.26 1.77044 -3.52206 0
M  V30 10697 H 1015.54 2.69311 -4.31682 0
M  V30 10698 H 1014.94 5.163 -2.31194 0
M  V30 10699 H 1013.5 5.78139 -3.00996 0
M  V30 10700 N 1016.93 1.50896 0.454776 0
M  V30 10701 C 1018.18 1.61936 1.20248 0
M  V30 10702 C 1018.49 0.332983 1.92745 0
M  V30 10703 O 1019.7 0.322512 2.69578 0
M  V30 10704 C 1018.16 2.85916 2.18587 0
M  V30 10705 C 1017.76 4.21492 1.51818 0
M  V30 10706 C 1019.51 3.06307 2.93898 0
M  V30 10707 C 1017.42 5.3664 2.48539 0
M  V30 10708 H 1016.35 0.603098 0.452536 0
M  V30 10709 H 1019 1.77345 0.471257 0
M  V30 10710 H 1017.38 2.64101 2.95071 0
M  V30 10711 H 1018.55 4.53623 0.810123 0
M  V30 10712 H 1016.87 4.06837 0.887265 0
M  V30 10713 H 1019.46 3.89507 3.66317 0
M  V30 10714 H 1019.81 2.18683 3.54236 0
M  V30 10715 H 1020.34 3.2838 2.24525 0
M  V30 10716 H 1017.08 6.26469 1.92916 0
M  V30 10717 H 1016.6 5.08907 3.17449 0
M  V30 10718 H 1018.28 5.67881 3.10033 0
M  V30 10719 N 1018.41 -0.709066 1.40748 0
M  V30 10720 C 1019.34 -1.83583 1.4429 0
M  V30 10721 C 1020.32 -1.67378 0.303067 0
M  V30 10722 O 1021.51 -1.87312 0.512612 0
M  V30 10723 C 1018.64 -3.21599 1.31116 0
M  V30 10724 C 1017.59 -3.52486 2.4277 0
M  V30 10725 C 1016.92 -4.89716 2.14668 0
M  V30 10726 C 1018.22 -3.52824 3.85113 0
M  V30 10727 H 1019.91 -1.80876 2.38588 0
M  V30 10728 H 1017.46 -0.868795 1.14839 0
M  V30 10729 H 1019.41 -4.00123 1.32209 0
M  V30 10730 H 1018.13 -3.24898 0.332965 0
M  V30 10731 H 1016.79 -2.76305 2.40937 0
M  V30 10732 H 1016.44 -4.89625 1.15224 0
M  V30 10733 H 1016.14 -5.11347 2.89478 0
M  V30 10734 H 1017.66 -5.70566 2.17455 0
M  V30 10735 H 1019.08 -4.21377 3.88734 0
M  V30 10736 H 1017.48 -3.85984 4.59496 0
M  V30 10737 H 1018.55 -2.52073 4.14231 0
M  V30 10738 N 1019.89 -1.26353 -0.941956 0
M  V30 10739 C 1020.82 -1.03634 -2.04432 0
M  V30 10740 C 1021.83 0.00295864 -1.628 0
M  V30 10741 O 1023.02 -0.237029 -1.76919 0
M  V30 10742 C 1020.12 -0.547231 -3.34453 0
M  V30 10743 C 1019.3 -1.65559 -4.04857 0
M  V30 10744 C 1018.36 -1.16466 -5.13149 0
M  V30 10745 O 1017.38 -1.86158 -5.37898 0
M  V30 10746 N 1018.58 -0.0126703 -5.80499 0
M  V30 10747 H 1021.35 -1.98558 -2.24488 0
M  V30 10748 H 1018.91 -1.17728 -1.11138 0
M  V30 10749 H 1020.9 -0.203004 -4.04191 0
M  V30 10750 H 1019.47 0.308401 -3.11075 0
M  V30 10751 H 1018.69 -2.17079 -3.29044 0
M  V30 10752 H 1019.98 -2.39985 -4.48647 0
M  V30 10753 H 1019.38 0.569358 -5.62828 0
M  V30 10754 H 1017.93 0.272486 -6.5123 0
M  V30 10755 N 1021.37 1.14642 -1.08144 0
M  V30 10756 C 1022.3 2.19283 -0.6669 0
M  V30 10757 C 1023.31 1.60292 0.284668 0
M  V30 10758 O 1024.5 1.78352 0.0727383 0
M  V30 10759 C 1021.6 3.38877 0.0398572 0
M  V30 10760 C 1020.77 4.274 -0.929929 0
M  V30 10761 C 1019.83 5.25562 -0.258991 0
M  V30 10762 O 1018.86 5.61999 -0.902563 0
M  V30 10763 N 1020.06 5.71958 0.992177 0
M  V30 10764 H 1022.83 2.55464 -1.5671 0
M  V30 10765 H 1020.39 1.29836 -0.96717 0
M  V30 10766 H 1022.38 4.01605 0.499583 0
M  V30 10767 H 1020.95 3.01043 0.842118 0
M  V30 10768 H 1020.17 3.61649 -1.56857 0
M  V30 10769 H 1021.46 4.83411 -1.58717 0
M  V30 10770 H 1020.86 5.44481 1.53484 0
M  V30 10771 H 1019.41 6.36687 1.39544 0
M  V30 10772 N 1022.85 0.866709 1.31628 0
M  V30 10773 C 1023.78 0.277328 2.27516 0
M  V30 10774 C 1024.79 -0.557786 1.52946 0
M  V30 10775 O 1025.98 -0.38031 1.74402 0
M  V30 10776 C 1023.08 -0.625742 3.33073 0
M  V30 10777 C 1022.25 0.176204 4.37045 0
M  V30 10778 C 1021.31 -0.654497 5.22114 0
M  V30 10779 O 1020.34 -0.0836961 5.69138 0
M  V30 10780 N 1021.54 -1.96708 5.46156 0
M  V30 10781 H 1024.3 1.10133 2.78731 0
M  V30 10782 H 1021.87 0.72787 1.44616 0
M  V30 10783 H 1023.86 -1.18709 3.86898 0
M  V30 10784 H 1022.43 -1.35042 2.81926 0
M  V30 10785 H 1021.65 0.918999 3.83338 0
M  V30 10786 H 1022.94 0.726594 5.03585 0
M  V30 10787 H 1022.33 -2.454 5.09701 0
M  V30 10788 H 1020.89 -2.47629 6.02929 0
M  V30 10789 N 1024.32 -1.44642 0.625825 0
M  V30 10790 C 1025.57 -2.01308 0.125682 0
M  V30 10791 C 1025.89 -1.49773 -1.25807 0
M  V30 10792 O 1027.09 -1.98533 -1.85194 0
M  V30 10793 C 1025.55 -3.59479 0.17395 0
M  V30 10794 C 1025.16 -4.20011 1.55868 0
M  V30 10795 C 1026.9 -4.2364 -0.270005 0
M  V30 10796 C 1024.81 -5.7039 1.56235 0
M  V30 10797 H 1023.74 -0.75276 0.0432194 0
M  V30 10798 H 1026.39 -1.65916 0.783842 0
M  V30 10799 H 1024.77 -3.92145 -0.551212 0
M  V30 10800 H 1025.94 -3.98891 2.307 0
M  V30 10801 H 1024.26 -3.68116 1.94627 0
M  V30 10802 H 1026.86 -5.33931 -0.28672 0
M  V30 10803 H 1027.2 -3.95603 -1.29629 0
M  V30 10804 H 1027.73 -3.95759 0.402487 0
M  V30 10805 H 1024.47 -6.03154 2.56683 0
M  V30 10806 H 1023.99 -5.93648 0.856881 0
M  V30 10807 H 1025.67 -6.33929 1.29396 0
M  V30 10808 N 1025.8 -0.366053 -1.5329 0
M  V30 10809 C 1026.73 0.514916 -2.23341 0
M  V30 10810 C 1027.75 1.04579 -1.24768 0
M  V30 10811 O 1028.94 0.952084 -1.50989 0
M  V30 10812 C 1026.04 1.72374 -2.91788 0
M  V30 10813 C 1025.21 1.32429 -4.16871 0
M  V30 10814 C 1024.27 2.39524 -4.68524 0
M  V30 10815 O 1023.29 2.01895 -5.32191 0
M  V30 10816 N 1024.5 3.71116 -4.46378 0
M  V30 10817 H 1027.26 -0.0851272 -2.99579 0
M  V30 10818 H 1024.82 -0.191255 -1.60766 0
M  V30 10819 H 1026.81 2.43496 -3.23252 0
M  V30 10820 H 1025.38 2.23064 -2.19 0
M  V30 10821 H 1024.6 0.442901 -3.91704 0
M  V30 10822 H 1025.89 1.03372 -4.98188 0
M  V30 10823 H 1025.29 4.04463 -3.95508 0
M  V30 10824 H 1023.85 4.38341 -4.82391 0
M  V30 10825 N 1027.28 1.57312 -0.0952337 0
M  V30 10826 C 1028.56 1.85822 0.610715 0
M  V30 10827 C 1028.94 0.992114 1.86334 0
M  V30 10828 O 1028.28 0.0645669 2.28409 0
M  V30 10829 C 1028.49 3.36492 0.925967 0
M  V30 10830 C 1029.84 4.0455 1.28936 0
M  V30 10831 O 1030.87 3.41374 1.01698 0
M  V30 10832 O 1029.73 5.16024 1.79949 0
M  V30 10833 H 1026.82 0.768454 0.305626 0
M  V30 10834 H 1029.37 1.69217 -0.127941 0
M  V30 10835 H 1028.14 3.91282 0.0373127 0
M  V30 10836 H 1027.76 3.58443 1.7206 0
M  V30 10837 N 1028.76 -0.17846 1.56586 0
M  V30 10838 C 1029.98 -0.916061 1.86073 0
M  V30 10839 C 1030.41 -1.75349 0.680754 0
M  V30 10840 O 1029.77 -1.77479 -0.37028 0
M  V30 10841 C 1029.81 -1.77445 3.1392 0
M  V30 10842 O 1028.92 -2.87524 2.95641 0
M  V30 10843 H 1028.26 -0.257031 0.612234 0
M  V30 10844 H 1030.79 -0.178755 2.03818 0
M  V30 10845 H 1030.8 -2.1758 3.45142 0
M  V30 10846 H 1029.47 -1.15927 3.99417 0
M  V30 10847 H 1028.05 -2.51023 2.75757 0
M  V30 10848 N 1030.24 -1.51135 -0.446768 0
M  V30 10849 C 1031.48 -1.62571 -1.19388 0
M  V30 10850 C 1031.8 -0.3432 -1.92566 0
M  V30 10851 O 1033 -0.336804 -2.69403 0
M  V30 10852 C 1031.46 -2.87071 -2.17068 0
M  V30 10853 C 1031.07 -4.22291 -1.49581 0
M  V30 10854 C 1032.81 -3.07862 -2.9227 0
M  V30 10855 C 1030.72 -5.3795 -2.45689 0
M  V30 10856 H 1029.65 -0.60549 -0.449331 0
M  V30 10857 H 1032.3 -1.77593 -0.461846 0
M  V30 10858 H 1030.68 -2.65662 -2.93666 0
M  V30 10859 H 1031.86 -4.54046 -0.786054 0
M  V30 10860 H 1030.17 -4.07302 -0.865677 0
M  V30 10861 H 1032.77 -3.91444 -3.64246 0
M  V30 10862 H 1033.11 -2.20559 -3.53072 0
M  V30 10863 H 1033.64 -3.29566 -2.2278 0
M  V30 10864 H 1030.38 -6.27484 -1.89591 0
M  V30 10865 H 1029.9 -5.10583 -3.14746 0
M  V30 10866 H 1031.58 -5.69517 -3.07017 0
M  V30 10867 N 1031.71 0.701592 -1.41122 0
M  V30 10868 C 1032.95 1.4739 -1.41618 0
M  V30 10869 C 1033.32 1.91987 -0.0219443 0
M  V30 10870 O 1034.52 2.6862 0.0982793 0
M  V30 10871 C 1032.79 2.65745 -2.38986 0
M  V30 10872 S 1034.35 3.54968 -2.5796 0
M  V30 10873 H 1031.17 0.503742 -0.501762 0
M  V30 10874 H 1033.77 0.819186 -1.77509 0
M  V30 10875 H 1032.47 2.31176 -3.39096 0
M  V30 10876 H 1032 3.36115 -2.04426 0
M  V30 10877 H 1034.02 4.60724 -1.84249 0
M  V30 10878 N 1033.19 1.2685 0.935242 0
M  V30 10879 C 1034.6 1.11569 1.49697 0
M  V30 10880 C 1034.95 -0.301952 1.93863 0
M  V30 10881 O 1034.08 -1.19408 1.80473 0
M  V30 10882 C 1034.67 2.01918 2.72056 0
M  V30 10883 C 1033.23 1.90765 3.24477 0
M  V30 10884 C 1032.38 1.94918 1.97237 0
M  V30 10885 H 1035.33 1.39853 0.750116 0
M  V30 10886 H 1035.35 1.57056 3.46574 0
M  V30 10887 H 1034.86 3.05088 2.39881 0
M  V30 10888 H 1032.96 0.905521 3.61429 0
M  V30 10889 H 1033.08 2.76611 3.91182 0
M  V30 10890 H 1031.44 1.39046 2.13397 0
M  V30 10891 H 1032.22 2.99729 1.67385 0
M  V30 10892 N 1034.67 -1.14067 1.0875 0
M  V30 10893 C 1036.08 -1.66747 0.839778 0
M  V30 10894 C 1036.43 -1.85711 -0.632909 0
M  V30 10895 O 1035.56 -1.57084 -1.48841 0
M  V30 10896 C 1036.15 -3.02896 1.51787 0
M  V30 10897 C 1034.71 -3.52596 1.3173 0
M  V30 10898 C 1033.86 -2.27994 1.57841 0
M  V30 10899 H 1036.81 -0.980838 1.24761 0
M  V30 10900 H 1036.83 -3.68526 0.947057 0
M  V30 10901 H 1036.34 -2.89062 2.58969 0
M  V30 10902 H 1034.44 -3.71647 0.266339 0
M  V30 10903 H 1034.56 -4.33151 2.04736 0
M  V30 10904 H 1032.92 -2.34241 1.00015 0
M  V30 10905 H 1033.7 -2.16732 2.66237 0
M  V30 10906 N 1036.15 -0.873678 -1.31166 0
M  V30 10907 C 1037.08 -0.289389 -2.27366 0
M  V30 10908 C 1038.09 0.549667 -1.5324 0
M  V30 10909 O 1039.28 0.371056 -1.74601 0
M  V30 10910 C 1036.38 0.60807 -3.334 0
M  V30 10911 C 1035.56 -0.199379 -4.36945 0
M  V30 10912 C 1034.61 0.626798 -5.22454 0
M  V30 10913 O 1033.64 0.0535121 -5.69175 0
M  V30 10914 N 1034.84 1.93809 -5.47191 0
M  V30 10915 H 1037.61 -1.1161 -2.78143 0
M  V30 10916 H 1035.17 -0.735529 -1.44228 0
M  V30 10917 H 1037.16 1.16656 -3.87522 0
M  V30 10918 H 1035.73 1.33545 -2.82638 0
M  V30 10919 H 1034.95 -0.939316 -3.82845 0
M  V30 10920 H 1036.24 -0.75329 -5.03193 0
M  V30 10921 H 1035.64 2.42693 -5.10995 0
M  V30 10922 H 1034.19 2.44428 -6.04234 0
M  V30 10923 N 1037.63 1.44308 -0.633487 0
M  V30 10924 C 1039.04 1.85387 -0.221009 0
M  V30 10925 C 1039.39 1.5301 1.22811 0
M  V30 10926 O 1038.51 0.969325 1.93476 0
M  V30 10927 C 1039.11 3.36497 -0.394331 0
M  V30 10928 C 1037.67 3.76382 -0.0363405 0
M  V30 10929 C 1036.81 2.68146 -0.706598 0
M  V30 10930 H 1039.77 1.34741 -0.83849 0
M  V30 10931 H 1039.79 3.78735 0.366026 0
M  V30 10932 H 1039.3 3.60031 -1.44911 0
M  V30 10933 H 1037.4 3.58463 1.01661 0
M  V30 10934 H 1037.51 4.77 -0.448045 0
M  V30 10935 H 1035.88 2.54306 -0.14168 0
M  V30 10936 H 1036.66 2.94512 -1.76401 0
M  V30 10937 N 1039.1 0.374177 1.53094 0
M  V30 10938 C 1040.33 -0.215903 2.06273 0
M  V30 10939 C 1040.75 -1.40979 1.24526 0
M  V30 10940 O 1040.11 -1.79331 0.266462 0
M  V30 10941 C 1040.16 -0.579089 3.5592 0
M  V30 10942 O 1039.26 -1.67516 3.76845 0
M  V30 10943 H 1038.61 -0.0293981 0.663349 0
M  V30 10944 H 1041.14 0.537271 1.9742 0
M  V30 10945 H 1041.15 -0.847678 3.99097 0
M  V30 10946 H 1039.82 0.293843 4.14861 0
M  V30 10947 H 1038.4 -1.40146 3.45563 0
M  V30 10948 N 1040.58 -1.57259 0.103575 0
M  V30 10949 C 1041.99 -1.81816 -0.424239 0
M  V30 10950 C 1042.34 -1.01976 -1.67617 0
M  V30 10951 O 1041.47 -0.251673 -2.14932 0
M  V30 10952 C 1042.06 -3.29783 -0.776453 0
M  V30 10953 C 1040.62 -3.55074 -1.24897 0
M  V30 10954 C 1039.77 -2.76172 -0.249875 0
M  V30 10955 H 1042.72 -1.55254 0.328913 0
M  V30 10956 H 1042.74 -3.43569 -1.63526 0
M  V30 10957 H 1042.25 -3.87865 0.134906 0
M  V30 10958 H 1040.36 -3.02332 -2.17775 0
M  V30 10959 H 1040.47 -4.637 -1.20495 0
M  V30 10960 H 1038.83 -2.43902 -0.733767 0
M  V30 10961 H 1039.62 -3.37007 0.65431 0
M  V30 10962 N 1042.06 0.170153 -1.56679 0
M  V30 10963 C 1043.47 0.732502 -1.7173 0
M  V30 10964 C 1043.82 1.82736 -0.71428 0
M  V30 10965 O 1042.95 2.16044 0.124102 0
M  V30 10966 C 1043.54 1.33548 -3.11368 0
M  V30 10967 C 1042.1 1.84464 -3.281 0
M  V30 10968 C 1041.25 0.724069 -2.6768 0
M  V30 10969 H 1044.2 -0.0552543 -1.58604 0
M  V30 10970 H 1044.22 2.20519 -3.10083 0
M  V30 10971 H 1043.73 0.5384 -3.84347 0
M  V30 10972 H 1041.83 2.66813 -2.6008 0
M  V30 10973 H 1041.95 1.98928 -4.35849 0
M  V30 10974 H 1040.31 1.14481 -2.27522 0
M  V30 10975 H 1041.09 -0.0611861 -3.43245 0
M  V30 10976 N 1043.54 1.5137 0.438746 0
M  V30 10977 C 1044.47 1.75528 1.53987 0
M  V30 10978 C 1045.45 0.605067 1.58975 0
M  V30 10979 O 1046.63 0.847634 1.74725 0
M  V30 10980 C 1043.76 1.87904 2.92078 0
M  V30 10981 C 1042.72 3.0333 3.01951 0
M  V30 10982 C 1042.04 3.00888 4.42007 0
M  V30 10983 C 1043.34 4.43319 2.76163 0
M  V30 10984 H 1045.04 2.67728 1.34022 0
M  V30 10985 H 1042.58 1.28831 0.643308 0
M  V30 10986 H 1044.54 2.03388 3.69068 0
M  V30 10987 H 1043.26 0.923514 3.13271 0
M  V30 10988 H 1041.92 2.87549 2.274 0
M  V30 10989 H 1041.57 2.03116 4.60166 0
M  V30 10990 H 1041.27 3.78397 4.49544 0
M  V30 10991 H 1042.79 3.18464 5.20973 0
M  V30 10992 H 1044.21 4.59458 3.42887 0
M  V30 10993 H 1042.6 5.22523 2.9511 0
M  V30 10994 H 1043.67 4.53453 1.71779 0
M  V30 10995 N 1045.02 -0.694098 1.41492 0
M  V30 10996 C 1045.95 -1.81943 1.39389 0
M  V30 10997 C 1046.96 -1.6009 0.295836 0
M  V30 10998 O 1048.15 -1.69565 0.557658 0
M  V30 10999 C 1045.25 -3.18731 1.15167 0
M  V30 11000 C 1044.42 -3.67601 2.37041 0
M  V30 11001 C 1043.48 -4.83063 2.08654 0
M  V30 11002 O 1042.51 -4.94603 2.81704 0
M  V30 11003 N 1043.71 -5.70409 1.0777 0
M  V30 11004 H 1046.48 -1.84239 2.36381 0
M  V30 11005 H 1044.04 -0.876475 1.36123 0
M  V30 11006 H 1046.03 -3.93602 0.941264 0
M  V30 11007 H 1044.6 -3.11452 0.267673 0
M  V30 11008 H 1043.82 -2.83622 2.73774 0
M  V30 11009 H 1045.11 -3.96991 3.18239 0
M  V30 11010 H 1044.5 -5.63718 0.473123 0
M  V30 11011 H 1043.06 -6.45172 0.927177 0
M  V30 11012 N 1046.49 -1.27344 -0.928501 0
M  V30 11013 C 1047.46 -1.10043 -2.01055 0
M  V30 11014 C 1048.46 -0.0446793 -1.60738 0
M  V30 11015 O 1049.65 -0.289202 -1.71783 0
M  V30 11016 C 1046.78 -0.676559 -3.34119 0
M  V30 11017 H 1047.97 -2.06126 -2.17835 0
M  V30 11018 H 1045.53 -1.10121 -1.10919 0
M  V30 11019 H 1046.26 0.285697 -3.23039 0
M  V30 11020 H 1046.05 -1.43903 -3.64739 0
M  V30 11021 H 1047.54 -0.577725 -4.13584 0
M  V30 11022 N 1047.97 1.13488 -1.09353 0
M  V30 11023 C 1048.94 2.17066 -0.735863 0
M  V30 11024 C 1049.94 1.59086 0.234181 0
M  V30 11025 O 1051.13 1.74196 0.012463 0
M  V30 11026 C 1048.26 3.40786 -0.0880975 0
M  V30 11027 H 1049.45 2.50221 -1.65316 0
M  V30 11028 H 1047 1.28304 -0.89263 0
M  V30 11029 H 1047.74 3.1322 0.840462 0
M  V30 11030 H 1047.52 3.8414 -0.786073 0
M  V30 11031 H 1049.01 4.17342 0.146775 0
M  V30 11032 N 1049.45 0.880621 1.30701 0
M  V30 11033 C 1050.69 0.503519 1.98101 0
M  V30 11034 C 1051.06 -0.929075 1.68024 0
M  V30 11035 O 1052.26 -1.41208 2.28722 0
M  V30 11036 C 1050.53 0.765652 3.49102 0
M  V30 11037 S 1052.09 0.490001 4.36056 0
M  V30 11038 H 1048.9 0.187522 0.685825 0
M  V30 11039 H 1051.51 1.13895 1.58897 0
M  V30 11040 H 1050.21 1.80688 3.68484 0
M  V30 11041 H 1049.74 0.117616 3.93224 0
M  V30 11042 H 1051.76 -0.673236 4.91612 0
M  V30 11043 N 1050.93 -1.4397 0.641131 0
M  V30 11044 C 1051.84 -2.34526 -0.058742 0
M  V30 11045 C 1052.86 -1.53194 -0.825088 0
M  V30 11046 O 1054.03 -1.85888 -0.775081 0
M  V30 11047 C 1051.1 -3.31313 -1.02139 0
M  V30 11048 C 1050.16 -4.28552 -0.253319 0
M  V30 11049 C 1049.39 -5.20715 -1.17012 0
M  V30 11050 O 1049.61 -5.17028 -2.40911 0
M  V30 11051 O 1048.55 -5.9839 -0.649039 0
M  V30 11052 H 1052.37 -2.95843 0.686329 0
M  V30 11053 H 1049.96 -1.43909 0.401316 0
M  V30 11054 H 1051.84 -3.90862 -1.57496 0
M  V30 11055 H 1050.52 -2.72516 -1.7469 0
M  V30 11056 H 1049.42 -3.72519 0.343531 0
M  V30 11057 H 1050.76 -4.90297 0.432372 0
M  V30 11058 N 1052.41 -0.382291 -1.52893 0
M  V30 11059 C 1053.36 0.471187 -2.27778 0
M  V30 11060 C 1054.35 1.0691 -1.31402 0
M  V30 11061 O 1055.56 1.01038 -1.48967 0
M  V30 11062 H 1051.93 0.170696 -0.732371 0
M  V30 11063 H 1053.9 -0.181954 -2.97845 0
M  V30 11064 C 1052.65 1.59012 -3.09209 0
M  V30 11065 H 1051.97 1.13935 -3.83222 0
M  V30 11066 H 1053.41 2.16167 -3.64757 0
M  V30 11067 C 1051.87 2.54212 -2.21084 0
M  V30 11068 O 1052.4 3.57447 -1.83288 0
M  V30 11069 N 1050.61 2.23789 -1.85383 0
M  V30 11070 H 1050.16 1.39872 -2.16318 0
M  V30 11071 H 1050.11 2.87737 -1.26708 0
M  V30 11072 N 1053.89 1.57202 -0.111913 0
M  V30 11073 C 1054.82 2.11995 0.871242 0
M  V30 11074 C 1055.83 1.06102 1.23475 0
M  V30 11075 O 1057.02 1.33497 1.18494 0
M  V30 11076 C 1054.12 2.59874 2.17528 0
M  V30 11077 C 1053.29 3.89788 1.98455 0
M  V30 11078 C 1052.35 4.23339 3.12523 0
M  V30 11079 O 1051.38 4.92277 2.85748 0
M  V30 11080 N 1052.58 3.80089 4.38762 0
M  V30 11081 H 1055.34 2.96976 0.403157 0
M  V30 11082 H 1052.91 1.61737 0.0727159 0
M  V30 11083 H 1054.9 2.79354 2.9282 0
M  V30 11084 H 1053.47 1.79812 2.55707 0
M  V30 11085 H 1052.69 3.79288 1.07396 0
M  V30 11086 H 1053.98 4.74748 1.83007 0
M  V30 11087 H 1053.37 3.24473 4.63394 0
M  V30 11088 H 1051.93 4.04691 5.10949 0
M  V30 11089 N 1055.36 -0.161842 1.56767 0
M  V30 11090 C 1056.77 -0.723385 1.72116 0
M  V30 11091 C 1057.13 -1.82355 0.723961 0
M  V30 11092 O 1056.25 -2.16107 -0.112643 0
M  V30 11093 C 1056.85 -1.31895 3.12072 0
M  V30 11094 C 1055.4 -1.82722 3.29074 0
M  V30 11095 C 1054.55 -0.709863 2.6806 0
M  V30 11096 H 1057.5 0.0636647 1.58572 0
M  V30 11097 H 1057.52 -2.18871 3.11249 0
M  V30 11098 H 1057.04 -0.51801 3.84627 0
M  V30 11099 H 1055.14 -2.6543 2.61491 0
M  V30 11100 H 1055.25 -1.96614 4.36898 0
M  V30 11101 H 1053.61 -1.13273 2.28126 0
M  V30 11102 H 1054.4 0.0793884 3.43208 0
M  V30 11103 N 1056.84 -1.516 -0.430713 0
M  V30 11104 C 1057.8 -1.72794 -1.50582 0
M  V30 11105 C 1058.8 -0.597903 -1.49271 0
M  V30 11106 O 1059.99 -0.865535 -1.51176 0
M  V30 11107 C 1057.13 -1.79049 -2.90093 0
M  V30 11108 H 1058.32 -2.68751 -1.33091 0
M  V30 11109 H 1055.87 -1.4169 -0.659822 0
M  V30 11110 H 1056.61 -0.849309 -3.12981 0
M  V30 11111 H 1056.39 -2.61181 -2.92449 0
M  V30 11112 H 1057.88 -1.97262 -3.68072 0
M  V30 11113 N 1058.32 0.686584 -1.41858 0
M  V30 11114 C 1059.25 1.81264 -1.47193 0
M  V30 11115 C 1060.23 1.66875 -0.329657 0
M  V30 11116 O 1061.42 1.86473 -0.542347 0
M  V30 11117 C 1058.55 3.19472 -1.36216 0
M  V30 11118 C 1057.5 3.4858 -2.48347 0
M  V30 11119 C 1056.83 4.86239 -2.22432 0
M  V30 11120 C 1058.13 3.46653 -3.90678 0
M  V30 11121 H 1059.82 1.77057 -2.41436 0
M  V30 11122 H 1057.37 0.850415 -1.16206 0
M  V30 11123 H 1059.32 3.97969 -1.38558 0
M  V30 11124 H 1058.04 3.24327 -0.384611 0
M  V30 11125 H 1056.7 2.72437 -2.45303 0
M  V30 11126 H 1056.35 4.8773 -1.22999 0
M  V30 11127 H 1056.05 5.06677 -2.97577 0
M  V30 11128 H 1057.57 5.67034 -2.26505 0
M  V30 11129 H 1058.99 4.15139 -3.95389 0
M  V30 11130 H 1057.38 3.78625 -4.65578 0
M  V30 11131 H 1058.45 2.45451 -4.18189 0
M  V30 11132 N 1059.8 1.27835 0.921735 0
M  V30 11133 C 1060.73 1.136 2.04003 0
M  V30 11134 C 1061.71 0.0358756 1.70062 0
M  V30 11135 O 1062.89 0.211438 1.93046 0
M  V30 11136 C 1060.02 0.788697 3.38226 0
M  V30 11137 C 1058.98 1.84272 3.863 0
M  V30 11138 C 1058.3 1.34923 5.17397 0
M  V30 11139 C 1059.6 3.24788 4.09035 0
M  V30 11140 H 1061.3 2.07149 2.1617 0
M  V30 11141 H 1058.84 0.997349 1.0387 0
M  V30 11142 H 1060.8 0.675911 4.15944 0
M  V30 11143 H 1059.52 -0.182499 3.2609 0
M  V30 11144 H 1058.18 1.94451 3.1078 0
M  V30 11145 H 1057.83 0.367328 5.01657 0
M  V30 11146 H 1057.53 2.05397 5.50532 0
M  V30 11147 H 1059.05 1.24951 5.97678 0
M  V30 11148 H 1060.47 3.17575 4.77304 0
M  V30 11149 H 1058.86 3.93025 4.53488 0
M  V30 11150 H 1059.93 3.69398 3.14122 0
M  V30 11151 N 1061.28 -1.12907 1.09954 0
M  V30 11152 C 1062.5 -1.88138 0.860905 0
M  V30 11153 C 1062.92 -1.79402 -0.588256 0
M  V30 11154 O 1062.28 -1.16442 -1.40526 0
M  V30 11155 C 1062.33 -3.37537 1.29425 0
M  V30 11156 O 1062.05 -3.46056 2.68658 0
M  V30 11157 C 1063.55 -4.29721 1.08879 0
M  V30 11158 H 1060.77 -0.595437 0.309347 0
M  V30 11159 H 1063.31 -1.42894 1.46292 0
M  V30 11160 H 1061.47 -3.80344 0.736009 0
M  V30 11161 H 1061.88 -4.38969 2.87065 0
M  V30 11162 H 1063.36 -5.32854 1.4412 0
M  V30 11163 H 1063.83 -4.39192 0.0270053 0
M  V30 11164 H 1064.44 -3.9269 1.63325 0
M  V30 11165 N 1062.75 -0.88754 -1.30232 0
M  V30 11166 C 1063.7 -0.327649 -2.25633 0
M  V30 11167 C 1064.69 0.545362 -1.51376 0
M  V30 11168 O 1065.88 0.389366 -1.72664 0
M  V30 11169 C 1063.01 0.454546 -3.40277 0
M  V30 11170 C 1062.09 -0.432698 -4.21887 0
M  V30 11171 N 1062.49 -1.53434 -4.81966 0
M  V30 11172 C 1060.78 -0.228275 -4.45415 0
M  V30 11173 C 1061.48 -2.08292 -5.43129 0
M  V30 11174 N 1060.46 -1.37754 -5.25856 0
M  V30 11175 H 1064.26 -1.16937 -2.69635 0
M  V30 11176 H 1061.78 -0.737232 -1.44702 0
M  V30 11177 H 1063.77 0.87231 -4.07672 0
M  V30 11178 H 1062.43 1.29367 -2.97816 0
M  V30 11179 H 1063.44 -1.91717 -4.81108 0
M  V30 11180 H 1060.12 0.573475 -4.13543 0
M  V30 11181 H 1061.51 -3.00818 -6.00798 0
M  V30 11182 N 1064.23 1.43628 -0.648757 0
M  V30 11183 C 1065.16 2.29045 0.0841858 0
M  V30 11184 C 1066.18 1.42262 0.791537 0
M  V30 11185 O 1067.37 1.66243 0.650039 0
M  V30 11186 C 1064.47 3.19075 1.14212 0
M  V30 11187 C 1063.64 4.34372 0.513799 0
M  V30 11188 C 1062.7 5.05307 1.46803 0
M  V30 11189 O 1061.72 5.60729 0.978346 0
M  V30 11190 N 1062.93 5.08393 2.80209 0
M  V30 11191 H 1065.69 2.9259 -0.648948 0
M  V30 11192 H 1063.25 1.54268 -0.491209 0
M  V30 11193 H 1065.24 3.63395 1.78119 0
M  V30 11194 H 1063.81 2.57161 1.77728 0
M  V30 11195 H 1063.03 3.93024 -0.304262 0
M  V30 11196 H 1064.32 5.08745 0.0749871 0
M  V30 11197 H 1063.72 4.64729 3.22557 0
M  V30 11198 H 1062.28 5.56445 3.3943 0
M  V30 11199 N 1065.71 0.390394 1.52688 0
M  V30 11200 C 1066.64 -0.43567 2.294 0
M  V30 11201 C 1067.62 -1.06253 1.32832 0
M  V30 11202 O 1068.81 -1.07509 1.61726 0
M  V30 11203 C 1065.94 -1.56259 3.10162 0
M  V30 11204 C 1064.89 -1.06172 4.14622 0
M  V30 11205 C 1064.22 -2.2808 4.83615 0
M  V30 11206 C 1065.52 -0.128902 5.22141 0
M  V30 11207 H 1067.21 0.204384 2.98702 0
M  V30 11208 H 1064.76 0.0997377 1.43654 0
M  V30 11209 H 1066.71 -2.14732 3.62585 0
M  V30 11210 H 1065.43 -2.23025 2.38595 0
M  V30 11211 H 1064.09 -0.499518 3.63181 0
M  V30 11212 H 1063.74 -2.93358 4.08595 0
M  V30 11213 H 1063.44 -1.95227 5.5422 0
M  V30 11214 H 1064.96 -2.87193 5.38844 0
M  V30 11215 H 1066.38 -0.621849 5.69917 0
M  V30 11216 H 1064.78 0.109919 5.99999 0
M  V30 11217 H 1065.85 0.821884 4.77884 0
M  V30 11218 N 1067.19 -1.57141 0.120249 0
M  V30 11219 C 1068.12 -2.12454 -0.859987 0
M  V30 11220 C 1069.13 -1.06755 -1.22911 0
M  V30 11221 O 1070.32 -1.34124 -1.17784 0
M  V30 11222 C 1067.42 -2.61024 -2.16147 0
M  V30 11223 C 1066.6 -3.90835 -1.96385 0
M  V30 11224 C 1065.65 -4.2499 -3.10274 0
M  V30 11225 O 1064.68 -4.93786 -2.83133 0
M  V30 11226 N 1065.88 -3.82411 -4.36741 0
M  V30 11227 H 1068.65 -2.97186 -0.387402 0
M  V30 11228 H 1066.21 -1.61773 -0.0641376 0
M  V30 11229 H 1068.2 -2.80903 -2.91334 0
M  V30 11230 H 1066.77 -1.81166 -2.5475 0
M  V30 11231 H 1065.99 -3.79853 -1.05383 0
M  V30 11232 H 1067.28 -4.75712 -1.80487 0
M  V30 11233 H 1066.68 -3.26926 -4.61666 0
M  V30 11234 H 1065.23 -4.07395 -5.08795 0
M  V30 11235 N 1068.67 0.153526 -1.5685 0
M  V30 11236 C 1070.08 0.505939 -1.51368 0
M  V30 11237 C 1070.28 1.83721 -0.82757 0
M  V30 11238 O 1069.34 2.49385 -0.395364 0
M  V30 11239 C 1070.65 0.522269 -2.9613 0
M  V30 11240 C 1072.2 0.608238 -3.07033 0
M  V30 11241 C 1072.67 0.655292 -4.53288 0
M  V30 11242 N 1074.17 0.717695 -4.57606 0
M  V30 11243 C 1074.9 0.774977 -5.68139 0
M  V30 11244 N 1074.4 0.792003 -6.88258 0
M  V30 11245 N 1076.19 0.81536 -5.56155 0
M  V30 11246 H 1068.34 -0.71919 -1.99853 0
M  V30 11247 H 1070.6 -0.261466 -0.91123 0
M  V30 11248 H 1070.31 -0.387595 -3.49558 0
M  V30 11249 H 1070.18 1.3625 -3.51733 0
M  V30 11250 H 1072.57 1.50852 -2.53629 0
M  V30 11251 H 1072.65 -0.259014 -2.54485 0
M  V30 11252 H 1072.3 -0.240809 -5.07329 0
M  V30 11253 H 1072.23 1.53894 -5.03611 0
M  V30 11254 H 1074.72 0.7121 -3.7113 0
M  V30 11255 H 1075.03 0.837378 -7.6825 0
M  V30 11256 H 1073.37 0.759986 -6.90832 0
M  V30 11257 H 1076.57 0.799183 -4.61227 0
M  V30 11258 H 1076.74 0.856537 -6.42314 0
M  V30 11259 N 1070.14 1.51827 0.422667 0
M  V30 11260 C 1071.07 1.77152 1.52117 0
M  V30 11261 C 1072.06 0.621895 1.58324 0
M  V30 11262 O 1073.24 0.866118 1.73816 0
M  V30 11263 C 1070.37 1.90991 2.90068 0
M  V30 11264 C 1069.32 3.06516 2.98717 0
M  V30 11265 C 1068.65 3.05559 4.38791 0
M  V30 11266 C 1069.95 4.46223 2.71445 0
M  V30 11267 H 1071.64 2.69135 1.31175 0
M  V30 11268 H 1069.19 1.29507 0.629607 0
M  V30 11269 H 1071.14 2.07291 3.6689 0
M  V30 11270 H 1069.87 0.956688 3.12274 0
M  V30 11271 H 1068.53 2.89945 2.24338 0
M  V30 11272 H 1068.17 2.07985 4.57986 0
M  V30 11273 H 1067.87 3.83144 4.45505 0
M  V30 11274 H 1069.4 3.23971 5.17566 0
M  V30 11275 H 1070.81 4.63069 3.37994 0
M  V30 11276 H 1069.21 5.25623 2.89552 0
M  V30 11277 H 1070.28 4.5525 1.6696 0
M  V30 11278 N 1071.62 -0.679052 1.4222 0
M  V30 11279 C 1073.04 -0.991665 1.25053 0
M  V30 11280 C 1073.24 -2.00928 0.151665 0
M  V30 11281 O 1072.29 -2.47925 -0.478507 0
M  V30 11282 C 1073.61 -1.50053 2.60585 0
M  V30 11283 C 1075.16 -1.61852 2.67905 0
M  V30 11284 C 1075.63 -2.16135 4.03794 0
M  V30 11285 N 1077.12 -2.23474 4.05726 0
M  V30 11286 C 1077.86 -2.66541 5.07685 0
M  V30 11287 N 1077.35 -3.09092 6.20028 0
M  V30 11288 N 1079.15 -2.66252 4.95042 0
M  V30 11289 H 1071.3 -0.00521851 2.12399 0
M  V30 11290 H 1073.56 -0.0648465 0.94578 0
M  V30 11291 H 1073.27 -0.82731 3.41831 0
M  V30 11292 H 1073.14 -2.47998 2.84213 0
M  V30 11293 H 1075.53 -2.28281 1.87008 0
M  V30 11294 H 1075.61 -0.624074 2.4807 0
M  V30 11295 H 1075.25 -1.50316 4.85147 0
M  V30 11296 H 1075.18 -3.16363 4.20978 0
M  V30 11297 H 1077.67 -1.93467 3.24621 0
M  V30 11298 H 1077.99 -3.40627 6.93681 0
M  V30 11299 H 1076.33 -3.06959 6.23539 0
M  V30 11300 H 1079.52 -2.32369 4.06352 0
M  V30 11301 H 1079.69 -2.99496 5.74636 0
M  V30 11302 N 1073.1 -1.28322 -0.914942 0
M  V30 11303 C 1074.35 -1.14785 -1.65853 0
M  V30 11304 C 1074.66 0.303135 -1.93237 0
M  V30 11305 O 1075.87 0.559606 -2.6567 0
M  V30 11306 C 1074.32 -2.00652 -2.98776 0
M  V30 11307 C 1073.93 -3.50483 -2.79044 0
M  V30 11308 C 1075.68 -1.95798 -3.76648 0
M  V30 11309 C 1073.58 -4.28505 -4.076 0
M  V30 11310 H 1072.51 -0.425987 -0.622135 0
M  V30 11311 H 1075.16 -1.52844 -1.01543 0
M  V30 11312 H 1073.55 -1.55447 -3.64214 0
M  V30 11313 H 1074.72 -4.03636 -2.22293 0
M  V30 11314 H 1073.04 -3.5685 -2.14586 0
M  V30 11315 H 1075.63 -2.51359 -4.71935 0
M  V30 11316 H 1075.98 -0.934455 -4.05677 0
M  V30 11317 H 1076.51 -2.38965 -3.18026 0
M  V30 11318 H 1073.25 -5.31433 -3.83744 0
M  V30 11319 H 1072.77 -3.80125 -4.63966 0
M  V30 11320 H 1074.45 -4.3836 -4.75867 0
M  V30 11321 N 1074.58 1.12322 -1.10551 0
M  V30 11322 C 1075.51 2.17819 -0.713263 0
M  V30 11323 C 1076.52 1.6086 0.250604 0
M  V30 11324 O 1077.71 1.78466 0.0348909 0
M  V30 11325 C 1074.81 3.38885 -0.0320325 0
M  V30 11326 C 1073.99 4.25332 -1.02038 0
M  V30 11327 C 1073.04 5.24895 -0.370412 0
M  V30 11328 O 1072.07 5.59958 -1.02157 0
M  V30 11329 N 1073.27 5.73934 0.870633 0
M  V30 11330 H 1076.04 2.52083 -1.62094 0
M  V30 11331 H 1073.6 1.27755 -0.994492 0
M  V30 11332 H 1075.59 4.02574 0.414285 0
M  V30 11333 H 1074.16 3.02762 0.778072 0
M  V30 11334 H 1073.38 3.5824 -1.64492 0
M  V30 11335 H 1074.67 4.79936 -1.68936 0
M  V30 11336 H 1074.07 5.47614 1.419 0
M  V30 11337 H 1072.62 6.39504 1.26008 0
M  V30 11338 N 1076.06 0.894434 1.2976 0
M  V30 11339 C 1077.47 0.566892 1.77885 0
M  V30 11340 C 1077.82 -0.917289 1.73437 0
M  V30 11341 O 1076.94 -1.71707 1.31703 0
M  V30 11342 C 1077.54 1.02227 3.2301 0
M  V30 11343 C 1076.1 0.745978 3.68934 0
M  V30 11344 C 1075.24 1.19993 2.49994 0
M  V30 11345 H 1078.2 1.0777 1.16496 0
M  V30 11346 H 1078.22 0.355281 3.78838 0
M  V30 11347 H 1077.73 2.1025 3.26215 0
M  V30 11348 H 1075.83 -0.321866 3.71207 0
M  V30 11349 H 1075.94 1.34017 4.59974 0
M  V30 11350 H 1074.31 0.619047 2.47063 0
M  V30 11351 H 1075.09 2.28811 2.55931 0
M  V30 11352 N 1077.53 -1.43282 0.656365 0
M  V30 11353 C 1078.76 -2.06641 0.177245 0
M  V30 11354 C 1079.18 -1.48893 -1.14946 0
M  V30 11355 O 1078.54 -0.600099 -1.7108 0
M  V30 11356 C 1078.59 -3.60453 0.10299 0
M  V30 11357 O 1077.69 -4.01687 -0.933895 0
M  V30 11358 H 1077.04 -0.656978 0.096314 0
M  V30 11359 H 1079.57 -1.83733 0.900178 0
M  V30 11360 H 1079.58 -4.07923 -0.079291 0
M  V30 11361 H 1078.25 -4.01861 1.07147 0
M  V30 11362 H 1076.83 -3.65801 -0.724148 0
M  V30 11363 N 1079.01 -0.398486 -1.52479 0
M  V30 11364 C 1080.24 0.183059 -2.06591 0
M  V30 11365 C 1080.66 1.3898 -1.26753 0
M  V30 11366 O 1080.02 1.78885 -0.294959 0
M  V30 11367 C 1080.07 0.522392 -3.56796 0
M  V30 11368 O 1079.17 1.61499 -3.79462 0
M  V30 11369 H 1078.51 0.0188411 -0.663733 0
M  V30 11370 H 1081.04 -0.56861 -1.9654 0
M  V30 11371 H 1081.05 0.784078 -4.00395 0
M  V30 11372 H 1079.73 -0.359807 -4.14341 0
M  V30 11373 H 1078.31 1.3463 -3.47749 0
M  V30 11374 N 1080.49 1.57075 -0.12858 0
M  V30 11375 C 1081.9 1.82468 0.39526 0
M  V30 11376 C 1082.25 1.0463 1.65973 0
M  V30 11377 O 1081.38 0.285835 2.14504 0
M  V30 11378 C 1081.97 3.30976 0.723889 0
M  V30 11379 C 1080.53 3.57016 1.19232 0
M  V30 11380 C 1079.68 2.76534 0.205907 0
M  V30 11381 H 1082.63 1.54711 -0.353571 0
M  V30 11382 H 1082.65 3.46127 1.58039 0
M  V30 11383 H 1082.16 3.87602 -0.196595 0
M  V30 11384 H 1080.26 3.05758 2.12938 0
M  V30 11385 H 1080.38 4.65558 1.13103 0
M  V30 11386 H 1078.74 2.45038 0.694872 0
M  V30 11387 H 1079.52 3.35923 -0.707842 0
M  V30 11388 N 1081.97 -0.145205 1.5693 0
M  V30 11389 C 1083.38 -0.705089 1.72874 0
M  V30 11390 C 1083.73 -1.81577 0.743261 0
M  V30 11391 O 1082.86 -2.16214 -0.0897153 0
M  V30 11392 C 1083.45 -1.28578 3.13454 0
M  V30 11393 C 1082.01 -1.79221 3.30994 0
M  V30 11394 C 1081.16 -0.681392 2.68798 0
M  V30 11395 H 1084.11 0.0804798 1.58496 0
M  V30 11396 H 1084.13 -2.15558 3.13552 0
M  V30 11397 H 1083.64 -0.477186 3.85155 0
M  V30 11398 H 1081.74 -2.62642 2.64292 0
M  V30 11399 H 1081.86 -1.91969 4.38959 0
M  V30 11400 H 1080.22 -1.10847 2.29314 0
M  V30 11401 H 1081 0.115786 3.43105 0
M  V30 11402 N 1083.45 -1.52049 -0.414609 0
M  V30 11403 C 1084.86 -1.58062 -0.993638 0
M  V30 11404 C 1085.21 -0.417795 -1.917 0
M  V30 11405 O 1084.33 0.462558 -2.11399 0
M  V30 11406 C 1084.93 -2.86471 -1.80886 0
M  V30 11407 C 1083.49 -2.94981 -2.33801 0
M  V30 11408 C 1082.64 -2.52949 -1.13631 0
M  V30 11409 H 1085.59 -1.57497 -0.19504 0
M  V30 11410 H 1085.61 -2.71515 -2.66571 0
M  V30 11411 H 1085.12 -3.71085 -1.13657 0
M  V30 11412 H 1083.22 -2.14849 -3.04419 0
M  V30 11413 H 1083.33 -3.99111 -2.65042 0
M  V30 11414 H 1081.7 -2.0667 -1.48861 0
M  V30 11415 H 1082.48 -3.39931 -0.479765 0
M  V30 11416 N 1084.93 0.6715 -1.42579 0
M  V30 11417 C 1085.87 1.80623 -1.46554 0
M  V30 11418 C 1086.87 1.65934 -0.340932 0
M  V30 11419 O 1088.07 1.72502 -0.514098 0
M  V30 11420 H 1084.45 0.595619 -0.459067 0
M  V30 11421 H 1086.42 1.74388 -2.42139 0
M  V30 11422 C 1085.17 3.18794 -1.38801 0
M  V30 11423 H 1084.49 3.30725 -2.24635 0
M  V30 11424 H 1085.93 3.98201 -1.45645 0
M  V30 11425 C 1084.39 3.36742 -0.103219 0
M  V30 11426 O 1084.92 3.92761 0.842715 0
M  V30 11427 N 1083.13 2.90594 -0.0193034 0
M  V30 11428 H 1082.67 2.45192 -0.78986 0
M  V30 11429 H 1082.63 3.0298 0.839686 0
M  V30 11430 N 1086.4 1.28806 0.908124 0
M  V30 11431 C 1087.35 1.09849 1.99793 0
M  V30 11432 C 1088.34 0.0204321 1.60887 0
M  V30 11433 O 1089.53 0.241204 1.75349 0
M  V30 11434 C 1086.66 0.768263 3.34593 0
M  V30 11435 C 1085.74 1.88544 3.79884 0
M  V30 11436 N 1086.14 3.12784 3.97492 0
M  V30 11437 C 1084.43 1.77657 4.09089 0
M  V30 11438 C 1085.13 3.85615 4.35518 0
M  V30 11439 N 1084.11 3.13501 4.44092 0
M  V30 11440 H 1087.91 2.04108 2.11464 0
M  V30 11441 H 1085.43 1.19807 1.09636 0
M  V30 11442 H 1087.42 0.613521 4.12361 0
M  V30 11443 H 1086.08 -0.166501 3.24273 0
M  V30 11444 H 1087.09 3.48333 3.83255 0
M  V30 11445 H 1083.77 0.913956 4.07373 0
M  V30 11446 H 1085.16 4.92492 4.57057 0
M  V30 11447 N 1087.88 -1.11734 1.11145 0
M  V30 11448 C 1089.29 -1.64928 0.874959 0
M  V30 11449 C 1089.64 -1.87012 -0.593375 0
M  V30 11450 O 1088.77 -1.60206 -1.45475 0
M  V30 11451 C 1089.36 -2.99608 1.58178 0
M  V30 11452 C 1087.92 -3.49723 1.39179 0
M  V30 11453 C 1087.07 -2.24595 1.62642 0
M  V30 11454 H 1090.02 -0.954154 1.26813 0
M  V30 11455 H 1090.04 -3.66434 1.02501 0
M  V30 11456 H 1089.55 -2.83504 2.65042 0
M  V30 11457 H 1087.65 -3.70998 0.345111 0
M  V30 11458 H 1087.77 -4.28711 2.13878 0
M  V30 11459 H 1086.13 -2.32067 1.04961 0
M  V30 11460 H 1086.91 -2.11036 2.70774 0
M  V30 11461 N 1089.36 -0.901303 -1.29284 0
M  V30 11462 C 1090.31 -0.370142 -2.29636 0
M  V30 11463 C 1091.3 0.53157 -1.60844 0
M  V30 11464 O 1092.51 0.414194 -1.7517 0
M  V30 11465 H 1088.88 -0.101072 -0.745177 0
M  V30 11466 H 1090.85 -1.22985 -2.71877 0
M  V30 11467 C 1089.6 0.385806 -3.45553 0
M  V30 11468 H 1088.93 -0.298818 -3.98682 0
M  V30 11469 H 1090.37 0.722299 -4.17802 0
M  V30 11470 C 1088.82 1.58907 -2.97069 0
M  V30 11471 O 1089.35 2.68835 -2.98481 0
M  V30 11472 N 1087.56 1.43178 -2.5288 0
M  V30 11473 H 1087.11 0.537467 -2.51931 0
M  V30 11474 H 1087.07 2.23819 -2.208 0
M  V30 11475 N 1090.84 1.42931 -0.663954 0
M  V30 11476 C 1091.79 2.32577 0.03287 0
M  V30 11477 C 1092.78 1.49217 0.801918 0
M  V30 11478 O 1093.99 1.65358 0.711106 0
M  V30 11479 H 1090.36 0.751424 0.0294198 0
M  V30 11480 H 1092.33 2.89059 -0.740763 0
M  V30 11481 C 1091.08 3.33661 0.978025 0
M  V30 11482 H 1090.4 3.97837 0.395681 0
M  V30 11483 H 1091.84 3.98997 1.43448 0
M  V30 11484 C 1090.3 2.65085 2.07922 0
M  V30 11485 O 1090.83 2.4745 3.16435 0
M  V30 11486 N 1089.04 2.24285 1.84783 0
M  V30 11487 H 1088.59 2.38827 0.965368 0
M  V30 11488 H 1088.54 1.78732 2.58655 0
M  V30 11489 N 1092.32 0.406567 1.52266 0
M  V30 11490 C 1093.27 -0.437483 2.23763 0
M  V30 11491 C 1094.25 -1.01557 1.248 0
M  V30 11492 O 1095.44 -0.938813 1.50051 0
M  V30 11493 C 1092.57 -1.55499 3.06064 0
M  V30 11494 C 1091.66 -0.987799 4.12436 0
M  V30 11495 N 1092.05 -0.147044 5.05586 0
M  V30 11496 C 1090.35 -1.25857 4.27874 0
M  V30 11497 C 1091.05 0.168229 5.81457 0
M  V30 11498 N 1090.02 -0.440245 5.41814 0
M  V30 11499 H 1093.82 0.211203 2.9314 0
M  V30 11500 H 1091.34 0.216843 1.60946 0
M  V30 11501 H 1093.34 -2.17224 3.55836 0
M  V30 11502 H 1092 -2.20632 2.38226 0
M  V30 11503 H 1093.01 0.217062 5.17445 0
M  V30 11504 H 1089.68 -1.90967 3.71265 0
M  V30 11505 H 1091.07 0.850516 6.66495 0
M  V30 11506 N 1093.79 -1.57004 0.136909 0
M  V30 11507 C 1094.72 -2.19262 -0.802902 0
M  V30 11508 C 1095.71 -1.13786 -1.26439 0
M  V30 11509 O 1096.89 -1.42091 -1.32377 0
M  V30 11510 C 1094.02 -2.80624 -2.04615 0
M  V30 11511 C 1092.97 -3.91839 -1.72181 0
M  V30 11512 C 1092.3 -4.4009 -3.03686 0
M  V30 11513 C 1093.6 -5.13095 -0.976249 0
M  V30 11514 H 1095.29 -2.98049 -0.28406 0
M  V30 11515 H 1092.84 -1.43364 -0.135189 0
M  V30 11516 H 1094.79 -3.22842 -2.70834 0
M  V30 11517 H 1093.52 -1.99153 -2.58855 0
M  V30 11518 H 1092.18 -3.50224 -1.08344 0
M  V30 11519 H 1091.82 -3.55454 -3.55896 0
M  V30 11520 H 1091.52 -5.15098 -2.82751 0
M  V30 11521 H 1093.05 -4.84971 -3.70993 0
M  V30 11522 H 1094.46 -5.5222 -1.54033 0
M  V30 11523 H 1092.86 -5.93801 -0.867214 0
M  V30 11524 H 1093.93 -4.84888 0.0338488 0
M  V30 11525 N 1095.27 0.136881 -1.57004 0
M  V30 11526 C 1096.52 0.847775 -1.83899 0
M  V30 11527 C 1096.85 1.80709 -0.719332 0
M  V30 11528 O 1096.1 1.93527 0.290838 0
M  V30 11529 C 1096.4 1.64711 -3.17183 0
M  V30 11530 C 1096.07 0.833683 -4.43126 0
M  V30 11531 C 1094.73 0.609306 -4.77327 0
M  V30 11532 C 1097.08 0.265504 -5.20523 0
M  V30 11533 C 1094.41 -0.193793 -5.8638 0
M  V30 11534 C 1096.76 -0.524688 -6.3042 0
M  V30 11535 C 1095.43 -0.759548 -6.63164 0
M  V30 11536 H 1094.7 0.310223 -0.672936 0
M  V30 11537 H 1097.34 0.110937 -1.91178 0
M  V30 11538 H 1095.65 2.45435 -3.054 0
M  V30 11539 H 1097.34 2.20081 -3.3521 0
M  V30 11540 H 1093.93 1.01864 -4.16319 0
M  V30 11541 H 1098.12 0.426109 -4.94467 0
M  V30 11542 H 1093.37 -0.385153 -6.10186 0
M  V30 11543 H 1097.55 -0.972033 -6.89583 0
M  V30 11544 H 1095.18 -1.38369 -7.47501 0
M  V30 11545 N 1096.75 1.52266 0.40654 0
M  V30 11546 C 1098.17 1.41127 0.745348 0
M  V30 11547 C 1098.37 0.517802 1.94733 0
M  V30 11548 O 1097.42 -0.0154286 2.52495 0
M  V30 11549 C 1098.74 2.83696 0.996859 0
M  V30 11550 C 1100.28 2.93056 1.09942 0
M  V30 11551 C 1100.76 4.36599 1.38367 0
M  V30 11552 N 1102.25 4.39845 1.45226 0
M  V30 11553 C 1102.98 5.47975 1.68852 0
M  V30 11554 N 1102.48 6.66219 1.90065 0
M  V30 11555 N 1104.27 5.35494 1.70888 0
M  V30 11556 H 1096.42 2.08888 -0.384632 0
M  V30 11557 H 1098.69 0.941619 -0.109809 0
M  V30 11558 H 1098.39 3.51208 0.185986 0
M  V30 11559 H 1098.27 3.24895 1.91632 0
M  V30 11560 H 1100.65 2.25723 1.90088 0
M  V30 11561 H 1100.74 2.5531 0.158256 0
M  V30 11562 H 1100.38 5.04492 0.587373 0
M  V30 11563 H 1100.31 4.71883 2.33739 0
M  V30 11564 H 1102.8 3.54611 1.30612 0
M  V30 11565 H 1103.11 7.44408 2.0755 0
M  V30 11566 H 1101.46 6.69279 1.87325 0
M  V30 11567 H 1104.65 4.42093 1.53856 0
M  V30 11568 H 1104.82 6.19837 1.88962 0
M  V30 11569 N 1098.23 -0.663929 1.42933 0
M  V30 11570 C 1099.16 -1.78946 1.43217 0
M  V30 11571 C 1100.17 -1.59426 0.329727 0
M  V30 11572 O 1101.36 -1.68344 0.5935 0
M  V30 11573 C 1098.46 -3.16217 1.21902 0
M  V30 11574 C 1097.64 -3.6249 2.44785 0
M  V30 11575 C 1096.69 -4.78529 2.18853 0
M  V30 11576 O 1095.72 -4.88516 2.92131 0
M  V30 11577 N 1096.92 -5.67994 1.19845 0
M  V30 11578 H 1099.69 -1.79184 2.40236 0
M  V30 11579 H 1097.25 -0.847404 1.37952 0
M  V30 11580 H 1099.24 -3.91517 1.02454 0
M  V30 11581 H 1097.81 -3.10814 0.333676 0
M  V30 11582 H 1097.03 -2.77751 2.79729 0
M  V30 11583 H 1098.32 -3.90151 3.26588 0
M  V30 11584 H 1097.72 -5.62588 0.59259 0
M  V30 11585 H 1096.27 -6.4306 1.06382 0
M  V30 11586 N 1099.71 -1.29285 -0.901281 0
M  V30 11587 C 1101.12 -1.15499 -1.46686 0
M  V30 11588 C 1101.47 0.250446 -1.94595 0
M  V30 11589 O 1100.59 1.14581 -1.83576 0
M  V30 11590 C 1101.19 -2.0906 -2.66607 0
M  V30 11591 C 1099.75 -1.99301 -3.19306 0
M  V30 11592 C 1098.89 -2.00079 -1.91999 0
M  V30 11593 H 1101.85 -1.41793 -0.712773 0
M  V30 11594 H 1101.87 -1.6619 -3.42288 0
M  V30 11595 H 1101.38 -3.11341 -2.31707 0
M  V30 11596 H 1099.48 -1.00103 -3.58901 0
M  V30 11597 H 1099.59 -2.86885 -3.8371 0
M  V30 11598 H 1097.96 -1.44655 -2.09636 0
M  V30 11599 H 1098.74 -3.04061 -1.59379 0
M  V30 11600 N 1101.18 1.11143 -1.11736 0
M  V30 11601 C 1102.41 1.87285 -0.891007 0
M  V30 11602 C 1102.83 1.79758 0.553971 0
M  V30 11603 O 1102.19 1.16221 1.39149 0
M  V30 11604 C 1102.24 3.33924 -1.36114 0
M  V30 11605 O 1101.34 4.08917 -0.534851 0
M  V30 11606 H 1100.69 0.581418 -0.320701 0
M  V30 11607 H 1103.22 1.40469 -1.4876 0
M  V30 11608 H 1103.23 3.84772 -1.35701 0
M  V30 11609 H 1101.9 3.38719 -2.41334 0
M  V30 11610 H 1100.48 3.67954 -0.605355 0
M  V30 11611 N 1102.66 0.908147 1.28804 0
M  V30 11612 C 1103.61 0.382315 2.29437 0
M  V30 11613 C 1104.6 -0.523033 1.61123 0
M  V30 11614 O 1105.81 -0.404898 1.75387 0
M  V30 11615 H 1102.19 0.105022 0.74463 0
M  V30 11616 H 1104.16 1.24425 2.71221 0
M  V30 11617 C 1102.91 -0.367475 3.45753 0
M  V30 11618 H 1102.23 0.319957 3.98518 0
M  V30 11619 H 1103.67 -0.700131 4.1818 0
M  V30 11620 C 1102.13 -1.57329 2.97908 0
M  V30 11621 O 1102.66 -2.67248 2.99902 0
M  V30 11622 N 1100.86 -1.41835 2.53636 0
M  V30 11623 H 1100.41 -0.524099 2.52212 0
M  V30 11624 H 1100.37 -2.22645 2.21984 0
M  V30 11625 N 1104.14 -1.42577 0.671525 0
M  V30 11626 C 1105.37 -2.06442 0.199152 0
M  V30 11627 C 1105.79 -1.50104 -1.1336 0
M  V30 11628 O 1105.15 -0.618211 -1.70434 0
M  V30 11629 C 1105.2 -3.60323 0.141215 0
M  V30 11630 O 1104.3 -4.02655 -0.891238 0
M  V30 11631 H 1103.64 -0.655919 0.103277 0
M  V30 11632 H 1106.17 -1.82768 0.919614 0
M  V30 11633 H 1106.18 -4.07984 -0.0360209 0
M  V30 11634 H 1104.86 -4.00702 1.11403 0
M  V30 11635 H 1103.43 -3.66549 -0.685309 0
M  V30 11636 N 1105.62 -0.414636 -1.52048 0
M  V30 11637 C 1107.03 0.0537107 -1.86623 0
M  V30 11638 C 1107.38 1.43955 -1.3331 0
M  V30 11639 O 1106.51 2.05616 -0.674606 0
M  V30 11640 C 1107.1 0.104241 -3.3864 0
M  V30 11641 C 1105.66 0.516936 -3.72833 0
M  V30 11642 C 1104.81 -0.305042 -2.75617 0
M  V30 11643 H 1107.76 -0.631469 -1.45596 0
M  V30 11644 H 1107.78 0.918395 -3.6925 0
M  V30 11645 H 1107.29 -0.904523 -3.77412 0
M  V30 11646 H 1105.39 1.53214 -3.39641 0
M  V30 11647 H 1105.5 0.2575 -4.78408 0
M  V30 11648 H 1103.87 0.233416 -2.53628 0
M  V30 11649 H 1104.65 -1.31226 -3.1723 0
M  V30 11650 N 1107.1 1.56929 -0.145233 0
M  V30 11651 C 1108.51 1.82877 0.375884 0
M  V30 11652 C 1108.86 1.06384 1.64854 0
M  V30 11653 O 1107.98 0.30857 2.14189 0
M  V30 11654 C 1108.58 3.31725 0.688744 0
M  V30 11655 C 1107.14 3.58261 1.15439 0
M  V30 11656 C 1106.28 2.76737 0.176565 0
M  V30 11657 H 1109.24 1.54328 -0.36996 0
M  V30 11658 H 1109.26 3.47784 1.54359 0
M  V30 11659 H 1108.77 3.87371 -0.237694 0
M  V30 11660 H 1106.87 3.08 2.09683 0
M  V30 11661 H 1106.98 4.66732 1.08158 0
M  V30 11662 H 1105.35 2.45761 0.668843 0
M  V30 11663 H 1106.13 3.35154 -0.743432 0
M  V30 11664 N 1108.58 -0.128553 1.57075 0
M  V30 11665 C 1109.99 -0.686713 1.73612 0
M  V30 11666 C 1110.34 -1.80778 0.762478 0
M  V30 11667 O 1109.46 -2.16297 -0.0667779 0
M  V30 11668 C 1110.06 -1.25246 3.148 0
M  V30 11669 C 1108.62 -1.757 3.32876 0
M  V30 11670 C 1107.76 -0.652844 2.69506 0
M  V30 11671 H 1110.71 0.0972859 1.58402 0
M  V30 11672 H 1110.74 -2.1222 3.15821 0
M  V30 11673 H 1110.25 -0.436308 3.8564 0
M  V30 11674 H 1108.35 -2.59824 2.67063 0
M  V30 11675 H 1108.46 -1.87302 4.4097 0
M  V30 11676 H 1106.83 -1.08408 2.30477 0
M  V30 11677 H 1107.61 0.15217 3.42963 0
M  V30 11678 N 1110.05 -1.5248 -0.398459 0
M  V30 11679 C 1110.99 -1.71321 -1.50746 0
M  V30 11680 C 1111.96 -0.5609 -1.52619 0
M  V30 11681 O 1113.15 -0.789557 -1.71167 0
M  V30 11682 C 1110.28 -1.76223 -2.89246 0
M  V30 11683 C 1109.32 -2.97878 -3.05239 0
M  V30 11684 S 1110.15 -4.58031 -2.77431 0
M  V30 11685 C 1111.31 -4.65735 -4.18141 0
M  V30 11686 H 1111.54 -2.65117 -1.34538 0
M  V30 11687 H 1109.08 -1.42653 -0.590727 0
M  V30 11688 H 1111.03 -1.79733 -3.69062 0
M  V30 11689 H 1109.7 -0.83536 -3.02788 0
M  V30 11690 H 1108.89 -2.97821 -4.06594 0
M  V30 11691 H 1108.49 -2.92311 -2.33304 0
M  V30 11692 H 1110.78 -4.43768 -5.11934 0
M  V30 11693 H 1111.73 -5.67709 -4.23217 0
M  V30 11694 H 1112.13 -3.94664 -4.03609 0
M  V30 11695 N 1111.53 0.65634 -1.43283 0
M  V30 11696 C 1112.76 1.44906 -1.48382 0
M  V30 11697 C 1113.18 1.87823 -0.101993 0
M  V30 11698 O 1112.54 1.57178 0.903597 0
M  V30 11699 C 1112.59 2.66231 -2.43215 0
M  V30 11700 O 1111.69 3.65176 -1.91625 0
M  V30 11701 H 1111.03 0.434601 -0.502014 0
M  V30 11702 H 1113.56 0.803429 -1.88165 0
M  V30 11703 H 1113.57 3.14083 -2.60414 0
M  V30 11704 H 1112.25 2.34336 -3.43598 0
M  V30 11705 H 1110.82 3.24302 -1.84072 0
M  V30 11706 N 1113.01 1.29761 0.894412 0
M  V30 11707 C 1114.23 1.21064 1.68399 0
M  V30 11708 C 1114.66 -0.224608 1.86754 0
M  V30 11709 O 1114.02 -1.16199 1.39167 0
M  V30 11710 C 1114.07 1.93468 3.04306 0
M  V30 11711 O 1113.17 1.25533 3.9283 0
M  V30 11712 H 1112.51 0.419223 0.514925 0
M  V30 11713 H 1115.04 1.71421 1.11696 0
M  V30 11714 H 1115.05 2.02127 3.54413 0
M  V30 11715 H 1113.73 2.97857 2.90265 0
M  V30 11716 H 1112.3 1.25168 3.51266 0
M  V30 11717 N 1114.49 -1.10549 1.12324 0
M  V30 11718 C 1115.45 -2.15039 0.793156 0
M  V30 11719 C 1116.45 -1.59651 -0.19192 0
M  V30 11720 O 1117.64 -1.74167 0.0337262 0
M  V30 11721 C 1114.77 -3.40433 0.17842 0
M  V30 11722 H 1115.97 -2.4575 1.71892 0
M  V30 11723 H 1113.52 -1.25892 0.926333 0
M  V30 11724 H 1114.25 -3.15338 -0.757122 0
M  V30 11725 H 1114.04 -3.81921 0.887645 0
M  V30 11726 H 1115.53 -4.17584 -0.0360724 0
M  V30 11727 N 1115.97 -0.914965 -1.28321 0
M  V30 11728 C 1116.9 -0.348729 -2.2552 0
M  V30 11729 C 1117.88 0.547737 -1.53097 0
M  V30 11730 O 1119.06 0.491119 -1.8199 0
M  V30 11731 C 1116.19 0.501397 -3.34968 0
M  V30 11732 C 1115.23 -0.329859 -4.25223 0
M  V30 11733 S 1116.07 -1.73737 -5.06533 0
M  V30 11734 C 1117.22 -0.89458 -6.19474 0
M  V30 11735 H 1117.46 -1.17256 -2.732 0
M  V30 11736 H 1114.99 -0.716297 -1.36779 0
M  V30 11737 H 1116.95 0.986061 -3.98481 0
M  V30 11738 H 1115.61 1.29962 -2.85952 0
M  V30 11739 H 1114.8 0.320236 -5.02982 0
M  V30 11740 H 1114.4 -0.748221 -3.66439 0
M  V30 11741 H 1116.69 -0.124776 -6.77385 0
M  V30 11742 H 1117.64 -1.64475 -6.88733 0
M  V30 11743 H 1118.05 -0.442217 -5.62765 0
M  V30 11744 N 1117.44 1.42219 -0.679077 0
M  V30 11745 C 1118.69 2.00703 -0.200309 0
M  V30 11746 C 1119.01 1.54339 1.20161 0
M  V30 11747 O 1120.21 2.0527 1.77698 0
M  V30 11748 C 1118.67 3.58586 -0.307248 0
M  V30 11749 C 1118.28 4.13937 -1.71349 0
M  V30 11750 C 1120.02 4.24351 0.112588 0
M  V30 11751 C 1117.93 5.64198 -1.77297 0
M  V30 11752 H 1116.86 0.750638 -0.0711279 0
M  V30 11753 H 1119.51 1.62893 -0.844881 0
M  V30 11754 H 1117.89 3.93921 0.40529 0
M  V30 11755 H 1119.06 3.90054 -2.45346 0
M  V30 11756 H 1117.38 3.60639 -2.08155 0
M  V30 11757 H 1119.98 5.34627 0.0883578 0
M  V30 11758 H 1120.32 4.00142 1.14857 0
M  V30 11759 H 1120.85 3.93992 -0.549093 0
M  V30 11760 H 1117.59 5.93211 -2.78892 0
M  V30 11761 H 1117.11 5.90058 -1.07662 0
M  V30 11762 H 1118.79 6.2869 -1.52835 0
M  V30 11763 N 1118.92 0.422693 1.51826 0
M  V30 11764 C 1119.85 -0.43167 2.25098 0
M  V30 11765 C 1120.87 -0.998758 1.28564 0
M  V30 11766 O 1122.06 -0.89539 1.54418 0
M  V30 11767 C 1119.16 -1.61426 2.97985 0
M  V30 11768 C 1118.33 -1.16866 4.21499 0
M  V30 11769 C 1117.39 -2.2197 4.77091 0
M  V30 11770 O 1116.41 -1.82004 5.39317 0
M  V30 11771 N 1117.62 -3.54293 4.59844 0
M  V30 11772 H 1120.38 0.196255 2.99057 0
M  V30 11773 H 1117.94 0.25079 1.59946 0
M  V30 11774 H 1119.93 -2.31331 3.32066 0
M  V30 11775 H 1118.5 -2.14783 2.27128 0
M  V30 11776 H 1117.72 -0.297217 3.93078 0
M  V30 11777 H 1119.01 -0.848106 5.01682 0
M  V30 11778 H 1118.41 -3.89505 4.10247 0
M  V30 11779 H 1116.97 -4.20135 4.98327 0
M  V30 11780 N 1120.4 -1.5685 0.153553 0
M  V30 11781 C 1121.81 -1.83074 -0.36618 0
M  V30 11782 C 1122.16 -1.07257 -1.64288 0
M  V30 11783 O 1121.29 -0.319925 -2.14022 0
M  V30 11784 C 1121.88 -3.32086 -0.671142 0
M  V30 11785 C 1120.44 -3.58868 -1.13537 0
M  V30 11786 C 1119.59 -2.76827 -0.161887 0
M  V30 11787 H 1122.54 -1.54129 0.378139 0
M  V30 11788 H 1122.56 -3.48598 -1.52512 0
M  V30 11789 H 1122.07 -3.8724 0.258234 0
M  V30 11790 H 1120.17 -3.09107 -2.08047 0
M  V30 11791 H 1120.29 -4.67299 -1.05682 0
M  V30 11792 H 1118.65 -2.46112 -0.6558 0
M  V30 11793 H 1119.43 -3.34755 0.761195 0
M  V30 11794 N 1121.88 0.120221 -1.57141 0
M  V30 11795 C 1122.83 1.15332 -1.96679 0
M  V30 11796 C 1123.81 1.37134 -0.841607 0
M  V30 11797 O 1125 1.38247 -1.10529 0
M  V30 11798 C 1122.13 2.48021 -2.37361 0
M  V30 11799 C 1121.22 2.29699 -3.5651 0
M  V30 11800 N 1121.61 1.81186 -4.72234 0
M  V30 11801 C 1119.91 2.60359 -3.62118 0
M  V30 11802 C 1120.61 1.76542 -5.54263 0
M  V30 11803 N 1119.58 2.20843 -4.96719 0
M  V30 11804 H 1123.39 0.770763 -2.83613 0
M  V30 11805 H 1120.9 0.327979 -1.59054 0
M  V30 11806 H 1122.9 3.22739 -2.63903 0
M  V30 11807 H 1121.56 2.87036 -1.51791 0
M  V30 11808 H 1122.57 1.50751 -4.95474 0
M  V30 11809 H 1119.25 3.03067 -2.87152 0
M  V30 11810 H 1120.64 1.40298 -6.57089 0
M  V30 11811 N 1123.36 1.52689 0.390367 0
M  V30 11812 C 1124.6 1.67335 1.13329 0
M  V30 11813 C 1124.93 0.415068 1.90531 0
M  V30 11814 O 1124.2 -0.570504 1.87409 0
M  V30 11815 H 1122.78 0.616821 0.421356 0
M  V30 11816 H 1125.44 1.89799 0.443 0
M  V30 11817 H 1124.53 2.52314 1.83696 0
M  V30 11818 N 1124.83 -0.648732 1.43629 0
M  V30 11819 C 1125.8 -1.74331 1.488 0
M  V30 11820 C 1126.8 -1.56434 0.372147 0
M  V30 11821 O 1127.99 -1.6225 0.634078 0
M  V30 11822 C 1125.12 -3.13248 1.34494 0
M  V30 11823 H 1126.31 -1.71125 2.46285 0
M  V30 11824 H 1123.87 -0.860798 1.30461 0
M  V30 11825 H 1124.6 -3.22062 0.380345 0
M  V30 11826 H 1124.39 -3.27643 2.15389 0
M  V30 11827 H 1125.88 -3.93056 1.41055 0
M  V30 11828 N 1126.31 -1.30234 -0.887518 0
M  V30 11829 C 1127.28 -1.16384 -1.97452 0
M  V30 11830 C 1128.28 -0.0957942 -1.60514 0
M  V30 11831 O 1129.47 -0.343706 -1.70776 0
M  V30 11832 C 1126.6 -0.782514 -3.31797 0
M  V30 11833 H 1127.79 -2.12952 -2.11167 0
M  V30 11834 H 1125.34 -1.13594 -1.07359 0
M  V30 11835 H 1126.08 0.18278 -3.23785 0
M  V30 11836 H 1125.86 -1.55434 -3.59976 0
M  V30 11837 H 1127.35 -0.709011 -4.11537 0
M  V30 11838 N 1127.79 1.09952 -1.12909 0
M  V30 11839 C 1129.02 1.8633 -0.910821 0
M  V30 11840 C 1129.44 1.80335 0.534874 0
M  V30 11841 O 1128.8 1.1769 1.37908 0
M  V30 11842 C 1128.85 3.32462 -1.39648 0
M  V30 11843 O 1127.95 4.08327 -0.578192 0
M  V30 11844 H 1127.29 0.577984 -0.32685 0
M  V30 11845 H 1129.82 1.38883 -1.50242 0
M  V30 11846 H 1129.83 3.83311 -1.39774 0
M  V30 11847 H 1128.51 3.36141 -2.44913 0
M  V30 11848 H 1127.08 3.67291 -0.644347 0
M  V30 11849 N 1129.27 0.921757 1.27833 0
M  V30 11850 C 1130.49 0.574599 1.99281 0
M  V30 11851 C 1130.92 -0.838905 1.68357 0
M  V30 11852 O 1130.28 -1.56196 0.920468 0
M  V30 11853 C 1130.32 0.800027 3.51613 0
M  V30 11854 O 1129.43 -0.137215 4.12172 0
M  V30 11855 H 1128.77 0.221887 0.625829 0
M  V30 11856 H 1131.3 1.23939 1.62789 0
M  V30 11857 H 1131.31 0.71326 4.01717 0
M  V30 11858 H 1129.98 1.83042 3.73455 0
M  V30 11859 H 1128.56 -0.00103872 3.729 0
M  V30 11860 N 1130.75 -1.41857 0.686609 0
M  V30 11861 C 1131.97 -2.06219 0.221037 0
M  V30 11862 C 1132.4 -1.51298 -1.11762 0
M  V30 11863 O 1131.75 -0.636253 -1.69769 0
M  V30 11864 C 1131.8 -3.60153 0.179425 0
M  V30 11865 O 1130.91 -4.03577 -0.848481 0
M  V30 11866 H 1130.25 -0.654787 0.110228 0
M  V30 11867 H 1132.78 -1.81783 0.938948 0
M  V30 11868 H 1132.79 -4.07999 0.00725332 0
M  V30 11869 H 1131.46 -3.99498 1.15647 0
M  V30 11870 H 1130.04 -3.67255 -0.646393 0
M  V30 11871 N 1132.22 -0.430739 -1.51599 0
M  V30 11872 C 1133.16 0.419726 -2.25324 0
M  V30 11873 C 1134.17 0.991925 -1.29092 0
M  V30 11874 O 1135.36 0.887188 -1.54891 0
M  V30 11875 C 1132.46 1.59844 -2.98836 0
M  V30 11876 C 1131.63 1.14629 -4.22112 0
M  V30 11877 C 1130.69 2.19437 -4.78261 0
M  V30 11878 O 1129.72 1.79141 -5.40275 0
M  V30 11879 N 1130.92 3.51849 -4.61717 0
M  V30 11880 H 1133.68 -0.212112 -2.98948 0
M  V30 11881 H 1131.24 -0.259269 -1.59811 0
M  V30 11882 H 1133.24 2.29567 -3.33288 0
M  V30 11883 H 1131.81 2.13575 -2.28264 0
M  V30 11884 H 1131.03 0.276367 -3.9323 0
M  V30 11885 H 1132.31 0.821488 -5.02124 0
M  V30 11886 H 1131.71 3.87324 -4.12306 0
M  V30 11887 H 1130.27 4.17486 -5.00548 0
M  V30 11888 N 1133.7 1.56767 -0.161869 0
M  V30 11889 C 1134.95 1.96594 0.485496 0
M  V30 11890 C 1135.28 1.04743 1.63887 0
M  V30 11891 O 1134.53 0.079602 1.95538 0
M  V30 11892 C 1134.83 3.42567 1.01894 0
M  V30 11893 C 1134.5 4.50897 -0.0175419 0
M  V30 11894 C 1133.16 4.80249 -0.302429 0
M  V30 11895 C 1135.51 5.16181 -0.721572 0
M  V30 11896 C 1132.84 5.72187 -1.2969 0
M  V30 11897 C 1135.19 6.09191 -1.70496 0
M  V30 11898 C 1133.86 6.36915 -1.99739 0
M  V30 11899 H 1133.13 0.719388 0.177656 0
M  V30 11900 H 1135.77 1.89837 -0.251839 0
M  V30 11901 H 1134.08 3.4623 1.83391 0
M  V30 11902 H 1135.77 3.70719 1.52867 0
M  V30 11903 H 1132.36 4.28062 0.21468 0
M  V30 11904 H 1136.55 4.93624 -0.514681 0
M  V30 11905 H 1131.8 5.91953 -1.52974 0
M  V30 11906 H 1135.98 6.58849 -2.25591 0
M  V30 11907 H 1133.61 7.07958 -2.76948 0
M  V30 11908 N 1135.18 -0.111886 1.57202 0
M  V30 11909 C 1136.11 -1.16274 1.97517 0
M  V30 11910 C 1137.13 -1.37259 0.875425 0
M  V30 11911 O 1138.31 -1.36208 1.15367 0
M  V30 11912 C 1135.41 -2.52145 2.26442 0
M  V30 11913 C 1134.59 -2.51666 3.57747 0
M  V30 11914 C 1133.65 -3.69337 3.74802 0
M  V30 11915 O 1132.67 -3.52596 4.46839 0
M  V30 11916 N 1133.87 -4.88177 3.14108 0
M  V30 11917 H 1136.64 -0.819747 2.88271 0
M  V30 11918 H 1134.2 -0.301076 1.59076 0
M  V30 11919 H 1136.19 -3.29437 2.3506 0
M  V30 11920 H 1134.76 -2.78599 1.41779 0
M  V30 11921 H 1133.98 -1.60038 3.60252 0
M  V30 11922 H 1135.27 -2.48408 4.44039 0
M  V30 11923 H 1134.67 -5.04682 2.55564 0
M  V30 11924 H 1133.23 -5.6312 3.28237 0
M  V30 11925 N 1136.66 -1.52894 -0.382264 0
M  V30 11926 C 1137.91 -1.67933 -1.1244 0
M  V30 11927 C 1138.23 -0.425166 -1.90309 0
M  V30 11928 O 1137.5 0.560557 -1.87709 0
M  V30 11929 H 1136.08 -0.619047 -0.418079 0
M  V30 11930 H 1138.74 -1.90031 -0.432928 0
M  V30 11931 H 1137.84 -2.53285 -1.82355 0
M  V30 11932 N 1138.14 0.641106 -1.43971 0
M  V30 11933 C 1139.07 1.76489 -1.52885 0
M  V30 11934 C 1140.05 1.65742 -0.38258 0
M  V30 11935 O 1141.23 1.84653 -0.601397 0
M  V30 11936 C 1138.36 3.14977 -1.4631 0
M  V30 11937 C 1137.32 3.40502 -2.59311 0
M  V30 11938 C 1136.64 4.78916 -2.37789 0
M  V30 11939 C 1137.94 3.34048 -4.01509 0
M  V30 11940 H 1139.64 1.69286 -2.46946 0
M  V30 11941 H 1137.18 0.813015 -1.18853 0
M  V30 11942 H 1139.14 3.9336 -1.51149 0
M  V30 11943 H 1137.86 3.2294 -0.487599 0
M  V30 11944 H 1136.52 2.64495 -2.53846 0
M  V30 11945 H 1136.17 4.8357 -1.38454 0
M  V30 11946 H 1135.87 4.96954 -3.13545 0
M  V30 11947 H 1137.39 5.59541 -2.4443 0
M  V30 11948 H 1138.81 4.0235 -4.08396 0
M  V30 11949 H 1137.2 3.63622 -4.77388 0
M  V30 11950 H 1138.27 2.32022 -4.25786 0
M  V30 11951 N 1139.62 1.30703 0.880598 0
M  V30 11952 C 1141.03 1.17818 1.4483 0
M  V30 11953 C 1141.38 -0.219456 1.94969 0
M  V30 11954 O 1140.5 -1.11646 1.85375 0
M  V30 11955 C 1141.1 2.13275 2.63247 0
M  V30 11956 C 1139.66 2.04356 3.16094 0
M  V30 11957 C 1138.8 2.03108 1.88792 0
M  V30 11958 H 1141.75 1.42909 0.690125 0
M  V30 11959 H 1141.78 1.71615 3.39601 0
M  V30 11960 H 1141.29 3.14988 2.26725 0
M  V30 11961 H 1139.39 1.058 3.57263 0
M  V30 11962 H 1139.5 2.92953 3.79098 0
M  V30 11963 H 1137.87 1.47971 2.07308 0
M  V30 11964 H 1138.65 3.06558 1.54521 0
M  V30 11965 N 1141.09 -1.09351 1.1349 0
M  V30 11966 C 1142.32 -1.85844 0.92069 0
M  V30 11967 C 1142.74 -1.80616 -0.525303 0
M  V30 11968 O 1142.1 -1.1842 -1.37282 0
M  V30 11969 C 1142.15 -3.31716 1.4141 0
M  V30 11970 O 1141.25 -4.08014 0.599838 0
M  V30 11971 H 1140.59 -0.576242 0.32991 0
M  V30 11972 H 1143.12 -1.38084 1.50976 0
M  V30 11973 H 1143.13 -3.82564 1.41805 0
M  V30 11974 H 1141.81 -3.34837 2.46692 0
M  V30 11975 H 1140.39 -3.66944 0.663816 0
M  V30 11976 N 1142.57 -0.928524 -1.27343 0
M  V30 11977 C 1143.99 -0.62889 -1.46687 0
M  V30 11978 C 1144.19 0.821592 -1.83989 0
M  V30 11979 O 1143.24 1.59941 -1.95385 0
M  V30 11980 C 1144.56 -1.57947 -2.55878 0
M  V30 11981 C 1146.1 -1.58778 -2.69738 0
M  V30 11982 C 1146.58 -2.52535 -3.82087 0
M  V30 11983 N 1148.07 -2.50747 -3.89462 0
M  V30 11984 C 1148.81 -3.19981 -4.75814 0
M  V30 11985 N 1148.3 -3.98598 -5.66649 0
M  V30 11986 N 1150.09 -3.08996 -4.69551 0
M  V30 11987 H 1142.25 -1.86625 -1.01414 0
M  V30 11988 H 1144.51 -0.801293 -0.50659 0
M  V30 11989 H 1144.21 -2.61427 -2.35264 0
M  V30 11990 H 1144.09 -1.3218 -3.53282 0
M  V30 11991 H 1146.48 -0.560292 -2.89732 0
M  V30 11992 H 1146.56 -1.88594 -1.72817 0
M  V30 11993 H 1146.2 -3.55395 -3.62846 0
M  V30 11994 H 1146.13 -2.20015 -4.78436 0
M  V30 11995 H 1148.62 -1.93651 -3.24511 0
M  V30 11996 H 1148.93 -4.4841 -6.29403 0
M  V30 11997 H 1147.28 -4.02701 -5.66442 0
M  V30 11998 H 1150.47 -2.4707 -3.97585 0
M  V30 11999 H 1150.64 -3.63223 -5.36631 0
M  V30 12000 N 1144.05 1.41491 -0.694123 0
M  V30 12001 C 1145.27 2.06099 -0.23197 0
M  V30 12002 C 1145.7 1.51888 1.10958 0
M  V30 12003 O 1145.06 0.645247 1.69429 0
M  V30 12004 C 1145.11 3.60053 -0.198522 0
M  V30 12005 O 1144.21 4.04021 0.827067 0
M  V30 12006 H 1143.55 0.654193 -0.113699 0
M  V30 12007 H 1146.08 1.81282 -0.948575 0
M  V30 12008 H 1146.09 4.0799 -0.0288904 0
M  V30 12009 H 1144.77 3.98879 -1.17764 0
M  V30 12010 H 1143.34 3.67593 0.626908 0
M  V30 12011 N 1145.53 0.438773 1.51369 0
M  V30 12012 C 1146.49 -0.36032 2.2635 0
M  V30 12013 C 1147.49 -0.948465 1.29849 0
M  V30 12014 O 1148.68 -0.822692 1.53549 0
M  V30 12015 C 1145.81 -1.50994 3.05636 0
M  V30 12016 H 1147.01 0.296826 2.98427 0
M  V30 12017 H 1144.56 0.191978 1.55117 0
M  V30 12018 H 1145.29 -2.2031 2.37979 0
M  V30 12019 H 1145.08 -1.09437 3.76518 0
M  V30 12020 H 1146.57 -2.07447 3.6243 0
M  V30 12021 N 1147.01 -1.56678 0.170181 0
M  V30 12022 C 1148.25 -1.96024 -0.475147 0
M  V30 12023 C 1148.57 -1.0588 -1.64465 0
M  V30 12024 O 1149.77 -1.34901 -2.35614 0
M  V30 12025 C 1148.23 -3.4855 -0.896704 0
M  V30 12026 C 1147.84 -4.47318 0.247142 0
M  V30 12027 C 1149.58 -3.96716 -1.51052 0
M  V30 12028 C 1147.49 -5.91082 -0.193982 0
M  V30 12029 H 1146.42 -0.731883 -0.181282 0
M  V30 12030 H 1149.07 -1.81674 0.25823 0
M  V30 12031 H 1147.45 -3.58314 -1.68603 0
M  V30 12032 H 1148.63 -4.49268 1.02445 0
M  V30 12033 H 1146.94 -4.09203 0.770839 0
M  V30 12034 H 1149.54 -5.01581 -1.85258 0
M  V30 12035 H 1149.88 -3.39588 -2.40802 0
M  V30 12036 H 1150.41 -3.89965 -0.785652 0
M  V30 12037 H 1147.15 -6.5208 0.668714 0
M  V30 12038 H 1146.67 -5.92441 -0.936675 0
M  V30 12039 H 1148.35 -6.43844 -0.638237 0
M  V30 12040 N 1148.48 0.103547 -1.57259 0
M  V30 12041 C 1149.73 0.808576 -1.85656 0
M  V30 12042 C 1150.06 1.79143 -0.757502 0
M  V30 12043 O 1149.31 1.941 0.249723 0
M  V30 12044 C 1149.61 1.57946 -3.20605 0
M  V30 12045 C 1149.28 0.739502 -4.44795 0
M  V30 12046 C 1147.94 0.507921 -4.78512 0
M  V30 12047 C 1150.29 0.155034 -5.20969 0
M  V30 12048 C 1147.62 -0.318129 -5.85837 0
M  V30 12049 C 1149.97 -0.658292 -6.29166 0
M  V30 12050 C 1148.64 -0.900044 -6.61404 0
M  V30 12051 H 1147.91 0.295879 -0.679365 0
M  V30 12052 H 1150.55 0.0703604 -1.91371 0
M  V30 12053 H 1148.86 2.38902 -3.10537 0
M  V30 12054 H 1150.56 2.12921 -3.39803 0
M  V30 12055 H 1147.15 0.930103 -4.18386 0
M  V30 12056 H 1151.33 0.32113 -4.9526 0
M  V30 12057 H 1146.59 -0.514495 -6.09231 0
M  V30 12058 H 1150.76 -1.11809 -6.87366 0
M  V30 12059 H 1148.39 -1.54194 -7.44398 0
M  V30 12060 N 1149.96 1.53094 0.37415 0
M  V30 12061 C 1150.89 1.75199 1.47776 0
M  V30 12062 C 1151.91 0.632627 1.50006 0
M  V30 12063 O 1153.1 0.908688 1.5364 0
M  V30 12064 C 1150.2 1.80909 2.86575 0
M  V30 12065 C 1149.37 3.10432 3.08141 0
M  V30 12066 C 1148.43 3.07495 4.27005 0
M  V30 12067 O 1147.45 3.81319 4.22592 0
M  V30 12068 N 1148.66 2.27715 5.33972 0
M  V30 12069 H 1151.42 2.70423 1.29196 0
M  V30 12070 H 1148.98 1.51766 0.563802 0
M  V30 12071 H 1150.97 1.76432 3.64217 0
M  V30 12072 H 1149.54 0.930074 2.98443 0
M  V30 12073 H 1148.76 3.2828 2.18233 0
M  V30 12074 H 1150.05 3.96047 3.19413 0
M  V30 12075 H 1149.45 1.67231 5.40417 0
M  V30 12076 H 1148.01 2.29065 6.10223 0
M  V30 12077 N 1151.44 -0.633461 1.44309 0
M  V30 12078 C 1152.37 -1.75868 1.4698 0
M  V30 12079 C 1153.38 -1.58691 0.363469 0
M  V30 12080 O 1154.57 -1.67048 0.629075 0
M  V30 12081 C 1151.67 -3.1356 1.28582 0
M  V30 12082 C 1150.85 -3.57217 2.52418 0
M  V30 12083 C 1149.91 -4.73779 2.28954 0
M  V30 12084 O 1148.93 -4.8221 3.02428 0
M  V30 12085 N 1150.13 -5.65324 1.31866 0
M  V30 12086 H 1152.9 -1.74048 2.43983 0
M  V30 12087 H 1150.46 -0.817952 1.39718 0
M  V30 12088 H 1152.45 -3.89255 1.10736 0
M  V30 12089 H 1151.02 -3.10036 0.399529 0
M  V30 12090 H 1150.24 -2.71755 2.85557 0
M  V30 12091 H 1151.53 -3.83136 3.3479 0
M  V30 12092 H 1150.93 -5.61204 0.71179 0
M  V30 12093 H 1149.48 -6.40659 1.19998 0
M  V30 12094 N 1152.92 -1.31168 -0.873655 0
M  V30 12095 C 1153.85 -1.14325 -1.98651 0
M  V30 12096 C 1154.86 -0.0833421 -1.62587 0
M  V30 12097 O 1156.05 -0.330477 -1.75414 0
M  V30 12098 C 1153.15 -0.723747 -3.31082 0
M  V30 12099 C 1152.33 -1.86787 -3.95512 0
M  V30 12100 C 1151.38 -1.43503 -5.06254 0
M  V30 12101 O 1150.41 -2.14409 -5.27273 0
M  V30 12102 N 1151.61 -0.320362 -5.79615 0
M  V30 12103 H 1154.38 -2.10179 -2.13647 0
M  V30 12104 H 1151.94 -1.23454 -1.04742 0
M  V30 12105 H 1153.93 -0.416971 -4.02546 0
M  V30 12106 H 1152.5 0.143073 -3.12272 0
M  V30 12107 H 1151.72 -2.34216 -3.17075 0
M  V30 12108 H 1153.01 -2.6343 -4.35296 0
M  V30 12109 H 1152.41 0.270215 -5.65054 0
M  V30 12110 H 1150.96 -0.0731 -6.51759 0
M  V30 12111 N 1154.4 1.08748 -1.14068 0
M  V30 12112 C 1155.81 1.62551 -0.918379 0
M  V30 12113 C 1156.16 1.8852 0.543583 0
M  V30 12114 O 1155.28 1.64007 1.41176 0
M  V30 12115 C 1155.88 2.95309 -1.66066 0
M  V30 12116 C 1154.44 3.4591 -1.48403 0
M  V30 12117 C 1153.58 2.20204 -1.6854 0
M  V30 12118 H 1156.54 0.920196 -1.29298 0
M  V30 12119 H 1156.56 3.63587 -1.12181 0
M  V30 12120 H 1156.07 2.76377 -2.72465 0
M  V30 12121 H 1154.17 3.69953 -0.443353 0
M  V30 12122 H 1154.28 4.2289 -2.25169 0
M  V30 12123 H 1152.65 2.29203 -1.11077 0
M  V30 12124 H 1153.43 2.03783 -2.76274 0
M  V30 12125 N 1155.87 0.935264 1.26849 0
M  V30 12126 C 1156.78 0.446122 2.30319 0
M  V30 12127 C 1157.8 -0.476965 1.67335 0
M  V30 12128 O 1158.98 -0.357934 1.98194 0
M  V30 12129 C 1156.04 -0.286297 3.45516 0
M  V30 12130 C 1155.1 0.672626 4.23998 0
M  V30 12131 C 1154.34 -0.0249345 5.33694 0
M  V30 12132 O 1154.56 -1.24296 5.56693 0
M  V30 12133 O 1153.49 0.650752 5.98372 0
M  V30 12134 H 1157.32 1.30546 2.74211 0
M  V30 12135 H 1154.9 0.70091 1.31938 0
M  V30 12136 H 1156.79 -0.699109 4.1556 0
M  V30 12137 H 1155.46 -1.12112 3.03665 0
M  V30 12138 H 1154.37 1.13527 3.56458 0
M  V30 12139 H 1155.7 1.47489 4.69583 0
M  V30 12140 N 1157.35 -1.41121 0.701616 0
M  V30 12141 C 1158.3 -2.32582 0.0288052 0
M  V30 12142 C 1159.29 -1.5129 -0.762074 0
M  V30 12143 O 1160.5 -1.67185 -0.667014 0
M  V30 12144 H 1156.88 -0.75194 -0.00948675 0
M  V30 12145 H 1158.85 -2.86994 0.817141 0
M  V30 12146 C 1157.6 -3.36137 -0.889217 0
M  V30 12147 H 1156.92 -3.98746 -0.290062 0
M  V30 12148 H 1158.36 -4.0266 -1.32819 0
M  V30 12149 C 1156.82 -2.70504 -2.00821 0
M  V30 12150 O 1157.35 -2.55753 -3.09763 0
M  V30 12151 N 1155.55 -2.29105 -1.78772 0
M  V30 12152 H 1155.1 -2.41303 -0.901708 0
M  V30 12153 H 1155.06 -1.85527 -2.53825 0
M  V30 12154 N 1158.83 -0.446794 -1.51134 0
M  V30 12155 C 1160.07 0.115546 -2.04073 0
M  V30 12156 C 1160.43 1.39137 -1.32306 0
M  V30 12157 O 1161.64 2.03455 -1.75668 0
M  V30 12158 C 1159.91 0.319657 -3.55968 0
M  V30 12159 S 1161.47 0.844045 -4.30606 0
M  V30 12160 H 1158.28 0.0274089 -0.710471 0
M  V30 12161 H 1160.89 -0.608368 -1.85793 0
M  V30 12162 H 1159.59 -0.615082 -4.05765 0
M  V30 12163 H 1159.12 1.07038 -3.78558 0
M  V30 12164 H 1161.14 2.12051 -4.48608 0
M  V30 12165 N 1160.31 1.56586 -0.178487 0
M  V30 12166 C 1161.53 2.01915 0.473841 0
M  V30 12167 C 1161.96 1.05789 1.55533 0
M  V30 12168 O 1161.32 0.0386018 1.81259 0
M  V30 12169 C 1161.36 3.45799 1.02251 0
M  V30 12170 O 1160.47 3.52761 2.1362 0
M  V30 12171 H 1159.81 0.654372 0.112666 0
M  V30 12172 H 1162.34 2.02613 -0.284486 0
M  V30 12173 H 1162.35 3.85252 1.34332 0
M  V30 12174 H 1161.02 4.1526 0.230719 0
M  V30 12175 H 1159.6 3.25172 1.8253 0
M  V30 12176 N 1161.79 -0.095206 1.57312 0
M  V30 12177 C 1163.01 -0.81614 1.90667 0
M  V30 12178 C 1163.44 -1.71494 0.772746 0
M  V30 12179 O 1162.79 -1.79192 -0.275682 0
M  V30 12180 C 1162.84 -1.60555 3.22885 0
M  V30 12181 O 1161.95 -2.71448 3.10467 0
M  V30 12182 H 1161.29 -0.224217 0.624998 0
M  V30 12183 H 1163.82 -0.070464 2.04479 0
M  V30 12184 H 1163.83 -1.98979 3.5619 0
M  V30 12185 H 1162.5 -0.945918 4.05 0
M  V30 12186 H 1161.08 -2.36053 2.88675 0
M  V30 12187 N 1163.26 -1.53291 -0.366026 0
M  V30 12188 C 1164.68 -1.61144 -0.942849 0
M  V30 12189 C 1165.03 -0.478571 -1.90274 0
M  V30 12190 O 1164.15 0.395069 -2.12763 0
M  V30 12191 C 1164.75 -2.92081 -1.71681 0
M  V30 12192 C 1163.31 -3.0227 -2.24298 0
M  V30 12193 C 1162.45 -2.56436 -1.05526 0
M  V30 12194 H 1165.4 -1.58038 -0.144835 0
M  V30 12195 H 1165.42 -2.79858 -2.57798 0
M  V30 12196 H 1164.94 -3.74513 -1.01793 0
M  V30 12197 H 1163.04 -2.24425 -2.97429 0
M  V30 12198 H 1163.15 -4.07341 -2.5221 0
M  V30 12199 H 1161.51 -2.11301 -1.42211 0
M  V30 12200 H 1162.3 -3.41285 -0.371376 0
M  V30 12201 N 1164.74 0.6258 -1.44643 0
M  V30 12202 C 1166.15 1.20751 -1.42394 0
M  V30 12203 C 1166.5 1.95685 -0.142047 0
M  V30 12204 O 1165.63 2.02715 0.757332 0
M  V30 12205 C 1166.22 2.1964 -2.57961 0
M  V30 12206 C 1164.78 2.73227 -2.5889 0
M  V30 12207 C 1163.93 1.48315 -2.34303 0
M  V30 12208 H 1166.88 0.416162 -1.53146 0
M  V30 12209 H 1166.9 3.02342 -2.31019 0
M  V30 12210 H 1166.41 1.65073 -3.51244 0
M  V30 12211 H 1164.52 3.31782 -1.69563 0
M  V30 12212 H 1164.63 3.18902 -3.57545 0
M  V30 12213 H 1162.99 1.76634 -1.83501 0
M  V30 12214 H 1163.78 0.956427 -3.29708 0
M  V30 12215 N 1166.22 1.31629 0.866686 0
M  V30 12216 C 1167.17 1.19492 1.99561 0
M  V30 12217 C 1168.16 0.102456 1.6909 0
M  V30 12218 O 1169.37 0.264571 1.78045 0
M  V30 12219 H 1165.74 0.370071 0.654638 0
M  V30 12220 H 1167.71 2.14996 2.06928 0
M  V30 12221 C 1166.46 0.92246 3.3524 0
M  V30 12222 H 1165.79 1.75524 3.59209 0
M  V30 12223 H 1167.23 0.877726 4.14816 0
M  V30 12224 C 1165.69 -0.374803 3.34809 0
M  V30 12225 O 1166.22 -1.39055 3.76864 0
M  V30 12226 N 1164.42 -0.392506 2.87937 0
M  V30 12227 H 1163.97 0.434591 2.53908 0
M  V30 12228 H 1163.93 -1.26038 2.88031 0
M  V30 12229 N 1167.7 -1.08142 1.14644 0
M  V30 12230 C 1168.95 -1.80849 0.917685 0
M  V30 12231 C 1169.28 -1.86123 -0.554249 0
M  V30 12232 O 1168.55 -1.33907 -1.41065 0
M  V30 12233 C 1168.84 -3.26325 1.52264 0
M  V30 12234 C 1168.69 -3.29244 3.06461 0
M  V30 12235 C 1170.01 -4.23375 1.20175 0
M  V30 12236 H 1167.13 -0.656559 0.334812 0
M  V30 12237 H 1169.77 -1.26595 1.41682 0
M  V30 12238 H 1167.92 -3.72656 1.09817 0
M  V30 12239 H 1169.59 -2.91216 3.57758 0
M  V30 12240 H 1167.83 -2.68438 3.40769 0
M  V30 12241 H 1168.51 -4.31785 3.43897 0
M  V30 12242 H 1170.98 -3.85394 1.56877 0
M  V30 12243 H 1169.86 -5.23472 1.65132 0
M  V30 12244 H 1170.12 -4.41944 0.117474 0
M  V30 12245 N 1169.18 -0.941978 -1.26351 0
M  V30 12246 C 1170.14 -0.456768 -2.24602 0
M  V30 12247 C 1171.14 0.432574 -1.54872 0
M  V30 12248 O 1172.33 0.23164 -1.72653 0
M  V30 12249 C 1169.46 0.341583 -3.39184 0
M  V30 12250 H 1170.66 -1.32503 -2.69041 0
M  V30 12251 H 1168.21 -0.724021 -1.38519 0
M  V30 12252 H 1168.94 1.22806 -3.00149 0
M  V30 12253 H 1168.73 -0.296268 -3.90979 0
M  V30 12254 H 1170.22 0.670955 -4.12175 0
M  V30 12255 N 1170.66 1.40747 -0.709091 0
M  V30 12256 C 1171.59 2.33404 -0.0669763 0
M  V30 12257 C 1172.57 1.52546 0.752582 0
M  V30 12258 O 1173.75 1.81036 0.702823 0
M  V30 12259 C 1170.88 3.36476 0.860285 0
M  V30 12260 C 1169.84 4.27748 0.146828 0
M  V30 12261 C 1169.16 5.21304 1.18937 0
M  V30 12262 C 1170.46 5.12734 -0.995064 0
M  V30 12263 H 1172.16 2.87349 -0.840888 0
M  V30 12264 H 1169.7 1.38163 -0.405817 0
M  V30 12265 H 1171.65 4.00231 1.31883 0
M  V30 12266 H 1170.38 2.80912 1.66602 0
M  V30 12267 H 1169.04 3.65437 -0.291826 0
M  V30 12268 H 1168.69 4.62048 1.98798 0
M  V30 12269 H 1168.39 5.8321 0.716917 0
M  V30 12270 H 1169.91 5.87936 1.64815 0
M  V30 12271 H 1171.32 5.69979 -0.61618 0
M  V30 12272 H 1169.72 5.83649 -1.39547 0
M  V30 12273 H 1170.79 4.49097 -1.82867 0
M  V30 12274 N 1172.13 0.454803 1.50895 0
M  V30 12275 C 1173.36 -0.103936 2.06639 0
M  V30 12276 C 1173.78 -1.34943 1.32044 0
M  V30 12277 O 1173.13 -1.78393 0.384972 0
M  V30 12278 C 1173.18 -0.408546 3.59184 0
M  V30 12279 O 1172.91 0.787535 4.30963 0
M  V30 12280 C 1174.41 -1.01605 4.31499 0
M  V30 12281 H 1171.63 -0.000171839 0.671 0
M  V30 12282 H 1174.17 0.638907 1.94263 0
M  V30 12283 H 1172.33 -1.1013 3.71416 0
M  V30 12284 H 1172.74 0.52229 5.21893 0
M  V30 12285 H 1174.21 -1.17906 5.39261 0
M  V30 12286 H 1174.69 -2.00182 3.90927 0
M  V30 12287 H 1175.3 -0.362155 4.23755 0
M  V30 12288 N 1173.61 -1.56489 0.186789 0
M  V30 12289 C 1174.85 -1.99239 -0.456427 0
M  V30 12290 C 1175.22 -1.07076 -1.5937 0
M  V30 12291 O 1176.42 -1.39028 -2.30054 0
M  V30 12292 C 1174.69 -3.45553 -0.912587 0
M  V30 12293 S 1176.25 -4.1033 -1.55481 0
M  V30 12294 H 1173.06 -0.695792 -0.146267 0
M  V30 12295 H 1175.67 -1.93369 0.287899 0
M  V30 12296 H 1174.37 -4.10332 -0.0746877 0
M  V30 12297 H 1173.9 -3.55222 -1.69058 0
M  V30 12298 H 1175.92 -4.06653 -2.84338 0
M  V30 12299 N 1175.09 0.086862 -1.5736 0
M  V30 12300 C 1176.02 1.10538 -2.05678 0
M  V30 12301 C 1177 1.41281 -0.947293 0
M  V30 12302 O 1178.19 1.51169 -1.21908 0
M  V30 12303 C 1175.32 2.42302 -2.48812 0
M  V30 12304 C 1174.27 2.25948 -3.63499 0
M  V30 12305 C 1173.6 3.62961 -3.92637 0
M  V30 12306 C 1174.9 1.69319 -4.94094 0
M  V30 12307 H 1176.59 0.703371 -2.91021 0
M  V30 12308 H 1174.14 0.336895 -1.40004 0
M  V30 12309 H 1176.09 3.13833 -2.81224 0
M  V30 12310 H 1174.81 2.84454 -1.60479 0
M  V30 12311 H 1173.47 1.5686 -3.31347 0
M  V30 12312 H 1173.12 4.02656 -3.01459 0
M  V30 12313 H 1172.82 3.52862 -4.69853 0
M  V30 12314 H 1174.34 4.35946 -4.27531 0
M  V30 12315 H 1175.76 2.30699 -5.24834 0
M  V30 12316 H 1174.15 1.69957 -5.7553 0
M  V30 12317 H 1175.22 0.653318 -4.80479 0
M  V30 12318 N 1176.57 1.53483 0.357892 0
M  V30 12319 C 1177.82 1.69701 1.09754 0
M  V30 12320 C 1178.14 0.455389 1.89608 0
M  V30 12321 O 1177.41 -0.530623 1.88577 0
M  V30 12322 H 1175.99 0.62562 0.408178 0
M  V30 12323 H 1178.65 1.90696 0.402641 0
M  V30 12324 H 1177.74 2.56154 1.78302 0
M  V30 12325 N 1178.05 -0.61812 1.44973 0
M  V30 12326 C 1178.98 -1.74277 1.47318 0
M  V30 12327 C 1179.96 -1.59203 0.330627 0
M  V30 12328 O 1181.14 -1.80909 0.529558 0
M  V30 12329 C 1178.27 -3.11994 1.31823 0
M  V30 12330 C 1177.31 -3.45685 2.49809 0
M  V30 12331 S 1178.15 -3.41704 4.12309 0
M  V30 12332 C 1179.3 -4.82019 3.9926 0
M  V30 12333 H 1179.54 -1.72023 2.42478 0
M  V30 12334 H 1177.07 -0.793867 1.32428 0
M  V30 12335 H 1179.03 -3.9146 1.2357 0
M  V30 12336 H 1177.69 -3.11774 0.381521 0
M  V30 12337 H 1176.88 -4.45931 2.34864 0
M  V30 12338 H 1176.48 -2.73711 2.54869 0
M  V30 12339 H 1178.77 -5.71567 3.63754 0
M  V30 12340 H 1179.72 -5.02019 4.99382 0
M  V30 12341 H 1180.13 -4.57205 3.31095 0
M  V30 12342 N 1179.52 -1.32087 -0.859693 0
M  V30 12343 C 1180.46 -1.16426 -1.97428 0
M  V30 12344 C 1181.47 -0.100582 -1.62489 0
M  V30 12345 O 1182.66 -0.349063 -1.75054 0
M  V30 12346 C 1179.76 -0.758822 -3.30295 0
M  V30 12347 C 1178.93 -1.90971 -3.93508 0
M  V30 12348 C 1177.99 -1.48865 -5.04704 0
M  V30 12349 O 1177.02 -2.1999 -5.2497 0
M  V30 12350 N 1178.22 -0.38182 -5.79243 0
M  V30 12351 H 1180.98 -2.12433 -2.11406 0
M  V30 12352 H 1178.54 -1.24558 -1.03426 0
M  V30 12353 H 1180.54 -0.459643 -4.02081 0
M  V30 12354 H 1179.11 0.109944 -3.12407 0
M  V30 12355 H 1178.33 -2.37566 -3.14573 0
M  V30 12356 H 1179.61 -2.68032 -4.32477 0
M  V30 12357 H 1179.01 0.210268 -5.65309 0
M  V30 12358 H 1177.57 -0.142224 -6.51645 0
M  V30 12359 N 1181 1.07532 -1.15215 0
M  V30 12360 C 1181.93 2.14598 -0.805006 0
M  V30 12361 C 1182.95 1.61778 0.182152 0
M  V30 12362 O 1184.14 1.78453 -0.040834 0
M  V30 12363 C 1181.24 3.38444 -0.175736 0
M  V30 12364 C 1180.41 4.20621 -1.19986 0
M  V30 12365 C 1179.47 5.22851 -0.592705 0
M  V30 12366 O 1178.49 5.55121 -1.25815 0
M  V30 12367 N 1179.7 5.7711 0.626425 0
M  V30 12368 H 1182.46 2.44981 -1.7264 0
M  V30 12369 H 1180.02 1.23423 -1.04778 0
M  V30 12370 H 1182.01 4.03969 0.243166 0
M  V30 12371 H 1180.58 3.0579 0.64896 0
M  V30 12372 H 1179.8 3.50941 -1.79539 0
M  V30 12373 H 1181.09 4.72339 -1.89139 0
M  V30 12374 H 1180.49 5.53139 1.18546 0
M  V30 12375 H 1179.05 6.44273 0.98771 0
M  V30 12376 N 1182.48 0.948665 1.2585 0
M  V30 12377 C 1183.89 0.641829 1.75321 0
M  V30 12378 C 1184.24 -0.842903 1.77171 0
M  V30 12379 O 1183.37 -1.65967 1.38867 0
M  V30 12380 C 1183.96 1.15835 3.18383 0
M  V30 12381 C 1182.52 0.901784 3.65438 0
M  V30 12382 C 1181.67 1.30489 2.44679 0
M  V30 12383 H 1184.62 1.12614 1.1182 0
M  V30 12384 H 1184.64 0.515639 3.7699 0
M  V30 12385 H 1184.15 2.23897 3.17004 0
M  V30 12386 H 1182.25 -0.164135 3.72238 0
M  V30 12387 H 1182.37 1.53405 4.53876 0
M  V30 12388 H 1180.73 0.723278 2.44215 0
M  V30 12389 H 1181.51 2.3946 2.45996 0
M  V30 12390 N 1183.96 -1.40369 0.716545 0
M  V30 12391 C 1184.92 -2.29083 0.0733105 0
M  V30 12392 C 1185.92 -1.45415 -0.686378 0
M  V30 12393 O 1187.11 -1.66316 -0.518139 0
M  V30 12394 C 1184.24 -3.28639 -0.906032 0
M  V30 12395 H 1185.44 -2.87464 0.85467 0
M  V30 12396 H 1182.99 -1.48706 0.481256 0
M  V30 12397 H 1183.72 -2.75279 -1.71441 0
M  V30 12398 H 1183.51 -3.90405 -0.364163 0
M  V30 12399 H 1185 -3.95066 -1.35324 0
M  V30 12400 N 1185.44 -0.462799 -1.50652 0
M  V30 12401 C 1186.37 0.371837 -2.26164 0
M  V30 12402 C 1187.38 0.96432 -1.31167 0
M  V30 12403 O 1188.57 0.854134 -1.56738 0
M  V30 12404 C 1185.67 1.53469 -3.0216 0
M  V30 12405 C 1184.84 1.0565 -4.24449 0
M  V30 12406 C 1183.9 2.09243 -4.82808 0
M  V30 12407 O 1182.93 1.67641 -5.43953 0
M  V30 12408 N 1184.13 3.41976 -4.69076 0
M  V30 12409 H 1186.9 -0.275476 -2.98431 0
M  V30 12410 H 1184.46 -0.293109 -1.59225 0
M  V30 12411 H 1186.45 2.22446 -3.38083 0
M  V30 12412 H 1185.02 2.08685 -2.32743 0
M  V30 12413 H 1184.24 0.192895 -3.93728 0
M  V30 12414 H 1185.53 0.714796 -5.03754 0
M  V30 12415 H 1184.92 3.78491 -4.20429 0
M  V30 12416 H 1183.48 4.06775 -5.09291 0
M  V30 12417 N 1186.91 1.56388 -0.195085 0
M  V30 12418 C 1188.14 2.02406 0.452399 0
M  V30 12419 C 1188.56 1.07432 1.54402 0
M  V30 12420 O 1187.92 0.0578246 1.81208 0
M  V30 12421 C 1187.97 3.46864 0.985778 0
M  V30 12422 O 1187.07 3.55007 2.09867 0
M  V30 12423 H 1186.42 0.65553 0.105719 0
M  V30 12424 H 1188.95 2.02299 -0.30596 0
M  V30 12425 H 1188.96 3.86655 1.30238 0
M  V30 12426 H 1187.63 4.15481 0.186662 0
M  V30 12427 H 1186.21 3.2709 1.79071 0
M  V30 12428 N 1188.39 -0.0785156 1.57404 0
M  V30 12429 C 1189.32 -1.12058 1.99939 0
M  V30 12430 C 1190.34 -1.35372 0.904343 0
M  V30 12431 O 1191.53 -1.33731 1.1823 0
M  V30 12432 C 1188.63 -2.47285 2.31739 0
M  V30 12433 C 1187.8 -2.44021 3.63005 0
M  V30 12434 C 1186.86 -3.61303 3.82552 0
M  V30 12435 O 1185.88 -3.43039 4.54217 0
M  V30 12436 N 1187.09 -4.81404 3.24392 0
M  V30 12437 H 1189.85 -0.758416 2.89945 0
M  V30 12438 H 1187.41 -0.267266 1.59679 0
M  V30 12439 H 1189.4 -3.24377 2.41995 0
M  V30 12440 H 1187.97 -2.75529 1.47657 0
M  V30 12441 H 1187.19 -1.52361 3.63565 0
M  V30 12442 H 1188.48 -2.38934 4.49208 0
M  V30 12443 H 1187.88 -4.99147 2.66211 0
M  V30 12444 H 1186.44 -5.56031 3.40107 0
M  V30 12445 N 1189.87 -1.5367 -0.349747 0
M  V30 12446 C 1190.8 -1.77528 -1.4497 0
M  V30 12447 C 1191.82 -0.656412 -1.4898 0
M  V30 12448 O 1193 -0.933016 -1.52174 0
M  V30 12449 C 1190.1 -1.85445 -2.8366 0
M  V30 12450 C 1189.28 -3.15295 -3.03163 0
M  V30 12451 C 1188.34 -3.1425 -4.22059 0
M  V30 12452 O 1187.36 -3.87994 -4.16472 0
M  V30 12453 N 1188.56 -2.36181 -5.30282 0
M  V30 12454 H 1191.33 -2.72444 -1.24877 0
M  V30 12455 H 1188.89 -1.52644 -0.539586 0
M  V30 12456 H 1190.88 -1.82204 -3.61364 0
M  V30 12457 H 1189.45 -0.977436 -2.96926 0
M  V30 12458 H 1188.67 -3.31711 -2.12983 0
M  V30 12459 H 1189.96 -4.01078 -3.13072 0
M  V30 12460 H 1189.36 -1.75808 -5.37688 0
M  V30 12461 H 1187.92 -2.38744 -6.06502 0
M  V30 12462 N 1191.35 0.610423 -1.45298 0
M  V30 12463 C 1192.59 1.37154 -1.49388 0
M  V30 12464 C 1192.93 1.93737 -0.134025 0
M  V30 12465 O 1192.2 1.74888 0.851138 0
M  V30 12466 C 1192.49 2.52155 -2.5708 0
M  V30 12467 C 1192.34 2.00786 -4.02498 0
M  V30 12468 C 1193.66 3.54294 -2.61082 0
M  V30 12469 H 1190.78 0.497346 -0.54389 0
M  V30 12470 H 1193.42 0.688358 -1.77092 0
M  V30 12471 H 1191.57 3.10434 -2.33587 0
M  V30 12472 H 1193.24 1.47178 -4.37191 0
M  V30 12473 H 1191.48 1.31809 -4.1329 0
M  V30 12474 H 1192.15 2.83674 -4.73533 0
M  V30 12475 H 1194.63 3.05851 -2.82125 0
M  V30 12476 H 1193.51 4.32254 -3.38301 0
M  V30 12477 H 1193.77 4.09726 -1.66063 0
M  V30 12478 N 1192.83 1.32541 0.852676 0
M  V30 12479 C 1194.05 1.2622 1.6394 0
M  V30 12480 C 1194.47 -0.169455 1.88038 0
M  V30 12481 O 1193.83 -1.10719 1.45078 0
M  V30 12482 C 1193.88 2.02062 2.99755 0
M  V30 12483 O 1193.6 3.39641 2.76723 0
M  V30 12484 C 1195.1 2.02787 3.94198 0
M  V30 12485 H 1192.32 0.435405 0.510552 0
M  V30 12486 H 1194.86 1.74696 1.06309 0
M  V30 12487 H 1193.02 1.57303 3.54026 0
M  V30 12488 H 1193.43 3.78484 3.63111 0
M  V30 12489 H 1194.91 2.60333 4.86755 0
M  V30 12490 H 1195.38 1.01464 4.27319 0
M  V30 12491 H 1195.99 2.47504 3.45864 0
M  V30 12492 N 1194.3 -1.0692 1.15784 0
M  V30 12493 C 1195.55 -1.78983 0.929944 0
M  V30 12494 C 1195.87 -1.87884 -0.543969 0
M  V30 12495 O 1197.07 -2.56513 -0.889578 0
M  V30 12496 C 1195.53 -3.21657 1.61446 0
M  V30 12497 C 1195.14 -3.20943 3.12569 0
M  V30 12498 C 1196.88 -3.98299 1.46828 0
M  V30 12499 C 1194.79 -4.58298 3.73788 0
M  V30 12500 H 1193.72 -0.670809 0.344284 0
M  V30 12501 H 1196.37 -1.19975 1.38846 0
M  V30 12502 H 1194.75 -3.80885 1.08364 0
M  V30 12503 H 1195.92 -2.71334 3.72444 0
M  V30 12504 H 1194.24 -2.57799 3.26999 0
M  V30 12505 H 1196.84 -4.99822 1.89952 0
M  V30 12506 H 1197.18 -4.14213 0.416358 0
M  V30 12507 H 1197.71 -3.45577 1.97031 0
M  V30 12508 H 1194.45 -4.47588 4.789 0
M  V30 12509 H 1193.97 -5.08126 3.18698 0
M  V30 12510 H 1195.65 -5.27262 3.74972 0
M  V30 12511 N 1195.78 -0.955326 -1.25345 0
M  V30 12512 C 1196.71 -0.4334 -2.25065 0
M  V30 12513 C 1197.73 0.451099 -1.56425 0
M  V30 12514 O 1198.92 0.259265 -1.76607 0
M  V30 12515 C 1196.02 0.394809 -3.36592 0
M  V30 12516 C 1195.19 -0.476856 -4.34793 0
M  V30 12517 C 1194.25 0.293269 -5.25382 0
M  V30 12518 O 1193.27 -0.30857 -5.68363 0
M  V30 12519 N 1194.48 1.58617 -5.58409 0
M  V30 12520 H 1197.24 -1.29073 -2.70482 0
M  V30 12521 H 1194.8 -0.825764 -1.39258 0
M  V30 12522 H 1196.79 0.917747 -3.94157 0
M  V30 12523 H 1195.36 1.153 -2.90559 0
M  V30 12524 H 1194.58 -1.18089 -3.76097 0
M  V30 12525 H 1195.87 -1.07178 -4.97384 0
M  V30 12526 H 1195.27 2.09705 -5.25395 0
M  V30 12527 H 1193.83 2.05506 -6.18555 0
M  V30 12528 N 1197.26 1.39987 -0.723979 0
M  V30 12529 C 1198.51 2.01028 -0.267511 0
M  V30 12530 C 1198.84 1.57295 1.13894 0
M  V30 12531 O 1198.12 0.796805 1.7743 0
M  V30 12532 C 1198.4 3.58326 -0.356971 0
M  V30 12533 C 1198.25 4.12109 -1.8024 0
M  V30 12534 C 1199.57 4.39289 0.267003 0
M  V30 12535 H 1196.69 0.730364 -0.0986775 0
M  V30 12536 H 1199.33 1.66348 -0.91806 0
M  V30 12537 H 1197.48 3.88001 0.196908 0
M  V30 12538 H 1199.15 3.93199 -2.41231 0
M  V30 12539 H 1197.4 3.66082 -2.32737 0
M  V30 12540 H 1198.07 5.21261 -1.81634 0
M  V30 12541 H 1200.54 4.15595 -0.20503 0
M  V30 12542 H 1199.42 5.48624 0.174004 0
M  V30 12543 H 1199.68 4.20931 1.35164 0
M  V30 12544 N 1198.74 0.470782 1.50404 0
M  V30 12545 C 1199.67 -0.359838 2.26358 0
M  V30 12546 C 1200.68 -0.95735 1.31676 0
M  V30 12547 O 1201.87 -0.84581 1.57189 0
M  V30 12548 C 1198.97 -1.51864 3.02969 0
M  V30 12549 C 1198.15 -1.03397 4.25003 0
M  V30 12550 C 1197.21 -2.06679 4.83911 0
M  V30 12551 O 1196.23 -1.64754 5.44835 0
M  V30 12552 N 1197.43 -3.39484 4.70883 0
M  V30 12553 H 1200.2 0.291299 2.98281 0
M  V30 12554 H 1197.76 0.301549 1.59067 0
M  V30 12555 H 1199.75 -2.2065 3.39258 0
M  V30 12556 H 1198.32 -2.07448 2.33846 0
M  V30 12557 H 1197.54 -0.172012 3.93825 0
M  V30 12558 H 1198.83 -0.68807 5.04126 0
M  V30 12559 H 1198.23 -3.76256 4.22431 0
M  V30 12560 H 1196.78 -4.04068 5.11441 0
M  V30 12561 N 1200.22 -1.56282 0.203376 0
M  V30 12562 C 1201.13 -2.23086 -0.725922 0
M  V30 12563 C 1202.14 -1.23258 -1.22814 0
M  V30 12564 O 1203.32 -1.5602 -1.27357 0
M  V30 12565 C 1200.38 -2.88358 -1.92485 0
M  V30 12566 C 1199.45 -4.03479 -1.46639 0
M  V30 12567 C 1198.68 -4.65629 -2.60816 0
M  V30 12568 O 1198.9 -4.2672 -3.78506 0
M  V30 12569 O 1197.84 -5.54949 -2.33056 0
M  V30 12570 H 1201.66 -3.03124 -0.18694 0
M  V30 12571 H 1199.25 -1.49377 -0.0262829 0
M  V30 12572 H 1201.13 -3.29623 -2.62539 0
M  V30 12573 H 1199.8 -2.11294 -2.45228 0
M  V30 12574 H 1198.71 -3.66821 -0.734396 0
M  V30 12575 H 1200.04 -4.82232 -0.985535 0
M  V30 12576 N 1201.7 0.070167 -1.57444 0
M  V30 12577 C 1203.11 0.621805 -1.76041 0
M  V30 12578 C 1203.46 1.77824 -0.829047 0
M  V30 12579 O 1202.58 2.16396 -0.0135453 0
M  V30 12580 C 1203.18 1.13476 -3.19231 0
M  V30 12581 C 1201.74 1.63225 -3.39167 0
M  V30 12582 C 1200.88 0.552369 -2.71743 0
M  V30 12583 H 1203.83 -0.156009 -1.57931 0
M  V30 12584 H 1203.86 2.00352 -3.2348 0
M  V30 12585 H 1203.37 0.29288 -3.86993 0
M  V30 12586 H 1201.47 2.49733 -2.76522 0
M  V30 12587 H 1201.58 1.70807 -4.47618 0
M  V30 12588 H 1199.95 0.997797 -2.34342 0
M  V30 12589 H 1200.73 -0.279354 -3.42162 0
M  V30 12590 N 1203.17 1.53854 0.341593 0
M  V30 12591 C 1204.42 1.71447 1.08322 0
M  V30 12592 C 1204.75 0.477289 1.88243 0
M  V30 12593 O 1204.03 -0.525695 1.87261 0
M  V30 12594 C 1204.31 2.97917 2.02281 0
M  V30 12595 C 1204.16 4.31847 1.25809 0
M  V30 12596 C 1205.48 3.20065 3.0207 0
M  V30 12597 H 1202.6 0.623847 0.392408 0
M  V30 12598 H 1205.24 1.86527 0.361594 0
M  V30 12599 H 1203.39 2.85191 2.63815 0
M  V30 12600 H 1205.07 4.56427 0.668737 0
M  V30 12601 H 1203.31 4.30169 0.560119 0
M  V30 12602 H 1203.98 5.16522 1.94704 0
M  V30 12603 H 1206.46 3.32135 2.50651 0
M  V30 12604 H 1205.33 4.09947 3.65013 0
M  V30 12605 H 1205.59 2.36452 3.73554 0
M  V30 12606 N 1204.65 -0.602709 1.4562 0
M  V30 12607 C 1205.93 -1.36224 1.40366 0
M  V30 12608 C 1206.31 -2.1096 0.0767645 0
M  V30 12609 O 1205.66 -2.08207 -0.941378 0
M  V30 12610 C 1205.87 -2.30499 2.62052 0
M  V30 12611 C 1207.21 -2.92954 3.07348 0
M  V30 12612 O 1208.24 -2.40818 2.62459 0
M  V30 12613 O 1207.1 -3.87601 3.85263 0
M  V30 12614 H 1204.19 -0.611064 0.557253 0
M  V30 12615 H 1206.74 -0.625391 1.57756 0
M  V30 12616 H 1205.51 -1.74566 3.50203 0
M  V30 12617 H 1205.13 -3.11556 2.4702 0
M  V30 12618 N 1206.13 -1.32992 -0.845635 0
M  V30 12619 C 1207.06 -1.17018 -1.95913 0
M  V30 12620 C 1208.04 -0.0673433 -1.6246 0
M  V30 12621 O 1209.22 -0.22833 -1.87112 0
M  V30 12622 C 1206.35 -0.793343 -3.29278 0
M  V30 12623 C 1205.4 -1.90271 -3.81705 0
M  V30 12624 S 1206.23 -3.51256 -4.04202 0
M  V30 12625 C 1207.39 -3.15564 -5.40528 0
M  V30 12626 H 1207.62 -2.11278 -2.09163 0
M  V30 12627 H 1205.15 -1.17756 -0.998644 0
M  V30 12628 H 1207.11 -0.582694 -4.06343 0
M  V30 12629 H 1205.77 0.130539 -3.13829 0
M  V30 12630 H 1204.96 -1.59225 -4.78188 0
M  V30 12631 H 1204.57 -2.06968 -3.11513 0
M  V30 12632 H 1206.86 -2.65969 -6.23111 0
M  V30 12633 H 1207.8 -4.11102 -5.76542 0
M  V30 12634 H 1208.21 -2.52341 -5.04959 0
M  V30 12635 N 1207.61 1.06304 -1.1635 0
M  V30 12636 C 1208.54 2.15745 -0.893103 0
M  V30 12637 C 1209.52 1.69341 0.160531 0
M  V30 12638 O 1210.7 1.94196 0.0126526 0
M  V30 12639 C 1207.83 3.45066 -0.393287 0
M  V30 12640 C 1206.79 4.04978 -1.38482 0
M  V30 12641 C 1206.11 5.29507 -0.743409 0
M  V30 12642 C 1207.41 4.4377 -2.75438 0
M  V30 12643 H 1209.11 2.38622 -1.80831 0
M  V30 12644 H 1206.65 1.14681 -0.870878 0
M  V30 12645 H 1208.61 4.20964 -0.191607 0
M  V30 12646 H 1207.33 3.21808 0.557426 0
M  V30 12647 H 1205.99 3.31136 -1.57304 0
M  V30 12648 H 1205.64 5.02545 0.213787 0
M  V30 12649 H 1205.34 5.7055 -1.40521 0
M  V30 12650 H 1206.86 6.08102 -0.551746 0
M  V30 12651 H 1208.28 5.1075 -2.60398 0
M  V30 12652 H 1206.67 4.95797 -3.38091 0
M  V30 12653 H 1207.74 3.54636 -3.30699 0
M  V30 12654 N 1209.09 0.96196 1.24836 0
M  V30 12655 C 1210.31 0.637709 1.97353 0
M  V30 12656 C 1210.74 -0.784919 1.7094 0
M  V30 12657 O 1210.09 -1.53188 0.969694 0
M  V30 12658 C 1210.14 0.911485 3.4889 0
M  V30 12659 O 1209.25 -0.00601668 4.124 0
M  V30 12660 H 1208.59 0.241685 0.618453 0
M  V30 12661 H 1211.12 1.29055 1.58764 0
M  V30 12662 H 1211.13 0.840702 3.99245 0
M  V30 12663 H 1209.8 1.9483 3.67442 0
M  V30 12664 H 1208.38 0.117597 3.72715 0
M  V30 12665 N 1210.56 -1.39601 0.731392 0
M  V30 12666 C 1211.51 -2.32469 0.0781328 0
M  V30 12667 C 1212.51 -1.52873 -0.729811 0
M  V30 12668 O 1213.71 -1.68563 -0.631402 0
M  V30 12669 H 1210.09 -0.751972 0.00646515 0
M  V30 12670 H 1212.06 -2.85196 0.877833 0
M  V30 12671 C 1210.81 -3.37948 -0.817717 0
M  V30 12672 H 1210.13 -3.99272 -0.205417 0
M  V30 12673 H 1211.57 -4.05387 -1.24248 0
M  V30 12674 C 1210.03 -2.74703 -1.95038 0
M  V30 12675 O 1210.56 -2.62266 -3.04269 0
M  V30 12676 N 1208.76 -2.32845 -1.73872 0
M  V30 12677 H 1208.31 -2.43161 -0.850321 0
M  V30 12678 H 1208.27 -1.90869 -2.49833 0
M  V30 12679 N 1212.04 -0.478751 -1.50152 0
M  V30 12680 C 1212.98 0.357584 -2.25381 0
M  V30 12681 C 1213.95 0.98965 -1.29014 0
M  V30 12682 O 1215.14 1.02409 -1.58255 0
M  V30 12683 C 1212.26 1.50167 -3.03591 0
M  V30 12684 C 1211.31 0.986215 -4.14941 0
M  V30 12685 S 1212.14 -0.105239 -5.35397 0
M  V30 12686 C 1213.3 1.04254 -6.17156 0
M  V30 12687 H 1213.53 -0.280985 -2.95969 0
M  V30 12688 H 1211.07 -0.263734 -1.52131 0
M  V30 12689 H 1213.02 2.15733 -3.49241 0
M  V30 12690 H 1211.68 2.11178 -2.32514 0
M  V30 12691 H 1210.88 1.84295 -4.69096 0
M  V30 12692 H 1210.48 0.408141 -3.71766 0
M  V30 12693 H 1212.77 1.95255 -6.48754 0
M  V30 12694 H 1213.71 0.540083 -7.06037 0
M  V30 12695 H 1214.12 1.29983 -5.49331 0
M  V30 12696 N 1213.52 1.56172 -0.211661 0
M  V30 12697 C 1214.93 1.84307 0.297982 0
M  V30 12698 C 1215.28 1.1328 1.60194 0
M  V30 12699 O 1214.41 0.399137 2.12687 0
M  V30 12700 C 1215 3.34348 0.547428 0
M  V30 12701 C 1213.56 3.62835 1.0014 0
M  V30 12702 C 1212.71 2.77237 0.0590326 0
M  V30 12703 H 1215.66 1.5262 -0.435083 0
M  V30 12704 H 1215.68 3.54018 1.39469 0
M  V30 12705 H 1215.19 3.86015 -0.401778 0
M  V30 12706 H 1213.29 3.16616 1.96431 0
M  V30 12707 H 1213.41 4.70899 0.882653 0
M  V30 12708 H 1211.77 2.48377 0.564005 0
M  V30 12709 H 1212.55 3.31699 -0.884913 0
M  V30 12710 N 1215 -0.0618163 1.57479 0
M  V30 12711 C 1216.25 -0.757569 1.87364 0
M  V30 12712 C 1216.57 -1.77607 0.805025 0
M  V30 12713 O 1215.84 -1.95202 -0.165216 0
M  V30 12714 H 1214.42 -0.28278 0.691408 0
M  V30 12715 H 1217.08 -0.0355354 1.94868 0
M  V30 12716 H 1216.18 -1.26758 2.85199 0
M  V30 12717 N 1216.48 -1.54033 -0.333429 0
M  V30 12718 C 1217.7 -1.75716 -1.09232 0
M  V30 12719 C 1218.12 -0.501076 -1.82029 0
M  V30 12720 O 1217.48 0.527772 -1.74702 0
M  V30 12721 C 1217.53 -2.9439 -2.09802 0
M  V30 12722 O 1217.25 -4.15141 -1.39963 0
M  V30 12723 C 1218.75 -3.28206 -2.97987 0
M  V30 12724 H 1215.97 -0.586859 -0.325326 0
M  V30 12725 H 1218.51 -2.0089 -0.382555 0
M  V30 12726 H 1216.67 -2.71518 -2.76327 0
M  V30 12727 H 1217.08 -4.81826 -2.0723 0
M  V30 12728 H 1218.56 -4.14568 -3.64469 0
M  V30 12729 H 1219.03 -2.44944 -3.64553 0
M  V30 12730 H 1219.64 -3.5312 -2.37036 0
M  V30 12731 N 1217.95 0.594978 -1.45938 0
M  V30 12732 C 1218.92 1.68688 -1.55168 0
M  V30 12733 C 1219.92 1.54945 -0.429951 0
M  V30 12734 O 1221.11 1.59785 -0.693859 0
M  V30 12735 C 1218.24 3.0804 -1.46027 0
M  V30 12736 H 1219.43 1.61866 -2.52467 0
M  V30 12737 H 1216.99 0.811785 -1.33565 0
M  V30 12738 H 1217.72 3.20428 -0.499614 0
M  V30 12739 H 1217.51 3.19423 -2.27401 0
M  V30 12740 H 1219 3.8755 -1.55546 0
M  V30 12741 N 1219.43 1.33438 0.838571 0
M  V30 12742 C 1220.4 1.23632 1.92997 0
M  V30 12743 C 1221.4 0.155302 1.60048 0
M  V30 12744 O 1222.59 0.406852 1.69382 0
M  V30 12745 C 1219.72 0.90512 3.28665 0
M  V30 12746 H 1220.91 2.20643 2.03117 0
M  V30 12747 H 1218.46 1.17501 1.03069 0
M  V30 12748 H 1219.2 -0.0624833 3.2424 0
M  V30 12749 H 1218.98 1.68688 3.53959 0
M  V30 12750 H 1220.47 0.861262 4.08622 0
M  V30 12751 N 1220.91 -1.05686 1.16912 0
M  V30 12752 C 1222.16 -1.78244 0.95254 0
M  V30 12753 C 1222.48 -1.87924 -0.520525 0
M  V30 12754 O 1221.75 -1.39239 -1.37802 0
M  V30 12755 H 1220.33 -0.660228 0.349439 0
M  V30 12756 H 1222.99 -1.27634 1.47294 0
M  V30 12757 H 1222.09 -2.80102 1.37657 0
M  V30 12758 N 1222.39 -0.968567 -1.24324 0
M  V30 12759 C 1223.61 -0.648166 -1.97012 0
M  V30 12760 C 1224.04 0.775842 -1.71354 0
M  V30 12761 O 1223.4 1.52672 -0.977804 0
M  V30 12762 C 1223.44 -0.929974 -3.48402 0
M  V30 12763 O 1222.55 -0.015854 -4.12397 0
M  V30 12764 H 1221.89 -0.244961 -0.617163 0
M  V30 12765 H 1224.42 -1.29895 -1.58077 0
M  V30 12766 H 1224.43 -0.861863 -3.98793 0
M  V30 12767 H 1223.1 -1.96776 -3.66404 0
M  V30 12768 H 1221.68 -0.137361 -3.72647 0
M  V30 12769 N 1223.87 1.39211 -0.738786 0
M  V30 12770 C 1225.09 2.05256 -0.297421 0
M  V30 12771 C 1225.52 1.55341 1.06069 0
M  V30 12772 O 1224.87 0.698823 1.67291 0
M  V30 12773 C 1224.92 3.59239 -0.312969 0
M  V30 12774 O 1224.03 4.06448 0.698112 0
M  V30 12775 H 1223.37 0.650245 -0.134454 0
M  V30 12776 H 1225.9 1.78173 -1.00577 0
M  V30 12777 H 1225.91 4.07691 -0.158675 0
M  V30 12778 H 1224.58 3.94931 -1.30394 0
M  V30 12779 H 1223.16 3.69401 0.509643 0
M  V30 12780 N 1225.34 0.486708 1.49896 0
M  V30 12781 C 1226.59 -0.0627279 2.02003 0
M  V30 12782 C 1226.91 -1.38799 1.36967 0
M  V30 12783 O 1226.18 -1.88868 0.520173 0
M  V30 12784 H 1224.76 -0.0261718 0.746541 0
M  V30 12785 H 1227.43 0.640692 1.84068 0
M  V30 12786 H 1226.52 -0.202856 3.1144 0
M  V30 12787 N 1226.82 -1.56058 0.219941 0
M  V30 12788 C 1228.24 -1.59024 -0.135476 0
M  V30 12789 C 1228.44 -1.23672 -1.59083 0
M  V30 12790 O 1227.5 -0.971197 -2.33075 0
M  V30 12791 C 1228.81 -3.00103 0.189356 0
M  V30 12792 C 1230.36 -3.12724 0.131463 0
M  V30 12793 C 1230.83 -4.55977 0.429947 0
M  V30 12794 N 1232.32 -4.61643 0.37946 0
M  V30 12795 C 1233.06 -5.70419 0.58393 0
M  V30 12796 N 1232.55 -6.87565 0.850088 0
M  V30 12797 N 1234.35 -5.59722 0.516477 0
M  V30 12798 H 1226.5 -1.77313 1.16935 0
M  V30 12799 H 1228.76 -0.824096 0.468583 0
M  V30 12800 H 1228.47 -3.30616 1.19941 0
M  V30 12801 H 1228.34 -3.73919 -0.49641 0
M  V30 12802 H 1230.73 -2.82008 -0.869223 0
M  V30 12803 H 1230.81 -2.41241 0.85068 0
M  V30 12804 H 1230.45 -4.8741 1.42806 0
M  V30 12805 H 1230.38 -5.25684 -0.310444 0
M  V30 12806 H 1232.87 -3.77465 0.181373 0
M  V30 12807 H 1233.19 -7.66378 0.994251 0
M  V30 12808 H 1231.53 -6.89313 0.887265 0
M  V30 12809 H 1234.72 -4.6708 0.308784 0
M  V30 12810 H 1234.9 -6.4443 0.679236 0
M  V30 12811 N 1228.3 0.053464 -1.57509 0
M  V30 12812 C 1229.55 0.747622 -1.87763 0
M  V30 12813 C 1229.87 1.77178 -0.814433 0
M  V30 12814 O 1229.14 1.95287 0.154862 0
M  V30 12815 H 1227.72 0.279109 -0.692898 0
M  V30 12816 H 1230.38 0.0252006 -1.94884 0
M  V30 12817 H 1229.48 1.25244 -2.85868 0
M  V30 12818 N 1229.78 1.54207 0.325255 0
M  V30 12819 C 1231.03 1.71544 1.06091 0
M  V30 12820 C 1231.34 0.495137 1.89229 0
M  V30 12821 O 1232.55 0.54982 2.65874 0
M  V30 12822 C 1231 3.03412 1.93569 0
M  V30 12823 C 1230.61 4.32842 1.1555 0
M  V30 12824 C 1232.36 3.30113 2.66881 0
M  V30 12825 C 1230.26 5.55773 2.02164 0
M  V30 12826 H 1229.19 0.639281 0.399795 0
M  V30 12827 H 1231.84 1.80701 0.319261 0
M  V30 12828 H 1230.23 2.88158 2.71626 0
M  V30 12829 H 1231.4 4.58857 0.42276 0
M  V30 12830 H 1229.71 4.12893 0.539277 0
M  V30 12831 H 1232.31 4.19151 3.31988 0
M  V30 12832 H 1232.65 2.47918 3.34428 0
M  V30 12833 H 1233.19 3.46227 1.95887 0
M  V30 12834 H 1229.93 6.40565 1.39128 0
M  V30 12835 H 1229.45 5.3398 2.73177 0
M  V30 12836 H 1231.13 5.92113 2.60789 0
M  V30 12837 N 1231.26 -0.58723 1.46251 0
M  V30 12838 C 1232.48 -1.37661 1.55126 0
M  V30 12839 C 1232.91 -1.87123 0.191489 0
M  V30 12840 O 1232.27 -1.6131 -0.827576 0
M  V30 12841 C 1232.31 -2.54324 2.5564 0
M  V30 12842 O 1231.42 -3.55617 2.0883 0
M  V30 12843 H 1230.76 -0.410154 0.522178 0
M  V30 12844 H 1233.29 -0.712738 1.91784 0
M  V30 12845 H 1233.3 -3.01301 2.75103 0
M  V30 12846 H 1231.97 -2.17675 3.54387 0
M  V30 12847 H 1230.55 -3.15151 1.99335 0
M  V30 12848 N 1232.74 -1.33881 -0.831482 0
M  V30 12849 C 1233.98 -1.251 -1.58218 0
M  V30 12850 C 1234.3 0.17963 -1.94773 0
M  V30 12851 O 1235.5 0.389516 -2.68691 0
M  V30 12852 C 1233.96 -2.19246 -2.8541 0
M  V30 12853 C 1233.57 -3.6752 -2.5619 0
M  V30 12854 C 1235.31 -2.19355 -3.63433 0
M  V30 12855 C 1233.22 -4.53559 -3.79523 0
M  V30 12856 H 1232.15 -0.46469 -0.593784 0
M  V30 12857 H 1234.8 -1.58992 -0.916169 0
M  V30 12858 H 1233.18 -1.78295 -3.53591 0
M  V30 12859 H 1234.36 -4.16956 -1.96173 0
M  V30 12860 H 1232.67 -3.69774 -1.91458 0
M  V30 12861 H 1235.27 -2.80863 -4.54995 0
M  V30 12862 H 1235.61 -1.19056 -3.98913 0
M  V30 12863 H 1236.14 -2.58706 -3.02185 0
M  V30 12864 H 1232.88 -5.54762 -3.4917 0
M  V30 12865 H 1232.4 -4.08862 -4.38853 0
M  V30 12866 H 1234.08 -4.67736 -4.47025 0
M  V30 12867 N 1234.21 1.05064 -1.1747 0
M  V30 12868 C 1235.44 1.82299 -0.98903 0
M  V30 12869 C 1235.86 1.82441 0.457907 0
M  V30 12870 O 1235.22 1.23433 1.32793 0
M  V30 12871 C 1235.27 3.26239 -1.53624 0
M  V30 12872 O 1234.37 4.05507 -0.750857 0
M  V30 12873 H 1233.71 0.563601 -0.35107 0
M  V30 12874 H 1236.24 1.32386 -1.55997 0
M  V30 12875 H 1236.25 3.77038 -1.55906 0
M  V30 12876 H 1234.93 3.25451 -2.58949 0
M  V30 12877 H 1233.51 3.64227 -0.799548 0
M  V30 12878 N 1235.69 0.975146 1.23809 0
M  V30 12879 C 1237.1 0.678873 1.7392 0
M  V30 12880 C 1237.45 -0.805133 1.78919 0
M  V30 12881 O 1236.58 -1.62984 1.42356 0
M  V30 12882 C 1237.17 1.22562 3.15854 0
M  V30 12883 C 1235.73 0.979096 3.63443 0
M  V30 12884 C 1234.88 1.35649 2.41857 0
M  V30 12885 H 1237.83 1.14961 1.09406 0
M  V30 12886 H 1237.85 0.595489 3.75811 0
M  V30 12887 H 1237.36 2.30571 3.12184 0
M  V30 12888 H 1235.46 -0.0851407 3.72503 0
M  V30 12889 H 1235.58 1.62998 4.5052 0
M  V30 12890 H 1233.94 0.774916 2.42626 0
M  V30 12891 H 1234.72 2.44624 2.40861 0
M  V30 12892 N 1237.17 -1.38817 0.746158 0
M  V30 12893 C 1238.39 -2.05096 0.308302 0
M  V30 12894 C 1238.82 -1.55902 -1.05244 0
M  V30 12895 O 1238.18 -0.707685 -1.66918 0
M  V30 12896 C 1238.23 -3.59068 0.332016 0
M  V30 12897 O 1237.33 -4.06813 -0.676547 0
M  V30 12898 H 1236.67 -0.649523 0.1379 0
M  V30 12899 H 1239.2 -1.77637 1.0152 0
M  V30 12900 H 1239.21 -4.07601 0.180293 0
M  V30 12901 H 1237.89 -3.94234 1.32487 0
M  V30 12902 H 1236.46 -3.69666 -0.490046 0
M  V30 12903 N 1238.65 -0.49465 -1.49636 0
M  V30 12904 C 1239.61 0.276064 -2.27531 0
M  V30 12905 C 1240.61 0.899619 -1.3328 0
M  V30 12906 O 1241.8 0.765136 -1.56497 0
M  V30 12907 C 1238.93 1.39547 -3.1103 0
M  V30 12908 H 1240.13 -0.407381 -2.9712 0
M  V30 12909 H 1237.68 -0.249416 -1.54297 0
M  V30 12910 H 1238.41 2.11326 -2.45992 0
M  V30 12911 H 1238.2 0.953877 -3.8032 0
M  V30 12912 H 1239.69 1.93853 -3.69879 0
M  V30 12913 N 1240.13 1.55939 -0.228214 0
M  V30 12914 C 1241.37 1.98084 0.400884 0
M  V30 12915 C 1241.69 1.11727 1.59819 0
M  V30 12916 O 1240.96 0.195794 1.94919 0
M  V30 12917 H 1239.54 0.731558 0.151102 0
M  V30 12918 H 1242.21 1.92211 -0.322659 0
M  V30 12919 H 1241.3 3.03617 0.722706 0
M  V30 12920 N 1241.6 -0.0451101 1.57535 0
M  V30 12921 C 1242.54 -1.07792 2.02271 0
M  V30 12922 C 1243.55 -1.33423 0.932854 0
M  V30 12923 O 1244.74 -1.31193 1.2104 0
M  V30 12924 C 1241.84 -2.42314 2.36933 0
M  V30 12925 C 1241.01 -2.36266 3.68099 0
M  V30 12926 C 1240.07 -3.53108 3.9013 0
M  V30 12927 O 1239.1 -3.33327 4.61391 0
M  V30 12928 N 1240.3 -4.74415 3.3453 0
M  V30 12929 H 1243.06 -0.696744 2.91489 0
M  V30 12930 H 1240.62 -0.233336 1.6021 0
M  V30 12931 H 1242.62 -3.19171 2.48821 0
M  V30 12932 H 1241.19 -2.72335 1.53468 0
M  V30 12933 H 1240.41 -1.44615 3.66715 0
M  V30 12934 H 1241.69 -2.29351 4.54175 0
M  V30 12935 H 1241.09 -4.93388 2.76739 0
M  V30 12936 H 1239.65 -5.48692 3.51825 0
M  V30 12937 N 1243.08 -1.54377 -0.317073 0
M  V30 12938 C 1244.02 -1.7907 -1.41453 0
M  V30 12939 C 1244.99 -0.641012 -1.49432 0
M  V30 12940 O 1246.18 -0.879179 -1.66741 0
M  V30 12941 C 1243.3 -1.91307 -2.79498 0
M  V30 12942 C 1242.35 -3.13639 -2.8902 0
M  V30 12943 S 1243.18 -4.72093 -2.52762 0
M  V30 12944 C 1244.34 -4.87245 -3.92866 0
M  V30 12945 H 1244.57 -2.71875 -1.20296 0
M  V30 12946 H 1242.11 -1.45583 -0.514279 0
M  V30 12947 H 1244.06 -1.99043 -3.59015 0
M  V30 12948 H 1242.72 -0.994687 -2.97934 0
M  V30 12949 H 1241.92 -3.18955 -3.90235 0
M  V30 12950 H 1241.52 -3.04266 -2.17481 0
M  V30 12951 H 1243.81 -4.7028 -4.87691 0
M  V30 12952 H 1244.75 -5.89344 -3.92529 0
M  V30 12953 H 1245.16 -4.15504 -3.82122 0
M  V30 12954 N 1244.56 0.579466 -1.4656 0
M  V30 12955 C 1245.49 1.70291 -1.53406 0
M  V30 12956 C 1246.51 1.57232 -0.422116 0
M  V30 12957 O 1247.69 1.64598 -0.69064 0
M  V30 12958 C 1244.79 3.08572 -1.40131 0
M  V30 12959 C 1243.97 3.47602 -2.65502 0
M  V30 12960 C 1243.03 4.64955 -2.4638 0
M  V30 12961 O 1242.05 4.70653 -3.20116 0
M  V30 12962 N 1243.25 5.60041 -1.52756 0
M  V30 12963 H 1246.02 1.64873 -2.50274 0
M  V30 12964 H 1243.58 0.765533 -1.42658 0
M  V30 12965 H 1245.57 3.84877 -1.25106 0
M  V30 12966 H 1244.14 3.0834 -0.514322 0
M  V30 12967 H 1243.36 2.60969 -2.95446 0
M  V30 12968 H 1244.65 3.70446 -3.48779 0
M  V30 12969 H 1244.05 5.58176 -0.919587 0
M  V30 12970 H 1242.61 6.35764 -1.43693 0
M  V30 12971 N 1246.04 1.3432 0.824371 0
M  V30 12972 C 1246.97 1.2012 1.94027 0
M  V30 12973 C 1247.95 0.0931808 1.62333 0
M  V30 12974 O 1249.13 0.258069 1.86725 0
M  V30 12975 C 1246.26 0.845628 3.27974 0
M  V30 12976 C 1245.31 1.9632 3.7863 0
M  V30 12977 S 1246.14 3.57642 3.98563 0
M  V30 12978 C 1247.3 3.24124 5.35439 0
M  V30 12979 H 1247.53 2.14579 2.05775 0
M  V30 12980 H 1245.06 1.1933 0.979783 0
M  V30 12981 H 1247.02 0.647266 4.05365 0
M  V30 12982 H 1245.68 -0.0805948 3.13997 0
M  V30 12983 H 1244.87 1.66812 4.75594 0
M  V30 12984 H 1244.48 2.11897 3.08181 0
M  V30 12985 H 1246.77 2.75848 6.188 0
M  V30 12986 H 1247.71 4.20222 5.69929 0
M  V30 12987 H 1248.12 2.60343 5.00881 0
M  V30 12988 N 1247.52 -1.0444 1.18026 0
M  V30 12989 C 1248.45 -2.12388 0.86162 0
M  V30 12990 C 1249.46 -1.62204 -0.139196 0
M  V30 12991 O 1250.65 -1.78282 0.0881334 0
M  V30 12992 C 1247.75 -3.37859 0.265407 0
M  V30 12993 C 1246.92 -4.17292 1.31096 0
M  V30 12994 C 1245.98 -5.21096 0.731121 0
M  V30 12995 O 1245.01 -5.5159 1.40488 0
M  V30 12996 N 1246.21 -5.78568 -0.473194 0
M  V30 12997 H 1248.98 -2.40317 1.79074 0
M  V30 12998 H 1246.54 -1.20601 1.08014 0
M  V30 12999 H 1248.53 -4.04472 -0.135976 0
M  V30 13000 H 1247.1 -3.07403 -0.567658 0
M  V30 13001 H 1246.32 -3.46057 1.8878 0
M  V30 13002 H 1247.61 -4.67158 2.01596 0
M  V30 13003 H 1247 -5.56088 -1.03839 0
M  V30 13004 H 1245.56 -6.46665 -0.816545 0
M  V30 13005 N 1248.99 -0.981699 -1.2329 0
M  V30 13006 C 1249.94 -0.494116 -2.22581 0
M  V30 13007 C 1250.93 0.431573 -1.55004 0
M  V30 13008 O 1252.12 0.260215 -1.75077 0
M  V30 13009 C 1249.25 0.200884 -3.42712 0
M  V30 13010 C 1248.34 -0.744451 -4.17515 0
M  V30 13011 N 1248.73 -1.88762 -4.69257 0
M  V30 13012 C 1247.02 -0.558044 -4.42495 0
M  V30 13013 C 1247.73 -2.48006 -5.26182 0
M  V30 13014 N 1246.7 -1.76382 -5.14189 0
M  V30 13015 H 1250.5 -1.36616 -2.60218 0
M  V30 13016 H 1248.02 -0.842537 -1.38835 0
M  V30 13017 H 1250.01 0.567506 -4.13019 0
M  V30 13018 H 1248.67 1.0692 -3.06591 0
M  V30 13019 H 1249.69 -2.26877 -4.65561 0
M  V30 13020 H 1246.36 0.265139 -4.16657 0
M  V30 13021 H 1247.75 -3.44555 -5.76829 0
M  V30 13022 N 1250.47 1.3842 -0.753509 0
M  V30 13023 C 1251.89 1.53668 -0.431095 0
M  V30 13024 C 1252.09 1.71626 1.05578 0
M  V30 13025 O 1251.14 1.72723 1.84182 0
M  V30 13026 C 1252.46 2.74381 -1.23027 0
M  V30 13027 C 1254.01 2.8823 -1.22034 0
M  V30 13028 C 1254.48 4.11904 -2.00248 0
M  V30 13029 N 1255.97 4.18981 -1.97508 0
M  V30 13030 C 1256.71 5.13667 -2.5482 0
M  V30 13031 N 1256.2 6.14027 -3.20846 0
M  V30 13032 N 1258 5.06017 -2.44751 0
M  V30 13033 H 1250.15 1.25012 -1.71714 0
M  V30 13034 H 1252.41 0.607296 -0.727939 0
M  V30 13035 H 1252.12 2.67515 -2.28317 0
M  V30 13036 H 1251.99 3.67565 -0.847098 0
M  V30 13037 H 1254.38 2.94578 -0.175502 0
M  V30 13038 H 1254.46 1.96057 -1.64303 0
M  V30 13039 H 1254.1 4.06318 -3.04742 0
M  V30 13040 H 1254.03 5.03157 -1.55373 0
M  V30 13041 H 1256.52 3.47104 -1.49423 0
M  V30 13042 H 1256.84 6.82771 -3.61999 0
M  V30 13043 H 1255.18 6.1436 -3.24941 0
M  V30 13044 H 1258.37 4.26552 -1.92797 0
M  V30 13045 H 1258.54 5.7963 -2.89713 0
M  V30 13046 N 1251.95 0.502579 1.49372 0
M  V30 13047 C 1253.18 -0.0381429 2.06865 0
M  V30 13048 C 1253.59 -1.30674 1.36271 0
M  V30 13049 O 1252.95 -1.77078 0.441532 0
M  V30 13050 C 1253 -0.294068 3.60302 0
M  V30 13051 O 1252.72 0.924244 4.2824 0
M  V30 13052 C 1254.22 -0.878253 4.34513 0
M  V30 13053 H 1251.44 0.0211756 0.670666 0
M  V30 13054 H 1253.99 0.700387 1.92132 0
M  V30 13055 H 1252.14 -0.982583 3.74732 0
M  V30 13056 H 1252.56 0.688062 5.19967 0
M  V30 13057 H 1254.03 -1.0069 5.42739 0
M  V30 13058 H 1254.51 -1.87643 3.97098 0
M  V30 13059 H 1255.11 -0.227157 4.24693 0
M  V30 13060 N 1253.43 -1.55816 0.23648 0
M  V30 13061 C 1254.38 -2.22322 -0.68378 0
M  V30 13062 C 1255.37 -1.2074 -1.1882 0
M  V30 13063 O 1256.58 -1.38781 -1.14629 0
M  V30 13064 H 1252.95 -0.713021 -0.238966 0
M  V30 13065 H 1254.92 -2.98234 -0.0995879 0
M  V30 13066 C 1253.67 -2.92845 -1.87449 0
M  V30 13067 H 1252.99 -3.70777 -1.49548 0
M  V30 13068 H 1254.43 -3.42758 -2.49585 0
M  V30 13069 C 1252.89 -1.96139 -2.73918 0
M  V30 13070 O 1253.42 -1.48781 -3.73132 0
M  V30 13071 N 1251.63 -1.63465 -2.40266 0
M  V30 13072 H 1251.18 -2.02171 -1.59639 0
M  V30 13073 H 1251.13 -0.990239 -2.98398 0
M  V30 13074 N 1254.91 0.036755 -1.57557 0
M  V30 13075 C 1255.84 1.03939 -2.09091 0
M  V30 13076 C 1256.82 1.38196 -0.991761 0
M  V30 13077 O 1258 1.47214 -1.26656 0
M  V30 13078 C 1255.13 2.34263 -2.56394 0
M  V30 13079 C 1254.09 2.14269 -3.70504 0
M  V30 13080 C 1253.41 3.50286 -4.03985 0
M  V30 13081 C 1254.71 1.53514 -4.9923 0
M  V30 13082 H 1256.41 0.610429 -2.93111 0
M  V30 13083 H 1253.95 0.292183 -1.41005 0
M  V30 13084 H 1255.91 3.04727 -2.91066 0
M  V30 13085 H 1254.63 2.79205 -1.69447 0
M  V30 13086 H 1253.29 1.46239 -3.36169 0
M  V30 13087 H 1252.94 3.92861 -3.14116 0
M  V30 13088 H 1252.64 3.37735 -4.80842 0
M  V30 13089 H 1254.16 4.22124 -4.41184 0
M  V30 13090 H 1255.57 2.13885 -5.31908 0
M  V30 13091 H 1253.97 1.51561 -5.80646 0
M  V30 13092 H 1255.04 0.500126 -4.82314 0
M  V30 13093 N 1256.39 1.54543 0.308881 0
M  V30 13094 C 1257.32 1.79818 1.40502 0
M  V30 13095 C 1258.3 0.648927 1.4909 0
M  V30 13096 O 1259.48 0.888009 1.66273 0
M  V30 13097 C 1256.61 1.92787 2.7848 0
M  V30 13098 C 1255.65 3.15167 2.87353 0
M  V30 13099 S 1256.49 4.73427 2.50255 0
M  V30 13100 C 1257.64 4.89321 3.90276 0
M  V30 13101 H 1257.88 2.7251 1.18852 0
M  V30 13102 H 1255.41 1.45854 0.506551 0
M  V30 13103 H 1257.37 2.00944 3.57955 0
M  V30 13104 H 1256.03 1.01047 2.97403 0
M  V30 13105 H 1255.22 3.2102 3.88538 0
M  V30 13106 H 1254.82 3.05416 2.15864 0
M  V30 13107 H 1257.11 4.7286 4.8519 0
M  V30 13108 H 1258.06 5.91418 3.89398 0
M  V30 13109 H 1258.47 4.17524 3.79913 0
M  V30 13110 N 1257.86 -0.571685 1.46866 0
M  V30 13111 C 1258.83 -1.66198 1.57832 0
M  V30 13112 C 1259.83 -1.54242 0.454547 0
M  V30 13113 O 1261.02 -1.58661 0.719191 0
M  V30 13114 C 1258.15 -3.05678 1.5091 0
M  V30 13115 H 1259.34 -1.57829 2.5501 0
M  V30 13116 H 1256.89 -0.790433 1.3484 0
M  V30 13117 H 1257.63 -3.19593 0.550529 0
M  V30 13118 H 1257.41 -3.15765 2.32454 0
M  V30 13119 H 1258.9 -3.85027 1.61692 0
M  V30 13120 N 1259.34 -1.34755 -0.817236 0
M  V30 13121 C 1260.57 -1.30522 -1.60536 0
M  V30 13122 C 1260.98 0.119541 -1.88421 0
M  V30 13123 O 1260.34 1.06833 -1.47962 0
M  V30 13124 C 1260.39 -2.09939 -2.94292 0
M  V30 13125 O 1260.11 -3.46858 -2.67621 0
M  V30 13126 C 1261.61 -2.13168 -3.88683 0
M  V30 13127 H 1258.83 -0.448789 -0.498828 0
M  V30 13128 H 1261.38 -1.77453 -1.01639 0
M  V30 13129 H 1259.53 -1.66634 -3.49731 0
M  V30 13130 H 1259.95 -3.87979 -3.52949 0
M  V30 13131 H 1261.42 -2.73147 -4.79682 0
M  V30 13132 H 1261.9 -1.12758 -4.24479 0
M  V30 13133 H 1262.5 -2.56587 -3.39181 0
M  V30 13134 N 1260.82 1.03812 -1.18578 0
M  V30 13135 C 1261.75 2.13802 -0.938665 0
M  V30 13136 C 1262.73 1.69643 0.124575 0
M  V30 13137 O 1263.92 1.94179 -0.0285421 0
M  V30 13138 C 1261.05 3.44154 -0.466392 0
M  V30 13139 C 1260 4.01949 -1.47041 0
M  V30 13140 C 1259.33 5.27811 -0.855558 0
M  V30 13141 C 1260.63 4.37827 -2.84789 0
M  V30 13142 H 1262.32 2.34732 -1.85852 0
M  V30 13143 H 1259.87 1.12808 -0.895007 0
M  V30 13144 H 1261.82 4.20463 -0.280856 0
M  V30 13145 H 1260.54 3.22918 0.489041 0
M  V30 13146 H 1259.2 3.27725 -1.64293 0
M  V30 13147 H 1258.85 5.02886 0.107142 0
M  V30 13148 H 1258.55 5.67441 -1.52592 0
M  V30 13149 H 1260.07 6.06795 -0.680609 0
M  V30 13150 H 1261.49 5.05112 -2.71173 0
M  V30 13151 H 1259.88 4.88514 -3.48532 0
M  V30 13152 H 1260.95 3.47541 -3.38147 0
M  V30 13153 N 1262.3 0.988223 1.22768 0
M  V30 13154 C 1263.52 0.679426 1.95955 0
M  V30 13155 C 1263.95 -0.748483 1.72567 0
M  V30 13156 O 1263.31 -1.51097 1.00197 0
M  V30 13157 C 1263.35 0.985284 3.46878 0
M  V30 13158 O 1262.46 0.0814607 4.1232 0
M  V30 13159 H 1261.8 0.254749 0.613188 0
M  V30 13160 H 1264.33 1.32393 1.55991 0
M  V30 13161 H 1264.34 0.925198 3.97371 0
M  V30 13162 H 1263.01 2.02581 3.63227 0
M  V30 13163 H 1261.59 0.196629 3.72381 0
M  V30 13164 N 1263.78 -1.38018 0.760839 0
M  V30 13165 C 1265.01 -2.03934 0.330804 0
M  V30 13166 C 1265.41 -1.57509 -1.04821 0
M  V30 13167 O 1264.76 -0.746718 -1.67839 0
M  V30 13168 C 1264.82 -3.58384 0.28303 0
M  V30 13169 C 1264.48 -4.27896 1.6048 0
M  V30 13170 C 1265.48 -4.52769 2.5553 0
M  V30 13171 C 1263.16 -4.65943 1.87624 0
M  V30 13172 C 1265.16 -5.14732 3.75938 0
M  V30 13173 C 1262.85 -5.27629 3.08304 0
M  V30 13174 C 1263.84 -5.51959 4.02281 0
M  V30 13175 O 1263.53 -6.12358 5.20838 0
M  V30 13176 H 1263.26 -0.661733 0.138148 0
M  V30 13177 H 1265.82 -1.77551 1.03271 0
M  V30 13178 H 1264.05 -3.83769 -0.47517 0
M  V30 13179 H 1265.74 -4.05727 -0.118464 0
M  V30 13180 H 1266.5 -4.23798 2.35839 0
M  V30 13181 H 1262.38 -4.46346 1.15308 0
M  V30 13182 H 1265.93 -5.33639 4.49305 0
M  V30 13183 H 1261.82 -5.56023 3.27886 0
M  V30 13184 H 1262.59 -6.30842 5.21517 0
M  V30 13185 N 1265.25 -0.510493 -1.49103 0
M  V30 13186 C 1266.5 0.0305831 -2.02077 0
M  V30 13187 C 1266.82 1.36602 -1.39157 0
M  V30 13188 O 1266.09 1.88016 -0.550154 0
M  V30 13189 H 1264.67 0.0142916 -0.746863 0
M  V30 13190 H 1267.33 -0.669895 -1.83026 0
M  V30 13191 H 1266.43 0.153283 -3.11723 0
M  V30 13192 N 1266.73 1.55688 -0.24474 0
M  V30 13193 C 1267.68 2.17946 0.669596 0
M  V30 13194 C 1268.67 1.13468 1.14078 0
M  V30 13195 O 1269.86 1.39385 1.09091 0
M  V30 13196 C 1266.99 2.8808 1.86721 0
M  V30 13197 C 1266.07 3.99811 1.41463 0
M  V30 13198 N 1266.46 5.01261 0.676131 0
M  V30 13199 C 1264.76 4.12327 1.70008 0
M  V30 13200 C 1265.46 5.80017 0.442113 0
M  V30 13201 N 1264.44 5.34216 1.00569 0
M  V30 13202 H 1268.24 2.93739 0.0971953 0
M  V30 13203 H 1265.75 1.62332 -0.0469646 0
M  V30 13204 H 1267.75 3.31109 2.53322 0
M  V30 13205 H 1266.41 2.13789 2.44385 0
M  V30 13206 H 1267.42 5.1687 0.326459 0
M  V30 13207 H 1264.1 3.49206 2.28827 0
M  V30 13208 H 1265.49 6.71739 -0.14729 0
M  V30 13209 N 1268.21 -0.0283989 1.57574 0
M  V30 13210 C 1269.63 -0.384054 1.5491 0
M  V30 13211 C 1269.83 -1.76564 0.970947 0
M  V30 13212 O 1268.88 -2.45455 0.592288 0
M  V30 13213 C 1270.19 -0.285297 2.99344 0
M  V30 13214 C 1271.74 -0.36233 3.10896 0
M  V30 13215 C 1272.22 -0.293014 4.57062 0
M  V30 13216 N 1273.71 -0.351788 4.61862 0
M  V30 13217 C 1274.44 -0.321054 5.725 0
M  V30 13218 N 1273.94 -0.242573 6.92375 0
M  V30 13219 N 1275.73 -0.370832 5.60875 0
M  V30 13220 H 1267.88 0.87573 1.93506 0
M  V30 13221 H 1270.15 0.33305 0.887571 0
M  V30 13222 H 1269.85 0.664146 3.45372 0
M  V30 13223 H 1269.73 -1.07869 3.61447 0
M  V30 13224 H 1272.11 -1.30221 2.64814 0
M  V30 13225 H 1272.19 0.460422 2.51622 0
M  V30 13226 H 1271.84 0.643197 5.03811 0
M  V30 13227 H 1271.77 -1.13388 5.14248 0
M  V30 13228 H 1274.26 -0.414929 3.75615 0
M  V30 13229 H 1274.57 -0.224239 7.72475 0
M  V30 13230 H 1272.92 -0.208612 6.94687 0
M  V30 13231 H 1276.11 -0.430141 4.6612 0
M  V30 13232 H 1276.28 -0.343412 6.47089 0
M  V30 13233 N 1269.69 -1.54705 -0.300681 0
M  V30 13234 C 1271.1 -1.64998 -0.873654 0
M  V30 13235 C 1271.45 -0.558842 -1.88073 0
M  V30 13236 O 1270.57 0.304474 -2.14247 0
M  V30 13237 C 1271.17 -2.99099 -1.59138 0
M  V30 13238 C 1269.73 -3.11512 -2.11276 0
M  V30 13239 C 1268.88 -2.60681 -0.945551 0
M  V30 13240 H 1271.83 -1.5851 -0.0776752 0
M  V30 13241 H 1271.85 -2.9054 -2.45696 0
M  V30 13242 H 1271.36 -3.78493 -0.858172 0
M  V30 13243 H 1269.46 -2.36838 -2.87643 0
M  V30 13244 H 1269.57 -4.17672 -2.34707 0
M  V30 13245 H 1267.94 -2.17143 -1.33121 0
M  V30 13246 H 1268.72 -3.42553 -0.226291 0
M  V30 13247 N 1271.17 0.563888 -1.47167 0
M  V30 13248 C 1272.1 1.68137 -1.62025 0
M  V30 13249 C 1273.08 1.63481 -0.469899 0
M  V30 13250 O 1274.26 1.81206 -0.698432 0
M  V30 13251 C 1271.39 3.06779 -1.62801 0
M  V30 13252 C 1270.35 3.26278 -2.76996 0
M  V30 13253 C 1269.67 4.65638 -2.62841 0
M  V30 13254 C 1270.97 3.12295 -4.18651 0
M  V30 13255 H 1272.67 1.55958 -2.55573 0
M  V30 13256 H 1270.21 0.74887 -1.22996 0
M  V30 13257 H 1272.17 3.84795 -1.71787 0
M  V30 13258 H 1270.89 3.19901 -0.658097 0
M  V30 13259 H 1269.55 2.50668 -2.67509 0
M  V30 13260 H 1269.2 4.75551 -1.63892 0
M  V30 13261 H 1268.9 4.79635 -3.39447 0
M  V30 13262 H 1270.42 5.45798 -2.73746 0
M  V30 13263 H 1271.83 3.80136 -4.2915 0
M  V30 13264 H 1270.23 3.37805 -4.95992 0
M  V30 13265 H 1271.3 2.09126 -4.37486 0
M  V30 13266 N 1272.64 1.35187 0.810078 0
M  V30 13267 C 1273.87 1.31528 1.60359 0
M  V30 13268 C 1274.29 -0.105385 1.87805 0
M  V30 13269 O 1273.65 -1.07113 1.46276 0
M  V30 13270 C 1273.7 2.12429 2.91386 0
M  V30 13271 O 1272.8 1.50262 3.84051 0
M  V30 13272 H 1272.15 0.451122 0.487222 0
M  V30 13273 H 1274.68 1.78178 1.00568 0
M  V30 13274 H 1274.69 2.24257 3.40841 0
M  V30 13275 H 1273.36 3.15714 2.70735 0
M  V30 13276 H 1271.94 1.47253 3.42594 0
M  V30 13277 N 1274.12 -1.03182 1.19127 0
M  V30 13278 C 1275.07 -2.11394 0.926339 0
M  V30 13279 C 1276.04 -1.65528 -0.137703 0
M  V30 13280 O 1277.22 -1.908 0.00381804 0
M  V30 13281 C 1274.36 -3.41913 0.467894 0
M  V30 13282 C 1273.48 -4.01343 1.59837 0
M  V30 13283 C 1272.61 -5.1986 1.09175 0
M  V30 13284 C 1271.65 -5.71339 2.19632 0
M  V30 13285 N 1270.79 -6.81133 1.703 0
M  V30 13286 H 1275.63 -2.33393 1.85288 0
M  V30 13287 H 1273.17 -1.14473 0.923811 0
M  V30 13288 H 1275.12 -4.16796 0.183513 0
M  V30 13289 H 1273.75 -3.20034 -0.421656 0
M  V30 13290 H 1272.81 -3.23702 1.99803 0
M  V30 13291 H 1274.12 -4.35568 2.43068 0
M  V30 13292 H 1273.27 -6.0189 0.762427 0
M  V30 13293 H 1272.01 -4.87161 0.22914 0
M  V30 13294 H 1271.02 -4.87923 2.53399 0
M  V30 13295 H 1272.24 -6.06078 3.06344 0
M  V30 13296 H 1270.19 -6.50293 0.863415 0
M  V30 13297 H 1270.1 -7.1447 2.47122 0
M  V30 13298 H 1271.37 -7.66766 1.40321 0
M  V30 13299 N 1275.6 -0.99472 -1.22242 0
M  V30 13300 C 1276.53 -0.504783 -2.23572 0
M  V30 13301 C 1277.55 0.401105 -1.57781 0
M  V30 13302 O 1278.73 0.202948 -1.77343 0
M  V30 13303 C 1275.83 0.287524 -3.37678 0
M  V30 13304 C 1275.01 -0.614941 -4.33056 0
M  V30 13305 C 1274.07 0.125974 -5.26049 0
M  V30 13306 O 1273.09 -0.489234 -5.67094 0
M  V30 13307 N 1274.29 1.40772 -5.63173 0
M  V30 13308 H 1277.06 -1.37612 -2.66238 0
M  V30 13309 H 1274.62 -0.86965 -1.3656 0
M  V30 13310 H 1276.61 0.791884 -3.96877 0
M  V30 13311 H 1275.18 1.05998 -2.9408 0
M  V30 13312 H 1274.4 -1.29994 -3.72149 0
M  V30 13313 H 1275.69 -1.22947 -4.93722 0
M  V30 13314 H 1275.09 1.92884 -5.31801 0
M  V30 13315 H 1273.65 1.85723 -6.2478 0
M  V30 13316 N 1277.08 1.37613 -0.768148 0
M  V30 13317 C 1278.01 2.3291 -0.165911 0
M  V30 13318 C 1278.99 1.556 0.687205 0
M  V30 13319 O 1280.17 1.83854 0.625407 0
M  V30 13320 C 1277.3 3.39822 0.7168 0
M  V30 13321 C 1276.26 4.27986 -0.0347264 0
M  V30 13322 C 1275.58 5.2588 0.967192 0
M  V30 13323 C 1276.88 5.08052 -1.21164 0
M  V30 13324 H 1278.58 2.83524 -0.962006 0
M  V30 13325 H 1276.12 1.36318 -0.464051 0
M  V30 13326 H 1278.08 4.05464 1.14789 0
M  V30 13327 H 1276.8 2.87725 1.54538 0
M  V30 13328 H 1275.46 3.6387 -0.446557 0
M  V30 13329 H 1275.11 4.70064 1.79022 0
M  V30 13330 H 1274.81 5.85726 0.468913 0
M  V30 13331 H 1276.33 5.94397 1.3973 0
M  V30 13332 H 1277.75 5.66853 -0.857373 0
M  V30 13333 H 1276.14 5.77206 -1.64176 0
M  V30 13334 H 1277.21 4.40936 -2.0175 0
M  V30 13335 N 1278.56 0.518393 1.4883 0
M  V30 13336 C 1279.78 -0.0183131 2.07392 0
M  V30 13337 C 1280.21 -1.28468 1.37396 0
M  V30 13338 O 1279.56 -1.75975 0.436177 0
M  V30 13339 C 1279.61 -0.237211 3.59819 0
M  V30 13340 O 1278.72 -1.30835 3.91096 0
M  V30 13341 H 1278.06 0.0339621 0.663131 0
M  V30 13342 H 1280.59 0.722993 1.914 0
M  V30 13343 H 1280.6 -0.463424 4.0536 0
M  V30 13344 H 1279.27 0.687925 4.10171 0
M  V30 13345 H 1277.85 -1.06571 3.57347 0
M  V30 13346 N 1280.03 -1.55556 0.252993 0
M  V30 13347 C 1281 -2.20351 -0.630705 0
M  V30 13348 C 1282 -1.17461 -1.09816 0
M  V30 13349 O 1283.19 -1.42505 -1.00189 0
M  V30 13350 C 1280.32 -2.85192 -1.86757 0
M  V30 13351 H 1281.51 -2.99829 -0.0652939 0
M  V30 13352 H 1279.07 -1.563 0.00347982 0
M  V30 13353 H 1279.8 -2.09669 -2.47406 0
M  V30 13354 H 1279.59 -3.60569 -1.54053 0
M  V30 13355 H 1281.08 -3.34762 -2.49648 0
M  V30 13356 N 1281.51 0.0200419 -1.57587 0
M  V30 13357 C 1282.79 0.744946 -1.80859 0
M  V30 13358 C 1283.17 1.93089 -0.853218 0
M  V30 13359 O 1282.52 2.28269 0.10261 0
M  V30 13360 C 1282.73 1.16952 -3.28821 0
M  V30 13361 C 1284.08 1.5817 -3.9404 0
M  V30 13362 O 1285.1 1.26385 -3.33024 0
M  V30 13363 O 1283.96 2.17197 -5.01486 0
M  V30 13364 H 1281.05 0.360995 -0.744051 0
M  V30 13365 H 1283.6 -0.00387374 -1.697 0
M  V30 13366 H 1282.37 0.323304 -3.89962 0
M  V30 13367 H 1281.99 1.97807 -3.44903 0
M  V30 13368 N 1282.99 1.54862 0.292472 0
M  V30 13369 C 1284.22 1.78877 1.04966 0
M  V30 13370 C 1284.64 0.550724 1.79857 0
M  V30 13371 O 1284 -0.499054 1.74296 0
M  V30 13372 C 1284.05 3.00106 1.99922 0
M  V30 13373 O 1283.15 2.73827 3.0837 0
M  V30 13374 H 1282.49 0.591802 0.301108 0
M  V30 13375 H 1285.02 2.01965 0.3273 0
M  V30 13376 H 1285.03 3.28309 2.42233 0
M  V30 13377 H 1283.71 3.89872 1.44821 0
M  V30 13378 H 1282.28 2.56665 2.70513 0
M  V30 13379 N 1284.47 -0.556076 1.47464 0
M  V30 13380 C 1285.43 -1.64515 1.59586 0
M  V30 13381 C 1286.43 -1.53751 0.470881 0
M  V30 13382 O 1287.62 -1.57889 0.735979 0
M  V30 13383 C 1284.75 -3.0406 1.54143 0
M  V30 13384 H 1285.95 -1.55116 2.56669 0
M  V30 13385 H 1283.5 -0.776087 1.35671 0
M  V30 13386 H 1284.23 -3.18991 0.584395 0
M  V30 13387 H 1284.02 -3.13282 2.3579 0
M  V30 13388 H 1285.51 -3.8329 1.65766 0
M  V30 13389 N 1285.95 -1.35615 -0.802897 0
M  V30 13390 C 1286.86 -1.3096 -1.94645 0
M  V30 13391 C 1287.87 -0.213909 -1.7268 0
M  V30 13392 O 1289.05 -0.443932 -1.96446 0
M  V30 13393 C 1286.11 -1.08483 -3.2929 0
M  V30 13394 C 1285.18 -2.27401 -3.64126 0
M  V30 13395 C 1284.41 -2.05987 -4.92347 0
M  V30 13396 O 1284.63 -1.02819 -5.61057 0
M  V30 13397 O 1283.57 -2.93439 -5.25526 0
M  V30 13398 H 1287.39 -2.27209 -2.01519 0
M  V30 13399 H 1284.98 -1.16024 -0.941214 0
M  V30 13400 H 1286.86 -0.978118 -4.09891 0
M  V30 13401 H 1285.53 -0.152885 -3.23339 0
M  V30 13402 H 1284.44 -2.43638 -2.83886 0
M  V30 13403 H 1285.77 -3.19055 -3.74786 0
M  V30 13404 N 1287.43 1.02549 -1.19673 0
M  V30 13405 C 1288.39 2.09064 -0.939407 0
M  V30 13406 C 1289.39 1.60593 0.0814837 0
M  V30 13407 O 1290.58 1.73521 -0.153626 0
M  V30 13408 C 1287.71 3.38395 -0.412513 0
M  V30 13409 H 1288.9 2.33325 -1.88413 0
M  V30 13410 H 1286.46 1.19211 -1.01086 0
M  V30 13411 H 1287.19 3.19805 0.538094 0
M  V30 13412 H 1286.98 3.74898 -1.14863 0
M  V30 13413 H 1288.47 4.16841 -0.251678 0
M  V30 13414 N 1288.9 1.00119 1.21713 0
M  V30 13415 C 1289.85 0.529464 2.21767 0
M  V30 13416 C 1290.84 -0.406858 1.55671 0
M  V30 13417 O 1292.03 -0.232329 1.75469 0
M  V30 13418 C 1289.16 -0.146336 3.42988 0
M  V30 13419 C 1288.24 0.81078 4.16278 0
M  V30 13420 N 1288.64 1.96204 4.66195 0
M  V30 13421 C 1286.93 0.628371 4.41551 0
M  V30 13422 C 1287.63 2.56346 5.2217 0
M  V30 13423 N 1286.61 1.8454 5.11318 0
M  V30 13424 H 1290.41 1.40738 2.58012 0
M  V30 13425 H 1287.93 0.864518 1.37477 0
M  V30 13426 H 1289.92 -0.501726 4.1387 0
M  V30 13427 H 1288.58 -1.02029 3.08254 0
M  V30 13428 H 1289.59 2.34255 4.61893 0
M  V30 13429 H 1286.27 -0.198819 4.17026 0
M  V30 13430 H 1287.66 3.53688 5.71274 0
M  V30 13431 N 1290.38 -1.37203 0.775435 0
M  V30 13432 C 1291.61 -2.04396 0.351737 0
M  V30 13433 C 1292.03 -1.58099 -1.01913 0
M  V30 13434 O 1291.39 -0.742932 -1.65379 0
M  V30 13435 C 1291.44 -3.58283 0.408105 0
M  V30 13436 O 1290.54 -4.08156 -0.590104 0
M  V30 13437 H 1289.88 -0.646451 0.151647 0
M  V30 13438 H 1292.41 -1.75443 1.05265 0
M  V30 13439 H 1292.42 -4.07127 0.266711 0
M  V30 13440 H 1291.1 -3.91335 1.40819 0
M  V30 13441 H 1289.67 -3.70622 -0.411524 0
M  V30 13442 N 1291.86 -0.526279 -1.48553 0
M  V30 13443 C 1292.79 0.227364 -2.3239 0
M  V30 13444 C 1293.77 0.93862 -1.41859 0
M  V30 13445 O 1294.96 0.925119 -1.70749 0
M  V30 13446 C 1292.09 1.277 -3.22971 0
M  V30 13447 C 1291.04 0.684107 -4.22497 0
M  V30 13448 C 1290.37 1.83612 -5.02186 0
M  V30 13449 C 1291.67 -0.341723 -5.21181 0
M  V30 13450 H 1293.36 -0.472486 -2.95648 0
M  V30 13451 H 1290.91 -0.228669 -1.42173 0
M  V30 13452 H 1292.86 1.81215 -3.80446 0
M  V30 13453 H 1291.58 2.00638 -2.57705 0
M  V30 13454 H 1290.24 0.170505 -3.66203 0
M  V30 13455 H 1289.89 2.55379 -4.33348 0
M  V30 13456 H 1289.59 1.44536 -5.69547 0
M  V30 13457 H 1291.11 2.37513 -5.62512 0
M  V30 13458 H 1292.53 0.106207 -5.73202 0
M  V30 13459 H 1290.92 -0.649673 -5.96573 0
M  V30 13460 H 1291.99 -1.2488 -4.68543 0
M  V30 13461 N 1293.34 1.5542 -0.261239 0
M  V30 13462 C 1294.29 2.23382 0.648324 0
M  V30 13463 C 1295.28 1.22615 1.16884 0
M  V30 13464 O 1296.49 1.40587 1.12407 0
M  V30 13465 H 1292.86 0.716733 0.227592 0
M  V30 13466 H 1294.83 2.98354 0.0521289 0
M  V30 13467 C 1293.58 2.9579 1.82766 0
M  V30 13468 H 1292.9 3.73109 1.4363 0
M  V30 13469 H 1294.34 3.46686 2.441 0
M  V30 13470 C 1292.8 2.00472 2.70763 0
M  V30 13471 O 1293.33 1.54698 3.70717 0
M  V30 13472 N 1291.54 1.67267 2.37635 0
M  V30 13473 H 1291.09 2.04685 1.56402 0
M  V30 13474 H 1291.04 1.03759 2.96785 0
M  V30 13475 N 1294.82 -0.0116844 1.57596 0
M  V30 13476 C 1296.06 -0.699994 1.90336 0
M  V30 13477 C 1296.39 -1.74067 0.861072 0
M  V30 13478 O 1295.67 -1.94119 -0.121712 0
M  V30 13479 C 1295.95 -1.35377 3.33684 0
M  V30 13480 C 1295.81 -0.325434 4.48621 0
M  V30 13481 C 1297.12 -2.28312 3.76247 0
M  V30 13482 H 1294.24 -0.253002 0.692213 0
M  V30 13483 H 1296.89 0.037211 1.89964 0
M  V30 13484 H 1295.04 -1.98212 3.34132 0
M  V30 13485 H 1296.71 0.302331 4.60308 0
M  V30 13486 H 1294.95 0.353527 4.32357 0
M  V30 13487 H 1295.62 -0.8217 5.4585 0
M  V30 13488 H 1298.1 -1.75505 3.77276 0
M  V30 13489 H 1296.97 -2.71028 4.77321 0
M  V30 13490 H 1297.23 -3.15727 3.09465 0
M  V30 13491 N 1296.29 -1.55015 -0.284256 0
M  V30 13492 C 1297.24 -1.87898 -1.37102 0
M  V30 13493 C 1298.24 -0.754231 -1.51683 0
M  V30 13494 O 1299.44 -0.93844 -1.53601 0
M  V30 13495 H 1295.82 -0.596208 -0.458301 0
M  V30 13496 H 1297.79 -2.78704 -1.06613 0
M  V30 13497 C 1296.54 -2.15764 -2.72656 0
M  V30 13498 H 1295.86 -3.01792 -2.62224 0
M  V30 13499 H 1297.3 -2.42701 -3.47667 0
M  V30 13500 C 1295.76 -0.961561 -3.22886 0
M  V30 13501 O 1296.29 -0.190489 -4.01248 0
M  V30 13502 N 1294.49 -0.762338 -2.80422 0
M  V30 13503 H 1294.04 -1.39104 -2.16813 0
M  V30 13504 H 1294 0.0363482 -3.14379 0
M  V30 13505 N 1297.77 0.548248 -1.47757 0
M  V30 13506 C 1299.19 0.875048 -1.33473 0
M  V30 13507 C 1299.39 1.98747 -0.331952 0
M  V30 13508 O 1298.44 2.51226 0.253348 0
M  V30 13509 C 1299.76 1.25982 -2.73037 0
M  V30 13510 C 1301.3 1.37074 -2.81389 0
M  V30 13511 C 1301.78 1.78902 -4.21613 0
M  V30 13512 N 1303.27 1.86037 -4.24198 0
M  V30 13513 C 1304.01 2.1975 -5.2962 0
M  V30 13514 N 1303.5 2.52013 -6.45338 0
M  V30 13515 N 1305.29 2.206 -5.17003 0
M  V30 13516 H 1297.45 -0.186033 -2.11584 0
M  V30 13517 H 1299.71 -0.0205687 -0.947777 0
M  V30 13518 H 1299.41 0.516188 -3.47891 0
M  V30 13519 H 1299.29 2.21402 -3.05387 0
M  V30 13520 H 1301.68 2.10517 -2.06801 0
M  V30 13521 H 1301.76 0.398193 -2.52682 0
M  V30 13522 H 1301.4 1.06026 -4.9671 0
M  V30 13523 H 1301.33 2.77176 -4.47751 0
M  V30 13524 H 1303.82 1.63455 -3.40721 0
M  V30 13525 H 1304.13 2.7679 -7.21531 0
M  V30 13526 H 1302.48 2.49573 -6.48643 0
M  V30 13527 H 1305.67 1.9484 -4.25623 0
M  V30 13528 H 1305.84 2.46543 -5.99267 0
M  V30 13529 N 1299.25 1.36039 0.795694 0
M  V30 13530 C 1300.5 1.29919 1.5533 0
M  V30 13531 C 1300.82 -0.123325 1.94109 0
M  V30 13532 O 1300.08 -1.09115 1.62457 0
M  V30 13533 C 1300.38 2.16166 2.84617 0
M  V30 13534 C 1300.04 3.64805 2.65006 0
M  V30 13535 C 1298.71 4.05319 2.59365 0
M  V30 13536 C 1301.06 4.59073 2.46781 0
M  V30 13537 C 1298.39 5.38251 2.33458 0
M  V30 13538 C 1300.74 5.92216 2.22402 0
M  V30 13539 C 1299.4 6.31862 2.1519 0
M  V30 13540 H 1298.67 0.475408 0.568391 0
M  V30 13541 H 1301.32 1.68035 0.918512 0
M  V30 13542 H 1299.62 1.70967 3.5253 0
M  V30 13543 H 1301.32 2.0876 3.42375 0
M  V30 13544 H 1297.91 3.32662 2.70248 0
M  V30 13545 H 1302.1 4.28651 2.50144 0
M  V30 13546 H 1297.35 5.67957 2.26352 0
M  V30 13547 H 1301.53 6.64833 2.07293 0
M  V30 13548 H 1299.15 7.34797 1.94878 0
M  V30 13549 N 1300.73 -1.01913 1.20215 0
M  V30 13550 C 1301.95 -1.79613 1.03702 0
M  V30 13551 C 1302.38 -1.83591 -0.409374 0
M  V30 13552 O 1301.74 -1.26911 -1.29473 0
M  V30 13553 C 1301.78 -3.22052 1.62219 0
M  V30 13554 O 1300.89 -4.03374 0.858106 0
M  V30 13555 H 1300.23 -0.554095 0.365889 0
M  V30 13556 H 1302.76 -1.28203 1.59452 0
M  V30 13557 H 1302.77 -3.72772 1.65847 0
M  V30 13558 H 1301.44 -3.18471 2.67487 0
M  V30 13559 H 1300.02 -3.6198 0.895835 0
M  V30 13560 N 1302.21 -1.00763 -1.2118 0
M  V30 13561 C 1303.62 -0.724746 -1.72059 0
M  V30 13562 C 1303.97 0.757413 -1.80991 0
M  V30 13563 O 1303.09 1.59152 -1.46627 0
M  V30 13564 C 1303.69 -1.30893 -3.12494 0
M  V30 13565 C 1302.25 -1.07511 -3.60719 0
M  V30 13566 C 1301.39 -1.42014 -2.38175 0
M  V30 13567 H 1304.35 -1.17821 -1.0632 0
M  V30 13568 H 1304.37 -0.694919 -3.741 0
M  V30 13569 H 1303.88 -2.38767 -3.05961 0
M  V30 13570 H 1301.98 -0.0136518 -3.72597 0
M  V30 13571 H 1302.09 -1.74885 -4.4604 0
M  V30 13572 H 1300.46 -0.838972 -2.40486 0
M  V30 13573 H 1301.24 -2.50924 -2.34291 0
M  V30 13574 N 1303.68 1.3679 -0.7827 0
M  V30 13575 C 1304.65 2.28472 -0.182525 0
M  V30 13576 C 1305.65 1.48524 0.616217 0
M  V30 13577 O 1306.84 1.68599 0.438197 0
M  V30 13578 C 1303.97 3.32588 0.748202 0
M  V30 13579 H 1305.16 2.83059 -0.99085 0
M  V30 13580 H 1302.72 1.46241 -0.551658 0
M  V30 13581 H 1303.45 2.83145 1.58112 0
M  V30 13582 H 1303.24 3.91698 0.177481 0
M  V30 13583 H 1304.73 4.01073 1.16321 0
M  V30 13584 N 1305.16 0.53415 1.48272 0
M  V30 13585 C 1306.11 -0.239672 2.31362 0
M  V30 13586 C 1307.1 -0.931501 1.4149 0
M  V30 13587 O 1308.31 -0.855411 1.58375 0
M  V30 13588 H 1304.69 -0.09616 0.745827 0
M  V30 13589 H 1306.66 0.480638 2.94504 0
M  V30 13590 C 1305.41 -1.27102 3.23636 0
M  V30 13591 H 1304.73 -0.748082 3.92739 0
M  V30 13592 H 1306.17 -1.78379 3.84652 0
M  V30 13593 C 1304.63 -2.30683 2.45534 0
M  V30 13594 O 1305.16 -3.37197 2.18314 0
M  V30 13595 N 1303.36 -2.04006 2.06954 0
M  V30 13596 H 1302.91 -1.17403 2.29291 0
M  V30 13597 H 1302.87 -2.73531 1.5501 0
M  V30 13598 N 1306.64 -1.55279 0.269478 0
M  V30 13599 C 1307.87 -2.03581 -0.351907 0
M  V30 13600 C 1308.28 -1.14747 -1.50432 0
M  V30 13601 O 1307.62 -0.158939 -1.83011 0
M  V30 13602 C 1307.68 -3.48041 -0.900444 0
M  V30 13603 C 1307.35 -4.56835 0.122612 0
M  V30 13604 C 1308.34 -5.11329 0.940149 0
M  V30 13605 C 1306.03 -5.01651 0.255224 0
M  V30 13606 C 1308.02 -6.09151 1.87654 0
M  V30 13607 C 1305.71 -5.993 1.19509 0
M  V30 13608 C 1306.71 -6.52931 2.00426 0
M  V30 13609 O 1306.4 -7.48671 2.92825 0
M  V30 13610 H 1306.13 -0.670627 -0.0850629 0
M  V30 13611 H 1308.68 -2.01514 0.39766 0
M  V30 13612 H 1306.91 -3.47329 -1.69998 0
M  V30 13613 H 1308.6 -3.79713 -1.43431 0
M  V30 13614 H 1309.37 -4.77522 0.848402 0
M  V30 13615 H 1305.25 -4.59556 -0.364579 0
M  V30 13616 H 1308.79 -6.50937 2.50853 0
M  V30 13617 H 1304.69 -6.32526 1.28768 0
M  V30 13618 H 1305.46 -7.66368 2.87442 0
M  V30 13619 N 1308.12 0.00332656 -1.576 0
M  V30 13620 C 1309.4 0.725722 -1.81639 0
M  V30 13621 C 1309.78 1.92173 -0.87365 0
M  V30 13622 O 1309.12 2.28365 0.0783931 0
M  V30 13623 C 1309.33 1.13458 -3.30043 0
M  V30 13624 C 1310.68 1.53982 -3.95695 0
M  V30 13625 O 1311.71 1.22846 -3.34346 0
M  V30 13626 O 1310.56 2.11866 -5.03761 0
M  V30 13627 H 1307.66 0.353083 -0.747838 0
M  V30 13628 H 1310.2 -0.0218724 -1.69686 0
M  V30 13629 H 1308.98 0.281925 -3.90283 0
M  V30 13630 H 1308.6 1.94138 -3.46982 0
M  V30 13631 N 1309.6 1.55164 0.276031 0
M  V30 13632 C 1310.53 1.84243 1.36335 0
M  V30 13633 C 1311.54 0.726745 1.45679 0
M  V30 13634 O 1312.73 1.00456 1.4755 0
M  V30 13635 C 1309.83 1.98768 2.7449 0
M  V30 13636 C 1309 3.294 2.87775 0
M  V30 13637 C 1308.06 3.34029 4.06585 0
M  V30 13638 O 1307.09 4.07423 3.97486 0
M  V30 13639 N 1308.29 2.61213 5.18409 0
M  V30 13640 H 1311.06 2.78092 1.11736 0
M  V30 13641 H 1308.62 1.55044 0.466143 0
M  V30 13642 H 1310.61 1.99238 3.52259 0
M  V30 13643 H 1309.18 1.11799 2.91924 0
M  V30 13644 H 1308.4 3.41494 1.96914 0
M  V30 13645 H 1309.69 4.15558 2.93579 0
M  V30 13646 H 1309.08 2.01261 5.28687 0
M  V30 13647 H 1307.64 2.67409 5.9442 0
M  V30 13648 N 1311.07 -0.540404 1.48045 0
M  V30 13649 C 1312.04 -1.62813 1.61322 0
M  V30 13650 C 1313.04 -1.53243 0.487161 0
M  V30 13651 O 1314.23 -1.571 0.752684 0
M  V30 13652 C 1311.36 -3.02408 1.5736 0
M  V30 13653 H 1312.55 -1.52385 2.583 0
M  V30 13654 H 1310.11 -0.761654 1.36486 0
M  V30 13655 H 1310.84 -3.18353 0.618195 0
M  V30 13656 H 1310.63 -3.10763 2.39099 0
M  V30 13657 H 1312.12 -3.8151 1.69822 0
M  V30 13658 N 1312.55 -1.36459 -0.788468 0
M  V30 13659 C 1313.5 -1.27391 -1.89092 0
M  V30 13660 C 1314.49 -0.165201 -1.6005 0
M  V30 13661 O 1315.68 -0.398097 -1.72465 0
M  V30 13662 C 1312.81 -1.06639 -3.26317 0
M  V30 13663 C 1311.89 -2.21981 -3.61366 0
M  V30 13664 N 1312.28 -3.47302 -3.67716 0
M  V30 13665 C 1310.58 -2.13767 -3.91433 0
M  V30 13666 C 1311.28 -4.2326 -3.99031 0
M  V30 13667 N 1310.26 -3.52211 -4.14063 0
M  V30 13668 H 1314.06 -2.22318 -1.92229 0
M  V30 13669 H 1311.58 -1.29191 -0.98404 0
M  V30 13670 H 1313.57 -0.982292 -4.05162 0
M  V30 13671 H 1312.23 -0.126129 -3.24455 0
M  V30 13672 H 1313.24 -3.81424 -3.50337 0
M  V30 13673 H 1309.92 -1.27702 -3.9749 0
M  V30 13674 H 1311.31 -5.31643 -4.1086 0
M  V30 13675 N 1314.03 1.01274 -1.20754 0
M  V30 13676 C 1314.96 2.11763 -0.983805 0
M  V30 13677 C 1315.94 1.69869 0.0885635 0
M  V30 13678 O 1317.13 1.94075 -0.0697239 0
M  V30 13679 C 1314.26 3.43087 -0.539287 0
M  V30 13680 C 1313.21 3.9874 -1.55534 0
M  V30 13681 C 1312.54 5.25877 -0.967322 0
M  V30 13682 C 1313.84 4.31688 -2.94012 0
M  V30 13683 H 1315.53 2.30737 -1.90789 0
M  V30 13684 H 1313.08 1.10884 -0.918734 0
M  V30 13685 H 1315.03 4.19773 -0.369979 0
M  V30 13686 H 1313.75 3.23883 0.420435 0
M  V30 13687 H 1312.41 3.24166 -1.71207 0
M  V30 13688 H 1312.06 5.03 0.000448307 0
M  V30 13689 H 1311.76 5.64077 -1.64594 0
M  V30 13690 H 1313.28 6.05215 -0.809167 0
M  V30 13691 H 1314.7 4.99246 -2.81827 0
M  V30 13692 H 1313.1 4.81011 -3.58815 0
M  V30 13693 H 1314.17 3.4029 -3.45442 0
M  V30 13694 N 1315.51 1.01404 1.20644 0
M  V30 13695 C 1316.46 0.552956 2.21193 0
M  V30 13696 C 1317.44 -0.390324 1.56094 0
M  V30 13697 O 1318.64 -0.213705 1.75705 0
M  V30 13698 C 1315.76 -0.10995 3.43124 0
M  V30 13699 C 1314.85 0.854886 4.15394 0
M  V30 13700 N 1315.24 2.01137 4.64088 0
M  V30 13701 C 1313.54 0.675168 4.4086 0
M  V30 13702 C 1314.24 2.6187 5.19422 0
M  V30 13703 N 1313.22 1.89952 5.09332 0
M  V30 13704 H 1317.02 1.43467 2.56504 0
M  V30 13705 H 1314.53 0.87905 1.36552 0
M  V30 13706 H 1316.53 -0.457802 4.14379 0
M  V30 13707 H 1315.19 -0.987534 3.09318 0
M  V30 13708 H 1316.2 2.3914 4.59383 0
M  V30 13709 H 1312.88 -0.154577 4.17214 0
M  V30 13710 H 1314.27 3.59727 5.67491 0
M  V30 13711 N 1316.99 -1.36373 0.789944 0
M  V30 13712 C 1318.4 -1.81783 0.425677 0
M  V30 13713 C 1318.75 -1.65711 -1.05045 0
M  V30 13714 O 1317.87 -1.17835 -1.81505 0
M  V30 13715 C 1318.47 -3.3003 0.765866 0
M  V30 13716 C 1317.03 -3.73647 0.454421 0
M  V30 13717 C 1316.18 -2.58632 1.00023 0
M  V30 13718 H 1319.13 -1.24587 0.983044 0
M  V30 13719 H 1319.15 -3.80457 0.0571624 0
M  V30 13720 H 1318.66 -3.41696 1.84026 0
M  V30 13721 H 1316.76 -3.67541 -0.611918 0
M  V30 13722 H 1316.87 -4.69066 0.975401 0
M  V30 13723 H 1315.24 -2.51156 0.423434 0
M  V30 13724 H 1316.02 -2.73083 2.0804 0
M  V30 13725 N 1318.47 -0.542005 -1.47987 0
M  V30 13726 C 1319.42 0.234244 -2.26794 0
M  V30 13727 C 1320.4 0.899085 -1.33436 0
M  V30 13728 O 1321.59 0.799904 -1.57894 0
M  V30 13729 C 1318.72 1.27312 -3.18821 0
M  V30 13730 C 1317.81 0.612457 -4.19654 0
M  V30 13731 N 1318.2 -0.30875 -5.04857 0
M  V30 13732 C 1316.5 0.868224 -4.37468 0
M  V30 13733 C 1317.2 -0.691052 -5.77581 0
M  V30 13734 N 1316.17 -0.0493574 -5.43578 0
M  V30 13735 H 1319.97 -0.47427 -2.90048 0
M  V30 13736 H 1317.49 -0.360868 -1.5834 0
M  V30 13737 H 1319.49 1.84305 -3.73948 0
M  V30 13738 H 1318.15 1.98288 -2.57122 0
M  V30 13739 H 1319.16 -0.682054 -5.13389 0
M  V30 13740 H 1315.83 1.56765 -3.86951 0
M  V30 13741 H 1317.22 -1.44713 -6.56131 0
M  V30 13742 N 1319.94 1.55134 -0.277709 0
M  V30 13743 C 1320.87 2.256 0.602232 0
M  V30 13744 C 1321.85 1.24708 1.15681 0
M  V30 13745 O 1323.04 1.53433 1.19046 0
M  V30 13746 C 1320.17 2.97907 1.78519 0
M  V30 13747 C 1319.12 4.0575 1.36203 0
M  V30 13748 C 1318.45 4.65644 2.62829 0
M  V30 13749 C 1319.75 5.19801 0.510327 0
M  V30 13750 H 1321.44 2.99396 0.0145622 0
M  V30 13751 H 1318.99 1.43999 0.00556389 0
M  V30 13752 H 1320.94 3.45915 2.40668 0
M  V30 13753 H 1319.67 2.21649 2.39873 0
M  V30 13754 H 1318.33 3.58557 0.763726 0
M  V30 13755 H 1317.97 3.86053 3.22447 0
M  V30 13756 H 1317.67 5.38463 2.35227 0
M  V30 13757 H 1319.2 5.16403 3.25823 0
M  V30 13758 H 1320.61 5.63845 1.03689 0
M  V30 13759 H 1319.01 5.99197 0.329073 0
M  V30 13760 H 1320.08 4.82614 -0.470273 0
M  V30 13761 N 1321.42 0.00503138 1.57599 0
M  V30 13762 C 1322.67 -0.678761 1.90785 0
M  V30 13763 C 1323 -1.73499 0.87911 0
M  V30 13764 O 1322.25 -1.95359 -0.115418 0
M  V30 13765 C 1322.55 -1.35485 3.30724 0
M  V30 13766 C 1322.22 -0.431335 4.48832 0
M  V30 13767 C 1320.88 -0.177078 4.80874 0
M  V30 13768 C 1323.23 0.204219 5.208 0
M  V30 13769 C 1320.56 0.720944 5.82254 0
M  V30 13770 C 1322.91 1.09015 6.23136 0
M  V30 13771 C 1321.57 1.35353 6.53633 0
M  V30 13772 H 1320.84 -0.248376 0.698133 0
M  V30 13773 H 1323.49 0.061638 1.91401 0
M  V30 13774 H 1321.8 -2.16942 3.26257 0
M  V30 13775 H 1323.49 -1.89007 3.53663 0
M  V30 13776 H 1320.08 -0.639676 4.238 0
M  V30 13777 H 1324.27 0.0208074 4.96296 0
M  V30 13778 H 1319.52 0.93296 6.0424 0
M  V30 13779 H 1323.7 1.58894 6.78031 0
M  V30 13780 H 1321.32 2.05107 7.32008 0
M  V30 13781 N 1322.9 -1.55308 -0.267798 0
M  V30 13782 C 1324.12 -1.80524 -1.02107 0
M  V30 13783 C 1324.55 -0.579268 -1.78958 0
M  V30 13784 O 1323.91 0.471262 -1.75068 0
M  V30 13785 C 1323.96 -3.03248 -1.95123 0
M  V30 13786 O 1323.06 -2.78699 -3.03975 0
M  V30 13787 H 1322.4 -0.596518 -0.291655 0
M  V30 13788 H 1324.93 -2.0246 -0.295128 0
M  V30 13789 H 1324.94 -3.32121 -2.3698 0
M  V30 13790 H 1323.62 -3.92126 -1.386 0
M  V30 13791 H 1322.19 -2.60936 -2.66396 0
M  V30 13792 N 1324.38 0.532545 -1.4833 0
M  V30 13793 C 1325.65 1.29371 -1.46705 0
M  V30 13794 C 1326.03 2.10354 -0.177329 0
M  V30 13795 O 1325.38 2.12462 0.840968 0
M  V30 13796 C 1325.59 2.17733 -2.72751 0
M  V30 13797 C 1326.94 2.77956 -3.20976 0
M  V30 13798 O 1327.96 2.28022 -2.7365 0
M  V30 13799 O 1326.82 3.68779 -4.03317 0
M  V30 13800 H 1323.92 0.58378 -0.585773 0
M  V30 13801 H 1326.46 0.549411 -1.6056 0
M  V30 13802 H 1325.24 1.57659 -3.58133 0
M  V30 13803 H 1324.86 2.99415 -2.61603 0
M  V30 13804 N 1325.86 1.36875 0.78122 0
M  V30 13805 C 1326.79 1.27738 1.90304 0
M  V30 13806 C 1327.8 0.195147 1.61626 0
M  V30 13807 O 1328.99 0.450531 1.72721 0
M  V30 13808 C 1326.09 0.950103 3.25309 0
M  V30 13809 C 1325.26 2.13589 3.81705 0
M  V30 13810 C 1324.32 1.78037 4.95166 0
M  V30 13811 O 1323.35 2.50223 5.11251 0
M  V30 13812 N 1324.55 0.718886 5.76031 0
M  V30 13813 H 1327.31 2.24397 1.98661 0
M  V30 13814 H 1324.88 1.30376 0.959883 0
M  V30 13815 H 1326.87 0.693286 3.98717 0
M  V30 13816 H 1325.44 0.0723849 3.12516 0
M  V30 13817 H 1324.66 2.55502 3.00187 0
M  V30 13818 H 1325.95 2.9279 4.16114 0
M  V30 13819 H 1325.34 0.119681 5.65573 0
M  V30 13820 H 1323.9 0.521909 6.49707 0
M  V30 13821 N 1327.33 -1.00632 1.21289 0
M  V30 13822 C 1328.56 -1.78503 1.05601 0
M  V30 13823 C 1328.98 -1.84015 -0.389879 0
M  V30 13824 O 1328.34 -1.28277 -1.2812 0
M  V30 13825 C 1328.39 -3.20313 1.65626 0
M  V30 13826 O 1327.49 -4.02441 0.900841 0
M  V30 13827 H 1326.83 -0.550183 0.371746 0
M  V30 13828 H 1329.36 -1.26505 1.60803 0
M  V30 13829 H 1329.37 -3.70992 1.69792 0
M  V30 13830 H 1328.05 -3.15616 2.7085 0
M  V30 13831 H 1326.63 -3.61009 0.934178 0
M  V30 13832 N 1328.81 -1.02043 -1.20104 0
M  V30 13833 C 1330.23 -0.735967 -1.41618 0
M  V30 13834 C 1330.43 0.68285 -1.89577 0
M  V30 13835 O 1329.48 1.45007 -2.06711 0
M  V30 13836 C 1330.8 -1.76492 -2.43457 0
M  V30 13837 C 1332.34 -1.78349 -2.57217 0
M  V30 13838 C 1332.82 -2.80181 -3.62302 0
M  V30 13839 N 1334.31 -2.78945 -3.69789 0
M  V30 13840 C 1335.05 -3.54395 -4.50768 0
M  V30 13841 N 1334.54 -4.39533 -5.35521 0
M  V30 13842 N 1336.33 -3.42974 -4.45337 0
M  V30 13843 H 1328.49 -1.93634 -0.872916 0
M  V30 13844 H 1330.75 -0.836663 -0.445757 0
M  V30 13845 H 1330.45 -2.78158 -2.15223 0
M  V30 13846 H 1330.33 -1.58022 -3.42504 0
M  V30 13847 H 1332.72 -0.773665 -2.84778 0
M  V30 13848 H 1332.8 -2.00894 -1.58352 0
M  V30 13849 H 1332.44 -3.81331 -3.35484 0
M  V30 13850 H 1332.37 -2.54898 -4.60798 0
M  V30 13851 H 1334.86 -2.17189 -3.09253 0
M  V30 13852 H 1335.17 -4.93863 -5.94407 0
M  V30 13853 H 1333.52 -4.43609 -5.3501 0
M  V30 13854 H 1336.71 -2.75881 -3.78163 0
M  V30 13855 H 1336.88 -4.02028 -5.0821 0
M  V30 13856 N 1330.29 1.35952 -0.797165 0
M  V30 13857 C 1331.54 1.98639 -0.372405 0
M  V30 13858 C 1331.86 1.63571 1.06158 0
M  V30 13859 O 1331.13 0.913516 1.73297 0
M  V30 13860 H 1329.71 0.734753 -0.13471 0
M  V30 13861 H 1332.37 1.66022 -1.02092 0
M  V30 13862 H 1331.47 3.08533 -0.47049 0
M  V30 13863 N 1331.77 0.549846 1.47697 0
M  V30 13864 C 1332.99 0.0256819 2.07384 0
M  V30 13865 C 1333.42 -1.25525 1.4009 0
M  V30 13866 O 1332.78 -1.7501 0.473406 0
M  V30 13867 C 1332.82 -0.160835 3.60241 0
M  V30 13868 O 1331.93 -1.22509 3.93783 0
M  V30 13869 H 1331.27 0.0480204 0.662261 0
M  V30 13870 H 1333.8 0.763429 1.89823 0
M  V30 13871 H 1333.81 -0.377337 4.06251 0
M  V30 13872 H 1332.48 0.774774 4.0862 0
M  V30 13873 H 1331.06 -0.98967 3.59527 0
M  V30 13874 N 1333.25 -1.54984 0.285932 0
M  V30 13875 C 1334.66 -1.85519 -0.209707 0
M  V30 13876 C 1335.01 -1.20794 -1.54606 0
M  V30 13877 O 1334.13 -0.500159 -2.10541 0
M  V30 13878 C 1334.73 -3.36579 -0.387283 0
M  V30 13879 C 1333.29 -3.67199 -0.827148 0
M  V30 13880 C 1332.43 -2.77203 0.073308 0
M  V30 13881 H 1335.39 -1.5037 0.507404 0
M  V30 13882 H 1335.41 -3.60269 -1.2242 0
M  V30 13883 H 1334.92 -3.83658 0.585493 0
M  V30 13884 H 1333.02 -3.25627 -1.81101 0
M  V30 13885 H 1333.13 -4.74574 -0.656976 0
M  V30 13886 H 1331.5 -2.50785 -0.444859 0
M  V30 13887 H 1332.28 -3.27099 1.04216 0
M  V30 13888 N 1334.72 -0.0133892 -1.57594 0
M  V30 13889 C 1335.95 0.682855 -1.95836 0
M  V30 13890 C 1336.37 1.65763 -0.889049 0
M  V30 13891 O 1335.73 1.80665 0.151585 0
M  V30 13892 C 1335.78 1.37931 -3.33178 0
M  V30 13893 O 1334.88 2.49416 -3.28429 0
M  V30 13894 H 1334.23 0.180629 -0.638959 0
M  V30 13895 H 1336.76 -0.0705644 -2.04478 0
M  V30 13896 H 1336.77 1.73969 -3.69051 0
M  V30 13897 H 1335.44 0.664675 -4.10554 0
M  V30 13898 H 1334.02 2.15606 -3.04251 0
M  V30 13899 N 1336.2 1.55448 0.259558 0
M  V30 13900 C 1337.43 1.81063 1.01148 0
M  V30 13901 C 1337.85 0.58875 1.78649 0
M  V30 13902 O 1337.21 -0.461971 1.75315 0
M  V30 13903 C 1337.26 3.04279 1.93512 0
M  V30 13904 O 1336.36 2.80307 3.02493 0
M  V30 13905 H 1335.7 0.598056 0.288487 0
M  V30 13906 H 1338.23 2.02614 0.284387 0
M  V30 13907 H 1338.24 3.33373 2.35215 0
M  V30 13908 H 1336.92 3.92856 1.36518 0
M  V30 13909 H 1335.5 2.62345 2.65008 0
M  V30 13910 N 1337.68 -0.524672 1.4861 0
M  V30 13911 C 1338.91 -1.30292 1.60335 0
M  V30 13912 C 1339.32 -1.87338 0.264774 0
M  V30 13913 O 1338.66 -1.67388 -0.756756 0
M  V30 13914 C 1338.72 -2.48809 2.59488 0
M  V30 13915 C 1338.39 -2.12811 4.04426 0
M  V30 13916 C 1339.38 -1.68171 4.9195 0
M  V30 13917 C 1337.07 -2.23171 4.5 0
M  V30 13918 C 1339.06 -1.34363 6.23077 0
M  V30 13919 C 1336.75 -1.88975 5.81147 0
M  V30 13920 C 1337.75 -1.44643 6.67508 0
M  V30 13921 O 1337.44 -1.10898 7.96214 0
M  V30 13922 H 1337.17 -0.402288 0.543268 0
M  V30 13923 H 1339.72 -0.63908 1.95205 0
M  V30 13924 H 1337.95 -3.18192 2.19751 0
M  V30 13925 H 1339.64 -3.10866 2.60992 0
M  V30 13926 H 1340.41 -1.59632 4.57977 0
M  V30 13927 H 1336.29 -2.56632 3.82963 0
M  V30 13928 H 1339.83 -0.996875 6.90441 0
M  V30 13929 H 1335.73 -1.97156 6.14654 0
M  V30 13930 H 1336.5 -1.2425 8.09014 0
M  V30 13931 N 1339.16 -1.37287 -0.77395 0
M  V30 13932 C 1340.38 -1.35734 -1.56815 0
M  V30 13933 C 1340.81 0.0555546 -1.88018 0
M  V30 13934 O 1340.17 1.03197 -1.49064 0
M  V30 13935 C 1340.21 -2.2008 -2.85652 0
M  V30 13936 O 1339.32 -1.60391 -3.79932 0
M  V30 13937 H 1338.66 -0.463881 -0.47509 0
M  V30 13938 H 1341.19 -1.80781 -0.958087 0
M  V30 13939 H 1341.2 -2.33215 -3.34776 0
M  V30 13940 H 1339.87 -3.22781 -2.6227 0
M  V30 13941 H 1338.45 -1.56285 -3.3857 0
M  V30 13942 N 1340.64 0.999871 -1.21821 0
M  V30 13943 C 1342.05 1.5529 -1.03642 0
M  V30 13944 C 1342.4 1.92032 0.402246 0
M  V30 13945 O 1341.52 1.74027 1.28622 0
M  V30 13946 C 1342.12 2.82177 -1.87514 0
M  V30 13947 C 1340.68 3.33949 -1.73653 0
M  V30 13948 C 1339.82 2.07095 -1.84409 0
M  V30 13949 H 1342.78 0.821751 -1.35768 0
M  V30 13950 H 1342.8 3.54264 -1.38842 0
M  V30 13951 H 1342.31 2.55405 -2.92216 0
M  V30 13952 H 1340.41 3.65645 -0.716554 0
M  V30 13953 H 1340.52 4.05022 -2.55918 0
M  V30 13954 H 1338.89 2.20332 -1.27773 0
M  V30 13955 H 1339.67 1.82728 -2.90629 0
M  V30 13956 N 1342.11 1.02678 1.19562 0
M  V30 13957 C 1343.34 0.741424 1.93695 0
M  V30 13958 C 1343.76 -0.693203 1.74861 0
M  V30 13959 O 1343.12 -1.47833 1.04953 0
M  V30 13960 C 1343.17 1.09514 3.43568 0
M  V30 13961 O 1342.27 0.212596 4.11852 0
M  V30 13962 H 1341.62 0.274128 0.604773 0
M  V30 13963 H 1344.15 1.37289 1.517 0
M  V30 13964 H 1344.16 1.05115 3.94227 0
M  V30 13965 H 1342.83 2.14034 3.56598 0
M  V30 13966 H 1341.41 0.315 3.71567 0
M  V30 13967 N 1343.59 -1.35528 0.804364 0
M  V30 13968 C 1344.82 -2.03073 0.396091 0
M  V30 13969 C 1345.24 -1.60623 -0.992252 0
M  V30 13970 O 1344.59 -0.802718 -1.63898 0
M  V30 13971 C 1344.64 -3.58467 0.467301 0
M  V30 13972 O 1344.36 -3.99373 1.80091 0
M  V30 13973 C 1345.87 -4.4327 0.0515549 0
M  V30 13974 H 1343.09 -0.651346 0.161212 0
M  V30 13975 H 1345.63 -1.73195 1.08737 0
M  V30 13976 H 1343.78 -3.87001 -0.175703 0
M  V30 13977 H 1344.2 -4.94013 1.76214 0
M  V30 13978 H 1345.67 -5.51789 0.152499 0
M  V30 13979 H 1346.15 -4.27597 -1.00286 0
M  V30 13980 H 1346.76 -4.20027 0.667628 0
M  V30 13981 N 1345.07 -0.557671 -1.47404 0
M  V30 13982 C 1346.32 -0.0337216 -2.02072 0
M  V30 13983 C 1346.64 1.32106 -1.43433 0
M  V30 13984 O 1345.91 1.86171 -0.609692 0
M  V30 13985 H 1344.49 -0.00947648 -0.74694 0
M  V30 13986 H 1347.15 -0.727784 -1.80802 0
M  V30 13987 H 1346.25 0.0540331 -3.12053 0
M  V30 13988 N 1346.55 1.54831 -0.294147 0
M  V30 13989 C 1347.8 2.00298 0.317605 0
M  V30 13990 C 1348.13 1.18228 1.54064 0
M  V30 13991 O 1347.4 0.257034 1.92794 0
M  V30 13992 C 1347.69 3.53602 0.680991 0
M  V30 13993 C 1347.54 4.46416 -0.550711 0
M  V30 13994 C 1348.86 4.13379 1.51016 0
M  V30 13995 H 1345.98 0.728135 0.113965 0
M  V30 13996 H 1348.62 1.85636 -0.404883 0
M  V30 13997 H 1346.77 3.66227 1.29654 0
M  V30 13998 H 1348.44 4.45707 -1.18922 0
M  V30 13999 H 1346.68 4.17294 -1.18524 0
M  V30 14000 H 1347.36 5.51423 -0.252412 0
M  V30 14001 H 1349.83 4.04148 0.99012 0
M  V30 14002 H 1348.71 5.20818 1.73321 0
M  V30 14003 H 1348.97 3.64817 2.49722 0
M  V30 14004 N 1348.03 0.0217466 1.57585 0
M  V30 14005 C 1349.28 -0.657187 1.91116 0
M  V30 14006 C 1349.6 -1.7309 0.898039 0
M  V30 14007 O 1348.87 -1.95803 -0.0615116 0
M  V30 14008 H 1347.45 -0.245732 0.705425 0
M  V30 14009 H 1350.11 0.0678096 1.94782 0
M  V30 14010 H 1349.2 -1.11462 2.91518 0
M  V30 14011 N 1349.51 -1.55583 -0.251311 0
M  V30 14012 C 1350.75 -1.77209 -0.979966 0
M  V30 14013 C 1351.08 -0.585279 -1.85485 0
M  V30 14014 O 1350.34 0.431559 -1.90882 0
M  V30 14015 C 1350.63 -3.04291 -1.87461 0
M  V30 14016 C 1350.3 -4.35844 -1.15545 0
M  V30 14017 C 1348.96 -4.71594 -0.956679 0
M  V30 14018 C 1351.31 -5.17189 -0.645381 0
M  V30 14019 C 1348.64 -5.86227 -0.235465 0
M  V30 14020 C 1350.99 -6.32569 0.0623441 0
M  V30 14021 C 1349.66 -6.66943 0.272634 0
M  V30 14022 H 1348.93 -0.648452 -0.358595 0
M  V30 14023 H 1351.58 -1.89856 -0.250423 0
M  V30 14024 H 1349.88 -2.86637 -2.67108 0
M  V30 14025 H 1351.58 -3.18221 -2.44001 0
M  V30 14026 H 1348.17 -4.07757 -1.32031 0
M  V30 14027 H 1352.35 -4.90028 -0.786505 0
M  V30 14028 H 1347.61 -6.11369 -0.0620232 0
M  V30 14029 H 1351.78 -6.94844 0.465234 0
M  V30 14030 H 1349.41 -7.55617 0.833442 0
M  V30 14031 N 1350.98 0.516783 -1.48886 0
M  V30 14032 C 1352.21 1.30103 -1.61518 0
M  V30 14033 C 1352.63 1.85996 -0.28055 0
M  V30 14034 O 1351.99 1.65075 0.749671 0
M  V30 14035 C 1352.04 2.41837 -2.67483 0
M  V30 14036 O 1351.14 3.45249 -2.25559 0
M  V30 14037 H 1350.48 0.384774 -0.541152 0
M  V30 14038 H 1353.01 0.620424 -1.94966 0
M  V30 14039 H 1353.02 2.87832 -2.89165 0
M  V30 14040 H 1351.7 2.00519 -3.64369 0
M  V30 14041 H 1350.28 3.05281 -2.14144 0
M  V30 14042 N 1352.46 1.37696 0.766659 0
M  V30 14043 C 1353.87 1.29668 1.34324 0
M  V30 14044 C 1354.22 -0.0534297 1.96127 0
M  V30 14045 O 1353.35 -0.95534 1.94171 0
M  V30 14046 C 1353.94 2.34818 2.44225 0
M  V30 14047 C 1352.5 2.3041 2.97638 0
M  V30 14048 C 1351.65 2.18378 1.70899 0
M  V30 14049 H 1354.6 1.48244 0.566526 0
M  V30 14050 H 1354.62 1.99778 3.23835 0
M  V30 14051 H 1354.13 3.3307 1.99214 0
M  V30 14052 H 1352.23 1.35698 3.47011 0
M  V30 14053 H 1352.35 3.24028 3.52906 0
M  V30 14054 H 1350.71 1.65008 1.94021 0
M  V30 14055 H 1351.49 3.18551 1.27985 0
M  V30 14056 N 1353.94 -0.993397 1.22349 0
M  V30 14057 C 1355.17 -1.76838 1.07406 0
M  V30 14058 C 1355.58 -1.8503 -0.37542 0
M  V30 14059 O 1354.94 -1.32008 -1.26016 0
M  V30 14060 C 1354.99 -3.20177 1.67837 0
M  V30 14061 O 1354.71 -3.12429 3.07115 0
M  V30 14062 C 1356.21 -4.14125 1.58161 0
M  V30 14063 H 1353.43 -0.555379 0.376557 0
M  V30 14064 H 1355.98 -1.24893 1.61932 0
M  V30 14065 H 1354.13 -3.69191 1.17375 0
M  V30 14066 H 1354.55 -4.02568 3.36213 0
M  V30 14067 H 1356.02 -5.12455 2.05169 0
M  V30 14068 H 1356.5 -4.35892 0.538073 0
M  V30 14069 H 1357.1 -3.71008 2.07926 0
M  V30 14070 N 1355.42 -1.03311 -1.19015 0
M  V30 14071 C 1356.35 -0.575655 -2.21853 0
M  V30 14072 C 1357.36 0.350705 -1.58978 0
M  V30 14073 O 1358.55 0.146425 -1.77898 0
M  V30 14074 C 1355.65 0.179949 -3.38422 0
M  V30 14075 C 1354.82 -0.752403 -4.3088 0
M  V30 14076 C 1353.88 -0.0414484 -5.26184 0
M  V30 14077 O 1352.91 -0.669403 -5.6525 0
M  V30 14078 N 1354.11 1.22783 -5.67366 0
M  V30 14079 H 1356.88 -1.46013 -2.61726 0
M  V30 14080 H 1354.44 -0.912655 -1.33724 0
M  V30 14081 H 1356.43 0.66522 -3.99195 0
M  V30 14082 H 1355 0.965879 -2.97304 0
M  V30 14083 H 1354.22 -1.41768 -3.67825 0
M  V30 14084 H 1355.51 -1.38592 -4.89561 0
M  V30 14085 H 1354.91 1.75867 -5.37668 0
M  V30 14086 H 1353.46 1.65752 -6.30372 0
M  V30 14087 N 1356.9 1.35099 -0.81154 0
M  V30 14088 C 1357.86 2.28033 -0.230947 0
M  V30 14089 C 1358.86 1.49798 0.584575 0
M  V30 14090 O 1360.05 1.6949 0.402336 0
M  V30 14091 C 1357.18 3.341 0.677486 0
M  V30 14092 H 1358.37 2.80893 -1.05067 0
M  V30 14093 H 1355.93 1.45038 -0.582554 0
M  V30 14094 H 1356.66 2.86435 1.5207 0
M  V30 14095 H 1356.45 3.91986 0.0943563 0
M  V30 14096 H 1357.94 4.0345 1.07787 0
M  V30 14097 N 1358.37 0.56548 1.47106 0
M  V30 14098 C 1359.3 -0.16567 2.32912 0
M  V30 14099 C 1360.28 -0.900678 1.44298 0
M  V30 14100 O 1361.47 -0.879523 1.73142 0
M  V30 14101 C 1358.6 -1.19092 3.26243 0
M  V30 14102 C 1357.55 -0.571849 4.24163 0
M  V30 14103 C 1356.88 -1.70233 5.06878 0
M  V30 14104 C 1358.18 0.479785 5.20092 0
M  V30 14105 H 1359.87 0.550705 2.94292 0
M  V30 14106 H 1357.42 0.266284 1.41517 0
M  V30 14107 H 1359.37 -1.71064 3.85117 0
M  V30 14108 H 1358.1 -1.93734 2.62934 0
M  V30 14109 H 1356.76 -0.073353 3.66527 0
M  V30 14110 H 1356.4 -2.438 4.39967 0
M  V30 14111 H 1356.1 -1.29384 5.73178 0
M  V30 14112 H 1357.63 -2.22515 5.68612 0
M  V30 14113 H 1359.04 0.0458042 5.73282 0
M  V30 14114 H 1357.44 0.807615 5.94641 0
M  V30 14115 H 1358.51 1.37259 4.65068 0
M  V30 14116 N 1359.85 -1.54672 0.302354 0
M  V30 14117 C 1360.8 -2.2357 -0.573141 0
M  V30 14118 C 1361.77 -1.21878 -1.12849 0
M  V30 14119 O 1362.95 -1.50502 -1.17277 0
M  V30 14120 C 1360.09 -2.98111 -1.7385 0
M  V30 14121 C 1359.21 -4.14579 -1.21441 0
M  V30 14122 C 1358.34 -4.76699 -2.34374 0
M  V30 14123 C 1357.38 -5.8531 -1.79106 0
M  V30 14124 N 1356.52 -6.41379 -2.85618 0
M  V30 14125 H 1361.36 -2.97993 0.0209969 0
M  V30 14126 H 1358.9 -1.47083 0.0221318 0
M  V30 14127 H 1360.85 -3.39561 -2.42392 0
M  V30 14128 H 1359.48 -2.26063 -2.30425 0
M  V30 14129 H 1358.54 -3.78061 -0.421204 0
M  V30 14130 H 1359.85 -4.92824 -0.769821 0
M  V30 14131 H 1359 -5.21009 -3.10861 0
M  V30 14132 H 1357.74 -3.9779 -2.8216 0
M  V30 14133 H 1356.75 -5.40423 -1.01109 0
M  V30 14134 H 1357.97 -6.66104 -1.32222 0
M  V30 14135 H 1355.92 -5.65352 -3.32735 0
M  V30 14136 H 1355.83 -7.14974 -2.45659 0
M  V30 14137 H 1357.1 -6.90346 -3.61998 0
M  V30 14138 N 1361.33 -0.0301034 -1.57571 0
M  V30 14139 C 1362.58 0.649283 -1.92125 0
M  V30 14140 C 1362.91 1.71722 -0.90692 0
M  V30 14141 O 1362.18 1.94373 0.0702019 0
M  V30 14142 C 1362.47 1.26482 -3.37156 0
M  V30 14143 C 1362.32 0.206375 -4.49326 0
M  V30 14144 C 1363.64 2.18256 -3.82168 0
M  V30 14145 H 1360.76 0.234561 -0.698678 0
M  V30 14146 H 1363.4 -0.0875634 -1.89798 0
M  V30 14147 H 1361.55 1.89283 -3.3927 0
M  V30 14148 H 1363.22 -0.424268 -4.59345 0
M  V30 14149 H 1361.47 -0.468035 -4.31268 0
M  V30 14150 H 1362.14 0.676689 -5.47837 0
M  V30 14151 H 1364.61 1.65441 -3.81797 0
M  V30 14152 H 1363.49 2.58277 -4.84339 0
M  V30 14153 H 1363.75 3.07411 -3.17727 0
M  V30 14154 N 1362.81 1.55714 0.243056 0
M  V30 14155 C 1364.22 1.68126 0.811814 0
M  V30 14156 C 1364.57 0.628259 1.85869 0
M  V30 14157 O 1363.7 -0.224747 2.1523 0
M  V30 14158 C 1364.29 3.048 1.47928 0
M  V30 14159 C 1362.85 3.19138 1.99569 0
M  V30 14160 C 1362 2.64011 0.848149 0
M  V30 14161 H 1364.95 1.58689 0.0187918 0
M  V30 14162 H 1364.97 2.99459 2.34743 0
M  V30 14163 H 1364.48 3.81417 0.717106 0
M  V30 14164 H 1362.58 2.4735 2.78655 0
M  V30 14165 H 1362.69 4.26095 2.19043 0
M  V30 14166 H 1361.06 2.21934 1.2497 0
M  V30 14167 H 1361.84 3.43157 0.0989987 0
M  V30 14168 N 1364.29 -0.50888 1.49158 0
M  V30 14169 C 1365.7 -1.09054 1.51539 0
M  V30 14170 C 1366.05 -1.93938 0.297099 0
M  V30 14171 O 1365.17 -2.08092 -0.593849 0
M  V30 14172 C 1365.77 -1.98447 2.74599 0
M  V30 14173 C 1364.33 -2.5179 2.79783 0
M  V30 14174 C 1363.47 -1.29227 2.45348 0
M  V30 14175 H 1366.43 -0.293148 1.55969 0
M  V30 14176 H 1366.45 -2.83028 2.54314 0
M  V30 14177 H 1365.96 -1.3664 3.63251 0
M  V30 14178 H 1364.06 -3.17258 1.95392 0
M  V30 14179 H 1364.17 -2.89481 3.81756 0
M  V30 14180 H 1362.54 -1.61494 1.96957 0
M  V30 14181 H 1363.32 -0.6914 3.36266 0
M  V30 14182 N 1365.76 -1.381 -0.759346 0
M  V30 14183 C 1366.69 -1.37578 -1.88665 0
M  V30 14184 C 1367.68 -0.242529 -1.68362 0
M  V30 14185 O 1368.86 -0.444751 -1.89039 0
M  V30 14186 C 1365.99 -1.19437 -3.26117 0
M  V30 14187 C 1364.94 -2.29905 -3.61009 0
M  V30 14188 C 1364.27 -1.96874 -4.97136 0
M  V30 14189 C 1365.57 -3.72143 -3.66479 0
M  V30 14190 H 1367.26 -2.31912 -1.89359 0
M  V30 14191 H 1364.81 -1.11632 -0.909631 0
M  V30 14192 H 1366.76 -1.17698 -4.0463 0
M  V30 14193 H 1365.49 -0.21562 -3.25887 0
M  V30 14194 H 1364.15 -2.3082 -2.84812 0
M  V30 14195 H 1363.79 -0.974979 -4.9346 0
M  V30 14196 H 1363.49 -2.70855 -5.21451 0
M  V30 14197 H 1365.02 -1.96744 -5.78035 0
M  V30 14198 H 1366.43 -3.73291 -4.35117 0
M  V30 14199 H 1364.83 -4.45282 -4.02299 0
M  V30 14200 H 1365.9 -4.04874 -2.66843 0
M  V30 14201 N 1367.24 0.986894 -1.22875 0
M  V30 14202 C 1368.52 1.70121 -0.965311 0
M  V30 14203 C 1368.9 2.04648 0.517924 0
M  V30 14204 O 1368.25 1.73453 1.48749 0
M  V30 14205 C 1368.46 2.94738 -1.86897 0
M  V30 14206 C 1369.81 3.6739 -2.12861 0
M  V30 14207 O 1370.83 3.04758 -1.84394 0
M  V30 14208 O 1369.69 4.8009 -2.61106 0
M  V30 14209 H 1366.78 0.742817 -0.363527 0
M  V30 14210 H 1369.33 1.0427 -1.33887 0
M  V30 14211 H 1368.1 2.65771 -2.87196 0
M  V30 14212 H 1367.72 3.68327 -1.49736 0
M  V30 14213 N 1368.72 1.0394 1.18466 0
M  V30 14214 C 1369.65 0.587413 2.21545 0
M  V30 14215 C 1370.67 -0.34227 1.59161 0
M  V30 14216 O 1371.85 -0.136988 1.77974 0
M  V30 14217 C 1368.95 -0.161999 3.38513 0
M  V30 14218 C 1368.13 0.775243 4.30475 0
M  V30 14219 C 1367.19 0.0693526 5.26154 0
M  V30 14220 O 1366.21 0.69937 5.64887 0
M  V30 14221 N 1367.41 -1.19773 5.68009 0
M  V30 14222 H 1370.18 1.47399 2.60948 0
M  V30 14223 H 1367.74 0.919734 1.33239 0
M  V30 14224 H 1369.73 -0.644041 3.99542 0
M  V30 14225 H 1368.3 -0.950099 2.97812 0
M  V30 14226 H 1367.52 1.43717 3.67068 0
M  V30 14227 H 1368.81 1.41187 4.88819 0
M  V30 14228 H 1368.21 -1.73013 5.38593 0
M  V30 14229 H 1366.77 -1.62407 6.31243 0
M  V30 14230 N 1370.2 -1.34667 0.818693 0
M  V30 14231 C 1371.45 -1.98414 0.404759 0
M  V30 14232 C 1371.77 -1.64919 -1.03112 0
M  V30 14233 O 1371.03 -0.910695 -1.73219 0
M  V30 14234 C 1371.33 -3.53157 0.549059 0
M  V30 14235 C 1370.99 -4.06552 1.95003 0
M  V30 14236 C 1369.66 -4.20846 2.33329 0
M  V30 14237 C 1372.01 -4.35324 2.86604 0
M  V30 14238 C 1369.34 -4.61236 3.62599 0
M  V30 14239 C 1371.69 -4.77159 4.15334 0
M  V30 14240 C 1370.35 -4.89658 4.53642 0
M  V30 14241 H 1369.62 -0.726047 0.148112 0
M  V30 14242 H 1372.27 -1.60681 1.04182 0
M  V30 14243 H 1370.57 -3.91425 -0.17141 0
M  V30 14244 H 1372.27 -4.00453 0.209374 0
M  V30 14245 H 1368.86 -3.95887 1.64231 0
M  V30 14246 H 1373.04 -4.23823 2.58239 0
M  V30 14247 H 1368.3 -4.69104 3.92112 0
M  V30 14248 H 1372.47 -4.98381 4.86404 0
M  V30 14249 H 1370.1 -5.20713 5.53861 0
M  V30 14250 N 1371.68 -0.573274 -1.46804 0
M  V30 14251 C 1373.09 -0.144162 -1.86143 0
M  V30 14252 C 1373.44 1.29033 -1.47801 0
M  V30 14253 O 1372.56 1.97319 -0.888494 0
M  V30 14254 C 1373.16 -0.254851 -3.3784 0
M  V30 14255 C 1371.72 0.119325 -3.76211 0
M  V30 14256 C 1370.86 -0.595115 -2.70839 0
M  V30 14257 H 1373.82 -0.782057 -1.38093 0
M  V30 14258 H 1373.84 0.522321 -3.76898 0
M  V30 14259 H 1373.35 -1.29899 -3.65715 0
M  V30 14260 H 1371.45 1.16396 -3.53953 0
M  V30 14261 H 1371.56 -0.250421 -4.78445 0
M  V30 14262 H 1369.93 -0.0364028 -2.54674 0
M  V30 14263 H 1370.71 -1.64072 -3.01555 0
M  V30 14264 N 1373.15 1.5451 -0.310553 0
M  V30 14265 C 1374.38 2.04739 0.29824 0
M  V30 14266 C 1374.8 1.18737 1.46788 0
M  V30 14267 O 1374.15 0.215114 1.81228 0
M  V30 14268 C 1374.21 3.53734 0.745274 0
M  V30 14269 O 1373.93 4.36468 -0.377826 0
M  V30 14270 C 1375.43 4.20001 1.41823 0
M  V30 14271 H 1372.65 0.667997 0.0634159 0
M  V30 14272 H 1375.19 1.9942 -0.452961 0
M  V30 14273 H 1373.35 3.59383 1.44648 0
M  V30 14274 H 1373.76 5.24492 -0.0280567 0
M  V30 14275 H 1375.23 5.25747 1.68209 0
M  V30 14276 H 1375.71 3.70319 2.36137 0
M  V30 14277 H 1376.32 4.18455 0.759951 0
M  V30 14278 N 1374.63 0.0384594 1.57553 0
M  V30 14279 C 1375.88 -0.63814 1.92182 0
M  V30 14280 C 1376.21 -1.71595 0.915714 0
M  V30 14281 O 1375.46 -1.9556 -0.0739533 0
M  V30 14282 C 1375.76 -1.28439 3.33524 0
M  V30 14283 C 1375.43 -0.336034 4.49646 0
M  V30 14284 C 1374.09 -0.0750373 4.81141 0
M  V30 14285 C 1376.44 0.314642 5.20249 0
M  V30 14286 C 1373.77 0.844286 5.80593 0
M  V30 14287 C 1376.12 1.22208 6.20684 0
M  V30 14288 C 1374.79 1.49187 6.50615 0
M  V30 14289 H 1374.06 -0.233512 0.703245 0
M  V30 14290 H 1376.7 0.102223 1.91227 0
M  V30 14291 H 1375.01 -2.09973 3.30785 0
M  V30 14292 H 1376.71 -1.81462 3.57593 0
M  V30 14293 H 1373.3 -0.549638 4.25061 0
M  V30 14294 H 1377.48 0.126074 4.9614 0
M  V30 14295 H 1372.74 1.06092 6.02125 0
M  V30 14296 H 1376.91 1.7324 6.74508 0
M  V30 14297 H 1374.54 2.20588 7.27492 0
M  V30 14298 N 1376.11 -1.55841 -0.234795 0
M  V30 14299 C 1377.52 -1.68555 -0.802886 0
M  V30 14300 C 1377.87 -0.638107 -1.85533 0
M  V30 14301 O 1377 0.21333 -2.15346 0
M  V30 14302 C 1377.59 -3.0558 -1.46309 0
M  V30 14303 C 1376.15 -3.20192 -1.97874 0
M  V30 14304 C 1375.3 -2.64457 -0.834136 0
M  V30 14305 H 1378.25 -1.58697 -0.0103759 0
M  V30 14306 H 1378.27 -3.007 -2.33152 0
M  V30 14307 H 1377.78 -3.81792 -0.696868 0
M  V30 14308 H 1375.88 -2.48825 -2.77339 0
M  V30 14309 H 1376 -4.27251 -2.1678 0
M  V30 14310 H 1374.36 -2.22593 -1.23791 0
M  V30 14311 H 1375.14 -3.43205 -0.0807988 0
M  V30 14312 N 1377.59 0.500963 -1.49426 0
M  V30 14313 C 1379 1.08248 -1.52116 0
M  V30 14314 C 1379.35 1.93777 -0.30738 0
M  V30 14315 O 1378.48 2.08404 0.582805 0
M  V30 14316 C 1379.07 1.96988 -2.75647 0
M  V30 14317 C 1377.63 2.50303 -2.81115 0
M  V30 14318 C 1376.78 1.27924 -2.4603 0
M  V30 14319 H 1379.73 0.284872 -1.56122 0
M  V30 14320 H 1379.75 2.81675 -2.55811 0
M  V30 14321 H 1379.26 1.34711 -3.6397 0
M  V30 14322 H 1377.36 3.16218 -1.97072 0
M  V30 14323 H 1377.48 2.87453 -3.83286 0
M  V30 14324 H 1375.84 1.60447 -1.9781 0
M  V30 14325 H 1376.62 0.673557 -3.36628 0
M  V30 14326 N 1379.07 1.38501 0.752011 0
M  V30 14327 C 1380.29 1.38212 1.54636 0
M  V30 14328 C 1380.72 -0.0256356 1.88083 0
M  V30 14329 O 1380.08 -1.00812 1.50687 0
M  V30 14330 C 1380.12 2.24597 2.82114 0
M  V30 14331 O 1379.23 1.66415 3.77332 0
M  V30 14332 H 1378.57 0.47138 0.46765 0
M  V30 14333 H 1381.1 1.82283 0.929205 0
M  V30 14334 H 1381.11 2.38511 3.31023 0
M  V30 14335 H 1379.78 3.26913 2.57101 0
M  V30 14336 H 1378.36 1.61651 3.36041 0
M  V30 14337 N 1380.55 -0.980364 1.23396 0
M  V30 14338 C 1381.51 -2.05433 1.01635 0
M  V30 14339 C 1382.51 -1.60785 -0.0218244 0
M  V30 14340 O 1383.7 -1.72832 0.217922 0
M  V30 14341 C 1380.83 -3.36631 0.537822 0
M  V30 14342 H 1382.02 -2.26172 1.96943 0
M  V30 14343 H 1379.58 -1.15378 1.05441 0
M  V30 14344 H 1380.31 -3.21581 -0.41903 0
M  V30 14345 H 1380.1 -3.70377 1.28698 0
M  V30 14346 H 1381.59 -4.1562 0.406213 0
M  V30 14347 N 1382.02 -1.04567 -1.17913 0
M  V30 14348 C 1382.97 -0.611407 -2.19649 0
M  V30 14349 C 1383.96 0.348802 -1.57074 0
M  V30 14350 O 1385.15 0.167045 -1.7621 0
M  V30 14351 C 1382.28 0.0189379 -3.43295 0
M  V30 14352 C 1381.36 -0.96472 -4.12982 0
M  V30 14353 N 1381.76 -2.13371 -4.58592 0
M  V30 14354 C 1380.05 -0.791817 -4.38915 0
M  V30 14355 C 1380.75 -2.75549 -5.12296 0
M  V30 14356 N 1379.73 -2.0339 -5.04117 0
M  V30 14357 H 1383.53 -1.50217 -2.5261 0
M  V30 14358 H 1381.05 -0.914946 -1.34173 0
M  V30 14359 H 1383.04 0.347776 -4.15447 0
M  V30 14360 H 1381.7 0.905177 -3.11828 0
M  V30 14361 H 1382.71 -2.51236 -4.52881 0
M  V30 14362 H 1379.39 0.0439054 -4.17477 0
M  V30 14363 H 1380.78 -3.74647 -5.57754 0
M  V30 14364 N 1383.5 1.34231 -0.825823 0
M  V30 14365 C 1384.43 2.28261 -0.207234 0
M  V30 14366 C 1385.45 1.51159 0.604554 0
M  V30 14367 O 1386.64 1.7315 0.43376 0
M  V30 14368 C 1383.74 3.30991 0.727868 0
M  V30 14369 C 1382.91 4.3738 -0.0417267 0
M  V30 14370 C 1381.97 5.19854 0.81474 0
M  V30 14371 O 1380.99 5.68612 0.25867 0
M  V30 14372 N 1382.2 5.39849 2.1341 0
M  V30 14373 H 1384.96 2.81986 -1.0151 0
M  V30 14374 H 1382.52 1.46785 -0.683056 0
M  V30 14375 H 1384.51 3.83065 1.3055 0
M  V30 14376 H 1383.08 2.7764 1.43647 0
M  V30 14377 H 1382.3 3.85983 -0.800686 0
M  V30 14378 H 1383.59 5.05581 -0.571395 0
M  V30 14379 H 1382.99 5.01914 2.60958 0
M  V30 14380 H 1381.55 5.95029 2.66052 0
M  V30 14381 N 1384.98 0.581051 1.46498 0
M  V30 14382 C 1385.91 -0.19094 2.28403 0
M  V30 14383 C 1386.92 -0.857039 1.38415 0
M  V30 14384 O 1388.11 -0.726881 1.6303 0
M  V30 14385 C 1385.21 -1.28972 3.134 0
M  V30 14386 C 1384.39 -0.715867 4.31502 0
M  V30 14387 C 1383.45 -1.70215 4.97909 0
M  V30 14388 O 1382.47 -1.23885 5.55555 0
M  V30 14389 N 1383.67 -3.0362 4.94768 0
M  V30 14390 H 1386.44 0.511754 2.95298 0
M  V30 14391 H 1384 0.41871 1.56392 0
M  V30 14392 H 1385.99 -1.94877 3.5469 0
M  V30 14393 H 1384.56 -1.8953 2.4859 0
M  V30 14394 H 1383.78 0.120591 3.94016 0
M  V30 14395 H 1385.07 -0.312226 5.07841 0
M  V30 14396 H 1384.47 -3.43885 4.49177 0
M  V30 14397 H 1383.02 -3.65018 5.40005 0
M  V30 14398 N 1386.46 -1.54343 0.318742 0
M  V30 14399 C 1387.87 -1.85922 -0.170309 0
M  V30 14400 C 1388.22 -1.24047 -1.52009 0
M  V30 14401 O 1387.34 -0.544705 -2.09432 0
M  V30 14402 C 1387.94 -3.37325 -0.315802 0
M  V30 14403 C 1386.5 -3.68871 -0.749073 0
M  V30 14404 C 1385.65 -2.76985 0.13209 0
M  V30 14405 H 1388.6 -1.4926 0.539185 0
M  V30 14406 H 1388.62 -3.62784 -1.14751 0
M  V30 14407 H 1388.13 -3.8233 0.66674 0
M  V30 14408 H 1386.23 -3.29396 -1.74153 0
M  V30 14409 H 1386.34 -4.75861 -0.556164 0
M  V30 14410 H 1384.71 -2.51672 -0.391564 0
M  V30 14411 H 1385.49 -3.24815 1.11131 0
M  V30 14412 N 1387.94 -0.0468143 -1.5753 0
M  V30 14413 C 1389.35 0.489509 -1.80169 0
M  V30 14414 C 1389.7 1.71184 -0.958669 0
M  V30 14415 O 1388.82 2.15699 -0.174025 0
M  V30 14416 C 1389.42 0.894838 -3.26769 0
M  V30 14417 C 1387.98 1.37617 -3.50341 0
M  V30 14418 C 1387.12 0.349275 -2.75092 0
M  V30 14419 H 1390.07 -0.272728 -1.56339 0
M  V30 14420 H 1390.1 1.75805 -3.3745 0
M  V30 14421 H 1389.61 0.00501096 -3.881 0
M  V30 14422 H 1387.71 2.28533 -2.94285 0
M  V30 14423 H 1387.82 1.37133 -4.59055 0
M  V30 14424 H 1386.19 0.821219 -2.41098 0
M  V30 14425 H 1386.97 -0.532391 -3.39147 0
M  V30 14426 N 1389.41 1.55964 0.226527 0
M  V30 14427 C 1390.36 1.88403 1.28406 0
M  V30 14428 C 1391.35 0.746656 1.42527 0
M  V30 14429 O 1392.54 1.00898 1.45425 0
M  V30 14430 C 1389.67 2.19992 2.63549 0
M  V30 14431 C 1388.76 3.40109 2.5335 0
M  V30 14432 N 1389.15 4.58858 2.12798 0
M  V30 14433 C 1387.44 3.43625 2.8432 0
M  V30 14434 C 1388.15 5.41013 2.13729 0
M  V30 14435 N 1387.12 4.80596 2.54025 0
M  V30 14436 H 1390.92 2.77732 0.961352 0
M  V30 14437 H 1388.44 1.56463 0.435104 0
M  V30 14438 H 1390.43 2.41405 3.39896 0
M  V30 14439 H 1389.09 1.31973 2.9667 0
M  V30 14440 H 1390.11 4.84108 1.8401 0
M  V30 14441 H 1386.78 2.65935 3.21846 0
M  V30 14442 H 1388.17 6.4606 1.84543 0
M  V30 14443 N 1390.89 -0.493031 1.4969 0
M  V30 14444 C 1392.12 -1.26862 1.63063 0
M  V30 14445 C 1392.53 -1.86734 0.304451 0
M  V30 14446 O 1391.87 -1.68956 -0.72108 0
M  V30 14447 C 1391.94 -2.43249 2.64708 0
M  V30 14448 C 1391.6 -2.04185 4.08849 0
M  V30 14449 C 1392.6 -1.57698 4.95406 0
M  V30 14450 C 1390.28 -2.13576 4.54632 0
M  V30 14451 C 1392.28 -1.21116 6.25787 0
M  V30 14452 C 1389.96 -1.76606 5.85024 0
M  V30 14453 C 1390.96 -1.30451 6.70426 0
M  V30 14454 O 1390.65 -0.939844 7.98387 0
M  V30 14455 H 1390.38 -0.390674 0.551679 0
M  V30 14456 H 1392.93 -0.59753 1.96516 0
M  V30 14457 H 1391.16 -3.1346 2.26451 0
M  V30 14458 H 1392.85 -3.0526 2.67528 0
M  V30 14459 H 1393.62 -1.49882 4.6126 0
M  V30 14460 H 1389.5 -2.48451 3.88321 0
M  V30 14461 H 1393.04 -0.850198 6.924 0
M  V30 14462 H 1388.94 -1.84074 6.18698 0
M  V30 14463 H 1389.71 -1.07062 8.11468 0
M  V30 14464 N 1392.37 -1.38898 -0.744656 0
M  V30 14465 C 1393.6 -1.38848 -1.53391 0
M  V30 14466 C 1394.01 0.0194949 -1.8879 0
M  V30 14467 O 1393.37 0.988399 -1.53417 0
M  V30 14468 C 1393.42 -2.25243 -2.8275 0
M  V30 14469 O 1393.14 -3.60557 -2.48858 0
M  V30 14470 C 1394.64 -2.33471 -3.76837 0
M  V30 14471 H 1391.86 -0.4746 -0.474338 0
M  V30 14472 H 1394.41 -1.82591 -0.920902 0
M  V30 14473 H 1392.56 -1.84938 -3.40407 0
M  V30 14474 H 1392.98 -4.06142 -3.31887 0
M  V30 14475 H 1394.45 -2.9819 -4.64528 0
M  V30 14476 H 1394.93 -1.351 -4.17905 0
M  V30 14477 H 1395.53 -2.74205 -3.25103 0
M  V30 14478 N 1393.85 0.973806 -1.23914 0
M  V30 14479 C 1395.08 1.75107 -1.10206 0
M  V30 14480 C 1395.49 1.85604 0.345935 0
M  V30 14481 O 1394.85 1.33996 1.239 0
M  V30 14482 C 1394.9 3.17466 -1.72909 0
M  V30 14483 O 1394.62 3.07504 -3.12047 0
M  V30 14484 C 1396.12 4.11557 -1.6473 0
M  V30 14485 H 1393.34 0.549318 -0.385345 0
M  V30 14486 H 1395.89 1.22301 -1.63898 0
M  V30 14487 H 1394.04 3.67277 -1.23234 0
M  V30 14488 H 1394.45 3.97169 -3.42575 0
M  V30 14489 H 1395.93 5.09126 -2.13295 0
M  V30 14490 H 1396.41 4.3498 -0.607352 0
M  V30 14491 H 1397.01 3.67653 -2.13802 0
M  V30 14492 N 1395.33 1.05191 1.17357 0
M  V30 14493 C 1396.55 0.782343 1.92079 0
M  V30 14494 C 1396.98 -0.655957 1.76292 0
M  V30 14495 O 1396.33 -1.45573 1.08065 0
M  V30 14496 C 1396.38 1.16777 3.41168 0
M  V30 14497 O 1395.49 0.299908 4.11308 0
M  V30 14498 H 1394.83 0.286894 0.598822 0
M  V30 14499 H 1397.36 1.40476 1.48754 0
M  V30 14500 H 1397.37 1.13454 3.91909 0
M  V30 14501 H 1396.04 2.2155 3.51978 0
M  V30 14502 H 1394.62 0.393744 3.70815 0
M  V30 14503 N 1396.8 -1.33791 0.83293 0
M  V30 14504 C 1397.77 -2.27637 0.267196 0
M  V30 14505 C 1398.77 -1.50709 -0.560669 0
M  V30 14506 O 1399.96 -1.70109 -0.375321 0
M  V30 14507 C 1397.09 -3.35136 -0.624248 0
M  V30 14508 H 1398.28 -2.79186 1.09522 0
M  V30 14509 H 1395.84 -1.44093 0.605554 0
M  V30 14510 H 1396.57 -2.88818 -1.47494 0
M  V30 14511 H 1396.36 -3.92087 -0.0319827 0
M  V30 14512 H 1397.85 -4.05113 -1.01355 0
M  V30 14513 N 1398.28 -0.588812 -1.46187 0
M  V30 14514 C 1399.21 0.128595 -2.33146 0
M  V30 14515 C 1400.19 0.877608 -1.45712 0
M  V30 14516 O 1401.38 0.851866 -1.74519 0
M  V30 14517 C 1398.51 1.13886 -3.28096 0
M  V30 14518 C 1397.46 0.504296 -4.25019 0
M  V30 14519 C 1396.79 1.62147 -5.09522 0
M  V30 14520 C 1398.09 -0.562466 -5.19263 0
M  V30 14521 H 1399.78 -0.597455 -2.93378 0
M  V30 14522 H 1397.33 -0.288764 -1.41075 0
M  V30 14523 H 1399.28 1.64916 -3.8779 0
M  V30 14524 H 1398.01 1.89527 -2.65983 0
M  V30 14525 H 1396.66 0.0150325 -3.66597 0
M  V30 14526 H 1396.31 2.36769 -4.4379 0
M  V30 14527 H 1396.01 1.20249 -5.75164 0
M  V30 14528 H 1397.54 2.13441 -5.7208 0
M  V30 14529 H 1398.95 -0.137003 -5.73136 0
M  V30 14530 H 1397.35 -0.902115 -5.93281 0
M  V30 14531 H 1398.42 -1.4464 -4.62825 0
M  V30 14532 N 1399.76 1.54172 -0.326923 0
M  V30 14533 C 1400.69 2.21958 0.571588 0
M  V30 14534 C 1401.71 1.22067 1.0772 0
M  V30 14535 O 1402.89 1.48517 0.990202 0
M  V30 14536 C 1399.99 2.87307 1.79744 0
M  V30 14537 C 1399.17 4.13366 1.42995 0
M  V30 14538 C 1398.23 4.62276 2.5137 0
M  V30 14539 O 1397.25 5.2688 2.15373 0
M  V30 14540 N 1398.45 4.36789 3.82355 0
M  V30 14541 H 1401.22 2.99699 -0.00885848 0
M  V30 14542 H 1398.78 1.61201 -0.150279 0
M  V30 14543 H 1400.77 3.1695 2.51644 0
M  V30 14544 H 1399.34 2.13252 2.28566 0
M  V30 14545 H 1398.56 3.9045 0.542444 0
M  V30 14546 H 1399.85 4.95396 1.16017 0
M  V30 14547 H 1399.25 3.85086 4.14397 0
M  V30 14548 H 1397.81 4.71079 4.50475 0
M  V30 14549 N 1401.24 0.0551678 1.57503 0
M  V30 14550 C 1402.17 -0.947102 2.08717 0
M  V30 14551 C 1403.18 -1.2722 1.01582 0
M  V30 14552 O 1404.37 -1.23229 1.29139 0
M  V30 14553 C 1401.47 -2.26756 2.51863 0
M  V30 14554 C 1400.65 -2.12378 3.8238 0
M  V30 14555 C 1399.7 -3.27582 4.11797 0
M  V30 14556 O 1398.73 -3.03309 4.81656 0
M  V30 14557 N 1399.93 -4.5218 3.64024 0
M  V30 14558 H 1402.7 -0.509957 2.9533 0
M  V30 14559 H 1400.26 -0.130976 1.61369 0
M  V30 14560 H 1402.25 -3.02701 2.68616 0
M  V30 14561 H 1400.82 -2.62024 1.70477 0
M  V30 14562 H 1400.04 -1.21 3.7517 0
M  V30 14563 H 1401.33 -2.00003 4.67842 0
M  V30 14564 H 1400.73 -4.7479 3.07556 0
M  V30 14565 H 1399.28 -5.25206 3.86008 0
M  V30 14566 N 1402.72 -1.56081 -0.218252 0
M  V30 14567 C 1403.68 -1.91851 -1.25402 0
M  V30 14568 C 1404.68 -0.797399 -1.39636 0
M  V30 14569 O 1405.87 -1.06511 -1.37844 0
M  V30 14570 C 1403 -2.17223 -2.6273 0
M  V30 14571 H 1404.19 -2.84493 -0.948882 0
M  V30 14572 H 1401.75 -1.49414 -0.458809 0
M  V30 14573 H 1402.48 -1.27144 -2.98337 0
M  V30 14574 H 1402.27 -2.98899 -2.53775 0
M  V30 14575 H 1403.76 -2.45981 -3.37466 0
M  V30 14576 N 1404.2 0.485086 -1.49949 0
M  V30 14577 C 1405.13 1.59312 -1.7071 0
M  V30 14578 C 1406.11 1.6076 -0.555896 0
M  V30 14579 O 1407.29 1.77249 -0.793504 0
M  V30 14580 C 1404.42 2.97718 -1.78834 0
M  V30 14581 C 1403.38 3.11136 -2.93902 0
M  V30 14582 C 1402.7 4.51051 -2.87154 0
M  V30 14583 C 1404 2.89665 -4.34617 0
M  V30 14584 H 1405.7 1.42192 -2.6348 0
M  V30 14585 H 1403.24 0.68262 -1.26792 0
M  V30 14586 H 1405.19 3.75148 -1.91943 0
M  V30 14587 H 1403.92 3.15963 -0.826744 0
M  V30 14588 H 1402.58 2.36135 -2.80421 0
M  V30 14589 H 1402.23 4.66195 -1.88869 0
M  V30 14590 H 1401.93 4.60967 -3.64394 0
M  V30 14591 H 1403.45 5.3052 -3.02293 0
M  V30 14592 H 1404.86 3.56853 -4.48697 0
M  V30 14593 H 1403.26 3.11039 -5.13201 0
M  V30 14594 H 1404.33 1.85642 -4.47956 0
M  V30 14595 N 1405.67 1.39291 0.737279 0
M  V30 14596 C 1406.6 1.40562 1.86452 0
M  V30 14597 C 1407.58 0.269283 1.67955 0
M  V30 14598 O 1408.77 0.474769 1.88307 0
M  V30 14599 C 1405.9 1.2461 3.24175 0
M  V30 14600 C 1404.85 2.35619 3.57306 0
M  V30 14601 C 1404.18 2.04758 4.93941 0
M  V30 14602 C 1405.48 3.77927 3.60512 0
M  V30 14603 H 1407.17 2.34896 1.85646 0
M  V30 14604 H 1404.72 1.13065 0.891756 0
M  V30 14605 H 1406.67 1.2412 4.02706 0
M  V30 14606 H 1405.4 0.267438 3.25503 0
M  V30 14607 H 1404.06 2.35322 2.81104 0
M  V30 14608 H 1403.7 1.05336 4.91847 0
M  V30 14609 H 1403.4 2.79117 5.17076 0
M  V30 14610 H 1404.93 2.05915 5.74832 0
M  V30 14611 H 1406.34 3.80166 4.29123 0
M  V30 14612 H 1404.74 4.51626 3.95164 0
M  V30 14613 H 1405.81 4.09068 2.60368 0
M  V30 14614 N 1407.15 -0.967221 1.24429 0
M  V30 14615 C 1408.38 -1.75053 1.11226 0
M  V30 14616 C 1408.8 -1.85162 -0.331139 0
M  V30 14617 O 1408.16 -1.32288 -1.23974 0
M  V30 14618 C 1408.21 -3.14882 1.75733 0
M  V30 14619 O 1407.31 -3.99371 1.02842 0
M  V30 14620 H 1406.65 -0.538078 0.389061 0
M  V30 14621 H 1409.18 -1.21325 1.64746 0
M  V30 14622 H 1409.19 -3.65402 1.81509 0
M  V30 14623 H 1407.87 -3.06839 2.80754 0
M  V30 14624 H 1406.44 -3.57854 1.04856 0
M  V30 14625 N 1408.63 -1.05812 -1.16797 0
M  V30 14626 C 1410.04 -0.79707 -1.6883 0
M  V30 14627 C 1410.39 0.679967 -1.8404 0
M  V30 14628 O 1409.52 1.5279 -1.53245 0
M  V30 14629 C 1410.11 -1.44029 -3.06661 0
M  V30 14630 C 1408.67 -1.22714 -3.55835 0
M  V30 14631 C 1407.82 -1.51988 -2.31937 0
M  V30 14632 H 1410.77 -1.22224 -1.01227 0
M  V30 14633 H 1410.79 -0.852962 -3.70816 0
M  V30 14634 H 1410.3 -2.51529 -2.95559 0
M  V30 14635 H 1408.4 -0.171671 -3.72204 0
M  V30 14636 H 1408.52 -1.93646 -4.38221 0
M  V30 14637 H 1406.88 -0.940215 -2.36711 0
M  V30 14638 H 1407.66 -2.60635 -2.23438 0
M  V30 14639 N 1410.11 1.33347 -0.840014 0
M  V30 14640 C 1411.34 2.01952 -0.449793 0
M  V30 14641 C 1411.75 1.63197 0.949317 0
M  V30 14642 O 1411.11 0.84589 1.61713 0
M  V30 14643 C 1411.16 3.57102 -0.562178 0
M  V30 14644 O 1410.88 3.94458 -1.90616 0
M  V30 14645 C 1412.38 4.42978 -0.169062 0
M  V30 14646 H 1409.6 0.646843 -0.178425 0
M  V30 14647 H 1412.14 1.70251 -1.1329 0
M  V30 14648 H 1410.3 3.87331 0.0730345 0
M  V30 14649 H 1410.71 4.89167 -1.8925 0
M  V30 14650 H 1412.19 5.51191 -0.298742 0
M  V30 14651 H 1412.66 4.30106 0.889137 0
M  V30 14652 H 1413.27 4.18109 -0.778756 0
M  V30 14653 N 1411.59 0.596556 1.45873 0
M  V30 14654 C 1413 0.173758 1.8589 0
M  V30 14655 C 1413.35 -1.26665 1.49835 0
M  V30 14656 O 1412.47 -1.9588 0.919773 0
M  V30 14657 C 1413.07 0.308567 3.37392 0
M  V30 14658 C 1411.63 -0.0594585 3.76353 0
M  V30 14659 C 1410.77 0.638127 2.69858 0
M  V30 14660 H 1413.72 0.803928 1.36831 0
M  V30 14661 H 1413.75 -0.462294 3.77681 0
M  V30 14662 H 1413.26 1.35701 3.63603 0
M  V30 14663 H 1411.36 -1.1075 3.5576 0
M  V30 14664 H 1411.47 0.326506 4.77986 0
M  V30 14665 H 1409.84 0.0769147 2.54584 0
M  V30 14666 H 1410.62 1.68849 2.98906 0
M  V30 14667 N 1413.06 -1.53996 0.335095 0
M  V30 14668 C 1414.47 -1.86092 -0.15058 0
M  V30 14669 C 1414.83 -1.25652 -1.50685 0
M  V30 14670 O 1413.95 -0.566887 -2.08843 0
M  V30 14671 C 1414.55 -3.37641 -0.280007 0
M  V30 14672 C 1413.1 -3.69645 -0.709907 0
M  V30 14673 C 1412.25 -2.7683 0.161461 0
M  V30 14674 H 1415.2 -1.4868 0.554986 0
M  V30 14675 H 1415.22 -3.63981 -1.10896 0
M  V30 14676 H 1414.74 -3.81601 0.707254 0
M  V30 14677 H 1412.84 -3.31224 -1.7065 0
M  V30 14678 H 1412.95 -4.76424 -0.505661 0
M  V30 14679 H 1411.31 -2.52073 -0.364849 0
M  V30 14680 H 1412.1 -3.23618 1.1457 0
M  V30 14681 N 1414.54 -0.0635198 -1.57472 0
M  V30 14682 C 1415.82 0.648029 -1.84553 0
M  V30 14683 C 1416.2 1.88295 -0.954371 0
M  V30 14684 O 1415.55 2.28492 -0.0185351 0
M  V30 14685 C 1415.76 0.993573 -3.34558 0
M  V30 14686 C 1417.1 1.3706 -4.0187 0
M  V30 14687 O 1418.13 1.08555 -3.39255 0
M  V30 14688 O 1416.99 1.90309 -5.12294 0
M  V30 14689 H 1414.08 0.321047 -0.76214 0
M  V30 14690 H 1416.63 -0.0938223 -1.6944 0
M  V30 14691 H 1415.4 0.116139 -3.91128 0
M  V30 14692 H 1415.02 1.79246 -3.54904 0
M  V30 14693 N 1416.02 1.56195 0.209972 0
M  V30 14694 C 1417.25 1.83574 0.947852 0
M  V30 14695 C 1417.66 0.641947 1.77977 0
M  V30 14696 O 1417 -0.398794 1.79319 0
M  V30 14697 C 1417.06 3.0485 1.90543 0
M  V30 14698 C 1416.73 4.39375 1.25692 0
M  V30 14699 C 1417.72 5.15932 0.641107 0
M  V30 14700 C 1415.41 4.86104 1.26522 0
M  V30 14701 C 1417.4 6.37386 0.0422484 0
M  V30 14702 C 1415.09 6.07498 0.662523 0
M  V30 14703 C 1416.09 6.8298 0.0521007 0
M  V30 14704 O 1415.78 8.02076 -0.541192 0
M  V30 14705 H 1415.51 0.614001 0.282805 0
M  V30 14706 H 1418.06 2.04144 0.226767 0
M  V30 14707 H 1416.29 2.80127 2.66582 0
M  V30 14708 H 1417.98 3.19001 2.50984 0
M  V30 14709 H 1418.75 4.80931 0.626938 0
M  V30 14710 H 1414.63 4.27318 1.72974 0
M  V30 14711 H 1418.17 6.96244 -0.434823 0
M  V30 14712 H 1414.07 6.4197 0.674144 0
M  V30 14713 H 1414.83 8.17335 -0.43664 0
M  V30 14714 N 1417.5 -0.477127 1.50204 0
M  V30 14715 C 1418.73 -1.25307 1.64638 0
M  V30 14716 C 1419.14 -1.85942 0.327274 0
M  V30 14717 O 1418.5 -1.6895 -0.690088 0
M  V30 14718 C 1418.55 -2.36616 2.73304 0
M  V30 14719 O 1418.27 -1.78469 4.00101 0
M  V30 14720 C 1419.77 -3.27595 2.98658 0
M  V30 14721 H 1416.99 -0.379192 0.553583 0
M  V30 14722 H 1419.53 -0.5702 1.9639 0
M  V30 14723 H 1417.69 -3.00689 2.44264 0
M  V30 14724 H 1418.1 -2.51722 4.60148 0
M  V30 14725 H 1419.58 -4.01921 3.7837 0
M  V30 14726 H 1420.05 -3.86017 2.09493 0
M  V30 14727 H 1420.66 -2.69264 3.29206 0
M  V30 14728 N 1418.98 -1.3968 -0.729882 0
M  V30 14729 C 1420.39 -1.21396 -1.0361 0
M  V30 14730 C 1420.59 -0.0791302 -2.01345 0
M  V30 14731 O 1419.65 0.567575 -2.46038 0
M  V30 14732 C 1420.96 -2.55006 -1.59349 0
M  V30 14733 C 1422.51 -2.61896 -1.71405 0
M  V30 14734 C 1422.98 -3.9574 -2.30552 0
M  V30 14735 N 1424.48 -3.97406 -2.37955 0
M  V30 14736 C 1425.21 -4.97745 -2.8467 0
M  V30 14737 N 1424.71 -6.08482 -3.31243 0
M  V30 14738 N 1426.5 -4.85121 -2.83925 0
M  V30 14739 H 1418.65 -2.12242 -0.081787 0
M  V30 14740 H 1420.91 -0.942827 -0.0989005 0
M  V30 14741 H 1420.62 -3.38626 -0.950005 0
M  V30 14742 H 1420.49 -2.75087 -2.58083 0
M  V30 14743 H 1422.88 -1.78656 -2.34874 0
M  V30 14744 H 1422.96 -2.45659 -0.7131 0
M  V30 14745 H 1422.61 -4.79412 -1.67709 0
M  V30 14746 H 1422.54 -4.09299 -3.31334 0
M  V30 14747 H 1425.03 -3.17435 -2.05044 0
M  V30 14748 H 1425.34 -6.8095 -3.65414 0
M  V30 14749 H 1423.68 -6.12068 -3.29239 0
M  V30 14750 H 1426.88 -3.97711 -2.46867 0
M  V30 14751 H 1427.05 -5.63465 -3.20017 0
M  V30 14752 N 1420.45 0.960609 -1.2494 0
M  V30 14753 C 1421.4 2.04164 -1.01493 0
M  V30 14754 C 1422.39 1.60834 0.0461124 0
M  V30 14755 O 1423.58 1.76196 -0.168491 0
M  V30 14756 C 1420.71 3.37484 -0.629251 0
M  V30 14757 C 1419.8 3.87356 -1.72674 0
M  V30 14758 N 1420.19 4.10085 -2.9608 0
M  V30 14759 C 1418.48 4.16086 -1.60589 0
M  V30 14760 C 1419.19 4.51091 -3.67276 0
M  V30 14761 N 1418.16 4.56676 -2.9487 0
M  V30 14762 H 1421.96 2.19723 -1.95189 0
M  V30 14763 H 1419.48 1.14496 -1.15171 0
M  V30 14764 H 1421.47 4.14545 -0.442484 0
M  V30 14765 H 1420.13 3.23307 0.300446 0
M  V30 14766 H 1421.15 3.97331 -3.32187 0
M  V30 14767 H 1417.82 4.10804 -0.744725 0
M  V30 14768 H 1419.21 4.77031 -4.73172 0
M  V30 14769 N 1421.93 1.0643 1.16234 0
M  V30 14770 C 1422.86 0.634274 2.20249 0
M  V30 14771 C 1423.88 -0.308432 1.59852 0
M  V30 14772 O 1425.07 -0.0992067 1.78224 0
M  V30 14773 C 1422.17 -0.0901593 3.3878 0
M  V30 14774 C 1421.34 0.866379 4.28734 0
M  V30 14775 C 1420.4 0.180942 5.25889 0
M  V30 14776 O 1419.42 0.819034 5.63277 0
M  V30 14777 N 1420.63 -1.07698 5.70422 0
M  V30 14778 H 1423.39 1.52901 2.57762 0
M  V30 14779 H 1420.95 0.947789 1.31258 0
M  V30 14780 H 1422.94 -0.559147 4.00819 0
M  V30 14781 H 1421.51 -0.886715 2.9976 0
M  V30 14782 H 1420.73 1.51471 3.63937 0
M  V30 14783 H 1422.02 1.51524 4.85714 0
M  V30 14784 H 1421.42 -1.6155 5.42142 0
M  V30 14785 H 1419.98 -1.48981 6.34545 0
M  V30 14786 N 1423.41 -1.329 0.847073 0
M  V30 14787 C 1424.34 -2.27903 0.243522 0
M  V30 14788 C 1425.36 -1.52101 -0.58043 0
M  V30 14789 O 1426.54 -1.73818 -0.406158 0
M  V30 14790 C 1423.64 -3.32107 -0.675118 0
M  V30 14791 C 1422.82 -4.37258 0.111305 0
M  V30 14792 C 1421.88 -5.21085 -0.731933 0
M  V30 14793 O 1420.9 -5.68951 -0.168176 0
M  V30 14794 N 1422.1 -5.43175 -2.04794 0
M  V30 14795 H 1424.87 -2.80335 1.05983 0
M  V30 14796 H 1422.43 -1.4568 0.706322 0
M  V30 14797 H 1424.42 -3.85093 -1.2444 0
M  V30 14798 H 1422.99 -2.79891 -1.39212 0
M  V30 14799 H 1422.21 -3.8466 0.861991 0
M  V30 14800 H 1423.5 -5.04608 0.651756 0
M  V30 14801 H 1422.9 -5.06002 -2.5294 0
M  V30 14802 H 1421.46 -5.99186 -2.56552 0
M  V30 14803 N 1424.89 -0.604284 -1.45555 0
M  V30 14804 C 1426.13 -0.0983316 -2.02561 0
M  V30 14805 C 1426.47 1.26659 -1.47211 0
M  V30 14806 O 1425.74 1.83476 -0.645519 0
M  V30 14807 C 1426.03 -0.0558349 -3.60057 0
M  V30 14808 C 1425.88 -1.45119 -4.25747 0
M  V30 14809 C 1427.2 0.633708 -4.35514 0
M  V30 14810 H 1424.32 -0.0372071 -0.73606 0
M  V30 14811 H 1426.96 -0.775623 -1.73448 0
M  V30 14812 H 1425.11 0.520935 -3.84992 0
M  V30 14813 H 1426.78 -2.07478 -4.12008 0
M  V30 14814 H 1425.02 -2.01283 -3.84275 0
M  V30 14815 H 1425.69 -1.37372 -5.34633 0
M  V30 14816 H 1428.17 0.143501 -4.15852 0
M  V30 14817 H 1427.05 0.632538 -5.45243 0
M  V30 14818 H 1427.31 1.69917 -4.08143 0
M  V30 14819 N 1426.37 1.53816 -0.343257 0
M  V30 14820 C 1427.78 1.86169 0.140709 0
M  V30 14821 C 1428.13 1.26449 1.50017 0
M  V30 14822 O 1427.25 0.577955 2.08539 0
M  V30 14823 C 1427.85 3.37785 0.262097 0
M  V30 14824 C 1426.41 3.70016 0.690294 0
M  V30 14825 C 1425.55 2.7674 -0.17614 0
M  V30 14826 H 1428.51 1.48383 -0.562863 0
M  V30 14827 H 1428.53 3.64564 1.08964 0
M  V30 14828 H 1428.04 3.81221 -0.727481 0
M  V30 14829 H 1426.14 3.32124 1.68891 0
M  V30 14830 H 1426.25 4.76686 0.480388 0
M  V30 14831 H 1424.62 2.52263 0.351476 0
M  V30 14832 H 1425.4 3.23006 -1.16285 0
M  V30 14833 N 1427.84 0.0718701 1.57436 0
M  V30 14834 C 1428.79 -0.905443 2.0925 0
M  V30 14835 C 1429.78 -1.25875 1.00221 0
M  V30 14836 O 1430.97 -1.23771 1.26529 0
M  V30 14837 C 1428.1 -2.17298 2.65775 0
M  V30 14838 C 1427.19 -1.84614 3.81809 0
M  V30 14839 N 1427.58 -1.22381 4.90771 0
M  V30 14840 C 1425.87 -2.14364 3.91106 0
M  V30 14841 C 1426.58 -1.07791 5.71626 0
M  V30 14842 N 1425.55 -1.58764 5.19899 0
M  V30 14843 H 1429.35 -0.419955 2.90884 0
M  V30 14844 H 1426.87 -0.132017 1.61863 0
M  V30 14845 H 1428.86 -2.88231 3.01211 0
M  V30 14846 H 1427.52 -2.66434 1.85588 0
M  V30 14847 H 1428.54 -0.89345 5.10135 0
M  V30 14848 H 1425.21 -2.65877 3.21894 0
M  V30 14849 H 1426.6 -0.593061 6.69278 0
M  V30 14850 N 1429.32 -1.56304 -0.201686 0
M  V30 14851 C 1430.57 -1.79433 -0.921241 0
M  V30 14852 C 1430.88 -0.643943 -1.84696 0
M  V30 14853 O 1432.09 -0.759359 -2.60665 0
M  V30 14854 C 1430.55 -3.17835 -1.68846 0
M  V30 14855 C 1430.15 -4.40655 -0.807892 0
M  V30 14856 C 1431.9 -3.50277 -2.39805 0
M  V30 14857 C 1429.81 -5.7008 -1.5736 0
M  V30 14858 H 1428.74 -0.669029 -0.34773 0
M  V30 14859 H 1431.39 -1.82667 -0.174657 0
M  V30 14860 H 1429.77 -3.08832 -2.47869 0
M  V30 14861 H 1430.94 -4.60765 -0.0567923 0
M  V30 14862 H 1429.26 -4.15873 -0.209465 0
M  V30 14863 H 1431.85 -4.44207 -2.97631 0
M  V30 14864 H 1432.2 -2.7371 -3.1367 0
M  V30 14865 H 1432.73 -3.60698 -1.67754 0
M  V30 14866 H 1429.47 -6.49595 -0.877855 0
M  V30 14867 H 1428.99 -5.53999 -2.2988 0
M  V30 14868 H 1430.67 -6.10964 -2.12912 0
M  V30 14869 N 1430.8 0.469154 -1.50455 0
M  V30 14870 C 1431.73 1.57493 -1.7239 0
M  V30 14871 C 1432.71 1.60161 -0.572915 0
M  V30 14872 O 1433.9 1.76397 -0.812259 0
M  V30 14873 C 1431.03 2.95804 -1.81981 0
M  V30 14874 C 1429.98 3.08001 -2.97185 0
M  V30 14875 C 1429.31 4.4798 -2.91922 0
M  V30 14876 C 1430.61 2.85039 -4.37665 0
M  V30 14877 H 1432.3 1.39389 -2.64974 0
M  V30 14878 H 1429.85 0.669133 -1.27509 0
M  V30 14879 H 1431.8 3.73091 -1.95911 0
M  V30 14880 H 1430.52 3.15068 -0.86021 0
M  V30 14881 H 1429.18 2.33148 -2.82909 0
M  V30 14882 H 1428.83 4.64165 -1.93803 0
M  V30 14883 H 1428.53 4.57076 -3.69263 0
M  V30 14884 H 1430.05 5.27284 -3.07903 0
M  V30 14885 H 1431.47 3.52074 -4.52456 0
M  V30 14886 H 1429.87 3.05578 -5.16471 0
M  V30 14887 H 1430.94 1.8088 -4.499 0
M  V30 14888 N 1432.28 1.40065 0.722464 0
M  V30 14889 C 1433.21 1.35695 1.84715 0
M  V30 14890 C 1434.22 0.263522 1.60653 0
M  V30 14891 O 1435.41 0.523382 1.70655 0
M  V30 14892 C 1432.51 1.08722 3.20987 0
M  V30 14893 C 1431.69 2.29586 3.72302 0
M  V30 14894 C 1430.74 1.98879 4.87169 0
M  V30 14895 O 1429.77 2.71681 5.00178 0
M  V30 14896 N 1430.97 0.962554 5.72464 0
M  V30 14897 H 1433.74 2.32621 1.88964 0
M  V30 14898 H 1431.3 1.3433 0.903723 0
M  V30 14899 H 1433.29 0.861772 3.95418 0
M  V30 14900 H 1431.86 0.204869 3.11928 0
M  V30 14901 H 1431.08 2.68004 2.8908 0
M  V30 14902 H 1432.37 3.10176 4.03322 0
M  V30 14903 H 1431.77 0.359452 5.64557 0
M  V30 14904 H 1430.32 0.797003 6.46909 0
M  V30 14905 N 1433.76 -0.95397 1.25448 0
M  V30 14906 C 1435.01 -1.6953 1.10018 0
M  V30 14907 C 1435.33 -1.9166 -0.359385 0
M  V30 14908 O 1434.6 -1.50417 -1.25506 0
M  V30 14909 H 1433.18 -0.628238 0.404136 0
M  V30 14910 H 1435.84 -1.14691 1.57581 0
M  V30 14911 H 1434.93 -2.67427 1.60901 0
M  V30 14912 N 1435.24 -1.07045 -1.15668 0
M  V30 14913 C 1436.17 -0.709413 -2.22463 0
M  V30 14914 C 1437.15 0.30169 -1.67403 0
M  V30 14915 O 1438.33 0.175131 -1.93409 0
M  V30 14916 C 1435.46 -0.103121 -3.47147 0
M  V30 14917 C 1434.42 -1.04103 -4.15146 0
M  V30 14918 C 1433.74 -0.297656 -5.33871 0
M  V30 14919 C 1435.04 -2.37332 -4.65264 0
M  V30 14920 H 1436.74 -1.60227 -2.52918 0
M  V30 14921 H 1434.28 -0.771846 -1.21567 0
M  V30 14922 H 1436.23 0.161371 -4.21091 0
M  V30 14923 H 1434.96 0.824792 -3.16014 0
M  V30 14924 H 1433.62 -1.2904 -3.43139 0
M  V30 14925 H 1433.27 0.633618 -4.98993 0
M  V30 14926 H 1432.97 -0.922789 -5.80309 0
M  V30 14927 H 1434.49 -0.0408892 -6.10586 0
M  V30 14928 H 1435.9 -2.1674 -5.30751 0
M  V30 14929 H 1434.3 -2.95412 -5.22352 0
M  V30 14930 H 1435.37 -2.99859 -3.81068 0
M  V30 14931 N 1436.71 1.32449 -0.85411 0
M  V30 14932 C 1437.64 2.31383 -0.313697 0
M  V30 14933 C 1438.62 1.59656 0.586858 0
M  V30 14934 O 1439.81 1.87459 0.507216 0
M  V30 14935 C 1436.94 3.43693 0.499235 0
M  V30 14936 C 1435.89 4.26899 -0.306839 0
M  V30 14937 C 1435.22 5.30966 0.630795 0
M  V30 14938 C 1436.52 4.99318 -1.53229 0
M  V30 14939 H 1438.21 2.76832 -1.14037 0
M  V30 14940 H 1435.76 1.33091 -0.549805 0
M  V30 14941 H 1437.71 4.11944 0.887709 0
M  V30 14942 H 1436.44 2.96971 1.35926 0
M  V30 14943 H 1435.1 3.60294 -0.677061 0
M  V30 14944 H 1434.74 4.80498 1.48765 0
M  V30 14945 H 1434.44 5.87522 0.0954635 0
M  V30 14946 H 1435.97 6.0208 1.01646 0
M  V30 14947 H 1437.38 5.60253 -1.21614 0
M  V30 14948 H 1435.78 5.65596 -2.00552 0
M  V30 14949 H 1436.85 4.27213 -2.29383 0
M  V30 14950 N 1438.19 0.611994 1.45232 0
M  V30 14951 C 1439.42 0.113618 2.07089 0
M  V30 14952 C 1439.84 -1.1947 1.45288 0
M  V30 14953 O 1439.2 -1.72845 0.547207 0
M  V30 14954 C 1439.25 -0.00789978 3.60599 0
M  V30 14955 O 1438.35 -1.05697 3.98625 0
M  V30 14956 H 1437.69 0.076066 0.659629 0
M  V30 14957 H 1440.22 0.843253 1.86415 0
M  V30 14958 H 1440.23 -0.204692 4.07486 0
M  V30 14959 H 1438.91 0.947386 4.04966 0
M  V30 14960 H 1437.48 -0.836291 3.63401 0
M  V30 14961 N 1439.67 -1.53632 0.351409 0
M  V30 14962 C 1441.08 -1.86241 -0.130834 0
M  V30 14963 C 1441.43 -1.27243 -1.49344 0
M  V30 14964 O 1440.56 -0.589006 -2.0823 0
M  V30 14965 C 1441.15 -3.37919 -0.244179 0
M  V30 14966 C 1439.71 -3.70377 -0.670662 0
M  V30 14967 C 1438.86 -2.76643 0.190813 0
M  V30 14968 H 1441.81 -1.48083 0.570724 0
M  V30 14969 H 1441.83 -3.65137 -1.07029 0
M  V30 14970 H 1441.34 -3.8083 0.747688 0
M  V30 14971 H 1439.44 -3.33015 -1.67127 0
M  V30 14972 H 1439.56 -4.76934 -0.455102 0
M  V30 14973 H 1437.92 -2.52446 -0.338092 0
M  V30 14974 H 1438.7 -3.22385 1.17996 0
M  V30 14975 N 1441.15 -0.0802183 -1.57396 0
M  V30 14976 C 1442.56 0.276428 -1.57188 0
M  V30 14977 C 1442.76 1.69456 -1.09027 0
M  V30 14978 O 1441.82 2.40792 -0.75997 0
M  V30 14979 C 1443.13 0.0784079 -3.00598 0
M  V30 14980 C 1444.68 0.1473 -3.12653 0
M  V30 14981 C 1445.16 -0.0225423 -4.57994 0
M  V30 14982 N 1446.65 0.0327854 -4.63188 0
M  V30 14983 C 1447.38 -0.0740922 -5.73352 0
M  V30 14984 N 1446.88 -0.234966 -6.92401 0
M  V30 14985 N 1448.67 -0.0164241 -5.62098 0
M  V30 14986 H 1440.82 -1.00695 -1.87014 0
M  V30 14987 H 1443.08 -0.393402 -0.862519 0
M  V30 14988 H 1442.79 -0.900488 -3.39977 0
M  V30 14989 H 1442.66 0.82713 -3.6802 0
M  V30 14990 H 1445.05 1.11669 -2.73156 0
M  V30 14991 H 1445.13 -0.632666 -2.47853 0
M  V30 14992 H 1444.78 -0.988733 -4.98183 0
M  V30 14993 H 1444.71 0.776933 -5.20837 0
M  V30 14994 H 1447.2 0.15519 -3.77581 0
M  V30 14995 H 1447.51 -0.308435 -7.72184 0
M  V30 14996 H 1445.86 -0.270439 -6.94474 0
M  V30 14997 H 1449.05 0.108019 -4.67975 0
M  V30 14998 H 1449.22 -0.10317 -6.47918 0
M  V30 14999 N 1442.63 1.56409 0.193394 0
M  V30 15000 C 1443.58 1.91085 1.24381 0
M  V30 15001 C 1444.56 0.77672 1.40911 0
M  V30 15002 O 1445.75 1.0396 1.43253 0
M  V30 15003 C 1442.88 2.25533 2.58824 0
M  V30 15004 C 1441.97 3.45407 2.46079 0
M  V30 15005 N 1442.36 4.63268 2.03017 0
M  V30 15006 C 1440.66 3.49578 2.76967 0
M  V30 15007 C 1441.36 5.45425 2.02205 0
M  V30 15008 N 1440.33 4.85876 2.43773 0
M  V30 15009 H 1444.13 2.79709 0.902224 0
M  V30 15010 H 1441.65 1.57351 0.401818 0
M  V30 15011 H 1443.65 2.48561 3.34699 0
M  V30 15012 H 1442.31 1.38236 2.93804 0
M  V30 15013 H 1443.32 4.87902 1.737 0
M  V30 15014 H 1439.99 2.72702 3.16133 0
M  V30 15015 H 1441.38 6.49829 1.70798 0
M  V30 15016 N 1444.1 -0.461169 1.50702 0
M  V30 15017 C 1445.33 -1.24019 1.66235 0
M  V30 15018 C 1445.75 -1.84827 0.349388 0
M  V30 15019 O 1445.11 -1.67743 -0.687888 0
M  V30 15020 C 1445.16 -2.31743 2.76274 0
M  V30 15021 O 1444.26 -3.3664 2.38217 0
M  V30 15022 H 1443.6 -0.364424 0.55506 0
M  V30 15023 H 1446.13 -0.547636 1.97135 0
M  V30 15024 H 1446.14 -2.76902 2.99649 0
M  V30 15025 H 1444.82 -1.86858 3.7156 0
M  V30 15026 H 1443.4 -2.97123 2.25327 0
M  V30 15027 N 1445.58 -1.40446 -0.715026 0
M  V30 15028 C 1446.51 -1.43511 -1.84193 0
M  V30 15029 C 1447.49 -0.295969 -1.67505 0
M  V30 15030 O 1448.68 -0.504667 -1.87528 0
M  V30 15031 C 1445.81 -1.29751 -3.22152 0
M  V30 15032 C 1444.76 -2.41274 -3.53512 0
M  V30 15033 C 1444.09 -2.12591 -4.90621 0
M  V30 15034 C 1445.39 -3.83614 -3.54454 0
M  V30 15035 H 1447.08 -2.37819 -1.81885 0
M  V30 15036 H 1444.63 -1.14469 -0.873655 0
M  V30 15037 H 1446.58 -1.30511 -4.0068 0
M  V30 15038 H 1445.3 -0.319189 -3.25037 0
M  V30 15039 H 1443.96 -2.39764 -2.77324 0
M  V30 15040 H 1443.61 -1.13148 -4.90109 0
M  V30 15041 H 1443.31 -2.87308 -5.1257 0
M  V30 15042 H 1444.84 -2.15034 -5.71483 0
M  V30 15043 H 1446.25 -3.86945 -4.23021 0
M  V30 15044 H 1444.65 -4.57855 -3.87929 0
M  V30 15045 H 1445.72 -4.13159 -2.53827 0
M  V30 15046 N 1447.06 0.947303 -1.25952 0
M  V30 15047 C 1448.29 1.7273 -1.13895 0
M  V30 15048 C 1448.7 1.86296 0.306488 0
M  V30 15049 O 1448.06 1.36594 1.2103 0
M  V30 15050 C 1448.11 3.13727 -1.79604 0
M  V30 15051 O 1447.83 3.00816 -3.18499 0
M  V30 15052 C 1449.33 4.0797 -1.73422 0
M  V30 15053 H 1446.55 0.54102 -0.39691 0
M  V30 15054 H 1449.1 1.18797 -1.66456 0
M  V30 15055 H 1447.25 3.6458 -1.30997 0
M  V30 15056 H 1447.67 3.89813 -3.50922 0
M  V30 15057 H 1449.14 5.04487 -2.24047 0
M  V30 15058 H 1449.62 4.33594 -0.699481 0
M  V30 15059 H 1450.22 3.63035 -2.21553 0
M  V30 15060 N 1448.54 1.07657 1.15099 0
M  V30 15061 C 1449.79 0.800025 1.85591 0
M  V30 15062 C 1450.11 -0.675973 1.82909 0
M  V30 15063 O 1449.38 -1.48971 1.27218 0
M  V30 15064 H 1447.96 0.292958 0.687157 0
M  V30 15065 H 1450.62 1.36096 1.39513 0
M  V30 15066 H 1449.72 1.13733 2.90639 0
M  V30 15067 N 1450.02 -1.31994 0.861122 0
M  V30 15068 C 1450.97 -2.26248 0.282123 0
M  V30 15069 C 1451.95 -1.50246 -0.57575 0
M  V30 15070 O 1453.14 -1.71845 -0.424075 0
M  V30 15071 C 1450.27 -3.39293 -0.523011 0
M  V30 15072 C 1449.36 -4.22673 0.34761 0
M  V30 15073 N 1449.75 -4.8496 1.43692 0
M  V30 15074 C 1448.05 -4.45785 0.138488 0
M  V30 15075 C 1448.75 -5.47215 1.97307 0
M  V30 15076 N 1447.72 -5.28525 1.27132 0
M  V30 15077 H 1451.53 -2.71936 1.11481 0
M  V30 15078 H 1449.04 -1.46158 0.707928 0
M  V30 15079 H 1451.04 -4.05832 -0.954269 0
M  V30 15080 H 1449.7 -2.95149 -1.35341 0
M  V30 15081 H 1450.71 -4.84873 1.81985 0
M  V30 15082 H 1447.38 -4.12303 -0.656677 0
M  V30 15083 H 1448.77 -6.06737 2.88652 0
M  V30 15084 N 1451.49 -0.619688 -1.44906 0
M  V30 15085 C 1452.72 -0.124598 -2.07025 0
M  V30 15086 C 1453.14 1.18698 -1.45919 0
M  V30 15087 O 1452.5 1.72552 -0.556366 0
M  V30 15088 C 1452.55 -0.0112238 -3.60598 0
M  V30 15089 O 1451.65 1.03582 -3.9918 0
M  V30 15090 H 1451 -0.0795631 -0.659216 0
M  V30 15091 H 1453.53 -0.853127 -1.85965 0
M  V30 15092 H 1453.54 0.183079 -4.07589 0
M  V30 15093 H 1452.21 -0.968849 -4.04458 0
M  V30 15094 H 1450.79 0.817008 -3.6384 0
M  V30 15095 N 1452.97 1.53444 -0.359552 0
M  V30 15096 C 1454.25 1.93467 0.288106 0
M  V30 15097 C 1454.63 1.29256 1.66901 0
M  V30 15098 O 1453.98 0.449402 2.24037 0
M  V30 15099 C 1454.19 3.47297 0.344359 0
M  V30 15100 C 1455.54 4.20515 0.587585 0
M  V30 15101 O 1456.56 3.53646 0.425818 0
M  V30 15102 O 1455.42 5.39003 0.902119 0
M  V30 15103 H 1452.51 0.809033 0.171451 0
M  V30 15104 H 1455.06 1.64625 -0.411896 0
M  V30 15105 H 1453.83 3.86292 -0.624064 0
M  V30 15106 H 1453.45 3.82353 1.0905 0
M  V30 15107 N 1454.45 0.0885642 1.57351 0
M  V30 15108 C 1455.7 -0.57633 1.93291 0
M  V30 15109 C 1456.01 -1.69743 0.971934 0
M  V30 15110 O 1457.22 -2.42304 1.22479 0
M  V30 15111 C 1455.67 -1.07655 3.43422 0
M  V30 15112 C 1455.28 0.0144488 4.47998 0
M  V30 15113 C 1457.03 -1.71455 3.88334 0
M  V30 15114 C 1454.93 -0.500758 5.89276 0
M  V30 15115 H 1453.86 -0.219055 0.721478 0
M  V30 15116 H 1456.51 0.163511 1.8277 0
M  V30 15117 H 1454.9 -1.86988 3.49072 0
M  V30 15118 H 1456.07 0.789696 4.53983 0
M  V30 15119 H 1454.39 0.557237 4.12655 0
M  V30 15120 H 1456.98 -2.11063 4.91281 0
M  V30 15121 H 1457.33 -2.58116 3.26621 0
M  V30 15122 H 1457.86 -0.987159 3.85357 0
M  V30 15123 H 1454.6 0.329088 6.54673 0
M  V30 15124 H 1454.12 -1.24315 5.86776 0
M  V30 15125 H 1455.8 -0.971821 6.3966 0
M  V30 15126 N 1455.93 -1.56509 -0.185096 0
M  V30 15127 C 1457.34 -1.50318 -0.536334 0
M  V30 15128 C 1457.54 -0.790387 -1.85351 0
M  V30 15129 O 1456.6 -0.345039 -2.50131 0
M  V30 15130 C 1457.91 -2.95017 -0.581825 0
M  V30 15131 C 1459.46 -3.05746 -0.669974 0
M  V30 15132 C 1459.94 -4.51876 -0.746485 0
M  V30 15133 N 1461.43 -4.56067 -0.809746 0
M  V30 15134 C 1462.16 -5.66462 -0.889286 0
M  V30 15135 N 1461.66 -6.86523 -0.930509 0
M  V30 15136 N 1463.45 -5.54399 -0.927246 0
M  V30 15137 H 1455.6 -2.01262 0.678778 0
M  V30 15138 H 1457.87 -0.916313 0.243054 0
M  V30 15139 H 1457.57 -3.50268 0.317089 0
M  V30 15140 H 1457.45 -3.48916 -1.43309 0
M  V30 15141 H 1459.83 -2.50538 -1.55932 0
M  V30 15142 H 1459.91 -2.54955 0.207689 0
M  V30 15143 H 1459.56 -5.07711 0.138546 0
M  V30 15144 H 1459.49 -5.00408 -1.6401 0
M  V30 15145 H 1461.98 -3.6962 -0.786729 0
M  V30 15146 H 1462.29 -7.66407 -0.991992 0
M  V30 15147 H 1460.64 -6.89161 -0.899017 0
M  V30 15148 H 1463.83 -4.59524 -0.891947 0
M  V30 15149 H 1464 -6.40458 -0.985773 0
M  V30 15150 N 1457.41 0.45317 -1.50944 0
M  V30 15151 C 1458.34 1.55655 -1.74051 0
M  V30 15152 C 1459.32 1.59545 -0.58987 0
M  V30 15153 O 1460.5 1.75526 -0.830922 0
M  V30 15154 C 1457.63 2.93857 -1.85109 0
M  V30 15155 C 1456.59 3.04832 -3.00435 0
M  V30 15156 C 1455.91 4.44858 -2.96657 0
M  V30 15157 C 1457.21 2.80381 -4.40663 0
M  V30 15158 H 1458.91 1.36571 -2.66437 0
M  V30 15159 H 1456.45 0.655572 -1.28212 0
M  V30 15160 H 1458.41 3.70992 -1.99857 0
M  V30 15161 H 1457.13 3.14138 -0.893579 0
M  V30 15162 H 1455.79 2.30134 -2.85366 0
M  V30 15163 H 1455.44 4.62083 -1.98716 0
M  V30 15164 H 1455.14 4.53134 -3.7409 0
M  V30 15165 H 1456.66 5.23989 -3.13478 0
M  V30 15166 H 1458.07 3.47255 -4.56165 0
M  V30 15167 H 1456.47 3.00083 -5.19683 0
M  V30 15168 H 1457.54 1.76099 -4.51793 0
M  V30 15169 N 1458.88 1.40823 0.707568 0
M  V30 15170 C 1460.3 1.35249 1.28704 0
M  V30 15171 C 1460.65 0.0298026 1.96177 0
M  V30 15172 O 1459.77 -0.872126 1.98048 0
M  V30 15173 C 1460.37 2.44965 2.34046 0
M  V30 15174 C 1458.93 2.42826 2.87598 0
M  V30 15175 C 1458.07 2.25429 1.61483 0
M  V30 15176 H 1461.02 1.50513 0.503141 0
M  V30 15177 H 1461.04 2.13334 3.1507 0
M  V30 15178 H 1460.56 3.41219 1.84908 0
M  V30 15179 H 1458.66 1.50294 3.40944 0
M  V30 15180 H 1458.77 3.38704 3.38845 0
M  V30 15181 H 1457.13 1.73089 1.86848 0
M  V30 15182 H 1457.92 3.23693 1.14359 0
M  V30 15183 N 1460.36 -0.94061 1.26453 0
M  V30 15184 C 1461.77 -1.50169 1.10934 0
M  V30 15185 C 1462.12 -1.93733 -0.310167 0
M  V30 15186 O 1461.25 -1.79966 -1.20172 0
M  V30 15187 C 1461.84 -2.7291 2.00763 0
M  V30 15188 C 1460.4 -3.25283 1.89388 0
M  V30 15189 C 1459.55 -1.98061 1.9408 0
M  V30 15190 H 1462.5 -0.756038 1.39534 0
M  V30 15191 H 1462.52 -3.47237 1.55586 0
M  V30 15192 H 1462.03 -2.41172 3.04069 0
M  V30 15193 H 1460.14 -3.6181 0.890192 0
M  V30 15194 H 1460.25 -3.92351 2.7495 0
M  V30 15195 H 1458.61 -2.13985 1.3814 0
M  V30 15196 H 1459.4 -1.68654 2.99016 0
M  V30 15197 N 1461.84 -1.08266 -1.14527 0
M  V30 15198 C 1463.07 -0.83288 -1.89396 0
M  V30 15199 C 1463.48 0.614823 -1.78509 0
M  V30 15200 O 1462.84 1.42239 -1.14343 0
M  V30 15201 C 1462.89 -1.244 -3.39421 0
M  V30 15202 O 1462.61 -2.63491 -3.50006 0
M  V30 15203 C 1464.11 -1.02488 -4.3129 0
M  V30 15204 H 1461.33 -0.300474 -0.599964 0
M  V30 15205 H 1463.88 -1.44155 -1.4505 0
M  V30 15206 H 1462.03 -0.679466 -3.81395 0
M  V30 15207 H 1462.45 -2.80517 -4.43182 0
M  V30 15208 H 1463.92 -1.36194 -5.34935 0
M  V30 15209 H 1464.4 0.0381961 -4.39183 0
M  V30 15210 H 1465 -1.57477 -3.95071 0
M  V30 15211 N 1463.32 1.31536 -0.86811 0
M  V30 15212 C 1464.23 2.32326 -0.32588 0
M  V30 15213 C 1465.25 1.64632 0.563243 0
M  V30 15214 O 1466.42 1.96067 0.460403 0
M  V30 15215 C 1463.49 3.43562 0.46539 0
M  V30 15216 C 1462.55 4.26919 -0.451472 0
M  V30 15217 C 1461.78 5.32844 0.302129 0
M  V30 15218 O 1462 5.49485 1.53045 0
M  V30 15219 O 1460.94 6.00944 -0.339048 0
M  V30 15220 H 1464.76 2.80622 -1.16126 0
M  V30 15221 H 1462.35 1.35401 -0.631428 0
M  V30 15222 H 1464.23 4.11368 0.914028 0
M  V30 15223 H 1462.91 2.97432 1.27734 0
M  V30 15224 H 1461.81 3.61874 -0.948571 0
M  V30 15225 H 1463.15 4.7661 -1.22897 0
M  V30 15226 N 1464.8 0.627364 1.44575 0
M  V30 15227 C 1466.04 0.130352 2.0208 0
M  V30 15228 C 1466.37 -1.24642 1.49314 0
M  V30 15229 O 1465.63 -1.84022 0.665923 0
M  V30 15230 C 1465.93 0.0622409 3.57346 0
M  V30 15231 C 1465.59 1.37729 4.2935 0
M  V30 15232 C 1464.25 1.73747 4.48737 0
M  V30 15233 C 1466.61 2.2455 4.70347 0
M  V30 15234 C 1463.93 2.96301 5.06382 0
M  V30 15235 C 1466.29 3.46371 5.29349 0
M  V30 15236 C 1464.95 3.82616 5.46956 0
M  V30 15237 H 1464.22 0.0476991 0.739463 0
M  V30 15238 H 1466.87 0.812928 1.73389 0
M  V30 15239 H 1465.17 -0.70369 3.85429 0
M  V30 15240 H 1466.87 -0.338778 3.99566 0
M  V30 15241 H 1463.46 1.08699 4.14587 0
M  V30 15242 H 1467.64 1.98019 4.55085 0
M  V30 15243 H 1462.9 3.24465 5.18201 0
M  V30 15244 H 1467.07 4.13882 5.60067 0
M  V30 15245 H 1464.7 4.77663 5.9139 0
M  V30 15246 N 1466.28 -1.53251 0.367684 0
M  V30 15247 C 1467.24 -2.24423 -0.465516 0
M  V30 15248 C 1468.24 -1.25283 -1.00801 0
M  V30 15249 O 1469.43 -1.49545 -0.893424 0
M  V30 15250 C 1466.56 -2.9826 -1.65087 0
M  V30 15251 H 1467.75 -2.99487 0.157292 0
M  V30 15252 H 1465.31 -1.55843 0.119409 0
M  V30 15253 H 1466.04 -2.27443 -2.31171 0
M  V30 15254 H 1465.83 -3.71003 -1.26882 0
M  V30 15255 H 1467.32 -3.52358 -2.24128 0
M  V30 15256 N 1467.75 -0.0969077 -1.57302 0
M  V30 15257 C 1468.69 0.891431 -2.11154 0
M  V30 15258 C 1469.7 1.24482 -1.04919 0
M  V30 15259 O 1470.89 1.19762 -1.3236 0
M  V30 15260 C 1467.99 2.19998 -2.57787 0
M  V30 15261 C 1467.16 2.02165 -3.87876 0
M  V30 15262 C 1466.22 3.16549 -4.20337 0
M  V30 15263 O 1465.25 2.90432 -4.89528 0
M  V30 15264 N 1466.45 4.42369 -3.75885 0
M  V30 15265 H 1469.21 0.431477 -2.96578 0
M  V30 15266 H 1466.77 0.0881458 -1.6166 0
M  V30 15267 H 1468.77 2.95472 -2.76547 0
M  V30 15268 H 1467.34 2.57412 -1.77364 0
M  V30 15269 H 1466.56 1.11011 -3.78246 0
M  V30 15270 H 1467.84 1.87529 -4.7298 0
M  V30 15271 H 1467.24 4.66469 -3.20036 0
M  V30 15272 H 1465.8 5.14787 -3.99797 0
M  V30 15273 N 1469.23 1.56605 0.176793 0
M  V30 15274 C 1470.16 1.99014 1.2213 0
M  V30 15275 C 1471.14 0.86487 1.46472 0
M  V30 15276 O 1472.33 1.13055 1.57899 0
M  V30 15277 C 1469.46 2.34534 2.56146 0
M  V30 15278 C 1468.41 3.4997 2.46384 0
M  V30 15279 C 1467.74 3.71217 3.8484 0
M  V30 15280 C 1469.04 4.83592 1.97323 0
M  V30 15281 H 1470.73 2.86517 0.8688 0
M  V30 15282 H 1468.28 1.37846 0.416481 0
M  V30 15283 H 1470.23 2.62799 3.29416 0
M  V30 15284 H 1468.95 1.43933 2.93174 0
M  V30 15285 H 1467.61 3.21824 1.75569 0
M  V30 15286 H 1467.26 2.77916 4.19251 0
M  V30 15287 H 1466.96 4.48885 3.79178 0
M  V30 15288 H 1468.49 4.01877 4.59704 0
M  V30 15289 H 1469.9 5.10768 2.60363 0
M  V30 15290 H 1468.3 5.64858 2.02622 0
M  V30 15291 H 1469.37 4.75951 0.927275 0
M  V30 15292 N 1470.71 -0.445159 1.51182 0
M  V30 15293 C 1471.96 -1.19215 1.62698 0
M  V30 15294 C 1472.27 -1.92529 0.345249 0
M  V30 15295 O 1473.48 -2.69367 0.33967 0
M  V30 15296 C 1471.93 -2.16762 2.87302 0
M  V30 15297 C 1471.54 -1.49131 4.2245 0
M  V30 15298 C 1473.29 -2.91942 3.08172 0
M  V30 15299 C 1471.19 -2.45117 5.38212 0
M  V30 15300 H 1470.12 -0.448687 0.605967 0
M  V30 15301 H 1472.77 -0.459956 1.77642 0
M  V30 15302 H 1471.16 -2.93383 2.65975 0
M  V30 15303 H 1472.33 -0.781222 4.54129 0
M  V30 15304 H 1470.64 -0.861342 4.07394 0
M  V30 15305 H 1473.24 -3.6383 3.91832 0
M  V30 15306 H 1473.58 -3.52837 2.20934 0
M  V30 15307 H 1474.12 -2.22429 3.29803 0
M  V30 15308 H 1470.86 -1.88923 6.27685 0
M  V30 15309 H 1470.38 -3.14202 5.10918 0
M  V30 15310 H 1472.06 -3.06411 5.69843 0
M  V30 15311 N 1472.19 -1.41197 -0.700089 0
M  V30 15312 C 1473.13 -1.42688 -1.81407 0
M  V30 15313 C 1474.1 -0.28182 -1.63692 0
M  V30 15314 O 1475.29 -0.482196 -1.84606 0
M  V30 15315 C 1472.43 -1.31041 -3.19252 0
M  V30 15316 C 1471.54 -2.5538 -3.48432 0
M  V30 15317 C 1470.68 -2.3606 -4.75867 0
M  V30 15318 C 1469.72 -3.55898 -4.97999 0
M  V30 15319 N 1468.85 -3.35676 -6.16657 0
M  V30 15320 H 1473.69 -2.37898 -1.79467 0
M  V30 15321 H 1471.23 -1.18137 -0.87647 0
M  V30 15322 H 1473.19 -1.22292 -3.98874 0
M  V30 15323 H 1471.82 -0.394422 -3.20381 0
M  V30 15324 H 1470.87 -2.74598 -2.6325 0
M  V30 15325 H 1472.18 -3.44535 -3.6069 0
M  V30 15326 H 1471.34 -2.24752 -5.63535 0
M  V30 15327 H 1470.08 -1.44355 -4.65846 0
M  V30 15328 H 1469.08 -3.67665 -4.08781 0
M  V30 15329 H 1470.31 -4.4855 -5.09882 0
M  V30 15330 H 1468.25 -2.46667 -6.07858 0
M  V30 15331 H 1468.17 -4.18404 -6.29662 0
M  V30 15332 H 1469.44 -3.28132 -7.07071 0
M  V30 15333 N 1473.67 0.933891 -1.2695 0
M  V30 15334 C 1475.08 1.20873 -1.0422 0
M  V30 15335 C 1475.28 2.00205 0.228112 0
M  V30 15336 O 1474.34 2.34539 0.935284 0
M  V30 15337 C 1475.65 1.9629 -2.27795 0
M  V30 15338 C 1477.2 2.09254 -2.3277 0
M  V30 15339 C 1477.67 2.88075 -3.56057 0
M  V30 15340 N 1479.16 2.95646 -3.56578 0
M  V30 15341 C 1479.9 3.57082 -4.48642 0
M  V30 15342 N 1479.4 4.1996 -5.51004 0
M  V30 15343 N 1481.19 3.54425 -4.36279 0
M  V30 15344 H 1473.34 0.403735 -2.08528 0
M  V30 15345 H 1475.6 0.241189 -0.916805 0
M  V30 15346 H 1475.31 1.45412 -3.20231 0
M  V30 15347 H 1475.18 2.9693 -2.32621 0
M  V30 15348 H 1477.57 2.5932 -1.40844 0
M  V30 15349 H 1477.65 1.07854 -2.31951 0
M  V30 15350 H 1477.29 2.38693 -4.48317 0
M  V30 15351 H 1477.22 3.89746 -3.54126 0
M  V30 15352 H 1479.72 2.50951 -2.82545 0
M  V30 15353 H 1480.03 4.64758 -6.1743 0
M  V30 15354 H 1478.37 4.18525 -5.54853 0
M  V30 15355 H 1481.56 3.045 -3.55524 0
M  V30 15356 H 1481.74 4.02016 -5.0822 0
M  V30 15357 N 1475.14 1.08871 1.13951 0
M  V30 15358 C 1476.08 0.680849 2.18854 0
M  V30 15359 C 1477.09 -0.274456 1.6047 0
M  V30 15360 O 1478.28 -0.0613804 1.78394 0
M  V30 15361 C 1475.38 -0.0182788 3.38895 0
M  V30 15362 C 1474.55 0.957125 4.268 0
M  V30 15363 C 1473.61 0.29245 5.25387 0
M  V30 15364 O 1472.64 0.938329 5.61413 0
M  V30 15365 N 1473.84 -0.955738 5.72578 0
M  V30 15366 H 1476.6 1.58334 2.54461 0
M  V30 15367 H 1474.16 0.975417 1.29218 0
M  V30 15368 H 1476.16 -0.474001 4.01915 0
M  V30 15369 H 1474.73 -0.822932 3.01574 0
M  V30 15370 H 1473.95 1.59156 3.60642 0
M  V30 15371 H 1475.23 1.61792 4.82391 0
M  V30 15372 H 1474.63 -1.50014 5.45447 0
M  V30 15373 H 1473.19 -1.35488 6.37563 0
M  V30 15374 N 1476.62 -1.31073 0.875073 0
M  V30 15375 C 1477.55 -2.27335 0.291809 0
M  V30 15376 C 1478.57 -1.53298 -0.548036 0
M  V30 15377 O 1479.76 -1.7464 -0.369198 0
M  V30 15378 C 1476.86 -3.33465 -0.604521 0
M  V30 15379 C 1476.03 -4.36924 0.204029 0
M  V30 15380 C 1475.09 -5.2252 -0.621238 0
M  V30 15381 O 1474.11 -5.6918 -0.0474551 0
M  V30 15382 N 1475.32 -5.47397 -1.93227 0
M  V30 15383 H 1478.08 -2.78024 1.11906 0
M  V30 15384 H 1475.64 -1.44149 0.737064 0
M  V30 15385 H 1477.63 -3.87646 -1.16243 0
M  V30 15386 H 1476.2 -2.8278 -1.33244 0
M  V30 15387 H 1475.42 -3.82745 0.943389 0
M  V30 15388 H 1476.71 -5.03112 0.758644 0
M  V30 15389 H 1476.11 -5.11253 -2.4215 0
M  V30 15390 H 1474.67 -6.04493 -2.43785 0
M  V30 15391 N 1478.1 -0.635022 -1.4424 0
M  V30 15392 C 1479.03 0.106038 -2.28955 0
M  V30 15393 C 1480.05 0.805076 -1.415 0
M  V30 15394 O 1481.23 0.665872 -1.65615 0
M  V30 15395 C 1478.33 1.17252 -3.1797 0
M  V30 15396 C 1477.51 0.555225 -4.33862 0
M  V30 15397 C 1476.57 1.51618 -5.03883 0
M  V30 15398 O 1475.59 1.03181 -5.5977 0
M  V30 15399 N 1476.79 2.85048 -5.05696 0
M  V30 15400 H 1479.56 -0.620999 -2.93196 0
M  V30 15401 H 1477.12 -0.476466 -1.5473 0
M  V30 15402 H 1479.11 1.81578 -3.61679 0
M  V30 15403 H 1477.68 1.80174 -2.55453 0
M  V30 15404 H 1476.9 -0.266745 -3.93296 0
M  V30 15405 H 1478.19 0.123529 -5.0865 0
M  V30 15406 H 1477.59 3.26977 -4.6163 0
M  V30 15407 H 1476.15 3.44724 -5.5318 0
M  V30 15408 N 1479.58 1.53054 -0.375806 0
M  V30 15409 C 1480.51 2.23664 0.500685 0
M  V30 15410 C 1481.52 1.25432 1.03782 0
M  V30 15411 O 1482.71 1.51592 0.942451 0
M  V30 15412 C 1479.81 2.9288 1.70513 0
M  V30 15413 C 1478.99 4.17706 1.29772 0
M  V30 15414 C 1478.04 4.7004 2.36536 0
M  V30 15415 O 1477.07 5.33466 1.98502 0
M  V30 15416 N 1478.27 4.48732 3.68266 0
M  V30 15417 H 1481.04 2.99519 -0.104201 0
M  V30 15418 H 1478.6 1.60641 -0.201488 0
M  V30 15419 H 1480.59 3.24795 2.41433 0
M  V30 15420 H 1479.16 2.20416 2.21665 0
M  V30 15421 H 1478.38 3.91978 0.41795 0
M  V30 15422 H 1479.67 4.98837 1.00197 0
M  V30 15423 H 1479.07 3.98075 4.01936 0
M  V30 15424 H 1477.62 4.85172 4.3526 0
M  V30 15425 N 1481.06 0.105248 1.57248 0
M  V30 15426 C 1482.47 -0.251385 1.57608 0
M  V30 15427 C 1482.67 -1.677 1.11709 0
M  V30 15428 O 1481.73 -2.39552 0.798182 0
M  V30 15429 C 1483.04 -0.0305755 3.00684 0
M  V30 15430 C 1484.59 -0.0975409 3.12848 0
M  V30 15431 C 1485.06 0.0954024 4.57901 0
M  V30 15432 N 1486.56 0.040908 4.63182 0
M  V30 15433 C 1487.29 0.165298 5.73162 0
M  V30 15434 N 1486.79 0.345091 6.9194 0
M  V30 15435 N 1488.58 0.105847 5.62 0
M  V30 15436 H 1480.73 1.03658 1.85388 0
M  V30 15437 H 1482.99 0.407074 0.856151 0
M  V30 15438 H 1482.7 0.954461 3.38501 0
M  V30 15439 H 1482.57 -0.768477 3.69289 0
M  V30 15440 H 1484.96 -1.07309 2.74898 0
M  V30 15441 H 1485.04 0.672017 2.46815 0
M  V30 15442 H 1484.69 1.06786 4.96547 0
M  V30 15443 H 1484.62 -0.693974 5.22007 0
M  V30 15444 H 1487.11 -0.0951009 3.7778 0
M  V30 15445 H 1487.42 0.431243 7.71596 0
M  V30 15446 H 1485.76 0.38089 6.93955 0
M  V30 15447 H 1488.96 -0.0335544 4.68088 0
M  V30 15448 H 1489.13 0.206235 6.47672 0
M  V30 15449 N 1482.53 -1.56697 -0.168486 0
M  V30 15450 C 1483.47 -1.93197 -1.23319 0
M  V30 15451 C 1484.48 -0.825373 -1.40326 0
M  V30 15452 O 1485.67 -1.10381 -1.40279 0
M  V30 15453 C 1482.77 -2.17205 -2.60145 0
M  V30 15454 C 1481.94 -3.48442 -2.64399 0
M  V30 15455 C 1481 -3.61244 -3.82609 0
M  V30 15456 O 1480.03 -4.33837 -3.68476 0
M  V30 15457 N 1481.23 -2.96304 -4.99183 0
M  V30 15458 H 1483.99 -2.85128 -0.923138 0
M  V30 15459 H 1481.55 -1.57887 -0.358229 0
M  V30 15460 H 1483.55 -2.23031 -3.37697 0
M  V30 15461 H 1482.12 -1.31643 -2.83529 0
M  V30 15462 H 1481.34 -3.54248 -1.72922 0
M  V30 15463 H 1482.62 -4.34795 -2.64255 0
M  V30 15464 H 1482.02 -2.37203 -5.13567 0
M  V30 15465 H 1480.58 -3.07722 -5.74587 0
M  V30 15466 N 1484.01 0.437135 -1.51416 0
M  V30 15467 C 1484.94 1.54894 -1.68939 0
M  V30 15468 C 1485.96 1.52493 -0.570059 0
M  V30 15469 O 1487.15 1.57266 -0.844381 0
M  V30 15470 C 1484.25 2.9381 -1.68904 0
M  V30 15471 C 1483.42 3.20714 -2.97425 0
M  V30 15472 C 1482.48 4.39355 -2.89575 0
M  V30 15473 O 1481.5 4.37999 -3.63519 0
M  V30 15474 N 1482.71 5.42931 -2.05441 0
M  V30 15475 H 1485.47 1.40267 -2.64849 0
M  V30 15476 H 1483.03 0.626075 -1.49305 0
M  V30 15477 H 1485.02 3.71201 -1.61221 0
M  V30 15478 H 1483.59 3.02034 -0.805871 0
M  V30 15479 H 1482.81 2.31621 -3.18975 0
M  V30 15480 H 1484.1 3.35516 -3.825 0
M  V30 15481 H 1483.5 5.4687 -1.44742 0
M  V30 15482 H 1482.06 6.19173 -2.03636 0
M  V30 15483 N 1485.49 1.41566 0.692592 0
M  V30 15484 C 1486.42 1.39582 1.81795 0
M  V30 15485 C 1487.44 0.29754 1.60058 0
M  V30 15486 O 1488.62 0.559463 1.69506 0
M  V30 15487 C 1485.72 1.15506 3.18609 0
M  V30 15488 C 1484.9 2.37432 3.67349 0
M  V30 15489 C 1483.96 2.09168 4.82841 0
M  V30 15490 O 1482.98 2.8223 4.94303 0
M  V30 15491 N 1484.18 1.08377 5.70294 0
M  V30 15492 H 1486.95 2.36577 1.83988 0
M  V30 15493 H 1484.51 1.36216 0.875026 0
M  V30 15494 H 1486.5 0.945452 3.93501 0
M  V30 15495 H 1485.07 0.270987 3.11423 0
M  V30 15496 H 1484.29 2.74076 2.8333 0
M  V30 15497 H 1485.58 3.18661 3.96652 0
M  V30 15498 H 1484.98 0.479122 5.63667 0
M  V30 15499 H 1483.54 0.934042 6.45073 0
M  V30 15500 N 1486.97 -0.927146 1.27443 0
M  V30 15501 C 1487.9 -2.03209 1.06013 0
M  V30 15502 C 1488.91 -1.62792 0.016041 0
M  V30 15503 O 1490.1 -1.76631 0.25766 0
M  V30 15504 C 1487.2 -3.33791 0.586225 0
M  V30 15505 C 1486.38 -4.02897 1.70273 0
M  V30 15506 C 1485.43 -5.11755 1.22447 0
M  V30 15507 O 1484.46 -5.35688 1.92423 0
M  V30 15508 N 1485.66 -5.80444 0.0804162 0
M  V30 15509 H 1488.43 -2.22155 2.01165 0
M  V30 15510 H 1485.99 -1.09757 1.19017 0
M  V30 15511 H 1487.98 -4.03926 0.250161 0
M  V30 15512 H 1486.55 -3.11414 -0.272076 0
M  V30 15513 H 1485.77 -3.26489 2.20905 0
M  V30 15514 H 1487.06 -4.45816 2.45205 0
M  V30 15515 H 1486.46 -5.63454 -0.503635 0
M  V30 15516 H 1485.01 -6.51504 -0.196466 0
M  V30 15517 N 1488.45 -1.09474 -1.13372 0
M  V30 15518 C 1489.38 -0.692446 -2.1849 0
M  V30 15519 C 1490.39 0.265942 -1.60613 0
M  V30 15520 O 1491.58 0.0519189 -1.78424 0
M  V30 15521 C 1488.68 0.000306083 -3.389 0
M  V30 15522 C 1487.85 -0.979745 -4.26286 0
M  V30 15523 C 1486.91 -0.320309 -5.25224 0
M  V30 15524 O 1485.94 -0.968089 -5.60907 0
M  V30 15525 N 1487.14 0.92536 -5.73077 0
M  V30 15526 H 1489.91 -1.59681 -2.53618 0
M  V30 15527 H 1487.47 -0.982256 -1.28699 0
M  V30 15528 H 1489.46 0.45268 -4.0216 0
M  V30 15529 H 1488.03 0.806927 -3.02006 0
M  V30 15530 H 1487.25 -1.61067 -3.59793 0
M  V30 15531 H 1488.54 -1.64348 -4.81526 0
M  V30 15532 H 1487.93 1.47119 -5.46235 0
M  V30 15533 H 1486.49 1.32105 -6.38272 0
M  V30 15534 N 1489.92 1.30607 -0.882012 0
M  V30 15535 C 1490.86 2.27177 -0.303861 0
M  V30 15536 C 1491.87 1.53587 0.539898 0
M  V30 15537 O 1493.06 1.74833 0.359931 0
M  V30 15538 C 1490.16 3.33781 0.586828 0
M  V30 15539 C 1489.33 4.3681 -0.227197 0
M  V30 15540 C 1488.39 5.22842 0.593519 0
M  V30 15541 O 1487.42 5.69197 0.0172694 0
M  V30 15542 N 1488.62 5.48414 1.90321 0
M  V30 15543 H 1491.38 2.77426 -1.13378 0
M  V30 15544 H 1488.94 1.43756 -0.744698 0
M  V30 15545 H 1490.94 3.88257 1.14186 0
M  V30 15546 H 1489.51 2.83483 1.31743 0
M  V30 15547 H 1488.73 3.82239 -0.963674 0
M  V30 15548 H 1490.01 5.02703 -0.785315 0
M  V30 15549 H 1489.41 5.1253 2.39435 0
M  V30 15550 H 1487.97 6.05778 2.40575 0
M  V30 15551 N 1491.4 0.642663 1.43901 0
M  V30 15552 C 1492.33 -0.0938945 2.29008 0
M  V30 15553 C 1493.35 -0.797561 1.41925 0
M  V30 15554 O 1494.54 -0.65708 1.65966 0
M  V30 15555 C 1491.64 -1.15564 3.18588 0
M  V30 15556 C 1490.81 -0.532208 4.3415 0
M  V30 15557 C 1489.87 -1.48943 5.0468 0
M  V30 15558 O 1488.89 -1.00211 5.60309 0
M  V30 15559 N 1490.1 -2.82362 5.072 0
M  V30 15560 H 1492.86 0.636539 2.92862 0
M  V30 15561 H 1490.42 0.484665 1.54475 0
M  V30 15562 H 1492.41 -1.79658 3.62636 0
M  V30 15563 H 1490.98 -1.78816 2.56405 0
M  V30 15564 H 1490.2 0.287598 3.93149 0
M  V30 15565 H 1491.49 -0.0965526 5.08708 0
M  V30 15566 H 1490.89 -3.24524 4.63358 0
M  V30 15567 H 1489.45 -3.41786 5.55001 0
M  V30 15568 N 1492.88 -1.52852 0.383918 0
M  V30 15569 C 1493.81 -2.23927 -0.488816 0
M  V30 15570 C 1494.83 -1.2598 -1.03115 0
M  V30 15571 O 1496.02 -1.5209 -0.934398 0
M  V30 15572 C 1493.12 -2.9378 -1.68957 0
M  V30 15573 C 1492.29 -4.18388 -1.27555 0
M  V30 15574 C 1491.35 -4.71287 -2.3404 0
M  V30 15575 O 1490.37 -5.34511 -1.9567 0
M  V30 15576 N 1491.58 -4.50679 -3.65881 0
M  V30 15577 H 1494.34 -2.99459 0.120084 0
M  V30 15578 H 1491.9 -1.60532 0.210004 0
M  V30 15579 H 1493.89 -3.26071 -2.39707 0
M  V30 15580 H 1492.46 -2.21588 -2.20493 0
M  V30 15581 H 1491.68 -3.92194 -0.397157 0
M  V30 15582 H 1492.97 -4.99361 -0.975506 0
M  V30 15583 H 1492.37 -4.00201 -3.9982 0
M  V30 15584 H 1490.93 -4.87473 -4.32681 0
M  V30 15585 N 1494.36 -0.113586 -1.5719 0
M  V30 15586 C 1495.29 0.868985 -2.12088 0
M  V30 15587 C 1496.3 1.23362 -1.06233 0
M  V30 15588 O 1497.49 1.18352 -1.33623 0
M  V30 15589 C 1494.59 2.17252 -2.60106 0
M  V30 15590 C 1493.77 1.9804 -3.89999 0
M  V30 15591 C 1492.83 3.12073 -4.23671 0
M  V30 15592 O 1491.85 2.85224 -4.92581 0
M  V30 15593 N 1493.05 4.38358 -3.80556 0
M  V30 15594 H 1495.82 0.399996 -2.97019 0
M  V30 15595 H 1493.38 0.0709947 -1.61744 0
M  V30 15596 H 1495.37 2.92523 -2.79665 0
M  V30 15597 H 1493.94 2.55516 -1.80084 0
M  V30 15598 H 1493.16 1.06993 -3.79402 0
M  V30 15599 H 1494.45 1.82502 -4.74943 0
M  V30 15600 H 1493.85 4.63048 -3.24966 0
M  V30 15601 H 1492.4 5.10518 -4.05234 0
M  V30 15602 N 1495.84 1.56784 0.160173 0
M  V30 15603 C 1496.77 1.93848 1.22293 0
M  V30 15604 C 1497.78 0.832803 1.39886 0
M  V30 15605 O 1498.97 1.11124 1.39692 0
M  V30 15606 C 1496.07 2.18581 2.58989 0
M  V30 15607 C 1495.24 3.49839 2.62548 0
M  V30 15608 C 1494.3 3.63268 3.80687 0
M  V30 15609 O 1493.33 4.35785 3.6617 0
M  V30 15610 N 1494.53 2.98948 4.97605 0
M  V30 15611 H 1497.3 2.85614 0.908004 0
M  V30 15612 H 1494.86 1.58075 0.349851 0
M  V30 15613 H 1496.85 2.24819 3.36509 0
M  V30 15614 H 1495.42 1.33145 2.82827 0
M  V30 15615 H 1494.64 3.5516 1.7104 0
M  V30 15616 H 1495.93 4.3619 2.61945 0
M  V30 15617 H 1495.33 2.39924 5.12302 0
M  V30 15618 H 1493.88 3.10765 5.72947 0
M  V30 15619 N 1497.32 -0.429099 1.51646 0
M  V30 15620 C 1498.23 -1.54648 1.76412 0
M  V30 15621 C 1499.24 -1.61455 0.648703 0
M  V30 15622 O 1500.42 -1.78544 0.931888 0
M  V30 15623 C 1497.48 -2.90562 1.89142 0
M  V30 15624 C 1496.54 -2.93804 3.13014 0
M  V30 15625 C 1495.78 -4.23235 3.25127 0
M  V30 15626 O 1496 -5.1606 2.42979 0
M  V30 15627 O 1494.93 -4.32929 4.18158 0
M  V30 15628 H 1498.76 -1.36661 2.71215 0
M  V30 15629 H 1496.34 -0.612946 1.36247 0
M  V30 15630 H 1498.23 -3.7121 1.99453 0
M  V30 15631 H 1496.9 -3.08659 0.975272 0
M  V30 15632 H 1495.81 -2.12082 3.08175 0
M  V30 15633 H 1497.14 -2.80654 4.04344 0
M  V30 15634 N 1498.79 -1.41931 -0.685074 0
M  V30 15635 C 1500.02 -1.45018 -1.4715 0
M  V30 15636 C 1500.43 -0.0569412 -1.89114 0
M  V30 15637 O 1499.77 0.936419 -1.58041 0
M  V30 15638 C 1499.84 -2.30522 -2.75862 0
M  V30 15639 C 1499.5 -3.78542 -2.56037 0
M  V30 15640 C 1500.5 -4.70448 -2.21303 0
M  V30 15641 C 1498.18 -4.22698 -2.71351 0
M  V30 15642 C 1500.18 -6.045 -2.02135 0
M  V30 15643 C 1497.86 -5.56812 -2.518 0
M  V30 15644 C 1498.86 -6.47529 -2.17244 0
M  V30 15645 O 1498.55 -7.79167 -1.97872 0
M  V30 15646 H 1498.28 -0.495682 -0.459647 0
M  V30 15647 H 1500.84 -1.86983 -0.850079 0
M  V30 15648 H 1499.07 -1.83389 -3.40449 0
M  V30 15649 H 1500.75 -2.25186 -3.37707 0
M  V30 15650 H 1501.52 -4.37621 -2.09077 0
M  V30 15651 H 1497.4 -3.52385 -2.9723 0
M  V30 15652 H 1500.94 -6.75271 -1.75086 0
M  V30 15653 H 1496.84 -5.89216 -2.6362 0
M  V30 15654 H 1497.61 -7.9042 -2.12552 0
M  V30 15655 N 1500.27 0.920374 -1.27933 0
M  V30 15656 C 1501.2 2.02644 -1.07089 0
M  V30 15657 C 1502.22 1.62781 -0.024674 0
M  V30 15658 O 1503.41 1.76491 -0.267023 0
M  V30 15659 C 1500.51 3.33476 -0.603919 0
M  V30 15660 C 1499.68 4.01988 -1.72407 0
M  V30 15661 C 1498.74 5.11098 -1.25159 0
M  V30 15662 O 1497.76 5.3466 -1.95261 0
M  V30 15663 N 1498.97 5.80393 -0.111197 0
M  V30 15664 H 1501.73 2.21085 -2.0234 0
M  V30 15665 H 1499.29 1.09124 -1.19597 0
M  V30 15666 H 1501.28 4.03788 -0.271579 0
M  V30 15667 H 1499.85 3.11554 0.255557 0
M  V30 15668 H 1499.07 3.25312 -2.22633 0
M  V30 15669 H 1500.36 4.4451 -2.47566 0
M  V30 15670 H 1499.76 5.63713 0.473746 0
M  V30 15671 H 1498.32 6.51599 0.161912 0
M  V30 15672 N 1501.75 1.10074 1.1279 0
M  V30 15673 C 1502.66 0.758458 2.22001 0
M  V30 15674 C 1503.68 -0.242438 1.72303 0
M  V30 15675 O 1504.85 -0.0821223 2.01233 0
M  V30 15676 C 1501.92 0.191326 3.46172 0
M  V30 15677 C 1500.98 1.24902 4.10729 0
M  V30 15678 C 1500.21 0.708857 5.28972 0
M  V30 15679 O 1500.43 -0.465993 5.68493 0
M  V30 15680 O 1499.37 1.46703 5.83748 0
M  V30 15681 H 1503.19 1.66997 2.53665 0
M  V30 15682 H 1500.78 0.875604 1.21052 0
M  V30 15683 H 1502.66 -0.121292 4.21225 0
M  V30 15684 H 1501.34 -0.693094 3.16193 0
M  V30 15685 H 1500.24 1.61444 3.37471 0
M  V30 15686 H 1501.58 2.10632 4.44854 0
M  V30 15687 N 1503.23 -1.30138 0.888926 0
M  V30 15688 C 1504.16 -2.3047 0.374934 0
M  V30 15689 C 1505.14 -1.61156 -0.544322 0
M  V30 15690 O 1506.32 -1.88738 -0.457337 0
M  V30 15691 C 1503.45 -3.44896 -0.407935 0
M  V30 15692 C 1502.41 -4.25935 0.419916 0
M  V30 15693 C 1501.73 -5.32452 -0.489797 0
M  V30 15694 C 1503.03 -4.9508 1.66413 0
M  V30 15695 H 1504.73 -2.73711 1.21337 0
M  V30 15696 H 1502.27 -1.31586 0.584899 0
M  V30 15697 H 1504.23 -4.14153 -0.778177 0
M  V30 15698 H 1502.95 -3.0047 -1.28005 0
M  V30 15699 H 1501.61 -3.58372 0.772348 0
M  V30 15700 H 1501.26 -4.84273 -1.35974 0
M  V30 15701 H 1500.96 -5.87569 0.0603412 0
M  V30 15702 H 1502.48 -6.04563 -0.856468 0
M  V30 15703 H 1503.9 -5.56831 1.36425 0
M  V30 15704 H 1502.29 -5.6008 2.15477 0
M  V30 15705 H 1503.36 -4.20981 2.4063 0
M  V30 15706 N 1504.71 -0.650285 -1.43559 0
M  V30 15707 C 1505.95 -0.162484 -2.01847 0
M  V30 15708 C 1506.28 1.22251 -1.51278 0
M  V30 15709 O 1505.54 1.82939 -0.695115 0
M  V30 15710 C 1505.83 -0.119084 -3.57202 0
M  V30 15711 C 1505.5 -1.44543 -4.27104 0
M  V30 15712 C 1504.16 -1.80864 -4.45917 0
M  V30 15713 C 1506.51 -2.32005 -4.66715 0
M  V30 15714 C 1503.84 -3.04319 -5.01604 0
M  V30 15715 C 1506.19 -3.54748 -5.23771 0
M  V30 15716 C 1504.86 -3.9127 -5.408 0
M  V30 15717 H 1504.13 -0.0594573 -0.738611 0
M  V30 15718 H 1506.78 -0.84041 -1.72074 0
M  V30 15719 H 1505.08 0.642282 -3.865 0
M  V30 15720 H 1506.78 0.275168 -4.00055 0
M  V30 15721 H 1503.37 -1.15281 -4.12805 0
M  V30 15722 H 1507.55 -2.05234 -4.51877 0
M  V30 15723 H 1502.81 -3.32668 -5.12974 0
M  V30 15724 H 1506.98 -4.2274 -5.53411 0
M  V30 15725 H 1504.61 -4.87011 -5.83716 0
M  V30 15726 N 1506.18 1.52647 -0.392018 0
M  V30 15727 C 1507.6 1.59544 -0.0421007 0
M  V30 15728 C 1507.8 1.40586 1.44353 0
M  V30 15729 O 1506.86 1.22422 2.20837 0
M  V30 15730 C 1508.17 2.9614 -0.521713 0
M  V30 15731 C 1509.72 3.09325 -0.478205 0
M  V30 15732 C 1510.19 4.48374 -0.93405 0
M  V30 15733 N 1511.68 4.54566 -0.890173 0
M  V30 15734 C 1512.42 5.60395 -1.21427 0
M  V30 15735 N 1511.91 6.73858 -1.60897 0
M  V30 15736 N 1513.71 5.50515 -1.13534 0
M  V30 15737 H 1505.86 1.63219 -1.35917 0
M  V30 15738 H 1508.12 0.766913 -0.557269 0
M  V30 15739 H 1507.83 3.15238 -1.55942 0
M  V30 15740 H 1507.7 3.7712 0.0777658 0
M  V30 15741 H 1510.09 2.89921 0.550418 0
M  V30 15742 H 1510.17 2.30292 -1.11352 0
M  V30 15743 H 1509.81 4.68519 -1.96092 0
M  V30 15744 H 1509.74 5.25878 -0.275717 0
M  V30 15745 H 1512.23 3.7311 -0.599758 0
M  V30 15746 H 1512.55 7.5058 -1.83983 0
M  V30 15747 H 1510.89 6.75182 -1.64786 0
M  V30 15748 H 1514.08 4.60755 -0.825977 0
M  V30 15749 H 1514.26 6.32889 -1.39124 0
M  V30 15750 N 1507.66 0.121921 1.57128 0
M  V30 15751 C 1508.61 -0.838414 2.12025 0
M  V30 15752 C 1509.6 -1.22623 1.04175 0
M  V30 15753 O 1510.79 -1.19683 1.30403 0
M  V30 15754 C 1507.92 -2.08733 2.72554 0
M  V30 15755 C 1507 -1.72374 3.87489 0
M  V30 15756 N 1507.39 -1.06706 4.94416 0
M  V30 15757 C 1505.69 -2.01813 3.97728 0
M  V30 15758 C 1506.39 -0.89551 5.74766 0
M  V30 15759 N 1505.37 -1.42144 5.24687 0
M  V30 15760 H 1509.17 -0.3272 2.92073 0
M  V30 15761 H 1506.69 -0.0804553 1.62201 0
M  V30 15762 H 1508.68 -2.78503 3.10229 0
M  V30 15763 H 1507.34 -2.60395 1.9397 0
M  V30 15764 H 1508.35 -0.730702 5.12719 0
M  V30 15765 H 1505.03 -2.55502 3.3019 0
M  V30 15766 H 1506.42 -0.379836 6.70826 0
M  V30 15767 N 1509.14 -1.56867 -0.151857 0
M  V30 15768 C 1510.07 -1.93039 -1.21701 0
M  V30 15769 C 1511.05 -0.795607 -1.41806 0
M  V30 15770 O 1512.24 -1.05076 -1.56497 0
M  V30 15771 C 1509.36 -2.19822 -2.57674 0
M  V30 15772 C 1508.41 -3.42474 -2.54192 0
M  V30 15773 S 1509.24 -4.96199 -2.01363 0
M  V30 15774 C 1510.4 -5.26098 -3.39075 0
M  V30 15775 H 1510.63 -2.83083 -0.90837 0
M  V30 15776 H 1508.16 -1.5021 -0.357265 0
M  V30 15777 H 1510.12 -2.35932 -3.35926 0
M  V30 15778 H 1508.78 -1.30451 -2.8573 0
M  V30 15779 H 1507.98 -3.58476 -3.54276 0
M  V30 15780 H 1507.58 -3.25581 -1.84047 0
M  V30 15781 H 1509.87 -5.19268 -4.35163 0
M  V30 15782 H 1510.81 -6.27588 -3.27931 0
M  V30 15783 H 1511.22 -4.53623 -3.35986 0
M  V30 15784 N 1510.62 0.421051 -1.51871 0
M  V30 15785 C 1511.57 1.53277 -1.74954 0
M  V30 15786 C 1512.56 1.57792 -0.616282 0
M  V30 15787 O 1513.77 1.61342 -0.798054 0
M  V30 15788 H 1510.14 0.50953 -0.553067 0
M  V30 15789 H 1512.11 1.30988 -2.68113 0
M  V30 15790 C 1510.86 2.90772 -1.90649 0
M  V30 15791 H 1510.18 2.88035 -2.77265 0
M  V30 15792 H 1511.62 3.67882 -2.10805 0
M  V30 15793 C 1510.08 3.30161 -0.670463 0
M  V30 15794 O 1510.61 4.01352 0.167271 0
M  V30 15795 N 1508.82 2.86093 -0.509813 0
M  V30 15796 H 1508.37 2.28329 -1.19262 0
M  V30 15797 H 1508.32 3.12809 0.315918 0
M  V30 15798 N 1512.1 1.42293 0.677538 0
M  V30 15799 C 1513.03 1.41503 1.80304 0
M  V30 15800 C 1514.04 0.314499 1.59733 0
M  V30 15801 O 1515.23 0.57741 1.68903 0
M  V30 15802 C 1512.33 1.18879 3.17366 0
M  V30 15803 C 1511.5 2.41314 3.6481 0
M  V30 15804 C 1510.56 2.14277 4.80595 0
M  V30 15805 O 1509.59 2.87457 4.91281 0
M  V30 15806 N 1510.79 1.14419 5.69112 0
M  V30 15807 H 1513.56 2.38515 1.81468 0
M  V30 15808 H 1511.12 1.37137 0.860529 0
M  V30 15809 H 1513.11 0.987135 3.92476 0
M  V30 15810 H 1511.68 0.304002 3.11118 0
M  V30 15811 H 1510.9 2.77066 2.80407 0
M  V30 15812 H 1512.19 3.2285 3.9325 0
M  V30 15813 H 1511.58 0.53888 5.63127 0
M  V30 15814 H 1510.14 1.00241 6.44046 0
M  V30 15815 N 1513.57 -0.913576 1.28419 0
M  V30 15816 C 1514.82 -1.65944 1.15355 0
M  V30 15817 C 1515.14 -1.92706 -0.298228 0
M  V30 15818 O 1514.41 -1.54333 -1.20657 0
M  V30 15819 H 1512.99 -0.615063 0.423919 0
M  V30 15820 H 1515.66 -1.0962 1.6115 0
M  V30 15821 H 1514.75 -2.62173 1.69327 0
M  V30 15822 N 1515.05 -1.1067 -1.12204 0
M  V30 15823 C 1516.33 -0.762632 -1.8012 0
M  V30 15824 C 1516.71 0.750529 -1.97308 0
M  V30 15825 O 1516.06 1.67764 -1.55137 0
M  V30 15826 C 1516.27 -1.51651 -3.14329 0
M  V30 15827 C 1517.62 -1.69061 -3.89491 0
M  V30 15828 O 1518.64 -1.48009 -3.23994 0
M  V30 15829 O 1517.5 -2.03984 -5.07004 0
M  V30 15830 H 1514.59 -0.275417 -0.779791 0
M  V30 15831 H 1517.14 -1.20966 -1.19018 0
M  V30 15832 H 1515.91 -2.54622 -2.97125 0
M  V30 15833 H 1515.53 -1.0625 -3.83141 0
M  V30 15834 N 1516.53 1.29665 -0.895815 0
M  V30 15835 C 1517.49 2.26103 -0.3755 0
M  V30 15836 C 1518.49 1.53212 0.488126 0
M  V30 15837 O 1519.68 1.71706 0.293733 0
M  V30 15838 C 1516.82 3.37732 0.46364 0
M  V30 15839 H 1518.01 2.73643 -1.22718 0
M  V30 15840 H 1515.56 1.4104 -0.673613 0
M  V30 15841 H 1516.3 2.95526 1.33546 0
M  V30 15842 H 1516.08 3.91793 -0.155123 0
M  V30 15843 H 1517.57 4.09488 0.819112 0
M  V30 15844 N 1518.01 0.657889 1.43212 0
M  V30 15845 C 1519.26 0.172845 2.0136 0
M  V30 15846 C 1519.58 -1.21911 1.52193 0
M  V30 15847 O 1518.85 -1.81529 0.736492 0
M  V30 15848 H 1517.43 0.0609091 0.744513 0
M  V30 15849 H 1520.09 0.850605 1.75359 0
M  V30 15850 H 1519.19 0.161062 3.11684 0
M  V30 15851 N 1519.49 -1.52437 0.400108 0
M  V30 15852 C 1520.71 -2.0661 -0.180861 0
M  V30 15853 C 1521.14 -1.269 -1.38845 0
M  V30 15854 O 1520.49 -0.296862 -1.78853 0
M  V30 15855 C 1520.54 -3.56851 -0.518595 0
M  V30 15856 O 1519.65 -3.79634 -1.61095 0
M  V30 15857 H 1518.99 -0.663752 -0.0181348 0
M  V30 15858 H 1521.52 -1.96479 0.570702 0
M  V30 15859 H 1521.53 -4.00478 -0.779817 0
M  V30 15860 H 1520.2 -4.14302 0.364216 0
M  V30 15861 H 1518.78 -3.47892 -1.3426 0
M  V30 15862 N 1520.96 -0.130252 -1.57061 0
M  V30 15863 C 1521.89 0.812189 -2.18919 0
M  V30 15864 C 1522.88 1.2692 -1.13249 0
M  V30 15865 O 1524.06 1.32978 -1.41529 0
M  V30 15866 C 1521.19 2.05803 -2.79754 0
M  V30 15867 C 1520.14 1.73841 -3.91105 0
M  V30 15868 C 1519.47 3.05549 -4.38799 0
M  V30 15869 C 1520.77 0.997991 -5.12677 0
M  V30 15870 H 1522.46 0.296692 -2.97926 0
M  V30 15871 H 1520.01 0.141265 -1.43305 0
M  V30 15872 H 1521.96 2.72201 -3.21691 0
M  V30 15873 H 1520.69 2.59697 -1.98053 0
M  V30 15874 H 1519.35 1.09828 -3.49762 0
M  V30 15875 H 1518.99 3.57399 -3.53942 0
M  V30 15876 H 1518.69 2.84932 -5.13894 0
M  V30 15877 H 1520.22 3.73045 -4.83394 0
M  V30 15878 H 1521.63 1.56372 -5.51562 0
M  V30 15879 H 1520.03 0.892378 -5.93428 0
M  V30 15880 H 1521.1 -0.0132936 -4.84898 0
M  V30 15881 N 1522.44 1.56945 0.143535 0
M  V30 15882 C 1523.41 1.97616 1.16106 0
M  V30 15883 C 1524.41 0.863113 1.35672 0
M  V30 15884 O 1525.6 1.12966 1.32606 0
M  V30 15885 C 1522.73 2.29511 2.52067 0
M  V30 15886 H 1523.92 2.88696 0.812066 0
M  V30 15887 H 1521.47 1.51433 0.386999 0
M  V30 15888 H 1522.21 1.41233 2.91931 0
M  V30 15889 H 1521.99 3.10667 2.39225 0
M  V30 15890 H 1523.48 2.61802 3.25345 0
M  V30 15891 N 1523.92 -0.412991 1.52093 0
M  V30 15892 C 1525.33 -0.991955 1.58168 0
M  V30 15893 C 1525.68 -1.91655 0.419834 0
M  V30 15894 O 1524.81 -2.11448 -0.460308 0
M  V30 15895 C 1525.4 -1.80581 2.86663 0
M  V30 15896 C 1523.96 -2.33487 2.9523 0
M  V30 15897 C 1523.11 -1.13362 2.5307 0
M  V30 15898 H 1526.06 -0.193364 1.57518 0
M  V30 15899 H 1526.08 -2.66282 2.71798 0
M  V30 15900 H 1525.59 -1.13262 3.71205 0
M  V30 15901 H 1523.69 -3.0419 2.15173 0
M  V30 15902 H 1523.81 -2.64617 3.99393 0
M  V30 15903 H 1522.17 -1.48641 2.06828 0
M  V30 15904 H 1522.95 -0.476148 3.39982 0
M  V30 15905 N 1525.4 -1.4265 -0.669982 0
M  V30 15906 C 1526.62 -1.46992 -1.46315 0
M  V30 15907 C 1527.05 -0.0840655 -1.87912 0
M  V30 15908 O 1526.41 0.918554 -1.56308 0
M  V30 15909 C 1526.46 -2.40663 -2.6854 0
M  V30 15910 O 1525.56 -1.88132 -3.66988 0
M  V30 15911 H 1524.9 -0.497844 -0.439372 0
M  V30 15912 H 1527.43 -1.8739 -0.821348 0
M  V30 15913 H 1527.44 -2.57405 -3.16554 0
M  V30 15914 H 1526.12 -3.41346 -2.37604 0
M  V30 15915 H 1524.69 -1.80969 -3.26044 0
M  V30 15916 N 1526.88 0.906753 -1.28902 0
M  V30 15917 C 1527.81 2.02663 -1.15974 0
M  V30 15918 C 1528.79 1.70009 -0.0557202 0
M  V30 15919 O 1529.97 1.92786 -0.233952 0
M  V30 15920 C 1527.1 3.37283 -0.828115 0
M  V30 15921 C 1526.06 3.84123 -1.88767 0
M  V30 15922 C 1525.38 5.15787 -1.40953 0
M  V30 15923 C 1526.68 4.05217 -3.2954 0
M  V30 15924 H 1528.38 2.13738 -2.09658 0
M  V30 15925 H 1525.92 1.02699 -1.0094 0
M  V30 15926 H 1527.88 4.15127 -0.724408 0
M  V30 15927 H 1526.6 3.2628 0.14443 0
M  V30 15928 H 1525.26 3.0849 -1.98065 0
M  V30 15929 H 1524.91 5.01194 -0.425848 0
M  V30 15930 H 1524.61 5.48098 -2.11807 0
M  V30 15931 H 1526.13 5.9618 -1.31918 0
M  V30 15932 H 1527.55 4.73565 -3.23124 0
M  V30 15933 H 1525.94 4.48871 -3.9829 0
M  V30 15934 H 1527.01 3.0979 -3.73039 0
M  V30 15935 N 1528.36 1.11264 1.11616 0
M  V30 15936 C 1529.6 0.858664 1.82952 0
M  V30 15937 C 1529.92 -0.617439 1.84967 0
M  V30 15938 O 1529.19 -1.44849 1.31893 0
M  V30 15939 H 1527.77 0.314671 0.677489 0
M  V30 15940 H 1530.44 1.40466 1.35113 0
M  V30 15941 H 1529.53 1.22921 2.86874 0
M  V30 15942 N 1529.83 -1.29188 0.902679 0
M  V30 15943 C 1531.08 -1.95052 0.529076 0
M  V30 15944 C 1531.4 -1.7149 -0.92824 0
M  V30 15945 O 1530.67 -1.04834 -1.65489 0
M  V30 15946 H 1529.25 -0.721725 0.192671 0
M  V30 15947 H 1531.91 -1.57384 1.14962 0
M  V30 15948 H 1531.01 -3.03819 0.714179 0
M  V30 15949 N 1531.31 -0.665475 -1.42861 0
M  V30 15950 C 1532.24 0.0574495 -2.29128 0
M  V30 15951 C 1533.26 0.774881 -1.43176 0
M  V30 15952 O 1534.45 0.630593 -1.6699 0
M  V30 15953 C 1531.55 1.10481 -3.20386 0
M  V30 15954 C 1530.72 0.463071 -4.34942 0
M  V30 15955 C 1529.78 1.40896 -5.06986 0
M  V30 15956 O 1528.8 0.912839 -5.61833 0
M  V30 15957 N 1530.01 2.74257 -5.11628 0
M  V30 15958 H 1532.77 -0.683051 -2.91812 0
M  V30 15959 H 1530.33 -0.509179 -1.53685 0
M  V30 15960 H 1532.32 1.73866 -3.65449 0
M  V30 15961 H 1530.89 1.74715 -2.59217 0
M  V30 15962 H 1530.11 -0.350109 -3.92642 0
M  V30 15963 H 1531.4 0.0156092 -5.08798 0
M  V30 15964 H 1530.8 3.17112 -4.68462 0
M  V30 15965 H 1529.36 3.32913 -5.60368 0
M  V30 15966 N 1532.79 1.52222 -0.408187 0
M  V30 15967 C 1534.01 2.06703 0.169901 0
M  V30 15968 C 1534.44 1.27635 1.3817 0
M  V30 15969 O 1533.8 0.306343 1.78693 0
M  V30 15970 C 1533.85 3.57121 0.499663 0
M  V30 15971 O 1532.95 3.80483 1.5908 0
M  V30 15972 H 1532.29 0.663839 0.0146145 0
M  V30 15973 H 1534.82 1.96174 -0.581113 0
M  V30 15974 H 1534.83 4.00886 0.758567 0
M  V30 15975 H 1533.51 4.14103 -0.386182 0
M  V30 15976 H 1532.08 3.48599 1.32413 0
M  V30 15977 N 1534.27 0.138579 1.5699 0
M  V30 15978 C 1535.2 -0.842105 2.12094 0
M  V30 15979 C 1536.18 -1.24798 1.04232 0
M  V30 15980 O 1537.36 -1.34557 1.3201 0
M  V30 15981 C 1534.49 -2.1296 2.63373 0
M  V30 15982 C 1533.54 -1.8703 3.83304 0
M  V30 15983 S 1534.37 -1.06889 5.24724 0
M  V30 15984 C 1535.52 -2.36776 5.79386 0
M  V30 15985 H 1535.76 -0.373475 2.94945 0
M  V30 15986 H 1533.29 -0.0755566 1.54215 0
M  V30 15987 H 1535.25 -2.86927 2.9357 0
M  V30 15988 H 1533.91 -2.56939 1.80668 0
M  V30 15989 H 1533.1 -2.82478 4.17399 0
M  V30 15990 H 1532.7 -1.21176 3.53825 0
M  V30 15991 H 1535 -3.32486 5.90304 0
M  V30 15992 H 1535.94 -2.07197 6.77108 0
M  V30 15993 H 1536.35 -2.47039 5.07575 0
M  V30 15994 N 1535.75 -1.57019 -0.13521 0
M  V30 15995 C 1536.97 -1.8816 -0.860434 0
M  V30 15996 C 1537.39 -0.728081 -1.74196 0
M  V30 15997 O 1536.75 0.301745 -1.79988 0
M  V30 15998 C 1536.8 -3.1864 -1.70737 0
M  V30 15999 O 1536.52 -4.29549 -0.861347 0
M  V30 16000 C 1538.02 -3.63376 -2.53915 0
M  V30 16001 H 1535.24 -0.623408 -0.248201 0
M  V30 16002 H 1537.78 -2.04121 -0.124461 0
M  V30 16003 H 1535.94 -3.04397 -2.39627 0
M  V30 16004 H 1536.35 -5.04233 -1.44393 0
M  V30 16005 H 1537.83 -4.57478 -3.08897 0
M  V30 16006 H 1538.3 -2.89238 -3.30512 0
M  V30 16007 H 1538.91 -3.80352 -1.90296 0
M  V30 16008 N 1537.22 0.404919 -1.52309 0
M  V30 16009 C 1538.13 1.51822 -1.7885 0
M  V30 16010 C 1539.15 1.60403 -0.674307 0
M  V30 16011 O 1540.33 1.77038 -0.960175 0
M  V30 16012 C 1537.39 2.87516 -1.9374 0
M  V30 16013 C 1536.45 2.88787 -3.17648 0
M  V30 16014 C 1535.69 4.18009 -3.31819 0
M  V30 16015 O 1535.91 5.12129 -2.51158 0
M  V30 16016 O 1534.84 4.26222 -4.24992 0
M  V30 16017 H 1538.67 1.32329 -2.73354 0
M  V30 16018 H 1536.25 0.591193 -1.37205 0
M  V30 16019 H 1538.14 3.6799 -2.05333 0
M  V30 16020 H 1536.81 3.07068 -1.02425 0
M  V30 16021 H 1535.72 2.07152 -3.11511 0
M  V30 16022 H 1537.05 2.74185 -4.08758 0
M  V30 16023 N 1538.7 1.43003 0.662408 0
M  V30 16024 C 1540.12 1.26201 0.977003 0
M  V30 16025 C 1540.32 0.175104 2.00738 0
M  V30 16026 O 1539.37 -0.44954 2.48466 0
M  V30 16027 C 1540.69 2.62319 1.47001 0
M  V30 16028 C 1542.24 2.69776 1.58714 0
M  V30 16029 C 1542.71 4.06289 2.11408 0
M  V30 16030 N 1544.2 4.08307 2.18724 0
M  V30 16031 C 1544.94 5.10761 2.60598 0
M  V30 16032 N 1544.43 6.23593 3.01834 0
M  V30 16033 N 1546.23 4.98115 2.60456 0
M  V30 16034 H 1538.38 2.12391 -0.0195698 0
M  V30 16035 H 1540.64 0.946472 0.0538044 0
M  V30 16036 H 1540.35 3.42773 0.78736 0
M  V30 16037 H 1540.22 2.87088 2.44664 0
M  V30 16038 H 1542.61 1.89659 2.26083 0
M  V30 16039 H 1542.69 2.48782 0.595081 0
M  V30 16040 H 1542.33 4.86868 1.44644 0
M  V30 16041 H 1542.26 4.24641 3.11428 0
M  V30 16042 H 1544.75 3.26857 1.89665 0
M  V30 16043 H 1545.07 6.97609 3.32509 0
M  V30 16044 H 1543.41 6.27079 2.99661 0
M  V30 16045 H 1546.6 4.09037 2.27611 0
M  V30 16046 H 1546.77 5.78092 2.92769 0
M  V30 16047 N 1540.18 -0.899904 1.29381 0
M  V30 16048 C 1541.11 -2.00914 1.103 0
M  V30 16049 C 1542.13 -1.62721 0.050568 0
M  V30 16050 O 1543.31 -1.76044 0.295068 0
M  V30 16051 C 1540.41 -3.32473 0.656896 0
M  V30 16052 C 1539.59 -3.99195 1.7878 0
M  V30 16053 C 1538.65 -5.09043 1.33274 0
M  V30 16054 O 1537.67 -5.31486 2.03742 0
M  V30 16055 N 1538.87 -5.80143 0.203519 0
M  V30 16056 H 1541.64 -2.17838 2.05832 0
M  V30 16057 H 1539.2 -1.07208 1.21318 0
M  V30 16058 H 1541.19 -4.03305 0.335783 0
M  V30 16059 H 1539.76 -3.11921 -0.205959 0
M  V30 16060 H 1538.98 -3.21729 2.2778 0
M  V30 16061 H 1540.27 -4.40515 2.54606 0
M  V30 16062 H 1539.67 -5.64395 -0.384005 0
M  V30 16063 H 1538.23 -6.51774 -0.0582282 0
M  V30 16064 N 1541.66 -1.11854 -1.11024 0
M  V30 16065 C 1542.62 -0.784033 -2.15373 0
M  V30 16066 C 1543.62 0.198686 -1.59568 0
M  V30 16067 O 1544.81 -0.0263428 -1.7418 0
M  V30 16068 C 1541.94 -0.163987 -3.40505 0
M  V30 16069 H 1543.14 -1.70849 -2.46477 0
M  V30 16070 H 1540.69 -0.920988 -1.26283 0
M  V30 16071 H 1541.42 0.770483 -3.15014 0
M  V30 16072 H 1541.21 -0.871447 -3.82293 0
M  V30 16073 H 1542.7 0.0537739 -4.17565 0
M  V30 16074 N 1543.14 1.28707 -0.909517 0
M  V30 16075 C 1544.07 2.29845 -0.411552 0
M  V30 16076 C 1545.05 1.62001 0.518615 0
M  V30 16077 O 1546.23 1.89442 0.427252 0
M  V30 16078 C 1543.36 3.45501 0.353013 0
M  V30 16079 C 1542.32 4.25213 -0.487625 0
M  V30 16080 C 1541.64 5.33164 0.405026 0
M  V30 16081 C 1542.94 4.9237 -1.74268 0
M  V30 16082 H 1544.64 2.71746 -1.25676 0
M  V30 16083 H 1542.18 1.30639 -0.605759 0
M  V30 16084 H 1544.14 4.15338 0.712191 0
M  V30 16085 H 1542.86 3.02469 1.23209 0
M  V30 16086 H 1541.52 3.57098 -0.829265 0
M  V30 16087 H 1541.17 4.86375 1.28252 0
M  V30 16088 H 1540.87 5.87399 -0.153811 0
M  V30 16089 H 1542.39 6.0585 0.760179 0
M  V30 16090 H 1543.8 5.5459 -1.45266 0
M  V30 16091 H 1542.2 5.56581 -2.2436 0
M  V30 16092 H 1543.27 4.171 -2.47297 0
M  V30 16093 N 1544.61 0.673042 1.42506 0
M  V30 16094 C 1545.84 0.201349 2.0642 0
M  V30 16095 C 1546.26 -1.132 1.50224 0
M  V30 16096 O 1545.62 -1.70368 0.620024 0
M  V30 16097 C 1545.67 0.14505 3.60308 0
M  V30 16098 O 1544.77 -0.886953 4.02749 0
M  V30 16099 H 1544.12 0.103975 0.655809 0
M  V30 16100 H 1546.65 0.921559 1.8267 0
M  V30 16101 H 1546.66 -0.0316792 4.07988 0
M  V30 16102 H 1545.33 1.11829 4.00583 0
M  V30 16103 H 1543.91 -0.681408 3.66621 0
M  V30 16104 N 1546.09 -1.52004 0.416254 0
M  V30 16105 C 1547.32 -2.06008 -0.156264 0
M  V30 16106 C 1547.73 -1.28562 -1.3881 0
M  V30 16107 O 1547.07 -0.33265 -1.80663 0
M  V30 16108 C 1547.14 -3.55039 -0.564614 0
M  V30 16109 C 1546.8 -4.53587 0.557481 0
M  V30 16110 C 1547.8 -5.0004 1.42324 0
M  V30 16111 C 1545.48 -4.96935 0.732205 0
M  V30 16112 C 1547.48 -5.88492 2.4486 0
M  V30 16113 C 1545.16 -5.85181 1.76087 0
M  V30 16114 C 1546.16 -6.30855 2.61747 0
M  V30 16115 O 1545.85 -7.17353 3.6285 0
M  V30 16116 H 1545.58 -0.675681 -0.0207555 0
M  V30 16117 H 1548.13 -1.96806 0.58792 0
M  V30 16118 H 1546.36 -3.61951 -1.36119 0
M  V30 16119 H 1548.05 -3.91656 -1.06586 0
M  V30 16120 H 1548.82 -4.67261 1.29968 0
M  V30 16121 H 1544.7 -4.60939 0.0751016 0
M  V30 16122 H 1548.24 -6.24063 3.11754 0
M  V30 16123 H 1544.14 -6.17373 1.8847 0
M  V30 16124 H 1544.91 -7.35481 3.59179 0
M  V30 16125 N 1547.57 -0.146903 -1.56914 0
M  V30 16126 C 1548.5 0.823803 -2.13883 0
M  V30 16127 C 1549.52 1.21081 -1.08826 0
M  V30 16128 O 1550.7 1.15491 -1.36103 0
M  V30 16129 C 1547.8 2.11686 -2.64655 0
M  V30 16130 C 1546.98 1.89723 -3.94112 0
M  V30 16131 C 1546.04 3.03016 -4.30195 0
M  V30 16132 O 1545.06 2.74711 -4.9852 0
M  V30 16133 N 1546.26 4.30187 -3.89768 0
M  V30 16134 H 1549.03 0.336904 -2.978 0
M  V30 16135 H 1546.59 0.0366704 -1.61858 0
M  V30 16136 H 1548.58 2.86525 -2.85807 0
M  V30 16137 H 1547.15 2.51639 -1.85464 0
M  V30 16138 H 1546.37 0.989208 -3.81587 0
M  V30 16139 H 1547.66 1.72387 -4.78707 0
M  V30 16140 H 1547.06 4.56051 -3.34715 0
M  V30 16141 H 1545.62 5.01807 -4.15972 0
M  V30 16142 N 1549.05 1.57088 0.126881 0
M  V30 16143 C 1550 2.00736 1.17506 0
M  V30 16144 C 1550.99 0.902986 1.43327 0
M  V30 16145 O 1552.2 1.08819 1.43382 0
M  V30 16146 H 1548.57 0.639285 0.396003 0
M  V30 16147 H 1550.54 2.88015 0.780373 0
M  V30 16148 C 1549.29 2.42096 2.49569 0
M  V30 16149 H 1548.61 3.26639 2.30536 0
M  V30 16150 H 1550.05 2.76442 3.2149 0
M  V30 16151 C 1548.51 1.28148 3.11576 0
M  V30 16152 O 1549.04 0.593145 3.97297 0
M  V30 16153 N 1547.25 1.04055 2.71332 0
M  V30 16154 H 1546.8 1.60208 2.0172 0
M  V30 16155 H 1546.75 0.280075 3.1315 0
M  V30 16156 N 1550.53 -0.396836 1.52522 0
M  V30 16157 C 1551.49 -1.46695 1.76106 0
M  V30 16158 C 1552.49 -1.47902 0.631005 0
M  V30 16159 O 1553.68 -1.4921 0.898995 0
M  V30 16160 C 1550.81 -2.86033 1.85467 0
M  V30 16161 H 1552 -1.27071 2.71649 0
M  V30 16162 H 1549.56 -0.628096 1.43125 0
M  V30 16163 H 1550.29 -3.11012 0.918816 0
M  V30 16164 H 1550.08 -2.86559 2.67631 0
M  V30 16165 H 1551.57 -3.63587 2.05412 0
M  V30 16166 N 1552.01 -1.43353 -0.654814 0
M  V30 16167 C 1553.28 -1.35363 -1.41195 0
M  V30 16168 C 1553.66 -0.000661523 -2.111 0
M  V30 16169 O 1553.01 1.01583 -2.04678 0
M  V30 16170 C 1553.22 -2.53572 -2.39796 0
M  V30 16171 C 1554.57 -2.96587 -3.03844 0
M  V30 16172 O 1555.59 -2.53607 -2.50124 0
M  V30 16173 O 1554.45 -3.71039 -4.01239 0
M  V30 16174 H 1551.55 -0.534861 -0.630756 0
M  V30 16175 H 1554.09 -1.55399 -0.681857 0
M  V30 16176 H 1552.86 -3.43682 -1.87078 0
M  V30 16177 H 1552.49 -2.35628 -3.20258 0
M  V30 16178 N 1553.48 0.89303 -1.29857 0
M  V30 16179 C 1554.71 1.6827 -1.21243 0
M  V30 16180 C 1555.13 1.86778 0.222621 0
M  V30 16181 O 1554.49 1.39291 1.1605 0
M  V30 16182 C 1554.54 3.041 -1.93792 0
M  V30 16183 O 1553.64 3.92696 -1.25951 0
M  V30 16184 H 1552.98 0.514479 -0.419771 0
M  V30 16185 H 1555.51 1.11513 -1.7154 0
M  V30 16186 H 1555.52 3.54198 -2.02504 0
M  V30 16187 H 1554.2 2.89948 -2.98166 0
M  V30 16188 H 1552.78 3.51132 -1.25541 0
M  V30 16189 N 1554.96 1.12442 1.10429 0
M  V30 16190 C 1556.19 0.901291 1.85904 0
M  V30 16191 C 1556.6 -0.552928 1.8094 0
M  V30 16192 O 1555.94 -1.39404 1.19633 0
M  V30 16193 C 1556 1.29808 3.35246 0
M  V30 16194 C 1555.67 2.76361 3.63969 0
M  V30 16195 C 1556.67 3.74553 3.60564 0
M  V30 16196 C 1554.35 3.13268 3.92643 0
M  V30 16197 C 1556.34 5.07667 3.85426 0
M  V30 16198 C 1554.03 4.46564 4.17162 0
M  V30 16199 C 1555.03 5.43572 4.13544 0
M  V30 16200 O 1554.72 6.74465 4.37439 0
M  V30 16201 H 1554.45 0.321969 0.5944 0
M  V30 16202 H 1557 1.49816 1.40514 0
M  V30 16203 H 1555.23 0.644416 3.81293 0
M  V30 16204 H 1556.92 1.04908 3.92108 0
M  V30 16205 H 1557.69 3.47385 3.3845 0
M  V30 16206 H 1553.57 2.3837 3.94589 0
M  V30 16207 H 1557.11 5.83375 3.82518 0
M  V30 16208 H 1553.01 4.73461 4.38754 0
M  V30 16209 H 1553.78 6.80412 4.54953 0
M  V30 16210 N 1556.44 -1.28223 0.91633 0
M  V30 16211 C 1557.39 -2.24848 0.377829 0
M  V30 16212 C 1558.37 -1.52553 -0.511507 0
M  V30 16213 O 1559.57 -1.73489 -0.350808 0
M  V30 16214 C 1556.69 -3.41206 -0.378635 0
M  V30 16215 C 1555.78 -4.20818 0.526567 0
M  V30 16216 N 1556.17 -4.78429 1.64132 0
M  V30 16217 C 1554.47 -4.44796 0.327436 0
M  V30 16218 C 1555.17 -5.38355 2.20339 0
M  V30 16219 N 1554.15 -5.22657 1.49434 0
M  V30 16220 H 1557.95 -2.66963 1.22914 0
M  V30 16221 H 1555.46 -1.43024 0.769282 0
M  V30 16222 H 1557.46 -4.09514 -0.781283 0
M  V30 16223 H 1556.12 -3.00623 -1.22701 0
M  V30 16224 H 1557.13 -4.76718 2.02387 0
M  V30 16225 H 1553.81 -4.14717 -0.481214 0
M  V30 16226 H 1555.2 -5.93948 3.14126 0
M  V30 16227 N 1557.92 -0.68059 -1.42147 0
M  V30 16228 C 1558.87 0.0170117 -2.27994 0
M  V30 16229 C 1559.85 0.767809 -1.41398 0
M  V30 16230 O 1561.04 0.645767 -1.64799 0
M  V30 16231 C 1558.17 0.963439 -3.29504 0
M  V30 16232 C 1557.26 0.20968 -4.23581 0
M  V30 16233 N 1557.65 -0.788543 -4.99615 0
M  V30 16234 C 1555.95 0.447304 -4.43751 0
M  V30 16235 C 1556.65 -1.23842 -5.68364 0
M  V30 16236 N 1555.62 -0.567238 -5.40632 0
M  V30 16237 H 1559.43 -0.748567 -2.84207 0
M  V30 16238 H 1556.94 -0.510145 -1.54179 0
M  V30 16239 H 1558.94 1.47823 -3.89813 0
M  V30 16240 H 1557.6 1.72878 -2.74851 0
M  V30 16241 H 1558.61 -1.16828 -5.04551 0
M  V30 16242 H 1555.29 1.1917 -4.00131 0
M  V30 16243 H 1556.68 -2.06593 -6.39351 0
M  V30 16244 N 1559.4 1.51781 -0.424309 0
M  V30 16245 C 1560.35 2.24259 0.411339 0
M  V30 16246 C 1561.33 1.25976 1.00094 0
M  V30 16247 O 1562.52 1.51136 0.921238 0
M  V30 16248 C 1559.65 3.07858 1.51917 0
M  V30 16249 C 1558.74 4.13561 0.939599 0
M  V30 16250 N 1559.13 5.05723 0.08803 0
M  V30 16251 C 1557.43 4.29314 1.20855 0
M  V30 16252 C 1558.13 5.81221 -0.236076 0
M  V30 16253 N 1557.1 5.42291 0.376983 0
M  V30 16254 H 1560.9 2.92874 -0.2454 0
M  V30 16255 H 1558.42 1.60682 -0.235612 0
M  V30 16256 H 1560.42 3.58347 2.13056 0
M  V30 16257 H 1559.08 2.40784 2.17837 0
M  V30 16258 H 1560.09 5.17156 -0.277436 0
M  V30 16259 H 1556.76 3.73469 1.86621 0
M  V30 16260 H 1558.15 6.65457 -0.928241 0
M  V30 16261 N 1560.87 0.155222 1.56834 0
M  V30 16262 C 1562.1 -0.500542 2.00754 0
M  V30 16263 C 1562.52 -1.57878 1.03538 0
M  V30 16264 O 1561.87 -1.82469 0.0336651 0
M  V30 16265 C 1561.92 -1.09366 3.4456 0
M  V30 16266 O 1561.65 -0.0584788 4.38061 0
M  V30 16267 C 1563.15 -1.82923 4.038 0
M  V30 16268 H 1560.37 -0.129589 0.658368 0
M  V30 16269 H 1562.91 0.252223 2.02939 0
M  V30 16270 H 1561.07 -1.797 3.43201 0
M  V30 16271 H 1561.48 -0.494125 5.22167 0
M  V30 16272 H 1562.95 -2.19703 5.06394 0
M  V30 16273 H 1563.43 -2.71823 3.44976 0
M  V30 16274 H 1564.04 -1.17268 4.08813 0
M  V30 16275 N 1562.35 -1.57153 -0.118549 0
M  V30 16276 C 1563.58 -1.89434 -0.844355 0
M  V30 16277 C 1564 -0.747203 -1.72622 0
M  V30 16278 O 1563.36 0.302252 -1.78763 0
M  V30 16279 C 1563.41 -3.20466 -1.65331 0
M  V30 16280 O 1562.51 -3.06403 -2.76027 0
M  V30 16281 H 1561.85 -0.621601 -0.23347 0
M  V30 16282 H 1564.38 -2.04351 -0.100811 0
M  V30 16283 H 1564.39 -3.53197 -2.04245 0
M  V30 16284 H 1563.07 -4.03551 -1.00594 0
M  V30 16285 H 1561.64 -2.85139 -2.40312 0
M  V30 16286 N 1563.83 0.388742 -1.5273 0
M  V30 16287 C 1565.24 0.966667 -1.59726 0
M  V30 16288 C 1565.59 1.90963 -0.450272 0
M  V30 16289 O 1564.72 2.12153 0.426611 0
M  V30 16290 C 1565.31 1.75998 -2.895 0
M  V30 16291 C 1563.87 2.28761 -2.98907 0
M  V30 16292 C 1563.02 1.09322 -2.54841 0
M  V30 16293 H 1565.97 0.16828 -1.57805 0
M  V30 16294 H 1565.99 2.61924 -2.76 0
M  V30 16295 H 1565.5 1.07342 -3.7296 0
M  V30 16296 H 1563.6 3.00728 -2.19985 0
M  V30 16297 H 1563.72 2.58229 -4.03552 0
M  V30 16298 H 1562.08 1.45332 -2.09167 0
M  V30 16299 H 1562.86 0.421999 -3.40696 0
M  V30 16300 N 1565.31 1.43698 0.647203 0
M  V30 16301 C 1566.24 1.45295 1.77262 0
M  V30 16302 C 1567.25 0.34831 1.5903 0
M  V30 16303 O 1568.44 0.613106 1.6764 0
M  V30 16304 C 1565.54 1.25584 3.14773 0
M  V30 16305 C 1564.71 2.48998 3.59609 0
M  V30 16306 C 1563.77 2.24423 4.75942 0
M  V30 16307 O 1562.8 2.97813 4.85073 0
M  V30 16308 N 1564 1.26465 5.66557 0
M  V30 16309 H 1566.77 2.42311 1.76368 0
M  V30 16310 H 1564.33 1.38931 0.831247 0
M  V30 16311 H 1566.32 1.07016 3.90294 0
M  V30 16312 H 1564.89 0.369927 3.10403 0
M  V30 16313 H 1564.11 2.82951 2.74467 0
M  V30 16314 H 1565.4 3.31119 3.86313 0
M  V30 16315 H 1564.8 0.658206 5.61858 0
M  V30 16316 H 1563.35 1.13879 6.41775 0
M  V30 16317 N 1566.79 -0.886131 1.30328 0
M  V30 16318 C 1567.74 -1.979 1.13224 0
M  V30 16319 C 1568.72 -1.60829 0.0477368 0
M  V30 16320 O 1569.91 -1.74914 0.270932 0
M  V30 16321 C 1567.04 -3.33241 0.824943 0
M  V30 16322 C 1566.13 -3.76629 1.94965 0
M  V30 16323 N 1566.52 -3.92125 3.19486 0
M  V30 16324 C 1564.82 -4.06015 1.84575 0
M  V30 16325 C 1565.52 -4.2891 3.92951 0
M  V30 16326 N 1564.49 -4.38707 3.20993 0
M  V30 16327 H 1568.3 -2.07969 2.07668 0
M  V30 16328 H 1565.81 -1.07587 1.21651 0
M  V30 16329 H 1567.81 -4.1126 0.683423 0
M  V30 16330 H 1566.47 -3.24509 -0.111438 0
M  V30 16331 H 1567.48 -3.77288 3.54788 0
M  V30 16332 H 1564.15 -4.05763 0.982969 0
M  V30 16333 H 1565.54 -4.48632 5.00179 0
M  V30 16334 N 1568.26 -1.13026 -1.09832 0
M  V30 16335 C 1569.19 -0.826338 -2.18389 0
M  V30 16336 C 1570.18 0.212529 -1.68767 0
M  V30 16337 O 1571.36 0.072363 -1.94065 0
M  V30 16338 C 1568.49 -0.286991 -3.46112 0
M  V30 16339 C 1567.44 -1.25963 -4.09044 0
M  V30 16340 C 1566.77 -0.580231 -5.31542 0
M  V30 16341 C 1568.07 -2.61661 -4.5203 0
M  V30 16342 H 1569.76 -1.73408 -2.4407 0
M  V30 16343 H 1567.31 -0.835201 -1.17305 0
M  V30 16344 H 1569.26 -0.062067 -4.21354 0
M  V30 16345 H 1567.99 0.656121 -3.19942 0
M  V30 16346 H 1566.65 -1.47047 -3.35816 0
M  V30 16347 H 1566.29 0.368222 -5.0165 0
M  V30 16348 H 1565.99 -1.2291 -5.74601 0
M  V30 16349 H 1567.52 -0.36449 -6.09511 0
M  V30 16350 H 1568.93 -2.44569 -5.18516 0
M  V30 16351 H 1567.33 -3.22685 -5.05959 0
M  V30 16352 H 1568.4 -3.19637 -3.64637 0
M  V30 16353 N 1569.74 1.27735 -0.923117 0
M  V30 16354 C 1570.67 2.29395 -0.435907 0
M  V30 16355 C 1571.65 1.62542 0.501403 0
M  V30 16356 O 1572.84 1.89884 0.407135 0
M  V30 16357 C 1569.97 3.45856 0.316348 0
M  V30 16358 C 1568.92 4.24672 -0.532697 0
M  V30 16359 C 1568.25 5.33563 0.348454 0
M  V30 16360 C 1569.55 4.90494 -1.79481 0
M  V30 16361 H 1571.24 2.70398 -1.28551 0
M  V30 16362 H 1568.79 1.29989 -0.619581 0
M  V30 16363 H 1570.74 4.1607 0.668098 0
M  V30 16364 H 1569.47 3.03758 1.19994 0
M  V30 16365 H 1568.12 3.56198 -0.867093 0
M  V30 16366 H 1567.77 4.87708 1.23086 0
M  V30 16367 H 1567.47 5.87202 -0.216104 0
M  V30 16368 H 1569 6.06622 0.695878 0
M  V30 16369 H 1570.41 5.53019 -1.5114 0
M  V30 16370 H 1568.81 5.5417 -2.30251 0
M  V30 16371 H 1569.88 4.14454 -2.51707 0
M  V30 16372 N 1571.22 0.688118 1.41784 0
M  V30 16373 C 1572.15 -0.02099 2.2919 0
M  V30 16374 C 1573.17 -0.752005 1.44391 0
M  V30 16375 O 1574.35 -0.603947 1.67972 0
M  V30 16376 C 1571.45 -1.0537 3.22103 0
M  V30 16377 C 1570.63 -0.393817 4.35624 0
M  V30 16378 C 1569.69 -1.32812 5.09163 0
M  V30 16379 O 1568.71 -0.823341 5.63214 0
M  V30 16380 N 1569.91 -2.66083 5.15927 0
M  V30 16381 H 1572.68 0.729389 2.90689 0
M  V30 16382 H 1570.24 0.533564 1.52855 0
M  V30 16383 H 1572.23 -1.6803 3.68169 0
M  V30 16384 H 1570.8 -1.70568 2.61964 0
M  V30 16385 H 1570.02 0.41253 3.92035 0
M  V30 16386 H 1571.31 0.065338 5.08758 0
M  V30 16387 H 1570.71 -3.09619 4.73448 0
M  V30 16388 H 1569.27 -3.23956 5.65593 0
M  V30 16389 N 1572.7 -1.51554 0.432352 0
M  V30 16390 C 1573.95 -2.01232 -0.137255 0
M  V30 16391 C 1574.26 -1.32135 -1.44221 0
M  V30 16392 O 1575.47 -1.72756 -2.09446 0
M  V30 16393 C 1573.92 -3.58688 -0.295152 0
M  V30 16394 C 1573.53 -4.36718 0.999072 0
M  V30 16395 C 1575.27 -4.16528 -0.818798 0
M  V30 16396 C 1573.18 -5.85867 0.80709 0
M  V30 16397 H 1572.11 -0.751986 -0.0550696 0
M  V30 16398 H 1574.76 -1.74703 0.561352 0
M  V30 16399 H 1573.14 -3.81643 -1.05664 0
M  V30 16400 H 1574.32 -4.25512 1.76851 0
M  V30 16401 H 1572.63 -3.90306 1.45087 0
M  V30 16402 H 1575.23 -5.25664 -0.978841 0
M  V30 16403 H 1575.57 -3.75379 -1.79989 0
M  V30 16404 H 1576.11 -3.97632 -0.11575 0
M  V30 16405 H 1572.85 -6.31419 1.76041 0
M  V30 16406 H 1572.37 -5.9975 0.0773617 0
M  V30 16407 H 1574.04 -6.45375 0.458328 0
M  V30 16408 N 1574.18 -0.163538 -1.56749 0
M  V30 16409 C 1575.59 0.192717 -1.58432 0
M  V30 16410 C 1575.79 1.63438 -1.17856 0
M  V30 16411 O 1574.85 2.36425 -0.88654 0
M  V30 16412 C 1576.16 -0.0810427 -3.00591 0
M  V30 16413 C 1577.71 -0.0186378 -3.12994 0
M  V30 16414 C 1578.18 -0.265283 -4.57231 0
M  V30 16415 N 1579.68 -0.212787 -4.62711 0
M  V30 16416 C 1580.41 -0.37791 -5.72153 0
M  V30 16417 N 1579.91 -0.601663 -6.90182 0
M  V30 16418 N 1581.7 -0.314357 -5.6122 0
M  V30 16419 H 1573.85 -1.10467 -1.81413 0
M  V30 16420 H 1576.11 -0.438569 -0.840453 0
M  V30 16421 H 1575.82 -1.07944 -3.34725 0
M  V30 16422 H 1575.69 0.630888 -3.71887 0
M  V30 16423 H 1578.08 0.970324 -2.78691 0
M  V30 16424 H 1578.16 -0.763158 -2.44151 0
M  V30 16425 H 1577.81 -1.25142 -4.92242 0
M  V30 16426 H 1577.74 0.499756 -5.24223 0
M  V30 16427 H 1580.23 -0.0451754 -3.77873 0
M  V30 16428 H 1580.54 -0.717319 -7.69464 0
M  V30 16429 H 1578.88 -0.638184 -6.92064 0
M  V30 16430 H 1582.08 -0.140197 -4.6789 0
M  V30 16431 H 1582.25 -0.446472 -6.4646 0
M  V30 16432 N 1575.65 1.57214 0.110213 0
M  V30 16433 C 1576.62 2.00034 1.11888 0
M  V30 16434 C 1577.62 0.891697 1.33811 0
M  V30 16435 O 1578.81 1.15754 1.3018 0
M  V30 16436 C 1575.94 2.34806 2.47142 0
M  V30 16437 H 1577.13 2.90354 0.750647 0
M  V30 16438 H 1574.69 1.5222 0.35479 0
M  V30 16439 H 1575.42 1.47393 2.8887 0
M  V30 16440 H 1575.21 3.15671 2.32581 0
M  V30 16441 H 1576.7 2.68644 3.19719 0
M  V30 16442 N 1577.13 -0.380637 1.52934 0
M  V30 16443 C 1578.06 -1.48518 1.74571 0
M  V30 16444 C 1579.08 -1.50272 0.626263 0
M  V30 16445 O 1580.27 -1.54023 0.902167 0
M  V30 16446 C 1577.37 -2.87339 1.79693 0
M  V30 16447 C 1576.54 -3.09454 3.09123 0
M  V30 16448 C 1575.6 -4.28305 3.05682 0
M  V30 16449 O 1574.62 -4.24205 3.79524 0
M  V30 16450 N 1575.83 -5.34932 2.2545 0
M  V30 16451 H 1578.59 -1.30341 2.69873 0
M  V30 16452 H 1576.15 -0.57023 1.51526 0
M  V30 16453 H 1578.14 -3.64961 1.74887 0
M  V30 16454 H 1576.71 -2.98835 0.917414 0
M  V30 16455 H 1575.93 -2.19623 3.27352 0
M  V30 16456 H 1577.22 -3.21089 3.94689 0
M  V30 16457 H 1576.62 -5.41121 1.64939 0
M  V30 16458 H 1575.18 -6.11189 2.26476 0
M  V30 16459 N 1578.61 -1.44039 -0.639573 0
M  V30 16460 C 1579.52 -1.52728 -1.78077 0
M  V30 16461 C 1580.54 -0.413467 -1.69016 0
M  V30 16462 O 1581.71 -0.669592 -1.89943 0
M  V30 16463 C 1578.78 -1.46078 -3.14424 0
M  V30 16464 C 1577.84 -2.68242 -3.35179 0
M  V30 16465 C 1577.07 -2.61899 -4.65021 0
M  V30 16466 O 1577.29 -1.67431 -5.45273 0
M  V30 16467 O 1576.23 -3.52619 -4.87795 0
M  V30 16468 H 1580.05 -2.49122 -1.737 0
M  V30 16469 H 1577.64 -1.26191 -0.799755 0
M  V30 16470 H 1579.52 -1.44861 -3.95719 0
M  V30 16471 H 1578.2 -0.528236 -3.19361 0
M  V30 16472 H 1577.1 -2.75028 -2.53595 0
M  V30 16473 H 1578.44 -3.60514 -3.35098 0
M  V30 16474 N 1580.09 0.879207 -1.30796 0
M  V30 16475 C 1581.33 1.6456 -1.21242 0
M  V30 16476 C 1581.69 1.90642 0.227986 0
M  V30 16477 O 1582.89 2.65059 0.446875 0
M  V30 16478 C 1581.16 2.94576 -2.02386 0
M  V30 16479 S 1582.72 3.85508 -2.09592 0
M  V30 16480 H 1579.54 0.564732 -0.43197 0
M  V30 16481 H 1582.14 1.04314 -1.65345 0
M  V30 16482 H 1580.85 2.73322 -3.06142 0
M  V30 16483 H 1580.38 3.59852 -1.58966 0
M  V30 16484 H 1582.39 4.80777 -1.2275 0
M  V30 16485 N 1581.57 1.13606 1.09231 0
M  V30 16486 C 1582.81 0.900386 1.81717 0
M  V30 16487 C 1583.15 -0.571984 1.85586 0
M  V30 16488 O 1582.42 -1.42336 1.32554 0
M  V30 16489 C 1582.7 1.49143 3.27763 0
M  V30 16490 C 1582.56 3.03306 3.32153 0
M  V30 16491 C 1583.88 1.16129 4.24502 0
M  V30 16492 H 1581 0.328531 0.659724 0
M  V30 16493 H 1583.64 1.40467 1.27941 0
M  V30 16494 H 1581.79 1.06256 3.73687 0
M  V30 16495 H 1583.46 3.54963 2.94617 0
M  V30 16496 H 1581.7 3.38192 2.71677 0
M  V30 16497 H 1582.37 3.39761 4.35047 0
M  V30 16498 H 1584.85 1.53193 3.86874 0
M  V30 16499 H 1583.73 1.60129 5.25024 0
M  V30 16500 H 1583.99 0.0752973 4.42036 0
M  V30 16501 N 1583.05 -1.27244 0.929878 0
M  V30 16502 C 1584.27 -1.98912 0.587277 0
M  V30 16503 C 1584.7 -1.68888 -0.828168 0
M  V30 16504 O 1584.05 -0.930394 -1.55606 0
M  V30 16505 C 1584.1 -3.51097 0.822399 0
M  V30 16506 O 1583.21 -4.12251 -0.110968 0
M  V30 16507 H 1582.55 -0.624404 0.225867 0
M  V30 16508 H 1585.08 -1.61997 1.24973 0
M  V30 16509 H 1585.09 -4.01255 0.738824 0
M  V30 16510 H 1583.76 -3.72282 1.85416 0
M  V30 16511 H 1582.34 -3.72893 0.0227053 0
M  V30 16512 N 1584.52 -0.695628 -1.41417 0
M  V30 16513 C 1585.46 0.00883515 -2.29198 0
M  V30 16514 C 1586.47 0.744337 -1.44788 0
M  V30 16515 O 1587.66 0.59503 -1.6829 0
M  V30 16516 C 1584.76 1.0366 -3.22657 0
M  V30 16517 C 1583.93 0.37071 -4.35826 0
M  V30 16518 C 1582.99 1.3011 -5.09861 0
M  V30 16519 O 1582.02 0.793461 -5.63642 0
M  V30 16520 N 1583.22 2.63343 -5.1733 0
M  V30 16521 H 1585.98 -0.744795 -2.90298 0
M  V30 16522 H 1583.54 -0.541663 -1.5257 0
M  V30 16523 H 1585.54 1.66075 -3.69054 0
M  V30 16524 H 1584.11 1.69177 -2.62865 0
M  V30 16525 H 1583.33 -0.433315 -3.91811 0
M  V30 16526 H 1584.61 -0.0923178 -5.08716 0
M  V30 16527 H 1584.01 3.07103 -4.75083 0
M  V30 16528 H 1582.57 3.20952 -5.67303 0
M  V30 16529 N 1586 1.51322 -0.440383 0
M  V30 16530 C 1586.96 2.26388 0.357911 0
M  V30 16531 C 1587.96 1.2995 0.947083 0
M  V30 16532 O 1589.15 1.53637 0.821057 0
M  V30 16533 C 1586.29 3.05797 1.50669 0
M  V30 16534 H 1587.48 2.98396 -0.300002 0
M  V30 16535 H 1585.03 1.55096 -0.193628 0
M  V30 16536 H 1585.77 2.38213 2.20057 0
M  V30 16537 H 1585.55 3.76634 1.09037 0
M  V30 16538 H 1587.04 3.6265 2.07062 0
M  V30 16539 N 1587.48 0.171848 1.5666 0
M  V30 16540 C 1588.7 -0.482396 2.01712 0
M  V30 16541 C 1589.13 -1.5598 1.05128 0
M  V30 16542 O 1588.49 -1.81274 0.0309178 0
M  V30 16543 C 1588.54 -1.03716 3.45363 0
M  V30 16544 O 1587.64 -2.15114 3.51852 0
M  V30 16545 H 1586.98 -0.115439 0.653888 0
M  V30 16546 H 1589.51 0.275895 2.02731 0
M  V30 16547 H 1589.52 -1.35964 3.84679 0
M  V30 16548 H 1588.2 -0.24832 4.15158 0
M  V30 16549 H 1586.77 -1.83907 3.24396 0
M  V30 16550 N 1588.96 -1.5727 -0.101874 0
M  V30 16551 C 1590.18 -1.90319 -0.824215 0
M  V30 16552 C 1590.61 -0.765469 -1.7182 0
M  V30 16553 O 1589.97 0.283275 -1.79073 0
M  V30 16554 C 1590.01 -3.22201 -1.61922 0
M  V30 16555 O 1589.12 -3.09313 -2.72762 0
M  V30 16556 H 1588.46 -0.624042 -0.226864 0
M  V30 16557 H 1590.99 -2.04447 -0.0791314 0
M  V30 16558 H 1591 -3.55343 -2.00487 0
M  V30 16559 H 1589.67 -4.04596 -0.963078 0
M  V30 16560 H 1588.25 -2.87672 -2.37274 0
M  V30 16561 N 1590.44 0.372521 -1.53134 0
M  V30 16562 C 1591.85 0.949671 -1.60742 0
M  V30 16563 C 1592.2 1.90475 -0.470501 0
M  V30 16564 O 1591.32 2.12594 0.404085 0
M  V30 16565 C 1591.92 1.72918 -2.9135 0
M  V30 16566 C 1590.48 2.25577 -3.01317 0
M  V30 16567 C 1589.62 1.06612 -2.55986 0
M  V30 16568 H 1592.57 0.151533 -1.57975 0
M  V30 16569 H 1592.6 2.58982 -2.78763 0
M  V30 16570 H 1592.11 1.0338 -3.74078 0
M  V30 16571 H 1590.21 2.98378 -2.23162 0
M  V30 16572 H 1590.32 2.53935 -4.06268 0
M  V30 16573 H 1588.69 1.43105 -2.10697 0
M  V30 16574 H 1589.47 0.38584 -3.41125 0
M  V30 16575 N 1591.91 1.44376 0.631925 0
M  V30 16576 C 1593.14 1.50598 1.41873 0
M  V30 16577 C 1593.56 0.130589 1.88348 0
M  V30 16578 O 1592.91 -0.86336 1.60787 0
M  V30 16579 C 1592.96 2.47 2.63957 0
M  V30 16580 O 1592.69 3.79192 2.1942 0
M  V30 16581 C 1594.19 2.62678 3.57092 0
M  V30 16582 H 1591.41 0.510792 0.435124 0
M  V30 16583 H 1593.95 1.89332 0.772893 0
M  V30 16584 H 1592.11 2.11404 3.24634 0
M  V30 16585 H 1592.52 4.31231 2.98563 0
M  V30 16586 H 1593.99 3.34161 4.39364 0
M  V30 16587 H 1594.47 1.67881 4.05848 0
M  V30 16588 H 1595.08 2.99172 3.02285 0
M  V30 16589 N 1593.39 -0.872258 1.31261 0
M  V30 16590 C 1594.8 -1.44077 1.18738 0
M  V30 16591 C 1595.15 -1.95105 -0.207037 0
M  V30 16592 O 1594.28 -1.86083 -1.10464 0
M  V30 16593 C 1594.87 -2.61884 2.14947 0
M  V30 16594 C 1593.43 -3.14787 2.06364 0
M  V30 16595 C 1592.58 -1.87495 2.04306 0
M  V30 16596 H 1595.53 -0.681011 1.43345 0
M  V30 16597 H 1595.55 -3.38501 1.73773 0
M  V30 16598 H 1595.06 -2.24715 3.16425 0
M  V30 16599 H 1593.16 -3.56582 1.08073 0
M  V30 16600 H 1593.28 -3.77225 2.95361 0
M  V30 16601 H 1591.64 -2.06361 1.49288 0
M  V30 16602 H 1592.42 -1.52566 3.07536 0
M  V30 16603 N 1594.87 -1.14184 -1.08627 0
M  V30 16604 C 1596.28 -0.920108 -1.62453 0
M  V30 16605 C 1596.63 0.541577 -1.88577 0
M  V30 16606 O 1595.76 1.41002 -1.64157 0
M  V30 16607 C 1596.35 -1.6638 -2.95132 0
M  V30 16608 C 1594.91 -1.48771 -3.45752 0
M  V30 16609 C 1594.06 -1.68774 -2.20024 0
M  V30 16610 H 1597.01 -1.29396 -0.91882 0
M  V30 16611 H 1597.03 -1.12568 -3.63468 0
M  V30 16612 H 1596.54 -2.72759 -2.76087 0
M  V30 16613 H 1594.64 -0.44729 -3.69905 0
M  V30 16614 H 1594.76 -2.25619 -4.2265 0
M  V30 16615 H 1593.12 -1.11321 -2.29084 0
M  V30 16616 H 1593.9 -2.76491 -2.03489 0
M  V30 16617 N 1596.35 1.26749 -0.936613 0
M  V30 16618 C 1597.3 2.24218 -0.413552 0
M  V30 16619 C 1598.28 1.53347 0.487172 0
M  V30 16620 O 1599.47 1.74025 0.323163 0
M  V30 16621 C 1596.6 3.41765 0.324304 0
M  V30 16622 C 1595.69 4.19927 -0.593449 0
M  V30 16623 N 1596.08 4.75757 -1.71722 0
M  V30 16624 C 1594.38 4.44219 -0.398158 0
M  V30 16625 C 1595.08 5.34781 -2.28876 0
M  V30 16626 N 1594.06 5.20214 -1.5773 0
M  V30 16627 H 1597.86 2.64974 -1.27146 0
M  V30 16628 H 1595.37 1.41782 -0.791938 0
M  V30 16629 H 1597.37 4.10705 0.716034 0
M  V30 16630 H 1596.03 3.02538 1.17903 0
M  V30 16631 H 1597.04 4.73438 -2.09945 0
M  V30 16632 H 1593.72 4.15431 0.415175 0
M  V30 16633 H 1595.11 5.88875 -3.23536 0
M  V30 16634 N 1597.83 0.703118 1.41046 0
M  V30 16635 C 1599.07 0.236818 2.00708 0
M  V30 16636 C 1599.4 -1.17008 1.55994 0
M  V30 16637 O 1598.67 -1.79094 0.793871 0
M  V30 16638 H 1597.25 0.0845643 0.742198 0
M  V30 16639 H 1599.91 0.905964 1.72564 0
M  V30 16640 H 1599 0.260141 3.11014 0
M  V30 16641 N 1599.3 -1.51086 0.448402 0
M  V30 16642 C 1600.53 -2.06293 -0.112531 0
M  V30 16643 C 1600.94 -1.31478 -1.36052 0
M  V30 16644 O 1600.29 -0.370897 -1.79917 0
M  V30 16645 C 1600.35 -3.56156 -0.489178 0
M  V30 16646 C 1600.01 -4.52302 0.653568 0
M  V30 16647 C 1601.01 -4.96909 1.52898 0
M  V30 16648 C 1598.69 -4.9527 0.837448 0
M  V30 16649 C 1600.69 -5.83165 2.57288 0
M  V30 16650 C 1598.37 -5.81314 1.8846 0
M  V30 16651 C 1599.37 -6.25161 2.75069 0
M  V30 16652 O 1599.06 -7.09495 3.77985 0
M  V30 16653 H 1598.79 -0.67597 -0.00641865 0
M  V30 16654 H 1601.35 -1.95515 0.629533 0
M  V30 16655 H 1599.58 -3.64757 -1.28411 0
M  V30 16656 H 1601.27 -3.93828 -0.982548 0
M  V30 16657 H 1602.03 -4.64399 1.3985 0
M  V30 16658 H 1597.91 -4.60676 0.172857 0
M  V30 16659 H 1601.45 -6.1731 3.24921 0
M  V30 16660 H 1597.35 -6.13236 2.01523 0
M  V30 16661 H 1598.12 -7.27697 3.74699 0
M  V30 16662 N 1600.78 -0.180154 -1.56567 0
M  V30 16663 C 1601.75 0.732809 -2.17169 0
M  V30 16664 C 1602.75 1.15176 -1.1221 0
M  V30 16665 O 1603.94 1.06728 -1.37677 0
M  V30 16666 C 1601.07 1.99857 -2.7617 0
M  V30 16667 H 1602.26 0.205088 -2.99198 0
M  V30 16668 H 1599.81 0.0694351 -1.56146 0
M  V30 16669 H 1600.55 2.56917 -1.97899 0
M  V30 16670 H 1600.33 1.70705 -3.5299 0
M  V30 16671 H 1601.82 2.64992 -3.22752 0
M  V30 16672 N 1602.26 1.57322 0.0935319 0
M  V30 16673 C 1603.21 1.98608 1.11977 0
M  V30 16674 C 1604.19 0.864762 1.35686 0
M  V30 16675 O 1605.39 1.1286 1.36351 0
M  V30 16676 C 1602.52 2.41537 2.43957 0
M  V30 16677 C 1601.6 3.60357 2.23615 0
M  V30 16678 N 1601.99 4.75242 1.73144 0
M  V30 16679 C 1600.29 3.66485 2.54175 0
M  V30 16680 C 1600.99 5.5718 1.67109 0
M  V30 16681 N 1599.97 5.00396 2.1238 0
M  V30 16682 H 1603.77 2.84881 0.722513 0
M  V30 16683 H 1601.28 1.59587 0.300936 0
M  V30 16684 H 1603.28 2.69343 3.18213 0
M  V30 16685 H 1601.94 1.56641 2.84418 0
M  V30 16686 H 1602.95 4.97961 1.42319 0
M  V30 16687 H 1599.63 2.92255 2.9815 0
M  V30 16688 H 1601.02 6.59376 1.29125 0
M  V30 16689 N 1603.74 -0.364395 1.53329 0
M  V30 16690 C 1604.67 -1.46658 1.76137 0
M  V30 16691 C 1605.68 -1.496 0.642166 0
M  V30 16692 O 1606.87 -1.53058 0.918452 0
M  V30 16693 C 1603.97 -2.85417 1.8273 0
M  V30 16694 C 1603.15 -3.06158 3.12388 0
M  V30 16695 C 1602.2 -4.25038 3.10208 0
M  V30 16696 O 1601.23 -4.20156 3.84002 0
M  V30 16697 N 1602.43 -5.32511 2.31111 0
M  V30 16698 H 1605.2 -1.27471 2.7124 0
M  V30 16699 H 1602.76 -0.554127 1.52122 0
M  V30 16700 H 1604.75 -3.63086 1.78748 0
M  V30 16701 H 1603.32 -2.97845 0.949058 0
M  V30 16702 H 1602.54 -2.16139 3.29663 0
M  V30 16703 H 1603.83 -3.16885 3.98072 0
M  V30 16704 H 1603.23 -5.39341 1.70669 0
M  V30 16705 H 1601.78 -6.08752 2.32946 0
M  V30 16706 N 1605.22 -1.44709 -0.62426 0
M  V30 16707 C 1606.63 -1.42523 -1.20599 0
M  V30 16708 C 1606.98 -0.144129 -1.9567 0
M  V30 16709 O 1606.1 0.755175 -2.02796 0
M  V30 16710 C 1606.7 -2.58194 -2.19365 0
M  V30 16711 C 1605.26 -2.59181 -2.72951 0
M  V30 16712 C 1604.4 -2.34461 -1.48065 0
M  V30 16713 H 1607.36 -1.5319 -0.414532 0
M  V30 16714 H 1607.38 -2.3134 -3.02096 0
M  V30 16715 H 1606.89 -3.5142 -1.64699 0
M  V30 16716 H 1604.99 -1.69916 -3.31601 0
M  V30 16717 H 1605.1 -3.57884 -3.18521 0
M  V30 16718 H 1603.47 -1.83688 -1.76439 0
M  V30 16719 H 1604.25 -3.2981 -0.952918 0
M  V30 16720 N 1606.69 0.865285 -1.31722 0
M  V30 16721 C 1607.66 1.95449 -1.19718 0
M  V30 16722 C 1608.66 1.60329 -0.123025 0
M  V30 16723 O 1609.85 1.70168 -0.372643 0
M  V30 16724 C 1606.98 3.30421 -0.838718 0
M  V30 16725 H 1608.17 2.07522 -2.16506 0
M  V30 16726 H 1605.73 1.05416 -1.154 0
M  V30 16727 H 1606.46 3.24048 0.127797 0
M  V30 16728 H 1606.25 3.57286 -1.61522 0
M  V30 16729 H 1607.74 4.10274 -0.77876 0
M  V30 16730 N 1608.17 1.14759 1.0802 0
M  V30 16731 C 1609.1 0.860977 2.17047 0
M  V30 16732 C 1610.08 -0.185652 1.69084 0
M  V30 16733 O 1611.27 -0.0414797 1.94156 0
M  V30 16734 C 1608.4 0.342018 3.45612 0
M  V30 16735 C 1607.35 1.32455 4.06989 0
M  V30 16736 C 1606.68 0.664721 5.30552 0
M  V30 16737 C 1607.98 2.68819 4.4781 0
M  V30 16738 H 1609.67 1.77269 2.4128 0
M  V30 16739 H 1607.22 0.853757 1.15961 0
M  V30 16740 H 1609.17 0.129093 4.21202 0
M  V30 16741 H 1607.9 -0.605138 3.20945 0
M  V30 16742 H 1606.55 1.52371 3.33435 0
M  V30 16743 H 1606.2 -0.288367 5.02173 0
M  V30 16744 H 1605.9 1.32036 5.72573 0
M  V30 16745 H 1607.43 0.461412 6.08854 0
M  V30 16746 H 1608.84 2.52787 5.14559 0
M  V30 16747 H 1607.24 3.30694 5.00761 0
M  V30 16748 H 1608.31 3.25398 3.59506 0
M  V30 16749 N 1609.65 -1.26251 0.943322 0
M  V30 16750 C 1610.58 -2.24687 0.398877 0
M  V30 16751 C 1611.56 -1.54279 -0.513498 0
M  V30 16752 O 1612.75 -1.83039 -0.450458 0
M  V30 16753 C 1609.87 -3.36002 -0.426657 0
M  V30 16754 C 1608.92 -4.24382 0.424497 0
M  V30 16755 S 1609.75 -5.02537 1.84977 0
M  V30 16756 C 1610.91 -6.17328 1.03235 0
M  V30 16757 H 1611.14 -2.7052 1.23313 0
M  V30 16758 H 1608.67 -1.3515 0.746587 0
M  V30 16759 H 1610.63 -4.00579 -0.897053 0
M  V30 16760 H 1609.29 -2.88776 -1.23561 0
M  V30 16761 H 1608.49 -5.0357 -0.208116 0
M  V30 16762 H 1608.09 -3.64682 0.829661 0
M  V30 16763 H 1610.38 -6.76939 0.275635 0
M  V30 16764 H 1611.32 -6.84899 1.79776 0
M  V30 16765 H 1611.73 -5.61641 0.567466 0
M  V30 16766 N 1611.13 -0.710588 -1.40671 0
M  V30 16767 C 1612.08 -0.031353 -2.27978 0
M  V30 16768 C 1613.06 0.737643 -1.42995 0
M  V30 16769 O 1614.26 0.610666 -1.66132 0
M  V30 16770 C 1611.38 0.893329 -3.31473 0
M  V30 16771 C 1610.47 0.119785 -4.23931 0
M  V30 16772 N 1610.86 -0.894341 -4.9783 0
M  V30 16773 C 1609.16 0.353077 -4.446 0
M  V30 16774 C 1609.86 -1.3587 -5.6561 0
M  V30 16775 N 1608.84 -0.681786 -5.39308 0
M  V30 16776 H 1612.64 -0.808683 -2.82555 0
M  V30 16777 H 1610.15 -0.542734 -1.53063 0
M  V30 16778 H 1612.15 1.39521 -3.92861 0
M  V30 16779 H 1610.81 1.67009 -2.78457 0
M  V30 16780 H 1611.82 -1.27504 -5.01959 0
M  V30 16781 H 1608.5 1.10655 -4.02569 0
M  V30 16782 H 1609.89 -2.20108 -6.34825 0
M  V30 16783 N 1612.61 1.50847 -0.456408 0
M  V30 16784 C 1613.83 2.07139 0.104054 0
M  V30 16785 C 1614.26 1.31966 1.34039 0
M  V30 16786 O 1613.62 0.363038 1.77628 0
M  V30 16787 C 1613.66 3.5853 0.385794 0
M  V30 16788 O 1612.77 3.85351 1.46895 0
M  V30 16789 H 1612.11 0.663968 -0.00651246 0
M  V30 16790 H 1614.64 1.94226 -0.64323 0
M  V30 16791 H 1614.65 4.03097 0.630644 0
M  V30 16792 H 1613.32 4.12665 -0.51773 0
M  V30 16793 H 1611.9 3.52635 1.21256 0
M  V30 16794 N 1614.09 0.188454 1.56469 0
M  V30 16795 C 1615 -0.747176 2.22384 0
M  V30 16796 C 1616.01 -1.23985 1.22081 0
M  V30 16797 O 1617.19 -1.2884 1.54797 0
M  V30 16798 C 1614.25 -1.95228 2.86508 0
M  V30 16799 C 1613.31 -1.50482 4.02062 0
M  V30 16800 C 1612.55 -2.65248 4.63119 0
M  V30 16801 O 1612.77 -3.8256 4.23088 0
M  V30 16802 O 1611.7 -2.38341 5.527 0
M  V30 16803 H 1615.53 -0.215857 3.02932 0
M  V30 16804 H 1613.11 -0.0405356 1.49345 0
M  V30 16805 H 1615 -2.65673 3.27103 0
M  V30 16806 H 1613.67 -2.47233 2.08944 0
M  V30 16807 H 1612.58 -0.769365 3.66103 0
M  V30 16808 H 1613.91 -1.03151 4.8127 0
M  V30 16809 N 1615.56 -1.5737 -0.0851874 0
M  V30 16810 C 1616.79 -1.91183 -0.803983 0
M  V30 16811 C 1617.21 -0.78365 -1.70999 0
M  V30 16812 O 1616.57 0.264266 -1.79364 0
M  V30 16813 C 1616.62 -3.239 -1.58496 0
M  V30 16814 O 1615.72 -3.12189 -2.69466 0
M  V30 16815 H 1615.06 -0.626413 -0.220233 0
M  V30 16816 H 1617.59 -2.04519 -0.0574426 0
M  V30 16817 H 1617.6 -3.5745 -1.96707 0
M  V30 16818 H 1616.28 -4.05594 -0.920111 0
M  V30 16819 H 1614.86 -2.90173 -2.3421 0
M  V30 16820 N 1617.04 0.356258 -1.53521 0
M  V30 16821 C 1617.97 1.45965 -1.75413 0
M  V30 16822 C 1618.95 1.51015 -0.602774 0
M  V30 16823 O 1620.14 1.68925 -0.836459 0
M  V30 16824 C 1617.26 2.84276 -1.84132 0
M  V30 16825 C 1616.31 2.96909 -3.06182 0
M  V30 16826 S 1617.14 2.64695 -4.65507 0
M  V30 16827 C 1618.3 4.05138 -4.77089 0
M  V30 16828 H 1618.53 1.27176 -2.68726 0
M  V30 16829 H 1616.06 0.551163 -1.44227 0
M  V30 16830 H 1618.02 3.63965 -1.89842 0
M  V30 16831 H 1616.68 3.00369 -0.918542 0
M  V30 16832 H 1615.88 3.98226 -3.08921 0
M  V30 16833 H 1615.48 2.25154 -2.98633 0
M  V30 16834 H 1617.77 4.99502 -4.57717 0
M  V30 16835 H 1618.71 4.074 -5.79164 0
M  V30 16836 H 1619.12 3.92572 -4.05644 0
M  V30 16837 N 1618.52 1.45038 0.616577 0
M  V30 16838 C 1619.43 1.55542 1.75624 0
M  V30 16839 C 1620.45 0.440304 1.68337 0
M  V30 16840 O 1621.62 0.699725 1.88854 0
M  V30 16841 C 1618.69 1.51062 3.1206 0
M  V30 16842 C 1617.75 2.7354 3.30869 0
M  V30 16843 C 1616.98 2.69264 4.60796 0
M  V30 16844 O 1617.2 1.76085 5.42541 0
M  V30 16845 O 1616.14 3.60335 4.82123 0
M  V30 16846 H 1619.96 2.51854 1.69715 0
M  V30 16847 H 1617.55 1.27448 0.779578 0
M  V30 16848 H 1619.43 1.51138 3.93364 0
M  V30 16849 H 1618.11 0.578976 3.1848 0
M  V30 16850 H 1617.01 2.79027 2.49188 0
M  V30 16851 H 1618.35 3.65799 3.2932 0
M  V30 16852 N 1620 -0.858287 1.32179 0
M  V30 16853 C 1620.91 -1.99894 1.228 0
M  V30 16854 C 1621.92 -1.73417 0.142323 0
M  V30 16855 O 1623.1 -1.98114 0.362321 0
M  V30 16856 C 1620.16 -3.33495 0.947745 0
M  V30 16857 C 1619.23 -3.73217 2.12149 0
M  V30 16858 C 1618.46 -5.00443 1.85452 0
M  V30 16859 O 1618.68 -5.64828 0.79531 0
M  V30 16860 O 1617.62 -5.3721 2.71457 0
M  V30 16861 H 1621.44 -2.10742 2.18682 0
M  V30 16862 H 1619.03 -0.988385 1.12033 0
M  V30 16863 H 1620.91 -4.13585 0.807791 0
M  V30 16864 H 1619.58 -3.23694 0.019053 0
M  V30 16865 H 1618.49 -2.93718 2.3169 0
M  V30 16866 H 1619.82 -3.87659 3.03285 0
M  V30 16867 N 1621.48 -1.1533 -1.07409 0
M  V30 16868 C 1622.75 -0.838341 -1.76724 0
M  V30 16869 C 1623.13 0.666169 -2.00313 0
M  V30 16870 O 1622.48 1.61033 -1.62113 0
M  V30 16871 C 1622.69 -1.64846 -3.07615 0
M  V30 16872 C 1624.04 -1.85429 -3.8197 0
M  V30 16873 O 1625.06 -1.61617 -3.17424 0
M  V30 16874 O 1623.92 -2.25305 -4.97896 0
M  V30 16875 H 1621.02 -0.308242 -0.767408 0
M  V30 16876 H 1623.56 -1.25905 -1.1378 0
M  V30 16877 H 1622.33 -2.66995 -2.86058 0
M  V30 16878 H 1621.96 -1.22405 -3.78289 0
M  V30 16879 N 1622.95 1.25748 -0.950004 0
M  V30 16880 C 1624.19 1.95089 -0.609896 0
M  V30 16881 C 1624.56 1.72802 0.836865 0
M  V30 16882 O 1625.76 2.36023 1.28634 0
M  V30 16883 C 1624.03 3.44452 -0.953294 0
M  V30 16884 S 1625.59 4.32768 -0.725062 0
M  V30 16885 H 1622.41 0.674683 -0.224331 0
M  V30 16886 H 1625.01 1.52506 -1.2232 0
M  V30 16887 H 1623.71 3.58175 -2.00347 0
M  V30 16888 H 1623.24 3.92013 -0.330062 0
M  V30 16889 H 1625.26 4.94533 0.406435 0
M  V30 16890 N 1624.43 0.718038 1.40292 0
M  V30 16891 C 1625.66 0.266918 2.05675 0
M  V30 16892 C 1626.08 -1.08364 1.53749 0
M  V30 16893 O 1625.44 -1.6831 0.673912 0
M  V30 16894 C 1625.49 0.259606 3.59664 0
M  V30 16895 O 1624.59 -0.758372 4.05367 0
M  V30 16896 H 1623.93 0.124786 0.652169 0
M  V30 16897 H 1626.46 0.979207 1.79646 0
M  V30 16898 H 1626.47 0.098135 4.07882 0
M  V30 16899 H 1625.15 1.24517 3.96823 0
M  V30 16900 H 1623.72 -0.564425 3.68604 0
M  V30 16901 N 1625.91 -1.50602 0.464402 0
M  V30 16902 C 1627.15 -2.04194 -0.0917216 0
M  V30 16903 C 1627.51 -1.33921 -1.37584 0
M  V30 16904 O 1628.72 -1.78031 -2.01391 0
M  V30 16905 C 1626.99 -3.56316 -0.278093 0
M  V30 16906 S 1628.55 -4.31561 -0.793734 0
M  V30 16907 H 1625.36 -0.710743 -0.0191155 0
M  V30 16908 H 1627.97 -1.85071 0.63001 0
M  V30 16909 H 1626.67 -4.05019 0.662395 0
M  V30 16910 H 1626.2 -3.79782 -1.02613 0
M  V30 16911 H 1628.22 -4.51052 -2.06801 0
M  V30 16912 N 1627.39 -0.19675 -1.56367 0
M  V30 16913 C 1628.3 0.735372 -2.22777 0
M  V30 16914 C 1629.31 1.23336 -1.22737 0
M  V30 16915 O 1630.49 1.28017 -1.55479 0
M  V30 16916 C 1627.56 1.93706 -2.8754 0
M  V30 16917 C 1626.62 1.48348 -4.02854 0
M  V30 16918 C 1625.85 2.62788 -4.64519 0
M  V30 16919 O 1626.07 3.80311 -4.25111 0
M  V30 16920 O 1625.01 2.35406 -5.53956 0
M  V30 16921 H 1628.83 0.199788 -3.03042 0
M  V30 16922 H 1626.42 0.0326149 -1.49364 0
M  V30 16923 H 1628.3 2.63934 -3.28507 0
M  V30 16924 H 1626.97 2.46121 -2.10252 0
M  V30 16925 H 1625.88 0.749939 -3.66506 0
M  V30 16926 H 1627.21 1.00597 -4.8181 0
M  V30 16927 N 1628.87 1.57413 0.0768405 0
M  V30 16928 C 1630.11 1.86633 0.775414 0
M  V30 16929 C 1630.44 0.788041 1.78367 0
M  V30 16930 O 1629.71 -0.183835 1.95036 0
M  V30 16931 H 1628.29 0.688678 0.289365 0
M  V30 16932 H 1630.95 1.94825 0.0541285 0
M  V30 16933 H 1630.04 2.83977 1.29474 0
M  V30 16934 N 1630.34 -0.348112 1.53707 0
M  V30 16935 C 1631.31 -1.41018 1.80683 0
M  V30 16936 C 1632.31 -1.4582 0.67774 0
M  V30 16937 O 1633.5 -1.46275 0.94601 0
M  V30 16938 C 1630.63 -2.79988 1.94473 0
M  V30 16939 H 1631.82 -1.18365 2.75554 0
M  V30 16940 H 1629.38 -0.582244 1.4505 0
M  V30 16941 H 1630.11 -3.07931 1.0173 0
M  V30 16942 H 1629.9 -2.77899 2.76612 0
M  V30 16943 H 1631.39 -3.56868 2.16876 0
M  V30 16944 N 1631.82 -1.45363 -0.608876 0
M  V30 16945 C 1632.77 -1.53936 -1.71966 0
M  V30 16946 C 1633.74 -0.385352 -1.61568 0
M  V30 16947 O 1634.92 -0.598622 -1.81166 0
M  V30 16948 C 1632.06 -1.51079 -3.10272 0
M  V30 16949 C 1631.18 -2.77022 -3.31486 0
M  V30 16950 C 1630.31 -2.65846 -4.59891 0
M  V30 16951 C 1629.35 -3.86848 -4.74357 0
M  V30 16952 N 1628.49 -3.74214 -5.94061 0
M  V30 16953 H 1633.33 -2.4883 -1.63974 0
M  V30 16954 H 1630.87 -1.23472 -0.799565 0
M  V30 16955 H 1632.82 -1.47411 -3.90289 0
M  V30 16956 H 1631.45 -0.597374 -3.17224 0
M  V30 16957 H 1630.51 -2.90783 -2.45253 0
M  V30 16958 H 1631.82 -3.66776 -3.38049 0
M  V30 16959 H 1630.97 -2.60136 -5.48101 0
M  V30 16960 H 1629.71 -1.73689 -4.55723 0
M  V30 16961 H 1628.72 -3.92918 -3.84572 0
M  V30 16962 H 1629.94 -4.80069 -4.80324 0
M  V30 16963 H 1627.89 -2.84825 -5.9094 0
M  V30 16964 H 1627.8 -4.57601 -6.01779 0
M  V30 16965 H 1629.07 -3.72434 -6.84772 0
M  V30 16966 N 1633.3 0.851265 -1.32632 0
M  V30 16967 C 1634.58 1.58945 -1.13999 0
M  V30 16968 C 1634.96 2.08981 0.29836 0
M  V30 16969 O 1634.31 1.88226 1.2955 0
M  V30 16970 C 1634.52 2.73296 -2.17049 0
M  V30 16971 C 1635.86 3.42791 -2.50559 0
M  V30 16972 O 1636.89 2.83524 -2.15621 0
M  V30 16973 O 1635.75 4.49749 -3.10464 0
M  V30 16974 H 1632.84 0.700157 -0.440124 0
M  V30 16975 H 1635.39 0.895098 -1.44174 0
M  V30 16976 H 1634.16 2.33873 -3.13718 0
M  V30 16977 H 1633.78 3.50405 -1.87888 0
M  V30 16978 N 1634.78 1.15898 1.06796 0
M  V30 16979 C 1636.03 0.935488 1.79145 0
M  V30 16980 C 1636.35 -0.538433 1.87419 0
M  V30 16981 O 1635.62 -1.39124 1.37917 0
M  V30 16982 H 1634.2 0.343123 0.663533 0
M  V30 16983 H 1636.86 1.4607 1.29034 0
M  V30 16984 H 1635.96 1.34978 2.81402 0
M  V30 16985 N 1636.26 -1.25243 0.956659 0
M  V30 16986 C 1637.5 -1.93014 0.612538 0
M  V30 16987 C 1637.83 -1.74908 -0.85073 0
M  V30 16988 O 1637.09 -1.08896 -1.62604 0
M  V30 16989 C 1637.39 -3.4536 0.919849 0
M  V30 16990 C 1637.05 -3.83623 2.36948 0
M  V30 16991 C 1635.71 -3.93779 2.76571 0
M  V30 16992 C 1638.07 -4.02536 3.3108 0
M  V30 16993 C 1635.39 -4.20257 4.09391 0
M  V30 16994 C 1637.75 -4.30507 4.63515 0
M  V30 16995 C 1636.41 -4.3888 5.02932 0
M  V30 16996 H 1635.68 -0.706286 0.224144 0
M  V30 16997 H 1638.33 -1.48748 1.20608 0
M  V30 16998 H 1636.63 -3.9104 0.243941 0
M  V30 16999 H 1638.33 -3.95986 0.632143 0
M  V30 17000 H 1634.92 -3.76275 2.05219 0
M  V30 17001 H 1639.1 -3.94102 3.01657 0
M  V30 17002 H 1634.36 -4.24956 4.39571 0
M  V30 17003 H 1638.53 -4.44087 5.36433 0
M  V30 17004 H 1636.16 -4.59151 6.05875 0
M  V30 17005 N 1637.73 -0.725468 -1.3991 0
M  V30 17006 C 1638.67 -0.0397832 -2.29165 0
M  V30 17007 C 1639.68 0.713458 -1.46334 0
M  V30 17008 O 1640.87 0.559199 -1.69515 0
M  V30 17009 C 1637.97 0.967929 -3.24784 0
M  V30 17010 C 1637.14 0.278181 -4.36515 0
M  V30 17011 C 1636.2 1.19266 -5.12506 0
M  V30 17012 O 1635.23 0.673726 -5.65199 0
M  V30 17013 N 1636.43 2.5231 -5.228 0
M  V30 17014 H 1639.19 -0.806204 -2.88653 0
M  V30 17015 H 1636.75 -0.573904 -1.51387 0
M  V30 17016 H 1638.75 1.58209 -3.72494 0
M  V30 17017 H 1637.32 1.63563 -2.66394 0
M  V30 17018 H 1636.54 -0.516326 -3.90804 0
M  V30 17019 H 1637.82 -0.200203 -5.08406 0
M  V30 17020 H 1637.22 2.96957 -4.8149 0
M  V30 17021 H 1635.78 3.08846 -5.73984 0
M  V30 17022 N 1639.21 1.50354 -0.472382 0
M  V30 17023 C 1640.49 1.95071 0.143803 0
M  V30 17024 C 1640.87 1.41281 1.56853 0
M  V30 17025 O 1640.22 0.614349 2.20086 0
M  V30 17026 C 1640.43 3.48895 0.0857944 0
M  V30 17027 C 1641.78 4.23715 0.274039 0
M  V30 17028 O 1642.8 3.5583 0.162319 0
M  V30 17029 O 1641.66 5.4421 0.499815 0
M  V30 17030 H 1638.75 0.819521 0.110966 0
M  V30 17031 H 1641.3 1.61116 -0.532876 0
M  V30 17032 H 1640.07 3.80598 -0.908887 0
M  V30 17033 H 1639.69 3.89389 0.803875 0
M  V30 17034 N 1640.69 0.205039 1.56261 0
M  V30 17035 C 1641.92 -0.439502 2.0269 0
M  V30 17036 C 1642.34 -1.53715 1.08413 0
M  V30 17037 O 1641.7 -1.81167 0.0693616 0
M  V30 17038 C 1641.75 -0.963672 3.47485 0
M  V30 17039 O 1640.85 -2.07602 3.56336 0
M  V30 17040 H 1640.19 -0.101543 0.65619 0
M  V30 17041 H 1642.72 0.318835 2.021 0
M  V30 17042 H 1642.73 -1.27773 3.87476 0
M  V30 17043 H 1641.41 -0.160203 4.15591 0
M  V30 17044 H 1639.98 -1.76985 3.28224 0
M  V30 17045 N 1642.17 -1.57451 -0.0684915 0
M  V30 17046 C 1643.12 -2.03916 -1.08105 0
M  V30 17047 C 1644.09 -0.920418 -1.38266 0
M  V30 17048 O 1645.27 -1.18831 -1.49277 0
M  V30 17049 C 1642.41 -2.49075 -2.38863 0
M  V30 17050 C 1641.52 -3.74581 -2.15204 0
M  V30 17051 C 1640.66 -4.08509 -3.39549 0
M  V30 17052 C 1639.7 -5.27046 -3.11269 0
M  V30 17053 N 1638.84 -5.56597 -4.27954 0
M  V30 17054 H 1643.68 -2.90188 -0.677843 0
M  V30 17055 H 1641.21 -1.43507 -0.32313 0
M  V30 17056 H 1643.17 -2.7331 -3.1521 0
M  V30 17057 H 1641.8 -1.65776 -2.76981 0
M  V30 17058 H 1640.85 -3.57666 -1.29535 0
M  V30 17059 H 1642.16 -4.61065 -1.90317 0
M  V30 17060 H 1641.32 -4.33663 -4.24289 0
M  V30 17061 H 1640.06 -3.20599 -3.67515 0
M  V30 17062 H 1639.06 -5.01686 -2.24926 0
M  V30 17063 H 1640.29 -6.16577 -2.84622 0
M  V30 17064 H 1638.23 -4.71646 -4.55945 0
M  V30 17065 H 1638.15 -6.37506 -4.06352 0
M  V30 17066 H 1639.42 -5.86303 -5.13681 0
M  V30 17067 N 1643.65 0.339955 -1.5389 0
M  V30 17068 C 1644.87 1.10417 -1.75564 0
M  V30 17069 C 1645.3 1.81466 -0.495156 0
M  V30 17070 O 1644.66 1.72679 0.552415 0
M  V30 17071 C 1644.7 2.09056 -2.93816 0
M  V30 17072 O 1643.81 3.16645 -2.64215 0
M  V30 17073 H 1643.15 0.319164 -0.582263 0
M  V30 17074 H 1645.68 0.389251 -2.00863 0
M  V30 17075 H 1645.69 2.52215 -3.20705 0
M  V30 17076 H 1644.36 1.56741 -3.85234 0
M  V30 17077 H 1642.94 2.78278 -2.48225 0
M  V30 17078 N 1645.13 1.45684 0.601159 0
M  V30 17079 C 1646.35 1.53806 1.39135 0
M  V30 17080 C 1646.78 0.173625 1.87297 0
M  V30 17081 O 1646.13 -0.842931 1.60513 0
M  V30 17082 C 1646.18 2.53201 2.56752 0
M  V30 17083 O 1645.29 2.05427 3.57594 0
M  V30 17084 H 1644.63 0.51824 0.415118 0
M  V30 17085 H 1647.16 1.91095 0.731006 0
M  V30 17086 H 1647.17 2.72215 3.03912 0
M  V30 17087 H 1645.84 3.52294 2.21047 0
M  V30 17088 H 1644.42 1.96318 3.17039 0
M  V30 17089 N 1646.6 -0.84422 1.33082 0
M  V30 17090 C 1647.83 -1.63654 1.27405 0
M  V30 17091 C 1648.25 -1.87476 -0.153146 0
M  V30 17092 O 1647.61 -1.43502 -1.10801 0
M  V30 17093 C 1647.66 -2.96698 2.04945 0
M  V30 17094 O 1646.76 -3.87751 1.40439 0
M  V30 17095 H 1646.1 -0.498545 0.438576 0
M  V30 17096 H 1648.63 -1.0507 1.7556 0
M  V30 17097 H 1648.64 -3.46438 2.1551 0
M  V30 17098 H 1647.32 -2.78682 3.08722 0
M  V30 17099 H 1645.9 -3.46231 1.38487 0
M  V30 17100 N 1648.08 -1.16463 -1.0618 0
M  V30 17101 C 1649.31 -0.971075 -1.82696 0
M  V30 17102 C 1649.72 0.480716 -1.82578 0
M  V30 17103 O 1649.08 1.33366 -1.24579 0
M  V30 17104 C 1649.13 -1.49235 -3.29259 0
M  V30 17105 O 1648.85 -2.88728 -3.29496 0
M  V30 17106 C 1650.35 -1.34197 -4.225 0
M  V30 17107 H 1647.57 -0.34415 -0.576023 0
M  V30 17108 H 1650.12 -1.54517 -1.33958 0
M  V30 17109 H 1648.27 -0.960503 -3.75304 0
M  V30 17110 H 1648.69 -3.12618 -4.21153 0
M  V30 17111 H 1650.16 -1.75499 -5.23358 0
M  V30 17112 H 1650.64 -0.287685 -4.38257 0
M  V30 17113 H 1651.24 -1.86349 -3.82301 0
M  V30 17114 N 1649.56 1.24734 -0.963288 0
M  V30 17115 C 1650.49 2.27892 -0.508667 0
M  V30 17116 C 1651.47 1.64055 0.449438 0
M  V30 17117 O 1652.66 1.91083 0.346519 0
M  V30 17118 C 1649.79 3.46688 0.206157 0
M  V30 17119 C 1648.74 4.22762 -0.667534 0
M  V30 17120 C 1648.07 5.34402 0.178529 0
M  V30 17121 C 1649.37 4.84535 -1.94995 0
M  V30 17122 H 1651.06 2.66171 -1.37088 0
M  V30 17123 H 1648.61 1.27952 -0.660622 0
M  V30 17124 H 1650.56 4.17985 0.535391 0
M  V30 17125 H 1649.28 3.07422 1.10269 0
M  V30 17126 H 1647.94 3.53259 -0.979976 0
M  V30 17127 H 1647.59 4.91377 1.07508 0
M  V30 17128 H 1647.29 5.86218 -0.402808 0
M  V30 17129 H 1648.81 6.08529 0.502533 0
M  V30 17130 H 1650.23 5.4793 -1.68658 0
M  V30 17131 H 1648.62 5.46564 -2.47765 0
M  V30 17132 H 1649.69 4.06236 -2.64765 0
M  V30 17133 N 1651.04 0.732878 1.39523 0
M  V30 17134 C 1652.27 0.29007 2.04857 0
M  V30 17135 C 1652.68 -1.07435 1.55252 0
M  V30 17136 O 1652.04 -1.67847 0.716497 0
M  V30 17137 C 1652.09 0.280464 3.6041 0
M  V30 17138 O 1651.81 1.59102 4.08189 0
M  V30 17139 C 1653.31 -0.178772 4.42939 0
M  V30 17140 H 1650.53 0.12716 0.658841 0
M  V30 17141 H 1653.07 0.995933 1.7861 0
M  V30 17142 H 1651.23 -0.376494 3.85566 0
M  V30 17143 H 1651.64 1.50314 5.025 0
M  V30 17144 H 1653.12 -0.134335 5.51837 0
M  V30 17145 H 1653.59 -1.22362 4.21811 0
M  V30 17146 H 1654.2 0.448543 4.22928 0
M  V30 17147 N 1652.52 -1.50101 0.480349 0
M  V30 17148 C 1653.46 -2.28722 -0.308993 0
M  V30 17149 C 1654.43 -1.34186 -0.978948 0
M  V30 17150 O 1655.62 -1.6313 -0.989602 0
M  V30 17151 C 1652.76 -3.16322 -1.37966 0
M  V30 17152 C 1651.87 -4.25898 -0.723552 0
M  V30 17153 C 1651.01 -5.00741 -1.7729 0
M  V30 17154 C 1650.04 -6.0218 -1.09754 0
M  V30 17155 N 1649.18 -6.70266 -2.09015 0
M  V30 17156 H 1654.02 -2.95722 0.367739 0
M  V30 17157 H 1651.56 -1.45826 0.193197 0
M  V30 17158 H 1653.52 -3.65469 -2.01217 0
M  V30 17159 H 1652.15 -2.51349 -2.02543 0
M  V30 17160 H 1651.2 -3.80394 0.0217507 0
M  V30 17161 H 1652.51 -4.98435 -0.190905 0
M  V30 17162 H 1651.66 -5.53653 -2.48098 0
M  V30 17163 H 1650.4 -4.27931 -2.33937 0
M  V30 17164 H 1649.41 -5.48519 -0.375123 0
M  V30 17165 H 1650.63 -6.76967 -0.537841 0
M  V30 17166 H 1648.58 -6.00242 -2.64662 0
M  V30 17167 H 1648.5 -7.3871 -1.6076 0
M  V30 17168 H 1649.76 -7.27792 -2.79175 0
M  V30 17169 N 1653.99 -0.213323 -1.5615 0
M  V30 17170 C 1655.24 0.419767 -1.97693 0
M  V30 17171 C 1655.56 1.60878 -1.10197 0
M  V30 17172 O 1654.83 1.95097 -0.177185 0
M  V30 17173 H 1653.41 0.158075 -0.730083 0
M  V30 17174 H 1656.07 -0.304303 -1.9251 0
M  V30 17175 H 1655.17 0.751645 -3.02914 0
M  V30 17176 N 1655.47 1.57485 0.0601405 0
M  V30 17177 C 1656.71 1.89654 0.762278 0
M  V30 17178 C 1657.08 0.808458 1.74149 0
M  V30 17179 O 1658.28 1.01355 2.48959 0
M  V30 17180 C 1656.55 3.27038 1.44156 0
M  V30 17181 S 1658.11 3.8098 2.17715 0
M  V30 17182 H 1654.93 0.664373 0.253239 0
M  V30 17183 H 1657.53 1.95492 0.0179261 0
M  V30 17184 H 1656.23 4.0412 0.715225 0
M  V30 17185 H 1655.76 3.24427 2.2251 0
M  V30 17186 H 1657.78 3.57204 3.44413 0
M  V30 17187 N 1656.95 -0.331789 1.54068 0
M  V30 17188 C 1657.9 -1.40889 1.7926 0
M  V30 17189 C 1658.88 -1.47263 0.648266 0
M  V30 17190 O 1660.08 -1.51934 0.908021 0
M  V30 17191 C 1657.21 -2.77864 2.0161 0
M  V30 17192 C 1656.29 -2.75835 3.22142 0
M  V30 17193 N 1656.68 -2.43431 4.43368 0
M  V30 17194 C 1654.98 -3.06972 3.23549 0
M  V30 17195 C 1655.68 -2.49932 5.2527 0
M  V30 17196 N 1654.66 -2.86037 4.6226 0
M  V30 17197 H 1658.46 -1.14751 2.70572 0
M  V30 17198 H 1655.97 -0.540225 1.53151 0
M  V30 17199 H 1657.97 -3.55486 2.17796 0
M  V30 17200 H 1656.63 -3.04938 1.11547 0
M  V30 17201 H 1657.64 -2.16421 4.70513 0
M  V30 17202 H 1654.32 -3.39142 2.43493 0
M  V30 17203 H 1655.71 -2.27938 6.32055 0
M  V30 17204 N 1658.43 -1.46001 -0.593424 0
M  V30 17205 C 1659.71 -1.4123 -1.35327 0
M  V30 17206 C 1660.09 -0.0901956 -2.10907 0
M  V30 17207 O 1659.43 0.928102 -2.08803 0
M  V30 17208 C 1659.64 -2.63515 -2.28825 0
M  V30 17209 C 1660.99 -3.09208 -2.90991 0
M  V30 17210 O 1662.02 -2.63988 -2.39142 0
M  V30 17211 O 1660.87 -3.87723 -3.8514 0
M  V30 17212 H 1657.97 -0.561132 -0.607503 0
M  V30 17213 H 1660.51 -1.58151 -0.615333 0
M  V30 17214 H 1659.29 -3.51308 -1.72333 0
M  V30 17215 H 1658.91 -2.48999 -3.09976 0
M  V30 17216 N 1659.91 0.83715 -1.33527 0
M  V30 17217 C 1661.13 1.62976 -1.28271 0
M  V30 17218 C 1661.56 1.87554 0.143201 0
M  V30 17219 O 1660.91 1.44088 1.10038 0
M  V30 17220 C 1660.96 2.95607 -2.06516 0
M  V30 17221 O 1660.07 3.87 -1.42494 0
M  V30 17222 H 1659.41 0.496212 -0.441214 0
M  V30 17223 H 1661.94 1.04137 -1.76115 0
M  V30 17224 H 1661.95 3.4529 -2.17344 0
M  V30 17225 H 1660.62 2.77041 -3.10195 0
M  V30 17226 H 1659.2 3.45492 -1.40321 0
M  V30 17227 N 1661.38 1.17024 1.05561 0
M  V30 17228 C 1662.8 0.962856 1.59956 0
M  V30 17229 C 1663.15 -0.491388 1.89947 0
M  V30 17230 O 1662.27 -1.366 1.67838 0
M  V30 17231 C 1662.87 1.74146 2.90617 0
M  V30 17232 C 1661.43 1.57885 3.41686 0
M  V30 17233 C 1660.57 1.74548 2.15472 0
M  V30 17234 H 1663.52 1.31787 0.88419 0
M  V30 17235 H 1663.54 1.22165 3.60355 0
M  V30 17236 H 1663.06 2.79984 2.68758 0
M  V30 17237 H 1661.16 0.545207 3.6859 0
M  V30 17238 H 1661.27 2.36745 4.16519 0
M  V30 17239 H 1659.63 1.17356 2.26052 0
M  V30 17240 H 1660.42 2.81789 1.96087 0
M  V30 17241 N 1662.86 -1.24221 0.969889 0
M  V30 17242 C 1663.79 -2.27619 0.520745 0
M  V30 17243 C 1664.77 -1.64291 -0.440731 0
M  V30 17244 O 1665.96 -1.91265 -0.336381 0
M  V30 17245 C 1663.09 -3.46792 -0.187768 0
M  V30 17246 C 1662.04 -4.22402 0.689945 0
M  V30 17247 C 1661.37 -5.34489 -0.150186 0
M  V30 17248 C 1662.67 -4.83494 1.97562 0
M  V30 17249 H 1664.36 -2.65441 1.38498 0
M  V30 17250 H 1661.91 -1.276 0.667398 0
M  V30 17251 H 1663.86 -4.18263 -0.513216 0
M  V30 17252 H 1662.59 -3.08002 -1.08637 0
M  V30 17253 H 1661.24 -3.52734 0.998696 0
M  V30 17254 H 1660.89 -4.9194 -1.049 0
M  V30 17255 H 1660.59 -5.85996 0.433891 0
M  V30 17256 H 1662.12 -6.08786 -0.470255 0
M  V30 17257 H 1663.53 -5.47028 1.71561 0
M  V30 17258 H 1661.93 -5.45243 2.5066 0
M  V30 17259 H 1663 -4.04826 2.66915 0
M  V30 17260 N 1664.34 -0.740267 -1.39132 0
M  V30 17261 C 1665.27 -0.118951 -2.33197 0
M  V30 17262 C 1666.25 0.718416 -1.54184 0
M  V30 17263 O 1667.44 0.662322 -1.82557 0
M  V30 17264 C 1664.57 0.78512 -3.38309 0
M  V30 17265 C 1663.52 0.0515093 -4.27969 0
M  V30 17266 C 1662.85 1.07295 -5.23824 0
M  V30 17267 C 1664.15 -1.10903 -5.1039 0
M  V30 17268 H 1665.84 -0.904687 -2.85405 0
M  V30 17269 H 1663.39 -0.436493 -1.37225 0
M  V30 17270 H 1665.34 1.22935 -4.03069 0
M  V30 17271 H 1664.06 1.60303 -2.84553 0
M  V30 17272 H 1662.72 -0.373156 -3.64696 0
M  V30 17273 H 1662.37 1.88456 -4.66362 0
M  V30 17274 H 1662.07 0.586827 -5.84662 0
M  V30 17275 H 1663.59 1.51677 -5.91461 0
M  V30 17276 H 1665.01 -0.742993 -5.68465 0
M  V30 17277 H 1663.41 -1.52513 -5.80396 0
M  V30 17278 H 1664.48 -1.92825 -4.44912 0
M  V30 17279 N 1665.82 1.49844 -0.488302 0
M  V30 17280 C 1666.75 2.31737 0.286432 0
M  V30 17281 C 1667.73 1.39424 0.974418 0
M  V30 17282 O 1668.91 1.68339 0.968274 0
M  V30 17283 C 1666.04 3.19616 1.35878 0
M  V30 17284 C 1665 4.20619 0.791409 0
M  V30 17285 C 1664.32 4.9735 1.96333 0
M  V30 17286 C 1665.62 5.21882 -0.208975 0
M  V30 17287 H 1667.32 2.96755 -0.397092 0
M  V30 17288 H 1664.86 1.42709 -0.192413 0
M  V30 17289 H 1666.82 3.75711 1.90838 0
M  V30 17290 H 1665.54 2.52516 2.07131 0
M  V30 17291 H 1664.2 3.65651 0.263647 0
M  V30 17292 H 1663.85 4.26708 2.66325 0
M  V30 17293 H 1663.55 5.65684 1.58983 0
M  V30 17294 H 1665.07 5.56286 2.51751 0
M  V30 17295 H 1666.49 5.72746 0.252049 0
M  V30 17296 H 1664.88 5.98033 -0.497638 0
M  V30 17297 H 1665.95 4.7157 -1.12916 0
M  V30 17298 N 1667.3 0.221601 1.56034 0
M  V30 17299 C 1668.52 -0.417979 2.03145 0
M  V30 17300 C 1668.95 -1.52556 1.10038 0
M  V30 17301 O 1668.3 -1.81084 0.0885729 0
M  V30 17302 C 1668.35 -0.926762 3.48487 0
M  V30 17303 O 1667.46 -2.03811 3.58518 0
M  V30 17304 H 1666.8 -0.0945778 0.65723 0
M  V30 17305 H 1669.33 0.340252 2.01751 0
M  V30 17306 H 1669.34 -1.23656 3.8881 0
M  V30 17307 H 1668.01 -0.116115 4.15738 0
M  V30 17308 H 1666.59 -1.73494 3.30082 0
M  V30 17309 N 1668.77 -1.57515 -0.0517878 0
M  V30 17310 C 1670 -1.92456 -0.759485 0
M  V30 17311 C 1670.42 -0.819396 -1.70092 0
M  V30 17312 O 1669.77 0.205913 -1.81335 0
M  V30 17313 C 1669.83 -3.27242 -1.53606 0
M  V30 17314 O 1669.55 -4.33511 -0.632441 0
M  V30 17315 C 1671.05 -3.76324 -2.34297 0
M  V30 17316 H 1668.27 -0.635688 -0.214807 0
M  V30 17317 H 1670.81 -2.04494 -0.0160862 0
M  V30 17318 H 1668.97 -3.16671 -2.23155 0
M  V30 17319 H 1669.38 -5.11178 -1.17462 0
M  V30 17320 H 1670.85 -4.73209 -2.84213 0
M  V30 17321 H 1671.33 -3.06351 -3.14716 0
M  V30 17322 H 1671.94 -3.89904 -1.69866 0
M  V30 17323 N 1670.25 0.323614 -1.54242 0
M  V30 17324 C 1671.5 1.05947 -1.72104 0
M  V30 17325 C 1671.82 1.88547 -0.497512 0
M  V30 17326 O 1671.09 1.89712 0.488485 0
M  V30 17327 H 1669.67 0.394141 -0.634557 0
M  V30 17328 H 1672.33 0.360063 -1.91545 0
M  V30 17329 H 1671.43 1.72552 -2.60062 0
M  V30 17330 N 1671.73 1.46313 0.585673 0
M  V30 17331 C 1672.98 1.51171 1.34134 0
M  V30 17332 C 1673.3 0.163691 1.94312 0
M  V30 17333 O 1672.57 -0.809444 1.78395 0
M  V30 17334 H 1671.15 0.556768 0.498014 0
M  V30 17335 H 1673.81 1.82423 0.686133 0
M  V30 17336 H 1672.91 2.26274 2.14957 0
M  V30 17337 N 1673.21 -0.830057 1.33969 0
M  V30 17338 C 1674.62 -1.40227 1.23261 0
M  V30 17339 C 1674.97 -1.95664 -0.144862 0
M  V30 17340 O 1674.1 -1.89503 -1.04488 0
M  V30 17341 C 1674.69 -2.54913 2.2317 0
M  V30 17342 C 1673.25 -3.08062 2.16274 0
M  V30 17343 C 1672.4 -1.809 2.10168 0
M  V30 17344 H 1675.35 -0.635062 1.4544 0
M  V30 17345 H 1675.37 -3.32801 1.84455 0
M  V30 17346 H 1674.88 -2.14534 3.23414 0
M  V30 17347 H 1672.98 -3.52964 1.19362 0
M  V30 17348 H 1673.1 -3.67637 3.07213 0
M  V30 17349 H 1671.46 -2.01508 1.55778 0
M  V30 17350 H 1672.24 -1.42705 3.12234 0
M  V30 17351 N 1674.69 -1.17582 -1.04939 0
M  V30 17352 C 1675.94 -0.96387 -1.77634 0
M  V30 17353 C 1676.26 0.508548 -1.88252 0
M  V30 17354 O 1675.53 1.36913 -1.40113 0
M  V30 17355 H 1674.11 -0.353636 -0.65799 0
M  V30 17356 H 1676.77 -1.48104 -1.26693 0
M  V30 17357 H 1675.86 -1.39438 -2.79219 0
M  V30 17358 N 1676.17 1.23705 -0.976463 0
M  V30 17359 C 1677.44 1.87421 -0.559719 0
M  V30 17360 C 1677.82 1.87847 0.963166 0
M  V30 17361 O 1677.17 1.35726 1.83822 0
M  V30 17362 C 1677.38 3.29113 -1.16128 0
M  V30 17363 C 1678.73 4.05735 -1.25158 0
M  V30 17364 O 1679.75 3.38317 -1.11444 0
M  V30 17365 O 1678.61 5.26377 -1.46933 0
M  V30 17366 H 1675.71 0.80537 -0.187903 0
M  V30 17367 H 1678.25 1.31611 -1.07129 0
M  V30 17368 H 1677.02 3.23348 -2.20367 0
M  V30 17369 H 1676.65 3.92508 -0.63428 0
M  V30 17370 N 1677.64 0.747635 1.38738 0
M  V30 17371 C 1679.05 0.369576 1.83006 0
M  V30 17372 C 1679.41 -1.10091 1.62402 0
M  V30 17373 O 1678.53 -1.85042 1.12198 0
M  V30 17374 C 1679.13 0.664018 3.32229 0
M  V30 17375 C 1677.68 0.339308 3.74868 0
M  V30 17376 C 1676.83 0.920231 2.61586 0
M  V30 17377 H 1679.78 0.944268 1.27551 0
M  V30 17378 H 1679.8 -0.0598575 3.80453 0
M  V30 17379 H 1679.32 1.73432 3.47193 0
M  V30 17380 H 1677.42 -0.724649 3.65485 0
M  V30 17381 H 1677.53 0.830699 4.71843 0
M  V30 17382 H 1675.89 0.346002 2.52339 0
M  V30 17383 H 1676.68 1.99544 2.79351 0
M  V30 17384 N 1679.12 -1.49583 0.496242 0
M  V30 17385 C 1680.03 -2.32808 -0.289404 0
M  V30 17386 C 1681.05 -1.44324 -0.971933 0
M  V30 17387 O 1682.22 -1.77352 -0.954366 0
M  V30 17388 C 1679.29 -3.19645 -1.34269 0
M  V30 17389 C 1678.35 -4.23975 -0.6741 0
M  V30 17390 C 1677.58 -5.06661 -1.6772 0
M  V30 17391 O 1677.81 -4.90792 -2.90654 0
M  V30 17392 O 1676.74 -5.89091 -1.23514 0
M  V30 17393 H 1680.57 -3.01164 0.391664 0
M  V30 17394 H 1678.15 -1.47162 0.257652 0
M  V30 17395 H 1680.03 -3.73453 -1.9522 0
M  V30 17396 H 1678.71 -2.53989 -2.00677 0
M  V30 17397 H 1677.61 -3.74092 -0.0249732 0
M  V30 17398 H 1678.95 -4.92172 -0.0525442 0
M  V30 17399 N 1680.6 -0.229873 -1.55915 0
M  V30 17400 C 1681.82 0.4072 -2.03363 0
M  V30 17401 C 1682.25 1.5197 -1.10845 0
M  V30 17402 O 1681.61 1.81034 -0.098175 0
M  V30 17403 C 1681.66 0.908268 -3.48974 0
M  V30 17404 O 1680.76 2.01907 -3.59593 0
M  V30 17405 H 1680.1 0.091091 -0.657722 0
M  V30 17406 H 1682.63 -0.350947 -2.01568 0
M  V30 17407 H 1682.64 1.21593 -3.8946 0
M  V30 17408 H 1681.32 0.0940655 -4.15794 0
M  V30 17409 H 1679.89 1.71741 -3.30998 0
M  V30 17410 N 1682.08 1.5754 0.0434337 0
M  V30 17411 C 1683.01 2.08648 1.04824 0
M  V30 17412 C 1683.99 0.985894 1.38615 0
M  V30 17413 O 1685.17 1.2603 1.4775 0
M  V30 17414 C 1682.3 2.55399 2.35348 0
M  V30 17415 C 1681.26 3.69592 2.15837 0
M  V30 17416 C 1680.58 4.02497 3.51995 0
M  V30 17417 C 1681.88 4.98575 1.55629 0
M  V30 17418 H 1683.58 2.9285 0.622849 0
M  V30 17419 H 1681.12 1.40879 0.298158 0
M  V30 17420 H 1683.08 2.89771 3.05958 0
M  V30 17421 H 1681.8 1.68262 2.7992 0
M  V30 17422 H 1680.46 3.35546 1.47663 0
M  V30 17423 H 1680.11 3.12448 3.94189 0
M  V30 17424 H 1679.81 4.79406 3.39771 0
M  V30 17425 H 1681.33 4.39391 4.23991 0
M  V30 17426 H 1682.75 5.30996 2.16138 0
M  V30 17427 H 1681.14 5.79998 1.54021 0
M  V30 17428 H 1682.21 4.82098 0.520567 0
M  V30 17429 N 1683.56 -0.31543 1.54411 0
M  V30 17430 C 1684.49 -1.39353 1.87358 0
M  V30 17431 C 1685.47 -1.53586 0.731118 0
M  V30 17432 O 1686.65 -1.67332 0.98558 0
M  V30 17433 C 1683.78 -2.75998 2.10814 0
M  V30 17434 C 1682.74 -2.76545 3.2666 0
M  V30 17435 C 1682.06 -4.16343 3.35504 0
M  V30 17436 C 1683.36 -2.39567 4.64117 0
M  V30 17437 H 1685.06 -1.12028 2.77651 0
M  V30 17438 H 1682.6 -0.537476 1.33593 0
M  V30 17439 H 1684.55 -3.51491 2.32447 0
M  V30 17440 H 1683.28 -3.04817 1.17278 0
M  V30 17441 H 1681.94 -2.03507 3.04927 0
M  V30 17442 H 1681.59 -4.42316 2.39512 0
M  V30 17443 H 1681.29 -4.17613 4.13368 0
M  V30 17444 H 1682.81 -4.93637 3.59381 0
M  V30 17445 H 1684.22 -3.04775 4.85577 0
M  V30 17446 H 1682.62 -2.52075 5.4459 0
M  V30 17447 H 1683.69 -1.34707 4.65813 0
M  V30 17448 N 1685.03 -1.46622 -0.577906 0
M  V30 17449 C 1686.28 -1.5188 -1.3333 0
M  V30 17450 C 1686.6 -0.173993 -1.94222 0
M  V30 17451 O 1685.87 0.799972 -1.78822 0
M  V30 17452 H 1684.45 -0.559401 -0.495055 0
M  V30 17453 H 1687.12 -1.82785 -0.676449 0
M  V30 17454 H 1686.21 -2.27411 -2.13754 0
M  V30 17455 N 1686.51 0.822941 -1.34408 0
M  V30 17456 C 1687.74 1.61087 -1.2984 0
M  V30 17457 C 1688.16 1.88369 0.127527 0
M  V30 17458 O 1687.51 1.47508 1.0746 0
M  V30 17459 C 1687.56 2.9518 -2.08689 0
M  V30 17460 O 1687.28 2.69089 -3.45721 0
M  V30 17461 C 1688.79 3.89583 -2.11518 0
M  V30 17462 H 1686.01 0.500726 -0.44667 0
M  V30 17463 H 1688.55 1.02391 -1.77021 0
M  V30 17464 H 1686.7 3.50434 -1.6515 0
M  V30 17465 H 1687.12 3.5459 -3.86479 0
M  V30 17466 H 1688.59 4.80835 -2.71111 0
M  V30 17467 H 1689.07 4.24953 -1.10957 0
M  V30 17468 H 1689.68 3.40265 -2.55146 0
M  V30 17469 N 1687.99 1.18137 1.04314 0
M  V30 17470 C 1689.24 0.976648 1.77734 0
M  V30 17471 C 1689.57 -0.492756 1.87844 0
M  V30 17472 O 1688.84 -1.36586 1.38472 0
M  V30 17473 C 1689.13 1.62911 3.21142 0
M  V30 17474 C 1688.98 3.1712 3.1899 0
M  V30 17475 C 1690.3 1.34029 4.19195 0
M  V30 17476 H 1687.42 0.356217 0.645197 0
M  V30 17477 H 1690.06 1.45767 1.21868 0
M  V30 17478 H 1688.21 1.22009 3.68844 0
M  V30 17479 H 1689.88 3.67139 2.79296 0
M  V30 17480 H 1688.13 3.4941 2.57089 0
M  V30 17481 H 1688.8 3.57907 4.20245 0
M  V30 17482 H 1691.27 1.69463 3.80028 0
M  V30 17483 H 1690.15 1.82253 5.1776 0
M  V30 17484 H 1690.41 0.262712 4.41319 0
M  V30 17485 N 1689.47 -1.23186 0.98301 0
M  V30 17486 C 1690.69 -1.96242 0.671114 0
M  V30 17487 C 1691.12 -1.72248 -0.755792 0
M  V30 17488 O 1690.48 -0.995555 -1.5152 0
M  V30 17489 C 1690.52 -3.47293 0.970571 0
M  V30 17490 O 1689.63 -4.1235 0.0639814 0
M  V30 17491 H 1688.97 -0.614262 0.252147 0
M  V30 17492 H 1691.5 -1.56551 1.31731 0
M  V30 17493 H 1691.51 -3.9776 0.908345 0
M  V30 17494 H 1690.18 -3.64083 2.01039 0
M  V30 17495 H 1688.76 -3.72461 0.180842 0
M  V30 17496 N 1690.95 -0.754982 -1.38339 0
M  V30 17497 C 1691.9 -0.103867 -2.27763 0
M  V30 17498 C 1692.88 0.691777 -1.4527 0
M  V30 17499 O 1694.07 0.557503 -1.67991 0
M  V30 17500 C 1691.2 0.787421 -3.34148 0
M  V30 17501 C 1690.29 -0.0151461 -4.24097 0
M  V30 17502 N 1690.68 -1.05227 -4.94733 0
M  V30 17503 C 1688.98 0.211452 -4.45498 0
M  V30 17504 C 1689.68 -1.53796 -5.61001 0
M  V30 17505 N 1688.65 -0.853018 -5.36866 0
M  V30 17506 H 1692.46 -0.898166 -2.7984 0
M  V30 17507 H 1689.97 -0.591155 -1.51258 0
M  V30 17508 H 1691.97 1.26952 -3.971 0
M  V30 17509 H 1690.63 1.58066 -2.83629 0
M  V30 17510 H 1691.64 -1.43409 -4.97649 0
M  V30 17511 H 1688.31 0.977919 -4.05885 0
M  V30 17512 H 1689.7 -2.40193 -6.27501 0
M  V30 17513 N 1692.42 1.49318 -0.504168 0
M  V30 17514 C 1693.39 2.27703 0.26157 0
M  V30 17515 C 1694.39 1.3385 0.891114 0
M  V30 17516 O 1695.58 1.56981 0.755156 0
M  V30 17517 C 1692.71 3.11912 1.37564 0
M  V30 17518 H 1693.9 2.96855 -0.426292 0
M  V30 17519 H 1691.46 1.54135 -0.259236 0
M  V30 17520 H 1692.19 2.47332 2.09755 0
M  V30 17521 H 1691.98 3.8092 0.929641 0
M  V30 17522 H 1693.47 3.71106 1.91494 0
M  V30 17523 N 1693.9 0.238138 1.5579 0
M  V30 17524 C 1694.83 -0.697701 2.18323 0
M  V30 17525 C 1695.85 -1.1453 1.15701 0
M  V30 17526 O 1697.04 -1.07359 1.42605 0
M  V30 17527 C 1694.14 -1.95895 2.76547 0
M  V30 17528 C 1693.31 -1.66422 4.04503 0
M  V30 17529 C 1692.37 -2.77419 4.4713 0
M  V30 17530 O 1691.39 -2.45179 5.13689 0
M  V30 17531 N 1692.6 -4.06731 4.14187 0
M  V30 17532 H 1695.36 -0.162705 2.99258 0
M  V30 17533 H 1692.92 0.0577602 1.61797 0
M  V30 17534 H 1694.91 -2.69374 3.02026 0
M  V30 17535 H 1693.48 -2.40398 1.99819 0
M  V30 17536 H 1692.7 -0.76505 3.86705 0
M  V30 17537 H 1693.99 -1.44183 4.87943 0
M  V30 17538 H 1693.39 -4.3576 3.60735 0
M  V30 17539 H 1691.95 -4.76701 4.44521 0
M  V30 17540 N 1695.38 -1.57561 -0.0350783 0
M  V30 17541 C 1696.29 -2.09558 -1.05464 0
M  V30 17542 C 1697.31 -1.03288 -1.40027 0
M  V30 17543 O 1698.48 -1.34987 -1.49467 0
M  V30 17544 C 1695.55 -2.55966 -2.33842 0
M  V30 17545 C 1694.61 -3.76693 -2.05915 0
M  V30 17546 C 1693.84 -4.20878 -3.28172 0
M  V30 17547 O 1694.06 -3.64634 -4.38632 0
M  V30 17548 O 1693 -5.13367 -3.14225 0
M  V30 17549 H 1696.82 -2.9682 -0.642771 0
M  V30 17550 H 1694.41 -1.47265 -0.251668 0
M  V30 17551 H 1696.29 -2.86173 -3.09327 0
M  V30 17552 H 1694.97 -1.71818 -2.74336 0
M  V30 17553 H 1693.87 -3.51514 -1.28018 0
M  V30 17554 H 1695.21 -4.61807 -1.70281 0
M  V30 17555 N 1696.86 0.307236 -1.54576 0
M  V30 17556 C 1697.79 1.38357 -1.88095 0
M  V30 17557 C 1698.77 1.53196 -0.739253 0
M  V30 17558 O 1699.95 1.66807 -0.99444 0
M  V30 17559 C 1697.08 2.74876 -2.12274 0
M  V30 17560 C 1696.04 2.74809 -3.28122 0
M  V30 17561 C 1695.36 4.14557 -3.37707 0
M  V30 17562 C 1696.66 2.37103 -4.65381 0
M  V30 17563 H 1698.36 1.10554 -2.78241 0
M  V30 17564 H 1695.9 0.530383 -1.33877 0
M  V30 17565 H 1697.86 3.50254 -2.34308 0
M  V30 17566 H 1696.58 3.04191 -1.18893 0
M  V30 17567 H 1695.24 2.01887 -3.06002 0
M  V30 17568 H 1694.89 4.41039 -2.41854 0
M  V30 17569 H 1694.59 4.15415 -4.15577 0
M  V30 17570 H 1696.11 4.91724 -3.61994 0
M  V30 17571 H 1697.53 3.02196 -4.87186 0
M  V30 17572 H 1695.92 2.49184 -5.45919 0
M  V30 17573 H 1696.99 1.32235 -4.66521 0
M  V30 17574 N 1698.34 1.46926 0.570122 0
M  V30 17575 C 1699.58 1.52585 1.32523 0
M  V30 17576 C 1699.91 0.184291 1.94127 0
M  V30 17577 O 1699.18 -0.790478 1.79244 0
M  V30 17578 H 1697.76 0.562019 0.492081 0
M  V30 17579 H 1700.42 1.83141 0.666746 0
M  V30 17580 H 1699.51 2.28541 2.12545 0
M  V30 17581 N 1699.82 -0.815801 1.34842 0
M  V30 17582 C 1701.06 -1.56747 1.26938 0
M  V30 17583 C 1701.38 -1.9497 -0.156887 0
M  V30 17584 O 1702.58 -2.69128 -0.358132 0
M  V30 17585 C 1701.04 -2.82832 2.22562 0
M  V30 17586 C 1700.65 -2.51883 3.70485 0
M  V30 17587 C 1702.39 -3.60849 2.23581 0
M  V30 17588 C 1700.3 -3.74204 4.57957 0
M  V30 17589 H 1699.23 -0.58832 0.471588 0
M  V30 17590 H 1701.88 -0.897551 1.60051 0
M  V30 17591 H 1700.26 -3.51486 1.8241 0
M  V30 17592 H 1701.44 -1.91294 4.19217 0
M  V30 17593 H 1699.75 -1.87129 3.71983 0
M  V30 17594 H 1702.35 -4.51686 2.86154 0
M  V30 17595 H 1702.69 -3.97496 1.23703 0
M  V30 17596 H 1703.22 -2.99146 2.62215 0
M  V30 17597 H 1699.96 -3.42672 5.58799 0
M  V30 17598 H 1699.48 -4.34051 4.13956 0
M  V30 17599 H 1701.16 -4.41536 4.72921 0
M  V30 17600 N 1701.29 -1.18689 -1.03686 0
M  V30 17601 C 1702.24 -0.885273 -2.10112 0
M  V30 17602 C 1703.23 0.146598 -1.60231 0
M  V30 17603 O 1704.42 -0.0579783 -1.76905 0
M  V30 17604 C 1701.55 -0.416977 -3.40758 0
M  V30 17605 C 1700.63 -1.48114 -3.97396 0
M  V30 17606 N 1701.03 -2.69857 -4.27798 0
M  V30 17607 C 1699.32 -1.34255 -4.25314 0
M  V30 17608 C 1700.02 -3.38349 -4.73175 0
M  V30 17609 N 1699 -2.65735 -4.74222 0
M  V30 17610 H 1702.8 -1.81067 -2.31499 0
M  V30 17611 H 1700.32 -1.07786 -1.21474 0
M  V30 17612 H 1702.31 -0.182385 -4.16501 0
M  V30 17613 H 1700.97 0.502036 -3.20795 0
M  V30 17614 H 1701.98 -3.0669 -4.17327 0
M  V30 17615 H 1698.66 -0.486374 -4.14657 0
M  V30 17616 H 1700.05 -4.42415 -5.05686 0
M  V30 17617 N 1702.77 1.22662 -0.989529 0
M  V30 17618 C 1704.18 1.73116 -0.699124 0
M  V30 17619 C 1704.53 1.79847 0.784197 0
M  V30 17620 O 1703.66 1.44248 1.61311 0
M  V30 17621 C 1704.25 3.14403 -1.2624 0
M  V30 17622 C 1702.81 3.62275 -1.02144 0
M  V30 17623 C 1701.96 2.40257 -1.38463 0
M  V30 17624 H 1704.91 1.08057 -1.1623 0
M  V30 17625 H 1704.93 3.75091 -0.639307 0
M  V30 17626 H 1704.44 3.09472 -2.34198 0
M  V30 17627 H 1702.54 3.72577 0.0416622 0
M  V30 17628 H 1702.66 4.48587 -1.68245 0
M  V30 17629 H 1701.02 2.41705 -0.803179 0
M  V30 17630 H 1701.8 2.3799 -2.47418 0
M  V30 17631 N 1704.25 0.762308 1.37937 0
M  V30 17632 C 1705.48 0.332974 2.03899 0
M  V30 17633 C 1705.89 -1.04654 1.57621 0
M  V30 17634 O 1705.23 -1.67759 0.748504 0
M  V30 17635 C 1705.29 0.286844 3.58354 0
M  V30 17636 C 1704.96 1.60936 4.27725 0
M  V30 17637 C 1705.95 2.56012 4.52497 0
M  V30 17638 C 1703.64 1.88119 4.65743 0
M  V30 17639 C 1705.63 3.76486 5.14332 0
M  V30 17640 C 1703.32 3.08865 5.273 0
M  V30 17641 C 1704.32 4.02868 5.51531 0
M  V30 17642 O 1704.01 5.2149 6.11804 0
M  V30 17643 H 1703.74 0.138852 0.661586 0
M  V30 17644 H 1706.29 1.0346 1.77441 0
M  V30 17645 H 1704.52 -0.471086 3.8382 0
M  V30 17646 H 1706.21 -0.114146 4.05739 0
M  V30 17647 H 1706.98 2.36289 4.23547 0
M  V30 17648 H 1702.86 1.15783 4.46223 0
M  V30 17649 H 1706.4 4.49873 5.33161 0
M  V30 17650 H 1702.3 3.28477 5.55673 0
M  V30 17651 H 1703.06 5.22188 6.30287 0
M  V30 17652 N 1705.73 -1.49049 0.51208 0
M  V30 17653 C 1706.98 -2.0208 -0.0284326 0
M  V30 17654 C 1707.3 -1.39303 -1.36454 0
M  V30 17655 O 1706.57 -0.552155 -1.87958 0
M  V30 17656 H 1705.15 -0.746878 -0.0134968 0
M  V30 17657 H 1707.81 -1.82954 0.671842 0
M  V30 17658 H 1706.9 -3.11739 -0.149966 0
M  V30 17659 N 1707.21 -0.246397 -1.55662 0
M  V30 17660 C 1708.16 0.667276 -2.18017 0
M  V30 17661 C 1709.14 1.13957 -1.1359 0
M  V30 17662 O 1710.33 1.08942 -1.39501 0
M  V30 17663 C 1707.46 1.86414 -2.88279 0
M  V30 17664 C 1706.55 1.41037 -3.99962 0
M  V30 17665 N 1706.94 0.670796 -5.01332 0
M  V30 17666 C 1705.24 1.69569 -4.12507 0
M  V30 17667 C 1705.94 0.43594 -5.80064 0
M  V30 17668 N 1704.91 1 -5.34323 0
M  V30 17669 H 1708.71 0.0940693 -2.93749 0
M  V30 17670 H 1706.23 -0.048692 -1.62327 0
M  V30 17671 H 1708.23 2.5297 -3.31379 0
M  V30 17672 H 1706.89 2.44158 -2.14049 0
M  V30 17673 H 1707.9 0.320958 -5.16905 0
M  V30 17674 H 1704.57 2.28455 -3.49449 0
M  V30 17675 H 1705.96 -0.154438 -6.71722 0
M  V30 17676 N 1708.68 1.57577 0.026722 0
M  V30 17677 C 1709.62 2.03515 1.05424 0
M  V30 17678 C 1710.63 0.948362 1.32325 0
M  V30 17679 O 1711.82 1.22563 1.29771 0
M  V30 17680 C 1708.92 2.39744 2.39533 0
M  V30 17681 C 1708.09 3.70832 2.31954 0
M  V30 17682 C 1707.15 3.94224 3.48531 0
M  V30 17683 O 1706.18 4.6525 3.27919 0
M  V30 17684 N 1707.38 3.40044 4.70479 0
M  V30 17685 H 1710.14 2.92282 0.662678 0
M  V30 17686 H 1707.7 1.60471 0.214623 0
M  V30 17687 H 1709.7 2.52529 3.16245 0
M  V30 17688 H 1708.27 1.56636 2.70525 0
M  V30 17689 H 1707.49 3.68378 1.40325 0
M  V30 17690 H 1708.77 4.56821 2.24035 0
M  V30 17691 H 1708.17 2.82478 4.90125 0
M  V30 17692 H 1706.73 3.58205 5.44548 0
M  V30 17693 N 1710.16 -0.299034 1.54737 0
M  V30 17694 C 1711.57 -0.871897 1.6509 0
M  V30 17695 C 1711.92 -1.88013 0.560843 0
M  V30 17696 O 1711.05 -2.1428 -0.302194 0
M  V30 17697 C 1711.64 -1.5882 2.99269 0
M  V30 17698 C 1710.2 -2.10944 3.11736 0
M  V30 17699 C 1709.35 -0.942776 2.60782 0
M  V30 17700 H 1712.3 -0.0759883 1.58518 0
M  V30 17701 H 1712.32 -2.45387 2.90802 0
M  V30 17702 H 1711.83 -0.854144 3.78584 0
M  V30 17703 H 1709.93 -2.87391 2.37144 0
M  V30 17704 H 1710.05 -2.34262 4.17921 0
M  V30 17705 H 1708.41 -1.3289 2.17284 0
M  V30 17706 H 1709.19 -0.222646 3.42577 0
M  V30 17707 N 1711.64 -1.47227 -0.562322 0
M  V30 17708 C 1712.87 -1.57196 -1.34526 0
M  V30 17709 C 1713.28 -0.220303 -1.8751 0
M  V30 17710 O 1712.64 0.785664 -1.64723 0
M  V30 17711 C 1712.69 -2.59312 -2.51872 0
M  V30 17712 O 1712.41 -3.89229 -2.01078 0
M  V30 17713 C 1713.91 -2.79416 -3.44153 0
M  V30 17714 H 1711.13 -0.530971 -0.410257 0
M  V30 17715 H 1713.68 -1.92804 -0.68168 0
M  V30 17716 H 1711.83 -2.26652 -3.14178 0
M  V30 17717 H 1712.25 -4.44985 -2.77648 0
M  V30 17718 H 1713.72 -3.54743 -4.2292 0
M  V30 17719 H 1714.2 -1.87054 -3.97376 0
M  V30 17720 H 1714.8 -3.13254 -2.87667 0
M  V30 17721 N 1713.12 0.808639 -1.35273 0
M  V30 17722 C 1714.08 1.90195 -1.279 0
M  V30 17723 C 1715.08 1.59663 -0.190915 0
M  V30 17724 O 1716.27 1.68434 -0.444482 0
M  V30 17725 C 1713.4 3.26567 -0.978106 0
M  V30 17726 H 1714.6 1.98152 -2.25113 0
M  V30 17727 H 1712.15 1.00426 -1.19767 0
M  V30 17728 H 1712.88 3.24299 -0.00975789 0
M  V30 17729 H 1712.67 3.50114 -1.7653 0
M  V30 17730 H 1714.16 4.06602 -0.95207 0
M  V30 17731 N 1714.6 1.19237 1.03055 0
M  V30 17732 C 1715.56 0.930536 2.0946 0
M  V30 17733 C 1716.56 -0.0882907 1.60557 0
M  V30 17734 O 1717.75 0.146269 1.73585 0
M  V30 17735 C 1714.88 0.398165 3.38567 0
M  V30 17736 H 1716.07 1.87422 2.34122 0
M  V30 17737 H 1713.63 1.00579 1.19639 0
M  V30 17738 H 1714.36 -0.551646 3.19574 0
M  V30 17739 H 1714.15 1.13273 3.75382 0
M  V30 17740 H 1715.64 0.234006 4.16944 0
M  V30 17741 N 1716.07 -1.22136 0.99602 0
M  V30 17742 C 1717.32 -1.90967 0.673634 0
M  V30 17743 C 1717.65 -1.77526 -0.794654 0
M  V30 17744 O 1716.9 -1.14014 -1.59058 0
M  V30 17745 C 1717.2 -3.42259 1.02926 0
M  V30 17746 C 1716.87 -3.75891 2.49032 0
M  V30 17747 C 1715.53 -3.84781 2.88959 0
M  V30 17748 C 1717.88 -3.91799 3.43719 0
M  V30 17749 C 1715.21 -4.0702 4.22554 0
M  V30 17750 C 1717.56 -4.15543 4.76977 0
M  V30 17751 C 1716.23 -4.22658 5.1664 0
M  V30 17752 H 1715.5 -0.698798 0.2465 0
M  V30 17753 H 1718.14 -1.44836 1.25279 0
M  V30 17754 H 1716.45 -3.90066 0.368224 0
M  V30 17755 H 1718.15 -3.93774 0.757803 0
M  V30 17756 H 1714.74 -3.69556 2.17086 0
M  V30 17757 H 1718.92 -3.84306 3.14042 0
M  V30 17758 H 1714.18 -4.10756 4.52868 0
M  V30 17759 H 1718.35 -4.26796 5.50289 0
M  V30 17760 H 1715.98 -4.39643 6.20176 0
M  V30 17761 N 1717.55 -0.769612 -1.37531 0
M  V30 17762 C 1718.78 -0.343069 -2.04543 0
M  V30 17763 C 1719.2 1.02583 -1.57665 0
M  V30 17764 O 1718.56 1.65692 -0.735915 0
M  V30 17765 C 1718.61 -0.392914 -3.58453 0
M  V30 17766 O 1717.71 0.607401 -4.07902 0
M  V30 17767 H 1717.05 -0.148905 -0.647088 0
M  V30 17768 H 1719.58 -1.04521 -1.75888 0
M  V30 17769 H 1719.59 -0.24945 -4.07237 0
M  V30 17770 H 1718.27 -1.39159 -3.91928 0
M  V30 17771 H 1716.85 0.427231 -3.70445 0
M  V30 17772 N 1719.03 1.48775 -0.519977 0
M  V30 17773 C 1719.98 2.29461 0.248242 0
M  V30 17774 C 1720.95 1.36734 0.943027 0
M  V30 17775 O 1722.13 1.65697 0.946003 0
M  V30 17776 C 1719.27 3.19868 1.29531 0
M  V30 17777 C 1718.39 4.27666 0.610379 0
M  V30 17778 C 1717.52 5.05266 1.63951 0
M  V30 17779 C 1716.56 6.04878 0.937496 0
M  V30 17780 N 1715.7 6.75573 1.91171 0
M  V30 17781 H 1720.54 2.94643 -0.446016 0
M  V30 17782 H 1718.07 1.45262 -0.231792 0
M  V30 17783 H 1720.03 3.70675 1.91456 0
M  V30 17784 H 1718.66 2.5663 1.95808 0
M  V30 17785 H 1717.71 3.80202 -0.122598 0
M  V30 17786 H 1719.03 4.98765 0.0586864 0
M  V30 17787 H 1718.18 5.60037 2.33332 0
M  V30 17788 H 1716.92 4.33983 2.22509 0
M  V30 17789 H 1715.92 5.49321 0.229562 0
M  V30 17790 H 1717.15 6.78155 0.358166 0
M  V30 17791 H 1715.09 6.07048 2.48655 0
M  V30 17792 H 1715.01 7.42712 1.41118 0
M  V30 17793 H 1716.28 7.34938 2.59781 0
M  V30 17794 N 1720.51 0.254649 1.55529 0
M  V30 17795 C 1721.46 -0.657787 2.23105 0
M  V30 17796 C 1722.45 -1.17402 1.22119 0
M  V30 17797 O 1723.66 -1.13002 1.40109 0
M  V30 17798 H 1720.03 -0.230628 0.715762 0
M  V30 17799 H 1722 -0.0647759 2.9833 0
M  V30 17800 C 1720.75 -1.84018 2.95013 0
M  V30 17801 H 1720.07 -1.45211 3.72497 0
M  V30 17802 H 1721.51 -2.45568 3.45648 0
M  V30 17803 C 1719.97 -2.7161 1.99322 0
M  V30 17804 O 1720.5 -3.7137 1.53125 0
M  V30 17805 N 1718.71 -2.38342 1.66258 0
M  V30 17806 H 1718.26 -1.57268 2.04021 0
M  V30 17807 H 1718.21 -2.97222 1.025 0
M  V30 17808 N 1721.99 -1.57589 -0.0183649 0
M  V30 17809 C 1722.93 -2.07252 -1.01563 0
M  V30 17810 C 1723.9 -0.963941 -1.35268 0
M  V30 17811 O 1725.09 -1.2352 -1.45421 0
M  V30 17812 C 1722.23 -2.56548 -2.30818 0
M  V30 17813 C 1721.34 -3.81238 -2.03178 0
M  V30 17814 C 1720.48 -4.19105 -3.26381 0
M  V30 17815 C 1719.52 -5.36682 -2.94344 0
M  V30 17816 N 1718.65 -5.6993 -4.1003 0
M  V30 17817 H 1723.49 -2.92198 -0.585179 0
M  V30 17818 H 1721.03 -1.44462 -0.27731 0
M  V30 17819 H 1722.99 -2.832 -3.06355 0
M  V30 17820 H 1721.62 -1.74504 -2.71566 0
M  V30 17821 H 1720.67 -3.61606 -1.1809 0
M  V30 17822 H 1721.98 -4.66886 -1.75552 0
M  V30 17823 H 1721.14 -4.46942 -4.10278 0
M  V30 17824 H 1719.87 -3.32129 -3.57129 0
M  V30 17825 H 1718.88 -5.08587 -2.08851 0
M  V30 17826 H 1720.1 -6.2532 -2.64862 0
M  V30 17827 H 1718.05 -4.85913 -4.40709 0
M  V30 17828 H 1717.97 -6.50111 -3.85865 0
M  V30 17829 H 1719.24 -6.02349 -4.94768 0
M  V30 17830 N 1723.46 0.290824 -1.54893 0
M  V30 17831 C 1724.71 1.02627 -1.74916 0
M  V30 17832 C 1725.04 1.86572 -0.538921 0
M  V30 17833 O 1724.32 1.88888 0.463844 0
M  V30 17834 C 1724.6 1.92376 -3.04407 0
M  V30 17835 C 1724.45 1.11542 -4.3575 0
M  V30 17836 C 1725.77 2.91383 -3.29824 0
M  V30 17837 H 1722.89 0.371685 -0.636411 0
M  V30 17838 H 1725.53 0.300072 -1.87615 0
M  V30 17839 H 1723.68 2.54295 -2.93711 0
M  V30 17840 H 1725.36 0.518312 -4.58379 0
M  V30 17841 H 1723.6 0.418386 -4.31778 0
M  V30 17842 H 1724.27 1.77616 -5.22644 0
M  V30 17843 H 1726.75 2.39595 -3.40196 0
M  V30 17844 H 1725.62 3.51338 -4.21726 0
M  V30 17845 H 1725.88 3.65579 -2.48606 0
M  V30 17846 N 1724.94 1.47523 0.554506 0
M  V30 17847 C 1726.35 1.48114 1.13662 0
M  V30 17848 C 1726.7 0.237321 1.94759 0
M  V30 17849 O 1725.83 -0.657558 2.06168 0
M  V30 17850 C 1726.42 2.68366 2.06797 0
M  V30 17851 C 1724.98 2.71908 2.60274 0
M  V30 17852 C 1724.13 2.41258 1.3671 0
M  V30 17853 H 1727.08 1.54994 0.34097 0
M  V30 17854 H 1727.1 2.4549 2.90714 0
M  V30 17855 H 1726.61 3.58877 1.47745 0
M  V30 17856 H 1724.72 1.85543 3.23117 0
M  V30 17857 H 1724.83 3.72673 3.01084 0
M  V30 17858 H 1723.19 1.91897 1.67474 0
M  V30 17859 H 1723.98 3.3398 0.794476 0
M  V30 17860 N 1726.42 -0.801453 1.357 0
M  V30 17861 C 1727.65 -1.59518 1.32547 0
M  V30 17862 C 1728.07 -1.87868 -0.0934243 0
M  V30 17863 O 1727.43 -1.46955 -1.06179 0
M  V30 17864 C 1727.48 -2.90028 2.14281 0
M  V30 17865 O 1726.58 -3.83086 1.52704 0
M  V30 17866 H 1725.92 -0.48434 0.454215 0
M  V30 17867 H 1728.45 -0.994315 1.78814 0
M  V30 17868 H 1728.46 -3.39406 2.26423 0
M  V30 17869 H 1727.14 -2.6872 3.17431 0
M  V30 17870 H 1725.71 -3.4165 1.49432 0
M  V30 17871 N 1727.9 -1.19782 -1.02421 0
M  V30 17872 C 1729.31 -0.951034 -1.2817 0
M  V30 17873 C 1729.51 0.373883 -1.98001 0
M  V30 17874 O 1728.57 1.10427 -2.27073 0
M  V30 17875 C 1729.88 -2.12833 -2.12421 0
M  V30 17876 C 1731.43 -2.16847 -2.25713 0
M  V30 17877 C 1731.91 -3.34041 -3.13337 0
M  V30 17878 N 1733.4 -3.34007 -3.20926 0
M  V30 17879 C 1734.13 -4.21333 -3.88929 0
M  V30 17880 N 1733.63 -5.18823 -4.59123 0
M  V30 17881 N 1735.42 -4.09197 -3.85376 0
M  V30 17882 H 1727.57 -2.05017 -0.555122 0
M  V30 17883 H 1729.84 -0.896717 -0.307576 0
M  V30 17884 H 1729.54 -3.08742 -1.68437 0
M  V30 17885 H 1729.42 -2.10288 -3.13143 0
M  V30 17886 H 1731.8 -1.21506 -2.68924 0
M  V30 17887 H 1731.88 -2.23444 -1.24525 0
M  V30 17888 H 1731.53 -4.29665 -2.70833 0
M  V30 17889 H 1731.46 -3.24682 -4.14595 0
M  V30 17890 H 1733.95 -2.63441 -2.70938 0
M  V30 17891 H 1734.26 -5.81796 -5.08658 0
M  V30 17892 H 1732.61 -5.22767 -4.57973 0
M  V30 17893 H 1735.8 -3.32308 -3.2968 0
M  V30 17894 H 1735.97 -4.77465 -4.38099 0
M  V30 17895 N 1729.38 1.21606 -1.00248 0
M  V30 17896 C 1730.29 2.2757 -0.570004 0
M  V30 17897 C 1731.3 1.69669 0.385788 0
M  V30 17898 O 1732.48 1.99839 0.250246 0
M  V30 17899 C 1729.54 3.46558 0.0990566 0
M  V30 17900 C 1728.61 4.19741 -0.9009 0
M  V30 17901 C 1727.84 5.33048 -0.263673 0
M  V30 17902 O 1728.06 5.62599 0.940131 0
M  V30 17903 O 1727 5.93978 -0.973342 0
M  V30 17904 H 1730.82 2.66751 -1.45182 0
M  V30 17905 H 1728.41 1.27955 -0.771224 0
M  V30 17906 H 1730.29 4.18733 0.47339 0
M  V30 17907 H 1728.96 3.09283 0.955285 0
M  V30 17908 H 1727.87 3.49798 -1.32634 0
M  V30 17909 H 1729.2 4.60921 -1.72664 0
M  V30 17910 N 1730.86 0.776895 1.37121 0
M  V30 17911 C 1732.27 0.408311 1.8218 0
M  V30 17912 C 1732.62 -1.06621 1.64701 0
M  V30 17913 O 1731.74 -1.82621 1.16097 0
M  V30 17914 C 1732.34 0.734339 3.30746 0
M  V30 17915 C 1730.9 0.418746 3.74063 0
M  V30 17916 C 1730.04 0.97551 2.59575 0
M  V30 17917 H 1732.99 0.971111 1.25519 0
M  V30 17918 H 1733.02 0.0208557 3.80494 0
M  V30 17919 H 1732.53 1.80757 3.43436 0
M  V30 17920 H 1730.63 -0.646961 3.6694 0
M  V30 17921 H 1730.74 0.930597 4.69975 0
M  V30 17922 H 1729.11 0.399449 2.51548 0
M  V30 17923 H 1729.89 2.05425 2.75056 0
M  V30 17924 N 1732.33 -1.48497 0.527859 0
M  V30 17925 C 1733.58 -2.02799 -0.00702196 0
M  V30 17926 C 1733.91 -1.40433 -1.34135 0
M  V30 17927 O 1733.19 -0.54934 -1.86581 0
M  V30 17928 C 1733.47 -3.59861 -0.131272 0
M  V30 17929 C 1733.32 -4.32711 1.22807 0
M  V30 17930 C 1734.64 -4.31634 -0.85908 0
M  V30 17931 H 1731.76 -0.736999 -0.00107787 0
M  V30 17932 H 1734.4 -1.77242 0.684478 0
M  V30 17933 H 1732.55 -3.81766 -0.720216 0
M  V30 17934 H 1734.23 -4.22229 1.85796 0
M  V30 17935 H 1732.47 -3.94212 1.8105 0
M  V30 17936 H 1733.14 -5.41047 1.09415 0
M  V30 17937 H 1735.62 -4.14546 -0.359322 0
M  V30 17938 H 1734.49 -5.41221 -0.914911 0
M  V30 17939 H 1734.75 -3.98765 -1.90889 0
M  V30 17940 N 1733.81 -0.262893 -1.55392 0
M  V30 17941 C 1735.06 0.357939 -1.98499 0
M  V30 17942 C 1735.37 1.5789 -1.15456 0
M  V30 17943 O 1736.58 2.2719 -1.4865 0
M  V30 17944 C 1735.04 0.688205 -3.53259 0
M  V30 17945 C 1734.64 -0.512257 -4.45062 0
M  V30 17946 C 1736.39 1.27234 -4.04984 0
M  V30 17947 C 1734.29 -0.157257 -5.91191 0
M  V30 17948 H 1733.22 0.137514 -0.741354 0
M  V30 17949 H 1735.88 -0.365626 -1.79821 0
M  V30 17950 H 1734.26 1.47034 -3.67692 0
M  V30 17951 H 1735.43 -1.28935 -4.42394 0
M  V30 17952 H 1733.75 -1.0124 -4.03905 0
M  V30 17953 H 1736.34 1.55155 -5.11694 0
M  V30 17954 H 1736.69 2.20217 -3.53285 0
M  V30 17955 H 1737.22 0.552763 -3.93941 0
M  V30 17956 H 1733.96 -1.05464 -6.4696 0
M  V30 17957 H 1733.48 0.583319 -5.96957 0
M  V30 17958 H 1735.16 0.254892 -6.46498 0
M  V30 17959 N 1735.29 1.57597 0.0100073 0
M  V30 17960 C 1736.54 1.89754 0.695559 0
M  V30 17961 C 1736.86 0.862983 1.74865 0
M  V30 17962 O 1736.13 -0.100949 1.9564 0
M  V30 17963 H 1734.71 0.700331 0.259895 0
M  V30 17964 H 1737.37 1.94879 -0.0285521 0
M  V30 17965 H 1736.47 2.89213 1.17313 0
M  V30 17966 N 1736.77 -0.282606 1.55045 0
M  V30 17967 C 1737.72 -1.36902 1.88044 0
M  V30 17968 C 1738.71 -1.51603 0.755845 0
M  V30 17969 O 1739.92 -1.53501 0.940074 0
M  V30 17970 H 1736.29 -0.457666 0.596696 0
M  V30 17971 H 1738.26 -1.06317 2.78818 0
M  V30 17972 C 1737.01 -2.72426 2.16054 0
M  V30 17973 H 1736.33 -2.61903 3.02071 0
M  V30 17974 H 1737.77 -3.47409 2.43071 0
M  V30 17975 C 1736.23 -3.22784 0.964996 0
M  V30 17976 O 1736.76 -4.01228 0.194759 0
M  V30 17977 N 1734.97 -2.80341 0.765322 0
M  V30 17978 H 1734.52 -2.16665 1.39335 0
M  V30 17979 H 1734.47 -3.14383 -0.0330026 0
M  V30 17980 N 1738.25 -1.47815 -0.546675 0
M  V30 17981 C 1739.49 -1.56566 -1.31402 0
M  V30 17982 C 1739.85 -0.227101 -1.90652 0
M  V30 17983 O 1741.05 -0.189506 -2.68131 0
M  V30 17984 C 1739.32 -2.6603 -2.38669 0
M  V30 17985 S 1740.88 -2.94436 -3.25351 0
M  V30 17986 H 1737.7 -0.552748 -0.447203 0
M  V30 17987 H 1740.3 -1.85251 -0.624688 0
M  V30 17988 H 1739 -3.6187 -1.93593 0
M  V30 17989 H 1738.54 -2.39193 -3.1233 0
M  V30 17990 H 1740.55 -2.32455 -4.38382 0
M  V30 17991 N 1739.72 0.794246 -1.36123 0
M  V30 17992 C 1740.66 1.91303 -1.24412 0
M  V30 17993 C 1741.63 1.62085 -0.129318 0
M  V30 17994 O 1742.82 1.86104 -0.299599 0
M  V30 17995 C 1739.95 3.26009 -0.918476 0
M  V30 17996 C 1738.99 3.74163 -2.04705 0
M  V30 17997 S 1739.82 3.90497 -3.66432 0
M  V30 17998 C 1740.98 5.28086 -3.3597 0
M  V30 17999 H 1741.21 2.00944 -2.19109 0
M  V30 18000 H 1738.75 0.952959 -1.21483 0
M  V30 18001 H 1740.7 4.03823 -0.737402 0
M  V30 18002 H 1739.37 3.14098 0.0106309 0
M  V30 18003 H 1738.56 4.7176 -1.77365 0
M  V30 18004 H 1738.16 3.03384 -2.1871 0
M  V30 18005 H 1740.45 6.12502 -2.89564 0
M  V30 18006 H 1741.4 5.60427 -4.32813 0
M  V30 18007 H 1741.8 4.94958 -2.71436 0
M  V30 18008 N 1741.2 1.20323 1.01785 0
M  V30 18009 C 1742.48 0.921703 1.72522 0
M  V30 18010 C 1742.86 -0.569838 2.03264 0
M  V30 18011 O 1742.21 -1.53115 1.69611 0
M  V30 18012 C 1742.42 1.79335 2.99399 0
M  V30 18013 C 1743.76 2.03442 3.72688 0
M  V30 18014 O 1744.79 1.76578 3.09352 0
M  V30 18015 O 1743.65 2.48803 4.86579 0
M  V30 18016 H 1740.74 0.344505 0.751828 0
M  V30 18017 H 1743.29 1.31191 1.07644 0
M  V30 18018 H 1742.06 2.80339 2.72994 0
M  V30 18019 H 1741.68 1.40314 3.72018 0
M  V30 18020 N 1742.68 -1.21073 1.00892 0
M  V30 18021 C 1744.1 -1.42314 0.72242 0
M  V30 18022 C 1744.3 -1.88917 -0.700908 0
M  V30 18023 O 1743.35 -2.05318 -1.46973 0
M  V30 18024 C 1744.66 -2.4513 1.74161 0
M  V30 18025 C 1746.21 -2.58907 1.75887 0
M  V30 18026 C 1746.69 -3.64959 2.76711 0
M  V30 18027 N 1748.18 -3.72434 2.75404 0
M  V30 18028 C 1748.91 -4.54129 3.50077 0
M  V30 18029 N 1748.41 -5.39691 4.34403 0
M  V30 18030 N 1750.2 -4.48589 3.38709 0
M  V30 18031 H 1742.35 -0.891353 1.92792 0
M  V30 18032 H 1744.62 -0.45372 0.832371 0
M  V30 18033 H 1744.32 -2.17868 2.76091 0
M  V30 18034 H 1744.2 -3.43996 1.54746 0
M  V30 18035 H 1746.58 -2.85503 0.746455 0
M  V30 18036 H 1746.66 -1.60261 1.99374 0
M  V30 18037 H 1746.31 -3.39107 3.78112 0
M  V30 18038 H 1746.24 -4.63209 2.50489 0
M  V30 18039 H 1748.73 -3.11311 2.14228 0
M  V30 18040 H 1749.04 -5.99092 4.88168 0
M  V30 18041 H 1747.39 -5.39219 4.38484 0
M  V30 18042 H 1750.58 -3.80778 2.7226 0
M  V30 18043 H 1750.75 -5.12023 3.97161 0
M  V30 18044 N 1744.16 -0.784156 -1.36707 0
M  V30 18045 C 1745.38 -0.364744 -2.04168 0
M  V30 18046 C 1745.81 1.00905 -1.58745 0
M  V30 18047 O 1745.17 1.64903 -0.753447 0
M  V30 18048 C 1745.21 -0.43091 -3.58016 0
M  V30 18049 O 1744.32 0.564103 -4.08524 0
M  V30 18050 H 1743.66 -0.15576 -0.645473 0
M  V30 18051 H 1746.19 -1.0638 -1.74769 0
M  V30 18052 H 1746.2 -0.292629 -4.06949 0
M  V30 18053 H 1744.87 -1.43308 -3.9043 0
M  V30 18054 H 1743.45 0.387917 -3.70877 0
M  V30 18055 N 1745.64 1.48215 -0.535727 0
M  V30 18056 C 1746.86 2.07399 -0.00589172 0
M  V30 18057 C 1747.29 1.38886 1.26856 0
M  V30 18058 O 1746.64 0.456684 1.75454 0
M  V30 18059 C 1746.69 3.60071 0.195203 0
M  V30 18060 O 1745.8 3.92596 1.26261 0
M  V30 18061 H 1745.14 0.662689 -0.0416988 0
M  V30 18062 H 1747.67 1.90543 -0.745281 0
M  V30 18063 H 1747.68 4.05873 0.416085 0
M  V30 18064 H 1746.35 4.0934 -0.735747 0
M  V30 18065 H 1744.93 3.58567 1.02393 0
M  V30 18066 N 1747.11 0.27113 1.5525 0
M  V30 18067 C 1748.53 -0.2274 1.8531 0
M  V30 18068 C 1748.88 -1.55752 1.19314 0
M  V30 18069 O 1748 -2.11008 0.480046 0
M  V30 18070 C 1748.6 -0.419382 3.36194 0
M  V30 18071 C 1747.16 -0.862149 3.66393 0
M  V30 18072 C 1746.3 0.0468534 2.7726 0
M  V30 18073 H 1749.25 0.493032 1.50847 0
M  V30 18074 H 1749.27 -1.25852 3.59084 0
M  V30 18075 H 1748.79 0.548856 3.84199 0
M  V30 18076 H 1746.89 -1.842 3.23884 0
M  V30 18077 H 1747 -0.702231 4.73926 0
M  V30 18078 H 1745.36 -0.468769 2.50349 0
M  V30 18079 H 1746.15 1.0109 3.28079 0
M  V30 18080 N 1748.59 -1.576 -0.00164943 0
M  V30 18081 C 1749.84 -1.9012 -0.685486 0
M  V30 18082 C 1750.16 -0.872245 -1.74404 0
M  V30 18083 O 1749.43 0.090572 -1.95691 0
M  V30 18084 H 1748.01 -0.701699 -0.256177 0
M  V30 18085 H 1750.67 -1.94861 0.0388866 0
M  V30 18086 H 1749.77 -2.89831 -1.15778 0
M  V30 18087 N 1750.07 0.274379 -1.55193 0
M  V30 18088 C 1751 1.36139 -1.84388 0
M  V30 18089 C 1752.02 1.45601 -0.728294 0
M  V30 18090 O 1753.2 1.47443 -1.00613 0
M  V30 18091 C 1750.3 2.74278 -1.9906 0
M  V30 18092 C 1749.48 2.87424 -3.29706 0
M  V30 18093 C 1748.54 4.06229 -3.34461 0
M  V30 18094 O 1747.56 3.97053 -4.07845 0
M  V30 18095 N 1748.76 5.18131 -2.61764 0
M  V30 18096 H 1751.53 1.1144 -2.78211 0
M  V30 18097 H 1749.09 0.464493 -1.55094 0
M  V30 18098 H 1751.08 3.52047 -1.99613 0
M  V30 18099 H 1749.65 2.91805 -1.1211 0
M  V30 18100 H 1748.87 1.96551 -3.41704 0
M  V30 18101 H 1750.16 2.93137 -4.15871 0
M  V30 18102 H 1749.56 5.28473 -2.01824 0
M  V30 18103 H 1748.12 5.94135 -2.68042 0
M  V30 18104 N 1751.55 1.48103 0.538828 0
M  V30 18105 C 1752.51 1.61495 1.62641 0
M  V30 18106 C 1753.51 0.488792 1.53191 0
M  V30 18107 O 1754.7 0.754355 1.57019 0
M  V30 18108 C 1751.83 1.57681 3.02241 0
M  V30 18109 H 1753.03 2.58462 1.5211 0
M  V30 18110 H 1750.58 1.36567 0.760201 0
M  V30 18111 H 1751.31 0.621583 3.18287 0
M  V30 18112 H 1751.1 2.3943 3.10509 0
M  V30 18113 H 1752.59 1.70228 3.81329 0
M  V30 18114 N 1753.03 -0.787016 1.36542 0
M  V30 18115 C 1754.27 -1.54728 1.311 0
M  V30 18116 C 1754.61 -1.93895 -0.108853 0
M  V30 18117 O 1753.88 -1.62896 -1.06278 0
M  V30 18118 C 1754.16 -2.82272 2.23594 0
M  V30 18119 C 1754.02 -2.49457 3.74287 0
M  V30 18120 C 1755.34 -3.84112 2.14816 0
M  V30 18121 H 1752.45 -0.561347 0.477555 0
M  V30 18122 H 1755.1 -0.904027 1.67115 0
M  V30 18123 H 1753.25 -3.37163 1.93011 0
M  V30 18124 H 1754.92 -2.00599 4.15401 0
M  V30 18125 H 1753.16 -1.82366 3.93605 0
M  V30 18126 H 1753.83 -3.40563 4.3442 0
M  V30 18127 H 1756.31 -3.38674 2.41741 0
M  V30 18128 H 1755.18 -4.71101 2.817 0
M  V30 18129 H 1755.45 -4.2725 1.13621 0
M  V30 18130 N 1754.5 -1.20861 -1.01145 0
M  V30 18131 C 1755.41 -0.977926 -2.13246 0
M  V30 18132 C 1756.43 0.0678862 -1.73868 0
M  V30 18133 O 1757.61 -0.120717 -2.01038 0
M  V30 18134 C 1754.67 -0.538575 -3.42491 0
M  V30 18135 C 1753.73 -1.65584 -3.96081 0
M  V30 18136 C 1752.97 -1.23736 -5.19158 0
M  V30 18137 O 1753.19 -0.108227 -5.70297 0
M  V30 18138 O 1752.12 -2.04679 -5.6603 0
M  V30 18139 H 1755.95 -1.91666 -2.3558 0
M  V30 18140 H 1753.53 -0.992931 -1.1163 0
M  V30 18141 H 1755.42 -0.303041 -4.20309 0
M  V30 18142 H 1754.09 0.371515 -3.21561 0
M  V30 18143 H 1753 -1.94572 -3.19519 0
M  V30 18144 H 1754.33 -2.54313 -4.21409 0
M  V30 18145 N 1755.98 1.20536 -1.01532 0
M  V30 18146 C 1756.91 2.2553 -0.604866 0
M  V30 18147 C 1757.89 1.65814 0.379452 0
M  V30 18148 O 1759.08 1.92381 0.265162 0
M  V30 18149 C 1756.21 3.4725 0.0589292 0
M  V30 18150 C 1755.16 4.19551 -0.846241 0
M  V30 18151 C 1754.49 5.34678 -0.0482901 0
M  V30 18152 C 1755.79 4.75829 -2.1537 0
M  V30 18153 H 1757.48 2.60117 -1.48254 0
M  V30 18154 H 1755.03 1.25035 -0.714297 0
M  V30 18155 H 1756.98 4.1988 0.357627 0
M  V30 18156 H 1755.71 3.11822 0.97131 0
M  V30 18157 H 1754.36 3.48785 -1.12892 0
M  V30 18158 H 1754.01 4.95494 0.8657 0
M  V30 18159 H 1753.71 5.83982 -0.651081 0
M  V30 18160 H 1755.24 6.10112 0.243983 0
M  V30 18161 H 1756.65 5.40284 -1.91745 0
M  V30 18162 H 1755.05 5.35564 -2.70723 0
M  V30 18163 H 1756.12 3.94641 -2.81756 0
M  V30 18164 N 1757.46 0.791395 1.36289 0
M  V30 18165 C 1758.87 0.427611 1.81737 0
M  V30 18166 C 1759.22 -1.04868 1.65822 0
M  V30 18167 O 1758.35 -1.81379 1.18028 0
M  V30 18168 C 1758.94 0.769378 3.29949 0
M  V30 18169 C 1757.5 0.458397 3.73598 0
M  V30 18170 C 1756.65 1.00299 2.58526 0
M  V30 18171 H 1759.6 0.98437 1.24482 0
M  V30 18172 H 1759.62 0.061211 3.80451 0
M  V30 18173 H 1759.13 1.8439 3.415 0
M  V30 18174 H 1757.23 -0.608006 3.67606 0
M  V30 18175 H 1757.35 0.980392 4.68962 0
M  V30 18176 H 1755.71 0.426106 2.5111 0
M  V30 18177 H 1756.49 2.08331 2.72861 0
M  V30 18178 N 1758.94 -1.47929 0.54358 0
M  V30 18179 C 1760.22 -1.95535 -0.0505687 0
M  V30 18180 C 1760.6 -1.48603 -1.49934 0
M  V30 18181 O 1759.94 -0.718655 -2.16905 0
M  V30 18182 C 1760.15 -3.48907 0.0807654 0
M  V30 18183 C 1761.5 -4.2454 -0.0715671 0
M  V30 18184 O 1762.53 -3.56199 0.007637 0
M  V30 18185 O 1761.39 -5.45975 -0.239596 0
M  V30 18186 H 1758.48 -0.823883 -0.0717396 0
M  V30 18187 H 1761.03 -1.58391 0.60914 0
M  V30 18188 H 1759.8 -3.75828 1.08944 0
M  V30 18189 H 1759.42 -3.92781 -0.617178 0
M  V30 18190 N 1760.42 -0.27936 -1.55104 0
M  V30 18191 C 1761.37 0.620882 -2.19383 0
M  V30 18192 C 1762.35 1.11522 -1.15981 0
M  V30 18193 O 1763.54 1.05959 -1.4178 0
M  V30 18194 C 1760.67 1.80257 -2.92168 0
M  V30 18195 C 1759.76 1.32522 -4.02863 0
M  V30 18196 N 1760.15 0.564305 -5.02642 0
M  V30 18197 C 1758.45 1.60781 -4.16011 0
M  V30 18198 C 1759.15 0.312802 -5.80858 0
M  V30 18199 N 1758.12 0.886439 -5.36324 0
M  V30 18200 H 1761.93 0.0317396 -2.93883 0
M  V30 18201 H 1759.44 -0.083113 -1.62187 0
M  V30 18202 H 1761.44 2.45884 -3.3667 0
M  V30 18203 H 1760.1 2.39562 -2.1918 0
M  V30 18204 H 1761.11 0.211243 -5.17469 0
M  V30 18205 H 1757.79 2.20991 -3.54216 0
M  V30 18206 H 1759.18 -0.296885 -6.71244 0
M  V30 18207 N 1761.9 1.57599 -0.0067085 0
M  V30 18208 C 1762.84 2.09973 1.00071 0
M  V30 18209 C 1763.84 1.02121 1.35158 0
M  V30 18210 O 1765.04 1.20579 1.33644 0
M  V30 18211 H 1761.42 0.670547 0.340398 0
M  V30 18212 H 1763.39 2.93593 0.533471 0
M  V30 18213 C 1762.14 2.62376 2.28153 0
M  V30 18214 H 1761.46 3.45002 2.02024 0
M  V30 18215 H 1762.9 3.02694 2.96905 0
M  V30 18216 C 1761.36 1.54093 2.99595 0
M  V30 18217 O 1761.89 0.927722 3.9084 0
M  V30 18218 N 1760.1 1.26676 2.61537 0
M  V30 18219 H 1759.64 1.76728 1.87417 0
M  V30 18220 H 1759.6 0.544464 3.0965 0
M  V30 18221 N 1763.37 -0.266145 1.55336 0
M  V30 18222 C 1764.62 -0.994862 1.75917 0
M  V30 18223 C 1764.94 -1.8657 0.567147 0
M  V30 18224 O 1764.21 -1.91394 -0.417738 0
M  V30 18225 H 1762.79 -0.370318 0.648748 0
M  V30 18226 H 1765.45 -0.288724 1.9275 0
M  V30 18227 H 1764.55 -1.62781 2.66287 0
M  V30 18228 N 1764.85 -1.48386 -0.530967 0
M  V30 18229 C 1765.78 -1.6573 -1.64486 0
M  V30 18230 C 1766.76 -0.506198 -1.62393 0
M  V30 18231 O 1767.95 -0.738623 -1.79605 0
M  V30 18232 C 1765.08 -1.69594 -3.03076 0
M  V30 18233 C 1764.03 -2.84195 -3.20027 0
M  V30 18234 C 1763.36 -2.73148 -4.59668 0
M  V30 18235 C 1764.66 -4.25504 -3.02892 0
M  V30 18236 H 1766.35 -2.58983 -1.50227 0
M  V30 18237 H 1763.9 -1.24633 -0.721286 0
M  V30 18238 H 1765.85 -1.80316 -3.80873 0
M  V30 18239 H 1764.57 -0.729193 -3.18356 0
M  V30 18240 H 1763.23 -2.73027 -2.44647 0
M  V30 18241 H 1762.88 -1.74444 -4.71782 0
M  V30 18242 H 1762.58 -3.50047 -4.71954 0
M  V30 18243 H 1764.11 -2.85836 -5.39565 0
M  V30 18244 H 1765.52 -4.37511 -3.70482 0
M  V30 18245 H 1763.92 -5.03393 -3.26673 0
M  V30 18246 H 1764.99 -4.42036 -1.99329 0
M  V30 18247 N 1766.33 0.779763 -1.36958 0
M  V30 18248 C 1767.58 1.53499 -1.31463 0
M  V30 18249 C 1767.9 1.94728 0.102869 0
M  V30 18250 O 1767.17 1.65688 1.0452 0
M  V30 18251 H 1765.75 0.5693 -0.483638 0
M  V30 18252 H 1768.41 0.928536 -1.7136 0
M  V30 18253 H 1767.51 2.4381 -1.94841 0
M  V30 18254 N 1767.81 1.21396 1.00503 0
M  V30 18255 C 1769.04 1.0556 1.77597 0
M  V30 18256 C 1769.45 -0.397591 1.84975 0
M  V30 18257 O 1768.79 -1.28764 1.31018 0
M  V30 18258 C 1768.85 1.57754 3.23039 0
M  V30 18259 C 1768.51 3.06214 3.39238 0
M  V30 18260 C 1769.51 4.03763 3.27523 0
M  V30 18261 C 1767.2 3.45418 3.6468 0
M  V30 18262 C 1769.19 5.38505 3.41015 0
M  V30 18263 C 1766.88 4.80312 3.77814 0
M  V30 18264 C 1767.88 5.76665 3.65988 0
M  V30 18265 O 1767.56 7.09111 3.78704 0
M  V30 18266 H 1767.3 0.371187 0.564975 0
M  V30 18267 H 1769.85 1.61186 1.27312 0
M  V30 18268 H 1768.08 0.965245 3.74459 0
M  V30 18269 H 1769.77 1.37762 3.81807 0
M  V30 18270 H 1770.53 3.74819 3.07791 0
M  V30 18271 H 1766.41 2.70954 3.72968 0
M  V30 18272 H 1769.96 6.13694 3.317 0
M  V30 18273 H 1765.85 5.08942 3.9705 0
M  V30 18274 H 1766.62 7.16521 3.95651 0
M  V30 18275 N 1769.29 -1.19996 1.0217 0
M  V30 18276 C 1770.7 -1.71202 0.744777 0
M  V30 18277 C 1771.05 -1.81862 -0.736238 0
M  V30 18278 O 1770.17 -1.48475 -1.5743 0
M  V30 18279 C 1770.77 -3.10945 1.34531 0
M  V30 18280 C 1769.33 -3.5944 1.11714 0
M  V30 18281 C 1768.47 -2.36501 1.44784 0
M  V30 18282 H 1771.42 -1.04938 1.19054 0
M  V30 18283 H 1771.45 -3.73264 0.738531 0
M  V30 18284 H 1770.96 -3.03154 2.42321 0
M  V30 18285 H 1769.06 -3.72556 0.0571346 0
M  V30 18286 H 1769.17 -4.43969 1.80079 0
M  V30 18287 H 1767.54 -2.3949 0.866981 0
M  V30 18288 H 1768.32 -2.31347 2.53641 0
M  V30 18289 N 1770.76 -0.798611 -1.35867 0
M  V30 18290 C 1771.73 -0.209177 -2.28243 0
M  V30 18291 C 1772.73 0.598842 -1.49233 0
M  V30 18292 O 1773.92 0.418491 -1.69098 0
M  V30 18293 C 1771.05 0.709336 -3.33438 0
M  V30 18294 H 1772.24 -1.02382 -2.81883 0
M  V30 18295 H 1769.79 -0.568687 -1.45587 0
M  V30 18296 H 1770.53 1.54797 -2.84971 0
M  V30 18297 H 1770.31 0.131756 -3.91879 0
M  V30 18298 H 1771.8 1.11632 -4.02403 0
M  V30 18299 N 1772.24 1.47639 -0.551417 0
M  V30 18300 C 1773.66 1.58202 -0.210768 0
M  V30 18301 C 1773.86 1.55078 1.28659 0
M  V30 18302 O 1772.91 1.45113 2.06636 0
M  V30 18303 C 1774.23 2.88952 -0.832294 0
M  V30 18304 C 1775.77 3.02524 -0.80299 0
M  V30 18305 C 1776.25 4.35966 -1.40348 0
M  V30 18306 N 1777.74 4.42587 -1.3664 0
M  V30 18307 C 1778.48 5.44391 -1.80072 0
M  V30 18308 N 1777.97 6.53037 -2.31332 0
M  V30 18309 N 1779.76 5.35401 -1.71178 0
M  V30 18310 H 1771.92 1.47912 -1.52433 0
M  V30 18311 H 1774.18 0.703607 -0.635328 0
M  V30 18312 H 1773.88 2.96958 -1.88439 0
M  V30 18313 H 1773.76 3.75824 -0.321915 0
M  V30 18314 H 1776.15 2.94119 0.240395 0
M  V30 18315 H 1776.23 2.17209 -1.35107 0
M  V30 18316 H 1775.87 4.45127 -2.4459 0
M  V30 18317 H 1775.8 5.20004 -0.830897 0
M  V30 18318 H 1778.29 3.64664 -0.991386 0
M  V30 18319 H 1778.6 7.26884 -2.62411 0
M  V30 18320 H 1776.95 6.53942 -2.35339 0
M  V30 18321 H 1780.14 4.49421 -1.30912 0
M  V30 18322 H 1780.31 6.14604 -2.05344 0
M  V30 18323 N 1773.72 0.287581 1.54954 0
M  V30 18324 C 1775.13 -0.207733 1.85541 0
M  V30 18325 C 1775.48 -1.54478 1.20959 0
M  V30 18326 O 1774.61 -2.10487 0.502399 0
M  V30 18327 C 1775.2 -0.383701 3.3662 0
M  V30 18328 C 1773.76 -0.82324 3.67287 0
M  V30 18329 C 1772.91 0.0762579 2.77195 0
M  V30 18330 H 1775.86 0.509004 1.50316 0
M  V30 18331 H 1775.88 -1.22036 3.60399 0
M  V30 18332 H 1775.39 0.589575 3.83596 0
M  V30 18333 H 1773.49 -1.80754 3.2582 0
M  V30 18334 H 1773.61 -0.651925 4.74644 0
M  V30 18335 H 1771.97 -0.44219 2.50832 0
M  V30 18336 H 1772.75 1.04564 3.26988 0
M  V30 18337 N 1775.2 -1.57593 0.0150662 0
M  V30 18338 C 1776.42 -1.95909 -0.68077 0
M  V30 18339 C 1776.85 -0.890813 -1.65669 0
M  V30 18340 O 1776.21 0.149663 -1.80681 0
M  V30 18341 C 1776.25 -3.33324 -1.37576 0
M  V30 18342 O 1775.36 -3.28694 -2.49066 0
M  V30 18343 H 1774.7 -0.639151 -0.179949 0
M  V30 18344 H 1777.23 -2.04471 0.0727403 0
M  V30 18345 H 1777.24 -3.69236 -1.73577 0
M  V30 18346 H 1775.91 -4.10625 -0.660305 0
M  V30 18347 H 1774.49 -3.0448 -2.15282 0
M  V30 18348 N 1776.68 0.257904 -1.55475 0
M  V30 18349 C 1777.92 0.988933 -1.77054 0
M  V30 18350 C 1778.26 1.85387 -0.578375 0
M  V30 18351 O 1777.53 1.8983 0.423673 0
M  V30 18352 C 1777.81 1.85876 -3.08419 0
M  V30 18353 C 1777.67 1.02274 -4.38018 0
M  V30 18354 C 1778.99 2.84322 -3.3593 0
M  V30 18355 H 1776.1 0.358103 -0.644152 0
M  V30 18356 H 1778.75 0.260209 -1.8821 0
M  V30 18357 H 1776.9 2.48008 -2.99039 0
M  V30 18358 H 1778.57 0.420967 -4.59375 0
M  V30 18359 H 1776.81 0.326705 -4.32568 0
M  V30 18360 H 1777.48 1.6649 -5.26294 0
M  V30 18361 H 1779.96 2.32325 -3.45202 0
M  V30 18362 H 1778.83 3.42313 -4.29084 0
M  V30 18363 H 1779.1 3.60223 -2.56304 0
M  V30 18364 N 1778.15 1.48666 0.52309 0
M  V30 18365 C 1779.1 1.60099 1.62334 0
M  V30 18366 C 1780.09 0.457736 1.54252 0
M  V30 18367 O 1781.28 0.709544 1.62156 0
M  V30 18368 C 1778.41 1.65029 3.01032 0
M  V30 18369 C 1777.5 2.84858 3.14192 0
M  V30 18370 N 1777.89 4.09198 2.97305 0
M  V30 18371 C 1776.18 2.82334 3.45259 0
M  V30 18372 C 1776.89 4.89631 3.14064 0
M  V30 18373 N 1775.86 4.22577 3.4195 0
M  V30 18374 H 1779.66 2.53975 1.47898 0
M  V30 18375 H 1777.18 1.45133 0.728714 0
M  V30 18376 H 1779.17 1.71315 3.80075 0
M  V30 18377 H 1777.83 0.722745 3.16554 0
M  V30 18378 H 1778.85 4.39527 2.73928 0
M  V30 18379 H 1775.52 1.98865 3.67095 0
M  V30 18380 H 1776.91 5.98335 3.05688 0
M  V30 18381 N 1779.63 -0.772489 1.37369 0
M  V30 18382 C 1780.54 -1.91679 1.35263 0
M  V30 18383 C 1781.56 -1.72161 0.252321 0
M  V30 18384 O 1782.73 -1.95409 0.487581 0
M  V30 18385 C 1779.8 -3.26792 1.15792 0
M  V30 18386 C 1778.86 -3.5897 2.35455 0
M  V30 18387 C 1778.09 -4.87636 2.16903 0
M  V30 18388 O 1778.32 -5.58627 1.15291 0
M  V30 18389 O 1777.25 -5.18859 3.05072 0
M  V30 18390 H 1781.08 -1.96408 2.31641 0
M  V30 18391 H 1778.66 -0.915136 1.18092 0
M  V30 18392 H 1780.54 -4.07611 1.06918 0
M  V30 18393 H 1779.22 -3.22918 0.224872 0
M  V30 18394 H 1778.13 -2.78389 2.49901 0
M  V30 18395 H 1779.46 -3.67586 3.27325 0
M  V30 18396 N 1781.11 -1.21927 -0.998575 0
M  V30 18397 C 1782.06 -0.951671 -2.07189 0
M  V30 18398 C 1783.04 0.095548 -1.60616 0
M  V30 18399 O 1784.24 -0.11423 -1.76631 0
M  V30 18400 C 1781.37 -0.525175 -3.39259 0
M  V30 18401 C 1780.45 -1.60681 -3.92482 0
M  V30 18402 N 1780.84 -2.8333 -4.18996 0
M  V30 18403 C 1779.14 -1.47718 -4.20827 0
M  V30 18404 C 1779.84 -3.53231 -4.62172 0
M  V30 18405 N 1778.82 -2.80687 -4.65527 0
M  V30 18406 H 1782.62 -1.88341 -2.25621 0
M  V30 18407 H 1780.13 -1.11596 -1.17984 0
M  V30 18408 H 1782.13 -0.3148 -4.1571 0
M  V30 18409 H 1780.79 0.399723 -3.2223 0
M  V30 18410 H 1781.8 -3.19812 -4.07358 0
M  V30 18411 H 1778.48 -0.618048 -4.129 0
M  V30 18412 H 1779.87 -4.58279 -4.91355 0
M  V30 18413 N 1782.59 1.19452 -1.02805 0
M  V30 18414 C 1783.54 2.20533 -0.578732 0
M  V30 18415 C 1784.52 1.56539 0.372081 0
M  V30 18416 O 1785.71 1.75943 0.193185 0
M  V30 18417 C 1782.84 3.43229 0.0698982 0
M  V30 18418 C 1781.93 4.14368 -0.903306 0
M  V30 18419 N 1782.32 4.61709 -2.0654 0
M  V30 18420 C 1780.62 4.40042 -0.726572 0
M  V30 18421 C 1781.32 5.1633 -2.67914 0
M  V30 18422 N 1780.3 5.0708 -1.95884 0
M  V30 18423 H 1784.1 2.54813 -1.46451 0
M  V30 18424 H 1781.61 1.35517 -0.894927 0
M  V30 18425 H 1783.61 4.14885 0.409411 0
M  V30 18426 H 1782.27 3.1045 0.951368 0
M  V30 18427 H 1783.28 4.5656 -2.44485 0
M  V30 18428 H 1779.96 4.17366 0.105875 0
M  V30 18429 H 1781.35 5.63254 -3.66326 0
M  V30 18430 N 1784.07 0.805805 1.35442 0
M  V30 18431 C 1785.48 0.489448 1.5191 0
M  V30 18432 C 1785.68 -0.989485 1.75532 0
M  V30 18433 O 1784.74 -1.77453 1.79629 0
M  V30 18434 C 1786.05 1.33413 2.69484 0
M  V30 18435 C 1787.6 1.32949 2.83361 0
M  V30 18436 C 1788.07 2.15827 4.03959 0
M  V30 18437 N 1789.57 2.13359 4.11135 0
M  V30 18438 C 1790.3 2.74245 5.03564 0
M  V30 18439 N 1789.8 3.44055 6.0133 0
M  V30 18440 N 1791.59 2.63891 4.96304 0
M  V30 18441 H 1783.74 1.76361 1.18366 0
M  V30 18442 H 1786 0.750594 0.579062 0
M  V30 18443 H 1785.71 2.38364 2.58603 0
M  V30 18444 H 1785.58 0.986809 3.64063 0
M  V30 18445 H 1787.97 0.287837 2.93693 0
M  V30 18446 H 1788.05 1.71668 1.89641 0
M  V30 18447 H 1787.7 3.20033 3.94388 0
M  V30 18448 H 1787.63 1.74469 4.96858 0
M  V30 18449 H 1790.12 1.62566 3.41146 0
M  V30 18450 H 1790.43 3.87802 6.68453 0
M  V30 18451 H 1788.77 3.48159 6.01507 0
M  V30 18452 H 1791.97 2.08941 4.18881 0
M  V30 18453 H 1792.14 3.11631 5.68146 0
M  V30 18454 N 1785.54 -1.47344 0.559239 0
M  V30 18455 C 1786.96 -1.86272 0.126394 0
M  V30 18456 C 1787.31 -1.46563 -1.30437 0
M  V30 18457 O 1786.43 -0.869624 -1.98158 0
M  V30 18458 C 1787.03 -3.38068 0.222602 0
M  V30 18459 C 1785.59 -3.7608 -0.155219 0
M  V30 18460 C 1784.73 -2.71394 0.569244 0
M  V30 18461 H 1787.68 -1.38833 0.768845 0
M  V30 18462 H 1787.7 -3.76382 -0.558262 0
M  V30 18463 H 1787.22 -3.66938 1.26404 0
M  V30 18464 H 1785.32 -3.52826 -1.19768 0
M  V30 18465 H 1785.43 -4.78662 0.204756 0
M  V30 18466 H 1783.79 -2.54697 0.0120996 0
M  V30 18467 H 1784.58 -3.03107 1.61187 0
M  V30 18468 N 1787.02 -0.295795 -1.54799 0
M  V30 18469 C 1788.44 0.0577516 -1.59495 0
M  V30 18470 C 1788.64 1.52862 -1.31284 0
M  V30 18471 O 1787.69 2.28061 -1.08372 0
M  V30 18472 C 1789.01 -0.335503 -2.98822 0
M  V30 18473 C 1790.56 -0.283835 -3.1171 0
M  V30 18474 C 1791.03 -0.651835 -4.53338 0
M  V30 18475 N 1792.52 -0.604171 -4.59243 0
M  V30 18476 C 1793.26 -0.861453 -5.66892 0
M  V30 18477 N 1792.75 -1.18443 -6.826 0
M  V30 18478 N 1794.55 -0.788863 -5.56537 0
M  V30 18479 H 1786.7 -1.25444 -1.71399 0
M  V30 18480 H 1788.96 -0.50822 -0.80026 0
M  V30 18481 H 1788.67 -1.35923 -3.24373 0
M  V30 18482 H 1788.54 0.313443 -3.75895 0
M  V30 18483 H 1790.93 0.730641 -2.85912 0
M  V30 18484 H 1791.01 -0.967331 -2.36804 0
M  V30 18485 H 1790.65 -1.66409 -4.79865 0
M  V30 18486 H 1790.58 0.053676 -5.26573 0
M  V30 18487 H 1793.07 -0.365262 -3.76131 0
M  V30 18488 H 1793.39 -1.36686 -7.60616 0
M  V30 18489 H 1791.73 -1.22242 -6.84165 0
M  V30 18490 H 1794.92 -0.536231 -4.65018 0
M  V30 18491 H 1795.09 -0.992744 -6.4035 0
M  V30 18492 N 1788.5 1.57583 -0.0234236 0
M  V30 18493 C 1789.46 2.08797 0.945325 0
M  V30 18494 C 1790.46 1.00189 1.25773 0
M  V30 18495 O 1791.65 1.2637 1.19901 0
M  V30 18496 C 1788.79 2.54906 2.26353 0
M  V30 18497 H 1789.98 2.95671 0.50187 0
M  V30 18498 H 1787.53 1.54679 0.224507 0
M  V30 18499 H 1788.27 1.71345 2.75339 0
M  V30 18500 H 1788.05 3.34247 2.04991 0
M  V30 18501 H 1789.54 2.94774 2.95801 0
M  V30 18502 N 1789.98 -0.249655 1.5561 0
M  V30 18503 C 1790.91 -1.31281 1.931 0
M  V30 18504 C 1791.89 -1.50347 0.795601 0
M  V30 18505 O 1793.08 -1.63001 1.05566 0
M  V30 18506 C 1790.21 -2.66808 2.2233 0
M  V30 18507 C 1789.16 -2.62441 3.38096 0
M  V30 18508 C 1788.49 -4.01738 3.52861 0
M  V30 18509 C 1789.79 -2.19667 4.7386 0
M  V30 18510 H 1791.48 -1.00151 2.82153 0
M  V30 18511 H 1789.03 -0.480331 1.35753 0
M  V30 18512 H 1790.98 -3.41316 2.47146 0
M  V30 18513 H 1789.7 -2.99569 1.30101 0
M  V30 18514 H 1788.36 -1.90391 3.13284 0
M  V30 18515 H 1788.01 -4.31759 2.58056 0
M  V30 18516 H 1787.71 -3.99705 4.30708 0
M  V30 18517 H 1789.23 -4.7795 3.79995 0
M  V30 18518 H 1790.65 -2.83906 4.98067 0
M  V30 18519 H 1789.04 -2.28751 5.54791 0
M  V30 18520 H 1790.11 -1.14829 4.71108 0
M  V30 18521 N 1791.46 -1.48941 -0.515198 0
M  V30 18522 C 1792.39 -1.60665 -1.63461 0
M  V30 18523 C 1793.4 -0.490076 -1.55248 0
M  V30 18524 O 1794.59 -0.761549 -1.61439 0
M  V30 18525 C 1791.69 -1.53414 -3.02187 0
M  V30 18526 C 1790.86 -2.80364 -3.3573 0
M  V30 18527 C 1789.92 -2.66362 -4.53804 0
M  V30 18528 O 1788.95 -3.40276 -4.5629 0
M  V30 18529 N 1790.15 -1.76961 -5.5287 0
M  V30 18530 H 1792.92 -2.57206 -1.53836 0
M  V30 18531 H 1790.48 -1.45851 -0.702786 0
M  V30 18532 H 1792.47 -1.41721 -3.79074 0
M  V30 18533 H 1791.04 -0.647891 -3.05812 0
M  V30 18534 H 1790.26 -3.06513 -2.47878 0
M  V30 18535 H 1791.55 -3.64555 -3.54932 0
M  V30 18536 H 1790.95 -1.16139 -5.5365 0
M  V30 18537 H 1789.5 -1.71198 -6.28915 0
M  V30 18538 N 1792.94 0.765193 -1.37777 0
M  V30 18539 C 1794.35 1.06666 -1.1872 0
M  V30 18540 C 1794.55 2.01481 -0.0278636 0
M  V30 18541 O 1793.61 2.44514 0.630006 0
M  V30 18542 C 1794.92 1.65787 -2.50868 0
M  V30 18543 C 1796.47 1.78014 -2.57449 0
M  V30 18544 C 1796.94 2.40548 -3.89744 0
M  V30 18545 N 1798.43 2.47992 -3.91221 0
M  V30 18546 C 1799.17 2.97245 -4.9034 0
M  V30 18547 N 1798.67 3.46621 -5.99855 0
M  V30 18548 N 1800.46 2.96179 -4.77739 0
M  V30 18549 H 1792.61 0.135775 -2.11966 0
M  V30 18550 H 1794.87 0.122863 -0.940005 0
M  V30 18551 H 1794.58 1.03588 -3.36099 0
M  V30 18552 H 1794.45 2.65 -2.6843 0
M  V30 18553 H 1796.84 2.39345 -1.72621 0
M  V30 18554 H 1796.92 0.775388 -2.43765 0
M  V30 18555 H 1796.56 1.79855 -4.74989 0
M  V30 18556 H 1796.49 3.41643 -4.00734 0
M  V30 18557 H 1798.99 2.13056 -3.12114 0
M  V30 18558 H 1799.3 3.82625 -6.7143 0
M  V30 18559 H 1797.64 3.44709 -6.0349 0
M  V30 18560 H 1800.83 2.56909 -3.913 0
M  V30 18561 H 1801.01 3.34253 -5.55139 0
M  V30 18562 N 1794.41 1.22455 0.992094 0
M  V30 18563 C 1795.36 0.962645 2.06681 0
M  V30 18564 C 1796.35 -0.0870288 1.60664 0
M  V30 18565 O 1797.54 0.123596 1.76568 0
M  V30 18566 C 1794.67 0.54316 3.38976 0
M  V30 18567 C 1793.75 1.62761 3.91625 0
M  V30 18568 N 1794.15 2.85548 4.17488 0
M  V30 18569 C 1792.44 1.49948 4.20038 0
M  V30 18570 C 1793.14 3.55677 4.60292 0
M  V30 18571 N 1792.12 2.83152 4.64032 0
M  V30 18572 H 1795.92 1.89534 2.24619 0
M  V30 18573 H 1793.44 1.1222 1.1739 0
M  V30 18574 H 1795.43 0.336841 4.15537 0
M  V30 18575 H 1794.09 -0.382629 3.22438 0
M  V30 18576 H 1795.1 3.21968 4.05657 0
M  V30 18577 H 1791.78 0.639937 4.12566 0
M  V30 18578 H 1793.17 4.60878 4.88918 0
M  V30 18579 N 1795.89 -1.18905 1.03437 0
M  V30 18580 C 1796.84 -2.20223 0.59042 0
M  V30 18581 C 1797.83 -1.56734 -0.363774 0
M  V30 18582 O 1799.02 -1.76043 -0.183852 0
M  V30 18583 C 1796.15 -3.43261 -0.051695 0
M  V30 18584 C 1795.23 -4.13884 0.925268 0
M  V30 18585 N 1795.62 -4.60607 2.08985 0
M  V30 18586 C 1793.92 -4.3965 0.749899 0
M  V30 18587 C 1794.62 -5.14902 2.70648 0
M  V30 18588 N 1793.6 -5.06034 1.9857 0
M  V30 18589 H 1797.4 -2.54032 1.478 0
M  V30 18590 H 1794.91 -1.3504 0.902101 0
M  V30 18591 H 1796.91 -4.15096 -0.387403 0
M  V30 18592 H 1795.57 -3.1095 -0.934891 0
M  V30 18593 H 1796.58 -4.55257 2.46903 0
M  V30 18594 H 1793.26 -4.17416 -0.08374 0
M  V30 18595 H 1794.65 -5.61303 3.69308 0
M  V30 18596 N 1797.37 -0.812977 -1.35013 0
M  V30 18597 C 1798.6 -0.409014 -2.02817 0
M  V30 18598 C 1799.01 0.982004 -1.61252 0
M  V30 18599 O 1798.37 1.63384 -0.813137 0
M  V30 18600 C 1798.42 -0.490117 -3.58162 0
M  V30 18601 O 1798.14 -1.8263 -3.98218 0
M  V30 18602 C 1799.64 -0.0797786 -4.43228 0
M  V30 18603 H 1796.86 -0.165356 -0.650306 0
M  V30 18604 H 1799.41 -1.09837 -1.72499 0
M  V30 18605 H 1797.56 0.151057 -3.87105 0
M  V30 18606 H 1797.98 -1.79356 -4.92881 0
M  V30 18607 H 1799.45 -0.18763 -5.51681 0
M  V30 18608 H 1799.93 0.975612 -4.28227 0
M  V30 18609 H 1800.53 -0.694359 -4.19594 0
M  V30 18610 N 1798.85 1.47045 -0.567045 0
M  V30 18611 C 1800.1 2.01651 -0.044479 0
M  V30 18612 C 1800.41 1.44583 1.31738 0
M  V30 18613 O 1801.62 1.90911 1.93042 0
M  V30 18614 C 1800.07 3.59888 -0.0289854 0
M  V30 18615 C 1799.68 4.25949 -1.38821 0
M  V30 18616 C 1801.42 4.22209 0.440457 0
M  V30 18617 C 1799.33 5.76221 -1.33129 0
M  V30 18618 H 1798.26 0.75389 -0.012858 0
M  V30 18619 H 1800.91 1.68939 -0.716363 0
M  V30 18620 H 1799.29 3.89606 0.708747 0
M  V30 18621 H 1800.47 4.07861 -2.14443 0
M  V30 18622 H 1798.78 3.75658 -1.79639 0
M  V30 18623 H 1801.38 5.32342 0.501592 0
M  V30 18624 H 1801.72 3.9006 1.45461 0
M  V30 18625 H 1802.26 3.97059 -0.242721 0
M  V30 18626 H 1798.99 6.13005 -2.32175 0
M  V30 18627 H 1798.51 5.96618 -0.617023 0
M  V30 18628 H 1800.19 6.38627 -1.03752 0
M  V30 18629 N 1800.33 0.304 1.5464 0
M  V30 18630 C 1801.26 -0.604475 2.21085 0
M  V30 18631 C 1802.27 -1.0952 1.20454 0
M  V30 18632 O 1803.46 -1.01214 1.47031 0
M  V30 18633 C 1800.56 -1.8399 2.84607 0
M  V30 18634 C 1799.73 -1.49116 4.11197 0
M  V30 18635 C 1798.79 -2.58205 4.58494 0
M  V30 18636 O 1797.82 -2.23171 5.23625 0
M  V30 18637 N 1799.02 -3.88798 4.31065 0
M  V30 18638 H 1801.78 -0.035633 2.99679 0
M  V30 18639 H 1799.35 0.126332 1.61406 0
M  V30 18640 H 1801.34 -2.56322 3.13179 0
M  V30 18641 H 1799.91 -2.31706 2.09836 0
M  V30 18642 H 1799.13 -0.600347 3.89602 0
M  V30 18643 H 1800.42 -1.23358 4.93619 0
M  V30 18644 H 1799.81 -4.20068 3.78892 0
M  V30 18645 H 1798.37 -4.57419 4.6434 0
M  V30 18646 N 1801.8 -1.57568 0.0317802 0
M  V30 18647 C 1802.75 -2.11538 -0.967175 0
M  V30 18648 C 1803.75 -1.04258 -1.33516 0
M  V30 18649 O 1804.95 -1.2269 -1.31709 0
M  V30 18650 H 1801.33 -0.675877 -0.329687 0
M  V30 18651 H 1803.3 -2.94404 -0.486695 0
M  V30 18652 C 1802.05 -2.65973 -2.2395 0
M  V30 18653 H 1801.37 -3.48172 -1.96509 0
M  V30 18654 H 1802.81 -3.07379 -2.92052 0
M  V30 18655 C 1801.27 -1.5884 -2.97105 0
M  V30 18656 O 1801.8 -0.989784 -3.89315 0
M  V30 18657 N 1800 -1.30821 -2.59488 0
M  V30 18658 H 1799.55 -1.79687 -1.84581 0
M  V30 18659 H 1799.51 -0.593658 -3.08744 0
M  V30 18660 N 1803.28 0.241399 -1.5574 0
M  V30 18661 C 1804.51 0.99028 -1.82231 0
M  V30 18662 C 1804.93 1.77949 -0.609559 0
M  V30 18663 O 1804.29 1.75843 0.44148 0
M  V30 18664 C 1804.34 1.89947 -3.06516 0
M  V30 18665 O 1803.44 2.99201 -2.83818 0
M  V30 18666 H 1802.78 0.281488 -0.601382 0
M  V30 18667 H 1805.31 0.260721 -2.02932 0
M  V30 18668 H 1805.32 2.31308 -3.36096 0
M  V30 18669 H 1804 1.31924 -3.94422 0
M  V30 18670 H 1802.58 2.61929 -2.6542 0
M  V30 18671 N 1804.76 1.49212 0.507292 0
M  V30 18672 C 1806.04 1.4888 1.26863 0
M  V30 18673 C 1806.42 0.213007 2.10023 0
M  V30 18674 O 1805.77 -0.804785 2.13858 0
M  V30 18675 C 1805.98 2.76407 2.13073 0
M  V30 18676 C 1807.32 3.25647 2.72468 0
M  V30 18677 O 1808.35 2.77481 2.23344 0
M  V30 18678 O 1807.21 4.09518 3.6188 0
M  V30 18679 H 1804.3 0.595597 0.573754 0
M  V30 18680 H 1806.85 1.6147 0.52208 0
M  V30 18681 H 1805.62 3.60758 1.51558 0
M  V30 18682 H 1805.24 2.66648 2.94932 0
M  V30 18683 N 1806.24 -0.757876 1.38181 0
M  V30 18684 C 1807.52 -1.50715 1.24677 0
M  V30 18685 C 1807.9 -2.1054 -0.153689 0
M  V30 18686 O 1807.24 -1.96703 -1.16276 0
M  V30 18687 C 1807.45 -2.57695 2.3536 0
M  V30 18688 C 1808.8 -3.24716 2.73578 0
M  V30 18689 O 1809.83 -2.67997 2.3464 0
M  V30 18690 O 1808.68 -4.27294 3.40709 0
M  V30 18691 H 1805.78 -0.668175 0.487311 0
M  V30 18692 H 1808.32 -0.793653 1.49997 0
M  V30 18693 H 1807.1 -2.11706 3.29084 0
M  V30 18694 H 1806.72 -3.36629 2.11581 0
M  V30 18695 N 1807.72 -1.22979 -0.985586 0
M  V30 18696 C 1808.68 -1.00763 -2.05862 0
M  V30 18697 C 1809.68 0.02864 -1.60774 0
M  V30 18698 O 1810.87 -0.210593 -1.72922 0
M  V30 18699 C 1808 -0.523547 -3.36856 0
M  V30 18700 H 1809.19 -1.95982 -2.27004 0
M  V30 18701 H 1806.75 -1.0495 -1.15824 0
M  V30 18702 H 1807.48 0.432658 -3.21401 0
M  V30 18703 H 1807.27 -1.27127 -3.70919 0
M  V30 18704 H 1808.76 -0.388591 -4.15788 0
M  V30 18705 N 1809.19 1.18355 -1.04066 0
M  V30 18706 C 1810.42 1.91996 -0.762952 0
M  V30 18707 C 1810.83 1.76413 0.683745 0
M  V30 18708 O 1810.18 1.09121 1.47778 0
M  V30 18709 C 1810.24 3.4384 -1.04949 0
M  V30 18710 C 1809.9 3.83201 -2.4901 0
M  V30 18711 C 1810.9 3.86984 -3.47187 0
M  V30 18712 C 1808.58 4.14497 -2.83721 0
M  V30 18713 C 1810.58 4.21513 -4.78127 0
M  V30 18714 C 1808.26 4.48696 -4.14867 0
M  V30 18715 C 1809.26 4.52181 -5.1188 0
M  V30 18716 O 1808.95 4.85582 -6.40676 0
M  V30 18717 H 1808.68 0.616351 -0.277647 0
M  V30 18718 H 1811.24 1.51092 -1.39141 0
M  V30 18719 H 1809.47 3.84984 -0.363904 0
M  V30 18720 H 1811.16 3.98729 -0.759579 0
M  V30 18721 H 1811.92 3.62944 -3.21709 0
M  V30 18722 H 1807.8 4.10962 -2.08881 0
M  V30 18723 H 1811.34 4.24148 -5.53845 0
M  V30 18724 H 1807.24 4.72198 -4.40113 0
M  V30 18725 H 1808.01 5.03485 -6.45326 0
M  V30 18726 N 1810.67 0.820125 1.3458 0
M  V30 18727 C 1811.92 0.407473 1.98664 0
M  V30 18728 C 1812.25 -1.02613 1.64877 0
M  V30 18729 O 1811.53 -1.71421 0.918964 0
M  V30 18730 C 1811.81 0.606744 3.54952 0
M  V30 18731 C 1811.66 2.08626 3.98491 0
M  V30 18732 C 1812.98 0.0409321 4.40081 0
M  V30 18733 H 1810.1 0.149524 0.721673 0
M  V30 18734 H 1812.74 1.03217 1.59519 0
M  V30 18735 H 1810.89 0.0749788 3.88428 0
M  V30 18736 H 1812.56 2.68144 3.75361 0
M  V30 18737 H 1810.81 2.57774 3.48905 0
M  V30 18738 H 1811.48 2.17651 5.07279 0
M  V30 18739 H 1813.95 0.495234 4.13142 0
M  V30 18740 H 1812.83 0.210182 5.48497 0
M  V30 18741 H 1813.09 -1.05389 4.29355 0
M  V30 18742 N 1812.15 -1.46743 0.574835 0
M  V30 18743 C 1813.08 -2.2832 -0.20062 0
M  V30 18744 C 1814.1 -1.3805 -0.862898 0
M  V30 18745 O 1815.28 -1.6272 -0.733785 0
M  V30 18746 C 1812.38 -3.1285 -1.303 0
M  V30 18747 C 1811.56 -4.31195 -0.734153 0
M  V30 18748 C 1810.62 -4.97183 -1.72324 0
M  V30 18749 O 1809.64 -5.55025 -1.26239 0
M  V30 18750 N 1810.84 -4.93476 -3.05714 0
M  V30 18751 H 1813.61 -2.95513 0.499231 0
M  V30 18752 H 1811.17 -1.56568 0.412077 0
M  V30 18753 H 1813.16 -3.53861 -1.96378 0
M  V30 18754 H 1811.73 -2.47784 -1.90583 0
M  V30 18755 H 1810.95 -3.94063 0.103888 0
M  V30 18756 H 1812.24 -5.07704 -0.333751 0
M  V30 18757 H 1811.64 -4.47715 -3.45786 0
M  V30 18758 H 1810.2 -5.38453 -3.67304 0
M  V30 18759 N 1813.63 -0.312197 -1.54477 0
M  V30 18760 C 1814.56 0.551829 -2.26886 0
M  V30 18761 C 1815.54 1.12874 -1.27254 0
M  V30 18762 O 1816.72 1.15599 -1.56046 0
M  V30 18763 C 1813.85 1.71839 -3.01809 0
M  V30 18764 C 1812.81 1.27131 -4.08683 0
M  V30 18765 C 1812.13 2.52392 -4.71384 0
M  V30 18766 C 1813.43 0.394413 -5.20809 0
M  V30 18767 H 1815.13 -0.0521331 -2.99355 0
M  V30 18768 H 1812.67 -0.0265138 -1.43976 0
M  V30 18769 H 1814.63 2.32903 -3.5119 0
M  V30 18770 H 1813.35 2.34876 -2.26938 0
M  V30 18771 H 1812.01 0.683666 -3.60169 0
M  V30 18772 H 1811.66 3.13768 -3.93139 0
M  V30 18773 H 1811.36 2.23174 -5.43569 0
M  V30 18774 H 1812.88 3.14239 -5.23533 0
M  V30 18775 H 1814.3 0.911031 -5.66015 0
M  V30 18776 H 1812.69 0.195517 -5.99781 0
M  V30 18777 H 1813.76 -0.577661 -4.81447 0
M  V30 18778 N 1815.11 1.57549 -0.040136 0
M  V30 18779 C 1816.38 1.83571 0.675355 0
M  V30 18780 C 1816.76 0.926313 1.89691 0
M  V30 18781 O 1816.11 -0.0153869 2.28495 0
M  V30 18782 C 1816.32 3.33046 1.04313 0
M  V30 18783 C 1817.67 3.99791 1.43011 0
M  V30 18784 O 1818.69 3.37607 1.13579 0
M  V30 18785 O 1817.55 5.09412 1.97893 0
M  V30 18786 H 1814.65 0.75729 0.332325 0
M  V30 18787 H 1817.19 1.69561 -0.0686584 0
M  V30 18788 H 1815.96 3.90912 0.174189 0
M  V30 18789 H 1815.59 3.52203 1.84495 0
M  V30 18790 N 1816.58 -0.233136 1.55866 0
M  V30 18791 C 1817.53 -1.3085 1.92304 0
M  V30 18792 C 1818.53 -1.49121 0.803693 0
M  V30 18793 O 1819.73 -1.50433 0.988433 0
M  V30 18794 H 1816.11 -0.438451 0.610954 0
M  V30 18795 H 1818.08 -0.973925 2.82059 0
M  V30 18796 C 1816.83 -2.65415 2.24611 0
M  V30 18797 H 1816.15 -2.5216 3.10251 0
M  V30 18798 H 1817.59 -3.395 2.54 0
M  V30 18799 C 1816.05 -3.1955 1.0672 0
M  V30 18800 O 1816.58 -4.00405 0.322308 0
M  V30 18801 N 1814.79 -2.77764 0.854123 0
M  V30 18802 H 1814.33 -2.12122 1.46157 0
M  V30 18803 H 1814.29 -3.14329 0.0670326 0
M  V30 18804 N 1818.06 -1.49479 -0.499372 0
M  V30 18805 C 1818.99 -1.69182 -1.60934 0
M  V30 18806 C 1819.97 -0.54053 -1.61283 0
M  V30 18807 O 1821.16 -0.776554 -1.77998 0
M  V30 18808 C 1818.29 -1.75985 -2.99411 0
M  V30 18809 C 1817.24 -2.9092 -3.13926 0
M  V30 18810 C 1816.57 -2.82837 -4.5377 0
M  V30 18811 C 1817.87 -4.31833 -2.93799 0
M  V30 18812 H 1819.56 -2.62112 -1.44699 0
M  V30 18813 H 1817.11 -1.26135 -0.694688 0
M  V30 18814 H 1819.06 -1.88354 -3.76962 0
M  V30 18815 H 1817.79 -0.796557 -3.16737 0
M  V30 18816 H 1816.45 -2.78155 -2.388 0
M  V30 18817 H 1816.09 -1.84412 -4.67976 0
M  V30 18818 H 1815.79 -3.59979 -4.64423 0
M  V30 18819 H 1817.32 -2.97217 -5.3338 0
M  V30 18820 H 1818.73 -4.45271 -3.61119 0
M  V30 18821 H 1817.13 -5.10209 -3.15922 0
M  V30 18822 H 1818.2 -4.46165 -1.89908 0
M  V30 18823 N 1819.54 0.750537 -1.38581 0
M  V30 18824 C 1820.95 1.32802 -1.31227 0
M  V30 18825 C 1821.3 1.96176 0.0305372 0
M  V30 18826 O 1820.43 1.95272 0.932614 0
M  V30 18827 C 1821.02 2.41468 -2.37652 0
M  V30 18828 C 1819.58 2.94929 -2.33867 0
M  V30 18829 C 1818.73 1.68339 -2.20357 0
M  V30 18830 H 1821.68 0.549187 -1.48895 0
M  V30 18831 H 1821.7 3.21481 -2.03544 0
M  V30 18832 H 1821.21 1.95313 -3.35372 0
M  V30 18833 H 1819.31 3.45404 -1.39738 0
M  V30 18834 H 1819.43 3.491 -3.28125 0
M  V30 18835 H 1817.79 1.92082 -1.67262 0
M  V30 18836 H 1818.57 1.24258 -3.20023 0
M  V30 18837 N 1821.02 1.235 0.979051 0
M  V30 18838 C 1822.27 1.0658 1.71713 0
M  V30 18839 C 1822.59 -0.397927 1.90897 0
M  V30 18840 O 1821.86 -1.28511 1.47857 0
M  V30 18841 H 1820.44 0.391397 0.636253 0
M  V30 18842 H 1823.1 1.55239 1.17843 0
M  V30 18843 H 1822.2 1.5548 2.70615 0
M  V30 18844 N 1822.5 -1.17802 1.04693 0
M  V30 18845 C 1823.43 -2.20498 0.587866 0
M  V30 18846 C 1824.41 -1.58076 -0.380899 0
M  V30 18847 O 1825.59 -1.86198 -0.293711 0
M  V30 18848 C 1822.72 -3.38409 -0.140359 0
M  V30 18849 C 1821.77 -4.19258 0.782636 0
M  V30 18850 S 1822.6 -4.85052 2.26902 0
M  V30 18851 C 1823.75 -6.06357 1.55182 0
M  V30 18852 H 1823.99 -2.59096 1.45796 0
M  V30 18853 H 1821.52 -1.28336 0.858441 0
M  V30 18854 H 1823.48 -4.0674 -0.554333 0
M  V30 18855 H 1822.14 -2.98209 -0.98642 0
M  V30 18856 H 1821.33 -5.03522 0.219411 0
M  V30 18857 H 1820.93 -3.56338 1.13575 0
M  V30 18858 H 1823.23 -6.72168 0.848353 0
M  V30 18859 H 1824.17 -6.67198 2.37175 0
M  V30 18860 H 1824.58 -5.54811 1.04142 0
M  V30 18861 N 1823.98 -0.827251 -1.34143 0
M  V30 18862 C 1825.2 -0.429514 -2.02904 0
M  V30 18863 C 1825.63 0.958033 -1.61874 0
M  V30 18864 O 1824.98 1.62422 -0.805528 0
M  V30 18865 C 1825.03 -0.544592 -3.56464 0
M  V30 18866 O 1824.14 0.433849 -4.10112 0
M  V30 18867 H 1823.48 -0.176216 -0.64019 0
M  V30 18868 H 1826.01 -1.11887 -1.71297 0
M  V30 18869 H 1826.02 -0.421949 -4.05812 0
M  V30 18870 H 1824.69 -1.55657 -3.85673 0
M  V30 18871 H 1823.27 0.269729 -3.71923 0
M  V30 18872 N 1825.45 1.46436 -0.582609 0
M  V30 18873 C 1826.38 2.33089 0.138477 0
M  V30 18874 C 1827.36 1.45339 0.883777 0
M  V30 18875 O 1828.55 1.74156 0.859257 0
M  V30 18876 C 1825.68 3.27611 1.15276 0
M  V30 18877 C 1824.63 4.24801 0.522308 0
M  V30 18878 C 1823.96 5.0883 1.64306 0
M  V30 18879 C 1825.26 5.19496 -0.540449 0
M  V30 18880 H 1826.95 2.93629 -0.585013 0
M  V30 18881 H 1824.5 1.41196 -0.282781 0
M  V30 18882 H 1826.45 3.87087 1.66558 0
M  V30 18883 H 1825.18 2.65177 1.90653 0
M  V30 18884 H 1823.84 3.66587 0.0305728 0
M  V30 18885 H 1823.48 4.42782 2.38649 0
M  V30 18886 H 1823.18 5.74649 1.22686 0
M  V30 18887 H 1824.71 5.7117 2.15864 0
M  V30 18888 H 1826.12 5.73189 -0.112706 0
M  V30 18889 H 1824.52 5.93658 -0.876957 0
M  V30 18890 H 1825.59 4.63434 -1.42677 0
M  V30 18891 N 1826.93 0.320385 1.54309 0
M  V30 18892 C 1828.18 -0.283562 2.00808 0
M  V30 18893 C 1828.51 -1.52036 1.20826 0
M  V30 18894 O 1827.79 -1.9233 0.289721 0
M  V30 18895 C 1828.07 -0.620875 3.54707 0
M  V30 18896 C 1827.92 0.626403 4.45417 0
M  V30 18897 C 1829.24 -1.43978 4.15883 0
M  V30 18898 H 1826.36 -0.10159 0.729965 0
M  V30 18899 H 1829 0.436332 1.84922 0
M  V30 18900 H 1827.15 -1.23419 3.68375 0
M  V30 18901 H 1828.82 1.2647 4.43625 0
M  V30 18902 H 1827.07 1.2559 4.15222 0
M  V30 18903 H 1827.74 0.345969 5.50915 0
M  V30 18904 H 1830.21 -0.921381 4.05771 0
M  V30 18905 H 1829.09 -1.64456 5.23685 0
M  V30 18906 H 1829.35 -2.43494 3.69003 0
M  V30 18907 N 1828.41 -1.57525 0.0484906 0
M  V30 18908 C 1829.37 -2.10275 -0.911987 0
M  V30 18909 C 1830.37 -1.02178 -1.24163 0
M  V30 18910 O 1831.56 -1.28262 -1.17875 0
M  V30 18911 C 1828.69 -2.58475 -2.22269 0
M  V30 18912 H 1829.89 -2.96432 -0.454768 0
M  V30 18913 H 1827.44 -1.55017 -0.19987 0
M  V30 18914 H 1828.18 -1.75704 -2.72578 0
M  V30 18915 H 1827.96 -3.37466 -1.99648 0
M  V30 18916 H 1829.45 -2.99443 -2.91074 0
M  V30 18917 N 1829.89 0.224867 -1.55988 0
M  V30 18918 C 1831.14 0.947871 -1.78493 0
M  V30 18919 C 1831.46 1.85001 -0.616413 0
M  V30 18920 O 1830.73 1.92435 0.366847 0
M  V30 18921 H 1829.31 0.352987 -0.658338 0
M  V30 18922 H 1831.97 0.237519 -1.93447 0
M  V30 18923 H 1831.06 1.55664 -2.70509 0
M  V30 18924 N 1831.37 1.49742 0.491438 0
M  V30 18925 C 1832.31 1.67115 1.59189 0
M  V30 18926 C 1833.28 0.512523 1.57995 0
M  V30 18927 O 1834.47 0.740693 1.75836 0
M  V30 18928 C 1831.61 1.75258 2.97286 0
M  V30 18929 C 1830.72 3.02488 3.08424 0
M  V30 18930 C 1829.86 3.0155 4.37311 0
M  V30 18931 C 1828.89 4.2332 4.42116 0
M  V30 18932 N 1828.03 4.20238 5.62445 0
M  V30 18933 H 1832.87 2.61073 1.43683 0
M  V30 18934 H 1830.41 1.29435 0.69892 0
M  V30 18935 H 1832.37 1.77959 3.77341 0
M  V30 18936 H 1831 0.847568 3.11474 0
M  V30 18937 H 1830.05 3.09353 2.21371 0
M  V30 18938 H 1831.36 3.92479 3.07834 0
M  V30 18939 H 1830.51 3.02868 5.25695 0
M  V30 18940 H 1829.25 2.09354 4.4048 0
M  V30 18941 H 1828.26 4.22236 3.52132 0
M  V30 18942 H 1829.48 5.1672 4.40656 0
M  V30 18943 H 1827.43 3.30884 5.66438 0
M  V30 18944 H 1827.35 5.03974 5.63512 0
M  V30 18945 H 1828.61 4.25672 6.53011 0
M  V30 18946 N 1832.84 -0.743177 1.38977 0
M  V30 18947 C 1833.81 -1.83876 1.36829 0
M  V30 18948 C 1834.81 -1.5857 0.266875 0
M  V30 18949 O 1836 -1.66121 0.524337 0
M  V30 18950 C 1833.13 -3.21528 1.1328 0
M  V30 18951 H 1834.32 -1.87186 2.3431 0
M  V30 18952 H 1831.88 -0.945979 1.24422 0
M  V30 18953 H 1832.61 -3.23883 0.164474 0
M  V30 18954 H 1832.4 -3.41292 1.93034 0
M  V30 18955 H 1833.89 -4.01597 1.14498 0
M  V30 18956 N 1834.32 -1.24018 -0.972487 0
M  V30 18957 C 1835.25 -1.0529 -2.08414 0
M  V30 18958 C 1836.23 0.0326663 -1.70069 0
M  V30 18959 O 1837.42 -0.133494 -1.93741 0
M  V30 18960 C 1834.55 -0.651796 -3.41129 0
M  V30 18961 C 1833.5 -1.68559 -3.9341 0
M  V30 18962 C 1832.83 -1.1397 -5.22413 0
M  V30 18963 C 1834.13 -3.08046 -4.21788 0
M  V30 18964 H 1835.82 -1.98272 -2.2434 0
M  V30 18965 H 1833.37 -0.954694 -1.07804 0
M  V30 18966 H 1835.32 -0.507792 -4.18329 0
M  V30 18967 H 1834.05 0.313722 -3.2509 0
M  V30 18968 H 1832.7 -1.81773 -3.18362 0
M  V30 18969 H 1832.35 -0.164928 -5.0273 0
M  V30 18970 H 1832.05 -1.83051 -5.5836 0
M  V30 18971 H 1833.58 -1.00771 -6.02227 0
M  V30 18972 H 1834.99 -2.98088 -4.8971 0
M  V30 18973 H 1833.39 -3.74436 -4.68954 0
M  V30 18974 H 1834.46 -3.56444 -3.28749 0
M  V30 18975 N 1835.8 1.17245 -1.05316 0
M  V30 18976 C 1837.03 1.91995 -0.784387 0
M  V30 18977 C 1837.45 1.76362 0.65408 0
M  V30 18978 O 1836.81 1.0822 1.45458 0
M  V30 18979 C 1836.86 3.41043 -1.1714 0
M  V30 18980 O 1835.96 4.11276 -0.304285 0
M  V30 18981 H 1835.3 0.598516 -0.287532 0
M  V30 18982 H 1837.83 1.48604 -1.40634 0
M  V30 18983 H 1837.84 3.91788 -1.13871 0
M  V30 18984 H 1836.52 3.51742 -2.21924 0
M  V30 18985 H 1835.09 3.70773 -0.39769 0
M  V30 18986 N 1837.28 0.834353 1.33702 0
M  V30 18987 C 1838.5 0.440268 2.02673 0
M  V30 18988 C 1838.93 -0.949435 1.6238 0
M  V30 18989 O 1838.29 -1.61993 0.814131 0
M  V30 18990 C 1838.33 0.563489 3.5617 0
M  V30 18991 O 1837.44 -0.412093 4.10336 0
M  V30 18992 H 1836.78 0.179609 0.639247 0
M  V30 18993 H 1839.31 1.12794 1.70701 0
M  V30 18994 H 1839.32 0.443464 4.05583 0
M  V30 18995 H 1837.99 1.577 3.84842 0
M  V30 18996 H 1836.57 -0.250001 3.72061 0
M  V30 18997 N 1838.76 -1.46125 0.590367 0
M  V30 18998 C 1839.72 -2.2884 -0.128368 0
M  V30 18999 C 1840.72 -1.38818 -0.81156 0
M  V30 19000 O 1841.91 -1.61117 -0.662347 0
M  V30 19001 C 1839.04 -3.19402 -1.19144 0
M  V30 19002 H 1840.23 -2.93864 0.598641 0
M  V30 19003 H 1837.79 -1.52362 0.34866 0
M  V30 19004 H 1838.52 -2.59141 -1.94978 0
M  V30 19005 H 1838.31 -3.85692 -0.705973 0
M  V30 19006 H 1839.8 -3.8164 -1.69532 0
M  V30 19007 N 1840.23 -0.328564 -1.54137 0
M  V30 19008 C 1841.65 0.0239073 -1.59582 0
M  V30 19009 C 1841.85 1.50043 -1.34497 0
M  V30 19010 O 1840.91 2.25711 -1.13185 0
M  V30 19011 C 1842.22 -0.398812 -2.98044 0
M  V30 19012 C 1843.77 -0.34989 -3.11038 0
M  V30 19013 C 1844.24 -0.747848 -4.51853 0
M  V30 19014 N 1845.73 -0.701447 -4.57858 0
M  V30 19015 C 1846.47 -0.981505 -5.64937 0
M  V30 19016 N 1845.96 -1.32895 -6.79934 0
M  V30 19017 N 1847.76 -0.906735 -5.54738 0
M  V30 19018 H 1839.91 -1.29052 -1.68699 0
M  V30 19019 H 1842.17 -0.52508 -0.7893 0
M  V30 19020 H 1841.88 -1.42773 -3.21417 0
M  V30 19021 H 1841.75 0.233639 -3.76476 0
M  V30 19022 H 1844.14 0.669831 -2.87397 0
M  V30 19023 H 1844.22 -1.01734 -2.34699 0
M  V30 19024 H 1843.86 -1.76551 -4.76227 0
M  V30 19025 H 1843.79 -0.0580299 -5.26568 0
M  V30 19026 H 1846.28 -0.444963 -3.75271 0
M  V30 19027 H 1846.6 -1.52789 -7.57546 0
M  V30 19028 H 1844.94 -1.36726 -6.81418 0
M  V30 19029 H 1848.13 -0.634748 -4.63776 0
M  V30 19030 H 1848.31 -1.12835 -6.38101 0
M  V30 19031 N 1841.71 1.57497 -0.0568439 0
M  V30 19032 C 1842.65 2.07433 0.951141 0
M  V30 19033 C 1843.62 0.976083 1.30044 0
M  V30 19034 O 1844.81 1.24842 1.41233 0
M  V30 19035 C 1841.93 2.51956 2.26354 0
M  V30 19036 C 1840.98 3.73071 2.06689 0
M  V30 19037 S 1841.81 5.18463 1.34001 0
M  V30 19038 C 1842.97 5.66304 2.66552 0
M  V30 19039 H 1843.2 2.92607 0.526181 0
M  V30 19040 H 1840.74 1.53614 0.155562 0
M  V30 19041 H 1842.69 2.78269 3.01789 0
M  V30 19042 H 1841.35 1.67078 2.65977 0
M  V30 19043 H 1840.55 4.02163 3.03778 0
M  V30 19044 H 1840.15 3.47053 1.39392 0
M  V30 19045 H 1842.44 5.72236 3.62701 0
M  V30 19046 H 1843.38 6.65431 2.4209 0
M  V30 19047 H 1843.79 4.94057 2.73072 0
M  V30 19048 N 1843.19 -0.216591 1.56105 0
M  V30 19049 C 1844.42 -0.961164 1.83784 0
M  V30 19050 C 1844.84 -1.76957 0.637792 0
M  V30 19051 O 1844.2 -1.76523 -0.413449 0
M  V30 19052 C 1844.25 -1.85047 3.095 0
M  V30 19053 O 1843.35 -2.94648 2.88542 0
M  V30 19054 H 1842.69 -0.271885 0.605784 0
M  V30 19055 H 1845.22 -0.228404 2.03321 0
M  V30 19056 H 1845.23 -2.25932 3.39733 0
M  V30 19057 H 1843.91 -1.25633 3.96471 0
M  V30 19058 H 1842.48 -2.57673 2.69554 0
M  V30 19059 N 1844.67 -1.5 -0.48349 0
M  V30 19060 C 1845.95 -1.50879 -1.24478 0
M  V30 19061 C 1846.33 -0.246393 -2.09657 0
M  V30 19062 O 1845.67 0.77066 -2.15112 0
M  V30 19063 C 1845.88 -2.79762 -2.08648 0
M  V30 19064 C 1847.23 -3.29941 -2.67253 0
M  V30 19065 O 1848.26 -2.80999 -2.18901 0
M  V30 19066 O 1847.11 -4.15224 -3.55319 0
M  V30 19067 H 1844.21 -0.604649 -0.564206 0
M  V30 19068 H 1846.75 -1.6228 -0.496325 0
M  V30 19069 H 1845.53 -3.63123 -1.45799 0
M  V30 19070 H 1845.15 -2.71306 -2.90652 0
M  V30 19071 N 1846.15 0.735796 -1.39369 0
M  V30 19072 C 1847.11 1.83148 -1.37802 0
M  V30 19073 C 1848.11 1.58426 -0.27528 0
M  V30 19074 O 1849.3 1.65841 -0.53314 0
M  V30 19075 C 1846.43 3.20923 -1.14984 0
M  V30 19076 H 1847.62 1.85941 -2.353 0
M  V30 19077 H 1845.18 0.939367 -1.24922 0
M  V30 19078 H 1845.91 3.23791 -0.181648 0
M  V30 19079 H 1845.7 3.40264 -1.94841 0
M  V30 19080 H 1847.19 4.00984 -1.16626 0
M  V30 19081 N 1847.63 1.24532 0.965897 0
M  V30 19082 C 1848.87 1.0877 1.71163 0
M  V30 19083 C 1849.2 -0.372297 1.90598 0
M  V30 19084 O 1848.48 -1.27503 1.46878 0
M  V30 19085 C 1848.76 1.83004 3.10131 0
M  V30 19086 C 1848.62 3.36765 2.98177 0
M  V30 19087 C 1849.93 1.60417 4.09822 0
M  V30 19088 H 1847.05 0.396528 0.621236 0
M  V30 19089 H 1849.7 1.53223 1.12351 0
M  V30 19090 H 1847.85 1.4522 3.60338 0
M  V30 19091 H 1849.52 3.84158 2.55382 0
M  V30 19092 H 1847.76 3.65053 2.34347 0
M  V30 19093 H 1848.43 3.83909 3.96633 0
M  V30 19094 H 1850.91 1.93289 3.68482 0
M  V30 19095 H 1849.78 2.14812 5.05121 0
M  V30 19096 H 1850.04 0.542843 4.38755 0
M  V30 19097 N 1849.1 -1.16685 1.05936 0
M  V30 19098 C 1850.03 -2.23129 0.688153 0
M  V30 19099 C 1851.01 -1.67108 -0.31765 0
M  V30 19100 O 1852.2 -1.93233 -0.193578 0
M  V30 19101 C 1849.33 -3.47229 0.069991 0
M  V30 19102 C 1848.28 -4.16121 1.00137 0
M  V30 19103 C 1847.61 -5.34131 0.246699 0
M  V30 19104 C 1848.91 -4.67508 2.32882 0
M  V30 19105 H 1850.6 -2.54436 1.57806 0
M  V30 19106 H 1848.15 -1.22298 0.76021 0
M  V30 19107 H 1850.1 -4.20918 -0.201545 0
M  V30 19108 H 1848.83 -3.15212 -0.854909 0
M  V30 19109 H 1847.49 -3.44355 1.25759 0
M  V30 19110 H 1847.13 -4.98366 -0.681204 0
M  V30 19111 H 1846.83 -5.81163 0.867373 0
M  V30 19112 H 1848.36 -6.10598 -0.0173762 0
M  V30 19113 H 1849.77 -5.32795 2.11666 0
M  V30 19114 H 1848.17 -5.25147 2.90414 0
M  V30 19115 H 1849.24 -3.83912 2.96209 0
M  V30 19116 N 1850.58 -0.841432 -1.33258 0
M  V30 19117 C 1851.81 -0.45101 -2.02437 0
M  V30 19118 C 1852.23 0.940811 -1.62881 0
M  V30 19119 O 1851.59 1.61559 -0.82271 0
M  V30 19120 C 1851.64 -0.58237 -3.55866 0
M  V30 19121 O 1850.74 0.390326 -4.10549 0
M  V30 19122 H 1850.08 -0.182996 -0.638285 0
M  V30 19123 H 1852.61 -1.13697 -1.701 0
M  V30 19124 H 1852.62 -0.464967 -4.05342 0
M  V30 19125 H 1851.3 -1.59739 -3.84 0
M  V30 19126 H 1849.87 0.230266 -3.72188 0
M  V30 19127 N 1852.06 1.4581 -0.598108 0
M  V30 19128 C 1852.99 2.28611 0.164271 0
M  V30 19129 C 1854 1.39406 0.840827 0
M  V30 19130 O 1855.19 1.63867 0.707805 0
M  V30 19131 C 1852.29 3.14883 1.25306 0
M  V30 19132 C 1851.47 4.32308 0.66546 0
M  V30 19133 C 1850.53 4.99862 1.64392 0
M  V30 19134 O 1849.55 5.56963 1.17393 0
M  V30 19135 N 1850.75 4.98278 2.97825 0
M  V30 19136 H 1853.52 2.94681 -0.546181 0
M  V30 19137 H 1851.08 1.55893 -0.436933 0
M  V30 19138 H 1853.07 3.5694 1.90724 0
M  V30 19139 H 1851.64 2.50785 1.86616 0
M  V30 19140 H 1850.86 3.93848 -0.166567 0
M  V30 19141 H 1852.15 5.08171 0.252938 0
M  V30 19142 H 1851.55 4.53159 3.38619 0
M  V30 19143 H 1850.1 5.44228 3.58691 0
M  V30 19144 N 1853.54 0.336733 1.53961 0
M  V30 19145 C 1854.76 -0.26614 2.05685 0
M  V30 19146 C 1855.19 -1.43973 1.21051 0
M  V30 19147 O 1854.55 -1.79928 0.222652 0
M  V30 19148 C 1854.59 -0.66571 3.54402 0
M  V30 19149 O 1853.7 -1.76656 3.72648 0
M  V30 19150 H 1853.04 -0.0455655 0.662435 0
M  V30 19151 H 1855.57 0.488969 1.98671 0
M  V30 19152 H 1855.58 -0.944748 3.96911 0
M  V30 19153 H 1854.25 0.192589 4.15454 0
M  V30 19154 H 1852.83 -1.48531 3.42042 0
M  V30 19155 N 1855.02 -1.57465 0.0651956 0
M  V30 19156 C 1856.24 -1.97975 -0.618099 0
M  V30 19157 C 1856.67 -0.943068 -1.62751 0
M  V30 19158 O 1856.02 0.0921045 -1.81066 0
M  V30 19159 C 1856.07 -3.37533 -1.26902 0
M  V30 19160 O 1855.18 -3.36451 -2.38483 0
M  V30 19161 H 1854.52 -0.644553 -0.159524 0
M  V30 19162 H 1857.05 -2.04136 0.137754 0
M  V30 19163 H 1857.06 -3.74571 -1.61742 0
M  V30 19164 H 1855.73 -4.12518 -0.529334 0
M  V30 19165 H 1854.31 -3.11175 -2.05486 0
M  V30 19166 N 1856.49 0.20831 -1.56217 0
M  V30 19167 C 1857.42 1.26115 -1.96513 0
M  V30 19168 C 1858.4 1.48185 -0.835183 0
M  V30 19169 O 1859.59 1.60145 -1.09851 0
M  V30 19170 C 1856.72 2.6082 -2.29326 0
M  V30 19171 C 1855.67 2.53385 -3.44935 0
M  V30 19172 C 1855 3.92241 -3.63388 0
M  V30 19173 C 1856.3 2.07026 -4.79518 0
M  V30 19174 H 1857.99 0.92635 -2.84709 0
M  V30 19175 H 1855.54 0.444169 -1.36979 0
M  V30 19176 H 1857.49 3.34644 -2.56109 0
M  V30 19177 H 1856.22 2.96014 -1.37997 0
M  V30 19178 H 1854.88 1.82018 -3.18222 0
M  V30 19179 H 1854.52 4.24766 -2.69413 0
M  V30 19180 H 1854.22 3.88145 -4.41154 0
M  V30 19181 H 1855.75 4.67707 -3.92533 0
M  V30 19182 H 1857.16 2.70601 -5.05419 0
M  V30 19183 H 1855.56 2.13961 -5.60661 0
M  V30 19184 H 1856.63 1.02298 -4.73986 0
M  V30 19185 N 1857.97 1.50255 0.475528 0
M  V30 19186 C 1858.9 1.63428 1.59268 0
M  V30 19187 C 1859.88 0.482517 1.55276 0
M  V30 19188 O 1861.07 0.70144 1.74963 0
M  V30 19189 C 1858.19 1.61277 2.97838 0
M  V30 19190 C 1857.24 2.81961 3.20001 0
M  V30 19191 S 1858.07 4.43321 3.00378 0
M  V30 19192 C 1859.23 4.43855 4.41297 0
M  V30 19193 H 1859.46 2.57928 1.47853 0
M  V30 19194 H 1856.99 1.39462 0.662547 0
M  V30 19195 H 1858.95 1.60721 3.77729 0
M  V30 19196 H 1857.61 0.680212 3.06646 0
M  V30 19197 H 1856.81 2.76747 4.21221 0
M  V30 19198 H 1856.41 2.80061 2.47875 0
M  V30 19199 H 1858.7 4.17145 5.33851 0
M  V30 19200 H 1859.64 5.45439 4.51555 0
M  V30 19201 H 1860.05 3.73616 4.23168 0
M  V30 19202 N 1859.45 -0.728395 1.39758 0
M  V30 19203 C 1860.7 -1.48514 1.37069 0
M  V30 19204 C 1861.02 -1.94976 -0.0305263 0
M  V30 19205 O 1860.29 -1.69453 -0.982987 0
M  V30 19206 H 1858.87 -0.550958 0.504434 0
M  V30 19207 H 1861.53 -0.864297 1.74688 0
M  V30 19208 H 1860.63 -2.36411 2.03755 0
M  V30 19209 N 1860.93 -1.25042 -0.959279 0
M  V30 19210 C 1862.15 -1.12339 -1.74341 0
M  V30 19211 C 1862.58 0.319342 -1.85369 0
M  V30 19212 O 1861.94 1.23129 -1.33075 0
M  V30 19213 C 1861.98 -1.77734 -3.13756 0
M  V30 19214 O 1861.09 -1.05383 -3.98708 0
M  V30 19215 H 1860.43 -0.392479 -0.535589 0
M  V30 19216 H 1862.96 -1.65516 -1.20274 0
M  V30 19217 H 1862.97 -1.83832 -3.64239 0
M  V30 19218 H 1861.64 -2.82702 -3.05045 0
M  V30 19219 H 1860.22 -1.07132 -3.57179 0
M  V30 19220 N 1862.41 1.16121 -1.06553 0
M  V30 19221 C 1863.34 2.20181 -0.636617 0
M  V30 19222 C 1864.35 1.59884 0.306731 0
M  V30 19223 O 1865.54 1.78235 0.0973101 0
M  V30 19224 C 1862.64 3.38789 0.0865541 0
M  V30 19225 C 1861.81 4.28641 -0.870941 0
M  V30 19226 C 1860.87 5.25869 -0.186538 0
M  V30 19227 O 1859.9 5.63189 -0.825028 0
M  V30 19228 N 1861.1 5.70536 1.0709 0
M  V30 19229 H 1863.87 2.576 -1.53175 0
M  V30 19230 H 1861.43 1.31157 -0.949185 0
M  V30 19231 H 1863.42 4.00878 0.554881 0
M  V30 19232 H 1861.99 2.99854 0.883524 0
M  V30 19233 H 1861.21 3.63776 -1.51858 0
M  V30 19234 H 1862.5 4.85552 -1.5204 0
M  V30 19235 H 1861.89 5.42314 1.60973 0
M  V30 19236 H 1860.45 6.34704 1.48305 0
M  V30 19237 N 1863.88 0.848487 1.3281 0
M  V30 19238 C 1864.82 0.245947 2.27877 0
M  V30 19239 C 1865.83 -0.578811 1.52163 0
M  V30 19240 O 1867.02 -0.404308 1.73861 0
M  V30 19241 C 1864.12 -0.671584 3.32179 0
M  V30 19242 C 1863.29 0.115958 4.37246 0
M  V30 19243 C 1862.35 -0.726387 5.21162 0
M  V30 19244 O 1861.38 -0.162121 5.68969 0
M  V30 19245 N 1862.58 -2.04216 5.43393 0
M  V30 19246 H 1865.34 1.06281 2.80222 0
M  V30 19247 H 1862.9 0.707872 1.45605 0
M  V30 19248 H 1864.9 -1.2403 3.85225 0
M  V30 19249 H 1863.47 -1.38914 2.80039 0
M  V30 19250 H 1862.69 0.866084 3.84568 0
M  V30 19251 H 1863.97 0.657126 5.04539 0
M  V30 19252 H 1863.37 -2.52401 5.06271 0
M  V30 19253 H 1861.93 -2.55914 5.99459 0
M  V30 19254 N 1865.36 -1.4549 0.605832 0
M  V30 19255 C 1866.61 -2.02251 0.100338 0
M  V30 19256 C 1866.94 -1.47447 -1.26845 0
M  V30 19257 O 1866.19 -0.638532 -1.8499 0
M  V30 19258 C 1866.49 -3.57399 0.00918576 0
M  V30 19259 C 1866.16 -4.31347 1.31341 0
M  V30 19260 C 1864.82 -4.51267 1.67067 0
M  V30 19261 C 1867.17 -4.73629 2.17543 0
M  V30 19262 C 1864.5 -5.10725 2.88751 0
M  V30 19263 C 1866.85 -5.34432 3.38474 0
M  V30 19264 C 1865.52 -5.52576 3.74455 0
M  V30 19265 H 1864.79 -0.74009 0.0367165 0
M  V30 19266 H 1867.43 -1.74577 0.787099 0
M  V30 19267 H 1865.74 -3.84342 -0.760829 0
M  V30 19268 H 1867.43 -3.99019 -0.398057 0
M  V30 19269 H 1864.02 -4.16155 1.02533 0
M  V30 19270 H 1868.21 -4.57974 1.91241 0
M  V30 19271 H 1863.46 -5.22961 3.16736 0
M  V30 19272 H 1867.64 -5.66149 4.05522 0
M  V30 19273 H 1865.27 -5.98416 4.68831 0
M  V30 19274 N 1866.84 -0.344893 -1.5378 0
M  V30 19275 C 1867.77 0.545646 -2.2261 0
M  V30 19276 C 1868.79 1.06288 -1.23315 0
M  V30 19277 O 1869.97 0.972802 -1.49662 0
M  V30 19278 C 1867.07 1.76379 -2.89385 0
M  V30 19279 C 1866.25 1.38162 -4.15006 0
M  V30 19280 C 1865.31 2.45958 -4.65179 0
M  V30 19281 O 1864.33 2.0921 -5.29358 0
M  V30 19282 N 1865.53 3.77232 -4.41221 0
M  V30 19283 H 1868.3 -0.043834 -2.99668 0
M  V30 19284 H 1865.86 -0.169081 -1.61015 0
M  V30 19285 H 1867.85 2.47928 -3.19865 0
M  V30 19286 H 1866.42 2.26061 -2.15905 0
M  V30 19287 H 1865.64 0.496839 -3.91056 0
M  V30 19288 H 1866.93 1.10227 -4.96717 0
M  V30 19289 H 1866.33 4.09875 -3.89896 0
M  V30 19290 H 1864.89 4.44947 -4.76304 0
M  V30 19291 N 1868.32 1.57428 -0.0735454 0
M  V30 19292 C 1869.6 1.84962 0.636265 0
M  V30 19293 C 1869.98 0.966341 1.87683 0
M  V30 19294 O 1869.32 0.0330837 2.28476 0
M  V30 19295 C 1869.53 3.35184 0.972251 0
M  V30 19296 C 1870.88 4.02735 1.34499 0
M  V30 19297 O 1871.91 3.3994 1.06393 0
M  V30 19298 O 1870.76 5.13495 1.87043 0
M  V30 19299 H 1867.86 0.764169 0.316187 0
M  V30 19300 H 1870.4 1.69377 -0.104609 0
M  V30 19301 H 1869.18 3.91194 0.0912319 0
M  V30 19302 H 1868.8 3.56038 1.76983 0
M  V30 19303 N 1869.8 -0.200022 1.56326 0
M  V30 19304 C 1871.04 -0.919355 1.79979 0
M  V30 19305 C 1871.37 -1.83997 0.645767 0
M  V30 19306 O 1870.64 -1.92994 -0.336186 0
M  V30 19307 H 1869.22 -0.342469 0.66387 0
M  V30 19308 H 1871.88 -0.206713 1.93801 0
M  V30 19309 H 1870.97 -1.51341 2.72951 0
M  V30 19310 N 1871.27 -1.50505 -0.467553 0
M  V30 19311 C 1872.18 -1.72419 -1.59087 0
M  V30 19312 C 1873.2 -0.607403 -1.63054 0
M  V30 19313 O 1874.38 -0.886148 -1.80857 0
M  V30 19314 C 1871.44 -1.81686 -2.95281 0
M  V30 19315 C 1870.5 -3.05435 -3.01675 0
M  V30 19316 C 1869.74 -3.1425 -4.31373 0
M  V30 19317 O 1869.96 -2.29766 -5.22076 0
M  V30 19318 O 1868.89 -4.07005 -4.43431 0
M  V30 19319 H 1872.72 -2.67649 -1.43519 0
M  V30 19320 H 1870.3 -1.34643 -0.647422 0
M  V30 19321 H 1872.19 -1.89941 -3.76165 0
M  V30 19322 H 1870.86 -0.896404 -3.11041 0
M  V30 19323 H 1869.77 -3.02678 -2.19856 0
M  V30 19324 H 1871.1 -3.97071 -2.90853 0
M  V30 19325 N 1872.75 0.720973 -1.40142 0
M  V30 19326 C 1873.7 1.8564 -1.40145 0
M  V30 19327 C 1874.69 1.67025 -0.282667 0
M  V30 19328 O 1875.9 1.74195 -0.453429 0
M  V30 19329 H 1872.28 0.611316 -0.437947 0
M  V30 19330 H 1874.25 1.82753 -2.35889 0
M  V30 19331 C 1873 3.23455 -1.27563 0
M  V30 19332 H 1872.32 3.38382 -2.12926 0
M  V30 19333 H 1873.76 4.03052 -1.31623 0
M  V30 19334 C 1872.22 3.36897 0.0146614 0
M  V30 19335 O 1872.75 3.89572 0.979616 0
M  V30 19336 N 1870.95 2.90483 0.0823795 0
M  V30 19337 H 1870.5 2.47805 -0.70359 0
M  V30 19338 H 1870.46 2.99856 0.945177 0
M  V30 19339 N 1874.23 1.25549 0.952634 0
M  V30 19340 C 1875.14 1.07855 2.08337 0
M  V30 19341 C 1876.16 0.0151456 1.73993 0
M  V30 19342 O 1877.33 0.216498 2.00233 0
M  V30 19343 C 1874.4 0.701369 3.39532 0
M  V30 19344 C 1873.46 1.84293 3.8773 0
M  V30 19345 C 1872.69 1.48365 5.12663 0
M  V30 19346 O 1872.91 0.3802 5.69131 0
M  V30 19347 O 1871.85 2.31452 5.5562 0
M  V30 19348 H 1875.67 2.02688 2.26167 0
M  V30 19349 H 1873.26 1.04506 1.06765 0
M  V30 19350 H 1875.14 0.503231 4.18384 0
M  V30 19351 H 1873.82 -0.217671 3.22967 0
M  V30 19352 H 1872.72 2.09595 3.09872 0
M  V30 19353 H 1874.06 2.74129 4.08796 0
M  V30 19354 N 1875.71 -1.15554 1.07168 0
M  V30 19355 C 1876.62 -2.2386 0.701714 0
M  V30 19356 C 1877.63 -1.7163 -0.28621 0
M  V30 19357 O 1878.81 -2.00958 -0.133308 0
M  V30 19358 C 1875.88 -3.46546 0.103165 0
M  V30 19359 C 1874.94 -4.13774 1.14409 0
M  V30 19360 C 1874.17 -5.30604 0.574007 0
M  V30 19361 O 1874.39 -5.67123 -0.610521 0
M  V30 19362 O 1873.33 -5.87293 1.31799 0
M  V30 19363 H 1877.15 -2.57833 1.60487 0
M  V30 19364 H 1874.74 -1.23241 0.844514 0
M  V30 19365 H 1876.62 -4.2078 -0.228452 0
M  V30 19366 H 1875.29 -3.14327 -0.773339 0
M  V30 19367 H 1874.2 -3.4147 1.52803 0
M  V30 19368 H 1875.53 -4.5007 1.99243 0
M  V30 19369 N 1877.19 -0.855519 -1.32358 0
M  V30 19370 C 1878.43 -0.465622 -1.99026 0
M  V30 19371 C 1878.79 0.960971 -1.66221 0
M  V30 19372 O 1879.99 1.45547 -2.25986 0
M  V30 19373 C 1878.26 -0.698892 -3.505 0
M  V30 19374 S 1879.82 -0.406697 -4.36911 0
M  V30 19375 H 1876.64 -0.1744 -0.689279 0
M  V30 19376 H 1879.24 -1.10842 -1.61041 0
M  V30 19377 H 1877.95 -1.73623 -3.71865 0
M  V30 19378 H 1877.48 -0.0425537 -3.93377 0
M  V30 19379 H 1879.49 0.766931 -4.90237 0
M  V30 19380 N 1878.67 1.45167 -0.61354 0
M  V30 19381 C 1879.91 2.01796 -0.110844 0
M  V30 19382 C 1880.23 1.48372 1.26534 0
M  V30 19383 O 1879.5 0.680323 1.83707 0
M  V30 19384 H 1878.08 0.746034 -0.0379861 0
M  V30 19385 H 1880.75 1.77892 -0.796279 0
M  V30 19386 H 1879.84 3.12032 -0.0651413 0
M  V30 19387 N 1880.14 0.353044 1.53595 0
M  V30 19388 C 1881.11 -0.48691 2.23968 0
M  V30 19389 C 1882.11 -1.01991 1.24316 0
M  V30 19390 O 1883.3 -0.907654 1.48685 0
M  V30 19391 C 1880.43 -1.67926 2.96671 0
M  V30 19392 H 1881.62 0.128707 2.99624 0
M  V30 19393 H 1879.17 0.104533 1.5595 0
M  V30 19394 H 1879.91 -2.33331 2.25227 0
M  V30 19395 H 1879.69 -1.30417 3.69776 0
M  V30 19396 H 1881.18 -2.2748 3.50203 0
M  V30 19397 N 1881.62 -1.57387 0.0818932 0
M  V30 19398 C 1882.85 -1.9862 -0.597066 0
M  V30 19399 C 1883.27 -0.960277 -1.61741 0
M  V30 19400 O 1882.63 0.0728948 -1.81153 0
M  V30 19401 C 1882.68 -3.3886 -1.23315 0
M  V30 19402 O 1881.78 -3.38962 -2.34901 0
M  V30 19403 H 1881.12 -0.646208 -0.152679 0
M  V30 19404 H 1883.65 -2.03978 0.159398 0
M  V30 19405 H 1883.66 -3.76266 -1.5776 0
M  V30 19406 H 1882.34 -4.13056 -0.485551 0
M  V30 19407 H 1880.91 -3.13337 -2.02174 0
M  V30 19408 N 1883.1 0.191729 -1.56429 0
M  V30 19409 C 1884.03 1.24024 -1.97839 0
M  V30 19410 C 1885.01 1.47291 -0.850853 0
M  V30 19411 O 1886.2 1.58971 -1.11543 0
M  V30 19412 C 1883.33 2.58373 -2.32079 0
M  V30 19413 C 1882.28 2.49712 -3.47603 0
M  V30 19414 C 1881.61 3.88365 -3.67528 0
M  V30 19415 C 1882.91 2.01929 -4.81687 0
M  V30 19416 H 1884.6 0.8961 -2.85675 0
M  V30 19417 H 1882.15 0.429616 -1.37442 0
M  V30 19418 H 1884.1 3.31908 -2.59643 0
M  V30 19419 H 1882.82 2.94534 -1.41129 0
M  V30 19420 H 1881.48 1.78632 -3.20135 0
M  V30 19421 H 1881.13 4.21884 -2.73903 0
M  V30 19422 H 1880.83 3.83444 -4.45246 0
M  V30 19423 H 1882.35 4.63518 -3.97472 0
M  V30 19424 H 1883.77 2.65225 -5.0826 0
M  V30 19425 H 1882.16 2.08002 -5.62899 0
M  V30 19426 H 1883.23 0.972649 -4.75045 0
M  V30 19427 N 1884.58 1.50751 0.459565 0
M  V30 19428 C 1885.83 1.61995 1.20839 0
M  V30 19429 C 1886.15 0.327782 1.92225 0
M  V30 19430 O 1885.42 -0.655341 1.84613 0
M  V30 19431 H 1884 0.596972 0.449036 0
M  V30 19432 H 1886.66 1.87582 0.52906 0
M  V30 19433 H 1885.75 2.43678 1.95006 0
M  V30 19434 N 1886.06 -0.713531 1.40522 0
M  V30 19435 C 1887.3 -1.47052 1.38637 0
M  V30 19436 C 1887.62 -1.94998 -0.00984474 0
M  V30 19437 O 1886.89 -1.70486 -0.964959 0
M  V30 19438 H 1885.47 -0.545577 0.51025 0
M  V30 19439 H 1888.14 -0.84572 1.75595 0
M  V30 19440 H 1887.23 -2.34237 2.06251 0
M  V30 19441 N 1887.53 -1.26053 -0.945962 0
M  V30 19442 C 1888.48 -1.03869 -2.02966 0
M  V30 19443 C 1889.47 0.0273393 -1.60877 0
M  V30 19444 O 1890.66 -0.189042 -1.75988 0
M  V30 19445 C 1887.79 -0.668594 -3.36726 0
M  V30 19446 C 1886.87 -1.77183 -3.85314 0
M  V30 19447 N 1887.27 -3.00846 -4.06602 0
M  V30 19448 C 1885.56 -1.65434 -4.14183 0
M  V30 19449 C 1886.26 -3.72516 -4.46774 0
M  V30 19450 N 1885.24 -3.00179 -4.53204 0
M  V30 19451 H 1889.04 -1.9774 -2.1743 0
M  V30 19452 H 1886.56 -1.165 -1.13144 0
M  V30 19453 H 1888.55 -0.490833 -4.14001 0
M  V30 19454 H 1887.21 0.262695 -3.23636 0
M  V30 19455 H 1888.22 -3.36802 -3.93427 0
M  V30 19456 H 1884.9 -0.792617 -4.09907 0
M  V30 19457 H 1886.29 -4.78707 -4.71476 0
M  V30 19458 N 1889.01 1.14984 -1.07779 0
M  V30 19459 C 1889.92 2.23484 -0.713576 0
M  V30 19460 C 1890.94 1.71779 0.277104 0
M  V30 19461 O 1892.11 2.01026 0.122649 0
M  V30 19462 C 1889.18 3.46487 -0.121542 0
M  V30 19463 C 1888.24 4.13162 -1.16602 0
M  V30 19464 C 1887.47 5.30292 -0.602138 0
M  V30 19465 O 1887.7 5.67439 0.580436 0
M  V30 19466 O 1886.63 5.86585 -1.34912 0
M  V30 19467 H 1890.46 2.56978 -1.61852 0
M  V30 19468 H 1888.04 1.22791 -0.851038 0
M  V30 19469 H 1889.92 4.20896 0.206134 0
M  V30 19470 H 1888.6 3.14732 0.756659 0
M  V30 19471 H 1887.5 3.40655 -1.54612 0
M  V30 19472 H 1888.84 4.49007 -2.01627 0
M  V30 19473 N 1890.49 0.862526 1.31902 0
M  V30 19474 C 1891.44 0.284531 2.26218 0
M  V30 19475 C 1892.42 -0.57415 1.50307 0
M  V30 19476 O 1893.62 -0.422246 1.7189 0
M  V30 19477 C 1890.74 -0.5194 3.39348 0
M  V30 19478 C 1889.83 0.352108 4.22636 0
M  V30 19479 N 1890.22 1.44208 4.84807 0
M  V30 19480 C 1888.52 0.143232 4.4577 0
M  V30 19481 C 1889.22 1.97889 5.47005 0
M  V30 19482 N 1888.2 1.27694 5.28389 0
M  V30 19483 H 1892 1.1177 2.71817 0
M  V30 19484 H 1889.51 0.709483 1.46083 0
M  V30 19485 H 1891.51 -0.94995 4.05933 0
M  V30 19486 H 1890.17 -1.35027 2.95293 0
M  V30 19487 H 1891.18 1.82501 4.84679 0
M  V30 19488 H 1887.86 -0.652289 4.12373 0
M  V30 19489 H 1889.25 2.89298 6.06429 0
M  V30 19490 N 1891.97 -1.4484 0.62123 0
M  V30 19491 C 1893.38 -1.85568 0.205284 0
M  V30 19492 C 1893.73 -1.51963 -1.24104 0
M  V30 19493 O 1892.86 -0.952887 -1.94291 0
M  V30 19494 C 1893.45 -3.3682 0.365788 0
M  V30 19495 C 1892.01 -3.764 0.00442911 0
M  V30 19496 C 1891.16 -2.68736 0.683839 0
M  V30 19497 H 1894.11 -1.35447 0.827036 0
M  V30 19498 H 1894.13 -3.78411 -0.398123 0
M  V30 19499 H 1893.64 -3.61247 1.41853 0
M  V30 19500 H 1891.74 -3.57588 -1.04696 0
M  V30 19501 H 1891.85 -4.77363 0.407588 0
M  V30 19502 H 1890.22 -2.54417 0.120114 0
M  V30 19503 H 1891 -2.95997 1.73898 0
M  V30 19504 N 1893.45 -0.361184 -1.53405 0
M  V30 19505 C 1894.72 0.286047 -1.93497 0
M  V30 19506 C 1895.1 1.66764 -1.29434 0
M  V30 19507 O 1894.45 2.23989 -0.451785 0
M  V30 19508 C 1894.66 0.340663 -3.47333 0
M  V30 19509 C 1896.01 0.58311 -4.20577 0
M  V30 19510 O 1897.03 0.422054 -3.53691 0
M  V30 19511 O 1895.89 0.896383 -5.39099 0
M  V30 19512 H 1892.99 0.17059 -0.809215 0
M  V30 19513 H 1895.53 -0.413648 -1.64581 0
M  V30 19514 H 1894.3 -0.628175 -3.86225 0
M  V30 19515 H 1893.93 1.08643 -3.82469 0
M  V30 19516 N 1894.92 1.57341 -0.0902386 0
M  V30 19517 C 1895.85 2.16782 0.86764 0
M  V30 19518 C 1896.84 1.09982 1.29761 0
M  V30 19519 O 1898.02 1.38099 1.36537 0
M  V30 19520 C 1895.15 2.74426 2.12856 0
M  V30 19521 C 1894.1 3.86555 1.83738 0
M  V30 19522 C 1893.43 4.3088 3.16617 0
M  V30 19523 C 1894.73 5.09971 1.12814 0
M  V30 19524 H 1896.42 2.97075 0.372417 0
M  V30 19525 H 1893.97 1.42899 0.177689 0
M  V30 19526 H 1895.92 3.14659 2.80299 0
M  V30 19527 H 1894.65 1.9138 2.64653 0
M  V30 19528 H 1893.31 3.46853 1.18694 0
M  V30 19529 H 1892.95 3.44732 3.66291 0
M  V30 19530 H 1892.65 5.06477 2.97918 0
M  V30 19531 H 1894.18 4.73743 3.85227 0
M  V30 19532 H 1895.59 5.47404 1.70358 0
M  V30 19533 H 1893.99 5.90965 1.04311 0
M  V30 19534 H 1895.06 4.84775 0.110114 0
M  V30 19535 N 1896.4 -0.183431 1.56529 0
M  V30 19536 C 1897.63 -0.921964 1.85781 0
M  V30 19537 C 1898.05 -1.75564 0.675184 0
M  V30 19538 O 1897.41 -1.7736 -0.375913 0
M  V30 19539 C 1897.46 -1.7844 3.13355 0
M  V30 19540 O 1896.56 -2.88461 2.94727 0
M  V30 19541 H 1895.9 -0.258974 0.611415 0
M  V30 19542 H 1898.43 -0.185225 2.0376 0
M  V30 19543 H 1898.44 -2.18675 3.44449 0
M  V30 19544 H 1897.12 -1.17195 3.99047 0
M  V30 19545 H 1895.7 -2.51897 2.74959 0
M  V30 19546 N 1897.88 -1.50992 -0.451564 0
M  V30 19547 C 1899.16 -1.53486 -1.2125 0
M  V30 19548 C 1899.54 -0.290809 -2.09087 0
M  V30 19549 O 1898.89 0.724859 -2.16698 0
M  V30 19550 C 1899.1 -2.84125 -2.02667 0
M  V30 19551 C 1900.44 -3.35535 -2.60195 0
M  V30 19552 O 1901.47 -2.85579 -2.12892 0
M  V30 19553 O 1900.33 -4.22667 -3.46432 0
M  V30 19554 H 1897.42 -0.616481 -0.551253 0
M  V30 19555 H 1899.97 -1.63296 -0.461792 0
M  V30 19556 H 1898.74 -3.66134 -1.38064 0
M  V30 19557 H 1898.36 -2.7741 -2.84832 0
M  V30 19558 N 1899.36 0.706069 -1.40899 0
M  V30 19559 C 1900.61 1.46315 -1.39415 0
M  V30 19560 C 1900.93 1.95 -0.000496593 0
M  V30 19561 O 1900.2 1.70995 0.955904 0
M  V30 19562 H 1898.78 0.542863 -0.513136 0
M  V30 19563 H 1901.44 0.836396 -1.76041 0
M  V30 19564 H 1900.54 2.33139 -2.07491 0
M  V30 19565 N 1900.84 1.26553 0.939264 0
M  V30 19566 C 1902.06 1.15098 1.72532 0
M  V30 19567 C 1902.49 -0.289811 1.85854 0
M  V30 19568 O 1901.84 -1.20997 1.35017 0
M  V30 19569 C 1901.89 1.82703 3.10889 0
M  V30 19570 O 1901 1.11712 3.96981 0
M  V30 19571 H 1900.34 0.40095 0.529278 0
M  V30 19572 H 1902.87 1.67408 1.17625 0
M  V30 19573 H 1902.88 1.89603 3.61268 0
M  V30 19574 H 1901.55 2.87519 3.00509 0
M  V30 19575 H 1900.13 1.12801 3.5543 0
M  V30 19576 N 1902.31 -1.14411 1.08387 0
M  V30 19577 C 1903.25 -2.19141 0.671565 0
M  V30 19578 C 1904.26 -1.60352 -0.281256 0
M  V30 19579 O 1905.45 -1.78367 -0.0689422 0
M  V30 19580 C 1902.55 -3.38884 -0.0326447 0
M  V30 19581 C 1901.72 -4.27201 0.939024 0
M  V30 19582 C 1900.78 -5.25506 0.270176 0
M  V30 19583 O 1899.81 -5.61805 0.914522 0
M  V30 19584 N 1901.01 -5.72168 -0.980002 0
M  V30 19585 H 1903.77 -2.5513 1.57254 0
M  V30 19586 H 1901.33 -1.2963 0.969931 0
M  V30 19587 H 1903.33 -4.0171 -0.491035 0
M  V30 19588 H 1901.9 -3.01222 -0.835708 0
M  V30 19589 H 1901.12 -3.61314 1.57626 0
M  V30 19590 H 1902.4 -4.83072 1.59746 0
M  V30 19591 H 1901.8 -5.44806 -1.52325 0
M  V30 19592 H 1900.36 -6.36983 -1.38189 0
M  V30 19593 N 1903.79 -0.869509 -1.31443 0
M  V30 19594 C 1904.74 -0.296524 -2.26064 0
M  V30 19595 C 1905.73 0.566171 -1.5061 0
M  V30 19596 O 1906.92 0.413124 -1.72111 0
M  V30 19597 C 1904.05 0.501397 -3.39619 0
M  V30 19598 C 1903.13 -0.374516 -4.22443 0
M  V30 19599 N 1903.52 -1.46777 -4.84035 0
M  V30 19600 C 1901.82 -0.16687 -4.45688 0
M  V30 19601 C 1902.52 -2.00787 -5.45948 0
M  V30 19602 N 1901.5 -1.30494 -5.27705 0
M  V30 19603 H 1905.3 -1.1321 -2.71221 0
M  V30 19604 H 1902.82 -0.71722 -1.45704 0
M  V30 19605 H 1904.81 0.928409 -4.06431 0
M  V30 19606 H 1903.47 1.33459 -2.96005 0
M  V30 19607 H 1904.48 -1.85069 -4.83704 0
M  V30 19608 H 1901.16 0.630411 -4.12713 0
M  V30 19609 H 1902.55 -2.9251 -6.04887 0
M  V30 19610 N 1905.27 1.44508 -0.628902 0
M  V30 19611 C 1906.2 2.33412 0.0642512 0
M  V30 19612 C 1907.18 1.48077 0.837091 0
M  V30 19613 O 1908.37 1.76802 0.803415 0
M  V30 19614 C 1905.5 3.31112 1.04795 0
M  V30 19615 C 1904.45 4.26248 0.386897 0
M  V30 19616 C 1903.78 5.13799 1.48035 0
M  V30 19617 C 1905.08 5.17514 -0.705449 0
M  V30 19618 H 1906.77 2.91619 -0.678133 0
M  V30 19619 H 1904.32 1.40225 -0.327558 0
M  V30 19620 H 1906.27 3.9219 1.54159 0
M  V30 19621 H 1904.99 2.71109 1.8212 0
M  V30 19622 H 1903.65 3.66499 -0.0860697 0
M  V30 19623 H 1903.3 4.5015 2.24441 0
M  V30 19624 H 1903 5.78262 1.04342 0
M  V30 19625 H 1904.52 5.77748 1.97583 0
M  V30 19626 H 1905.94 5.7254 -0.295004 0
M  V30 19627 H 1904.34 5.90567 -1.06538 0
M  V30 19628 H 1905.41 4.5866 -1.57349 0
M  V30 19629 N 1906.75 0.369315 1.53212 0
M  V30 19630 C 1907.7 -0.490481 2.2737 0
M  V30 19631 C 1908.69 -1.08021 1.30491 0
M  V30 19632 O 1909.9 -1.02298 1.48105 0
M  V30 19633 H 1906.27 -0.176899 0.730897 0
M  V30 19634 H 1908.24 0.156696 2.97988 0
M  V30 19635 C 1906.99 -1.61628 3.0785 0
M  V30 19636 H 1906.32 -1.1718 3.82242 0
M  V30 19637 H 1907.76 -2.19252 3.62911 0
M  V30 19638 C 1906.21 -2.56077 2.18921 0
M  V30 19639 O 1906.74 -3.58988 1.80251 0
M  V30 19640 N 1904.95 -2.25352 1.83479 0
M  V30 19641 H 1904.5 -1.41701 2.15124 0
M  V30 19642 H 1904.46 -2.888 1.24264 0
M  V30 19643 N 1908.23 -1.57291 0.0985816 0
M  V30 19644 C 1909.45 -1.99242 -0.575966 0
M  V30 19645 C 1909.88 -0.977378 -1.60714 0
M  V30 19646 O 1909.24 0.053677 -1.81221 0
M  V30 19647 C 1909.28 -3.40148 -1.19714 0
M  V30 19648 O 1908.39 -3.41434 -2.31293 0
M  V30 19649 H 1907.73 -0.647791 -0.145816 0
M  V30 19650 H 1910.26 -2.03798 0.181023 0
M  V30 19651 H 1910.27 -3.77918 -1.5376 0
M  V30 19652 H 1908.94 -4.13548 -0.441714 0
M  V30 19653 H 1907.52 -3.15464 -1.98839 0
M  V30 19654 N 1909.71 0.175127 -1.56624 0
M  V30 19655 C 1910.93 0.912099 -1.86267 0
M  V30 19656 C 1911.36 1.75204 -0.684485 0
M  V30 19657 O 1910.71 1.77557 0.366501 0
M  V30 19658 C 1910.76 1.76776 -3.14297 0
M  V30 19659 O 1909.87 2.86894 -2.96253 0
M  V30 19660 H 1909.21 0.255728 -0.61278 0
M  V30 19661 H 1911.74 0.174416 -2.03855 0
M  V30 19662 H 1911.75 2.16845 -3.45604 0
M  V30 19663 H 1910.42 1.15077 -3.99663 0
M  V30 19664 H 1909 2.50435 -2.76291 0
M  V30 19665 N 1911.18 1.5123 0.44355 0
M  V30 19666 C 1912.42 1.65246 1.20305 0
M  V30 19667 C 1912.79 0.357897 1.88635 0
M  V30 19668 O 1913.99 0.373765 2.66189 0
M  V30 19669 C 1912.26 2.8184 2.19775 0
M  V30 19670 S 1913.82 3.16149 3.04295 0
M  V30 19671 H 1910.64 0.582242 0.408063 0
M  V30 19672 H 1913.24 1.89114 0.495589 0
M  V30 19673 H 1911.94 3.74347 1.68204 0
M  V30 19674 H 1911.47 2.60141 2.95111 0
M  V30 19675 H 1913.49 2.62102 4.21327 0
M  V30 19676 N 1912.66 -0.698586 1.41271 0
M  V30 19677 C 1913.89 -1.48528 1.43608 0
M  V30 19678 C 1914.3 -1.8916 0.0388929 0
M  V30 19679 O 1913.64 -1.5714 -0.951457 0
M  V30 19680 C 1913.7 -2.78049 2.27879 0
M  V30 19681 C 1913.37 -2.59638 3.76081 0
M  V30 19682 C 1914.37 -2.25782 4.68315 0
M  V30 19683 C 1912.05 -2.75373 4.2009 0
M  V30 19684 C 1914.04 -2.07894 6.02544 0
M  V30 19685 C 1911.73 -2.57102 5.54384 0
M  V30 19686 C 1912.73 -2.23413 6.45427 0
M  V30 19687 O 1912.42 -2.05298 7.77244 0
M  V30 19688 H 1912.15 -0.464356 0.491273 0
M  V30 19689 H 1914.7 -0.867883 1.86164 0
M  V30 19690 H 1912.93 -3.42183 1.80132 0
M  V30 19691 H 1914.62 -3.39841 2.21953 0
M  V30 19692 H 1915.39 -2.13243 4.35606 0
M  V30 19693 H 1911.27 -3.00579 3.49533 0
M  V30 19694 H 1914.81 -1.81522 6.73569 0
M  V30 19695 H 1910.71 -2.6923 5.86673 0
M  V30 19696 H 1911.48 -2.20085 7.88356 0
M  V30 19697 N 1914.14 -1.27049 -0.93254 0
M  V30 19698 C 1915.55 -1.11887 -1.49459 0
M  V30 19699 C 1915.9 0.297825 -1.93926 0
M  V30 19700 O 1915.03 1.19024 -1.80727 0
M  V30 19701 C 1915.62 -2.02497 -2.71626 0
M  V30 19702 C 1914.18 -1.91455 -3.24071 0
M  V30 19703 C 1913.33 -1.95337 -1.96821 0
M  V30 19704 H 1916.28 -1.40013 -0.747138 0
M  V30 19705 H 1916.3 -1.57794 -3.46239 0
M  V30 19706 H 1915.81 -3.05598 -2.39231 0
M  V30 19707 H 1913.91 -0.913212 -3.61236 0
M  V30 19708 H 1914.03 -2.77443 -3.90592 0
M  V30 19709 H 1912.39 -1.395 -2.13101 0
M  V30 19710 H 1913.17 -3.00084 -1.66746 0
M  V30 19711 N 1915.62 1.13835 -1.08993 0
M  V30 19712 C 1916.84 1.89402 -0.845071 0
M  V30 19713 C 1917.27 1.78353 0.597641 0
M  V30 19714 O 1916.63 1.12793 1.41942 0
M  V30 19715 C 1916.67 3.37144 -1.27931 0
M  V30 19716 O 1915.78 4.101 -0.434975 0
M  V30 19717 H 1915.12 0.589066 -0.306427 0
M  V30 19718 H 1917.65 1.44055 -1.45291 0
M  V30 19719 H 1917.66 3.87967 -1.26277 0
M  V30 19720 H 1916.33 3.44504 -2.33002 0
M  V30 19721 H 1914.91 3.6932 -0.515447 0
M  V30 19722 N 1917.1 0.876467 1.3098 0
M  V30 19723 C 1918.32 0.505315 2.00634 0
M  V30 19724 C 1918.74 -0.903951 1.65753 0
M  V30 19725 O 1918.1 -1.59318 0.890164 0
M  V30 19726 C 1918.15 0.660442 3.55416 0
M  V30 19727 O 1917.87 2.01422 3.89051 0
M  V30 19728 C 1919.37 0.291158 4.42343 0
M  V30 19729 H 1916.59 0.196195 0.641676 0
M  V30 19730 H 1919.13 1.17942 1.67062 0
M  V30 19731 H 1917.29 0.0338076 3.87385 0
M  V30 19732 H 1917.7 2.02668 4.83762 0
M  V30 19733 H 1919.18 0.450631 5.50158 0
M  V30 19734 H 1919.65 -0.770188 4.32394 0
M  V30 19735 H 1920.26 0.893762 4.15803 0
M  V30 19736 N 1918.57 -1.44173 0.636557 0
M  V30 19737 C 1919.81 -2.03874 0.146599 0
M  V30 19738 C 1920.18 -1.49026 -1.21059 0
M  V30 19739 O 1921.38 -2.00264 -1.79298 0
M  V30 19740 C 1919.65 -3.57131 0.138577 0
M  V30 19741 S 1921.21 -4.37867 -0.285968 0
M  V30 19742 H 1918.03 -0.708136 0.0637502 0
M  V30 19743 H 1920.63 -1.76479 0.841163 0
M  V30 19744 H 1919.33 -3.94555 1.12936 0
M  V30 19745 H 1918.86 -3.89145 -0.577061 0
M  V30 19746 H 1920.88 -4.72059 -1.52889 0
M  V30 19747 N 1920.05 -0.377435 -1.53014 0
M  V30 19748 C 1921.3 0.209712 -2.00607 0
M  V30 19749 C 1921.61 1.48891 -1.2685 0
M  V30 19750 O 1922.82 2.15538 -1.65093 0
M  V30 19751 C 1921.28 0.424271 -3.5739 0
M  V30 19752 C 1920.88 -0.840982 -4.40036 0
M  V30 19753 C 1922.63 0.968428 -4.13306 0
M  V30 19754 C 1920.53 -0.595355 -5.88396 0
M  V30 19755 H 1919.46 0.0821436 -0.749512 0
M  V30 19756 H 1922.12 -0.498005 -1.76613 0
M  V30 19757 H 1920.5 1.19354 -3.77585 0
M  V30 19758 H 1921.67 -1.61396 -4.31611 0
M  V30 19759 H 1919.99 -1.30922 -3.95283 0
M  V30 19760 H 1922.58 1.16771 -5.21794 0
M  V30 19761 H 1922.93 1.93405 -3.68647 0
M  V30 19762 H 1923.46 0.259025 -3.96956 0
M  V30 19763 H 1920.2 -1.53164 -6.37355 0
M  V30 19764 H 1919.72 0.138904 -5.99639 0
M  V30 19765 H 1921.4 -0.225366 -6.46607 0
M  V30 19766 N 1921.53 1.57237 -0.106922 0
M  V30 19767 C 1922.76 1.9912 0.562038 0
M  V30 19768 C 1923.17 0.986338 1.60987 0
M  V30 19769 O 1922.53 -0.0224611 1.82486 0
M  V30 19770 C 1922.58 3.41034 1.19909 0
M  V30 19771 O 1922.3 4.37674 0.193157 0
M  V30 19772 C 1923.8 3.97984 1.95253 0
M  V30 19773 H 1921.02 0.654071 0.149772 0
M  V30 19774 H 1923.57 2.03618 -0.189699 0
M  V30 19775 H 1921.72 3.37513 1.90168 0
M  V30 19776 H 1922.14 5.20401 0.654461 0
M  V30 19777 H 1923.61 4.99398 2.35171 0
M  V30 19778 H 1924.09 3.36455 2.82303 0
M  V30 19779 H 1924.69 4.05014 1.29784 0
M  V30 19780 N 1923.01 -0.166818 1.56715 0
M  V30 19781 C 1924.29 -0.910255 1.73129 0
M  V30 19782 C 1924.67 -2.002 0.669555 0
M  V30 19783 O 1924.01 -2.2632 -0.314899 0
M  V30 19784 C 1924.22 -1.47087 3.16491 0
M  V30 19785 C 1925.57 -1.94204 3.77584 0
M  V30 19786 O 1926.6 -1.56872 3.19796 0
M  V30 19787 O 1925.45 -2.62988 4.79061 0
M  V30 19788 H 1922.55 -0.428766 0.70717 0
M  V30 19789 H 1925.09 -0.154295 1.68997 0
M  V30 19790 H 1923.87 -0.685322 3.85252 0
M  V30 19791 H 1923.49 -2.29089 3.24967 0
M  V30 19792 N 1924.49 -1.51463 -0.435524 0
M  V30 19793 C 1925.74 -1.63454 -1.18176 0
M  V30 19794 C 1926.05 -0.357501 -1.92305 0
M  V30 19795 O 1927.25 -0.356815 -2.69145 0
M  V30 19796 C 1925.71 -2.88676 -2.14928 0
M  V30 19797 C 1925.32 -4.23391 -1.46438 0
M  V30 19798 C 1927.06 -3.10025 -2.89974 0
M  V30 19799 C 1924.97 -5.39761 -2.41685 0
M  V30 19800 H 1923.9 -0.608812 -0.444819 0
M  V30 19801 H 1926.55 -1.77931 -0.448635 0
M  V30 19802 H 1924.93 -2.67837 -2.91683 0
M  V30 19803 H 1926.11 -4.54618 -0.75229 0
M  V30 19804 H 1924.42 -4.07934 -0.835385 0
M  V30 19805 H 1927.02 -3.9414 -3.61327 0
M  V30 19806 H 1927.36 -2.23177 -3.51423 0
M  V30 19807 H 1927.89 -3.31213 -2.20325 0
M  V30 19808 H 1924.63 -6.28875 -1.84922 0
M  V30 19809 H 1924.15 -5.12908 -3.10943 0
M  V30 19810 H 1925.83 -5.71783 -3.02776 0
M  V30 19811 N 1925.96 0.691085 -1.4164 0
M  V30 19812 C 1926.89 1.8173 -1.46616 0
M  V30 19813 C 1927.88 1.66979 -0.324357 0
M  V30 19814 O 1929.06 1.86644 -0.536424 0
M  V30 19815 C 1926.19 3.19903 -1.35201 0
M  V30 19816 C 1925.14 3.49366 -2.47239 0
M  V30 19817 C 1924.47 4.86942 -2.20887 0
M  V30 19818 C 1925.77 3.47891 -3.89575 0
M  V30 19819 H 1927.46 1.77823 -2.40872 0
M  V30 19820 H 1925.01 0.8541 -1.15936 0
M  V30 19821 H 1926.96 3.98407 -1.37293 0
M  V30 19822 H 1925.69 3.24448 -0.374312 0
M  V30 19823 H 1924.35 2.73215 -2.44436 0
M  V30 19824 H 1923.99 4.88118 -1.2145 0
M  V30 19825 H 1923.69 5.0762 -2.95966 0
M  V30 19826 H 1925.22 5.67751 -2.24703 0
M  V30 19827 H 1926.63 4.16392 -3.94069 0
M  V30 19828 H 1925.03 3.80101 -4.64374 0
M  V30 19829 H 1926.1 2.46778 -4.17407 0
M  V30 19830 N 1927.44 1.27542 0.925789 0
M  V30 19831 C 1928.37 1.12952 2.04363 0
M  V30 19832 C 1929.35 0.0304761 1.70073 0
M  V30 19833 O 1930.54 0.205307 1.93112 0
M  V30 19834 C 1927.67 0.777954 3.38475 0
M  V30 19835 C 1926.62 1.83044 3.86883 0
M  V30 19836 C 1925.95 1.3328 5.17823 0
M  V30 19837 C 1927.25 3.23488 4.10065 0
M  V30 19838 H 1928.94 2.06462 2.16827 0
M  V30 19839 H 1926.49 0.994046 1.04186 0
M  V30 19840 H 1928.44 0.662702 4.16156 0
M  V30 19841 H 1927.17 -0.192851 3.2603 0
M  V30 19842 H 1925.82 1.93463 3.11396 0
M  V30 19843 H 1925.47 0.351399 5.01771 0
M  V30 19844 H 1925.17 2.03648 5.51182 0
M  V30 19845 H 1926.7 1.23053 5.98072 0
M  V30 19846 H 1928.11 3.16058 4.7831 0
M  V30 19847 H 1926.51 3.91583 4.54734 0
M  V30 19848 H 1927.58 3.68399 3.15293 0
M  V30 19849 N 1928.92 -1.13255 1.09595 0
M  V30 19850 C 1930.15 -1.88952 0.855104 0
M  V30 19851 C 1930.57 -1.78668 -0.588174 0
M  V30 19852 O 1929.93 -1.13544 -1.41341 0
M  V30 19853 C 1929.98 -3.36461 1.29717 0
M  V30 19854 O 1929.08 -4.09863 0.456717 0
M  V30 19855 H 1928.42 -0.587432 0.309547 0
M  V30 19856 H 1930.95 -1.43282 1.46053 0
M  V30 19857 H 1930.96 -3.87291 1.28333 0
M  V30 19858 H 1929.64 -3.43263 2.34826 0
M  V30 19859 H 1928.21 -3.69042 0.535026 0
M  V30 19860 N 1930.4 -0.883401 -1.30514 0
M  V30 19861 C 1931.63 -0.515199 -2.00073 0
M  V30 19862 C 1932.04 0.900374 -1.66403 0
M  V30 19863 O 1931.38 1.60339 -0.896503 0
M  V30 19864 C 1931.44 -0.608317 -3.54316 0
M  V30 19865 C 1931.11 -1.98792 -4.11498 0
M  V30 19866 C 1932.1 -2.95712 -4.2761 0
M  V30 19867 C 1929.79 -2.29288 -4.46914 0
M  V30 19868 C 1931.78 -4.21264 -4.78347 0
M  V30 19869 C 1929.47 -3.55086 -4.9735 0
M  V30 19870 C 1930.47 -4.50888 -5.13019 0
M  V30 19871 O 1930.15 -5.74455 -5.62367 0
M  V30 19872 H 1929.89 -0.197853 -0.646398 0
M  V30 19873 H 1932.44 -1.19015 -1.67405 0
M  V30 19874 H 1930.67 0.123606 -3.86502 0
M  V30 19875 H 1932.36 -0.251619 -4.05119 0
M  V30 19876 H 1933.13 -2.73463 -4.00553 0
M  V30 19877 H 1929 -1.55488 -4.33987 0
M  V30 19878 H 1932.55 -4.96048 -4.90492 0
M  V30 19879 H 1928.45 -3.77172 -5.23843 0
M  V30 19880 H 1929.21 -5.76814 -5.80713 0
M  V30 19881 N 1931.88 1.43833 -0.644194 0
M  V30 19882 C 1932.82 2.30739 0.0528797 0
M  V30 19883 C 1933.79 1.44234 0.823751 0
M  V30 19884 O 1934.98 1.73118 0.802171 0
M  V30 19885 C 1932.12 3.29695 1.01956 0
M  V30 19886 C 1931.23 4.31301 0.245734 0
M  V30 19887 C 1930.37 5.17343 1.2054 0
M  V30 19888 C 1929.41 6.10647 0.421486 0
M  V30 19889 N 1928.54 6.89344 1.33228 0
M  V30 19890 H 1933.38 2.89803 -0.694123 0
M  V30 19891 H 1930.92 1.42775 -0.354069 0
M  V30 19892 H 1932.88 3.85568 1.59353 0
M  V30 19893 H 1931.51 2.72302 1.73354 0
M  V30 19894 H 1930.56 3.77795 -0.44438 0
M  V30 19895 H 1931.87 4.97468 -0.364231 0
M  V30 19896 H 1931.03 5.77797 1.85029 0
M  V30 19897 H 1929.76 4.51279 1.84928 0
M  V30 19898 H 1928.77 5.4929 -0.236816 0
M  V30 19899 H 1929.99 6.7875 -0.217862 0
M  V30 19900 H 1927.94 6.25937 1.96312 0
M  V30 19901 H 1927.86 7.52 0.776653 0
M  V30 19902 H 1929.13 7.54311 1.9656 0
M  V30 19903 N 1933.35 0.385544 1.52811 0
M  V30 19904 C 1934.3 -0.468278 2.23139 0
M  V30 19905 C 1935.29 -1.03267 1.23388 0
M  V30 19906 O 1936.48 -0.959402 1.48743 0
M  V30 19907 C 1933.61 -1.59702 3.03892 0
M  V30 19908 C 1932.7 -1.04454 4.11035 0
M  V30 19909 N 1933.09 -0.216705 5.05336 0
M  V30 19910 C 1931.38 -1.31741 4.26099 0
M  V30 19911 C 1932.09 0.0880825 5.81633 0
M  V30 19912 N 1931.06 -0.514871 5.41156 0
M  V30 19913 H 1934.86 0.170786 2.93403 0
M  V30 19914 H 1932.38 0.194643 1.61229 0
M  V30 19915 H 1934.37 -2.22107 3.52809 0
M  V30 19916 H 1933.03 -2.23894 2.35162 0
M  V30 19917 H 1934.05 0.145732 5.17695 0
M  V30 19918 H 1930.72 -1.96065 3.68598 0
M  V30 19919 H 1932.11 0.758586 6.67604 0
M  V30 19920 N 1934.83 -1.57178 0.115259 0
M  V30 19921 C 1936.24 -1.82126 -0.410715 0
M  V30 19922 C 1936.59 -1.03219 -1.66854 0
M  V30 19923 O 1935.72 -0.267639 -2.14739 0
M  V30 19924 C 1936.31 -3.30351 -0.751923 0
M  V30 19925 C 1934.87 -3.55993 -1.22255 0
M  V30 19926 C 1934.02 -2.7635 -0.229344 0
M  V30 19927 H 1936.97 -1.55005 0.340441 0
M  V30 19928 H 1936.99 -3.44775 -1.60968 0
M  V30 19929 H 1936.5 -3.87754 0.163726 0
M  V30 19930 H 1934.61 -3.03942 -2.15522 0
M  V30 19931 H 1934.72 -4.64583 -1.17046 0
M  V30 19932 H 1933.08 -2.4444 -0.715621 0
M  V30 19933 H 1933.87 -3.36511 0.679337 0
M  V30 19934 N 1936.31 0.158505 -1.56801 0
M  V30 19935 C 1937.22 1.2157 -2.00644 0
M  V30 19936 C 1938.24 1.47694 -0.919914 0
M  V30 19937 O 1939.41 1.59591 -1.22853 0
M  V30 19938 C 1936.48 2.53191 -2.36844 0
M  V30 19939 C 1935.54 2.34816 -3.59389 0
M  V30 19940 C 1934.77 3.60161 -3.93853 0
M  V30 19941 O 1935 4.65871 -3.29121 0
M  V30 19942 O 1933.93 3.53508 -4.8715 0
M  V30 19943 H 1937.76 0.873512 -2.90867 0
M  V30 19944 H 1935.34 0.366356 -1.44839 0
M  V30 19945 H 1937.22 3.30812 -2.6104 0
M  V30 19946 H 1935.9 2.86963 -1.4978 0
M  V30 19947 H 1934.8 1.55184 -3.40395 0
M  V30 19948 H 1936.14 2.05964 -4.47034 0
M  V30 19949 N 1937.79 1.51692 0.427485 0
M  V30 19950 C 1939.04 1.65091 1.17782 0
M  V30 19951 C 1939.37 0.370783 1.90627 0
M  V30 19952 O 1938.64 -0.630065 1.84012 0
M  V30 19953 C 1938.93 2.86083 2.18697 0
M  V30 19954 C 1938.78 4.24098 1.4987 0
M  V30 19955 C 1940.1 3.0259 3.19573 0
M  V30 19956 H 1937.22 0.600817 0.426835 0
M  V30 19957 H 1939.86 1.84202 0.46581 0
M  V30 19958 H 1938.01 2.6992 2.79419 0
M  V30 19959 H 1939.68 4.51949 0.924093 0
M  V30 19960 H 1937.92 4.26343 0.800894 0
M  V30 19961 H 1938.6 5.04768 2.23413 0
M  V30 19962 H 1941.07 3.17529 2.68914 0
M  V30 19963 H 1939.95 3.88794 3.87467 0
M  V30 19964 H 1940.21 2.15093 3.86248 0
M  V30 19965 N 1939.27 -0.683564 1.42004 0
M  V30 19966 C 1940.49 -1.47711 1.45589 0
M  V30 19967 C 1940.92 -1.87984 0.0661307 0
M  V30 19968 O 1940.28 -1.55425 -0.933428 0
M  V30 19969 C 1940.32 -2.70824 2.3809 0
M  V30 19970 O 1939.43 -3.68766 1.84622 0
M  V30 19971 H 1938.77 -0.444102 0.493629 0
M  V30 19972 H 1941.3 -0.839192 1.86598 0
M  V30 19973 H 1941.31 -3.18996 2.54373 0
M  V30 19974 H 1939.98 -2.4085 3.39063 0
M  V30 19975 H 1938.56 -3.27756 1.77849 0
M  V30 19976 N 1940.75 -1.28031 -0.919012 0
M  V30 19977 C 1941.99 -1.14878 -1.66761 0
M  V30 19978 C 1942.32 0.303688 -1.92115 0
M  V30 19979 O 1941.58 1.23781 -1.51581 0
M  V30 19980 C 1941.87 -1.887 -3.03524 0
M  V30 19981 C 1941.54 -3.3852 -2.9785 0
M  V30 19982 C 1940.2 -3.79383 -2.9601 0
M  V30 19983 C 1942.55 -4.34077 -2.88491 0
M  V30 19984 C 1939.88 -5.14152 -2.82604 0
M  V30 19985 C 1942.23 -5.68912 -2.76625 0
M  V30 19986 C 1940.9 -6.09057 -2.7314 0
M  V30 19987 H 1940.17 -0.420368 -0.610223 0
M  V30 19988 H 1942.82 -1.58743 -1.07111 0
M  V30 19989 H 1941.12 -1.37368 -3.66929 0
M  V30 19990 H 1942.82 -1.75944 -3.6034 0
M  V30 19991 H 1939.41 -3.06028 -3.00074 0
M  V30 19992 H 1943.59 -4.03473 -2.89004 0
M  V30 19993 H 1938.85 -5.4439 -2.78298 0
M  V30 19994 H 1943.02 -6.4262 -2.6835 0
M  V30 19995 H 1940.65 -7.13437 -2.62509 0
M  V30 19996 N 1942.22 1.12672 -1.10194 0
M  V30 19997 C 1943.45 1.88496 -0.865112 0
M  V30 19998 C 1943.87 1.78977 0.578691 0
M  V30 19999 O 1943.23 1.14292 1.40737 0
M  V30 20000 C 1943.28 3.35768 -1.315 0
M  V30 20001 O 1942.38 4.09615 -0.478447 0
M  V30 20002 H 1941.72 0.585782 -0.312658 0
M  V30 20003 H 1944.25 1.42506 -1.46811 0
M  V30 20004 H 1944.26 3.86605 -1.30385 0
M  V30 20005 H 1942.94 3.42013 -2.36643 0
M  V30 20006 H 1941.52 3.68753 -0.554589 0
M  V30 20007 N 1943.7 0.89031 1.30043 0
M  V30 20008 C 1944.63 0.305628 2.26144 0
M  V30 20009 C 1945.61 -0.576854 1.52024 0
M  V30 20010 O 1946.8 -0.525759 1.81019 0
M  V30 20011 C 1943.92 -0.56523 3.3395 0
M  V30 20012 C 1942.97 0.248651 4.25775 0
M  V30 20013 S 1943.8 1.64039 5.09756 0
M  V30 20014 C 1944.96 0.7762 6.21068 0
M  V30 20015 H 1945.19 1.12021 2.75388 0
M  V30 20016 H 1942.72 0.690064 1.38121 0
M  V30 20017 H 1944.68 -1.06193 3.96527 0
M  V30 20018 H 1943.34 -1.35396 2.8342 0
M  V30 20019 H 1942.54 -0.416165 5.02279 0
M  V30 20020 H 1942.14 0.678155 3.678 0
M  V30 20021 H 1944.43 -0.00451589 6.775 0
M  V30 20022 H 1945.37 1.51302 6.91747 0
M  V30 20023 H 1945.78 0.334741 5.63507 0
M  V30 20024 N 1945.18 -1.43489 0.651812 0
M  V30 20025 C 1946.09 -2.34564 -0.0413115 0
M  V30 20026 C 1947.11 -1.53803 -0.81368 0
M  V30 20027 O 1948.28 -1.86459 -0.761246 0
M  V30 20028 C 1945.35 -3.32063 -0.996745 0
M  V30 20029 C 1944.41 -4.28728 -0.221464 0
M  V30 20030 C 1943.64 -5.2157 -1.13139 0
M  V30 20031 O 1943.86 -5.18804 -2.37062 0
M  V30 20032 O 1942.8 -5.98856 -0.604552 0
M  V30 20033 H 1946.62 -2.95325 0.708295 0
M  V30 20034 H 1944.21 -1.43607 0.411999 0
M  V30 20035 H 1946.09 -3.92022 -1.54586 0
M  V30 20036 H 1944.77 -2.73807 -1.7266 0
M  V30 20037 H 1943.67 -3.72254 0.371205 0
M  V30 20038 H 1945.01 -4.89962 0.468797 0
M  V30 20039 N 1946.66 -0.393643 -1.52605 0
M  V30 20040 C 1947.59 0.474548 -2.24234 0
M  V30 20041 C 1948.6 1.02311 -1.26634 0
M  V30 20042 O 1949.79 0.924695 -1.52681 0
M  V30 20043 C 1946.89 1.67083 -2.9485 0
M  V30 20044 C 1946.06 1.24889 -4.19192 0
M  V30 20045 C 1945.12 2.31034 -4.72768 0
M  V30 20046 O 1944.15 1.92263 -5.35746 0
M  V30 20047 N 1945.35 3.63004 -4.52999 0
M  V30 20048 H 1948.12 -0.139149 -2.99377 0
M  V30 20049 H 1945.68 -0.220221 -1.60395 0
M  V30 20050 H 1947.67 2.37626 -3.27591 0
M  V30 20051 H 1946.24 2.19078 -2.22988 0
M  V30 20052 H 1945.46 0.372176 -3.92439 0
M  V30 20053 H 1946.75 0.94369 -4.99972 0
M  V30 20054 H 1946.15 3.97263 -4.02739 0
M  V30 20055 H 1944.7 4.29568 -4.90219 0
M  V30 20056 N 1948.14 1.57115 -0.123593 0
M  V30 20057 C 1949.1 2.14386 0.810624 0
M  V30 20058 C 1950.1 1.07985 1.19146 0
M  V30 20059 O 1951.29 1.33739 1.11622 0
M  V30 20060 C 1948.42 2.68785 2.09683 0
M  V30 20061 H 1949.61 2.98264 0.312818 0
M  V30 20062 H 1947.17 1.55794 0.125682 0
M  V30 20063 H 1947.9 1.88509 2.63884 0
M  V30 20064 H 1947.69 3.46607 1.8332 0
M  V30 20065 H 1949.18 3.12989 2.76455 0
M  V30 20066 N 1949.61 -0.150187 1.56883 0
M  V30 20067 C 1950.86 -0.86163 1.82812 0
M  V30 20068 C 1951.18 -1.81849 0.703977 0
M  V30 20069 O 1950.45 -1.93966 -0.274616 0
M  V30 20070 H 1949.03 -0.321175 0.67443 0
M  V30 20071 H 1951.69 -0.144952 1.9436 0
M  V30 20072 H 1950.79 -1.4258 2.77628 0
M  V30 20073 N 1951.09 -1.51916 -0.419434 0
M  V30 20074 C 1952.34 -1.65714 -1.16905 0
M  V30 20075 C 1952.67 -0.380888 -1.90428 0
M  V30 20076 O 1951.95 0.620297 -1.84344 0
M  V30 20077 C 1952.23 -2.87239 -2.17177 0
M  V30 20078 C 1952.08 -4.24887 -1.47619 0
M  V30 20079 C 1953.4 -3.04281 -3.17964 0
M  V30 20080 H 1950.52 -0.603072 -0.423643 0
M  V30 20081 H 1953.16 -1.84446 -0.456035 0
M  V30 20082 H 1951.31 -2.71398 -2.77984 0
M  V30 20083 H 1952.98 -4.52433 -0.900112 0
M  V30 20084 H 1951.23 -4.26761 -0.778273 0
M  V30 20085 H 1951.9 -5.05945 -2.20733 0
M  V30 20086 H 1954.37 -3.18951 -2.67226 0
M  V30 20087 H 1953.25 -3.90843 -3.85399 0
M  V30 20088 H 1953.51 -2.17138 -3.85102 0
M  V30 20089 O 1952.61 0.565276 -1.51284 0
M  V30 20090 H 1953.3 1.22036 -1.50422 0
M  V30 END ATOM
M  V30 BEGIN BOND
M  V30 END BOND
M  V30 END CTAB
M  END
$$$$
