drugbank_target|Q9Y2D1 Cyclic AMP-dependent transcription factor ATF-5 (DB00852)
 OpenBabel12092121013D

  0  0  0     0  0            999 V3000
M  V30 BEGIN CTAB
M  V30 COUNTS 4341 4410 0 0 0
M  V30 BEGIN ATOM
M  V30 1 H -0.908 1.98254 -0.117106 0
M  V30 2 N 0 1.576 0 0
M  V30 3 C 0.933 2.03868 1.02534 0
M  V30 4 C 1.911 0.928543 1.3348 0
M  V30 5 O 3.095 1.19667 1.45644 0
M  V30 6 C 0.222 2.43627 2.35294 0
M  V30 7 C -0.732 3.65373 2.2001 0
M  V30 8 S 0.101 5.13292 1.52614 0
M  V30 9 C 1.257 5.56322 2.86805 0
M  V30 10 H 1.49 2.90518 0.631377 0
M  V30 11 H -0.977 1.52953 0.210867 0
M  V30 12 H 0.981 2.67203 3.11629 0
M  V30 13 H -0.358 1.57376 2.7183 0
M  V30 14 H -1.165 3.90944 3.18086 0
M  V30 15 H -1.563 3.418 1.51819 0
M  V30 16 H 0.729 5.58782 3.83104 0
M  V30 17 H 1.672 6.56266 2.65933 0
M  V30 18 H 2.08 4.83886 2.90714 0
M  V30 19 N 1.4781 -0.272755 1.55222 0
M  V30 20 C 2.7031 -1.02683 1.80197 0
M  V30 21 C 3.1281 -1.79142 0.573551 0
M  V30 22 O 2.4861 -1.74917 -0.476849 0
M  V30 23 C 2.5341 -1.9609 3.02624 0
M  V30 24 O 1.6381 -3.04863 2.77727 0
M  V30 25 H 0.9791 -0.293557 0.595584 0
M  V30 26 H 3.5091 -0.30159 2.02365 0
M  V30 27 H 3.5191 -2.38039 3.31363 0
M  V30 28 H 2.1941 -1.39851 3.91682 0
M  V30 29 H 0.7711 -2.67228 2.60084 0
M  V30 30 N 2.9562 -1.48159 -0.537278 0
M  V30 31 C 3.8862 -1.65029 -1.6519 0
M  V30 32 C 4.8672 -0.499281 -1.62607 0
M  V30 33 O 6.0522 -0.730972 -1.79918 0
M  V30 34 C 3.1822 -1.68303 -3.03795 0
M  V30 35 C 2.1362 -2.8283 -3.21234 0
M  V30 36 C 1.4622 -2.71189 -4.60826 0
M  V30 37 C 2.7622 -4.24211 -3.04701 0
M  V30 38 H 4.4562 -2.58341 -1.51328 0
M  V30 39 H 2.0022 -1.24325 -0.726585 0
M  V30 40 H 3.9552 -1.78693 -3.81637 0
M  V30 41 H 2.6792 -0.715635 -3.18663 0
M  V30 42 H 1.3382 -2.71983 -2.45807 0
M  V30 43 H 0.9862 -1.72435 -4.7252 0
M  V30 44 H 0.6862 -3.48035 -4.7344 0
M  V30 45 H 2.2102 -2.83537 -5.40777 0
M  V30 46 H 3.6242 -4.3593 -3.72341 0
M  V30 47 H 2.0212 -5.01998 -3.28813 0
M  V30 48 H 3.0912 -4.41184 -2.01209 0
M  V30 49 N 4.4343 0.785586 -1.36625 0
M  V30 50 C 5.3643 1.91259 -1.33949 0
M  V30 51 C 6.3453 1.68795 -0.210325 0
M  V30 52 O 7.5303 1.89854 -0.408561 0
M  V30 53 C 4.6603 3.28339 -1.13186 0
M  V30 54 C 3.6143 3.65335 -2.22967 0
M  V30 55 C 2.9403 5.00806 -1.87342 0
M  V30 56 C 4.2403 3.7352 -3.65075 0
M  V30 57 H 5.9343 1.93755 -2.28253 0
M  V30 58 H 3.4803 0.930788 -1.09874 0
M  V30 59 H 5.4333 4.06804 -1.09948 0
M  V30 60 H 4.1573 3.2624 -0.153332 0
M  V30 61 H 2.8163 2.89169 -2.25337 0
M  V30 62 H 2.4643 4.95233 -0.880545 0
M  V30 63 H 2.1643 5.26529 -2.60846 0
M  V30 64 H 3.6883 5.81687 -1.85667 0
M  V30 65 H 5.1023 4.42168 -3.64911 0
M  V30 66 H 3.4993 4.10731 -4.37516 0
M  V30 67 H 4.5693 2.74527 -3.99703 0
M  V30 68 N 5.9124 1.20967 1.01018 0
M  V30 69 C 6.8754 0.965918 2.07853 0
M  V30 70 C 7.8754 -0.0610545 1.60684 0
M  V30 71 O 9.0654 0.175681 1.73312 0
M  V30 72 C 6.1974 0.455513 3.37843 0
M  V30 73 H 7.3904 1.91365 2.3091 0
M  V30 74 H 4.9434 1.02594 1.17916 0
M  V30 75 H 5.6784 -0.497381 3.20463 0
M  V30 76 H 5.4634 1.19622 3.73407 0
M  V30 77 H 6.9534 0.304667 4.16487 0
M  V30 78 N 7.3905 -1.2043 1.01659 0
M  V30 79 C 8.6185 -1.93777 0.725132 0
M  V30 80 C 9.0335 -1.74772 -0.714166 0
M  V30 81 O 8.3905 -1.06169 -1.4844 0
M  V30 82 C 8.4415 -3.45876 1.05129 0
M  V30 83 O 8.1625 -3.6426 2.43406 0
M  V30 84 C 9.6635 -4.36368 0.780891 0
M  V30 85 H 6.8835 -0.615901 0.266284 0
M  V30 86 H 9.4275 -1.52922 1.35776 0
M  V30 87 H 7.5825 -3.8461 0.464065 0
M  V30 88 H 7.9965 -4.58246 2.55169 0
M  V30 89 H 9.4705 -5.41743 1.05918 0
M  V30 90 H 9.9475 -4.38275 -0.284937 0
M  V30 91 H 10.5535 -4.03296 1.35027 0
M  V30 92 N 8.8686 -0.792821 -1.36206 0
M  V30 93 C 9.7986 -0.207853 -2.32573 0
M  V30 94 C 10.7796 0.659055 -1.56813 0
M  V30 95 O 11.9646 0.592176 -1.84951 0
M  V30 96 C 9.0946 0.655449 -3.41059 0
M  V30 97 C 8.0486 -0.111842 -4.27854 0
M  V30 98 C 7.3746 0.872274 -5.27537 0
M  V30 99 C 8.6746 -1.30299 -5.05786 0
M  V30 100 H 10.3686 -1.01294 -2.81744 0
M  V30 101 H 7.9146 -0.48854 -1.3546 0
M  V30 102 H 9.8676 1.07464 -4.07467 0
M  V30 103 H 8.5916 1.49328 -2.90463 0
M  V30 104 H 7.2506 -0.512053 -3.63006 0
M  V30 105 H 6.8986 1.70523 -4.73214 0
M  V30 106 H 6.5986 0.363291 -5.86476 0
M  V30 107 H 8.1226 1.28996 -5.96818 0
M  V30 108 H 9.5366 -0.959379 -5.65216 0
M  V30 109 H 7.9336 -1.7455 -5.74154 0
M  V30 110 H 9.0036 -2.09663 -4.37229 0
M  V30 111 N 10.3467 1.47872 -0.545128 0
M  V30 112 C 11.5947 2.02093 -0.016553 0
M  V30 113 C 11.9157 1.42305 1.3332 0
M  V30 114 O 11.1857 0.593853 1.86682 0
M  V30 115 H 9.7657 0.746993 -0.00313038 0
M  V30 116 H 12.4277 1.81414 -0.712397 0
M  V30 117 H 11.5237 3.11996 0.0805422 0
M  V30 118 N 11.8248 0.280983 1.55075 0
M  V30 119 C 12.7548 -0.597469 2.25727 0
M  V30 120 C 13.7358 -1.15417 1.24952 0
M  V30 121 O 14.9208 -1.18722 1.53684 0
M  V30 122 C 12.0508 -1.7789 2.98283 0
M  V30 123 C 11.0048 -1.35347 4.06036 0
M  V30 124 C 10.3308 -2.61846 4.66198 0
M  V30 125 C 11.6308 -0.499354 5.19907 0
M  V30 126 H 13.3248 -0.00824265 2.99399 0
M  V30 127 H 10.8708 -0.0025244 1.44 0
M  V30 128 H 12.8238 -2.39937 3.46422 0
M  V30 129 H 11.5478 -2.39405 2.22155 0
M  V30 130 H 10.2068 -0.756156 3.58717 0
M  V30 131 H 9.8548 -3.21632 3.86732 0
M  V30 132 H 9.5548 -2.3409 5.38958 0
M  V30 133 H 11.0788 -3.24732 5.1709 0
M  V30 134 H 12.4928 -1.02498 5.64063 0
M  V30 135 H 10.8898 -0.316424 5.99265 0
M  V30 136 H 11.9598 0.480459 4.82514 0
M  V30 137 N 13.3029 -1.57598 0.00835791 0
M  V30 138 C 14.2129 -2.12385 -0.996487 0
M  V30 139 C 15.2289 -1.07108 -1.37127 0
M  V30 140 O 16.4049 -1.39055 -1.4569 0
M  V30 141 C 13.4699 -2.62314 -2.26699 0
M  V30 142 C 12.5309 -3.82225 -1.95456 0
M  V30 143 C 11.7639 -4.29763 -3.16449 0
M  V30 144 O 11.9869 -3.76584 -4.28416 0
M  V30 145 O 10.9209 -5.21832 -2.99958 0
M  V30 146 H 14.7469 -2.98479 -0.560725 0
M  V30 147 H 12.3319 -1.47903 -0.210987 0
M  V30 148 H 14.2139 -2.94589 -3.01322 0
M  V30 149 H 12.8889 -1.79313 -2.69497 0
M  V30 150 H 11.7959 -3.54909 -1.18282 0
M  V30 151 H 13.1289 -4.66324 -1.57489 0
M  V30 152 N 14.781 0.264519 -1.55364 0
M  V30 153 C 15.711 1.33121 -1.91836 0
M  V30 154 C 16.692 1.51101 -0.781192 0
M  V30 155 O 17.877 1.64003 -1.04003 0
M  V30 156 C 15.007 2.68921 -2.19769 0
M  V30 157 C 13.961 2.65661 -3.35571 0
M  V30 158 C 13.287 4.05093 -3.49004 0
M  V30 159 C 14.587 2.24187 -4.71739 0
M  V30 160 H 16.281 1.02844 -2.81182 0
M  V30 161 H 13.827 0.493286 -1.35287 0
M  V30 162 H 15.78 3.43663 -2.43872 0
M  V30 163 H 14.504 3.00799 -1.27231 0
M  V30 164 H 13.163 1.93377 -3.1145 0
M  V30 165 H 12.811 4.34206 -2.53917 0
M  V30 166 H 12.511 4.03804 -4.26868 0
M  V30 167 H 14.035 4.81561 -3.75408 0
M  V30 168 H 15.449 2.88654 -4.9533 0
M  V30 169 H 13.846 2.34044 -5.52579 0
M  V30 170 H 14.916 1.19327 -4.69988 0
M  V30 171 N 16.2591 1.48442 0.529413 0
M  V30 172 C 17.5361 1.46978 1.29062 0
M  V30 173 C 17.9161 0.181769 2.10316 0
M  V30 174 O 17.2641 -0.836481 2.12639 0
M  V30 175 C 17.4741 2.7321 2.17157 0
M  V30 176 C 18.8221 3.21562 2.77278 0
M  V30 177 O 19.8461 2.74131 2.27444 0
M  V30 178 O 18.7051 4.04094 3.67927 0
M  V30 179 H 15.7991 0.587003 0.582543 0
M  V30 180 H 18.3451 1.60676 0.546021 0
M  V30 181 H 17.1171 3.58465 1.56903 0
M  V30 182 H 16.7401 2.62235 2.98862 0
M  V30 183 N 17.7372 -0.778329 1.37039 0
M  V30 184 C 19.1532 -1.07796 1.17695 0
M  V30 185 C 19.3532 -2.01498 0.00860115 0
M  V30 186 O 18.4092 -2.43901 -0.653352 0
M  V30 187 C 19.7222 -1.68178 2.49272 0
M  V30 188 C 21.2702 -1.80467 2.55735 0
M  V30 189 C 21.7452 -2.44263 3.87427 0
M  V30 190 N 23.2362 -2.51721 3.88833 0
M  V30 191 C 23.9712 -3.01919 4.87476 0
M  V30 192 N 23.4672 -3.5234 5.96513 0
M  V30 193 N 25.2602 -3.00733 4.74885 0
M  V30 194 H 17.4112 -0.156032 2.11826 0
M  V30 195 H 19.6742 -0.131844 0.938787 0
M  V30 196 H 19.3802 -1.06796 3.35093 0
M  V30 197 H 19.2542 -2.67554 2.65885 0
M  V30 198 H 21.6412 -2.40984 1.70325 0
M  V30 199 H 21.7222 -0.798656 2.43013 0
M  V30 200 H 21.3662 -1.84388 4.73248 0
M  V30 201 H 21.2962 -3.45458 3.9745 0
M  V30 202 H 23.7872 -2.1603 3.10063 0
M  V30 203 H 24.1002 -3.89027 6.67741 0
M  V30 204 H 22.4452 -3.50462 6.00168 0
M  V30 205 H 25.6362 -2.60638 3.88826 0
M  V30 206 H 25.8092 -3.39545 5.51918 0
M  V30 207 N 19.2153 -1.21501 -1.00376 0
M  V30 208 C 20.1783 -0.976927 -2.07337 0
M  V30 209 C 21.1783 0.0525322 -1.60714 0
M  V30 210 O 22.3683 -0.184869 -1.73216 0
M  V30 211 C 19.5003 -0.473423 -3.37597 0
M  V30 212 H 20.6933 -1.92587 -2.29892 0
M  V30 213 H 18.2463 -1.03217 -1.17371 0
M  V30 214 H 18.9813 0.480379 -3.20722 0
M  V30 215 H 18.7663 -1.216 -3.72768 0
M  V30 216 H 20.2563 -0.32675 -4.1632 0
M  V30 217 N 20.6934 1.19889 -1.02296 0
M  V30 218 C 21.6234 2.25141 -0.619174 0
M  V30 219 C 22.6044 1.66051 0.368915 0
M  V30 220 O 23.7894 1.92546 0.252941 0
M  V30 221 C 20.9194 3.4728 0.0368783 0
M  V30 222 C 19.8734 4.19005 -0.872865 0
M  V30 223 C 19.1994 5.34637 -0.0822402 0
M  V30 224 C 20.4994 4.74452 -2.18387 0
M  V30 225 H 22.1934 2.59171 -1.49903 0
M  V30 226 H 19.7394 1.24579 -0.722222 0
M  V30 227 H 21.6924 4.20098 0.330958 0
M  V30 228 H 20.4164 3.12433 0.95149 0
M  V30 229 H 19.0754 3.48061 -1.15105 0
M  V30 230 H 18.7234 4.96034 0.83422 0
M  V30 231 H 18.4234 5.83557 -0.688149 0
M  V30 232 H 19.9474 6.10255 0.205238 0
M  V30 233 H 21.3614 5.39055 -1.95172 0
M  V30 234 H 19.7584 5.33834 -2.74119 0
M  V30 235 H 20.8284 3.92844 -2.84257 0
M  V30 236 N 22.1715 0.800033 1.35784 0
M  V30 237 C 23.1015 0.220184 2.3246 0
M  V30 238 C 24.0825 -0.65073 1.57161 0
M  V30 239 O 25.2675 -0.582359 1.85263 0
M  V30 240 C 22.3975 -0.637353 3.41402 0
M  V30 241 C 21.3515 0.134531 4.27789 0
M  V30 242 C 20.6775 -0.844285 5.27992 0
M  V30 243 C 21.9775 1.32979 5.05088 0
M  V30 244 H 23.6715 1.02787 2.81203 0
M  V30 245 H 21.2175 0.495717 1.35199 0
M  V30 246 H 23.1705 -1.05302 4.08031 0
M  V30 247 H 21.8945 -1.47785 2.91251 0
M  V30 248 H 20.5535 0.531296 3.6273 0
M  V30 249 H 20.2015 -1.68011 4.74111 0
M  V30 250 H 19.9015 -0.332184 5.8666 0
M  V30 251 H 21.4255 -1.2583 5.97494 0
M  V30 252 H 22.8395 0.98934 5.64699 0
M  V30 253 H 21.2365 1.77593 5.7322 0
M  V30 254 H 22.3065 2.11978 4.36111 0
M  V30 255 N 23.6496 -1.47581 0.552962 0
M  V30 256 C 25.0606 -1.86324 0.118463 0
M  V30 257 C 25.4116 -1.46006 -1.3106 0
M  V30 258 O 24.5366 -0.861182 -1.98526 0
M  V30 259 C 25.1316 -3.3816 0.20821 0
M  V30 260 C 23.6906 -3.7601 -0.171226 0
M  V30 261 C 22.8376 -2.71634 0.557686 0
M  V30 262 H 25.7886 -1.39159 0.762928 0
M  V30 263 H 25.8096 -3.76141 -0.574278 0
M  V30 264 H 25.3216 -3.67473 1.24841 0
M  V30 265 H 23.4226 -3.52313 -1.21269 0
M  V30 266 H 23.5356 -4.78745 0.184379 0
M  V30 267 H 21.8996 -2.547 0.00125792 0
M  V30 268 H 22.6826 -3.0379 1.59896 0
M  V30 269 N 25.1277 -0.289203 -1.54924 0
M  V30 270 C 26.0907 0.579144 -2.21762 0
M  V30 271 C 27.0907 1.07047 -1.1999 0
M  V30 272 O 28.2807 0.968384 -1.44803 0
M  V30 273 C 25.4127 1.80055 -2.8947 0
M  V30 274 H 26.6057 -0.00464908 -2.999 0
M  V30 275 H 24.1587 -0.0399306 -1.56249 0
M  V30 276 H 24.8937 2.42449 -2.15381 0
M  V30 277 H 24.6787 1.45602 -3.64064 0
M  V30 278 H 26.1687 2.41773 -3.40493 0
M  V30 279 N 26.6058 1.57591 -0.0167156 0
M  V30 280 C 27.8308 1.9598 0.67872 0
M  V30 281 C 28.2558 0.892546 1.65575 0
M  V30 282 O 27.6138 -0.147772 1.80697 0
M  V30 283 C 27.6618 3.33468 1.37227 0
M  V30 284 O 26.7658 3.28954 2.48722 0
M  V30 285 H 26.1068 0.639339 0.17928 0
M  V30 286 H 28.6368 2.04463 -0.0748802 0
M  V30 287 H 28.6468 3.69417 1.7319 0
M  V30 288 H 27.3218 4.10694 0.656007 0
M  V30 289 H 25.8988 3.04705 2.14963 0
M  V30 290 N 28.0839 -0.256276 1.55502 0
M  V30 291 C 29.3319 -0.983672 1.76545 0
M  V30 292 C 29.6529 -1.86206 0.578982 0
M  V30 293 O 28.9229 -1.91656 -0.405577 0
M  V30 294 H 27.5029 -0.366191 0.651086 0
M  V30 295 H 30.1649 -0.276479 1.92929 0
M  V30 296 H 29.2609 -1.61087 2.67315 0
M  V30 297 N 29.562 -1.4872 -0.521534 0
M  V30 298 C 30.492 -1.66771 -1.63431 0
M  V30 299 C 31.473 -0.516499 -1.62069 0
M  V30 300 O 32.658 -0.750013 -1.79132 0
M  V30 301 C 29.788 -1.71515 -3.01993 0
M  V30 302 C 28.742 -2.86222 -3.18216 0
M  V30 303 C 28.068 -2.76061 -4.57924 0
M  V30 304 C 29.368 -4.27419 -3.00184 0
M  V30 305 H 31.062 -2.59932 -1.48579 0
M  V30 306 H 28.608 -1.25089 -0.713358 0
M  V30 307 H 30.561 -1.82731 -3.7972 0
M  V30 308 H 29.285 -0.749393 -3.17886 0
M  V30 309 H 27.944 -2.74575 -2.42908 0
M  V30 310 H 27.592 -1.77437 -4.70665 0
M  V30 311 H 27.292 -3.53037 -4.69722 0
M  V30 312 H 28.816 -2.89256 -5.37739 0
M  V30 313 H 30.23 -4.39855 -3.67697 0
M  V30 314 H 28.627 -5.05458 -3.2347 0
M  V30 315 H 29.697 -4.43293 -1.96518 0
M  V30 316 N 31.0401 0.771051 -1.3745 0
M  V30 317 C 32.2881 1.52661 -1.32435 0
M  V30 318 C 32.6091 1.9479 0.0905024 0
M  V30 319 O 31.8791 1.66348 1.03466 0
M  V30 320 H 30.4591 0.566218 -0.487244 0
M  V30 321 H 33.1211 0.917636 -1.71946 0
M  V30 322 H 32.2171 2.42568 -1.96385 0
M  V30 323 N 32.5182 1.22032 0.997298 0
M  V30 324 C 33.7642 1.05382 1.73972 0
M  V30 325 C 34.1192 -0.407419 1.88037 0
M  V30 326 O 33.4122 -1.29811 1.40924 0
M  V30 327 C 33.6062 1.69345 3.14733 0
M  V30 328 C 33.4352 3.21537 3.14395 0
M  V30 329 C 32.2052 3.9062 3.20537 0
M  V30 330 C 34.4032 4.18527 2.98897 0
M  V30 331 N 32.3852 5.29935 3.09906 0
M  V30 332 C 33.7562 5.44645 2.96247 0
M  V30 333 C 35.8112 4.09476 2.83255 0
M  V30 334 C 34.5142 6.62752 2.79557 0
M  V30 335 C 36.5402 5.27228 2.67926 0
M  V30 336 C 35.9022 6.52262 2.65959 0
M  V30 337 H 32.0012 0.440018 0.646458 0
M  V30 338 H 34.5852 1.54505 1.18475 0
M  V30 339 H 32.7562 1.22778 3.68484 0
M  V30 340 H 34.4882 1.45828 3.77513 0
M  V30 341 H 31.2432 3.41592 3.28043 0
M  V30 342 H 31.6672 6.02926 3.07912 0
M  V30 343 H 36.3092 3.13598 2.83577 0
M  V30 344 H 34.0272 7.58783 2.77982 0
M  V30 345 H 37.6132 5.22053 2.56812 0
M  V30 346 H 36.4932 7.41844 2.54239 0
M  V30 347 N 33.9963 -1.19345 1.0293 0
M  V30 348 C 34.9263 -2.2481 0.631105 0
M  V30 349 C 35.9073 -1.66245 -0.360104 0
M  V30 350 O 37.0923 -1.92677 -0.242726 0
M  V30 351 C 34.2223 -3.47295 -0.0184607 0
M  V30 352 C 33.1763 -4.18536 0.895073 0
M  V30 353 C 32.5023 -5.34586 0.110592 0
M  V30 354 C 33.8023 -4.73287 2.209 0
M  V30 355 H 35.4963 -2.58372 1.51275 0
M  V30 356 H 33.0423 -1.24194 0.728818 0
M  V30 357 H 34.9953 -4.20268 -0.308675 0
M  V30 358 H 33.7193 -3.12933 -0.934907 0
M  V30 359 H 32.3783 -3.47446 1.16949 0
M  V30 360 H 32.0263 -4.96469 -0.807902 0
M  V30 361 H 31.7263 -5.83183 0.719087 0
M  V30 362 H 33.2503 -6.10355 -0.172871 0
M  V30 363 H 34.6643 -5.38013 1.98028 0
M  V30 364 H 33.0613 -5.32373 2.76946 0
M  V30 365 H 34.1313 -3.91331 2.86336 0
M  V30 366 N 35.4744 -0.807222 -1.35358 0
M  V30 367 C 36.7204 -0.388463 -1.99045 0
M  V30 368 C 37.0534 1.04184 -1.63888 0
M  V30 369 O 36.3284 1.72292 -0.902535 0
M  V30 370 C 36.6114 -0.572783 -3.55515 0
M  V30 371 C 36.4644 -2.04807 -4.00468 0
M  V30 372 C 37.7834 0.00114064 -4.401 0
M  V30 373 H 34.9024 -0.142619 -0.723069 0
M  V30 374 H 37.5444 -1.01687 -1.60498 0
M  V30 375 H 35.6944 -0.0378425 -3.88482 0
M  V30 376 H 37.3664 -2.64544 -3.77908 0
M  V30 377 H 35.6094 -2.54427 -3.51353 0
M  V30 378 H 36.2804 -2.12792 -5.09337 0
M  V30 379 H 38.7564 -0.455716 -4.13597 0
M  V30 380 H 37.6324 -0.157737 -5.48673 0
M  V30 381 H 37.8934 1.09488 -4.28328 0
M  V30 382 N 36.9525 1.47285 -0.560781 0
M  V30 383 C 38.2295 1.9558 0.0277798 0
M  V30 384 C 38.6095 1.5034 1.48192 0
M  V30 385 O 37.9575 0.743882 2.16052 0
M  V30 386 C 38.1675 3.48789 -0.121418 0
M  V30 387 C 39.5155 4.24594 0.0220912 0
M  V30 388 O 40.5395 3.56166 -0.0491439 0
M  V30 389 O 39.3985 5.46217 0.175958 0
M  V30 390 H 36.4925 0.824663 0.0621342 0
M  V30 391 H 39.0385 1.5767 -0.627556 0
M  V30 392 H 37.8105 3.74533 -1.13316 0
M  V30 393 H 37.4335 3.93473 0.571366 0
M  V30 394 N 38.4306 0.297415 1.54768 0
M  V30 395 C 39.6606 -0.315165 2.04182 0
M  V30 396 C 40.0686 -1.4834 1.17439 0
M  V30 397 O 39.4116 -1.82695 0.191891 0
M  V30 398 C 39.4736 -0.837583 3.49607 0
M  V30 399 C 39.1376 0.204912 4.5654 0
M  V30 400 C 40.1346 1.03214 5.09552 0
M  V30 401 C 37.8196 0.345578 5.0111 0
M  V30 402 C 39.8136 1.986 6.05671 0
M  V30 403 C 37.5006 1.30289 5.97049 0
M  V30 404 C 38.4986 2.12159 6.49213 0
M  V30 405 O 38.1866 3.06268 7.43273 0
M  V30 406 H 37.9186 -0.0729646 0.672051 0
M  V30 407 H 40.4726 0.433907 2.00765 0
M  V30 408 H 38.7026 -1.63712 3.50336 0
M  V30 409 H 40.3916 -1.36566 3.82236 0
M  V30 410 H 41.1576 0.934312 4.75916 0
M  V30 411 H 37.0366 -0.28171 4.60138 0
M  V30 412 H 40.5806 2.62542 6.46311 0
M  V30 413 H 36.4776 1.40145 6.30103 0
M  V30 414 H 37.2456 3.01205 7.61064 0
M  V30 415 N 39.9087 -1.5758 0.0250728 0
M  V30 416 C 41.1567 -1.91255 -0.653151 0
M  V30 417 C 41.4777 -0.901691 -1.729 0
M  V30 418 O 40.7477 0.0573785 -1.95816 0
M  V30 419 H 39.3277 -0.705942 -0.244243 0
M  V30 420 H 41.9897 -1.94767 0.0719209 0
M  V30 421 H 41.0857 -2.91752 -1.10847 0
M  V30 422 N 41.3868 0.248026 -1.55636 0
M  V30 423 C 42.3338 1.30707 -1.90222 0
M  V30 424 C 43.3038 1.47881 -0.756332 0
M  V30 425 O 44.4888 1.61883 -1.00988 0
M  V30 426 C 41.6288 2.65769 -2.20138 0
M  V30 427 C 40.7418 2.56612 -3.47526 0
M  V30 428 C 39.8768 3.8402 -3.67017 0
M  V30 429 C 38.9158 3.69476 -4.8801 0
M  V30 430 N 38.0528 4.88774 -5.04029 0
M  V30 431 H 42.8928 1.00512 -2.80538 0
M  V30 432 H 40.4298 0.485055 -1.38873 0
M  V30 433 H 42.3878 3.44386 -2.35487 0
M  V30 434 H 41.0178 2.94115 -1.33027 0
M  V30 435 H 40.0698 1.69571 -3.40514 0
M  V30 436 H 41.3818 2.41774 -4.36287 0
M  V30 437 H 40.5358 4.7108 -3.8232 0
M  V30 438 H 39.2748 4.01754 -2.76487 0
M  V30 439 H 38.2798 2.80799 -4.72686 0
M  V30 440 H 39.5048 3.53238 -5.8 0
M  V30 441 H 37.4508 5.0687 -4.16435 0
M  V30 442 H 37.3678 4.76562 -5.86877 0
M  V30 443 H 38.6358 5.77335 -5.23741 0
M  V30 444 N 42.8649 1.48995 0.513639 0
M  V30 445 C 43.7949 1.67636 1.62544 0
M  V30 446 C 44.7759 0.525087 1.61793 0
M  V30 447 O 45.9609 0.759502 1.78732 0
M  V30 448 C 43.0909 1.73114 3.01079 0
M  V30 449 C 42.0449 2.87905 3.16693 0
M  V30 450 C 41.3709 2.78486 4.56453 0
M  V30 451 C 42.6709 4.29005 2.97913 0
M  V30 452 H 44.3649 2.60716 1.47198 0
M  V30 453 H 41.9109 1.25465 0.706714 0
M  V30 454 H 43.8639 1.84742 3.78746 0
M  V30 455 H 42.5879 0.766241 3.17484 0
M  V30 456 H 41.2469 2.75859 2.41448 0
M  V30 457 H 40.8949 1.7993 4.69717 0
M  V30 458 H 40.5949 3.55523 4.67843 0
M  V30 459 H 42.1189 2.92104 5.36197 0
M  V30 460 H 43.5329 4.41798 3.65359 0
M  V30 461 H 41.9299 5.07166 3.20785 0
M  V30 462 H 42.9999 4.44329 1.94165 0
M  V30 463 N 44.343 -0.763751 1.37857 0
M  V30 464 C 45.754 -1.3405 1.29952 0
M  V30 465 C 46.105 -1.96138 -0.0492898 0
M  V30 466 O 45.23 -1.94372 -0.951239 0
M  V30 467 C 45.825 -2.43729 2.35333 0
M  V30 468 C 44.384 -2.97151 2.31037 0
M  V30 469 C 43.531 -1.70438 2.18738 0
M  V30 470 H 46.482 -0.563396 1.48363 0
M  V30 471 H 46.503 -3.23412 2.00462 0
M  V30 472 H 46.015 -1.9851 3.33489 0
M  V30 473 H 44.116 -3.46724 1.3643 0
M  V30 474 H 44.229 -3.52221 3.24772 0
M  V30 475 H 42.593 -1.93673 1.65418 0
M  V30 476 H 43.376 -1.27312 3.18821 0
M  V30 477 N 45.8211 -1.22559 -0.990812 0
M  V30 478 C 47.2321 -1.04791 -1.54518 0
M  V30 479 C 47.5831 0.387998 -1.92325 0
M  V30 480 O 46.7081 1.27328 -1.74976 0
M  V30 481 C 47.3031 -1.896 -2.80779 0
M  V30 482 C 45.8621 -1.76124 -3.32652 0
M  V30 483 C 45.0091 -1.8594 -2.05722 0
M  V30 484 H 47.9601 -1.36374 -0.811662 0
M  V30 485 H 47.9811 -1.41464 -3.53225 0
M  V30 486 H 47.4931 -2.94101 -2.53231 0
M  V30 487 H 45.5941 -0.743643 -3.65104 0
M  V30 488 H 45.7071 -2.58913 -4.03114 0
M  V30 489 H 44.0711 -1.29403 -2.19379 0
M  V30 490 H 44.8541 -2.91976 -1.80568 0
M  V30 491 N 47.2992 1.18797 -1.03562 0
M  V30 492 C 48.2622 2.20464 -0.626769 0
M  V30 493 C 49.2622 1.57721 0.313173 0
M  V30 494 O 50.4522 1.73917 0.0992615 0
M  V30 495 C 47.5842 3.40802 0.0818498 0
M  V30 496 H 48.7772 2.58149 -1.5264 0
M  V30 497 H 46.3302 1.32593 -0.827578 0
M  V30 498 H 47.0652 3.08642 0.995518 0
M  V30 499 H 46.8502 3.8758 -0.593652 0
M  V30 500 H 48.3402 4.16092 0.354584 0
M  V30 501 N 48.7773 0.814389 1.34928 0
M  V30 502 C 50.1883 0.458364 1.80986 0
M  V30 503 C 50.5393 -1.02042 1.67577 0
M  V30 504 O 49.6643 -1.79352 1.21086 0
M  V30 505 C 50.2593 0.825212 3.28597 0
M  V30 506 C 48.8183 0.521677 3.72767 0
M  V30 507 C 47.9653 1.04668 2.56788 0
M  V30 508 H 50.9163 1.00533 1.22795 0
M  V30 509 H 50.9373 0.12571 3.80292 0
M  V30 510 H 50.4493 1.90154 3.38324 0
M  V30 511 H 48.5503 -0.545589 3.68584 0
M  V30 512 H 48.6633 1.05977 4.67232 0
M  V30 513 H 47.0273 0.468622 2.50352 0
M  V30 514 H 47.8103 2.12927 2.6929 0
M  V30 515 N 50.2554 -1.46986 0.568584 0
M  V30 516 C 51.2184 -2.28624 -0.162366 0
M  V30 517 C 52.2184 -1.37596 -0.832103 0
M  V30 518 O 53.4084 -1.60115 -0.68622 0
M  V30 519 C 50.5404 -3.17596 -1.23878 0
M  V30 520 H 51.7334 -2.94722 0.554899 0
M  V30 521 H 49.2864 -1.52863 0.325976 0
M  V30 522 H 50.0214 -2.56214 -1.98808 0
M  V30 523 H 49.8064 -3.846 -0.763219 0
M  V30 524 H 51.2964 -3.79078 -1.75185 0
M  V30 525 N 51.7335 -0.305618 -1.54608 0
M  V30 526 C 53.1445 0.186098 -1.8577 0
M  V30 527 C 53.4955 1.53058 -1.22751 0
M  V30 528 O 52.6205 2.09888 -0.526893 0
M  V30 529 C 53.2155 0.344449 -3.37044 0
M  V30 530 C 51.7745 0.780384 -3.68221 0
M  V30 531 C 50.9215 -0.108554 -2.77087 0
M  V30 532 H 53.8725 -0.526485 -1.49712 0
M  V30 533 H 53.8935 1.17828 -3.61796 0
M  V30 534 H 53.4055 -0.634235 -3.82883 0
M  V30 535 H 51.5065 1.76945 -3.27904 0
M  V30 536 H 51.6195 0.596572 -4.75371 0
M  V30 537 H 49.9835 0.412931 -2.5133 0
M  V30 538 H 50.7665 -1.08368 -3.25747 0
M  V30 539 N 53.2116 1.57565 -0.0334293 0
M  V30 540 C 54.1416 2.13511 0.945265 0
M  V30 541 C 55.1226 1.05231 1.33643 0
M  V30 542 O 56.3076 1.33084 1.41429 0
M  V30 543 C 53.4376 2.6657 2.22616 0
M  V30 544 C 52.3916 3.79676 1.97561 0
M  V30 545 C 51.7176 4.1918 3.31952 0
M  V30 546 C 53.0176 5.0557 1.31135 0
M  V30 547 H 54.7116 2.95538 0.479325 0
M  V30 548 H 52.2576 1.42166 0.229115 0
M  V30 549 H 54.2106 3.04344 2.91466 0
M  V30 550 H 52.9346 1.8171 2.71384 0
M  V30 551 H 51.5936 3.42347 1.31127 0
M  V30 552 H 51.2416 3.31296 3.78487 0
M  V30 553 H 50.9416 4.95402 3.15992 0
M  V30 554 H 52.4656 4.59541 4.02063 0
M  V30 555 H 53.8796 5.40903 1.89992 0
M  V30 556 H 52.2766 5.86818 1.25559 0
M  V30 557 H 53.3466 4.84062 0.284894 0
M  V30 558 N 54.6897 -0.239769 1.55765 0
M  V30 559 C 55.6527 -1.28038 1.90103 0
M  V30 560 C 56.6527 -1.40723 0.778055 0
M  V30 561 O 57.8427 -1.39301 1.04599 0
M  V30 562 C 54.9747 -2.65702 2.13577 0
M  V30 563 H 56.1677 -0.988048 2.83157 0
M  V30 564 H 53.7207 -0.479382 1.48767 0
M  V30 565 H 54.4557 -3.00063 1.23015 0
M  V30 566 H 54.2407 -2.57875 2.95369 0
M  V30 567 H 55.7307 -3.40828 2.41301 0
M  V30 568 N 56.1678 -1.49265 -0.50573 0
M  V30 569 C 57.5788 -1.51769 -1.08734 0
M  V30 570 C 57.9298 -0.301192 -1.93874 0
M  V30 571 O 57.0548 0.589456 -2.08217 0
M  V30 572 C 57.6498 -2.75017 -1.97867 0
M  V30 573 C 56.2088 -2.80314 -2.51199 0
M  V30 574 C 55.3558 -2.4562 -1.28709 0
M  V30 575 H 58.3068 -1.56031 -0.289855 0
M  V30 576 H 58.3278 -2.5491 -2.82491 0
M  V30 577 H 57.8398 -3.63539 -1.35873 0
M  V30 578 H 55.9408 -1.96061 -3.16845 0
M  V30 579 H 56.0538 -3.82366 -2.88675 0
M  V30 580 H 54.4178 -1.97297 -1.61078 0
M  V30 581 H 55.2008 -3.36411 -0.6843 0
M  V30 582 N 57.6459 0.756429 -1.3826 0
M  V30 583 C 58.8759 1.54341 -1.3734 0
M  V30 584 C 59.2839 1.89159 0.0393917 0
M  V30 585 O 58.6269 1.5307 1.01565 0
M  V30 586 C 58.6889 2.87238 -2.16182 0
M  V30 587 C 58.3529 2.74973 -3.65019 0
M  V30 588 C 59.3499 2.44962 -4.58574 0
M  V30 589 C 57.0349 2.92515 -4.08338 0
M  V30 590 C 59.0289 2.32642 -5.93428 0
M  V30 591 C 56.7159 2.79815 -5.43274 0
M  V30 592 C 57.7139 2.49921 -6.35632 0
M  V30 593 O 57.4019 2.37275 -7.68086 0
M  V30 594 H 57.1339 0.484281 -0.471643 0
M  V30 595 H 59.6879 0.944152 -1.82414 0
M  V30 596 H 57.9179 3.49342 -1.65822 0
M  V30 597 H 59.6069 3.48731 -2.07705 0
M  V30 598 H 60.3729 2.31081 -4.26412 0
M  V30 599 H 56.2519 3.14781 -3.368 0
M  V30 600 H 59.7959 2.0923 -6.65484 0
M  V30 601 H 55.6929 2.93269 -5.75034 0
M  V30 602 H 56.4609 2.52509 -7.78577 0
M  V30 603 N 59.124 1.23083 0.984299 0
M  V30 604 C 60.034 1.02515 2.11016 0
M  V30 605 C 61.05 -0.0291702 1.73976 0
M  V30 606 O 62.226 0.165434 2.00719 0
M  V30 607 C 59.291 0.614673 3.41208 0
M  V30 608 C 58.352 1.74359 3.92297 0
M  V30 609 C 57.585 1.35261 5.16275 0
M  V30 610 O 57.808 0.235136 5.69915 0
M  V30 611 O 56.742 2.17227 5.61334 0
M  V30 612 H 60.568 1.96862 2.31255 0
M  V30 613 H 58.153 1.01753 1.09392 0
M  V30 614 H 60.035 0.396518 4.1953 0
M  V30 615 H 58.71 -0.299851 3.22308 0
M  V30 616 H 57.617 2.01635 3.1511 0
M  V30 617 H 58.95 2.63629 4.15645 0
M  V30 618 N 60.6021 -1.18246 1.0419 0
M  V30 619 C 61.8481 -1.88536 0.747122 0
M  V30 620 C 62.1811 -1.80223 -0.723409 0
M  V30 621 O 61.4561 -1.20337 -1.52804 0
M  V30 622 C 61.7391 -3.38968 1.21544 0
M  V30 623 C 61.5921 -3.56084 2.74816 0
M  V30 624 C 62.9111 -4.32648 0.806482 0
M  V30 625 H 60.0301 -0.684619 0.272883 0
M  V30 626 H 62.6721 -1.39113 1.29413 0
M  V30 627 H 60.8221 -3.8119 0.750081 0
M  V30 628 H 62.4941 -3.22946 3.29399 0
M  V30 629 H 60.7371 -2.98699 3.14582 0
M  V30 630 H 61.4081 -4.61639 3.02644 0
M  V30 631 H 63.8841 -3.98211 1.20695 0
M  V30 632 H 62.7601 -5.36462 1.1619 0
M  V30 633 H 63.0211 -4.41146 -0.29029 0
M  V30 634 N 62.0802 -0.821533 -1.34494 0
M  V30 635 C 63.0102 -0.257138 -2.3208 0
M  V30 636 C 63.9912 0.625645 -1.58176 0
M  V30 637 O 65.1762 0.552811 -1.86166 0
M  V30 638 C 62.3062 0.582958 -3.42372 0
M  V30 639 C 61.2602 -0.202571 -4.2752 0
M  V30 640 C 60.5862 0.760179 -5.29269 0
M  V30 641 C 61.8862 -1.40998 -5.02908 0
M  V30 642 H 63.5802 -1.07247 -2.79532 0
M  V30 643 H 61.1262 -0.517163 -1.34393 0
M  V30 644 H 63.0792 0.987972 -4.09655 0
M  V30 645 H 61.8032 1.43133 -2.93565 0
M  V30 646 H 60.4622 -0.588936 -3.61838 0
M  V30 647 H 60.1102 1.60447 -4.76724 0
M  V30 648 H 59.8102 0.238809 -5.87115 0
M  V30 649 H 61.3342 1.16308 -5.9942 0
M  V30 650 H 62.7482 -1.07905 -5.63054 0
M  V30 651 H 61.1452 -1.86689 -5.70322 0
M  V30 652 H 62.2152 -2.1889 -4.32684 0
M  V30 653 N 63.5583 1.46682 -0.576371 0
M  V30 654 C 64.8063 2.02013 -0.0594163 0
M  V30 655 C 65.1273 1.45101 1.30271 0
M  V30 656 O 64.3973 0.633317 1.8538 0
M  V30 657 H 62.9773 0.746759 -0.0189745 0
M  V30 658 H 65.6393 1.79862 -0.750717 0
M  V30 659 H 64.7353 3.12097 0.014345 0
M  V30 660 N 65.0364 0.313813 1.54444 0
M  V30 661 C 66.2844 -0.291099 1.99993 0
M  V30 662 C 66.6054 -1.53418 1.20366 0
M  V30 663 O 65.8754 -1.93544 0.302927 0
M  V30 664 H 64.4554 -0.110552 0.738774 0
M  V30 665 H 67.1174 0.428106 1.9014 0
M  V30 666 H 66.2134 -0.554268 3.07139 0
M  V30 667 N 66.5145 -1.57545 0.0417849 0
M  V30 668 C 67.4775 -2.09885 -0.92093 0
M  V30 669 C 68.4775 -1.01648 -1.24596 0
M  V30 670 O 69.6675 -1.27759 -1.1842 0
M  V30 671 C 66.7995 -2.57527 -2.23367 0
M  V30 672 H 67.9925 -2.96236 -0.467382 0
M  V30 673 H 65.5455 -1.5493 -0.206467 0
M  V30 674 H 66.2805 -1.74542 -2.73323 0
M  V30 675 H 66.0655 -3.36613 -2.01083 0
M  V30 676 H 67.5555 -2.98201 -2.92346 0
M  V30 677 N 67.9926 0.231505 -1.5589 0
M  V30 678 C 68.9226 1.29022 -1.94617 0
M  V30 679 C 69.9036 1.4941 -0.813067 0
M  V30 680 O 71.0886 1.6176 -1.07459 0
M  V30 681 C 68.2186 2.64199 -2.25424 0
M  V30 682 C 67.1726 2.58484 -3.41131 0
M  V30 683 C 66.4986 3.97599 -3.57518 0
M  V30 684 C 67.7986 2.1413 -4.76388 0
M  V30 685 H 69.4926 0.968563 -2.83301 0
M  V30 686 H 67.0386 0.464479 -1.36303 0
M  V30 687 H 68.9916 3.38413 -2.51107 0
M  V30 688 H 67.7156 2.98032 -1.33583 0
M  V30 689 H 66.3746 1.86727 -3.15481 0
M  V30 690 H 66.0226 4.28723 -2.6307 0
M  V30 691 H 65.7226 3.94659 -4.35337 0
M  V30 692 H 67.2466 4.7349 -3.85538 0
M  V30 693 H 68.6606 2.78083 -5.01341 0
M  V30 694 H 67.0576 2.2227 -5.57419 0
M  V30 695 H 68.1276 1.09331 -4.72414 0
M  V30 696 N 69.4707 1.49531 0.497807 0
M  V30 697 C 70.3807 1.69176 1.62532 0
M  V30 698 C 71.3967 0.5744 1.64246 0
M  V30 699 O 72.5727 0.849497 1.82608 0
M  V30 700 C 69.6377 1.75695 2.98885 0
M  V30 701 C 68.6987 2.9929 3.07773 0
M  V30 702 C 67.9317 3.05488 4.37622 0
M  V30 703 O 68.1547 2.19192 5.26603 0
M  V30 704 O 67.0887 3.9798 4.51548 0
M  V30 705 H 70.9147 2.647 1.48887 0
M  V30 706 H 68.4997 1.3331 0.674441 0
M  V30 707 H 70.3817 1.82317 3.79919 0
M  V30 708 H 69.0567 0.8335 3.12785 0
M  V30 709 H 67.9637 2.98183 2.25915 0
M  V30 710 H 69.2967 3.91125 2.98801 0
M  V30 711 N 70.9488 -0.749086 1.3866 0
M  V30 712 C 72.1968 -1.50535 1.34847 0
M  V30 713 C 72.5178 -1.94909 -0.0595016 0
M  V30 714 O 71.7878 -1.67973 -1.00806 0
M  V30 715 H 70.3678 -0.558395 0.49619 0
M  V30 716 H 73.0298 -0.890165 1.73384 0
M  V30 717 H 72.1258 -2.39413 2.00219 0
M  V30 718 N 72.4269 -1.23603 -0.977757 0
M  V30 719 C 73.6749 -1.06759 -1.71601 0
M  V30 720 C 73.9959 0.395929 -1.90938 0
M  V30 721 O 73.2659 1.28356 -1.47992 0
M  V30 722 H 71.8459 -0.392062 -0.635843 0
M  V30 723 H 74.5079 -1.55362 -1.1768 0
M  V30 724 H 73.6039 -1.55763 -2.70452 0
M  V30 725 N 73.905 1.17692 -1.04816 0
M  V30 726 C 74.835 2.23777 -0.666791 0
M  V30 727 C 75.816 1.66796 0.33361 0
M  V30 728 O 77.001 1.93039 0.212042 0
M  V30 729 C 74.131 3.47281 -0.0367933 0
M  V30 730 C 73.085 4.17059 -0.961546 0
M  V30 731 C 72.411 5.34342 -0.195626 0
M  V30 732 C 73.711 4.69713 -2.28402 0
M  V30 733 H 75.405 2.55933 -1.55367 0
M  V30 734 H 72.951 1.23019 -0.748484 0
M  V30 735 H 74.904 4.20706 0.241775 0
M  V30 736 H 73.628 3.14381 0.885004 0
M  V30 737 H 72.287 3.45541 -1.22462 0
M  V30 738 H 71.935 4.97692 0.728816 0
M  V30 739 H 71.635 5.81966 -0.811775 0
M  V30 740 H 73.159 6.10553 0.0757473 0
M  V30 741 H 74.573 5.34794 -2.06563 0
M  V30 742 H 72.97 5.279 -2.8538 0
M  V30 743 H 74.04 3.86726 -2.92525 0
M  V30 744 N 75.3831 0.828654 1.34056 0
M  V30 745 C 76.7941 0.477534 1.8049 0
M  V30 746 C 77.1451 -1.00258 1.6865 0
M  V30 747 O 76.2701 -1.78057 1.22982 0
M  V30 748 C 76.8651 0.860018 3.27703 0
M  V30 749 C 75.4241 0.561185 3.72193 0
M  V30 750 C 74.5711 1.07385 2.55663 0
M  V30 751 H 77.5221 1.0183 1.21722 0
M  V30 752 H 77.5431 0.166038 3.80138 0
M  V30 753 H 77.0551 1.93731 3.36288 0
M  V30 754 H 75.1561 -0.506465 3.69142 0
M  V30 755 H 75.2691 1.10926 4.66082 0
M  V30 756 H 73.6331 0.495149 2.49841 0
M  V30 757 H 74.4161 2.15771 2.67016 0
M  V30 758 N 76.8612 -1.46375 0.584142 0
M  V30 759 C 78.1072 -2.02678 0.0703716 0
M  V30 760 C 78.4402 -1.4545 -1.28678 0
M  V30 761 O 77.7152 -0.62014 -1.84349 0
M  V30 762 C 77.9982 -3.60099 0.00614674 0
M  V30 763 C 77.8512 -4.27709 1.3923 0
M  V30 764 C 79.1702 -4.34598 -0.693742 0
M  V30 765 H 76.2892 -0.736504 0.027047 0
M  V30 766 H 78.9312 -1.74501 0.751615 0
M  V30 767 H 77.0812 -3.84236 -0.574009 0
M  V30 768 H 78.7532 -4.14832 2.01773 0
M  V30 769 H 76.9962 -3.87016 1.95962 0
M  V30 770 H 77.6672 -5.36478 1.29982 0
M  V30 771 H 80.1432 -4.15615 -0.200869 0
M  V30 772 H 79.0192 -5.44318 -0.707714 0
M  V30 773 H 79.2802 -4.05759 -1.75533 0
M  V30 774 N 78.3393 -0.321999 -1.54275 0
M  V30 775 C 79.5873 0.280489 -2.00144 0
M  V30 776 C 79.9083 1.52777 -1.21178 0
M  V30 777 O 79.1783 1.9338 -0.313187 0
M  V30 778 H 77.7583 0.106632 -0.73935 0
M  V30 779 H 80.4203 -0.438184 -1.8991 0
M  V30 780 H 79.5163 0.537972 -3.07428 0
M  V30 781 N 79.8174 1.5752 -0.0501392 0
M  V30 782 C 81.0654 1.9227 0.622642 0
M  V30 783 C 81.3864 0.929083 1.71444 0
M  V30 784 O 80.6564 -0.0262186 1.95882 0
M  V30 785 H 79.2364 0.709739 0.232981 0
M  V30 786 H 81.8984 1.94628 -0.102898 0
M  V30 787 H 80.9944 2.93479 1.06191 0
M  V30 788 N 81.2955 -0.223234 1.56011 0
M  V30 789 C 82.2055 -1.29766 1.95443 0
M  V30 790 C 83.2215 -1.51373 0.858028 0
M  V30 791 O 84.3975 -1.64536 1.16146 0
M  V30 792 C 81.4625 -2.62772 2.26167 0
M  V30 793 C 80.5235 -2.49482 3.49367 0
M  V30 794 C 79.7565 -3.76145 3.78616 0
M  V30 795 O 79.9795 -4.79087 3.09568 0
M  V30 796 O 78.9135 -3.73358 4.72109 0
M  V30 797 H 82.7395 -0.99309 2.87004 0
M  V30 798 H 80.3245 -0.425958 1.43199 0
M  V30 799 H 82.2065 -3.41327 2.47131 0
M  V30 800 H 80.8815 -2.92913 1.37781 0
M  V30 801 H 79.7885 -1.69133 3.33684 0
M  V30 802 H 81.1215 -2.2428 4.38131 0
M  V30 803 N 82.7736 -1.49793 -0.48987 0
M  V30 804 C 84.1846 -1.52914 -1.07118 0
M  V30 805 C 84.5356 -0.321738 -1.93544 0
M  V30 806 O 83.6606 0.567338 -2.08831 0
M  V30 807 C 84.2556 -2.771 -1.94938 0
M  V30 808 C 82.8146 -2.82963 -2.48212 0
M  V30 809 C 81.9616 -2.46972 -1.26096 0
M  V30 810 H 84.9126 -1.56329 -0.273289 0
M  V30 811 H 84.9336 -2.57892 -2.79771 0
M  V30 812 H 84.4456 -3.64959 -1.32009 0
M  V30 813 H 82.5466 -1.99411 -3.14748 0
M  V30 814 H 82.6596 -3.85406 -2.84603 0
M  V30 815 H 81.0236 -1.98994 -1.58976 0
M  V30 816 H 81.8066 -3.37118 -0.648581 0
M  V30 817 N 84.2517 0.741722 -1.39055 0
M  V30 818 C 85.1817 1.869 -1.39966 0
M  V30 819 C 86.1627 1.6804 -0.26392 0
M  V30 820 O 87.3477 1.88458 -0.468755 0
M  V30 821 C 84.4777 3.24572 -1.23574 0
M  V30 822 C 83.4317 3.58056 -2.34477 0
M  V30 823 C 82.7577 4.94593 -2.0318 0
M  V30 824 C 84.0577 3.61716 -3.76774 0
M  V30 825 H 85.7517 1.86395 -2.34302 0
M  V30 826 H 83.2977 0.895361 -1.1278 0
M  V30 827 H 85.2507 4.031 -1.22834 0
M  V30 828 H 83.9747 3.25587 -0.257045 0
M  V30 829 H 82.6337 2.81854 -2.34423 0
M  V30 830 H 82.2817 4.92181 -1.03765 0
M  V30 831 H 81.9817 5.17964 -2.77465 0
M  V30 832 H 83.5057 5.75486 -2.04079 0
M  V30 833 H 84.9197 4.30335 -3.78794 0
M  V30 834 H 83.3167 3.96603 -4.50362 0
M  V30 835 H 84.3867 2.61672 -4.08235 0
M  V30 836 N 85.7298 1.2412 0.971189 0
M  V30 837 C 86.6928 1.03156 2.04674 0
M  V30 838 C 87.6928 -0.00990322 1.60797 0
M  V30 839 O 88.8828 0.230729 1.72665 0
M  V30 840 C 86.0148 0.562765 3.36223 0
M  V30 841 H 87.2078 1.98614 2.24705 0
M  V30 842 H 84.7608 1.06293 1.14593 0
M  V30 843 H 85.4958 -0.395176 3.21883 0
M  V30 844 H 85.2808 1.31441 3.69413 0
M  V30 845 H 86.7708 0.437015 4.15307 0
M  V30 846 N 87.2079 -1.17134 1.05439 0
M  V30 847 C 88.4559 -1.87085 0.764429 0
M  V30 848 C 88.7769 -1.81584 -0.710787 0
M  V30 849 O 88.0469 -1.24349 -1.51374 0
M  V30 850 H 86.6269 -0.692627 0.279779 0
M  V30 851 H 89.2889 -1.42087 1.33406 0
M  V30 852 H 88.3849 -2.92759 1.0816 0
M  V30 853 N 88.686 -0.835752 -1.33615 0
M  V30 854 C 89.963 -0.352017 -1.92406 0
M  V30 855 C 90.343 1.16225 -1.76224 0
M  V30 856 O 89.691 1.97526 -1.14873 0
M  V30 857 C 89.901 -0.795485 -3.39813 0
M  V30 858 C 91.249 -0.801703 -4.16963 0
M  V30 859 O 92.273 -0.738889 -3.48452 0
M  V30 860 O 91.132 -0.886607 -5.3926 0
M  V30 861 H 88.226 -0.0989641 -0.821057 0
M  V30 862 H 90.772 -0.921397 -1.42507 0
M  V30 863 H 89.544 -1.83795 -3.45449 0
M  V30 864 H 89.167 -0.202505 -3.97084 0
M  V30 865 N 90.1641 1.46063 -0.591896 0
M  V30 866 C 91.4121 2.01938 -0.0808391 0
M  V30 867 C 91.7331 1.46475 1.28725 0
M  V30 868 O 91.0031 0.652944 1.84698 0
M  V30 869 H 89.5831 0.746516 -0.0268938 0
M  V30 870 H 92.2451 1.79055 -0.769752 0
M  V30 871 H 91.3411 3.12094 -0.0187578 0
M  V30 872 N 91.6422 0.330177 1.54103 0
M  V30 873 C 92.8892 -0.270405 2.00686 0
M  V30 874 C 93.2172 -1.51621 1.21825 0
M  V30 875 O 92.4722 -1.93536 0.29025 0
M  V30 876 C 92.7712 -0.643134 3.51566 0
M  V30 877 C 92.4372 0.504251 4.48072 0
M  V30 878 C 91.0992 0.819163 4.74176 0
M  V30 879 C 93.4512 1.27465 5.05373 0
M  V30 880 C 90.7792 1.90708 5.5484 0
M  V30 881 C 93.1312 2.35271 5.87223 0
M  V30 882 C 91.7952 2.67336 6.11627 0
M  V30 883 H 91.0652 -0.0989482 0.734364 0
M  V30 884 H 93.7122 0.455324 1.86008 0
M  V30 885 H 92.0172 -1.44938 3.64006 0
M  V30 886 H 93.7142 -1.11949 3.85056 0
M  V30 887 H 90.3042 0.248733 4.27878 0
M  V30 888 H 94.4882 1.04462 4.85182 0
M  V30 889 H 89.7442 2.15991 5.71977 0
M  V30 890 H 93.9182 2.95405 6.30641 0
M  V30 891 H 91.5452 3.51763 6.73919 0
M  V30 892 N 93.1203 -1.57491 0.0584922 0
M  V30 893 C 94.3453 -1.97711 -0.62652 0
M  V30 894 C 94.7703 -0.936132 -1.63151 0
M  V30 895 O 94.1283 0.099811 -1.81025 0
M  V30 896 C 94.1763 -3.36989 -1.28338 0
M  V30 897 O 93.2803 -3.35433 -2.39913 0
M  V30 898 H 92.6213 -0.643868 -0.162266 0
M  V30 899 H 95.1513 -2.04193 0.129064 0
M  V30 900 H 95.1613 -3.73879 -1.63335 0
M  V30 901 H 93.8363 -4.12289 -0.546889 0
M  V30 902 H 92.4133 -3.10298 -2.06809 0
M  V30 903 N 94.5984 0.214957 -1.56127 0
M  V30 904 C 95.8754 0.963093 -1.70247 0
M  V30 905 C 96.2554 2.02166 -0.60764 0
M  V30 906 O 95.6034 2.25244 0.384385 0
M  V30 907 C 95.8134 1.56756 -3.11815 0
M  V30 908 C 97.1614 2.0573 -3.7143 0
M  V30 909 O 98.1854 1.66637 -3.14818 0
M  V30 910 O 97.0444 2.77603 -4.70743 0
M  V30 911 H 94.1384 0.450321 -0.693643 0
M  V30 912 H 96.6844 0.206219 -1.68442 0
M  V30 913 H 95.4564 0.803533 -3.82961 0
M  V30 914 H 95.0794 2.3898 -3.17765 0
M  V30 915 N 96.0765 1.50051 0.48192 0
M  V30 916 C 97.3225 1.61706 1.2338 0
M  V30 917 C 97.6775 0.308488 1.89911 0
M  V30 918 O 96.9705 -0.692798 1.78636 0
M  V30 919 C 97.1645 2.72717 2.30998 0
M  V30 920 C 96.9935 4.14242 1.75024 0
M  V30 921 C 95.7635 4.80786 1.55476 0
M  V30 922 C 97.9615 4.98846 1.25128 0
M  V30 923 N 95.9435 6.06563 0.946311 0
M  V30 924 C 97.3145 6.15258 0.765382 0
M  V30 925 C 99.3695 4.84702 1.13881 0
M  V30 926 C 98.0725 7.19079 0.178113 0
M  V30 927 C 100.098 5.8869 0.565486 0
M  V30 928 C 99.4605 7.04343 0.0899105 0
M  V30 929 H 95.5595 0.645958 0.440753 0
M  V30 930 H 98.1435 1.8713 0.537624 0
M  V30 931 H 96.3145 2.49033 2.98055 0
M  V30 932 H 98.0465 2.73789 2.9803 0
M  V30 933 H 94.8015 4.37899 1.80392 0
M  V30 934 H 95.2255 6.73767 0.660812 0
M  V30 935 H 99.8675 3.95583 1.49244 0
M  V30 936 H 97.5855 8.07882 -0.187749 0
M  V30 937 H 101.171 5.79808 0.480974 0
M  V30 938 H 100.051 7.83433 -0.346782 0
M  V30 939 N 97.5546 -0.734337 1.39446 0
M  V30 940 C 98.4876 -1.85715 1.32609 0
M  V30 941 C 99.4656 -1.6137 0.199636 0
M  V30 942 O 100.65 -1.84626 0.380195 0
M  V30 943 C 97.7766 -3.21709 1.05929 0
M  V30 944 C 96.8226 -3.64913 2.20773 0
M  V30 945 S 97.6556 -3.74203 3.83056 0
M  V30 946 C 98.8116 -5.12986 3.58603 0
M  V30 947 H 99.0446 -1.91232 2.27635 0
M  V30 948 H 96.5776 -0.899263 1.25509 0
M  V30 949 H 98.5356 -4.00236 0.912203 0
M  V30 950 H 97.1966 -3.13848 0.125883 0
M  V30 951 H 96.3896 -4.63606 1.97699 0
M  V30 952 H 95.9916 -2.93593 2.31688 0
M  V30 953 H 98.2836 -5.99339 3.15909 0
M  V30 954 H 99.2266 -5.41088 4.5676 0
M  V30 955 H 99.6346 -4.82694 2.9269 0
M  V30 956 N 99.0327 -1.24633 -0.964593 0
M  V30 957 C 100.261 -1.11501 -1.74285 0
M  V30 958 C 100.676 0.332165 -1.85855 0
M  V30 959 O 100.033 1.22903 -1.34911 0
M  V30 960 C 100.084 -1.75258 -3.16175 0
M  V30 961 O 99.8047 -3.14318 -3.05182 0
M  V30 962 C 101.306 -1.67776 -4.10324 0
M  V30 963 H 98.5257 -0.389407 -0.546446 0
M  V30 964 H 101.07 -1.64801 -1.21083 0
M  V30 965 H 99.2247 -1.25954 -3.66353 0
M  V30 966 H 99.6387 -3.4551 -3.94618 0
M  V30 967 H 101.113 -2.17064 -5.0753 0
M  V30 968 H 101.59 -0.639584 -4.34518 0
M  V30 969 H 102.196 -2.16522 -3.66058 0
M  V30 970 N 100.511 1.16574 -1.06058 0
M  V30 971 C 101.421 2.2452 -0.680282 0
M  V30 972 C 102.437 1.71348 0.302604 0
M  V30 973 O 103.613 2.00822 0.152513 0
M  V30 974 C 100.678 3.46629 -0.0700315 0
M  V30 975 C 99.7388 4.14849 -1.10448 0
M  V30 976 C 98.9718 5.31129 -0.523256 0
M  V30 977 O 99.1948 5.66514 0.664709 0
M  V30 978 O 98.1288 5.88526 -1.26179 0
M  V30 979 H 101.955 2.59355 -1.58015 0
M  V30 980 H 99.5398 1.24043 -0.832694 0
M  V30 981 H 101.422 4.20543 0.268667 0
M  V30 982 H 100.097 3.13573 0.803353 0
M  V30 983 H 99.0038 3.42916 -1.49532 0
M  V30 984 H 100.337 4.51954 -1.94931 0
M  V30 985 N 101.989 0.842826 1.3317 0
M  V30 986 C 103.405 0.531128 1.50503 0
M  V30 987 C 103.605 -0.940734 1.78192 0
M  V30 988 O 102.661 -1.72436 1.84451 0
M  V30 989 C 103.974 1.40789 2.65705 0
M  V30 990 C 105.522 1.40708 2.79589 0
M  V30 991 C 105.997 2.26878 3.97857 0
M  V30 992 N 107.488 2.24609 4.05099 0
M  V30 993 C 108.223 2.88019 4.95815 0
M  V30 994 N 107.719 3.60496 5.9162 0
M  V30 995 N 109.512 2.77469 4.88843 0
M  V30 996 H 101.663 1.79557 1.1346 0
M  V30 997 H 103.926 0.766267 0.558156 0
M  V30 998 H 103.632 2.454 2.51936 0
M  V30 999 H 103.506 1.08677 3.61205 0
M  V30 1000 H 105.893 0.368668 2.92788 0
M  V30 1001 H 105.974 1.76829 1.84838 0
M  V30 1002 H 105.618 3.3078 3.85418 0
M  V30 1003 H 105.548 1.88096 4.91861 0
M  V30 1004 H 108.039 1.71906 3.36536 0
M  V30 1005 H 108.352 4.06076 6.57512 0
M  V30 1006 H 106.697 3.64604 5.91683 0
M  V30 1007 H 109.888 2.20406 4.12963 0
M  V30 1008 H 110.061 3.2717 5.59342 0
M  V30 1009 N 103.467 -1.45747 0.599634 0
M  V30 1010 C 104.713 -2.02592 0.0918643 0
M  V30 1011 C 105.046 -1.46806 -1.27128 0
M  V30 1012 O 104.321 -0.639658 -1.83681 0
M  V30 1013 C 104.604 -3.60073 0.0443398 0
M  V30 1014 C 104.457 -4.26208 1.43759 0
M  V30 1015 C 105.776 -4.35309 -0.647608 0
M  V30 1016 H 102.895 -0.736175 0.034857 0
M  V30 1017 H 105.537 -1.73694 0.770081 0
M  V30 1018 H 103.687 -3.84823 -0.533224 0
M  V30 1019 H 105.359 -4.12668 2.06162 0
M  V30 1020 H 103.602 -3.84916 2.00056 0
M  V30 1021 H 104.273 -5.35069 1.35665 0
M  V30 1022 H 106.749 -4.15805 -0.156776 0
M  V30 1023 H 105.625 -5.45038 -0.649942 0
M  V30 1024 H 105.886 -4.07598 -1.71219 0
M  V30 1025 N 104.945 -0.338344 -1.53925 0
M  V30 1026 C 106.222 0.314774 -1.93051 0
M  V30 1027 C 106.602 1.68669 -1.26941 0
M  V30 1028 O 105.95 2.24636 -0.418445 0
M  V30 1029 C 106.16 0.392249 -3.46789 0
M  V30 1030 C 107.508 0.645554 -4.19664 0
M  V30 1031 O 108.532 0.474575 -3.53024 0
M  V30 1032 O 107.391 0.976408 -5.37707 0
M  V30 1033 H 104.485 0.182598 -0.80659 0
M  V30 1034 H 107.031 -0.389141 -1.65178 0
M  V30 1035 H 105.803 -0.570702 -3.87116 0
M  V30 1036 H 105.426 1.14316 -3.80812 0
M  V30 1037 N 106.423 1.57458 -0.0668435 0
M  V30 1038 C 107.67 1.93301 0.603406 0
M  V30 1039 C 107.998 0.946486 1.69917 0
M  V30 1040 O 107.253 -0.0387021 1.95662 0
M  V30 1041 C 107.552 3.35784 1.22409 0
M  V30 1042 C 107.218 4.50179 0.254955 0
M  V30 1043 C 105.88 4.81199 -0.0116746 0
M  V30 1044 C 108.232 5.19598 -0.408338 0
M  V30 1045 C 105.56 5.78978 -0.94877 0
M  V30 1046 C 107.912 6.18381 -1.33372 0
M  V30 1047 C 106.576 6.47821 -1.60887 0
M  V30 1048 H 105.846 0.707338 0.220802 0
M  V30 1049 H 108.493 1.91012 -0.136665 0
M  V30 1050 H 106.798 3.34515 2.03978 0
M  V30 1051 H 108.495 3.60804 1.74989 0
M  V30 1052 H 105.085 4.25983 0.472954 0
M  V30 1053 H 109.269 4.95832 -0.215456 0
M  V30 1054 H 104.525 6.00115 -1.16925 0
M  V30 1055 H 108.699 6.71277 -1.85367 0
M  V30 1056 H 106.326 7.23399 -2.33661 0
M  V30 1057 N 107.901 -0.206675 1.56239 0
M  V30 1058 C 109.129 -0.945345 1.8404 0
M  V30 1059 C 109.544 -1.77336 0.647885 0
M  V30 1060 O 108.901 -1.78425 -0.383511 0
M  V30 1061 C 108.952 -1.8509 3.10522 0
M  V30 1062 O 108.673 -1.05634 4.25174 0
M  V30 1063 C 110.174 -2.70222 3.51418 0
M  V30 1064 H 107.394 -0.276372 0.61144 0
M  V30 1065 H 109.938 -0.217417 2.03341 0
M  V30 1066 H 108.093 -2.53259 2.93153 0
M  V30 1067 H 108.507 -1.67238 4.97124 0
M  V30 1068 H 109.981 -3.29438 4.42916 0
M  V30 1069 H 110.458 -3.43358 2.73864 0
M  V30 1070 H 111.064 -2.07443 3.71278 0
M  V30 1071 N 109.379 -1.50304 -0.473955 0
M  V30 1072 C 110.342 -1.6841 -1.55469 0
M  V30 1073 C 111.342 -0.554905 -1.50922 0
M  V30 1074 O 112.532 -0.821882 -1.53593 0
M  V30 1075 C 109.664 -1.70667 -2.95102 0
M  V30 1076 H 110.857 -2.64828 -1.40733 0
M  V30 1077 H 108.41 -1.39742 -0.700132 0
M  V30 1078 H 109.145 -0.75932 -3.15285 0
M  V30 1079 H 108.93 -2.52698 -2.9981 0
M  V30 1080 H 110.42 -1.8664 -3.73571 0
M  V30 1081 N 110.857 0.726932 -1.39834 0
M  V30 1082 C 111.787 1.85405 -1.41941 0
M  V30 1083 C 112.768 1.67751 -0.281728 0
M  V30 1084 O 113.953 1.8795 -0.488717 0
M  V30 1085 C 111.083 3.23243 -1.2701 0
M  V30 1086 C 110.037 3.55549 -2.38262 0
M  V30 1087 C 109.363 4.9241 -2.08415 0
M  V30 1088 C 110.663 3.577 -3.80589 0
M  V30 1089 H 112.357 1.83899 -2.36266 0
M  V30 1090 H 109.903 0.883349 -1.13723 0
M  V30 1091 H 111.856 4.01775 -1.27103 0
M  V30 1092 H 110.58 3.25296 -0.291564 0
M  V30 1093 H 109.239 2.79351 -2.37399 0
M  V30 1094 H 108.887 4.91052 -1.0898 0
M  V30 1095 H 108.587 5.14992 -2.82943 0
M  V30 1096 H 110.111 5.73289 -2.10171 0
M  V30 1097 H 111.525 4.26293 -3.83337 0
M  V30 1098 H 109.922 3.91804 -4.54543 0
M  V30 1099 H 110.992 2.57328 -4.10987 0
M  V30 1100 N 112.336 1.25143 0.95797 0
M  V30 1101 C 113.266 1.07711 2.07173 0
M  V30 1102 C 114.247 -0.0128462 1.70095 0
M  V30 1103 O 115.432 0.156061 1.93572 0
M  V30 1104 C 112.562 0.691503 3.40346 0
M  V30 1105 C 111.516 1.73132 3.9142 0
M  V30 1106 C 110.842 1.20049 5.21049 0
M  V30 1107 C 112.142 3.1294 4.1817 0
M  V30 1108 H 113.836 2.00873 2.22014 0
M  V30 1109 H 111.382 0.967191 1.06684 0
M  V30 1110 H 113.335 0.556505 4.17709 0
M  V30 1111 H 112.059 -0.275819 3.25433 0
M  V30 1112 H 110.718 1.8547 3.16222 0
M  V30 1113 H 110.366 0.223499 5.02503 0
M  V30 1114 H 110.066 1.89545 5.56189 0
M  V30 1115 H 111.59 1.07782 6.01012 0
M  V30 1116 H 113.004 3.03775 4.86203 0
M  V30 1117 H 111.401 3.79875 4.64559 0
M  V30 1118 H 112.471 3.6025 3.24573 0
M  V30 1119 N 113.814 -1.1601 1.06675 0
M  V30 1120 C 115.225 -1.68235 0.809565 0
M  V30 1121 C 115.576 -1.8454 -0.666303 0
M  V30 1122 O 114.701 -1.54374 -1.5165 0
M  V30 1123 C 115.296 -3.05585 1.46299 0
M  V30 1124 C 113.855 -3.54915 1.25349 0
M  V30 1125 C 113.002 -2.30804 1.53703 0
M  V30 1126 H 115.953 -1.00318 1.22971 0
M  V30 1127 H 115.974 -3.70174 0.880431 0
M  V30 1128 H 115.486 -2.93686 2.53713 0
M  V30 1129 H 113.587 -3.72067 0.199261 0
M  V30 1130 H 113.7 -4.36774 1.9689 0
M  V30 1131 H 112.064 -2.36007 0.957739 0
M  V30 1132 H 112.847 -2.21499 2.62284 0
M  V30 1133 N 115.292 -0.849877 -1.32721 0
M  V30 1134 C 116.222 -0.306308 -2.31482 0
M  V30 1135 C 117.203 0.591952 -1.59468 0
M  V30 1136 O 118.388 0.513199 -1.87296 0
M  V30 1137 C 115.518 0.510204 -3.43532 0
M  V30 1138 C 114.472 -0.293209 -4.26994 0
M  V30 1139 C 113.798 0.647743 -5.30762 0
M  V30 1140 C 115.098 -1.51634 -4.99804 0
M  V30 1141 H 116.792 -1.13153 -2.77195 0
M  V30 1142 H 114.338 -0.545553 -1.33266 0
M  V30 1143 H 116.291 0.900856 -4.11658 0
M  V30 1144 H 115.015 1.36874 -2.96535 0
M  V30 1145 H 113.674 -0.665555 -3.60508 0
M  V30 1146 H 113.322 1.50299 -4.8002 0
M  V30 1147 H 113.022 0.11422 -5.87489 0
M  V30 1148 H 114.546 1.03567 -6.01753 0
M  V30 1149 H 115.96 -1.19824 -5.60638 0
M  V30 1150 H 114.357 -1.98745 -5.66234 0
M  V30 1151 H 115.427 -2.28018 -4.27943 0
M  V30 1152 N 116.77 1.45427 -0.607355 0
M  V30 1153 C 117.68 2.34325 0.113463 0
M  V30 1154 C 118.696 1.51226 0.860617 0
M  V30 1155 O 119.872 1.84029 0.818255 0
M  V30 1156 C 116.937 3.28839 1.09844 0
M  V30 1157 C 115.998 4.27844 0.353271 0
M  V30 1158 C 115.231 5.17842 1.29133 0
M  V30 1159 O 115.454 5.11264 2.52913 0
M  V30 1160 O 114.388 5.96713 0.788523 0
M  V30 1161 H 118.214 2.97364 -0.617094 0
M  V30 1162 H 115.799 1.44807 -0.367619 0
M  V30 1163 H 117.681 3.8708 1.66575 0
M  V30 1164 H 116.356 2.68365 1.81003 0
M  V30 1165 H 115.263 3.7322 -0.256494 0
M  V30 1166 H 116.596 4.91173 -0.317822 0
M  V30 1167 N 118.248 0.346503 1.53744 0
M  V30 1168 C 119.659 -0.136779 1.86198 0
M  V30 1169 C 120.01 -1.49749 1.26766 0
M  V30 1170 O 119.135 -2.08417 0.582355 0
M  V30 1171 C 119.73 -0.254966 3.37839 0
M  V30 1172 C 118.289 -0.682482 3.70161 0
M  V30 1173 C 117.436 0.181981 2.76702 0
M  V30 1174 H 120.387 0.565994 1.48264 0
M  V30 1175 H 120.408 -1.08195 3.64793 0
M  V30 1176 H 119.92 0.735526 3.81066 0
M  V30 1177 H 118.021 -1.68189 3.3248 0
M  V30 1178 H 118.134 -0.470326 4.76786 0
M  V30 1179 H 116.498 -0.34615 2.52337 0
M  V30 1180 H 117.281 1.16966 3.2276 0
M  V30 1181 N 119.726 -1.57421 0.075193 0
M  V30 1182 C 121.137 -1.81021 -0.456964 0
M  V30 1183 C 121.488 -0.98936 -1.69429 0
M  V30 1184 O 120.613 -0.212865 -2.15351 0
M  V30 1185 C 121.208 -3.28329 -0.83581 0
M  V30 1186 C 119.767 -3.52764 -1.31281 0
M  V30 1187 C 118.914 -2.75676 -0.299648 0
M  V30 1188 H 121.865 -1.55822 0.300856 0
M  V30 1189 H 121.886 -3.40564 -1.69696 0
M  V30 1190 H 121.398 -3.88046 0.0649238 0
M  V30 1191 H 119.499 -2.98355 -2.23193 0
M  V30 1192 H 119.612 -4.61451 -1.28839 0
M  V30 1193 H 117.976 -2.42538 -0.777641 0
M  V30 1194 H 118.759 -3.38132 0.593417 0
M  V30 1195 N 121.204 0.198386 -1.56346 0
M  V30 1196 C 122.134 1.24865 -1.9731 0
M  V30 1197 C 123.115 1.47651 -0.844576 0
M  V30 1198 O 124.3 1.59444 -1.10866 0
M  V30 1199 C 121.43 2.59358 -2.30977 0
M  V30 1200 C 120.384 2.5119 -3.46537 0
M  V30 1201 C 119.71 3.89926 -3.65871 0
M  V30 1202 C 121.01 2.03977 -4.80823 0
M  V30 1203 H 122.704 0.908252 -2.85291 0
M  V30 1204 H 120.25 0.435462 -1.37258 0
M  V30 1205 H 122.203 3.33011 -2.58228 0
M  V30 1206 H 120.927 2.95132 -1.39874 0
M  V30 1207 H 119.586 1.79993 -3.19371 0
M  V30 1208 H 119.234 4.23046 -2.72105 0
M  V30 1209 H 118.934 3.85336 -4.4361 0
M  V30 1210 H 120.458 4.65205 -3.95495 0
M  V30 1211 H 121.872 2.67386 -5.07127 0
M  V30 1212 H 120.269 2.10397 -5.62008 0
M  V30 1213 H 121.339 0.992861 -4.74626 0
M  V30 1214 N 122.682 1.50554 0.465978 0
M  V30 1215 C 124.093 1.54599 1.04671 0
M  V30 1216 C 124.444 0.352488 1.93008 0
M  V30 1217 O 123.569 -0.534044 2.09707 0
M  V30 1218 C 124.164 2.80166 1.90505 0
M  V30 1219 C 122.723 2.86876 2.43678 0
M  V30 1220 C 121.87 2.48947 1.22151 0
M  V30 1221 H 124.821 1.56744 0.248384 0
M  V30 1222 H 124.842 2.62311 2.75633 0
M  V30 1223 H 124.354 3.67013 1.26186 0
M  V30 1224 H 122.455 2.04393 3.11536 0
M  V30 1225 H 122.568 3.89885 2.78436 0
M  V30 1226 H 120.932 2.01498 1.5579 0
M  V30 1227 H 121.715 3.38107 0.594866 0
M  V30 1228 N 124.16 -0.719506 1.40217 0
M  V30 1229 C 125.571 -1.29848 1.34151 0
M  V30 1230 C 125.922 -1.96196 0.0131349 0
M  V30 1231 O 125.047 -1.973 -0.88892 0
M  V30 1232 C 125.642 -2.36118 2.42968 0
M  V30 1233 C 124.201 -2.8965 2.40374 0
M  V30 1234 C 123.348 -1.63393 2.24049 0
M  V30 1235 H 126.299 -0.51591 1.5008 0
M  V30 1236 H 126.32 -3.16871 2.10649 0
M  V30 1237 H 125.832 -1.878 3.39636 0
M  V30 1238 H 123.933 -3.42208 1.47392 0
M  V30 1239 H 124.046 -3.4171 3.35814 0
M  V30 1240 H 122.41 -1.88312 1.71495 0
M  V30 1241 H 123.193 -1.17104 3.2271 0
M  V30 1242 N 125.638 -1.25649 -0.95132 0
M  V30 1243 C 126.886 -1.10375 -1.69298 0
M  V30 1244 C 127.207 0.355339 -1.91735 0
M  V30 1245 O 126.477 1.25188 -1.50681 0
M  V30 1246 H 125.057 -0.405461 -0.627384 0
M  V30 1247 H 127.719 -1.57823 -1.14358 0
M  V30 1248 H 126.815 -1.61465 -2.67087 0
M  V30 1249 N 127.117 1.15442 -1.07289 0
M  V30 1250 C 128.345 1.90096 -0.81676 0
M  V30 1251 C 128.76 1.7798 0.629966 0
M  V30 1252 O 128.117 1.1313 1.43206 0
M  V30 1253 C 128.168 3.40466 -1.21512 0
M  V30 1254 O 127.889 3.52232 -2.60508 0
M  V30 1255 C 129.39 4.32145 -0.988198 0
M  V30 1256 H 126.61 0.602495 -0.295366 0
M  V30 1257 H 129.154 1.4627 -1.42918 0
M  V30 1258 H 127.309 3.81958 -0.647039 0
M  V30 1259 H 127.723 4.45549 -2.76742 0
M  V30 1260 H 129.197 5.36072 -1.31645 0
M  V30 1261 H 129.674 4.39135 0.0755063 0
M  V30 1262 H 130.28 3.96395 -1.54115 0
M  V30 1263 N 128.595 0.856903 1.32268 0
M  V30 1264 C 129.525 0.31858 2.31316 0
M  V30 1265 C 130.506 -0.583487 1.59779 0
M  V30 1266 O 131.691 -0.503259 1.87566 0
M  V30 1267 C 128.821 -0.491979 3.43798 0
M  V30 1268 C 127.775 0.315849 4.26833 0
M  V30 1269 C 127.101 -0.619586 5.31098 0
M  V30 1270 C 128.401 1.54282 4.98993 0
M  V30 1271 H 130.095 1.14621 2.76591 0
M  V30 1272 H 127.641 0.552613 1.32974 0
M  V30 1273 H 129.594 -0.879012 4.1213 0
M  V30 1274 H 128.318 -1.35299 2.97257 0
M  V30 1275 H 126.977 0.684664 3.6015 0
M  V30 1276 H 126.625 -1.47751 4.8081 0
M  V30 1277 H 126.325 -0.0830621 5.87541 0
M  V30 1278 H 127.849 -1.00375 6.02293 0
M  V30 1279 H 129.263 1.22796 5.59995 0
M  V30 1280 H 127.66 2.01745 5.65172 0
M  V30 1281 H 128.73 2.30285 4.26728 0
M  V30 1282 N 130.073 -1.45103 0.615059 0
M  V30 1283 C 131.484 -1.85654 0.197383 0
M  V30 1284 C 131.835 -1.51433 -1.24749 0
M  V30 1285 O 130.96 -0.944608 -1.94695 0
M  V30 1286 C 131.555 -3.36972 0.351448 0
M  V30 1287 C 130.114 -3.76398 -0.011593 0
M  V30 1288 C 129.261 -2.69024 0.672394 0
M  V30 1289 H 132.212 -1.35797 0.821263 0
M  V30 1290 H 132.233 -3.78239 -0.414227 0
M  V30 1291 H 131.745 -3.61847 1.40314 0
M  V30 1292 H 129.846 -3.5714 -1.06217 0
M  V30 1293 H 129.959 -4.77532 0.387265 0
M  V30 1294 H 128.323 -2.54465 0.109284 0
M  V30 1295 H 129.106 -2.96735 1.72636 0
M  V30 1296 N 131.551 -0.354651 -1.53558 0
M  V30 1297 C 132.483 0.5315 -2.22952 0
M  V30 1298 C 133.496 1.05503 -1.23988 0
M  V30 1299 O 134.685 0.963279 -1.50277 0
M  V30 1300 C 131.785 1.74538 -2.90499 0
M  V30 1301 C 130.958 1.35524 -4.15875 0
M  V30 1302 C 130.017 2.42999 -4.66731 0
M  V30 1303 O 129.043 2.05844 -5.30676 0
M  V30 1304 N 130.245 3.74423 -4.43608 0
M  V30 1305 H 133.01 -0.0628615 -2.99634 0
M  V30 1306 H 130.571 -0.179302 -1.60904 0
M  V30 1307 H 132.563 2.45892 -3.21433 0
M  V30 1308 H 131.133 2.24686 -2.17336 0
M  V30 1309 H 130.353 0.471998 -3.91364 0
M  V30 1310 H 131.641 1.07071 -4.97406 0
M  V30 1311 H 131.039 4.07391 -3.92491 0
M  V30 1312 H 129.596 4.41913 -4.7912 0
M  V30 1313 N 133.029 1.57378 -0.0835403 0
M  V30 1314 C 134.44 1.81261 0.447358 0
M  V30 1315 C 134.791 0.998331 1.68902 0
M  V30 1316 O 133.916 0.224282 2.15235 0
M  V30 1317 C 134.511 3.28767 0.818386 0
M  V30 1318 C 133.07 3.53455 1.29409 0
M  V30 1319 C 132.217 2.75831 0.285024 0
M  V30 1320 H 135.168 1.5566 -0.309115 0
M  V30 1321 H 135.189 3.41459 1.67887 0
M  V30 1322 H 134.701 3.88006 -0.0855019 0
M  V30 1323 H 132.802 2.99534 2.21608 0
M  V30 1324 H 132.915 4.62128 1.2639 0
M  V30 1325 H 131.279 2.42947 0.764767 0
M  V30 1326 H 132.062 3.37813 -0.611341 0
M  V30 1327 N 134.507 -0.190092 1.56449 0
M  V30 1328 C 135.732 -0.929864 1.85387 0
M  V30 1329 C 136.157 -1.7585 0.667704 0
M  V30 1330 O 135.515 -1.77198 -0.383459 0
M  V30 1331 C 135.563 -1.79773 3.12593 0
M  V30 1332 O 134.667 -2.89713 2.93496 0
M  V30 1333 H 134.008 -0.261574 0.610307 0
M  V30 1334 H 136.538 -0.193896 2.03679 0
M  V30 1335 H 136.548 -2.20139 3.43515 0
M  V30 1336 H 135.223 -1.18892 3.98544 0
M  V30 1337 H 133.8 -2.53065 2.73884 0
M  V30 1338 N 135.985 -1.50799 -0.457987 0
M  V30 1339 C 137.396 -1.55152 -1.0385 0
M  V30 1340 C 137.747 -0.362719 -1.92818 0
M  V30 1341 O 136.872 0.522915 -2.09987 0
M  V30 1342 C 137.467 -2.81173 -1.89017 0
M  V30 1343 C 136.026 -2.88164 -2.42154 0
M  V30 1344 C 135.173 -2.49591 -1.20829 0
M  V30 1345 H 138.124 -1.56874 -0.240068 0
M  V30 1346 H 138.145 -2.63769 -2.74238 0
M  V30 1347 H 137.657 -3.67677 -1.24238 0
M  V30 1348 H 135.758 -2.06042 -3.10447 0
M  V30 1349 H 135.871 -3.91356 -2.76364 0
M  V30 1350 H 134.235 -2.02322 -1.54719 0
M  V30 1351 H 135.018 -3.38418 -0.576927 0
M  V30 1352 N 137.463 0.71206 -1.40597 0
M  V30 1353 C 138.691 1.50111 -1.42388 0
M  V30 1354 C 139.106 1.88784 -0.0245395 0
M  V30 1355 O 138.463 1.55681 0.952351 0
M  V30 1356 C 138.514 2.7742 -2.31776 0
M  V30 1357 O 138.235 2.40382 -3.66262 0
M  V30 1358 C 139.736 3.7129 -2.42196 0
M  V30 1359 H 136.956 0.46314 -0.485533 0
M  V30 1360 H 139.5 0.878068 -1.8469 0
M  V30 1361 H 137.655 3.36001 -1.92827 0
M  V30 1362 H 138.069 3.22324 -4.13772 0
M  V30 1363 H 139.543 4.57448 -3.08943 0
M  V30 1364 H 140.02 4.14641 -1.44809 0
M  V30 1365 H 140.626 3.18619 -2.81712 0
M  V30 1366 N 138.941 1.26152 0.944643 0
M  V30 1367 C 140.352 1.10454 1.50522 0
M  V30 1368 C 140.703 -0.31635 1.93633 0
M  V30 1369 O 139.828 -1.20746 1.79581 0
M  V30 1370 C 140.423 1.99891 2.73549 0
M  V30 1371 C 138.982 1.88348 3.25886 0
M  V30 1372 C 138.129 1.93447 1.9868 0
M  V30 1373 H 141.08 1.39292 0.760489 0
M  V30 1374 H 141.101 1.54477 3.47732 0
M  V30 1375 H 140.613 3.03297 2.42141 0
M  V30 1376 H 138.714 0.878636 3.62092 0
M  V30 1377 H 138.827 2.73696 3.93227 0
M  V30 1378 H 137.191 1.37456 2.14425 0
M  V30 1379 H 137.974 2.98476 1.69607 0
M  V30 1380 N 140.419 -1.14872 1.07899 0
M  V30 1381 C 141.83 -1.67367 0.827363 0
M  V30 1382 C 142.181 -1.85236 -0.646693 0
M  V30 1383 O 141.306 -1.55974 -1.50004 0
M  V30 1384 C 141.901 -3.04016 1.49532 0
M  V30 1385 C 140.46 -3.53566 1.29106 0
M  V30 1386 C 139.607 -2.29161 1.56143 0
M  V30 1387 H 142.558 -0.990083 1.24028 0
M  V30 1388 H 142.579 -3.69219 0.919643 0
M  V30 1389 H 142.091 -2.90978 2.56814 0
M  V30 1390 H 140.192 -3.71835 0.238713 0
M  V30 1391 H 140.305 -4.34661 2.01511 0
M  V30 1392 H 138.669 -2.34978 0.982717 0
M  V30 1393 H 139.452 -2.18705 2.64619 0
M  V30 1394 N 141.898 -0.863906 -1.31812 0
M  V30 1395 C 143.175 -0.39275 -1.91616 0
M  V30 1396 C 143.555 1.12461 -1.7865 0
M  V30 1397 O 142.903 1.95045 -1.19037 0
M  V30 1398 C 143.113 -0.867385 -3.38049 0
M  V30 1399 C 144.461 -0.889966 -4.15168 0
M  V30 1400 O 145.485 -0.812635 -3.46806 0
M  V30 1401 O 144.344 -1.00079 -5.37258 0
M  V30 1402 H 141.438 -0.116358 -0.818773 0
M  V30 1403 H 143.984 -0.951418 -1.40521 0
M  V30 1404 H 142.756 -1.91081 -3.41473 0
M  V30 1405 H 142.379 -0.286687 -3.96565 0
M  V30 1406 N 143.376 1.44774 -0.622745 0
M  V30 1407 C 144.306 2.33382 0.0741861 0
M  V30 1408 C 145.287 1.47719 0.843387 0
M  V30 1409 O 146.472 1.76458 0.810934 0
M  V30 1410 C 143.602 3.30663 1.06204 0
M  V30 1411 C 142.556 4.26079 0.405037 0
M  V30 1412 C 141.882 5.13165 1.5022 0
M  V30 1413 C 143.182 5.1781 -0.683414 0
M  V30 1414 H 144.876 2.91905 -0.665713 0
M  V30 1415 H 142.422 1.40363 -0.321587 0
M  V30 1416 H 144.375 3.9153 1.55827 0
M  V30 1417 H 143.099 2.70331 1.83272 0
M  V30 1418 H 141.758 3.66532 -0.0704683 0
M  V30 1419 H 141.406 4.49191 2.26355 0
M  V30 1420 H 141.106 5.77812 1.06803 0
M  V30 1421 H 142.63 5.76902 2.00041 0
M  V30 1422 H 144.044 5.72661 -0.270631 0
M  V30 1423 H 142.441 5.91015 -1.04023 0
M  V30 1424 H 143.511 4.59326 -1.55395 0
M  V30 1425 N 144.854 0.36279 1.53368 0
M  V30 1426 C 145.764 -0.492994 2.29362 0
M  V30 1427 C 146.78 -1.09507 1.35219 0
M  V30 1428 O 147.956 -1.10662 1.68273 0
M  V30 1429 C 145.021 -1.61855 3.066 0
M  V30 1430 C 144.082 -1.04429 4.16405 0
M  V30 1431 C 143.315 -2.11621 4.89951 0
M  V30 1432 O 143.538 -3.32684 4.63333 0
M  V30 1433 O 142.472 -1.74835 5.75948 0
M  V30 1434 H 146.298 0.125331 3.03441 0
M  V30 1435 H 143.883 0.127253 1.48857 0
M  V30 1436 H 145.765 -2.27302 3.54841 0
M  V30 1437 H 144.44 -2.22233 2.3536 0
M  V30 1438 H 143.347 -0.353819 3.72423 0
M  V30 1439 H 144.68 -0.485113 4.89804 0
M  V30 1440 N 146.332 -1.57332 0.0918853 0
M  V30 1441 C 147.295 -2.12708 -0.85369 0
M  V30 1442 C 148.295 -1.05561 -1.213 0
M  V30 1443 O 149.485 -1.31461 -1.14296 0
M  V30 1444 C 146.617 -2.64503 -2.15061 0
M  V30 1445 H 147.81 -2.97573 -0.3729 0
M  V30 1446 H 145.363 -1.55509 -0.157072 0
M  V30 1447 H 146.098 -1.83149 -2.67632 0
M  V30 1448 H 145.883 -3.4284 -1.90272 0
M  V30 1449 H 147.373 -3.07351 -2.82711 0
M  V30 1450 N 147.81 0.181792 -1.56548 0
M  V30 1451 C 148.743 1.25366 -1.90679 0
M  V30 1452 C 149.721 1.43299 -0.768376 0
M  V30 1453 O 150.905 1.58475 -1.02068 0
M  V30 1454 C 148.032 2.61826 -2.1486 0
M  V30 1455 C 147.078 2.60688 -3.37556 0
M  V30 1456 S 147.911 2.10804 -4.92262 0
M  V30 1457 C 149.067 3.49062 -5.19525 0
M  V30 1458 H 149.3 0.962277 -2.81296 0
M  V30 1459 H 146.833 0.385892 -1.495 0
M  V30 1460 H 148.791 3.40371 -2.29473 0
M  V30 1461 H 147.452 2.88169 -1.24969 0
M  V30 1462 H 146.645 3.61058 -3.51643 0
M  V30 1463 H 146.247 1.90232 -3.22006 0
M  V30 1464 H 148.539 4.45003 -5.10861 0
M  V30 1465 H 149.482 3.39859 -6.2121 0
M  V30 1466 H 149.89 3.4459 -4.47122 0
M  V30 1467 N 149.288 1.51039 0.449983 0
M  V30 1468 C 150.251 1.70863 1.5277 0
M  V30 1469 C 151.251 0.578846 1.5002 0
M  V30 1470 O 152.441 0.846213 1.52266 0
M  V30 1471 C 149.573 1.75341 2.9235 0
M  V30 1472 H 150.766 2.67034 1.36502 0
M  V30 1473 H 148.319 1.40838 0.677812 0
M  V30 1474 H 149.054 0.809383 3.14037 0
M  V30 1475 H 148.839 2.57436 2.95752 0
M  V30 1476 H 150.329 1.92559 3.70555 0
M  V30 1477 N 150.766 -0.704594 1.40972 0
M  V30 1478 C 151.991 -1.49858 1.43378 0
M  V30 1479 C 152.416 -1.88061 0.038184 0
M  V30 1480 O 151.774 -1.5402 -0.956425 0
M  V30 1481 C 151.822 -2.74333 2.34038 0
M  V30 1482 O 150.926 -3.7147 1.7912 0
M  V30 1483 H 150.267 -0.45139 0.486974 0
M  V30 1484 H 152.797 -0.866832 1.8533 0
M  V30 1485 H 152.807 -3.22741 2.49604 0
M  V30 1486 H 151.482 -2.45863 3.35446 0
M  V30 1487 H 150.059 -3.30363 1.72958 0
M  V30 1488 N 152.244 -1.26651 -0.937939 0
M  V30 1489 C 153.174 -1.10993 -2.05433 0
M  V30 1490 C 154.155 -0.0142161 -1.70094 0
M  V30 1491 O 155.34 -0.186837 -1.93299 0
M  V30 1492 C 152.47 -0.745561 -3.39203 0
M  V30 1493 C 151.424 -1.79337 -3.88616 0
M  V30 1494 C 150.75 -1.28324 -5.19073 0
M  V30 1495 C 152.05 -3.19553 -4.13138 0
M  V30 1496 H 153.744 -2.0438 -2.1879 0
M  V30 1497 H 151.29 -0.984041 -1.05131 0
M  V30 1498 H 153.243 -0.622888 -4.16771 0
M  V30 1499 H 151.967 0.22401 -3.25831 0
M  V30 1500 H 150.626 -1.90477 -3.13231 0
M  V30 1501 H 150.274 -0.303414 -5.02084 0
M  V30 1502 H 149.974 -1.98369 -5.53103 0
M  V30 1503 H 151.498 -1.1733 -5.99221 0
M  V30 1504 H 152.912 -3.11471 -4.81309 0
M  V30 1505 H 151.309 -3.87218 -4.58457 0
M  V30 1506 H 152.379 -3.65368 -3.18801 0
M  V30 1507 N 153.722 1.14298 -1.08507 0
M  V30 1508 C 154.652 2.21542 -0.737646 0
M  V30 1509 C 155.633 1.67773 0.280377 0
M  V30 1510 O 156.818 1.93616 0.150521 0
M  V30 1511 C 153.948 3.46988 -0.147259 0
M  V30 1512 C 152.902 4.13789 -1.09374 0
M  V30 1513 C 152.228 5.33449 -0.365524 0
M  V30 1514 C 153.528 4.62208 -2.4323 0
M  V30 1515 H 155.222 2.5086 -1.6343 0
M  V30 1516 H 152.768 1.20576 -0.787243 0
M  V30 1517 H 154.721 4.21262 0.107808 0
M  V30 1518 H 153.445 3.17037 0.784538 0
M  V30 1519 H 152.104 3.4147 -1.33393 0
M  V30 1520 H 151.752 4.99759 0.57011 0
M  V30 1521 H 151.452 5.79088 -0.996512 0
M  V30 1522 H 152.976 6.10485 -0.118534 0
M  V30 1523 H 154.39 5.27952 -2.23472 0
M  V30 1524 H 152.787 5.18553 -3.02031 0
M  V30 1525 H 153.857 3.77224 -3.04681 0
M  V30 1526 N 155.201 0.870884 1.31352 0
M  V30 1527 C 156.148 0.325425 2.28494 0
M  V30 1528 C 157.118 -0.576615 1.5577 0
M  V30 1529 O 158.303 -0.508059 1.83911 0
M  V30 1530 C 155.443 -0.466283 3.41935 0
M  V30 1531 C 154.556 0.463378 4.29508 0
M  V30 1532 C 153.691 -0.342544 5.30094 0
M  V30 1533 C 152.73 0.583486 6.09313 0
M  V30 1534 N 151.867 -0.186244 7.01853 0
M  V30 1535 H 156.707 1.15901 2.74538 0
M  V30 1536 H 154.244 0.58294 1.35056 0
M  V30 1537 H 156.202 -0.941085 4.06447 0
M  V30 1538 H 154.832 -1.26456 2.97 0
M  V30 1539 H 153.884 1.05663 3.65431 0
M  V30 1540 H 155.196 1.1734 4.84802 0
M  V30 1541 H 154.35 -0.879816 6.00287 0
M  V30 1542 H 153.089 -1.08585 4.75458 0
M  V30 1543 H 152.094 1.13251 5.3801 0
M  V30 1544 H 153.319 1.32566 6.66035 0
M  V30 1545 H 151.265 -0.912348 6.49625 0
M  V30 1546 H 151.182 0.464422 7.54572 0
M  V30 1547 H 152.45 -0.704716 7.76308 0
M  V30 1548 N 156.679 -1.44442 0.630414 0
M  V30 1549 C 157.626 -2.30678 -0.0749355 0
M  V30 1550 C 158.596 -1.4344 -0.837502 0
M  V30 1551 O 159.781 -1.72343 -0.818684 0
M  V30 1552 C 156.921 -3.28706 -1.05103 0
M  V30 1553 C 156.034 -4.31046 -0.286954 0
M  V30 1554 C 155.169 -5.16167 -1.2548 0
M  V30 1555 C 154.208 -6.10216 -0.479843 0
M  V30 1556 N 153.345 -6.88039 -1.39811 0
M  V30 1557 H 158.185 -2.90454 0.666386 0
M  V30 1558 H 155.722 -1.43107 0.340404 0
M  V30 1559 H 157.68 -3.84027 -1.63031 0
M  V30 1560 H 156.31 -2.70632 -1.75949 0
M  V30 1561 H 155.362 -3.78203 0.408243 0
M  V30 1562 H 156.674 -4.97794 0.316657 0
M  V30 1563 H 155.828 -5.76002 -1.90544 0
M  V30 1564 H 154.567 -4.49491 -1.89233 0
M  V30 1565 H 153.572 -5.49491 0.184295 0
M  V30 1566 H 154.797 -6.78928 0.152965 0
M  V30 1567 H 152.743 -6.24032 -2.02287 0
M  V30 1568 H 152.66 -7.51223 -0.848508 0
M  V30 1569 H 153.928 -7.52397 -2.03762 0
M  V30 1570 N 158.157 -0.370918 -1.53173 0
M  V30 1571 C 159.067 0.480823 -2.2962 0
M  V30 1572 C 160.083 1.08789 -1.35798 0
M  V30 1573 O 161.259 1.09768 -1.68858 0
M  V30 1574 C 158.324 1.60227 -3.07454 0
M  V30 1575 C 157.385 1.0222 -4.16953 0
M  V30 1576 C 156.618 2.0902 -4.91066 0
M  V30 1577 O 156.841 3.30222 -4.65091 0
M  V30 1578 O 155.775 1.71778 -5.76867 0
M  V30 1579 H 159.601 -0.141421 -3.03371 0
M  V30 1580 H 157.186 -0.135146 -1.48787 0
M  V30 1581 H 159.068 2.25417 -3.56041 0
M  V30 1582 H 157.743 2.20982 -2.36535 0
M  V30 1583 H 156.65 0.334064 -3.72605 0
M  V30 1584 H 157.983 0.459131 -4.90054 0
M  V30 1585 N 159.635 1.57281 -0.100228 0
M  V30 1586 C 160.565 2.17328 0.853857 0
M  V30 1587 C 161.546 1.10804 1.2906 0
M  V30 1588 O 162.731 1.38963 1.35657 0
M  V30 1589 C 159.861 2.75772 2.11109 0
M  V30 1590 C 158.815 3.87713 1.81279 0
M  V30 1591 C 158.141 4.32882 3.13874 0
M  V30 1592 C 159.441 5.10677 1.09574 0
M  V30 1593 H 161.135 2.97305 0.353545 0
M  V30 1594 H 158.681 1.43009 0.168612 0
M  V30 1595 H 160.634 3.16433 2.78296 0
M  V30 1596 H 159.358 1.93057 2.63432 0
M  V30 1597 H 158.017 3.476 1.16489 0
M  V30 1598 H 157.665 3.47051 3.64095 0
M  V30 1599 H 157.365 5.08358 2.94696 0
M  V30 1600 H 158.889 4.7618 3.82211 0
M  V30 1601 H 160.303 5.48474 1.66879 0
M  V30 1602 H 158.7 5.91615 1.00557 0
M  V30 1603 H 159.77 4.84835 0.0793299 0
M  V30 1604 N 161.113 -0.173488 1.56642 0
M  V30 1605 C 162.023 -1.23482 1.99473 0
M  V30 1606 C 163.039 -1.48567 0.905752 0
M  V30 1607 O 164.215 -1.60758 1.21321 0
M  V30 1608 C 161.28 -2.55444 2.34413 0
M  V30 1609 C 160.341 -2.38241 3.57127 0
M  V30 1610 C 159.574 -3.63909 3.90392 0
M  V30 1611 O 159.797 -4.68996 3.24653 0
M  V30 1612 O 158.731 -3.58149 4.83749 0
M  V30 1613 H 162.557 -0.901279 2.90018 0
M  V30 1614 H 160.142 -0.380185 1.44482 0
M  V30 1615 H 162.024 -3.33292 2.57865 0
M  V30 1616 H 160.699 -2.88382 1.4703 0
M  V30 1617 H 159.606 -1.58431 3.38896 0
M  V30 1618 H 160.939 -2.10228 4.45045 0
M  V30 1619 N 162.591 -1.51276 -0.441967 0
M  V30 1620 C 163.523 -1.68444 -1.55433 0
M  V30 1621 C 164.536 -0.565187 -1.52674 0
M  V30 1622 O 165.725 -0.839356 -1.57534 0
M  V30 1623 C 162.825 -1.67966 -2.94348 0
M  V30 1624 C 161.998 -2.964 -3.21661 0
M  V30 1625 C 161.057 -2.88171 -4.40277 0
M  V30 1626 O 160.083 -3.62119 -4.39157 0
M  V30 1627 N 161.285 -2.03706 -5.43584 0
M  V30 1628 H 164.05 -2.644 -1.41112 0
M  V30 1629 H 161.611 -1.49104 -0.630838 0
M  V30 1630 H 163.603 -1.60035 -3.71713 0
M  V30 1631 H 162.173 -0.796225 -3.0229 0
M  V30 1632 H 161.393 -3.18234 -2.32638 0
M  V30 1633 H 162.681 -3.81427 -3.36736 0
M  V30 1634 H 162.079 -1.42995 -5.47329 0
M  V30 1635 H 160.636 -2.01658 -6.1982 0
M  V30 1636 N 164.069 0.697108 -1.41344 0
M  V30 1637 C 165.002 1.82134 -1.37486 0
M  V30 1638 C 165.98 1.60784 -0.242351 0
M  V30 1639 O 167.164 1.83553 -0.429012 0
M  V30 1640 C 164.291 3.18788 -1.14421 0
M  V30 1641 C 163.337 3.58932 -2.3037 0
M  V30 1642 S 164.17 3.63916 -3.92843 0
M  V30 1643 C 165.326 5.03298 -3.72078 0
M  V30 1644 H 165.559 1.85129 -2.32625 0
M  V30 1645 H 163.092 0.865671 -1.2785 0
M  V30 1646 H 165.05 3.97677 -1.018 0
M  V30 1647 H 163.711 3.13404 -0.20905 0
M  V30 1648 H 162.904 4.58202 -2.09922 0
M  V30 1649 H 162.506 2.87347 -2.39391 0
M  V30 1650 H 164.798 5.90753 -3.31688 0
M  V30 1651 H 165.741 5.28788 -4.70945 0
M  V30 1652 H 166.149 4.74764 -3.05384 0
M  V30 1653 N 165.547 1.27147 0.931209 0
M  V30 1654 C 166.457 1.11372 2.06478 0
M  V30 1655 C 167.473 0.044645 1.73943 0
M  V30 1656 O 168.649 0.250417 1.99837 0
M  V30 1657 C 165.714 0.758838 3.38294 0
M  V30 1658 C 164.775 1.90841 3.84549 0
M  V30 1659 C 164.008 1.57036 5.10074 0
M  V30 1660 O 164.231 0.476645 5.68405 0
M  V30 1661 O 163.165 2.40839 5.51616 0
M  V30 1662 H 166.991 2.06493 2.22698 0
M  V30 1663 H 164.576 1.06301 1.04978 0
M  V30 1664 H 166.458 0.574098 4.17471 0
M  V30 1665 H 165.133 -0.162879 3.2329 0
M  V30 1666 H 164.04 2.14819 3.06274 0
M  V30 1667 H 165.373 2.81021 4.04089 0
M  V30 1668 N 167.025 -1.13721 1.09112 0
M  V30 1669 C 168.302 -1.81155 0.737706 0
M  V30 1670 C 168.682 -1.96253 -0.777683 0
M  V30 1671 O 168.03 -1.52807 -1.69889 0
M  V30 1672 C 168.24 -3.16392 1.47299 0
M  V30 1673 C 169.588 -3.91787 1.63671 0
M  V30 1674 O 170.612 -3.26005 1.43524 0
M  V30 1675 O 169.471 -5.0977 1.96969 0
M  V30 1676 H 166.565 -0.783518 0.26463 0
M  V30 1677 H 169.111 -1.20676 1.19312 0
M  V30 1678 H 167.883 -3.0061 2.50498 0
M  V30 1679 H 167.506 -3.8457 1.00953 0
M  V30 1680 N 168.503 -0.877838 -1.30888 0
M  V30 1681 C 169.75 -0.492696 -1.96415 0
M  V30 1682 C 170.078 0.956671 -1.69346 0
M  V30 1683 O 169.333 1.68993 -0.986913 0
M  V30 1684 C 169.632 -0.705748 -3.50363 0
M  V30 1685 C 169.298 -2.1291 -3.97467 0
M  V30 1686 C 167.96 -2.51834 -4.1004 0
M  V30 1687 C 170.312 -3.05702 -4.22132 0
M  V30 1688 C 167.64 -3.82775 -4.44635 0
M  V30 1689 C 169.992 -4.36166 -4.58194 0
M  V30 1690 C 168.656 -4.74993 -4.68975 0
M  V30 1691 H 167.926 -0.18029 -0.718733 0
M  V30 1692 H 170.573 -1.11233 -1.55883 0
M  V30 1693 H 168.878 -0.00303058 -3.918 0
M  V30 1694 H 170.575 -0.387456 -3.99124 0
M  V30 1695 H 167.165 -1.81694 -3.88182 0
M  V30 1696 H 171.349 -2.76853 -4.11906 0
M  V30 1697 H 166.605 -4.12609 -4.51181 0
M  V30 1698 H 170.779 -5.08111 -4.76231 0
M  V30 1699 H 168.406 -5.76495 -4.95537 0
M  V30 1700 N 169.982 1.44106 -0.638065 0
M  V30 1701 C 171.229 2.01978 -0.14533 0
M  V30 1702 C 171.557 1.50234 1.23532 0
M  V30 1703 O 170.812 0.679548 1.83523 0
M  V30 1704 C 171.111 3.5729 -0.0887327 0
M  V30 1705 C 170.777 4.28317 -1.40909 0
M  V30 1706 C 169.439 4.47437 -1.77069 0
M  V30 1707 C 171.791 4.6867 -2.28031 0
M  V30 1708 C 169.119 5.04171 -3.00047 0
M  V30 1709 C 171.471 5.26766 -3.50286 0
M  V30 1710 C 170.135 5.44104 -3.86661 0
M  V30 1711 H 169.405 0.739089 -0.0531801 0
M  V30 1712 H 172.052 1.72781 -0.825761 0
M  V30 1713 H 170.357 3.8594 0.675095 0
M  V30 1714 H 172.054 3.99807 0.309145 0
M  V30 1715 H 168.644 4.1377 -1.1177 0
M  V30 1716 H 172.828 4.53604 -2.01388 0
M  V30 1717 H 168.084 5.15782 -3.28298 0
M  V30 1718 H 172.258 5.56983 -4.18023 0
M  V30 1719 H 169.885 5.87832 -4.82034 0
M  V30 1720 N 171.46 0.379036 1.52974 0
M  V30 1721 C 172.39 -0.452706 2.29069 0
M  V30 1722 C 173.371 -1.07237 1.32039 0
M  V30 1723 O 174.556 -1.08708 1.60923 0
M  V30 1724 C 171.686 -1.5856 3.08992 0
M  V30 1725 C 170.64 -1.0925 4.13822 0
M  V30 1726 C 169.966 -2.31668 4.81907 0
M  V30 1727 C 171.266 -0.167702 5.22031 0
M  V30 1728 H 172.96 0.182181 2.98845 0
M  V30 1729 H 170.506 0.0890592 1.43724 0
M  V30 1730 H 172.459 -2.1742 3.6098 0
M  V30 1731 H 171.183 -2.24792 2.36931 0
M  V30 1732 H 169.842 -0.526494 3.628 0
M  V30 1733 H 169.49 -2.96386 4.06404 0
M  V30 1734 H 169.19 -1.9934 5.52754 0
M  V30 1735 H 170.714 -2.91189 5.36695 0
M  V30 1736 H 172.128 -0.664186 5.6944 0
M  V30 1737 H 170.525 0.0653265 6.00064 0
M  V30 1738 H 171.595 0.786347 4.78482 0
M  V30 1739 N 172.938 -1.57226 0.108567 0
M  V30 1740 C 174.215 -1.86333 -0.594939 0
M  V30 1741 C 174.595 -1.00788 -1.85486 0
M  V30 1742 O 173.943 -0.0839293 -2.28346 0
M  V30 1743 C 174.153 -3.37265 -0.897405 0
M  V30 1744 C 175.501 -4.05629 -1.25501 0
M  V30 1745 O 176.525 -3.42224 -0.987998 0
M  V30 1746 O 175.384 -5.17531 -1.75567 0
M  V30 1747 H 172.478 -0.771018 -0.2991 0
M  V30 1748 H 175.024 -1.69102 0.142283 0
M  V30 1749 H 173.796 -3.913 -0.00413806 0
M  V30 1750 H 173.419 -3.59889 -1.69014 0
M  V30 1751 N 174.416 0.165178 -1.56732 0
M  V30 1752 C 175.379 1.18822 -1.95995 0
M  V30 1753 C 176.379 1.3685 -0.84431 0
M  V30 1754 O 177.569 1.34152 -1.11126 0
M  V30 1755 C 174.701 2.5521 -2.26011 0
M  V30 1756 H 175.894 0.851825 -2.87548 0
M  V30 1757 H 173.447 0.407857 -1.50885 0
M  V30 1758 H 174.182 2.93852 -1.37191 0
M  V30 1759 H 173.967 2.43489 -3.07336 0
M  V30 1760 H 175.457 3.28927 -2.57288 0
M  V30 1761 N 175.894 1.51508 0.433938 0
M  V30 1762 C 177.305 1.56784 1.01369 0
M  V30 1763 C 177.656 0.393349 1.92217 0
M  V30 1764 O 176.781 -0.489441 2.10792 0
M  V30 1765 C 177.376 2.84144 1.8452 0
M  V30 1766 C 175.935 2.9198 2.37539 0
M  V30 1767 C 175.082 2.51482 1.16843 0
M  V30 1768 H 178.033 1.57236 0.215081 0
M  V30 1769 H 178.054 2.68098 2.70007 0
M  V30 1770 H 177.566 3.69607 1.18373 0
M  V30 1771 H 175.667 2.10955 3.0713 0
M  V30 1772 H 175.78 3.95704 2.70103 0
M  V30 1773 H 174.144 2.04758 1.51481 0
M  V30 1774 H 174.927 3.39293 0.523015 0
M  V30 1775 N 177.372 -0.689602 1.41712 0
M  V30 1776 C 178.783 -1.26973 1.36875 0
M  V30 1777 C 179.134 -1.96124 0.054748 0
M  V30 1778 O 178.259 -1.99141 -0.84687 0
M  V30 1779 C 178.854 -2.30912 2.47922 0
M  V30 1780 C 177.413 -2.84486 2.46464 0
M  V30 1781 C 176.56 -1.58603 2.27465 0
M  V30 1782 H 179.511 -0.48396 1.51141 0
M  V30 1783 H 179.532 -3.12331 2.17323 0
M  V30 1784 H 179.044 -1.80554 3.43543 0
M  V30 1785 H 177.145 -3.39005 1.54617 0
M  V30 1786 H 177.258 -3.34511 3.42986 0
M  V30 1787 H 175.622 -1.84632 1.75451 0
M  V30 1788 H 176.405 -1.10233 3.25121 0
M  V30 1789 N 178.85 -1.27639 -0.924453 0
M  V30 1790 C 179.78 -1.13166 -2.04244 0
M  V30 1791 C 180.761 -0.032256 -1.70069 0
M  V30 1792 O 181.946 -0.207328 -1.9309 0
M  V30 1793 C 179.076 -0.781496 -3.38393 0
M  V30 1794 C 178.03 -1.83449 -3.86692 0
M  V30 1795 C 177.356 -1.33822 -5.17683 0
M  V30 1796 C 178.656 -3.23917 -4.09726 0
M  V30 1797 H 180.35 -2.06689 -2.1661 0
M  V30 1798 H 177.896 -0.995136 -1.04082 0
M  V30 1799 H 179.849 -0.667057 -4.16087 0
M  V30 1800 H 178.573 0.189439 -3.2605 0
M  V30 1801 H 177.232 -1.93789 -3.11193 0
M  V30 1802 H 176.88 -0.35665 -5.01734 0
M  V30 1803 H 176.58 -2.04224 -5.50968 0
M  V30 1804 H 178.104 -1.23679 -5.97943 0
M  V30 1805 H 179.518 -3.16559 -4.77978 0
M  V30 1806 H 177.915 -3.92059 -4.54324 0
M  V30 1807 H 178.985 -3.68729 -3.14908 0
M  V30 1808 N 180.328 1.1314 -1.09713 0
M  V30 1809 C 181.739 1.66029 -0.853885 0
M  V30 1810 C 182.09 1.86241 0.617142 0
M  V30 1811 O 181.215 1.5834 1.47503 0
M  V30 1812 C 181.81 3.01599 -1.5435 0
M  V30 1813 C 180.369 3.51467 -1.34714 0
M  V30 1814 C 179.516 2.26648 -1.59769 0
M  V30 1815 H 182.467 0.970226 -1.25588 0
M  V30 1816 H 182.488 3.67709 -0.978267 0
M  V30 1817 H 182 2.86856 -2.6141 0
M  V30 1818 H 180.101 3.71408 -0.297838 0
M  V30 1819 H 180.214 4.314 -2.08401 0
M  V30 1820 H 178.578 2.33385 -1.01998 0
M  V30 1821 H 179.361 2.14467 -2.68065 0
M  V30 1822 N 181.806 0.884767 1.30421 0
M  V30 1823 C 183.217 0.553656 1.78302 0
M  V30 1824 C 183.568 -0.930153 1.7275 0
M  V30 1825 O 182.693 -1.72681 1.30423 0
M  V30 1826 C 183.288 0.998234 3.2376 0
M  V30 1827 C 181.847 0.71854 3.69478 0
M  V30 1828 C 180.994 1.18132 2.50879 0
M  V30 1829 H 183.945 1.06901 1.17294 0
M  V30 1830 H 183.966 0.327118 3.79091 0
M  V30 1831 H 183.478 2.0782 3.27769 0
M  V30 1832 H 181.579 -0.349444 3.70958 0
M  V30 1833 H 181.692 1.30595 4.60958 0
M  V30 1834 H 180.056 0.600669 2.47516 0
M  V30 1835 H 180.839 2.26902 2.57624 0
M  V30 1836 N 183.284 -1.43765 0.645699 0
M  V30 1837 C 184.695 -1.85193 0.236719 0
M  V30 1838 C 185.046 -1.54045 -1.21509 0
M  V30 1839 O 184.171 -0.985694 -1.92647 0
M  V30 1840 C 184.766 -3.36151 0.422845 0
M  V30 1841 C 183.325 -3.76338 0.0682492 0
M  V30 1842 C 182.472 -2.67538 0.729306 0
M  V30 1843 H 185.423 -1.34025 0.849883 0
M  V30 1844 H 185.444 -3.79032 -0.333904 0
M  V30 1845 H 184.956 -3.5879 1.47958 0
M  V30 1846 H 183.057 -3.59312 -0.986179 0
M  V30 1847 H 183.17 -4.76603 0.488469 0
M  V30 1848 H 181.534 -2.54176 0.163235 0
M  V30 1849 H 182.317 -2.93006 1.78892 0
M  V30 1850 N 184.763 -0.387143 -1.52771 0
M  V30 1851 C 185.988 0.198407 -2.06449 0
M  V30 1852 C 186.413 1.39918 -1.25716 0
M  V30 1853 O 185.771 1.79099 -0.281657 0
M  V30 1854 C 185.819 0.548893 -3.56398 0
M  V30 1855 O 184.923 1.64315 -3.78252 0
M  V30 1856 H 184.264 0.0237731 -0.663574 0
M  V30 1857 H 186.794 -0.553989 -1.96957 0
M  V30 1858 H 186.804 0.813812 -3.99801 0
M  V30 1859 H 185.479 -0.329005 -4.14597 0
M  V30 1860 H 184.056 1.37211 -3.46738 0
M  V30 1861 N 186.241 1.57166 -0.116904 0
M  V30 1862 C 187.652 1.82169 0.408809 0
M  V30 1863 C 188.003 1.03393 1.66746 0
M  V30 1864 O 187.128 0.269886 2.1471 0
M  V30 1865 C 187.723 3.30429 0.748466 0
M  V30 1866 C 186.282 3.5612 1.21882 0
M  V30 1867 C 185.429 2.76374 0.226452 0
M  V30 1868 H 188.38 1.5497 -0.342063 0
M  V30 1869 H 188.401 3.44943 1.60607 0
M  V30 1870 H 187.913 3.87737 -0.167784 0
M  V30 1871 H 186.014 3.04168 2.15204 0
M  V30 1872 H 186.127 4.64705 1.16559 0
M  V30 1873 H 184.491 2.44515 0.713063 0
M  V30 1874 H 185.274 3.3644 -0.682859 0
M  V30 1875 N 187.719 -0.156864 1.56817 0
M  V30 1876 C 189.13 -0.717916 1.72345 0
M  V30 1877 C 189.481 -1.82124 0.729747 0
M  V30 1878 O 188.606 -2.16141 -0.105781 0
M  V30 1879 C 189.201 -1.30904 3.12489 0
M  V30 1880 C 187.76 -1.81676 3.29653 0
M  V30 1881 C 186.907 -0.701349 2.68284 0
M  V30 1882 H 189.858 0.0686989 1.58551 0
M  V30 1883 H 189.879 -2.17882 3.11942 0
M  V30 1884 H 189.391 -0.505796 3.8479 0
M  V30 1885 H 187.492 -2.64598 2.62333 0
M  V30 1886 H 187.605 -1.95226 4.3752 0
M  V30 1887 H 185.969 -1.12548 2.28484 0
M  V30 1888 H 186.752 0.0902846 3.43181 0
M  V30 1889 N 189.197 -1.51736 -0.425897 0
M  V30 1890 C 190.608 -1.5732 -1.00536 0
M  V30 1891 C 190.959 -0.403537 -1.92005 0
M  V30 1892 O 190.084 0.478256 -2.11049 0
M  V30 1893 C 190.679 -2.85119 -1.8301 0
M  V30 1894 C 189.238 -2.93236 -2.35987 0
M  V30 1895 C 188.385 -2.52098 -1.15508 0
M  V30 1896 H 191.336 -1.57348 -0.206739 0
M  V30 1897 H 191.357 -2.69526 -2.68581 0
M  V30 1898 H 190.869 -3.7023 -1.16411 0
M  V30 1899 H 188.97 -2.12581 -3.06007 0
M  V30 1900 H 189.083 -3.9713 -2.68001 0
M  V30 1901 H 187.447 -2.05558 -1.50393 0
M  V30 1902 H 188.23 -3.39565 -0.505014 0
M  V30 1903 N 190.675 0.682077 -1.42076 0
M  V30 1904 C 191.605 1.80796 -1.47767 0
M  V30 1905 C 192.586 1.6677 -0.334954 0
M  V30 1906 O 193.771 1.863 -0.548264 0
M  V30 1907 C 190.901 3.19038 -1.37229 0
M  V30 1908 C 189.855 3.47789 -2.49453 0
M  V30 1909 C 189.181 4.8553 -2.23975 0
M  V30 1910 C 190.481 3.45411 -3.91776 0
M  V30 1911 H 192.175 1.7629 -2.41997 0
M  V30 1912 H 189.721 0.846721 -1.16476 0
M  V30 1913 H 191.674 3.97528 -1.39821 0
M  V30 1914 H 190.398 3.24204 -0.394907 0
M  V30 1915 H 189.057 2.71657 -2.46166 0
M  V30 1916 H 188.705 4.87337 -1.24547 0
M  V30 1917 H 188.405 5.0573 -2.99184 0
M  V30 1918 H 189.929 5.66312 -2.28304 0
M  V30 1919 H 191.343 4.13882 -3.96705 0
M  V30 1920 H 189.74 3.77145 -4.66778 0
M  V30 1921 H 190.81 2.44122 -4.18966 0
M  V30 1922 N 192.153 1.28127 0.917671 0
M  V30 1923 C 193.564 1.13622 1.48145 0
M  V30 1924 C 193.915 -0.275207 1.9426 0
M  V30 1925 O 193.04 -1.1691 1.82102 0
M  V30 1926 C 193.635 2.05648 2.69248 0
M  V30 1927 C 192.194 1.95219 3.21818 0
M  V30 1928 C 191.341 1.97618 1.94532 0
M  V30 1929 H 194.292 1.40874 0.730772 0
M  V30 1930 H 194.313 1.61818 3.44377 0
M  V30 1931 H 193.825 3.08365 2.35653 0
M  V30 1932 H 191.926 0.955244 3.60147 0
M  V30 1933 H 192.039 2.81976 3.87333 0
M  V30 1934 H 190.403 1.41973 2.11461 0
M  V30 1935 H 191.186 3.02007 1.63238 0
M  V30 1936 N 193.631 -1.12557 1.10312 0
M  V30 1937 C 195.042 -1.65574 0.862678 0
M  V30 1938 C 195.393 -1.86566 -0.607256 0
M  V30 1939 O 194.518 -1.59121 -1.46662 0
M  V30 1940 C 195.113 -3.00776 1.55947 0
M  V30 1941 C 193.672 -3.50748 1.36576 0
M  V30 1942 C 192.819 -2.25797 1.60968 0
M  V30 1943 H 195.77 -0.963552 1.26101 0
M  V30 1944 H 195.791 -3.67185 0.997753 0
M  V30 1945 H 195.303 -2.85465 2.62928 0
M  V30 1946 H 193.404 -3.71245 0.317531 0
M  V30 1947 H 193.517 -4.30289 2.10686 0
M  V30 1948 H 191.881 -2.32841 1.03234 0
M  V30 1949 H 192.664 -2.13043 2.69198 0
M  V30 1950 N 195.109 -0.891671 -1.2995 0
M  V30 1951 C 196.52 -0.563104 -1.78006 0
M  V30 1952 C 196.871 0.920978 -1.73241 0
M  V30 1953 O 195.996 1.71987 -1.31337 0
M  V30 1954 C 196.591 -1.01539 -3.23226 0
M  V30 1955 C 195.15 -0.738124 -3.69092 0
M  V30 1956 C 194.297 -1.19461 -2.50249 0
M  V30 1957 H 197.248 -1.07522 -1.16725 0
M  V30 1958 H 197.269 -0.347217 -3.78912 0
M  V30 1959 H 196.781 -2.09555 -3.26662 0
M  V30 1960 H 194.882 0.329766 -3.71138 0
M  V30 1961 H 194.995 -1.33037 -4.60259 0
M  V30 1962 H 193.359 -0.613787 -2.47194 0
M  V30 1963 H 194.142 -2.28265 -2.56417 0
M  V30 1964 N 196.587 1.43421 -0.653314 0
M  V30 1965 C 197.998 1.85065 -0.246537 0
M  V30 1966 C 198.349 1.54688 1.2069 0
M  V30 1967 O 197.474 0.995896 1.92122 0
M  V30 1968 C 198.069 3.35922 -0.440666 0
M  V30 1969 C 196.628 3.76297 -0.0882064 0
M  V30 1970 C 195.775 2.67147 -0.743484 0
M  V30 1971 H 198.726 1.33572 -0.856979 0
M  V30 1972 H 198.747 3.79204 0.313798 0
M  V30 1973 H 198.259 3.58 -1.49858 0
M  V30 1974 H 196.36 3.5983 0.96711 0
M  V30 1975 H 196.473 4.76338 -0.513738 0
M  V30 1976 H 194.837 2.54086 -0.176712 0
M  V30 1977 H 195.62 2.92053 -1.80443 0
M  V30 1978 N 198.065 0.39524 1.52563 0
M  V30 1979 C 198.995 -0.428384 2.29537 0
M  V30 1980 C 199.976 -1.05831 1.33169 0
M  V30 1981 O 201.161 -1.06995 1.62067 0
M  V30 1982 C 198.291 -1.55274 3.10656 0
M  V30 1983 C 197.245 -1.04855 4.14957 0
M  V30 1984 C 196.571 -2.26543 4.84337 0
M  V30 1985 C 197.871 -0.112324 5.22179 0
M  V30 1986 H 199.565 0.213867 2.98635 0
M  V30 1987 H 197.111 0.104298 1.43622 0
M  V30 1988 H 199.064 -2.1358 3.63265 0
M  V30 1989 H 197.788 -2.22266 2.39302 0
M  V30 1990 H 196.447 -0.487985 3.63338 0
M  V30 1991 H 196.095 -2.92059 4.09525 0
M  V30 1992 H 195.795 -1.93466 5.54837 0
M  V30 1993 H 197.319 -2.85481 5.39753 0
M  V30 1994 H 198.733 -0.603752 5.70112 0
M  V30 1995 H 197.13 0.128968 5.99961 0
M  V30 1996 H 198.2 0.837052 4.77621 0
M  V30 1997 N 199.544 -1.57102 0.125237 0
M  V30 1998 C 200.955 -1.82384 -0.399142 0
M  V30 1999 C 201.306 -1.04276 -1.66195 0
M  V30 2000 O 200.431 -0.281269 -2.14564 0
M  V30 2001 C 201.026 -3.30821 -0.730932 0
M  V30 2002 C 199.585 -3.56762 -1.19992 0
M  V30 2003 C 198.732 -2.7649 -0.211792 0
M  V30 2004 H 201.683 -1.54786 0.350277 0
M  V30 2005 H 201.704 -3.4579 -1.58775 0
M  V30 2006 H 201.216 -3.87643 0.188345 0
M  V30 2007 H 199.317 -3.05305 -2.13588 0
M  V30 2008 H 199.43 -4.65317 -1.14093 0
M  V30 2009 H 197.794 -2.4489 -0.700085 0
M  V30 2010 H 198.577 -3.36073 0.700691 0
M  V30 2011 N 201.022 0.148545 -1.56898 0
M  V30 2012 C 202.433 0.708766 -1.72723 0
M  V30 2013 C 202.784 1.81734 -0.739395 0
M  V30 2014 O 201.909 2.16194 0.0943169 0
M  V30 2015 C 202.504 1.29245 -3.13179 0
M  V30 2016 C 201.063 1.79925 -3.30611 0
M  V30 2017 C 200.21 0.687111 -2.68652 0
M  V30 2018 H 203.161 -0.0771063 -1.58513 0
M  V30 2019 H 203.182 2.16224 -3.13093 0
M  V30 2020 H 202.694 0.485382 -3.85053 0
M  V30 2021 H 200.795 2.63203 -2.63732 0
M  V30 2022 H 200.908 1.92903 -4.38549 0
M  V30 2023 H 199.272 1.11335 -2.29078 0
M  V30 2024 H 200.055 -0.108483 -3.43129 0
M  V30 2025 N 202.5 1.5196 0.417844 0
M  V30 2026 C 203.463 1.74065 1.49111 0
M  V30 2027 C 204.463 0.610537 1.48758 0
M  V30 2028 O 205.653 0.87832 1.50437 0
M  V30 2029 C 202.785 1.81502 2.88565 0
M  V30 2030 H 203.978 2.69869 1.30807 0
M  V30 2031 H 201.531 1.42244 0.647785 0
M  V30 2032 H 202.266 0.875813 3.1225 0
M  V30 2033 H 202.051 2.63651 2.90225 0
M  V30 2034 H 203.541 2.00376 3.66387 0
M  V30 2035 N 203.978 -0.674533 1.42435 0
M  V30 2036 C 205.389 -1.25514 1.38214 0
M  V30 2037 C 205.74 -1.96055 0.0755464 0
M  V30 2038 O 204.865 -2.00028 -0.8257 0
M  V30 2039 C 205.46 -2.28269 2.50357 0
M  V30 2040 C 204.019 -2.81856 2.49467 0
M  V30 2041 C 203.166 -1.56182 2.29134 0
M  V30 2042 H 206.117 -0.467902 1.51646 0
M  V30 2043 H 206.138 -3.10009 2.20624 0
M  V30 2044 H 205.65 -1.769 3.45439 0
M  V30 2045 H 203.751 -3.37346 1.58204 0
M  V30 2046 H 203.864 -3.30854 3.46515 0
M  V30 2047 H 202.228 -1.82761 1.774 0
M  V30 2048 H 203.011 -1.06778 3.26272 0
M  V30 2049 N 205.456 -1.28612 -0.910864 0
M  V30 2050 C 206.681 -1.1891 -1.69927 0
M  V30 2051 C 207.106 0.248372 -1.86453 0
M  V30 2052 O 206.464 1.17961 -1.37676 0
M  V30 2053 C 206.512 -1.89578 -3.06745 0
M  V30 2054 O 205.616 -1.20521 -3.94396 0
M  V30 2055 H 204.957 -0.412632 -0.520222 0
M  V30 2056 H 207.487 -1.69985 -1.1387 0
M  V30 2057 H 207.497 -1.97597 -3.56958 0
M  V30 2058 H 206.172 -2.94136 -2.94035 0
M  V30 2059 H 204.749 -1.20684 -3.52831 0
M  V30 2060 N 206.934 1.1197 -1.10907 0
M  V30 2061 C 207.864 2.19928 -0.784473 0
M  V30 2062 C 208.845 1.6833 0.244726 0
M  V30 2063 O 210.03 1.93892 0.109418 0
M  V30 2064 C 207.16 3.46597 -0.220827 0
M  V30 2065 C 206.114 4.11376 -1.18127 0
M  V30 2066 C 205.44 5.32554 -0.478594 0
M  V30 2067 C 206.74 4.56945 -2.52979 0
M  V30 2068 H 208.434 2.47337 -1.68715 0
M  V30 2069 H 205.98 1.18879 -0.812642 0
M  V30 2070 H 207.933 4.21396 0.0184278 0
M  V30 2071 H 206.657 3.1863 0.717113 0
M  V30 2072 H 205.316 3.38564 -1.40606 0
M  V30 2073 H 204.964 5.00856 0.463976 0
M  V30 2074 H 204.664 5.76844 -1.11912 0
M  V30 2075 H 206.188 6.10096 -0.248 0
M  V30 2076 H 207.602 5.23093 -2.3462 0
M  V30 2077 H 205.999 5.1203 -3.12962 0
M  V30 2078 H 207.069 3.70676 -3.12614 0
M  V30 2079 N 208.412 0.89855 1.29475 0
M  V30 2080 C 209.823 0.572537 1.77705 0
M  V30 2081 C 210.174 -0.911778 1.73727 0
M  V30 2082 O 209.299 -1.71288 1.32247 0
M  V30 2083 C 209.894 1.03252 3.22683 0
M  V30 2084 C 208.453 0.757687 3.68695 0
M  V30 2085 C 207.6 1.20787 2.49612 0
M  V30 2086 H 210.551 1.08139 1.16153 0
M  V30 2087 H 210.572 0.367307 3.78723 0
M  V30 2088 H 210.084 2.11285 3.25546 0
M  V30 2089 H 208.185 -0.310079 3.71308 0
M  V30 2090 H 208.298 1.35476 4.59547 0
M  V30 2091 H 206.662 0.626888 2.46865 0
M  V30 2092 H 207.445 2.29622 2.55203 0
M  V30 2093 N 209.89 -1.43072 0.660911 0
M  V30 2094 C 210.82 -2.33497 -0.0122829 0
M  V30 2095 C 211.801 -1.49903 -0.803925 0
M  V30 2096 O 212.986 -1.78546 -0.763864 0
M  V30 2097 C 210.116 -3.33363 -0.973994 0
M  V30 2098 C 209.07 -4.27003 -0.291928 0
M  V30 2099 C 208.396 -5.16967 -1.36562 0
M  V30 2100 C 209.696 -5.15816 0.820462 0
M  V30 2101 H 211.39 -2.90038 0.742873 0
M  V30 2102 H 208.936 -1.39461 0.358688 0
M  V30 2103 H 210.889 -3.95524 -1.45392 0
M  V30 2104 H 209.613 -2.75095 -1.7604 0
M  V30 2105 H 208.272 -3.66217 0.167623 0
M  V30 2106 H 207.92 -4.55034 -2.14366 0
M  V30 2107 H 207.62 -5.80441 -0.914454 0
M  V30 2108 H 209.144 -5.82003 -1.84675 0
M  V30 2109 H 210.558 -5.71742 0.422366 0
M  V30 2110 H 208.955 -5.8805 1.19656 0
M  V30 2111 H 210.025 -4.55045 1.67518 0
M  V30 2112 N 211.368 -0.403325 -1.52352 0
M  V30 2113 C 212.593 0.176499 -2.06648 0
M  V30 2114 C 213.018 1.38577 -1.27193 0
M  V30 2115 O 212.376 1.7879 -0.300637 0
M  V30 2116 C 212.424 0.511061 -3.5696 0
M  V30 2117 O 211.528 1.60294 -3.79973 0
M  V30 2118 H 210.869 0.0167337 -0.663789 0
M  V30 2119 H 213.399 -0.574848 -1.96359 0
M  V30 2120 H 213.409 0.771362 -4.00642 0
M  V30 2121 H 212.084 -0.37296 -4.14224 0
M  V30 2122 H 210.661 1.33526 -3.48174 0
M  V30 2123 N 212.846 1.57033 -0.133567 0
M  V30 2124 C 213.776 2.1909 0.807567 0
M  V30 2125 C 214.757 1.13517 1.26681 0
M  V30 2126 O 215.942 1.41809 1.32679 0
M  V30 2127 C 213.072 2.80188 2.05212 0
M  V30 2128 C 212.026 3.91471 1.73015 0
M  V30 2129 C 211.352 4.39443 3.04622 0
M  V30 2130 C 212.652 5.12886 0.987168 0
M  V30 2131 H 214.346 2.97988 0.290403 0
M  V30 2132 H 211.892 1.43335 0.138239 0
M  V30 2133 H 213.845 3.22264 2.71521 0
M  V30 2134 H 212.569 1.98601 2.59278 0
M  V30 2135 H 211.228 3.49993 1.0909 0
M  V30 2136 H 210.876 3.54695 3.56651 0
M  V30 2137 H 210.576 5.14495 2.83847 0
M  V30 2138 H 212.1 4.8418 3.72024 0
M  V30 2139 H 213.514 5.51891 1.55208 0
M  V30 2140 H 211.911 5.93615 0.87985 0
M  V30 2141 H 212.981 4.84894 -0.0235286 0
M  V30 2142 N 214.325 -0.140222 1.56975 0
M  V30 2143 C 215.736 -0.699596 1.73097 0
M  V30 2144 C 216.087 -1.8134 0.749022 0
M  V30 2145 O 215.212 -2.16241 -0.0828503 0
M  V30 2146 C 215.807 -1.27582 3.1386 0
M  V30 2147 C 214.366 -1.78169 3.31561 0
M  V30 2148 C 213.513 -0.672855 2.69013 0
M  V30 2149 H 216.464 0.0855115 1.58469 0
M  V30 2150 H 216.485 -2.14561 3.14235 0
M  V30 2151 H 215.997 -0.464955 3.85305 0
M  V30 2152 H 214.098 -2.61801 2.65124 0
M  V30 2153 H 214.211 -1.90574 4.39566 0
M  V30 2154 H 212.575 -1.10118 2.29665 0
M  V30 2155 H 213.358 0.126679 3.43066 0
M  V30 2156 N 215.803 -1.52179 -0.40978 0
M  V30 2157 C 217.028 -1.70347 -1.18308 0
M  V30 2158 C 217.453 -0.411887 -1.83535 0
M  V30 2159 O 216.811 0.630587 -1.6998 0
M  V30 2160 C 216.859 -2.83977 -2.22238 0
M  V30 2161 O 215.963 -2.495 -3.28365 0
M  V30 2162 H 215.304 -0.567103 -0.345384 0
M  V30 2163 H 217.834 -1.98879 -0.480445 0
M  V30 2164 H 217.844 -3.0887 -2.66577 0
M  V30 2165 H 216.519 -3.77685 -1.74146 0
M  V30 2166 H 215.096 -2.35277 -2.89308 0
M  V30 2167 N 217.281 0.66697 -1.42791 0
M  V30 2168 C 218.528 1.42699 -1.43678 0
M  V30 2169 C 218.856 1.94419 -0.0560425 0
M  V30 2170 O 218.111 1.7182 0.936831 0
M  V30 2171 C 218.41 2.6349 -2.4147 0
M  V30 2172 C 218.076 2.30267 -3.8767 0
M  V30 2173 C 216.738 2.20918 -4.27491 0
M  V30 2174 C 219.09 2.03435 -4.79858 0
M  V30 2175 C 216.418 1.82873 -5.57471 0
M  V30 2176 C 218.77 1.66892 -6.10188 0
M  V30 2177 C 217.434 1.56058 -6.49001 0
M  V30 2178 H 216.704 0.522171 -0.525755 0
M  V30 2179 H 219.351 0.759785 -1.75783 0
M  V30 2180 H 217.656 3.35279 -2.0272 0
M  V30 2181 H 219.353 3.21684 -2.39417 0
M  V30 2182 H 215.943 2.38449 -3.56146 0
M  V30 2183 H 220.127 2.09586 -4.49875 0
M  V30 2184 H 215.383 1.7306 -5.86396 0
M  V30 2185 H 219.557 1.45157 -6.81104 0
M  V30 2186 H 217.184 1.26348 -7.49627 0
M  V30 2187 N 218.759 1.29093 0.90403 0
M  V30 2188 C 220.036 1.075 1.63411 0
M  V30 2189 C 220.416 -0.382346 2.07609 0
M  V30 2190 O 219.764 -1.37031 1.82851 0
M  V30 2191 C 219.974 2.05858 2.81822 0
M  V30 2192 C 221.322 2.36539 3.52611 0
M  V30 2193 O 222.346 2.04019 2.91984 0
M  V30 2194 O 221.205 2.92085 4.61897 0
M  V30 2195 H 218.299 0.411547 0.717327 0
M  V30 2196 H 220.845 1.40449 0.952479 0
M  V30 2197 H 219.617 3.04037 2.46327 0
M  V30 2198 H 219.24 1.73613 3.57693 0
M  V30 2199 N 220.237 -1.11381 1.11499 0
M  V30 2200 C 221.167 -2.19509 0.796125 0
M  V30 2201 C 222.148 -1.68458 -0.235796 0
M  V30 2202 O 223.333 -1.93947 -0.0991344 0
M  V30 2203 C 220.463 -3.46475 0.239205 0
M  V30 2204 C 219.417 -4.10744 1.20307 0
M  V30 2205 C 218.743 -5.32293 0.50683 0
M  V30 2206 C 220.043 -4.55597 2.55399 0
M  V30 2207 H 221.737 -2.46439 1.70024 0
M  V30 2208 H 219.283 -1.18446 0.818935 0
M  V30 2209 H 221.236 -4.214 0.00392006 0
M  V30 2210 H 219.96 -3.19006 -0.700206 0
M  V30 2211 H 218.619 -3.37813 1.42399 0
M  V30 2212 H 218.267 -5.01095 -0.437408 0
M  V30 2213 H 217.967 -5.76243 1.1497 0
M  V30 2214 H 219.491 -6.09956 0.280351 0
M  V30 2215 H 220.905 -5.21841 2.37391 0
M  V30 2216 H 219.302 -5.10363 3.15673 0
M  V30 2217 H 220.372 -3.69013 3.14575 0
M  V30 2218 N 221.715 -0.905404 -1.28997 0
M  V30 2219 C 223.126 -0.581953 -1.77398 0
M  V30 2220 C 223.477 0.902552 -1.74208 0
M  V30 2221 O 222.602 1.70584 -1.33154 0
M  V30 2222 C 223.197 -1.04961 -3.22131 0
M  V30 2223 C 221.756 -0.777229 -3.68288 0
M  V30 2224 C 220.903 -1.22109 -2.48967 0
M  V30 2225 H 223.854 -1.08754 -1.15578 0
M  V30 2226 H 223.875 -0.387387 -3.78523 0
M  V30 2227 H 223.387 -2.13008 -3.24421 0
M  V30 2228 H 221.488 0.290383 -3.71467 0
M  V30 2229 H 221.601 -1.37911 -4.58822 0
M  V30 2230 H 219.965 -0.639971 -2.46529 0
M  V30 2231 H 220.748 -2.30972 -2.53982 0
M  V30 2232 N 223.193 1.4272 -0.668489 0
M  V30 2233 C 224.125 2.2914 0.052613 0
M  V30 2234 C 225.138 1.43339 0.771857 0
M  V30 2235 O 226.327 1.67123 0.627067 0
M  V30 2236 C 223.427 3.20618 1.09804 0
M  V30 2237 C 222.6 4.35039 0.45389 0
M  V30 2238 C 221.659 5.07282 1.39825 0
M  V30 2239 O 220.685 5.62024 0.900978 0
M  V30 2240 N 221.887 5.12206 2.73176 0
M  V30 2241 H 224.652 2.91668 -0.689209 0
M  V30 2242 H 222.213 1.53577 -0.512422 0
M  V30 2243 H 224.205 3.65815 1.73094 0
M  V30 2244 H 222.775 2.59585 1.74167 0
M  V30 2245 H 221.995 3.92567 -0.358396 0
M  V30 2246 H 223.283 5.088 0.00486972 0
M  V30 2247 H 222.681 4.6913 3.16122 0
M  V30 2248 H 221.238 5.61069 3.31729 0
M  V30 2249 N 224.671 0.411399 1.52136 0
M  V30 2250 C 226.082 -0.0576826 1.86611 0
M  V30 2251 C 226.433 -1.44238 1.33003 0
M  V30 2252 O 225.558 -2.05759 0.670228 0
M  V30 2253 C 226.153 -0.111448 3.38617 0
M  V30 2254 C 224.712 -0.52487 3.72723 0
M  V30 2255 C 223.859 0.299176 2.75681 0
M  V30 2256 H 226.81 0.628368 1.4573 0
M  V30 2257 H 226.831 -0.926252 3.69054 0
M  V30 2258 H 226.343 0.896488 3.77604 0
M  V30 2259 H 224.444 -1.53936 3.39315 0
M  V30 2260 H 224.557 -0.267681 4.78352 0
M  V30 2261 H 222.921 -0.238814 2.53578 0
M  V30 2262 H 223.704 1.3055 3.17508 0
M  V30 2263 N 226.149 -1.5696 0.141893 0
M  V30 2264 C 227.56 -1.82797 -0.379776 0
M  V30 2265 C 227.911 -1.06033 -1.6508 0
M  V30 2266 O 227.036 -0.304011 -2.14254 0
M  V30 2267 C 227.631 -3.31578 -0.695802 0
M  V30 2268 C 226.19 -3.58014 -1.16201 0
M  V30 2269 C 225.337 -2.76699 -0.182455 0
M  V30 2270 H 228.288 -1.54406 0.366675 0
M  V30 2271 H 228.309 -3.47454 -1.55099 0
M  V30 2272 H 227.821 -3.87421 0.229449 0
M  V30 2273 H 225.922 -3.07553 -2.10338 0
M  V30 2274 H 226.035 -4.66501 -1.09151 0
M  V30 2275 H 224.399 -2.45618 -0.674072 0
M  V30 2276 H 225.182 -3.35311 0.736297 0
M  V30 2277 N 227.627 0.131896 -1.57047 0
M  V30 2278 C 228.873 0.843179 -1.84441 0
M  V30 2279 C 229.206 1.80129 -0.725749 0
M  V30 2280 O 228.481 1.92624 0.269469 0
M  V30 2281 C 228.764 1.60442 -3.22382 0
M  V30 2282 C 228.617 0.666782 -4.4483 0
M  V30 2283 C 229.936 2.56354 -3.5773 0
M  V30 2284 H 227.055 0.305081 -0.670891 0
M  V30 2285 H 229.697 0.107839 -1.89694 0
M  V30 2286 H 227.847 2.23128 -3.18035 0
M  V30 2287 H 229.519 0.0497646 -4.61273 0
M  V30 2288 H 227.762 -0.022609 -4.33794 0
M  V30 2289 H 228.433 1.23579 -5.37989 0
M  V30 2290 H 230.909 2.0378 -3.62785 0
M  V30 2291 H 229.785 3.06657 -4.5525 0
M  V30 2292 H 230.046 3.38419 -2.84473 0
M  V30 2293 N 229.106 1.52395 0.401703 0
M  V30 2294 C 230.036 1.79231 1.49661 0
M  V30 2295 C 231.017 0.643654 1.57452 0
M  V30 2296 O 232.202 0.889989 1.72606 0
M  V30 2297 C 229.332 1.94971 2.87409 0
M  V30 2298 C 228.286 3.10604 2.94465 0
M  V30 2299 C 227.612 3.11577 4.34538 0
M  V30 2300 C 228.912 4.49921 2.6527 0
M  V30 2301 H 230.606 2.70917 1.27454 0
M  V30 2302 H 228.152 1.30362 0.6117 0
M  V30 2303 H 230.105 2.12328 3.63999 0
M  V30 2304 H 228.829 0.999632 3.10926 0
M  V30 2305 H 227.488 2.93009 2.20321 0
M  V30 2306 H 227.136 2.14277 4.55076 0
M  V30 2307 H 226.836 3.89247 4.40183 0
M  V30 2308 H 228.36 3.31073 5.13053 0
M  V30 2309 H 229.774 4.67683 3.31581 0
M  V30 2310 H 228.171 5.29564 2.82281 0
M  V30 2311 H 229.241 4.57507 1.60671 0
M  V30 2312 N 230.584 -0.659388 1.43143 0
M  V30 2313 C 231.861 -1.41627 1.34912 0
M  V30 2314 C 232.241 -2.11099 -0.00607785 0
M  V30 2315 O 231.589 -2.04353 -1.02236 0
M  V30 2316 C 231.799 -2.40604 2.52805 0
M  V30 2317 C 233.147 -3.04789 2.95616 0
M  V30 2318 O 234.171 -2.50932 2.52807 0
M  V30 2319 O 233.03 -4.02421 3.69756 0
M  V30 2320 H 230.124 -0.63246 0.532844 0
M  V30 2321 H 232.67 -0.686814 1.5518 0
M  V30 2322 H 231.442 -1.88174 3.43083 0
M  V30 2323 H 231.065 -3.21009 2.34604 0
M  V30 2324 N 232.062 -1.29571 -0.897171 0
M  V30 2325 C 233.29 -1.20583 -1.68129 0
M  V30 2326 C 233.705 0.233181 -1.87354 0
M  V30 2327 O 233.062 1.15579 -1.41236 0
M  V30 2328 C 233.113 -1.91772 -3.06441 0
M  V30 2329 O 232.834 -3.30053 -2.88091 0
M  V30 2330 C 234.335 -1.89291 -4.00854 0
M  V30 2331 H 231.555 -0.417826 -0.525036 0
M  V30 2332 H 234.099 -1.70987 -1.12177 0
M  V30 2333 H 232.254 -1.45196 -3.59161 0
M  V30 2334 H 232.668 -3.65942 -3.75748 0
M  V30 2335 H 234.142 -2.43662 -4.95311 0
M  V30 2336 H 234.619 -0.869014 -4.30517 0
M  V30 2337 H 235.225 -2.35622 -3.54066 0
M  V30 2338 N 233.54 1.10788 -1.12088 0
M  V30 2339 C 234.47 2.19083 -0.807755 0
M  V30 2340 C 235.451 1.6858 0.226859 0
M  V30 2341 O 236.636 1.93997 0.0888475 0
M  V30 2342 C 233.766 3.46344 -0.257576 0
M  V30 2343 C 232.72 4.101 -1.22483 0
M  V30 2344 C 232.046 5.32016 -0.535052 0
M  V30 2345 C 233.346 4.54236 -2.57811 0
M  V30 2346 H 235.04 2.45534 -1.71328 0
M  V30 2347 H 232.586 1.1801 -0.825205 0
M  V30 2348 H 234.539 4.21392 -0.0262679 0
M  V30 2349 H 233.263 3.19373 0.683278 0
M  V30 2350 H 231.922 3.37054 -1.44189 0
M  V30 2351 H 231.57 5.01319 0.410827 0
M  V30 2352 H 231.27 5.75625 -1.18024 0
M  V30 2353 H 232.794 6.09799 -0.312695 0
M  V30 2354 H 234.208 5.20575 -2.40155 0
M  V30 2355 H 232.605 5.08682 -3.18375 0
M  V30 2356 H 233.675 3.6734 -3.16528 0
M  V30 2357 N 235.018 0.912232 1.28515 0
M  V30 2358 C 236.295 0.463597 1.90027 0
M  V30 2359 C 236.675 -1.05753 1.82701 0
M  V30 2360 O 236.023 -1.90492 1.26194 0
M  V30 2361 C 236.233 0.992253 3.34597 0
M  V30 2362 C 237.581 1.04344 4.11579 0
M  V30 2363 O 238.605 0.94079 3.43551 0
M  V30 2364 O 237.464 1.1995 5.33174 0
M  V30 2365 H 234.558 0.146666 0.813891 0
M  V30 2366 H 237.104 1.00292 1.36893 0
M  V30 2367 H 235.876 2.03623 3.34146 0
M  V30 2368 H 235.499 0.433672 3.95228 0
M  V30 2369 N 236.496 -1.42363 0.676048 0
M  V30 2370 C 237.426 -2.33497 0.0124832 0
M  V30 2371 C 238.407 -1.50748 -0.787981 0
M  V30 2372 O 239.592 -1.79346 -0.744884 0
M  V30 2373 C 236.722 -3.34377 -0.938582 0
M  V30 2374 C 235.676 -4.27289 -0.246622 0
M  V30 2375 C 235.002 -5.18386 -1.31071 0
M  V30 2376 C 236.302 -5.14916 0.875125 0
M  V30 2377 H 237.996 -2.89233 0.773593 0
M  V30 2378 H 235.542 -1.39073 0.37346 0
M  V30 2379 H 237.495 -3.97044 -1.41188 0
M  V30 2380 H 236.219 -2.76947 -1.73113 0
M  V30 2381 H 234.878 -3.66018 0.206456 0
M  V30 2382 H 234.526 -4.57282 -2.09528 0
M  V30 2383 H 234.226 -5.81378 -0.852839 0
M  V30 2384 H 235.75 -5.83929 -1.78492 0
M  V30 2385 H 237.164 -5.71262 0.482983 0
M  V30 2386 H 235.561 -5.86747 1.25887 0
M  V30 2387 H 236.631 -4.53242 1.72335 0
M  V30 2388 N 237.974 -0.419461 -1.51915 0
M  V30 2389 C 238.904 0.391813 -2.30189 0
M  V30 2390 C 239.885 1.03699 -1.34836 0
M  V30 2391 O 241.07 1.04403 -1.63748 0
M  V30 2392 C 238.2 1.50312 -3.13087 0
M  V30 2393 C 237.154 0.9824 -4.16573 0
M  V30 2394 C 236.48 2.18809 -4.8788 0
M  V30 2395 C 237.78 0.0292356 -5.22292 0
M  V30 2396 H 239.474 -0.26135 -2.98257 0
M  V30 2397 H 237.02 -0.127134 -1.43438 0
M  V30 2398 H 238.973 2.07773 -3.66617 0
M  V30 2399 H 237.697 2.18431 -2.42807 0
M  V30 2400 H 236.356 0.430119 -3.64068 0
M  V30 2401 H 236.004 2.85507 -4.14119 0
M  V30 2402 H 235.704 1.84615 -5.57845 0
M  V30 2403 H 237.228 2.76858 -5.44226 0
M  V30 2404 H 238.642 0.512976 -5.71 0
M  V30 2405 H 237.039 -0.2244 -5.9968 0
M  V30 2406 H 238.109 -0.912931 -4.76228 0
M  V30 2407 N 239.452 1.56882 -0.150215 0
M  V30 2408 C 240.415 2.1573 0.774157 0
M  V30 2409 C 241.415 1.0999 1.17298 0
M  V30 2410 O 242.605 1.35613 1.09338 0
M  V30 2411 C 239.737 2.72302 2.05096 0
M  V30 2412 H 240.93 2.98752 0.262201 0
M  V30 2413 H 238.483 1.55985 0.099248 0
M  V30 2414 H 239.218 1.92956 2.6065 0
M  V30 2415 H 239.003 3.49665 1.77416 0
M  V30 2416 H 240.493 3.17632 2.71109 0
M  V30 2417 N 240.93 -0.123565 1.57115 0
M  V30 2418 C 242.179 -0.830704 1.83799 0
M  V30 2419 C 242.492 -1.81259 0.735158 0
M  V30 2420 O 243.698 -2.56558 0.888278 0
M  V30 2421 C 242.154 -1.52802 3.25852 0
M  V30 2422 C 241.762 -0.587356 4.44133 0
M  V30 2423 C 243.506 -2.22056 3.61789 0
M  V30 2424 C 241.413 -1.28764 5.77212 0
M  V30 2425 H 240.343 -0.313967 0.685522 0
M  V30 2426 H 242.994 -0.0834359 1.8331 0
M  V30 2427 H 241.376 -2.32175 3.20797 0
M  V30 2428 H 242.55 0.172829 4.60476 0
M  V30 2429 H 240.865 -0.00201892 4.164 0
M  V30 2430 H 243.462 -2.75131 4.58483 0
M  V30 2431 H 243.805 -2.99644 2.88997 0
M  V30 2432 H 244.338 -1.49576 3.68608 0
M  V30 2433 H 241.077 -0.55314 6.53162 0
M  V30 2434 H 240.597 -2.01995 5.64764 0
M  V30 2435 H 242.276 -1.8221 6.20813 0
M  V30 2436 N 242.408 -1.52605 -0.393616 0
M  V30 2437 C 243.638 -1.71046 -1.15874 0
M  V30 2438 C 244.046 -0.426483 -1.84331 0
M  V30 2439 O 243.389 0.608513 -1.73329 0
M  V30 2440 C 243.451 -2.80118 -2.25332 0
M  V30 2441 C 243.115 -4.21381 -1.76881 0
M  V30 2442 C 244.112 -5.04697 -1.24808 0
M  V30 2443 C 241.797 -4.67683 -1.83244 0
M  V30 2444 C 243.791 -6.32393 -0.797387 0
M  V30 2445 C 241.478 -5.95364 -1.37787 0
M  V30 2446 C 242.476 -6.77549 -0.861208 0
M  V30 2447 O 242.164 -8.02837 -0.413252 0
M  V30 2448 H 241.896 -0.576155 -0.353583 0
M  V30 2449 H 244.45 -2.00018 -0.467123 0
M  V30 2450 H 242.68 -2.46557 -2.97904 0
M  V30 2451 H 244.369 -2.87006 -2.87023 0
M  V30 2452 H 245.135 -4.70111 -1.19252 0
M  V30 2453 H 241.014 -4.03805 -2.22401 0
M  V30 2454 H 244.558 -6.9649 -0.393437 0
M  V30 2455 H 240.455 -6.29455 -1.43026 0
M  V30 2456 H 241.223 -8.16749 -0.53515 0
M  V30 2457 N 243.887 0.651787 -1.4349 0
M  V30 2458 C 245.127 1.42345 -1.46688 0
M  V30 2459 C 245.491 1.91793 -0.0891023 0
M  V30 2460 O 246.692 2.688 0.00423594 0
M  V30 2461 C 244.963 2.57221 -2.48137 0
M  V30 2462 S 246.522 3.45725 -2.70221 0
M  V30 2463 H 243.34 0.485878 -0.51908 0
M  V30 2464 H 245.942 0.756578 -1.80267 0
M  V30 2465 H 244.646 2.1917 -3.46976 0
M  V30 2466 H 244.177 3.28757 -2.16061 0
M  V30 2467 H 246.192 4.53996 -2.00255 0
M  V30 2468 N 245.365 1.30045 0.890287 0
M  V30 2469 C 246.781 1.08261 1.17268 0
M  V30 2470 C 246.981 -0.160063 2.00863 0
M  V30 2471 O 246.037 -0.855181 2.37577 0
M  V30 2472 C 247.35 2.34323 1.8845 0
M  V30 2473 C 248.898 2.39735 2.01237 0
M  V30 2474 C 249.373 3.65625 2.7583 0
M  V30 2475 N 250.864 3.66402 2.83379 0
M  V30 2476 C 251.599 4.60498 3.41657 0
M  V30 2477 N 251.095 5.64933 4.01026 0
M  V30 2478 N 252.888 4.48051 3.39421 0
M  V30 2479 H 245.039 2.09777 0.332762 0
M  V30 2480 H 247.302 0.92446 0.209948 0
M  V30 2481 H 247.008 3.2498 1.34465 0
M  V30 2482 H 246.882 2.4256 2.88867 0
M  V30 2483 H 249.269 1.4956 2.54393 0
M  V30 2484 H 249.35 2.35476 0.999232 0
M  V30 2485 H 248.994 4.56156 2.23347 0
M  V30 2486 H 248.924 3.67144 3.77509 0
M  V30 2487 H 251.415 2.90896 2.41222 0
M  V30 2488 H 251.728 6.32841 4.43545 0
M  V30 2489 H 250.073 5.68732 3.99461 0
M  V30 2490 H 253.264 3.65649 2.92264 0
M  V30 2491 H 253.437 5.21565 3.84544 0
M  V30 2492 N 246.843 -1.10192 1.12674 0
M  V30 2493 C 247.791 -2.18694 0.792196 0
M  V30 2494 C 248.785 -1.67938 -0.222058 0
M  V30 2495 O 249.991 -1.79822 -0.0800074 0
M  V30 2496 H 246.366 -0.713223 0.238364 0
M  V30 2497 H 248.337 -2.44149 1.71564 0
M  V30 2498 C 247.086 -3.46682 0.265859 0
M  V30 2499 H 246.409 -3.86101 1.03761 0
M  V30 2500 H 247.849 -4.23942 0.0701128 0
M  V30 2501 C 246.308 -3.21506 -1.00675 0
M  V30 2502 O 246.838 -3.43408 -2.08408 0
M  V30 2503 N 245.044 -2.75158 -0.934692 0
M  V30 2504 H 244.591 -2.57535 -0.0578604 0
M  V30 2505 H 244.549 -2.58691 -1.7868 0
M  V30 2506 N 248.321 -0.919034 -1.28029 0
M  V30 2507 C 249.231 -0.416756 -2.30869 0
M  V30 2508 C 250.247 0.498235 -1.66714 0
M  V30 2509 O 251.423 0.383144 -1.97722 0
M  V30 2510 C 248.488 0.330274 -3.45123 0
M  V30 2511 C 247.549 -0.618578 -4.2482 0
M  V30 2512 C 246.782 0.0928959 -5.33619 0
M  V30 2513 O 247.005 1.31375 -5.55065 0
M  V30 2514 O 245.939 -0.574499 -5.99152 0
M  V30 2515 H 249.765 -1.27043 -2.75851 0
M  V30 2516 H 247.35 -0.684052 -1.3282 0
M  V30 2517 H 249.232 0.751972 -4.14636 0
M  V30 2518 H 247.907 1.1597 -3.02213 0
M  V30 2519 H 246.814 -1.08978 -3.57875 0
M  V30 2520 H 248.147 -1.41497 -4.71423 0
M  V30 2521 N 249.799 1.42003 -0.683588 0
M  V30 2522 C 250.762 2.29191 -0.0198243 0
M  V30 2523 C 251.762 1.43773 0.72013 0
M  V30 2524 O 252.952 1.65061 0.556815 0
M  V30 2525 C 250.084 3.26435 0.982487 0
M  V30 2526 H 251.277 2.8938 -0.787345 0
M  V30 2527 H 248.83 1.49789 -0.446418 0
M  V30 2528 H 249.565 2.71203 1.77819 0
M  V30 2529 H 249.35 3.89449 0.455182 0
M  V30 2530 H 250.84 3.918 1.44508 0
M  V30 2531 N 251.277 0.427512 1.51691 0
M  V30 2532 C 252.525 -0.141948 2.01601 0
M  V30 2533 C 252.846 -1.44067 1.31414 0
M  V30 2534 O 252.116 -1.90763 0.445658 0
M  V30 2535 H 250.696 -0.0554468 0.744939 0
M  V30 2536 H 253.358 0.567968 1.86441 0
M  V30 2537 H 252.454 -0.324913 3.10404 0
M  V30 2538 N 252.755 -1.56801 0.158532 0
M  V30 2539 C 253.687 -2.14488 -0.807923 0
M  V30 2540 C 254.7 -1.09721 -1.20271 0
M  V30 2541 O 255.889 -1.36956 -1.14478 0
M  V30 2542 C 252.989 -2.66217 -2.09718 0
M  V30 2543 C 252.162 -3.95507 -1.86796 0
M  V30 2544 C 251.221 -4.3243 -2.99818 0
M  V30 2545 O 250.247 -5.00543 -2.71008 0
M  V30 2546 N 251.449 -3.92947 -4.27285 0
M  V30 2547 H 254.214 -2.98042 -0.314816 0
M  V30 2548 H 251.775 -1.61881 -0.0246692 0
M  V30 2549 H 253.767 -2.87924 -2.84398 0
M  V30 2550 H 252.337 -1.87324 -2.50257 0
M  V30 2551 H 251.557 -3.82309 -0.96089 0
M  V30 2552 H 252.845 -4.79972 -1.68833 0
M  V30 2553 H 252.243 -3.38087 -4.53557 0
M  V30 2554 H 250.8 -4.19681 -4.9871 0
M  V30 2555 N 254.233 0.115231 -1.57178 0
M  V30 2556 C 255.143 1.15994 -2.03918 0
M  V30 2557 C 256.159 1.45103 -0.960268 0
M  V30 2558 O 257.335 1.56144 -1.27204 0
M  V30 2559 C 254.4 2.46568 -2.43732 0
M  V30 2560 C 253.461 2.24822 -3.65723 0
M  V30 2561 C 252.694 3.4917 -4.03629 0
M  V30 2562 O 252.917 4.56623 -3.41835 0
M  V30 2563 O 251.851 3.39949 -4.96708 0
M  V30 2564 H 255.677 0.793019 -2.93164 0
M  V30 2565 H 253.262 0.3263 -1.45793 0
M  V30 2566 H 255.144 3.23492 -2.70057 0
M  V30 2567 H 253.819 2.82726 -1.57631 0
M  V30 2568 H 252.726 1.45744 -3.44542 0
M  V30 2569 H 254.059 1.93566 -4.52541 0
M  V30 2570 N 255.711 1.52812 0.385517 0
M  V30 2571 C 256.621 1.80766 1.49535 0
M  V30 2572 C 257.637 0.694651 1.59532 0
M  V30 2573 O 258.813 0.982611 1.75803 0
M  V30 2574 C 255.878 1.97381 2.85029 0
M  V30 2575 C 254.939 3.21295 2.84724 0
M  V30 2576 C 254.172 3.37108 4.13756 0
M  V30 2577 O 254.395 2.5765 5.08893 0
M  V30 2578 O 253.329 4.30378 4.20783 0
M  V30 2579 H 257.155 2.75015 1.28842 0
M  V30 2580 H 254.74 1.37946 0.573697 0
M  V30 2581 H 256.622 2.09996 3.65349 0
M  V30 2582 H 255.297 1.06322 3.05741 0
M  V30 2583 H 254.204 3.1412 2.03174 0
M  V30 2584 H 255.537 4.12212 2.68965 0
M  V30 2585 N 257.189 -0.644168 1.43834 0
M  V30 2586 C 258.435 -1.40603 1.46146 0
M  V30 2587 C 258.768 -1.93997 0.0887717 0
M  V30 2588 O 258.043 -1.72854 -0.891724 0
M  V30 2589 C 258.326 -2.58086 2.51124 0
M  V30 2590 C 258.179 -2.10126 3.97702 0
M  V30 2591 C 259.498 -3.60291 2.52742 0
M  V30 2592 H 256.617 -0.509905 0.532134 0
M  V30 2593 H 259.259 -0.729502 1.75437 0
M  V30 2594 H 257.409 -3.15801 2.26278 0
M  V30 2595 H 259.081 -1.57342 4.33637 0
M  V30 2596 H 257.324 -1.41419 4.10101 0
M  V30 2597 H 257.995 -2.94649 4.66783 0
M  V30 2598 H 260.471 -3.12352 2.7491 0
M  V30 2599 H 259.347 -4.40032 3.28121 0
M  V30 2600 H 259.608 -4.1349 1.56455 0
M  V30 2601 N 258.668 -1.30515 -0.883378 0
M  V30 2602 C 259.916 -1.19194 -1.63209 0
M  V30 2603 C 260.237 0.253205 -1.93349 0
M  V30 2604 O 259.507 1.17025 -1.57105 0
M  V30 2605 H 258.087 -0.438148 -0.605009 0
M  V30 2606 H 260.749 -1.63663 -1.05832 0
M  V30 2607 H 259.845 -1.75396 -2.58153 0
M  V30 2608 N 260.146 1.09593 -1.13257 0
M  V30 2609 C 261.079 2.15451 -0.752061 0
M  V30 2610 C 262.057 1.60493 0.260913 0
M  V30 2611 O 263.241 1.8788 0.152819 0
M  V30 2612 C 260.368 3.38506 -0.114594 0
M  V30 2613 C 259.414 4.12183 -1.09579 0
M  V30 2614 S 260.247 4.6661 -2.62745 0
M  V30 2615 C 261.403 5.92966 -2.00354 0
M  V30 2616 H 261.636 2.47395 -1.64872 0
M  V30 2617 H 259.169 1.21515 -0.952545 0
M  V30 2618 H 261.127 4.09757 0.246808 0
M  V30 2619 H 259.788 3.04784 0.759309 0
M  V30 2620 H 258.981 5.00445 -0.597545 0
M  V30 2621 H 258.583 3.46785 -1.40057 0
M  V30 2622 H 260.875 6.63882 -1.35156 0
M  V30 2623 H 261.818 6.47467 -2.86691 0
M  V30 2624 H 262.226 5.45405 -1.4558 0
M  V30 2625 N 261.624 0.925811 1.2754 0
M  V30 2626 C 263.035 0.610102 1.7645 0
M  V30 2627 C 263.386 -0.874723 1.75622 0
M  V30 2628 O 262.511 -1.68444 1.35851 0
M  V30 2629 C 263.106 1.10073 3.20421 0
M  V30 2630 C 261.665 0.835723 3.67005 0
M  V30 2631 C 260.812 1.26054 2.46993 0
M  V30 2632 H 263.763 1.10579 1.13833 0
M  V30 2633 H 263.784 0.447557 3.77859 0
M  V30 2634 H 263.296 2.18143 3.20991 0
M  V30 2635 H 261.397 -0.231249 3.71882 0
M  V30 2636 H 261.51 1.45193 4.56569 0
M  V30 2637 H 259.874 0.679111 2.45479 0
M  V30 2638 H 260.657 2.34984 2.50275 0
M  V30 2639 N 263.102 -1.41638 0.69111 0
M  V30 2640 C 264.513 -1.84346 0.295517 0
M  V30 2641 C 264.864 -1.57833 -1.16547 0
M  V30 2642 O 263.989 -1.04648 -1.89414 0
M  V30 2643 C 264.584 -3.34636 0.529575 0
M  V30 2644 C 263.143 -3.7593 0.187944 0
M  V30 2645 C 262.29 -2.65082 0.814052 0
M  V30 2646 H 265.241 -1.31253 0.892092 0
M  V30 2647 H 265.262 -3.79903 -0.213148 0
M  V30 2648 H 264.774 -3.53901 1.59297 0
M  V30 2649 H 262.875 -3.62268 -0.871367 0
M  V30 2650 H 262.988 -4.74808 0.63985 0
M  V30 2651 H 261.352 -2.53528 0.244017 0
M  V30 2652 H 262.135 -2.87167 1.88123 0
M  V30 2653 N 264.58 -0.43555 -1.51462 0
M  V30 2654 C 265.51 0.367376 -2.30592 0
M  V30 2655 C 266.491 1.02263 -1.35928 0
M  V30 2656 O 267.676 1.02661 -1.64847 0
M  V30 2657 C 264.806 1.46983 -3.14664 0
M  V30 2658 C 263.76 0.938161 -4.17591 0
M  V30 2659 C 263.086 2.13622 -4.90173 0
M  V30 2660 C 264.386 -0.0261621 -5.22293 0
M  V30 2661 H 266.08 -0.292969 -2.97963 0
M  V30 2662 H 263.626 -0.14234 -1.43295 0
M  V30 2663 H 265.579 2.03873 -3.688 0
M  V30 2664 H 264.303 2.15843 -2.4511 0
M  V30 2665 H 262.962 0.391481 -3.64504 0
M  V30 2666 H 262.61 2.81098 -4.17124 0
M  V30 2667 H 262.31 1.78688 -5.59772 0
M  V30 2668 H 263.834 2.7107 -5.47132 0
M  V30 2669 H 265.248 0.452384 -5.71512 0
M  V30 2670 H 263.645 -0.287992 -5.99409 0
M  V30 2671 H 264.715 -0.963391 -4.75233 0
M  V30 2672 N 266.058 1.56714 -0.166846 0
M  V30 2673 C 267.469 1.83378 0.350646 0
M  V30 2674 C 267.82 1.08646 1.63372 0
M  V30 2675 O 266.945 0.338058 2.13743 0
M  V30 2676 C 267.54 3.32643 0.642963 0
M  V30 2677 C 266.099 3.59818 1.10491 0
M  V30 2678 C 265.246 2.76954 0.138411 0
M  V30 2679 H 268.197 1.53803 -0.391193 0
M  V30 2680 H 268.218 3.49878 1.49551 0
M  V30 2681 H 267.73 3.87007 -0.291055 0
M  V30 2682 H 265.831 3.1086 2.05418 0
M  V30 2683 H 265.944 4.68178 1.01716 0
M  V30 2684 H 264.308 2.4666 0.634911 0
M  V30 2685 H 265.091 3.34097 -0.789549 0
M  V30 2686 N 267.536 -0.106894 1.57237 0
M  V30 2687 C 268.947 -0.662723 1.74542 0
M  V30 2688 C 269.298 -1.7971 0.787319 0
M  V30 2689 O 268.423 -2.16368 -0.0369636 0
M  V30 2690 C 269.018 -1.20896 3.16496 0
M  V30 2691 C 267.577 -1.71096 3.35266 0
M  V30 2692 C 266.724 -0.615642 2.7038 0
M  V30 2693 H 269.675 0.119106 1.58252 0
M  V30 2694 H 269.696 -2.07847 3.18716 0
M  V30 2695 H 269.208 -0.383122 3.86204 0
M  V30 2696 H 267.309 -2.56119 2.70618 0
M  V30 2697 H 267.422 -1.81208 4.43509 0
M  V30 2698 H 265.786 -1.05222 2.31949 0
M  V30 2699 H 266.569 0.199419 3.4272 0
M  V30 2700 N 269.014 -1.53014 -0.377408 0
M  V30 2701 C 270.425 -1.60438 -0.954798 0
M  V30 2702 C 270.776 -0.464418 -1.90624 0
M  V30 2703 O 269.901 0.41087 -2.12464 0
M  V30 2704 C 270.496 -2.90797 -1.73847 0
M  V30 2705 C 269.055 -3.00595 -2.26538 0
M  V30 2706 C 268.202 -2.55645 -1.07429 0
M  V30 2707 H 271.153 -1.57926 -0.156575 0
M  V30 2708 H 271.174 -2.77935 -2.5987 0
M  V30 2709 H 270.686 -3.73746 -1.04574 0
M  V30 2710 H 268.787 -2.22208 -2.99089 0
M  V30 2711 H 268.9 -4.05456 -2.5523 0
M  V30 2712 H 267.264 -2.10239 -1.43777 0
M  V30 2713 H 268.047 -3.41 -0.396728 0
M  V30 2714 N 270.492 0.636531 -1.44174 0
M  V30 2715 C 271.424 1.7618 -1.46606 0
M  V30 2716 C 272.437 1.58768 -0.360091 0
M  V30 2717 O 273.626 1.67181 -0.625518 0
M  V30 2718 C 270.726 3.13833 -1.27915 0
M  V30 2719 C 269.899 3.57753 -2.51658 0
M  V30 2720 C 268.958 4.74265 -2.27945 0
M  V30 2721 O 267.984 4.82852 -3.01401 0
M  V30 2722 N 269.186 5.65604 -1.30662 0
M  V30 2723 H 271.951 1.74567 -2.43612 0
M  V30 2724 H 269.512 0.820924 -1.39544 0
M  V30 2725 H 271.504 3.8949 -1.09907 0
M  V30 2726 H 270.074 3.10121 -0.39293 0
M  V30 2727 H 269.294 2.72362 -2.84978 0
M  V30 2728 H 270.582 3.83847 -3.33974 0
M  V30 2729 H 269.98 5.61354 -0.699844 0
M  V30 2730 H 268.537 6.40913 -1.18634 0
M  V30 2731 N 271.97 1.30982 0.876444 0
M  V30 2732 C 272.902 1.13902 1.98894 0
M  V30 2733 C 273.915 0.0798815 1.62604 0
M  V30 2734 O 275.104 0.326743 1.75484 0
M  V30 2735 C 272.204 0.716699 3.31235 0
M  V30 2736 C 271.377 1.85945 3.95908 0
M  V30 2737 C 270.436 1.42426 5.06558 0
M  V30 2738 O 269.462 2.13287 5.27729 0
M  V30 2739 N 270.664 0.308025 5.79682 0
M  V30 2740 H 273.429 2.09724 2.14094 0
M  V30 2741 H 270.99 1.2323 1.05004 0
M  V30 2742 H 272.982 0.408403 4.02634 0
M  V30 2743 H 271.552 -0.149719 3.12241 0
M  V30 2744 H 270.772 2.33541 3.17573 0
M  V30 2745 H 272.06 2.62503 4.35855 0
M  V30 2746 H 271.458 -0.282241 5.64995 0
M  V30 2747 H 270.015 0.0592282 6.51773 0
M  V30 2748 N 273.449 -1.08991 1.13837 0
M  V30 2749 C 274.86 -1.62746 0.914917 0
M  V30 2750 C 275.211 -1.88403 -0.547594 0
M  V30 2751 O 274.336 -1.63706 -1.41525 0
M  V30 2752 C 274.931 -2.95662 1.65437 0
M  V30 2753 C 273.49 -3.46225 1.47666 0
M  V30 2754 C 272.637 -2.20562 1.6807 0
M  V30 2755 H 275.588 -0.922946 1.29102 0
M  V30 2756 H 275.609 -3.63825 1.11407 0
M  V30 2757 H 275.121 -2.76956 2.71877 0
M  V30 2758 H 273.222 -3.70046 0.435478 0
M  V30 2759 H 273.335 -4.23368 2.24268 0
M  V30 2760 H 271.699 -2.29439 1.10589 0
M  V30 2761 H 272.482 -2.0437 2.7584 0
M  V30 2762 N 274.927 -0.932562 -1.27047 0
M  V30 2763 C 276.338 -0.619451 -1.76124 0
M  V30 2764 C 276.689 0.865397 -1.76083 0
M  V30 2765 O 275.814 1.67722 -1.36742 0
M  V30 2766 C 276.409 -1.11771 -3.19832 0
M  V30 2767 C 274.968 -0.855174 -3.66557 0
M  V30 2768 C 274.115 -1.27362 -2.46321 0
M  V30 2769 H 277.066 -1.11181 -1.13245 0
M  V30 2770 H 277.087 -0.46759 -3.77616 0
M  V30 2771 H 276.599 -2.19842 -3.1983 0
M  V30 2772 H 274.7 0.211524 -3.71999 0
M  V30 2773 H 274.813 -1.47613 -4.55793 0
M  V30 2774 H 273.177 -0.692119 -2.45116 0
M  V30 2775 H 273.96 -2.36307 -2.49025 0
M  V30 2776 N 276.405 1.4127 -0.698611 0
M  V30 2777 C 277.816 1.84187 -0.305289 0
M  V30 2778 C 278.167 1.58449 1.15708 0
M  V30 2779 O 277.292 1.05651 1.88856 0
M  V30 2780 C 277.887 3.3435 -0.547314 0
M  V30 2781 C 276.446 3.75826 -0.207878 0
M  V30 2782 C 275.593 2.64647 -0.828099 0
M  V30 2783 H 278.544 1.30778 -0.89904 0
M  V30 2784 H 278.565 3.8001 0.192998 0
M  V30 2785 H 278.077 3.53051 -1.61172 0
M  V30 2786 H 276.178 3.62725 0.852143 0
M  V30 2787 H 276.291 4.74462 -0.665021 0
M  V30 2788 H 274.655 2.53395 -0.257458 0
M  V30 2789 H 275.438 2.86165 -1.89643 0
M  V30 2790 N 277.883 0.443576 1.51229 0
M  V30 2791 C 279.294 -0.0180867 1.86691 0
M  V30 2792 C 279.645 -1.41384 1.36033 0
M  V30 2793 O 278.77 -2.04291 0.713722 0
M  V30 2794 C 279.365 -0.039597 3.38777 0
M  V30 2795 C 277.924 -0.445692 3.73752 0
M  V30 2796 C 277.071 0.357584 2.74985 0
M  V30 2797 H 280.022 0.659138 1.44364 0
M  V30 2798 H 280.043 -0.847761 3.70936 0
M  V30 2799 H 279.555 0.976382 3.75617 0
M  V30 2800 H 277.656 -1.46704 3.42503 0
M  V30 2801 H 277.769 -0.166155 4.78812 0
M  V30 2802 H 276.133 -0.184973 2.54027 0
M  V30 2803 H 276.916 1.37256 3.14668 0
M  V30 2804 N 279.361 -1.56624 0.175154 0
M  V30 2805 C 280.586 -2.01813 -0.478137 0
M  V30 2806 C 281.011 -1.05457 -1.55757 0
M  V30 2807 O 280.369 -0.0347439 -1.81267 0
M  V30 2808 C 280.417 -3.45581 -1.02987 0
M  V30 2809 O 279.521 -3.52305 -2.14371 0
M  V30 2810 H 278.862 -0.65413 -0.114059 0
M  V30 2811 H 281.392 -2.02673 0.280173 0
M  V30 2812 H 281.402 -3.84965 -1.35151 0
M  V30 2813 H 280.077 -4.1521 -0.239556 0
M  V30 2814 H 278.654 -3.24783 -1.83222 0
M  V30 2815 N 280.839 0.0985539 -1.57292 0
M  V30 2816 C 282.25 0.653457 -1.74891 0
M  V30 2817 C 282.601 1.7929 -0.796838 0
M  V30 2818 O 281.726 2.16385 0.0254886 0
M  V30 2819 C 282.321 1.19216 -3.17133 0
M  V30 2820 C 280.88 1.69316 -3.36168 0
M  V30 2821 C 280.027 0.601294 -2.70702 0
M  V30 2822 H 282.978 -0.127497 -1.58187 0
M  V30 2823 H 282.999 2.06154 -3.19814 0
M  V30 2824 H 282.511 0.362635 -3.86402 0
M  V30 2825 H 280.612 2.5468 -2.71972 0
M  V30 2826 H 280.725 1.78853 -4.44464 0
M  V30 2827 H 279.089 1.0399 -2.32504 0
M  V30 2828 H 279.872 -0.217592 -3.4261 0
M  V30 2829 N 282.317 1.53212 0.369288 0
M  V30 2830 C 283.728 1.60943 0.946276 0
M  V30 2831 C 284.079 0.47452 1.90375 0
M  V30 2832 O 283.204 -0.399597 2.12679 0
M  V30 2833 C 283.799 2.91715 1.72302 0
M  V30 2834 C 282.358 3.01792 2.24941 0
M  V30 2835 C 281.505 2.56211 1.06072 0
M  V30 2836 H 284.456 1.58007 0.148198 0
M  V30 2837 H 284.477 2.79309 2.58393 0
M  V30 2838 H 283.989 3.74295 1.0259 0
M  V30 2839 H 282.09 2.23791 2.97906 0
M  V30 2840 H 282.203 4.06803 2.53077 0
M  V30 2841 H 280.567 2.10998 1.4266 0
M  V30 2842 H 281.35 3.41206 0.378639 0
M  V30 2843 N 283.795 -0.628877 1.44509 0
M  V30 2844 C 284.727 -1.754 1.47538 0
M  V30 2845 C 285.74 -1.58575 0.368506 0
M  V30 2846 O 286.929 -1.66847 0.634376 0
M  V30 2847 C 284.029 -3.1315 1.29577 0
M  V30 2848 C 283.202 -3.56413 2.53551 0
M  V30 2849 C 282.261 -4.7305 2.30457 0
M  V30 2850 O 281.287 -4.81247 3.03957 0
M  V30 2851 N 282.489 -5.64903 1.3366 0
M  V30 2852 H 285.254 -1.73272 2.44534 0
M  V30 2853 H 282.815 -0.813512 1.39977 0
M  V30 2854 H 284.807 -3.88902 1.11971 0
M  V30 2855 H 283.377 -3.09908 0.409371 0
M  V30 2856 H 282.597 -2.70847 2.86419 0
M  V30 2857 H 283.885 -3.82071 3.36005 0
M  V30 2858 H 283.283 -5.60975 0.729604 0
M  V30 2859 H 281.84 -6.40275 1.22032 0
M  V30 2860 N 285.273 -1.31445 -0.869486 0
M  V30 2861 C 286.684 -1.19042 -1.43826 0
M  V30 2862 C 287.035 0.202919 -1.95148 0
M  V30 2863 O 286.16 1.10071 -1.86315 0
M  V30 2864 C 286.755 -2.15499 -2.6143 0
M  V30 2865 C 285.314 -2.07028 -3.14351 0
M  V30 2866 C 284.461 -2.04701 -1.87063 0
M  V30 2867 H 287.412 -1.43489 -0.677984 0
M  V30 2868 H 287.433 -1.74488 -3.38134 0
M  V30 2869 H 286.945 -3.16899 -2.24046 0
M  V30 2870 H 285.046 -1.08825 -3.56354 0
M  V30 2871 H 285.159 -2.96157 -3.766 0
M  V30 2872 H 283.523 -1.49724 -2.06046 0
M  V30 2873 H 284.306 -3.07857 -1.51917 0
M  V30 2874 N 286.751 1.08385 -1.14413 0
M  V30 2875 C 287.976 1.85057 -0.936413 0
M  V30 2876 C 288.401 1.81055 0.509971 0
M  V30 2877 O 287.759 1.1958 1.36273 0
M  V30 2878 C 287.807 3.30505 -1.44217 0
M  V30 2879 O 286.911 4.07491 -0.634409 0
M  V30 2880 H 286.252 0.573425 -0.334784 0
M  V30 2881 H 288.782 1.36799 -1.52142 0
M  V30 2882 H 288.792 3.81348 -1.45043 0
M  V30 2883 H 287.467 3.32734 -2.49522 0
M  V30 2884 H 286.044 3.66368 -0.694902 0
M  V30 2885 N 288.23 0.939286 1.26551 0
M  V30 2886 C 289.646 0.641304 1.46149 0
M  V30 2887 C 289.846 -0.805964 1.84679 0
M  V30 2888 O 288.902 -1.58278 1.96734 0
M  V30 2889 C 290.215 1.6011 2.54529 0
M  V30 2890 C 291.763 1.6106 2.68382 0
M  V30 2891 C 292.238 2.55765 3.79932 0
M  V30 2892 N 293.729 2.5404 3.87322 0
M  V30 2893 C 294.464 3.24004 4.73085 0
M  V30 2894 N 293.96 4.03388 5.63249 0
M  V30 2895 N 295.753 3.12965 4.66914 0
M  V30 2896 H 287.904 1.87478 0.998285 0
M  V30 2897 H 290.167 0.805559 0.499779 0
M  V30 2898 H 289.873 2.63412 2.33039 0
M  V30 2899 H 289.747 1.35171 3.52149 0
M  V30 2900 H 292.134 0.584835 2.89247 0
M  V30 2901 H 292.215 1.90053 1.71212 0
M  V30 2902 H 291.859 3.58458 3.5982 0
M  V30 2903 H 291.789 2.24063 4.76554 0
M  V30 2904 H 294.28 1.96396 3.22858 0
M  V30 2905 H 294.593 4.5373 6.25579 0
M  V30 2906 H 292.938 4.07489 5.63008 0
M  V30 2907 H 296.129 2.50432 3.95476 0
M  V30 2908 H 296.302 3.67759 5.33533 0
M  V30 2909 N 289.708 -1.40897 0.706093 0
M  V30 2910 C 290.638 -2.33418 0.0620085 0
M  V30 2911 C 291.619 -1.52385 -0.755827 0
M  V30 2912 O 292.804 -1.80886 -0.706674 0
M  V30 2913 C 289.934 -3.36293 -0.867445 0
M  V30 2914 C 288.888 -4.27716 -0.155932 0
M  V30 2915 C 288.214 -5.2105 -1.20046 0
M  V30 2916 C 289.514 -5.12944 0.984149 0
M  V30 2917 H 291.208 -2.87527 0.83477 0
M  V30 2918 H 288.754 -1.38249 0.402875 0
M  V30 2919 H 290.707 -3.99949 -1.32735 0
M  V30 2920 H 289.431 -2.80556 -1.67199 0
M  V30 2921 H 288.09 -3.65498 0.284047 0
M  V30 2922 H 287.738 -4.61624 -1.99781 0
M  V30 2923 H 287.438 -5.83056 -0.729328 0
M  V30 2924 H 288.962 -5.87584 -1.66066 0
M  V30 2925 H 290.376 -5.70109 0.604048 0
M  V30 2926 H 288.773 -5.83945 1.38304 0
M  V30 2927 H 289.843 -4.49485 1.81911 0
M  V30 2928 N 291.186 -0.45159 -1.50991 0
M  V30 2929 C 292.149 0.341117 -2.26647 0
M  V30 2930 C 293.149 0.937422 -1.30649 0
M  V30 2931 O 294.339 0.809644 -1.54241 0
M  V30 2932 C 291.471 1.48398 -3.06905 0
M  V30 2933 H 292.664 -0.322117 -2.98165 0
M  V30 2934 H 290.217 -0.205122 -1.54948 0
M  V30 2935 H 290.952 2.18284 -2.39838 0
M  V30 2936 H 290.737 1.06241 -3.77432 0
M  V30 2937 H 292.227 2.04367 -3.64176 0
M  V30 2938 N 292.664 1.56529 -0.183458 0
M  V30 2939 C 294.075 1.83739 0.331177 0
M  V30 2940 C 294.426 1.10373 1.62211 0
M  V30 2941 O 293.551 0.36071 2.13373 0
M  V30 2942 C 294.146 3.33306 0.607646 0
M  V30 2943 C 292.705 3.60969 1.06668 0
M  V30 2944 C 291.852 2.77086 0.109029 0
M  V30 2945 H 294.803 1.53379 -0.407484 0
M  V30 2946 H 294.824 3.51444 1.45832 0
M  V30 2947 H 294.336 3.86677 -0.332086 0
M  V30 2948 H 292.437 3.13021 2.0211 0
M  V30 2949 H 292.55 4.69231 0.967447 0
M  V30 2950 H 290.914 2.47319 0.608714 0
M  V30 2951 H 291.697 3.33241 -0.82494 0
M  V30 2952 N 294.142 -0.090211 1.57342 0
M  V30 2953 C 295.372 -0.805055 1.90269 0
M  V30 2954 C 295.78 -1.72561 0.775842 0
M  V30 2955 O 295.123 -1.81839 -0.260843 0
M  V30 2956 C 295.185 -1.66734 3.18497 0
M  V30 2957 C 294.849 -0.918092 4.47683 0
M  V30 2958 C 295.846 -0.245674 5.19319 0
M  V30 2959 C 293.531 -0.890724 4.94339 0
M  V30 2960 C 295.525 0.444088 6.35851 0
M  V30 2961 C 293.212 -0.197179 6.10782 0
M  V30 2962 C 294.21 0.469044 6.81388 0
M  V30 2963 O 293.898 1.15146 7.95611 0
M  V30 2964 H 293.63 -0.235143 0.633785 0
M  V30 2965 H 296.184 -0.0703805 2.05279 0
M  V30 2966 H 294.414 -2.44437 2.99646 0
M  V30 2967 H 296.103 -2.25919 3.37217 0
M  V30 2968 H 296.869 -0.258246 4.84312 0
M  V30 2969 H 292.748 -1.39873 4.39268 0
M  V30 2970 H 296.292 0.964667 6.90898 0
M  V30 2971 H 292.189 -0.18247 6.45242 0
M  V30 2972 H 292.957 1.05885 8.11622 0
M  V30 2973 N 295.62 -1.53406 -0.361157 0
M  V30 2974 C 297.031 -1.61442 -0.937728 0
M  V30 2975 C 297.382 -0.48461 -1.90121 0
M  V30 2976 O 296.507 0.388312 -2.12888 0
M  V30 2977 C 297.102 -2.92624 -1.70753 0
M  V30 2978 C 295.661 -3.02981 -2.23337 0
M  V30 2979 C 294.808 -2.5677 -1.04712 0
M  V30 2980 H 297.759 -1.58083 -0.139816 0
M  V30 2981 H 297.78 -2.80675 -2.56908 0
M  V30 2982 H 297.292 -3.74834 -1.00604 0
M  V30 2983 H 295.393 -2.25368 -2.96715 0
M  V30 2984 H 295.506 -4.0814 -2.50916 0
M  V30 2985 H 293.87 -2.11752 -1.41539 0
M  V30 2986 H 294.653 -3.41402 -0.360539 0
M  V30 2987 N 297.098 0.621204 -1.44841 0
M  V30 2988 C 298.048 1.72663 -1.48901 0
M  V30 2989 C 299.032 1.56964 -0.353702 0
M  V30 2990 O 300.224 1.66532 -0.599669 0
M  V30 2991 C 297.353 3.11381 -1.44557 0
M  V30 2992 C 296.439 3.32514 -2.6324 0
M  V30 2993 N 296.83 3.23969 -3.8843 0
M  V30 2994 C 295.128 3.63343 -2.58647 0
M  V30 2995 C 295.829 3.46062 -4.67564 0
M  V30 2996 N 294.805 3.69407 -3.98797 0
M  V30 2997 H 298.607 1.64529 -2.43531 0
M  V30 2998 H 296.121 0.82401 -1.39942 0
M  V30 2999 H 298.118 3.90667 -1.4555 0
M  V30 3000 H 296.778 3.20674 -0.509731 0
M  V30 3001 H 297.789 3.02669 -4.20252 0
M  V30 3002 H 294.466 3.79556 -1.73906 0
M  V30 3003 H 295.856 3.44963 -5.76585 0
M  V30 3004 N 298.576 1.31904 0.862503 0
M  V30 3005 C 299.987 1.19803 1.43193 0
M  V30 3006 C 300.338 -0.192567 1.95253 0
M  V30 3007 O 299.463 -1.09081 1.86896 0
M  V30 3008 C 300.058 2.16883 2.60283 0
M  V30 3009 C 298.617 2.08692 3.13248 0
M  V30 3010 C 297.764 2.05691 1.85975 0
M  V30 3011 H 300.715 1.43846 0.670365 0
M  V30 3012 H 300.736 1.76278 3.37204 0
M  V30 3013 H 300.248 3.18083 2.22363 0
M  V30 3014 H 298.349 1.10713 3.55771 0
M  V30 3015 H 298.462 2.9815 3.75025 0
M  V30 3016 H 296.826 1.50814 2.05249 0
M  V30 3017 H 297.609 3.08659 1.50282 0
M  V30 3018 N 300.054 -1.07777 1.14986 0
M  V30 3019 C 301.017 -2.13041 0.845358 0
M  V30 3020 C 302.017 -1.60071 -0.152931 0
M  V30 3021 O 303.207 -1.74033 0.0761879 0
M  V30 3022 C 300.339 -3.39896 0.261383 0
M  V30 3023 H 301.532 -2.41485 1.77834 0
M  V30 3024 H 299.085 -1.23595 0.956757 0
M  V30 3025 H 299.82 -3.17091 -0.68 0
M  V30 3026 H 299.605 -3.79642 0.980514 0
M  V30 3027 H 301.095 -4.17548 0.0657687 0
M  V30 3028 N 301.532 -0.945985 -1.26051 0
M  V30 3029 C 302.76 -0.613025 -1.9761 0
M  V30 3030 C 303.175 0.813035 -1.70397 0
M  V30 3031 O 302.532 1.54274 -0.974979 0
M  V30 3032 C 302.583 -0.85159 -3.51326 0
M  V30 3033 O 302.304 -2.22157 -3.77595 0
M  V30 3034 C 303.805 -0.529831 -4.40122 0
M  V30 3035 H 301.025 -0.230593 -0.630133 0
M  V30 3036 H 303.569 -1.268 -1.60443 0
M  V30 3037 H 301.724 -0.243151 -3.86636 0
M  V30 3038 H 302.138 -2.2852 -4.721 0
M  V30 3039 H 303.612 -0.747348 -5.46917 0
M  V30 3040 H 304.089 0.535341 -4.35925 0
M  V30 3041 H 304.695 -1.11721 -4.10364 0
M  V30 3042 N 303.011 1.40521 -0.713556 0
M  V30 3043 C 304.239 2.05237 -0.261775 0
M  V30 3044 C 304.654 1.53755 1.09567 0
M  V30 3045 O 304.011 0.693268 1.6882 0
M  V30 3046 C 304.062 3.60763 -0.230706 0
M  V30 3047 O 303.783 4.10345 -1.53455 0
M  V30 3048 C 305.284 4.42651 0.239874 0
M  V30 3049 H 302.504 0.660533 -0.118057 0
M  V30 3050 H 305.048 1.79967 -0.971192 0
M  V30 3051 H 303.203 3.8501 0.429661 0
M  V30 3052 H 303.617 5.04526 -1.43366 0
M  V30 3053 H 305.091 5.51599 0.210468 0
M  V30 3054 H 305.568 4.20082 1.28171 0
M  V30 3055 H 306.174 4.23507 -0.390142 0
M  V30 3056 N 304.489 0.459591 1.5075 0
M  V30 3057 C 305.905 0.113092 1.59199 0
M  V30 3058 C 306.105 -1.37951 1.46874 0
M  V30 3059 O 305.161 -2.15168 1.32132 0
M  V30 3060 C 306.474 0.653043 2.93523 0
M  V30 3061 C 308.022 0.615449 3.0689 0
M  V30 3062 C 308.497 1.13275 4.43771 0
M  V30 3063 N 309.988 1.09167 4.50152 0
M  V30 3064 C 310.723 1.46256 5.54434 0
M  V30 3065 N 310.219 1.90739 6.66026 0
M  V30 3066 N 312.012 1.37932 5.44914 0
M  V30 3067 H 304.163 1.43049 1.57005 0
M  V30 3068 H 306.426 0.590861 0.741341 0
M  V30 3069 H 306.132 1.69822 3.07983 0
M  V30 3070 H 306.006 0.0902132 3.77092 0
M  V30 3071 H 308.393 -0.420793 2.92084 0
M  V30 3072 H 308.474 1.21495 2.25106 0
M  V30 3073 H 308.118 2.16757 4.59324 0
M  V30 3074 H 308.048 0.509576 5.24129 0
M  V30 3075 H 310.539 0.76528 3.7007 0
M  V30 3076 H 310.852 2.17218 7.41644 0
M  V30 3077 H 309.197 1.94683 6.67176 0
M  V30 3078 H 312.388 1.0303 4.56621 0
M  V30 3079 H 312.561 1.67164 6.26067 0
M  V30 3080 N 305.967 -1.56429 0.191757 0
M  V30 3081 C 307.215 -1.97095 -0.447006 0
M  V30 3082 C 307.536 -1.07967 -1.62383 0
M  V30 3083 O 306.806 -0.150248 -1.95323 0
M  V30 3084 H 305.386 -0.727832 -0.168135 0
M  V30 3085 H 308.048 -1.92911 0.27771 0
M  V30 3086 H 307.144 -3.01848 -0.793371 0
M  V30 3087 N 307.445 0.0818655 -1.57387 0
M  V30 3088 C 308.722 0.815343 -1.77796 0
M  V30 3089 C 309.102 1.96289 -0.77679 0
M  V30 3090 O 308.45 2.27691 0.192106 0
M  V30 3091 C 308.66 1.29765 -3.23978 0
M  V30 3092 C 310.008 1.7351 -3.8753 0
M  V30 3093 O 311.032 1.39356 -3.27808 0
M  V30 3094 O 309.891 2.36708 -4.92576 0
M  V30 3095 H 306.985 0.389914 -0.729312 0
M  V30 3096 H 309.531 0.0627213 -1.69584 0
M  V30 3097 H 308.303 0.47608 -3.88393 0
M  V30 3098 H 307.926 2.11189 -3.36875 0
M  V30 3099 N 308.923 1.53595 0.353017 0
M  V30 3100 C 310.339 1.43648 0.695516 0
M  V30 3101 C 310.539 0.585617 1.92802 0
M  V30 3102 O 309.595 0.0729223 2.52395 0
M  V30 3103 C 310.908 2.8701 0.896991 0
M  V30 3104 C 312.456 2.96723 0.996209 0
M  V30 3105 C 312.931 4.41173 1.23007 0
M  V30 3106 N 314.422 4.44657 1.29749 0
M  V30 3107 C 315.157 5.53547 1.49577 0
M  V30 3108 N 314.653 6.72461 1.66639 0
M  V30 3109 N 316.446 5.41145 1.52048 0
M  V30 3110 H 308.597 2.07415 -0.457481 0
M  V30 3111 H 310.86 0.9372 -0.142687 0
M  V30 3112 H 310.566 3.51644 0.0629938 0
M  V30 3113 H 310.44 3.31401 1.80148 0
M  V30 3114 H 312.827 2.32235 1.82074 0
M  V30 3115 H 312.908 2.55707 0.0688331 0
M  V30 3116 H 312.552 5.06238 0.410505 0
M  V30 3117 H 312.482 4.79772 2.17086 0
M  V30 3118 H 314.973 3.58963 1.18126 0
M  V30 3119 H 315.286 7.51214 1.81378 0
M  V30 3120 H 313.631 6.75423 1.63794 0
M  V30 3121 H 316.822 4.47205 1.38294 0
M  V30 3122 H 316.995 6.26068 1.67159 0
M  V30 3123 N 310.401 -0.613514 1.45168 0
M  V30 3124 C 311.348 -1.72456 1.53387 0
M  V30 3125 C 312.318 -1.6169 0.380191 0
M  V30 3126 O 313.503 -1.81356 0.592836 0
M  V30 3127 C 310.643 -3.10753 1.50088 0
M  V30 3128 C 309.756 -3.32368 2.75963 0
M  V30 3129 C 308.891 -4.60737 2.64376 0
M  V30 3130 C 307.93 -4.7559 3.85332 0
M  V30 3131 N 307.067 -5.95253 3.72315 0
M  V30 3132 H 311.907 -1.64768 2.48305 0
M  V30 3133 H 309.444 -0.803503 1.23216 0
M  V30 3134 H 311.402 -3.90758 1.46164 0
M  V30 3135 H 310.032 -3.17413 0.587243 0
M  V30 3136 H 309.084 -2.4618 2.89999 0
M  V30 3137 H 310.396 -3.39218 3.65695 0
M  V30 3138 H 309.55 -5.48928 2.58385 0
M  V30 3139 H 308.289 -4.56275 1.72233 0
M  V30 3140 H 307.294 -3.85824 3.91688 0
M  V30 3141 H 308.519 -4.81854 4.78533 0
M  V30 3142 H 306.465 -5.91847 2.82937 0
M  V30 3143 H 306.382 -6.03236 4.55677 0
M  V30 3144 H 307.65 -6.85958 3.70246 0
M  V30 3145 N 311.879 -1.3236 -0.855495 0
M  V30 3146 C 312.811 -1.17052 -1.97057 0
M  V30 3147 C 313.824 -0.10574 -1.62456 0
M  V30 3148 O 315.013 -0.354619 -1.74942 0
M  V30 3149 C 312.113 -0.769305 -3.30053 0
M  V30 3150 C 311.286 -1.9222 -3.929 0
M  V30 3151 C 310.345 -1.50466 -5.04228 0
M  V30 3152 O 309.371 -2.21655 -5.24269 0
M  V30 3153 N 310.573 -0.400209 -5.79119 0
M  V30 3154 H 313.338 -2.13103 -2.1073 0
M  V30 3155 H 310.899 -1.24885 -1.0303 0
M  V30 3156 H 312.891 -0.472407 -4.01933 0
M  V30 3157 H 311.461 0.100025 -3.1244 0
M  V30 3158 H 310.681 -2.38563 -3.13817 0
M  V30 3159 H 311.969 -2.69403 -4.31624 0
M  V30 3160 H 311.367 0.192319 -5.65373 0
M  V30 3161 H 309.924 -0.162912 -6.51596 0
M  V30 3162 N 313.357 1.07166 -1.15556 0
M  V30 3163 C 314.304 2.14417 -0.854055 0
M  V30 3164 C 315.274 1.64965 0.193806 0
M  V30 3165 O 316.459 1.90703 0.0609443 0
M  V30 3166 C 313.599 3.43304 -0.351574 0
M  V30 3167 C 312.712 4.06537 -1.46123 0
M  V30 3168 C 311.847 5.23266 -0.914677 0
M  V30 3169 C 310.886 5.78464 -2.00114 0
M  V30 3170 N 310.023 6.86521 -1.47083 0
M  V30 3171 H 314.863 2.39548 -1.77259 0
M  V30 3172 H 312.4 1.17543 -0.884425 0
M  V30 3173 H 314.358 4.17179 -0.0419409 0
M  V30 3174 H 312.988 3.18419 0.530037 0
M  V30 3175 H 312.04 3.30297 -1.88701 0
M  V30 3176 H 313.352 4.43567 -2.28144 0
M  V30 3177 H 312.506 6.04131 -0.557698 0
M  V30 3178 H 311.245 4.87658 -0.0636583 0
M  V30 3179 H 310.25 4.96243 -2.36692 0
M  V30 3180 H 311.475 6.16126 -2.85597 0
M  V30 3181 H 309.421 6.52849 -0.642198 0
M  V30 3182 H 309.338 7.22446 -2.22729 0
M  V30 3183 H 310.606 7.71087 -1.14215 0
M  V30 3184 N 314.835 0.952656 1.25548 0
M  V30 3185 C 315.782 0.47008 2.25962 0
M  V30 3186 C 316.752 -0.476384 1.59122 0
M  V30 3187 O 317.937 -0.39007 1.8677 0
M  V30 3188 C 315.077 -0.247881 3.44209 0
M  V30 3189 C 314.19 0.735591 4.25691 0
M  V30 3190 C 313.325 -0.0047306 5.312 0
M  V30 3191 C 312.364 0.969805 6.04368 0
M  V30 3192 N 311.501 0.260486 7.01617 0
M  V30 3193 H 316.341 1.33126 2.66611 0
M  V30 3194 H 313.878 0.66765 1.31076 0
M  V30 3195 H 315.836 -0.680695 4.1161 0
M  V30 3196 H 314.466 -1.07312 3.0444 0
M  V30 3197 H 313.518 1.28689 3.57971 0
M  V30 3198 H 314.83 1.47934 4.76358 0
M  V30 3199 H 313.984 -0.496275 6.04667 0
M  V30 3200 H 312.723 -0.781282 4.81401 0
M  V30 3201 H 311.728 1.47237 5.29718 0
M  V30 3202 H 312.953 1.74655 6.56256 0
M  V30 3203 H 310.899 -0.497364 6.54112 0
M  V30 3204 H 310.816 0.943362 7.50091 0
M  V30 3205 H 312.084 -0.209587 7.79218 0
M  V30 3206 N 316.313 -1.40141 0.720998 0
M  V30 3207 C 317.729 -1.54632 0.395113 0
M  V30 3208 C 317.929 -1.69115 -1.09555 0
M  V30 3209 O 316.985 -1.68377 -1.88163 0
M  V30 3210 C 318.298 -2.77177 1.1659 0
M  V30 3211 C 319.846 -2.91 1.15274 0
M  V30 3212 C 320.321 -4.16465 1.90579 0
M  V30 3213 N 321.812 -4.23476 1.87675 0
M  V30 3214 C 322.547 -5.19475 2.42762 0
M  V30 3215 N 322.043 -6.21348 3.06428 0
M  V30 3216 N 323.836 -5.11592 2.32874 0
M  V30 3217 H 315.987 -1.28986 1.68749 0
M  V30 3218 H 318.25 -0.62412 0.713567 0
M  V30 3219 H 317.956 -2.72771 2.22011 0
M  V30 3220 H 317.83 -3.69442 0.76108 0
M  V30 3221 H 320.217 -2.94907 0.106702 0
M  V30 3222 H 320.298 -1.99838 1.59682 0
M  V30 3223 H 319.942 -4.1332 2.95176 0
M  V30 3224 H 319.872 -5.06646 1.43587 0
M  V30 3225 H 322.363 -3.50497 1.41281 0
M  V30 3226 H 322.676 -6.91034 3.45965 0
M  V30 3227 H 321.021 -6.21777 3.10514 0
M  V30 3228 H 324.212 -4.30936 1.82789 0
M  V30 3229 H 324.385 -5.86233 2.76106 0
M  V30 3230 N 317.792 -0.46758 -1.50504 0
M  V30 3231 C 319.069 0.15003 -1.95024 0
M  V30 3232 C 319.449 1.57304 -1.40779 0
M  V30 3233 O 318.797 2.20281 -0.607319 0
M  V30 3234 C 319.007 0.0969324 -3.48865 0
M  V30 3235 C 320.355 0.287565 -4.23625 0
M  V30 3236 O 321.379 0.173678 -3.55776 0
M  V30 3237 O 320.238 0.517186 -5.44047 0
M  V30 3238 H 317.332 0.113582 -0.819163 0
M  V30 3239 H 319.878 -0.52773 -1.61286 0
M  V30 3240 H 318.65 -0.896732 -3.80886 0
M  V30 3241 H 318.273 0.816303 -3.8913 0
M  V30 3242 N 319.27 1.56325 -0.20005 0
M  V30 3243 C 320.202 2.16555 0.750771 0
M  V30 3244 C 321.215 1.12871 1.1732 0
M  V30 3245 O 322.404 1.39943 1.10807 0
M  V30 3246 C 319.504 2.71684 2.02586 0
M  V30 3247 C 318.677 4.00321 1.76244 0
M  V30 3248 C 317.736 4.40227 2.88248 0
M  V30 3249 O 316.762 5.07552 2.57642 0
M  V30 3250 N 317.964 4.04138 4.16717 0
M  V30 3251 H 320.729 2.98772 0.235685 0
M  V30 3252 H 318.29 1.6189 -0.0182594 0
M  V30 3253 H 320.282 2.95363 2.76664 0
M  V30 3254 H 318.852 1.93893 2.45202 0
M  V30 3255 H 318.072 3.84723 0.85919 0
M  V30 3256 H 319.36 4.84279 1.56048 0
M  V30 3257 H 318.758 3.49993 4.44434 0
M  V30 3258 H 317.315 4.32756 4.87407 0
M  V30 3259 N 320.748 -0.0735177 1.57428 0
M  V30 3260 C 321.696 -1.10628 2.04607 0
M  V30 3261 C 322.69 -1.40181 0.951088 0
M  V30 3262 O 323.896 -1.39608 1.1362 0
M  V30 3263 H 320.271 -0.374088 0.652351 0
M  V30 3264 H 322.242 -0.682218 2.90497 0
M  V30 3265 C 320.991 -2.41212 2.50423 0
M  V30 3266 H 320.314 -2.19322 3.34272 0
M  V30 3267 H 321.754 -3.11927 2.87189 0
M  V30 3268 C 320.213 -3.0705 1.38644 0
M  V30 3269 O 320.743 -3.95056 0.727582 0
M  V30 3270 N 318.949 -2.67645 1.132 0
M  V30 3271 H 318.496 -1.96169 1.66959 0
M  V30 3272 H 318.454 -3.1202 0.386147 0
M  V30 3273 N 322.226 -1.5378 -0.344866 0
M  V30 3274 C 323.173 -1.81676 -1.42346 0
M  V30 3275 C 324.143 -0.662376 -1.52321 0
M  V30 3276 O 325.328 -0.906675 -1.67881 0
M  V30 3277 C 322.468 -2.03087 -2.79015 0
M  V30 3278 C 321.581 -3.30799 -2.77842 0
M  V30 3279 C 320.716 -3.42285 -4.0622 0
M  V30 3280 C 319.755 -4.6395 -3.9927 0
M  V30 3281 N 318.892 -4.72477 -5.19336 0
M  V30 3282 H 323.732 -2.73703 -1.17858 0
M  V30 3283 H 321.269 -1.35568 -0.570949 0
M  V30 3284 H 323.227 -2.1349 -3.58438 0
M  V30 3285 H 321.857 -1.14375 -3.01858 0
M  V30 3286 H 320.909 -3.29244 -1.90533 0
M  V30 3287 H 322.221 -4.20314 -2.68584 0
M  V30 3288 H 321.375 -3.52113 -4.94066 0
M  V30 3289 H 320.114 -2.50823 -4.18258 0
M  V30 3290 H 319.119 -4.54201 -3.09809 0
M  V30 3291 H 320.344 -5.56775 -3.88817 0
M  V30 3292 H 318.29 -3.83924 -5.3192 0
M  V30 3293 H 318.207 -5.55927 -5.12329 0
M  V30 3294 H 319.475 -4.86613 -6.08957 0
M  V30 3295 N 323.704 0.605807 -1.45491 0
M  V30 3296 C 324.929 1.39625 -1.53361 0
M  V30 3297 C 325.354 1.87351 -0.167645 0
M  V30 3298 O 324.712 1.60243 0.848051 0
M  V30 3299 C 324.76 2.57559 -2.5238 0
M  V30 3300 O 323.864 3.58248 -2.04285 0
M  V30 3301 H 323.205 0.416771 -0.516912 0
M  V30 3302 H 325.735 0.737103 -1.90861 0
M  V30 3303 H 325.745 3.0478 -2.71244 0
M  V30 3304 H 324.42 2.22171 -3.51586 0
M  V30 3305 H 322.997 3.17664 -1.95305 0
M  V30 3306 N 325.182 1.32811 0.848464 0
M  V30 3307 C 326.145 1.22194 1.9391 0
M  V30 3308 C 327.145 0.143404 1.60159 0
M  V30 3309 O 328.335 0.394253 1.6968 0
M  V30 3310 C 325.467 0.88067 3.29328 0
M  V30 3311 H 326.66 2.19127 2.04752 0
M  V30 3312 H 324.213 1.16731 1.0394 0
M  V30 3313 H 324.948 -0.0865776 3.24184 0
M  V30 3314 H 324.733 1.66052 3.55203 0
M  V30 3315 H 326.223 0.830871 4.09251 0
M  V30 3316 N 326.66 -1.06551 1.16123 0
M  V30 3317 C 327.623 -2.12132 0.867906 0
M  V30 3318 C 328.623 -1.60224 -0.135944 0
M  V30 3319 O 329.813 -1.73943 0.0946422 0
M  V30 3320 C 326.945 -3.396 0.297419 0
M  V30 3321 H 328.138 -2.39586 1.80385 0
M  V30 3322 H 325.691 -1.22574 0.969812 0
M  V30 3323 H 326.426 -3.17794 -0.64633 0
M  V30 3324 H 326.211 -3.78581 1.02073 0
M  V30 3325 H 327.701 -4.17455 0.110052 0
M  V30 3326 N 328.138 -0.959301 -1.25041 0
M  V30 3327 C 329.068 -0.501388 -2.28053 0
M  V30 3328 C 330.049 0.454673 -1.63911 0
M  V30 3329 O 331.234 0.352618 -1.90972 0
M  V30 3330 C 328.364 0.217224 -3.4662 0
M  V30 3331 C 327.318 -0.654034 -4.22973 0
M  V30 3332 C 326.644 0.195589 -5.34342 0
M  V30 3333 C 327.944 -1.93447 -4.85155 0
M  V30 3334 H 329.638 -1.36238 -2.66608 0
M  V30 3335 H 327.184 -0.656534 -1.28163 0
M  V30 3336 H 329.137 0.548732 -4.17812 0
M  V30 3337 H 327.861 1.1125 -3.07068 0
M  V30 3338 H 326.52 -0.968693 -3.5357 0
M  V30 3339 H 326.168 1.09076 -4.91031 0
M  V30 3340 H 325.868 -0.384091 -5.86343 0
M  V30 3341 H 327.392 0.521958 -6.08365 0
M  V30 3342 H 328.806 -1.66908 -5.48466 0
M  V30 3343 H 327.203 -2.46018 -5.47353 0
M  V30 3344 H 328.273 -2.63466 -4.07079 0
M  V30 3345 N 329.616 1.39756 -0.72842 0
M  V30 3346 C 331.032 1.5442 -0.403308 0
M  V30 3347 C 331.232 1.69694 1.08656 0
M  V30 3348 O 330.288 1.69373 1.87267 0
M  V30 3349 C 331.601 2.76555 -1.18058 0
M  V30 3350 C 333.149 2.90384 -1.16815 0
M  V30 3351 C 333.624 4.15449 -1.92785 0
M  V30 3352 N 335.115 4.22475 -1.89918 0
M  V30 3353 C 335.85 5.1818 -2.45514 0
M  V30 3354 N 335.346 6.19714 -3.09719 0
M  V30 3355 N 337.139 5.1035 -2.35584 0
M  V30 3356 H 329.29 1.28089 -1.69431 0
M  V30 3357 H 331.553 0.620327 -0.716867 0
M  V30 3358 H 331.259 2.7159 -2.23455 0
M  V30 3359 H 331.133 3.69033 -0.780662 0
M  V30 3360 H 333.52 2.94846 -0.12234 0
M  V30 3361 H 333.601 1.98988 -1.6074 0
M  V30 3362 H 333.245 4.11749 -2.97364 0
M  V30 3363 H 333.175 5.05877 -1.46272 0
M  V30 3364 H 335.666 3.49743 -1.43138 0
M  V30 3365 H 335.979 6.8919 -3.49625 0
M  V30 3366 H 334.324 6.20121 -3.13807 0
M  V30 3367 H 337.515 4.2996 -1.85072 0
M  V30 3368 H 337.688 5.84761 -2.79211 0
M  V30 3369 N 331.094 0.475555 1.50254 0
M  V30 3370 C 332.324 -0.0753399 2.06463 0
M  V30 3371 C 332.732 -1.33661 1.33908 0
M  V30 3372 O 332.075 -1.79219 0.403257 0
M  V30 3373 C 332.137 -0.424921 3.5698 0
M  V30 3374 C 331.801 0.734965 4.51051 0
M  V30 3375 C 332.798 1.61827 4.94073 0
M  V30 3376 C 330.483 0.926557 4.9368 0
M  V30 3377 C 332.477 2.67754 5.78434 0
M  V30 3378 C 330.164 1.98904 5.77824 0
M  V30 3379 C 331.162 2.8629 6.20103 0
M  V30 3380 O 330.85 3.90708 7.02568 0
M  V30 3381 H 330.582 0.00576308 0.675975 0
M  V30 3382 H 333.136 0.664662 1.94349 0
M  V30 3383 H 331.366 -1.21817 3.67012 0
M  V30 3384 H 333.055 -0.911422 3.95535 0
M  V30 3385 H 333.821 1.48196 4.61804 0
M  V30 3386 H 329.7 0.25584 4.6029 0
M  V30 3387 H 333.244 3.35992 6.11355 0
M  V30 3388 H 329.141 2.12541 6.09505 0
M  V30 3389 H 329.909 3.87751 7.20827 0
M  V30 3390 N 332.573 -1.56217 0.208337 0
M  V30 3391 C 333.989 -1.58919 -0.14729 0
M  V30 3392 C 334.189 -1.22486 -1.59998 0
M  V30 3393 O 333.245 -0.953849 -2.3379 0
M  V30 3394 C 334.558 -3.00236 0.167048 0
M  V30 3395 C 336.106 -3.12813 0.108219 0
M  V30 3396 C 336.581 -4.56284 0.396049 0
M  V30 3397 N 338.072 -4.61912 0.345142 0
M  V30 3398 C 338.807 -5.70837 0.541523 0
M  V30 3399 N 338.303 -6.88178 0.798968 0
M  V30 3400 N 340.096 -5.60091 0.474867 0
M  V30 3401 H 332.247 -1.78177 1.15614 0
M  V30 3402 H 334.51 -0.827555 0.462446 0
M  V30 3403 H 334.216 -3.31499 1.1748 0
M  V30 3404 H 334.09 -3.7354 -0.524184 0
M  V30 3405 H 336.477 -2.81354 -0.890157 0
M  V30 3406 H 336.558 -2.41866 0.832729 0
M  V30 3407 H 336.202 -4.88458 1.3918 0
M  V30 3408 H 336.132 -5.25439 -0.349502 0
M  V30 3409 H 338.623 -3.77589 0.153316 0
M  V30 3410 H 338.936 -7.67095 0.93727 0
M  V30 3411 H 337.281 -6.89953 0.836013 0
M  V30 3412 H 340.472 -4.67297 0.274064 0
M  V30 3413 H 340.645 -6.44917 0.631326 0
M  V30 3414 N 334.051 0.0651679 -1.57465 0
M  V30 3415 C 334.983 1.10359 -2.00882 0
M  V30 3416 C 335.996 1.346 -0.915788 0
M  V30 3417 O 337.185 1.32723 -1.1936 0
M  V30 3418 C 334.285 2.45312 -2.33828 0
M  V30 3419 C 333.458 2.40934 -3.65061 0
M  V30 3420 C 332.517 3.58047 -3.85602 0
M  V30 3421 O 331.543 3.39175 -4.57109 0
M  V30 3422 N 332.745 4.78637 -3.28462 0
M  V30 3423 H 335.51 0.733807 -2.90578 0
M  V30 3424 H 333.071 0.253719 -1.599 0
M  V30 3425 H 335.063 3.22314 -2.44737 0
M  V30 3426 H 333.633 2.74267 -1.49988 0
M  V30 3427 H 332.853 1.49273 -3.64844 0
M  V30 3428 H 334.141 2.35117 -4.51218 0
M  V30 3429 H 333.539 4.96872 -2.70433 0
M  V30 3430 H 332.096 5.53127 -3.44809 0
M  V30 3431 N 335.529 1.53961 0.336706 0
M  V30 3432 C 336.945 1.44378 0.680241 0
M  V30 3433 C 337.145 0.606034 1.9217 0
M  V30 3434 O 336.201 0.099688 2.52303 0
M  V30 3435 C 337.514 2.87945 0.8665 0
M  V30 3436 C 339.062 2.97763 0.964682 0
M  V30 3437 C 339.537 4.42453 1.18321 0
M  V30 3438 N 341.028 4.46008 1.25025 0
M  V30 3439 C 341.763 5.55102 1.43697 0
M  V30 3440 N 341.259 6.7419 1.59498 0
M  V30 3441 N 343.052 5.42727 1.463 0
M  V30 3442 H 335.203 2.06918 -0.479455 0
M  V30 3443 H 337.466 0.935634 -0.152619 0
M  V30 3444 H 337.172 3.51691 0.0256937 0
M  V30 3445 H 337.046 3.33293 1.76623 0
M  V30 3446 H 339.433 2.34153 1.796 0
M  V30 3447 H 339.514 2.55766 0.041708 0
M  V30 3448 H 339.158 5.06645 0.356788 0
M  V30 3449 H 339.088 4.82048 2.11985 0
M  V30 3450 H 341.579 3.60196 1.14312 0
M  V30 3451 H 341.892 7.53095 1.734 0
M  V30 3452 H 340.237 6.77123 1.56621 0
M  V30 3453 H 343.428 4.48647 1.33543 0
M  V30 3454 H 343.601 6.27806 1.6051 0
M  V30 3455 N 337.007 -0.598083 1.45811 0
M  V30 3456 C 337.954 -1.7082 1.55207 0
M  V30 3457 C 338.924 -1.61278 0.39732 0
M  V30 3458 O 340.109 -1.80717 0.612038 0
M  V30 3459 C 337.249 -3.09144 1.53376 0
M  V30 3460 C 336.362 -3.29423 2.79472 0
M  V30 3461 C 335.497 -4.57907 2.69248 0
M  V30 3462 C 334.536 -4.71476 3.90354 0
M  V30 3463 N 333.673 -5.9127 3.78608 0
M  V30 3464 H 338.513 -1.62125 2.50039 0
M  V30 3465 H 336.05 -0.790389 1.24062 0
M  V30 3466 H 338.008 -3.89186 1.50301 0
M  V30 3467 H 336.638 -3.16773 0.620876 0
M  V30 3468 H 335.69 -2.43091 2.92594 0
M  V30 3469 H 337.002 -3.3532 3.69272 0
M  V30 3470 H 336.156 -5.46157 2.64192 0
M  V30 3471 H 334.895 -4.54423 1.77063 0
M  V30 3472 H 333.9 -3.81648 3.95759 0
M  V30 3473 H 335.125 -4.76751 4.83617 0
M  V30 3474 H 333.071 -5.88813 2.89199 0
M  V30 3475 H 332.988 -5.98369 4.6205 0
M  V30 3476 H 334.256 -6.81992 3.77501 0
M  V30 3477 N 338.485 -1.33259 -0.841409 0
M  V30 3478 C 339.901 -1.12538 -1.13169 0
M  V30 3479 C 340.101 0.0854037 -2.01319 0
M  V30 3480 O 339.157 0.766417 -2.40587 0
M  V30 3481 C 340.47 -2.41156 -1.79623 0
M  V30 3482 C 342.018 -2.47038 -1.922 0
M  V30 3483 C 342.493 -3.7561 -2.6207 0
M  V30 3484 N 343.984 -3.76667 -2.69585 0
M  V30 3485 C 344.719 -4.72861 -3.2433 0
M  V30 3486 N 344.215 -5.79428 -3.79783 0
M  V30 3487 N 346.008 -4.6034 -3.22558 0
M  V30 3488 H 338.159 -2.10868 -0.254676 0
M  V30 3489 H 340.422 -0.931615 -0.175493 0
M  V30 3490 H 340.128 -3.29747 -1.22311 0
M  V30 3491 H 340.002 -2.53114 -2.79666 0
M  V30 3492 H 342.389 -1.58898 -2.48667 0
M  V30 3493 H 342.47 -2.39022 -0.911148 0
M  V30 3494 H 342.114 -4.64131 -2.06263 0
M  V30 3495 H 342.044 -3.80902 -3.63622 0
M  V30 3496 H 344.535 -2.99648 -2.30259 0
M  V30 3497 H 344.848 -6.48867 -4.19752 0
M  V30 3498 H 343.193 -5.83166 -3.78078 0
M  V30 3499 H 346.384 -3.76244 -2.78492 0
M  V30 3500 H 346.557 -5.35478 -3.64921 0
M  V30 3501 N 339.963 1.05934 -1.16686 0
M  V30 3502 C 340.926 2.11669 -0.879144 0
M  V30 3503 C 341.926 1.60294 0.127445 0
M  V30 3504 O 343.116 1.7389 -0.103865 0
M  V30 3505 C 340.248 3.39438 -0.315425 0
M  V30 3506 H 341.441 2.38626 -1.81653 0
M  V30 3507 H 338.994 1.22058 -0.976299 0
M  V30 3508 H 339.729 3.18132 0.629468 0
M  V30 3509 H 339.514 3.78034 -1.04079 0
M  V30 3510 H 341.004 4.17391 -0.132189 0
M  V30 3511 N 341.441 0.965919 1.2453 0
M  V30 3512 C 342.351 0.502154 2.29163 0
M  V30 3513 C 343.367 -0.436017 1.68448 0
M  V30 3514 O 344.543 -0.309497 1.99008 0
M  V30 3515 C 341.608 -0.201956 3.46111 0
M  V30 3516 C 340.669 0.775821 4.22232 0
M  V30 3517 C 339.902 0.105217 5.33596 0
M  V30 3518 O 340.125 -1.10683 5.59558 0
M  V30 3519 O 339.059 0.796475 5.96607 0
M  V30 3520 H 342.885 1.37194 2.70946 0
M  V30 3521 H 340.47 0.732875 1.30189 0
M  V30 3522 H 342.352 -0.597564 4.17142 0
M  V30 3523 H 341.027 -1.04673 3.06309 0
M  V30 3524 H 339.934 1.22185 3.53584 0
M  V30 3525 H 341.267 1.58896 4.65846 0
M  V30 3526 N 342.919 -1.39368 0.735821 0
M  V30 3527 C 344.167 -2.00101 0.283562 0
M  V30 3528 C 344.488 -1.5868 -1.13338 0
M  V30 3529 O 343.758 -0.835423 -1.77193 0
M  V30 3530 H 342.338 -0.740024 0.101851 0
M  V30 3531 H 345 -1.70404 0.945962 0
M  V30 3532 H 344.096 -3.10323 0.332604 0
M  V30 3533 N 344.397 -0.483516 -1.5 0
M  V30 3534 C 345.307 0.309172 -2.32554 0
M  V30 3535 C 346.323 0.984159 -1.43493 0
M  V30 3536 O 347.499 0.969399 -1.76535 0
M  V30 3537 C 344.564 1.36979 -3.18493 0
M  V30 3538 C 343.625 0.710095 -4.23387 0
M  V30 3539 C 342.858 1.72018 -5.05218 0
M  V30 3540 O 343.081 2.94813 -4.88305 0
M  V30 3541 O 342.015 1.28515 -5.8802 0
M  V30 3542 H 345.841 -0.366064 -3.01486 0
M  V30 3543 H 343.426 -0.24514 -1.47375 0
M  V30 3544 H 345.308 1.98385 -3.71781 0
M  V30 3545 H 343.983 2.02828 -2.52275 0
M  V30 3546 H 342.89 0.0567539 -3.74057 0
M  V30 3547 H 344.223 0.0943557 -4.9211 0
M  V30 3548 N 345.875 1.56104 -0.216619 0
M  V30 3549 C 346.838 2.18819 0.681962 0
M  V30 3550 C 347.838 1.14866 1.12528 0
M  V30 3551 O 349.028 1.40128 1.03488 0
M  V30 3552 C 346.16 2.80756 1.93362 0
M  V30 3553 H 347.353 2.99595 0.135254 0
M  V30 3554 H 344.906 1.56265 0.0330003 0
M  V30 3555 H 345.641 2.03837 2.52232 0
M  V30 3556 H 345.426 3.56876 1.62426 0
M  V30 3557 H 346.916 3.28844 2.57393 0
M  V30 3558 N 347.353 -0.0568162 1.57498 0
M  V30 3559 C 348.283 -1.06593 2.0775 0
M  V30 3560 C 349.264 -1.39448 0.974082 0
M  V30 3561 O 350.449 -1.48815 1.24771 0
M  V30 3562 C 347.579 -2.37509 2.5339 0
M  V30 3563 C 346.533 -2.1897 3.67745 0
M  V30 3564 C 345.859 -3.55402 3.99492 0
M  V30 3565 C 347.159 -1.59859 4.97235 0
M  V30 3566 H 348.853 -0.647706 2.9231 0
M  V30 3567 H 346.399 -0.310116 1.40621 0
M  V30 3568 H 348.352 -3.08409 2.87162 0
M  V30 3569 H 347.076 -2.8134 1.65878 0
M  V30 3570 H 345.735 -1.50508 3.3428 0
M  V30 3571 H 345.383 -3.9683 3.09088 0
M  V30 3572 H 345.083 -3.43831 4.76502 0
M  V30 3573 H 346.607 -4.27708 4.35773 0
M  V30 3574 H 348.021 -2.20642 5.29141 0
M  V30 3575 H 346.418 -1.58942 5.78669 0
M  V30 3576 H 347.488 -0.561506 4.81638 0
M  V30 3577 N 348.832 -1.54138 -0.328536 0
M  V30 3578 C 349.742 -1.86192 -1.42723 0
M  V30 3579 C 350.758 -0.753382 -1.56844 0
M  V30 3580 O 351.934 -1.04718 -1.72035 0
M  V30 3581 C 348.999 -2.07824 -2.77507 0
M  V30 3582 C 348.06 -3.31641 -2.72603 0
M  V30 3583 C 347.293 -3.52232 -4.00959 0
M  V30 3584 O 347.516 -2.7636 -4.9898 0
M  V30 3585 O 346.45 -4.45699 -4.0452 0
M  V30 3586 H 350.276 -2.79608 -1.18547 0
M  V30 3587 H 347.861 -1.3998 -0.522104 0
M  V30 3588 H 349.743 -2.23411 -3.57303 0
M  V30 3589 H 348.418 -1.17596 -3.01584 0
M  V30 3590 H 347.325 -3.21444 -1.91376 0
M  V30 3591 H 348.658 -4.2191 -2.53481 0
M  V30 3592 N 350.31 0.590341 -1.46126 0
M  V30 3593 C 351.558 1.34616 -1.50742 0
M  V30 3594 C 351.879 1.94363 -0.157486 0
M  V30 3595 O 351.149 1.78136 0.815136 0
M  V30 3596 H 349.729 0.499789 -0.555175 0
M  V30 3597 H 352.391 0.691953 -1.82203 0
M  V30 3598 H 351.487 2.15678 -2.25587 0
M  V30 3599 N 351.788 1.33704 0.83433 0
M  V30 3600 C 352.698 1.26382 1.97648 0
M  V30 3601 C 353.714 0.173548 1.73132 0
M  V30 3602 O 354.89 0.397962 1.97429 0
M  V30 3603 C 351.955 1.00769 3.31733 0
M  V30 3604 C 351.016 2.1884 3.69334 0
M  V30 3605 C 350.249 1.9444 4.9702 0
M  V30 3606 O 350.472 0.896961 5.63303 0
M  V30 3607 O 349.406 2.81093 5.32231 0
M  V30 3608 H 353.232 2.22444 2.06767 0
M  V30 3609 H 350.817 1.13795 0.968037 0
M  V30 3610 H 352.699 0.882186 4.12062 0
M  V30 3611 H 351.374 0.0773783 3.23608 0
M  V30 3612 H 350.281 2.36946 2.89495 0
M  V30 3613 H 351.614 3.10221 3.82131 0
M  V30 3614 N 353.266 -1.05314 1.17247 0
M  V30 3615 C 354.506 -1.79869 0.970898 0
M  V30 3616 C 354.87 -1.85594 -0.491808 0
M  V30 3617 O 356.071 -2.56229 -0.812409 0
M  V30 3618 C 354.342 -3.19937 1.59295 0
M  V30 3619 S 355.901 -4.10986 1.53741 0
M  V30 3620 H 352.719 -0.61949 0.348931 0
M  V30 3621 H 355.321 -1.26368 1.49169 0
M  V30 3622 H 354.025 -3.13372 2.65003 0
M  V30 3623 H 353.556 -3.78515 1.07191 0
M  V30 3624 H 355.571 -4.93203 0.544537 0
M  V30 3625 N 354.744 -0.972509 -1.24016 0
M  V30 3626 C 355.676 -0.464375 -2.24446 0
M  V30 3627 C 356.689 0.4295 -1.57032 0
M  V30 3628 O 357.878 0.234902 -1.76948 0
M  V30 3629 C 354.978 0.348385 -3.37105 0
M  V30 3630 C 354.151 -0.53673 -4.34094 0
M  V30 3631 C 353.21 0.220838 -5.25736 0
M  V30 3632 O 352.236 -0.386867 -5.67884 0
M  V30 3633 N 353.438 1.50907 -5.60542 0
M  V30 3634 H 356.203 -1.32788 -2.68677 0
M  V30 3635 H 353.764 -0.844877 -1.38107 0
M  V30 3636 H 355.756 0.863341 -3.95384 0
M  V30 3637 H 354.326 1.11285 -2.92121 0
M  V30 3638 H 353.546 -1.23261 -3.74433 0
M  V30 3639 H 354.834 -1.14022 -4.95859 0
M  V30 3640 H 354.232 2.02444 -5.28236 0
M  V30 3641 H 352.789 1.96962 -6.21329 0
M  V30 3642 N 356.222 1.38976 -0.743202 0
M  V30 3643 C 357.47 1.99948 -0.29417 0
M  V30 3644 C 357.791 1.59279 1.12495 0
M  V30 3645 O 357.061 0.844808 1.76748 0
M  V30 3646 H 355.641 0.739473 -0.105774 0
M  V30 3647 H 358.303 1.699 -0.954986 0
M  V30 3648 H 357.399 3.10142 -0.349056 0
M  V30 3649 N 357.7 0.491464 1.49741 0
M  V30 3650 C 358.63 -0.28154 2.31796 0
M  V30 3651 C 359.611 -0.971473 1.3963 0
M  V30 3652 O 360.796 -0.964719 1.68543 0
M  V30 3653 C 357.926 -1.35203 3.19902 0
M  V30 3654 C 356.88 -0.782529 4.20786 0
M  V30 3655 C 356.206 -1.95283 4.97764 0
M  V30 3656 C 357.506 0.21999 5.21837 0
M  V30 3657 H 359.2 0.403355 2.96671 0
M  V30 3658 H 356.746 0.195425 1.42668 0
M  V30 3659 H 358.699 -1.90045 3.76113 0
M  V30 3660 H 357.423 -2.06598 2.52953 0
M  V30 3661 H 356.082 -0.255928 3.65706 0
M  V30 3662 H 355.73 -2.65423 4.2727 0
M  V30 3663 H 355.43 -1.57789 5.66018 0
M  V30 3664 H 356.954 -2.50577 5.56816 0
M  V30 3665 H 358.368 -0.23996 5.72798 0
M  V30 3666 H 356.765 0.51026 5.97927 0
M  V30 3667 H 357.835 1.13911 4.7133 0
M  V30 3668 N 359.178 -1.55987 0.224894 0
M  V30 3669 C 360.088 -2.24066 -0.69511 0
M  V30 3670 C 361.104 -1.24939 -1.21104 0
M  V30 3671 O 362.28 -1.5776 -1.25195 0
M  V30 3672 C 359.345 -2.90983 -1.88493 0
M  V30 3673 C 358.406 -4.05462 -1.41064 0
M  V30 3674 C 357.639 -4.69179 -2.54375 0
M  V30 3675 O 357.862 -4.31895 -3.72589 0
M  V30 3676 O 356.796 -5.58108 -2.25386 0
M  V30 3677 H 360.622 -3.03353 -0.145149 0
M  V30 3678 H 358.207 -1.49399 -0.00569476 0
M  V30 3679 H 360.089 -3.33209 -2.57972 0
M  V30 3680 H 358.764 -2.14653 -2.42293 0
M  V30 3681 H 357.671 -3.67798 -0.683774 0
M  V30 3682 H 359.004 -4.83545 -0.918985 0
M  V30 3683 N 360.656 0.0484629 -1.57525 0
M  V30 3684 C 361.619 1.03956 -2.04269 0
M  V30 3685 C 362.619 1.30211 -0.943496 0
M  V30 3686 O 363.809 1.25539 -1.20771 0
M  V30 3687 C 360.941 2.37742 -2.44319 0
M  V30 3688 H 362.134 0.636182 -2.93075 0
M  V30 3689 H 359.687 0.294811 -1.53494 0
M  V30 3690 H 360.422 2.82866 -1.5861 0
M  V30 3691 H 360.207 2.20021 -3.24551 0
M  V30 3692 H 361.697 3.08936 -2.80978 0
M  V30 3693 N 362.134 1.5431 0.320358 0
M  V30 3694 C 363.55 1.45091 0.664889 0
M  V30 3695 C 363.75 0.626382 1.91517 0
M  V30 3696 O 362.806 0.126443 2.52183 0
M  V30 3697 C 364.119 2.88848 0.83591 0
M  V30 3698 C 365.667 2.9877 0.933046 0
M  V30 3699 C 366.142 4.43683 1.13621 0
M  V30 3700 N 367.633 4.47309 1.20287 0
M  V30 3701 C 368.368 5.56595 1.37801 0
M  V30 3702 N 367.864 6.75844 1.52338 0
M  V30 3703 N 369.657 5.44248 1.40535 0
M  V30 3704 H 361.808 2.06398 -0.501374 0
M  V30 3705 H 364.071 0.933963 -0.162534 0
M  V30 3706 H 363.777 3.51698 -0.0116092 0
M  V30 3707 H 363.651 3.35148 1.73078 0
M  V30 3708 H 366.038 2.36045 1.77107 0
M  V30 3709 H 366.119 2.55796 0.0145782 0
M  V30 3710 H 365.763 5.06995 0.303032 0
M  V30 3711 H 365.693 4.84269 2.0686 0
M  V30 3712 H 368.184 3.61388 1.10485 0
M  V30 3713 H 368.497 7.54892 1.65403 0
M  V30 3714 H 366.842 6.78746 1.4943 0
M  V30 3715 H 370.033 4.50038 1.28777 0
M  V30 3716 H 370.206 6.29473 1.53842 0
M  V30 3717 N 363.613 -0.582584 1.46437 0
M  V30 3718 C 364.561 -1.71272 1.5738 0
M  V30 3719 C 365.555 -1.63524 0.44229 0
M  V30 3720 O 366.761 -1.69016 0.619166 0
M  V30 3721 H 363.136 -0.566273 0.494813 0
M  V30 3722 H 365.107 -1.59174 2.52401 0
M  V30 3723 C 363.856 -3.09658 1.58136 0
M  V30 3724 H 363.179 -3.16291 2.44541 0
M  V30 3725 H 364.619 -3.88494 1.69847 0
M  V30 3726 C 363.078 -3.3547 0.310026 0
M  V30 3727 O 363.608 -3.97199 -0.599683 0
M  V30 3728 N 361.814 -2.89925 0.197901 0
M  V30 3729 H 361.361 -2.39873 0.93909 0
M  V30 3730 H 361.319 -3.07568 -0.65185 0
M  V30 3731 N 365.091 -1.34144 -0.827227 0
M  V30 3732 C 366.507 -1.13732 -1.11969 0
M  V30 3733 C 366.707 0.0640463 -2.01398 0
M  V30 3734 O 365.763 0.740856 -2.41387 0
M  V30 3735 C 367.076 -2.43047 -1.77055 0
M  V30 3736 C 368.624 -2.49063 -1.89569 0
M  V30 3737 C 369.099 -3.78369 -2.58072 0
M  V30 3738 N 370.59 -3.79505 -2.65575 0
M  V30 3739 C 371.325 -4.76274 -3.19297 0
M  V30 3740 N 370.821 -5.83424 -3.73616 0
M  V30 3741 N 372.614 -4.63735 -3.17658 0
M  V30 3742 H 364.765 -2.11126 -0.232296 0
M  V30 3743 H 367.028 -0.933424 -0.165602 0
M  V30 3744 H 366.734 -3.31025 -1.18807 0
M  V30 3745 H 366.608 -2.56066 -2.76966 0
M  V30 3746 H 368.995 -1.61527 -2.46968 0
M  V30 3747 H 369.076 -2.39975 -0.885745 0
M  V30 3748 H 368.72 -4.66293 -2.01329 0
M  V30 3749 H 368.65 -3.84737 -3.59562 0
M  V30 3750 H 371.141 -3.02074 -2.27068 0
M  V30 3751 H 371.454 -6.53282 -4.12846 0
M  V30 3752 H 369.799 -5.87143 -3.71871 0
M  V30 3753 H 372.99 -3.79177 -2.74486 0
M  V30 3754 H 373.163 -5.39318 -3.59221 0
M  V30 3755 N 366.569 1.04691 -1.17803 0
M  V30 3756 C 367.479 2.16057 -0.914151 0
M  V30 3757 C 368.495 1.73589 0.119503 0
M  V30 3758 O 369.671 2.01308 -0.0609468 0
M  V30 3759 C 366.736 3.4394 -0.436603 0
M  V30 3760 C 365.797 4.00825 -1.53746 0
M  V30 3761 C 365.03 5.22604 -1.0826 0
M  V30 3762 O 365.253 5.70367 0.0612244 0
M  V30 3763 O 364.187 5.7186 -1.87775 0
M  V30 3764 H 368.013 2.41169 -1.84584 0
M  V30 3765 H 365.598 1.1453 -0.959334 0
M  V30 3766 H 367.48 4.21024 -0.178057 0
M  V30 3767 H 366.155 3.20316 0.466869 0
M  V30 3768 H 365.062 3.25158 -1.84995 0
M  V30 3769 H 366.395 4.28778 -2.41683 0
M  V30 3770 N 368.047 0.979072 1.23499 0
M  V30 3771 C 368.977 0.537606 2.27227 0
M  V30 3772 C 369.958 -0.428539 1.64613 0
M  V30 3773 O 371.143 -0.322191 1.91509 0
M  V30 3774 C 368.273 -0.162052 3.46922 0
M  V30 3775 C 367.227 0.721242 4.21879 0
M  V30 3776 C 366.553 -0.110555 5.34586 0
M  V30 3777 C 367.853 2.01141 4.82016 0
M  V30 3778 H 369.547 1.40462 2.64406 0
M  V30 3779 H 367.093 0.67684 1.27102 0
M  V30 3780 H 369.046 -0.482192 4.18632 0
M  V30 3781 H 367.77 -1.06351 3.08799 0
M  V30 3782 H 366.429 1.02482 3.51984 0
M  V30 3783 H 366.077 -1.0125 4.92704 0
M  V30 3784 H 365.777 0.477325 5.85658 0
M  V30 3785 H 367.301 -0.425107 6.09118 0
M  V30 3786 H 368.715 1.75612 5.45741 0
M  V30 3787 H 367.112 2.54695 5.43369 0
M  V30 3788 H 368.182 2.69909 4.02836 0
M  V30 3789 N 369.525 -1.3858 0.750561 0
M  V30 3790 C 370.472 -2.30483 0.120835 0
M  V30 3791 C 371.442 -1.50022 -0.712923 0
M  V30 3792 O 372.627 -1.78662 -0.669676 0
M  V30 3793 C 369.767 -3.36431 -0.768666 0
M  V30 3794 C 368.88 -4.31927 0.0793922 0
M  V30 3795 C 368.015 -5.24944 -0.81283 0
M  V30 3796 C 367.054 -6.12088 0.0390447 0
M  V30 3797 N 366.191 -6.97412 -0.809969 0
M  V30 3798 H 371.031 -2.83761 0.91015 0
M  V30 3799 H 368.568 -1.39707 0.460463 0
M  V30 3800 H 370.526 -3.96462 -1.29898 0
M  V30 3801 H 369.156 -2.8457 -1.5238 0
M  V30 3802 H 368.208 -3.73382 0.727303 0
M  V30 3803 H 369.52 -4.93319 0.737401 0
M  V30 3804 H 368.674 -5.90078 -1.41042 0
M  V30 3805 H 367.413 -4.63911 -1.50458 0
M  V30 3806 H 366.418 -5.45952 0.649328 0
M  V30 3807 H 367.643 -6.75189 0.727809 0
M  V30 3808 H 365.589 -6.38931 -1.48672 0
M  V30 3809 H 365.506 -7.55712 -0.208789 0
M  V30 3810 H 366.774 -7.66959 -1.39263 0
M  V30 3811 N 371.003 -0.499398 -1.49478 0
M  V30 3812 C 371.913 0.284489 -2.32869 0
M  V30 3813 C 372.929 0.968885 -1.44529 0
M  V30 3814 O 374.105 0.95062 -1.77553 0
M  V30 3815 C 371.17 1.33594 -3.19928 0
M  V30 3816 C 370.231 0.665149 -4.24116 0
M  V30 3817 C 369.464 1.6665 -5.07014 0
M  V30 3818 O 369.687 2.89618 -4.91404 0
M  V30 3819 O 368.621 1.22271 -5.8935 0
M  V30 3820 H 372.447 -0.39802 -3.01081 0
M  V30 3821 H 370.032 -0.260758 -1.47107 0
M  V30 3822 H 371.914 1.94431 -3.73864 0
M  V30 3823 H 370.589 2.0014 -2.54412 0
M  V30 3824 H 369.496 0.0170769 -3.74096 0
M  V30 3825 H 370.829 0.0421555 -4.92182 0
M  V30 3826 N 372.481 1.55866 -0.233164 0
M  V30 3827 C 373.897 1.59133 0.121988 0
M  V30 3828 C 374.097 1.25016 1.58029 0
M  V30 3829 O 373.153 0.990922 2.32243 0
M  V30 3830 C 374.466 2.99932 -0.214792 0
M  V30 3831 C 376.014 3.12601 -0.157971 0
M  V30 3832 C 376.489 4.55597 -0.46859 0
M  V30 3833 N 377.98 4.61305 -0.418585 0
M  V30 3834 C 378.715 5.69903 -0.63227 0
M  V30 3835 N 378.211 6.86819 -0.90835 0
M  V30 3836 N 380.004 5.59264 -0.563913 0
M  V30 3837 H 372.155 1.76315 -1.18434 0
M  V30 3838 H 374.418 0.820093 -0.475553 0
M  V30 3839 H 374.124 3.29588 -1.22739 0
M  V30 3840 H 373.998 3.74327 0.464691 0
M  V30 3841 H 376.385 2.82735 0.845283 0
M  V30 3842 H 376.466 2.40511 -0.871102 0
M  V30 3843 H 376.11 4.86182 -1.46934 0
M  V30 3844 H 376.04 5.25928 0.265865 0
M  V30 3845 H 378.531 3.77297 -0.213368 0
M  V30 3846 H 378.844 7.65507 -1.05919 0
M  V30 3847 H 377.189 6.88536 -0.945673 0
M  V30 3848 H 380.38 4.66802 -0.348372 0
M  V30 3849 H 380.553 6.43831 -0.733847 0
M  V30 3850 N 373.959 -0.0401083 1.57549 0
M  V30 3851 C 374.922 -1.02871 2.04817 0
M  V30 3852 C 375.922 -1.29708 0.950388 0
M  V30 3853 O 377.112 -1.24897 1.21435 0
M  V30 3854 C 374.244 -2.36443 2.45576 0
M  V30 3855 H 375.437 -0.620631 2.93408 0
M  V30 3856 H 372.99 -0.286667 1.53649 0
M  V30 3857 H 373.725 -2.82021 1.60108 0
M  V30 3858 H 373.51 -2.18296 3.25713 0
M  V30 3859 H 375 -3.07441 2.82612 0
M  V30 3860 N 375.437 -1.54477 -0.31217 0
M  V30 3861 C 376.347 -1.87695 -1.4074 0
M  V30 3862 C 377.363 -0.769975 -1.56036 0
M  V30 3863 O 378.539 -1.06537 -1.70915 0
M  V30 3864 C 375.604 -2.10755 -2.75287 0
M  V30 3865 C 374.665 -3.34514 -2.69071 0
M  V30 3866 C 373.898 -3.56465 -3.97201 0
M  V30 3867 O 374.121 -2.81637 -4.96021 0
M  V30 3868 O 373.055 -4.49964 -3.9977 0
M  V30 3869 H 376.881 -2.80849 -1.15574 0
M  V30 3870 H 374.466 -1.40526 -0.507228 0
M  V30 3871 H 376.348 -2.27188 -3.54913 0
M  V30 3872 H 375.023 -1.20788 -3.0032 0
M  V30 3873 H 373.93 -3.23456 -1.87955 0
M  V30 3874 H 375.263 -4.24575 -2.48992 0
M  V30 3875 N 376.915 0.57481 -1.46744 0
M  V30 3876 C 378.14 1.36341 -1.56288 0
M  V30 3877 C 378.565 1.86954 -0.207347 0
M  V30 3878 O 377.923 1.62006 0.813871 0
M  V30 3879 C 377.971 2.52147 -2.57787 0
M  V30 3880 O 377.075 3.53834 -2.11838 0
M  V30 3881 H 376.416 0.405713 -0.525636 0
M  V30 3882 H 378.946 0.696453 -1.92382 0
M  V30 3883 H 378.956 2.98958 -2.77648 0
M  V30 3884 H 377.631 2.14663 -3.5622 0
M  V30 3885 H 376.208 3.1345 -2.01999 0
M  V30 3886 N 378.394 1.34581 0.820102 0
M  V30 3887 C 379.64 1.27285 1.57881 0
M  V30 3888 C 379.973 -0.156137 1.93571 0
M  V30 3889 O 379.248 -1.10222 1.60254 0
M  V30 3890 C 379.531 2.16639 2.87645 0
M  V30 3891 C 379.384 3.68088 2.58517 0
M  V30 3892 C 380.703 2.05378 3.8924 0
M  V30 3893 H 377.822 0.463714 0.572833 0
M  V30 3894 H 380.464 1.64859 0.944539 0
M  V30 3895 H 378.614 1.84725 3.41773 0
M  V30 3896 H 380.286 4.10382 2.10676 0
M  V30 3897 H 378.529 3.89038 1.91917 0
M  V30 3898 H 379.2 4.2598 3.51063 0
M  V30 3899 H 381.676 2.33404 3.44473 0
M  V30 3900 H 380.552 2.7012 4.77835 0
M  V30 3901 H 380.813 1.0316 4.29896 0
M  V30 3902 N 379.872 -1.04064 1.18357 0
M  V30 3903 C 380.782 -2.15569 0.925596 0
M  V30 3904 C 381.798 -1.7365 -0.110295 0
M  V30 3905 O 382.974 -2.01273 0.0716218 0
M  V30 3906 C 380.039 -3.43704 0.454836 0
M  V30 3907 C 379.1 -4.00004 1.55869 0
M  V30 3908 C 378.333 -5.22023 1.1103 0
M  V30 3909 O 378.556 -5.70392 -0.0309756 0
M  V30 3910 O 377.49 -5.70856 1.90805 0
M  V30 3911 H 381.316 -2.40187 1.8586 0
M  V30 3912 H 378.901 -1.1402 0.965394 0
M  V30 3913 H 380.783 -4.20923 0.200382 0
M  V30 3914 H 379.458 -3.20559 -0.449876 0
M  V30 3915 H 378.365 -3.24172 1.86716 0
M  V30 3916 H 379.698 -4.2749 2.43953 0
M  V30 3917 N 381.35 -0.985608 -1.22978 0
M  V30 3918 C 382.766 -0.695104 -1.43668 0
M  V30 3919 C 382.966 0.736866 -1.87543 0
M  V30 3920 O 382.022 1.50868 -2.02473 0
M  V30 3921 C 383.335 -1.69447 -2.48412 0
M  V30 3922 C 384.883 -1.70909 -2.62219 0
M  V30 3923 C 385.358 -2.6969 -3.70178 0
M  V30 3924 N 386.849 -2.6824 -3.77626 0
M  V30 3925 C 387.584 -3.41339 -4.60733 0
M  V30 3926 N 387.08 -4.24015 -5.4789 0
M  V30 3927 N 388.873 -3.30079 -4.54977 0
M  V30 3928 H 381.024 -1.91054 -0.928016 0
M  V30 3929 H 383.287 -0.823553 -0.469536 0
M  V30 3930 H 382.993 -2.7188 -2.23102 0
M  V30 3931 H 382.867 -1.48147 -3.46889 0
M  V30 3932 H 385.254 -0.691785 -2.86877 0
M  V30 3933 H 385.335 -1.96276 -1.6404 0
M  V30 3934 H 384.979 -3.71566 -3.46268 0
M  V30 3935 H 384.909 -2.41595 -4.67909 0
M  V30 3936 H 387.4 -2.08243 -3.15346 0
M  V30 3937 H 387.713 -4.76636 -6.08308 0
M  V30 3938 H 386.058 -4.28104 -5.47496 0
M  V30 3939 H 389.249 -2.64937 -3.85909 0
M  V30 3940 H 389.422 -3.87308 -5.19516 0
M  V30 3941 N 382.828 1.3818 -0.7579 0
M  V30 3942 C 383.738 2.3421 -0.135247 0
M  V30 3943 C 384.754 1.59487 0.695683 0
M  V30 3944 O 385.93 1.91657 0.618832 0
M  V30 3945 C 382.995 3.3862 0.744139 0
M  V30 3946 C 382.056 4.2918 -0.101658 0
M  V30 3947 C 381.289 5.28603 0.735851 0
M  V30 3948 O 381.512 5.35166 1.97366 0
M  V30 3949 O 380.446 6.01707 0.152372 0
M  V30 3950 H 384.272 2.8916 -0.928436 0
M  V30 3951 H 381.857 1.40101 -0.518855 0
M  V30 3952 H 383.739 4.02539 1.2466 0
M  V30 3953 H 382.414 2.86019 1.51575 0
M  V30 3954 H 381.321 3.68407 -0.650167 0
M  V30 3955 H 382.654 4.85048 -0.836024 0
M  V30 3956 N 384.306 0.507319 1.49211 0
M  V30 3957 C 385.555 -0.0368315 2.01666 0
M  V30 3958 C 385.868 -1.37459 1.39156 0
M  V30 3959 O 387.074 -2.00579 1.82976 0
M  V30 3960 C 385.53 -0.116089 3.59713 0
M  V30 3961 C 385.138 1.2154 4.31198 0
M  V30 3962 C 386.882 -0.610268 4.2009 0
M  V30 3963 C 384.789 1.09796 5.81119 0
M  V30 3964 H 383.719 -0.0175376 0.753796 0
M  V30 3965 H 386.37 0.647691 1.71689 0
M  V30 3966 H 384.752 -0.8652 3.86433 0
M  V30 3967 H 385.926 1.9783 4.16173 0
M  V30 3968 H 384.241 1.64352 3.82593 0
M  V30 3969 H 386.838 -0.715742 5.29888 0
M  V30 3970 H 387.181 -1.61064 3.8388 0
M  V30 3971 H 387.714 0.0824916 3.97714 0
M  V30 3972 H 384.453 2.0728 6.21864 0
M  V30 3973 H 383.973 0.376058 5.9862 0
M  V30 3974 H 385.652 0.779281 6.4229 0
M  V30 3975 N 385.784 -1.5574 0.241426 0
M  V30 3976 C 386.716 -2.18469 -0.693091 0
M  V30 3977 C 387.729 -1.15942 -1.14286 0
M  V30 3978 O 388.918 -1.42832 -1.07058 0
M  V30 3979 C 386.018 -2.7696 -1.95311 0
M  V30 3980 C 385.191 -4.04853 -1.65568 0
M  V30 3981 C 384.25 -4.47715 -2.76474 0
M  V30 3982 O 383.276 -5.14205 -2.44094 0
M  V30 3983 N 384.478 -4.15044 -4.05855 0
M  V30 3984 H 387.243 -2.99292 -0.156388 0
M  V30 3985 H 384.804 -1.61784 0.0611752 0
M  V30 3986 H 386.796 -3.02594 -2.68736 0
M  V30 3987 H 385.366 -2.00326 -2.39975 0
M  V30 3988 H 384.586 -3.86865 -0.756886 0
M  V30 3989 H 385.874 -4.88246 -1.43153 0
M  V30 3990 H 385.272 -3.61654 -4.34998 0
M  V30 3991 H 383.829 -4.45526 -4.75762 0
M  V30 3992 N 387.262 0.0317525 -1.57568 0
M  V30 3993 C 388.492 0.733884 -1.93126 0
M  V30 3994 C 388.9 1.69563 -0.839352 0
M  V30 3995 O 388.243 1.82681 0.193175 0
M  V30 3996 C 388.305 1.54798 -3.24465 0
M  V30 3997 C 387.969 0.751304 -4.50782 0
M  V30 3998 C 388.966 0.0527632 -5.19873 0
M  V30 3999 C 386.651 0.706639 -4.97305 0
M  V30 4000 C 388.645 -0.679774 -6.33765 0
M  V30 4001 C 386.332 -0.0296449 -6.11093 0
M  V30 4002 C 387.33 -0.721614 -6.79177 0
M  V30 4003 O 387.018 -1.44595 -7.90789 0
M  V30 4004 H 386.75 0.211459 -0.642076 0
M  V30 4005 H 389.304 -0.00585615 -2.05399 0
M  V30 4006 H 387.534 2.33147 -3.08512 0
M  V30 4007 H 389.223 2.13247 -3.4537 0
M  V30 4008 H 389.989 0.0783188 -4.84937 0
M  V30 4009 H 385.868 1.23474 -4.44157 0
M  V30 4010 H 389.412 -1.22042 -6.86842 0
M  V30 4011 H 385.309 -0.0571331 -6.45475 0
M  V30 4012 H 386.077 -1.35935 -8.07133 0
M  V30 4013 N 388.74 1.54641 0.303973 0
M  V30 4014 C 389.986 1.74038 1.04109 0
M  V30 4015 C 390.319 0.523051 1.87024 0
M  V30 4016 O 389.594 -0.479874 1.88487 0
M  V30 4017 C 389.877 3.02761 1.94955 0
M  V30 4018 C 389.73 4.34787 1.1524 0
M  V30 4019 C 391.049 3.27336 2.94175 0
M  V30 4020 H 388.168 0.63323 0.377079 0
M  V30 4021 H 390.81 1.87354 0.316001 0
M  V30 4022 H 388.96 2.9154 2.56782 0
M  V30 4023 H 390.632 4.57922 0.557236 0
M  V30 4024 H 388.875 4.31407 0.455053 0
M  V30 4025 H 389.546 5.21116 1.8205 0
M  V30 4026 H 392.022 3.38148 2.42477 0
M  V30 4027 H 390.898 4.18726 3.54908 0
M  V30 4028 H 391.159 2.45491 3.67677 0
M  V30 4029 N 390.218 -0.567019 1.47046 0
M  V30 4030 C 391.165 -1.67489 1.58796 0
M  V30 4031 C 392.135 -1.60399 0.43144 0
M  V30 4032 O 393.32 -1.79378 0.650233 0
M  V30 4033 C 390.46 -3.05821 1.59899 0
M  V30 4034 C 389.573 -3.2342 2.86397 0
M  V30 4035 C 388.708 -4.52093 2.789 0
M  V30 4036 C 387.747 -4.6309 4.00267 0
M  V30 4037 N 386.884 -5.83106 3.91064 0
M  V30 4038 H 391.724 -1.56785 2.53422 0
M  V30 4039 H 389.261 -0.763896 1.2571 0
M  V30 4040 H 391.219 -3.8591 1.58522 0
M  V30 4041 H 389.849 -3.15384 0.687929 0
M  V30 4042 H 388.901 -2.3683 2.97684 0
M  V30 4043 H 390.213 -3.27412 3.76301 0
M  V30 4044 H 389.367 -5.4043 2.75718 0
M  V30 4045 H 388.106 -4.50565 1.86662 0
M  V30 4046 H 387.111 -3.73168 4.03765 0
M  V30 4047 H 388.336 -4.66386 4.93621 0
M  V30 4048 H 386.282 -5.82546 3.01623 0
M  V30 4049 H 386.199 -5.88434 4.74638 0
M  V30 4050 H 387.467 -6.73831 3.91882 0
M  V30 4051 N 391.696 -1.35014 -0.812953 0
M  V30 4052 C 392.973 -1.18502 -1.55617 0
M  V30 4053 C 393.353 0.238421 -2.09749 0
M  V30 4054 O 392.701 1.2411 -1.91857 0
M  V30 4055 C 392.911 -2.24783 -2.66971 0
M  V30 4056 C 394.259 -2.60268 -3.35478 0
M  V30 4057 O 395.283 -2.23648 -2.77236 0
M  V30 4058 O 394.142 -3.2321 -4.40678 0
M  V30 4059 H 391.236 -0.459984 -0.687272 0
M  V30 4060 H 393.782 -1.46677 -0.853464 0
M  V30 4061 H 392.554 -3.20284 -2.24798 0
M  V30 4062 H 392.177 -1.97841 -3.44884 0
M  V30 4063 N 393.175 1.03435 -1.18907 0
M  V30 4064 C 394.105 2.13503 -0.945448 0
M  V30 4065 C 395.086 1.69682 0.119189 0
M  V30 4066 O 396.271 1.94169 -0.034707 0
M  V30 4067 C 393.401 3.44004 -0.477316 0
M  V30 4068 C 392.355 4.0148 -1.48316 0
M  V30 4069 C 391.681 5.27537 -0.872311 0
M  V30 4070 C 392.981 4.36921 -2.86177 0
M  V30 4071 H 394.675 2.34141 -1.86597 0
M  V30 4072 H 392.221 1.12523 -0.898584 0
M  V30 4073 H 394.174 4.20372 -0.294204 0
M  V30 4074 H 392.898 3.23072 0.478786 0
M  V30 4075 H 391.557 3.27201 -1.65332 0
M  V30 4076 H 391.205 5.02917 0.0911752 0
M  V30 4077 H 390.905 5.66954 -1.54393 0
M  V30 4078 H 392.429 6.06576 -0.699871 0
M  V30 4079 H 393.843 5.04248 -2.72776 0
M  V30 4080 H 392.24 4.87405 -3.50081 0
M  V30 4081 H 393.31 3.46466 -3.39248 0
M  V30 4082 N 394.653 0.992116 1.22453 0
M  V30 4083 C 395.583 0.561677 2.26644 0
M  V30 4084 C 396.564 -0.411055 1.65059 0
M  V30 4085 O 397.749 -0.301861 1.9184 0
M  V30 4086 C 394.879 -0.125247 3.47074 0
M  V30 4087 C 393.833 0.765948 4.21091 0
M  V30 4088 C 393.159 -0.0538484 5.34673 0
M  V30 4089 C 394.459 2.06242 4.79856 0
M  V30 4090 H 396.153 1.43259 2.62902 0
M  V30 4091 H 393.699 0.690283 1.26377 0
M  V30 4092 H 395.652 -0.437764 4.1912 0
M  V30 4093 H 394.376 -1.03069 3.0991 0
M  V30 4094 H 393.035 1.0621 3.50878 0
M  V30 4095 H 392.683 -0.960188 4.9375 0
M  V30 4096 H 392.383 0.539415 5.85119 0
M  V30 4097 H 393.907 -0.360477 6.09535 0
M  V30 4098 H 395.321 1.8139 5.43848 0
M  V30 4099 H 393.718 2.60444 5.40638 0
M  V30 4100 H 394.788 2.74167 3.99951 0
M  V30 4101 N 396.131 -1.37776 0.765217 0
M  V30 4102 C 397.38 -1.99092 0.323307 0
M  V30 4103 C 397.693 -1.61434 -1.10446 0
M  V30 4104 O 398.899 -2.15805 -1.64743 0
M  V30 4105 C 397.355 -3.56019 0.527098 0
M  V30 4106 C 396.963 -4.0262 1.96471 0
M  V30 4107 C 398.707 -4.2424 0.148483 0
M  V30 4108 C 396.614 -5.52233 2.11644 0
M  V30 4109 H 395.544 -0.744846 0.117137 0
M  V30 4110 H 398.195 -1.57391 0.943417 0
M  V30 4111 H 396.577 -3.95667 -0.162372 0
M  V30 4112 H 397.751 -3.74234 2.68859 0
M  V30 4113 H 396.066 -3.47161 2.29931 0
M  V30 4114 H 398.663 -5.34159 0.240456 0
M  V30 4115 H 399.006 -4.06446 -0.900422 0
M  V30 4116 H 399.539 -3.89872 0.79025 0
M  V30 4117 H 396.278 -5.74945 3.1483 0
M  V30 4118 H 395.798 -5.82324 1.4373 0
M  V30 4119 H 397.477 -6.18106 1.91193 0
M  V30 4120 N 397.609 -0.515225 -1.4894 0
M  V30 4121 C 398.519 0.259774 -2.33157 0
M  V30 4122 C 399.535 0.953501 -1.45548 0
M  V30 4123 O 400.711 0.931735 -1.78552 0
M  V30 4124 C 397.776 1.30193 -3.21326 0
M  V30 4125 C 396.837 0.620129 -4.24797 0
M  V30 4126 C 396.07 1.61263 -5.08753 0
M  V30 4127 O 396.293 2.84389 -4.94448 0
M  V30 4128 O 395.227 1.16013 -5.90614 0
M  V30 4129 H 399.053 -0.429932 -3.00641 0
M  V30 4130 H 396.638 -0.276346 -1.46822 0
M  V30 4131 H 398.52 1.90455 -3.75905 0
M  V30 4132 H 397.195 1.97431 -2.56521 0
M  V30 4133 H 396.102 -0.0226019 -3.74093 0
M  V30 4134 H 397.435 -0.0100493 -4.92199 0
M  V30 4135 N 399.087 1.5561 -0.249682 0
M  V30 4136 C 400.333 1.99306 0.374841 0
M  V30 4137 C 400.666 1.13767 1.57387 0
M  V30 4138 O 399.941 0.201711 1.93451 0
M  V30 4139 C 400.224 3.51507 0.781986 0
M  V30 4140 C 400.077 4.4781 -0.422629 0
M  V30 4141 C 401.396 4.08884 1.62793 0
M  V30 4142 H 398.515 0.724572 0.134773 0
M  V30 4143 H 401.157 1.86719 -0.351549 0
M  V30 4144 H 399.307 3.62363 1.4009 0
M  V30 4145 H 400.979 4.48931 -1.06108 0
M  V30 4146 H 399.222 4.20518 -1.06524 0
M  V30 4147 H 399.893 5.51919 -0.0943766 0
M  V30 4148 H 402.369 4.01147 1.10547 0
M  V30 4149 H 401.245 5.1564 1.88166 0
M  V30 4150 H 401.506 3.57515 2.60068 0
M  V30 4151 N 400.565 -0.0233959 1.57583 0
M  V30 4152 C 401.795 -0.723631 1.93513 0
M  V30 4153 C 402.203 -1.69115 0.848333 0
M  V30 4154 O 401.546 -1.82781 -0.183484 0
M  V30 4155 C 401.608 -1.53075 3.25282 0
M  V30 4156 C 401.272 -0.727388 4.51174 0
M  V30 4157 C 402.269 -0.0251924 5.19894 0
M  V30 4158 C 399.954 -0.680256 4.97672 0
M  V30 4159 C 401.948 0.713374 6.33395 0
M  V30 4160 C 399.635 0.0620523 6.11068 0
M  V30 4161 C 400.633 0.757622 6.78785 0
M  V30 4162 O 400.321 1.48787 7.90011 0
M  V30 4163 H 400.053 -0.208051 0.643188 0
M  V30 4164 H 402.607 0.0167489 2.05393 0
M  V30 4165 H 400.837 -2.31508 3.09744 0
M  V30 4166 H 402.526 -2.11413 3.46496 0
M  V30 4167 H 403.292 -0.0526003 4.84971 0
M  V30 4168 H 399.171 -1.21116 4.44805 0
M  V30 4169 H 402.715 1.25683 6.86185 0
M  V30 4170 H 398.612 0.0913634 6.45435 0
M  V30 4171 H 399.38 1.40213 8.06401 0
M  V30 4172 N 402.043 -1.548 -0.295768 0
M  V30 4173 C 402.99 -1.86113 -1.36494 0
M  V30 4174 C 403.96 -0.7105 -1.50137 0
M  V30 4175 O 405.145 -0.959626 -1.64912 0
M  V30 4176 C 402.285 -2.11861 -2.72413 0
M  V30 4177 C 401.398 -3.39471 -2.67177 0
M  V30 4178 C 400.533 -3.55035 -3.95125 0
M  V30 4179 C 399.572 -4.76418 -3.84308 0
M  V30 4180 N 398.709 -4.8876 -5.04042 0
M  V30 4181 H 403.549 -2.77314 -1.09091 0
M  V30 4182 H 401.086 -1.37315 -0.52753 0
M  V30 4183 H 403.044 -2.24786 -3.51464 0
M  V30 4184 H 401.674 -1.2392 -2.98066 0
M  V30 4185 H 400.726 -3.35139 -1.79962 0
M  V30 4186 H 402.038 -4.28646 -2.55076 0
M  V30 4187 H 401.192 -3.67653 -4.82614 0
M  V30 4188 H 399.931 -2.64002 -4.10066 0
M  V30 4189 H 398.936 -4.63827 -2.95202 0
M  V30 4190 H 400.161 -5.68863 -3.70906 0
M  V30 4191 H 398.107 -4.00652 -5.19436 0
M  V30 4192 H 398.024 -5.71945 -4.94384 0
M  V30 4193 H 399.292 -5.0574 -5.93167 0
M  V30 4194 N 403.521 0.559213 -1.47345 0
M  V30 4195 C 404.484 1.64854 -1.59235 0
M  V30 4196 C 405.484 1.53851 -0.467607 0
M  V30 4197 O 406.674 1.58045 -0.732617 0
M  V30 4198 C 403.806 3.04388 -1.53496 0
M  V30 4199 H 404.999 1.55662 -2.56339 0
M  V30 4200 H 402.552 0.778973 -1.35505 0
M  V30 4201 H 403.287 3.19115 -0.577604 0
M  V30 4202 H 403.072 3.13783 -2.35123 0
M  V30 4203 H 404.562 3.83642 -1.6495 0
M  V30 4204 N 404.999 1.35443 0.805782 0
M  V30 4205 C 406.415 1.15499 1.10146 0
M  V30 4206 C 406.615 -0.0319975 2.01475 0
M  V30 4207 O 405.671 -0.70236 2.42535 0
M  V30 4208 C 406.984 2.45833 1.73166 0
M  V30 4209 C 408.532 2.52047 1.85583 0
M  V30 4210 C 409.007 3.82427 2.52019 0
M  V30 4211 N 410.498 3.83682 2.59504 0
M  V30 4212 C 411.233 4.81294 3.11679 0
M  V30 4213 N 410.729 5.89294 3.64287 0
M  V30 4214 N 412.522 4.6873 3.1024 0
M  V30 4215 H 404.673 2.11469 0.198678 0
M  V30 4216 H 406.936 0.93594 0.150731 0
M  V30 4217 H 406.642 3.32874 1.13526 0
M  V30 4218 H 406.516 2.6044 2.72857 0
M  V30 4219 H 408.903 1.65435 2.44367 0
M  V30 4220 H 408.984 2.41354 0.847455 0
M  V30 4221 H 408.628 4.69437 1.93885 0
M  V30 4222 H 408.558 3.90409 3.53395 0
M  V30 4223 H 411.049 3.05648 2.22234 0
M  V30 4224 H 411.362 6.59768 4.02401 0
M  V30 4225 H 409.707 5.92985 3.62483 0
M  V30 4226 H 412.898 3.83496 2.68419 0
M  V30 4227 H 413.071 5.44965 3.50596 0
M  V30 4228 N 406.477 -1.02803 1.19454 0
M  V30 4229 C 407.702 -1.80378 1.02364 0
M  V30 4230 C 408.127 -1.83282 -0.423007 0
M  V30 4231 O 407.485 -1.25945 -1.30413 0
M  V30 4232 C 407.533 -3.23248 1.59821 0
M  V30 4233 O 406.637 -4.04 0.828105 0
M  V30 4234 H 405.978 -0.556799 0.361761 0
M  V30 4235 H 408.508 -1.29385 1.58495 0
M  V30 4236 H 408.518 -3.73994 1.63073 0
M  V30 4237 H 407.193 -3.2045 2.65113 0
M  V30 4238 H 405.77 -3.62635 0.86891 0
M  V30 4239 N 407.956 -0.998596 -1.21925 0
M  V30 4240 C 408.888 -0.511879 -2.23411 0
M  V30 4241 C 409.901 0.396094 -1.57908 0
M  V30 4242 O 411.09 0.197316 -1.77406 0
M  V30 4243 C 408.19 0.276802 -3.37768 0
M  V30 4244 C 407.363 -0.628687 -4.32858 0
M  V30 4245 C 406.422 0.109272 -5.26087 0
M  V30 4246 O 405.448 -0.507237 -5.66935 0
M  V30 4247 N 406.65 1.38983 -5.63617 0
M  V30 4248 H 409.415 -1.38457 -2.658 0
M  V30 4249 H 406.976 -0.873981 -1.36283 0
M  V30 4250 H 408.968 0.77928 -3.97126 0
M  V30 4251 H 407.538 1.05063 -2.94415 0
M  V30 4252 H 406.758 -1.31175 -3.71735 0
M  V30 4253 H 408.046 -1.24514 -4.93329 0
M  V30 4254 H 407.444 1.91194 -5.32411 0
M  V30 4255 H 406.001 1.83739 -6.25367 0
M  V30 4256 N 409.434 1.37368 -0.772513 0
M  V30 4257 C 410.85 1.53059 -0.452231 0
M  V30 4258 C 411.05 1.73065 1.03203 0
M  V30 4259 O 410.106 1.75245 1.81784 0
M  V30 4260 C 411.419 2.72659 -1.26797 0
M  V30 4261 C 412.967 2.86521 -1.25995 0
M  V30 4262 C 413.442 4.09105 -2.05905 0
M  V30 4263 N 414.933 4.16219 -2.03263 0
M  V30 4264 C 415.668 5.10107 -2.61875 0
M  V30 4265 N 415.164 6.09547 -3.29278 0
M  V30 4266 N 416.957 5.02596 -2.51701 0
M  V30 4267 H 409.108 1.22634 -1.7342 0
M  V30 4268 H 411.371 0.597206 -0.736239 0
M  V30 4269 H 411.077 2.64343 -2.31982 0
M  V30 4270 H 410.951 3.66363 -0.897672 0
M  V30 4271 H 413.338 2.94308 -0.216081 0
M  V30 4272 H 413.419 1.93774 -1.66989 0
M  V30 4273 H 413.063 4.0208 -3.10313 0
M  V30 4274 H 412.993 5.00968 -1.62292 0
M  V30 4275 H 415.484 3.45012 -1.54192 0
M  V30 4276 H 415.797 6.77718 -3.71374 0
M  V30 4277 H 414.142 6.09824 -3.33377 0
M  V30 4278 H 417.333 4.23855 -1.98657 0
M  V30 4279 H 417.506 5.75582 -2.97673 0
M  V30 4280 N 410.912 0.523116 1.48665 0
M  V30 4281 C 412.14 -0.0096312 2.06898 0
M  V30 4282 C 412.555 -1.28784 1.38059 0
M  V30 4283 O 411.912 -1.76453 0.465893 0
M  V30 4284 C 411.963 -0.244386 3.60673 0
M  V30 4285 O 411.684 0.983172 4.26925 0
M  V30 4286 C 413.185 -0.818289 4.35682 0
M  V30 4287 H 410.405 0.0304161 0.67031 0
M  V30 4288 H 412.949 0.726799 1.91149 0
M  V30 4289 H 411.104 -0.930847 3.76051 0
M  V30 4290 H 411.518 0.759653 5.1897 0
M  V30 4291 H 412.992 -0.93201 5.44075 0
M  V30 4292 H 413.469 -1.82153 3.99646 0
M  V30 4293 H 414.075 -0.168609 4.24966 0
M  V30 4294 N 412.39 -1.55475 0.257931 0
M  V30 4295 C 413.806 -1.59307 -0.0966563 0
M  V30 4296 C 414.006 -1.27514 -1.5602 0
M  V30 4297 O 413.062 -1.02774 -2.30637 0
M  V30 4298 C 414.375 -2.99552 0.262481 0
M  V30 4299 C 415.923 -3.1231 0.207683 0
M  V30 4300 C 416.398 -4.54793 0.541012 0
M  V30 4301 N 417.889 -4.6058 0.491921 0
M  V30 4302 C 418.624 -5.68825 0.722857 0
M  V30 4303 N 418.12 -6.85287 1.0175 0
M  V30 4304 N 419.913 -5.58296 0.652815 0
M  V30 4305 H 412.064 -1.74409 1.21224 0
M  V30 4306 H 414.327 -0.812424 0.48854 0
M  V30 4307 H 414.033 -3.27593 1.27967 0
M  V30 4308 H 413.907 -3.75019 -0.40508 0
M  V30 4309 H 416.294 -2.84044 -0.800195 0
M  V30 4310 H 416.375 -2.39095 0.909255 0
M  V30 4311 H 416.019 -4.83783 1.5465 0
M  V30 4312 H 415.949 -5.26285 -0.18216 0
M  V30 4313 H 418.44 -3.7691 0.273366 0
M  V30 4314 H 418.753 -7.63725 1.18084 0
M  V30 4315 H 417.098 -6.86945 1.05509 0
M  V30 4316 H 420.289 -4.66189 0.422592 0
M  V30 4317 H 420.462 -6.42582 0.836182 0
M  V30 4318 N 413.868 0.0150385 -1.57593 0
M  V30 4319 C 415.093 0.718067 -1.94573 0
M  V30 4320 C 415.518 1.6734 -0.859005 0
M  V30 4321 O 414.876 1.80362 0.184147 0
M  V30 4322 C 414.924 1.43918 -3.30636 0
M  V30 4323 O 414.028 2.55299 -3.23876 0
M  V30 4324 H 413.369 0.192125 -0.635597 0
M  V30 4325 H 415.899 -0.0336708 -2.04572 0
M  V30 4326 H 415.909 1.80598 -3.65853 0
M  V30 4327 H 414.584 0.738619 -4.09289 0
M  V30 4328 H 413.161 2.21058 -3.00312 0
M  V30 4329 N 415.346 1.54954 0.287554 0
M  V30 4330 C 416.586 1.76617 1.02887 0
M  V30 4331 C 416.95 0.547759 1.84021 0
M  V30 4332 O 418.151 0.642365 2.61012 0
M  V30 4333 C 416.422 3.02717 1.89993 0
M  V30 4334 S 417.981 3.45438 2.70588 0
M  V30 4335 H 414.799 0.6207 0.346775 0
M  V30 4336 H 417.401 1.93172 0.30082 0
M  V30 4337 H 416.105 3.89503 1.29287 0
M  V30 4338 H 415.636 2.88787 2.67144 0
M  V30 4339 H 417.651 3.03566 3.92508 0
M  V30 4340 O 416.863 -0.433401 1.55576 0
M  V30 4341 H 417.554 -1.08681 1.60337 0
M  V30 END ATOM
M  V30 BEGIN BOND
M  V30 END BOND
M  V30 END CTAB
M  END
$$$$
