drugbank_target|Q9Y2D0 Carbonic anhydrase 5B, mitochondrial (DB00909; DB08846)
 OpenBabel12092120363D

  0  0  0     0  0            999 V3000
M  V30 BEGIN CTAB
M  V30 COUNTS 5106 5185 0 0 0
M  V30 BEGIN ATOM
M  V30 1 H -0.908 1.98254 -0.117106 0
M  V30 2 N 0 1.576 0 0
M  V30 3 C 0.933 2.03868 1.02534 0
M  V30 4 C 1.911 0.928543 1.3348 0
M  V30 5 O 3.095 1.19667 1.45644 0
M  V30 6 C 0.222 2.43627 2.35294 0
M  V30 7 C -0.732 3.65373 2.2001 0
M  V30 8 S 0.101 5.13292 1.52614 0
M  V30 9 C 1.257 5.56322 2.86805 0
M  V30 10 H 1.49 2.90518 0.631377 0
M  V30 11 H -0.977 1.52953 0.210867 0
M  V30 12 H 0.981 2.67203 3.11629 0
M  V30 13 H -0.358 1.57376 2.7183 0
M  V30 14 H -1.165 3.90944 3.18086 0
M  V30 15 H -1.563 3.418 1.51819 0
M  V30 16 H 0.729 5.58782 3.83104 0
M  V30 17 H 1.672 6.56266 2.65933 0
M  V30 18 H 2.08 4.83886 2.90714 0
M  V30 19 N 1.4781 -0.272755 1.55222 0
M  V30 20 C 2.7241 -1.00581 1.761 0
M  V30 21 C 3.0571 -1.85932 0.560625 0
M  V30 22 O 2.3321 -1.89416 -0.441801 0
M  V30 23 C 2.6151 -1.88816 3.06628 0
M  V30 24 C 2.4681 -1.06457 4.37021 0
M  V30 25 C 3.7871 -2.8752 3.33197 0
M  V30 26 H 0.9061 -0.364244 0.640699 0
M  V30 27 H 3.5481 -0.278189 1.87952 0
M  V30 28 H 1.6981 -2.50856 2.96654 0
M  V30 29 H 3.3701 -0.464863 4.58952 0
M  V30 30 H 1.6131 -0.368043 4.32236 0
M  V30 31 H 2.2841 -1.71514 5.24678 0
M  V30 32 H 4.7601 -2.35615 3.42965 0
M  V30 33 H 3.6361 -3.46399 4.25792 0
M  V30 34 H 3.8971 -3.62657 2.52849 0
M  V30 35 N 2.9562 -1.48159 -0.537278 0
M  V30 36 C 4.2022 -1.56035 -1.29541 0
M  V30 37 C 4.5352 -0.230377 -1.92829 0
M  V30 38 O 3.8102 0.762952 -1.78911 0
M  V30 39 C 4.0932 -2.69323 -2.39034 0
M  V30 40 C 3.9462 -4.12002 -1.80485 0
M  V30 41 C 5.2652 -2.78408 -3.40847 0
M  V30 42 H 2.3842 -0.567992 -0.469632 0
M  V30 43 H 5.0262 -1.80302 -0.599277 0
M  V30 44 H 3.1762 -2.48763 -2.98412 0
M  V30 45 H 4.8482 -4.43981 -1.25215 0
M  V30 46 H 3.0912 -4.19344 -1.11055 0
M  V30 47 H 3.7622 -4.87077 -2.59731 0
M  V30 48 H 6.2382 -2.97012 -2.91416 0
M  V30 49 H 5.1142 -3.59416 -4.14863 0
M  V30 50 H 5.3752 -1.86269 -4.00944 0
M  V30 51 N 4.4343 0.785586 -1.36625 0
M  V30 52 C 5.3673 1.90509 -1.25625 0
M  V30 53 C 6.3453 1.62 -0.139607 0
M  V30 54 O 7.5293 1.8591 -0.31141 0
M  V30 55 C 4.6563 3.25419 -0.939158 0
M  V30 56 C 3.7023 3.72856 -2.07077 0
M  V30 57 S 4.5353 3.88162 -3.68904 0
M  V30 58 C 5.6913 5.25942 -3.39317 0
M  V30 59 H 5.9243 1.99549 -2.20381 0
M  V30 60 H 3.4573 0.945226 -1.22085 0
M  V30 61 H 5.4153 4.03346 -0.763029 0
M  V30 62 H 4.0763 3.14099 -0.00931402 0
M  V30 63 H 3.2693 4.70624 -1.80357 0
M  V30 64 H 2.8713 3.01989 -2.20632 0
M  V30 65 H 5.1633 6.10651 -2.93447 0
M  V30 66 H 6.1063 5.57668 -4.36363 0
M  V30 67 H 6.5143 4.93224 -2.74573 0
M  V30 68 N 5.9124 1.20967 1.01018 0
M  V30 69 C 6.8604 0.961223 2.1181 0
M  V30 70 C 7.8544 -0.0897034 1.69162 0
M  V30 71 O 9.0604 0.0612271 1.79896 0
M  V30 72 H 5.4354 0.29355 0.692338 0
M  V30 73 H 7.4064 1.90178 2.29946 0
M  V30 74 C 6.1554 0.536854 3.4353 0
M  V30 75 H 5.4784 1.33713 3.76777 0
M  V30 76 H 6.9184 0.402286 4.22087 0
M  V30 77 C 5.3774 -0.751574 3.2841 0
M  V30 78 O 5.9074 -1.80841 3.58691 0
M  V30 79 N 4.1134 -0.716079 2.81639 0
M  V30 80 H 3.6604 0.144236 2.57196 0
M  V30 81 H 3.6184 -1.57847 2.71904 0
M  V30 82 N 7.3905 -1.2043 1.01659 0
M  V30 83 C 8.6155 -1.94318 0.724942 0
M  V30 84 C 9.0405 -1.74266 -0.708034 0
M  V30 85 O 8.3985 -1.03694 -1.48719 0
M  V30 86 C 8.4465 -3.44486 1.06591 0
M  V30 87 O 7.5505 -4.12017 0.177599 0
M  V30 88 H 6.8915 -0.60708 0.26898 0
M  V30 89 H 9.4215 -1.52861 1.35995 0
M  V30 90 H 9.4315 -3.95106 1.01762 0
M  V30 91 H 8.1065 -3.58404 2.10997 0
M  V30 92 H 6.6835 -3.71821 0.283421 0
M  V30 93 N 8.8686 -0.792821 -1.36206 0
M  V30 94 C 9.7986 -0.207853 -2.32573 0
M  V30 95 C 10.7796 0.659055 -1.56813 0
M  V30 96 O 11.9646 0.592176 -1.84951 0
M  V30 97 C 9.0946 0.655449 -3.41059 0
M  V30 98 C 8.0486 -0.111842 -4.27854 0
M  V30 99 C 7.3746 0.872274 -5.27537 0
M  V30 100 C 8.6746 -1.30299 -5.05786 0
M  V30 101 H 10.3686 -1.01294 -2.81744 0
M  V30 102 H 7.9146 -0.48854 -1.3546 0
M  V30 103 H 9.8676 1.07464 -4.07467 0
M  V30 104 H 8.5916 1.49328 -2.90463 0
M  V30 105 H 7.2506 -0.512053 -3.63006 0
M  V30 106 H 6.8986 1.70523 -4.73214 0
M  V30 107 H 6.5986 0.363291 -5.86476 0
M  V30 108 H 8.1226 1.28996 -5.96818 0
M  V30 109 H 9.5366 -0.959379 -5.65216 0
M  V30 110 H 7.9336 -1.7455 -5.74154 0
M  V30 111 H 9.0036 -2.09663 -4.37229 0
M  V30 112 N 10.3467 1.47872 -0.545128 0
M  V30 113 C 11.7627 1.5829 -0.204032 0
M  V30 114 C 11.9627 1.54529 1.29317 0
M  V30 115 O 11.0187 1.44232 2.07252 0
M  V30 116 C 12.3317 2.89304 -0.819987 0
M  V30 117 C 13.8797 3.02864 -0.790105 0
M  V30 118 C 14.3547 4.3656 -1.38491 0
M  V30 119 N 15.8457 4.43165 -1.34755 0
M  V30 120 C 16.5807 5.45153 -1.77753 0
M  V30 121 N 16.0767 6.54016 -2.2855 0
M  V30 122 N 17.8697 5.36125 -1.68897 0
M  V30 123 H 10.0207 1.4856 -1.51802 0
M  V30 124 H 12.2837 0.706305 -0.632327 0
M  V30 125 H 11.9897 2.97757 -1.87173 0
M  V30 126 H 11.8637 3.75957 -0.305915 0
M  V30 127 H 14.2507 2.94014 0.252913 0
M  V30 128 H 14.3317 2.17782 -1.34181 0
M  V30 129 H 13.9757 4.46164 -2.42693 0
M  V30 130 H 13.9057 5.20353 -0.808754 0
M  V30 131 H 16.3967 3.65083 -0.975855 0
M  V30 132 H 16.7097 7.27994 -2.59314 0
M  V30 133 H 15.0547 6.54938 -2.32553 0
M  V30 134 H 18.2457 4.49975 -1.28998 0
M  V30 135 H 18.4187 6.15472 -2.02726 0
M  V30 136 N 11.8248 0.280983 1.55075 0
M  V30 137 C 13.0708 -0.33461 2.00021 0
M  V30 138 C 13.4038 -1.55063 1.16915 0
M  V30 139 O 12.6788 -1.93006 0.240646 0
M  V30 140 C 12.9618 -0.711007 3.53011 0
M  V30 141 C 12.8148 0.512766 4.46868 0
M  V30 142 C 14.1338 -1.54522 4.12081 0
M  V30 143 H 11.2528 -0.120147 0.727141 0
M  V30 144 H 13.8948 0.389097 1.85973 0
M  V30 145 H 12.0448 -1.32761 3.65112 0
M  V30 146 H 13.7168 1.15131 4.46702 0
M  V30 147 H 11.9598 1.14975 4.18286 0
M  V30 148 H 12.6308 0.205556 5.51617 0
M  V30 149 H 15.1068 -1.02442 4.03293 0
M  V30 150 H 13.9828 -1.77739 5.19327 0
M  V30 151 H 14.2438 -2.52813 3.62682 0
M  V30 152 N 13.3029 -1.57598 0.00835791 0
M  V30 153 C 14.5519 -1.90107 -0.673968 0
M  V30 154 C 14.8649 -0.884275 -1.7447 0
M  V30 155 O 16.0709 -1.09987 -2.48224 0
M  V30 156 C 14.5269 -3.37497 -1.24995 0
M  V30 157 C 14.1349 -4.47491 -0.2136 0
M  V30 158 C 15.8789 -3.79104 -1.90999 0
M  V30 159 C 13.7859 -5.85963 -0.80005 0
M  V30 160 H 12.7159 -0.709393 -0.255495 0
M  V30 161 H 15.3669 -1.83365 0.0702693 0
M  V30 162 H 13.7489 -3.39102 -2.04513 0
M  V30 163 H 14.9229 -4.57414 0.557596 0
M  V30 164 H 13.2379 -4.14956 0.346474 0
M  V30 165 H 15.8349 -4.79901 -2.35795 0
M  V30 166 H 16.1779 -3.1306 -2.74407 0
M  V30 167 H 16.7109 -3.79833 -1.18203 0
M  V30 168 H 13.4499 -6.555 -0.00456708 0
M  V30 169 H 12.9699 -5.79687 -1.54021 0
M  V30 170 H 14.6489 -6.33884 -1.29615 0
M  V30 171 N 14.781 0.264519 -1.55364 0
M  V30 172 C 15.711 1.33121 -1.91836 0
M  V30 173 C 16.692 1.51101 -0.781192 0
M  V30 174 O 17.877 1.64003 -1.04003 0
M  V30 175 C 15.007 2.68921 -2.19769 0
M  V30 176 C 13.961 2.65661 -3.35571 0
M  V30 177 C 13.287 4.05093 -3.49004 0
M  V30 178 C 14.587 2.24187 -4.71739 0
M  V30 179 H 16.281 1.02844 -2.81182 0
M  V30 180 H 13.827 0.493286 -1.35287 0
M  V30 181 H 15.78 3.43663 -2.43872 0
M  V30 182 H 14.504 3.00799 -1.27231 0
M  V30 183 H 13.163 1.93377 -3.1145 0
M  V30 184 H 12.811 4.34206 -2.53917 0
M  V30 185 H 12.511 4.03804 -4.26868 0
M  V30 186 H 14.035 4.81561 -3.75408 0
M  V30 187 H 15.449 2.88654 -4.9533 0
M  V30 188 H 13.846 2.34044 -5.52579 0
M  V30 189 H 14.916 1.19327 -4.69988 0
M  V30 190 N 16.2591 1.48442 0.529413 0
M  V30 191 C 17.1911 1.59095 1.64989 0
M  V30 192 C 18.2041 0.475212 1.5571 0
M  V30 193 O 19.3931 0.746081 1.6216 0
M  V30 194 C 16.4931 1.50518 3.0364 0
M  V30 195 C 15.6661 2.77142 3.38395 0
M  V30 196 C 14.7251 2.62012 4.56329 0
M  V30 197 O 13.7511 3.35898 4.59522 0
M  V30 198 N 14.9531 1.71667 5.54536 0
M  V30 199 H 17.7181 2.55723 1.56287 0
M  V30 200 H 15.2791 1.45173 0.716697 0
M  V30 201 H 17.2711 1.38091 3.80412 0
M  V30 202 H 15.8411 0.618627 3.06418 0
M  V30 203 H 15.0611 3.0413 2.50796 0
M  V30 204 H 16.3491 3.61146 3.58401 0
M  V30 205 H 15.7471 1.10841 5.54735 0
M  V30 206 H 14.3041 1.65178 6.30523 0
M  V30 207 N 17.7372 -0.778329 1.37039 0
M  V30 208 C 18.7002 -1.87301 1.32102 0
M  V30 209 C 19.7002 -1.59198 0.226405 0
M  V30 210 O 20.8902 -1.67403 0.481861 0
M  V30 211 C 18.0222 -3.24309 1.05055 0
M  V30 212 H 19.2152 -1.93093 2.29467 0
M  V30 213 H 16.7682 -0.977358 1.21973 0
M  V30 214 H 17.5032 -3.24196 0.0819373 0
M  V30 215 H 17.2882 -3.46098 1.84279 0
M  V30 216 H 18.7782 -4.04382 1.04234 0
M  V30 217 N 19.2153 -1.21501 -1.00376 0
M  V30 218 C 20.4403 -1.05977 -1.78279 0
M  V30 219 C 20.8653 0.385994 -1.84097 0
M  V30 220 O 20.2233 1.27849 -1.28547 0
M  V30 221 C 20.2713 -1.66302 -3.19963 0
M  V30 222 O 19.3753 -0.909333 -4.0225 0
M  V30 223 H 18.7163 -0.372906 -0.549397 0
M  V30 224 H 21.2463 -1.6107 -1.26165 0
M  V30 225 H 21.2563 -1.70574 -3.70632 0
M  V30 226 H 19.9313 -2.71515 -3.15043 0
M  V30 227 H 18.5083 -0.941795 -3.60811 0
M  V30 228 N 20.6934 1.19889 -1.02296 0
M  V30 229 C 22.1044 1.71124 -0.746568 0
M  V30 230 C 22.4554 1.81939 0.734335 0
M  V30 231 O 21.5804 1.48639 1.57275 0
M  V30 232 C 22.1754 3.10804 -1.34857 0
M  V30 233 C 20.7344 3.59323 -1.1209 0
M  V30 234 C 19.8814 2.3635 -1.45031 0
M  V30 235 H 22.8324 1.04813 -1.19163 0
M  V30 236 H 22.8534 3.73186 -0.742437 0
M  V30 237 H 22.3654 3.029 -2.42638 0
M  V30 238 H 20.4664 3.7255 -0.0610337 0
M  V30 239 H 20.5794 4.4378 -1.80544 0
M  V30 240 H 18.9434 2.39399 -0.869487 0
M  V30 241 H 19.7264 2.31081 -2.53883 0
M  V30 242 N 22.1715 0.800033 1.35784 0
M  V30 243 C 23.4195 0.376597 1.9856 0
M  V30 244 C 23.7405 -1.05812 1.63795 0
M  V30 245 O 23.0105 -1.73103 0.917171 0
M  V30 246 H 21.5905 0.136261 0.734467 0
M  V30 247 H 24.2525 1.02442 1.65806 0
M  V30 248 H 23.3485 0.477002 3.08433 0
M  V30 249 N 23.6496 -1.47581 0.552962 0
M  V30 250 C 24.5966 -2.29957 -0.197108 0
M  V30 251 C 25.5666 -1.38799 -0.912359 0
M  V30 252 O 26.7516 -1.67761 -0.908888 0
M  V30 253 C 23.8916 -3.22672 -1.22379 0
M  V30 254 C 23.0046 -4.28919 -0.515038 0
M  V30 255 C 22.1396 -5.0879 -1.52664 0
M  V30 256 C 21.1786 -6.06815 -0.802631 0
M  V30 257 N 20.3156 -6.7966 -1.76086 0
M  V30 258 H 25.1556 -2.93578 0.511486 0
M  V30 259 H 22.6926 -1.4471 0.264067 0
M  V30 260 H 24.6506 -3.74845 -1.83159 0
M  V30 261 H 23.2806 -2.60925 -1.90047 0
M  V30 262 H 22.3326 -3.79835 0.207192 0
M  V30 263 H 23.6446 -4.98773 0.0523425 0
M  V30 264 H 22.7986 -5.65091 -2.20809 0
M  V30 265 H 21.5376 -4.38828 -2.12794 0
M  V30 266 H 20.5426 -5.49695 -0.107238 0
M  V30 267 H 21.7676 -6.78784 -0.207135 0
M  V30 268 H 19.7136 -6.12432 -2.35081 0
M  V30 269 H 19.6306 -7.45669 -1.24552 0
M  V30 270 H 20.8986 -7.40538 -2.43359 0
M  V30 271 N 25.1277 -0.289203 -1.54924 0
M  V30 272 C 26.0577 0.58549 -2.2604 0
M  V30 273 C 27.0387 1.14753 -1.25562 0
M  V30 274 O 28.2237 1.17906 -1.54311 0
M  V30 275 C 25.3537 1.76305 -2.99222 0
M  V30 276 C 24.3077 1.33191 -4.06748 0
M  V30 277 C 23.6337 2.5937 -4.6758 0
M  V30 278 C 24.9337 0.471775 -5.20165 0
M  V30 279 H 26.6277 -0.00763532 -2.99399 0
M  V30 280 H 24.1737 -0.00511229 -1.43999 0
M  V30 281 H 26.1267 2.38097 -3.47689 0
M  V30 282 H 24.8507 2.38223 -2.23422 0
M  V30 283 H 23.5097 0.737121 -3.59113 0
M  V30 284 H 23.1577 3.19576 -3.88433 0
M  V30 285 H 22.8577 2.31228 -5.40192 0
M  V30 286 H 24.3817 3.21985 -5.18804 0
M  V30 287 H 25.7957 0.995056 -5.64599 0
M  V30 288 H 24.1927 0.284639 -5.99425 0
M  V30 289 H 25.2627 -0.506041 -4.82252 0
M  V30 290 N 26.6058 1.57591 -0.0167156 0
M  V30 291 C 27.5358 2.12496 0.967858 0
M  V30 292 C 28.5168 1.03807 1.34752 0
M  V30 293 O 29.7018 1.31577 1.42833 0
M  V30 294 C 26.8318 2.64194 2.25431 0
M  V30 295 C 25.7858 3.77559 2.01576 0
M  V30 296 C 25.1118 4.15636 3.36379 0
M  V30 297 C 26.4118 5.04151 1.36489 0
M  V30 298 H 28.1058 2.95013 0.510643 0
M  V30 299 H 25.6518 1.41915 0.244181 0
M  V30 300 H 27.6048 3.01236 2.94678 0
M  V30 301 H 26.3288 1.78821 2.73296 0
M  V30 302 H 24.9878 3.40937 1.34751 0
M  V30 303 H 24.6358 3.27263 3.81979 0
M  V30 304 H 24.3358 4.92022 3.21229 0
M  V30 305 H 25.8598 4.5525 4.06915 0
M  V30 306 H 27.2738 5.38857 1.95718 0
M  V30 307 H 25.6708 5.85453 1.31776 0
M  V30 308 H 26.7408 4.83733 0.336219 0
M  V30 309 N 28.0839 -0.256276 1.55502 0
M  V30 310 C 29.3299 -0.982884 1.78076 0
M  V30 311 C 29.6849 -1.83319 0.584109 0
M  V30 312 O 28.9779 -1.86875 -0.422877 0
M  V30 313 C 29.1719 -1.88432 3.03691 0
M  V30 314 C 29.0009 -1.12276 4.35459 0
M  V30 315 C 27.7709 -0.831647 4.98409 0
M  V30 316 C 29.9689 -0.504933 5.11815 0
M  V30 317 N 27.9509 -0.0450423 6.13883 0
M  V30 318 C 29.3219 0.146696 6.19826 0
M  V30 319 C 31.3769 -0.414455 4.96172 0
M  V30 320 C 30.0799 0.880103 7.13895 0
M  V30 321 C 32.1059 0.305398 5.90611 0
M  V30 322 C 31.4679 0.945701 6.98023 0
M  V30 323 H 27.5669 -0.341084 0.703694 0
M  V30 324 H 30.1509 -0.256909 1.92998 0
M  V30 325 H 28.3219 -2.58241 2.90114 0
M  V30 326 H 30.0539 -2.54579 3.14598 0
M  V30 327 H 26.8089 -1.14111 4.59647 0
M  V30 328 H 27.2329 0.336079 6.76165 0
M  V30 329 H 31.8749 -0.895163 4.13215 0
M  V30 330 H 29.5929 1.37244 7.9636 0
M  V30 331 H 33.1789 0.375946 5.80584 0
M  V30 332 H 32.0589 1.49383 7.6984 0
M  V30 333 N 29.562 -1.4872 -0.521534 0
M  V30 334 C 30.978 -1.35028 -0.850855 0
M  V30 335 C 31.178 -0.367712 -1.98116 0
M  V30 336 O 30.234 0.208037 -2.51642 0
M  V30 337 C 31.547 -2.75263 -1.21041 0
M  V30 338 C 33.095 -2.83813 -1.31981 0
M  V30 339 C 33.57 -4.24769 -1.71276 0
M  V30 340 N 35.061 -4.27482 -1.78363 0
M  V30 341 C 35.796 -5.33494 -2.1017 0
M  V30 342 N 35.292 -6.49775 -2.40343 0
M  V30 343 N 37.085 -5.20894 -2.11248 0
M  V30 344 H 29.236 -2.11214 0.22413 0
M  V30 345 H 31.499 -0.947252 0.0376439 0
M  V30 346 H 31.205 -3.48765 -0.453415 0
M  V30 347 H 31.079 -3.09327 -2.15863 0
M  V30 348 H 33.466 -2.10561 -2.06756 0
M  V30 349 H 33.547 -2.53358 -0.352596 0
M  V30 350 H 33.191 -4.9854 -0.970588 0
M  V30 351 H 33.121 -4.52673 -2.69062 0
M  V30 352 H 35.612 -3.43611 -1.57288 0
M  V30 353 H 35.925 -7.26402 -2.63743 0
M  V30 354 H 34.27 -6.53035 -2.37844 0
M  V30 355 H 37.461 -4.29065 -1.87139 0
M  V30 356 H 37.634 -6.03612 -2.35704 0
M  V30 357 N 31.0401 0.771051 -1.3745 0
M  V30 358 C 31.9871 1.88435 -1.3327 0
M  V30 359 C 32.9571 1.64914 -0.198136 0
M  V30 360 O 34.1421 1.86821 -0.387606 0
M  V30 361 C 31.2821 3.25509 -1.14622 0
M  V30 362 C 30.3951 3.60979 -2.37314 0
M  V30 363 C 29.5301 4.87265 -2.11533 0
M  V30 364 C 28.5691 5.15469 -3.30088 0
M  V30 365 N 27.7061 6.32944 -3.03853 0
M  V30 366 H 32.5461 1.91344 -2.28455 0
M  V30 367 H 30.0831 0.935466 -1.13523 0
M  V30 368 H 32.0411 4.04582 -1.01831 0
M  V30 369 H 30.6711 3.21974 -0.230837 0
M  V30 370 H 29.7231 2.76885 -2.60842 0
M  V30 371 H 31.0351 3.77759 -3.25729 0
M  V30 372 H 30.1891 5.74244 -1.95777 0
M  V30 373 H 28.9281 4.7259 -1.20457 0
M  V30 374 H 27.9331 4.26966 -3.46382 0
M  V30 375 H 29.1581 5.32052 -4.22016 0
M  V30 376 H 27.1041 6.19625 -2.15407 0
M  V30 377 H 27.0211 6.50143 -3.85812 0
M  V30 378 H 28.2891 7.22857 -2.91716 0
M  V30 379 N 32.5182 1.22032 0.997298 0
M  V30 380 C 33.7652 1.04222 1.73621 0
M  V30 381 C 34.0932 -0.423264 1.89839 0
M  V30 382 O 33.3482 -1.3302 1.43542 0
M  V30 383 C 33.6472 1.69345 3.14733 0
M  V30 384 C 33.3132 3.19226 3.18442 0
M  V30 385 C 31.9752 3.60124 3.19161 0
M  V30 386 C 34.3272 4.15181 3.15078 0
M  V30 387 C 31.6552 4.95467 3.14212 0
M  V30 388 C 34.0072 5.50495 3.1167 0
M  V30 389 C 32.6712 5.90779 3.10703 0
M  V30 390 H 31.9412 0.381374 0.635323 0
M  V30 391 H 34.5882 1.51732 1.16831 0
M  V30 392 H 32.8932 1.14147 3.74803 0
M  V30 393 H 34.5902 1.53059 3.7064 0
M  V30 394 H 31.1802 2.86659 3.18629 0
M  V30 395 H 35.3642 3.84605 3.13676 0
M  V30 396 H 30.6202 5.25916 3.11805 0
M  V30 397 H 34.7942 6.24576 3.08022 0
M  V30 398 H 32.4212 6.9562 3.06622 0
M  V30 399 N 33.9963 -1.19345 1.0293 0
M  V30 400 C 34.9283 -2.22036 0.56857 0
M  V30 401 C 35.9413 -1.58865 -0.355779 0
M  V30 402 O 37.1303 -1.77851 -0.152103 0
M  V30 403 C 34.2303 -3.38363 -0.190752 0
M  V30 404 C 33.4033 -4.31118 0.738643 0
M  V30 405 C 32.4623 -5.26194 0.0246497 0
M  V30 406 O 31.4883 -5.65461 0.651354 0
M  V30 407 N 32.6903 -5.66971 -1.24594 0
M  V30 408 H 35.4553 -2.6219 1.45177 0
M  V30 409 H 33.0163 -1.34015 0.908381 0
M  V30 410 H 35.0083 -3.98981 -0.677961 0
M  V30 411 H 33.5783 -2.96994 -0.975366 0
M  V30 412 H 32.7983 -3.68276 1.40593 0
M  V30 413 H 34.0863 -4.90001 1.37029 0
M  V30 414 H 33.4843 -5.37104 -1.77583 0
M  V30 415 H 32.0413 -6.2984 -1.67764 0
M  V30 416 N 35.4744 -0.807222 -1.35358 0
M  V30 417 C 36.7234 -0.384376 -1.98004 0
M  V30 418 C 37.0364 1.0543 -1.64754 0
M  V30 419 O 38.2424 1.58029 -2.20769 0
M  V30 420 C 36.6984 -0.636326 -3.5423 0
M  V30 421 C 36.3064 -2.08759 -3.96388 0
M  V30 422 C 38.0504 -0.278869 -4.23583 0
M  V30 423 C 35.9574 -2.28525 -5.45463 0
M  V30 424 H 34.8874 -0.139986 -0.740891 0
M  V30 425 H 37.5384 -0.991369 -1.54415 0
M  V30 426 H 35.9204 0.0406256 -3.95979 0
M  V30 427 H 37.0944 -2.8024 -3.6579 0
M  V30 428 H 35.4094 -2.40497 -3.39926 0
M  V30 429 H 38.0064 -0.404599 -5.33167 0
M  V30 430 H 38.3494 0.775012 -4.09022 0
M  V30 431 H 38.8824 -0.909764 -3.87257 0
M  V30 432 H 35.6214 -3.32361 -5.64992 0
M  V30 433 H 35.1414 -1.61569 -5.77629 0
M  V30 434 H 36.8204 -2.10109 -6.11934 0
M  V30 435 N 36.9525 1.47285 -0.560781 0
M  V30 436 C 38.3635 1.86258 -0.128343 0
M  V30 437 C 38.7145 1.46699 1.30284 0
M  V30 438 O 37.8395 0.871698 1.98067 0
M  V30 439 C 38.4345 3.38044 -0.22614 0
M  V30 440 C 36.9935 3.76096 0.151283 0
M  V30 441 C 36.1405 2.71335 -0.572084 0
M  V30 442 H 39.0915 1.38752 -0.770297 0
M  V30 443 H 39.1125 3.76441 0.554322 0
M  V30 444 H 38.6245 3.66806 -1.26788 0
M  V30 445 H 36.7255 3.52951 1.19399 0
M  V30 446 H 36.8385 4.78641 -0.209765 0
M  V30 447 H 35.2025 2.54696 -0.0147653 0
M  V30 448 H 35.9855 3.02938 -1.61504 0
M  V30 449 N 38.4306 0.297415 1.54768 0
M  V30 450 C 39.8466 -0.0560823 1.59501 0
M  V30 451 C 40.0466 -1.52725 1.31444 0
M  V30 452 O 39.1026 -2.27947 1.08611 0
M  V30 453 C 40.4156 0.338631 2.98787 0
M  V30 454 C 41.9636 0.287097 3.11681 0
M  V30 455 C 42.4386 0.656579 4.53269 0
M  V30 456 N 43.9296 0.608977 4.59179 0
M  V30 457 C 44.6646 0.867385 5.66802 0
M  V30 458 N 44.1606 1.19157 6.82476 0
M  V30 459 N 45.9536 0.794687 5.56454 0
M  V30 460 H 38.1046 1.25624 1.71267 0
M  V30 461 H 40.3676 0.509057 0.799728 0
M  V30 462 H 40.0736 1.36263 3.2423 0
M  V30 463 H 39.9476 -0.309508 3.75928 0
M  V30 464 H 42.3346 -0.727649 2.85988 0
M  V30 465 H 42.4156 0.969809 2.36703 0
M  V30 466 H 42.0596 1.66912 4.7969 0
M  V30 467 H 41.9896 -0.0481649 5.26578 0
M  V30 468 H 44.4806 0.369198 3.76092 0
M  V30 469 H 44.7936 1.37482 7.60473 0
M  V30 470 H 43.1386 1.22958 6.84037 0
M  V30 471 H 46.3296 0.541098 4.64962 0
M  V30 472 H 46.5026 0.999445 6.40246 0
M  V30 473 N 39.9087 -1.5758 0.0250728 0
M  V30 474 C 41.1557 -1.91633 -0.654444 0
M  V30 475 C 41.4837 -0.901103 -1.72367 0
M  V30 476 O 40.7387 0.0905647 -1.9549 0
M  V30 477 C 41.0377 -3.32421 -1.31268 0
M  V30 478 C 40.7037 -4.49344 -0.374223 0
M  V30 479 C 39.3657 -4.8106 -0.115911 0
M  V30 480 C 41.7177 -5.20498 0.270432 0
M  V30 481 C 39.0457 -5.8129 0.79493 0
M  V30 482 C 41.3977 -6.21699 1.1693 0
M  V30 483 C 40.0617 -6.51859 1.43655 0
M  V30 484 H 39.3317 -0.701236 -0.239478 0
M  V30 485 H 41.9787 -1.91307 0.0859734 0
M  V30 486 H 40.2837 -3.28989 -2.12775 0
M  V30 487 H 41.9807 -3.56038 -1.84494 0
M  V30 488 H 38.5707 -4.24579 -0.58573 0
M  V30 489 H 42.7547 -4.96229 0.0839194 0
M  V30 490 H 38.0107 -6.03005 1.00973 0
M  V30 491 H 42.1847 -6.75955 1.67504 0
M  V30 492 H 39.8117 -7.2934 2.144 0
M  V30 493 N 41.3868 0.248026 -1.55636 0
M  V30 494 C 42.3198 1.3334 -1.85191 0
M  V30 495 C 43.2978 1.46429 -0.706906 0
M  V30 496 O 44.4818 1.62662 -0.952544 0
M  V30 497 C 41.6088 2.70703 -2.03562 0
M  V30 498 C 40.6548 2.7477 -3.26196 0
M  V30 499 S 41.4878 2.31493 -4.82878 0
M  V30 500 C 42.6438 3.70783 -5.04253 0
M  V30 501 H 42.8768 1.08072 -2.76962 0
M  V30 502 H 40.4098 0.448952 -1.47729 0
M  V30 503 H 42.3678 3.49798 -2.1483 0
M  V30 504 H 41.0288 2.9321 -1.12635 0
M  V30 505 H 40.2218 3.75648 -3.36013 0
M  V30 506 H 39.8238 2.03719 -3.13647 0
M  V30 507 H 42.1158 4.6627 -4.91527 0
M  V30 508 H 43.0588 3.65901 -6.06236 0
M  V30 509 H 43.4668 3.63244 -4.32105 0
M  V30 510 N 42.8649 1.48995 0.513639 0
M  V30 511 C 44.2759 1.5119 1.09537 0
M  V30 512 C 44.6269 0.290906 1.94031 0
M  V30 513 O 43.7519 -0.60049 2.07902 0
M  V30 514 C 44.3469 2.73964 1.99322 0
M  V30 515 C 42.9059 2.78978 2.52682 0
M  V30 516 C 42.0529 2.44934 1.30009 0
M  V30 517 H 45.0039 1.55875 0.298125 0
M  V30 518 H 45.0249 2.53409 2.83838 0
M  V30 519 H 44.5369 3.62813 1.37799 0
M  V30 520 H 42.6379 1.94378 3.1788 0
M  V30 521 H 42.7509 3.8083 2.90698 0
M  V30 522 H 41.1149 1.9644 1.62122 0
M  V30 523 H 41.8979 3.36043 0.702131 0
M  V30 524 N 44.343 -0.763751 1.37857 0
M  V30 525 C 45.306 -1.85889 1.34081 0
M  V30 526 C 46.306 -1.58949 0.243277 0
M  V30 527 O 47.496 -1.66882 0.499589 0
M  V30 528 C 44.628 -3.23176 1.08489 0
M  V30 529 H 45.821 -1.90648 2.31502 0
M  V30 530 H 43.374 -0.964367 1.23003 0
M  V30 531 H 44.109 -3.24091 0.116318 0
M  V30 532 H 43.894 -3.44124 1.8794 0
M  V30 533 H 45.384 -4.03254 1.08517 0
M  V30 534 N 45.8211 -1.22559 -0.990812 0
M  V30 535 C 47.2371 -0.985996 -1.255 0
M  V30 536 C 47.4371 0.319173 -1.98956 0
M  V30 537 O 46.4931 1.04127 -2.3003 0
M  V30 538 C 47.8061 -2.18607 -2.06474 0
M  V30 539 C 49.3541 -2.22985 -2.19651 0
M  V30 540 C 49.8291 -3.4255 -3.04012 0
M  V30 541 N 51.3201 -3.42725 -3.11599 0
M  V30 542 C 52.0551 -4.31892 -3.7717 0
M  V30 543 N 51.5511 -5.31279 -4.44651 0
M  V30 544 N 53.3441 -4.19662 -3.73952 0
M  V30 545 H 45.4951 -2.06469 -0.49841 0
M  V30 546 H 47.7581 -0.904853 -0.282747 0
M  V30 547 H 47.4641 -3.13267 -1.59865 0
M  V30 548 H 47.3381 -2.18838 -3.07229 0
M  V30 549 H 49.7251 -1.28871 -2.65474 0
M  V30 550 H 49.8061 -2.26791 -1.18319 0
M  V30 551 H 49.4501 -4.36965 -2.58889 0
M  V30 552 H 49.3801 -3.35984 -4.0549 0
M  V30 553 H 51.8711 -2.70807 -2.63575 0
M  V30 554 H 52.1841 -5.95593 -4.92431 0
M  V30 555 H 50.5291 -5.3519 -4.43392 0
M  V30 556 H 53.7201 -3.41268 -3.20396 0
M  V30 557 H 53.8931 -4.89358 -4.24774 0
M  V30 558 N 47.2992 1.18797 -1.03562 0
M  V30 559 C 48.7102 1.70322 -0.764676 0
M  V30 560 C 49.0612 1.82708 0.714996 0
M  V30 561 O 48.1862 1.50299 1.55689 0
M  V30 562 C 48.7812 3.09356 -1.38145 0
M  V30 563 C 47.3402 3.58114 -1.15895 0
M  V30 564 C 46.4872 2.34798 -1.4753 0
M  V30 565 H 49.4382 1.03543 -1.20268 0
M  V30 566 H 49.4592 3.72378 -0.781977 0
M  V30 567 H 48.9712 3.00309 -2.45837 0
M  V30 568 H 47.0722 3.72464 -0.100544 0
M  V30 569 H 47.1852 4.4184 -1.8524 0
M  V30 570 H 45.5492 2.38464 -0.894829 0
M  V30 571 H 46.3322 2.28375 -2.56319 0
M  V30 572 N 48.7773 0.814389 1.34928 0
M  V30 573 C 50.0173 0.404165 2.00364 0
M  V30 574 C 50.3813 -1.01166 1.63185 0
M  V30 575 O 51.5823 -1.52431 2.21401 0
M  V30 576 C 49.8533 0.590718 3.52484 0
M  V30 577 S 51.4123 0.272075 4.37956 0
M  V30 578 H 48.2303 0.15311 0.694319 0
M  V30 579 H 50.8323 1.05834 1.64376 0
M  V30 580 H 49.5363 1.62099 3.77031 0
M  V30 581 H 49.0673 -0.0785013 3.93322 0
M  V30 582 H 51.0823 -0.917405 4.87645 0
M  V30 583 N 50.2554 -1.46986 0.568584 0
M  V30 584 C 51.4804 -2.07335 0.0520528 0
M  V30 585 C 51.9054 -1.41675 -1.23733 0
M  V30 586 O 51.2634 -0.495623 -1.74394 0
M  V30 587 C 51.3114 -3.60417 -0.11501 0
M  V30 588 O 50.4154 -3.95309 -1.17492 0
M  V30 589 H 49.7564 -0.661597 0.0564385 0
M  V30 590 H 52.2864 -1.88837 0.787507 0
M  V30 591 H 52.2964 -4.06698 -0.325644 0
M  V30 592 H 50.9714 -4.07601 0.826675 0
M  V30 593 H 49.5484 -3.60757 -0.943869 0
M  V30 594 N 51.7335 -0.305618 -1.54608 0
M  V30 595 C 52.6635 0.561482 -2.26649 0
M  V30 596 C 53.6445 1.13415 -1.26772 0
M  V30 597 O 54.8295 1.16262 -1.55553 0
M  V30 598 C 51.9595 1.73122 -3.01075 0
M  V30 599 C 50.9135 1.2887 -4.08138 0
M  V30 600 C 50.2395 2.54396 -4.70305 0
M  V30 601 C 51.5395 0.416578 -5.20636 0
M  V30 602 H 53.2335 -0.0393902 -2.99374 0
M  V30 603 H 50.7795 -0.020385 -1.43986 0
M  V30 604 H 52.7325 2.34396 -3.50195 0
M  V30 605 H 51.4565 2.3584 -2.25936 0
M  V30 606 H 50.1155 0.698991 -3.59875 0
M  V30 607 H 49.7635 3.15439 -3.918 0
M  V30 608 H 49.4635 2.25486 -5.42614 0
M  V30 609 H 50.9875 3.16464 -5.2219 0
M  V30 610 H 52.4015 0.935116 -5.65622 0
M  V30 611 H 50.7985 0.221046 -5.99693 0
M  V30 612 H 51.8685 -0.557162 -4.81688 0
M  V30 613 N 53.2116 1.57565 -0.0334293 0
M  V30 614 C 54.4416 1.95996 0.653398 0
M  V30 615 C 54.8496 0.908749 1.65947 0
M  V30 616 O 54.1926 -0.117471 1.83324 0
M  V30 617 C 54.2546 3.30589 1.41249 0
M  V30 618 C 53.9186 4.53503 0.564263 0
M  V30 619 C 54.9156 5.19647 -0.16225 0
M  V30 620 C 52.6006 4.99801 0.500398 0
M  V30 621 C 54.5946 6.30412 -0.941255 0
M  V30 622 C 52.2816 6.10448 -0.282308 0
M  V30 623 C 53.2796 6.75612 -1.00184 0
M  V30 624 O 52.9676 7.84134 -1.77171 0
M  V30 625 H 52.6996 0.65027 0.184728 0
M  V30 626 H 55.2536 2.05199 -0.0907841 0
M  V30 627 H 53.4836 3.17888 2.20191 0
M  V30 628 H 55.1726 3.53892 1.98784 0
M  V30 629 H 55.9386 4.84846 -0.12227 0
M  V30 630 H 51.8176 4.48883 1.05002 0
M  V30 631 H 55.3616 6.81208 -1.50339 0
M  V30 632 H 51.2586 6.44686 -0.323989 0
M  V30 633 H 52.0266 8.00822 -1.69194 0
M  V30 634 N 54.6897 -0.239769 1.55765 0
M  V30 635 C 55.9177 -0.98417 1.81994 0
M  V30 636 C 56.3327 -1.7867 0.610124 0
M  V30 637 O 55.6897 -1.77571 -0.421271 0
M  V30 638 C 55.7407 -1.91635 3.06526 0
M  V30 639 O 55.4617 -1.14629 4.22838 0
M  V30 640 C 56.9627 -2.77616 3.45607 0
M  V30 641 H 54.1827 -0.28928 0.605441 0
M  V30 642 H 56.7267 -0.260499 2.02834 0
M  V30 643 H 54.8817 -2.5942 2.87715 0
M  V30 644 H 55.2957 -1.77745 4.93464 0
M  V30 645 H 56.7697 -3.38759 4.35828 0
M  V30 646 H 57.2467 -3.4909 2.6652 0
M  V30 647 H 57.8527 -2.15271 3.66795 0
M  V30 648 N 56.1678 -1.49265 -0.50573 0
M  V30 649 C 57.4078 -1.60128 -1.27038 0
M  V30 650 C 57.7718 -0.279557 -1.89954 0
M  V30 651 O 58.9728 -0.263329 -2.67507 0
M  V30 652 C 57.2438 -2.72507 -2.31246 0
M  V30 653 S 58.8028 -3.0329 -3.17113 0
M  V30 654 H 55.6208 -0.564863 -0.4318 0
M  V30 655 H 58.2228 -1.86902 -0.573397 0
M  V30 656 H 56.9268 -3.67068 -1.83546 0
M  V30 657 H 56.4578 -2.4771 -3.05619 0
M  V30 658 H 58.4728 -2.44448 -4.31809 0
M  V30 659 N 57.6459 0.756429 -1.3826 0
M  V30 660 C 58.8739 1.54565 -1.3754 0
M  V30 661 C 59.2889 1.88767 0.0355331 0
M  V30 662 O 58.6459 1.52572 1.0014 0
M  V30 663 C 58.6969 2.84654 -2.22833 0
M  V30 664 O 58.4179 2.51912 -3.5843 0
M  V30 665 C 59.9189 3.78807 -2.30261 0
M  V30 666 H 57.1389 0.478353 -0.470553 0
M  V30 667 H 59.6829 0.936381 -1.81803 0
M  V30 668 H 57.8379 3.41965 -1.8204 0
M  V30 669 H 58.2519 3.35325 -4.03308 0
M  V30 670 H 59.7259 4.67045 -2.94233 0
M  V30 671 H 60.2029 4.19038 -1.31545 0
M  V30 672 H 60.8089 3.2742 -2.71433 0
M  V30 673 N 59.124 1.23083 0.984299 0
M  V30 674 C 60.354 1.08556 1.75781 0
M  V30 675 C 60.762 -0.366171 1.85623 0
M  V30 676 O 60.105 -1.26524 1.33182 0
M  V30 677 C 60.167 1.63208 3.20318 0
M  V30 678 C 59.831 3.11922 3.33997 0
M  V30 679 C 60.828 4.09259 3.2063 0
M  V30 680 C 58.513 3.51552 3.58771 0
M  V30 681 C 60.507 5.4421 3.31835 0
M  V30 682 C 58.194 4.86649 3.69616 0
M  V30 683 C 59.192 5.82787 3.56157 0
M  V30 684 O 58.88 7.15431 3.66626 0
M  V30 685 H 58.612 0.380713 0.5586 0
M  V30 686 H 61.166 1.63321 1.2456 0
M  V30 687 H 59.396 1.0286 3.72769 0
M  V30 688 H 61.085 1.44216 3.79416 0
M  V30 689 H 61.851 3.79984 3.01392 0
M  V30 690 H 57.73 2.77239 3.6832 0
M  V30 691 H 61.274 6.1923 3.21247 0
M  V30 692 H 57.171 5.15601 3.88363 0
M  V30 693 H 57.939 7.23127 3.83445 0
M  V30 694 N 60.6021 -1.18246 1.0419 0
M  V30 695 C 61.5491 -2.2192 0.634037 0
M  V30 696 C 62.5191 -1.62179 -0.358765 0
M  V30 697 O 63.7041 -1.89122 -0.252466 0
M  V30 698 C 60.8441 -3.451 0.00445535 0
M  V30 699 C 59.9571 -4.19174 1.04487 0
M  V30 700 C 59.0921 -5.29813 0.383676 0
M  V30 701 C 58.1311 -5.9566 1.4091 0
M  V30 702 N 57.2681 -6.97834 0.772784 0
M  V30 703 H 62.1081 -2.56164 1.52263 0
M  V30 704 H 59.6451 -1.25843 0.761701 0
M  V30 705 H 61.6031 -4.15485 -0.377919 0
M  V30 706 H 60.2331 -3.11472 -0.847652 0
M  V30 707 H 59.2851 -3.47604 1.54518 0
M  V30 708 H 60.5971 -4.64267 1.82368 0
M  V30 709 H 59.7511 -6.06677 -0.0528366 0
M  V30 710 H 58.4901 -4.85825 -0.427208 0
M  V30 711 H 57.4951 -5.17535 1.85574 0
M  V30 712 H 58.7201 -6.4173 2.22171 0
M  V30 713 H 56.6661 -6.55998 -0.0177708 0
M  V30 714 H 56.5831 -7.41186 1.48928 0
M  V30 715 H 57.8511 -7.78665 0.36071 0
M  V30 716 N 62.0802 -0.821533 -1.34494 0
M  V30 717 C 63.3082 -0.421884 -2.02553 0
M  V30 718 C 63.7232 0.971745 -1.61872 0
M  V30 719 O 63.0802 1.62864 -0.823496 0
M  V30 720 C 63.1312 -0.51285 -3.57844 0
M  V30 721 O 62.8522 -1.85155 -3.97051 0
M  V30 722 C 64.3532 -0.107921 -4.43169 0
M  V30 723 H 61.5732 -0.169482 -0.649243 0
M  V30 724 H 64.1172 -1.1093 -1.71798 0
M  V30 725 H 62.2722 0.126474 -3.87193 0
M  V30 726 H 62.6862 -1.82482 -4.91732 0
M  V30 727 H 64.1602 -0.222657 -5.51551 0
M  V30 728 H 64.6372 0.948401 -4.28838 0
M  V30 729 H 65.2432 -0.720989 -4.19144 0
M  V30 730 N 63.5583 1.46682 -0.576371 0
M  V30 731 C 64.9743 1.57822 -0.237562 0
M  V30 732 C 65.1743 1.57237 1.26011 0
M  V30 733 O 64.2303 1.48596 2.04146 0
M  V30 734 C 65.5433 2.87499 -0.881168 0
M  V30 735 C 67.0913 3.01119 -0.85417 0
M  V30 736 C 67.5663 4.33524 -1.4772 0
M  V30 737 N 69.0573 4.40207 -1.44125 0
M  V30 738 C 69.7923 5.4126 -1.89276 0
M  V30 739 N 69.2883 6.49021 -2.42371 0
M  V30 740 N 71.0813 5.32422 -1.80231 0
M  V30 741 H 63.2323 1.45306 -1.54919 0
M  V30 742 H 65.4953 0.692733 -0.647167 0
M  V30 743 H 65.2013 2.9372 -1.93447 0
M  V30 744 H 65.0753 3.75224 -0.385592 0
M  V30 745 H 67.4623 2.94485 0.190491 0
M  V30 746 H 67.5433 2.14887 -1.3877 0
M  V30 747 H 67.1873 4.40916 -2.52103 0
M  V30 748 H 67.1173 5.1852 -0.918947 0
M  V30 749 H 69.6083 3.62931 -1.05307 0
M  V30 750 H 69.9213 7.2233 -2.74698 0
M  V30 751 H 68.2663 6.49858 -2.46393 0
M  V30 752 H 71.4573 4.47137 -1.38514 0
M  V30 753 H 71.6303 6.11034 -2.15735 0
M  V30 754 N 65.0364 0.313813 1.54444 0
M  V30 755 C 65.9844 -0.572171 2.25453 0
M  V30 756 C 66.9784 -1.12657 1.2651 0
M  V30 757 O 68.1844 -1.07573 1.44319 0
M  V30 758 H 64.5594 -0.203146 0.724041 0
M  V30 759 H 66.5304 0.0491145 2.9836 0
M  V30 760 C 65.2794 -1.72626 3.0182 0
M  V30 761 H 64.6024 -1.30891 3.77767 0
M  V30 762 H 66.0424 -2.32199 3.54767 0
M  V30 763 C 64.5014 -2.63806 2.09542 0
M  V30 764 O 65.0314 -3.65256 1.67185 0
M  V30 765 N 63.2374 -2.31824 1.75232 0
M  V30 766 H 62.7844 -1.49368 2.09873 0
M  V30 767 H 62.7424 -2.93095 1.13767 0
M  V30 768 N 66.5145 -1.57545 0.0417849 0
M  V30 769 C 67.9305 -1.56467 -0.314704 0
M  V30 770 C 68.1305 -1.04859 -1.72066 0
M  V30 771 O 67.1865 -0.700983 -2.42575 0
M  V30 772 C 68.4995 -3.00317 -0.15174 0
M  V30 773 C 70.0475 -3.12201 -0.223553 0
M  V30 774 C 70.5225 -4.57913 -0.0892295 0
M  V30 775 N 72.0135 -4.6297 -0.145808 0
M  V30 776 C 72.7485 -5.73362 -0.0658459 0
M  V30 777 N 72.2445 -6.92769 0.0659282 0
M  V30 778 N 74.0375 -5.6197 -0.12075 0
M  V30 779 H 66.1885 -1.89416 0.961014 0
M  V30 780 H 68.4515 -0.871862 0.372237 0
M  V30 781 H 68.1575 -3.42073 0.817254 0
M  V30 782 H 68.0315 -3.65892 -0.916692 0
M  V30 783 H 70.4185 -2.70349 -1.18301 0
M  V30 784 H 70.4995 -2.49323 0.571994 0
M  V30 785 H 70.1435 -5.00448 0.866867 0
M  V30 786 H 70.0735 -5.18786 -0.903802 0
M  V30 787 H 72.5645 -3.7709 -0.247286 0
M  V30 788 H 72.8775 -7.72707 0.119905 0
M  V30 789 H 71.2225 -6.94927 0.100885 0
M  V30 790 H 74.4135 -4.67572 -0.222187 0
M  V30 791 H 74.5865 -6.47977 -0.0549735 0
M  V30 792 N 67.9926 0.231505 -1.5589 0
M  V30 793 C 68.9556 1.27028 -1.90779 0
M  V30 794 C 69.9556 1.40308 -0.785507 0
M  V30 795 O 71.1456 1.38744 -1.05336 0
M  V30 796 C 68.2776 2.64566 -2.14983 0
M  V30 797 H 69.4706 0.973017 -2.83677 0
M  V30 798 H 67.0236 0.471486 -1.49019 0
M  V30 799 H 67.7586 2.99406 -1.24604 0
M  V30 800 H 67.5436 2.56305 -2.96732 0
M  V30 801 H 69.0336 3.39543 -2.43105 0
M  V30 802 N 69.4707 1.49531 0.497807 0
M  V30 803 C 70.4007 1.6935 1.60757 0
M  V30 804 C 71.3817 0.542218 1.61227 0
M  V30 805 O 72.5667 0.778417 1.77917 0
M  V30 806 C 69.6967 1.76298 2.99226 0
M  V30 807 C 68.6507 2.91248 3.13622 0
M  V30 808 C 67.9767 2.83312 4.53474 0
M  V30 809 C 69.2767 4.3214 2.93346 0
M  V30 810 H 70.9707 2.62263 1.44425 0
M  V30 811 H 68.5167 1.26208 0.693367 0
M  V30 812 H 70.4697 1.88749 3.76765 0
M  V30 813 H 69.1937 0.799871 3.16654 0
M  V30 814 H 67.8527 2.78404 2.38509 0
M  V30 815 H 67.5007 1.84902 4.67782 0
M  V30 816 H 67.2007 3.60465 4.64046 0
M  V30 817 H 68.7247 2.97775 5.33069 0
M  V30 818 H 70.1387 4.45649 3.60652 0
M  V30 819 H 68.5357 5.1054 3.15387 0
M  V30 820 H 69.6057 4.46363 1.89441 0
M  V30 821 N 70.9488 -0.749086 1.3866 0
M  V30 822 C 71.8988 -1.85368 1.32751 0
M  V30 823 C 72.8828 -1.59511 0.210945 0
M  V30 824 O 74.0748 -1.71255 0.447299 0
M  V30 825 C 71.2038 -3.23131 1.15935 0
M  V30 826 C 70.2898 -3.54864 2.32233 0
M  V30 827 N 70.6808 -3.57625 3.57684 0
M  V30 828 C 68.9788 -3.85154 2.24883 0
M  V30 829 C 69.6798 -3.86753 4.34508 0
M  V30 830 N 68.6558 -4.03812 3.63918 0
M  V30 831 H 72.4578 -1.85787 2.27729 0
M  V30 832 H 69.9718 -0.946658 1.31955 0
M  V30 833 H 71.9688 -4.02185 1.09786 0
M  V30 834 H 70.6288 -3.23961 0.218947 0
M  V30 835 H 71.6398 -3.39276 3.91295 0
M  V30 836 H 68.3168 -3.93672 1.39027 0
M  V30 837 H 69.7068 -3.95474 5.43185 0
M  V30 838 N 72.4269 -1.23603 -0.977757 0
M  V30 839 C 73.8379 -1.06424 -1.53398 0
M  V30 840 C 74.1889 0.367578 -1.92726 0
M  V30 841 O 73.3139 1.25465 -1.76316 0
M  V30 842 C 73.9089 -1.92568 -2.78753 0
M  V30 843 C 72.4679 -1.79642 -3.30765 0
M  V30 844 C 71.6149 -1.88111 -2.03739 0
M  V30 845 H 74.5659 -1.37227 -0.797152 0
M  V30 846 H 74.5869 -1.45203 -3.51705 0
M  V30 847 H 74.0989 -2.96771 -2.50098 0
M  V30 848 H 72.1999 -0.782325 -3.64294 0
M  V30 849 H 72.3129 -2.63174 -4.00345 0
M  V30 850 H 70.6769 -1.31723 -2.17994 0
M  V30 851 H 71.4599 -2.93875 -1.77461 0
M  V30 852 N 73.905 1.17692 -1.04816 0
M  V30 853 C 74.835 2.23777 -0.666791 0
M  V30 854 C 75.816 1.66796 0.33361 0
M  V30 855 O 77.001 1.93039 0.212042 0
M  V30 856 C 74.131 3.47281 -0.0367933 0
M  V30 857 C 73.085 4.17059 -0.961546 0
M  V30 858 C 72.411 5.34342 -0.195626 0
M  V30 859 C 73.711 4.69713 -2.28402 0
M  V30 860 H 75.405 2.55933 -1.55367 0
M  V30 861 H 72.951 1.23019 -0.748484 0
M  V30 862 H 74.904 4.20706 0.241775 0
M  V30 863 H 73.628 3.14381 0.885004 0
M  V30 864 H 72.287 3.45541 -1.22462 0
M  V30 865 H 71.935 4.97692 0.728816 0
M  V30 866 H 71.635 5.81966 -0.811775 0
M  V30 867 H 73.159 6.10553 0.0757473 0
M  V30 868 H 74.573 5.34794 -2.06563 0
M  V30 869 H 72.97 5.279 -2.8538 0
M  V30 870 H 74.04 3.86726 -2.92525 0
M  V30 871 N 75.3831 0.828654 1.34056 0
M  V30 872 C 76.6291 0.429279 1.98818 0
M  V30 873 C 76.9841 -0.998011 1.64492 0
M  V30 874 O 76.2771 -1.68652 0.909228 0
M  V30 875 C 76.4711 0.575226 3.52741 0
M  V30 876 C 76.3001 2.01515 4.02022 0
M  V30 877 C 75.0701 2.64825 4.30344 0
M  V30 878 C 77.2681 2.98261 4.18981 0
M  V30 879 N 75.2501 3.99998 4.65698 0
M  V30 880 C 76.6211 4.18356 4.57578 0
M  V30 881 C 78.6761 2.94802 4.01243 0
M  V30 882 C 77.3791 5.35454 4.80293 0
M  V30 883 C 79.4051 4.11121 4.25128 0
M  V30 884 C 78.7671 5.29969 4.64018 0
M  V30 885 H 74.8661 0.205304 0.754569 0
M  V30 886 H 77.4501 1.07457 1.62361 0
M  V30 887 H 75.6211 -0.0401962 3.88379 0
M  V30 888 H 77.3531 0.148292 4.04428 0
M  V30 889 H 74.1081 2.16027 4.21461 0
M  V30 890 H 74.5321 4.69653 4.87601 0
M  V30 891 H 79.1741 2.04054 3.70299 0
M  V30 892 H 76.8921 6.26755 5.10102 0
M  V30 893 H 80.4781 4.0985 4.12934 0
M  V30 894 H 79.3581 6.18479 4.82134 0
M  V30 895 N 76.8612 -1.46375 0.584142 0
M  V30 896 C 77.7712 -2.34115 -0.150728 0
M  V30 897 C 78.7872 -1.49838 -0.884567 0
M  V30 898 O 79.9632 -1.82704 -0.847429 0
M  V30 899 C 77.0282 -3.2705 -1.15062 0
M  V30 900 C 76.0892 -4.27228 -0.421293 0
M  V30 901 C 75.3222 -5.15722 -1.37355 0
M  V30 902 O 75.5452 -5.07176 -2.61014 0
M  V30 903 O 74.4792 -5.95383 -0.883355 0
M  V30 904 H 78.3052 -2.98309 0.569708 0
M  V30 905 H 75.8902 -1.45373 0.344535 0
M  V30 906 H 77.7722 -3.84381 -1.72712 0
M  V30 907 H 76.4472 -2.65451 -1.8525 0
M  V30 908 H 75.3542 -3.7358 0.197085 0
M  V30 909 H 76.6872 -4.91616 0.239641 0
M  V30 910 N 78.3393 -0.321999 -1.54275 0
M  V30 911 C 79.5643 0.285791 -2.05422 0
M  V30 912 C 79.9893 1.45124 -1.19669 0
M  V30 913 O 79.3473 1.80132 -0.205441 0
M  V30 914 C 79.3953 0.69956 -3.53749 0
M  V30 915 O 78.4993 1.8021 -3.70942 0
M  V30 916 H 77.8403 0.0518962 -0.661969 0
M  V30 917 H 80.3703 -0.469954 -1.9913 0
M  V30 918 H 80.3803 0.982649 -3.9599 0
M  V30 919 H 79.0553 -0.152864 -4.15619 0
M  V30 920 H 77.6323 1.51794 -3.40607 0
M  V30 921 N 79.8174 1.5752 -0.0501392 0
M  V30 922 C 81.0634 1.92936 0.624798 0
M  V30 923 C 81.3964 0.928685 1.70555 0
M  V30 924 O 80.6714 -0.0454779 1.94447 0
M  V30 925 C 80.9544 3.38737 1.22185 0
M  V30 926 C 80.8074 4.49552 0.149218 0
M  V30 927 C 82.1264 3.84913 2.13378 0
M  V30 928 H 79.2454 0.701604 0.225657 0
M  V30 929 H 81.8874 1.89671 -0.111693 0
M  V30 930 H 80.0374 3.4165 1.84953 0
M  V30 931 H 81.7094 4.58768 -0.482648 0
M  V30 932 H 79.9524 4.30638 -0.522841 0
M  V30 933 H 80.6234 5.48653 0.606966 0
M  V30 934 H 83.0994 3.8387 1.60572 0
M  V30 935 H 81.9754 4.87584 2.52097 0
M  V30 936 H 82.2364 3.21611 3.03346 0
M  V30 937 N 81.2955 -0.223234 1.56011 0
M  V30 938 C 82.5725 -0.972108 1.69733 0
M  V30 939 C 82.9525 -2.02485 0.59691 0
M  V30 940 O 82.3005 -2.25037 -0.396324 0
M  V30 941 C 82.5105 -1.58407 3.10979 0
M  V30 942 C 83.8585 -2.07696 3.70334 0
M  V30 943 O 84.8825 -1.68304 3.1393 0
M  V30 944 O 83.7415 -2.80096 4.69264 0
M  V30 945 H 80.8355 -0.453993 0.691245 0
M  V30 946 H 83.3815 -0.215149 1.68331 0
M  V30 947 H 82.1535 -0.823831 3.82529 0
M  V30 948 H 81.7765 -2.40661 3.16493 0
M  V30 949 N 82.7736 -1.49793 -0.48987 0
M  V30 950 C 83.7036 -1.70201 -1.59856 0
M  V30 951 C 84.6846 -0.55076 -1.60937 0
M  V30 952 O 85.8696 -0.787841 -1.77501 0
M  V30 953 C 82.9996 -1.77882 -2.98287 0
M  V30 954 C 81.9536 -2.92907 -3.12073 0
M  V30 955 C 81.2796 -2.85712 -4.51965 0
M  V30 956 C 82.5796 -4.3369 -2.91051 0
M  V30 957 H 84.2736 -2.63025 -1.43032 0
M  V30 958 H 81.8196 -1.26574 -0.686664 0
M  V30 959 H 83.7726 -1.90744 -3.75759 0
M  V30 960 H 82.4966 -0.816653 -3.16225 0
M  V30 961 H 81.1556 -2.79665 -2.37029 0
M  V30 962 H 80.8036 -1.8738 -4.66795 0
M  V30 963 H 80.5036 -3.62921 -4.62128 0
M  V30 964 H 82.0276 -3.00598 -5.31482 0
M  V30 965 H 83.4416 -4.47555 -3.58284 0
M  V30 966 H 81.8386 -5.12205 -3.12675 0
M  V30 967 H 82.9086 -4.47362 -1.87071 0
M  V30 968 N 84.2517 0.741722 -1.39055 0
M  V30 969 C 85.4977 1.50336 -1.36113 0
M  V30 970 C 85.8307 1.94148 0.0450796 0
M  V30 971 O 85.1057 1.66301 1.00868 0
M  V30 972 C 85.3887 2.74773 -2.32749 0
M  V30 973 C 85.2417 2.37023 -3.82283 0
M  V30 974 C 86.5607 3.76846 -2.27322 0
M  V30 975 H 83.6797 0.545351 -0.495743 0
M  V30 976 H 86.3217 0.848624 -1.69995 0
M  V30 977 H 84.4717 3.30639 -2.03986 0
M  V30 978 H 86.1437 1.8684 -4.21768 0
M  V30 979 H 84.3867 1.69334 -3.99385 0
M  V30 980 H 85.0577 3.26104 -4.45376 0
M  V30 981 H 87.5337 3.30548 -2.5274 0
M  V30 982 H 86.4097 4.6159 -2.97028 0
M  V30 983 H 86.6707 4.23286 -1.27599 0
M  V30 984 N 85.7298 1.2412 0.971189 0
M  V30 985 C 87.1408 1.07236 1.52831 0
M  V30 986 C 87.4918 -0.357352 1.92918 0
M  V30 987 O 86.6168 -1.24528 1.76979 0
M  V30 988 C 87.2118 1.94043 2.77728 0
M  V30 989 C 85.7708 1.81394 3.29808 0
M  V30 990 C 84.9178 1.89189 2.02738 0
M  V30 991 H 87.8688 1.37648 0.789864 0
M  V30 992 H 87.8898 1.47066 3.5093 0
M  V30 993 H 87.4018 2.98093 2.4852 0
M  V30 994 H 85.5028 0.801634 3.63874 0
M  V30 995 H 85.6158 2.65294 3.98944 0
M  V30 996 H 83.9798 1.32877 2.17292 0
M  V30 997 H 84.7628 2.94812 1.759 0
M  V30 998 N 87.2079 -1.17134 1.05439 0
M  V30 999 C 88.4559 -1.87085 0.764429 0
M  V30 1000 C 88.7769 -1.81584 -0.710787 0
M  V30 1001 O 88.0469 -1.24349 -1.51374 0
M  V30 1002 H 86.6269 -0.692627 0.279779 0
M  V30 1003 H 89.2889 -1.42087 1.33406 0
M  V30 1004 H 88.3849 -2.92759 1.0816 0
M  V30 1005 N 88.686 -0.835752 -1.33615 0
M  V30 1006 C 89.934 -0.429109 -1.97492 0
M  V30 1007 C 90.255 1.01433 -1.66543 0
M  V30 1008 O 89.525 1.70611 -0.962744 0
M  V30 1009 H 88.105 -0.155686 -0.730596 0
M  V30 1010 H 90.767 -1.06802 -1.63031 0
M  V30 1011 H 89.863 -0.55861 -3.0706 0
M  V30 1012 N 90.1641 1.46063 -0.591896 0
M  V30 1013 C 91.4411 1.95595 -0.0137119 0
M  V30 1014 C 91.8211 1.5345 1.4497 0
M  V30 1015 O 91.1691 0.789543 2.14426 0
M  V30 1016 C 91.3791 3.48453 -0.195373 0
M  V30 1017 C 92.7271 4.24546 -0.0679765 0
M  V30 1018 O 93.7511 3.55982 -0.124681 0
M  V30 1019 O 92.6101 5.46467 0.0600579 0
M  V30 1020 H 89.7041 0.825795 0.0446279 0
M  V30 1021 H 92.2501 1.56303 -0.660859 0
M  V30 1022 H 91.0221 3.72045 -1.21235 0
M  V30 1023 H 90.6451 3.94597 0.487775 0
M  V30 1024 N 91.6422 0.330177 1.54103 0
M  V30 1025 C 93.0582 -0.0222371 1.59585 0
M  V30 1026 C 93.2582 -1.49902 1.34654 0
M  V30 1027 O 92.3142 -2.25592 1.13421 0
M  V30 1028 C 93.6272 0.401932 2.98002 0
M  V30 1029 C 95.1752 0.353145 3.11001 0
M  V30 1030 C 95.6502 0.752576 4.51775 0
M  V30 1031 N 97.1412 0.706239 4.57784 0
M  V30 1032 C 97.8762 0.987417 5.64834 0
M  V30 1033 N 97.3722 1.33607 6.79795 0
M  V30 1034 N 99.1652 0.91254 5.54643 0
M  V30 1035 H 91.3162 1.29228 1.68564 0
M  V30 1036 H 93.5792 0.525906 0.78875 0
M  V30 1037 H 93.2852 1.4311 3.21267 0
M  V30 1038 H 93.1592 -0.229699 3.765 0
M  V30 1039 H 95.5462 -0.666822 2.87467 0
M  V30 1040 H 95.6272 1.0198 2.34593 0
M  V30 1041 H 95.2712 1.77049 4.76042 0
M  V30 1042 H 95.2012 0.0635409 5.26562 0
M  V30 1043 H 97.6922 0.44889 3.75224 0
M  V30 1044 H 98.0052 1.53582 7.57385 0
M  V30 1045 H 96.3502 1.37439 6.81275 0
M  V30 1046 H 99.5412 0.639601 4.6371 0
M  V30 1047 H 99.7142 1.13503 6.37982 0
M  V30 1048 N 93.1203 -1.57491 0.0584922 0
M  V30 1049 C 94.0523 -2.08916 -0.942694 0
M  V30 1050 C 95.0653 -1.0185 -1.27006 0
M  V30 1051 O 96.2543 -1.29398 -1.22957 0
M  V30 1052 C 93.3543 -2.52341 -2.26224 0
M  V30 1053 C 92.5273 -3.82827 -2.1157 0
M  V30 1054 C 91.5863 -4.12487 -3.26712 0
M  V30 1055 O 90.6123 -4.82295 -3.02292 0
M  V30 1056 N 91.8143 -3.64978 -4.5141 0
M  V30 1057 H 94.5793 -2.95437 -0.503722 0
M  V30 1058 H 92.1403 -1.61397 -0.12757 0
M  V30 1059 H 94.1323 -2.69254 -3.02133 0
M  V30 1060 H 92.7023 -1.7103 -2.61663 0
M  V30 1061 H 91.9223 -3.75425 -1.20208 0
M  V30 1062 H 93.2103 -4.68263 -1.99015 0
M  V30 1063 H 92.6083 -3.08558 -4.7414 0
M  V30 1064 H 91.1653 -3.87115 -5.2439 0
M  V30 1065 N 94.5984 0.214957 -1.56127 0
M  V30 1066 C 95.8234 0.95924 -1.83884 0
M  V30 1067 C 96.2484 1.7689 -0.639644 0
M  V30 1068 O 95.6064 1.76566 0.411601 0
M  V30 1069 C 95.6544 1.84723 -3.09693 0
M  V30 1070 O 94.7584 2.94346 -2.8885 0
M  V30 1071 H 94.0994 0.27125 -0.606069 0
M  V30 1072 H 96.6294 0.226276 -2.03345 0
M  V30 1073 H 96.6394 2.25576 -3.39969 0
M  V30 1074 H 95.3144 1.25218 -3.96602 0
M  V30 1075 H 93.8914 2.57391 -2.69823 0
M  V30 1076 N 96.0765 1.50051 0.48192 0
M  V30 1077 C 97.4875 1.5348 1.06305 0
M  V30 1078 C 97.8385 0.331997 1.93371 0
M  V30 1079 O 96.9635 -0.556256 2.09129 0
M  V30 1080 C 97.5585 2.7813 1.93466 0
M  V30 1081 C 96.1175 2.84275 2.46707 0
M  V30 1082 C 95.2645 2.47637 1.24785 0
M  V30 1083 H 98.2155 1.56472 0.264995 0
M  V30 1084 H 98.2365 2.59372 2.78399 0
M  V30 1085 H 97.7485 3.65654 1.30072 0
M  V30 1086 H 95.8495 2.01077 3.13686 0
M  V30 1087 H 95.9625 3.8691 2.82555 0
M  V30 1088 H 94.3265 1.99835 1.57918 0
M  V30 1089 H 95.1095 3.37457 0.630694 0
M  V30 1090 N 97.5546 -0.734337 1.39446 0
M  V30 1091 C 98.8036 -1.48937 1.36017 0
M  V30 1092 C 99.1166 -1.95557 -0.0409005 0
M  V30 1093 O 100.323 -2.70779 -0.19778 0
M  V30 1094 C 98.7786 -2.69125 2.38955 0
M  V30 1095 C 98.3866 -2.29452 3.8478 0
M  V30 1096 C 100.131 -3.46944 2.44603 0
M  V30 1097 C 98.0376 -3.46366 4.79358 0
M  V30 1098 H 96.9676 -0.559296 0.505672 0
M  V30 1099 H 99.6186 -0.800983 1.65095 0
M  V30 1100 H 98.0006 -3.40041 2.02948 0
M  V30 1101 H 99.1746 -1.66077 4.29831 0
M  V30 1102 H 97.4896 -1.64723 3.82433 0
M  V30 1103 H 100.087 -4.33907 3.12456 0
M  V30 1104 H 100.43 -3.89454 1.47076 0
M  V30 1105 H 100.963 -2.83056 2.79507 0
M  V30 1106 H 97.7016 -3.08905 5.78151 0
M  V30 1107 H 97.2216 -4.08719 4.38986 0
M  V30 1108 H 98.9006 -4.12691 4.98292 0
M  V30 1109 N 99.0327 -1.24633 -0.964593 0
M  V30 1110 C 99.9807 -1.03917 -2.08096 0
M  V30 1111 C 100.975 0.0268581 -1.69379 0
M  V30 1112 O 102.181 -0.127952 -1.79545 0
M  V30 1113 H 98.5557 -0.319044 -0.680966 0
M  V30 1114 H 100.527 -1.98581 -2.22729 0
M  V30 1115 C 99.2757 -0.663983 -3.41301 0
M  V30 1116 H 98.5987 -1.47605 -3.71555 0
M  V30 1117 H 100.039 -0.558663 -4.20303 0
M  V30 1118 C 98.4977 0.629169 -3.30973 0
M  V30 1119 O 99.0277 1.67404 -3.65156 0
M  V30 1120 N 97.2337 0.611057 -2.84103 0
M  V30 1121 H 96.7807 -0.239593 -2.56483 0
M  V30 1122 H 96.7387 1.47647 -2.77575 0
M  V30 1123 N 100.511 1.16574 -1.06058 0
M  V30 1124 C 101.76 1.86385 -0.770944 0
M  V30 1125 C 102.073 1.82448 0.705129 0
M  V30 1126 O 103.279 2.47815 1.10905 0
M  V30 1127 C 101.735 3.34466 -1.32893 0
M  V30 1128 C 101.343 3.46883 -2.83507 0
M  V30 1129 C 103.087 4.09548 -1.11672 0
M  V30 1130 C 100.994 4.89036 -3.32562 0
M  V30 1131 H 99.9238 0.698181 -0.284709 0
M  V30 1132 H 102.575 1.31583 -1.27899 0
M  V30 1133 H 100.957 3.88859 -0.748662 0
M  V30 1134 H 102.131 3.02663 -3.47465 0
M  V30 1135 H 100.446 2.85232 -3.03368 0
M  V30 1136 H 103.043 5.14434 -1.45814 0
M  V30 1137 H 103.386 4.16264 -0.0549535 0
M  V30 1138 H 103.919 3.61387 -1.66265 0
M  V30 1139 H 100.658 4.87499 -4.38207 0
M  V30 1140 H 100.178 5.3389 -2.73351 0
M  V30 1141 H 101.857 5.57843 -3.2775 0
M  V30 1142 N 101.989 0.842826 1.3317 0
M  V30 1143 C 103.405 0.531128 1.50503 0
M  V30 1144 C 103.605 -0.940734 1.78192 0
M  V30 1145 O 102.661 -1.72436 1.84451 0
M  V30 1146 C 103.974 1.40789 2.65705 0
M  V30 1147 C 105.522 1.40708 2.79589 0
M  V30 1148 C 105.997 2.26878 3.97857 0
M  V30 1149 N 107.488 2.24609 4.05099 0
M  V30 1150 C 108.223 2.88019 4.95815 0
M  V30 1151 N 107.719 3.60496 5.9162 0
M  V30 1152 N 109.512 2.77469 4.88843 0
M  V30 1153 H 101.663 1.79557 1.1346 0
M  V30 1154 H 103.926 0.766267 0.558156 0
M  V30 1155 H 103.632 2.454 2.51936 0
M  V30 1156 H 103.506 1.08677 3.61205 0
M  V30 1157 H 105.893 0.368668 2.92788 0
M  V30 1158 H 105.974 1.76829 1.84838 0
M  V30 1159 H 105.618 3.3078 3.85418 0
M  V30 1160 H 105.548 1.88096 4.91861 0
M  V30 1161 H 108.039 1.71906 3.36536 0
M  V30 1162 H 108.352 4.06076 6.57512 0
M  V30 1163 H 106.697 3.64604 5.91683 0
M  V30 1164 H 109.888 2.20406 4.12963 0
M  V30 1165 H 110.061 3.2717 5.59342 0
M  V30 1166 N 103.467 -1.45747 0.599634 0
M  V30 1167 C 104.713 -2.03153 0.100263 0
M  V30 1168 C 105.068 -1.46073 -1.25221 0
M  V30 1169 O 104.361 -0.622878 -1.81193 0
M  V30 1170 C 104.555 -3.57399 -0.00602758 0
M  V30 1171 C 104.384 -4.2944 1.3346 0
M  V30 1172 C 103.154 -4.6768 1.91321 0
M  V30 1173 C 105.352 -4.61905 2.2616 0
M  V30 1174 N 103.334 -5.24544 3.18946 0
M  V30 1175 C 104.705 -5.19518 3.3838 0
M  V30 1176 C 106.76 -4.43841 2.25631 0
M  V30 1177 C 105.463 -5.60972 4.50226 0
M  V30 1178 C 107.489 -4.86322 3.36518 0
M  V30 1179 C 106.851 -5.44021 4.4746 0
M  V30 1180 H 102.95 -0.777911 0.0798696 0
M  V30 1181 H 105.534 -1.77674 0.796244 0
M  V30 1182 H 103.705 -3.82556 -0.671212 0
M  V30 1183 H 105.437 -4.01457 -0.51133 0
M  V30 1184 H 102.192 -4.5098 1.44617 0
M  V30 1185 H 102.616 -5.57483 3.84112 0
M  V30 1186 H 107.258 -3.98552 1.41123 0
M  V30 1187 H 104.976 -6.0523 5.35464 0
M  V30 1188 H 108.562 -4.74084 3.37247 0
M  V30 1189 H 107.442 -5.76289 5.31846 0
M  V30 1190 N 104.945 -0.338344 -1.53925 0
M  V30 1191 C 106.361 0.0137736 -1.59594 0
M  V30 1192 C 106.561 1.49186 -1.35447 0
M  V30 1193 O 105.617 2.24987 -1.14616 0
M  V30 1194 C 106.93 -0.41773 -2.97784 0
M  V30 1195 C 108.478 -0.369633 -3.1081 0
M  V30 1196 C 108.953 -0.776524 -4.51369 0
M  V30 1197 N 110.444 -0.730506 -4.57403 0
M  V30 1198 C 111.179 -1.01736 -5.64303 0
M  V30 1199 N 110.675 -1.3721 -6.79077 0
M  V30 1200 N 112.468 -0.941942 -5.54151 0
M  V30 1201 H 104.619 -1.3012 -1.67876 0
M  V30 1202 H 106.882 -0.530082 -0.78595 0
M  V30 1203 H 106.588 -1.44811 -3.20504 0
M  V30 1204 H 106.462 0.209729 -3.76616 0
M  V30 1205 H 108.849 0.651568 -2.87817 0
M  V30 1206 H 108.93 -1.03223 -2.34049 0
M  V30 1207 H 108.574 -1.79571 -4.75096 0
M  V30 1208 H 108.504 -0.0914649 -5.26521 0
M  V30 1209 H 110.995 -0.468783 -3.74981 0
M  V30 1210 H 111.308 -1.57597 -7.5656 0
M  V30 1211 H 109.653 -1.4105 -6.80536 0
M  V30 1212 H 112.844 -0.664184 -4.63364 0
M  V30 1213 H 113.017 -1.16884 -6.37371 0
M  V30 1214 N 106.423 1.57458 -0.0668435 0
M  V30 1215 C 107.7 1.8469 0.644132 0
M  V30 1216 C 108.08 0.958343 1.88093 0
M  V30 1217 O 107.428 0.0233579 2.28488 0
M  V30 1218 C 107.638 3.34767 0.986509 0
M  V30 1219 C 108.986 4.02159 1.36212 0
M  V30 1220 O 110.01 3.39484 1.07839 0
M  V30 1221 O 108.869 5.12694 1.89227 0
M  V30 1222 H 105.963 0.762816 0.319437 0
M  V30 1223 H 108.509 1.6942 -0.0973986 0
M  V30 1224 H 107.281 3.91151 0.107883 0
M  V30 1225 H 106.904 3.55281 1.78497 0
M  V30 1226 N 107.901 -0.206675 1.56239 0
M  V30 1227 C 109.126 -0.949474 1.8439 0
M  V30 1228 C 109.551 -1.76549 0.649016 0
M  V30 1229 O 108.909 -1.76782 -0.402231 0
M  V30 1230 C 108.957 -1.83078 3.10668 0
M  V30 1231 O 108.061 -2.9281 2.90407 0
M  V30 1232 H 107.402 -0.268033 0.607499 0
M  V30 1233 H 109.932 -0.215488 2.03462 0
M  V30 1234 H 109.942 -2.2377 3.41161 0
M  V30 1235 H 108.617 -1.23112 3.97261 0
M  V30 1236 H 107.194 -2.55956 2.71184 0
M  V30 1237 N 109.379 -1.50304 -0.473955 0
M  V30 1238 C 110.625 -1.61389 -1.22806 0
M  V30 1239 C 110.958 -0.311955 -1.91678 0
M  V30 1240 O 110.233 0.686384 -1.81986 0
M  V30 1241 C 110.516 -2.79219 -2.27396 0
M  V30 1242 C 110.369 -4.19286 -1.62848 0
M  V30 1243 C 111.688 -2.92614 -3.28732 0
M  V30 1244 H 108.807 -0.587399 -0.445119 0
M  V30 1245 H 111.449 -1.82681 -0.522265 0
M  V30 1246 H 109.599 -2.61195 -2.87592 0
M  V30 1247 H 111.271 -4.48892 -1.06271 0
M  V30 1248 H 109.514 -4.23677 -0.931693 0
M  V30 1249 H 110.185 -4.97655 -2.38838 0
M  V30 1250 H 112.661 -3.09105 -2.78556 0
M  V30 1251 H 111.537 -3.76688 -3.99246 0
M  V30 1252 H 111.798 -2.03107 -3.92683 0
M  V30 1253 N 110.857 0.726932 -1.39834 0
M  V30 1254 C 112.087 1.51393 -1.40583 0
M  V30 1255 C 112.495 1.892 -0.000740625 0
M  V30 1256 O 111.838 1.55189 0.982951 0
M  V30 1257 C 111.9 2.82588 -2.22226 0
M  V30 1258 C 111.564 2.67169 -3.70769 0
M  V30 1259 C 112.561 2.3518 -4.63666 0
M  V30 1260 C 110.246 2.83788 -4.14451 0
M  V30 1261 C 112.24 2.20002 -5.98229 0
M  V30 1262 C 109.927 2.68229 -5.49087 0
M  V30 1263 C 110.925 2.36382 -6.4079 0
M  V30 1264 O 110.613 2.2093 -7.72946 0
M  V30 1265 H 110.345 0.474168 -0.48181 0
M  V30 1266 H 112.899 0.905247 -1.84376 0
M  V30 1267 H 111.129 3.45746 -1.73195 0
M  V30 1268 H 112.818 3.44247 -2.15055 0
M  V30 1269 H 113.584 2.21984 -4.31217 0
M  V30 1270 H 109.463 3.07566 -3.43401 0
M  V30 1271 H 113.007 1.95067 -6.69772 0
M  V30 1272 H 108.904 2.81006 -5.81125 0
M  V30 1273 H 109.672 2.35937 -7.83757 0
M  V30 1274 N 112.336 1.25143 0.95797 0
M  V30 1275 C 113.613 1.00472 1.67823 0
M  V30 1276 C 113.993 -0.470056 2.058 0
M  V30 1277 O 113.341 -1.44663 1.76875 0
M  V30 1278 C 113.551 1.9372 2.90299 0
M  V30 1279 C 114.899 2.21371 3.62326 0
M  V30 1280 O 115.923 1.91451 3.00375 0
M  V30 1281 O 114.782 2.72231 4.7387 0
M  V30 1282 H 111.876 0.380752 0.734137 0
M  V30 1283 H 114.422 1.36283 1.01119 0
M  V30 1284 H 113.194 2.93316 2.59001 0
M  V30 1285 H 112.817 1.58286 3.64735 0
M  V30 1286 N 113.814 -1.1601 1.06675 0
M  V30 1287 C 115.225 -1.68235 0.809565 0
M  V30 1288 C 115.576 -1.8454 -0.666303 0
M  V30 1289 O 114.701 -1.54374 -1.5165 0
M  V30 1290 C 115.296 -3.05585 1.46299 0
M  V30 1291 C 113.855 -3.54915 1.25349 0
M  V30 1292 C 113.002 -2.30804 1.53703 0
M  V30 1293 H 115.953 -1.00318 1.22971 0
M  V30 1294 H 115.974 -3.70174 0.880431 0
M  V30 1295 H 115.486 -2.93686 2.53713 0
M  V30 1296 H 113.587 -3.72067 0.199261 0
M  V30 1297 H 113.7 -4.36774 1.9689 0
M  V30 1298 H 112.064 -2.36007 0.957739 0
M  V30 1299 H 112.847 -2.21499 2.62284 0
M  V30 1300 N 115.292 -0.849877 -1.32721 0
M  V30 1301 C 116.54 -0.450032 -1.97026 0
M  V30 1302 C 116.861 0.996604 -1.67609 0
M  V30 1303 O 116.131 1.6958 -0.980786 0
M  V30 1304 H 114.711 -0.163426 -0.728904 0
M  V30 1305 H 117.373 -1.08526 -1.6189 0
M  V30 1306 H 116.469 -0.591146 -3.0645 0
M  V30 1307 N 116.77 1.45427 -0.607355 0
M  V30 1308 C 117.7 2.3329 0.0989352 0
M  V30 1309 C 118.681 1.46816 0.859007 0
M  V30 1310 O 119.866 1.75588 0.829604 0
M  V30 1311 C 116.996 3.29518 1.09705 0
M  V30 1312 C 115.95 4.25626 0.450206 0
M  V30 1313 C 115.276 5.11542 1.55655 0
M  V30 1314 C 116.576 5.18505 -0.628455 0
M  V30 1315 H 118.27 2.92595 -0.634716 0
M  V30 1316 H 115.816 1.40696 -0.306681 0
M  V30 1317 H 117.769 3.89855 1.59971 0
M  V30 1318 H 116.493 2.68372 1.86129 0
M  V30 1319 H 115.152 3.66586 -0.0315886 0
M  V30 1320 H 114.8 4.46765 2.31107 0
M  V30 1321 H 114.5 5.76647 1.12925 0
M  V30 1322 H 116.024 5.74748 2.06148 0
M  V30 1323 H 117.438 5.72916 -0.209877 0
M  V30 1324 H 115.835 5.92085 -0.977489 0
M  V30 1325 H 116.905 4.60948 -1.50514 0
M  V30 1326 N 118.248 0.346503 1.53744 0
M  V30 1327 C 119.195 -0.508914 2.25119 0
M  V30 1328 C 120.165 -1.09315 1.25058 0
M  V30 1329 O 121.35 -1.12921 1.53797 0
M  V30 1330 C 118.49 -1.65246 3.02965 0
M  V30 1331 C 117.603 -1.09525 4.17886 0
M  V30 1332 C 116.738 -2.20634 4.83212 0
M  V30 1333 C 115.777 -1.62279 5.90196 0
M  V30 1334 N 114.914 -2.67143 6.49291 0
M  V30 1335 H 119.754 0.106283 2.9781 0
M  V30 1336 H 117.291 0.0642227 1.4696 0
M  V30 1337 H 119.249 -2.32574 3.4636 0
M  V30 1338 H 117.879 -2.2386 2.32565 0
M  V30 1339 H 116.931 -0.312818 3.79112 0
M  V30 1340 H 118.243 -0.628444 4.94825 0
M  V30 1341 H 117.397 -2.95821 5.29693 0
M  V30 1342 H 116.136 -2.70659 4.05703 0
M  V30 1343 H 115.141 -0.855989 5.43096 0
M  V30 1344 H 116.366 -1.13102 6.69615 0
M  V30 1345 H 114.312 -3.16417 5.74645 0
M  V30 1346 H 114.229 -2.25093 7.21713 0
M  V30 1347 H 115.497 -3.4209 7.00425 0
M  V30 1348 N 119.726 -1.57421 0.075193 0
M  V30 1349 C 121.137 -1.81021 -0.456964 0
M  V30 1350 C 121.488 -0.98936 -1.69429 0
M  V30 1351 O 120.613 -0.212865 -2.15351 0
M  V30 1352 C 121.208 -3.28329 -0.83581 0
M  V30 1353 C 119.767 -3.52764 -1.31281 0
M  V30 1354 C 118.914 -2.75676 -0.299648 0
M  V30 1355 H 121.865 -1.55822 0.300856 0
M  V30 1356 H 121.886 -3.40564 -1.69696 0
M  V30 1357 H 121.398 -3.88046 0.0649238 0
M  V30 1358 H 119.499 -2.98355 -2.23193 0
M  V30 1359 H 119.612 -4.61451 -1.28839 0
M  V30 1360 H 117.976 -2.42538 -0.777641 0
M  V30 1361 H 118.759 -3.38132 0.593417 0
M  V30 1362 N 121.204 0.198386 -1.56346 0
M  V30 1363 C 122.134 1.24865 -1.9731 0
M  V30 1364 C 123.115 1.47651 -0.844576 0
M  V30 1365 O 124.3 1.59444 -1.10866 0
M  V30 1366 C 121.43 2.59358 -2.30977 0
M  V30 1367 C 120.384 2.5119 -3.46537 0
M  V30 1368 C 119.71 3.89926 -3.65871 0
M  V30 1369 C 121.01 2.03977 -4.80823 0
M  V30 1370 H 122.704 0.908252 -2.85291 0
M  V30 1371 H 120.25 0.435462 -1.37258 0
M  V30 1372 H 122.203 3.33011 -2.58228 0
M  V30 1373 H 120.927 2.95132 -1.39874 0
M  V30 1374 H 119.586 1.79993 -3.19371 0
M  V30 1375 H 119.234 4.23046 -2.72105 0
M  V30 1376 H 118.934 3.85336 -4.4361 0
M  V30 1377 H 120.458 4.65205 -3.95495 0
M  V30 1378 H 121.872 2.67386 -5.07127 0
M  V30 1379 H 120.269 2.10397 -5.62008 0
M  V30 1380 H 121.339 0.992861 -4.74626 0
M  V30 1381 N 122.682 1.50554 0.465978 0
M  V30 1382 C 123.91 1.65563 1.24083 0
M  V30 1383 C 124.325 0.341051 1.85694 0
M  V30 1384 O 123.682 -0.677543 1.69457 0
M  V30 1385 C 123.733 2.75051 2.34583 0
M  V30 1386 O 123.454 4.01413 1.75497 0
M  V30 1387 C 124.955 3.01078 3.25372 0
M  V30 1388 H 122.175 0.55638 0.375077 0
M  V30 1389 H 124.719 1.96807 0.555624 0
M  V30 1390 H 122.874 2.46486 2.9887 0
M  V30 1391 H 123.288 4.62002 2.48303 0
M  V30 1392 H 124.762 3.81339 3.99105 0
M  V30 1393 H 125.239 2.12349 3.84453 0
M  V30 1394 H 125.845 3.31194 2.66816 0
M  V30 1395 N 124.16 -0.719506 1.40217 0
M  V30 1396 C 125.409 -1.47486 1.37589 0
M  V30 1397 C 125.722 -1.9559 -0.0201568 0
M  V30 1398 O 126.928 -2.70973 -0.169049 0
M  V30 1399 C 125.384 -2.66575 2.41796 0
M  V30 1400 C 124.992 -2.25358 3.87192 0
M  V30 1401 C 126.736 -3.4433 2.48269 0
M  V30 1402 C 124.643 -3.41262 4.83005 0
M  V30 1403 H 123.573 -0.553901 0.511576 0
M  V30 1404 H 126.224 -0.783427 1.65936 0
M  V30 1405 H 124.606 -3.3787 2.06543 0
M  V30 1406 H 125.78 -1.61509 4.31569 0
M  V30 1407 H 124.095 -1.60657 3.84159 0
M  V30 1408 H 126.692 -4.30569 3.17041 0
M  V30 1409 H 127.035 -3.87872 1.51198 0
M  V30 1410 H 127.568 -2.80076 2.82493 0
M  V30 1411 H 124.307 -3.02755 5.81394 0
M  V30 1412 H 123.827 -4.0404 4.43297 0
M  V30 1413 H 125.506 -4.07383 5.02641 0
M  V30 1414 N 125.638 -1.25649 -0.95132 0
M  V30 1415 C 126.863 -1.13443 -1.73624 0
M  V30 1416 C 127.288 0.307565 -1.85568 0
M  V30 1417 O 126.646 1.22282 -1.33854 0
M  V30 1418 C 126.694 -1.79723 -3.12621 0
M  V30 1419 O 125.798 -1.07912 -3.98031 0
M  V30 1420 H 125.139 -0.395872 -0.533086 0
M  V30 1421 H 127.669 -1.66276 -1.1922 0
M  V30 1422 H 127.679 -1.86141 -3.63064 0
M  V30 1423 H 126.354 -2.84633 -3.03244 0
M  V30 1424 H 124.931 -1.09398 -3.56492 0
M  V30 1425 N 127.117 1.15442 -1.07289 0
M  V30 1426 C 128.347 1.89821 -0.815576 0
M  V30 1427 C 128.755 1.7823 0.634867 0
M  V30 1428 O 128.098 1.13152 1.44715 0
M  V30 1429 C 128.16 3.40817 -1.14385 0
M  V30 1430 C 127.824 3.76193 -2.59476 0
M  V30 1431 C 128.821 3.77269 -3.57721 0
M  V30 1432 C 126.506 4.0652 -2.95037 0
M  V30 1433 C 128.5 4.08176 -4.89562 0
M  V30 1434 C 126.187 4.37092 -4.27076 0
M  V30 1435 C 127.185 4.37902 -5.24148 0
M  V30 1436 O 126.873 4.67741 -6.53815 0
M  V30 1437 H 126.605 0.608465 -0.294528 0
M  V30 1438 H 129.159 1.472 -1.43252 0
M  V30 1439 H 127.389 3.83835 -0.469865 0
M  V30 1440 H 129.078 3.96485 -0.869179 0
M  V30 1441 H 129.844 3.5394 -3.3159 0
M  V30 1442 H 125.723 4.05049 -2.20128 0
M  V30 1443 H 129.267 4.08723 -5.65324 0
M  V30 1444 H 125.164 4.59889 -4.5296 0
M  V30 1445 H 125.932 4.85509 -6.58957 0
M  V30 1446 N 128.595 0.856903 1.32268 0
M  V30 1447 C 129.872 0.382583 1.91822 0
M  V30 1448 C 130.252 -1.13407 1.78051 0
M  V30 1449 O 129.6 -1.95673 1.18001 0
M  V30 1450 C 129.81 0.849446 3.38505 0
M  V30 1451 C 131.158 0.867936 4.15634 0
M  V30 1452 O 132.182 0.794232 3.47232 0
M  V30 1453 O 131.041 0.972286 5.37781 0
M  V30 1454 H 128.135 0.112014 0.819379 0
M  V30 1455 H 130.681 0.943952 1.41024 0
M  V30 1456 H 129.453 1.89267 3.42482 0
M  V30 1457 H 129.076 0.265652 3.96712 0
M  V30 1458 N 130.073 -1.45103 0.615059 0
M  V30 1459 C 131.484 -1.85654 0.197383 0
M  V30 1460 C 131.835 -1.51433 -1.24749 0
M  V30 1461 O 130.96 -0.944608 -1.94695 0
M  V30 1462 C 131.555 -3.36972 0.351448 0
M  V30 1463 C 130.114 -3.76398 -0.011593 0
M  V30 1464 C 129.261 -2.69024 0.672394 0
M  V30 1465 H 132.212 -1.35797 0.821263 0
M  V30 1466 H 132.233 -3.78239 -0.414227 0
M  V30 1467 H 131.745 -3.61847 1.40314 0
M  V30 1468 H 129.846 -3.5714 -1.06217 0
M  V30 1469 H 129.959 -4.77532 0.387265 0
M  V30 1470 H 128.323 -2.54465 0.109284 0
M  V30 1471 H 129.106 -2.96735 1.72636 0
M  V30 1472 N 131.551 -0.354651 -1.53558 0
M  V30 1473 C 132.514 0.484566 -2.24019 0
M  V30 1474 C 133.514 1.01861 -1.24422 0
M  V30 1475 O 134.704 0.906097 -1.4878 0
M  V30 1476 C 131.836 1.67615 -2.96847 0
M  V30 1477 H 133.029 -0.131843 -2.9961 0
M  V30 1478 H 130.582 -0.106165 -1.55939 0
M  V30 1479 H 131.317 2.33095 -2.25471 0
M  V30 1480 H 131.102 1.30029 -3.69912 0
M  V30 1481 H 132.592 2.27114 -3.50441 0
M  V30 1482 N 133.029 1.57378 -0.0835403 0
M  V30 1483 C 134.257 1.98263 0.59157 0
M  V30 1484 C 134.672 0.962302 1.62435 0
M  V30 1485 O 134.029 -0.049581 1.82433 0
M  V30 1486 C 134.08 3.39214 1.24965 0
M  V30 1487 O 133.801 4.37339 0.258186 0
M  V30 1488 C 135.302 3.95038 2.01147 0
M  V30 1489 H 132.522 0.651773 0.159477 0
M  V30 1490 H 135.066 2.03878 -0.159415 0
M  V30 1491 H 133.221 3.34649 1.95164 0
M  V30 1492 H 133.635 5.19371 0.731734 0
M  V30 1493 H 135.109 4.95848 2.42567 0
M  V30 1494 H 135.586 3.32222 2.87272 0
M  V30 1495 H 136.192 4.0304 1.35789 0
M  V30 1496 N 134.507 -0.190092 1.56449 0
M  V30 1497 C 135.747 -0.916414 1.82705 0
M  V30 1498 C 136.111 -1.80235 0.661763 0
M  V30 1499 O 137.312 -2.56484 0.80433 0
M  V30 1500 C 135.583 -1.70691 3.14005 0
M  V30 1501 S 137.142 -2.48457 3.61683 0
M  V30 1502 H 133.96 -0.307281 0.64117 0
M  V30 1503 H 136.562 -0.179433 1.94675 0
M  V30 1504 H 135.266 -1.04677 3.96826 0
M  V30 1505 H 134.797 -2.48562 3.04927 0
M  V30 1506 H 136.812 -3.72756 3.27517 0
M  V30 1507 N 135.985 -1.50799 -0.457987 0
M  V30 1508 C 136.915 -1.73553 -1.5621 0
M  V30 1509 C 137.896 -0.584774 -1.59732 0
M  V30 1510 O 139.081 -0.825314 -1.7579 0
M  V30 1511 C 136.211 -1.84169 -2.94447 0
M  V30 1512 C 135.165 -2.99461 -3.0579 0
M  V30 1513 C 134.491 -2.95235 -4.45803 0
M  V30 1514 C 135.791 -4.39766 -2.81786 0
M  V30 1515 H 137.485 -2.66 -1.37421 0
M  V30 1516 H 135.031 -1.28002 -0.659662 0
M  V30 1517 H 136.984 -1.98672 -3.71628 0
M  V30 1518 H 135.708 -0.883545 -3.14422 0
M  V30 1519 H 134.367 -2.8463 -2.31044 0
M  V30 1520 H 134.015 -1.97239 -4.62715 0
M  V30 1521 H 133.715 -3.72642 -4.54326 0
M  V30 1522 H 135.239 -3.11803 -5.24987 0
M  V30 1523 H 136.653 -4.55054 -3.4871 0
M  V30 1524 H 135.05 -5.18722 -3.0174 0
M  V30 1525 H 136.12 -4.51229 -1.7754 0
M  V30 1526 N 137.463 0.71206 -1.40597 0
M  V30 1527 C 138.413 1.81783 -1.37619 0
M  V30 1528 C 139.397 1.58896 -0.253162 0
M  V30 1529 O 140.589 1.70009 -0.492547 0
M  V30 1530 C 137.718 3.19944 -1.24462 0
M  V30 1531 C 136.804 3.48582 -2.4156 0
M  V30 1532 N 137.195 3.48016 -3.67041 0
M  V30 1533 C 135.493 3.79056 -2.35016 0
M  V30 1534 C 136.194 3.75096 -4.44609 0
M  V30 1535 N 135.17 3.94022 -3.74497 0
M  V30 1536 H 138.972 1.79683 -2.32575 0
M  V30 1537 H 136.486 0.91134 -1.34419 0
M  V30 1538 H 138.483 3.99133 -1.20411 0
M  V30 1539 H 137.143 3.23267 -0.304762 0
M  V30 1540 H 138.154 3.28782 -4.00153 0
M  V30 1541 H 134.831 3.89848 -1.49415 0
M  V30 1542 H 136.221 3.80934 -5.53479 0
M  V30 1543 N 138.941 1.26152 0.944643 0
M  V30 1544 C 140.187 1.11657 1.69294 0
M  V30 1545 C 140.52 -0.339926 1.91202 0
M  V30 1546 O 139.795 -1.24994 1.49019 0
M  V30 1547 C 140.078 1.88236 3.06984 0
M  V30 1548 C 139.931 3.41772 2.92424 0
M  V30 1549 C 141.25 1.67343 4.07043 0
M  V30 1550 H 138.369 0.407004 0.614424 0
M  V30 1551 H 141.011 1.55106 1.09737 0
M  V30 1552 H 139.161 1.51308 3.57824 0
M  V30 1553 H 140.833 3.88433 2.48832 0
M  V30 1554 H 139.076 3.68974 2.28124 0
M  V30 1555 H 139.747 3.90579 3.90067 0
M  V30 1556 H 142.223 1.99509 3.65151 0
M  V30 1557 H 141.099 2.23346 5.01406 0
M  V30 1558 H 141.36 0.617158 4.37771 0
M  V30 1559 N 140.419 -1.14872 1.07899 0
M  V30 1560 C 141.665 -1.86289 0.81657 0
M  V30 1561 C 142.02 -1.8107 -0.65049 0
M  V30 1562 O 141.313 -1.22684 -1.47171 0
M  V30 1563 C 141.507 -3.34223 1.26609 0
M  V30 1564 C 141.336 -3.53846 2.77531 0
M  V30 1565 C 140.106 -3.68995 3.45212 0
M  V30 1566 C 142.304 -3.51201 3.75716 0
M  V30 1567 N 140.286 -3.76725 4.84718 0
M  V30 1568 C 141.657 -3.65112 5.01092 0
M  V30 1569 C 143.712 -3.34507 3.68794 0
M  V30 1570 C 142.415 -3.64056 6.20368 0
M  V30 1571 C 144.441 -3.34752 4.8754 0
M  V30 1572 C 143.803 -3.49199 6.11751 0
M  V30 1573 H 139.902 -0.698579 0.351443 0
M  V30 1574 H 142.486 -1.37713 1.37634 0
M  V30 1575 H 140.657 -3.81402 0.73395 0
M  V30 1576 H 142.389 -3.93377 0.95062 0
M  V30 1577 H 139.144 -3.70006 2.95622 0
M  V30 1578 H 139.568 -3.8432 5.5734 0
M  V30 1579 H 144.21 -3.22253 2.73702 0
M  V30 1580 H 141.928 -3.75087 7.15776 0
M  V30 1581 H 145.514 -3.23055 4.83866 0
M  V30 1582 H 144.394 -3.49328 7.02097 0
M  V30 1583 N 141.898 -0.863906 -1.31812 0
M  V30 1584 C 142.846 -0.30422 -2.30602 0
M  V30 1585 C 143.84 0.577419 -1.59255 0
M  V30 1586 O 145.046 0.464194 -1.73912 0
M  V30 1587 H 141.421 -0.0796877 -0.747766 0
M  V30 1588 H 143.392 -1.15148 -2.75288 0
M  V30 1589 C 142.141 0.484617 -3.44306 0
M  V30 1590 H 141.464 -0.18451 -3.99374 0
M  V30 1591 H 142.904 0.841664 -4.15562 0
M  V30 1592 C 141.363 1.6735 -2.92396 0
M  V30 1593 O 141.893 2.77273 -2.90659 0
M  V30 1594 N 140.099 1.50362 -2.48676 0
M  V30 1595 H 139.646 0.609402 -2.50288 0
M  V30 1596 H 139.604 2.30051 -2.14299 0
M  V30 1597 N 143.376 1.44774 -0.622745 0
M  V30 1598 C 144.324 2.32387 0.0994683 0
M  V30 1599 C 145.318 1.46859 0.844326 0
M  V30 1600 O 146.524 1.63254 0.758174 0
M  V30 1601 H 142.899 0.750273 0.0509291 0
M  V30 1602 H 144.87 2.91062 -0.65767 0
M  V30 1603 C 143.619 3.30723 1.07319 0
M  V30 1604 H 142.942 3.96541 0.509462 0
M  V30 1605 H 144.382 3.94725 1.54817 0
M  V30 1606 C 142.841 2.59021 2.15429 0
M  V30 1607 O 143.371 2.38286 3.23393 0
M  V30 1608 N 141.577 2.189 1.91131 0
M  V30 1609 H 141.124 2.35964 1.03337 0
M  V30 1610 H 141.082 1.71251 2.63668 0
M  V30 1611 N 144.854 0.36279 1.53368 0
M  V30 1612 C 146.102 -0.227326 2.00817 0
M  V30 1613 C 146.423 -1.49511 1.25186 0
M  V30 1614 O 145.693 -1.92482 0.364348 0
M  V30 1615 H 144.273 -0.0869923 0.741917 0
M  V30 1616 H 146.935 0.488381 1.88682 0
M  V30 1617 H 146.031 -0.456273 3.08747 0
M  V30 1618 N 146.332 -1.57332 0.0918853 0
M  V30 1619 C 147.562 -1.98286 -0.580205 0
M  V30 1620 C 147.97 -0.969713 -1.6246 0
M  V30 1621 O 147.313 0.0493501 -1.83634 0
M  V30 1622 C 147.375 -3.35603 -1.28882 0
M  V30 1623 C 147.039 -4.55285 -0.395559 0
M  V30 1624 C 148.036 -5.18687 0.355002 0
M  V30 1625 C 145.721 -5.01314 -0.314556 0
M  V30 1626 C 147.715 -6.26484 1.17458 0
M  V30 1627 C 145.402 -6.08979 0.508677 0
M  V30 1628 C 146.4 -6.71429 1.2519 0
M  V30 1629 O 146.088 -7.77018 2.06151 0
M  V30 1630 H 145.82 -0.656678 -0.160466 0
M  V30 1631 H 148.374 -2.04721 0.16688 0
M  V30 1632 H 146.604 -3.25842 -2.08241 0
M  V30 1633 H 148.293 -3.61026 -1.85512 0
M  V30 1634 H 149.059 -4.84058 0.302134 0
M  V30 1635 H 144.938 -4.5247 -0.882697 0
M  V30 1636 H 148.482 -6.75159 1.75518 0
M  V30 1637 H 144.379 -6.4304 0.563037 0
M  V30 1638 H 145.147 -7.93991 1.98799 0
M  V30 1639 N 147.81 0.181792 -1.56548 0
M  V30 1640 C 149.035 0.920019 -1.85877 0
M  V30 1641 C 149.46 1.75494 -0.677021 0
M  V30 1642 O 148.818 1.77399 0.374056 0
M  V30 1643 C 148.866 1.78112 -3.13542 0
M  V30 1644 O 147.97 2.88152 -2.95029 0
M  V30 1645 H 147.311 0.258334 -0.611686 0
M  V30 1646 H 149.841 0.183092 -2.03779 0
M  V30 1647 H 149.851 2.18314 -3.44678 0
M  V30 1648 H 148.526 1.16777 -3.99169 0
M  V30 1649 H 147.103 2.51609 -2.75222 0
M  V30 1650 N 149.288 1.51039 0.449983 0
M  V30 1651 C 150.535 1.63081 1.20045 0
M  V30 1652 C 150.863 0.341024 1.91487 0
M  V30 1653 O 150.118 -0.674276 1.83717 0
M  V30 1654 C 150.417 2.77556 2.25161 0
M  V30 1655 C 150.083 4.17289 1.70823 0
M  V30 1656 C 148.745 4.55305 1.55725 0
M  V30 1657 C 151.097 5.04536 1.3074 0
M  V30 1658 C 148.425 5.78287 0.989999 0
M  V30 1659 C 150.777 6.28085 0.754482 0
M  V30 1660 C 149.441 6.64885 0.590308 0
M  V30 1661 H 148.711 0.596755 0.439277 0
M  V30 1662 H 151.358 1.85037 0.49333 0
M  V30 1663 H 149.663 2.49771 3.01863 0
M  V30 1664 H 151.36 2.84073 2.83026 0
M  V30 1665 H 147.95 3.8731 1.83546 0
M  V30 1666 H 152.134 4.75782 1.41229 0
M  V30 1667 H 147.39 6.05456 0.850451 0
M  V30 1668 H 151.564 6.95038 0.435324 0
M  V30 1669 H 149.191 7.60055 0.14862 0
M  V30 1670 N 150.766 -0.704594 1.40972 0
M  V30 1671 C 151.696 -1.83124 1.44872 0
M  V30 1672 C 152.677 -1.67281 0.30838 0
M  V30 1673 O 153.862 -1.87149 0.518556 0
M  V30 1674 C 150.992 -3.21181 1.32136 0
M  V30 1675 C 149.946 -3.51714 2.43888 0
M  V30 1676 C 149.272 -4.89032 2.16222 0
M  V30 1677 C 150.572 -3.516 3.86232 0
M  V30 1678 H 152.266 -1.80117 2.39161 0
M  V30 1679 H 149.812 -0.865145 1.15114 0
M  V30 1680 H 151.765 -3.99702 1.33479 0
M  V30 1681 H 150.489 -3.24791 0.343279 0
M  V30 1682 H 149.148 -2.75539 2.41813 0
M  V30 1683 H 148.796 -4.89256 1.16778 0
M  V30 1684 H 148.496 -5.10426 2.911 0
M  V30 1685 H 150.02 -5.69873 2.19265 0
M  V30 1686 H 151.434 -4.2014 3.9007 0
M  V30 1687 H 149.831 -3.84523 4.60719 0
M  V30 1688 H 150.901 -2.50757 4.15029 0
M  V30 1689 N 152.244 -1.26651 -0.937939 0
M  V30 1690 C 153.49 -1.12553 -1.687 0
M  V30 1691 C 153.823 0.329782 -1.91379 0
M  V30 1692 O 153.098 1.24202 -1.4968 0
M  V30 1693 C 153.381 -1.89862 -3.05981 0
M  V30 1694 C 153.234 -3.43318 -2.90607 0
M  V30 1695 C 154.553 -1.69499 -4.0615 0
M  V30 1696 H 151.672 -0.410257 -0.612257 0
M  V30 1697 H 154.314 -1.55685 -1.08913 0
M  V30 1698 H 152.464 -1.53204 -3.57017 0
M  V30 1699 H 154.136 -3.89747 -2.46769 0
M  V30 1700 H 152.379 -3.70179 -2.26164 0
M  V30 1701 H 153.05 -3.92642 -3.8799 0
M  V30 1702 H 155.526 -2.01442 -3.64088 0
M  V30 1703 H 154.402 -2.26002 -5.00214 0
M  V30 1704 H 154.663 -0.640365 -4.37438 0
M  V30 1705 N 153.722 1.14298 -1.08507 0
M  V30 1706 C 154.632 2.23027 -0.727753 0
M  V30 1707 C 155.648 1.71952 0.26619 0
M  V30 1708 O 156.824 2.011 0.109882 0
M  V30 1709 C 153.889 3.46403 -0.143541 0
M  V30 1710 C 152.95 4.12413 -1.19223 0
M  V30 1711 C 152.183 5.29899 -0.635798 0
M  V30 1712 O 152.406 5.67796 0.544393 0
M  V30 1713 O 151.34 5.85717 -1.38634 0
M  V30 1714 H 155.166 2.55945 -1.63481 0
M  V30 1715 H 152.751 1.22248 -0.858817 0
M  V30 1716 H 154.633 4.21018 0.179404 0
M  V30 1717 H 153.308 3.15206 0.736659 0
M  V30 1718 H 152.215 3.39667 -1.56772 0
M  V30 1719 H 153.548 4.47718 -2.04474 0
M  V30 1720 N 155.201 0.870884 1.31352 0
M  V30 1721 C 156.448 0.482273 1.96673 0
M  V30 1722 C 156.776 -0.965638 1.68836 0
M  V30 1723 O 156.031 -1.69514 0.977937 0
M  V30 1724 C 156.33 0.687157 3.50732 0
M  V30 1725 C 155.996 2.108 3.9859 0
M  V30 1726 C 154.658 2.49656 4.1137 0
M  V30 1727 C 157.01 3.03459 4.23748 0
M  V30 1728 C 154.338 3.80412 4.46659 0
M  V30 1729 C 156.69 4.3373 4.60501 0
M  V30 1730 C 155.354 4.725 4.71487 0
M  V30 1731 H 154.624 0.176476 0.719679 0
M  V30 1732 H 157.271 1.10405 1.56471 0
M  V30 1733 H 155.576 -0.0177476 3.91796 0
M  V30 1734 H 157.273 0.366284 3.99324 0
M  V30 1735 H 153.863 1.79633 3.8914 0
M  V30 1736 H 158.047 2.74665 4.13368 0
M  V30 1737 H 153.303 4.1021 4.53362 0
M  V30 1738 H 157.477 5.05578 4.78919 0
M  V30 1739 H 155.104 5.73859 4.98588 0
M  V30 1740 N 156.679 -1.44442 0.630414 0
M  V30 1741 C 157.589 -2.34476 -0.0761693 0
M  V30 1742 C 158.605 -1.52576 -0.836449 0
M  V30 1743 O 159.781 -1.85307 -0.788874 0
M  V30 1744 C 156.846 -3.30545 -1.04599 0
M  V30 1745 C 155.907 -4.28352 -0.28516 0
M  V30 1746 C 155.14 -5.19831 -1.20878 0
M  V30 1747 O 155.363 -5.15223 -2.44747 0
M  V30 1748 O 154.297 -5.97892 -0.693491 0
M  V30 1749 H 158.123 -2.96345 0.664324 0
M  V30 1750 H 155.708 -1.44203 0.39061 0
M  V30 1751 H 157.59 -3.89681 -1.60396 0
M  V30 1752 H 156.265 -2.7121 -1.76711 0
M  V30 1753 H 155.172 -3.72764 0.315837 0
M  V30 1754 H 156.505 -4.90605 0.395924 0
M  V30 1755 N 158.157 -0.370918 -1.53173 0
M  V30 1756 C 159.434 0.273754 -1.93675 0
M  V30 1757 C 159.814 1.65938 -1.3049 0
M  V30 1758 O 159.162 2.23698 -0.465999 0
M  V30 1759 C 159.372 0.318602 -3.47543 0
M  V30 1760 C 160.72 0.556392 -4.20939 0
M  V30 1761 O 161.744 0.399587 -3.53952 0
M  V30 1762 O 160.603 0.862133 -5.39657 0
M  V30 1763 H 157.697 0.165448 -0.810281 0
M  V30 1764 H 160.243 -0.42409 -1.64315 0
M  V30 1765 H 159.015 -0.652687 -3.85818 0
M  V30 1766 H 158.638 1.06212 -3.83151 0
M  V30 1767 N 159.635 1.57281 -0.100228 0
M  V30 1768 C 160.86 1.99302 0.573881 0
M  V30 1769 C 161.285 0.979059 1.60611 0
M  V30 1770 O 160.643 -0.0517803 1.81226 0
M  V30 1771 C 160.691 3.40274 1.19358 0
M  V30 1772 O 159.795 3.41676 2.30935 0
M  V30 1773 H 159.136 0.647944 0.145138 0
M  V30 1774 H 161.666 2.03779 -0.183156 0
M  V30 1775 H 161.676 3.78078 1.53365 0
M  V30 1776 H 160.351 4.13594 0.437385 0
M  V30 1777 H 158.928 3.15672 1.98509 0
M  V30 1778 N 161.113 -0.173488 1.56642 0
M  V30 1779 C 162.341 -0.906095 1.86004 0
M  V30 1780 C 162.756 -1.75921 0.685355 0
M  V30 1781 O 162.113 -1.79198 -0.345578 0
M  V30 1782 C 162.164 -1.78462 3.14378 0
M  V30 1783 O 161.885 -0.965914 4.27319 0
M  V30 1784 C 163.386 -2.62707 3.57071 0
M  V30 1785 H 160.606 -0.263341 0.617165 0
M  V30 1786 H 163.15 -0.174236 2.03756 0
M  V30 1787 H 161.305 -2.46984 2.98459 0
M  V30 1788 H 161.719 -1.56655 5.00559 0
M  V30 1789 H 163.193 -3.19969 4.49804 0
M  V30 1790 H 163.67 -3.37472 2.81086 0
M  V30 1791 H 164.276 -1.99521 3.75595 0
M  V30 1792 N 162.591 -1.51276 -0.441967 0
M  V30 1793 C 163.868 -1.54252 -1.20273 0
M  V30 1794 C 164.248 -0.30408 -2.08898 0
M  V30 1795 O 163.596 0.711084 -2.17154 0
M  V30 1796 C 163.806 -2.85406 -2.00859 0
M  V30 1797 C 165.154 -3.37181 -2.58059 0
M  V30 1798 O 166.178 -2.86925 -2.11074 0
M  V30 1799 O 165.037 -4.24858 -3.43741 0
M  V30 1800 H 162.131 -0.619969 -0.547328 0
M  V30 1801 H 164.677 -1.63586 -0.451413 0
M  V30 1802 H 163.449 -3.67003 -1.35736 0
M  V30 1803 H 163.072 -2.79213 -2.83065 0
M  V30 1804 N 164.069 0.697108 -1.41344 0
M  V30 1805 C 165.016 1.81106 -1.43071 0
M  V30 1806 C 165.986 1.63632 -0.285275 0
M  V30 1807 O 167.171 1.84504 -0.486091 0
M  V30 1808 C 164.311 3.18975 -1.31715 0
M  V30 1809 C 163.424 3.47892 -2.56115 0
M  V30 1810 C 162.559 4.75367 -2.37064 0
M  V30 1811 C 161.598 4.97247 -3.56948 0
M  V30 1812 N 160.735 6.15947 -3.36977 0
M  V30 1813 H 165.575 1.78965 -2.38276 0
M  V30 1814 H 163.112 0.873975 -1.18322 0
M  V30 1815 H 165.07 3.98615 -1.23133 0
M  V30 1816 H 163.7 3.20297 -0.401183 0
M  V30 1817 H 162.752 2.62669 -2.75153 0
M  V30 1818 H 164.064 3.59962 -3.45295 0
M  V30 1819 H 163.218 5.63059 -2.25941 0
M  V30 1820 H 161.957 4.65541 -1.45338 0
M  V30 1821 H 160.962 4.08004 -3.68527 0
M  V30 1822 H 162.187 5.08934 -4.49626 0
M  V30 1823 H 160.133 6.07336 -2.47949 0
M  V30 1824 H 160.05 6.28777 -4.19732 0
M  V30 1825 H 161.318 7.06377 -3.29623 0
M  V30 1826 N 165.547 1.27147 0.931209 0
M  V30 1827 C 166.772 1.16191 1.71797 0
M  V30 1828 C 167.197 -0.278004 1.86034 0
M  V30 1829 O 166.555 -1.20137 1.35782 0
M  V30 1830 C 166.603 1.84673 3.09723 0
M  V30 1831 O 165.707 1.14231 3.96264 0
M  V30 1832 H 165.048 0.404303 0.526721 0
M  V30 1833 H 167.578 1.68152 1.1656 0
M  V30 1834 H 167.588 1.91893 3.60057 0
M  V30 1835 H 166.263 2.89421 2.98677 0
M  V30 1836 H 164.84 1.15056 3.54706 0
M  V30 1837 N 167.025 -1.13721 1.09112 0
M  V30 1838 C 168.271 -1.85198 0.826414 0
M  V30 1839 C 168.604 -1.83129 -0.646319 0
M  V30 1840 O 167.879 -1.2671 -1.47563 0
M  V30 1841 C 168.162 -3.33507 1.35812 0
M  V30 1842 C 168.015 -3.44108 2.89672 0
M  V30 1843 C 169.334 -4.28838 0.989256 0
M  V30 1844 H 166.453 -0.67243 0.301675 0
M  V30 1845 H 169.095 -1.33499 1.35197 0
M  V30 1846 H 167.245 -3.77666 0.911082 0
M  V30 1847 H 168.917 -3.08684 3.428 0
M  V30 1848 H 167.16 -2.85087 3.26967 0
M  V30 1849 H 167.831 -4.48388 3.21951 0
M  V30 1850 H 170.307 -3.92734 1.37475 0
M  V30 1851 H 169.183 -5.31051 1.38838 0
M  V30 1852 H 169.444 -4.4198 -0.102924 0
M  V30 1853 N 168.503 -0.877838 -1.30888 0
M  V30 1854 C 169.752 -0.488793 -1.95688 0
M  V30 1855 C 170.065 0.965485 -1.70111 0
M  V30 1856 O 171.271 1.46104 -2.28836 0
M  V30 1857 C 169.727 -0.823201 -3.50359 0
M  V30 1858 C 169.335 -2.29477 -3.84765 0
M  V30 1859 C 171.079 -0.503009 -4.21509 0
M  V30 1860 C 168.986 -2.57118 -5.32583 0
M  V30 1861 H 167.916 -0.179062 -0.732429 0
M  V30 1862 H 170.567 -1.07183 -1.48943 0
M  V30 1863 H 168.949 -0.169331 -3.95638 0
M  V30 1864 H 170.123 -2.99236 -3.5042 0
M  V30 1865 H 168.438 -2.58178 -3.267 0
M  V30 1866 H 171.035 -0.68665 -5.30273 0
M  V30 1867 H 171.378 0.557109 -4.12555 0
M  V30 1868 H 171.911 -1.11376 -3.8189 0
M  V30 1869 H 168.65 -3.61843 -5.4658 0
M  V30 1870 H 168.17 -1.91961 -5.68253 0
M  V30 1871 H 169.849 -2.42251 -5.99936 0
M  V30 1872 N 169.982 1.44106 -0.638065 0
M  V30 1873 C 170.929 2.30715 0.062701 0
M  V30 1874 C 171.899 1.43882 0.829883 0
M  V30 1875 O 173.084 1.72775 0.809532 0
M  V30 1876 C 170.224 3.29258 1.03358 0
M  V30 1877 C 169.337 4.31192 0.26409 0
M  V30 1878 C 168.472 5.16825 1.22741 0
M  V30 1879 C 167.511 6.10462 0.447475 0
M  V30 1880 N 166.648 6.8877 1.36161 0
M  V30 1881 H 171.488 2.90096 -0.681781 0
M  V30 1882 H 169.025 1.42925 -0.347988 0
M  V30 1883 H 170.983 3.84886 1.60992 0
M  V30 1884 H 169.613 2.71562 1.74511 0
M  V30 1885 H 168.665 3.77981 -0.428295 0
M  V30 1886 H 169.977 4.97619 -0.343052 0
M  V30 1887 H 169.131 5.77004 1.87487 0
M  V30 1888 H 167.87 4.50488 1.86847 0
M  V30 1889 H 166.875 5.49386 -0.213433 0
M  V30 1890 H 168.1 6.78837 -0.188968 0
M  V30 1891 H 166.046 6.25096 1.98975 0
M  V30 1892 H 165.963 7.51663 0.808656 0
M  V30 1893 H 167.231 7.53467 1.99769 0
M  V30 1894 N 171.46 0.379036 1.52974 0
M  V30 1895 C 172.708 -0.206014 2.01047 0
M  V30 1896 C 173.029 -1.48175 1.26765 0
M  V30 1897 O 172.299 -1.92085 0.384743 0
M  V30 1898 H 170.879 -0.0791184 0.742798 0
M  V30 1899 H 173.541 0.508366 1.88153 0
M  V30 1900 H 172.637 -0.423501 3.09213 0
M  V30 1901 N 172.938 -1.57226 0.108567 0
M  V30 1902 C 174.186 -1.94448 -0.550853 0
M  V30 1903 C 174.507 -0.992074 -1.67878 0
M  V30 1904 O 173.777 -0.0465 -1.95845 0
M  V30 1905 H 172.357 -0.717897 -0.206479 0
M  V30 1906 H 175.019 -1.94112 0.175062 0
M  V30 1907 H 174.115 -2.97218 -0.952259 0
M  V30 1908 N 174.416 0.165178 -1.56732 0
M  V30 1909 C 175.827 0.727046 -1.71962 0
M  V30 1910 C 176.178 1.82508 -0.720078 0
M  V30 1911 O 175.303 2.16082 0.117242 0
M  V30 1912 C 175.898 1.32559 -3.11791 0
M  V30 1913 C 174.457 1.83422 -3.28684 0
M  V30 1914 C 173.604 0.715567 -2.67908 0
M  V30 1915 H 176.555 -0.0602896 -1.58585 0
M  V30 1916 H 176.576 2.19533 -3.10782 0
M  V30 1917 H 176.088 0.526195 -3.84516 0
M  V30 1918 H 174.189 2.65986 -2.60926 0
M  V30 1919 H 174.302 1.97543 -4.36478 0
M  V30 1920 H 172.666 1.13758 -2.27884 0
M  V30 1921 H 173.449 -0.0720836 -3.43224 0
M  V30 1922 N 175.894 1.51508 0.433938 0
M  V30 1923 C 176.824 1.76016 1.53429 0
M  V30 1924 C 177.805 0.610112 1.58782 0
M  V30 1925 O 178.99 0.853177 1.74455 0
M  V30 1926 C 176.12 1.88831 2.9148 0
M  V30 1927 C 175.074 3.04288 3.00987 0
M  V30 1928 C 174.4 3.0229 4.4105 0
M  V30 1929 C 175.7 4.44193 2.74754 0
M  V30 1930 H 177.394 2.68152 1.33171 0
M  V30 1931 H 174.94 1.29035 0.639214 0
M  V30 1932 H 176.893 2.04559 3.6842 0
M  V30 1933 H 175.617 0.933455 3.12976 0
M  V30 1934 H 174.276 2.8827 2.26486 0
M  V30 1935 H 173.924 2.04576 4.59519 0
M  V30 1936 H 173.624 3.79822 4.4834 0
M  V30 1937 H 175.148 3.20116 5.1996 0
M  V30 1938 H 176.562 4.60544 3.41426 0
M  V30 1939 H 174.959 5.23457 2.9345 0
M  V30 1940 H 176.029 4.53996 1.70339 0
M  V30 1941 N 177.372 -0.689602 1.41712 0
M  V30 1942 C 178.282 -1.83314 1.46401 0
M  V30 1943 C 179.298 -1.7036 0.35405 0
M  V30 1944 O 180.474 -1.92171 0.602692 0
M  V30 1945 C 177.539 -3.19344 1.34982 0
M  V30 1946 C 176.6 -3.44363 2.56344 0
M  V30 1947 C 175.833 -4.73904 2.45461 0
M  V30 1948 O 176.056 -5.508 1.48241 0
M  V30 1949 O 174.99 -4.99839 3.35328 0
M  V30 1950 H 178.816 -1.82314 2.42889 0
M  V30 1951 H 176.401 -0.843438 1.23315 0
M  V30 1952 H 178.283 -4.00547 1.3092 0
M  V30 1953 H 176.958 -3.21014 0.41612 0
M  V30 1954 H 175.865 -2.63067 2.65982 0
M  V30 1955 H 177.198 -3.47512 3.48563 0
M  V30 1956 N 178.85 -1.27639 -0.924453 0
M  V30 1957 C 179.8 -1.07295 -2.01176 0
M  V30 1958 C 180.784 5.77352e-05 -1.609 0
M  V30 1959 O 181.976 -0.218855 -1.75642 0
M  V30 1960 C 179.105 -0.725592 -3.35544 0
M  V30 1961 C 178.191 -1.83691 -3.82254 0
M  V30 1962 N 178.582 -3.07697 -4.01443 0
M  V30 1963 C 176.88 -1.72433 -4.11319 0
M  V30 1964 C 177.581 -3.80037 -4.40394 0
M  V30 1965 N 176.557 -3.0782 -4.48049 0
M  V30 1966 H 180.359 -2.01399 -2.14046 0
M  V30 1967 H 177.873 -1.18401 -1.11153 0
M  V30 1968 H 179.87 -0.560959 -4.13109 0
M  V30 1969 H 178.53 0.207782 -3.24034 0
M  V30 1970 H 179.541 -3.43424 -3.8766 0
M  V30 1971 H 176.218 -0.862005 -4.08504 0
M  V30 1972 H 177.608 -4.86632 -4.63291 0
M  V30 1973 N 180.328 1.1314 -1.09713 0
M  V30 1974 C 181.276 2.20717 -0.733934 0
M  V30 1975 C 182.27 1.6729 0.266506 0
M  V30 1976 O 183.476 1.79547 0.127656 0
M  V30 1977 H 179.851 0.719292 -0.21937 0
M  V30 1978 H 181.822 2.48611 -1.6503 0
M  V30 1979 C 180.571 3.47265 -0.173849 0
M  V30 1980 H 179.894 3.88716 -0.934873 0
M  V30 1981 H 181.334 4.23979 0.0423126 0
M  V30 1982 C 179.793 3.18724 1.09164 0
M  V30 1983 O 180.323 3.37762 2.17439 0
M  V30 1984 N 178.529 2.72583 1.00732 0
M  V30 1985 H 178.076 2.57291 0.126121 0
M  V30 1986 H 178.034 2.53862 1.85476 0
M  V30 1987 N 181.806 0.884767 1.30421 0
M  V30 1988 C 183.036 0.517293 2.00019 0
M  V30 1989 C 183.444 -0.898632 1.66497 0
M  V30 1990 O 182.787 -1.60245 0.898181 0
M  V30 1991 C 182.849 0.612025 3.54252 0
M  V30 1992 C 182.513 1.99222 4.1129 0
M  V30 1993 C 183.51 2.9616 4.273 0
M  V30 1994 C 181.195 2.29755 4.46674 0
M  V30 1995 C 183.189 4.21764 4.77906 0
M  V30 1996 C 180.876 3.55606 4.96979 0
M  V30 1997 C 181.874 4.51425 5.12547 0
M  V30 1998 O 181.562 5.75043 5.61766 0
M  V30 1999 H 181.294 0.198529 0.64619 0
M  V30 2000 H 183.848 1.1919 1.67281 0
M  V30 2001 H 182.078 -0.119561 3.86515 0
M  V30 2002 H 183.767 0.255859 4.05093 0
M  V30 2003 H 184.533 2.73882 4.00267 0
M  V30 2004 H 180.412 1.55942 4.33824 0
M  V30 2005 H 183.956 4.96561 4.89972 0
M  V30 2006 H 179.853 3.7772 5.23448 0
M  V30 2007 H 180.621 5.77422 5.80109 0
M  V30 2008 N 183.284 -1.43765 0.645699 0
M  V30 2009 C 184.7 -1.56509 0.312591 0
M  V30 2010 C 184.9 -1.6307 -1.18365 0
M  V30 2011 O 183.956 -1.58167 -1.96824 0
M  V30 2012 C 185.269 -2.82968 1.01733 0
M  V30 2013 C 186.817 -2.96701 0.996865 0
M  V30 2014 C 187.292 -4.25982 1.68236 0
M  V30 2015 N 188.783 -4.32829 1.64964 0
M  V30 2016 C 189.518 -5.31613 2.14885 0
M  V30 2017 N 189.014 -6.36718 2.73061 0
M  V30 2018 N 190.807 -5.23217 2.05428 0
M  V30 2019 H 182.958 -1.3775 1.61675 0
M  V30 2020 H 185.221 -0.661067 0.679481 0
M  V30 2021 H 184.927 -2.84156 2.0724 0
M  V30 2022 H 184.801 -3.72957 0.564177 0
M  V30 2023 H 187.188 -2.95058 -0.0497719 0
M  V30 2024 H 187.269 -2.08022 1.48865 0
M  V30 2025 H 186.913 -4.28386 2.72852 0
M  V30 2026 H 186.843 -5.13545 1.16529 0
M  V30 2027 H 189.334 -3.57493 1.22503 0
M  V30 2028 H 189.647 -7.08401 3.08848 0
M  V30 2029 H 187.992 -6.37362 2.77118 0
M  V30 2030 H 191.183 -4.40019 1.59689 0
M  V30 2031 H 191.356 -6.00045 2.44643 0
M  V30 2032 N 184.763 -0.387143 -1.52771 0
M  V30 2033 C 185.693 0.440551 -2.29306 0
M  V30 2034 C 186.674 1.06535 -1.32606 0
M  V30 2035 O 187.859 1.07853 -1.61497 0
M  V30 2036 C 184.989 1.56919 -3.09829 0
M  V30 2037 C 183.943 1.07054 -4.14395 0
M  V30 2038 C 183.269 2.29109 -4.83129 0
M  V30 2039 C 184.569 0.140015 -5.22112 0
M  V30 2040 H 186.263 -0.198026 -2.98744 0
M  V30 2041 H 183.809 -0.09668 -1.43675 0
M  V30 2042 H 185.762 2.15503 -3.62128 0
M  V30 2043 H 184.486 2.23532 -2.3812 0
M  V30 2044 H 183.145 0.507247 -3.63074 0
M  V30 2045 H 182.793 2.94227 -4.0797 0
M  V30 2046 H 182.493 1.96406 -5.53804 0
M  V30 2047 H 184.017 2.88339 -5.38231 0
M  V30 2048 H 185.431 0.633978 -5.69784 0
M  V30 2049 H 183.828 -0.0971485 -6.00021 0
M  V30 2050 H 184.898 -0.811711 -4.78058 0
M  V30 2051 N 186.241 1.57166 -0.116904 0
M  V30 2052 C 187.188 2.15202 0.83408 0
M  V30 2053 C 188.158 1.07644 1.26499 0
M  V30 2054 O 189.343 1.35541 1.34288 0
M  V30 2055 C 186.483 2.75405 2.07957 0
M  V30 2056 C 185.596 3.97264 1.69721 0
M  V30 2057 C 184.731 4.45561 2.89221 0
M  V30 2058 C 183.77 5.59956 2.47215 0
M  V30 2059 N 182.907 6.03006 3.59622 0
M  V30 2060 H 187.747 2.96141 0.332335 0
M  V30 2061 H 185.284 1.46309 0.152349 0
M  V30 2062 H 187.242 3.08439 2.80929 0
M  V30 2063 H 185.872 1.97159 2.55594 0
M  V30 2064 H 184.924 3.70404 0.866316 0
M  V30 2065 H 186.236 4.80226 1.34849 0
M  V30 2066 H 185.39 4.80493 3.7042 0
M  V30 2067 H 184.129 3.61544 3.27318 0
M  V30 2068 H 183.134 5.2463 1.64448 0
M  V30 2069 H 184.359 6.45738 2.10238 0
M  V30 2070 H 182.305 5.21931 3.97396 0
M  V30 2071 H 182.222 6.80819 3.28667 0
M  V30 2072 H 183.49 6.42576 4.41267 0
M  V30 2073 N 187.719 -0.156864 1.56817 0
M  V30 2074 C 188.651 -1.21883 1.94106 0
M  V30 2075 C 189.664 -1.3971 0.835754 0
M  V30 2076 O 190.853 -1.39457 1.11418 0
M  V30 2077 C 187.953 -2.58527 2.19127 0
M  V30 2078 C 187.126 -2.61809 3.50393 0
M  V30 2079 C 186.185 -3.7992 3.64071 0
M  V30 2080 O 185.211 -3.65249 4.36557 0
M  V30 2081 N 186.413 -4.96973 2.99997 0
M  V30 2082 H 189.178 -0.901974 2.85805 0
M  V30 2083 H 186.739 -0.346513 1.58148 0
M  V30 2084 H 188.731 -3.36034 2.25529 0
M  V30 2085 H 187.301 -2.82545 1.33742 0
M  V30 2086 H 186.521 -1.7029 3.5552 0
M  V30 2087 H 187.809 -2.61024 4.36742 0
M  V30 2088 H 187.207 -5.11794 2.41004 0
M  V30 2089 H 185.764 -5.7229 3.11974 0
M  V30 2090 N 189.197 -1.51736 -0.425897 0
M  V30 2091 C 190.444 -1.6497 -1.17436 0
M  V30 2092 C 190.772 -0.371445 -1.9092 0
M  V30 2093 O 190.027 0.644963 -1.84767 0
M  V30 2094 C 190.326 -2.81103 -2.20717 0
M  V30 2095 C 189.992 -4.19954 -1.64162 0
M  V30 2096 C 188.654 -4.57725 -1.48462 0
M  V30 2097 C 191.006 -5.06552 -1.22696 0
M  V30 2098 C 188.334 -5.79789 -0.897873 0
M  V30 2099 C 190.686 -6.29205 -0.654464 0
M  V30 2100 C 189.35 -6.6574 -0.484456 0
M  V30 2101 H 188.62 -0.603668 -0.429727 0
M  V30 2102 H 191.267 -1.85798 -0.463829 0
M  V30 2103 H 189.572 -2.54542 -2.97852 0
M  V30 2104 H 191.269 -2.8854 -2.78471 0
M  V30 2105 H 187.859 -3.90181 -1.77361 0
M  V30 2106 H 192.043 -4.77968 -1.33642 0
M  V30 2107 H 187.299 -6.06733 -0.75402 0
M  V30 2108 H 191.473 -6.95643 -0.324694 0
M  V30 2109 H 189.1 -7.60195 -0.0276833 0
M  V30 2110 N 190.675 0.682077 -1.42076 0
M  V30 2111 C 191.625 1.78823 -1.41444 0
M  V30 2112 C 192.609 1.58323 -0.28681 0
M  V30 2113 O 193.801 1.68926 -0.528498 0
M  V30 2114 C 190.93 3.17232 -1.3122 0
M  V30 2115 C 190.016 3.4338 -2.489 0
M  V30 2116 N 190.407 3.40152 -3.7434 0
M  V30 2117 C 188.705 3.73986 -2.43003 0
M  V30 2118 C 189.406 3.65581 -4.52466 0
M  V30 2119 N 188.382 3.85989 -3.8277 0
M  V30 2120 H 192.184 1.7471 -2.36334 0
M  V30 2121 H 189.698 0.882622 -1.36321 0
M  V30 2122 H 191.695 3.96489 -1.2885 0
M  V30 2123 H 190.355 3.22547 -0.373263 0
M  V30 2124 H 191.366 3.20221 -4.07037 0
M  V30 2125 H 188.043 3.86591 -1.57651 0
M  V30 2126 H 189.433 3.69108 -5.61435 0
M  V30 2127 N 192.153 1.28127 0.917671 0
M  V30 2128 C 193.4 1.15052 1.66641 0
M  V30 2129 C 193.728 -0.301677 1.92146 0
M  V30 2130 O 192.983 -1.23622 1.51711 0
M  V30 2131 C 193.282 1.89018 3.03327 0
M  V30 2132 C 192.948 3.38832 2.97496 0
M  V30 2133 C 191.61 3.79693 2.95613 0
M  V30 2134 C 193.962 4.34378 2.88036 0
M  V30 2135 C 191.29 5.14447 2.82066 0
M  V30 2136 C 193.642 5.69201 2.7603 0
M  V30 2137 C 192.306 6.09343 2.72502 0
M  V30 2138 H 191.576 0.421006 0.609783 0
M  V30 2139 H 194.223 1.58855 1.06945 0
M  V30 2140 H 192.528 1.37752 3.66785 0
M  V30 2141 H 194.225 1.76321 3.60156 0
M  V30 2142 H 190.815 3.06342 2.99754 0
M  V30 2143 H 194.999 4.03775 2.88581 0
M  V30 2144 H 190.255 5.44681 2.77728 0
M  V30 2145 H 194.429 6.42901 2.67678 0
M  V30 2146 H 192.056 7.13712 2.61762 0
M  V30 2147 N 193.631 -1.12557 1.10312 0
M  V30 2148 C 194.581 -2.16331 0.720076 0
M  V30 2149 C 195.565 -1.58616 -0.270115 0
M  V30 2150 O 196.757 -1.76823 -0.0790507 0
M  V30 2151 C 193.886 -3.42963 0.152113 0
M  V30 2152 C 192.972 -4.07663 1.16927 0
M  V30 2153 N 193.363 -4.47392 2.35953 0
M  V30 2154 C 191.661 -4.34425 1.0095 0
M  V30 2155 C 192.362 -4.97932 3.0073 0
M  V30 2156 N 191.338 -4.93358 2.28252 0
M  V30 2157 H 195.14 -2.44813 1.62616 0
M  V30 2158 H 192.654 -1.29449 0.980654 0
M  V30 2159 H 194.651 -4.16664 -0.14037 0
M  V30 2160 H 193.311 -3.1595 -0.748701 0
M  V30 2161 H 194.322 -4.39802 2.73486 0
M  V30 2162 H 190.999 -4.17177 0.164134 0
M  V30 2163 H 192.389 -5.38397 4.01969 0
M  V30 2164 N 195.109 -0.891671 -1.2995 0
M  V30 2165 C 196.355 -0.523649 -1.96544 0
M  V30 2166 C 196.71 0.918394 -1.69066 0
M  V30 2167 O 196.003 1.64122 -0.988659 0
M  V30 2168 C 196.197 -0.742868 -3.49594 0
M  V30 2169 C 196.026 -2.20467 -3.9195 0
M  V30 2170 C 194.796 -2.85055 -4.17219 0
M  V30 2171 C 196.994 -3.17912 -4.04273 0
M  V30 2172 N 194.976 -4.21762 -4.46083 0
M  V30 2173 C 196.347 -4.39712 -4.37097 0
M  V30 2174 C 198.402 -3.1361 -3.86721 0
M  V30 2175 C 197.105 -5.5776 -4.54199 0
M  V30 2176 C 199.131 -4.30936 -4.05028 0
M  V30 2177 C 198.493 -5.51504 -4.38204 0
M  V30 2178 H 194.592 -0.241072 -0.743914 0
M  V30 2179 H 197.176 -1.15081 -1.5705 0
M  V30 2180 H 195.347 -0.14515 -3.88129 0
M  V30 2181 H 197.079 -0.341081 -4.0326 0
M  V30 2182 H 193.834 -2.35889 -4.10674 0
M  V30 2183 H 194.258 -4.92382 -4.64638 0
M  V30 2184 H 198.9 -2.21489 -3.60142 0
M  V30 2185 H 196.618 -6.50379 -4.79618 0
M  V30 2186 H 200.204 -4.29085 -3.92909 0
M  V30 2187 H 199.084 -6.40778 -4.52077 0
M  V30 2188 N 196.587 1.43421 -0.653314 0
M  V30 2189 C 197.835 2.01414 -0.166415 0
M  V30 2190 C 198.156 1.51803 1.22397 0
M  V30 2191 O 197.426 0.730693 1.81763 0
M  V30 2192 H 196.006 0.744703 -0.0585319 0
M  V30 2193 H 198.668 1.75629 -0.845003 0
M  V30 2194 H 197.764 3.11734 -0.151111 0
M  V30 2195 N 198.065 0.39524 1.52563 0
M  V30 2196 C 199.028 -0.425001 2.25225 0
M  V30 2197 C 200.028 -0.985266 1.27079 0
M  V30 2198 O 201.218 -0.866332 1.5113 0
M  V30 2199 C 198.35 -1.59686 3.01186 0
M  V30 2200 H 199.543 0.211233 2.99155 0
M  V30 2201 H 197.096 0.147472 1.55603 0
M  V30 2202 H 197.831 -2.27035 2.31572 0
M  V30 2203 H 197.616 -1.20176 3.73229 0
M  V30 2204 H 199.106 -2.17743 3.5634 0
M  V30 2205 N 199.544 -1.57102 0.125237 0
M  V30 2206 C 200.793 -1.94582 -0.531095 0
M  V30 2207 C 201.106 -1.01126 -1.6743 0
M  V30 2208 O 202.312 -1.28097 -2.39381 0
M  V30 2209 C 200.768 -3.45839 -0.996164 0
M  V30 2210 C 200.376 -4.47842 0.118926 0
M  V30 2211 C 202.12 -3.92227 -1.62352 0
M  V30 2212 C 200.027 -5.90284 -0.363192 0
M  V30 2213 H 198.957 -0.726391 -0.20217 0
M  V30 2214 H 201.608 -1.82339 0.206092 0
M  V30 2215 H 199.99 -3.53338 -1.78796 0
M  V30 2216 H 201.164 -4.52018 0.895358 0
M  V30 2217 H 199.479 -4.11243 0.653324 0
M  V30 2218 H 202.076 -4.96069 -1.99548 0
M  V30 2219 H 202.419 -3.32552 -2.50429 0
M  V30 2220 H 202.952 -3.87554 -0.897019 0
M  V30 2221 H 199.691 -6.53728 0.481679 0
M  V30 2222 H 199.211 -5.89515 -1.10597 0
M  V30 2223 H 200.89 -6.41752 -0.822377 0
M  V30 2224 N 201.022 0.148545 -1.56898 0
M  V30 2225 C 202.299 0.890019 -1.74178 0
M  V30 2226 C 202.679 1.99407 -0.692839 0
M  V30 2227 O 202.027 2.26671 0.288505 0
M  V30 2228 C 202.237 1.43389 -3.18183 0
M  V30 2229 C 203.585 1.89791 -3.79822 0
M  V30 2230 O 204.609 1.53134 -3.21603 0
M  V30 2231 O 203.468 2.57387 -4.82093 0
M  V30 2232 H 200.562 0.420496 -0.712118 0
M  V30 2233 H 203.108 0.134591 -1.69165 0
M  V30 2234 H 201.88 0.640383 -3.86024 0
M  V30 2235 H 201.503 2.25287 -3.27615 0
M  V30 2236 N 202.5 1.5196 0.417844 0
M  V30 2237 C 203.463 1.74065 1.49111 0
M  V30 2238 C 204.463 0.610537 1.48758 0
M  V30 2239 O 205.653 0.87832 1.50437 0
M  V30 2240 C 202.785 1.81502 2.88565 0
M  V30 2241 H 203.978 2.69869 1.30807 0
M  V30 2242 H 201.531 1.42244 0.647785 0
M  V30 2243 H 202.266 0.875813 3.1225 0
M  V30 2244 H 202.051 2.63651 2.90225 0
M  V30 2245 H 203.541 2.00376 3.66387 0
M  V30 2246 N 203.978 -0.674533 1.42435 0
M  V30 2247 C 205.224 -1.43521 1.4413 0
M  V30 2248 C 205.579 -1.92316 0.0567773 0
M  V30 2249 O 204.872 -1.68008 -0.921076 0
M  V30 2250 C 205.066 -2.64767 2.40069 0
M  V30 2251 C 204.895 -2.27836 3.87713 0
M  V30 2252 C 203.665 -2.17183 4.56245 0
M  V30 2253 C 205.863 -1.89466 4.78129 0
M  V30 2254 N 203.845 -1.73358 5.88915 0
M  V30 2255 C 205.216 -1.56561 5.99907 0
M  V30 2256 C 207.271 -1.7646 4.65582 0
M  V30 2257 C 205.974 -1.11957 7.10534 0
M  V30 2258 C 208 -1.3326 5.76191 0
M  V30 2259 C 207.362 -1.0128 6.97081 0
M  V30 2260 H 203.461 -0.521656 0.582579 0
M  V30 2261 H 206.045 -0.778381 1.78464 0
M  V30 2262 H 204.216 -3.28139 2.07796 0
M  V30 2263 H 205.948 -3.3136 2.32342 0
M  V30 2264 H 202.703 -2.3626 4.10461 0
M  V30 2265 H 203.127 -1.53867 6.59283 0
M  V30 2266 H 207.769 -1.99831 3.72595 0
M  V30 2267 H 205.487 -0.873318 8.03367 0
M  V30 2268 H 209.073 -1.23717 5.68494 0
M  V30 2269 H 207.953 -0.683597 7.81215 0
M  V30 2270 N 205.456 -1.28612 -0.910864 0
M  V30 2271 C 206.704 -1.15705 -1.65701 0
M  V30 2272 C 207.025 0.29416 -1.92769 0
M  V30 2273 O 206.295 1.20331 -1.54588 0
M  V30 2274 H 204.875 -0.425216 -0.614167 0
M  V30 2275 H 207.537 -1.61381 -1.0928 0
M  V30 2276 H 206.633 -1.6988 -2.61815 0
M  V30 2277 N 206.934 1.1197 -1.10907 0
M  V30 2278 C 208.159 1.87942 -0.877064 0
M  V30 2279 C 208.584 1.79341 0.567314 0
M  V30 2280 O 207.942 1.15184 1.40009 0
M  V30 2281 C 207.99 3.34926 -1.33629 0
M  V30 2282 O 207.094 4.09303 -0.504447 0
M  V30 2283 H 206.435 0.583785 -0.316371 0
M  V30 2284 H 208.965 1.4157 -1.47712 0
M  V30 2285 H 208.975 3.8577 -1.32837 0
M  V30 2286 H 207.65 3.40504 -2.3881 0
M  V30 2287 H 206.227 3.68393 -0.577993 0
M  V30 2288 N 208.412 0.89855 1.29475 0
M  V30 2289 C 209.322 0.379974 2.31502 0
M  V30 2290 C 210.338 -0.524695 1.659 0
M  V30 2291 O 211.514 -0.414551 1.97087 0
M  V30 2292 C 208.579 -0.385138 3.44554 0
M  V30 2293 C 207.64 0.550914 4.2575 0
M  V30 2294 C 206.873 -0.177778 5.33404 0
M  V30 2295 O 207.096 -1.40189 5.52904 0
M  V30 2296 O 206.03 0.479106 5.9999 0
M  V30 2297 H 209.856 1.22639 2.77837 0
M  V30 2298 H 207.441 0.662834 1.33891 0
M  V30 2299 H 209.323 -0.817841 4.13388 0
M  V30 2300 H 207.998 -1.20763 3.0033 0
M  V30 2301 H 206.905 1.03271 3.59564 0
M  V30 2302 H 208.238 1.33979 4.73614 0
M  V30 2303 N 209.89 -1.43072 0.660911 0
M  V30 2304 C 210.84 -2.27948 -0.04847 0
M  V30 2305 C 211.824 -1.40325 -0.787246 0
M  V30 2306 O 213.016 -1.63893 -0.668446 0
M  V30 2307 C 210.145 -3.28143 -1.00881 0
M  V30 2308 C 209.231 -4.23252 -0.268108 0
M  V30 2309 N 209.622 -5.00656 0.719528 0
M  V30 2310 C 207.92 -4.43092 -0.508493 0
M  V30 2311 C 208.621 -5.70019 1.15988 0
M  V30 2312 N 207.597 -5.41364 0.492584 0
M  V30 2313 H 211.399 -2.85213 0.709279 0
M  V30 2314 H 208.913 -1.54869 0.488822 0
M  V30 2315 H 210.91 -3.87736 -1.53188 0
M  V30 2316 H 209.57 -2.7244 -1.76654 0
M  V30 2317 H 210.581 -5.06115 1.09855 0
M  V30 2318 H 207.258 -3.98449 -1.24679 0
M  V30 2319 H 208.648 -6.4214 1.97751 0
M  V30 2320 N 211.368 -0.403325 -1.52352 0
M  V30 2321 C 212.596 0.174012 -2.06167 0
M  V30 2322 C 213.011 1.39347 -1.27388 0
M  V30 2323 O 212.368 1.79597 -0.324201 0
M  V30 2324 C 212.419 0.530223 -3.5759 0
M  V30 2325 O 212.14 -0.640806 -4.33388 0
M  V30 2326 C 213.641 1.16192 -4.27802 0
M  V30 2327 H 210.861 0.0229464 -0.670608 0
M  V30 2328 H 213.405 -0.572604 -1.9632 0
M  V30 2329 H 211.56 1.22673 -3.67464 0
M  V30 2330 H 211.974 -0.344851 -5.23365 0
M  V30 2331 H 213.448 1.36141 -5.34948 0
M  V30 2332 H 213.925 2.13335 -3.83907 0
M  V30 2333 H 214.531 0.505775 -4.22282 0
M  V30 2334 N 212.846 1.57033 -0.133567 0
M  V30 2335 C 214.092 1.95976 0.521649 0
M  V30 2336 C 214.425 1.01779 1.65393 0
M  V30 2337 O 213.7 0.0576581 1.94415 0
M  V30 2338 C 213.983 3.44738 1.04057 0
M  V30 2339 C 213.836 4.49711 -0.0892897 0
M  V30 2340 C 215.155 3.95682 1.92675 0
M  V30 2341 H 212.274 0.712579 0.188149 0
M  V30 2342 H 214.916 1.88813 -0.212076 0
M  V30 2343 H 213.066 3.50973 1.66583 0
M  V30 2344 H 214.738 4.55565 -0.725152 0
M  V30 2345 H 212.981 4.27261 -0.750378 0
M  V30 2346 H 213.652 5.51099 0.315284 0
M  V30 2347 H 216.128 3.91841 1.39998 0
M  V30 2348 H 215.004 5.00262 2.25897 0
M  V30 2349 H 215.265 3.37239 2.85872 0
M  V30 2350 N 214.325 -0.140222 1.56975 0
M  V30 2351 C 215.602 -0.880769 1.74648 0
M  V30 2352 C 215.982 -1.99036 0.703404 0
M  V30 2353 O 215.33 -2.26821 -0.27648 0
M  V30 2354 C 215.54 -1.417 3.18939 0
M  V30 2355 C 216.888 -1.87774 3.80823 0
M  V30 2356 O 217.912 -1.51427 3.2241 0
M  V30 2357 O 216.771 -2.54827 4.83452 0
M  V30 2358 H 213.865 -0.416713 0.714338 0
M  V30 2359 H 216.411 -0.125618 1.69234 0
M  V30 2360 H 215.183 -0.619902 3.86359 0
M  V30 2361 H 214.806 -2.23546 3.28805 0
M  V30 2362 N 215.803 -1.52179 -0.40978 0
M  V30 2363 C 217.028 -1.70347 -1.18308 0
M  V30 2364 C 217.453 -0.411887 -1.83535 0
M  V30 2365 O 216.811 0.630587 -1.6998 0
M  V30 2366 C 216.859 -2.83977 -2.22238 0
M  V30 2367 O 215.963 -2.495 -3.28365 0
M  V30 2368 H 215.304 -0.567103 -0.345384 0
M  V30 2369 H 217.834 -1.98879 -0.480445 0
M  V30 2370 H 217.844 -3.0887 -2.66577 0
M  V30 2371 H 216.519 -3.77685 -1.74146 0
M  V30 2372 H 215.096 -2.35277 -2.89308 0
M  V30 2373 N 217.281 0.66697 -1.42791 0
M  V30 2374 C 218.228 1.7803 -1.4688 0
M  V30 2375 C 219.198 1.6299 -0.319919 0
M  V30 2376 O 220.383 1.83432 -0.525118 0
M  V30 2377 C 217.523 3.1611 -1.38451 0
M  V30 2378 C 216.636 3.42381 -2.63437 0
M  V30 2379 C 215.771 4.70232 -2.47094 0
M  V30 2380 C 214.81 4.89564 -3.67415 0
M  V30 2381 N 213.947 6.08661 -3.49966 0
M  V30 2382 H 218.787 1.7387 -2.42019 0
M  V30 2383 H 216.324 0.84868 -1.20149 0
M  V30 2384 H 218.282 3.95914 -1.31561 0
M  V30 2385 H 216.912 3.19374 -0.469033 0
M  V30 2386 H 215.964 2.56774 -2.80662 0
M  V30 2387 H 217.276 3.52557 -3.52853 0
M  V30 2388 H 216.43 5.5814 -2.37834 0
M  V30 2389 H 215.169 4.62353 -1.5518 0
M  V30 2390 H 214.174 4.00096 -3.77099 0
M  V30 2391 H 215.399 4.99282 -4.6032 0
M  V30 2392 H 213.345 6.0194 -2.60776 0
M  V30 2393 H 213.262 6.19733 -4.32975 0
M  V30 2394 H 214.53 6.99226 -3.44532 0
M  V30 2395 N 218.759 1.29093 0.90403 0
M  V30 2396 C 219.999 1.18076 1.66845 0
M  V30 2397 C 220.363 -0.26436 1.90171 0
M  V30 2398 O 221.564 -0.497423 2.64157 0
M  V30 2399 C 219.835 1.96722 2.98388 0
M  V30 2400 S 221.394 2.0219 3.89441 0
M  V30 2401 H 218.212 0.421104 0.572881 0
M  V30 2402 H 220.814 1.63322 1.07453 0
M  V30 2403 H 219.518 3.00866 2.7912 0
M  V30 2404 H 219.049 1.52064 3.62823 0
M  V30 2405 H 221.064 1.13545 4.83034 0
M  V30 2406 N 220.237 -1.11381 1.11499 0
M  V30 2407 C 221.484 -1.83132 0.864231 0
M  V30 2408 C 221.812 -1.84683 -0.610114 0
M  V30 2409 O 221.067 -1.29589 -1.46646 0
M  V30 2410 C 221.366 -3.30026 1.37177 0
M  V30 2411 C 221.032 -3.48634 2.85946 0
M  V30 2412 C 219.694 -3.53421 3.26569 0
M  V30 2413 C 222.046 -3.54837 3.81759 0
M  V30 2414 C 219.374 -3.61967 4.61733 0
M  V30 2415 C 221.726 -3.64915 5.1674 0
M  V30 2416 C 220.39 -3.67962 5.5692 0
M  V30 2417 H 219.66 -0.670127 0.316245 0
M  V30 2418 H 222.307 -1.31354 1.3935 0
M  V30 2419 H 220.612 -3.84304 0.762753 0
M  V30 2420 H 222.309 -3.84034 1.15408 0
M  V30 2421 H 218.899 -3.45579 2.53521 0
M  V30 2422 H 223.083 -3.50399 3.51474 0
M  V30 2423 H 218.339 -3.62603 4.92269 0
M  V30 2424 H 222.513 -3.68658 5.90816 0
M  V30 2425 H 220.14 -3.74336 6.61647 0
M  V30 2426 N 221.715 -0.905404 -1.28997 0
M  V30 2427 C 223.126 -0.581953 -1.77398 0
M  V30 2428 C 223.477 0.902552 -1.74208 0
M  V30 2429 O 222.602 1.70584 -1.33154 0
M  V30 2430 C 223.197 -1.04961 -3.22131 0
M  V30 2431 C 221.756 -0.777229 -3.68288 0
M  V30 2432 C 220.903 -1.22109 -2.48967 0
M  V30 2433 H 223.854 -1.08754 -1.15578 0
M  V30 2434 H 223.875 -0.387387 -3.78523 0
M  V30 2435 H 223.387 -2.13008 -3.24421 0
M  V30 2436 H 221.488 0.290383 -3.71467 0
M  V30 2437 H 221.601 -1.37911 -4.58822 0
M  V30 2438 H 219.965 -0.639971 -2.46529 0
M  V30 2439 H 220.748 -2.30972 -2.53982 0
M  V30 2440 N 223.193 1.4272 -0.668489 0
M  V30 2441 C 224.156 2.292 0.00448567 0
M  V30 2442 C 225.156 1.43001 0.735339 0
M  V30 2443 O 226.346 1.64461 0.57429 0
M  V30 2444 C 223.478 3.25375 1.01705 0
M  V30 2445 H 224.671 2.90199 -0.756608 0
M  V30 2446 H 222.224 1.50254 -0.430506 0
M  V30 2447 H 222.959 2.69301 1.80686 0
M  V30 2448 H 222.744 3.88944 0.496463 0
M  V30 2449 H 224.234 3.90245 1.48655 0
M  V30 2450 N 224.671 0.411399 1.52136 0
M  V30 2451 C 225.581 -0.419774 2.30814 0
M  V30 2452 C 226.597 -1.0515 1.38634 0
M  V30 2453 O 227.773 -1.05252 1.71709 0
M  V30 2454 C 224.838 -1.52019 3.11594 0
M  V30 2455 C 223.899 -0.91129 4.19516 0
M  V30 2456 C 223.132 -1.95927 4.96436 0
M  V30 2457 O 223.355 -3.17775 4.73683 0
M  V30 2458 O 222.289 -1.56423 5.81219 0
M  V30 2459 H 226.115 0.221805 3.02889 0
M  V30 2460 H 223.7 0.174547 1.48377 0
M  V30 2461 H 225.582 -2.15898 3.61892 0
M  V30 2462 H 224.257 -2.14633 2.42311 0
M  V30 2463 H 223.164 -0.235157 3.7336 0
M  V30 2464 H 224.497 -0.32904 4.91099 0
M  V30 2465 N 226.149 -1.5696 0.141893 0
M  V30 2466 C 227.079 -2.19516 -0.795936 0
M  V30 2467 C 228.06 -1.14187 -1.26077 0
M  V30 2468 O 229.245 -1.42511 -1.31925 0
M  V30 2469 C 226.375 -2.81272 -2.03723 0
M  V30 2470 C 225.329 -3.92384 -1.70936 0
M  V30 2471 C 224.655 -4.41052 -3.02287 0
M  V30 2472 C 225.955 -5.13403 -0.959954 0
M  V30 2473 H 227.649 -2.98138 -0.274596 0
M  V30 2474 H 225.195 -1.43406 -0.130636 0
M  V30 2475 H 227.148 -3.237 -2.69808 0
M  V30 2476 H 225.872 -1.99973 -2.58221 0
M  V30 2477 H 224.531 -3.50566 -1.07232 0
M  V30 2478 H 224.179 -3.56582 -3.54765 0
M  V30 2479 H 223.879 -5.15993 -2.81114 0
M  V30 2480 H 225.403 -4.86146 -3.69451 0
M  V30 2481 H 226.817 -5.52706 -1.52279 0
M  V30 2482 H 225.214 -5.94073 -0.848357 0
M  V30 2483 H 226.284 -4.84875 0.0492434 0
M  V30 2484 N 227.627 0.131896 -1.57047 0
M  V30 2485 C 228.577 1.1679 -1.95816 0
M  V30 2486 C 229.561 1.37756 -0.831393 0
M  V30 2487 O 230.753 1.39065 -1.09499 0
M  V30 2488 C 227.882 2.49778 -2.35512 0
M  V30 2489 C 226.968 2.32342 -3.54793 0
M  V30 2490 N 227.359 1.8469 -4.70875 0
M  V30 2491 C 225.657 2.63043 -3.60173 0
M  V30 2492 C 226.358 1.80656 -5.52936 0
M  V30 2493 N 225.334 2.24528 -4.95064 0
M  V30 2494 H 229.136 0.791818 -2.83033 0
M  V30 2495 H 226.65 0.339791 -1.58805 0
M  V30 2496 H 228.647 3.24692 -2.61498 0
M  V30 2497 H 227.307 2.88156 -1.49654 0
M  V30 2498 H 228.318 1.54429 -4.9434 0
M  V30 2499 H 224.995 3.05193 -2.84892 0
M  V30 2500 H 226.385 1.45178 -6.56028 0
M  V30 2501 N 229.106 1.52395 0.401703 0
M  V30 2502 C 230.036 1.79231 1.49661 0
M  V30 2503 C 231.017 0.643654 1.57452 0
M  V30 2504 O 232.202 0.889989 1.72606 0
M  V30 2505 C 229.332 1.94971 2.87409 0
M  V30 2506 C 228.286 3.10604 2.94465 0
M  V30 2507 C 227.612 3.11577 4.34538 0
M  V30 2508 C 228.912 4.49921 2.6527 0
M  V30 2509 H 230.606 2.70917 1.27454 0
M  V30 2510 H 228.152 1.30362 0.6117 0
M  V30 2511 H 230.105 2.12328 3.63999 0
M  V30 2512 H 228.829 0.999632 3.10926 0
M  V30 2513 H 227.488 2.93009 2.20321 0
M  V30 2514 H 227.136 2.14277 4.55076 0
M  V30 2515 H 226.836 3.89247 4.40183 0
M  V30 2516 H 228.36 3.31073 5.13053 0
M  V30 2517 H 229.774 4.67683 3.31581 0
M  V30 2518 H 228.171 5.29564 2.82281 0
M  V30 2519 H 229.241 4.57507 1.60671 0
M  V30 2520 N 230.584 -0.659388 1.43143 0
M  V30 2521 C 231.83 -1.42145 1.44647 0
M  V30 2522 C 232.163 -1.9408 0.0681907 0
M  V30 2523 O 231.438 -1.71899 -0.910007 0
M  V30 2524 C 231.721 -2.60735 2.48373 0
M  V30 2525 C 231.574 -2.14332 3.95451 0
M  V30 2526 C 232.893 -3.62951 2.48906 0
M  V30 2527 H 230.012 -0.51552 0.526696 0
M  V30 2528 H 232.654 -0.748069 1.74654 0
M  V30 2529 H 230.804 -3.18184 2.22916 0
M  V30 2530 H 232.476 -1.61932 4.31944 0
M  V30 2531 H 230.719 -1.4576 4.08578 0
M  V30 2532 H 231.39 -2.99583 4.63631 0
M  V30 2533 H 233.866 -3.1525 2.71582 0
M  V30 2534 H 232.742 -4.43487 3.23435 0
M  V30 2535 H 233.003 -4.15126 1.52061 0
M  V30 2536 N 232.062 -1.29571 -0.897171 0
M  V30 2537 C 233.012 -1.11539 -1.98855 0
M  V30 2538 C 233.996 -0.0340716 -1.60864 0
M  V30 2539 O 235.188 -0.256062 -1.75138 0
M  V30 2540 C 232.317 -0.796603 -3.3393 0
M  V30 2541 C 231.403 -1.91758 -3.78272 0
M  V30 2542 N 231.794 -3.16143 -3.94826 0
M  V30 2543 C 230.092 -1.81119 -4.07568 0
M  V30 2544 C 230.793 -3.89293 -4.32233 0
M  V30 2545 N 229.769 -3.17255 -4.41419 0
M  V30 2546 H 233.571 -2.05894 -2.09726 0
M  V30 2547 H 231.085 -1.20732 -1.08616 0
M  V30 2548 H 233.082 -0.648459 -4.11826 0
M  V30 2549 H 231.742 0.139003 -3.24402 0
M  V30 2550 H 232.753 -3.5157 -3.80288 0
M  V30 2551 H 229.43 -0.948461 -4.06584 0
M  V30 2552 H 230.82 -4.9635 -4.52865 0
M  V30 2553 N 233.54 1.10788 -1.12088 0
M  V30 2554 C 234.786 1.8313 -0.885148 0
M  V30 2555 C 235.141 1.8336 0.582839 0
M  V30 2556 O 234.434 1.28062 1.42516 0
M  V30 2557 C 234.628 3.29294 -1.38926 0
M  V30 2558 C 234.457 3.43302 -2.90472 0
M  V30 2559 C 233.227 3.55928 -3.58669 0
M  V30 2560 C 235.425 3.37014 -3.88492 0
M  V30 2561 N 233.407 3.58475 -4.98366 0
M  V30 2562 C 234.778 3.46263 -5.14298 0
M  V30 2563 C 236.833 3.20589 -3.80955 0
M  V30 2564 C 235.536 3.4078 -6.33452 0
M  V30 2565 C 237.562 3.16427 -4.99628 0
M  V30 2566 C 236.924 3.26253 -6.2429 0
M  V30 2567 H 233.023 0.685054 -0.377128 0
M  V30 2568 H 235.607 1.3251 -1.4265 0
M  V30 2569 H 233.778 3.78416 -0.874999 0
M  V30 2570 H 235.51 3.89578 -1.09596 0
M  V30 2571 H 232.265 3.58779 -3.09151 0
M  V30 2572 H 232.689 3.6337 -5.71219 0
M  V30 2573 H 237.331 3.11873 -2.85474 0
M  V30 2574 H 235.049 3.48263 -7.29204 0
M  V30 2575 H 238.635 3.04874 -4.95523 0
M  V30 2576 H 237.515 3.2303 -7.14578 0
M  V30 2577 N 235.018 0.912232 1.28515 0
M  V30 2578 C 235.966 0.389597 2.29314 0
M  V30 2579 C 236.96 -0.517915 1.61289 0
M  V30 2580 O 238.166 -0.399328 1.75515 0
M  V30 2581 H 234.541 0.107386 0.744293 0
M  V30 2582 H 236.512 1.25286 2.70825 0
M  V30 2583 C 235.261 -0.356496 3.45868 0
M  V30 2584 H 234.584 0.332608 3.98414 0
M  V30 2585 H 236.024 -0.686851 4.184 0
M  V30 2586 C 234.483 -1.56383 2.98406 0
M  V30 2587 O 235.013 -2.66294 3.00749 0
M  V30 2588 N 233.219 -1.41029 2.54085 0
M  V30 2589 H 232.766 -0.516089 2.52377 0
M  V30 2590 H 232.724 -2.21939 2.22689 0
M  V30 2591 N 236.496 -1.42363 0.676048 0
M  V30 2592 C 237.459 -2.29199 0.00766941 0
M  V30 2593 C 238.459 -1.43389 -0.727745 0
M  V30 2594 O 239.649 -1.64764 -0.56556 0
M  V30 2595 C 236.781 -3.2591 -0.999785 0
M  V30 2596 H 237.974 -2.89794 0.771988 0
M  V30 2597 H 235.527 -1.50024 0.438468 0
M  V30 2598 H 236.262 -2.70256 -1.79255 0
M  V30 2599 H 236.047 -3.89202 -0.475829 0
M  V30 2600 H 237.537 -3.91028 -1.46583 0
M  V30 2601 N 237.974 -0.419461 -1.51915 0
M  V30 2602 C 239.22 0.153166 -2.02221 0
M  V30 2603 C 239.553 1.43907 -1.30401 0
M  V30 2604 O 238.828 1.90055 -0.413438 0
M  V30 2605 C 239.111 0.390291 -3.57979 0
M  V30 2606 C 238.964 -0.913014 -4.40436 0
M  V30 2607 C 240.283 1.16794 -4.2432 0
M  V30 2608 H 237.402 0.0541924 -0.735005 0
M  V30 2609 H 240.044 -0.554955 -1.81715 0
M  V30 2610 H 238.194 0.993491 -3.75582 0
M  V30 2611 H 239.866 -1.54882 -4.34522 0
M  V30 2612 H 238.109 -1.52168 -4.06236 0
M  V30 2613 H 238.78 -0.701361 -5.47526 0
M  V30 2614 H 241.256 0.657161 -4.10878 0
M  V30 2615 H 240.132 1.3026 -5.3322 0
M  V30 2616 H 240.393 2.19132 -3.83971 0
M  V30 2617 N 239.452 1.56882 -0.150215 0
M  V30 2618 C 240.868 1.58263 0.20617 0
M  V30 2619 C 241.068 1.16464 1.64434 0
M  V30 2620 O 240.124 0.866422 2.3717 0
M  V30 2621 C 241.437 3.00649 -0.0555025 0
M  V30 2622 C 242.985 3.12999 0.00795388 0
M  V30 2623 C 243.46 4.5744 -0.226429 0
M  V30 2624 N 244.951 4.62875 -0.173469 0
M  V30 2625 C 245.686 5.72454 -0.329288 0
M  V30 2626 N 245.182 6.90669 -0.543005 0
M  V30 2627 N 246.975 5.61467 -0.266666 0
M  V30 2628 H 239.126 1.82345 -1.08922 0
M  V30 2629 H 241.389 0.844149 -0.431413 0
M  V30 2630 H 241.095 3.3563 -1.05096 0
M  V30 2631 H 240.969 3.71337 0.66246 0
M  V30 2632 H 243.356 2.77857 0.993966 0
M  V30 2633 H 243.437 2.4479 -0.742388 0
M  V30 2634 H 243.081 4.93287 -1.20956 0
M  V30 2635 H 243.011 5.2378 0.544274 0
M  V30 2636 H 245.502 3.77898 -0.0130709 0
M  V30 2637 H 245.815 7.70045 -0.651922 0
M  V30 2638 H 244.16 6.92581 -0.579366 0
M  V30 2639 H 247.351 4.67992 -0.100441 0
M  V30 2640 H 247.524 6.46816 -0.391535 0
M  V30 2641 N 240.93 -0.123565 1.57115 0
M  V30 2642 C 242.177 -0.832153 1.84612 0
M  V30 2643 C 242.505 -1.80093 0.734627 0
M  V30 2644 O 241.76 -1.93766 -0.27442 0
M  V30 2645 C 242.059 -1.62016 3.18568 0
M  V30 2646 C 241.725 -0.796084 4.43817 0
M  V30 2647 C 240.387 -0.568816 4.77826 0
M  V30 2648 C 242.739 -0.221364 5.2073 0
M  V30 2649 C 240.067 0.243499 5.86194 0
M  V30 2650 C 242.419 0.578117 6.29953 0
M  V30 2651 C 241.083 0.815744 6.62497 0
M  V30 2652 H 240.353 -0.304507 0.675542 0
M  V30 2653 H 243 -0.0947248 1.91266 0
M  V30 2654 H 241.305 -2.42837 3.0747 0
M  V30 2655 H 243.002 -2.17231 3.37064 0
M  V30 2656 H 239.592 -0.983307 4.17168 0
M  V30 2657 H 243.776 -0.384173 4.94811 0
M  V30 2658 H 239.032 0.436871 6.09837 0
M  V30 2659 H 243.206 1.03046 6.88734 0
M  V30 2660 H 240.833 1.44701 7.46301 0
M  V30 2661 N 242.408 -1.52605 -0.393616 0
M  V30 2662 C 243.318 -1.79971 -1.50492 0
M  V30 2663 C 244.334 -0.686181 -1.59899 0
M  V30 2664 O 245.51 -0.973274 -1.76322 0
M  V30 2665 C 242.575 -1.95867 -2.86072 0
M  V30 2666 C 241.636 -3.19781 -2.86424 0
M  V30 2667 C 240.869 -3.34909 -4.15538 0
M  V30 2668 O 241.092 -2.54948 -5.10253 0
M  V30 2669 O 240.026 -4.28141 -4.23059 0
M  V30 2670 H 243.852 -2.74328 -1.30299 0
M  V30 2671 H 241.437 -1.3764 -0.581005 0
M  V30 2672 H 243.319 -2.08056 -3.66457 0
M  V30 2673 H 241.994 -1.04699 -3.063 0
M  V30 2674 H 240.901 -3.13038 -2.04837 0
M  V30 2675 H 242.234 -4.1078 -2.71147 0
M  V30 2676 N 243.887 0.651787 -1.4349 0
M  V30 2677 C 244.835 1.78586 -1.49029 0
M  V30 2678 C 245.829 1.65448 -0.363767 0
M  V30 2679 O 247.035 1.71777 -0.537821 0
M  V30 2680 H 243.41 0.589236 -0.467231 0
M  V30 2681 H 245.381 1.71035 -2.44519 0
M  V30 2682 C 244.13 3.16851 -1.43181 0
M  V30 2683 H 243.453 3.27598 -2.29171 0
M  V30 2684 H 244.893 3.96156 -1.51118 0
M  V30 2685 C 243.352 3.36568 -0.149616 0
M  V30 2686 O 243.882 3.93885 0.788509 0
M  V30 2687 N 242.088 2.90539 -0.0593484 0
M  V30 2688 H 241.635 2.4408 -0.823575 0
M  V30 2689 H 241.593 3.04108 0.797853 0
M  V30 2690 N 245.365 1.30045 0.890287 0
M  V30 2691 C 246.612 1.18561 1.64163 0
M  V30 2692 C 246.94 -0.260852 1.92743 0
M  V30 2693 O 246.195 -1.20376 1.54299 0
M  V30 2694 C 246.494 1.95409 2.99249 0
M  V30 2695 C 246.16 3.45066 2.90242 0
M  V30 2696 C 244.822 3.85878 2.87492 0
M  V30 2697 C 247.174 4.4039 2.78758 0
M  V30 2698 C 244.502 5.20314 2.7109 0
M  V30 2699 C 246.854 5.74928 2.63894 0
M  V30 2700 C 245.518 6.14986 2.59516 0
M  V30 2701 H 244.788 0.433846 0.600715 0
M  V30 2702 H 247.435 1.61088 1.03552 0
M  V30 2703 H 245.74 1.45501 3.63781 0
M  V30 2704 H 247.437 1.8392 3.56334 0
M  V30 2705 H 244.027 3.12631 2.93189 0
M  V30 2706 H 248.211 4.09806 2.79952 0
M  V30 2707 H 243.467 5.50449 2.66112 0
M  V30 2708 H 247.641 6.48434 2.53981 0
M  V30 2709 H 245.268 7.19104 2.46565 0
M  V30 2710 N 246.843 -1.10192 1.12674 0
M  V30 2711 C 247.753 -2.20172 0.810026 0
M  V30 2712 C 248.769 -1.72821 -0.202188 0
M  V30 2713 O 249.945 -2.01369 -0.0351691 0
M  V30 2714 C 247.01 -3.45631 0.272007 0
M  V30 2715 C 246.071 -4.07704 1.34447 0
M  V30 2716 C 245.304 -5.27175 0.832029 0
M  V30 2717 O 245.527 -5.69425 -0.333284 0
M  V30 2718 O 244.461 -5.80168 1.60277 0
M  V30 2719 H 248.287 -2.49701 1.72867 0
M  V30 2720 H 245.872 -1.18977 0.903597 0
M  V30 2721 H 247.754 -4.21394 -0.0230219 0
M  V30 2722 H 246.429 -3.17723 -0.619164 0
M  V30 2723 H 245.336 -3.33614 1.6927 0
M  V30 2724 H 246.669 -4.3982 2.2095 0
M  V30 2725 N 248.321 -0.919034 -1.28029 0
M  V30 2726 C 249.598 -0.473668 -1.89778 0
M  V30 2727 C 249.978 1.04783 -1.83259 0
M  V30 2728 O 249.326 1.8982 -1.27202 0
M  V30 2729 C 249.536 -1.00998 -3.34066 0
M  V30 2730 C 250.884 -1.06525 -4.1102 0
M  V30 2731 O 251.908 -0.958996 -3.43048 0
M  V30 2732 O 250.767 -1.22776 -5.3253 0
M  V30 2733 H 247.861 -0.15098 -0.813101 0
M  V30 2734 H 250.407 -1.01016 -1.36359 0
M  V30 2735 H 249.179 -2.05392 -3.33061 0
M  V30 2736 H 248.802 -0.454626 -3.94992 0
M  V30 2737 N 249.799 1.42003 -0.683588 0
M  V30 2738 C 250.762 2.29191 -0.0198243 0
M  V30 2739 C 251.762 1.43773 0.72013 0
M  V30 2740 O 252.952 1.65061 0.556815 0
M  V30 2741 C 250.084 3.26435 0.982487 0
M  V30 2742 H 251.277 2.8938 -0.787345 0
M  V30 2743 H 248.83 1.49789 -0.446418 0
M  V30 2744 H 249.565 2.71203 1.77819 0
M  V30 2745 H 249.35 3.89449 0.455182 0
M  V30 2746 H 250.84 3.918 1.44508 0
M  V30 2747 N 251.277 0.427512 1.51691 0
M  V30 2748 C 252.24 -0.377132 2.26076 0
M  V30 2749 C 253.24 -0.958089 1.29141 0
M  V30 2750 O 254.43 -0.83408 1.52934 0
M  V30 2751 C 251.562 -1.53262 3.04506 0
M  V30 2752 H 252.755 0.27464 2.9864 0
M  V30 2753 H 250.308 0.180445 1.55255 0
M  V30 2754 H 251.043 -2.22072 2.36335 0
M  V30 2755 H 250.828 -1.12232 3.75694 0
M  V30 2756 H 252.318 -2.10135 3.60878 0
M  V30 2757 N 252.755 -1.56801 0.158532 0
M  V30 2758 C 253.685 -2.20347 -0.772609 0
M  V30 2759 C 254.666 -1.15518 -1.24859 0
M  V30 2760 O 255.851 -1.43902 -1.30406 0
M  V30 2761 C 252.981 -2.83417 -2.00729 0
M  V30 2762 C 251.935 -3.94174 -1.66765 0
M  V30 2763 C 251.261 -4.44233 -2.97592 0
M  V30 2764 C 252.561 -5.14392 -0.905447 0
M  V30 2765 H 254.255 -2.98413 -0.242959 0
M  V30 2766 H 251.801 -1.43537 -0.115419 0
M  V30 2767 H 253.754 -3.26543 -2.6636 0
M  V30 2768 H 252.478 -2.02701 -2.56086 0
M  V30 2769 H 251.137 -3.51684 -1.03508 0
M  V30 2770 H 250.785 -3.60325 -3.50963 0
M  V30 2771 H 250.485 -5.18945 -2.75626 0
M  V30 2772 H 252.009 -4.90037 -3.64274 0
M  V30 2773 H 253.423 -5.5429 -1.46408 0
M  V30 2774 H 251.82 -5.9494 -0.7853 0
M  V30 2775 H 252.89 -4.84795 0.100668 0
M  V30 2776 N 254.233 0.115231 -1.57178 0
M  V30 2777 C 255.143 1.15994 -2.03918 0
M  V30 2778 C 256.159 1.45103 -0.960268 0
M  V30 2779 O 257.335 1.56144 -1.27204 0
M  V30 2780 C 254.4 2.46568 -2.43732 0
M  V30 2781 C 253.461 2.24822 -3.65723 0
M  V30 2782 C 252.694 3.4917 -4.03629 0
M  V30 2783 O 252.917 4.56623 -3.41835 0
M  V30 2784 O 251.851 3.39949 -4.96708 0
M  V30 2785 H 255.677 0.793019 -2.93164 0
M  V30 2786 H 253.262 0.3263 -1.45793 0
M  V30 2787 H 255.144 3.23492 -2.70057 0
M  V30 2788 H 253.819 2.82726 -1.57631 0
M  V30 2789 H 252.726 1.45744 -3.44542 0
M  V30 2790 H 254.059 1.93566 -4.52541 0
M  V30 2791 N 255.711 1.52812 0.385517 0
M  V30 2792 C 256.621 1.80766 1.49535 0
M  V30 2793 C 257.637 0.694651 1.59532 0
M  V30 2794 O 258.813 0.982611 1.75803 0
M  V30 2795 C 255.878 1.97381 2.85029 0
M  V30 2796 C 254.939 3.21295 2.84724 0
M  V30 2797 C 254.172 3.37108 4.13756 0
M  V30 2798 O 254.395 2.5765 5.08893 0
M  V30 2799 O 253.329 4.30378 4.20783 0
M  V30 2800 H 257.155 2.75015 1.28842 0
M  V30 2801 H 254.74 1.37946 0.573697 0
M  V30 2802 H 256.622 2.09996 3.65349 0
M  V30 2803 H 255.297 1.06322 3.05741 0
M  V30 2804 H 254.204 3.1412 2.03174 0
M  V30 2805 H 255.537 4.12212 2.68965 0
M  V30 2806 N 257.189 -0.644168 1.43834 0
M  V30 2807 C 258.137 -1.77793 1.49974 0
M  V30 2808 C 259.131 -1.65253 0.372536 0
M  V30 2809 O 260.337 -1.7149 0.546924 0
M  V30 2810 H 256.712 -0.58675 0.47035 0
M  V30 2811 H 258.683 -1.69736 2.45423 0
M  V30 2812 C 257.432 -3.16087 1.4486 0
M  V30 2813 H 256.755 -3.26378 2.30905 0
M  V30 2814 H 258.195 -3.95349 1.53217 0
M  V30 2815 C 256.654 -3.36484 0.167463 0
M  V30 2816 O 257.184 -3.94298 -0.767609 0
M  V30 2817 N 255.39 -2.90504 0.0747556 0
M  V30 2818 H 254.937 -2.4364 0.836507 0
M  V30 2819 H 254.895 -3.04527 -0.781714 0
M  V30 2820 N 258.668 -1.30515 -0.883378 0
M  V30 2821 C 259.916 -1.19194 -1.63209 0
M  V30 2822 C 260.237 0.253205 -1.93349 0
M  V30 2823 O 259.507 1.17025 -1.57105 0
M  V30 2824 H 258.087 -0.438148 -0.605009 0
M  V30 2825 H 260.749 -1.63663 -1.05832 0
M  V30 2826 H 259.845 -1.75396 -2.58153 0
M  V30 2827 N 260.146 1.09593 -1.13257 0
M  V30 2828 C 261.076 2.18214 -0.830946 0
M  V30 2829 C 262.057 1.68812 0.208966 0
M  V30 2830 O 263.242 1.9408 0.0682666 0
M  V30 2831 C 260.372 3.46051 -0.294296 0
M  V30 2832 C 259.326 4.08778 -1.26826 0
M  V30 2833 C 258.652 5.31419 -0.591449 0
M  V30 2834 C 259.952 4.51476 -2.62615 0
M  V30 2835 H 261.646 2.43703 -1.73923 0
M  V30 2836 H 259.192 1.17128 -0.837675 0
M  V30 2837 H 261.145 4.2134 -0.0709606 0
M  V30 2838 H 259.869 3.20079 0.649366 0
M  V30 2839 H 258.528 3.35505 -1.47756 0
M  V30 2840 H 258.176 5.01727 0.357633 0
M  V30 2841 H 257.876 5.74341 -1.24123 0
M  V30 2842 H 259.4 6.09433 -0.377355 0
M  V30 2843 H 260.814 5.17999 -2.45663 0
M  V30 2844 H 259.211 5.05277 -3.23752 0
M  V30 2845 H 260.281 3.63962 -3.20406 0
M  V30 2846 N 261.624 0.925811 1.2754 0
M  V30 2847 C 262.587 0.428129 2.25166 0
M  V30 2848 C 263.587 -0.452261 1.54309 0
M  V30 2849 O 264.777 -0.253608 1.72344 0
M  V30 2850 C 261.909 -0.384749 3.38722 0
M  V30 2851 H 263.102 1.29066 2.70706 0
M  V30 2852 H 260.655 0.706323 1.3943 0
M  V30 2853 H 261.39 -1.26618 2.98561 0
M  V30 2854 H 261.175 0.246454 3.91325 0
M  V30 2855 H 262.665 -0.723389 4.11287 0
M  V30 2856 N 263.102 -1.41638 0.69111 0
M  V30 2857 C 264.348 -2.01598 0.220519 0
M  V30 2858 C 264.681 -1.54594 -1.17535 0
M  V30 2859 O 263.956 -0.755177 -1.79241 0
M  V30 2860 C 264.239 -3.59062 0.273243 0
M  V30 2861 C 264.092 -4.16203 1.70573 0
M  V30 2862 C 265.411 -4.38546 -0.369457 0
M  V30 2863 H 262.53 -0.732468 0.0816045 0
M  V30 2864 H 265.172 -1.68445 0.878986 0
M  V30 2865 H 263.322 -3.87435 -0.287411 0
M  V30 2866 H 264.994 -3.98722 2.31989 0
M  V30 2867 H 263.237 -3.71414 2.2413 0
M  V30 2868 H 263.908 -5.25358 1.69419 0
M  V30 2869 H 266.384 -4.1596 0.107977 0
M  V30 2870 H 265.26 -5.48069 -0.302002 0
M  V30 2871 H 265.521 -4.17662 -1.44951 0
M  V30 2872 N 264.58 -0.43555 -1.51462 0
M  V30 2873 C 265.829 0.133007 -2.01261 0
M  V30 2874 C 266.142 1.43942 -1.32439 0
M  V30 2875 O 267.348 2.09081 -1.73198 0
M  V30 2876 C 265.804 0.287581 -3.58749 0
M  V30 2877 C 265.412 -1.00829 -4.36506 0
M  V30 2878 C 267.156 0.810004 -4.167 0
M  V30 2879 C 265.063 -0.819454 -5.85695 0
M  V30 2880 H 263.993 0.0534822 -0.752101 0
M  V30 2881 H 266.644 -0.565038 -1.74584 0
M  V30 2882 H 265.026 1.04859 -3.81865 0
M  V30 2883 H 266.2 -1.77749 -4.25138 0
M  V30 2884 H 264.515 -1.45911 -3.89999 0
M  V30 2885 H 267.112 0.967743 -5.2587 0
M  V30 2886 H 267.455 1.79196 -3.75758 0
M  V30 2887 H 267.988 0.107357 -3.97655 0
M  V30 2888 H 264.727 -1.77374 -6.31046 0
M  V30 2889 H 264.247 -0.0900208 -5.99732 0
M  V30 2890 H 265.926 -0.471949 -6.45276 0
M  V30 2891 N 266.058 1.56714 -0.166846 0
M  V30 2892 C 267.306 1.96358 0.478305 0
M  V30 2893 C 267.627 1.0537 1.6408 0
M  V30 2894 O 266.897 0.119154 1.95537 0
M  V30 2895 H 265.477 0.725065 0.179692 0
M  V30 2896 H 268.139 1.93329 -0.246985 0
M  V30 2897 H 267.235 3.00547 0.841292 0
M  V30 2898 N 267.536 -0.106894 1.57237 0
M  V30 2899 C 268.782 -0.81373 1.85759 0
M  V30 2900 C 269.115 -1.78952 0.754315 0
M  V30 2901 O 268.39 -1.93029 -0.23879 0
M  V30 2902 C 268.673 -1.55293 3.24894 0
M  V30 2903 C 268.526 -0.595929 4.45835 0
M  V30 2904 C 269.845 -2.5063 3.61763 0
M  V30 2905 H 266.964 -0.294369 0.67566 0
M  V30 2906 H 269.606 -0.0776472 1.89841 0
M  V30 2907 H 267.756 -2.1804 3.21544 0
M  V30 2908 H 269.428 0.0236262 4.61294 0
M  V30 2909 H 267.671 0.0916191 4.33703 0
M  V30 2910 H 268.342 -1.15004 5.39887 0
M  V30 2911 H 270.818 -1.97982 3.65981 0
M  V30 2912 H 269.694 -2.99376 4.60071 0
M  V30 2913 H 269.955 -3.3385 2.89821 0
M  V30 2914 N 269.014 -1.53014 -0.377408 0
M  V30 2915 C 270.261 -1.68623 -1.12128 0
M  V30 2916 C 270.589 -0.431997 -1.89642 0
M  V30 2917 O 269.844 0.585855 -1.86725 0
M  V30 2918 C 270.143 -2.87982 -2.11663 0
M  V30 2919 C 269.809 -4.24964 -1.50719 0
M  V30 2920 C 268.471 -4.62217 -1.33825 0
M  V30 2921 C 270.823 -5.10199 -1.06519 0
M  V30 2922 C 268.151 -5.82352 -0.712963 0
M  V30 2923 C 270.503 -6.30969 -0.453955 0
M  V30 2924 C 269.167 -6.66944 -0.272411 0
M  V30 2925 H 268.437 -0.617034 -0.410305 0
M  V30 2926 H 271.084 -1.8718 -0.404484 0
M  V30 2927 H 269.389 -2.63889 -2.89603 0
M  V30 2928 H 271.086 -2.97253 -2.6915 0
M  V30 2929 H 267.676 -3.95626 -1.64858 0
M  V30 2930 H 271.86 -4.81978 -1.18368 0
M  V30 2931 H 267.116 -6.08824 -0.560611 0
M  V30 2932 H 271.29 -6.96324 -0.103217 0
M  V30 2933 H 268.917 -7.59898 0.214181 0
M  V30 2934 N 270.492 0.636531 -1.44174 0
M  V30 2935 C 271.422 1.76003 -1.53444 0
M  V30 2936 C 272.403 1.65619 -0.387841 0
M  V30 2937 O 273.588 1.84461 -0.607257 0
M  V30 2938 C 270.718 3.14511 -1.4731 0
M  V30 2939 C 269.672 3.39677 -2.60391 0
M  V30 2940 C 268.998 4.78159 -2.39308 0
M  V30 2941 C 270.298 3.32772 -4.02567 0
M  V30 2942 H 271.992 1.68501 -2.47483 0
M  V30 2943 H 269.538 0.809237 -1.19111 0
M  V30 2944 H 271.491 3.92878 -1.52397 0
M  V30 2945 H 270.215 3.22783 -0.49785 0
M  V30 2946 H 268.874 2.63688 -2.54684 0
M  V30 2947 H 268.522 4.83128 -1.39988 0
M  V30 2948 H 268.222 4.95956 -3.15122 0
M  V30 2949 H 269.746 5.58762 -2.46205 0
M  V30 2950 H 271.16 4.01051 -4.09672 0
M  V30 2951 H 269.557 3.62104 -4.7854 0
M  V30 2952 H 270.627 2.30669 -4.2652 0
M  V30 2953 N 271.97 1.30982 0.876444 0
M  V30 2954 C 272.917 1.18085 1.98304 0
M  V30 2955 C 273.887 0.0682263 1.6596 0
M  V30 2956 O 275.072 0.239937 1.89285 0
M  V30 2957 C 272.212 0.887475 3.33493 0
M  V30 2958 C 271.325 2.08281 3.78475 0
M  V30 2959 C 270.46 1.72678 5.0235 0
M  V30 2960 C 269.499 2.88657 5.39762 0
M  V30 2961 N 268.636 2.53292 6.54819 0
M  V30 2962 H 273.476 2.1275 2.08666 0
M  V30 2963 H 271.013 1.05839 1.02159 0
M  V30 2964 H 272.971 0.697961 4.1132 0
M  V30 2965 H 271.601 -0.022315 3.22792 0
M  V30 2966 H 270.653 2.3833 2.96484 0
M  V30 2967 H 271.965 2.95108 4.02135 0
M  V30 2968 H 271.119 1.50151 5.87826 0
M  V30 2969 H 269.858 0.830327 4.8058 0
M  V30 2970 H 268.863 3.1184 4.52809 0
M  V30 2971 H 270.088 3.79002 5.63502 0
M  V30 2972 H 268.034 1.66163 6.34607 0
M  V30 2973 H 267.951 3.3365 6.7839 0
M  V30 2974 H 269.219 2.34143 7.43503 0
M  V30 2975 N 273.449 -1.08991 1.13837 0
M  V30 2976 C 274.379 -2.17771 0.842507 0
M  V30 2977 C 275.36 -1.6892 -0.20001 0
M  V30 2978 O 276.545 -1.94113 -0.0579731 0
M  V30 2979 C 273.675 -3.4589 0.312644 0
M  V30 2980 C 272.629 -4.08099 1.28992 0
M  V30 2981 C 271.955 -5.31098 0.619623 0
M  V30 2982 C 273.255 -4.50077 2.65005 0
M  V30 2983 H 274.949 -2.42777 1.75213 0
M  V30 2984 H 272.495 -1.16682 0.843875 0
M  V30 2985 H 274.448 -4.21297 0.0933043 0
M  V30 2986 H 273.172 -3.20419 -0.632382 0
M  V30 2987 H 271.831 -3.34717 1.49533 0
M  V30 2988 H 271.479 -5.0191 -0.33102 0
M  V30 2989 H 271.179 -5.73674 1.27167 0
M  V30 2990 H 272.703 -6.09224 0.409669 0
M  V30 2991 H 274.117 -5.16688 2.48407 0
M  V30 2992 H 272.514 -5.03553 3.26427 0
M  V30 2993 H 273.584 -3.62257 3.22332 0
M  V30 2994 N 274.927 -0.932562 -1.27047 0
M  V30 2995 C 276.175 -0.574422 -1.93765 0
M  V30 2996 C 276.496 0.887993 -1.73608 0
M  V30 2997 O 275.766 1.62999 -1.08665 0
M  V30 2998 H 274.346 -0.209451 -0.717035 0
M  V30 2999 H 277.008 -1.18601 -1.5466 0
M  V30 3000 H 276.104 -0.784841 -3.02071 0
M  V30 3001 N 276.405 1.4127 -0.698611 0
M  V30 3002 C 277.352 2.30773 -0.0352094 0
M  V30 3003 C 278.322 1.47273 0.768111 0
M  V30 3004 O 279.507 1.76053 0.735524 0
M  V30 3005 C 276.647 3.33346 0.893 0
M  V30 3006 C 275.76 4.31924 0.0809695 0
M  V30 3007 C 274.895 5.21566 1.0071 0
M  V30 3008 C 273.934 6.11811 0.188155 0
M  V30 3009 N 273.071 6.93926 1.06825 0
M  V30 3010 H 277.911 2.86943 -0.804207 0
M  V30 3011 H 275.448 1.4132 -0.408294 0
M  V30 3012 H 277.406 3.91368 1.44523 0
M  V30 3013 H 276.036 2.78719 1.62836 0
M  V30 3014 H 275.088 3.75825 -0.588224 0
M  V30 3015 H 276.4 4.95716 -0.553801 0
M  V30 3016 H 275.554 5.84437 1.62845 0
M  V30 3017 H 274.293 4.58008 1.67572 0
M  V30 3018 H 273.298 5.47986 -0.446254 0
M  V30 3019 H 274.523 6.77425 -0.476716 0
M  V30 3020 H 272.469 6.32973 1.72283 0
M  V30 3021 H 272.386 7.54416 0.489123 0
M  V30 3022 H 273.654 7.61262 1.67632 0
M  V30 3023 N 277.883 0.443576 1.51229 0
M  V30 3024 C 278.833 -0.382787 2.24764 0
M  V30 3025 C 279.817 -0.984836 1.27239 0
M  V30 3026 O 281.009 -0.901943 1.52296 0
M  V30 3027 C 278.138 -1.47989 3.09765 0
M  V30 3028 C 277.224 -0.886931 4.14722 0
M  V30 3029 N 277.615 -0.0237103 5.05794 0
M  V30 3030 C 275.913 -1.15385 4.30816 0
M  V30 3031 C 276.614 0.309971 5.80874 0
M  V30 3032 N 275.59 -0.307989 5.42727 0
M  V30 3033 H 279.392 0.282624 2.92538 0
M  V30 3034 H 276.906 0.256027 1.60369 0
M  V30 3035 H 278.903 -2.08482 3.61027 0
M  V30 3036 H 277.563 -2.14758 2.43535 0
M  V30 3037 H 278.574 0.34318 5.16762 0
M  V30 3038 H 275.251 -1.81857 3.75812 0
M  V30 3039 H 276.641 1.01279 6.64223 0
M  V30 3040 N 279.361 -1.56624 0.175154 0
M  V30 3041 C 280.311 -2.14747 -0.766004 0
M  V30 3042 C 281.295 -1.08275 -1.19018 0
M  V30 3043 O 282.487 -1.34388 -1.15191 0
M  V30 3044 C 279.616 -2.79478 -1.99366 0
M  V30 3045 C 278.702 -3.93114 -1.5913 0
M  V30 3046 N 279.093 -4.97752 -0.89872 0
M  V30 3047 C 277.391 -4.04345 -1.88204 0
M  V30 3048 C 278.092 -5.77473 -0.700012 0
M  V30 3049 N 277.068 -5.29207 -1.24263 0
M  V30 3050 H 280.87 -2.93015 -0.22793 0
M  V30 3051 H 278.384 -1.6238 -0.0253843 0
M  V30 3052 H 280.381 -3.19498 -2.67818 0
M  V30 3053 H 279.041 -2.02692 -2.53665 0
M  V30 3054 H 280.052 -5.14903 -0.556347 0
M  V30 3055 H 276.729 -3.38667 -2.44153 0
M  V30 3056 H 278.119 -6.71728 -0.152047 0
M  V30 3057 N 280.839 0.0985539 -1.57292 0
M  V30 3058 C 281.786 1.11981 -2.01814 0
M  V30 3059 C 282.756 1.39999 -0.89384 0
M  V30 3060 O 283.941 1.5152 -1.15958 0
M  V30 3061 C 281.081 2.43577 -2.44467 0
M  V30 3062 C 280.194 2.2232 -3.70402 0
M  V30 3063 C 279.329 3.4729 -4.01949 0
M  V30 3064 C 278.368 3.2128 -5.21005 0
M  V30 3065 N 277.505 4.38507 -5.48321 0
M  V30 3066 H 282.345 0.733149 -2.88841 0
M  V30 3067 H 279.882 0.350482 -1.42864 0
M  V30 3068 H 281.84 3.20373 -2.6724 0
M  V30 3069 H 280.47 2.80097 -1.60455 0
M  V30 3070 H 279.522 1.36343 -3.55126 0
M  V30 3071 H 280.834 1.99089 -4.57345 0
M  V30 3072 H 279.988 4.32495 -4.25479 0
M  V30 3073 H 278.727 3.73572 -3.13521 0
M  V30 3074 H 277.732 2.34468 -4.97298 0
M  V30 3075 H 278.957 2.96348 -6.11028 0
M  V30 3076 H 276.903 4.64871 -4.62851 0
M  V30 3077 H 276.82 4.18455 -6.29628 0
M  V30 3078 H 278.088 5.24787 -5.76385 0
M  V30 3079 N 282.317 1.53212 0.369288 0
M  V30 3080 C 283.227 1.82342 1.47609 0
M  V30 3081 C 284.243 0.711532 1.58787 0
M  V30 3082 O 285.419 1.0012 1.74751 0
M  V30 3083 C 282.484 2.00393 2.8292 0
M  V30 3084 C 281.545 3.24297 2.81301 0
M  V30 3085 C 280.778 3.41478 4.10157 0
M  V30 3086 O 281.001 2.63033 5.06132 0
M  V30 3087 O 279.935 4.34817 4.16194 0
M  V30 3088 H 283.761 2.76366 1.25918 0
M  V30 3089 H 281.346 1.38547 0.559034 0
M  V30 3090 H 283.228 2.13859 3.63101 0
M  V30 3091 H 281.903 1.09559 3.04596 0
M  V30 3092 H 280.81 3.16257 1.99831 0
M  V30 3093 H 282.143 4.15041 2.64578 0
M  V30 3094 N 283.795 -0.628877 1.44509 0
M  V30 3095 C 284.725 -1.75187 1.54376 0
M  V30 3096 C 285.706 -1.65411 0.396618 0
M  V30 3097 O 286.891 -1.84137 0.617031 0
M  V30 3098 C 284.021 -3.13725 1.48976 0
M  V30 3099 C 282.975 -3.38291 2.62189 0
M  V30 3100 C 282.301 -4.76883 2.41841 0
M  V30 3101 C 283.601 -3.30632 4.04326 0
M  V30 3102 H 285.295 -1.67187 2.48373 0
M  V30 3103 H 282.841 -0.802909 1.19538 0
M  V30 3104 H 284.794 -3.92064 1.54478 0
M  V30 3105 H 283.518 -3.22515 0.514961 0
M  V30 3106 H 282.177 -2.62334 2.56079 0
M  V30 3107 H 281.825 -4.82378 1.42548 0
M  V30 3108 H 281.525 -4.94278 3.17747 0
M  V30 3109 H 283.049 -5.57449 2.49165 0
M  V30 3110 H 284.463 -3.98873 4.11793 0
M  V30 3111 H 282.86 -3.59561 4.80454 0
M  V30 3112 H 283.93 -2.28404 4.27738 0
M  V30 3113 N 285.273 -1.31445 -0.869486 0
M  V30 3114 C 286.205 -1.14955 -1.98287 0
M  V30 3115 C 287.218 -0.0885037 -1.62559 0
M  V30 3116 O 288.407 -0.336044 -1.75308 0
M  V30 3117 C 285.507 -0.734255 -3.3085 0
M  V30 3118 C 284.68 -1.88042 -3.94917 0
M  V30 3119 C 283.739 -1.4511 -5.05796 0
M  V30 3120 O 282.765 -2.16082 -5.2659 0
M  V30 3121 N 283.967 -0.338763 -5.79511 0
M  V30 3122 H 286.732 -2.10856 -2.12979 0
M  V30 3123 H 284.293 -1.23786 -1.04349 0
M  V30 3124 H 286.285 -0.42975 -4.02412 0
M  V30 3125 H 284.855 0.133158 -3.12316 0
M  V30 3126 H 284.075 -2.35222 -3.1633 0
M  V30 3127 H 285.363 -2.6481 -4.34457 0
M  V30 3128 H 284.761 0.252274 -5.65137 0
M  V30 3129 H 283.318 -0.0937925 -6.51733 0
M  V30 3130 N 286.751 1.08385 -1.14413 0
M  V30 3131 C 287.698 2.15311 -0.831265 0
M  V30 3132 C 288.668 1.64751 0.211292 0
M  V30 3133 O 289.853 1.90627 0.0811674 0
M  V30 3134 C 286.993 3.43658 -0.315143 0
M  V30 3135 C 286.106 4.08064 -1.41802 0
M  V30 3136 C 285.241 5.24207 -0.859126 0
M  V30 3137 C 284.28 5.80554 -1.93967 0
M  V30 3138 N 283.417 6.88042 -1.39793 0
M  V30 3139 H 288.257 2.41415 -1.74708 0
M  V30 3140 H 285.794 1.18474 -0.871909 0
M  V30 3141 H 287.752 4.172 0.00230884 0
M  V30 3142 H 286.382 3.17839 0.56378 0
M  V30 3143 H 285.434 3.3228 -1.85187 0
M  V30 3144 H 286.746 4.45962 -2.23427 0
M  V30 3145 H 285.9 6.04689 -0.49359 0
M  V30 3146 H 284.639 4.87699 -0.011932 0
M  V30 3147 H 283.644 4.98725 -2.31415 0
M  V30 3148 H 284.869 6.19121 -2.79046 0
M  V30 3149 H 282.815 6.53493 -0.572919 0
M  V30 3150 H 282.732 7.24767 -2.15054 0
M  V30 3151 H 284 7.72255 -1.0603 0
M  V30 3152 N 288.23 0.939286 1.26551 0
M  V30 3153 C 289.16 0.465044 2.28822 0
M  V30 3154 C 290.141 -0.480692 1.63167 0
M  V30 3155 O 291.326 -0.382955 1.90387 0
M  V30 3156 C 288.456 -0.27234 3.46231 0
M  V30 3157 C 287.41 0.58666 4.2396 0
M  V30 3158 C 286.736 -0.280573 5.33963 0
M  V30 3159 C 288.036 1.85704 4.88171 0
M  V30 3160 H 289.73 1.31979 2.68741 0
M  V30 3161 H 287.276 0.636061 1.29191 0
M  V30 3162 H 289.229 -0.615133 4.16886 0
M  V30 3163 H 287.953 -1.16121 3.0526 0
M  V30 3164 H 286.612 0.91232 3.55067 0
M  V30 3165 H 286.26 -1.16874 4.89234 0
M  V30 3166 H 285.96 0.29076 5.8688 0
M  V30 3167 H 287.484 -0.618678 6.07458 0
M  V30 3168 H 288.898 1.58161 5.51052 0
M  V30 3169 H 287.295 2.37279 5.51197 0
M  V30 3170 H 288.365 2.56957 4.11219 0
M  V30 3171 N 289.708 -1.40897 0.706093 0
M  V30 3172 C 290.954 -2.01352 0.241889 0
M  V30 3173 C 291.287 -1.55832 -1.15888 0
M  V30 3174 O 290.562 -0.774145 -1.7843 0
M  V30 3175 C 290.845 -3.58752 0.311311 0
M  V30 3176 C 290.698 -4.1437 1.74978 0
M  V30 3177 C 292.017 -4.38914 -0.322922 0
M  V30 3178 H 289.136 -0.731562 0.0893687 0
M  V30 3179 H 291.778 -1.67504 0.896802 0
M  V30 3180 H 289.928 -3.87718 -0.246302 0
M  V30 3181 H 291.6 -3.96239 2.36205 0
M  V30 3182 H 289.843 -3.69016 2.28057 0
M  V30 3183 H 290.514 -5.23532 1.74981 0
M  V30 3184 H 292.99 -4.15822 0.152089 0
M  V30 3185 H 291.866 -5.48358 -0.243855 0
M  V30 3186 H 292.127 -4.19176 -1.40513 0
M  V30 3187 N 291.186 -0.45159 -1.50991 0
M  V30 3188 C 292.463 0.170707 -1.94854 0
M  V30 3189 C 292.843 1.58788 -1.39103 0
M  V30 3190 O 292.191 2.20913 -0.583921 0
M  V30 3191 C 292.401 0.133929 -3.48743 0
M  V30 3192 C 293.749 0.33248 -4.23296 0
M  V30 3193 O 294.773 0.211403 -3.55572 0
M  V30 3194 O 293.632 0.57486 -5.43468 0
M  V30 3195 H 290.726 0.122264 -0.817912 0
M  V30 3196 H 293.272 -0.510594 -1.61836 0
M  V30 3197 H 292.044 -0.856283 -3.81816 0
M  V30 3198 H 291.667 0.857529 -3.88242 0
M  V30 3199 N 292.664 1.56529 -0.183458 0
M  V30 3200 C 293.892 2.01623 0.464285 0
M  V30 3201 C 294.307 1.06366 1.55986 0
M  V30 3202 O 293.664 0.0665398 1.82379 0
M  V30 3203 C 293.715 3.46475 1.03139 0
M  V30 3204 O 293.436 4.38095 -0.0204675 0
M  V30 3205 C 294.937 4.0703 1.75617 0
M  V30 3206 H 292.157 0.660596 0.117704 0
M  V30 3207 H 294.701 2.02451 -0.288751 0
M  V30 3208 H 292.856 3.46383 1.73486 0
M  V30 3209 H 293.27 5.22973 0.399952 0
M  V30 3210 H 294.744 5.10271 2.10542 0
M  V30 3211 H 295.221 3.49819 2.65563 0
M  V30 3212 H 295.827 4.1086 1.09882 0
M  V30 3213 N 294.142 -0.090211 1.57342 0
M  V30 3214 C 295.072 -1.10976 2.05443 0
M  V30 3215 C 296.053 -1.41482 0.944284 0
M  V30 3216 O 297.238 -1.51428 1.21586 0
M  V30 3217 C 294.368 -2.42831 2.48295 0
M  V30 3218 C 293.322 -2.26721 3.63018 0
M  V30 3219 C 292.648 -3.63796 3.91863 0
M  V30 3220 C 293.948 -1.7037 4.93732 0
M  V30 3221 H 295.642 -0.709564 2.9087 0
M  V30 3222 H 293.188 -0.339874 1.39932 0
M  V30 3223 H 295.141 -3.14431 2.80555 0
M  V30 3224 H 293.865 -2.84795 1.59873 0
M  V30 3225 H 292.524 -1.57565 3.31012 0
M  V30 3226 H 292.172 -4.03297 3.00601 0
M  V30 3227 H 291.872 -3.53861 4.69101 0
M  V30 3228 H 293.396 -4.36855 4.26603 0
M  V30 3229 H 294.81 -2.31816 5.24342 0
M  V30 3230 H 293.207 -1.71181 5.75167 0
M  V30 3231 H 294.277 -0.663542 4.80339 0
M  V30 3232 N 295.62 -1.53406 -0.361157 0
M  V30 3233 C 297.031 -1.61442 -0.937728 0
M  V30 3234 C 297.382 -0.48461 -1.90121 0
M  V30 3235 O 296.507 0.388312 -2.12888 0
M  V30 3236 C 297.102 -2.92624 -1.70753 0
M  V30 3237 C 295.661 -3.02981 -2.23337 0
M  V30 3238 C 294.808 -2.5677 -1.04712 0
M  V30 3239 H 297.759 -1.58083 -0.139816 0
M  V30 3240 H 297.78 -2.80675 -2.56908 0
M  V30 3241 H 297.292 -3.74834 -1.00604 0
M  V30 3242 H 295.393 -2.25368 -2.96715 0
M  V30 3243 H 295.506 -4.0814 -2.50916 0
M  V30 3244 H 293.87 -2.11752 -1.41539 0
M  V30 3245 H 294.653 -3.41402 -0.360539 0
M  V30 3246 N 297.098 0.621204 -1.44841 0
M  V30 3247 C 298.323 1.41244 -1.51871 0
M  V30 3248 C 298.748 1.87519 -0.147764 0
M  V30 3249 O 298.106 1.59334 0.865 0
M  V30 3250 C 298.154 2.60221 -2.49634 0
M  V30 3251 O 297.258 3.60395 -2.00473 0
M  V30 3252 H 296.599 0.42223 -0.512463 0
M  V30 3253 H 299.129 0.757305 -1.90069 0
M  V30 3254 H 299.139 3.0764 -2.67996 0
M  V30 3255 H 297.814 2.25887 -3.4921 0
M  V30 3256 H 296.391 3.19717 -1.91925 0
M  V30 3257 N 298.576 1.31904 0.862503 0
M  V30 3258 C 299.825 1.21373 1.61094 0
M  V30 3259 C 300.138 -0.22504 1.94301 0
M  V30 3260 O 301.344 -0.452121 2.67709 0
M  V30 3261 C 299.8 2.12525 2.9045 0
M  V30 3262 C 299.408 3.61441 2.64697 0
M  V30 3263 C 301.152 2.10813 3.68454 0
M  V30 3264 C 299.059 4.44578 3.90006 0
M  V30 3265 H 297.989 0.450705 0.604468 0
M  V30 3266 H 300.64 1.56811 0.953027 0
M  V30 3267 H 299.022 1.69994 3.57656 0
M  V30 3268 H 300.196 4.12264 2.05851 0
M  V30 3269 H 298.511 3.65205 2.00036 0
M  V30 3270 H 301.108 2.70167 4.61426 0
M  V30 3271 H 301.451 1.09713 4.01583 0
M  V30 3272 H 301.984 2.51583 3.08141 0
M  V30 3273 H 298.723 5.46461 3.62023 0
M  V30 3274 H 298.243 3.98508 4.48276 0
M  V30 3275 H 299.922 4.57176 4.5782 0
M  V30 3276 N 300.054 -1.07777 1.14986 0
M  V30 3277 C 301.001 -2.14867 0.842672 0
M  V30 3278 C 301.971 -1.6486 -0.202552 0
M  V30 3279 O 303.156 -1.90668 -0.0710568 0
M  V30 3280 C 300.296 -3.43486 0.333363 0
M  V30 3281 C 299.409 -4.07306 1.43965 0
M  V30 3282 C 298.544 -5.23744 0.886914 0
M  V30 3283 C 297.583 -5.79517 1.97043 0
M  V30 3284 N 296.72 -6.87291 1.4344 0
M  V30 3285 H 301.56 -2.40485 1.75986 0
M  V30 3286 H 299.097 -1.1801 0.878179 0
M  V30 3287 H 301.055 -4.17195 0.0198163 0
M  V30 3288 H 299.685 -3.18133 -0.546916 0
M  V30 3289 H 298.737 -3.31293 1.86946 0
M  V30 3290 H 300.049 -4.44771 2.25788 0
M  V30 3291 H 299.203 -6.04419 0.525651 0
M  V30 3292 H 297.942 -4.87685 0.0377957 0
M  V30 3293 H 296.947 -4.97491 2.34057 0
M  V30 3294 H 298.172 -6.17632 2.82325 0
M  V30 3295 H 296.118 -6.5318 0.607567 0
M  V30 3296 H 296.035 -7.23617 2.18895 0
M  V30 3297 H 297.303 -7.71682 1.10124 0
M  V30 3298 N 301.532 -0.945985 -1.26051 0
M  V30 3299 C 302.482 -0.430164 -2.23905 0
M  V30 3300 C 303.466 0.47579 -1.53704 0
M  V30 3301 O 304.658 0.310252 -1.7426 0
M  V30 3302 C 301.787 0.298957 -3.41996 0
M  V30 3303 C 300.873 -0.624566 -4.19476 0
M  V30 3304 N 301.264 -1.75245 -4.74471 0
M  V30 3305 C 299.562 -0.431082 -4.43912 0
M  V30 3306 C 300.263 -2.32834 -5.3307 0
M  V30 3307 N 299.239 -1.61583 -5.1903 0
M  V30 3308 H 303.041 -1.29107 -2.64024 0
M  V30 3309 H 300.555 -0.802428 -1.41191 0
M  V30 3310 H 302.552 0.685565 -4.11225 0
M  V30 3311 H 301.212 1.15657 -3.03403 0
M  V30 3312 H 302.223 -2.13449 -4.71868 0
M  V30 3313 H 298.9 0.384364 -4.15727 0
M  V30 3314 H 300.29 -3.27893 -5.86461 0
M  V30 3315 N 303.011 1.40521 -0.713556 0
M  V30 3316 C 303.958 2.30723 -0.059684 0
M  V30 3317 C 304.928 1.48079 0.752448 0
M  V30 3318 O 306.113 1.76823 0.71681 0
M  V30 3319 C 303.253 3.34274 0.857594 0
M  V30 3320 C 302.366 4.31986 0.0351536 0
M  V30 3321 C 301.501 5.22605 0.951724 0
M  V30 3322 C 300.54 6.11976 0.123253 0
M  V30 3323 N 299.677 6.9502 0.99459 0
M  V30 3324 H 304.517 2.86074 -0.834596 0
M  V30 3325 H 302.054 1.40879 -0.42326 0
M  V30 3326 H 304.012 3.92879 1.40364 0
M  V30 3327 H 302.642 2.8043 1.59871 0
M  V30 3328 H 301.694 3.7518 -0.628052 0
M  V30 3329 H 303.006 4.95101 -0.606347 0
M  V30 3330 H 302.16 5.86131 1.56638 0
M  V30 3331 H 300.899 4.59759 1.62705 0
M  V30 3332 H 299.904 5.47482 -0.50435 0
M  V30 3333 H 301.129 6.76881 -0.548539 0
M  V30 3334 H 299.075 6.34764 1.6556 0
M  V30 3335 H 298.992 7.54892 0.40908 0
M  V30 3336 H 300.26 7.62997 1.59549 0
M  V30 3337 N 304.489 0.459591 1.5075 0
M  V30 3338 C 305.766 -0.160371 1.94941 0
M  V30 3339 C 306.146 -1.58048 1.39943 0
M  V30 3340 O 305.494 -2.206 0.595629 0
M  V30 3341 C 305.704 -0.115432 3.48809 0
M  V30 3342 C 307.052 -0.310026 4.23467 0
M  V30 3343 O 308.076 -0.192543 3.55679 0
M  V30 3344 O 306.935 -0.546031 5.43765 0
M  V30 3345 H 304.029 -0.117925 0.818549 0
M  V30 3346 H 306.575 0.519169 1.61563 0
M  V30 3347 H 305.347 0.87652 3.81357 0
M  V30 3348 H 304.97 -0.836928 3.88692 0
M  V30 3349 N 305.967 -1.56429 0.191757 0
M  V30 3350 C 306.93 -2.17707 -0.716688 0
M  V30 3351 C 307.93 -1.13061 -1.14341 0
M  V30 3352 O 309.12 -1.38464 -1.05704 0
M  V30 3353 C 306.252 -2.77644 -1.97804 0
M  V30 3354 H 307.445 -2.99342 -0.1829 0
M  V30 3355 H 304.998 -1.56193 -0.0578566 0
M  V30 3356 H 305.733 -1.99799 -2.55443 0
M  V30 3357 H 305.518 -3.54246 -1.68083 0
M  V30 3358 H 307.008 -3.24708 -2.62592 0
M  V30 3359 N 307.445 0.0818655 -1.57387 0
M  V30 3360 C 308.375 1.09885 -2.06028 0
M  V30 3361 C 309.356 1.4098 -0.951774 0
M  V30 3362 O 310.541 1.50781 -1.22387 0
M  V30 3363 C 307.671 2.4151 -2.4958 0
M  V30 3364 C 306.625 2.24792 -3.64215 0
M  V30 3365 C 305.951 3.61712 -3.93787 0
M  V30 3366 C 307.251 1.67749 -4.94629 0
M  V30 3367 H 308.945 0.694128 -2.91243 0
M  V30 3368 H 306.491 0.332448 -1.4011 0
M  V30 3369 H 308.444 3.12939 -2.82219 0
M  V30 3370 H 307.168 2.83943 -1.61381 0
M  V30 3371 H 305.827 1.55807 -3.31843 0
M  V30 3372 H 305.475 4.01697 -3.02735 0
M  V30 3373 H 305.175 3.51368 -4.70971 0
M  V30 3374 H 306.699 4.34587 -4.28913 0
M  V30 3375 H 308.113 2.29032 -5.25564 0
M  V30 3376 H 306.51 1.68128 -5.76067 0
M  V30 3377 H 307.58 0.638059 -4.80684 0
M  V30 3378 N 308.923 1.53595 0.353017 0
M  V30 3379 C 310.169 1.70638 1.09593 0
M  V30 3380 C 310.502 0.463286 1.88593 0
M  V30 3381 O 309.777 -0.539597 1.86865 0
M  V30 3382 C 310.06 2.96406 2.04489 0
M  V30 3383 C 309.913 4.30901 1.29014 0
M  V30 3384 C 311.232 3.17812 3.0444 0
M  V30 3385 H 308.351 0.620913 0.397034 0
M  V30 3386 H 310.993 1.86254 0.375446 0
M  V30 3387 H 309.143 2.83223 2.65927 0
M  V30 3388 H 310.815 4.55917 0.702638 0
M  V30 3389 H 309.058 4.29741 0.592071 0
M  V30 3390 H 309.729 5.1506 1.98537 0
M  V30 3391 H 312.205 3.30263 2.53112 0
M  V30 3392 H 311.081 4.07223 3.6805 0
M  V30 3393 H 311.342 2.33669 3.75301 0
M  V30 3394 N 310.401 -0.613514 1.45168 0
M  V30 3395 C 311.311 -1.75296 1.55912 0
M  V30 3396 C 312.327 -1.68244 0.443856 0
M  V30 3397 O 313.503 -1.88706 0.70371 0
M  V30 3398 C 310.568 -3.1174 1.5172 0
M  V30 3399 C 309.629 -3.30291 2.74238 0
M  V30 3400 C 308.862 -4.60226 2.70236 0
M  V30 3401 O 309.085 -5.42168 1.77229 0
M  V30 3402 O 308.019 -4.81361 3.61352 0
M  V30 3403 H 311.845 -1.69183 2.52212 0
M  V30 3404 H 309.43 -0.776886 1.27612 0
M  V30 3405 H 311.312 -3.93044 1.51968 0
M  V30 3406 H 309.987 -3.18357 0.585697 0
M  V30 3407 H 308.894 -2.48598 2.79553 0
M  V30 3408 H 310.227 -3.28547 3.66494 0
M  V30 3409 N 311.879 -1.3236 -0.855495 0
M  V30 3410 C 313.126 -1.22872 -1.60962 0
M  V30 3411 C 313.454 0.209658 -1.93367 0
M  V30 3412 O 312.709 1.16243 -1.57436 0
M  V30 3413 C 313.008 -2.03275 -2.93963 0
M  V30 3414 C 312.674 -3.5264 -2.80991 0
M  V30 3415 C 311.336 -3.93364 -2.7716 0
M  V30 3416 C 313.688 -4.47626 -2.66983 0
M  V30 3417 C 311.016 -5.27319 -2.572 0
M  V30 3418 C 313.368 -5.81723 -2.48558 0
M  V30 3419 C 312.032 -6.2165 -2.4312 0
M  V30 3420 H 311.302 -0.44962 -0.589001 0
M  V30 3421 H 313.949 -1.63777 -0.992442 0
M  V30 3422 H 312.254 -1.55095 -3.59795 0
M  V30 3423 H 313.951 -1.93303 -3.51333 0
M  V30 3424 H 310.541 -3.20295 -2.84797 0
M  V30 3425 H 314.725 -4.17084 -2.68988 0
M  V30 3426 H 309.981 -5.57311 -2.51424 0
M  V30 3427 H 314.155 -6.5494 -2.36699 0
M  V30 3428 H 311.782 -7.25388 -2.27412 0
M  V30 3429 N 313.357 1.07166 -1.15556 0
M  V30 3430 C 314.605 1.79443 -0.929764 0
M  V30 3431 C 314.926 1.87246 0.544414 0
M  V30 3432 O 314.196 1.37473 1.39564 0
M  V30 3433 H 312.776 0.664625 -0.341003 0
M  V30 3434 H 315.438 1.29499 -1.45657 0
M  V30 3435 H 314.534 2.81832 -1.34079 0
M  V30 3436 N 314.835 0.952656 1.25548 0
M  V30 3437 C 316.06 0.623025 1.97821 0
M  V30 3438 C 316.485 -0.7976 1.70352 0
M  V30 3439 O 315.843 -1.53905 0.958283 0
M  V30 3440 C 315.891 0.885532 3.49558 0
M  V30 3441 O 314.995 -0.0366641 4.12384 0
M  V30 3442 H 314.336 0.237082 0.620232 0
M  V30 3443 H 316.866 1.27871 1.59719 0
M  V30 3444 H 316.876 0.811009 3.99858 0
M  V30 3445 H 315.551 1.92094 3.6888 0
M  V30 3446 H 314.128 0.0898954 3.72792 0
M  V30 3447 N 316.313 -1.40141 0.720998 0
M  V30 3448 C 317.56 -2.00787 0.262842 0
M  V30 3449 C 317.888 -1.5718 -1.14563 0
M  V30 3450 O 317.143 -0.785391 -1.79249 0
M  V30 3451 C 317.442 -3.56165 0.296892 0
M  V30 3452 C 317.108 -4.19373 1.65641 0
M  V30 3453 C 315.77 -4.36352 2.02855 0
M  V30 3454 C 318.122 -4.54578 2.54968 0
M  V30 3455 C 315.45 -4.8582 3.28931 0
M  V30 3456 C 317.802 -5.05447 3.80402 0
M  V30 3457 C 316.466 -5.20635 4.17726 0
M  V30 3458 H 315.736 -0.734731 0.0961807 0
M  V30 3459 H 318.383 -1.67673 0.925093 0
M  V30 3460 H 316.688 -3.8922 -0.448932 0
M  V30 3461 H 318.385 -4.00929 -0.0755208 0
M  V30 3462 H 314.975 -4.06549 1.35704 0
M  V30 3463 H 319.159 -4.41091 2.27491 0
M  V30 3464 H 314.415 -4.95764 3.57811 0
M  V30 3465 H 318.589 -5.31663 4.49786 0
M  V30 3466 H 316.216 -5.58728 5.15487 0
M  V30 3467 N 317.792 -0.46758 -1.50504 0
M  V30 3468 C 319.069 0.15003 -1.95024 0
M  V30 3469 C 319.449 1.57304 -1.40779 0
M  V30 3470 O 318.797 2.20281 -0.607319 0
M  V30 3471 C 319.007 0.0969324 -3.48865 0
M  V30 3472 C 320.355 0.287565 -4.23625 0
M  V30 3473 O 321.379 0.173678 -3.55776 0
M  V30 3474 O 320.238 0.517186 -5.44047 0
M  V30 3475 H 317.332 0.113582 -0.819163 0
M  V30 3476 H 319.878 -0.52773 -1.61286 0
M  V30 3477 H 318.65 -0.896732 -3.80886 0
M  V30 3478 H 318.273 0.816303 -3.8913 0
M  V30 3479 N 319.27 1.56325 -0.20005 0
M  V30 3480 C 320.681 1.8408 0.31167 0
M  V30 3481 C 321.032 1.12087 1.61031 0
M  V30 3482 O 320.157 0.38332 2.12978 0
M  V30 3483 C 320.752 3.33932 0.57226 0
M  V30 3484 C 319.311 3.6208 1.02834 0
M  V30 3485 C 318.458 2.77186 0.079634 0
M  V30 3486 H 321.409 1.52939 -0.423729 0
M  V30 3487 H 321.43 3.52971 1.42096 0
M  V30 3488 H 320.942 3.86303 -0.37308 0
M  V30 3489 H 319.043 3.15147 1.98778 0
M  V30 3490 H 319.156 4.7023 0.917624 0
M  V30 3491 H 317.52 2.47951 0.582448 0
M  V30 3492 H 318.303 3.32347 -0.860238 0
M  V30 3493 N 320.748 -0.0735177 1.57428 0
M  V30 3494 C 321.973 -0.789787 1.91774 0
M  V30 3495 C 322.398 -1.70413 0.796306 0
M  V30 3496 O 321.756 -1.79555 -0.250961 0
M  V30 3497 C 321.804 -1.5609 3.25067 0
M  V30 3498 O 320.908 -2.67144 3.14178 0
M  V30 3499 H 320.249 -0.215582 0.628029 0
M  V30 3500 H 322.779 -0.0422781 2.04556 0
M  V30 3501 H 322.789 -1.94052 3.58898 0
M  V30 3502 H 321.464 -0.890015 4.06265 0
M  V30 3503 H 320.041 -2.32052 2.91901 0
M  V30 3504 N 322.226 -1.5378 -0.344866 0
M  V30 3505 C 323.466 -1.72677 -1.09371 0
M  V30 3506 C 323.83 -0.479084 -1.85927 0
M  V30 3507 O 325.031 -0.54505 -2.63216 0
M  V30 3508 C 323.302 -2.95457 -2.01097 0
M  V30 3509 S 324.861 -3.35158 -2.83222 0
M  V30 3510 H 321.679 -0.607402 -0.369573 0
M  V30 3511 H 324.281 -1.91922 -0.372307 0
M  V30 3512 H 322.985 -3.84437 -1.43655 0
M  V30 3513 H 322.516 -2.78673 -2.77678 0
M  V30 3514 H 324.531 -2.88789 -4.03504 0
M  V30 3515 N 323.704 0.605807 -1.45491 0
M  V30 3516 C 324.634 1.72709 -1.57143 0
M  V30 3517 C 325.615 1.6476 -0.422884 0
M  V30 3518 O 326.8 1.83132 -0.646247 0
M  V30 3519 C 323.93 3.11316 -1.53948 0
M  V30 3520 C 322.884 3.34077 -2.67537 0
M  V30 3521 C 322.21 4.72975 -2.49397 0
M  V30 3522 C 323.51 3.24158 -4.09535 0
M  V30 3523 H 325.204 1.63214 -2.51001 0
M  V30 3524 H 322.75 0.78379 -1.208 0
M  V30 3525 H 324.703 3.89557 -1.60696 0
M  V30 3526 H 323.427 3.21655 -0.566205 0
M  V30 3527 H 322.086 2.58227 -2.6022 0
M  V30 3528 H 321.734 4.8005 -1.50205 0
M  V30 3529 H 321.434 4.8916 -3.25571 0
M  V30 3530 H 322.958 5.53414 -2.58002 0
M  V30 3531 H 324.372 3.92271 -4.18086 0
M  V30 3532 H 322.769 3.51872 -4.86113 0
M  V30 3533 H 323.839 2.2157 -4.31317 0
M  V30 3534 N 325.182 1.32811 0.848464 0
M  V30 3535 C 326.115 1.16601 1.96162 0
M  V30 3536 C 327.093 0.0638855 1.62474 0
M  V30 3537 O 328.277 0.224348 1.8716 0
M  V30 3538 C 325.404 0.786333 3.29446 0
M  V30 3539 C 324.45 1.89459 3.8211 0
M  V30 3540 S 325.283 3.50395 4.04949 0
M  V30 3541 C 326.439 3.14413 5.41198 0
M  V30 3542 H 326.672 2.10832 2.09612 0
M  V30 3543 H 324.205 1.17543 1.00115 0
M  V30 3544 H 326.163 0.574044 4.06466 0
M  V30 3545 H 324.824 -0.137218 3.138 0
M  V30 3546 H 324.017 1.58207 4.78526 0
M  V30 3547 H 323.619 2.06304 3.11953 0
M  V30 3548 H 325.911 2.64642 6.23675 0
M  V30 3549 H 326.854 4.09874 5.77416 0
M  V30 3550 H 327.262 2.51266 5.05495 0
M  V30 3551 N 326.66 -1.06551 1.16123 0
M  V30 3552 C 328.071 -1.60768 0.949232 0
M  V30 3553 C 328.422 -1.89523 -0.507508 0
M  V30 3554 O 327.547 -1.66671 -1.38021 0
M  V30 3555 C 328.142 -2.92086 1.71671 0
M  V30 3556 C 326.701 -3.43015 1.54977 0
M  V30 3557 C 325.848 -2.16947 1.72711 0
M  V30 3558 H 328.799 -0.895354 1.31031 0
M  V30 3559 H 328.82 -3.6138 1.19099 0
M  V30 3560 H 328.332 -2.71127 2.7769 0
M  V30 3561 H 326.433 -3.69039 0.513873 0
M  V30 3562 H 326.546 -4.18516 2.33198 0
M  V30 3563 H 324.91 -2.27041 1.15431 0
M  V30 3564 H 325.693 -1.98473 2.80113 0
M  V30 3565 N 328.138 -0.959301 -1.25041 0
M  V30 3566 C 329.366 -0.633949 -1.96948 0
M  V30 3567 C 329.781 0.794916 -1.7125 0
M  V30 3568 O 329.138 1.53231 -0.991287 0
M  V30 3569 C 329.189 -0.888805 -3.50403 0
M  V30 3570 O 328.91 -2.26149 -3.75218 0
M  V30 3571 C 330.411 -0.576482 -4.39536 0
M  V30 3572 H 327.631 -0.237263 -0.627652 0
M  V30 3573 H 330.175 -1.28495 -1.59089 0
M  V30 3574 H 328.33 -0.284145 -3.86357 0
M  V30 3575 H 328.744 -2.33514 -4.6965 0
M  V30 3576 H 330.218 -0.805314 -5.46094 0
M  V30 3577 H 330.695 0.489075 -4.36468 0
M  V30 3578 H 331.301 -1.16067 -4.09156 0
M  V30 3579 N 329.616 1.39756 -0.72842 0
M  V30 3580 C 330.856 2.025 -0.278078 0
M  V30 3581 C 331.22 1.5654 1.11173 0
M  V30 3582 O 332.421 2.11435 1.65978 0
M  V30 3583 C 330.692 3.55489 -0.369139 0
M  V30 3584 S 332.251 4.388 0.00232983 0
M  V30 3585 H 329.069 0.702534 -0.109391 0
M  V30 3586 H 331.671 1.70672 -0.95348 0
M  V30 3587 H 330.375 3.86429 -1.38204 0
M  V30 3588 H 329.906 3.92061 0.324308 0
M  V30 3589 H 331.921 4.80954 1.22055 0
M  V30 3590 N 331.094 0.475555 1.50254 0
M  V30 3591 C 332.505 0.0215174 1.86688 0
M  V30 3592 C 332.856 -1.38467 1.39001 0
M  V30 3593 O 331.981 -2.02732 0.756894 0
M  V30 3594 C 332.576 0.0322715 3.38785 0
M  V30 3595 C 331.135 -0.366314 3.74613 0
M  V30 3596 C 330.282 0.415832 2.74164 0
M  V30 3597 H 333.233 0.689612 1.42934 0
M  V30 3598 H 333.254 -0.76889 3.7265 0
M  V30 3599 H 332.766 1.05584 3.73462 0
M  V30 3600 H 330.867 -1.39406 3.45538 0
M  V30 3601 H 330.98 -0.064555 4.79057 0
M  V30 3602 H 329.344 -0.131048 2.54363 0
M  V30 3603 H 330.127 1.43899 3.11686 0
M  V30 3604 N 332.573 -1.56217 0.208337 0
M  V30 3605 C 333.85 -1.89739 -0.475234 0
M  V30 3606 C 334.23 -1.1238 -1.78701 0
M  V30 3607 O 333.578 -0.228979 -2.2735 0
M  V30 3608 C 333.788 -3.42289 -0.681101 0
M  V30 3609 C 335.136 -4.12789 -0.994507 0
M  V30 3610 O 336.16 -3.47814 -0.768357 0
M  V30 3611 O 335.019 -5.27649 -1.42299 0
M  V30 3612 H 332.113 -0.788478 -0.249461 0
M  V30 3613 H 334.659 -1.67855 0.249538 0
M  V30 3614 H 333.431 -3.90534 0.244722 0
M  V30 3615 H 333.054 -3.69909 -1.45785 0
M  V30 3616 N 334.051 0.0651679 -1.57465 0
M  V30 3617 C 335.281 0.774683 -1.91526 0
M  V30 3618 C 335.689 1.71305 -0.803196 0
M  V30 3619 O 335.032 1.82231 0.231881 0
M  V30 3620 C 335.094 1.61645 -3.21109 0
M  V30 3621 C 334.758 0.846753 -4.49087 0
M  V30 3622 C 335.755 0.163024 -5.19644 0
M  V30 3623 C 333.44 0.811966 -4.95694 0
M  V30 3624 C 335.434 -0.54519 -6.35064 0
M  V30 3625 C 333.121 0.0999836 -6.11018 0
M  V30 3626 C 334.119 -0.577388 -6.80555 0
M  V30 3627 O 333.807 -1.27789 -7.93678 0
M  V30 3628 H 333.539 0.225031 -0.637446 0
M  V30 3629 H 336.093 0.0377134 -2.05365 0
M  V30 3630 H 334.323 2.39638 -3.03497 0
M  V30 3631 H 336.012 2.20525 -3.40769 0
M  V30 3632 H 336.778 0.181163 -4.84662 0
M  V30 3633 H 332.657 1.32867 -4.41438 0
M  V30 3634 H 336.201 -1.07446 -6.89276 0
M  V30 3635 H 332.098 0.0797945 -6.45451 0
M  V30 3636 H 332.866 -1.18784 -8.09835 0
M  V30 3637 N 335.529 1.53961 0.336706 0
M  V30 3638 C 336.775 1.7273 1.07406 0
M  V30 3639 C 337.13 0.488095 1.86106 0
M  V30 3640 O 336.423 -0.519379 1.84426 0
M  V30 3641 C 336.617 2.93493 2.03953 0
M  V30 3642 C 336.446 4.29039 1.34744 0
M  V30 3643 C 335.216 4.93416 1.08942 0
M  V30 3644 C 337.414 5.08501 0.770115 0
M  V30 3645 N 335.396 6.12821 0.363864 0
M  V30 3646 C 336.767 6.19752 0.175472 0
M  V30 3647 C 338.822 4.93349 0.671633 0
M  V30 3648 C 337.525 7.17503 -0.508081 0
M  V30 3649 C 339.551 5.914 0.0018076 0
M  V30 3650 C 338.913 7.01993 -0.581835 0
M  V30 3651 H 335.012 0.685026 0.377177 0
M  V30 3652 H 337.596 1.91403 0.356815 0
M  V30 3653 H 335.767 2.76308 2.72962 0
M  V30 3654 H 337.499 3.00949 2.70577 0
M  V30 3655 H 334.254 4.53099 1.37833 0
M  V30 3656 H 334.678 6.76998 0.0156092 0
M  V30 3657 H 339.32 4.08007 1.1086 0
M  V30 3658 H 337.038 8.02414 -0.956918 0
M  V30 3659 H 340.624 5.81753 -0.0738538 0
M  V30 3660 H 339.504 7.76561 -1.09192 0
M  V30 3661 N 337.007 -0.598083 1.45811 0
M  V30 3662 C 338.235 -1.38322 1.53866 0
M  V30 3663 C 338.65 -1.87992 0.174479 0
M  V30 3664 O 338.007 -1.62756 -0.825627 0
M  V30 3665 C 338.058 -2.58125 2.53089 0
M  V30 3666 O 337.779 -2.10516 3.84206 0
M  V30 3667 C 339.28 -3.50869 2.70935 0
M  V30 3668 H 336.5 -0.423093 0.520801 0
M  V30 3669 H 339.044 -0.728527 1.91083 0
M  V30 3670 H 337.199 -3.19615 2.18917 0
M  V30 3671 H 337.613 -2.88425 4.38077 0
M  V30 3672 H 339.087 -4.31451 3.44317 0
M  V30 3673 H 339.564 -4.01822 1.77301 0
M  V30 3674 H 340.17 -2.95225 3.06141 0
M  V30 3675 N 338.485 -1.33259 -0.841409 0
M  V30 3676 C 339.715 -1.2742 -1.62628 0
M  V30 3677 C 340.123 0.157604 -1.88542 0
M  V30 3678 O 339.466 1.10938 -1.46419 0
M  V30 3679 C 339.528 -1.97797 -3.00194 0
M  V30 3680 C 339.192 -3.47109 -2.97261 0
M  V30 3681 C 340.189 -4.42358 -2.73159 0
M  V30 3682 C 337.874 -3.89247 -3.17478 0
M  V30 3683 C 339.868 -5.77718 -2.69296 0
M  V30 3684 C 337.555 -5.24713 -3.13241 0
M  V30 3685 C 338.553 -6.1876 -2.89181 0
M  V30 3686 O 338.241 -7.51745 -2.84843 0
M  V30 3687 H 337.973 -0.440436 -0.512827 0
M  V30 3688 H 340.527 -1.76153 -1.05638 0
M  V30 3689 H 338.757 -1.43652 -3.59028 0
M  V30 3690 H 340.446 -1.8549 -3.61038 0
M  V30 3691 H 341.212 -4.11127 -2.57294 0
M  V30 3692 H 337.091 -3.16456 -3.35226 0
M  V30 3693 H 340.635 -6.51097 -2.50436 0
M  V30 3694 H 336.532 -5.55569 -3.28654 0
M  V30 3695 H 337.3 -7.61262 -3.00702 0
M  V30 3696 N 339.963 1.05934 -1.16686 0
M  V30 3697 C 341.188 1.83029 -0.975455 0
M  V30 3698 C 341.613 1.82096 0.471452 0
M  V30 3699 O 340.971 1.22443 1.33706 0
M  V30 3700 C 341.019 3.27372 -1.51195 0
M  V30 3701 O 340.123 4.06054 -0.720701 0
M  V30 3702 H 339.464 0.566194 -0.346872 0
M  V30 3703 H 341.994 1.33541 -1.55009 0
M  V30 3704 H 342.004 3.78186 -1.53099 0
M  V30 3705 H 340.679 3.27366 -2.56523 0
M  V30 3706 H 339.256 3.64812 -0.772458 0
M  V30 3707 N 341.441 0.965919 1.2453 0
M  V30 3708 C 342.689 0.625593 1.92174 0
M  V30 3709 C 343.01 -0.841652 1.75901 0
M  V30 3710 O 342.28 -1.60061 1.12948 0
M  V30 3711 H 340.86 0.228388 0.71123 0
M  V30 3712 H 343.522 1.2266 1.51461 0
M  V30 3713 H 342.618 0.864653 2.99884 0
M  V30 3714 N 342.919 -1.39368 0.735821 0
M  V30 3715 C 344.144 -2.05319 0.293052 0
M  V30 3716 C 344.569 -1.55115 -1.064 0
M  V30 3717 O 343.927 -0.695261 -1.67439 0
M  V30 3718 C 343.975 -3.59305 0.305323 0
M  V30 3719 O 343.079 -4.06299 -0.706761 0
M  V30 3720 H 342.42 -0.650529 0.13307 0
M  V30 3721 H 344.95 -1.78386 1.00197 0
M  V30 3722 H 344.96 -4.07724 0.149997 0
M  V30 3723 H 343.635 -3.95207 1.29553 0
M  V30 3724 H 342.212 -3.69292 -0.517504 0
M  V30 3725 N 344.397 -0.483516 -1.5 0
M  V30 3726 C 345.327 0.293829 -2.31644 0
M  V30 3727 C 346.308 0.978864 -1.39112 0
M  V30 3728 O 347.493 0.973644 -1.68029 0
M  V30 3729 C 344.623 1.36897 -3.19181 0
M  V30 3730 C 343.577 0.804833 -4.20365 0
M  V30 3731 C 342.903 1.9792 -4.96721 0
M  V30 3732 C 344.203 -0.192313 -5.21946 0
M  V30 3733 H 345.897 -0.387616 -2.9688 0
M  V30 3734 H 343.443 -0.187856 -1.42769 0
M  V30 3735 H 345.396 1.92037 -3.751 0
M  V30 3736 H 344.12 2.07936 -2.51853 0
M  V30 3737 H 342.779 0.275319 -3.65565 0
M  V30 3738 H 342.427 2.67686 -4.25856 0
M  V30 3739 H 342.127 1.60789 -5.65173 0
M  V30 3740 H 343.651 2.53526 -5.55479 0
M  V30 3741 H 345.065 0.270333 -5.72662 0
M  V30 3742 H 343.462 -0.478543 -5.98189 0
M  V30 3743 H 344.532 -1.11409 -4.71928 0
M  V30 3744 N 345.875 1.56104 -0.216619 0
M  V30 3745 C 347.103 2.02563 0.421413 0
M  V30 3746 C 347.518 1.0965 1.53695 0
M  V30 3747 O 346.875 0.10521 1.82196 0
M  V30 3748 C 346.926 3.48584 0.957665 0
M  V30 3749 O 346.647 4.37953 -0.113389 0
M  V30 3750 C 348.148 4.10664 1.66943 0
M  V30 3751 H 345.368 0.662944 0.103665 0
M  V30 3752 H 347.912 2.01793 -0.331629 0
M  V30 3753 H 346.067 3.49985 1.661 0
M  V30 3754 H 346.481 5.23704 0.288932 0
M  V30 3755 H 347.955 5.14622 1.99671 0
M  V30 3756 H 348.432 3.55373 2.58083 0
M  V30 3757 H 349.038 4.13098 1.01142 0
M  V30 3758 N 347.353 -0.0568162 1.57498 0
M  V30 3759 C 348.581 -0.765626 1.92213 0
M  V30 3760 C 348.996 -1.70353 0.813961 0
M  V30 3761 O 348.353 -1.81268 -0.211701 0
M  V30 3762 C 348.404 -1.5465 3.2675 0
M  V30 3763 O 348.125 -0.646278 4.33307 0
M  V30 3764 C 349.626 -2.35497 3.75574 0
M  V30 3765 H 346.846 -0.216835 0.634999 0
M  V30 3766 H 349.39 -0.0226146 2.04487 0
M  V30 3767 H 347.545 -2.24165 3.15957 0
M  V30 3768 H 347.959 -1.19093 5.108 0
M  V30 3769 H 349.433 -2.85722 4.72299 0
M  V30 3770 H 349.91 -3.15692 3.05344 0
M  V30 3771 H 350.516 -1.7111 3.8936 0
M  V30 3772 N 348.832 -1.54138 -0.328536 0
M  V30 3773 C 350.243 -1.63395 -0.903272 0
M  V30 3774 C 350.594 -0.524828 -1.8905 0
M  V30 3775 O 349.719 0.343068 -2.13663 0
M  V30 3776 C 350.314 -2.9618 -1.64507 0
M  V30 3777 C 348.873 -3.0765 -2.1686 0
M  V30 3778 C 348.02 -2.58933 -0.992416 0
M  V30 3779 H 350.971 -1.58344 -0.106253 0
M  V30 3780 H 350.992 -2.86061 -2.50897 0
M  V30 3781 H 350.504 -3.76884 -0.926302 0
M  V30 3782 H 348.605 -2.31611 -2.91868 0
M  V30 3783 H 348.718 -4.1337 -2.42202 0
M  V30 3784 H 347.082 -2.14706 -1.37016 0
M  V30 3785 H 347.865 -3.42089 -0.288041 0
M  V30 3786 N 350.31 0.590341 -1.46126 0
M  V30 3787 C 351.721 1.17243 -1.45296 0
M  V30 3788 C 352.072 1.95281 -0.189723 0
M  V30 3789 O 351.197 2.04502 0.707674 0
M  V30 3790 C 351.792 2.13284 -2.6324 0
M  V30 3791 C 350.351 2.66832 -2.65476 0
M  V30 3792 C 349.498 1.42557 -2.3785 0
M  V30 3793 H 352.449 0.378692 -1.54116 0
M  V30 3794 H 352.47 2.96619 -2.38323 0
M  V30 3795 H 351.982 1.56459 -3.55165 0
M  V30 3796 H 350.083 3.27548 -1.77603 0
M  V30 3797 H 350.196 3.10088 -3.65215 0
M  V30 3798 H 348.56 1.72107 -1.87753 0
M  V30 3799 H 349.343 0.875741 -3.31942 0
M  V30 3800 N 351.788 1.33704 0.83433 0
M  V30 3801 C 352.718 1.26967 1.95963 0
M  V30 3802 C 353.699 0.149337 1.69443 0
M  V30 3803 O 354.884 0.339852 1.91203 0
M  V30 3804 C 352.014 1.01275 3.32206 0
M  V30 3805 C 350.968 2.09652 3.73136 0
M  V30 3806 C 350.294 1.69166 5.07235 0
M  V30 3807 C 351.594 3.51372 3.86439 0
M  V30 3808 H 353.288 2.2112 2.01857 0
M  V30 3809 H 350.834 1.06447 0.969793 0
M  V30 3810 H 352.787 0.952106 4.10503 0
M  V30 3811 H 351.511 0.0356203 3.26581 0
M  V30 3812 H 350.17 2.14766 2.97104 0
M  V30 3813 H 349.818 0.701437 4.98085 0
M  V30 3814 H 349.518 2.41694 5.35591 0
M  V30 3815 H 351.042 1.64576 5.88003 0
M  V30 3816 H 352.456 3.48734 4.55036 0
M  V30 3817 H 350.853 4.22425 4.26236 0
M  V30 3818 H 351.923 3.89546 2.88759 0
M  V30 3819 N 353.266 -1.05314 1.17247 0
M  V30 3820 C 354.491 -1.82509 0.985148 0
M  V30 3821 C 354.916 -1.82343 -0.461788 0
M  V30 3822 O 354.274 -1.23151 -1.33055 0
M  V30 3823 C 354.322 -3.26566 1.52929 0
M  V30 3824 O 353.426 -4.05666 0.742225 0
M  V30 3825 H 352.767 -0.564347 0.349869 0
M  V30 3826 H 355.297 -1.32718 1.55715 0
M  V30 3827 H 355.307 -3.77369 1.55103 0
M  V30 3828 H 353.982 -3.26001 2.58256 0
M  V30 3829 H 352.559 -3.64397 0.791794 0
M  V30 3830 N 354.744 -0.972509 -1.24016 0
M  V30 3831 C 355.654 -0.5143 -2.28893 0
M  V30 3832 C 356.67 0.427078 -1.68677 0
M  V30 3833 O 357.846 0.298939 -1.99169 0
M  V30 3834 C 354.911 0.183598 -3.46214 0
M  V30 3835 C 353.972 -0.798202 -4.21814 0
M  V30 3836 C 353.205 -0.133514 -5.33533 0
M  V30 3837 O 353.428 1.07714 -5.60137 0
M  V30 3838 O 352.362 -0.828103 -5.96176 0
M  V30 3839 H 356.188 -1.38629 -2.70214 0
M  V30 3840 H 353.773 -0.739769 -1.29799 0
M  V30 3841 H 355.655 0.575433 -4.17453 0
M  V30 3842 H 354.33 1.03048 -3.0686 0
M  V30 3843 H 353.237 -1.24059 -3.52931 0
M  V30 3844 H 354.57 -1.61364 -4.64997 0
M  V30 3845 N 356.222 1.38976 -0.743202 0
M  V30 3846 C 357.447 2.05161 -0.303936 0
M  V30 3847 C 357.872 1.55677 1.05576 0
M  V30 3848 O 357.23 0.704131 1.67068 0
M  V30 3849 C 357.278 3.59138 -0.324373 0
M  V30 3850 O 356.382 4.06668 0.685204 0
M  V30 3851 H 355.723 0.649815 -0.136518 0
M  V30 3852 H 358.253 1.77852 -1.01142 0
M  V30 3853 H 358.263 4.07639 -0.171618 0
M  V30 3854 H 356.938 3.94515 -1.31647 0
M  V30 3855 H 355.515 3.69561 0.497913 0
M  V30 3856 N 357.7 0.491464 1.49741 0
M  V30 3857 C 358.946 -0.0565092 2.02721 0
M  V30 3858 C 359.279 -1.37522 1.37118 0
M  V30 3859 O 358.554 -1.87866 0.503645 0
M  V30 3860 C 358.837 -0.219051 3.59433 0
M  V30 3861 C 358.69 1.12211 4.35579 0
M  V30 3862 C 360.009 -0.964157 4.29409 0
M  V30 3863 H 357.128 -0.0190627 0.736753 0
M  V30 3864 H 359.77 0.641021 1.7886 0
M  V30 3865 H 357.92 -0.813165 3.79895 0
M  V30 3866 H 359.592 1.75437 4.26637 0
M  V30 3867 H 357.835 1.71377 3.98513 0
M  V30 3868 H 358.506 0.961794 5.43556 0
M  V30 3869 H 360.982 -0.460378 4.13545 0
M  V30 3870 H 359.858 -1.04671 5.38828 0
M  V30 3871 H 360.119 -2.00563 3.93988 0
M  V30 3872 N 359.178 -1.55987 0.224894 0
M  V30 3873 C 360.406 -2.02784 -0.410665 0
M  V30 3874 C 360.821 -1.10464 -1.53112 0
M  V30 3875 O 360.178 -0.114871 -1.82138 0
M  V30 3876 C 360.229 -3.49087 -0.939165 0
M  V30 3877 O 359.95 -4.37887 0.136614 0
M  V30 3878 C 361.451 -4.11543 -1.64763 0
M  V30 3879 H 358.671 -0.663484 -0.100148 0
M  V30 3880 H 361.215 -2.01614 0.342326 0
M  V30 3881 H 359.37 -3.50861 -1.64242 0
M  V30 3882 H 359.784 -5.23849 -0.261155 0
M  V30 3883 H 361.258 -5.15673 -1.96939 0
M  V30 3884 H 361.735 -3.56736 -2.56195 0
M  V30 3885 H 362.341 -4.13629 -0.989503 0
M  V30 3886 N 360.656 0.0484629 -1.57525 0
M  V30 3887 C 361.902 0.738854 -1.89506 0
M  V30 3888 C 362.257 1.73989 -0.821319 0
M  V30 3889 O 361.55 1.90825 0.172129 0
M  V30 3890 C 361.744 1.46632 -3.25935 0
M  V30 3891 C 361.573 0.537254 -4.46479 0
M  V30 3892 C 360.343 0.165484 -5.05029 0
M  V30 3893 C 362.541 -0.176085 -5.13998 0
M  V30 3894 N 360.523 -0.766868 -6.09091 0
M  V30 3895 C 361.894 -0.96478 -6.12448 0
M  V30 3896 C 363.949 -0.24509 -4.97296 0
M  V30 3897 C 362.652 -1.8161 -6.95996 0
M  V30 3898 C 364.678 -1.08347 -5.81391 0
M  V30 3899 C 364.04 -1.86014 -6.79395 0
M  V30 3900 H 360.139 0.245067 -0.742608 0
M  V30 3901 H 362.723 -0.000476161 -1.947 0
M  V30 3902 H 360.894 2.17623 -3.21706 0
M  V30 3903 H 362.626 2.10757 -3.45491 0
M  V30 3904 H 359.381 0.523466 -4.70698 0
M  V30 3905 H 359.805 -1.22698 -6.65788 0
M  V30 3906 H 364.447 0.341063 -4.21422 0
M  V30 3907 H 362.165 -2.41313 -7.71229 0
M  V30 3908 H 365.751 -1.14014 -5.70519 0
M  V30 3909 H 364.631 -2.4984 -7.43337 0
M  V30 3910 N 362.134 1.5431 0.320358 0
M  V30 3911 C 363.383 1.7188 1.05546 0
M  V30 3912 C 363.696 0.501143 1.89071 0
M  V30 3913 O 364.902 0.558258 2.65699 0
M  V30 3914 C 363.358 3.04025 1.92605 0
M  V30 3915 C 362.966 4.33207 1.14176 0
M  V30 3916 C 364.71 3.30959 2.65832 0
M  V30 3917 C 362.617 5.56412 2.00399 0
M  V30 3918 H 361.547 0.640547 0.397763 0
M  V30 3919 H 364.198 1.80802 0.313522 0
M  V30 3920 H 362.58 2.89019 2.7071 0
M  V30 3921 H 363.754 4.58989 0.40819 0
M  V30 3922 H 362.069 4.13062 0.526165 0
M  V30 3923 H 364.666 4.20203 3.30656 0
M  V30 3924 H 365.009 2.48979 3.33639 0
M  V30 3925 H 365.542 3.46847 1.94787 0
M  V30 3926 H 362.281 6.41004 1.37094 0
M  V30 3927 H 361.801 5.34844 2.7148 0
M  V30 3928 H 363.48 5.92938 2.58908 0
M  V30 3929 N 363.613 -0.582584 1.46437 0
M  V30 3930 C 364.862 -1.337 1.5102 0
M  V30 3931 C 365.175 -1.94891 0.166359 0
M  V30 3932 O 366.381 -2.71351 0.0899954 0
M  V30 3933 C 364.837 -2.42315 2.66104 0
M  V30 3934 C 364.445 -1.87427 4.06909 0
M  V30 3935 C 366.189 -3.19099 2.79958 0
M  V30 3936 C 364.096 -2.93672 5.13333 0
M  V30 3937 H 363.026 -0.502619 0.562041 0
M  V30 3938 H 365.677 -0.621701 1.72647 0
M  V30 3939 H 364.059 -3.16645 2.37807 0
M  V30 3940 H 365.233 -1.19639 4.44998 0
M  V30 3941 H 363.548 -1.2331 3.97723 0
M  V30 3942 H 366.145 -3.9839 3.56636 0
M  V30 3943 H 366.488 -3.71695 1.87479 0
M  V30 3944 H 367.021 -2.51875 3.07902 0
M  V30 3945 H 363.76 -2.45962 6.07604 0
M  V30 3946 H 363.28 -3.59948 4.79789 0
M  V30 3947 H 364.959 -3.5762 5.39182 0
M  V30 3948 N 365.091 -1.34144 -0.827227 0
M  V30 3949 C 366.038 -1.25364 -1.93785 0
M  V30 3950 C 367.008 -0.129774 -1.65592 0
M  V30 3951 O 368.193 -0.310024 -1.88264 0
M  V30 3952 C 365.333 -1.01064 -3.2997 0
M  V30 3953 C 364.446 -2.22185 -3.70484 0
M  V30 3954 C 363.581 -1.91203 -4.95595 0
M  V30 3955 C 362.62 -3.08491 -5.28677 0
M  V30 3956 N 361.757 -2.77421 -6.44967 0
M  V30 3957 H 366.597 -2.20347 -2.00627 0
M  V30 3958 H 364.134 -1.09558 -0.981608 0
M  V30 3959 H 366.092 -0.850139 -4.08446 0
M  V30 3960 H 364.722 -0.0975026 -3.22653 0
M  V30 3961 H 363.774 -2.4917 -2.87434 0
M  V30 3962 H 365.086 -3.0983 -3.90905 0
M  V30 3963 H 364.24 -1.71864 -5.81848 0
M  V30 3964 H 362.979 -1.00812 -4.77167 0
M  V30 3965 H 361.984 -3.28431 -4.40923 0
M  V30 3966 H 363.209 -3.99655 -5.49047 0
M  V30 3967 H 361.155 -1.89601 -6.28003 0
M  V30 3968 H 361.072 -3.58598 -6.6554 0
M  V30 3969 H 362.34 -2.61577 -7.34301 0
M  V30 3970 N 366.569 1.04691 -1.17803 0
M  V30 3971 C 367.516 2.12557 -0.899343 0
M  V30 3972 C 368.486 1.65339 0.158771 0
M  V30 3973 O 369.671 1.90789 0.0204797 0
M  V30 3974 C 366.811 3.42481 -0.424315 0
M  V30 3975 C 365.924 4.03346 -1.54713 0
M  V30 3976 C 365.059 5.21208 -1.02546 0
M  V30 3977 C 364.098 5.74089 -2.12339 0
M  V30 3978 N 363.235 6.83247 -1.61612 0
M  V30 3979 H 368.075 2.35734 -1.823 0
M  V30 3980 H 365.612 1.1564 -0.909159 0
M  V30 3981 H 367.57 4.16996 -0.130421 0
M  V30 3982 H 366.2 3.19471 0.462377 0
M  V30 3983 H 365.252 3.2622 -1.95664 0
M  V30 3984 H 366.564 4.38628 -2.37501 0
M  V30 3985 H 365.718 6.02812 -0.685718 0
M  V30 3986 H 364.457 4.87414 -0.167084 0
M  V30 3987 H 363.462 4.91111 -2.47165 0
M  V30 3988 H 364.687 6.0993 -2.98601 0
M  V30 3989 H 362.633 6.5134 -0.780533 0
M  V30 3990 H 362.55 7.17559 -2.38003 0
M  V30 3991 H 363.818 7.68491 -1.30545 0
M  V30 3992 N 368.047 0.979072 1.23499 0
M  V30 3993 C 368.979 0.476271 2.24197 0
M  V30 3994 C 369.992 -0.421166 1.57258 0
M  V30 3995 O 371.181 -0.225515 1.7707 0
M  V30 3996 C 368.281 -0.330503 3.37285 0
M  V30 3997 C 367.454 0.559744 4.33804 0
M  V30 3998 C 366.513 -0.192954 5.25846 0
M  V30 3999 O 365.539 0.416978 5.67671 0
M  V30 4000 N 366.741 -1.47932 5.61334 0
M  V30 4001 H 369.506 1.34211 2.67969 0
M  V30 4002 H 367.067 0.852189 1.37657 0
M  V30 4003 H 369.059 -0.842361 3.95836 0
M  V30 4004 H 367.629 -1.09734 2.92707 0
M  V30 4005 H 366.849 1.25245 3.73775 0
M  V30 4006 H 368.137 1.1665 4.95248 0
M  V30 4007 H 367.535 -1.9964 5.29302 0
M  V30 4008 H 366.092 -1.93664 6.22364 0
M  V30 4009 N 369.525 -1.3858 0.750561 0
M  V30 4010 C 370.936 -1.82927 0.373438 0
M  V30 4011 C 371.287 -1.62634 -1.09748 0
M  V30 4012 O 370.412 -1.12588 -1.84805 0
M  V30 4013 C 371.007 -3.32088 0.671029 0
M  V30 4014 C 369.566 -3.74795 0.34722 0
M  V30 4015 C 368.713 -2.61391 0.92575 0
M  V30 4016 H 371.664 -1.27351 0.946958 0
M  V30 4017 H 371.685 -3.80465 -0.0518269 0
M  V30 4018 H 371.197 -3.46826 1.74164 0
M  V30 4019 H 369.298 -3.65638 -0.716933 0
M  V30 4020 H 369.411 -4.71667 0.840656 0
M  V30 4021 H 367.775 -2.52265 0.351327 0
M  V30 4022 H 368.558 -2.78929 2.00133 0
M  V30 4023 N 371.003 -0.499398 -1.49478 0
M  V30 4024 C 372.249 0.0457576 -2.02748 0
M  V30 4025 C 372.582 1.36793 -1.37846 0
M  V30 4026 O 371.857 1.87596 -0.513601 0
M  V30 4027 C 372.14 0.199986 -3.59544 0
M  V30 4028 C 371.993 -1.1452 -4.34977 0
M  V30 4029 C 373.312 0.94137 -4.29914 0
M  V30 4030 H 370.431 0.0151552 -0.736844 0
M  V30 4031 H 373.073 -0.650498 -1.78518 0
M  V30 4032 H 371.223 0.793007 -3.8032 0
M  V30 4033 H 372.895 -1.77697 -4.25701 0
M  V30 4034 H 371.138 -1.73488 -3.97598 0
M  V30 4035 H 371.809 -0.990607 -5.43039 0
M  V30 4036 H 374.285 0.43844 -4.13784 0
M  V30 4037 H 373.161 1.01812 -5.39375 0
M  V30 4038 H 373.422 1.98471 -3.95046 0
M  V30 4039 N 372.481 1.55866 -0.233164 0
M  V30 4040 C 373.391 2.24431 0.683217 0
M  V30 4041 C 374.407 1.2558 1.2044 0
M  V30 4042 O 375.583 1.58422 1.24356 0
M  V30 4043 C 372.648 2.91979 1.86947 0
M  V30 4044 C 371.709 4.06204 1.38912 0
M  V30 4045 C 370.942 4.70522 2.51883 0
M  V30 4046 O 371.165 4.33865 3.70293 0
M  V30 4047 O 370.099 5.59296 2.22423 0
M  V30 4048 H 373.925 3.03426 0.129059 0
M  V30 4049 H 371.51 1.494 -0.0022283 0
M  V30 4050 H 373.392 3.34573 2.56201 0
M  V30 4051 H 372.067 2.15935 2.41151 0
M  V30 4052 H 370.974 3.68155 0.664259 0
M  V30 4053 H 372.307 4.84025 0.893328 0
M  V30 4054 N 373.959 -0.0401083 1.57549 0
M  V30 4055 C 375.205 -0.734211 1.89043 0
M  V30 4056 C 375.538 -1.75591 0.829535 0
M  V30 4057 O 374.813 -1.93868 -0.156706 0
M  V30 4058 C 375.096 -1.41374 3.31188 0
M  V30 4059 C 374.949 -0.406299 4.47961 0
M  V30 4060 C 376.268 -2.35061 3.72068 0
M  V30 4061 H 373.387 -0.265447 0.687537 0
M  V30 4062 H 376.029 0.00294087 1.9 0
M  V30 4063 H 374.179 -2.04206 3.30503 0
M  V30 4064 H 375.851 0.219255 4.60779 0
M  V30 4065 H 374.094 0.275485 4.32924 0
M  V30 4066 H 374.765 -0.920022 5.44279 0
M  V30 4067 H 377.241 -1.82282 3.74049 0
M  V30 4068 H 376.117 -2.79593 4.72355 0
M  V30 4069 H 376.378 -3.21258 3.0372 0
M  V30 4070 N 375.437 -1.54477 -0.31217 0
M  V30 4071 C 376.714 -1.63891 -1.06767 0
M  V30 4072 C 377.094 -0.480028 -2.0557 0
M  V30 4073 O 376.442 0.524487 -2.22399 0
M  V30 4074 C 376.652 -3.01402 -1.75948 0
M  V30 4075 C 378 -3.57838 -2.28554 0
M  V30 4076 O 379.024 -3.03782 -1.85998 0
M  V30 4077 O 377.883 -4.52462 -3.06497 0
M  V30 4078 H 374.977 -0.664125 -0.492816 0
M  V30 4079 H 377.523 -1.66823 -0.311149 0
M  V30 4080 H 376.295 -3.77187 -1.04144 0
M  V30 4081 H 375.918 -3.02199 -2.58383 0
M  V30 4082 N 376.915 0.57481 -1.46744 0
M  V30 4083 C 377.865 1.67838 -1.54319 0
M  V30 4084 C 378.849 1.55759 -0.40346 0
M  V30 4085 O 380.041 1.6454 -0.652347 0
M  V30 4086 C 377.17 3.06624 -1.5439 0
M  V30 4087 C 376.256 3.23971 -2.73685 0
M  V30 4088 N 376.647 3.11447 -3.9854 0
M  V30 4089 C 374.945 3.5493 -2.70075 0
M  V30 4090 C 375.646 3.31011 -4.78337 0
M  V30 4091 N 374.622 3.56533 -4.10348 0
M  V30 4092 H 378.424 1.56698 -2.48642 0
M  V30 4093 H 375.938 0.779071 -1.42493 0
M  V30 4094 H 377.935 3.85839 -1.57905 0
M  V30 4095 H 376.595 3.1889 -0.611493 0
M  V30 4096 H 377.606 2.89145 -4.29669 0
M  V30 4097 H 374.283 3.73832 -1.85893 0
M  V30 4098 H 375.673 3.26445 -5.87268 0
M  V30 4099 N 378.394 1.34581 0.820102 0
M  V30 4100 C 379.671 1.17675 1.56244 0
M  V30 4101 C 380.051 -0.249541 2.0962 0
M  V30 4102 O 379.399 -1.25125 1.91196 0
M  V30 4103 C 379.609 2.23364 2.6816 0
M  V30 4104 C 380.957 2.58485 3.36854 0
M  V30 4105 O 381.981 2.22175 2.78418 0
M  V30 4106 O 380.84 3.20868 4.42386 0
M  V30 4107 H 377.934 0.456333 0.689702 0
M  V30 4108 H 380.48 1.46222 0.861231 0
M  V30 4109 H 379.252 3.19087 2.26493 0
M  V30 4110 H 378.875 1.96009 3.45928 0
M  V30 4111 N 379.872 -1.04064 1.18357 0
M  V30 4112 C 380.804 -2.12114 0.868358 0
M  V30 4113 C 381.817 -1.62247 -0.134045 0
M  V30 4114 O 383.006 -1.78253 0.0937933 0
M  V30 4115 C 380.106 -3.37773 0.276132 0
M  V30 4116 C 379.279 -4.16874 1.3242 0
M  V30 4117 C 378.338 -5.20861 0.747662 0
M  V30 4118 O 377.364 -5.51141 1.42239 0
M  V30 4119 N 378.566 -5.78715 -0.454823 0
M  V30 4120 H 381.331 -2.39748 1.79836 0
M  V30 4121 H 378.892 -1.20258 1.08396 0
M  V30 4122 H 380.884 -4.04513 -0.123133 0
M  V30 4123 H 379.454 -3.07581 -0.557895 0
M  V30 4124 H 378.674 -3.45456 1.89878 0
M  V30 4125 H 379.962 -4.66516 2.03078 0
M  V30 4126 H 379.36 -5.56415 -1.02073 0
M  V30 4127 H 377.917 -6.46921 -0.79601 0
M  V30 4128 N 381.35 -0.985608 -1.22978 0
M  V30 4129 C 382.28 -0.549649 -2.26939 0
M  V30 4130 C 383.261 0.419803 -1.64838 0
M  V30 4131 O 384.446 0.31203 -1.91677 0
M  V30 4132 C 381.576 0.143652 -3.47003 0
M  V30 4133 C 380.53 -0.743606 -4.21491 0
M  V30 4134 C 379.856 0.0822027 -5.34637 0
M  V30 4135 C 381.156 -2.03694 -4.80943 0
M  V30 4136 H 382.85 -1.41862 -2.63658 0
M  V30 4137 H 380.396 -0.683571 -1.26741 0
M  V30 4138 H 382.349 0.459985 -4.18882 0
M  V30 4139 H 381.073 1.04711 -3.09359 0
M  V30 4140 H 379.732 -1.04347 -3.51436 0
M  V30 4141 H 379.38 0.986359 -4.93234 0
M  V30 4142 H 379.08 -0.508377 -5.85397 0
M  V30 4143 H 380.604 0.392797 -6.09335 0
M  V30 4144 H 382.018 -1.78504 -5.44802 0
M  V30 4145 H 380.415 -2.57573 -5.42011 0
M  V30 4146 H 381.485 -2.72042 -4.01399 0
M  V30 4147 N 382.828 1.3818 -0.7579 0
M  V30 4148 C 383.738 2.3421 -0.135247 0
M  V30 4149 C 384.754 1.59487 0.695683 0
M  V30 4150 O 385.93 1.91657 0.618832 0
M  V30 4151 C 382.995 3.3862 0.744139 0
M  V30 4152 C 382.056 4.2918 -0.101658 0
M  V30 4153 C 381.289 5.28603 0.735851 0
M  V30 4154 O 381.512 5.35166 1.97366 0
M  V30 4155 O 380.446 6.01707 0.152372 0
M  V30 4156 H 384.272 2.8916 -0.928436 0
M  V30 4157 H 381.857 1.40101 -0.518855 0
M  V30 4158 H 383.739 4.02539 1.2466 0
M  V30 4159 H 382.414 2.86019 1.51575 0
M  V30 4160 H 381.321 3.68407 -0.650167 0
M  V30 4161 H 382.654 4.85048 -0.836024 0
M  V30 4162 N 384.306 0.507319 1.49211 0
M  V30 4163 C 385.238 -0.304532 2.27168 0
M  V30 4164 C 386.251 -0.924956 1.33972 0
M  V30 4165 O 387.44 -0.807227 1.59205 0
M  V30 4166 C 384.54 -1.44431 3.06583 0
M  V30 4167 C 383.713 -0.930026 4.27398 0
M  V30 4168 C 382.772 -1.94817 4.88807 0
M  V30 4169 O 381.798 -1.51418 5.4869 0
M  V30 4170 N 383 -3.279 4.79022 0
M  V30 4171 H 385.765 0.36395 2.97482 0
M  V30 4172 H 383.326 0.340249 1.58284 0
M  V30 4173 H 385.318 -2.12311 3.44537 0
M  V30 4174 H 383.888 -2.01684 2.38835 0
M  V30 4175 H 383.108 -0.0759244 3.94127 0
M  V30 4176 H 384.396 -0.564932 5.05654 0
M  V30 4177 H 383.794 -3.65843 4.3148 0
M  V30 4178 H 382.351 -3.91476 5.21142 0
M  V30 4179 N 385.784 -1.5574 0.241426 0
M  V30 4180 C 387.031 -1.9881 -0.384836 0
M  V30 4181 C 387.359 -1.12947 -1.58346 0
M  V30 4182 O 386.614 -0.178993 -1.9488 0
M  V30 4183 C 386.913 -3.47308 -0.843317 0
M  V30 4184 C 386.579 -4.50223 0.246946 0
M  V30 4185 C 385.241 -4.78088 0.546399 0
M  V30 4186 C 387.593 -5.11841 0.983282 0
M  V30 4187 C 384.921 -5.64846 1.58636 0
M  V30 4188 C 387.273 -5.99727 2.01272 0
M  V30 4189 C 385.937 -6.25927 2.31888 0
M  V30 4190 H 385.207 -0.727496 -0.140821 0
M  V30 4191 H 387.854 -1.8831 0.348106 0
M  V30 4192 H 386.159 -3.55112 -1.65537 0
M  V30 4193 H 387.856 -3.78017 -1.33806 0
M  V30 4194 H 384.446 -4.286 0.00340639 0
M  V30 4195 H 388.63 -4.90366 0.765182 0
M  V30 4196 H 383.886 -5.83403 1.82896 0
M  V30 4197 H 388.06 -6.46517 2.58823 0
M  V30 4198 H 385.687 -6.92949 3.12611 0
M  V30 4199 N 387.262 0.0317525 -1.57568 0
M  V30 4200 C 388.678 0.38735 -1.54828 0
M  V30 4201 C 388.878 1.7677 -0.967187 0
M  V30 4202 O 387.934 2.45581 -0.587063 0
M  V30 4203 C 389.247 0.291667 -2.99282 0
M  V30 4204 C 390.795 0.368946 -3.10818 0
M  V30 4205 C 391.27 0.302741 -4.56998 0
M  V30 4206 N 392.761 0.361617 -4.61786 0
M  V30 4207 C 393.496 0.333238 -5.72431 0
M  V30 4208 N 392.992 0.257308 -6.92322 0
M  V30 4209 N 394.785 0.382769 -5.60795 0
M  V30 4210 H 386.936 -0.871609 -1.93692 0
M  V30 4211 H 389.199 -0.331161 -0.888277 0
M  V30 4212 H 388.905 -0.656794 -3.45513 0
M  V30 4213 H 388.779 1.08638 -3.61217 0
M  V30 4214 H 391.166 1.30784 -2.64536 0
M  V30 4215 H 391.247 -0.455066 -2.5172 0
M  V30 4216 H 390.891 -0.632473 -5.03947 0
M  V30 4217 H 390.821 1.14482 -5.14005 0
M  V30 4218 H 393.312 0.422923 -3.75526 0
M  V30 4219 H 393.625 0.24068 -7.72425 0
M  V30 4220 H 391.97 0.223396 -6.94641 0
M  V30 4221 H 395.161 0.44006 -4.66027 0
M  V30 4222 H 395.334 0.357184 -6.47015 0
M  V30 4223 N 388.74 1.54641 0.303973 0
M  V30 4224 C 389.968 1.77768 1.05858 0
M  V30 4225 C 390.383 0.535722 1.8104 0
M  V30 4226 O 389.74 -0.494337 1.75677 0
M  V30 4227 C 389.791 2.9834 2.04146 0
M  V30 4228 O 389.512 4.17736 1.32015 0
M  V30 4229 C 391.013 3.33832 2.91669 0
M  V30 4230 H 388.233 0.592961 0.314067 0
M  V30 4231 H 390.777 2.01583 0.344149 0
M  V30 4232 H 388.932 2.76742 2.71096 0
M  V30 4233 H 389.346 4.85693 1.97998 0
M  V30 4234 H 390.82 4.21448 3.56491 0
M  V30 4235 H 391.297 2.51857 3.59812 0
M  V30 4236 H 391.903 3.57579 2.30254 0
M  V30 4237 N 390.218 -0.567019 1.47046 0
M  V30 4238 C 391.148 -1.68482 1.61667 0
M  V30 4239 C 392.129 -1.6358 0.466418 0
M  V30 4240 O 393.314 -1.81354 0.694574 0
M  V30 4241 C 390.444 -3.07124 1.62148 0
M  V30 4242 C 389.398 -3.26867 2.76301 0
M  V30 4243 C 388.724 -4.66196 2.61849 0
M  V30 4244 C 390.024 -3.13186 4.17986 0
M  V30 4245 H 391.718 -1.56502 2.5524 0
M  V30 4246 H 389.264 -0.751486 1.22836 0
M  V30 4247 H 391.217 -3.8516 1.70968 0
M  V30 4248 H 389.941 -3.2004 0.651287 0
M  V30 4249 H 388.6 -2.51237 2.66975 0
M  V30 4250 H 388.248 -4.75898 1.62879 0
M  V30 4251 H 387.948 -4.80356 3.38425 0
M  V30 4252 H 389.472 -5.46379 2.72584 0
M  V30 4253 H 390.886 -3.81049 4.2834 0
M  V30 4254 H 389.283 -3.3886 4.95272 0
M  V30 4255 H 390.353 -2.10057 4.3704 0
M  V30 4256 N 391.696 -1.35014 -0.812953 0
M  V30 4257 C 392.626 -1.30069 -1.93919 0
M  V30 4258 C 393.607 -0.176275 -1.69184 0
M  V30 4259 O 394.792 -0.370227 -1.90638 0
M  V30 4260 C 391.922 -1.06547 -3.30552 0
M  V30 4261 C 390.876 -2.15561 -3.69753 0
M  V30 4262 C 390.202 -1.77214 -5.04479 0
M  V30 4263 C 391.502 -3.57476 -3.808 0
M  V30 4264 H 393.196 -2.24303 -1.98314 0
M  V30 4265 H 390.742 -1.07977 -0.952736 0
M  V30 4266 H 392.695 -1.01729 -4.08937 0
M  V30 4267 H 391.419 -0.0875719 -3.26483 0
M  V30 4268 H 390.078 -2.19466 -2.9365 0
M  V30 4269 H 389.726 -0.780589 -4.96906 0
M  V30 4270 H 389.426 -2.50184 -5.31678 0
M  V30 4271 H 390.95 -1.7391 -5.8531 0
M  V30 4272 H 392.364 -3.55929 -4.4943 0
M  V30 4273 H 390.761 -4.29152 -4.19462 0
M  V30 4274 H 391.831 -3.94091 -2.82525 0
M  V30 4275 N 393.175 1.03435 -1.18907 0
M  V30 4276 C 394.422 1.76743 -0.988334 0
M  V30 4277 C 394.75 1.88447 0.481441 0
M  V30 4278 O 394.005 1.39383 1.37371 0
M  V30 4279 C 394.304 3.19792 -1.59586 0
M  V30 4280 C 393.97 3.28108 -3.09283 0
M  V30 4281 C 392.632 3.30084 -3.5014 0
M  V30 4282 C 394.984 3.27696 -4.05296 0
M  V30 4283 C 392.312 3.29299 -4.85571 0
M  V30 4284 C 394.664 3.28451 -5.4065 0
M  V30 4285 C 393.328 3.28723 -5.80946 0
M  V30 4286 H 392.598 0.64675 -0.361657 0
M  V30 4287 H 395.245 1.21442 -1.48068 0
M  V30 4288 H 393.55 3.78136 -1.02568 0
M  V30 4289 H 395.247 3.75171 -1.41589 0
M  V30 4290 H 391.837 3.27294 -2.76725 0
M  V30 4291 H 396.021 3.25354 -3.74778 0
M  V30 4292 H 391.277 3.2783 -5.16079 0
M  V30 4293 H 395.451 3.27082 -6.14809 0
M  V30 4294 H 393.078 3.27868 -6.85862 0
M  V30 4295 N 394.653 0.992116 1.22453 0
M  V30 4296 C 395.881 0.685944 1.95198 0
M  V30 4297 C 396.296 -0.749233 1.73297 0
M  V30 4298 O 395.653 -1.50549 1.03156 0
M  V30 4299 C 395.704 0.981395 3.47924 0
M  V30 4300 O 395.425 2.36018 3.6909 0
M  V30 4301 C 396.926 0.692815 4.37853 0
M  V30 4302 H 394.146 0.253821 0.621141 0
M  V30 4303 H 396.69 1.32668 1.55626 0
M  V30 4304 H 394.845 0.386481 3.85467 0
M  V30 4305 H 395.259 2.45884 4.63294 0
M  V30 4306 H 396.733 0.949818 5.43767 0
M  V30 4307 H 397.21 -0.373181 4.37612 0
M  V30 4308 H 397.816 1.26874 4.05935 0
M  V30 4309 N 396.131 -1.37776 0.765217 0
M  V30 4310 C 397.356 -2.04651 0.336537 0
M  V30 4311 C 397.781 -1.57337 -1.03086 0
M  V30 4312 O 397.139 -0.730621 -1.65927 0
M  V30 4313 C 397.187 -3.58577 0.381468 0
M  V30 4314 O 396.291 -4.07706 -0.62042 0
M  V30 4315 H 395.632 -0.64756 0.146838 0
M  V30 4316 H 398.162 -1.76221 1.03959 0
M  V30 4317 H 398.172 -4.07314 0.236448 0
M  V30 4318 H 396.847 -3.9237 1.37907 0
M  V30 4319 H 395.424 -3.70306 -0.439056 0
M  V30 4320 N 397.609 -0.515225 -1.4894 0
M  V30 4321 C 398.519 0.259774 -2.33157 0
M  V30 4322 C 399.535 0.953501 -1.45548 0
M  V30 4323 O 400.711 0.931735 -1.78552 0
M  V30 4324 C 397.776 1.30193 -3.21326 0
M  V30 4325 C 396.837 0.620129 -4.24797 0
M  V30 4326 C 396.07 1.61263 -5.08753 0
M  V30 4327 O 396.293 2.84389 -4.94448 0
M  V30 4328 O 395.227 1.16013 -5.90614 0
M  V30 4329 H 399.053 -0.429932 -3.00641 0
M  V30 4330 H 396.638 -0.276346 -1.46822 0
M  V30 4331 H 398.52 1.90455 -3.75905 0
M  V30 4332 H 397.195 1.97431 -2.56521 0
M  V30 4333 H 396.102 -0.0226019 -3.74093 0
M  V30 4334 H 397.435 -0.0100493 -4.92199 0
M  V30 4335 N 399.087 1.5561 -0.249682 0
M  V30 4336 C 400.335 1.98618 0.373548 0
M  V30 4337 C 400.656 1.13919 1.58264 0
M  V30 4338 O 399.926 0.222637 1.94631 0
M  V30 4339 H 398.506 0.733571 0.141006 0
M  V30 4340 H 401.168 1.91748 -0.349117 0
M  V30 4341 H 400.264 3.04584 0.680796 0
M  V30 4342 N 400.565 -0.0233959 1.57583 0
M  V30 4343 C 401.475 -1.03907 2.10334 0
M  V30 4344 C 402.491 -1.39257 1.04323 0
M  V30 4345 O 403.667 -1.48462 1.36091 0
M  V30 4346 C 400.732 -2.31938 2.57693 0
M  V30 4347 C 399.793 -2.03117 3.78209 0
M  V30 4348 C 399.026 -3.25043 4.233 0
M  V30 4349 O 399.249 -4.35916 3.67876 0
M  V30 4350 O 398.183 -3.10411 5.15683 0
M  V30 4351 H 402.009 -0.620748 2.97288 0
M  V30 4352 H 399.594 -0.240743 1.47448 0
M  V30 4353 H 401.476 -3.07196 2.88458 0
M  V30 4354 H 400.151 -2.73055 1.73847 0
M  V30 4355 H 399.058 -1.25408 3.52454 0
M  V30 4356 H 400.391 -1.66852 4.63056 0
M  V30 4357 N 402.043 -1.548 -0.295768 0
M  V30 4358 C 402.99 -1.86113 -1.36494 0
M  V30 4359 C 403.96 -0.7105 -1.50137 0
M  V30 4360 O 405.145 -0.959626 -1.64912 0
M  V30 4361 C 402.285 -2.11861 -2.72413 0
M  V30 4362 C 401.398 -3.39471 -2.67177 0
M  V30 4363 C 400.533 -3.55035 -3.95125 0
M  V30 4364 C 399.572 -4.76418 -3.84308 0
M  V30 4365 N 398.709 -4.8876 -5.04042 0
M  V30 4366 H 403.549 -2.77314 -1.09091 0
M  V30 4367 H 401.086 -1.37315 -0.52753 0
M  V30 4368 H 403.044 -2.24786 -3.51464 0
M  V30 4369 H 401.674 -1.2392 -2.98066 0
M  V30 4370 H 400.726 -3.35139 -1.79962 0
M  V30 4371 H 402.038 -4.28646 -2.55076 0
M  V30 4372 H 401.192 -3.67653 -4.82614 0
M  V30 4373 H 399.931 -2.64002 -4.10066 0
M  V30 4374 H 398.936 -4.63827 -2.95202 0
M  V30 4375 H 400.161 -5.68863 -3.70906 0
M  V30 4376 H 398.107 -4.00652 -5.19436 0
M  V30 4377 H 398.024 -5.71945 -4.94384 0
M  V30 4378 H 399.292 -5.0574 -5.93167 0
M  V30 4379 N 403.521 0.559213 -1.47345 0
M  V30 4380 C 404.431 1.69388 -1.62311 0
M  V30 4381 C 405.447 1.6648 -0.505993 0
M  V30 4382 O 406.623 1.85964 -0.773262 0
M  V30 4383 C 403.688 3.05894 -1.63185 0
M  V30 4384 C 402.749 3.19885 -2.86307 0
M  V30 4385 C 401.982 4.49879 -2.87131 0
M  V30 4386 O 402.205 5.35217 -1.97229 0
M  V30 4387 O 401.139 4.67618 -3.78968 0
M  V30 4388 H 404.965 1.59706 -2.58317 0
M  V30 4389 H 402.55 0.728989 -1.30407 0
M  V30 4390 H 404.432 3.87133 -1.66451 0
M  V30 4391 H 403.107 3.15964 -0.70345 0
M  V30 4392 H 402.014 2.38052 -2.88587 0
M  V30 4393 H 403.347 3.14718 -3.78435 0
M  V30 4394 N 404.999 1.35443 0.805782 0
M  V30 4395 C 405.946 1.28431 1.91766 0
M  V30 4396 C 406.916 0.156102 1.65365 0
M  V30 4397 O 408.101 0.339936 1.87747 0
M  V30 4398 C 405.241 1.06301 3.2832 0
M  V30 4399 C 404.354 2.2805 3.66902 0
M  V30 4400 C 403.489 1.99064 4.92491 0
M  V30 4401 C 402.528 3.16863 5.23703 0
M  V30 4402 N 401.665 2.87647 6.40471 0
M  V30 4403 H 406.505 2.23511 1.97096 0
M  V30 4404 H 404.042 1.11105 0.964054 0
M  V30 4405 H 406 0.915012 4.07042 0
M  V30 4406 H 404.63 0.148822 3.22457 0
M  V30 4407 H 403.682 2.53711 2.83434 0
M  V30 4408 H 404.994 3.1601 3.85927 0
M  V30 4409 H 404.148 1.81099 5.7904 0
M  V30 4410 H 402.887 1.0839 4.75503 0
M  V30 4411 H 401.892 3.35404 4.35642 0
M  V30 4412 H 403.117 4.08339 5.4262 0
M  V30 4413 H 401.063 1.99568 6.24907 0
M  V30 4414 H 400.98 3.69141 6.59751 0
M  V30 4415 H 402.248 2.73226 7.30047 0
M  V30 4416 N 406.477 -1.02803 1.19454 0
M  V30 4417 C 407.893 -1.28473 0.946937 0
M  V30 4418 C 408.093 -1.97881 -0.380202 0
M  V30 4419 O 407.149 -2.26719 -1.11151 0
M  V30 4420 C 408.462 -2.13099 2.12154 0
M  V30 4421 C 410.01 -2.26404 2.16126 0
M  V30 4422 C 410.485 -3.14402 3.33039 0
M  V30 4423 N 411.976 -3.21991 3.32981 0
M  V30 4424 C 412.711 -3.90272 4.20089 0
M  V30 4425 N 412.207 -4.60777 5.17355 0
M  V30 4426 N 414 -3.8668 4.07964 0
M  V30 4427 H 406.151 -0.561665 2.04839 0
M  V30 4428 H 408.414 -0.310438 0.89573 0
M  V30 4429 H 408.12 -1.69422 3.08203 0
M  V30 4430 H 407.994 -3.13813 2.09287 0
M  V30 4431 H 410.381 -2.69311 1.20647 0
M  V30 4432 H 410.462 -1.25237 2.23045 0
M  V30 4433 H 410.106 -2.72204 4.28798 0
M  V30 4434 H 410.036 -4.1563 3.23356 0
M  V30 4435 H 412.527 -2.71778 2.62574 0
M  V30 4436 H 412.84 -5.10513 5.80169 0
M  V30 4437 H 411.185 -4.5964 5.21302 0
M  V30 4438 H 414.376 -3.30739 3.31254 0
M  V30 4439 H 414.549 -4.39621 4.76064 0
M  V30 4440 N 407.956 -0.998596 -1.21925 0
M  V30 4441 C 408.889 -0.498517 -2.22688 0
M  V30 4442 C 409.867 0.444301 -1.56412 0
M  V30 4443 O 411.051 0.368518 -1.84863 0
M  V30 4444 C 408.178 0.276639 -3.37568 0
M  V30 4445 C 407.224 -0.61302 -4.22071 0
M  V30 4446 S 408.057 -2.07168 -4.93803 0
M  V30 4447 C 409.213 -1.30617 -6.12119 0
M  V30 4448 H 409.446 -1.35234 -2.64762 0
M  V30 4449 H 406.979 -0.806018 -1.31692 0
M  V30 4450 H 408.937 0.717817 -4.04175 0
M  V30 4451 H 407.598 1.10581 -2.93991 0
M  V30 4452 H 406.791 -0.0162909 -5.03997 0
M  V30 4453 H 406.393 -0.991202 -3.60626 0
M  V30 4454 H 408.685 -0.57675 -6.75041 0
M  V30 4455 H 409.628 -2.10091 -6.76215 0
M  V30 4456 H 410.036 -0.816957 -5.58557 0
M  V30 4457 N 409.434 1.37368 -0.772513 0
M  V30 4458 C 410.68 1.99969 -0.337681 0
M  V30 4459 C 411.013 1.61184 1.08321 0
M  V30 4460 O 410.288 0.858395 1.74533 0
M  V30 4461 C 410.571 3.56858 -0.482121 0
M  V30 4462 C 410.424 4.0555 -1.94549 0
M  V30 4463 C 411.743 4.39955 0.113143 0
M  V30 4464 H 408.862 0.726464 -0.124171 0
M  V30 4465 H 411.504 1.63034 -0.975699 0
M  V30 4466 H 409.654 3.88452 0.0610361 0
M  V30 4467 H 411.326 3.84518 -2.54841 0
M  V30 4468 H 409.569 3.57715 -2.45403 0
M  V30 4469 H 410.24 5.14587 -1.9976 0
M  V30 4470 H 412.716 4.14623 -0.35031 0
M  V30 4471 H 411.592 5.48897 -0.0180514 0
M  V30 4472 H 411.853 4.25403 1.20354 0
M  V30 4473 N 410.912 0.523116 1.48665 0
M  V30 4474 C 412.189 -0.0775449 1.95446 0
M  V30 4475 C 412.569 -1.5197 1.4652 0
M  V30 4476 O 411.917 -2.17876 0.688657 0
M  V30 4477 C 412.127 0.0326135 3.48985 0
M  V30 4478 C 413.475 -0.130141 4.24401 0
M  V30 4479 O 414.499 -0.0415142 3.56176 0
M  V30 4480 O 413.358 -0.31491 5.45592 0
M  V30 4481 H 410.452 -0.0831012 0.822814 0
M  V30 4482 H 412.998 0.587227 1.59216 0
M  V30 4483 H 411.77 1.03748 3.77296 0
M  V30 4484 H 411.393 -0.671317 3.91892 0
M  V30 4485 N 412.39 -1.55475 0.257931 0
M  V30 4486 C 413.338 -2.23244 -0.653076 0
M  V30 4487 C 414.332 -1.22366 -1.17144 0
M  V30 4488 O 415.538 -1.40347 -1.12706 0
M  V30 4489 H 411.913 -0.716247 -0.229117 0
M  V30 4490 H 413.884 -2.98343 -0.0584788 0
M  V30 4491 C 412.633 -2.95401 -1.83395 0
M  V30 4492 H 411.956 -3.72802 -1.44424 0
M  V30 4493 H 413.396 -3.46165 -2.44838 0
M  V30 4494 C 411.855 -1.99895 -2.71189 0
M  V30 4495 O 412.385 -1.53909 -3.71046 0
M  V30 4496 N 410.591 -1.6676 -2.3799 0
M  V30 4497 H 410.138 -2.04352 -1.56837 0
M  V30 4498 H 410.096 -1.03127 -2.97005 0
M  V30 4499 N 413.868 0.0150385 -1.57593 0
M  V30 4500 C 415.115 0.703001 -1.89906 0
M  V30 4501 C 415.443 1.74604 -0.856944 0
M  V30 4502 O 414.698 1.95197 0.140287 0
M  V30 4503 C 414.997 1.39686 -3.28972 0
M  V30 4504 C 414.663 0.488457 -4.48246 0
M  V30 4505 C 413.325 0.2383 -4.8061 0
M  V30 4506 C 415.677 -0.137881 -5.21018 0
M  V30 4507 C 413.005 -0.646738 -5.83125 0
M  V30 4508 C 415.357 -1.0107 -6.24474 0
M  V30 4509 C 414.021 -1.27019 -6.55303 0
M  V30 4510 H 413.291 0.257246 -0.694914 0
M  V30 4511 H 415.938 -0.037259 -1.91464 0
M  V30 4512 H 414.243 2.21079 -3.23468 0
M  V30 4513 H 415.94 1.93495 -3.51227 0
M  V30 4514 H 412.53 0.693593 -4.22951 0
M  V30 4515 H 416.714 0.0423953 -4.96282 0
M  V30 4516 H 411.97 -0.855937 -6.05379 0
M  V30 4517 H 416.144 -1.50247 -6.79999 0
M  V30 4518 H 413.771 -1.95769 -7.3456 0
M  V30 4519 N 415.346 1.54954 0.287554 0
M  V30 4520 C 416.762 1.46469 0.633964 0
M  V30 4521 C 416.962 0.666865 1.90145 0
M  V30 4522 O 416.018 0.179906 2.51858 0
M  V30 4523 C 417.331 2.90556 0.774454 0
M  V30 4524 C 418.879 3.00681 0.869462 0
M  V30 4525 C 419.354 4.45993 1.04184 0
M  V30 4526 N 420.845 4.4976 1.10772 0
M  V30 4527 C 421.58 5.59393 1.25964 0
M  V30 4528 N 421.076 6.78923 1.37968 0
M  V30 4529 N 422.869 5.47107 1.28959 0
M  V30 4530 H 415.02 2.05288 -0.545041 0
M  V30 4531 H 417.283 0.930305 -0.182308 0
M  V30 4532 H 416.989 3.51594 -0.086207 0
M  V30 4533 H 416.863 3.38743 1.6593 0
M  V30 4534 H 419.25 2.39749 1.7206 0
M  V30 4535 H 419.331 2.55769 -0.0396831 0
M  V30 4536 H 418.975 5.07524 0.195422 0
M  V30 4537 H 418.905 4.88548 1.96542 0
M  V30 4538 H 421.396 3.63651 1.02794 0
M  V30 4539 H 421.709 7.58231 1.49353 0
M  V30 4540 H 420.054 6.81763 1.34999 0
M  V30 4541 H 423.245 4.52668 1.19202 0
M  V30 4542 H 423.418 6.32595 1.40455 0
M  V30 4543 N 416.824 -0.551391 1.4764 0
M  V30 4544 C 418.235 -1.13349 1.48354 0
M  V30 4545 C 418.586 -1.94709 0.241432 0
M  V30 4546 O 417.711 -2.06306 -0.653205 0
M  V30 4547 C 418.306 -2.0623 2.68802 0
M  V30 4548 C 416.865 -2.597 2.72457 0
M  V30 4549 C 416.012 -1.36201 2.41546 0
M  V30 4550 H 418.963 -0.337698 1.55065 0
M  V30 4551 H 418.984 -2.90196 2.46103 0
M  V30 4552 H 418.496 -1.46987 3.59188 0
M  V30 4553 H 416.597 -3.22724 1.86225 0
M  V30 4554 H 416.71 -3.00296 3.73308 0
M  V30 4555 H 415.074 -1.67068 1.9225 0
M  V30 4556 H 415.857 -0.787425 3.34147 0
M  V30 4557 N 418.302 -1.35869 -0.798587 0
M  V30 4558 C 419.232 -1.32118 -1.92528 0
M  V30 4559 C 420.213 -0.194209 -1.68988 0
M  V30 4560 O 421.398 -0.390426 -1.90235 0
M  V30 4561 C 418.528 -1.10047 -3.29404 0
M  V30 4562 C 417.482 -2.19471 -3.67446 0
M  V30 4563 C 416.808 -1.82555 -5.02571 0
M  V30 4564 C 418.108 -3.61495 -3.76987 0
M  V30 4565 H 419.802 -2.26394 -1.95924 0
M  V30 4566 H 417.348 -1.08981 -0.94123 0
M  V30 4567 H 419.301 -1.06061 -4.07835 0
M  V30 4568 H 418.025 -0.122195 -3.26371 0
M  V30 4569 H 416.684 -2.22568 -2.91306 0
M  V30 4570 H 416.332 -0.833249 -4.9605 0
M  V30 4571 H 416.032 -2.5581 -5.28995 0
M  V30 4572 H 417.556 -1.80108 -5.83432 0
M  V30 4573 H 418.97 -3.60676 -4.4563 0
M  V30 4574 H 417.367 -4.33577 -4.14887 0
M  V30 4575 H 418.437 -3.97065 -2.78329 0
M  V30 4576 N 419.78 1.02168 -1.19998 0
M  V30 4577 C 420.712 2.10705 -0.901994 0
M  V30 4578 C 421.725 1.6244 0.108216 0
M  V30 4579 O 422.914 1.78082 -0.12214 0
M  V30 4580 C 420.014 3.37291 -0.329834 0
M  V30 4581 C 419.187 4.14714 -1.39035 0
M  V30 4582 C 418.246 5.19606 -0.830432 0
M  V30 4583 O 417.272 5.48809 -1.50989 0
M  V30 4584 N 418.474 5.79366 0.362696 0
M  V30 4585 H 421.239 2.36856 -1.83628 0
M  V30 4586 H 418.8 1.18518 -1.10296 0
M  V30 4587 H 420.792 4.04657 0.0587633 0
M  V30 4588 H 419.362 3.0843 0.508891 0
M  V30 4589 H 418.582 3.42392 -1.9535 0
M  V30 4590 H 419.87 4.63226 -2.10474 0
M  V30 4591 H 419.268 5.57968 0.932081 0
M  V30 4592 H 417.825 6.48106 0.69299 0
M  V30 4593 N 421.258 1.00505 1.21394 0
M  V30 4594 C 422.669 0.721082 1.72213 0
M  V30 4595 C 423.02 -0.761263 1.80829 0
M  V30 4596 O 422.145 -1.59464 1.46288 0
M  V30 4597 C 422.74 1.30228 3.12772 0
M  V30 4598 C 421.299 1.06743 3.60947 0
M  V30 4599 C 420.446 1.41507 2.38477 0
M  V30 4600 H 423.397 1.17594 1.06571 0
M  V30 4601 H 423.418 0.686955 3.74247 0
M  V30 4602 H 422.93 2.38115 3.06468 0
M  V30 4603 H 421.031 0.00572162 3.726 0
M  V30 4604 H 421.144 1.73936 4.46411 0
M  V30 4605 H 419.508 0.833852 2.40664 0
M  V30 4606 H 420.291 2.50424 2.34824 0
M  V30 4607 N 422.737 -1.36956 0.779787 0
M  V30 4608 C 423.667 -2.32761 0.185651 0
M  V30 4609 C 424.648 -1.56177 -0.673989 0
M  V30 4610 O 425.833 -1.84378 -0.609797 0
M  V30 4611 C 422.963 -3.40418 -0.687964 0
M  V30 4612 C 421.917 -4.27941 0.0710102 0
M  V30 4613 C 421.243 -5.26681 -0.922573 0
M  V30 4614 C 422.543 -5.07006 1.25467 0
M  V30 4615 H 424.237 -2.82698 0.986008 0
M  V30 4616 H 421.783 -1.3592 0.475592 0
M  V30 4617 H 423.736 -4.06423 -1.11348 0
M  V30 4618 H 422.46 -2.89025 -1.52093 0
M  V30 4619 H 421.119 -3.63478 0.47739 0
M  V30 4620 H 420.767 -4.71565 -1.7503 0
M  V30 4621 H 420.467 -5.86103 -0.419237 0
M  V30 4622 H 421.991 -5.9556 -1.34686 0
M  V30 4623 H 423.405 -5.66105 0.905401 0
M  V30 4624 H 421.802 -5.75793 1.69063 0
M  V30 4625 H 422.872 -4.3921 2.05481 0
M  V30 4626 N 424.215 -0.530993 -1.48385 0
M  V30 4627 C 425.148 0.278511 -2.26494 0
M  V30 4628 C 426.126 0.943905 -1.32398 0
M  V30 4629 O 427.31 0.968098 -1.61741 0
M  V30 4630 C 424.437 1.39453 -3.08659 0
M  V30 4631 C 423.483 0.840434 -4.18137 0
M  V30 4632 S 424.316 -0.292496 -5.34701 0
M  V30 4633 C 425.472 0.825973 -6.20426 0
M  V30 4634 H 425.705 -0.384365 -2.94805 0
M  V30 4635 H 423.238 -0.316799 -1.51115 0
M  V30 4636 H 425.196 2.03382 -3.56575 0
M  V30 4637 H 423.857 2.02913 -2.3976 0
M  V30 4638 H 423.05 1.67769 -4.75257 0
M  V30 4639 H 422.652 0.277819 -3.72967 0
M  V30 4640 H 424.944 1.72438 -6.55188 0
M  V30 4641 H 425.887 0.292728 -7.07495 0
M  V30 4642 H 426.295 1.10683 -5.53543 0
M  V30 4643 N 425.693 1.55336 -0.266172 0
M  V30 4644 C 426.641 2.23587 0.641228 0
M  V30 4645 C 427.635 1.22986 1.16494 0
M  V30 4646 O 428.841 1.40943 1.1196 0
M  V30 4647 H 425.216 0.717452 0.225315 0
M  V30 4648 H 427.187 2.9837 0.0426561 0
M  V30 4649 C 425.936 2.96369 1.81826 0
M  V30 4650 H 425.259 3.73563 1.42445 0
M  V30 4651 H 426.699 3.47459 2.42998 0
M  V30 4652 C 425.158 2.0133 2.70125 0
M  V30 4653 O 425.688 1.55875 3.70224 0
M  V30 4654 N 423.894 1.6802 2.37102 0
M  V30 4655 H 423.441 2.05181 1.55751 0
M  V30 4656 H 423.399 1.047 2.96454 0
M  V30 4657 N 427.171 -0.0066808 1.57599 0
M  V30 4658 C 428.587 -0.36267 1.55425 0
M  V30 4659 C 428.787 -1.75209 0.995187 0
M  V30 4660 O 427.843 -2.44616 0.626058 0
M  V30 4661 C 429.156 -0.244017 2.99708 0
M  V30 4662 C 430.704 -0.319451 3.11366 0
M  V30 4663 C 431.179 -0.229998 4.57422 0
M  V30 4664 N 432.67 -0.288105 4.62303 0
M  V30 4665 C 433.405 -0.242127 5.72889 0
M  V30 4666 N 432.901 -0.147133 6.92644 0
M  V30 4667 N 434.694 -0.293502 5.61333 0
M  V30 4668 H 426.845 0.902314 1.92281 0
M  V30 4669 H 429.108 0.34525 0.882896 0
M  V30 4670 H 428.814 0.711678 3.44424 0
M  V30 4671 H 428.688 -1.02877 3.629 0
M  V30 4672 H 431.075 -1.26559 2.66584 0
M  V30 4673 H 431.156 0.495055 2.50964 0
M  V30 4674 H 430.8 0.712566 5.02877 0
M  V30 4675 H 430.73 -1.0629 5.15761 0
M  V30 4676 H 433.221 -0.363126 3.76151 0
M  V30 4677 H 433.534 -0.117763 7.7271 0
M  V30 4678 H 431.879 -0.112857 6.94908 0
M  V30 4679 H 435.07 -0.365864 4.66668 0
M  V30 4680 H 435.243 -0.254204 6.47501 0
M  V30 4681 N 428.649 -1.55105 -0.279332 0
M  V30 4682 C 429.877 -1.7943 -1.03017 0
M  V30 4683 C 430.292 -0.564456 -1.80165 0
M  V30 4684 O 429.649 0.466326 -1.76442 0
M  V30 4685 C 429.7 -3.0155 -1.99374 0
M  V30 4686 O 429.421 -4.19784 -1.25352 0
M  V30 4687 C 430.922 -3.3843 -2.86321 0
M  V30 4688 H 428.142 -0.597882 -0.304594 0
M  V30 4689 H 430.686 -2.02105 -0.312035 0
M  V30 4690 H 428.841 -2.81019 -2.66659 0
M  V30 4691 H 429.255 -4.88781 -1.90246 0
M  V30 4692 H 430.729 -4.27066 -3.49741 0
M  V30 4693 H 431.206 -2.57549 -3.5576 0
M  V30 4694 H 431.812 -3.61197 -2.24536 0
M  V30 4695 N 430.127 0.543554 -1.4793 0
M  V30 4696 C 431.373 1.30201 -1.55485 0
M  V30 4697 C 431.706 1.92925 -0.222201 0
M  V30 4698 O 430.981 1.78586 0.77053 0
M  V30 4699 C 431.264 2.40174 -2.68307 0
M  V30 4700 C 431.117 1.8223 -4.11233 0
M  V30 4701 C 432.436 3.42024 -2.76961 0
M  V30 4702 H 429.555 0.472036 -0.565996 0
M  V30 4703 H 432.197 0.606914 -1.80046 0
M  V30 4704 H 430.347 2.99463 -2.47495 0
M  V30 4705 H 432.019 1.27096 -4.43446 0
M  V30 4706 H 430.262 1.12832 -4.18869 0
M  V30 4707 H 430.933 2.61793 -4.85972 0
M  V30 4708 H 433.409 2.92672 -2.95774 0
M  V30 4709 H 432.285 4.16383 -3.57654 0
M  V30 4710 H 432.546 4.0173 -1.84568 0
M  V30 4711 N 431.605 1.3629 0.791371 0
M  V30 4712 C 433.021 1.16661 1.08914 0
M  V30 4713 C 433.221 -0.0106266 2.01497 0
M  V30 4714 O 432.277 -0.676596 2.43266 0
M  V30 4715 C 433.59 2.47656 1.70549 0
M  V30 4716 C 435.138 2.54002 1.82899 0
M  V30 4717 C 435.613 3.85078 2.47949 0
M  V30 4718 N 437.104 3.86413 2.5542 0
M  V30 4719 C 437.839 4.84572 3.06557 0
M  V30 4720 N 437.335 5.93124 3.58016 0
M  V30 4721 N 439.128 4.71994 3.05251 0
M  V30 4722 H 431.279 2.11668 0.176238 0
M  V30 4723 H 433.542 0.937486 0.140796 0
M  V30 4724 H 433.248 3.34059 1.09989 0
M  V30 4725 H 433.122 2.63319 2.70079 0
M  V30 4726 H 435.509 1.68018 2.42598 0
M  V30 4727 H 435.59 2.42239 0.821808 0
M  V30 4728 H 435.234 4.71467 1.88895 0
M  V30 4729 H 435.164 3.94135 3.49235 0
M  V30 4730 H 437.655 3.07988 2.18979 0
M  V30 4731 H 437.968 6.63999 3.95381 0
M  V30 4732 H 436.313 5.96796 3.56173 0
M  V30 4733 H 439.504 3.86321 2.64336 0
M  V30 4734 H 439.677 5.48653 3.44796 0
M  V30 4735 N 433.083 -1.0153 1.20538 0
M  V30 4736 C 434.308 -1.79283 1.04271 0
M  V30 4737 C 434.733 -1.8372 -0.403544 0
M  V30 4738 O 434.091 -1.27321 -1.2907 0
M  V30 4739 C 434.139 -3.21535 1.63241 0
M  V30 4740 O 433.243 -4.03099 0.870908 0
M  V30 4741 H 432.584 -0.55293 0.367647 0
M  V30 4742 H 435.114 -1.27696 1.59859 0
M  V30 4743 H 435.124 -3.72243 1.6703 0
M  V30 4744 H 433.799 -3.1762 2.68497 0
M  V30 4745 H 432.376 -3.61693 0.907323 0
M  V30 4746 N 434.561 -1.01147 -1.20859 0
M  V30 4747 C 435.786 -0.716698 -1.94623 0
M  V30 4748 C 436.211 0.715415 -1.73964 0
M  V30 4749 O 435.569 1.49157 -1.03062 0
M  V30 4750 C 435.617 -1.0513 -3.44935 0
M  V30 4751 O 434.721 -0.160131 -4.12089 0
M  V30 4752 H 434.062 -0.266404 -0.608214 0
M  V30 4753 H 436.592 -1.35346 -1.53436 0
M  V30 4754 H 436.602 -1.00086 -3.95533 0
M  V30 4755 H 435.277 -2.09475 -3.59295 0
M  V30 4756 H 433.854 -0.267657 -3.71938 0
M  V30 4757 N 436.039 1.36541 -0.78704 0
M  V30 4758 C 437.286 1.99304 -0.358341 0
M  V30 4759 C 437.614 1.62467 1.06933 0
M  V30 4760 O 436.869 0.870019 1.75297 0
M  V30 4761 C 437.168 3.54343 -0.466485 0
M  V30 4762 C 436.834 4.10993 -1.85461 0
M  V30 4763 C 435.496 4.26177 -2.23443 0
M  V30 4764 C 437.848 4.41895 -2.76366 0
M  V30 4765 C 435.176 4.69573 -3.51736 0
M  V30 4766 C 437.528 4.86722 -4.04084 0
M  V30 4767 C 436.192 5.00112 -4.42091 0
M  V30 4768 H 435.462 0.729306 -0.131126 0
M  V30 4769 H 438.109 1.63068 -1.00404 0
M  V30 4770 H 436.414 3.90918 0.262719 0
M  V30 4771 H 438.111 4.00833 -0.115854 0
M  V30 4772 H 434.701 3.99612 -1.54946 0
M  V30 4773 H 438.885 4.29735 -2.48277 0
M  V30 4774 H 434.141 4.78127 -3.81057 0
M  V30 4775 H 438.315 5.09598 -4.7464 0
M  V30 4776 H 435.942 5.33498 -5.41557 0
M  V30 4777 N 437.518 0.538854 1.48102 0
M  V30 4778 C 438.934 0.19732 1.58376 0
M  V30 4779 C 439.134 -1.29971 1.5398 0
M  V30 4780 O 438.19 -2.07861 1.43352 0
M  V30 4781 C 439.503 0.807716 2.89649 0
M  V30 4782 C 441.051 0.77726 3.03196 0
M  V30 4783 C 441.526 1.36639 4.37143 0
M  V30 4784 N 443.017 1.32875 4.43732 0
M  V30 4785 C 443.752 1.7544 5.45901 0
M  V30 4786 N 443.248 2.25776 6.54979 0
M  V30 4787 N 445.041 1.66623 5.36836 0
M  V30 4788 H 437.192 1.5117 1.49202 0
M  V30 4789 H 439.455 0.629327 0.708979 0
M  V30 4790 H 439.161 1.85909 2.98548 0
M  V30 4791 H 439.035 0.289975 3.76084 0
M  V30 4792 H 441.422 -0.265374 2.93904 0
M  V30 4793 H 441.503 1.33256 2.18349 0
M  V30 4794 H 441.147 2.408 4.47189 0
M  V30 4795 H 441.077 0.786689 5.20691 0
M  V30 4796 H 443.568 0.96037 3.65493 0
M  V30 4797 H 443.881 2.56226 7.29087 0
M  V30 4798 H 442.226 2.29775 6.55918 0
M  V30 4799 H 445.417 1.27089 4.50517 0
M  V30 4800 H 445.59 2.00115 6.16326 0
M  V30 4801 N 438.996 -1.55193 0.274407 0
M  V30 4802 C 439.946 -2.19184 -0.627882 0
M  V30 4803 C 440.93 -1.15625 -1.11892 0
M  V30 4804 O 442.122 -1.41441 -1.06411 0
M  V30 4805 C 439.251 -2.91591 -1.81189 0
M  V30 4806 C 438.337 -4.02438 -1.33807 0
M  V30 4807 N 438.728 -5.0246 -0.580349 0
M  V30 4808 C 437.026 -4.15496 -1.62109 0
M  V30 4809 C 437.727 -5.80756 -0.331344 0
M  V30 4810 N 436.703 -5.36038 -0.903556 0
M  V30 4811 H 440.505 -2.93871 -0.0411216 0
M  V30 4812 H 438.019 -1.62213 0.0779348 0
M  V30 4813 H 440.016 -3.35883 -2.46957 0
M  V30 4814 H 438.676 -2.18414 -2.40261 0
M  V30 4815 H 439.687 -5.17399 -0.227762 0
M  V30 4816 H 436.364 -3.53509 -2.22121 0
M  V30 4817 H 437.754 -6.71335 0.275454 0
M  V30 4818 N 440.474 -0.00167713 -1.576 0
M  V30 4819 C 441.751 0.719951 -1.81868 0
M  V30 4820 C 442.131 1.91895 -0.879747 0
M  V30 4821 O 441.479 2.28389 0.0711423 0
M  V30 4822 C 441.689 1.12409 -3.30402 0
M  V30 4823 C 443.037 1.52724 -3.96182 0
M  V30 4824 O 444.061 1.21784 -3.34734 0
M  V30 4825 O 442.92 2.10265 -5.04431 0
M  V30 4826 H 440.014 0.350707 -0.748955 0
M  V30 4827 H 442.56 -0.0272597 -1.69678 0
M  V30 4828 H 441.332 0.269532 -3.90371 0
M  V30 4829 H 440.955 1.93035 -3.47596 0
M  V30 4830 N 441.952 1.55251 0.271103 0
M  V30 4831 C 443.182 1.79713 1.01916 0
M  V30 4832 C 443.59 0.571613 1.80359 0
M  V30 4833 O 442.933 -0.468853 1.77616 0
M  V30 4834 C 442.995 2.97138 2.02359 0
M  V30 4835 C 442.659 4.34104 1.42837 0
M  V30 4836 C 443.656 5.13019 0.843071 0
M  V30 4837 C 441.341 4.80765 1.455 0
M  V30 4838 C 443.335 6.36729 0.292333 0
M  V30 4839 C 441.022 6.0443 0.900402 0
M  V30 4840 C 442.02 6.8225 0.32007 0
M  V30 4841 O 441.708 8.03582 -0.226031 0
M  V30 4842 H 441.44 0.602431 0.306681 0
M  V30 4843 H 443.994 2.03097 0.306701 0
M  V30 4844 H 442.224 2.6945 2.77369 0
M  V30 4845 H 443.913 3.08907 2.63309 0
M  V30 4846 H 444.679 4.781 0.815178 0
M  V30 4847 H 440.558 4.20202 1.89609 0
M  V30 4848 H 444.102 6.97414 -0.161274 0
M  V30 4849 H 439.999 6.3883 0.925541 0
M  V30 4850 H 440.767 8.18418 -0.115572 0
M  V30 4851 N 443.43 -0.535701 1.48216 0
M  V30 4852 C 444.676 -1.29375 1.56173 0
M  V30 4853 C 445.009 -1.92804 0.232429 0
M  V30 4854 O 444.284 -1.78992 -0.761048 0
M  V30 4855 C 444.567 -2.38747 2.69577 0
M  V30 4856 C 444.42 -1.80046 4.12193 0
M  V30 4857 C 445.739 -3.40551 2.78771 0
M  V30 4858 H 442.858 -0.469027 0.568491 0
M  V30 4859 H 445.5 -0.597358 1.80365 0
M  V30 4860 H 443.65 -2.98147 2.4908 0
M  V30 4861 H 445.322 -1.24742 4.44114 0
M  V30 4862 H 443.565 -1.10609 4.19462 0
M  V30 4863 H 444.236 -2.59212 4.87353 0
M  V30 4864 H 446.712 -2.91099 2.97322 0
M  V30 4865 H 445.588 -4.1448 3.59857 0
M  V30 4866 H 445.849 -4.00746 1.86696 0
M  V30 4867 N 444.908 -1.36708 -0.784132 0
M  V30 4868 C 445.838 -1.34153 -1.91116 0
M  V30 4869 C 446.819 -0.212121 -1.68772 0
M  V30 4870 O 448.004 -0.410581 -1.8981 0
M  V30 4871 C 445.134 -1.13535 -3.28218 0
M  V30 4872 C 444.088 -2.23356 -3.65097 0
M  V30 4873 C 443.414 -1.87875 -5.00607 0
M  V30 4874 C 444.714 -3.65473 -3.73131 0
M  V30 4875 H 446.408 -2.28459 -1.93512 0
M  V30 4876 H 443.954 -1.09973 -0.929618 0
M  V30 4877 H 445.907 -1.10381 -4.06687 0
M  V30 4878 H 444.631 -0.156804 -3.26223 0
M  V30 4879 H 443.29 -2.25645 -2.88929 0
M  V30 4880 H 442.938 -0.885814 -4.95139 0
M  V30 4881 H 442.638 -2.61406 -5.26252 0
M  V30 4882 H 444.162 -1.86286 -5.81489 0
M  V30 4883 H 445.576 -3.65382 -4.41779 0
M  V30 4884 H 443.973 -4.37953 -4.10265 0
M  V30 4885 H 445.043 -3.99995 -2.74102 0
M  V30 4886 N 446.386 1.0089 -1.21074 0
M  V30 4887 C 447.334 2.11707 -0.963476 0
M  V30 4888 C 448.328 1.69172 0.0879032 0
M  V30 4889 O 449.534 1.79889 -0.0631415 0
M  V30 4890 H 445.909 0.692026 -0.294287 0
M  V30 4891 H 447.88 2.29743 -1.90422 0
M  V30 4892 C 446.629 3.43473 -0.540509 0
M  V30 4893 H 445.952 3.76634 -1.34114 0
M  V30 4894 H 447.392 4.22044 -0.406777 0
M  V30 4895 C 445.851 3.2849 0.748079 0
M  V30 4896 O 446.381 3.58883 1.8046 0
M  V30 4897 N 444.587 2.81715 0.713081 0
M  V30 4898 H 444.134 2.5718 -0.146973 0
M  V30 4899 H 444.092 2.72071 1.57558 0
M  V30 4900 N 447.864 1.01787 1.20321 0
M  V30 4901 C 449.11 0.708985 1.90003 0
M  V30 4902 C 449.443 -0.759572 1.78729 0
M  V30 4903 O 448.718 -1.55198 1.17234 0
M  V30 4904 C 449.001 1.1469 3.41348 0
M  V30 4905 C 448.854 2.67586 3.61549 0
M  V30 4906 C 450.173 0.71915 4.34185 0
M  V30 4907 H 447.292 0.259034 0.689978 0
M  V30 4908 H 449.934 1.26584 1.41692 0
M  V30 4909 H 448.084 0.673128 3.82624 0
M  V30 4910 H 449.756 3.22826 3.29517 0
M  V30 4911 H 447.999 3.085 3.04976 0
M  V30 4912 H 448.67 2.93281 4.67643 0
M  V30 4913 H 451.146 1.12647 4.00562 0
M  V30 4914 H 450.022 1.05358 5.38694 0
M  V30 4915 H 450.283 -0.379111 4.40472 0
M  V30 4916 N 449.342 -1.36122 0.79427 0
M  V30 4917 C 450.274 -2.28683 0.153903 0
M  V30 4918 C 451.287 -1.49707 -0.639669 0
M  V30 4919 O 452.476 -1.7209 -0.474054 0
M  V30 4920 C 449.576 -3.29202 -0.804921 0
M  V30 4921 C 448.749 -4.37358 -0.060366 0
M  V30 4922 C 447.808 -5.17811 -0.935849 0
M  V30 4923 O 446.834 -5.67853 -0.391309 0
M  V30 4924 N 448.036 -5.34721 -2.25951 0
M  V30 4925 H 450.801 -2.84278 0.949008 0
M  V30 4926 H 448.362 -1.4834 0.648611 0
M  V30 4927 H 450.354 -3.79914 -1.39455 0
M  V30 4928 H 448.924 -2.74212 -1.50088 0
M  V30 4929 H 448.144 -3.87746 0.710382 0
M  V30 4930 H 449.432 -5.06777 0.45324 0
M  V30 4931 H 448.83 -4.95687 -2.72601 0
M  V30 4932 H 447.387 -5.88657 -2.79867 0
M  V30 4933 N 450.82 -0.546701 -1.47814 0
M  V30 4934 C 451.783 0.196287 -2.28358 0
M  V30 4935 C 452.783 0.852437 -1.36346 0
M  V30 4936 O 453.973 0.709913 -1.59078 0
M  V30 4937 C 451.105 1.28579 -3.15722 0
M  V30 4938 H 452.298 -0.511086 -2.95513 0
M  V30 4939 H 449.851 -0.303248 -1.5333 0
M  V30 4940 H 450.586 2.0259 -2.53235 0
M  V30 4941 H 450.371 0.820229 -3.83425 0
M  V30 4942 H 451.861 1.80793 -3.76435 0
M  V30 4943 N 452.299 1.55045 -0.282633 0
M  V30 4944 C 453.246 2.22822 0.601566 0
M  V30 4945 C 454.216 1.20431 1.14392 0
M  V30 4946 O 455.401 1.48996 1.19184 0
M  V30 4947 C 452.541 2.95873 1.77632 0
M  V30 4948 C 451.654 4.12999 1.26711 0
M  V30 4949 C 450.789 4.73676 2.40426 0
M  V30 4950 C 449.828 5.82981 1.86545 0
M  V30 4951 N 448.965 6.3769 2.93762 0
M  V30 4952 H 453.805 2.97995 0.0169528 0
M  V30 4953 H 451.342 1.471 -0.00339964 0
M  V30 4954 H 453.3 3.36447 2.46697 0
M  V30 4955 H 451.93 2.2311 2.33285 0
M  V30 4956 H 450.982 3.77494 0.469314 0
M  V30 4957 H 452.294 4.91803 0.832518 0
M  V30 4958 H 451.448 5.17008 3.17471 0
M  V30 4959 H 450.187 3.94164 2.87203 0
M  V30 4960 H 449.192 5.39092 1.07983 0
M  V30 4961 H 450.417 6.64366 1.40694 0
M  V30 4962 H 448.363 5.61069 3.39908 0
M  V30 4963 H 448.28 7.11788 2.54744 0
M  V30 4964 H 449.548 6.8568 3.7076 0
M  V30 4965 N 453.777 0.010035 1.57597 0
M  V30 4966 C 455.188 -0.531426 1.78977 0
M  V30 4967 C 455.539 -1.73375 0.918454 0
M  V30 4968 O 454.664 -2.16047 0.123635 0
M  V30 4969 C 455.259 -0.97086 3.24592 0
M  V30 4970 C 453.818 -1.45756 3.47033 0
M  V30 4971 C 452.965 -0.413384 2.74201 0
M  V30 4972 H 455.916 0.236166 1.56933 0
M  V30 4973 H 455.937 -1.83633 3.33255 0
M  V30 4974 H 455.449 -0.0955893 3.87982 0
M  V30 4975 H 453.55 -2.35339 2.88871 0
M  V30 4976 H 453.663 -1.4781 4.55729 0
M  V30 4977 H 452.027 -0.877266 2.39115 0
M  V30 4978 H 452.81 0.453092 3.40297 0
M  V30 4979 N 455.255 -1.55392 -0.262866 0
M  V30 4980 C 456.202 -1.88966 -1.32516 0
M  V30 4981 C 457.172 -0.742187 -1.48596 0
M  V30 4982 O 458.357 -0.99439 -1.62839 0
M  V30 4983 C 455.497 -2.17592 -2.67858 0
M  V30 4984 C 454.61 -3.45061 -2.59917 0
M  V30 4985 C 453.745 -3.63336 -3.87505 0
M  V30 4986 C 452.784 -4.84462 -3.74116 0
M  V30 4987 N 451.921 -4.99342 -4.93561 0
M  V30 4988 H 456.761 -2.79566 -1.03184 0
M  V30 4989 H 454.298 -1.38404 -0.498285 0
M  V30 4990 H 456.256 -2.3219 -3.46617 0
M  V30 4991 H 454.886 -1.30215 -2.95371 0
M  V30 4992 H 453.938 -3.38881 -1.72812 0
M  V30 4993 H 455.25 -4.3396 -2.45926 0
M  V30 4994 H 454.404 -3.77807 -4.74707 0
M  V30 4995 H 453.143 -2.72641 -4.04374 0
M  V30 4996 H 452.148 -4.69985 -2.85297 0
M  V30 4997 H 453.373 -5.76603 -3.58757 0
M  V30 4998 H 451.319 -4.1158 -5.10821 0
M  V30 4999 H 451.236 -5.82303 -4.82141 0
M  V30 5000 H 452.504 -5.18208 -5.82306 0
M  V30 5001 N 456.733 0.527833 -1.48498 0
M  V30 5002 C 458.144 1.10975 -1.50138 0
M  V30 5003 C 458.495 1.943 -0.272378 0
M  V30 5004 O 457.62 2.07319 0.620301 0
M  V30 5005 C 458.215 2.01927 -2.72049 0
M  V30 5006 C 456.774 2.55332 -2.76554 0
M  V30 5007 C 455.921 1.32341 -2.43683 0
M  V30 5008 H 458.872 0.312986 -1.55583 0
M  V30 5009 H 458.893 2.86244 -2.50689 0
M  V30 5010 H 458.405 1.41254 -3.61481 0
M  V30 5011 H 456.506 3.19721 -1.91336 0
M  V30 5012 H 456.619 2.94319 -3.78038 0
M  V30 5013 H 454.983 1.63989 -1.94884 0
M  V30 5014 H 455.766 0.734165 -3.35358 0
M  V30 5015 N 458.211 1.37122 0.776871 0
M  V30 5016 C 459.174 1.32301 1.8716 0
M  V30 5017 C 460.174 0.228099 1.59174 0
M  V30 5018 O 461.364 0.483642 1.67352 0
M  V30 5019 C 458.496 1.054 3.24197 0
M  V30 5020 H 459.689 2.29673 1.92848 0
M  V30 5021 H 457.242 1.22077 0.97606 0
M  V30 5022 H 457.977 0.0853872 3.24188 0
M  V30 5023 H 457.762 1.84648 3.45901 0
M  V30 5024 H 459.252 1.04664 4.04271 0
M  V30 5025 N 459.689 -1.00246 1.21608 0
M  V30 5026 C 460.917 -1.77631 1.06089 0
M  V30 5027 C 461.332 -1.84746 -0.38916 0
M  V30 5028 O 460.689 -1.31068 -1.26994 0
M  V30 5029 C 460.74 -3.21415 1.65453 0
M  V30 5030 O 460.461 -3.14703 3.04785 0
M  V30 5031 C 461.962 -4.15289 1.55079 0
M  V30 5032 H 459.182 -0.558162 0.37242 0
M  V30 5033 H 461.726 -1.26093 1.60999 0
M  V30 5034 H 459.881 -3.70053 1.14629 0
M  V30 5035 H 460.295 -4.05056 3.33212 0
M  V30 5036 H 461.769 -5.13965 2.01355 0
M  V30 5037 H 462.246 -4.36279 0.505665 0
M  V30 5038 H 462.852 -3.72543 2.05163 0
M  V30 5039 N 461.167 -1.02423 -1.1978 0
M  V30 5040 C 462.392 -0.7373 -1.93852 0
M  V30 5041 C 462.817 0.696923 -1.74713 0
M  V30 5042 O 462.175 1.48056 -1.04638 0
M  V30 5043 C 462.223 -1.08783 -3.438 0
M  V30 5044 O 461.327 -0.20383 -4.11896 0
M  V30 5045 H 460.668 -0.27284 -0.605355 0
M  V30 5046 H 463.198 -1.36966 -1.51992 0
M  V30 5047 H 463.208 -1.04276 -3.9445 0
M  V30 5048 H 461.883 -2.13274 -3.57053 0
M  V30 5049 H 460.46 -0.307091 -3.71633 0
M  V30 5050 N 462.645 1.35699 -0.801477 0
M  V30 5051 C 463.577 2.28598 -0.166028 0
M  V30 5052 C 464.59 1.50044 0.631721 0
M  V30 5053 O 465.779 1.72339 0.464921 0
M  V30 5054 C 462.879 3.29625 0.787451 0
M  V30 5055 C 462.052 4.37384 0.037171 0
M  V30 5056 C 461.111 5.183 0.908375 0
M  V30 5057 O 460.137 5.68053 0.361189 0
M  V30 5058 N 461.339 5.35912 2.23112 0
M  V30 5059 H 464.104 2.83771 -0.964071 0
M  V30 5060 H 461.665 1.47994 -0.656469 0
M  V30 5061 H 463.657 3.80648 1.37439 0
M  V30 5062 H 462.227 2.75004 1.48632 0
M  V30 5063 H 461.447 3.87364 -0.730935 0
M  V30 5064 H 462.735 5.0653 -0.480109 0
M  V30 5065 H 462.133 4.97125 2.69968 0
M  V30 5066 H 460.69 5.90133 2.76741 0
M  V30 5067 N 464.123 0.554532 1.47522 0
M  V30 5068 C 465.086 -0.184174 2.28459 0
M  V30 5069 C 466.086 -0.845195 1.36796 0
M  V30 5070 O 467.276 -0.701467 1.59452 0
M  V30 5071 C 464.408 -1.26903 3.16399 0
M  V30 5072 H 465.601 0.526751 2.95238 0
M  V30 5073 H 463.154 0.311375 1.53167 0
M  V30 5074 H 463.889 -2.01244 2.54306 0
M  V30 5075 H 463.674 -0.799883 3.83854 0
M  V30 5076 H 465.164 -1.78794 3.77389 0
M  V30 5077 N 465.601 -1.54893 0.290851 0
M  V30 5078 C 466.829 -2.04343 -0.324288 0
M  V30 5079 C 467.244 -1.16859 -1.48289 0
M  V30 5080 O 466.601 -0.192018 -1.81487 0
M  V30 5081 C 466.652 -3.52756 -0.79026 0
M  V30 5082 O 466.373 -4.36913 0.322213 0
M  V30 5083 C 467.874 -4.18161 -1.4716 0
M  V30 5084 H 465.094 -0.667135 -0.0719173 0
M  V30 5085 H 467.638 -1.99981 0.427529 0
M  V30 5086 H 465.793 -3.57511 -1.49213 0
M  V30 5087 H 466.207 -5.24486 -0.0387372 0
M  V30 5088 H 467.681 -5.23562 -1.7489 0
M  V30 5089 H 468.158 -3.67282 -2.40834 0
M  V30 5090 H 468.764 -4.17454 -0.813178 0
M  V30 5091 N 467.08 -0.0183926 -1.57589 0
M  V30 5092 C 468.491 0.521927 -1.79256 0
M  V30 5093 C 468.842 1.72885 -0.927636 0
M  V30 5094 O 467.967 2.15978 -0.135091 0
M  V30 5095 C 468.562 0.953632 -3.25102 0
M  V30 5096 C 467.121 1.43913 -3.47801 0
M  V30 5097 C 466.268 0.398837 -2.74417 0
M  V30 5098 H 469.219 -0.244485 -1.56805 0
M  V30 5099 H 469.24 1.81863 -3.34224 0
M  V30 5100 H 468.752 0.0750123 -3.88028 0
M  V30 5101 H 466.853 2.33804 -2.90115 0
M  V30 5102 H 466.966 1.45391 -4.56507 0
M  V30 5103 H 465.33 0.864572 -2.39577 0
M  V30 5104 H 466.113 -0.471132 -3.40052 0
M  V30 5105 O 468.597 1.61027 0.12348 0
M  V30 5106 H 469.288 1.78369 0.755254 0
M  V30 END ATOM
M  V30 BEGIN BOND
M  V30 END BOND
M  V30 END CTAB
M  END
$$$$
