drugbank_target|Q9Y275 Tumor necrosis factor ligand superfamily member 13B (DB03316; DB08879)
 OpenBabel12092119453D

  0  0  0     0  0            999 V3000
M  V30 BEGIN CTAB
M  V30 COUNTS 4417 4453 0 0 0
M  V30 BEGIN ATOM
M  V30 1 H -0.908 1.98254 -0.117106 0
M  V30 2 N 0 1.576 0 0
M  V30 3 C 0.933 2.03868 1.02534 0
M  V30 4 C 1.911 0.928543 1.3348 0
M  V30 5 O 3.095 1.19667 1.45644 0
M  V30 6 C 0.222 2.43627 2.35294 0
M  V30 7 C -0.732 3.65373 2.2001 0
M  V30 8 S 0.101 5.13292 1.52614 0
M  V30 9 C 1.257 5.56322 2.86805 0
M  V30 10 H 1.49 2.90518 0.631377 0
M  V30 11 H -0.977 1.52953 0.210867 0
M  V30 12 H 0.981 2.67203 3.11629 0
M  V30 13 H -0.358 1.57376 2.7183 0
M  V30 14 H -1.165 3.90944 3.18086 0
M  V30 15 H -1.563 3.418 1.51819 0
M  V30 16 H 0.729 5.58782 3.83104 0
M  V30 17 H 1.672 6.56266 2.65933 0
M  V30 18 H 2.08 4.83886 2.90714 0
M  V30 19 N 1.4781 -0.272755 1.55222 0
M  V30 20 C 2.7551 -1.02562 1.66555 0
M  V30 21 C 3.1351 -2.04282 0.532189 0
M  V30 22 O 2.4831 -2.23662 -0.467717 0
M  V30 23 C 2.6931 -1.6822 3.05782 0
M  V30 24 C 4.0411 -2.19373 3.63539 0
M  V30 25 O 5.0651 -1.78206 3.08417 0
M  V30 26 O 3.9241 -2.94883 4.60115 0
M  V30 27 H 1.0181 -0.475755 0.676451 0
M  V30 28 H 3.5641 -0.268593 1.67561 0
M  V30 29 H 2.3361 -0.945112 3.79715 0
M  V30 30 H 1.9591 -2.50609 3.08676 0
M  V30 31 N 2.9562 -1.48159 -0.537278 0
M  V30 32 C 4.2332 -1.46291 -1.29839 0
M  V30 33 C 4.6132 -0.170613 -2.10409 0
M  V30 34 O 3.9612 0.847746 -2.12192 0
M  V30 35 C 4.1712 -2.72055 -2.18603 0
M  V30 36 C 5.5192 -3.20087 -2.7898 0
M  V30 37 O 6.5432 -2.72921 -2.28894 0
M  V30 38 O 5.4022 -4.02138 -3.70064 0
M  V30 39 H 2.4962 -0.583906 -0.585647 0
M  V30 40 H 5.0422 -1.60384 -0.554534 0
M  V30 41 H 3.8142 -3.57628 -1.58801 0
M  V30 42 H 3.4372 -2.60646 -3.00249 0
M  V30 43 N 4.4343 0.785586 -1.36625 0
M  V30 44 C 5.6593 1.57963 -1.34397 0
M  V30 45 C 6.0843 1.87964 0.071526 0
M  V30 46 O 5.4423 1.48182 1.0446 0
M  V30 47 C 5.4903 2.87511 -2.17646 0
M  V30 48 O 4.5943 3.81281 -1.57158 0
M  V30 49 H 3.9353 0.479014 -0.459828 0
M  V30 50 H 6.4653 0.973411 -1.79961 0
M  V30 51 H 6.4753 3.36745 -2.30362 0
M  V30 52 H 5.1503 2.65002 -3.20541 0
M  V30 53 H 3.7273 3.39885 -1.53403 0
M  V30 54 N 5.9124 1.20967 1.01018 0
M  V30 55 C 7.1404 1.04956 1.78303 0
M  V30 56 C 7.5554 -0.400915 1.84494 0
M  V30 57 O 6.9124 -1.27826 1.30257 0
M  V30 58 C 6.9634 1.63403 3.22462 0
M  V30 59 O 6.6844 3.02775 3.16637 0
M  V30 60 C 8.1854 1.52432 4.16268 0
M  V30 61 H 5.4054 0.368858 0.560522 0
M  V30 62 H 7.9494 1.60193 1.27116 0
M  V30 63 H 6.1044 1.1227 3.70775 0
M  V30 64 H 6.5184 3.30626 4.07169 0
M  V30 65 H 7.9924 1.98078 5.15237 0
M  V30 66 H 8.4694 0.477875 4.36592 0
M  V30 67 H 9.0754 2.02787 3.73841 0
M  V30 68 N 7.3905 -1.2043 1.01659 0
M  V30 69 C 8.3005 -2.2689 0.596484 0
M  V30 70 C 9.3165 -1.70107 -0.36599 0
M  V30 71 O 10.4925 -2.00117 -0.226942 0
M  V30 72 C 7.5575 -3.4665 -0.0586659 0
M  V30 73 C 6.6185 -4.18662 0.949751 0
M  V30 74 C 5.8515 -5.32705 0.32577 0
M  V30 75 O 6.0745 -5.63656 -0.874509 0
M  V30 76 O 5.0085 -5.92803 1.04249 0
M  V30 77 H 8.8345 -2.65041 1.4828 0
M  V30 78 H 6.4195 -1.27048 0.786082 0
M  V30 79 H 8.3015 -4.19256 -0.424564 0
M  V30 80 H 6.9765 -3.10375 -0.91918 0
M  V30 81 H 5.8835 -3.48229 1.36702 0
M  V30 82 H 7.2165 -4.58878 1.78023 0
M  V30 83 N 8.8686 -0.792821 -1.36206 0
M  V30 84 C 10.2846 -0.474903 -1.52371 0
M  V30 85 C 10.4846 1.00622 -1.74578 0
M  V30 86 O 9.5406 1.79162 -1.77924 0
M  V30 87 C 10.8536 -1.3083 -2.70747 0
M  V30 88 C 12.4016 -1.30234 -2.84619 0
M  V30 89 C 12.8766 -2.11956 -4.06004 0
M  V30 90 N 14.3676 -2.09419 -4.13156 0
M  V30 91 C 15.1026 -2.69419 -5.06163 0
M  V30 92 N 14.5986 -3.3829 -6.04592 0
M  V30 93 N 16.3916 -2.59134 -4.98804 0
M  V30 94 H 8.5426 -1.75222 -1.20046 0
M  V30 95 H 10.8056 -0.745024 -0.586211 0
M  V30 96 H 10.5116 -2.35881 -2.6087 0
M  V30 97 H 10.3856 -0.95196 -3.6499 0
M  V30 98 H 12.7726 -0.259748 -2.93955 0
M  V30 99 H 12.8536 -1.69847 -1.91274 0
M  V30 100 H 12.4976 -3.16248 -3.97429 0
M  V30 101 H 12.4276 -1.69711 -4.98503 0
M  V30 102 H 14.9186 -1.59297 -3.42685 0
M  V30 103 H 15.2316 -3.81394 -6.7213 0
M  V30 104 H 13.5766 -3.42393 -6.04807 0
M  V30 105 H 16.7676 -2.04927 -4.20859 0
M  V30 106 H 16.9406 -3.06185 -5.711 0
M  V30 107 N 10.3467 1.47872 -0.545128 0
M  V30 108 C 11.2567 2.33633 0.212746 0
M  V30 109 C 12.2727 1.4744 0.923983 0
M  V30 110 O 13.4487 1.80393 0.895572 0
M  V30 111 C 10.5137 3.23884 1.23693 0
M  V30 112 C 9.5747 4.25961 0.534417 0
M  V30 113 C 8.8077 5.11899 1.5098 0
M  V30 114 O 9.0307 5.00077 2.7437 0
M  V30 115 O 7.9647 5.92831 1.0409 0
M  V30 116 H 11.7907 2.99714 -0.490416 0
M  V30 117 H 9.3757 1.46235 -0.305871 0
M  V30 118 H 11.2577 3.79666 1.82843 0
M  V30 119 H 9.9327 2.60446 1.92222 0
M  V30 120 H 8.8397 3.73972 -0.0979679 0
M  V30 121 H 10.1727 4.92079 -0.109213 0
M  V30 122 N 11.8248 0.280983 1.55075 0
M  V30 123 C 12.7568 -0.637268 2.20163 0
M  V30 124 C 13.7698 -1.11298 1.18813 0
M  V30 125 O 14.9588 -1.03388 1.4551 0
M  V30 126 C 12.0588 -1.88199 2.81841 0
M  V30 127 C 11.2318 -1.55211 4.08936 0
M  V30 128 C 10.2908 -2.64991 4.54606 0
M  V30 129 O 9.3168 -2.30929 5.2025 0
M  V30 130 N 10.5188 -3.95161 4.25238 0
M  V30 131 H 13.2838 -0.0801694 2.99593 0
M  V30 132 H 10.8448 0.102329 1.61576 0
M  V30 133 H 12.8368 -2.60948 3.09335 0
M  V30 134 H 11.4068 -2.34799 2.06369 0
M  V30 135 H 10.6268 -0.658185 3.88666 0
M  V30 136 H 11.9148 -1.30681 4.91732 0
M  V30 137 H 11.3128 -4.25653 3.72607 0
M  V30 138 H 9.8698 -4.6427 4.5749 0
M  V30 139 N 13.3029 -1.57598 0.00835791 0
M  V30 140 C 14.5279 -1.95617 -0.689103 0
M  V30 141 C 14.9529 -0.883753 -1.66046 0
M  V30 142 O 14.3109 0.157352 -1.80616 0
M  V30 143 C 14.3589 -3.32736 -1.38994 0
M  V30 144 O 13.4629 -3.27631 -2.50463 0
M  V30 145 H 12.8039 -0.638379 -0.182668 0
M  V30 146 H 15.3339 -2.045 0.064036 0
M  V30 147 H 15.3439 -3.68494 -1.75147 0
M  V30 148 H 14.0189 -4.1034 -0.677778 0
M  V30 149 H 12.5959 -3.03561 -2.16576 0
M  V30 150 N 14.781 0.264519 -1.55364 0
M  V30 151 C 16.197 0.61215 -1.47394 0
M  V30 152 C 16.397 1.89134 -0.695018 0
M  V30 153 O 15.453 2.51563 -0.217275 0
M  V30 154 C 16.766 0.731235 -2.91674 0
M  V30 155 C 18.314 0.82473 -3.01939 0
M  V30 156 C 18.789 0.975522 -4.4749 0
M  V30 157 N 20.28 1.04083 -4.51354 0
M  V30 158 C 21.015 1.17646 -5.61201 0
M  V30 159 N 20.511 1.27874 -6.80896 0
M  V30 160 N 22.304 1.20823 -5.48961 0
M  V30 161 H 14.455 -0.575456 -2.04456 0
M  V30 162 H 16.718 -0.196099 -0.927496 0
M  V30 163 H 16.424 -0.138392 -3.51428 0
M  V30 164 H 16.298 1.60883 -3.41169 0
M  V30 165 H 18.685 1.68482 -2.42276 0
M  V30 166 H 18.766 -0.0776479 -2.55682 0
M  V30 167 H 18.41 0.120058 -5.07758 0
M  V30 168 H 18.34 1.89268 -4.91412 0
M  V30 169 H 20.831 0.973846 -3.65136 0
M  V30 170 H 21.144 1.38081 -7.60364 0
M  V30 171 H 19.489 1.24863 -6.83692 0
M  V30 172 H 22.68 1.12469 -4.54388 0
M  V30 173 H 22.853 1.31049 -6.3461 0
M  V30 174 N 16.2591 1.48442 0.529413 0
M  V30 175 C 17.1891 1.65902 1.64313 0
M  V30 176 C 18.1701 0.507897 1.6234 0
M  V30 177 O 19.3551 0.740503 1.79528 0
M  V30 178 C 16.4851 1.69911 3.02898 0
M  V30 179 C 15.4391 2.8453 3.19729 0
M  V30 180 C 14.7651 2.73629 4.59381 0
M  V30 181 C 16.0651 4.25821 3.02447 0
M  V30 182 H 17.7591 2.5914 1.49955 0
M  V30 183 H 15.3051 1.24709 0.719982 0
M  V30 184 H 17.2581 1.80715 3.80684 0
M  V30 185 H 15.9821 0.732524 3.18279 0
M  V30 186 H 14.6411 2.73283 2.44361 0
M  V30 187 H 14.2891 1.74938 4.71599 0
M  V30 188 H 13.9891 3.50541 4.71588 0
M  V30 189 H 15.5131 2.86401 5.39265 0
M  V30 190 H 16.9271 4.37898 3.70024 0
M  V30 191 H 15.3241 5.03735 3.26146 0
M  V30 192 H 16.3941 4.42244 1.98867 0
M  V30 193 N 17.7372 -0.778329 1.37039 0
M  V30 194 C 18.9652 -1.56734 1.35063 0
M  V30 195 C 19.3802 -1.88686 -0.0655597 0
M  V30 196 O 18.7372 -1.5096 -1.02554 0
M  V30 197 C 18.7882 -2.88163 2.18276 0
M  V30 198 O 18.5092 -2.57583 3.54376 0
M  V30 199 C 20.0102 -3.82422 2.24206 0
M  V30 200 H 17.2302 -0.485778 0.462883 0
M  V30 201 H 19.7742 -0.965185 1.8029 0
M  V30 202 H 17.9292 -3.44818 1.76576 0
M  V30 203 H 18.3432 -3.41699 3.97922 0
M  V30 204 H 19.8172 -4.71667 2.86765 0
M  V30 205 H 20.2942 -4.21078 1.24861 0
M  V30 206 H 20.9002 -3.31697 2.6619 0
M  V30 207 N 19.2153 -1.21501 -1.00376 0
M  V30 208 C 20.4403 -1.05977 -1.78279 0
M  V30 209 C 20.8653 0.385994 -1.84097 0
M  V30 210 O 20.2233 1.27849 -1.28547 0
M  V30 211 C 20.2713 -1.66302 -3.19963 0
M  V30 212 O 19.3753 -0.909333 -4.0225 0
M  V30 213 H 18.7163 -0.372906 -0.549397 0
M  V30 214 H 21.2463 -1.6107 -1.26165 0
M  V30 215 H 21.2563 -1.70574 -3.70632 0
M  V30 216 H 19.9313 -2.71515 -3.15043 0
M  V30 217 H 18.5083 -0.941795 -3.60811 0
M  V30 218 N 20.6934 1.19889 -1.02296 0
M  V30 219 C 21.9334 1.91125 -0.724602 0
M  V30 220 C 22.2974 1.77464 0.732835 0
M  V30 221 O 23.4984 2.43241 1.144 0
M  V30 222 C 21.7694 3.38187 -1.15604 0
M  V30 223 S 23.3284 4.27702 -0.980621 0
M  V30 224 H 20.1464 0.66018 -0.263976 0
M  V30 225 H 22.7484 1.44978 -1.31155 0
M  V30 226 H 21.4524 3.45653 -2.21251 0
M  V30 227 H 20.9834 3.89363 -0.562131 0
M  V30 228 H 22.9984 4.96073 0.112225 0
M  V30 229 N 22.1715 0.800033 1.35784 0
M  V30 230 C 23.1015 0.220184 2.3246 0
M  V30 231 C 24.0825 -0.65073 1.57161 0
M  V30 232 O 25.2675 -0.582359 1.85263 0
M  V30 233 C 22.3975 -0.637353 3.41402 0
M  V30 234 C 21.3515 0.134531 4.27789 0
M  V30 235 C 20.6775 -0.844285 5.27992 0
M  V30 236 C 21.9775 1.32979 5.05088 0
M  V30 237 H 23.6715 1.02787 2.81203 0
M  V30 238 H 21.2175 0.495717 1.35199 0
M  V30 239 H 23.1705 -1.05302 4.08031 0
M  V30 240 H 21.8945 -1.47785 2.91251 0
M  V30 241 H 20.5535 0.531296 3.6273 0
M  V30 242 H 20.2015 -1.68011 4.74111 0
M  V30 243 H 19.9015 -0.332184 5.8666 0
M  V30 244 H 21.4255 -1.2583 5.97494 0
M  V30 245 H 22.8395 0.98934 5.64699 0
M  V30 246 H 21.2365 1.77593 5.7322 0
M  V30 247 H 22.3065 2.11978 4.36111 0
M  V30 248 N 23.6496 -1.47581 0.552962 0
M  V30 249 C 24.5966 -2.29957 -0.197108 0
M  V30 250 C 25.5666 -1.38799 -0.912359 0
M  V30 251 O 26.7516 -1.67761 -0.908888 0
M  V30 252 C 23.8916 -3.22672 -1.22379 0
M  V30 253 C 23.0046 -4.28919 -0.515038 0
M  V30 254 C 22.1396 -5.0879 -1.52664 0
M  V30 255 C 21.1786 -6.06815 -0.802631 0
M  V30 256 N 20.3156 -6.7966 -1.76086 0
M  V30 257 H 25.1556 -2.93578 0.511486 0
M  V30 258 H 22.6926 -1.4471 0.264067 0
M  V30 259 H 24.6506 -3.74845 -1.83159 0
M  V30 260 H 23.2806 -2.60925 -1.90047 0
M  V30 261 H 22.3326 -3.79835 0.207192 0
M  V30 262 H 23.6446 -4.98773 0.0523425 0
M  V30 263 H 22.7986 -5.65091 -2.20809 0
M  V30 264 H 21.5376 -4.38828 -2.12794 0
M  V30 265 H 20.5426 -5.49695 -0.107238 0
M  V30 266 H 21.7676 -6.78784 -0.207135 0
M  V30 267 H 19.7136 -6.12432 -2.35081 0
M  V30 268 H 19.6306 -7.45669 -1.24552 0
M  V30 269 H 20.8986 -7.40538 -2.43359 0
M  V30 270 N 25.1277 -0.289203 -1.54924 0
M  V30 271 C 26.0747 0.592115 -2.23075 0
M  V30 272 C 27.0447 1.13881 -1.20915 0
M  V30 273 O 28.2297 1.18551 -1.495 0
M  V30 274 C 25.3697 1.76376 -2.96623 0
M  V30 275 C 24.4827 1.24959 -4.13533 0
M  V30 276 C 23.6177 2.38416 -4.74691 0
M  V30 277 C 22.6567 1.84072 -5.83767 0
M  V30 278 N 21.7937 2.91057 -6.38929 0
M  V30 279 H 26.6337 0.00432038 -2.98 0
M  V30 280 H 24.1707 -0.00963529 -1.47097 0
M  V30 281 H 26.1287 2.45268 -3.3749 0
M  V30 282 H 24.7587 2.32337 -2.24097 0
M  V30 283 H 23.8107 0.453307 -3.77689 0
M  V30 284 H 25.1227 0.811662 -4.92152 0
M  V30 285 H 24.2767 3.15276 -5.18349 0
M  V30 286 H 23.0157 2.8553 -3.95378 0
M  V30 287 H 22.0207 1.05697 -5.39545 0
M  V30 288 H 23.2457 1.37877 -6.64956 0
M  V30 289 H 21.1917 3.37526 -5.62505 0
M  V30 290 H 21.1087 2.51724 -7.12861 0
M  V30 291 H 22.3767 3.6785 -6.87246 0
M  V30 292 N 26.6058 1.57591 -0.0167156 0
M  V30 293 C 28.0218 1.55946 0.339557 0
M  V30 294 C 28.2218 1.02109 1.73713 0
M  V30 295 O 27.2778 0.662303 2.43659 0
M  V30 296 C 28.5908 3.00037 0.199499 0
M  V30 297 C 30.1388 3.11805 0.273193 0
M  V30 298 C 30.6138 4.57713 0.162068 0
M  V30 299 N 32.1048 4.6268 0.219444 0
M  V30 300 C 32.8398 5.73185 0.157054 0
M  V30 301 N 32.3358 6.92786 0.0442936 0
M  V30 302 N 34.1288 5.61707 0.21014 0
M  V30 303 H 26.2798 1.90921 -0.930758 0
M  V30 304 H 28.5428 0.877674 -0.358319 0
M  V30 305 H 28.2488 3.4333 -0.76273 0
M  V30 306 H 28.1228 3.64387 0.974786 0
M  V30 307 H 30.5098 2.68433 1.22587 0
M  V30 308 H 30.5908 2.50201 -0.532256 0
M  V30 309 H 30.2348 5.01763 -0.78714 0
M  V30 310 H 30.1648 5.17283 0.986222 0
M  V30 311 H 32.6558 3.76649 0.307246 0
M  V30 312 H 32.9688 7.728 0.00304069 0
M  V30 313 H 31.3138 6.94999 0.00968457 0
M  V30 314 H 34.5048 4.6716 0.296546 0
M  V30 315 H 34.6778 6.47807 0.158054 0
M  V30 316 N 28.0839 -0.256276 1.55502 0
M  V30 317 C 28.9939 -1.33882 1.92647 0
M  V30 318 C 30.0099 -1.53159 0.825727 0
M  V30 319 O 31.1859 -1.66963 1.12629 0
M  V30 320 C 28.2509 -2.6751 2.20543 0
M  V30 321 C 27.3119 -2.56836 3.43997 0
M  V30 322 C 26.5449 -3.84092 3.70553 0
M  V30 323 O 26.7679 -4.85545 2.99336 0
M  V30 324 O 25.7019 -3.83288 4.64084 0
M  V30 325 H 29.5279 -1.05374 2.84833 0
M  V30 326 H 27.1129 -0.456237 1.42263 0
M  V30 327 H 28.9949 -3.46492 2.39835 0
M  V30 328 H 27.6699 -2.9577 1.31536 0
M  V30 329 H 26.5769 -1.76172 3.30021 0
M  V30 330 H 27.9099 -2.33523 4.33275 0
M  V30 331 N 29.562 -1.4872 -0.521534 0
M  V30 332 C 30.472 -1.66569 -1.65203 0
M  V30 333 C 31.488 -0.548197 -1.65139 0
M  V30 334 O 32.664 -0.820339 -1.83936 0
M  V30 335 C 29.729 -1.70917 -3.01642 0
M  V30 336 C 28.79 -2.94356 -3.12495 0
M  V30 337 C 28.023 -2.98487 -4.42426 0
M  V30 338 O 28.246 -2.10786 -5.30024 0
M  V30 339 O 27.18 -3.90746 -4.57822 0
M  V30 340 H 31.006 -2.62298 -1.5308 0
M  V30 341 H 28.591 -1.3222 -0.695565 0
M  V30 342 H 30.473 -1.7625 -3.82771 0
M  V30 343 H 29.148 -0.783633 -3.14071 0
M  V30 344 H 28.055 -2.94552 -2.3063 0
M  V30 345 H 29.388 -3.86322 -3.04986 0
M  V30 346 N 31.0401 0.771051 -1.3745 0
M  V30 347 C 31.9731 1.89166 -1.27638 0
M  V30 348 C 32.9511 1.61842 -0.156782 0
M  V30 349 O 34.1351 1.85569 -0.331111 0
M  V30 350 C 31.2621 3.24405 -0.973621 0
M  V30 351 C 30.3081 3.70638 -2.1102 0
M  V30 352 S 31.1411 3.84228 -3.73 0
M  V30 353 C 32.2971 5.22313 -3.44876 0
M  V30 354 H 32.5301 1.972 -2.22485 0
M  V30 355 H 30.0631 0.932224 -1.23081 0
M  V30 356 H 32.0211 4.02514 -0.805766 0
M  V30 357 H 30.6821 3.14071 -0.0426279 0
M  V30 358 H 29.8751 4.68685 -1.85338 0
M  V30 359 H 29.4771 2.99632 -2.23822 0
M  V30 360 H 31.7691 6.07505 -2.99908 0
M  V30 361 H 32.7121 5.53008 -4.42253 0
M  V30 362 H 33.1201 4.90284 -2.79789 0
M  V30 363 N 32.5182 1.22032 0.997298 0
M  V30 364 C 33.4652 0.986467 2.08656 0
M  V30 365 C 34.4352 -0.0902671 1.65855 0
M  V30 366 O 35.6202 0.0584294 1.90711 0
M  V30 367 C 32.7602 0.565569 3.40434 0
M  V30 368 C 31.8732 1.71259 3.96604 0
M  V30 369 C 31.0082 1.24011 5.16522 0
M  V30 370 C 30.0472 2.35896 5.64818 0
M  V30 371 N 29.1842 1.89726 6.7598 0
M  V30 372 H 34.0242 1.91892 2.27994 0
M  V30 373 H 31.5612 0.956199 1.11782 0
M  V30 374 H 33.5192 0.302738 4.161 0
M  V30 375 H 32.1492 -0.329879 3.2111 0
M  V30 376 H 31.2012 2.08986 3.17851 0
M  V30 377 H 32.5132 2.55436 4.28432 0
M  V30 378 H 31.6672 0.934395 5.99461 0
M  V30 379 H 30.4062 0.368487 4.86306 0
M  V30 380 H 29.4112 2.67261 4.8047 0
M  V30 381 H 30.6362 3.23567 5.97061 0
M  V30 382 H 28.5822 1.0492 6.47555 0
M  V30 383 H 28.4992 2.67471 7.07103 0
M  V30 384 H 29.7672 1.62211 7.62435 0
M  V30 385 N 33.9963 -1.19345 1.0293 0
M  V30 386 C 34.9263 -2.2481 0.631105 0
M  V30 387 C 35.9073 -1.66245 -0.360104 0
M  V30 388 O 37.0923 -1.92677 -0.242726 0
M  V30 389 C 34.2223 -3.47295 -0.0184607 0
M  V30 390 C 33.1763 -4.18536 0.895073 0
M  V30 391 C 32.5023 -5.34586 0.110592 0
M  V30 392 C 33.8023 -4.73287 2.209 0
M  V30 393 H 35.4963 -2.58372 1.51275 0
M  V30 394 H 33.0423 -1.24194 0.728818 0
M  V30 395 H 34.9953 -4.20268 -0.308675 0
M  V30 396 H 33.7193 -3.12933 -0.934907 0
M  V30 397 H 32.3783 -3.47446 1.16949 0
M  V30 398 H 32.0263 -4.96469 -0.807902 0
M  V30 399 H 31.7263 -5.83183 0.719087 0
M  V30 400 H 33.2503 -6.10355 -0.172871 0
M  V30 401 H 34.6643 -5.38013 1.98028 0
M  V30 402 H 33.0613 -5.32373 2.76946 0
M  V30 403 H 34.1313 -3.91331 2.86336 0
M  V30 404 N 35.4744 -0.807222 -1.35358 0
M  V30 405 C 36.4214 -0.216037 -2.29787 0
M  V30 406 C 37.3914 0.650278 -1.52842 0
M  V30 407 O 38.5764 0.595227 -1.81278 0
M  V30 408 C 35.7164 0.628893 -3.39321 0
M  V30 409 C 34.8294 -0.257927 -4.31229 0
M  V30 410 C 33.9644 0.595069 -5.27856 0
M  V30 411 C 33.0034 -0.292111 -6.11403 0
M  V30 412 N 32.1404 0.520895 -7.00165 0
M  V30 413 H 36.9804 -1.02671 -2.79755 0
M  V30 414 H 34.5174 -0.517839 -1.37684 0
M  V30 415 H 36.4754 1.13393 -4.01494 0
M  V30 416 H 35.1054 1.40482 -2.90628 0
M  V30 417 H 34.1574 -0.881076 -3.70056 0
M  V30 418 H 35.4694 -0.940759 -4.89848 0
M  V30 419 H 34.6234 1.16522 -5.95405 0
M  V30 420 H 33.3624 1.31146 -4.69736 0
M  V30 421 H 32.3674 -0.874525 -5.428 0
M  V30 422 H 33.5924 -1.00638 -6.71602 0
M  V30 423 H 31.5384 1.22125 -6.44532 0
M  V30 424 H 31.4554 -0.103877 -7.55929 0
M  V30 425 H 32.7234 1.0743 -7.72062 0
M  V30 426 N 36.9525 1.47285 -0.560781 0
M  V30 427 C 37.8625 2.33846 0.187954 0
M  V30 428 C 38.8785 1.48412 0.908293 0
M  V30 429 O 40.0545 1.81332 0.876388 0
M  V30 430 C 37.1195 3.25178 1.2025 0
M  V30 431 C 36.1805 4.26504 0.489208 0
M  V30 432 C 35.4135 5.13472 1.45542 0
M  V30 433 O 35.6365 5.02959 2.6905 0
M  V30 434 O 34.5705 5.93902 0.977963 0
M  V30 435 H 38.3965 2.99177 -0.522177 0
M  V30 436 H 35.9815 1.45903 -0.321364 0
M  V30 437 H 37.8635 3.81584 1.78805 0
M  V30 438 H 36.5385 2.6247 1.89449 0
M  V30 439 H 35.4455 3.73847 -0.137627 0
M  V30 440 H 36.7785 4.91935 -0.161399 0
M  V30 441 N 38.4306 0.297415 1.54768 0
M  V30 442 C 39.6706 -0.313829 2.01976 0
M  V30 443 C 40.0346 -1.51366 1.1812 0
M  V30 444 O 41.2356 -2.19603 1.5501 0
M  V30 445 C 39.5066 -0.664964 3.51159 0
M  V30 446 S 41.0656 -1.25958 4.20333 0
M  V30 447 H 37.8836 -0.0965014 0.704421 0
M  V30 448 H 40.4856 0.424451 1.90837 0
M  V30 449 H 39.1896 0.21681 4.09827 0
M  V30 450 H 38.7206 -1.43413 3.66328 0
M  V30 451 H 40.7356 -2.54751 4.25813 0
M  V30 452 N 39.9087 -1.5758 0.0250728 0
M  V30 453 C 41.1547 -1.91917 -0.655413 0
M  V30 454 C 41.4877 -0.901433 -1.72011 0
M  V30 455 O 40.7627 0.0764069 -1.9435 0
M  V30 456 C 41.0457 -3.36751 -1.27558 0
M  V30 457 C 40.8987 -4.49258 -0.220719 0
M  V30 458 C 42.2177 -3.81469 -2.19475 0
M  V30 459 H 39.3367 -0.697925 -0.23679 0
M  V30 460 H 41.9787 -1.89825 0.0815036 0
M  V30 461 H 40.1287 -3.38664 -1.90365 0
M  V30 462 H 41.8007 -4.59478 0.409601 0
M  V30 463 H 40.0437 -4.31415 0.454264 0
M  V30 464 H 40.7147 -5.47618 -0.694175 0
M  V30 465 H 43.1907 -3.81266 -1.66659 0
M  V30 466 H 42.0667 -4.83512 -2.59822 0
M  V30 467 H 42.3277 -3.16744 -3.08424 0
M  V30 468 N 41.3868 0.248026 -1.55636 0
M  V30 469 C 42.6118 0.998028 -1.81808 0
M  V30 470 C 43.0368 1.78207 -0.601979 0
M  V30 471 O 42.3948 1.75653 0.448961 0
M  V30 472 C 42.4428 1.9125 -3.05705 0
M  V30 473 O 41.5468 3.00406 -2.82542 0
M  V30 474 H 40.8878 0.284045 -0.600179 0
M  V30 475 H 43.4178 0.269357 -2.02819 0
M  V30 476 H 43.4278 2.32737 -3.35108 0
M  V30 477 H 42.1028 1.33602 -3.93857 0
M  V30 478 H 40.6798 2.63056 -2.64303 0
M  V30 479 N 42.8649 1.48995 0.513639 0
M  V30 480 C 44.1139 1.57093 1.2651 0
M  V30 481 C 44.4269 0.257091 1.93903 0
M  V30 482 O 45.6329 0.216478 2.70636 0
M  V30 483 C 44.0889 2.77118 2.29638 0
M  V30 484 C 43.6969 4.15209 1.68241 0
M  V30 485 C 45.4409 2.94538 3.05692 0
M  V30 486 C 43.3479 5.26474 2.69406 0
M  V30 487 H 42.2779 0.584876 0.475854 0
M  V30 488 H 44.9289 1.7536 0.540487 0
M  V30 489 H 43.3109 2.52319 3.05207 0
M  V30 490 H 44.4849 4.50094 0.987505 0
M  V30 491 H 42.7999 4.03042 1.04623 0
M  V30 492 H 45.3969 3.74832 3.8132 0
M  V30 493 H 45.7399 2.04614 3.62545 0
M  V30 494 H 46.2729 3.19316 2.37238 0
M  V30 495 H 43.0119 6.18417 2.17351 0
M  V30 496 H 42.5319 4.96058 3.37175 0
M  V30 497 H 44.2109 5.55277 3.32078 0
M  V30 498 N 44.343 -0.763751 1.37857 0
M  V30 499 C 45.273 -1.89103 1.36975 0
M  V30 500 C 46.254 -1.68439 0.237152 0
M  V30 501 O 47.439 -1.8918 0.438713 0
M  V30 502 C 44.569 -3.26496 1.18395 0
M  V30 503 C 43.523 -3.61741 2.28751 0
M  V30 504 C 42.849 -4.97762 1.95286 0
M  V30 505 C 44.149 -3.67665 3.70972 0
M  V30 506 H 45.843 -1.90099 2.31307 0
M  V30 507 H 43.389 -0.91319 1.11341 0
M  V30 508 H 45.342 -4.05003 1.16406 0
M  V30 509 H 44.066 -3.25955 0.205215 0
M  V30 510 H 42.725 -2.85547 2.29909 0
M  V30 511 H 42.373 -4.93769 0.959221 0
M  V30 512 H 42.073 -5.22313 2.69189 0
M  V30 513 H 43.597 -5.7866 1.94898 0
M  V30 514 H 45.011 -4.36307 3.719 0
M  V30 515 H 43.408 -4.03718 4.43995 0
M  V30 516 H 44.478 -2.68134 4.0402 0
M  V30 517 N 45.8211 -1.22559 -0.990812 0
M  V30 518 C 47.2321 -1.04791 -1.54518 0
M  V30 519 C 47.5831 0.387998 -1.92325 0
M  V30 520 O 46.7081 1.27328 -1.74976 0
M  V30 521 C 47.3031 -1.896 -2.80779 0
M  V30 522 C 45.8621 -1.76124 -3.32652 0
M  V30 523 C 45.0091 -1.8594 -2.05722 0
M  V30 524 H 47.9601 -1.36374 -0.811662 0
M  V30 525 H 47.9811 -1.41464 -3.53225 0
M  V30 526 H 47.4931 -2.94101 -2.53231 0
M  V30 527 H 45.5941 -0.743643 -3.65104 0
M  V30 528 H 45.7071 -2.58913 -4.03114 0
M  V30 529 H 44.0711 -1.29403 -2.19379 0
M  V30 530 H 44.8541 -2.91976 -1.80568 0
M  V30 531 N 47.2992 1.18797 -1.03562 0
M  V30 532 C 48.7152 1.40671 -0.753917 0
M  V30 533 C 48.9152 1.9043 0.658686 0
M  V30 534 O 47.9712 2.08538 1.42366 0
M  V30 535 C 49.2842 2.41192 -1.79574 0
M  V30 536 C 50.8322 2.54928 -1.81606 0
M  V30 537 C 51.3072 3.58709 -2.84766 0
M  V30 538 N 52.7982 3.66212 -2.83625 0
M  V30 539 C 53.5332 4.46225 -3.60098 0
M  V30 540 N 53.0292 5.29888 -4.46308 0
M  V30 541 N 54.8222 4.40939 -3.4861 0
M  V30 542 H 46.9732 0.848221 -1.94728 0
M  V30 543 H 49.2362 0.435081 -0.842264 0
M  V30 544 H 48.9422 2.11669 -2.80872 0
M  V30 545 H 48.8162 3.40467 -1.62365 0
M  V30 546 H 51.2032 2.83771 -0.809817 0
M  V30 547 H 51.2842 1.55784 -2.02891 0
M  V30 548 H 50.9282 3.30607 -3.85566 0
M  V30 549 H 50.8582 4.57519 -2.60737 0
M  V30 550 H 53.3492 3.06466 -2.21105 0
M  V30 551 H 53.6622 5.88078 -5.01382 0
M  V30 552 H 52.0072 5.29326 -4.50377 0
M  V30 553 H 55.1982 3.74624 -2.80668 0
M  V30 554 H 55.3712 5.03056 -4.08459 0
M  V30 555 N 48.7773 0.814389 1.34928 0
M  V30 556 C 49.7243 0.22822 2.29669 0
M  V30 557 C 50.6943 -0.642164 1.53184 0
M  V30 558 O 51.8793 -0.585605 1.81591 0
M  V30 559 C 49.0193 -0.61089 3.3965 0
M  V30 560 C 48.1323 0.280792 4.31086 0
M  V30 561 C 47.2673 -0.567067 5.28165 0
M  V30 562 C 46.3063 0.324531 6.11239 0
M  V30 563 N 45.4433 -0.483756 7.00431 0
M  V30 564 H 50.2833 1.04153 2.79206 0
M  V30 565 H 47.8203 0.525133 1.37407 0
M  V30 566 H 49.7783 -1.11263 4.0209 0
M  V30 567 H 48.4083 -1.38939 2.91369 0
M  V30 568 H 47.4603 0.900688 3.69583 0
M  V30 569 H 48.7723 0.966723 4.89342 0
M  V30 570 H 47.9263 -1.13363 5.96015 0
M  V30 571 H 46.6653 -1.28654 4.70425 0
M  V30 572 H 45.6703 0.903298 5.42329 0
M  V30 573 H 46.8953 1.04198 6.71059 0
M  V30 574 H 44.8413 -1.18706 6.45171 0
M  V30 575 H 44.7583 0.143965 7.55863 0
M  V30 576 H 46.0263 -1.03334 7.7262 0
M  V30 577 N 50.2554 -1.46986 0.568584 0
M  V30 578 C 51.1654 -2.33942 -0.17555 0
M  V30 579 C 52.1814 -1.48891 -0.90041 0
M  V30 580 O 53.3574 -1.81794 -0.86676 0
M  V30 581 C 50.4224 -3.25811 -1.18524 0
M  V30 582 C 49.4834 -4.26757 -0.466582 0
M  V30 583 C 48.7164 -5.14236 -1.42817 0
M  V30 584 O 48.9394 -5.04379 -2.66379 0
M  V30 585 O 47.8734 -5.94412 -0.946453 0
M  V30 586 H 51.6994 -2.98896 0.538036 0
M  V30 587 H 49.2844 -1.4573 0.329097 0
M  V30 588 H 51.1664 -3.82527 -1.76779 0
M  V30 589 H 49.8414 -2.63471 -1.88055 0
M  V30 590 H 48.7484 -3.73769 0.157451 0
M  V30 591 H 50.0814 -4.91843 0.187485 0
M  V30 592 N 51.7335 -0.305618 -1.54608 0
M  V30 593 C 52.9585 0.307562 -2.05107 0
M  V30 594 C 53.3835 1.46385 -1.18123 0
M  V30 595 O 52.7415 1.8034 -0.186324 0
M  V30 596 C 52.7895 0.73704 -3.52987 0
M  V30 597 O 51.8935 1.84134 -3.6901 0
M  V30 598 H 51.2345 0.0589143 -0.661381 0
M  V30 599 H 53.7645 -0.448807 -1.99617 0
M  V30 600 H 53.7745 1.02459 -3.94925 0
M  V30 601 H 52.4495 -0.108773 -4.15758 0
M  V30 602 H 51.0265 1.55398 -3.38978 0
M  V30 603 N 53.2116 1.57565 -0.0334293 0
M  V30 604 C 54.6226 1.79746 0.504798 0
M  V30 605 C 54.9736 0.944091 1.71992 0
M  V30 606 O 54.0986 0.155694 2.15839 0
M  V30 607 C 54.6936 3.25997 0.922567 0
M  V30 608 C 53.2526 3.49159 1.40588 0
M  V30 609 C 52.3996 2.74785 0.372633 0
M  V30 610 H 55.3506 1.56565 -0.259436 0
M  V30 611 H 55.3716 3.35945 1.78666 0
M  V30 612 H 54.8836 3.88081 0.0379825 0
M  V30 613 H 52.9846 2.92332 2.31025 0
M  V30 614 H 53.0976 4.57873 1.41028 0
M  V30 615 H 51.4616 2.40391 0.841672 0
M  V30 616 H 52.2446 3.39587 -0.503559 0
M  V30 617 N 54.6897 -0.239769 1.55765 0
M  V30 618 C 55.9147 -0.988373 1.82335 0
M  V30 619 C 56.3397 -1.77886 0.611421 0
M  V30 620 O 55.6977 -1.75889 -0.439639 0
M  V30 621 C 55.7457 -1.89627 3.06715 0
M  V30 622 O 54.8497 -2.98904 2.84131 0
M  V30 623 H 54.1907 -0.280858 0.601677 0
M  V30 624 H 56.7207 -0.258597 2.02959 0
M  V30 625 H 56.7307 -2.30957 3.36338 0
M  V30 626 H 55.4057 -1.31511 3.9456 0
M  V30 627 H 53.9827 -2.61651 2.65694 0
M  V30 628 N 56.1678 -1.49265 -0.50573 0
M  V30 629 C 57.4138 -1.58748 -1.26202 0
M  V30 630 C 57.7468 -0.271227 -1.92297 0
M  V30 631 O 57.0218 0.724831 -1.80489 0
M  V30 632 C 57.3048 -2.74332 -2.33268 0
M  V30 633 C 57.1578 -4.15737 -1.71705 0
M  V30 634 C 58.4768 -2.85576 -3.34865 0
M  V30 635 H 55.5958 -0.577826 -0.457478 0
M  V30 636 H 58.2378 -1.81532 -0.560897 0
M  V30 637 H 56.3878 -2.55036 -2.93068 0
M  V30 638 H 58.0598 -4.46537 -1.15769 0
M  V30 639 H 56.3028 -4.21605 -1.02135 0
M  V30 640 H 56.9738 -4.92477 -2.49341 0
M  V30 641 H 59.4498 -3.03127 -2.8505 0
M  V30 642 H 58.3258 -3.68135 -4.07146 0
M  V30 643 H 58.5868 -1.94732 -3.96903 0
M  V30 644 N 57.6459 0.756429 -1.3826 0
M  V30 645 C 59.0619 1.0591 -1.19395 0
M  V30 646 C 59.2619 2.01459 -0.0406567 0
M  V30 647 O 58.3179 2.44909 0.614467 0
M  V30 648 C 59.6309 1.64191 -2.51916 0
M  V30 649 C 61.1789 1.76376 -2.58574 0
M  V30 650 C 61.6539 2.38069 -3.91264 0
M  V30 651 N 63.1449 2.45503 -3.92788 0
M  V30 652 C 63.8799 2.94126 -4.92217 0
M  V30 653 N 63.3759 3.42805 -6.02043 0
M  V30 654 N 65.1689 2.9314 -4.7961 0
M  V30 655 H 57.3199 0.122313 -2.12048 0
M  V30 656 H 59.5829 0.116892 -0.940766 0
M  V30 657 H 59.2889 1.01451 -3.3675 0
M  V30 658 H 59.1629 2.6329 -2.70108 0
M  V30 659 H 61.5499 2.38244 -1.74137 0
M  V30 660 H 61.6309 0.759894 -2.44252 0
M  V30 661 H 61.2749 1.76835 -4.76121 0
M  V30 662 H 61.2049 3.39091 -4.02895 0
M  V30 663 H 63.6959 2.1107 -3.13461 0
M  V30 664 H 64.0089 3.78354 -6.73846 0
M  V30 665 H 62.3539 3.4087 -6.05667 0
M  V30 666 H 65.5449 2.54419 -3.92923 0
M  V30 667 H 65.7179 3.30721 -5.5725 0
M  V30 668 N 59.124 1.23083 0.984299 0
M  V30 669 C 60.349 1.088 1.76571 0
M  V30 670 C 60.774 -0.356657 1.84688 0
M  V30 671 O 60.132 -1.25788 1.30565 0
M  V30 672 C 60.18 1.71371 3.17277 0
M  V30 673 O 59.284 0.973213 4.00752 0
M  V30 674 H 58.625 0.381599 0.543395 0
M  V30 675 H 61.155 1.63057 1.23587 0
M  V30 676 H 61.165 1.76449 3.67872 0
M  V30 677 H 59.84 2.76493 3.10684 0
M  V30 678 H 58.417 0.999078 3.59267 0
M  V30 679 N 60.6021 -1.18246 1.0419 0
M  V30 680 C 61.8271 -1.92736 0.765996 0
M  V30 681 C 62.2521 -1.75728 -0.67091 0
M  V30 682 O 61.6101 -1.06825 -1.46486 0
M  V30 683 C 61.6581 -3.42148 1.13875 0
M  V30 684 O 60.7621 -4.11548 0.264954 0
M  V30 685 H 60.1031 -0.601238 0.281797 0
M  V30 686 H 62.6331 -1.49942 1.39207 0
M  V30 687 H 62.6431 -3.92858 1.1012 0
M  V30 688 H 61.3181 -3.53848 2.18551 0
M  V30 689 H 59.8951 -3.71137 0.362226 0
M  V30 690 N 62.0802 -0.821533 -1.34494 0
M  V30 691 C 63.0272 -0.240397 -2.29545 0
M  V30 692 C 63.9972 0.634031 -1.53523 0
M  V30 693 O 65.1822 0.575966 -1.81899 0
M  V30 694 C 62.3222 0.592869 -3.39969 0
M  V30 695 C 61.4352 -0.30365 -4.30932 0
M  V30 696 C 60.5702 0.539049 -5.28458 0
M  V30 697 C 59.6092 -0.356942 -6.11058 0
M  V30 698 N 58.7462 0.446603 -7.00678 0
M  V30 699 H 63.5862 -1.05632 -2.7865 0
M  V30 700 H 61.1232 -0.532413 -1.37127 0
M  V30 701 H 63.0812 1.09129 -4.02675 0
M  V30 702 H 61.7112 1.37392 -2.92102 0
M  V30 703 H 60.7632 -0.920276 -3.691 0
M  V30 704 H 62.0752 -0.992661 -4.88823 0
M  V30 705 H 61.2292 1.102 -5.96608 0
M  V30 706 H 59.9682 1.26157 -4.71101 0
M  V30 707 H 58.9732 -0.932047 -5.41842 0
M  V30 708 H 60.1982 -1.07755 -6.70497 0
M  V30 709 H 58.1442 1.15282 -6.45791 0
M  V30 710 H 58.0612 -0.184048 -7.55776 0
M  V30 711 H 59.3292 0.992352 -7.73158 0
M  V30 712 N 63.5583 1.46682 -0.576371 0
M  V30 713 C 64.8353 1.95599 0.00703437 0
M  V30 714 C 65.2153 1.51904 1.46589 0
M  V30 715 O 64.5633 0.766755 2.15251 0
M  V30 716 C 64.7733 3.4864 -0.158404 0
M  V30 717 C 66.1213 4.24594 -0.0229439 0
M  V30 718 O 67.1453 3.56094 -0.0869173 0
M  V30 719 O 66.0043 5.46373 0.118015 0
M  V30 720 H 63.0983 0.825275 0.053384 0
M  V30 721 H 65.6443 1.56996 -0.644244 0
M  V30 722 H 64.4163 3.7331 -1.17282 0
M  V30 723 H 64.0393 3.94057 0.5296 0
M  V30 724 N 65.0364 0.313813 1.54444 0
M  V30 725 C 66.2844 -0.291099 1.99993 0
M  V30 726 C 66.6054 -1.53418 1.20366 0
M  V30 727 O 65.8754 -1.93544 0.302927 0
M  V30 728 H 64.4554 -0.110552 0.738774 0
M  V30 729 H 67.1174 0.428106 1.9014 0
M  V30 730 H 66.2134 -0.554268 3.07139 0
M  V30 731 N 66.5145 -1.57545 0.0417849 0
M  V30 732 C 67.4615 -2.10977 -0.935805 0
M  V30 733 C 68.4315 -1.01486 -1.31491 0
M  V30 734 O 69.6165 -1.2898 -1.40602 0
M  V30 735 C 66.7565 -2.65169 -2.2086 0
M  V30 736 C 65.8695 -3.88714 -1.88482 0
M  V30 737 C 65.0045 -4.31254 -3.1015 0
M  V30 738 C 64.0435 -5.47524 -2.7365 0
M  V30 739 N 63.1805 -5.85162 -3.87982 0
M  V30 740 H 68.0205 -2.94218 -0.473249 0
M  V30 741 H 65.5575 -1.45415 -0.221981 0
M  V30 742 H 67.5155 -2.94685 -2.95325 0
M  V30 743 H 66.1455 -1.8474 -2.64709 0
M  V30 744 H 65.1975 -3.65849 -1.04205 0
M  V30 745 H 66.5095 -4.73245 -1.57608 0
M  V30 746 H 65.6635 -4.62273 -3.92923 0
M  V30 747 H 64.4025 -3.45516 -3.44195 0
M  V30 748 H 63.4075 -5.16187 -1.89291 0
M  V30 749 H 64.6325 -6.34971 -2.40807 0
M  V30 750 H 62.5785 -5.02377 -4.21846 0
M  V30 751 H 62.4955 -6.64362 -3.60775 0
M  V30 752 H 63.7635 -6.20791 -4.71422 0
M  V30 753 N 67.9926 0.231505 -1.5589 0
M  V30 754 C 68.9226 1.29022 -1.94617 0
M  V30 755 C 69.9036 1.4941 -0.813067 0
M  V30 756 O 71.0886 1.6176 -1.07459 0
M  V30 757 C 68.2186 2.64199 -2.25424 0
M  V30 758 C 67.1726 2.58484 -3.41131 0
M  V30 759 C 66.4986 3.97599 -3.57518 0
M  V30 760 C 67.7986 2.1413 -4.76388 0
M  V30 761 H 69.4926 0.968563 -2.83301 0
M  V30 762 H 67.0386 0.464479 -1.36303 0
M  V30 763 H 68.9916 3.38413 -2.51107 0
M  V30 764 H 67.7156 2.98032 -1.33583 0
M  V30 765 H 66.3746 1.86727 -3.15481 0
M  V30 766 H 66.0226 4.28723 -2.6307 0
M  V30 767 H 65.7226 3.94659 -4.35337 0
M  V30 768 H 67.2466 4.7349 -3.85538 0
M  V30 769 H 68.6606 2.78083 -5.01341 0
M  V30 770 H 67.0576 2.2227 -5.57419 0
M  V30 771 H 68.1276 1.09331 -4.72414 0
M  V30 772 N 69.4707 1.49531 0.497807 0
M  V30 773 C 70.4007 1.6935 1.60757 0
M  V30 774 C 71.3817 0.542218 1.61227 0
M  V30 775 O 72.5667 0.778417 1.77917 0
M  V30 776 C 69.6967 1.76298 2.99226 0
M  V30 777 C 68.6507 2.91248 3.13622 0
M  V30 778 C 67.9767 2.83312 4.53474 0
M  V30 779 C 69.2767 4.3214 2.93346 0
M  V30 780 H 70.9707 2.62263 1.44425 0
M  V30 781 H 68.5167 1.26208 0.693367 0
M  V30 782 H 70.4697 1.88749 3.76765 0
M  V30 783 H 69.1937 0.799871 3.16654 0
M  V30 784 H 67.8527 2.78404 2.38509 0
M  V30 785 H 67.5007 1.84902 4.67782 0
M  V30 786 H 67.2007 3.60465 4.64046 0
M  V30 787 H 68.7247 2.97775 5.33069 0
M  V30 788 H 70.1387 4.45649 3.60652 0
M  V30 789 H 68.5357 5.1054 3.15387 0
M  V30 790 H 69.6057 4.46363 1.89441 0
M  V30 791 N 70.9488 -0.749086 1.3866 0
M  V30 792 C 71.9118 -1.84457 1.36045 0
M  V30 793 C 72.9118 -1.58682 0.260122 0
M  V30 794 O 74.1018 -1.66343 0.517261 0
M  V30 795 C 71.2338 -3.22008 1.11911 0
M  V30 796 H 72.4268 -1.88182 2.33512 0
M  V30 797 H 69.9798 -0.951266 1.24019 0
M  V30 798 H 70.7148 -3.2395 0.150686 0
M  V30 799 H 70.4998 -3.42111 1.91579 0
M  V30 800 H 71.9898 -4.0208 1.12788 0
M  V30 801 N 72.4269 -1.23603 -0.977757 0
M  V30 802 C 73.3899 -1.02069 -2.05218 0
M  V30 803 C 74.3899 0.0184305 -1.60789 0
M  V30 804 O 75.5799 -0.221569 -1.72785 0
M  V30 805 C 72.7119 -0.544926 -3.36517 0
M  V30 806 H 73.9049 -1.9742 -2.25755 0
M  V30 807 H 71.4579 -1.05684 -1.15155 0
M  V30 808 H 72.1929 0.412241 -3.21669 0
M  V30 809 H 71.9779 -1.2948 -3.70105 0
M  V30 810 H 73.4679 -0.414985 -4.15533 0
M  V30 811 N 73.905 1.17692 -1.04816 0
M  V30 812 C 75.133 1.91786 -0.776254 0
M  V30 813 C 75.548 1.76604 0.667577 0
M  V30 814 O 74.905 1.10067 1.45573 0
M  V30 815 C 74.956 3.42967 -1.14263 0
M  V30 816 O 74.677 3.57678 -2.52978 0
M  V30 817 C 76.178 4.34144 -0.896311 0
M  V30 818 H 73.398 0.608624 -0.282519 0
M  V30 819 H 75.942 1.49268 -1.39783 0
M  V30 820 H 74.097 3.83245 -0.565874 0
M  V30 821 H 74.511 4.51319 -2.67229 0
M  V30 822 H 75.985 5.38744 -1.20244 0
M  V30 823 H 76.462 4.38876 0.168636 0
M  V30 824 H 77.068 3.99574 -1.45672 0
M  V30 825 N 75.3831 0.828654 1.34056 0
M  V30 826 C 76.3131 0.269443 2.3194 0
M  V30 827 C 77.2941 -0.617247 1.58506 0
M  V30 828 O 78.4791 -0.542931 1.86456 0
M  V30 829 C 75.6091 -0.564793 3.42677 0
M  V30 830 C 74.5631 0.225241 4.27407 0
M  V30 831 C 73.8891 -0.7321 5.29664 0
M  V30 832 C 75.1891 1.43663 5.02154 0
M  V30 833 H 76.8831 1.08728 2.7896 0
M  V30 834 H 74.4291 0.524283 1.34117 0
M  V30 835 H 76.3821 -0.966233 4.10173 0
M  V30 836 H 75.1061 -1.41574 2.9432 0
M  V30 837 H 73.7651 0.608117 3.61521 0
M  V30 838 H 73.4131 -1.57916 4.77568 0
M  V30 839 H 73.1131 -0.20767 5.87233 0
M  V30 840 H 74.6371 -1.13128 6.00029 0
M  V30 841 H 76.0511 1.1089 5.62473 0
M  V30 842 H 74.4481 1.89711 5.69324 0
M  V30 843 H 75.5181 2.21181 4.31517 0
M  V30 844 N 76.8612 -1.46375 0.584142 0
M  V30 845 C 77.7912 -2.33103 -0.136037 0
M  V30 846 C 78.7722 -1.45431 -0.882255 0
M  V30 847 O 79.9572 -1.74246 -0.857434 0
M  V30 848 C 77.0872 -3.27731 -1.14933 0
M  V30 849 C 76.0412 -4.24855 -0.517862 0
M  V30 850 C 75.3672 -5.09001 -1.63773 0
M  V30 851 C 76.6672 -5.19439 0.545886 0
M  V30 852 H 78.3612 -2.93568 0.588086 0
M  V30 853 H 75.9072 -1.41166 0.284259 0
M  V30 854 H 77.8602 -3.87261 -1.66153 0
M  V30 855 H 76.5842 -2.65377 -1.90375 0
M  V30 856 H 75.2432 -3.6659 -0.0267361 0
M  V30 857 H 74.8912 -4.43031 -2.38185 0
M  V30 858 H 74.5912 -5.74777 -1.22085 0
M  V30 859 H 76.1152 -5.71396 -2.15266 0
M  V30 860 H 77.5292 -5.73177 0.118704 0
M  V30 861 H 75.9262 -5.93566 0.88317 0
M  V30 862 H 76.9962 -4.63285 1.43162 0
M  V30 863 N 78.3393 -0.321999 -1.54275 0
M  V30 864 C 79.2693 0.537411 -2.27231 0
M  V30 865 C 80.2503 1.12064 -1.27968 0
M  V30 866 O 81.4353 1.14606 -1.56777 0
M  V30 867 C 78.5653 1.69919 -3.02894 0
M  V30 868 C 77.5193 1.24534 -4.09482 0
M  V30 869 C 76.8453 2.49394 -4.72977 0
M  V30 870 C 78.1453 0.361335 -5.21049 0
M  V30 871 H 79.8393 -0.0711406 -2.99315 0
M  V30 872 H 77.3853 -0.0356555 -1.43956 0
M  V30 873 H 79.3383 2.30668 -3.52662 0
M  V30 874 H 78.0623 2.33431 -2.28424 0
M  V30 875 H 76.7213 0.660782 -3.60596 0
M  V30 876 H 76.3693 3.11265 -3.95124 0
M  V30 877 H 76.0693 2.19718 -5.44975 0
M  V30 878 H 77.5933 3.10908 -5.25517 0
M  V30 879 H 79.0073 0.875072 -5.66582 0
M  V30 880 H 77.4043 0.157428 -5.99893 0
M  V30 881 H 78.4743 -0.60822 -4.8107 0
M  V30 882 N 79.8174 1.5752 -0.0501392 0
M  V30 883 C 80.7804 2.1037 0.909786 0
M  V30 884 C 81.7804 1.02308 1.24056 0
M  V30 885 O 82.9704 1.28385 1.17741 0
M  V30 886 C 80.1024 2.58708 2.21998 0
M  V30 887 H 81.2954 2.96479 0.451665 0
M  V30 888 H 78.8484 1.55038 0.198248 0
M  V30 889 H 79.5834 1.75989 2.72394 0
M  V30 890 H 79.3684 3.37675 1.99295 0
M  V30 891 H 80.8584 2.99747 2.9076 0
M  V30 892 N 81.2955 -0.223234 1.56011 0
M  V30 893 C 82.2255 -1.27988 1.95298 0
M  V30 894 C 83.2065 -1.48976 0.820979 0
M  V30 895 O 84.3915 -1.61188 1.08315 0
M  V30 896 C 81.5215 -2.63 2.26822 0
M  V30 897 C 80.4755 -2.56671 3.42497 0
M  V30 898 C 79.8015 -3.95697 3.59622 0
M  V30 899 C 81.1015 -2.11601 4.77517 0
M  V30 900 H 82.7955 -0.953525 2.8381 0
M  V30 901 H 80.3415 -0.457244 1.36548 0
M  V30 902 H 82.2945 -3.37077 2.52898 0
M  V30 903 H 81.0185 -2.9732 1.35161 0
M  V30 904 H 79.6775 -1.85051 3.16467 0
M  V30 905 H 79.3255 -4.27322 2.6534 0
M  V30 906 H 79.0255 -3.92345 4.37424 0
M  V30 907 H 80.5495 -4.71438 3.88044 0
M  V30 908 H 81.9635 -2.7542 5.02809 0
M  V30 909 H 80.3605 -2.19311 5.5859 0
M  V30 910 H 81.4305 -1.06824 4.72987 0
M  V30 911 N 82.7736 -1.49793 -0.48987 0
M  V30 912 C 83.7036 -1.70201 -1.59856 0
M  V30 913 C 84.6846 -0.55076 -1.60937 0
M  V30 914 O 85.8696 -0.787841 -1.77501 0
M  V30 915 C 82.9996 -1.77882 -2.98287 0
M  V30 916 C 81.9536 -2.92907 -3.12073 0
M  V30 917 C 81.2796 -2.85712 -4.51965 0
M  V30 918 C 82.5796 -4.3369 -2.91051 0
M  V30 919 H 84.2736 -2.63025 -1.43032 0
M  V30 920 H 81.8196 -1.26574 -0.686664 0
M  V30 921 H 83.7726 -1.90744 -3.75759 0
M  V30 922 H 82.4966 -0.816653 -3.16225 0
M  V30 923 H 81.1556 -2.79665 -2.37029 0
M  V30 924 H 80.8036 -1.8738 -4.66795 0
M  V30 925 H 80.5036 -3.62921 -4.62128 0
M  V30 926 H 82.0276 -3.00598 -5.31482 0
M  V30 927 H 83.4416 -4.47555 -3.58284 0
M  V30 928 H 81.8386 -5.12205 -3.12675 0
M  V30 929 H 82.9086 -4.47362 -1.87071 0
M  V30 930 N 84.2517 0.741722 -1.39055 0
M  V30 931 C 85.4767 1.53607 -1.39354 0
M  V30 932 C 85.9017 1.88096 0.0116905 0
M  V30 933 O 85.2597 1.5143 0.996924 0
M  V30 934 C 85.3077 2.80441 -2.26682 0
M  V30 935 O 84.4117 3.76088 -1.69208 0
M  V30 936 H 83.7527 0.464142 -0.474835 0
M  V30 937 H 86.2827 0.915665 -1.82967 0
M  V30 938 H 86.2927 3.29246 -2.40959 0
M  V30 939 H 84.9677 2.5467 -3.2881 0
M  V30 940 H 83.5447 3.34833 -1.64138 0
M  V30 941 N 85.7298 1.2412 0.971189 0
M  V30 942 C 86.9698 1.09066 1.7287 0
M  V30 943 C 87.3338 -0.364794 1.88503 0
M  V30 944 O 88.5348 -0.636748 2.61149 0
M  V30 945 C 86.8058 1.80629 3.08396 0
M  V30 946 S 88.3648 1.81263 3.99611 0
M  V30 947 H 85.1828 0.390145 0.594397 0
M  V30 948 H 87.7848 1.57397 1.15959 0
M  V30 949 H 86.4888 2.85647 2.94676 0
M  V30 950 H 86.0198 1.32617 3.70373 0
M  V30 951 H 88.0348 0.877804 4.88374 0
M  V30 952 N 87.2079 -1.17134 1.05439 0
M  V30 953 C 88.4479 -1.89137 0.77502 0
M  V30 954 C 88.8119 -1.79345 -0.685526 0
M  V30 955 O 90.0129 -2.46188 -1.0791 0
M  V30 956 C 88.2839 -3.35003 1.2453 0
M  V30 957 S 89.8429 -4.24952 1.09367 0
M  V30 958 H 86.6609 -0.652949 0.281387 0
M  V30 959 H 89.2629 -1.4145 1.34953 0
M  V30 960 H 87.9669 -3.39666 2.30338 0
M  V30 961 H 87.4979 -3.87736 0.665166 0
M  V30 962 H 89.5129 -4.96196 0.0193397 0
M  V30 963 N 88.686 -0.835752 -1.33615 0
M  V30 964 C 89.616 -0.281739 -2.31794 0
M  V30 965 C 90.597 0.608833 -1.58831 0
M  V30 966 O 91.782 0.533035 -1.86741 0
M  V30 967 C 88.912 0.546612 -3.42971 0
M  V30 968 C 87.866 -0.247904 -4.27281 0
M  V30 969 C 87.192 0.704001 -5.30045 0
M  V30 970 C 88.492 -1.46324 -5.01385 0
M  V30 971 H 90.186 -1.10206 -2.78379 0
M  V30 972 H 87.732 -0.531388 -1.33837 0
M  V30 973 H 89.685 0.944467 -4.1068 0
M  V30 974 H 88.409 1.40011 -2.95067 0
M  V30 975 H 87.068 -0.627281 -3.61194 0
M  V30 976 H 86.716 1.55381 -4.78399 0
M  V30 977 H 86.416 0.176524 -5.87335 0
M  V30 978 H 87.94 1.09944 -6.0062 0
M  V30 979 H 89.354 -1.13871 -5.61877 0
M  V30 980 H 87.751 -1.92728 -5.6831 0
M  V30 981 H 88.821 -2.23467 -4.30338 0
M  V30 982 N 90.1641 1.46063 -0.591896 0
M  V30 983 C 91.3921 2.06717 -0.0868936 0
M  V30 984 C 91.8071 1.43916 1.22203 0
M  V30 985 O 91.1641 0.547698 1.74088 0
M  V30 986 C 91.2151 3.6142 0.0758725 0
M  V30 987 O 90.9361 4.21874 -1.18126 0
M  V30 988 C 92.4371 4.39025 0.61416 0
M  V30 989 H 89.6571 0.668162 -0.0616518 0
M  V30 990 H 92.2011 1.8755 -0.815175 0
M  V30 991 H 90.3561 3.79983 0.754413 0
M  V30 992 H 90.7701 5.14861 -1.00092 0
M  V30 993 H 92.2441 5.4783 0.677193 0
M  V30 994 H 92.7211 4.07708 1.63312 0
M  V30 995 H 93.3271 4.2529 -0.0298142 0
M  V30 996 N 91.6422 0.330177 1.54103 0
M  V30 997 C 92.8882 -0.270806 2.00984 0
M  V30 998 C 93.2212 -1.51265 1.21789 0
M  V30 999 O 92.4962 -1.92142 0.301927 0
M  V30 1000 C 92.7792 -0.598339 3.55094 0
M  V30 1001 C 92.6322 0.654674 4.4501 0
M  V30 1002 C 93.9512 -1.41334 4.16789 0
M  V30 1003 H 91.0702 -0.0969531 0.730595 0
M  V30 1004 H 93.7122 0.448066 1.84641 0
M  V30 1005 H 91.8622 -1.21078 3.69151 0
M  V30 1006 H 93.5342 1.29285 4.42813 0
M  V30 1007 H 91.7772 1.28224 4.14416 0
M  V30 1008 H 92.4482 0.380944 5.50684 0
M  V30 1009 H 94.9242 -0.895597 4.06347 0
M  V30 1010 H 93.8002 -1.61127 5.24718 0
M  V30 1011 H 94.0612 -2.41146 3.70541 0
M  V30 1012 N 93.1203 -1.57491 0.0584922 0
M  V30 1013 C 94.3663 -1.93264 -0.614558 0
M  V30 1014 C 94.6993 -0.937717 -1.7006 0
M  V30 1015 O 93.9743 0.0351652 -1.94468 0
M  V30 1016 C 94.2573 -3.3938 -1.20386 0
M  V30 1017 C 94.1103 -4.49625 -0.125375 0
M  V30 1018 C 95.4293 -3.86039 -2.11334 0
M  V30 1019 H 92.5483 -0.702791 -0.221933 0
M  V30 1020 H 95.1903 -1.8961 0.12175 0
M  V30 1021 H 93.3403 -3.42626 -1.83139 0
M  V30 1022 H 95.0123 -4.58506 0.506971 0
M  V30 1023 H 93.2553 -4.30354 0.545672 0
M  V30 1024 H 93.9263 -5.48967 -0.577861 0
M  V30 1025 H 96.4023 -3.84716 -1.58534 0
M  V30 1026 H 95.2783 -4.88914 -2.49507 0
M  V30 1027 H 95.5393 -3.23215 -3.01636 0
M  V30 1028 N 94.5984 0.214957 -1.56127 0
M  V30 1029 C 95.8234 0.95924 -1.83884 0
M  V30 1030 C 96.2484 1.7689 -0.639644 0
M  V30 1031 O 95.6064 1.76566 0.411601 0
M  V30 1032 C 95.6544 1.84723 -3.09693 0
M  V30 1033 O 94.7584 2.94346 -2.8885 0
M  V30 1034 H 94.0994 0.27125 -0.606069 0
M  V30 1035 H 96.6294 0.226276 -2.03345 0
M  V30 1036 H 96.6394 2.25576 -3.39969 0
M  V30 1037 H 95.3144 1.25218 -3.96602 0
M  V30 1038 H 93.8914 2.57391 -2.69823 0
M  V30 1039 N 96.0765 1.50051 0.48192 0
M  V30 1040 C 97.3235 1.60498 1.23477 0
M  V30 1041 C 97.6515 0.300331 1.92167 0
M  V30 1042 O 96.9065 -0.713094 1.82246 0
M  V30 1043 C 97.2055 2.72717 2.30998 0
M  V30 1044 C 96.8715 4.13572 1.79636 0
M  V30 1045 C 95.5335 4.519 1.65348 0
M  V30 1046 C 97.8855 5.01649 1.41412 0
M  V30 1047 C 95.2135 5.76057 1.11244 0
M  V30 1048 C 97.5655 6.26343 0.887538 0
M  V30 1049 C 96.2295 6.63483 0.731207 0
M  V30 1050 H 95.4995 0.587303 0.451836 0
M  V30 1051 H 98.1465 1.83948 0.532468 0
M  V30 1052 H 96.4515 2.43312 3.07094 0
M  V30 1053 H 98.1485 2.78006 2.88988 0
M  V30 1054 H 94.7385 3.83329 1.91721 0
M  V30 1055 H 98.9225 4.72679 1.51289 0
M  V30 1056 H 94.1785 6.03516 0.978686 0
M  V30 1057 H 98.3525 6.93958 0.582654 0
M  V30 1058 H 95.9795 7.59568 0.309806 0
M  V30 1059 N 97.5546 -0.734337 1.39446 0
M  V30 1060 C 98.7846 -1.52137 1.39778 0
M  V30 1061 C 99.1926 -1.89198 -0.00929312 0
M  V30 1062 O 98.5356 -1.54666 -0.991168 0
M  V30 1063 C 98.5976 -2.83762 2.20724 0
M  V30 1064 C 98.2616 -2.69131 3.69347 0
M  V30 1065 C 99.2586 -2.37635 4.62413 0
M  V30 1066 C 96.9436 -2.85982 4.1294 0
M  V30 1067 C 98.9376 -2.23172 5.97054 0
M  V30 1068 C 96.6246 -2.71137 5.47657 0
M  V30 1069 C 97.6226 -2.39777 6.39528 0
M  V30 1070 O 97.3106 -2.25026 7.71763 0
M  V30 1071 H 97.0426 -0.476717 0.479288 0
M  V30 1072 H 99.5966 -0.915012 1.83893 0
M  V30 1073 H 97.8266 -3.4666 1.71359 0
M  V30 1074 H 99.5156 -3.45383 2.13226 0
M  V30 1075 H 100.282 -2.24267 4.30034 0
M  V30 1076 H 96.1606 -3.09383 3.41765 0
M  V30 1077 H 99.7046 -1.98617 6.68728 0
M  V30 1078 H 95.6016 -2.84083 5.79626 0
M  V30 1079 H 96.3696 -2.40091 7.82495 0
M  V30 1080 N 99.0327 -1.24633 -0.964593 0
M  V30 1081 C 99.9647 -0.999302 -2.06268 0
M  V30 1082 C 100.978 0.0323226 -1.62768 0
M  V30 1083 O 102.167 -0.205079 -1.77318 0
M  V30 1084 C 99.2667 -0.486816 -3.35385 0
M  V30 1085 C 98.4397 -1.5823 -4.07777 0
M  V30 1086 C 97.4987 -1.07191 -5.15166 0
M  V30 1087 O 96.5247 -1.76426 -5.41168 0
M  V30 1088 N 97.7267 0.0920373 -5.80427 0
M  V30 1089 H 100.492 -1.94477 -2.28033 0
M  V30 1090 H 98.0527 -1.15704 -1.13244 0
M  V30 1091 H 100.045 -0.130066 -4.04491 0
M  V30 1092 H 98.6147 0.364459 -3.10468 0
M  V30 1093 H 97.8347 -2.11109 -3.32906 0
M  V30 1094 H 99.1227 -2.31854 -4.52903 0
M  V30 1095 H 98.5207 0.670784 -5.61709 0
M  V30 1096 H 97.0777 0.389905 -6.50633 0
M  V30 1097 N 100.511 1.16574 -1.06058 0
M  V30 1098 C 101.757 1.87324 -0.777022 0
M  V30 1099 C 102.09 1.81351 0.694645 0
M  V30 1100 O 101.365 1.22753 1.50871 0
M  V30 1101 C 101.648 3.36991 -1.26922 0
M  V30 1102 C 101.501 3.51667 -2.80447 0
M  V30 1103 C 102.82 4.3131 -0.87521 0
M  V30 1104 H 99.9388 0.680191 -0.28374 0
M  V30 1105 H 102.581 1.37036 -1.3161 0
M  V30 1106 H 100.731 3.79949 -0.81063 0
M  V30 1107 H 102.403 3.17664 -3.34495 0
M  V30 1108 H 100.646 2.93656 -3.19294 0
M  V30 1109 H 101.317 4.56766 -3.0995 0
M  V30 1110 H 103.793 3.9624 -1.27014 0
M  V30 1111 H 102.669 5.34545 -1.2471 0
M  V30 1112 H 102.93 4.41552 0.220071 0
M  V30 1113 N 101.989 0.842826 1.3317 0
M  V30 1114 C 102.952 0.284065 2.27433 0
M  V30 1115 C 103.952 -0.54948 1.5112 0
M  V30 1116 O 105.142 -0.362699 1.70382 0
M  V30 1117 C 102.274 -0.599384 3.35589 0
M  V30 1118 H 103.467 1.11589 2.78366 0
M  V30 1119 H 101.02 0.616221 1.4364 0
M  V30 1120 H 101.755 -1.45349 2.89904 0
M  V30 1121 H 101.54 -0.00291266 3.921 0
M  V30 1122 H 103.03 -0.983488 4.05854 0
M  V30 1123 N 103.467 -1.45747 0.599634 0
M  V30 1124 C 104.43 -2.28917 -0.113835 0
M  V30 1125 C 105.43 -1.3933 -0.802729 0
M  V30 1126 O 106.62 -1.61534 -0.652103 0
M  V30 1127 C 103.752 -3.20152 -1.17114 0
M  V30 1128 H 104.945 -2.93478 0.617289 0
M  V30 1129 H 102.498 -1.52137 0.358327 0
M  V30 1130 H 103.233 -2.60374 -1.93329 0
M  V30 1131 H 103.018 -3.86133 -0.681468 0
M  V30 1132 H 104.508 -3.82708 -1.67105 0
M  V30 1133 N 104.945 -0.338344 -1.53925 0
M  V30 1134 C 105.875 0.51328 -2.27789 0
M  V30 1135 C 106.856 1.107 -1.29149 0
M  V30 1136 O 108.041 1.12937 -1.57984 0
M  V30 1137 C 105.171 1.66697 -3.04679 0
M  V30 1138 C 104.125 1.20183 -4.1078 0
M  V30 1139 C 103.451 2.44363 -4.75595 0
M  V30 1140 C 104.751 0.30605 -5.21403 0
M  V30 1141 H 106.445 -0.102883 -2.99223 0
M  V30 1142 H 103.991 -0.0509219 -1.4391 0
M  V30 1143 H 105.944 2.26915 -3.55088 0
M  V30 1144 H 104.668 2.30995 -2.30887 0
M  V30 1145 H 103.327 0.622499 -3.61276 0
M  V30 1146 H 102.975 3.07057 -3.98403 0
M  V30 1147 H 102.675 2.13925 -5.47275 0
M  V30 1148 H 104.199 3.05317 -5.28786 0
M  V30 1149 H 105.613 0.814929 -5.67478 0
M  V30 1150 H 104.01 0.0937929 -6.00027 0
M  V30 1151 H 105.08 -0.65921 -4.80398 0
M  V30 1152 N 106.423 1.57458 -0.0668435 0
M  V30 1153 C 107.355 2.09413 0.931601 0
M  V30 1154 C 108.368 1.02522 1.26464 0
M  V30 1155 O 109.557 1.30049 1.22269 0
M  V30 1156 C 106.657 2.53537 2.24882 0
M  V30 1157 C 105.83 3.83944 2.09537 0
M  V30 1158 C 104.889 4.14214 3.2452 0
M  V30 1159 O 103.915 4.83891 2.9973 0
M  V30 1160 N 105.117 3.67367 4.49469 0
M  V30 1161 H 107.882 2.95699 0.488048 0
M  V30 1162 H 105.443 1.61462 0.119009 0
M  V30 1163 H 107.435 2.70853 3.00701 0
M  V30 1164 H 106.005 1.72415 2.60753 0
M  V30 1165 H 105.225 3.76057 1.18215 0
M  V30 1166 H 106.513 4.69312 1.96529 0
M  V30 1167 H 105.911 3.11068 4.72497 0
M  V30 1168 H 104.468 3.89891 5.2233 0
M  V30 1169 N 107.901 -0.206675 1.56239 0
M  V30 1170 C 109.149 -0.927007 1.79586 0
M  V30 1171 C 109.47 -1.8427 0.637929 0
M  V30 1172 O 108.74 -1.92849 -0.344398 0
M  V30 1173 H 107.32 -0.345292 0.662407 0
M  V30 1174 H 109.982 -0.21496 1.93711 0
M  V30 1175 H 109.078 -1.52501 2.72305 0
M  V30 1176 N 109.379 -1.50304 -0.473955 0
M  V30 1177 C 110.656 -1.51667 -1.23518 0
M  V30 1178 C 111.036 -0.259701 -2.09496 0
M  V30 1179 O 110.384 0.756986 -2.15597 0
M  V30 1180 C 110.594 -2.81082 -2.06868 0
M  V30 1181 C 111.942 -3.31631 -2.65153 0
M  V30 1182 O 112.966 -2.82384 -2.17113 0
M  V30 1183 O 111.825 -4.17471 -3.52675 0
M  V30 1184 H 108.919 -0.60822 -0.560355 0
M  V30 1185 H 111.465 -1.62592 -0.486011 0
M  V30 1186 H 110.237 -3.64041 -1.4349 0
M  V30 1187 H 109.86 -2.73146 -2.88924 0
M  V30 1188 N 110.857 0.726932 -1.39834 0
M  V30 1189 C 111.787 1.85405 -1.41941 0
M  V30 1190 C 112.768 1.67751 -0.281728 0
M  V30 1191 O 113.953 1.8795 -0.488717 0
M  V30 1192 C 111.083 3.23243 -1.2701 0
M  V30 1193 C 110.037 3.55549 -2.38262 0
M  V30 1194 C 109.363 4.9241 -2.08415 0
M  V30 1195 C 110.663 3.577 -3.80589 0
M  V30 1196 H 112.357 1.83899 -2.36266 0
M  V30 1197 H 109.903 0.883349 -1.13723 0
M  V30 1198 H 111.856 4.01775 -1.27103 0
M  V30 1199 H 110.58 3.25296 -0.291564 0
M  V30 1200 H 109.239 2.79351 -2.37399 0
M  V30 1201 H 108.887 4.91052 -1.0898 0
M  V30 1202 H 108.587 5.14992 -2.82943 0
M  V30 1203 H 110.111 5.73289 -2.10171 0
M  V30 1204 H 111.525 4.26293 -3.83337 0
M  V30 1205 H 109.922 3.91804 -4.54543 0
M  V30 1206 H 110.992 2.57328 -4.10987 0
M  V30 1207 N 112.336 1.25143 0.95797 0
M  V30 1208 C 113.299 1.05321 2.03569 0
M  V30 1209 C 114.299 0.007152 1.60798 0
M  V30 1210 O 115.489 0.24903 1.72411 0
M  V30 1211 C 112.621 0.598394 3.35607 0
M  V30 1212 H 113.814 2.00986 2.22586 0
M  V30 1213 H 111.367 1.07502 1.13459 0
M  V30 1214 H 112.102 -0.361014 3.22284 0
M  V30 1215 H 111.887 1.35351 3.67998 0
M  V30 1216 H 113.377 0.48104 4.1482 0
M  V30 1217 N 113.814 -1.1601 1.06675 0
M  V30 1218 C 115.039 -1.91068 0.806706 0
M  V30 1219 C 115.464 -1.77112 -0.633485 0
M  V30 1220 O 114.822 -1.09908 -1.44187 0
M  V30 1221 C 114.87 -3.39655 1.21106 0
M  V30 1222 O 113.974 -4.10893 0.352189 0
M  V30 1223 H 113.315 -0.595125 0.294486 0
M  V30 1224 H 115.845 -1.46955 1.42356 0
M  V30 1225 H 115.855 -3.90434 1.18428 0
M  V30 1226 H 114.53 -3.49132 2.26008 0
M  V30 1227 H 113.107 -3.70285 0.440868 0
M  V30 1228 N 115.292 -0.849877 -1.32721 0
M  V30 1229 C 116.222 -0.306308 -2.31482 0
M  V30 1230 C 117.203 0.591952 -1.59468 0
M  V30 1231 O 118.388 0.513199 -1.87296 0
M  V30 1232 C 115.518 0.510204 -3.43532 0
M  V30 1233 C 114.472 -0.293209 -4.26994 0
M  V30 1234 C 113.798 0.647743 -5.30762 0
M  V30 1235 C 115.098 -1.51634 -4.99804 0
M  V30 1236 H 116.792 -1.13153 -2.77195 0
M  V30 1237 H 114.338 -0.545553 -1.33266 0
M  V30 1238 H 116.291 0.900856 -4.11658 0
M  V30 1239 H 115.015 1.36874 -2.96535 0
M  V30 1240 H 113.674 -0.665555 -3.60508 0
M  V30 1241 H 113.322 1.50299 -4.8002 0
M  V30 1242 H 113.022 0.11422 -5.87489 0
M  V30 1243 H 114.546 1.03567 -6.01753 0
M  V30 1244 H 115.96 -1.19824 -5.60638 0
M  V30 1245 H 114.357 -1.98745 -5.66234 0
M  V30 1246 H 115.427 -2.28018 -4.27943 0
M  V30 1247 N 116.77 1.45427 -0.607355 0
M  V30 1248 C 118.186 1.57283 -0.270985 0
M  V30 1249 C 118.386 1.59875 1.22647 0
M  V30 1250 O 117.442 1.52893 2.00948 0
M  V30 1251 C 118.755 2.85566 -0.941952 0
M  V30 1252 C 120.303 2.9924 -0.917849 0
M  V30 1253 C 120.778 4.30293 -1.56882 0
M  V30 1254 N 122.269 4.37051 -1.5343 0
M  V30 1255 C 123.004 5.37123 -2.00715 0
M  V30 1256 N 122.5 6.43734 -2.56084 0
M  V30 1257 N 124.293 5.28479 -1.91484 0
M  V30 1258 H 116.444 1.41988 -1.57966 0
M  V30 1259 H 118.707 0.67885 -0.661715 0
M  V30 1260 H 118.413 2.8955 -1.99633 0
M  V30 1261 H 118.287 3.74322 -0.465096 0
M  V30 1262 H 120.674 2.94822 0.127984 0
M  V30 1263 H 120.755 2.11895 -1.43297 0
M  V30 1264 H 120.399 4.35469 -2.61398 0
M  V30 1265 H 120.329 5.16454 -1.02873 0
M  V30 1266 H 122.82 3.60615 -1.12982 0
M  V30 1267 H 123.133 7.16341 -2.89958 0
M  V30 1268 H 121.478 6.44485 -2.60122 0
M  V30 1269 H 124.669 4.44098 -1.47967 0
M  V30 1270 H 124.842 6.0632 -2.28648 0
M  V30 1271 N 118.248 0.346503 1.53744 0
M  V30 1272 C 119.211 -0.496439 2.23759 0
M  V30 1273 C 120.211 -1.0252 1.2388 0
M  V30 1274 O 121.401 -0.913974 1.48297 0
M  V30 1275 C 118.533 -1.69187 2.95954 0
M  V30 1276 H 119.726 0.115952 2.99676 0
M  V30 1277 H 117.279 0.0978939 1.55993 0
M  V30 1278 H 118.014 -2.34288 2.24231 0
M  V30 1279 H 117.799 -1.31989 3.69217 0
M  V30 1280 H 119.289 -2.28969 3.49232 0
M  V30 1281 N 119.726 -1.57421 0.075193 0
M  V30 1282 C 120.636 -2.1642 -0.905511 0
M  V30 1283 C 121.652 -1.12828 -1.32461 0
M  V30 1284 O 122.828 -1.45109 -1.39661 0
M  V30 1285 C 119.893 -2.71693 -2.15369 0
M  V30 1286 C 118.954 -3.90171 -1.79068 0
M  V30 1287 C 118.187 -4.42798 -2.97936 0
M  V30 1288 O 118.41 -3.94416 -4.12058 0
M  V30 1289 O 117.344 -5.34085 -2.77555 0
M  V30 1290 H 121.17 -3.00588 -0.433626 0
M  V30 1291 H 118.755 -1.48664 -0.148067 0
M  V30 1292 H 120.637 -3.07104 -2.88557 0
M  V30 1293 H 119.312 -1.90582 -2.61649 0
M  V30 1294 H 118.219 -3.59606 -1.03122 0
M  V30 1295 H 119.552 -4.72584 -1.37569 0
M  V30 1296 N 121.204 0.198386 -1.56346 0
M  V30 1297 C 122.134 1.24865 -1.9731 0
M  V30 1298 C 123.115 1.47651 -0.844576 0
M  V30 1299 O 124.3 1.59444 -1.10866 0
M  V30 1300 C 121.43 2.59358 -2.30977 0
M  V30 1301 C 120.384 2.5119 -3.46537 0
M  V30 1302 C 119.71 3.89926 -3.65871 0
M  V30 1303 C 121.01 2.03977 -4.80823 0
M  V30 1304 H 122.704 0.908252 -2.85291 0
M  V30 1305 H 120.25 0.435462 -1.37258 0
M  V30 1306 H 122.203 3.33011 -2.58228 0
M  V30 1307 H 120.927 2.95132 -1.39874 0
M  V30 1308 H 119.586 1.79993 -3.19371 0
M  V30 1309 H 119.234 4.23046 -2.72105 0
M  V30 1310 H 118.934 3.85336 -4.4361 0
M  V30 1311 H 120.458 4.65205 -3.95495 0
M  V30 1312 H 121.872 2.67386 -5.07127 0
M  V30 1313 H 120.269 2.10397 -5.62008 0
M  V30 1314 H 121.339 0.992861 -4.74626 0
M  V30 1315 N 122.682 1.50554 0.465978 0
M  V30 1316 C 123.614 1.65949 1.58093 0
M  V30 1317 C 124.627 0.540827 1.53554 0
M  V30 1318 O 125.816 0.814187 1.5885 0
M  V30 1319 C 122.916 1.63261 2.96983 0
M  V30 1320 C 122.089 2.91245 3.26336 0
M  V30 1321 C 121.148 2.8113 4.44806 0
M  V30 1322 O 120.174 3.55086 4.44862 0
M  V30 1323 N 121.376 1.95032 5.46756 0
M  V30 1324 H 124.141 2.62122 1.45301 0
M  V30 1325 H 121.702 1.48082 0.65448 0
M  V30 1326 H 123.694 1.54101 3.74212 0
M  V30 1327 H 122.264 0.748032 3.03518 0
M  V30 1328 H 121.484 3.14493 2.37672 0
M  V30 1329 H 122.772 3.76022 3.42761 0
M  V30 1330 H 122.17 1.3427 5.49534 0
M  V30 1331 H 120.727 1.91772 6.2295 0
M  V30 1332 N 124.16 -0.719506 1.40217 0
M  V30 1333 C 125.408 -1.47641 1.3801 0
M  V30 1334 C 125.729 -1.94992 -0.018145 0
M  V30 1335 O 124.999 -1.70073 -0.972207 0
M  V30 1336 H 123.579 -0.547744 0.507923 0
M  V30 1337 H 126.241 -0.853187 1.75233 0
M  V30 1338 H 125.337 -2.35112 2.05253 0
M  V30 1339 N 125.638 -1.25649 -0.95132 0
M  V30 1340 C 126.588 -1.03004 -2.03406 0
M  V30 1341 C 127.572 0.034187 -1.60864 0
M  V30 1342 O 128.764 -0.181549 -1.76066 0
M  V30 1343 C 125.893 -0.654255 -3.37008 0
M  V30 1344 C 124.979 -1.75542 -3.86065 0
M  V30 1345 N 125.37 -2.99113 -4.07879 0
M  V30 1346 C 123.668 -1.63669 -4.14884 0
M  V30 1347 C 124.369 -3.70611 -4.48356 0
M  V30 1348 N 123.345 -2.98247 -4.54477 0
M  V30 1349 H 127.147 -1.96813 -2.1827 0
M  V30 1350 H 124.661 -1.16017 -1.13639 0
M  V30 1351 H 126.658 -0.473206 -4.14206 0
M  V30 1352 H 125.318 0.276468 -3.23521 0
M  V30 1353 H 126.329 -3.35124 -3.94857 0
M  V30 1354 H 123.006 -0.775161 -4.10241 0
M  V30 1355 H 124.396 -4.76695 -4.73509 0
M  V30 1356 N 127.117 1.15442 -1.07289 0
M  V30 1357 C 128.067 2.18164 -0.662467 0
M  V30 1358 C 129.051 1.57845 0.312074 0
M  V30 1359 O 130.243 1.76552 0.125905 0
M  V30 1360 C 127.372 3.43246 -0.0611295 0
M  V30 1361 C 126.458 4.1062 -1.06077 0
M  V30 1362 N 126.849 4.53491 -2.24008 0
M  V30 1363 C 125.147 4.36949 -0.893964 0
M  V30 1364 C 125.848 5.05731 -2.87422 0
M  V30 1365 N 124.824 4.99236 -2.15091 0
M  V30 1366 H 128.626 2.49038 -1.56068 0
M  V30 1367 H 126.14 1.32003 -0.945988 0
M  V30 1368 H 128.137 4.16145 0.250792 0
M  V30 1369 H 126.797 3.13854 0.832207 0
M  V30 1370 H 127.808 4.46898 -2.6173 0
M  V30 1371 H 124.485 4.17466 -0.0534693 0
M  V30 1372 H 125.875 5.48865 -3.87553 0
M  V30 1373 N 128.595 0.856903 1.32268 0
M  V30 1374 C 129.558 0.308171 2.27119 0
M  V30 1375 C 130.558 -0.533421 1.51695 0
M  V30 1376 O 131.748 -0.344607 1.70757 0
M  V30 1377 C 128.88 -0.563757 3.36206 0
M  V30 1378 H 130.073 1.14535 2.77167 0
M  V30 1379 H 127.626 0.631421 1.42978 0
M  V30 1380 H 128.361 -1.42266 2.91429 0
M  V30 1381 H 128.146 0.0386749 3.92081 0
M  V30 1382 H 129.636 -0.940386 4.06874 0
M  V30 1383 N 130.073 -1.45103 0.615059 0
M  V30 1384 C 130.983 -2.34382 -0.101034 0
M  V30 1385 C 131.999 -1.51681 -0.852585 0
M  V30 1386 O 133.175 -1.8446 -0.808484 0
M  V30 1387 C 130.24 -3.29417 -1.08099 0
M  V30 1388 C 129.301 -4.28025 -0.330577 0
M  V30 1389 C 128.534 -5.1852 -1.26385 0
M  V30 1390 O 128.757 -5.12598 -2.50198 0
M  V30 1391 O 127.691 -5.97122 -0.756866 0
M  V30 1392 H 131.517 -2.97033 0.632855 0
M  V30 1393 H 129.102 -1.4461 0.375293 0
M  V30 1394 H 130.984 -3.87958 -1.6452 0
M  V30 1395 H 129.659 -2.69321 -1.79577 0
M  V30 1396 H 128.566 -3.73078 0.276283 0
M  V30 1397 H 129.899 -4.90997 0.343866 0
M  V30 1398 N 131.551 -0.354651 -1.53558 0
M  V30 1399 C 132.498 0.496968 -2.25386 0
M  V30 1400 C 133.468 1.0865 -1.25636 0
M  V30 1401 O 134.653 1.12104 -1.54394 0
M  V30 1402 C 131.793 1.63637 -3.03837 0
M  V30 1403 C 130.906 1.07307 -4.18461 0
M  V30 1404 C 130.041 2.18068 -4.84376 0
M  V30 1405 C 129.08 1.59147 -5.91049 0
M  V30 1406 N 128.217 2.63695 -6.50699 0
M  V30 1407 H 133.057 -0.122075 -2.9775 0
M  V30 1408 H 130.594 -0.0720154 -1.46924 0
M  V30 1409 H 132.552 2.30734 -3.47589 0
M  V30 1410 H 131.182 2.22623 -2.33749 0
M  V30 1411 H 130.234 0.292708 -3.79272 0
M  V30 1412 H 131.546 0.602193 -4.95152 0
M  V30 1413 H 130.7 2.93007 -5.31255 0
M  V30 1414 H 129.439 2.68504 -4.07133 0
M  V30 1415 H 128.444 0.827175 -5.43542 0
M  V30 1416 H 129.669 1.09549 -6.70206 0
M  V30 1417 H 127.615 3.13365 -5.76315 0
M  V30 1418 H 127.532 2.21263 -7.22896 0
M  V30 1419 H 128.8 3.3837 -7.02229 0
M  V30 1420 N 133.029 1.57378 -0.0835403 0
M  V30 1421 C 133.959 2.1641 0.87686 0
M  V30 1422 C 134.94 1.09429 1.30228 0
M  V30 1423 O 136.125 1.37516 1.37124 0
M  V30 1424 C 133.255 2.73517 2.14022 0
M  V30 1425 C 132.209 3.85769 1.85381 0
M  V30 1426 C 131.535 4.29529 3.18448 0
M  V30 1427 C 132.835 5.09486 1.14984 0
M  V30 1428 H 134.529 2.96914 0.385059 0
M  V30 1429 H 132.075 1.42823 0.18377 0
M  V30 1430 H 134.028 3.13463 2.81636 0
M  V30 1431 H 132.752 1.90252 2.65465 0
M  V30 1432 H 131.411 3.46345 1.20169 0
M  V30 1433 H 131.059 3.43169 3.67755 0
M  V30 1434 H 130.759 5.05204 3.00071 0
M  V30 1435 H 132.283 4.72099 3.8724 0
M  V30 1436 H 133.697 5.46674 1.72687 0
M  V30 1437 H 132.094 5.90515 1.06826 0
M  V30 1438 H 133.164 4.84724 0.130749 0
M  V30 1439 N 134.507 -0.190092 1.56449 0
M  V30 1440 C 135.918 -0.754312 1.70784 0
M  V30 1441 C 136.269 -1.83631 0.690951 0
M  V30 1442 O 135.394 -2.15868 -0.151604 0
M  V30 1443 C 135.989 -1.37503 3.09642 0
M  V30 1444 C 134.548 -1.88628 3.25725 0
M  V30 1445 C 133.695 -0.758098 2.66736 0
M  V30 1446 H 136.646 0.0350524 1.58661 0
M  V30 1447 H 136.667 -2.2445 3.0725 0
M  V30 1448 H 136.179 -0.587302 3.83631 0
M  V30 1449 H 134.28 -2.70103 2.56661 0
M  V30 1450 H 134.393 -2.04462 4.3328 0
M  V30 1451 H 132.757 -1.17369 2.26046 0
M  V30 1452 H 133.54 0.0174705 3.43296 0
M  V30 1453 N 135.985 -1.50799 -0.457987 0
M  V30 1454 C 136.948 -1.7005 -1.53674 0
M  V30 1455 C 137.948 -0.570881 -1.50325 0
M  V30 1456 O 139.138 -0.838126 -1.52712 0
M  V30 1457 C 136.27 -1.73788 -2.93276 0
M  V30 1458 H 137.463 -2.66306 -1.37917 0
M  V30 1459 H 135.016 -1.40477 -0.685271 0
M  V30 1460 H 135.751 -0.792717 -3.14462 0
M  V30 1461 H 135.536 -2.55864 -2.97113 0
M  V30 1462 H 137.026 -1.90591 -3.71571 0
M  V30 1463 N 137.463 0.71206 -1.40597 0
M  V30 1464 C 138.711 1.46907 -1.38791 0
M  V30 1465 C 139.032 1.94998 0.00780391 0
M  V30 1466 O 138.302 1.70587 0.963174 0
M  V30 1467 H 136.882 0.545043 -0.51082 0
M  V30 1468 H 139.544 0.843882 -1.75683 0
M  V30 1469 H 138.64 2.34021 -2.06496 0
M  V30 1470 N 138.941 1.26152 0.944643 0
M  V30 1471 C 139.904 1.07474 2.0244 0
M  V30 1472 C 140.904 0.0242064 1.60782 0
M  V30 1473 O 142.094 0.267302 1.72137 0
M  V30 1474 C 139.226 0.633956 3.34953 0
M  V30 1475 H 140.419 2.03336 2.20442 0
M  V30 1476 H 137.972 1.087 1.12312 0
M  V30 1477 H 138.707 -0.326811 3.22649 0
M  V30 1478 H 138.492 1.39247 3.66542 0
M  V30 1479 H 139.982 0.52501 4.14287 0
M  V30 1480 N 140.419 -1.14872 1.07899 0
M  V30 1481 C 141.667 -1.85422 0.803941 0
M  V30 1482 C 141.988 -1.83051 -0.67211 0
M  V30 1483 O 141.258 -1.27532 -1.48703 0
M  V30 1484 H 139.838 -0.686537 0.294408 0
M  V30 1485 H 142.5 -1.39226 1.3639 0
M  V30 1486 H 141.596 -2.90399 1.14346 0
M  V30 1487 N 141.898 -0.863906 -1.31812 0
M  V30 1488 C 142.861 -0.320212 -2.26952 0
M  V30 1489 C 143.861 0.525369 -1.51975 0
M  V30 1490 O 145.051 0.335547 -1.70938 0
M  V30 1491 C 142.183 0.545919 -3.365 0
M  V30 1492 H 143.376 -1.16004 -2.76556 0
M  V30 1493 H 140.929 -0.638995 -1.42641 0
M  V30 1494 H 141.664 1.40718 -2.92179 0
M  V30 1495 H 141.449 -0.0594674 -3.92055 0
M  V30 1496 H 142.939 0.918796 -4.07367 0
M  V30 1497 N 143.376 1.44774 -0.622745 0
M  V30 1498 C 144.787 1.85546 -0.207226 0
M  V30 1499 C 145.138 1.52093 1.23944 0
M  V30 1500 O 144.263 0.95492 1.94191 0
M  V30 1501 C 144.858 3.36781 -0.369313 0
M  V30 1502 C 143.417 3.76399 -0.00836847 0
M  V30 1503 C 142.564 2.68664 -0.686651 0
M  V30 1504 H 145.515 1.3536 -0.828454 0
M  V30 1505 H 145.536 3.78453 0.394162 0
M  V30 1506 H 145.048 3.61098 -1.42231 0
M  V30 1507 H 143.149 3.57698 1.04322 0
M  V30 1508 H 143.262 4.7732 -0.412584 0
M  V30 1509 H 141.626 2.54404 -0.122777 0
M  V30 1510 H 142.409 2.95815 -1.74208 0
M  V30 1511 N 144.854 0.36279 1.53368 0
M  V30 1512 C 145.801 -0.485008 2.25646 0
M  V30 1513 C 146.771 -1.07982 1.2621 0
M  V30 1514 O 147.956 -1.11284 1.54986 0
M  V30 1515 C 145.096 -1.62023 3.04701 0
M  V30 1516 C 144.209 -1.05086 4.19024 0
M  V30 1517 C 143.344 -2.15496 4.85525 0
M  V30 1518 C 142.383 -1.5601 5.91884 0
M  V30 1519 N 141.52 -2.60241 6.52088 0
M  V30 1520 H 146.36 0.137864 2.97681 0
M  V30 1521 H 143.897 0.0798061 1.46883 0
M  V30 1522 H 145.855 -2.28887 3.48807 0
M  V30 1523 H 144.485 -2.2138 2.34927 0
M  V30 1524 H 143.537 -0.27259 3.79422 0
M  V30 1525 H 144.849 -0.575926 4.95464 0
M  V30 1526 H 144.003 -2.90186 5.32801 0
M  V30 1527 H 142.742 -2.66341 4.08551 0
M  V30 1528 H 141.747 -0.798338 5.43973 0
M  V30 1529 H 142.972 -1.05994 6.70777 0
M  V30 1530 H 140.918 -3.10304 5.77968 0
M  V30 1531 H 140.835 -2.17426 7.24059 0
M  V30 1532 H 142.103 -3.34641 7.04014 0
M  V30 1533 N 146.332 -1.57332 0.0918853 0
M  V30 1534 C 147.295 -2.12708 -0.85369 0
M  V30 1535 C 148.295 -1.05561 -1.213 0
M  V30 1536 O 149.485 -1.31461 -1.14296 0
M  V30 1537 C 146.617 -2.64503 -2.15061 0
M  V30 1538 H 147.81 -2.97573 -0.3729 0
M  V30 1539 H 145.363 -1.55509 -0.157072 0
M  V30 1540 H 146.098 -1.83149 -2.67632 0
M  V30 1541 H 145.883 -3.4284 -1.90272 0
M  V30 1542 H 147.373 -3.07351 -2.82711 0
M  V30 1543 N 147.81 0.181792 -1.56548 0
M  V30 1544 C 149.058 0.89832 -1.81038 0
M  V30 1545 C 149.379 1.83232 -0.667164 0
M  V30 1546 O 148.649 1.93372 0.313673 0
M  V30 1547 H 147.229 0.33471 -0.667816 0
M  V30 1548 H 149.891 0.184116 -1.94028 0
M  V30 1549 H 148.987 1.4815 -2.74696 0
M  V30 1550 N 149.288 1.51039 0.449983 0
M  V30 1551 C 150.218 1.74379 1.55288 0
M  V30 1552 C 151.199 0.593236 1.5942 0
M  V30 1553 O 152.384 0.834625 1.7535 0
M  V30 1554 C 149.514 1.85728 2.93466 0
M  V30 1555 C 148.468 3.01078 3.04197 0
M  V30 1556 C 147.794 2.97595 4.44231 0
M  V30 1557 C 149.094 4.41254 2.7945 0
M  V30 1558 H 150.788 2.66725 1.36008 0
M  V30 1559 H 148.334 1.2835 0.652864 0
M  V30 1560 H 150.287 2.0064 3.70569 0
M  V30 1561 H 149.011 0.900207 3.13949 0
M  V30 1562 H 147.67 2.85851 2.29531 0
M  V30 1563 H 147.318 1.99691 4.61663 0
M  V30 1564 H 147.018 3.75046 4.52343 0
M  V30 1565 H 148.542 3.14583 5.23326 0
M  V30 1566 H 149.956 4.56897 3.46292 0
M  V30 1567 H 148.353 5.20315 2.98985 0
M  V30 1568 H 149.423 4.52164 1.75144 0
M  V30 1569 N 150.766 -0.704594 1.40972 0
M  V30 1570 C 151.676 -1.84856 1.44448 0
M  V30 1571 C 152.692 -1.70726 0.335961 0
M  V30 1572 O 153.868 -1.92799 0.582276 0
M  V30 1573 C 150.933 -3.20758 1.31587 0
M  V30 1574 C 149.994 -3.47063 2.52677 0
M  V30 1575 C 149.227 -4.76481 2.4042 0
M  V30 1576 O 149.45 -5.52341 1.42391 0
M  V30 1577 O 148.384 -5.03367 3.30007 0
M  V30 1578 H 152.21 -1.8488 2.40942 0
M  V30 1579 H 149.795 -0.85647 1.22413 0
M  V30 1580 H 151.677 -4.01913 1.26665 0
M  V30 1581 H 150.352 -3.21438 0.382049 0
M  V30 1582 H 149.259 -2.65873 2.63177 0
M  V30 1583 H 150.592 -3.5119 3.44858 0
M  V30 1584 N 152.244 -1.26651 -0.937939 0
M  V30 1585 C 153.154 -1.10276 -2.07066 0
M  V30 1586 C 154.17 -0.0354197 -1.73964 0
M  V30 1587 O 155.346 -0.239816 -1.99967 0
M  V30 1588 C 152.411 -0.740887 -3.38691 0
M  V30 1589 C 151.472 -1.88799 -3.85556 0
M  V30 1590 C 150.705 -1.54329 -5.10899 0
M  V30 1591 O 150.928 -0.446494 -5.6865 0
M  V30 1592 O 149.862 -2.37911 -5.52885 0
M  V30 1593 H 153.688 -2.05309 -2.23789 0
M  V30 1594 H 151.273 -1.05743 -1.0554 0
M  V30 1595 H 153.155 -0.55195 -4.1777 0
M  V30 1596 H 151.83 0.180022 -3.23199 0
M  V30 1597 H 150.737 -2.13191 -3.07409 0
M  V30 1598 H 152.07 -2.78874 -4.05574 0
M  V30 1599 N 153.722 1.14298 -1.08507 0
M  V30 1600 C 154.685 2.17607 -0.719711 0
M  V30 1601 C 155.685 1.58907 0.245997 0
M  V30 1602 O 156.875 1.74181 0.0254081 0
M  V30 1603 C 154.007 3.40842 -0.0627695 0
M  V30 1604 H 155.2 2.51443 -1.63452 0
M  V30 1605 H 152.753 1.28963 -0.88307 0
M  V30 1606 H 153.488 3.12587 0.863716 0
M  V30 1607 H 153.273 3.84713 -0.757504 0
M  V30 1608 H 154.763 4.17221 0.177786 0
M  V30 1609 N 155.201 0.870884 1.31352 0
M  V30 1610 C 156.612 0.534714 1.78879 0
M  V30 1611 C 156.963 -0.948423 1.71754 0
M  V30 1612 O 156.088 -1.74055 1.28584 0
M  V30 1613 C 156.683 0.963839 3.24801 0
M  V30 1614 C 155.242 0.679311 3.70219 0
M  V30 1615 C 154.389 1.15465 2.52117 0
M  V30 1616 H 157.34 1.05651 1.18421 0
M  V30 1617 H 157.361 0.286892 3.79417 0
M  V30 1618 H 156.873 2.04332 3.29955 0
M  V30 1619 H 154.974 -0.388769 3.70566 0
M  V30 1620 H 155.087 1.25698 4.62317 0
M  V30 1621 H 153.451 0.574383 2.48139 0
M  V30 1622 H 154.234 2.24157 2.60016 0
M  V30 1623 N 156.679 -1.44442 0.630414 0
M  V30 1624 C 157.642 -2.29107 -0.0652523 0
M  V30 1625 C 158.642 -1.41002 -0.772995 0
M  V30 1626 O 159.832 -1.62881 -0.617692 0
M  V30 1627 C 156.964 -3.22564 -1.10296 0
M  V30 1628 H 158.157 -2.92103 0.679401 0
M  V30 1629 H 155.71 -1.51343 0.390517 0
M  V30 1630 H 156.445 -2.64416 -1.87762 0
M  V30 1631 H 156.23 -3.87491 -0.59941 0
M  V30 1632 H 157.72 -3.86167 -1.5895 0
M  V30 1633 N 158.157 -0.370918 -1.53173 0
M  V30 1634 C 159.403 0.217423 -2.01631 0
M  V30 1635 C 159.736 1.47983 -1.25756 0
M  V30 1636 O 159.011 1.91274 -0.352764 0
M  V30 1637 C 159.294 0.503982 -3.56556 0
M  V30 1638 C 159.147 -0.77243 -4.43118 0
M  V30 1639 C 160.466 1.30234 -4.20389 0
M  V30 1640 H 157.585 0.0775486 -0.732909 0
M  V30 1641 H 160.227 -0.496863 -1.83388 0
M  V30 1642 H 158.377 1.11248 -3.72231 0
M  V30 1643 H 160.049 -1.4098 -4.39229 0
M  V30 1644 H 158.292 -1.39167 -4.10871 0
M  V30 1645 H 158.963 -0.526815 -5.4948 0
M  V30 1646 H 161.439 0.787546 -4.08579 0
M  V30 1647 H 160.315 1.47158 -5.28806 0
M  V30 1648 H 160.576 2.31237 -3.76805 0
M  V30 1649 N 159.635 1.57281 -0.100228 0
M  V30 1650 C 160.863 1.98879 0.570509 0
M  V30 1651 C 161.278 0.979476 1.61405 0
M  V30 1652 O 160.635 -0.0302288 1.82475 0
M  V30 1653 C 160.686 3.4052 1.2136 0
M  V30 1654 O 160.407 4.37588 0.211786 0
M  V30 1655 C 161.908 3.97149 1.96945 0
M  V30 1656 H 159.128 0.653428 0.152555 0
M  V30 1657 H 161.672 2.03697 -0.18103 0
M  V30 1658 H 159.827 3.367 1.91603 0
M  V30 1659 H 160.241 5.20118 0.676607 0
M  V30 1660 H 161.715 4.98393 2.37294 0
M  V30 1661 H 162.192 3.3525 2.83733 0
M  V30 1662 H 162.798 4.04458 1.31506 0
M  V30 1663 N 161.113 -0.173488 1.56642 0
M  V30 1664 C 162.076 -1.19859 1.95362 0
M  V30 1665 C 163.076 -1.37296 0.83704 0
M  V30 1666 O 164.266 -1.34739 1.10413 0
M  V30 1667 C 161.398 -2.56405 2.24654 0
M  V30 1668 H 162.591 -0.867062 2.87092 0
M  V30 1669 H 160.144 -0.415853 1.50666 0
M  V30 1670 H 160.879 -2.94576 1.35631 0
M  V30 1671 H 160.664 -2.45115 3.06041 0
M  V30 1672 H 162.154 -3.30287 2.5554 0
M  V30 1673 N 162.591 -1.51276 -0.441967 0
M  V30 1674 C 163.839 -1.63392 -1.18943 0
M  V30 1675 C 164.16 -0.350159 -1.9183 0
M  V30 1676 O 163.43 0.633784 -1.85364 0
M  V30 1677 H 162.01 -0.602164 -0.442049 0
M  V30 1678 H 164.672 -1.88186 -0.507165 0
M  V30 1679 H 163.768 -2.45934 -1.92154 0
M  V30 1680 N 164.069 0.697108 -1.41344 0
M  V30 1681 C 164.999 1.82353 -1.45841 0
M  V30 1682 C 165.98 1.67115 -0.317247 0
M  V30 1683 O 167.165 1.86871 -0.528474 0
M  V30 1684 C 164.295 3.20476 -1.33838 0
M  V30 1685 C 163.249 3.50415 -2.4575 0
M  V30 1686 C 162.575 4.87878 -2.18813 0
M  V30 1687 C 163.875 3.49546 -3.88091 0
M  V30 1688 H 165.569 1.78846 -2.40113 0
M  V30 1689 H 163.115 0.859028 -1.15571 0
M  V30 1690 H 165.068 3.98988 -1.35596 0
M  V30 1691 H 163.792 3.24604 -0.360498 0
M  V30 1692 H 162.451 2.74253 -2.43271 0
M  V30 1693 H 162.099 4.8863 -1.19371 0
M  V30 1694 H 161.799 5.08875 -2.93803 0
M  V30 1695 H 163.323 5.68702 -2.22284 0
M  V30 1696 H 164.737 4.18066 -3.92293 0
M  V30 1697 H 163.134 3.82075 -4.62751 0
M  V30 1698 H 164.204 2.48552 -4.16353 0
M  V30 1699 N 165.547 1.27147 0.931209 0
M  V30 1700 C 166.494 1.09568 2.03134 0
M  V30 1701 C 167.464 -0.00222433 1.661 0
M  V30 1702 O 168.649 0.159439 1.90133 0
M  V30 1703 C 165.789 0.745231 3.36957 0
M  V30 1704 C 164.902 1.92041 3.86968 0
M  V30 1705 C 164.037 1.51216 5.09222 0
M  V30 1706 C 163.076 2.65504 5.5152 0
M  V30 1707 N 162.213 2.25291 6.64972 0
M  V30 1708 H 167.053 2.03708 2.17502 0
M  V30 1709 H 164.59 1.01411 1.06556 0
M  V30 1710 H 166.548 0.522878 4.1391 0
M  V30 1711 H 165.178 -0.159202 3.22407 0
M  V30 1712 H 164.23 2.25541 3.06326 0
M  V30 1713 H 165.542 2.77787 4.1429 0
M  V30 1714 H 164.696 1.25084 5.93666 0
M  V30 1715 H 163.435 0.625749 4.83669 0
M  V30 1716 H 162.44 2.92354 4.65628 0
M  V30 1717 H 163.665 3.54761 5.7907 0
M  V30 1718 H 161.611 1.39098 6.41083 0
M  V30 1719 H 161.528 3.04577 6.91931 0
M  V30 1720 H 162.796 2.02398 7.52765 0
M  V30 1721 N 167.025 -1.13721 1.09112 0
M  V30 1722 C 168.274 -1.84275 0.82009 0
M  V30 1723 C 168.587 -1.84253 -0.656509 0
M  V30 1724 O 169.793 -2.50668 -1.04296 0
M  V30 1725 C 168.249 -3.30825 1.41714 0
M  V30 1726 C 167.857 -3.39244 2.92605 0
M  V30 1727 C 169.601 -4.06443 1.22492 0
M  V30 1728 C 167.508 -4.80047 3.45411 0
M  V30 1729 H 166.438 -0.690387 0.30312 0
M  V30 1730 H 169.089 -1.28146 1.31343 0
M  V30 1731 H 167.471 -3.86737 0.851498 0
M  V30 1732 H 168.645 -2.93344 3.55367 0
M  V30 1733 H 166.96 -2.77088 3.10823 0
M  V30 1734 H 169.557 -5.10387 1.59402 0
M  V30 1735 H 169.9 -4.15972 0.165299 0
M  V30 1736 H 170.433 -3.56852 1.75788 0
M  V30 1737 H 167.172 -4.75709 4.50978 0
M  V30 1738 H 166.692 -5.26455 2.87411 0
M  V30 1739 H 168.371 -5.48957 3.42425 0
M  V30 1740 N 168.503 -0.877838 -1.30888 0
M  V30 1741 C 169.75 -0.492696 -1.96415 0
M  V30 1742 C 170.078 0.956671 -1.69346 0
M  V30 1743 O 169.333 1.68993 -0.986913 0
M  V30 1744 C 169.632 -0.705748 -3.50363 0
M  V30 1745 C 169.298 -2.1291 -3.97467 0
M  V30 1746 C 167.96 -2.51834 -4.1004 0
M  V30 1747 C 170.312 -3.05702 -4.22132 0
M  V30 1748 C 167.64 -3.82775 -4.44635 0
M  V30 1749 C 169.992 -4.36166 -4.58194 0
M  V30 1750 C 168.656 -4.74993 -4.68975 0
M  V30 1751 H 167.926 -0.18029 -0.718733 0
M  V30 1752 H 170.573 -1.11233 -1.55883 0
M  V30 1753 H 168.878 -0.00303058 -3.918 0
M  V30 1754 H 170.575 -0.387456 -3.99124 0
M  V30 1755 H 167.165 -1.81694 -3.88182 0
M  V30 1756 H 171.349 -2.76853 -4.11906 0
M  V30 1757 H 166.605 -4.12609 -4.51181 0
M  V30 1758 H 170.779 -5.08111 -4.76231 0
M  V30 1759 H 168.406 -5.76495 -4.95537 0
M  V30 1760 N 169.982 1.44106 -0.638065 0
M  V30 1761 C 170.892 2.34513 0.0637334 0
M  V30 1762 C 171.908 1.53018 0.828346 0
M  V30 1763 O 173.084 1.85723 0.779036 0
M  V30 1764 C 170.149 3.31095 1.02844 0
M  V30 1765 C 169.21 4.28497 0.26244 0
M  V30 1766 C 168.443 5.20465 1.1812 0
M  V30 1767 O 168.666 5.16514 2.42011 0
M  V30 1768 O 167.6 5.98251 0.661774 0
M  V30 1769 H 171.426 2.95989 -0.68003 0
M  V30 1770 H 169.011 1.43994 -0.398252 0
M  V30 1771 H 170.893 3.90526 1.58327 0
M  V30 1772 H 169.568 2.72144 1.7527 0
M  V30 1773 H 168.475 3.72592 -0.335602 0
M  V30 1774 H 169.808 4.90388 -0.421936 0
M  V30 1775 N 171.46 0.379036 1.52974 0
M  V30 1776 C 172.871 -0.0972525 1.86447 0
M  V30 1777 C 173.222 -1.47027 1.29914 0
M  V30 1778 O 172.347 -2.07135 0.626433 0
M  V30 1779 C 172.942 -0.183248 3.38304 0
M  V30 1780 C 171.501 -0.603812 3.71525 0
M  V30 1781 C 170.648 0.240632 2.76254 0
M  V30 1782 H 173.599 0.597316 1.4703 0
M  V30 1783 H 173.62 -1.00432 3.67006 0
M  V30 1784 H 173.132 0.816191 3.79421 0
M  V30 1785 H 171.233 -1.61099 3.35973 0
M  V30 1786 H 171.346 -0.369086 4.77676 0
M  V30 1787 H 169.71 -0.292548 2.53014 0
M  V30 1788 H 170.493 1.23786 3.20206 0
M  V30 1789 N 172.938 -1.57226 0.108567 0
M  V30 1790 C 174.349 -1.8195 -0.418464 0
M  V30 1791 C 174.7 -1.02508 -1.67292 0
M  V30 1792 O 173.825 -0.258496 -2.14851 0
M  V30 1793 C 174.42 -3.30028 -0.765979 0
M  V30 1794 C 172.979 -3.55469 -1.23769 0
M  V30 1795 C 172.126 -2.7625 -0.241106 0
M  V30 1796 H 175.077 -1.55149 0.33384 0
M  V30 1797 H 175.098 -3.44086 -1.62434 0
M  V30 1798 H 174.61 -3.87821 0.147219 0
M  V30 1799 H 172.711 -3.03022 -2.16814 0
M  V30 1800 H 172.824 -4.6408 -1.19022 0
M  V30 1801 H 171.188 -2.44133 -0.72602 0
M  V30 1802 H 171.971 -3.36797 0.665007 0
M  V30 1803 N 174.416 0.165178 -1.56732 0
M  V30 1804 C 175.379 1.18822 -1.95995 0
M  V30 1805 C 176.379 1.3685 -0.84431 0
M  V30 1806 O 177.569 1.34152 -1.11126 0
M  V30 1807 C 174.701 2.5521 -2.26011 0
M  V30 1808 H 175.894 0.851825 -2.87548 0
M  V30 1809 H 173.447 0.407857 -1.50885 0
M  V30 1810 H 174.182 2.93852 -1.37191 0
M  V30 1811 H 173.967 2.43489 -3.07336 0
M  V30 1812 H 175.457 3.28927 -2.57288 0
M  V30 1813 N 175.894 1.51508 0.433938 0
M  V30 1814 C 177.305 1.56784 1.01369 0
M  V30 1815 C 177.656 0.393349 1.92217 0
M  V30 1816 O 176.781 -0.489441 2.10792 0
M  V30 1817 C 177.376 2.84144 1.8452 0
M  V30 1818 C 175.935 2.9198 2.37539 0
M  V30 1819 C 175.082 2.51482 1.16843 0
M  V30 1820 H 178.033 1.57236 0.215081 0
M  V30 1821 H 178.054 2.68098 2.70007 0
M  V30 1822 H 177.566 3.69607 1.18373 0
M  V30 1823 H 175.667 2.10955 3.0713 0
M  V30 1824 H 175.78 3.95704 2.70103 0
M  V30 1825 H 174.144 2.04758 1.51481 0
M  V30 1826 H 174.927 3.39293 0.523015 0
M  V30 1827 N 177.372 -0.689602 1.41712 0
M  V30 1828 C 178.62 -1.4468 1.4111 0
M  V30 1829 C 178.941 -1.94986 0.0232196 0
M  V30 1830 O 178.211 -1.72097 -0.935913 0
M  V30 1831 H 176.791 -0.536847 0.519427 0
M  V30 1832 H 179.453 -0.815825 1.77004 0
M  V30 1833 H 178.549 -2.30706 2.10193 0
M  V30 1834 N 178.85 -1.27639 -0.924453 0
M  V30 1835 C 179.76 -1.12466 -2.05885 0
M  V30 1836 C 180.776 -0.053869 -1.73917 0
M  V30 1837 O 181.952 -0.261012 -1.99702 0
M  V30 1838 C 179.017 -0.776768 -3.37886 0
M  V30 1839 C 178.078 -1.92878 -3.83532 0
M  V30 1840 C 177.311 -1.59739 -5.09234 0
M  V30 1841 O 177.534 -0.506782 -5.68144 0
M  V30 1842 O 176.468 -2.43761 -5.50331 0
M  V30 1843 H 180.294 -2.07671 -2.21599 0
M  V30 1844 H 177.879 -1.06857 -1.04413 0
M  V30 1845 H 179.761 -0.596229 -4.17161 0
M  V30 1846 H 178.436 0.145732 -3.23372 0
M  V30 1847 H 177.343 -2.1644 -3.0513 0
M  V30 1848 H 178.676 -2.8316 -4.02593 0
M  V30 1849 N 180.328 1.1314 -1.09713 0
M  V30 1850 C 181.576 1.84119 -0.833338 0
M  V30 1851 C 181.897 1.84097 0.642904 0
M  V30 1852 O 181.167 1.29881 1.46655 0
M  V30 1853 H 179.747 0.681766 -0.305293 0
M  V30 1854 H 182.409 1.37038 -1.38588 0
M  V30 1855 H 181.505 2.88543 -1.18951 0
M  V30 1856 N 181.806 0.884767 1.30421 0
M  V30 1857 C 182.754 0.340869 2.30089 0
M  V30 1858 C 183.748 -0.55201 1.60154 0
M  V30 1859 O 184.954 -0.436467 1.74628 0
M  V30 1860 H 181.329 0.0915739 0.746404 0
M  V30 1861 H 183.3 1.19513 2.73421 0
M  V30 1862 C 182.049 -0.429779 3.45034 0
M  V30 1863 H 181.372 0.248024 3.9903 0
M  V30 1864 H 182.812 -0.775445 4.16849 0
M  V30 1865 C 181.271 -1.62677 2.95022 0
M  V30 1866 O 181.801 -2.72614 2.95033 0
M  V30 1867 N 180.007 -1.46387 2.51036 0
M  V30 1868 H 179.554 -0.569506 2.51226 0
M  V30 1869 H 179.512 -2.26612 2.17932 0
M  V30 1870 N 183.284 -1.43765 0.645699 0
M  V30 1871 C 184.509 -2.06767 0.161883 0
M  V30 1872 C 184.934 -1.48034 -1.16049 0
M  V30 1873 O 184.292 -0.587369 -1.71522 0
M  V30 1874 C 184.34 -3.60519 0.0762003 0
M  V30 1875 O 183.444 -4.00982 -0.963721 0
M  V30 1876 H 182.785 -0.657675 0.091429 0
M  V30 1877 H 185.315 -1.84397 0.886499 0
M  V30 1878 H 185.325 -4.07853 -0.109604 0
M  V30 1879 H 184 -4.02646 1.04157 0
M  V30 1880 H 182.577 -3.65253 -0.751312 0
M  V30 1881 N 184.763 -0.387143 -1.52771 0
M  V30 1882 C 185.988 0.198407 -2.06449 0
M  V30 1883 C 186.413 1.39918 -1.25716 0
M  V30 1884 O 185.771 1.79099 -0.281657 0
M  V30 1885 C 185.819 0.548893 -3.56398 0
M  V30 1886 O 184.923 1.64315 -3.78252 0
M  V30 1887 H 184.264 0.0237731 -0.663574 0
M  V30 1888 H 186.794 -0.553989 -1.96957 0
M  V30 1889 H 186.804 0.813812 -3.99801 0
M  V30 1890 H 185.479 -0.329005 -4.14597 0
M  V30 1891 H 184.056 1.37211 -3.46738 0
M  V30 1892 N 186.241 1.57166 -0.116904 0
M  V30 1893 C 187.173 2.12271 0.864507 0
M  V30 1894 C 188.186 1.06494 1.23138 0
M  V30 1895 O 189.375 1.33873 1.18069 0
M  V30 1896 C 186.475 2.60564 2.16702 0
M  V30 1897 C 185.648 3.90416 1.97216 0
M  V30 1898 C 184.707 4.24329 3.11178 0
M  V30 1899 O 183.733 4.93182 2.84184 0
M  V30 1900 N 184.935 3.8148 4.37554 0
M  V30 1901 H 187.7 2.97102 0.393726 0
M  V30 1902 H 185.261 1.61759 0.0675805 0
M  V30 1903 H 187.253 2.80282 2.91932 0
M  V30 1904 H 185.823 1.80623 2.55135 0
M  V30 1905 H 185.043 3.79627 1.06192 0
M  V30 1906 H 186.331 4.75327 1.81499 0
M  V30 1907 H 185.729 3.25943 4.62361 0
M  V30 1908 H 184.286 4.06311 5.09661 0
M  V30 1909 N 187.719 -0.156864 1.56817 0
M  V30 1910 C 188.667 -1.21319 1.98455 0
M  V30 1911 C 189.661 -1.45025 0.875444 0
M  V30 1912 O 190.867 -1.45435 1.0606 0
M  V30 1913 H 187.242 -0.408142 0.631605 0
M  V30 1914 H 189.213 -0.835244 2.86472 0
M  V30 1915 C 187.962 -2.54148 2.37285 0
M  V30 1916 H 187.285 -2.36733 3.22176 0
M  V30 1917 H 188.725 -3.26712 2.70251 0
M  V30 1918 C 187.184 -3.13967 1.22173 0
M  V30 1919 O 187.714 -3.98357 0.517149 0
M  V30 1920 N 185.92 -2.7327 0.988536 0
M  V30 1921 H 185.467 -2.04744 1.56326 0
M  V30 1922 H 185.425 -3.13628 0.220209 0
M  V30 1923 N 189.197 -1.51736 -0.425897 0
M  V30 1924 C 190.422 -1.69082 -1.20108 0
M  V30 1925 C 190.847 -0.392398 -1.83962 0
M  V30 1926 O 190.205 0.64858 -1.69302 0
M  V30 1927 C 190.253 -2.81604 -2.25237 0
M  V30 1928 O 189.357 -2.46004 -3.30992 0
M  V30 1929 H 188.698 -0.563408 -0.35138 0
M  V30 1930 H 191.228 -1.98358 -0.501512 0
M  V30 1931 H 191.238 -3.06025 -2.69838 0
M  V30 1932 H 189.913 -3.75817 -1.78142 0
M  V30 1933 H 188.49 -2.32195 -2.91787 0
M  V30 1934 N 190.675 0.682077 -1.42076 0
M  V30 1935 C 192.091 0.994324 -1.24841 0
M  V30 1936 C 192.291 2.0096 -0.147389 0
M  V30 1937 O 191.347 2.47822 0.483782 0
M  V30 1938 C 192.66 1.50607 -2.60265 0
M  V30 1939 C 194.208 1.62421 -2.6756 0
M  V30 1940 C 194.683 2.16994 -4.03333 0
M  V30 1941 N 196.174 2.24337 -4.0525 0
M  V30 1942 C 196.909 2.67621 -5.07116 0
M  V30 1943 N 196.405 3.1041 -6.19368 0
M  V30 1944 N 198.198 2.67305 -4.94474 0
M  V30 1945 H 190.349 0.00973908 -2.12398 0
M  V30 1946 H 192.612 0.0668593 -0.945639 0
M  V30 1947 H 192.318 0.834583 -3.41654 0
M  V30 1948 H 192.192 2.48602 -2.83684 0
M  V30 1949 H 194.579 2.28678 -1.86521 0
M  V30 1950 H 194.66 0.629352 -2.47937 0
M  V30 1951 H 194.304 1.51349 -4.84826 0
M  V30 1952 H 194.234 3.17258 -4.20304 0
M  V30 1953 H 196.725 1.94158 -3.24209 0
M  V30 1954 H 197.038 3.42103 -6.92954 0
M  V30 1955 H 195.383 3.08286 -6.22884 0
M  V30 1956 H 198.574 2.33233 -4.05857 0
M  V30 1957 H 198.747 3.00718 -5.73997 0
M  V30 1958 N 192.153 1.28127 0.917671 0
M  V30 1959 C 193.101 1.11569 2.04096 0
M  V30 1960 C 194.095 0.0360242 1.69362 0
M  V30 1961 O 195.301 0.194501 1.78946 0
M  V30 1962 H 191.676 0.344097 0.668656 0
M  V30 1963 H 193.647 2.06711 2.15205 0
M  V30 1964 C 192.396 0.790197 3.38602 0
M  V30 1965 H 191.719 1.61293 3.6582 0
M  V30 1966 H 193.159 0.714271 4.1794 0
M  V30 1967 C 191.618 -0.505897 3.3308 0
M  V30 1968 O 192.148 -1.53736 3.71117 0
M  V30 1969 N 190.354 -0.505193 2.86175 0
M  V30 1970 H 189.901 0.334621 2.55417 0
M  V30 1971 H 189.859 -1.37243 2.82863 0
M  V30 1972 N 193.631 -1.12557 1.10312 0
M  V30 1973 C 194.578 -2.18247 0.750781 0
M  V30 1974 C 195.548 -1.63853 -0.272293 0
M  V30 1975 O 196.733 -1.90195 -0.151862 0
M  V30 1976 C 193.873 -3.44591 0.187379 0
M  V30 1977 C 192.986 -4.13046 1.2656 0
M  V30 1978 C 192.121 -5.27034 0.663978 0
M  V30 1979 C 191.16 -5.87353 1.72287 0
M  V30 1980 N 190.297 -6.92757 1.1416 0
M  V30 1981 H 195.137 -2.47732 1.65628 0
M  V30 1982 H 192.674 -1.21629 0.827337 0
M  V30 1983 H 194.632 -4.16904 -0.157148 0
M  V30 1984 H 193.262 -3.15527 -0.681355 0
M  V30 1985 H 192.314 -3.38924 1.72727 0
M  V30 1986 H 193.626 -4.53947 2.06721 0
M  V30 1987 H 192.78 -6.06104 0.268824 0
M  V30 1988 H 191.519 -4.87407 -0.169082 0
M  V30 1989 H 190.524 -5.06971 2.12746 0
M  V30 1990 H 191.749 -6.29051 2.55875 0
M  V30 1991 H 189.695 -6.5517 0.329984 0
M  V30 1992 H 189.612 -7.3225 1.88007 0
M  V30 1993 H 190.88 -7.75658 0.772956 0
M  V30 1994 N 195.109 -0.891671 -1.2995 0
M  V30 1995 C 196.525 -0.58662 -1.48428 0
M  V30 1996 C 196.725 0.873951 -1.81561 0
M  V30 1997 O 195.781 1.65471 -1.90724 0
M  V30 1998 C 197.094 -1.50553 -2.60296 0
M  V30 1999 C 198.642 -1.50988 -2.74175 0
M  V30 2000 C 199.117 -2.41488 -3.89163 0
M  V30 2001 N 200.608 -2.39489 -3.96483 0
M  V30 2002 C 201.343 -3.06223 -4.84784 0
M  V30 2003 N 200.839 -3.82206 -5.77833 0
M  V30 2004 N 202.632 -2.95421 -4.78208 0
M  V30 2005 H 194.783 -1.83644 -1.06718 0
M  V30 2006 H 197.046 -0.786455 -0.529332 0
M  V30 2007 H 196.752 -2.54581 -2.42654 0
M  V30 2008 H 196.626 -1.22008 -3.56923 0
M  V30 2009 H 199.013 -0.47708 -2.91218 0
M  V30 2010 H 199.094 -1.83567 -1.78148 0
M  V30 2011 H 198.738 -3.44857 -3.72876 0
M  V30 2012 H 198.668 -2.06222 -4.84541 0
M  V30 2013 H 201.159 -1.84278 -3.29924 0
M  V30 2014 H 201.472 -4.302 -6.41988 0
M  V30 2015 H 199.817 -3.86313 -5.77743 0
M  V30 2016 H 203.008 -2.35581 -4.04499 0
M  V30 2017 H 203.181 -3.47704 -5.46814 0
M  V30 2018 N 196.587 1.43421 -0.653314 0
M  V30 2019 C 197.55 2.29182 0.0287951 0
M  V30 2020 C 198.55 1.42213 0.750465 0
M  V30 2021 O 199.74 1.63843 0.591701 0
M  V30 2022 C 196.872 3.24278 1.05151 0
M  V30 2023 H 198.065 2.90985 -0.725786 0
M  V30 2024 H 195.618 1.50702 -0.414545 0
M  V30 2025 H 196.353 2.6737 1.83532 0
M  V30 2026 H 196.138 3.88396 0.537687 0
M  V30 2027 H 197.628 3.88647 1.52786 0
M  V30 2028 N 198.065 0.39524 1.52563 0
M  V30 2029 C 199.311 -0.185318 2.01952 0
M  V30 2030 C 199.644 -1.45964 1.28095 0
M  V30 2031 O 198.919 -1.90689 0.38315 0
M  V30 2032 C 199.202 -0.447193 3.57312 0
M  V30 2033 C 199.055 0.842828 4.41833 0
M  V30 2034 C 200.374 -1.23529 4.22408 0
M  V30 2035 H 197.493 -0.0658788 0.73405 0
M  V30 2036 H 200.135 0.525975 1.82575 0
M  V30 2037 H 198.285 -1.05312 3.73954 0
M  V30 2038 H 199.957 1.4795 4.36931 0
M  V30 2039 H 198.2 1.45686 4.08605 0
M  V30 2040 H 198.871 0.614165 5.48573 0
M  V30 2041 H 201.347 -0.722445 4.0978 0
M  V30 2042 H 200.223 -1.38727 5.3108 0
M  V30 2043 H 200.484 -2.25213 3.80436 0
M  V30 2044 N 199.544 -1.57102 0.125237 0
M  V30 2045 C 200.476 -2.12726 -0.853237 0
M  V30 2046 C 201.489 -1.07145 -1.22571 0
M  V30 2047 O 202.678 -1.34497 -1.17358 0
M  V30 2048 C 199.778 -2.61709 -2.15317 0
M  V30 2049 C 198.951 -3.91456 -1.95143 0
M  V30 2050 C 198.01 -4.25973 -3.08923 0
M  V30 2051 O 197.036 -4.94682 -2.81564 0
M  V30 2052 N 198.238 -3.83795 -4.35524 0
M  V30 2053 H 201.003 -2.97307 -0.377964 0
M  V30 2054 H 198.564 -1.61792 -0.0590011 0
M  V30 2055 H 200.556 -2.81826 -2.90441 0
M  V30 2056 H 199.126 -1.81974 -2.54174 0
M  V30 2057 H 198.346 -3.80185 -1.04177 0
M  V30 2058 H 199.634 -4.76283 -1.78976 0
M  V30 2059 H 199.032 -3.2839 -4.60626 0
M  V30 2060 H 197.589 -4.09008 -5.07499 0
M  V30 2061 N 201.022 0.148545 -1.56898 0
M  V30 2062 C 202.27 0.859717 -1.82902 0
M  V30 2063 C 202.591 1.81775 -0.70588 0
M  V30 2064 O 201.861 1.93994 0.272586 0
M  V30 2065 H 200.441 0.320469 -0.674766 0
M  V30 2066 H 203.103 0.142918 -1.94375 0
M  V30 2067 H 202.199 1.4229 -2.77777 0
M  V30 2068 N 202.5 1.5196 0.417844 0
M  V30 2069 C 203.911 1.57851 0.997 0
M  V30 2070 C 204.262 0.413714 1.91789 0
M  V30 2071 O 203.387 -0.467057 2.113 0
M  V30 2072 C 203.982 2.86085 1.81496 0
M  V30 2073 C 202.541 2.94483 2.34428 0
M  V30 2074 C 201.688 2.52707 1.14169 0
M  V30 2075 H 204.639 1.57455 0.198392 0
M  V30 2076 H 204.66 2.70947 2.67148 0
M  V30 2077 H 204.172 3.70842 1.14446 0
M  V30 2078 H 202.273 2.142 3.04875 0
M  V30 2079 H 202.386 3.98546 2.65891 0
M  V30 2080 H 200.75 2.06353 1.49301 0
M  V30 2081 H 201.533 3.39828 0.486999 0
M  V30 2082 N 203.978 -0.674533 1.42435 0
M  V30 2083 C 204.888 -1.81751 1.48337 0
M  V30 2084 C 205.904 -1.69975 0.372099 0
M  V30 2085 O 207.08 -1.91521 0.62304 0
M  V30 2086 C 204.145 -3.17895 1.38361 0
M  V30 2087 C 203.206 -3.41625 2.59982 0
M  V30 2088 C 202.439 -4.71274 2.50473 0
M  V30 2089 O 202.662 -5.49197 1.54075 0
M  V30 2090 O 201.596 -4.96254 3.4061 0
M  V30 2091 H 205.422 -1.79728 2.44809 0
M  V30 2092 H 203.007 -0.830312 1.24202 0
M  V30 2093 H 204.889 -3.99136 1.35161 0
M  V30 2094 H 203.564 -3.20555 0.450144 0
M  V30 2095 H 202.471 -2.60231 2.68757 0
M  V30 2096 H 203.804 -3.43796 3.52229 0
M  V30 2097 N 205.456 -1.28612 -0.910864 0
M  V30 2098 C 206.366 -1.14643 -2.0468 0
M  V30 2099 C 207.382 -0.0723121 -1.7385 0
M  V30 2100 O 208.558 -0.282178 -1.99413 0
M  V30 2101 C 205.623 -0.812561 -3.37044 0
M  V30 2102 C 204.684 -1.96935 -3.81465 0
M  V30 2103 C 203.917 -1.65131 -5.07511 0
M  V30 2104 O 204.14 -0.567013 -5.67575 0
M  V30 2105 O 203.074 -2.49585 -5.47714 0
M  V30 2106 H 206.9 -2.1001 -2.19384 0
M  V30 2107 H 204.485 -1.07958 -1.03274 0
M  V30 2108 H 206.367 -0.640441 -4.16505 0
M  V30 2109 H 205.042 0.111426 -3.23508 0
M  V30 2110 H 203.949 -2.19664 -3.02818 0
M  V30 2111 H 205.282 -2.87414 -3.99567 0
M  V30 2112 N 206.934 1.1197 -1.10907 0
M  V30 2113 C 208.162 1.87402 -0.876824 0
M  V30 2114 C 208.577 1.79894 0.573025 0
M  V30 2115 O 207.934 1.17629 1.39534 0
M  V30 2116 C 207.985 3.36428 -1.32282 0
M  V30 2117 O 207.706 3.43765 -2.71582 0
M  V30 2118 C 209.207 4.28783 -1.12518 0
M  V30 2119 H 206.427 0.592793 -0.314384 0
M  V30 2120 H 208.971 1.41649 -1.47499 0
M  V30 2121 H 207.126 3.79706 -0.768229 0
M  V30 2122 H 207.54 4.3652 -2.90776 0
M  V30 2123 H 209.014 5.31613 -1.48633 0
M  V30 2124 H 209.491 4.39153 -0.0642394 0
M  V30 2125 H 210.097 3.91291 -1.66648 0
M  V30 2126 N 208.412 0.89855 1.29475 0
M  V30 2127 C 209.658 0.524658 1.95896 0
M  V30 2128 C 209.991 -0.926468 1.70676 0
M  V30 2129 O 209.266 -1.65665 1.01908 0
M  V30 2130 C 209.549 0.81633 3.50725 0
M  V30 2131 C 209.402 2.31907 3.85408 0
M  V30 2132 C 210.721 0.302038 4.39062 0
M  V30 2133 H 207.84 0.19209 0.711527 0
M  V30 2134 H 210.482 1.12502 1.53112 0
M  V30 2135 H 208.632 0.305369 3.87298 0
M  V30 2136 H 210.304 2.89949 3.58786 0
M  V30 2137 H 208.547 2.78027 3.32992 0
M  V30 2138 H 209.218 2.47373 4.93468 0
M  V30 2139 H 211.694 0.739551 4.09475 0
M  V30 2140 H 210.57 0.535331 5.46283 0
M  V30 2141 H 210.831 -0.797216 4.34853 0
M  V30 2142 N 209.89 -1.43072 0.660911 0
M  V30 2143 C 211.118 -2.06067 0.185422 0
M  V30 2144 C 211.533 -1.49582 -1.15198 0
M  V30 2145 O 210.89 -0.630134 -1.71276 0
M  V30 2146 C 210.941 -3.61371 0.0966523 0
M  V30 2147 O 210.662 -4.15758 1.38119 0
M  V30 2148 C 212.163 -4.41455 -0.403996 0
M  V30 2149 H 209.383 -0.664459 0.0934604 0
M  V30 2150 H 211.927 -1.83447 0.90373 0
M  V30 2151 H 210.082 -3.8315 -0.572259 0
M  V30 2152 H 210.496 -5.09499 1.24542 0
M  V30 2153 H 211.97 -5.50437 -0.415045 0
M  V30 2154 H 212.447 -4.15036 -1.43674 0
M  V30 2155 H 213.053 -4.24663 0.232691 0
M  V30 2156 N 211.368 -0.403325 -1.52352 0
M  V30 2157 C 212.3 0.4603 -2.2453 0
M  V30 2158 C 213.313 1.01505 -1.27282 0
M  V30 2159 O 214.502 0.914982 -1.53266 0
M  V30 2160 C 211.602 1.65208 -2.95905 0
M  V30 2161 C 210.775 1.22224 -4.19976 0
M  V30 2162 C 209.834 2.28028 -4.74226 0
M  V30 2163 O 208.86 1.88857 -5.36956 0
M  V30 2164 N 210.062 3.6012 -4.55295 0
M  V30 2165 H 212.827 -0.158156 -2.99282 0
M  V30 2166 H 210.388 -0.230402 -1.60252 0
M  V30 2167 H 212.38 2.35541 -3.29093 0
M  V30 2168 H 210.95 2.17658 -2.24374 0
M  V30 2169 H 210.17 0.34725 -3.92668 0
M  V30 2170 H 211.458 0.911924 -5.00561 0
M  V30 2171 H 210.856 3.94698 -4.05253 0
M  V30 2172 H 209.413 4.26447 -4.92936 0
M  V30 2173 N 212.846 1.57033 -0.133567 0
M  V30 2174 C 214.123 1.87256 0.56522 0
M  V30 2175 C 214.503 1.03726 1.83859 0
M  V30 2176 O 213.851 0.120247 2.28183 0
M  V30 2177 C 214.061 3.3865 0.843636 0
M  V30 2178 C 215.409 4.07574 1.19032 0
M  V30 2179 O 216.433 3.43752 0.933429 0
M  V30 2180 O 215.292 5.20259 1.67312 0
M  V30 2181 H 212.386 0.775678 0.286796 0
M  V30 2182 H 214.932 1.68855 -0.169168 0
M  V30 2183 H 213.704 3.91257 -0.0581149 0
M  V30 2184 H 213.327 3.62532 1.63268 0
M  V30 2185 N 214.325 -0.140222 1.56975 0
M  V30 2186 C 215.565 -0.857823 1.85528 0
M  V30 2187 C 215.929 -1.78039 0.718768 0
M  V30 2188 O 217.13 -2.53795 0.885521 0
M  V30 2189 C 215.401 -1.60615 3.19277 0
M  V30 2190 S 216.96 -2.36824 3.69405 0
M  V30 2191 H 213.778 -0.286727 0.650622 0
M  V30 2192 H 216.38 -0.117408 1.95147 0
M  V30 2193 H 215.084 -0.919994 3.99955 0
M  V30 2194 H 214.615 -2.38735 3.12681 0
M  V30 2195 H 216.63 -3.62148 3.3921 0
M  V30 2196 N 215.803 -1.52179 -0.40978 0
M  V30 2197 C 216.733 -1.78435 -1.5061 0
M  V30 2198 C 217.714 -0.635295 -1.57791 0
M  V30 2199 O 218.899 -0.880823 -1.73076 0
M  V30 2200 C 216.029 -1.93444 -2.88439 0
M  V30 2201 C 214.983 -3.09038 -2.96108 0
M  V30 2202 C 214.309 -3.09268 -4.36185 0
M  V30 2203 C 215.609 -4.48508 -2.67652 0
M  V30 2204 H 217.303 -2.70237 -1.28889 0
M  V30 2205 H 214.849 -1.30036 -0.618605 0
M  V30 2206 H 216.802 -2.10394 -3.65119 0
M  V30 2207 H 215.526 -0.983129 -3.11452 0
M  V30 2208 H 214.185 -2.91837 -2.21872 0
M  V30 2209 H 213.833 -2.11861 -4.56206 0
M  V30 2210 H 213.533 -3.86907 -4.42241 0
M  V30 2211 H 215.057 -3.28348 -5.14801 0
M  V30 2212 H 216.471 -4.65918 -3.34056 0
M  V30 2213 H 214.868 -5.28059 -2.85085 0
M  V30 2214 H 215.938 -4.56649 -1.63095 0
M  V30 2215 N 217.281 0.66697 -1.42791 0
M  V30 2216 C 218.213 1.7925 -1.42836 0
M  V30 2217 C 219.226 1.59496 -0.326333 0
M  V30 2218 O 220.415 1.6847 -0.589916 0
M  V30 2219 C 217.515 3.16476 -1.21229 0
M  V30 2220 C 216.688 3.63011 -2.44013 0
M  V30 2221 C 215.747 4.78993 -2.17834 0
M  V30 2222 O 214.773 4.89137 -2.91091 0
M  V30 2223 N 215.975 5.68248 -1.18635 0
M  V30 2224 H 218.74 1.79695 -2.39854 0
M  V30 2225 H 216.301 0.850338 -1.37771 0
M  V30 2226 H 218.293 3.91734 -1.01621 0
M  V30 2227 H 216.863 3.10884 -0.32706 0
M  V30 2228 H 216.083 2.78346 -2.79137 0
M  V30 2229 H 217.371 3.90845 -3.25757 0
M  V30 2230 H 216.769 5.62712 -0.580615 0
M  V30 2231 H 215.326 6.43285 -1.05013 0
M  V30 2232 N 218.759 1.29093 0.90403 0
M  V30 2233 C 219.689 1.16401 2.02418 0
M  V30 2234 C 220.67 0.0593085 1.69997 0
M  V30 2235 O 221.855 0.238021 1.92736 0
M  V30 2236 C 218.985 0.835233 3.37107 0
M  V30 2237 C 217.939 1.89578 3.83724 0
M  V30 2238 C 217.265 1.42041 5.15489 0
M  V30 2239 C 218.565 3.30394 4.04521 0
M  V30 2240 H 220.259 2.10109 2.13295 0
M  V30 2241 H 217.805 1.01157 1.02486 0
M  V30 2242 H 219.758 0.733169 4.14973 0
M  V30 2243 H 218.482 -0.137543 3.2631 0
M  V30 2244 H 217.141 1.98715 3.08071 0
M  V30 2245 H 216.789 0.436426 5.01103 0
M  V30 2246 H 216.489 2.12964 5.4765 0
M  V30 2247 H 218.013 1.33176 5.959 0
M  V30 2248 H 219.427 3.24123 4.72882 0
M  V30 2249 H 217.824 3.99237 4.48029 0
M  V30 2250 H 218.894 3.73692 3.09002 0
M  V30 2251 N 220.237 -1.11381 1.11499 0
M  V30 2252 C 221.486 -1.82494 0.858993 0
M  V30 2253 C 221.799 -1.85605 -0.617278 0
M  V30 2254 O 223.005 -2.52824 -0.989552 0
M  V30 2255 C 221.461 -3.27745 1.48699 0
M  V30 2256 C 221.069 -3.32961 2.99735 0
M  V30 2257 C 222.813 -4.03754 1.31085 0
M  V30 2258 C 220.72 -4.72612 3.55516 0
M  V30 2259 H 219.65 -0.683802 0.317696 0
M  V30 2260 H 222.301 -1.25331 1.34031 0
M  V30 2261 H 220.683 -3.84844 0.933339 0
M  V30 2262 H 221.857 -2.85741 3.61509 0
M  V30 2263 H 220.172 -2.70433 3.16631 0
M  V30 2264 H 222.769 -5.06891 1.70192 0
M  V30 2265 H 223.112 -4.15527 0.253496 0
M  V30 2266 H 223.645 -3.53043 1.83318 0
M  V30 2267 H 220.384 -4.66036 4.60967 0
M  V30 2268 H 219.904 -5.2024 2.98513 0
M  V30 2269 H 221.583 -5.4157 3.53992 0
M  V30 2270 N 221.715 -0.905404 -1.28997 0
M  V30 2271 C 222.678 -0.392253 -2.25819 0
M  V30 2272 C 223.678 0.476753 -1.5357 0
M  V30 2273 O 224.868 0.280994 -1.71919 0
M  V30 2274 C 222 0.438588 -3.38067 0
M  V30 2275 H 223.193 -1.24743 -2.72725 0
M  V30 2276 H 220.746 -0.684051 -1.40536 0
M  V30 2277 H 221.481 1.31352 -2.96508 0
M  V30 2278 H 221.266 -0.184167 -3.91667 0
M  V30 2279 H 222.756 0.78873 -4.10084 0
M  V30 2280 N 223.193 1.4272 -0.668489 0
M  V30 2281 C 224.47 1.95248 -0.117373 0
M  V30 2282 C 224.85 1.60919 1.36632 0
M  V30 2283 O 224.198 0.902095 2.09939 0
M  V30 2284 C 224.408 3.46927 -0.379806 0
M  V30 2285 C 225.756 4.23588 -0.292923 0
M  V30 2286 O 226.78 3.5482 -0.313204 0
M  V30 2287 O 225.639 5.46017 -0.229697 0
M  V30 2288 H 222.733 0.827 0.00079152 0
M  V30 2289 H 225.279 1.52581 -0.742783 0
M  V30 2290 H 224.051 3.65096 -1.40786 0
M  V30 2291 H 223.674 3.96627 0.277923 0
M  V30 2292 N 224.671 0.411399 1.52136 0
M  V30 2293 C 225.896 -0.165538 2.06738 0
M  V30 2294 C 226.321 -1.379 1.27926 0
M  V30 2295 O 225.679 -1.78628 0.310114 0
M  V30 2296 C 225.727 -0.492124 3.57226 0
M  V30 2297 O 224.831 -1.58276 3.80818 0
M  V30 2298 H 224.172 -0.0132132 0.663869 0
M  V30 2299 H 226.702 0.585253 1.96051 0
M  V30 2300 H 226.712 -0.750104 4.01045 0
M  V30 2301 H 225.387 0.394922 4.14021 0
M  V30 2302 H 223.964 -1.31677 3.48877 0
M  V30 2303 N 226.149 -1.5696 0.141893 0
M  V30 2304 C 227.059 -2.20066 -0.812905 0
M  V30 2305 C 228.075 -1.18344 -1.27557 0
M  V30 2306 O 229.251 -1.50902 -1.33381 0
M  V30 2307 C 226.316 -2.80583 -2.03652 0
M  V30 2308 C 225.377 -3.97414 -1.62359 0
M  V30 2309 C 224.61 -4.55036 -2.78887 0
M  V30 2310 O 224.833 -4.11538 -3.94959 0
M  V30 2311 O 223.767 -5.45376 -2.54653 0
M  V30 2312 H 227.593 -3.02157 -0.305746 0
M  V30 2313 H 225.178 -1.49159 -0.0848799 0
M  V30 2314 H 227.06 -3.19067 -2.75272 0
M  V30 2315 H 225.735 -2.01508 -2.5333 0
M  V30 2316 H 224.642 -3.63656 -0.877775 0
M  V30 2317 H 225.975 -4.77994 -1.17401 0
M  V30 2318 N 227.627 0.131896 -1.57047 0
M  V30 2319 C 228.855 0.856461 -1.88341 0
M  V30 2320 C 229.27 1.74042 -0.731757 0
M  V30 2321 O 228.627 1.80051 0.297945 0
M  V30 2322 C 228.678 1.70064 -3.18999 0
M  V30 2323 O 228.399 0.852278 -4.2973 0
M  V30 2324 C 229.9 2.53148 -3.63911 0
M  V30 2325 H 227.12 0.246885 -0.62393 0
M  V30 2326 H 229.664 0.120152 -2.04147 0
M  V30 2327 H 227.819 2.38984 -3.04902 0
M  V30 2328 H 228.233 1.43329 -5.04537 0
M  V30 2329 H 229.707 3.07931 -4.58129 0
M  V30 2330 H 230.184 3.29901 -2.89935 0
M  V30 2331 H 230.79 1.89492 -3.80753 0
M  V30 2332 N 229.106 1.52395 0.401703 0
M  V30 2333 C 230.517 1.58899 0.980202 0
M  V30 2334 C 230.868 0.434032 1.91339 0
M  V30 2335 O 229.993 -0.444619 2.11783 0
M  V30 2336 C 230.588 2.87994 1.78451 0
M  V30 2337 C 229.147 2.96953 2.31292 0
M  V30 2338 C 228.294 2.53903 1.11483 0
M  V30 2339 H 231.245 1.57657 0.18168 0
M  V30 2340 H 231.266 2.73765 2.64259 0
M  V30 2341 H 230.778 3.72035 1.10506 0
M  V30 2342 H 228.879 2.17422 3.02586 0
M  V30 2343 H 228.992 4.01344 2.61649 0
M  V30 2344 H 227.356 2.07925 1.47104 0
M  V30 2345 H 228.139 3.40326 0.450928 0
M  V30 2346 N 230.584 -0.659388 1.43143 0
M  V30 2347 C 231.812 -1.44723 1.47861 0
M  V30 2348 C 232.227 -1.88563 0.0945886 0
M  V30 2349 O 231.584 -1.59108 -0.893915 0
M  V30 2350 C 231.635 -2.68627 2.41913 0
M  V30 2351 O 231.356 -2.26623 3.74932 0
M  V30 2352 C 232.857 -3.62045 2.55809 0
M  V30 2353 H 230.077 -0.444801 0.502387 0
M  V30 2354 H 232.621 -0.808916 1.87821 0
M  V30 2355 H 230.776 -3.28613 2.05164 0
M  V30 2356 H 231.19 -3.06745 4.2545 0
M  V30 2357 H 232.664 -4.45666 3.25708 0
M  V30 2358 H 233.141 -4.08981 1.60099 0
M  V30 2359 H 233.747 -3.07944 2.93344 0
M  V30 2360 N 232.062 -1.29571 -0.897171 0
M  V30 2361 C 233.311 -1.1706 -1.64256 0
M  V30 2362 C 233.624 0.276476 -1.93636 0
M  V30 2363 O 234.83 0.52294 -2.66416 0
M  V30 2364 C 233.286 -2.0475 -2.95982 0
M  V30 2365 C 232.894 -3.54295 -2.74187 0
M  V30 2366 C 234.638 -2.0097 -3.73914 0
M  V30 2367 C 232.545 -4.34081 -4.01656 0
M  V30 2368 H 231.475 -0.43452 -0.616205 0
M  V30 2369 H 234.126 -1.54229 -0.994268 0
M  V30 2370 H 232.508 -1.60452 -3.62038 0
M  V30 2371 H 233.682 -4.06662 -2.1671 0
M  V30 2372 H 231.997 -3.59773 -2.09648 0
M  V30 2373 H 234.594 -2.57838 -4.68427 0
M  V30 2374 H 234.937 -0.990273 -4.0435 0
M  V30 2375 H 235.47 -2.43325 -3.14703 0
M  V30 2376 H 232.209 -5.36671 -3.76384 0
M  V30 2377 H 231.729 -3.86483 -4.58684 0
M  V30 2378 H 233.408 -4.44877 -4.69781 0
M  V30 2379 N 233.54 1.10788 -1.12088 0
M  V30 2380 C 234.472 2.16816 -0.743213 0
M  V30 2381 C 235.485 1.6119 0.228412 0
M  V30 2382 O 236.674 1.78497 0.0102931 0
M  V30 2383 C 233.774 3.38809 -0.0787313 0
M  V30 2384 C 232.947 4.23885 -1.0789 0
M  V30 2385 C 232.006 5.24334 -0.442713 0
M  V30 2386 O 231.032 5.58497 -1.09864 0
M  V30 2387 N 232.234 5.75079 0.791457 0
M  V30 2388 H 234.999 2.49825 -1.65552 0
M  V30 2389 H 232.56 1.26373 -1.012 0
M  V30 2390 H 234.552 4.03107 0.358766 0
M  V30 2391 H 233.122 3.03805 0.736275 0
M  V30 2392 H 232.342 3.55939 -1.69414 0
M  V30 2393 H 233.63 4.77562 -1.75533 0
M  V30 2394 H 233.028 5.49517 1.3434 0
M  V30 2395 H 231.585 6.4118 1.17183 0
M  V30 2396 N 235.018 0.912232 1.28515 0
M  V30 2397 C 235.965 0.397954 2.27343 0
M  V30 2398 C 236.935 -0.526766 1.57526 0
M  V30 2399 O 238.12 -0.449292 1.85435 0
M  V30 2400 C 235.26 -0.357263 3.43246 0
M  V30 2401 C 234.373 0.599788 4.27816 0
M  V30 2402 C 233.508 -0.173725 5.30916 0
M  V30 2403 C 232.547 0.777039 6.07148 0
M  V30 2404 N 231.684 0.0371398 7.0209 0
M  V30 2405 H 236.524 1.24577 2.70711 0
M  V30 2406 H 234.061 0.625612 1.33133 0
M  V30 2407 H 236.019 -0.8113 4.09236 0
M  V30 2408 H 234.649 -1.16943 3.00872 0
M  V30 2409 H 233.701 1.17235 3.61884 0
M  V30 2410 H 235.013 1.32704 4.80823 0
M  V30 2411 H 234.167 -0.688394 6.02782 0
M  V30 2412 H 232.906 -0.934041 4.78672 0
M  V30 2413 H 231.911 1.3031 5.34134 0
M  V30 2414 H 233.136 1.53689 6.61481 0
M  V30 2415 H 231.082 -0.705213 6.52198 0
M  V30 2416 H 230.999 0.704249 7.52713 0
M  V30 2417 H 232.267 -0.457383 7.78157 0
M  V30 2418 N 236.496 -1.42363 0.676048 0
M  V30 2419 C 237.744 -2.01123 0.198437 0
M  V30 2420 C 238.065 -1.53731 -1.19966 0
M  V30 2421 O 237.335 -0.759518 -1.80577 0
M  V30 2422 H 235.915 -0.743678 0.0703721 0
M  V30 2423 H 238.577 -1.74263 0.872837 0
M  V30 2424 H 237.673 -3.11454 0.200686 0
M  V30 2425 N 237.974 -0.419461 -1.51915 0
M  V30 2426 C 239.199 0.154572 -2.06823 0
M  V30 2427 C 239.624 1.3722 -1.28656 0
M  V30 2428 O 238.982 1.78461 -0.319583 0
M  V30 2429 C 239.03 0.473172 -3.57482 0
M  V30 2430 O 238.134 1.56255 -3.81652 0
M  V30 2431 H 237.475 0.0096924 -0.663929 0
M  V30 2432 H 240.005 -0.595642 -1.95738 0
M  V30 2433 H 240.015 0.728825 -4.01438 0
M  V30 2434 H 238.69 -0.416873 -4.13805 0
M  V30 2435 H 237.267 1.29825 -3.49571 0
M  V30 2436 N 239.452 1.56882 -0.150215 0
M  V30 2437 C 240.682 2.00302 0.506213 0
M  V30 2438 C 241.09 1.02934 1.58749 0
M  V30 2439 O 240.433 0.0188384 1.8369 0
M  V30 2440 C 240.495 3.40156 1.16337 0
M  V30 2441 C 240.159 4.56439 0.226311 0
M  V30 2442 C 241.156 5.17012 -0.547265 0
M  V30 2443 C 238.841 5.02136 0.128279 0
M  V30 2444 C 240.835 6.21693 -1.40629 0
M  V30 2445 C 238.522 6.06672 -0.734345 0
M  V30 2446 C 239.52 6.6632 -1.50023 0
M  V30 2447 O 239.208 7.68831 -2.34848 0
M  V30 2448 H 238.94 0.662182 0.135984 0
M  V30 2449 H 241.494 2.03961 -0.242746 0
M  V30 2450 H 239.724 3.33346 1.96004 0
M  V30 2451 H 241.413 3.67663 1.71985 0
M  V30 2452 H 242.179 4.82603 -0.48158 0
M  V30 2453 H 238.058 4.55435 0.714157 0
M  V30 2454 H 241.602 6.68179 -2.00455 0
M  V30 2455 H 237.499 6.40507 -0.801309 0
M  V30 2456 H 238.267 7.86065 -2.28131 0
M  V30 2457 N 240.93 -0.123565 1.57115 0
M  V30 2458 C 242.158 -0.846461 1.88793 0
M  V30 2459 C 242.573 -1.73652 0.740976 0
M  V30 2460 O 241.93 -1.80207 -0.288393 0
M  V30 2461 C 241.981 -1.6837 3.19897 0
M  V30 2462 O 241.702 -0.829477 4.30176 0
M  V30 2463 C 243.203 -2.51214 3.65248 0
M  V30 2464 H 240.423 -0.243573 0.625231 0
M  V30 2465 H 242.967 -0.109324 2.04208 0
M  V30 2466 H 241.122 -2.37364 3.06165 0
M  V30 2467 H 241.536 -1.40651 5.0529 0
M  V30 2468 H 243.01 -3.05497 4.59756 0
M  V30 2469 H 243.487 -3.28359 2.9168 0
M  V30 2470 H 244.093 -1.8747 3.81752 0
M  V30 2471 N 242.408 -1.52605 -0.393616 0
M  V30 2472 C 243.655 -1.67424 -1.1391 0
M  V30 2473 C 243.983 -0.411859 -1.90089 0
M  V30 2474 O 243.238 0.605626 -1.86093 0
M  V30 2475 C 243.537 -2.85721 -2.14705 0
M  V30 2476 C 243.203 -4.23342 -1.55218 0
M  V30 2477 C 241.865 -4.60771 -1.3872 0
M  V30 2478 C 244.217 -5.09041 -1.11924 0
M  V30 2479 C 241.545 -5.81563 -0.774689 0
M  V30 2480 C 243.897 -6.30452 -0.520853 0
M  V30 2481 C 242.561 -6.66617 -0.343134 0
M  V30 2482 H 241.831 -0.612648 -0.416826 0
M  V30 2483 H 244.478 -1.8674 -0.424315 0
M  V30 2484 H 242.783 -2.60803 -2.92385 0
M  V30 2485 H 244.48 -2.94382 -2.72288 0
M  V30 2486 H 241.07 -3.93855 -1.69045 0
M  V30 2487 H 245.254 -4.80695 -1.23473 0
M  V30 2488 H 240.51 -6.08196 -0.625154 0
M  V30 2489 H 244.684 -6.96175 -0.177065 0
M  V30 2490 H 242.311 -7.60083 0.133571 0
M  V30 2491 N 243.887 0.651787 -1.4349 0
M  V30 2492 C 245.133 1.41376 -1.45398 0
M  V30 2493 C 245.466 1.94041 -0.0784823 0
M  V30 2494 O 244.741 1.72379 0.900878 0
M  V30 2495 C 245.024 2.59414 -2.49752 0
M  V30 2496 C 244.877 2.12232 -3.96582 0
M  V30 2497 C 246.196 3.61626 -2.50827 0
M  V30 2498 H 243.315 0.512719 -0.529422 0
M  V30 2499 H 245.957 0.738796 -1.75048 0
M  V30 2500 H 244.107 3.16997 -2.246 0
M  V30 2501 H 245.779 1.59639 -4.32797 0
M  V30 2502 H 244.022 1.43592 -4.09346 0
M  V30 2503 H 244.693 2.9712 -4.65214 0
M  V30 2504 H 247.169 3.13805 -2.7325 0
M  V30 2505 H 246.045 4.41766 -3.25783 0
M  V30 2506 H 246.306 4.14314 -1.5426 0
M  V30 2507 N 245.365 1.30045 0.890287 0
M  V30 2508 C 246.776 1.16738 1.45702 0
M  V30 2509 C 247.127 -0.233939 1.948 0
M  V30 2510 O 246.252 -1.13021 1.84541 0
M  V30 2511 C 246.847 2.11313 2.64825 0
M  V30 2512 C 245.406 2.02001 3.17604 0
M  V30 2513 C 244.553 2.01699 1.90296 0
M  V30 2514 H 247.504 1.42392 0.700726 0
M  V30 2515 H 247.525 1.69086 3.40867 0
M  V30 2516 H 247.037 3.13294 2.2906 0
M  V30 2517 H 245.138 1.03142 3.5804 0
M  V30 2518 H 245.251 2.90128 3.81264 0
M  V30 2519 H 243.615 1.46427 2.08402 0
M  V30 2520 H 244.398 3.05402 1.56795 0
M  V30 2521 N 246.843 -1.10192 1.12674 0
M  V30 2522 C 248.089 -1.82658 0.894847 0
M  V30 2523 C 248.444 -1.83666 -0.573107 0
M  V30 2524 O 247.737 -1.28816 -1.41835 0
M  V30 2525 C 247.931 -3.28552 1.4067 0
M  V30 2526 C 247.76 -3.41756 2.92289 0
M  V30 2527 C 246.53 -3.54021 3.60551 0
M  V30 2528 C 248.728 -3.34949 3.90274 0
M  V30 2529 N 246.71 -3.55827 5.0026 0
M  V30 2530 C 248.081 -3.43531 5.16127 0
M  V30 2531 C 250.136 -3.18565 3.8265 0
M  V30 2532 C 248.839 -3.37416 6.3525 0
M  V30 2533 C 250.865 -3.13772 5.01299 0
M  V30 2534 C 250.227 -3.22938 6.26012 0
M  V30 2535 H 246.326 -0.683044 0.380756 0
M  V30 2536 H 248.91 -1.31752 1.43351 0
M  V30 2537 H 247.081 -3.77946 0.895055 0
M  V30 2538 H 248.813 -3.88991 1.11661 0
M  V30 2539 H 245.568 -3.57135 3.1105 0
M  V30 2540 H 245.992 -3.60335 5.73138 0
M  V30 2541 H 250.634 -3.10354 2.87124 0
M  V30 2542 H 248.352 -3.44391 7.3104 0
M  V30 2543 H 251.938 -3.02242 4.97133 0
M  V30 2544 H 250.818 -3.19235 7.16281 0
M  V30 2545 N 248.321 -0.919034 -1.28029 0
M  V30 2546 C 249.251 -0.428581 -2.29533 0
M  V30 2547 C 250.232 0.50659 -1.62381 0
M  V30 2548 O 251.417 0.413195 -1.89753 0
M  V30 2549 C 248.547 0.327388 -3.45753 0
M  V30 2550 C 247.501 -0.519137 -4.2484 0
M  V30 2551 C 246.827 0.365486 -5.33449 0
M  V30 2552 C 248.127 -1.77914 -4.91064 0
M  V30 2553 H 249.821 -1.27687 -2.70807 0
M  V30 2554 H 247.367 -0.615428 -1.30186 0
M  V30 2555 H 249.32 0.681378 -4.15855 0
M  V30 2556 H 248.044 1.20963 -3.03374 0
M  V30 2557 H 246.703 -0.855717 -3.56473 0
M  V30 2558 H 246.351 1.24642 -4.87312 0
M  V30 2559 H 246.051 -0.197356 -5.87268 0
M  V30 2560 H 247.575 0.715241 -6.06396 0
M  V30 2561 H 248.989 -1.49374 -5.53498 0
M  V30 2562 H 247.386 -2.2848 -5.54903 0
M  V30 2563 H 248.456 -2.50382 -4.15255 0
M  V30 2564 N 249.799 1.42003 -0.683588 0
M  V30 2565 C 250.729 2.33487 -0.024866 0
M  V30 2566 C 251.71 1.51163 0.779975 0
M  V30 2567 O 252.895 1.79739 0.735362 0
M  V30 2568 C 250.025 3.3487 0.920836 0
M  V30 2569 C 248.979 4.27414 0.223958 0
M  V30 2570 C 248.305 5.19074 1.2832 0
M  V30 2571 C 249.605 5.14445 -0.90242 0
M  V30 2572 H 251.299 2.88819 -0.788921 0
M  V30 2573 H 248.845 1.38873 -0.38083 0
M  V30 2574 H 250.798 3.97787 1.39081 0
M  V30 2575 H 249.522 2.77861 1.71642 0
M  V30 2576 H 248.181 3.65904 -0.225864 0
M  V30 2577 H 247.829 4.58387 2.071 0
M  V30 2578 H 247.529 5.81822 0.821995 0
M  V30 2579 H 249.053 5.84867 1.75392 0
M  V30 2580 H 250.467 5.70998 -0.513272 0
M  V30 2581 H 248.864 5.86072 -1.28997 0
M  V30 2582 H 249.934 4.52322 -1.74737 0
M  V30 2583 N 251.277 0.427512 1.51691 0
M  V30 2584 C 252.502 -0.143601 2.06902 0
M  V30 2585 C 252.927 -1.36536 1.29382 0
M  V30 2586 O 252.285 -1.78289 0.329043 0
M  V30 2587 C 252.333 -0.454207 3.57728 0
M  V30 2588 O 251.437 -1.54228 3.82475 0
M  V30 2589 H 250.778 -0.00617128 0.663971 0
M  V30 2590 H 253.308 0.606014 1.95419 0
M  V30 2591 H 253.318 -0.707525 4.01818 0
M  V30 2592 H 251.993 0.438812 4.13579 0
M  V30 2593 H 250.57 -1.2797 3.50254 0
M  V30 2594 N 252.755 -1.56801 0.158532 0
M  V30 2595 C 254.002 -1.9649 -0.489679 0
M  V30 2596 C 254.33 -1.04394 -1.6411 0
M  V30 2597 O 253.585 -0.0754401 -1.95555 0
M  V30 2598 C 253.884 -3.4235 -1.02623 0
M  V30 2599 C 253.55 -4.50899 0.00794526 0
M  V30 2600 C 252.212 -4.80312 0.292207 0
M  V30 2601 C 254.564 -5.16333 0.710584 0
M  V30 2602 C 251.892 -5.72461 1.28472 0
M  V30 2603 C 254.244 -6.09553 1.69199 0
M  V30 2604 C 252.908 -6.37339 1.98383 0
M  V30 2605 H 252.178 -0.719009 -0.179186 0
M  V30 2606 H 254.825 -1.8989 0.247798 0
M  V30 2607 H 253.13 -3.45838 -1.84128 0
M  V30 2608 H 254.827 -3.70393 -1.53656 0
M  V30 2609 H 251.417 -4.28015 -0.22379 0
M  V30 2610 H 255.601 -4.93732 0.504174 0
M  V30 2611 H 250.857 -5.92278 1.51714 0
M  V30 2612 H 255.031 -6.59327 2.24189 0
M  V30 2613 H 252.658 -7.08546 2.7544 0
M  V30 2614 N 254.233 0.115231 -1.57178 0
M  V30 2615 C 255.18 1.14115 -2.00615 0
M  V30 2616 C 256.15 1.40939 -0.878941 0
M  V30 2617 O 257.335 1.52741 -1.14345 0
M  V30 2618 C 254.475 2.46156 -2.4187 0
M  V30 2619 C 253.588 2.26236 -3.68024 0
M  V30 2620 C 252.723 3.51534 -3.98243 0
M  V30 2621 C 251.762 3.26787 -5.17568 0
M  V30 2622 N 250.899 4.44298 -5.43639 0
M  V30 2623 H 255.739 0.763743 -2.88047 0
M  V30 2624 H 253.276 0.365615 -1.42484 0
M  V30 2625 H 255.234 3.23189 -2.63827 0
M  V30 2626 H 253.864 2.81783 -1.57475 0
M  V30 2627 H 252.916 1.40102 -3.5366 0
M  V30 2628 H 254.228 2.03929 -4.55208 0
M  V30 2629 H 253.382 4.36984 -4.20868 0
M  V30 2630 H 252.121 3.76876 -3.09541 0
M  V30 2631 H 251.126 2.39729 -4.94783 0
M  V30 2632 H 252.351 3.02812 -6.0785 0
M  V30 2633 H 250.297 4.69754 -4.57895 0
M  V30 2634 H 250.214 4.25109 -6.25154 0
M  V30 2635 H 251.482 5.3087 -5.70786 0
M  V30 2636 N 255.711 1.52812 0.385517 0
M  V30 2637 C 257.127 1.4214 0.725829 0
M  V30 2638 C 257.327 0.544589 1.94001 0
M  V30 2639 O 256.383 0.0193693 2.52493 0
M  V30 2640 C 257.696 2.85042 0.957668 0
M  V30 2641 C 259.244 2.94543 1.05892 0
M  V30 2642 C 259.719 4.38464 1.32337 0
M  V30 2643 N 261.21 4.41804 1.39151 0
M  V30 2644 C 261.945 5.5025 1.61285 0
M  V30 2645 N 261.441 6.68775 1.80866 0
M  V30 2646 N 263.234 5.37798 1.63492 0
M  V30 2647 H 255.385 2.08338 -0.413383 0
M  V30 2648 H 257.648 0.940016 -0.122775 0
M  V30 2649 H 257.354 3.51431 0.137568 0
M  V30 2650 H 257.228 3.27505 1.87137 0
M  V30 2651 H 259.615 2.28321 1.86959 0
M  V30 2652 H 259.696 2.55504 0.123057 0
M  V30 2653 H 259.34 5.05254 0.517793 0
M  V30 2654 H 259.27 4.75059 2.27214 0
M  V30 2655 H 261.761 3.56377 1.25713 0
M  V30 2656 H 262.074 7.47197 1.97271 0
M  V30 2657 H 260.419 6.71797 1.78083 0
M  V30 2658 H 263.61 4.44171 1.47749 0
M  V30 2659 H 263.783 6.22382 1.80402 0
M  V30 2660 N 257.189 -0.644168 1.43834 0
M  V30 2661 C 258.437 -1.40117 1.45642 0
M  V30 2662 C 258.758 -1.94814 0.0852413 0
M  V30 2663 O 258.028 -1.74988 -0.880688 0
M  V30 2664 H 256.608 -0.52005 0.536243 0
M  V30 2665 H 259.27 -0.7591 1.7951 0
M  V30 2666 H 258.366 -2.23902 2.17427 0
M  V30 2667 N 258.668 -1.30515 -0.883378 0
M  V30 2668 C 259.893 -1.22487 -1.67367 0
M  V30 2669 C 260.318 0.208767 -1.86938 0
M  V30 2670 O 259.676 1.15015 -1.40148 0
M  V30 2671 C 259.724 -1.96041 -3.02655 0
M  V30 2672 O 258.828 -1.28859 -3.91751 0
M  V30 2673 H 258.169 -0.423573 -0.511353 0
M  V30 2674 H 260.699 -1.72362 -1.10239 0
M  V30 2675 H 260.709 -2.05124 -3.52687 0
M  V30 2676 H 259.384 -3.00307 -2.8773 0
M  V30 2677 H 257.961 -1.28141 -3.50192 0
M  V30 2678 N 260.146 1.09593 -1.13257 0
M  V30 2679 C 261.109 2.14359 -0.811358 0
M  V30 2680 C 262.109 1.59808 0.178377 0
M  V30 2681 O 263.299 1.74132 -0.0484911 0
M  V30 2682 C 260.431 3.40269 -0.207276 0
M  V30 2683 H 261.624 2.44284 -1.73969 0
M  V30 2684 H 259.177 1.25102 -0.936973 0
M  V30 2685 H 259.912 3.15969 0.73036 0
M  V30 2686 H 259.697 3.81154 -0.919992 0
M  V30 2687 H 261.187 4.176 0.000667944 0
M  V30 2688 N 261.624 0.925811 1.2754 0
M  V30 2689 C 262.554 0.440748 2.29303 0
M  V30 2690 C 263.535 -0.497971 1.62648 0
M  V30 2691 O 264.72 -0.403126 1.8997 0
M  V30 2692 C 261.85 -0.309048 3.45922 0
M  V30 2693 C 260.804 0.54166 4.24559 0
M  V30 2694 C 260.13 -0.337191 5.33636 0
M  V30 2695 C 261.43 1.80516 4.90114 0
M  V30 2696 H 263.124 1.29121 2.70126 0
M  V30 2697 H 260.67 0.622323 1.29858 0
M  V30 2698 H 262.623 -0.659315 4.1621 0
M  V30 2699 H 261.347 -1.19352 3.04011 0
M  V30 2700 H 260.006 0.874609 3.56014 0
M  V30 2701 H 259.654 -1.22056 4.87966 0
M  V30 2702 H 259.354 0.228497 5.87156 0
M  V30 2703 H 260.878 -0.683072 6.06767 0
M  V30 2704 H 262.292 1.52307 5.52698 0
M  V30 2705 H 260.689 2.3142 5.53683 0
M  V30 2706 H 261.759 2.52581 4.13921 0
M  V30 2707 N 263.102 -1.41638 0.69111 0
M  V30 2708 C 264.012 -2.34588 0.0233487 0
M  V30 2709 C 265.028 -1.55987 -0.770984 0
M  V30 2710 O 266.204 -1.88486 -0.709569 0
M  V30 2711 C 263.269 -3.34684 -0.904851 0
M  V30 2712 C 262.33 -4.29176 -0.103225 0
M  V30 2713 C 261.563 -5.2449 -0.987216 0
M  V30 2714 O 261.786 -5.2514 -2.22674 0
M  V30 2715 O 260.72 -6.00295 -0.439281 0
M  V30 2716 H 264.546 -2.93261 0.789416 0
M  V30 2717 H 262.131 -1.42417 0.45142 0
M  V30 2718 H 264.013 -3.96133 -1.43724 0
M  V30 2719 H 262.688 -2.78461 -1.65049 0
M  V30 2720 H 261.595 -3.71089 0.473655 0
M  V30 2721 H 262.928 -4.88484 0.60365 0
M  V30 2722 N 264.58 -0.43555 -1.51462 0
M  V30 2723 C 265.49 0.383001 -2.31453 0
M  V30 2724 C 266.506 1.02931 -1.4029 0
M  V30 2725 O 267.682 1.02507 -1.73362 0
M  V30 2726 C 264.747 1.47043 -3.13973 0
M  V30 2727 C 263.808 0.844433 -4.20913 0
M  V30 2728 C 263.041 1.88004 -4.9949 0
M  V30 2729 O 263.264 3.10199 -4.78678 0
M  V30 2730 O 262.198 1.47157 -5.83634 0
M  V30 2731 H 266.024 -0.269964 -3.02498 0
M  V30 2732 H 263.609 -0.19813 -1.4808 0
M  V30 2733 H 265.491 2.10113 -3.65281 0
M  V30 2734 H 264.166 2.10751 -2.45695 0
M  V30 2735 H 263.073 0.175729 -3.73687 0
M  V30 2736 H 264.406 0.250869 -4.9156 0
M  V30 2737 N 266.058 1.56714 -0.166846 0
M  V30 2738 C 267.005 2.17746 0.765193 0
M  V30 2739 C 267.975 1.11614 1.23011 0
M  V30 2740 O 269.16 1.39745 1.29908 0
M  V30 2741 C 266.3 2.81882 1.9909 0
M  V30 2742 C 265.413 4.02462 1.56997 0
M  V30 2743 C 264.548 4.54537 2.749 0
M  V30 2744 C 263.587 5.67538 2.29275 0
M  V30 2745 N 262.724 6.14142 3.40255 0
M  V30 2746 H 267.564 2.97048 0.237952 0
M  V30 2747 H 265.101 1.4672 0.105725 0
M  V30 2748 H 267.059 3.17221 2.70974 0
M  V30 2749 H 265.689 2.05191 2.49192 0
M  V30 2750 H 264.741 3.72973 0.748037 0
M  V30 2751 H 266.053 4.84273 1.19503 0
M  V30 2752 H 265.207 4.92035 3.54946 0
M  V30 2753 H 263.946 3.71774 3.1565 0
M  V30 2754 H 262.951 5.29597 1.47674 0
M  V30 2755 H 264.176 6.52099 1.89588 0
M  V30 2756 H 262.122 5.3431 3.8059 0
M  V30 2757 H 262.039 6.9093 3.06841 0
M  V30 2758 H 263.307 6.56289 4.206 0
M  V30 2759 N 267.536 -0.106894 1.57237 0
M  V30 2760 C 268.446 -1.14911 2.0453 0
M  V30 2761 C 269.462 -1.44592 0.96795 0
M  V30 2762 O 270.638 -1.55468 1.2803 0
M  V30 2763 C 267.703 -2.45272 2.45036 0
M  V30 2764 C 266.764 -2.22879 3.66911 0
M  V30 2765 C 265.997 -3.47024 4.05475 0
M  V30 2766 O 266.22 -4.54804 3.44252 0
M  V30 2767 O 265.154 -3.3731 4.98504 0
M  V30 2768 H 268.98 -0.777461 2.9358 0
M  V30 2769 H 266.565 -0.318563 1.45964 0
M  V30 2770 H 268.447 -3.22055 2.71769 0
M  V30 2771 H 267.122 -2.81886 1.59129 0
M  V30 2772 H 266.029 -1.43915 3.45311 0
M  V30 2773 H 267.362 -1.91163 4.53561 0
M  V30 2774 N 269.014 -1.53014 -0.377408 0
M  V30 2775 C 269.962 -1.7927 -1.48206 0
M  V30 2776 C 270.956 -0.661195 -1.55963 0
M  V30 2777 O 272.162 -0.843908 -1.58991 0
M  V30 2778 H 268.537 -0.567425 -0.493491 0
M  V30 2779 H 270.508 -2.71753 -1.2326 0
M  V30 2780 C 269.257 -1.98894 -2.85196 0
M  V30 2781 H 268.58 -2.85395 -2.79981 0
M  V30 2782 H 270.02 -2.21249 -3.61698 0
M  V30 2783 C 268.479 -0.764691 -3.28107 0
M  V30 2784 O 269.009 0.0523226 -4.01666 0
M  V30 2785 N 267.215 -0.591493 -2.84517 0
M  V30 2786 H 266.762 -1.25749 -2.24822 0
M  V30 2787 H 266.72 0.226253 -3.13585 0
M  V30 2788 N 270.492 0.636531 -1.44174 0
M  V30 2789 C 271.439 1.74875 -1.50624 0
M  V30 2790 C 272.409 1.62275 -0.35442 0
M  V30 2791 O 273.594 1.82276 -0.563908 0
M  V30 2792 C 270.734 3.13102 -1.45125 0
M  V30 2793 C 269.847 3.36717 -2.7064 0
M  V30 2794 C 268.982 4.64885 -2.57013 0
M  V30 2795 C 268.021 4.8166 -3.77717 0
M  V30 2796 N 267.158 6.01101 -3.62798 0
M  V30 2797 H 271.998 1.68697 -2.45653 0
M  V30 2798 H 269.535 0.823004 -1.21922 0
M  V30 2799 H 271.493 3.93034 -1.39929 0
M  V30 2800 H 270.123 3.18308 -0.536671 0
M  V30 2801 H 269.175 2.50763 -2.86046 0
M  V30 2802 H 270.487 3.44993 -3.60252 0
M  V30 2803 H 269.641 5.52969 -2.49619 0
M  V30 2804 H 268.38 4.58957 -1.64953 0
M  V30 2805 H 267.385 3.92007 -3.85501 0
M  V30 2806 H 268.61 4.89406 -4.70807 0
M  V30 2807 H 266.556 5.96273 -2.73486 0
M  V30 2808 H 266.473 6.10409 -4.46023 0
M  V30 2809 H 267.741 6.91761 -3.59286 0
M  V30 2810 N 271.97 1.30982 0.876444 0
M  V30 2811 C 273.219 1.19658 1.62373 0
M  V30 2812 C 273.532 -0.245636 1.94052 0
M  V30 2813 O 274.738 -0.48049 2.67214 0
M  V30 2814 C 273.194 2.09433 2.92687 0
M  V30 2815 C 272.802 3.58613 2.68516 0
M  V30 2816 C 274.546 2.06893 3.70669 0
M  V30 2817 C 272.453 4.40416 3.94699 0
M  V30 2818 H 271.383 0.444268 0.609214 0
M  V30 2819 H 274.034 1.55791 0.969605 0
M  V30 2820 H 272.416 1.66191 3.59439 0
M  V30 2821 H 273.59 4.10058 2.10212 0
M  V30 2822 H 271.905 3.63063 2.03898 0
M  V30 2823 H 274.502 2.65258 4.64265 0
M  V30 2824 H 274.845 1.05448 4.02724 0
M  V30 2825 H 275.378 2.48301 3.10792 0
M  V30 2826 H 272.117 5.42591 3.67798 0
M  V30 2827 H 271.637 3.93731 4.52477 0
M  V30 2828 H 273.316 4.52294 4.62644 0
M  V30 2829 N 273.449 -1.08991 1.13837 0
M  V30 2830 C 274.379 -2.17771 0.842507 0
M  V30 2831 C 275.36 -1.6892 -0.20001 0
M  V30 2832 O 276.545 -1.94113 -0.0579731 0
M  V30 2833 C 273.675 -3.4589 0.312644 0
M  V30 2834 C 272.629 -4.08099 1.28992 0
M  V30 2835 C 271.955 -5.31098 0.619623 0
M  V30 2836 C 273.255 -4.50077 2.65005 0
M  V30 2837 H 274.949 -2.42777 1.75213 0
M  V30 2838 H 272.495 -1.16682 0.843875 0
M  V30 2839 H 274.448 -4.21297 0.0933043 0
M  V30 2840 H 273.172 -3.20419 -0.632382 0
M  V30 2841 H 271.831 -3.34717 1.49533 0
M  V30 2842 H 271.479 -5.0191 -0.33102 0
M  V30 2843 H 271.179 -5.73674 1.27167 0
M  V30 2844 H 272.703 -6.09224 0.409669 0
M  V30 2845 H 274.117 -5.16688 2.48407 0
M  V30 2846 H 272.514 -5.03553 3.26427 0
M  V30 2847 H 273.584 -3.62257 3.22332 0
M  V30 2848 N 274.927 -0.932562 -1.27047 0
M  V30 2849 C 276.173 -0.576412 -1.94436 0
M  V30 2850 C 276.506 0.880891 -1.73072 0
M  V30 2851 O 275.781 1.62905 -1.06264 0
M  V30 2852 C 276.064 -0.909031 -3.48437 0
M  V30 2853 C 275.917 -2.42044 -3.79123 0
M  V30 2854 C 277.236 -0.418341 -4.38107 0
M  V30 2855 H 274.355 -0.210888 -0.706184 0
M  V30 2856 H 276.997 -1.16522 -1.50075 0
M  V30 2857 H 275.147 -0.407947 -3.86352 0
M  V30 2858 H 276.819 -2.99359 -3.50973 0
M  V30 2859 H 275.062 -2.86758 -3.25503 0
M  V30 2860 H 275.733 -2.6037 -4.86736 0
M  V30 2861 H 278.209 -0.847856 -4.0737 0
M  V30 2862 H 277.085 -0.679981 -5.44672 0
M  V30 2863 H 277.346 0.681642 -4.36814 0
M  V30 2864 N 276.405 1.4127 -0.698611 0
M  V30 2865 C 277.352 2.30773 -0.0352094 0
M  V30 2866 C 278.322 1.47273 0.768111 0
M  V30 2867 O 279.507 1.76053 0.735524 0
M  V30 2868 C 276.647 3.33346 0.893 0
M  V30 2869 C 275.76 4.31924 0.0809695 0
M  V30 2870 C 274.895 5.21566 1.0071 0
M  V30 2871 C 273.934 6.11811 0.188155 0
M  V30 2872 N 273.071 6.93926 1.06825 0
M  V30 2873 H 277.911 2.86943 -0.804207 0
M  V30 2874 H 275.448 1.4132 -0.408294 0
M  V30 2875 H 277.406 3.91368 1.44523 0
M  V30 2876 H 276.036 2.78719 1.62836 0
M  V30 2877 H 275.088 3.75825 -0.588224 0
M  V30 2878 H 276.4 4.95716 -0.553801 0
M  V30 2879 H 275.554 5.84437 1.62845 0
M  V30 2880 H 274.293 4.58008 1.67572 0
M  V30 2881 H 273.298 5.47986 -0.446254 0
M  V30 2882 H 274.523 6.77425 -0.476716 0
M  V30 2883 H 272.469 6.32973 1.72283 0
M  V30 2884 H 272.386 7.54416 0.489123 0
M  V30 2885 H 273.654 7.61262 1.67632 0
M  V30 2886 N 277.883 0.443576 1.51229 0
M  V30 2887 C 278.793 -0.370721 2.31652 0
M  V30 2888 C 279.809 -1.02186 1.40833 0
M  V30 2889 O 280.985 -1.01586 1.73903 0
M  V30 2890 C 278.05 -1.45376 3.14749 0
M  V30 2891 C 277.111 -0.822099 4.21355 0
M  V30 2892 C 276.344 -1.85353 5.0048 0
M  V30 2893 O 276.567 -3.07656 4.80316 0
M  V30 2894 O 275.501 -1.4406 5.84406 0
M  V30 2895 H 279.327 0.286002 3.0235 0
M  V30 2896 H 276.912 0.20598 1.47973 0
M  V30 2897 H 278.794 -2.08173 3.66391 0
M  V30 2898 H 277.469 -2.09445 2.46809 0
M  V30 2899 H 276.376 -0.155909 3.73775 0
M  V30 2900 H 277.709 -0.224797 4.91686 0
M  V30 2901 N 279.361 -1.56624 0.175154 0
M  V30 2902 C 280.589 -2.01374 -0.474971 0
M  V30 2903 C 281.004 -1.05537 -1.56548 0
M  V30 2904 O 280.361 -0.0568668 -1.82411 0
M  V30 2905 C 280.412 -3.45923 -1.04975 0
M  V30 2906 O 280.133 -4.381 -0.00276605 0
M  V30 2907 C 281.634 -4.06093 -1.77773 0
M  V30 2908 H 278.854 -0.659962 -0.121206 0
M  V30 2909 H 281.398 -2.02601 0.27801 0
M  V30 2910 H 279.553 -3.45458 -1.75321 0
M  V30 2911 H 279.967 -5.22753 -0.427681 0
M  V30 2912 H 281.441 -5.09147 -2.13245 0
M  V30 2913 H 281.918 -3.48405 -2.67414 0
M  V30 2914 H 282.524 -4.10272 -1.12059 0
M  V30 2915 N 280.839 0.0985539 -1.57292 0
M  V30 2916 C 282.087 0.801092 -1.85545 0
M  V30 2917 C 282.408 1.79438 -0.763353 0
M  V30 2918 O 281.678 1.94763 0.21073 0
M  V30 2919 H 280.258 0.29884 -0.684619 0
M  V30 2920 H 282.92 0.0810064 -1.94732 0
M  V30 2921 H 282.016 1.3338 -2.82163 0
M  V30 2922 N 282.317 1.53212 0.369288 0
M  V30 2923 C 283.547 1.72868 1.13139 0
M  V30 2924 C 283.955 0.455754 1.83629 0
M  V30 2925 O 283.298 -0.580861 1.74275 0
M  V30 2926 C 283.36 2.83667 2.20847 0
M  V30 2927 C 283.024 4.24142 1.70155 0
M  V30 2928 C 284.021 5.06619 1.16763 0
M  V30 2929 C 281.706 4.70539 1.7578 0
M  V30 2930 C 283.7 6.33581 0.696678 0
M  V30 2931 C 281.387 5.97481 1.28297 0
M  V30 2932 C 282.385 6.78833 0.753307 0
M  V30 2933 O 282.073 8.03393 0.285475 0
M  V30 2934 H 281.805 0.581707 0.344373 0
M  V30 2935 H 284.359 2.00736 0.435243 0
M  V30 2936 H 282.589 2.51265 2.93944 0
M  V30 2937 H 284.278 2.91536 2.82421 0
M  V30 2938 H 285.044 4.71948 1.11758 0
M  V30 2939 H 280.923 4.07293 2.15949 0
M  V30 2940 H 284.467 6.97027 0.282581 0
M  V30 2941 H 280.364 6.31651 1.32994 0
M  V30 2942 H 281.132 8.17497 0.405145 0
M  V30 2943 N 283.795 -0.628877 1.44509 0
M  V30 2944 C 285.042 -1.38839 1.47411 0
M  V30 2945 C 285.37 -1.94202 0.10757 0
M  V30 2946 O 284.625 -1.74243 -0.890947 0
M  V30 2947 C 284.924 -2.56995 2.48371 0
M  V30 2948 C 284.59 -2.19908 3.93639 0
M  V30 2949 C 283.252 -2.09506 4.33198 0
M  V30 2950 C 285.604 -1.9064 4.85083 0
M  V30 2951 C 282.932 -1.68028 5.62124 0
M  V30 2952 C 285.284 -1.50655 6.14399 0
M  V30 2953 C 283.948 -1.38796 6.5291 0
M  V30 2954 H 283.218 -0.508048 0.539414 0
M  V30 2955 H 285.865 -0.712913 1.77735 0
M  V30 2956 H 284.17 -3.29786 2.11538 0
M  V30 2957 H 285.867 -3.15223 2.47861 0
M  V30 2958 H 282.457 -2.28922 3.62343 0
M  V30 2959 H 286.641 -1.97585 4.55273 0
M  V30 2960 H 281.897 -1.57452 5.90778 0
M  V30 2961 H 286.071 -1.27048 6.84713 0
M  V30 2962 H 283.698 -1.06429 7.52713 0
M  V30 2963 N 285.273 -1.31445 -0.869486 0
M  V30 2964 C 286.52 -1.21158 -1.62256 0
M  V30 2965 C 286.848 0.230155 -1.93133 0
M  V30 2966 O 286.103 1.17906 -1.56194 0
M  V30 2967 C 286.402 -2.00145 -2.96102 0
M  V30 2968 C 286.068 -3.4964 -2.84715 0
M  V30 2969 C 284.73 -3.90403 -2.81317 0
M  V30 2970 C 287.082 -4.44769 -2.71716 0
M  V30 2971 C 284.41 -5.24561 -2.62778 0
M  V30 2972 C 286.762 -5.79054 -2.54714 0
M  V30 2973 C 285.426 -6.19037 -2.49699 0
M  V30 2974 H 284.696 -0.443348 -0.593737 0
M  V30 2975 H 287.343 -1.62715 -1.00976 0
M  V30 2976 H 285.648 -1.5127 -3.6142 0
M  V30 2977 H 287.345 -1.89566 -3.53363 0
M  V30 2978 H 283.935 -3.17256 -2.88178 0
M  V30 2979 H 288.119 -4.14208 -2.73397 0
M  V30 2980 H 283.375 -5.54613 -2.57321 0
M  V30 2981 H 287.549 -6.52393 -2.43632 0
M  V30 2982 H 285.176 -7.22935 -2.35093 0
M  V30 2983 N 286.751 1.08385 -1.14413 0
M  V30 2984 C 288 1.80153 -0.907076 0
M  V30 2985 C 288.313 1.87176 0.567851 0
M  V30 2986 O 289.519 2.55359 0.922172 0
M  V30 2987 C 287.975 3.23687 -1.57336 0
M  V30 2988 C 287.583 3.24897 -3.08457 0
M  V30 2989 C 289.327 4.00136 -1.41744 0
M  V30 2990 C 287.234 4.6302 -3.67921 0
M  V30 2991 H 286.164 0.675139 -0.335714 0
M  V30 2992 H 288.815 1.21733 -1.37307 0
M  V30 2993 H 287.197 3.82234 -1.03505 0
M  V30 2994 H 288.371 2.76055 -3.68958 0
M  V30 2995 H 286.686 2.61943 -3.2369 0
M  V30 2996 H 289.283 5.02201 -1.83572 0
M  V30 2997 H 289.626 4.14709 -0.363576 0
M  V30 2998 H 290.159 3.48058 -1.92614 0
M  V30 2999 H 286.898 4.5365 -4.73161 0
M  V30 3000 H 286.418 5.12143 -3.12201 0
M  V30 3001 H 288.097 5.31994 -3.68227 0
M  V30 3002 N 288.23 0.939286 1.26551 0
M  V30 3003 C 289.46 0.601663 1.97645 0
M  V30 3004 C 289.868 -0.827206 1.70159 0
M  V30 3005 O 289.211 -1.56291 0.965338 0
M  V30 3006 C 289.273 0.761725 3.51337 0
M  V30 3007 C 288.937 2.16487 4.0247 0
M  V30 3008 C 289.934 3.14016 4.14355 0
M  V30 3009 C 287.619 2.48494 4.36527 0
M  V30 3010 C 289.613 4.41654 4.59587 0
M  V30 3011 C 287.3 3.76364 4.81449 0
M  V30 3012 C 288.298 4.72758 4.92939 0
M  V30 3013 O 287.986 5.98352 5.36871 0
M  V30 3014 H 287.718 0.225758 0.637189 0
M  V30 3015 H 290.272 1.26178 1.62075 0
M  V30 3016 H 288.502 0.0444808 3.86674 0
M  V30 3017 H 290.191 0.427442 4.03643 0
M  V30 3018 H 290.957 2.90613 3.8829 0
M  V30 3019 H 286.836 1.74202 4.26819 0
M  V30 3020 H 290.38 5.16896 4.68471 0
M  V30 3021 H 286.277 3.99582 5.06956 0
M  V30 3022 H 287.045 6.01507 5.55096 0
M  V30 3023 N 289.708 -1.40897 0.706093 0
M  V30 3024 C 290.956 -2.00657 0.241054 0
M  V30 3025 C 291.277 -1.56241 -1.16678 0
M  V30 3026 O 290.547 -0.79765 -1.78926 0
M  V30 3027 H 289.127 -0.742018 0.0861308 0
M  V30 3028 H 291.789 -1.72372 0.909604 0
M  V30 3029 H 290.885 -3.10958 0.266705 0
M  V30 3030 N 291.186 -0.45159 -1.50991 0
M  V30 3031 C 292.118 0.388634 -2.25881 0
M  V30 3032 C 293.131 0.974041 -1.30446 0
M  V30 3033 O 294.32 0.865758 -1.56099 0
M  V30 3034 C 291.42 1.5571 -3.01011 0
M  V30 3035 C 290.593 1.08801 -4.23652 0
M  V30 3036 C 289.652 2.12825 -4.8124 0
M  V30 3037 O 288.678 1.71678 -5.42693 0
M  V30 3038 N 289.88 3.45453 -4.66522 0
M  V30 3039 H 292.645 -0.25329 -2.98628 0
M  V30 3040 H 290.206 -0.281268 -1.59438 0
M  V30 3041 H 292.198 2.24952 -3.3642 0
M  V30 3042 H 290.768 2.10409 -2.31186 0
M  V30 3043 H 289.988 0.22215 -3.93574 0
M  V30 3044 H 291.276 0.752213 -5.03209 0
M  V30 3045 H 290.674 3.81605 -4.17605 0
M  V30 3046 H 289.231 4.10549 -5.06254 0
M  V30 3047 N 292.664 1.56529 -0.183458 0
M  V30 3048 C 293.91 1.97537 0.459036 0
M  V30 3049 C 294.243 1.06989 1.62071 0
M  V30 3050 O 293.518 0.11948 1.94133 0
M  V30 3051 C 293.801 3.47874 0.930368 0
M  V30 3052 C 293.654 4.492 -0.232317 0
M  V30 3053 C 294.973 4.01612 1.79989 0
M  V30 3054 H 292.092 0.718204 0.165383 0
M  V30 3055 H 294.734 1.88042 -0.272038 0
M  V30 3056 H 292.884 3.56095 1.55333 0
M  V30 3057 H 294.556 4.53027 -0.86972 0
M  V30 3058 H 292.799 4.24657 -0.885928 0
M  V30 3059 H 293.47 5.51823 0.139796 0
M  V30 3060 H 295.946 3.96097 1.27461 0
M  V30 3061 H 294.822 5.07195 2.09867 0
M  V30 3062 H 295.083 3.46163 2.74998 0
M  V30 3063 N 294.142 -0.090211 1.57342 0
M  V30 3064 C 295.072 -1.10976 2.05443 0
M  V30 3065 C 296.053 -1.41482 0.944284 0
M  V30 3066 O 297.238 -1.51428 1.21586 0
M  V30 3067 C 294.368 -2.42831 2.48295 0
M  V30 3068 C 293.322 -2.26721 3.63018 0
M  V30 3069 C 292.648 -3.63796 3.91863 0
M  V30 3070 C 293.948 -1.7037 4.93732 0
M  V30 3071 H 295.642 -0.709564 2.9087 0
M  V30 3072 H 293.188 -0.339874 1.39932 0
M  V30 3073 H 295.141 -3.14431 2.80555 0
M  V30 3074 H 293.865 -2.84795 1.59873 0
M  V30 3075 H 292.524 -1.57565 3.31012 0
M  V30 3076 H 292.172 -4.03297 3.00601 0
M  V30 3077 H 291.872 -3.53861 4.69101 0
M  V30 3078 H 293.396 -4.36855 4.26603 0
M  V30 3079 H 294.81 -2.31816 5.24342 0
M  V30 3080 H 293.207 -1.71181 5.75167 0
M  V30 3081 H 294.277 -0.663542 4.80339 0
M  V30 3082 N 295.62 -1.53406 -0.361157 0
M  V30 3083 C 296.85 -1.73465 -1.1222 0
M  V30 3084 C 297.258 -0.465486 -1.83384 0
M  V30 3085 O 296.601 0.571611 -1.7458 0
M  V30 3086 C 296.663 -2.84834 -2.19339 0
M  V30 3087 C 296.327 -4.25038 -1.67903 0
M  V30 3088 C 297.324 -5.07231 -1.14074 0
M  V30 3089 C 295.009 -4.71464 -1.73282 0
M  V30 3090 C 297.003 -6.33942 -0.663068 0
M  V30 3091 C 294.69 -5.98153 -1.25127 0
M  V30 3092 C 295.688 -6.79223 -0.717296 0
M  V30 3093 O 295.376 -8.03533 -0.242865 0
M  V30 3094 H 295.108 -0.583526 -0.341283 0
M  V30 3095 H 297.662 -2.00964 -0.424591 0
M  V30 3096 H 295.892 -2.5282 -2.92607 0
M  V30 3097 H 297.581 -2.9303 -2.80871 0
M  V30 3098 H 298.347 -4.72534 -1.09254 0
M  V30 3099 H 294.226 -4.08432 -2.13786 0
M  V30 3100 H 297.77 -6.97167 -0.245612 0
M  V30 3101 H 293.667 -6.32347 -1.29642 0
M  V30 3102 H 294.435 -8.177 -0.361786 0
M  V30 3103 N 297.098 0.621204 -1.44841 0
M  V30 3104 C 298.326 1.40752 -1.51646 0
M  V30 3105 C 298.741 1.88246 -0.144549 0
M  V30 3106 O 298.098 1.61422 0.851416 0
M  V30 3107 C 298.149 2.62119 -2.4895 0
M  V30 3108 O 297.87 2.16602 -3.80808 0
M  V30 3109 C 299.371 3.55135 -2.65319 0
M  V30 3110 H 296.591 0.431325 -0.514004 0
M  V30 3111 H 299.135 0.758835 -1.899 0
M  V30 3112 H 297.29 3.23058 -2.13805 0
M  V30 3113 H 297.704 2.95358 -4.33433 0
M  V30 3114 H 299.178 4.36874 -3.37409 0
M  V30 3115 H 299.655 4.04592 -1.70886 0
M  V30 3116 H 300.261 3.00058 -3.01405 0
M  V30 3117 N 298.576 1.31904 0.862503 0
M  V30 3118 C 299.853 1.12644 1.59908 0
M  V30 3119 C 300.233 -0.316104 2.0872 0
M  V30 3120 O 299.581 -1.31145 1.87118 0
M  V30 3121 C 299.791 2.1472 2.7513 0
M  V30 3122 C 301.139 2.47637 3.44907 0
M  V30 3123 O 302.163 2.13205 2.85346 0
M  V30 3124 O 301.022 3.06632 4.52371 0
M  V30 3125 H 298.116 0.43416 0.703871 0
M  V30 3126 H 300.662 1.43408 0.907314 0
M  V30 3127 H 299.434 3.1172 2.3653 0
M  V30 3128 H 299.057 1.84905 3.51989 0
M  V30 3129 N 300.054 -1.07777 1.14986 0
M  V30 3130 C 301.001 -2.14867 0.842672 0
M  V30 3131 C 301.971 -1.6486 -0.202552 0
M  V30 3132 O 303.156 -1.90668 -0.0710568 0
M  V30 3133 C 300.296 -3.43486 0.333363 0
M  V30 3134 C 299.409 -4.07306 1.43965 0
M  V30 3135 C 298.544 -5.23744 0.886914 0
M  V30 3136 C 297.583 -5.79517 1.97043 0
M  V30 3137 N 296.72 -6.87291 1.4344 0
M  V30 3138 H 301.56 -2.40485 1.75986 0
M  V30 3139 H 299.097 -1.1801 0.878179 0
M  V30 3140 H 301.055 -4.17195 0.0198163 0
M  V30 3141 H 299.685 -3.18133 -0.546916 0
M  V30 3142 H 298.737 -3.31293 1.86946 0
M  V30 3143 H 300.049 -4.44771 2.25788 0
M  V30 3144 H 299.203 -6.04419 0.525651 0
M  V30 3145 H 297.942 -4.87685 0.0377957 0
M  V30 3146 H 296.947 -4.97491 2.34057 0
M  V30 3147 H 298.172 -6.17632 2.82325 0
M  V30 3148 H 296.118 -6.5318 0.607567 0
M  V30 3149 H 296.035 -7.23617 2.18895 0
M  V30 3150 H 297.303 -7.71682 1.10124 0
M  V30 3151 N 301.532 -0.945985 -1.26051 0
M  V30 3152 C 302.76 -0.613025 -1.9761 0
M  V30 3153 C 303.175 0.813035 -1.70397 0
M  V30 3154 O 302.532 1.54274 -0.974979 0
M  V30 3155 C 302.583 -0.85159 -3.51326 0
M  V30 3156 O 302.304 -2.22157 -3.77595 0
M  V30 3157 C 303.805 -0.529831 -4.40122 0
M  V30 3158 H 301.025 -0.230593 -0.630133 0
M  V30 3159 H 303.569 -1.268 -1.60443 0
M  V30 3160 H 301.724 -0.243151 -3.86636 0
M  V30 3161 H 302.138 -2.2852 -4.721 0
M  V30 3162 H 303.612 -0.747348 -5.46917 0
M  V30 3163 H 304.089 0.535341 -4.35925 0
M  V30 3164 H 304.695 -1.11721 -4.10364 0
M  V30 3165 N 303.011 1.40521 -0.713556 0
M  V30 3166 C 304.241 2.0494 -0.261395 0
M  V30 3167 C 304.649 1.53861 1.10107 0
M  V30 3168 O 303.992 0.689321 1.70276 0
M  V30 3169 C 304.054 3.59138 -0.161227 0
M  V30 3170 C 303.718 4.33096 -1.45865 0
M  V30 3171 C 304.715 4.61182 -2.40016 0
M  V30 3172 C 302.4 4.72043 -1.71701 0
M  V30 3173 C 304.394 5.27196 -3.58251 0
M  V30 3174 C 302.081 5.37789 -2.90218 0
M  V30 3175 C 303.079 5.65295 -3.83315 0
M  V30 3176 O 302.767 6.29683 -4.99754 0
M  V30 3177 H 302.499 0.666041 -0.115608 0
M  V30 3178 H 305.053 1.80954 -0.971849 0
M  V30 3179 H 303.283 3.81936 0.605153 0
M  V30 3180 H 304.972 4.05091 0.256105 0
M  V30 3181 H 305.738 4.31559 -2.21318 0
M  V30 3182 H 301.617 4.50003 -1.00092 0
M  V30 3183 H 305.161 5.48582 -4.30934 0
M  V30 3184 H 301.058 5.66831 -3.08825 0
M  V30 3185 H 301.826 6.4818 -4.99805 0
M  V30 3186 N 304.489 0.459591 1.5075 0
M  V30 3187 C 305.452 -0.329093 2.26825 0
M  V30 3188 C 306.452 -0.930481 1.31144 0
M  V30 3189 O 307.642 -0.801453 1.54669 0
M  V30 3190 C 304.774 -1.46768 3.07688 0
M  V30 3191 H 305.967 0.337924 2.9799 0
M  V30 3192 H 303.52 0.213336 1.54837 0
M  V30 3193 H 304.255 -2.17009 2.40993 0
M  V30 3194 H 304.04 -1.04238 3.77991 0
M  V30 3195 H 305.53 -2.02433 3.65254 0
M  V30 3196 N 305.967 -1.56429 0.191757 0
M  V30 3197 C 306.9 -2.14829 -0.76967 0
M  V30 3198 C 307.878 -1.08405 -1.2119 0
M  V30 3199 O 309.062 -1.36498 -1.30002 0
M  V30 3200 C 306.189 -2.70446 -2.03903 0
M  V30 3201 C 305.235 -3.89428 -1.7392 0
M  V30 3202 S 306.068 -5.28048 -0.890265 0
M  V30 3203 C 307.224 -5.87085 -2.16984 0
M  V30 3204 H 307.457 -2.96042 -0.273204 0
M  V30 3205 H 304.99 -1.54383 -0.0231975 0
M  V30 3206 H 306.948 -3.03134 -2.76803 0
M  V30 3207 H 305.609 -1.89281 -2.50662 0
M  V30 3208 H 304.802 -4.26742 -2.68155 0
M  V30 3209 H 304.404 -3.57732 -1.09103 0
M  V30 3210 H 306.696 -6.01244 -3.12269 0
M  V30 3211 H 307.639 -6.83747 -1.84108 0
M  V30 3212 H 308.047 -5.15663 -2.29678 0
M  V30 3213 N 307.445 0.0818655 -1.57387 0
M  V30 3214 C 308.693 0.781368 -1.86384 0
M  V30 3215 C 309.014 1.78618 -0.782342 0
M  V30 3216 O 308.284 1.94976 0.190061 0
M  V30 3217 H 306.864 0.291562 -0.687751 0
M  V30 3218 H 309.526 0.060348 -1.94807 0
M  V30 3219 H 308.622 1.3038 -2.83562 0
M  V30 3220 N 308.923 1.53595 0.353017 0
M  V30 3221 C 309.873 1.77299 1.43349 0
M  V30 3222 C 310.857 0.627884 1.48143 0
M  V30 3223 O 312.049 0.88697 1.53173 0
M  V30 3224 C 309.178 1.97757 2.80619 0
M  V30 3225 C 308.264 3.18305 2.80254 0
M  V30 3226 N 308.655 4.39967 2.49526 0
M  V30 3227 C 306.953 3.19283 3.11407 0
M  V30 3228 C 307.654 5.21772 2.57156 0
M  V30 3229 N 306.63 4.58269 2.92388 0
M  V30 3230 H 310.432 2.68963 1.18474 0
M  V30 3231 H 307.946 1.52391 0.561306 0
M  V30 3232 H 309.943 2.1287 3.58458 0
M  V30 3233 H 308.603 1.07329 3.06448 0
M  V30 3234 H 309.614 4.67482 2.22893 0
M  V30 3235 H 306.291 2.3879 3.4247 0
M  V30 3236 H 307.681 6.2885 2.36638 0
M  V30 3237 N 310.401 -0.613514 1.45168 0
M  V30 3238 C 311.331 -1.7354 1.56225 0
M  V30 3239 C 312.312 -1.64981 0.41414 0
M  V30 3240 O 313.497 -1.83472 0.636526 0
M  V30 3241 C 310.627 -3.12128 1.52295 0
M  V30 3242 C 309.581 -3.35491 2.65762 0
M  V30 3243 C 308.907 -4.74291 2.46885 0
M  V30 3244 C 310.207 -3.26325 4.0781 0
M  V30 3245 H 311.901 -1.64543 2.50132 0
M  V30 3246 H 309.447 -0.790185 1.20383 0
M  V30 3247 H 311.4 -3.90404 1.58628 0
M  V30 3248 H 310.124 -3.2195 0.549139 0
M  V30 3249 H 308.783 -2.59603 2.58847 0
M  V30 3250 H 308.431 -4.80839 1.47657 0
M  V30 3251 H 308.131 -4.9088 3.22972 0
M  V30 3252 H 309.655 -5.54775 2.55063 0
M  V30 3253 H 311.069 -3.94483 4.16 0
M  V30 3254 H 309.466 -3.54445 4.8424 0
M  V30 3255 H 310.536 -2.23855 4.30136 0
M  V30 3256 N 311.879 -1.3236 -0.855495 0
M  V30 3257 C 313.128 -1.22226 -1.60448 0
M  V30 3258 C 313.441 0.214733 -1.94418 0
M  V30 3259 O 314.647 0.437917 -2.67945 0
M  V30 3260 C 313.103 -2.14063 -2.89318 0
M  V30 3261 C 312.711 -3.62839 -2.62777 0
M  V30 3262 C 314.455 -2.12764 -3.67331 0
M  V30 3263 C 312.362 -4.4664 -3.87643 0
M  V30 3264 H 311.292 -0.453904 -0.602069 0
M  V30 3265 H 313.943 -1.57314 -0.944698 0
M  V30 3266 H 312.325 -1.71889 -3.5675 0
M  V30 3267 H 313.499 -4.1335 -2.03662 0
M  V30 3268 H 311.814 -3.66261 -1.98096 0
M  V30 3269 H 314.411 -2.72611 -4.59987 0
M  V30 3270 H 314.754 -1.11841 -4.00995 0
M  V30 3271 H 315.287 -2.53214 -3.06802 0
M  V30 3272 H 312.026 -5.48373 -3.5912 0
M  V30 3273 H 311.546 -4.0088 -4.46156 0
M  V30 3274 H 313.225 -4.59597 -4.55389 0
M  V30 3275 N 313.357 1.07166 -1.15556 0
M  V30 3276 C 314.289 2.14341 -0.811815 0
M  V30 3277 C 315.302 1.61835 0.177015 0
M  V30 3278 O 316.491 1.78439 -0.0464996 0
M  V30 3279 C 313.591 3.38387 -0.186481 0
M  V30 3280 C 312.764 4.20238 -1.21321 0
M  V30 3281 C 311.823 5.2266 -0.609302 0
M  V30 3282 O 310.849 5.54719 -1.27576 0
M  V30 3283 N 312.051 5.77306 0.608099 0
M  V30 3284 H 314.816 2.44431 -1.73417 0
M  V30 3285 H 312.377 1.23089 -1.0517 0
M  V30 3286 H 314.369 4.04044 0.230339 0
M  V30 3287 H 312.939 3.05994 0.639249 0
M  V30 3288 H 312.159 3.50369 -1.80652 0
M  V30 3289 H 313.447 4.71736 -1.90638 0
M  V30 3290 H 312.845 5.53513 1.1679 0
M  V30 3291 H 311.402 6.44583 0.96725 0
M  V30 3292 N 314.835 0.952656 1.25548 0
M  V30 3293 C 316.251 0.656769 1.4546 0
M  V30 3294 C 316.451 -0.78633 1.85524 0
M  V30 3295 O 315.507 -1.56183 1.98402 0
M  V30 3296 C 316.82 1.62801 2.52817 0
M  V30 3297 C 318.368 1.63897 2.66659 0
M  V30 3298 C 318.843 2.5978 3.77198 0
M  V30 3299 N 320.334 2.58133 3.84606 0
M  V30 3300 C 321.069 3.29003 4.69621 0
M  V30 3301 N 320.565 4.09339 5.58939 0
M  V30 3302 N 322.358 3.179 4.63569 0
M  V30 3303 H 314.509 1.88526 0.978344 0
M  V30 3304 H 316.772 0.810815 0.491206 0
M  V30 3305 H 316.478 2.65869 2.30232 0
M  V30 3306 H 316.352 1.38898 3.50695 0
M  V30 3307 H 318.739 0.615481 2.8861 0
M  V30 3308 H 318.82 1.91858 1.69187 0
M  V30 3309 H 318.464 3.62254 3.55997 0
M  V30 3310 H 318.394 2.29105 4.7415 0
M  V30 3311 H 320.885 1.99809 3.20757 0
M  V30 3312 H 321.198 4.6034 6.20731 0
M  V30 3313 H 319.543 4.13438 5.58654 0
M  V30 3314 H 322.734 2.54612 3.92798 0
M  V30 3315 H 322.907 3.73398 5.29602 0
M  V30 3316 N 316.313 -1.40141 0.720998 0
M  V30 3317 C 317.26 -2.30688 0.071919 0
M  V30 3318 C 318.23 -1.48476 -0.744584 0
M  V30 3319 O 319.415 -1.77201 -0.707423 0
M  V30 3320 C 316.555 -3.34724 -0.839855 0
M  V30 3321 C 315.668 -4.31998 -0.0122438 0
M  V30 3322 C 314.803 -5.23102 -0.923995 0
M  V30 3323 C 313.842 -6.12033 -0.0907969 0
M  V30 3324 N 312.979 -6.95537 -0.957718 0
M  V30 3325 H 317.819 -2.85628 0.849755 0
M  V30 3326 H 315.356 -1.40653 0.430726 0
M  V30 3327 H 317.314 -3.93618 -1.38279 0
M  V30 3328 H 315.944 -2.81274 -1.58381 0
M  V30 3329 H 314.996 -3.74841 0.64794 0
M  V30 3330 H 316.308 -4.94772 0.632595 0
M  V30 3331 H 315.462 -5.86953 -1.53527 0
M  V30 3332 H 314.201 -4.60615 -1.60264 0
M  V30 3333 H 313.206 -5.47207 0.533377 0
M  V30 3334 H 314.431 -6.76581 0.584428 0
M  V30 3335 H 312.377 -6.35633 -1.62192 0
M  V30 3336 H 312.294 -7.55099 -0.36904 0
M  V30 3337 H 313.562 -7.63832 -1.555 0
M  V30 3338 N 317.792 -0.46758 -1.50504 0
M  V30 3339 C 318.739 0.328413 -2.28452 0
M  V30 3340 C 319.709 0.990313 -1.33349 0
M  V30 3341 O 320.894 1.00343 -1.62284 0
M  V30 3342 C 318.034 1.40648 -3.15138 0
M  V30 3343 C 317.147 0.759709 -4.25267 0
M  V30 3344 C 316.282 1.81537 -4.99217 0
M  V30 3345 C 315.321 1.14866 -6.01226 0
M  V30 3346 N 314.458 2.14702 -6.68467 0
M  V30 3347 H 319.298 -0.342603 -2.96024 0
M  V30 3348 H 316.835 -0.180801 -1.45985 0
M  V30 3349 H 318.793 2.04315 -3.63746 0
M  V30 3350 H 317.423 2.04671 -2.49619 0
M  V30 3351 H 316.475 0.0105671 -3.80399 0
M  V30 3352 H 317.787 0.233243 -4.98254 0
M  V30 3353 H 316.941 2.52793 -5.51526 0
M  V30 3354 H 315.68 2.37564 -4.25928 0
M  V30 3355 H 314.685 0.42171 -5.4818 0
M  V30 3356 H 315.91 0.595334 -6.76485 0
M  V30 3357 H 313.856 2.69752 -5.97972 0
M  V30 3358 H 313.773 1.6703 -7.37317 0
M  V30 3359 H 315.041 2.85348 -7.25394 0
M  V30 3360 N 319.27 1.56325 -0.20005 0
M  V30 3361 C 320.516 1.98012 0.438059 0
M  V30 3362 C 320.849 1.08702 1.60927 0
M  V30 3363 O 320.124 0.140064 1.93995 0
M  V30 3364 C 320.407 3.48841 0.893419 0
M  V30 3365 C 320.26 4.48928 -0.279947 0
M  V30 3366 C 321.579 4.03498 1.75719 0
M  V30 3367 H 318.698 0.719918 0.157757 0
M  V30 3368 H 321.34 1.87743 -0.291968 0
M  V30 3369 H 319.49 3.57723 1.51547 0
M  V30 3370 H 321.162 4.52079 -0.91772 0
M  V30 3371 H 319.405 4.23694 -0.930919 0
M  V30 3372 H 320.076 5.5194 0.0812601 0
M  V30 3373 H 322.552 3.97427 1.23253 0
M  V30 3374 H 321.428 5.09393 2.04476 0
M  V30 3375 H 321.689 3.4906 2.71311 0
M  V30 3376 N 320.748 -0.0735177 1.57428 0
M  V30 3377 C 321.698 -1.09442 2.00016 0
M  V30 3378 C 322.682 -1.34575 0.881947 0
M  V30 3379 O 323.874 -1.34905 1.14585 0
M  V30 3380 C 321.003 -2.40865 2.4462 0
M  V30 3381 C 320.089 -2.19014 3.63172 0
M  V30 3382 N 320.48 -1.67087 4.77405 0
M  V30 3383 C 318.778 -2.49494 3.69688 0
M  V30 3384 C 319.479 -1.6001 5.5926 0
M  V30 3385 N 318.455 -2.05999 5.03056 0
M  V30 3386 H 322.257 -0.686227 2.85776 0
M  V30 3387 H 319.771 -0.280617 1.59957 0
M  V30 3388 H 321.768 -3.14763 2.73368 0
M  V30 3389 H 320.428 -2.82403 1.60246 0
M  V30 3390 H 321.439 -1.35975 4.99731 0
M  V30 3391 H 318.116 -2.94409 2.96023 0
M  V30 3392 H 319.506 -1.2073 6.60964 0
M  V30 3393 N 322.226 -1.5378 -0.344866 0
M  V30 3394 C 323.472 -1.71216 -1.08687 0
M  V30 3395 C 323.805 -0.473281 -1.88345 0
M  V30 3396 O 323.08 0.52968 -1.87149 0
M  V30 3397 C 323.363 -2.97486 -2.02914 0
M  V30 3398 C 323.216 -4.31579 -1.26727 0
M  V30 3399 C 324.535 -3.19422 -3.0275 0
M  V30 3400 H 321.654 -0.62301 -0.393735 0
M  V30 3401 H 324.296 -1.8645 -0.365563 0
M  V30 3402 H 322.446 -2.84629 -2.64421 0
M  V30 3403 H 324.118 -4.56284 -0.67845 0
M  V30 3404 H 322.361 -4.30049 -0.569273 0
M  V30 3405 H 323.032 -5.16106 -1.95803 0
M  V30 3406 H 325.508 -3.316 -2.51357 0
M  V30 3407 H 324.384 -4.09169 -3.65885 0
M  V30 3408 H 324.645 -2.35656 -3.74057 0
M  V30 3409 N 323.704 0.605807 -1.45491 0
M  V30 3410 C 324.951 1.36476 -1.49601 0
M  V30 3411 C 325.279 1.94007 -0.138452 0
M  V30 3412 O 324.534 1.75638 0.863114 0
M  V30 3413 C 324.833 2.53012 -2.52428 0
M  V30 3414 C 324.499 2.13617 -3.97087 0
M  V30 3415 C 323.161 2.02587 -4.36477 0
M  V30 3416 C 325.513 1.82899 -4.88055 0
M  V30 3417 C 322.841 1.59064 -5.64726 0
M  V30 3418 C 325.193 1.40861 -6.16718 0
M  V30 3419 C 323.857 1.28391 -6.55036 0
M  V30 3420 H 323.127 0.499402 -0.547429 0
M  V30 3421 H 325.774 0.684546 -1.78847 0
M  V30 3422 H 324.079 3.26379 -2.16758 0
M  V30 3423 H 325.776 3.1124 -2.52845 0
M  V30 3424 H 322.366 2.23129 -3.65939 0
M  V30 3425 H 326.55 1.90317 -4.58359 0
M  V30 3426 H 321.806 1.48034 -5.93208 0
M  V30 3427 H 325.98 1.16138 -6.86648 0
M  V30 3428 H 323.607 0.944403 -7.54311 0
M  V30 3429 N 325.182 1.32811 0.848464 0
M  V30 3430 C 326.43 1.23479 1.59991 0
M  V30 3431 C 326.751 -0.201853 1.93952 0
M  V30 3432 O 326.021 -1.12818 1.60153 0
M  V30 3433 H 324.601 0.454034 0.593179 0
M  V30 3434 H 327.263 1.66412 1.01455 0
M  V30 3435 H 326.359 1.82178 2.53412 0
M  V30 3436 N 326.66 -1.06551 1.16123 0
M  V30 3437 C 327.937 -1.76097 0.85142 0
M  V30 3438 C 328.317 -2.00802 -0.6513 0
M  V30 3439 O 327.665 -1.63302 -1.59827 0
M  V30 3440 C 327.875 -3.06384 1.67122 0
M  V30 3441 C 329.223 -3.80585 1.88255 0
M  V30 3442 O 330.247 -3.16218 1.63966 0
M  V30 3443 O 329.106 -4.96212 2.2899 0
M  V30 3444 H 326.2 -0.765102 0.313923 0
M  V30 3445 H 328.746 -1.12844 1.26745 0
M  V30 3446 H 327.518 -2.84071 2.69108 0
M  V30 3447 H 327.141 -3.77371 1.25206 0
M  V30 3448 N 328.138 -0.959301 -1.25041 0
M  V30 3449 C 329.048 -0.489994 -2.29426 0
M  V30 3450 C 330.064 0.444944 -1.68215 0
M  V30 3451 O 331.24 0.320046 -1.98841 0
M  V30 3452 C 328.305 0.220309 -3.45999 0
M  V30 3453 C 327.366 -0.753418 -4.22637 0
M  V30 3454 C 326.599 -0.076918 -5.33645 0
M  V30 3455 O 326.822 1.13649 -5.58963 0
M  V30 3456 O 325.756 -0.764824 -5.97021 0
M  V30 3457 H 329.582 -1.35755 -2.71669 0
M  V30 3458 H 327.167 -0.725961 -1.30576 0
M  V30 3459 H 329.049 0.619677 -4.16819 0
M  V30 3460 H 327.724 1.06296 -3.0575 0
M  V30 3461 H 326.631 -1.20308 -3.54227 0
M  V30 3462 H 327.964 -1.56423 -4.66683 0
M  V30 3463 N 329.616 1.39756 -0.72842 0
M  V30 3464 C 330.546 2.33289 -0.0991354 0
M  V30 3465 C 331.527 1.53568 0.731489 0
M  V30 3466 O 332.712 1.81987 0.677807 0
M  V30 3467 C 329.842 3.3763 0.813834 0
M  V30 3468 C 328.796 4.2791 0.0878663 0
M  V30 3469 C 328.122 5.22894 1.11741 0
M  V30 3470 C 329.422 5.11314 -1.06563 0
M  V30 3471 H 331.116 2.86163 -0.880408 0
M  V30 3472 H 328.662 1.37591 -0.424819 0
M  V30 3473 H 330.615 4.0201 1.26355 0
M  V30 3474 H 329.339 2.83181 1.62715 0
M  V30 3475 H 327.998 3.65 -0.342159 0
M  V30 3476 H 327.646 4.64744 1.92412 0
M  V30 3477 H 327.346 5.84143 0.636477 0
M  V30 3478 H 328.87 5.90151 1.56697 0
M  V30 3479 H 330.284 5.69076 -0.694671 0
M  V30 3480 H 328.681 5.81671 -1.47577 0
M  V30 3481 H 329.751 4.46534 -1.89038 0
M  V30 3482 N 331.094 0.475555 1.50254 0
M  V30 3483 C 332.319 -0.0777042 2.07254 0
M  V30 3484 C 332.744 -1.3235 1.3366 0
M  V30 3485 O 332.102 -1.77152 0.385597 0
M  V30 3486 C 332.15 -0.340169 3.58992 0
M  V30 3487 O 331.254 -1.41982 3.87188 0
M  V30 3488 H 330.595 0.0149556 0.663832 0
M  V30 3489 H 333.125 0.667878 1.93392 0
M  V30 3490 H 333.135 -0.579332 4.03866 0
M  V30 3491 H 331.81 0.570167 4.11973 0
M  V30 3492 H 330.387 -1.16762 3.54148 0
M  V30 3493 N 332.573 -1.56217 0.208337 0
M  V30 3494 C 333.503 -2.22694 -0.702116 0
M  V30 3495 C 334.484 -1.19432 -1.2112 0
M  V30 3496 O 335.669 -1.47978 -1.25762 0
M  V30 3497 C 332.799 -2.8966 -1.9161 0
M  V30 3498 C 331.753 -3.9928 -1.5414 0
M  V30 3499 C 331.079 -4.53476 -2.83308 0
M  V30 3500 C 332.379 -5.17012 -0.741339 0
M  V30 3501 H 334.073 -2.99034 -0.147898 0
M  V30 3502 H 331.619 -1.43831 -0.0696951 0
M  V30 3503 H 333.572 -3.34852 -2.55836 0
M  V30 3504 H 332.296 -2.10746 -2.49507 0
M  V30 3505 H 330.955 -3.54799 -0.922668 0
M  V30 3506 H 330.603 -3.71308 -3.39322 0
M  V30 3507 H 330.303 -5.27451 -2.58976 0
M  V30 3508 H 331.827 -5.01378 -3.485 0
M  V30 3509 H 333.241 -5.58667 -1.28699 0
M  V30 3510 H 331.638 -5.97137 -0.595627 0
M  V30 3511 H 332.708 -4.8423 0.254851 0
M  V30 3512 N 334.051 0.0651679 -1.57465 0
M  V30 3513 C 335.297 0.764193 -1.87851 0
M  V30 3514 C 335.63 1.76889 -0.801495 0
M  V30 3515 O 334.905 1.93594 0.187528 0
M  V30 3516 C 335.188 1.46625 -3.28897 0
M  V30 3517 C 335.041 0.477515 -4.47258 0
M  V30 3518 C 336.36 2.4095 -3.68281 0
M  V30 3519 H 333.479 0.276351 -0.683227 0
M  V30 3520 H 336.121 0.0272868 -1.8998 0
M  V30 3521 H 334.271 2.09438 -3.27212 0
M  V30 3522 H 335.943 -0.145922 -4.61069 0
M  V30 3523 H 334.186 -0.206576 -4.33308 0
M  V30 3524 H 334.857 1.0065 -5.42746 0
M  V30 3525 H 337.333 1.88209 -3.71102 0
M  V30 3526 H 336.209 2.87072 -4.67847 0
M  V30 3527 H 336.47 3.26049 -2.98571 0
M  V30 3528 N 335.529 1.53961 0.336706 0
M  V30 3529 C 336.757 1.75483 1.09605 0
M  V30 3530 C 337.172 0.4972 1.82136 0
M  V30 3531 O 336.529 -0.53149 1.74589 0
M  V30 3532 C 336.58 2.93943 2.10428 0
M  V30 3533 O 336.301 4.14842 1.40846 0
M  V30 3534 C 337.802 3.27571 2.98684 0
M  V30 3535 H 335.022 0.586166 0.326574 0
M  V30 3536 H 337.566 2.00808 0.38683 0
M  V30 3537 H 335.721 2.70929 2.76905 0
M  V30 3538 H 336.135 4.81383 2.08255 0
M  V30 3539 H 337.609 4.13791 3.6535 0
M  V30 3540 H 338.086 2.44168 3.65074 0
M  V30 3541 H 338.692 3.52615 2.37787 0
M  V30 3542 N 337.007 -0.598083 1.45811 0
M  V30 3543 C 337.937 -1.71873 1.58057 0
M  V30 3544 C 338.918 -1.64533 0.431615 0
M  V30 3545 O 340.103 -1.82787 0.65595 0
M  V30 3546 C 337.233 -3.10495 1.55597 0
M  V30 3547 C 336.187 -3.32654 2.69305 0
M  V30 3548 C 335.513 -4.71646 2.51902 0
M  V30 3549 C 336.813 -3.21981 4.11248 0
M  V30 3550 H 338.507 -1.61881 2.51863 0
M  V30 3551 H 336.053 -0.777372 1.21214 0
M  V30 3552 H 338.006 -3.88699 1.6276 0
M  V30 3553 H 336.73 -3.2135 0.583255 0
M  V30 3554 H 335.389 -2.56843 2.61586 0
M  V30 3555 H 335.037 -4.79246 1.52748 0
M  V30 3556 H 334.737 -4.87426 3.2816 0
M  V30 3557 H 336.261 -5.52038 2.60933 0
M  V30 3558 H 337.675 -3.90049 4.20161 0
M  V30 3559 H 336.072 -3.49289 4.87972 0
M  V30 3560 H 337.142 -2.1928 4.32486 0
M  V30 3561 N 338.485 -1.33259 -0.841409 0
M  V30 3562 C 339.732 -1.24572 -1.5965 0
M  V30 3563 C 340.06 0.189137 -1.93578 0
M  V30 3564 O 339.315 1.14566 -1.5866 0
M  V30 3565 C 339.614 -2.06381 -2.9179 0
M  V30 3566 C 339.28 -3.556 -2.77235 0
M  V30 3567 C 337.942 -3.96282 -2.72973 0
M  V30 3568 C 340.294 -4.50433 -2.62221 0
M  V30 3569 C 337.622 -5.30017 -2.51592 0
M  V30 3570 C 339.974 -5.84327 -2.42374 0
M  V30 3571 C 338.638 -6.24194 -2.36512 0
M  V30 3572 H 337.908 -0.455842 -0.5842 0
M  V30 3573 H 340.555 -1.6482 -0.975016 0
M  V30 3574 H 338.86 -1.58903 -3.5813 0
M  V30 3575 H 340.557 -1.97019 -3.49263 0
M  V30 3576 H 337.147 -3.23298 -2.81384 0
M  V30 3577 H 341.331 -4.19914 -2.64549 0
M  V30 3578 H 336.587 -5.59947 -2.45499 0
M  V30 3579 H 340.761 -6.57414 -2.29739 0
M  V30 3580 H 338.388 -7.27759 -2.19706 0
M  V30 3581 N 339.963 1.05934 -1.16686 0
M  V30 3582 C 341.379 1.30938 -0.912542 0
M  V30 3583 C 341.579 1.96803 0.432533 0
M  V30 3584 O 340.635 2.23693 1.17123 0
M  V30 3585 C 341.948 2.18649 -2.06429 0
M  V30 3586 C 343.496 2.32055 -2.10047 0
M  V30 3587 C 343.971 3.23122 -3.24586 0
M  V30 3588 N 345.462 3.30706 -3.24327 0
M  V30 3589 C 346.197 4.01273 -4.09594 0
M  V30 3590 N 345.693 4.74332 -5.04956 0
M  V30 3591 N 347.486 3.97361 -3.97569 0
M  V30 3592 H 339.637 0.615777 -2.03278 0
M  V30 3593 H 341.9 0.334077 -0.887185 0
M  V30 3594 H 341.606 1.77534 -3.03603 0
M  V30 3595 H 341.48 3.19252 -2.00894 0
M  V30 3596 H 343.867 2.72415 -1.13464 0
M  V30 3597 H 343.948 1.31107 -2.19647 0
M  V30 3598 H 343.592 2.83477 -4.2143 0
M  V30 3599 H 343.522 4.24057 -3.12223 0
M  V30 3600 H 346.013 2.78644 -2.55276 0
M  V30 3601 H 346.326 5.25716 -5.6643 0
M  V30 3602 H 344.671 4.733 -5.08933 0
M  V30 3603 H 347.862 3.39405 -3.22369 0
M  V30 3604 H 348.035 4.52089 -4.64241 0
M  V30 3605 N 341.441 0.965919 1.2453 0
M  V30 3606 C 342.681 0.634656 1.94297 0
M  V30 3607 C 343.045 -0.814822 1.73852 0
M  V30 3608 O 344.246 -1.25622 2.3764 0
M  V30 3609 C 342.517 0.99702 3.43212 0
M  V30 3610 S 344.076 0.780038 4.31811 0
M  V30 3611 H 340.894 0.232893 0.671775 0
M  V30 3612 H 343.496 1.24249 1.50938 0
M  V30 3613 H 342.2 2.04886 3.55598 0
M  V30 3614 H 341.731 0.379888 3.91562 0
M  V30 3615 H 343.746 -0.343512 4.9501 0
M  V30 3616 N 342.919 -1.39368 0.735821 0
M  V30 3617 C 344.168 -1.99733 0.281004 0
M  V30 3618 C 344.481 -1.59055 -1.13846 0
M  V30 3619 O 345.687 -2.12262 -1.69284 0
M  V30 3620 C 344.143 -3.57057 0.451462 0
M  V30 3621 C 343.751 -4.06697 1.87886 0
M  V30 3622 C 345.495 -4.2446 0.0584616 0
M  V30 3623 C 343.402 -5.56598 1.99883 0
M  V30 3624 H 342.332 -0.747163 0.101311 0
M  V30 3625 H 344.983 -1.59357 0.909819 0
M  V30 3626 H 343.365 -3.95234 -0.246263 0
M  V30 3627 H 344.539 -3.79853 2.60861 0
M  V30 3628 H 342.854 -3.5196 2.22515 0
M  V30 3629 H 345.451 -5.34549 0.127099 0
M  V30 3630 H 345.794 -4.04444 -0.986433 0
M  V30 3631 H 346.327 -3.9146 0.707374 0
M  V30 3632 H 343.066 -5.81494 3.02564 0
M  V30 3633 H 342.586 -5.85242 1.31346 0
M  V30 3634 H 344.265 -6.22022 1.78039 0
M  V30 3635 N 344.397 -0.483516 -1.5 0
M  V30 3636 C 345.329 0.340634 -2.26655 0
M  V30 3637 C 346.342 0.946152 -1.32483 0
M  V30 3638 O 347.531 0.832453 -1.579 0
M  V30 3639 C 344.631 1.4929 -3.04246 0
M  V30 3640 C 343.804 0.997903 -4.25865 0
M  V30 3641 C 342.863 2.02569 -4.85646 0
M  V30 3642 O 341.889 1.60128 -5.46212 0
M  V30 3643 N 343.091 3.3548 -4.73744 0
M  V30 3644 H 345.856 -0.316577 -2.98023 0
M  V30 3645 H 343.417 -0.315024 -1.58806 0
M  V30 3646 H 345.409 2.17766 -3.41116 0
M  V30 3647 H 343.979 2.05458 -2.35597 0
M  V30 3648 H 343.199 0.138617 -3.93956 0
M  V30 3649 H 344.487 0.645305 -5.04691 0
M  V30 3650 H 343.885 3.72661 -4.25605 0
M  V30 3651 H 342.442 3.99718 -5.14848 0
M  V30 3652 N 345.875 1.56104 -0.216619 0
M  V30 3653 C 346.823 2.21434 0.712036 0
M  V30 3654 C 347.817 1.19218 1.20348 0
M  V30 3655 O 349.023 1.3731 1.16387 0
M  V30 3656 H 345.398 0.70992 0.248026 0
M  V30 3657 H 347.369 2.98083 0.137558 0
M  V30 3658 C 346.118 2.90434 1.91163 0
M  V30 3659 H 345.441 3.68842 1.54258 0
M  V30 3660 H 346.881 3.39552 2.5393 0
M  V30 3661 C 345.34 1.92635 2.76394 0
M  V30 3662 O 345.87 1.44017 3.74996 0
M  V30 3663 N 344.076 1.60392 2.42328 0
M  V30 3664 H 343.623 2.00122 1.622 0
M  V30 3665 H 343.581 0.952159 2.99635 0
M  V30 3666 N 347.353 -0.0568162 1.57498 0
M  V30 3667 C 348.286 -1.09817 2.00039 0
M  V30 3668 C 349.264 -1.3674 0.879819 0
M  V30 3669 O 350.448 -1.49863 1.14338 0
M  V30 3670 C 347.575 -2.43924 2.34986 0
M  V30 3671 C 346.621 -2.33039 3.57204 0
M  V30 3672 S 347.454 -1.7102 5.07457 0
M  V30 3673 C 348.61 -3.06674 5.45621 0
M  V30 3674 H 348.843 -0.735701 2.88053 0
M  V30 3675 H 346.376 -0.265871 1.52094 0
M  V30 3676 H 348.334 -3.2106 2.55795 0
M  V30 3677 H 346.995 -2.77327 1.47474 0
M  V30 3678 H 346.188 -3.31973 3.79223 0
M  V30 3679 H 345.79 -1.64043 3.36104 0
M  V30 3680 H 348.082 -4.03 5.44608 0
M  V30 3681 H 349.025 -2.8942 6.46252 0
M  V30 3682 H 349.433 -3.07969 4.73091 0
M  V30 3683 N 348.832 -1.54138 -0.328536 0
M  V30 3684 C 350.243 -1.63395 -0.903272 0
M  V30 3685 C 350.594 -0.524828 -1.8905 0
M  V30 3686 O 349.719 0.343068 -2.13663 0
M  V30 3687 C 350.314 -2.9618 -1.64507 0
M  V30 3688 C 348.873 -3.0765 -2.1686 0
M  V30 3689 C 348.02 -2.58933 -0.992416 0
M  V30 3690 H 350.971 -1.58344 -0.106253 0
M  V30 3691 H 350.992 -2.86061 -2.50897 0
M  V30 3692 H 350.504 -3.76884 -0.926302 0
M  V30 3693 H 348.605 -2.31611 -2.91868 0
M  V30 3694 H 348.718 -4.1337 -2.42202 0
M  V30 3695 H 347.082 -2.14706 -1.37016 0
M  V30 3696 H 347.865 -3.42089 -0.288041 0
M  V30 3697 N 350.31 0.590341 -1.46126 0
M  V30 3698 C 351.22 1.72793 -1.58681 0
M  V30 3699 C 352.236 1.67516 -0.470566 0
M  V30 3700 O 353.412 1.87562 -0.733642 0
M  V30 3701 C 350.477 3.09287 -1.5666 0
M  V30 3702 C 349.538 3.25886 -2.79458 0
M  V30 3703 C 348.771 4.55869 -2.77524 0
M  V30 3704 O 348.994 5.3928 -1.85832 0
M  V30 3705 O 347.928 4.75552 -3.68964 0
M  V30 3706 H 351.754 1.65149 -2.54872 0
M  V30 3707 H 349.339 0.756486 -1.28832 0
M  V30 3708 H 351.221 3.90577 -1.58202 0
M  V30 3709 H 349.896 3.17385 -0.636271 0
M  V30 3710 H 348.803 2.44119 -2.83472 0
M  V30 3711 H 350.136 3.22675 -3.71674 0
M  V30 3712 N 351.788 1.33704 0.83433 0
M  V30 3713 C 353.016 1.28467 1.62185 0
M  V30 3714 C 353.431 -0.143526 1.88254 0
M  V30 3715 O 352.788 -1.08709 1.4659 0
M  V30 3716 C 352.839 2.06174 2.96942 0
M  V30 3717 O 352.56 3.43422 2.72016 0
M  V30 3718 C 354.061 2.08201 3.91366 0
M  V30 3719 H 351.281 0.4424 0.504503 0
M  V30 3720 H 353.825 1.76145 1.03891 0
M  V30 3721 H 351.98 1.62167 3.51825 0
M  V30 3722 H 352.394 3.83453 3.57861 0
M  V30 3723 H 353.868 2.67017 4.83121 0
M  V30 3724 H 354.345 1.07343 4.2588 0
M  V30 3725 H 354.951 2.52246 3.42421 0
M  V30 3726 N 353.266 -1.05314 1.17247 0
M  V30 3727 C 354.196 -2.1498 0.911362 0
M  V30 3728 C 355.177 -1.69471 -0.146169 0
M  V30 3729 O 356.362 -1.942 0.003812 0
M  V30 3730 C 353.492 -3.4472 0.422528 0
M  V30 3731 C 352.446 -4.03789 1.4191 0
M  V30 3732 C 351.772 -5.28858 0.788274 0
M  V30 3733 C 353.072 -4.41418 2.7919 0
M  V30 3734 H 354.766 -2.3708 1.82848 0
M  V30 3735 H 352.312 -1.13938 0.880569 0
M  V30 3736 H 354.265 -4.20787 0.227289 0
M  V30 3737 H 352.989 -3.22269 -0.530123 0
M  V30 3738 H 351.648 -3.2979 1.60106 0
M  V30 3739 H 351.296 -5.02709 -0.171173 0
M  V30 3740 H 350.996 -5.69338 1.45353 0
M  V30 3741 H 352.52 -6.07612 0.603282 0
M  V30 3742 H 353.934 -5.08524 2.64719 0
M  V30 3743 H 352.331 -4.92913 3.42282 0
M  V30 3744 H 353.401 -3.51819 3.33693 0
M  V30 3745 N 354.744 -0.972509 -1.24016 0
M  V30 3746 C 356.155 -0.67517 -1.74064 0
M  V30 3747 C 356.506 0.808939 -1.78747 0
M  V30 3748 O 355.631 1.63286 -1.42009 0
M  V30 3749 C 356.226 -1.21889 -3.16115 0
M  V30 3750 C 354.785 -0.971358 -3.6365 0
M  V30 3751 C 353.932 -1.35134 -2.42145 0
M  V30 3752 H 356.883 -1.14727 -1.09651 0
M  V30 3753 H 356.904 -0.587489 -3.75937 0
M  V30 3754 H 356.416 -2.29906 -3.12674 0
M  V30 3755 H 354.517 0.0930686 -3.72484 0
M  V30 3756 H 354.63 -1.62039 -4.50866 0
M  V30 3757 H 352.994 -0.769751 -2.4279 0
M  V30 3758 H 353.777 -2.4411 -2.41381 0
M  V30 3759 N 356.222 1.38976 -0.743202 0
M  V30 3760 C 357.17 2.32394 -0.0978389 0
M  V30 3761 C 358.164 1.53486 0.716824 0
M  V30 3762 O 359.37 1.69092 0.617088 0
M  V30 3763 H 355.745 0.75189 -0.0128402 0
M  V30 3764 H 357.716 2.84441 -0.901981 0
M  V30 3765 C 356.465 3.38629 0.789036 0
M  V30 3766 H 355.788 3.99432 0.171559 0
M  V30 3767 H 357.228 4.06426 1.20807 0
M  V30 3768 C 355.687 2.76347 1.92702 0
M  V30 3769 O 356.217 2.64836 3.02034 0
M  V30 3770 N 354.423 2.34311 1.71891 0
M  V30 3771 H 353.97 2.43873 0.829675 0
M  V30 3772 H 353.928 1.9298 2.48205 0
M  V30 3773 N 357.7 0.491464 1.49741 0
M  V30 3774 C 358.648 -0.305837 2.30581 0
M  V30 3775 C 359.642 -0.971642 1.38764 0
M  V30 3776 O 360.848 -0.90042 1.5586 0
M  V30 3777 H 357.223 -0.117482 0.742767 0
M  V30 3778 H 359.194 0.396093 2.95759 0
M  V30 3779 C 357.943 -1.36319 3.19863 0
M  V30 3780 H 357.266 -0.860258 3.90435 0
M  V30 3781 H 358.706 -1.89323 3.79385 0
M  V30 3782 C 357.165 -2.37621 2.38826 0
M  V30 3783 O 357.695 -3.43311 2.08567 0
M  V30 3784 N 355.901 -2.09849 2.01026 0
M  V30 3785 H 355.448 -1.23922 2.25834 0
M  V30 3786 H 355.406 -2.77859 1.47112 0
M  V30 3787 N 359.178 -1.55987 0.224894 0
M  V30 3788 C 360.403 -2.03232 -0.41369 0
M  V30 3789 C 360.828 -1.10359 -1.52323 0
M  V30 3790 O 360.186 -0.092395 -1.81064 0
M  V30 3791 C 360.234 -3.48682 -0.919405 0
M  V30 3792 O 359.338 -3.58947 -2.03054 0
M  V30 3793 H 358.679 -0.657428 -0.0931903 0
M  V30 3794 H 361.209 -2.01679 0.34451 0
M  V30 3795 H 361.219 -3.8907 -1.22835 0
M  V30 3796 H 359.894 -4.15761 -0.107339 0
M  V30 3797 H 358.471 -3.30448 -1.72796 0
M  V30 3798 N 360.656 0.0484629 -1.57525 0
M  V30 3799 C 361.896 0.748196 -1.90214 0
M  V30 3800 C 362.26 1.73545 -0.821347 0
M  V30 3801 O 363.461 2.48201 -1.03198 0
M  V30 3802 C 361.732 1.41727 -3.28098 0
M  V30 3803 S 363.291 2.14884 -3.82584 0
M  V30 3804 H 360.109 0.248307 -0.666232 0
M  V30 3805 H 362.711 0.00343188 -1.955 0
M  V30 3806 H 361.415 0.685244 -4.04639 0
M  V30 3807 H 360.946 2.20099 -3.26068 0
M  V30 3808 H 362.961 3.41755 -3.59747 0
M  V30 3809 N 362.134 1.5431 0.320358 0
M  V30 3810 C 363.364 1.7638 1.07582 0
M  V30 3811 C 363.772 0.513944 1.82086 0
M  V30 3812 O 363.115 -0.525123 1.76035 0
M  V30 3813 C 363.177 2.9055 2.1171 0
M  V30 3814 C 362.841 4.2934 1.56575 0
M  V30 3815 C 363.838 5.10077 1.00586 0
M  V30 3816 C 361.523 4.75893 1.60722 0
M  V30 3817 C 363.517 6.35477 0.494756 0
M  V30 3818 C 361.204 6.0126 1.09224 0
M  V30 3819 C 362.202 6.80886 0.53696 0
M  V30 3820 O 361.89 8.03894 0.0297371 0
M  V30 3821 H 361.622 0.592369 0.325692 0
M  V30 3822 H 364.176 2.02019 0.37116 0
M  V30 3823 H 362.406 2.60489 2.85801 0
M  V30 3824 H 364.095 3.00373 2.73003 0
M  V30 3825 H 364.861 4.75265 0.966869 0
M  V30 3826 H 360.74 4.13957 2.02882 0
M  V30 3827 H 364.284 6.97574 0.0606842 0
M  V30 3828 H 360.181 6.35562 1.12831 0
M  V30 3829 H 360.949 8.18372 0.14486 0
M  V30 3830 N 363.613 -0.582584 1.46437 0
M  V30 3831 C 364.838 -1.37168 1.55563 0
M  V30 3832 C 365.263 -1.87061 0.19743 0
M  V30 3833 O 364.621 -1.61572 -0.822451 0
M  V30 3834 C 364.669 -2.53511 2.56446 0
M  V30 3835 O 363.773 -3.54953 2.09958 0
M  V30 3836 H 363.114 -0.408494 0.523477 0
M  V30 3837 H 365.644 -0.706646 1.9201 0
M  V30 3838 H 365.654 -3.00426 2.76058 0
M  V30 3839 H 364.329 -2.16549 3.55076 0
M  V30 3840 H 362.906 -3.14516 2.00334 0
M  V30 3841 N 365.091 -1.34144 -0.827227 0
M  V30 3842 C 366.054 -1.25264 -1.91942 0
M  V30 3843 C 367.054 -0.168866 -1.59911 0
M  V30 3844 O 368.244 -0.421198 -1.69031 0
M  V30 3845 C 365.376 -0.932952 -3.27885 0
M  V30 3846 H 366.569 -2.22357 -2.0124 0
M  V30 3847 H 364.122 -1.1837 -1.0207 0
M  V30 3848 H 364.857 0.0349917 -3.24281 0
M  V30 3849 H 364.642 -1.71682 -3.52516 0
M  V30 3850 H 366.132 -0.895874 -4.07877 0
M  V30 3851 N 366.569 1.04691 -1.17803 0
M  V30 3852 C 367.817 1.7743 -0.967617 0
M  V30 3853 C 368.138 1.88359 0.504574 0
M  V30 3854 O 367.408 1.40402 1.36617 0
M  V30 3855 H 365.988 0.657242 -0.355024 0
M  V30 3856 H 368.65 1.2638 -1.48371 0
M  V30 3857 H 367.746 2.78924 -1.40027 0
M  V30 3858 N 368.047 0.979072 1.23499 0
M  V30 3859 C 369.296 0.642751 1.91185 0
M  V30 3860 C 369.609 -0.827253 1.77245 0
M  V30 3861 O 370.815 -1.27458 2.39722 0
M  V30 3862 C 369.271 1.09901 3.42709 0
M  V30 3863 C 368.879 2.59327 3.65313 0
M  V30 3864 C 370.623 0.836371 4.16179 0
M  V30 3865 C 368.53 2.98627 5.10467 0
M  V30 3866 H 367.46 0.236698 0.715884 0
M  V30 3867 H 370.111 1.1868 1.39955 0
M  V30 3868 H 368.493 0.48319 3.93041 0
M  V30 3869 H 369.667 3.26136 3.25533 0
M  V30 3870 H 367.982 2.83323 3.05151 0
M  V30 3871 H 370.579 1.10586 5.23139 0
M  V30 3872 H 370.922 -0.227509 4.15678 0
M  V30 3873 H 371.455 1.41371 3.71832 0
M  V30 3874 H 368.194 4.04133 5.16098 0
M  V30 3875 H 367.714 2.3651 5.51201 0
M  V30 3876 H 369.393 2.89159 5.78788 0
M  V30 3877 N 369.525 -1.3858 0.750561 0
M  V30 3878 C 370.488 -2.28836 0.129152 0
M  V30 3879 C 371.488 -1.47045 -0.650714 0
M  V30 3880 O 372.678 -1.6753 -0.477428 0
M  V30 3881 C 369.81 -3.30751 -0.825622 0
M  V30 3882 H 371.003 -2.85294 0.924516 0
M  V30 3883 H 368.556 -1.47489 0.517376 0
M  V30 3884 H 369.291 -2.79378 -1.64677 0
M  V30 3885 H 369.076 -3.91177 -0.268852 0
M  V30 3886 H 370.566 -3.98249 -1.2565 0
M  V30 3887 N 371.003 -0.499398 -1.49478 0
M  V30 3888 C 371.95 0.279881 -2.29097 0
M  V30 3889 C 372.92 0.961805 -1.3542 0
M  V30 3890 O 374.105 0.968777 -1.64376 0
M  V30 3891 C 371.245 1.33932 -3.18051 0
M  V30 3892 C 370.358 0.669333 -4.26783 0
M  V30 3893 C 369.493 1.70907 -5.02955 0
M  V30 3894 C 368.532 1.02087 -6.03527 0
M  V30 3895 N 367.669 2.00474 -6.7287 0
M  V30 3896 H 372.509 -0.405317 -2.95231 0
M  V30 3897 H 370.046 -0.211726 -1.45568 0
M  V30 3898 H 372.004 1.96553 -3.67998 0
M  V30 3899 H 370.634 1.9933 -2.53904 0
M  V30 3900 H 369.686 -0.0701234 -3.80335 0
M  V30 3901 H 370.998 0.127503 -4.98637 0
M  V30 3902 H 370.152 2.41037 -5.56764 0
M  V30 3903 H 368.891 2.28476 -4.30871 0
M  V30 3904 H 367.896 0.305338 -5.48951 0
M  V30 3905 H 369.121 0.451708 -6.77596 0
M  V30 3906 H 367.067 2.57007 -6.03559 0
M  V30 3907 H 366.984 1.51353 -7.40694 0
M  V30 3908 H 368.252 2.69897 -7.31284 0
M  V30 3909 N 372.481 1.55866 -0.233164 0
M  V30 3910 C 373.411 2.23783 0.666599 0
M  V30 3911 C 374.392 1.21343 1.19205 0
M  V30 3912 O 375.577 1.4996 1.23392 0
M  V30 3913 C 372.707 2.92671 1.86978 0
M  V30 3914 C 371.661 4.01682 1.47768 0
M  V30 3915 C 370.987 4.57926 2.76058 0
M  V30 3916 C 372.287 5.18126 0.658993 0
M  V30 3917 H 373.981 2.99232 0.100306 0
M  V30 3918 H 371.527 1.43924 0.046804 0
M  V30 3919 H 373.48 3.3888 2.50476 0
M  V30 3920 H 372.204 2.14688 2.46123 0
M  V30 3921 H 370.863 3.56222 0.866106 0
M  V30 3922 H 370.511 3.76659 3.33372 0
M  V30 3923 H 370.211 5.31505 2.50552 0
M  V30 3924 H 371.735 5.06859 3.40479 0
M  V30 3925 H 373.149 5.60644 1.19795 0
M  V30 3926 H 371.546 5.98009 0.500552 0
M  V30 3927 H 372.616 4.83763 -0.331856 0
M  V30 3928 N 373.959 -0.0401083 1.57549 0
M  V30 3929 C 374.869 -1.06133 2.0922 0
M  V30 3930 C 375.885 -1.40356 1.0284 0
M  V30 3931 O 377.061 -1.49897 1.34509 0
M  V30 3932 C 374.126 -2.34658 2.55218 0
M  V30 3933 C 373.187 -2.07117 3.76033 0
M  V30 3934 C 372.42 -3.29514 4.19829 0
M  V30 3935 O 372.643 -4.39794 3.63232 0
M  V30 3936 O 371.577 -3.15863 5.12362 0
M  V30 3937 H 375.403 -0.652244 2.96613 0
M  V30 3938 H 372.988 -0.256368 1.47184 0
M  V30 3939 H 374.87 -3.10239 2.85184 0
M  V30 3940 H 373.545 -2.74883 1.70941 0
M  V30 3941 H 372.452 -1.29139 3.51104 0
M  V30 3942 H 373.785 -1.71754 4.61261 0
M  V30 3943 N 375.437 -1.54477 -0.31217 0
M  V30 3944 C 376.347 -1.87695 -1.4074 0
M  V30 3945 C 377.363 -0.769975 -1.56036 0
M  V30 3946 O 378.539 -1.06537 -1.70915 0
M  V30 3947 C 375.604 -2.10755 -2.75287 0
M  V30 3948 C 374.665 -3.34514 -2.69071 0
M  V30 3949 C 373.898 -3.56465 -3.97201 0
M  V30 3950 O 374.121 -2.81637 -4.96021 0
M  V30 3951 O 373.055 -4.49964 -3.9977 0
M  V30 3952 H 376.881 -2.80849 -1.15574 0
M  V30 3953 H 374.466 -1.40526 -0.507228 0
M  V30 3954 H 376.348 -2.27188 -3.54913 0
M  V30 3955 H 375.023 -1.20788 -3.0032 0
M  V30 3956 H 373.93 -3.23456 -1.87955 0
M  V30 3957 H 375.263 -4.24575 -2.48992 0
M  V30 3958 N 376.915 0.57481 -1.46744 0
M  V30 3959 C 378.163 1.33009 -1.52161 0
M  V30 3960 C 378.484 1.94185 -0.178092 0
M  V30 3961 O 377.754 1.7899 0.796196 0
M  V30 3962 H 376.334 0.493873 -0.560445 0
M  V30 3963 H 378.996 0.672589 -1.82927 0
M  V30 3964 H 378.092 2.13273 -2.27862 0
M  V30 3965 N 378.394 1.34581 0.820102 0
M  V30 3966 C 379.671 1.17675 1.56244 0
M  V30 3967 C 380.051 -0.249541 2.0962 0
M  V30 3968 O 379.399 -1.25125 1.91196 0
M  V30 3969 C 379.609 2.23364 2.6816 0
M  V30 3970 C 380.957 2.58485 3.36854 0
M  V30 3971 O 381.981 2.22175 2.78418 0
M  V30 3972 O 380.84 3.20868 4.42386 0
M  V30 3973 H 377.934 0.456333 0.689702 0
M  V30 3974 H 380.48 1.46222 0.861231 0
M  V30 3975 H 379.252 3.19087 2.26493 0
M  V30 3976 H 378.875 1.96009 3.45928 0
M  V30 3977 N 379.872 -1.04064 1.18357 0
M  V30 3978 C 380.782 -2.15569 0.925596 0
M  V30 3979 C 381.798 -1.7365 -0.110295 0
M  V30 3980 O 382.974 -2.01273 0.0716218 0
M  V30 3981 C 380.039 -3.43704 0.454836 0
M  V30 3982 C 379.1 -4.00004 1.55869 0
M  V30 3983 C 378.333 -5.22023 1.1103 0
M  V30 3984 O 378.556 -5.70392 -0.0309756 0
M  V30 3985 O 377.49 -5.70856 1.90805 0
M  V30 3986 H 381.316 -2.40187 1.8586 0
M  V30 3987 H 378.901 -1.1402 0.965394 0
M  V30 3988 H 380.783 -4.20923 0.200382 0
M  V30 3989 H 379.458 -3.20559 -0.449876 0
M  V30 3990 H 378.365 -3.24172 1.86716 0
M  V30 3991 H 379.698 -4.2749 2.43953 0
M  V30 3992 N 381.35 -0.985608 -1.22978 0
M  V30 3993 C 382.28 -0.549649 -2.26939 0
M  V30 3994 C 383.261 0.419803 -1.64838 0
M  V30 3995 O 384.446 0.31203 -1.91677 0
M  V30 3996 C 381.576 0.143652 -3.47003 0
M  V30 3997 C 380.53 -0.743606 -4.21491 0
M  V30 3998 C 379.856 0.0822027 -5.34637 0
M  V30 3999 C 381.156 -2.03694 -4.80943 0
M  V30 4000 H 382.85 -1.41862 -2.63658 0
M  V30 4001 H 380.396 -0.683571 -1.26741 0
M  V30 4002 H 382.349 0.459985 -4.18882 0
M  V30 4003 H 381.073 1.04711 -3.09359 0
M  V30 4004 H 379.732 -1.04347 -3.51436 0
M  V30 4005 H 379.38 0.986359 -4.93234 0
M  V30 4006 H 379.08 -0.508377 -5.85397 0
M  V30 4007 H 380.604 0.392797 -6.09335 0
M  V30 4008 H 382.018 -1.78504 -5.44802 0
M  V30 4009 H 380.415 -2.57573 -5.42011 0
M  V30 4010 H 381.485 -2.72042 -4.01399 0
M  V30 4011 N 382.828 1.3818 -0.7579 0
M  V30 4012 C 383.76 2.2901 -0.0932177 0
M  V30 4013 C 384.773 1.47958 0.679136 0
M  V30 4014 O 385.962 1.70773 0.519514 0
M  V30 4015 C 383.062 3.26953 0.89192 0
M  V30 4016 C 382.235 4.37045 0.176303 0
M  V30 4017 C 381.294 5.15148 1.07281 0
M  V30 4018 O 380.32 5.66616 0.541728 0
M  V30 4019 N 381.522 5.28542 2.40049 0
M  V30 4020 H 384.287 2.86694 -0.873303 0
M  V30 4021 H 381.848 1.50007 -0.609054 0
M  V30 4022 H 383.84 3.76083 1.49479 0
M  V30 4023 H 382.41 2.70136 1.57306 0
M  V30 4024 H 381.63 3.89493 -0.607328 0
M  V30 4025 H 382.918 5.07801 -0.318718 0
M  V30 4026 H 382.316 4.88285 2.85647 0
M  V30 4027 H 380.873 5.8103 2.95376 0
M  V30 4028 N 384.306 0.507319 1.49211 0
M  V30 4029 C 385.236 -0.256939 2.32082 0
M  V30 4030 C 386.217 -0.956609 1.40652 0
M  V30 4031 O 387.402 -0.946788 1.69557 0
M  V30 4032 C 384.532 -1.31802 3.21318 0
M  V30 4033 C 383.486 -0.737855 4.21592 0
M  V30 4034 C 382.812 -1.89992 4.99807 0
M  V30 4035 C 384.112 0.275325 5.21574 0
M  V30 4036 H 385.806 0.434798 2.96226 0
M  V30 4037 H 383.352 0.210546 1.42452 0
M  V30 4038 H 385.305 -1.86045 3.78107 0
M  V30 4039 H 384.029 -2.03903 2.5513 0
M  V30 4040 H 382.688 -0.217126 3.65956 0
M  V30 4041 H 382.336 -2.60877 4.30061 0
M  V30 4042 H 382.036 -1.51777 5.6766 0
M  V30 4043 H 383.56 -2.44657 5.59442 0
M  V30 4044 H 384.974 -0.179193 5.7302 0
M  V30 4045 H 383.371 0.573649 5.97352 0
M  V30 4046 H 384.441 1.18903 4.70096 0
M  V30 4047 N 385.784 -1.5574 0.241426 0
M  V30 4048 C 386.747 -2.19877 -0.647063 0
M  V30 4049 C 387.747 -1.16642 -1.10686 0
M  V30 4050 O 388.937 -1.41757 -1.01245 0
M  V30 4051 C 386.069 -2.83797 -1.88871 0
M  V30 4052 H 387.262 -2.99772 -0.087574 0
M  V30 4053 H 384.815 -1.56298 -0.00813574 0
M  V30 4054 H 385.55 -2.07824 -2.48957 0
M  V30 4055 H 385.335 -3.59414 -1.56728 0
M  V30 4056 H 386.825 -3.32898 -2.52129 0
M  V30 4057 N 387.262 0.0317525 -1.57568 0
M  V30 4058 C 388.511 0.722131 -1.8833 0
M  V30 4059 C 388.824 1.76664 -0.839587 0
M  V30 4060 O 390.03 2.50942 -1.03635 0
M  V30 4061 C 388.486 1.33544 -3.34207 0
M  V30 4062 C 388.094 0.327415 -4.46802 0
M  V30 4063 C 389.838 2.00585 -3.7412 0
M  V30 4064 C 387.745 0.948915 -5.83738 0
M  V30 4065 H 386.675 0.273466 -0.702661 0
M  V30 4066 H 389.326 -0.0235811 -1.83485 0
M  V30 4067 H 387.708 2.13077 -3.33788 0
M  V30 4068 H 388.882 -0.441006 -4.58685 0
M  V30 4069 H 387.197 -0.240758 -4.15703 0
M  V30 4070 H 389.794 2.47932 -4.73744 0
M  V30 4071 H 390.137 2.82285 -3.05975 0
M  V30 4072 H 390.67 1.27831 -3.76702 0
M  V30 4073 H 387.409 0.171387 -6.55276 0
M  V30 4074 H 386.929 1.68724 -5.7558 0
M  V30 4075 H 388.608 1.45705 -6.3038 0
M  V30 4076 N 388.74 1.54641 0.303973 0
M  V30 4077 C 390.151 1.64811 0.877163 0
M  V30 4078 C 390.502 0.554838 1.88191 0
M  V30 4079 O 389.627 -0.309033 2.14182 0
M  V30 4080 C 390.222 2.9876 1.59775 0
M  V30 4081 C 388.781 3.11061 2.11938 0
M  V30 4082 C 387.928 2.60479 0.951097 0
M  V30 4083 H 390.879 1.58493 0.0810486 0
M  V30 4084 H 390.9 2.90017 2.46314 0
M  V30 4085 H 390.412 3.7831 0.866226 0
M  V30 4086 H 388.513 2.36225 2.88146 0
M  V30 4087 H 388.626 4.17171 2.35595 0
M  V30 4088 H 386.99 2.16859 1.33583 0
M  V30 4089 H 387.773 3.42504 0.233581 0
M  V30 4090 N 390.218 -0.567019 1.47046 0
M  V30 4091 C 391.634 -0.891975 1.32348 0
M  V30 4092 C 391.834 -1.99154 0.306616 0
M  V30 4093 O 390.89 -2.50883 -0.28532 0
M  V30 4094 C 392.203 -1.29449 2.7141 0
M  V30 4095 C 393.751 -1.40646 2.79621 0
M  V30 4096 C 394.226 -1.84257 4.19301 0
M  V30 4097 N 395.717 -1.91424 4.21795 0
M  V30 4098 C 396.452 -2.26476 5.26779 0
M  V30 4099 N 395.948 -2.60211 6.42077 0
M  V30 4100 N 397.741 -2.27166 5.14152 0
M  V30 4101 H 389.892 0.159074 2.11803 0
M  V30 4102 H 392.155 0.00849752 0.947962 0
M  V30 4103 H 391.861 -0.560448 3.47206 0
M  V30 4104 H 391.735 -2.25273 3.02542 0
M  V30 4105 H 394.122 -2.13133 2.04104 0
M  V30 4106 H 394.203 -0.430339 2.52154 0
M  V30 4107 H 393.847 -1.12343 4.95319 0
M  V30 4108 H 393.777 -2.82855 4.44185 0
M  V30 4109 H 396.268 -1.6778 3.38612 0
M  V30 4110 H 396.581 -2.85956 7.17948 0
M  V30 4111 H 394.926 -2.57813 6.45413 0
M  V30 4112 H 398.117 -2.00244 4.23107 0
M  V30 4113 H 398.29 -2.54154 5.96079 0
M  V30 4114 N 391.696 -1.35014 -0.812953 0
M  V30 4115 C 392.606 -1.2951 -1.95613 0
M  V30 4116 C 393.622 -0.20107 -1.72834 0
M  V30 4117 O 394.798 -0.42932 -1.96771 0
M  V30 4118 C 391.863 -1.06033 -3.30088 0
M  V30 4119 C 390.924 -2.24688 -3.65805 0
M  V30 4120 C 390.157 -2.02322 -4.93864 0
M  V30 4121 O 390.38 -0.986464 -5.61805 0
M  V30 4122 O 389.314 -2.89525 -5.27692 0
M  V30 4123 H 393.14 -2.25705 -2.03202 0
M  V30 4124 H 390.725 -1.15321 -0.949811 0
M  V30 4125 H 392.607 -0.94763 -4.10607 0
M  V30 4126 H 391.282 -0.128852 -3.23443 0
M  V30 4127 H 390.189 -2.41521 -2.85689 0
M  V30 4128 H 391.522 -3.16261 -3.77147 0
M  V30 4129 N 393.175 1.03435 -1.18907 0
M  V30 4130 C 394.123 2.13703 -0.918353 0
M  V30 4131 C 395.117 1.68947 0.123767 0
M  V30 4132 O 396.323 1.79983 -0.0249701 0
M  V30 4133 H 392.698 0.698112 -0.279542 0
M  V30 4134 H 394.669 2.33731 -1.85506 0
M  V30 4135 C 393.418 3.44542 -0.467532 0
M  V30 4136 H 392.741 3.79394 -1.26095 0
M  V30 4137 H 394.181 4.22812 -0.317164 0
M  V30 4138 C 392.64 3.26829 0.817588 0
M  V30 4139 O 393.17 3.54975 1.88031 0
M  V30 4140 N 391.376 2.80139 0.772677 0
M  V30 4141 H 390.923 2.57434 -0.0923883 0
M  V30 4142 H 390.881 2.68668 1.63294 0
M  V30 4143 N 394.653 0.992116 1.22453 0
M  V30 4144 C 395.616 0.546883 2.2258 0
M  V30 4145 C 396.616 -0.369829 1.56489 0
M  V30 4146 O 397.806 -0.161896 1.73446 0
M  V30 4147 C 394.938 -0.204659 3.40285 0
M  V30 4148 H 396.131 1.43234 2.63484 0
M  V30 4149 H 393.684 0.779239 1.3549 0
M  V30 4150 H 394.419 -1.10614 3.04853 0
M  V30 4151 H 394.204 0.45354 3.89468 0
M  V30 4152 H 395.694 -0.504358 4.14543 0
M  V30 4153 N 396.131 -1.37776 0.765217 0
M  V30 4154 C 397.063 -2.28958 0.105361 0
M  V30 4155 C 398.076 -1.48316 -0.67128 0
M  V30 4156 O 399.265 -1.71046 -0.51045 0
M  V30 4157 C 396.365 -3.27421 -0.874569 0
M  V30 4158 C 395.538 -4.37132 -0.153123 0
M  V30 4159 C 394.597 -5.1571 -1.04547 0
M  V30 4160 O 393.623 -5.66896 -0.511672 0
M  V30 4161 N 394.825 -5.29808 -2.37243 0
M  V30 4162 H 397.59 -2.86227 0.888495 0
M  V30 4163 H 395.151 -1.49682 0.617 0
M  V30 4164 H 397.143 -3.7687 -1.47483 0
M  V30 4165 H 395.713 -2.70967 -1.55871 0
M  V30 4166 H 394.933 -3.89166 0.627975 0
M  V30 4167 H 396.221 -5.07625 0.345643 0
M  V30 4168 H 395.619 -4.89793 -2.83054 0
M  V30 4169 H 394.176 -5.82589 -2.9229 0
M  V30 4170 N 397.609 -0.515225 -1.4894 0
M  V30 4171 C 398.858 0.0261361 -2.01683 0
M  V30 4172 C 399.171 1.36719 -1.39883 0
M  V30 4173 O 400.377 1.99606 -1.84037 0
M  V30 4174 C 398.833 0.0970111 -3.59769 0
M  V30 4175 C 398.441 -1.23825 -4.30548 0
M  V30 4176 C 400.185 0.587981 -4.20408 0
M  V30 4177 C 398.092 -1.12877 -5.80528 0
M  V30 4178 H 397.022 0.0135398 -0.753878 0
M  V30 4179 H 399.673 -0.656787 -1.71343 0
M  V30 4180 H 398.055 0.844694 -3.86886 0
M  V30 4181 H 399.229 -2.00034 -4.15118 0
M  V30 4182 H 397.544 -1.66379 -3.81716 0
M  V30 4183 H 400.141 0.68763 -5.3026 0
M  V30 4184 H 400.484 1.59026 -3.84729 0
M  V30 4185 H 401.017 -0.103582 -3.97665 0
M  V30 4186 H 397.756 -2.10575 -6.20756 0
M  V30 4187 H 397.276 -0.407799 -5.98412 0
M  V30 4188 H 398.955 -0.813332 -6.41868 0
M  V30 4189 N 399.087 1.5561 -0.249682 0
M  V30 4190 C 400.312 2.03865 0.381305 0
M  V30 4191 C 400.737 1.12769 1.50548 0
M  V30 4192 O 400.095 0.121189 1.80895 0
M  V30 4193 C 400.143 3.50101 0.863816 0
M  V30 4194 O 399.247 3.62132 1.97318 0
M  V30 4195 H 398.588 0.658827 0.0827194 0
M  V30 4196 H 401.118 2.01105 -0.376552 0
M  V30 4197 H 401.128 3.90975 1.1663 0
M  V30 4198 H 399.803 4.1588 0.0411816 0
M  V30 4199 H 398.38 3.33155 1.67517 0
M  V30 4200 N 400.565 -0.0233959 1.57583 0
M  V30 4201 C 401.495 -1.02162 2.09965 0
M  V30 4202 C 402.476 -1.3735 1.00344 0
M  V30 4203 O 403.661 -1.46135 1.27899 0
M  V30 4204 C 400.791 -2.32081 2.58371 0
M  V30 4205 C 399.745 -2.1112 3.72307 0
M  V30 4206 C 399.071 -3.46848 4.06941 0
M  V30 4207 C 400.371 -1.49276 5.00514 0
M  V30 4208 H 402.065 -0.585557 2.93618 0
M  V30 4209 H 399.611 -0.280218 1.41247 0
M  V30 4210 H 401.564 -3.02249 2.93639 0
M  V30 4211 H 400.288 -2.77758 1.71808 0
M  V30 4212 H 398.947 -1.43384 3.37397 0
M  V30 4213 H 398.595 -3.90184 3.17436 0
M  V30 4214 H 398.295 -3.33646 4.83688 0
M  V30 4215 H 399.819 -4.18369 4.44747 0
M  V30 4216 H 401.233 -2.09368 5.33702 0
M  V30 4217 H 399.63 -1.46632 5.8191 0
M  V30 4218 H 400.7 -0.459217 4.82721 0
M  V30 4219 N 402.043 -1.548 -0.295768 0
M  V30 4220 C 403.32 -1.65014 -1.05023 0
M  V30 4221 C 403.7 -0.501805 -2.05049 0
M  V30 4222 O 403.048 0.500869 -2.22943 0
M  V30 4223 C 403.258 -3.03252 -1.72741 0
M  V30 4224 C 404.606 -3.60242 -2.24746 0
M  V30 4225 O 405.63 -3.05737 -1.82765 0
M  V30 4226 O 404.489 -4.55687 -3.01681 0
M  V30 4227 H 401.583 -0.669314 -0.485744 0
M  V30 4228 H 404.129 -1.67144 -0.293438 0
M  V30 4229 H 402.901 -3.7827 -1.00138 0
M  V30 4230 H 402.524 -3.04922 -2.55163 0
M  V30 4231 N 403.521 0.559213 -1.47345 0
M  V30 4232 C 404.769 1.31388 -1.53563 0
M  V30 4233 C 405.09 1.93985 -0.198678 0
M  V30 4234 O 404.36 1.79825 0.777167 0
M  V30 4235 H 402.94 0.487901 -0.565652 0
M  V30 4236 H 405.602 0.65315 -1.8363 0
M  V30 4237 H 404.698 2.10844 -2.30111 0
M  V30 4238 N 404.999 1.35443 0.805782 0
M  V30 4239 C 406.276 1.19325 1.54987 0
M  V30 4240 C 406.656 -0.227294 2.09873 0
M  V30 4241 O 406.004 -1.2309 1.92512 0
M  V30 4242 C 406.214 2.26196 2.65775 0
M  V30 4243 C 407.562 2.62043 3.34094 0
M  V30 4244 O 408.586 2.25115 2.76046 0
M  V30 4245 O 407.445 3.25542 4.38958 0
M  V30 4246 H 404.539 0.463623 0.684823 0
M  V30 4247 H 407.085 1.47127 0.845674 0
M  V30 4248 H 405.857 3.21471 2.23096 0
M  V30 4249 H 405.48 1.99667 3.43829 0
M  V30 4250 N 406.477 -1.02803 1.19454 0
M  V30 4251 C 407.723 -1.76478 0.999171 0
M  V30 4252 C 408.056 -1.88456 -0.468828 0
M  V30 4253 O 407.331 -1.40198 -1.34814 0
M  V30 4254 C 407.614 -3.19044 1.66981 0
M  V30 4255 C 407.467 -3.14932 3.21151 0
M  V30 4256 C 408.786 -4.17456 1.39349 0
M  V30 4257 H 405.905 -0.640614 0.364393 0
M  V30 4258 H 408.547 -1.20005 1.47305 0
M  V30 4259 H 406.697 -3.67263 1.2669 0
M  V30 4260 H 408.369 -2.74605 3.70661 0
M  V30 4261 H 406.612 -2.52625 3.52652 0
M  V30 4262 H 407.283 -4.1566 3.63223 0
M  V30 4263 H 409.759 -3.77842 1.74283 0
M  V30 4264 H 408.635 -5.154 1.88823 0
M  V30 4265 H 408.896 -4.40949 0.318813 0
M  V30 4266 N 407.956 -0.998596 -1.21925 0
M  V30 4267 C 409.184 -0.696286 -1.94832 0
M  V30 4268 C 409.599 0.740032 -1.73692 0
M  V30 4269 O 408.956 1.5 -1.03953 0
M  V30 4270 C 409.007 -0.999833 -3.47398 0
M  V30 4271 O 408.728 -2.37972 -3.67833 0
M  V30 4272 C 410.229 -0.716025 -4.37479 0
M  V30 4273 H 407.449 -0.257111 -0.619786 0
M  V30 4274 H 409.993 -1.33491 -1.54921 0
M  V30 4275 H 408.148 -0.406918 -3.85257 0
M  V30 4276 H 408.562 -2.48338 -4.61983 0
M  V30 4277 H 410.036 -0.978642 -5.43256 0
M  V30 4278 H 410.513 0.349968 -4.37803 0
M  V30 4279 H 411.119 -1.29025 -4.05256 0
M  V30 4280 N 409.434 1.37368 -0.772513 0
M  V30 4281 C 410.681 1.99673 -0.337182 0
M  V30 4282 C 411.009 1.61324 1.0865 0
M  V30 4283 O 410.264 0.851377 1.7621 0
M  V30 4284 C 410.563 3.54817 -0.428876 0
M  V30 4285 C 410.229 4.12936 -1.81092 0
M  V30 4286 C 408.891 4.28523 -2.1891 0
M  V30 4287 C 411.243 4.44801 -2.71664 0
M  V30 4288 C 408.571 4.73277 -3.46735 0
M  V30 4289 C 410.923 4.90981 -3.98899 0
M  V30 4290 C 409.587 5.04773 -4.36761 0
M  V30 4291 H 408.857 0.730656 -0.123384 0
M  V30 4292 H 411.504 1.64124 -0.986686 0
M  V30 4293 H 409.809 3.90618 0.304167 0
M  V30 4294 H 411.506 4.00933 -0.0733334 0
M  V30 4295 H 408.096 4.01233 -1.50699 0
M  V30 4296 H 412.28 4.32344 -2.43706 0
M  V30 4297 H 407.536 4.82142 -3.75964 0
M  V30 4298 H 411.71 5.14603 -4.69208 0
M  V30 4299 H 409.337 5.39211 -5.35868 0
M  V30 4300 N 410.912 0.523116 1.48665 0
M  V30 4301 C 412.159 -0.0134763 2.02496 0
M  V30 4302 C 412.487 -1.3493 1.40086 0
M  V30 4303 O 411.742 -1.88286 0.533567 0
M  V30 4304 C 412.041 -0.191671 3.56886 0
M  V30 4305 C 411.707 1.06893 4.38046 0
M  V30 4306 C 410.369 1.41443 4.59943 0
M  V30 4307 C 412.721 1.90584 4.85106 0
M  V30 4308 C 410.049 2.59594 5.26144 0
M  V30 4309 C 412.401 3.07907 5.52609 0
M  V30 4310 C 411.065 3.42811 5.72745 0
M  V30 4311 H 410.335 -0.00493133 0.740984 0
M  V30 4312 H 412.982 0.687751 1.78724 0
M  V30 4313 H 411.287 -0.97561 3.79459 0
M  V30 4314 H 412.984 -0.621659 3.96152 0
M  V30 4315 H 409.574 0.789848 4.21259 0
M  V30 4316 H 413.758 1.65203 4.67997 0
M  V30 4317 H 409.014 2.86847 5.39934 0
M  V30 4318 H 413.188 3.73066 5.88043 0
M  V30 4319 H 410.815 4.34462 6.23816 0
M  V30 4320 N 412.39 -1.55475 0.257931 0
M  V30 4321 C 413.638 -1.98813 -0.363009 0
M  V30 4322 C 413.959 -1.14757 -1.57657 0
M  V30 4323 O 413.229 -0.232956 -1.9451 0
M  V30 4324 H 411.809 -0.734308 -0.137113 0
M  V30 4325 H 414.471 -1.9156 0.359281 0
M  V30 4326 H 413.567 -3.04941 -0.664634 0
M  V30 4327 N 413.868 0.0150385 -1.57593 0
M  V30 4328 C 414.831 0.995996 -2.06428 0
M  V30 4329 C 415.831 1.2818 -0.970903 0
M  V30 4330 O 417.021 1.22949 -1.23406 0
M  V30 4331 C 414.153 2.32506 -2.49307 0
M  V30 4332 H 415.346 0.573873 -2.94358 0
M  V30 4333 H 412.899 0.262186 -1.54085 0
M  V30 4334 H 413.634 2.79438 -1.64575 0
M  V30 4335 H 413.419 2.13087 -3.29145 0
M  V30 4336 H 414.909 3.02906 -2.87468 0
M  V30 4337 N 415.346 1.54954 0.287554 0
M  V30 4338 C 416.276 1.89839 1.35954 0
M  V30 4339 C 417.257 0.758675 1.52244 0
M  V30 4340 O 418.442 1.01557 1.65529 0
M  V30 4341 C 415.572 2.15753 2.72154 0
M  V30 4342 C 414.526 3.3159 2.70614 0
M  V30 4343 C 413.852 3.42952 4.10229 0
M  V30 4344 C 415.152 4.68359 2.31165 0
M  V30 4345 H 416.846 2.79625 1.07007 0
M  V30 4346 H 414.392 1.3454 0.513316 0
M  V30 4347 H 416.345 2.38743 3.47246 0
M  V30 4348 H 415.069 1.22752 3.02654 0
M  V30 4349 H 413.728 3.08545 1.97979 0
M  V30 4350 H 413.376 2.47443 4.37928 0
M  V30 4351 H 413.076 4.20826 4.10097 0
M  V30 4352 H 414.6 3.68218 4.87081 0
M  V30 4353 H 416.014 4.9099 2.95976 0
M  V30 4354 H 414.411 5.49044 2.42221 0
M  V30 4355 H 415.481 4.68165 1.26291 0
M  V30 4356 N 416.824 -0.551391 1.4764 0
M  V30 4357 C 417.771 -1.65796 1.60563 0
M  V30 4358 C 418.741 -1.59932 0.448428 0
M  V30 4359 O 419.926 -1.78679 0.669222 0
M  V30 4360 C 417.066 -3.04108 1.63133 0
M  V30 4361 C 416.179 -3.20365 2.89811 0
M  V30 4362 C 415.314 -4.49109 2.8368 0
M  V30 4363 C 414.353 -4.58819 4.05156 0
M  V30 4364 N 413.49 -5.78926 3.97227 0
M  V30 4365 H 418.33 -1.54088 2.5507 0
M  V30 4366 H 415.867 -0.75052 1.26513 0
M  V30 4367 H 417.825 -3.84207 1.62606 0
M  V30 4368 H 416.455 -3.14637 0.721341 0
M  V30 4369 H 415.507 -2.33659 3.00179 0
M  V30 4370 H 416.819 -3.23402 3.79753 0
M  V30 4371 H 415.973 -5.37475 2.81434 0
M  V30 4372 H 414.712 -4.4856 1.91431 0
M  V30 4373 H 413.717 -3.68864 4.077 0
M  V30 4374 H 414.942 -4.61124 4.98539 0
M  V30 4375 H 412.888 -5.79314 3.07785 0
M  V30 4376 H 412.805 -5.83367 4.80853 0
M  V30 4377 H 414.073 -6.69637 3.99007 0
M  V30 4378 N 418.302 -1.35869 -0.798587 0
M  V30 4379 C 419.232 -1.32118 -1.92528 0
M  V30 4380 C 420.213 -0.194209 -1.68988 0
M  V30 4381 O 421.398 -0.390426 -1.90235 0
M  V30 4382 C 418.528 -1.10047 -3.29404 0
M  V30 4383 C 417.482 -2.19471 -3.67446 0
M  V30 4384 C 416.808 -1.82555 -5.02571 0
M  V30 4385 C 418.108 -3.61495 -3.76987 0
M  V30 4386 H 419.802 -2.26394 -1.95924 0
M  V30 4387 H 417.348 -1.08981 -0.94123 0
M  V30 4388 H 419.301 -1.06061 -4.07835 0
M  V30 4389 H 418.025 -0.122195 -3.26371 0
M  V30 4390 H 416.684 -2.22568 -2.91306 0
M  V30 4391 H 416.332 -0.833249 -4.9605 0
M  V30 4392 H 416.032 -2.5581 -5.28995 0
M  V30 4393 H 417.556 -1.80108 -5.83432 0
M  V30 4394 H 418.97 -3.60676 -4.4563 0
M  V30 4395 H 417.367 -4.33577 -4.14887 0
M  V30 4396 H 418.437 -3.97065 -2.78329 0
M  V30 4397 N 419.78 1.02168 -1.19998 0
M  V30 4398 C 420.71 2.12488 -0.96804 0
M  V30 4399 C 421.691 1.69799 0.101185 0
M  V30 4400 O 422.876 1.94121 -0.0552993 0
M  V30 4401 C 420.006 3.43479 -0.513776 0
M  V30 4402 C 418.96 3.99884 -1.52566 0
M  V30 4403 C 418.286 5.26582 -0.928214 0
M  V30 4404 C 419.586 4.33861 -2.90795 0
M  V30 4405 H 421.28 2.32149 -1.89069 0
M  V30 4406 H 418.826 1.11564 -0.910468 0
M  V30 4407 H 420.779 4.20036 -0.338774 0
M  V30 4408 H 419.503 3.23561 0.444493 0
M  V30 4409 H 418.162 3.25429 -1.68794 0
M  V30 4410 H 417.81 5.02986 0.0378289 0
M  V30 4411 H 417.51 5.65284 -1.60397 0
M  V30 4412 H 419.034 6.05799 -0.764167 0
M  V30 4413 H 420.448 5.01327 -2.78109 0
M  V30 4414 H 418.845 4.83664 -3.55231 0
M  V30 4415 H 419.915 3.42848 -3.42904 0
M  V30 4416 O 421.297 1.13266 1.15122 0
M  V30 4417 H 421.988 0.848237 1.7414 0
M  V30 END ATOM
M  V30 BEGIN BOND
M  V30 END BOND
M  V30 END CTAB
M  END
$$$$
