drugbank_target|Q9Y2J8 Protein-arginine deiminase type-2 (DB00155)
 OpenBabel12092120093D

  0  0  0     0  0            999 V3000
M  V30 BEGIN CTAB
M  V30 COUNTS 10607 10740 0 0 0
M  V30 BEGIN ATOM
M  V30 1 H -0.908 1.98254 -0.117106 0
M  V30 2 N 0 1.576 0 0
M  V30 3 C 0.933 2.03868 1.02534 0
M  V30 4 C 1.911 0.928543 1.3348 0
M  V30 5 O 3.095 1.19667 1.45644 0
M  V30 6 C 0.222 2.43627 2.35294 0
M  V30 7 C -0.732 3.65373 2.2001 0
M  V30 8 S 0.101 5.13292 1.52614 0
M  V30 9 C 1.257 5.56322 2.86805 0
M  V30 10 H 1.49 2.90518 0.631377 0
M  V30 11 H -0.977 1.52953 0.210867 0
M  V30 12 H 0.981 2.67203 3.11629 0
M  V30 13 H -0.358 1.57376 2.7183 0
M  V30 14 H -1.165 3.90944 3.18086 0
M  V30 15 H -1.563 3.418 1.51819 0
M  V30 16 H 0.729 5.58782 3.83104 0
M  V30 17 H 1.672 6.56266 2.65933 0
M  V30 18 H 2.08 4.83886 2.90714 0
M  V30 19 N 1.4781 -0.272755 1.55222 0
M  V30 20 C 2.4081 -1.34136 1.91127 0
M  V30 21 C 3.3891 -1.51513 0.773168 0
M  V30 22 O 4.5741 -1.64552 1.03132 0
M  V30 23 C 1.7041 -2.70083 2.1834 0
M  V30 24 C 0.6581 -2.67437 3.34158 0
M  V30 25 C -0.0159 -4.06938 3.46851 0
M  V30 26 C 1.2841 -2.26686 4.70543 0
M  V30 27 H 2.9781 -1.04333 2.80633 0
M  V30 28 H 0.5241 -0.500454 1.35024 0
M  V30 29 H 2.4771 -3.44952 2.42046 0
M  V30 30 H 1.2011 -3.01469 1.25634 0
M  V30 31 H -0.1399 -1.95026 3.1042 0
M  V30 32 H -0.4919 -4.35547 2.51611 0
M  V30 33 H -0.7919 -4.06062 4.2472 0
M  V30 34 H 0.7321 -4.83545 3.72849 0
M  V30 35 H 2.1461 -2.91277 4.93792 0
M  V30 36 H 0.5431 -2.36971 5.5133 0
M  V30 37 H 1.6131 -1.21818 4.69349 0
M  V30 38 N 2.9562 -1.48159 -0.537278 0
M  V30 39 C 4.3722 -1.34118 -0.865129 0
M  V30 40 C 4.5722 -0.346678 -1.98495 0
M  V30 41 O 3.6282 0.234715 -2.51407 0
M  V30 42 C 4.9412 -2.73963 -1.23954 0
M  V30 43 C 6.4892 -2.82397 -1.34984 0
M  V30 44 C 6.9642 -4.22928 -1.75772 0
M  V30 45 N 8.4552 -4.25566 -1.82887 0
M  V30 46 C 9.1902 -5.31235 -2.15817 0
M  V30 47 N 8.6862 -6.47189 -2.47222 0
M  V30 48 N 10.4792 -5.18624 -2.16761 0
M  V30 49 H 2.6302 -2.1144 0.201715 0
M  V30 50 H 4.8932 -0.947598 0.0275949 0
M  V30 51 H 4.5992 -3.48264 -0.490381 0
M  V30 52 H 4.4732 -3.0702 -2.19132 0
M  V30 53 H 6.8602 -2.08356 -2.08978 0
M  V30 54 H 6.9412 -2.5297 -0.379448 0
M  V30 55 H 6.5852 -4.97482 -1.02341 0
M  V30 56 H 6.5152 -4.49794 -2.73848 0
M  V30 57 H 9.0062 -3.41924 -1.60924 0
M  V30 58 H 9.3192 -7.23564 -2.71433 0
M  V30 59 H 7.6642 -6.50476 -2.44757 0
M  V30 60 H 10.8552 -4.27056 -1.91679 0
M  V30 61 H 11.0282 -6.01078 -2.42093 0
M  V30 62 N 4.4343 0.785586 -1.36625 0
M  V30 63 C 5.3443 1.92964 -1.33425 0
M  V30 64 C 6.3603 1.72394 -0.235851 0
M  V30 65 O 7.5363 1.95866 -0.468878 0
M  V30 66 C 4.6013 3.27884 -1.12662 0
M  V30 67 C 3.6623 3.61204 -2.32013 0
M  V30 68 C 2.8953 4.89687 -2.12231 0
M  V30 69 O 3.1183 5.59704 -1.09945 0
M  V30 70 O 2.0523 5.21752 -3.00098 0
M  V30 71 H 5.8783 1.98613 -2.29753 0
M  V30 72 H 3.4633 0.926384 -1.17211 0
M  V30 73 H 5.3453 4.08614 -1.03016 0
M  V30 74 H 4.0203 3.23118 -0.193991 0
M  V30 75 H 2.9273 2.80765 -2.47228 0
M  V30 76 H 4.2603 3.70698 -3.23796 0
M  V30 77 N 5.9124 1.20967 1.01018 0
M  V30 78 C 7.3284 0.965905 1.27053 0
M  V30 79 C 7.5284 -0.350785 1.98423 0
M  V30 80 O 6.5844 -1.07773 2.28344 0
M  V30 81 C 7.8974 2.15294 2.09926 0
M  V30 82 C 9.4454 2.19463 2.23171 0
M  V30 83 C 9.9204 3.3767 3.09424 0
M  V30 84 N 11.4114 3.37724 3.17012 0
M  V30 85 C 12.1464 4.25837 3.83993 0
M  V30 86 N 11.6424 5.24138 4.53047 0
M  V30 87 N 13.4354 4.1366 3.80581 0
M  V30 88 H 5.5864 2.0565 0.531194 0
M  V30 89 H 7.8494 0.90024 0.297106 0
M  V30 90 H 7.5554 3.10684 1.64828 0
M  V30 91 H 7.4294 2.13923 3.10672 0
M  V30 92 H 9.8164 1.24632 2.6749 0
M  V30 93 H 9.8974 2.2488 1.21912 0
M  V30 94 H 9.5414 4.32791 2.65808 0
M  V30 95 H 9.4714 3.29491 4.10784 0
M  V30 96 H 11.9624 2.6658 2.6785 0
M  V30 97 H 12.2754 5.87684 5.01844 0
M  V30 98 H 10.6204 5.28068 4.5185 0
M  V30 99 H 13.8114 3.36127 3.25785 0
M  V30 100 H 13.9844 4.82538 4.32505 0
M  V30 101 N 7.3905 -1.2043 1.01659 0
M  V30 102 C 8.6185 -1.93777 0.725132 0
M  V30 103 C 9.0335 -1.74772 -0.714166 0
M  V30 104 O 8.3905 -1.06169 -1.4844 0
M  V30 105 C 8.4415 -3.45876 1.05129 0
M  V30 106 O 8.1625 -3.6426 2.43406 0
M  V30 107 C 9.6635 -4.36368 0.780891 0
M  V30 108 H 6.8835 -0.615901 0.266284 0
M  V30 109 H 9.4275 -1.52922 1.35776 0
M  V30 110 H 7.5825 -3.8461 0.464065 0
M  V30 111 H 7.9965 -4.58246 2.55169 0
M  V30 112 H 9.4705 -5.41743 1.05918 0
M  V30 113 H 9.9475 -4.38275 -0.284937 0
M  V30 114 H 10.5535 -4.03296 1.35027 0
M  V30 115 N 8.8686 -0.792821 -1.36206 0
M  V30 116 C 10.1146 -0.36733 -1.99446 0
M  V30 117 C 10.4476 1.05917 -1.62774 0
M  V30 118 O 9.7226 1.7324 -0.88421 0
M  V30 119 C 10.0056 -0.535044 -3.56103 0
M  V30 120 C 9.8586 -2.00548 -4.02617 0
M  V30 121 C 11.1776 0.0478191 -4.40074 0
M  V30 122 H 8.2966 -0.134941 -0.724541 0
M  V30 123 H 10.9386 -0.999794 -1.61568 0
M  V30 124 H 9.0886 0.00336329 -3.885 0
M  V30 125 H 10.7606 -2.60521 -3.80692 0
M  V30 126 H 9.0036 -2.50686 -3.54032 0
M  V30 127 H 9.6746 -2.07377 -5.11565 0
M  V30 128 H 12.1506 -0.411822 -4.14057 0
M  V30 129 H 11.0266 -0.0995336 -5.4881 0
M  V30 130 H 11.2876 1.14025 -4.27142 0
M  V30 131 N 10.3467 1.47872 -0.545128 0
M  V30 132 C 11.7627 1.5829 -0.204032 0
M  V30 133 C 11.9627 1.54529 1.29317 0
M  V30 134 O 11.0187 1.44232 2.07252 0
M  V30 135 C 12.3317 2.89304 -0.819987 0
M  V30 136 C 13.8797 3.02864 -0.790105 0
M  V30 137 C 14.3547 4.3656 -1.38491 0
M  V30 138 N 15.8457 4.43165 -1.34755 0
M  V30 139 C 16.5807 5.45153 -1.77753 0
M  V30 140 N 16.0767 6.54016 -2.2855 0
M  V30 141 N 17.8697 5.36125 -1.68897 0
M  V30 142 H 10.0207 1.4856 -1.51802 0
M  V30 143 H 12.2837 0.706305 -0.632327 0
M  V30 144 H 11.9897 2.97757 -1.87173 0
M  V30 145 H 11.8637 3.75957 -0.305915 0
M  V30 146 H 14.2507 2.94014 0.252913 0
M  V30 147 H 14.3317 2.17782 -1.34181 0
M  V30 148 H 13.9757 4.46164 -2.42693 0
M  V30 149 H 13.9057 5.20353 -0.808754 0
M  V30 150 H 16.3967 3.65083 -0.975855 0
M  V30 151 H 16.7097 7.27994 -2.59314 0
M  V30 152 H 15.0547 6.54938 -2.32553 0
M  V30 153 H 18.2457 4.49975 -1.28998 0
M  V30 154 H 18.4187 6.15472 -2.02726 0
M  V30 155 N 11.8248 0.280983 1.55075 0
M  V30 156 C 12.7548 -0.597469 2.25727 0
M  V30 157 C 13.7358 -1.15417 1.24952 0
M  V30 158 O 14.9208 -1.18722 1.53684 0
M  V30 159 C 12.0508 -1.7789 2.98283 0
M  V30 160 C 11.0048 -1.35347 4.06036 0
M  V30 161 C 10.3308 -2.61846 4.66198 0
M  V30 162 C 11.6308 -0.499354 5.19907 0
M  V30 163 H 13.3248 -0.00824265 2.99399 0
M  V30 164 H 10.8708 -0.0025244 1.44 0
M  V30 165 H 12.8238 -2.39937 3.46422 0
M  V30 166 H 11.5478 -2.39405 2.22155 0
M  V30 167 H 10.2068 -0.756156 3.58717 0
M  V30 168 H 9.8548 -3.21632 3.86732 0
M  V30 169 H 9.5548 -2.3409 5.38958 0
M  V30 170 H 11.0788 -3.24732 5.1709 0
M  V30 171 H 12.4928 -1.02498 5.64063 0
M  V30 172 H 10.8898 -0.316424 5.99265 0
M  V30 173 H 11.9598 0.480459 4.82514 0
M  V30 174 N 13.3029 -1.57598 0.00835791 0
M  V30 175 C 14.2349 -2.05811 -1.00868 0
M  V30 176 C 15.2479 -0.977579 -1.30182 0
M  V30 177 O 16.4369 -1.25421 -1.27011 0
M  V30 178 C 13.5369 -2.45016 -2.34137 0
M  V30 179 C 12.7099 -3.75903 -2.23643 0
M  V30 180 C 11.7689 -4.01884 -3.3967 0
M  V30 181 O 10.7949 -4.72433 -3.17483 0
M  V30 182 N 11.9969 -3.50432 -4.62793 0
M  V30 183 H 14.7619 -2.93684 -0.597458 0
M  V30 184 H 12.3229 -1.60909 -0.178852 0
M  V30 185 H 14.3149 -2.59506 -3.10546 0
M  V30 186 H 12.8849 -1.62618 -2.66972 0
M  V30 187 H 12.1049 -3.7141 -1.32091 0
M  V30 188 H 13.3929 -4.61695 -2.13812 0
M  V30 189 H 12.7909 -2.93317 -4.83716 0
M  V30 190 H 11.3479 -3.70236 -5.3644 0
M  V30 191 N 14.781 0.264519 -1.55364 0
M  V30 192 C 16.011 1.01153 -1.80143 0
M  V30 193 C 16.419 1.80115 -0.579253 0
M  V30 194 O 15.762 1.77813 0.46132 0
M  V30 195 C 15.824 2.01098 -2.97993 0
M  V30 196 C 15.488 1.40995 -4.34706 0
M  V30 197 C 16.485 0.821316 -5.13372 0
M  V30 198 C 14.17 1.43461 -4.81378 0
M  V30 199 C 16.164 0.265339 -6.36847 0
M  V30 200 C 13.851 0.874771 -6.04807 0
M  V30 201 C 14.849 0.291146 -6.82379 0
M  V30 202 O 14.537 -0.260093 -8.03479 0
M  V30 203 H 14.269 0.304125 -0.603725 0
M  V30 204 H 16.823 0.298089 -2.03225 0
M  V30 205 H 15.053 2.76224 -2.70623 0
M  V30 206 H 16.742 2.61997 -3.1002 0
M  V30 207 H 17.508 0.794903 -4.78442 0
M  V30 208 H 13.387 1.87826 -4.21002 0
M  V30 209 H 16.931 -0.190837 -6.97339 0
M  V30 210 H 12.828 0.898452 -6.39217 0
M  V30 211 H 13.596 -0.150265 -8.18362 0
M  V30 212 N 16.2591 1.48442 0.529413 0
M  V30 213 C 17.5071 1.56179 1.28267 0
M  V30 214 C 17.8281 0.237721 1.93546 0
M  V30 215 O 17.0981 -0.740779 1.81354 0
M  V30 216 H 15.6781 0.575367 0.476405 0
M  V30 217 H 18.3401 1.84909 0.61602 0
M  V30 218 H 17.4361 2.34312 2.06165 0
M  V30 219 N 17.7372 -0.778329 1.37039 0
M  V30 220 C 18.9622 -1.57248 1.35233 0
M  V30 221 C 19.3872 -1.87999 -0.0615568 0
M  V30 222 O 18.7452 -1.48734 -1.03672 0
M  V30 223 C 18.7932 -2.86353 2.19167 0
M  V30 224 O 17.8972 -3.80442 1.59178 0
M  V30 225 H 17.2382 -0.476569 0.462362 0
M  V30 226 H 19.7682 -0.963853 1.80474 0
M  V30 227 H 19.7782 -3.35519 2.32145 0
M  V30 228 H 18.4532 -2.63299 3.21942 0
M  V30 229 H 17.0302 -3.39067 1.55203 0
M  V30 230 N 19.2153 -1.21501 -1.00376 0
M  V30 231 C 20.6313 -0.972629 -1.26539 0
M  V30 232 C 20.8313 0.340257 -1.98606 0
M  V30 233 O 19.8873 1.06561 -2.28913 0
M  V30 234 C 21.2003 -2.16404 -2.08781 0
M  V30 235 C 22.7483 -2.20643 -2.22004 0
M  V30 236 C 23.2233 -3.39306 -3.07629 0
M  V30 237 N 24.7143 -3.39401 -3.15217 0
M  V30 238 C 25.4493 -4.27867 -3.81729 0
M  V30 239 N 24.9453 -5.26533 -4.5026 0
M  V30 240 N 26.7383 -4.15672 -3.78382 0
M  V30 241 H 18.8893 -2.05929 -0.520281 0
M  V30 242 H 21.1523 -0.901803 -0.292328 0
M  V30 243 H 20.8583 -3.11554 -1.63178 0
M  V30 244 H 20.7323 -2.15567 -3.09533 0
M  V30 245 H 23.1193 -1.26048 -2.66825 0
M  V30 246 H 23.2003 -2.25523 -1.20718 0
M  V30 247 H 22.8443 -4.34195 -2.63509 0
M  V30 248 H 22.7743 -3.31665 -4.09031 0
M  V30 249 H 25.2653 -2.67997 -2.66432 0
M  V30 250 H 25.5783 -5.90337 -4.98721 0
M  V30 251 H 23.9233 -5.30457 -4.49044 0
M  V30 252 H 27.1143 -3.3785 -3.23998 0
M  V30 253 H 27.2873 -4.84825 -4.2994 0
M  V30 254 N 20.6934 1.19889 -1.02296 0
M  V30 255 C 21.9394 1.89701 -0.717033 0
M  V30 256 C 22.2724 1.7905 0.751989 0
M  V30 257 O 21.5474 1.17891 1.547 0
M  V30 258 C 21.8304 3.40858 -1.16136 0
M  V30 259 C 21.6834 3.60411 -2.69117 0
M  V30 260 C 23.0024 4.33876 -0.737549 0
M  V30 261 H 20.1214 0.688874 -0.261957 0
M  V30 262 H 22.7634 1.41154 -1.27183 0
M  V30 263 H 20.9134 3.82335 -0.689342 0
M  V30 264 H 22.5854 3.28145 -3.2422 0
M  V30 265 H 20.8284 3.03665 -3.0979 0
M  V30 266 H 21.4994 4.66396 -2.95261 0
M  V30 267 H 23.9754 4.00081 -1.14344 0
M  V30 268 H 22.8514 5.38242 -1.0764 0
M  V30 269 H 23.1124 4.40628 0.360436 0
M  V30 270 N 22.1715 0.800033 1.35784 0
M  V30 271 C 23.0815 0.207204 2.33683 0
M  V30 272 C 24.0975 -0.64631 1.61551 0
M  V30 273 O 25.2735 -0.559604 1.93469 0
M  V30 274 C 22.3385 -0.639659 3.40748 0
M  V30 275 C 21.3995 0.233585 4.28664 0
M  V30 276 C 20.6325 -0.572954 5.30616 0
M  V30 277 O 20.8555 -1.80816 5.40982 0
M  V30 278 O 19.7895 0.0327285 6.01891 0
M  V30 279 H 23.6155 1.01692 2.86169 0
M  V30 280 H 21.2005 0.561691 1.38439 0
M  V30 281 H 23.0825 -1.12223 4.06182 0
M  V30 282 H 21.7575 -1.42708 2.90544 0
M  V30 283 H 20.6645 0.763147 3.66233 0
M  V30 284 H 21.9975 0.984784 4.82248 0
M  V30 285 N 23.6496 -1.47581 0.552962 0
M  V30 286 C 24.6126 -2.28439 -0.186605 0
M  V30 287 C 25.6126 -1.36706 -0.84665 0
M  V30 288 O 26.8026 -1.59378 -0.703164 0
M  V30 289 C 23.9346 -3.16264 -1.2724 0
M  V30 290 H 25.1276 -2.95294 0.523609 0
M  V30 291 H 22.6806 -1.532 0.309745 0
M  V30 292 H 23.4156 -2.54091 -2.01514 0
M  V30 293 H 23.2006 -3.83769 -0.803968 0
M  V30 294 H 24.6906 -3.77198 -1.79196 0
M  V30 295 N 25.1277 -0.289203 -1.54924 0
M  V30 296 C 26.3737 0.323998 -2.00195 0
M  V30 297 C 26.7067 1.54441 -1.17735 0
M  V30 298 O 25.9817 1.92875 -0.250878 0
M  V30 299 C 26.2647 0.692276 -3.53383 0
M  V30 300 C 26.1177 -0.536457 -4.46589 0
M  V30 301 C 27.4367 1.52335 -4.12895 0
M  V30 302 H 24.5557 0.116289 -0.727768 0
M  V30 303 H 27.1977 -0.398954 -1.85764 0
M  V30 304 H 25.3477 1.30822 -3.65811 0
M  V30 305 H 27.0197 -1.17499 -4.46085 0
M  V30 306 H 25.2627 -1.17192 -4.1767 0
M  V30 307 H 25.9337 -0.234806 -5.515 0
M  V30 308 H 28.4097 1.00302 -4.0383 0
M  V30 309 H 27.2857 1.74982 -5.20262 0
M  V30 310 H 27.5467 2.50886 -3.64018 0
M  V30 311 N 26.6058 1.57591 -0.0167156 0
M  V30 312 C 27.8358 1.95292 0.674149 0
M  V30 313 C 28.2438 0.891097 1.66901 0
M  V30 314 O 27.5868 -0.136908 1.83189 0
M  V30 315 C 27.6488 3.29072 1.44747 0
M  V30 316 C 27.3128 4.52879 0.612331 0
M  V30 317 C 28.3098 5.1979 -0.107126 0
M  V30 318 C 25.9948 4.99242 0.553381 0
M  V30 319 C 27.9888 6.31375 -0.874339 0
M  V30 320 C 25.6758 6.10713 -0.217546 0
M  V30 321 C 26.6738 6.76637 -0.930123 0
M  V30 322 O 26.3618 7.85969 -1.68844 0
M  V30 323 H 26.0938 0.648275 0.191615 0
M  V30 324 H 28.6478 2.05284 -0.0690148 0
M  V30 325 H 26.8778 3.15535 2.2355 0
M  V30 326 H 28.5668 3.51764 2.02526 0
M  V30 327 H 29.3328 4.84948 -0.0708392 0
M  V30 328 H 25.2118 4.47744 1.09757 0
M  V30 329 H 28.7558 6.82764 -1.43106 0
M  V30 330 H 24.6528 6.44994 -0.255593 0
M  V30 331 H 25.4208 8.02571 -1.6069 0
M  V30 332 N 28.0839 -0.256276 1.55502 0
M  V30 333 C 29.3299 -0.987079 1.77157 0
M  V30 334 C 29.6629 -1.85327 0.580315 0
M  V30 335 O 28.9379 -1.89874 -0.421686 0
M  V30 336 C 29.2209 -1.85553 3.08613 0
M  V30 337 C 29.0739 -1.01816 4.38125 0
M  V30 338 C 30.3929 -2.8397 3.36228 0
M  V30 339 H 27.5119 -0.357428 0.644526 0
M  V30 340 H 30.1539 -0.258239 1.88237 0
M  V30 341 H 28.3039 -2.47695 2.99298 0
M  V30 342 H 29.9759 -0.416159 4.59419 0
M  V30 343 H 28.2189 -0.322178 4.32602 0
M  V30 344 H 28.8899 -1.65939 5.26468 0
M  V30 345 H 31.3659 -2.31964 3.45445 0
M  V30 346 H 30.2419 -3.41864 4.29442 0
M  V30 347 H 30.5029 -3.59955 2.56681 0
M  V30 348 N 29.562 -1.4872 -0.521534 0
M  V30 349 C 30.492 -1.66771 -1.63431 0
M  V30 350 C 31.473 -0.516499 -1.62069 0
M  V30 351 O 32.658 -0.750013 -1.79132 0
M  V30 352 C 29.788 -1.71515 -3.01993 0
M  V30 353 C 28.742 -2.86222 -3.18216 0
M  V30 354 C 28.068 -2.76061 -4.57924 0
M  V30 355 C 29.368 -4.27419 -3.00184 0
M  V30 356 H 31.062 -2.59932 -1.48579 0
M  V30 357 H 28.608 -1.25089 -0.713358 0
M  V30 358 H 30.561 -1.82731 -3.7972 0
M  V30 359 H 29.285 -0.749393 -3.17886 0
M  V30 360 H 27.944 -2.74575 -2.42908 0
M  V30 361 H 27.592 -1.77437 -4.70665 0
M  V30 362 H 27.292 -3.53037 -4.69722 0
M  V30 363 H 28.816 -2.89256 -5.37739 0
M  V30 364 H 30.23 -4.39855 -3.67697 0
M  V30 365 H 28.627 -5.05458 -3.2347 0
M  V30 366 H 29.697 -4.43293 -1.96518 0
M  V30 367 N 31.0401 0.771051 -1.3745 0
M  V30 368 C 32.2881 1.52661 -1.32435 0
M  V30 369 C 32.6091 1.9479 0.0905024 0
M  V30 370 O 31.8791 1.66348 1.03466 0
M  V30 371 H 30.4591 0.566218 -0.487244 0
M  V30 372 H 33.1211 0.917636 -1.71946 0
M  V30 373 H 32.2171 2.42568 -1.96385 0
M  V30 374 N 32.5182 1.22032 0.997298 0
M  V30 375 C 33.7462 1.06841 1.7718 0
M  V30 376 C 34.1612 -0.381325 1.84909 0
M  V30 377 O 33.5182 -1.26437 1.31605 0
M  V30 378 C 33.5692 1.66814 3.20711 0
M  V30 379 O 33.2902 3.06116 3.13408 0
M  V30 380 C 34.7912 1.56838 4.14628 0
M  V30 381 H 32.0112 0.374782 0.556578 0
M  V30 382 H 34.5552 1.61532 1.2541 0
M  V30 383 H 32.7102 1.16196 3.69564 0
M  V30 384 H 33.1242 3.34926 4.0364 0
M  V30 385 H 34.5982 2.03532 5.13107 0
M  V30 386 H 35.0752 0.524155 4.36061 0
M  V30 387 H 35.6812 2.06741 3.7167 0
M  V30 388 N 33.9963 -1.19345 1.0293 0
M  V30 389 C 35.2263 -1.92717 0.744563 0
M  V30 390 C 35.6343 -1.75751 -0.700579 0
M  V30 391 O 34.9773 -1.07703 -1.48815 0
M  V30 392 C 35.0393 -3.44828 1.01657 0
M  V30 393 C 34.7033 -3.85564 2.45335 0
M  V30 394 C 35.7003 -3.90286 3.43472 0
M  V30 395 C 33.3853 -4.1719 2.79746 0
M  V30 396 C 35.3793 -4.26065 4.74075 0
M  V30 397 C 33.0663 -4.52642 4.10559 0
M  V30 398 C 34.0643 -4.57054 5.07534 0
M  V30 399 O 33.7523 -4.91685 6.36004 0
M  V30 400 H 33.4843 -0.618977 0.271742 0
M  V30 401 H 36.0383 -1.52415 1.37691 0
M  V30 402 H 34.2683 -3.85314 0.327084 0
M  V30 403 H 35.9573 -3.99437 0.721427 0
M  V30 404 H 36.7233 -3.66002 3.18225 0
M  V30 405 H 32.6023 -4.1294 2.04943 0
M  V30 406 H 36.1463 -4.29423 5.49765 0
M  V30 407 H 32.0433 -4.76383 4.35579 0
M  V30 408 H 32.8113 -5.09631 6.40483 0
M  V30 409 N 35.4744 -0.807222 -1.35358 0
M  V30 410 C 36.4044 -0.232509 -2.3234 0
M  V30 411 C 37.3854 0.642386 -1.57504 0
M  V30 412 O 38.5704 0.572526 -1.85569 0
M  V30 413 C 35.7004 0.619238 -3.41735 0
M  V30 414 C 34.6544 -0.157215 -4.27711 0
M  V30 415 C 33.9804 0.816273 -5.28433 0
M  V30 416 C 35.2804 -1.35656 -5.04376 0
M  V30 417 H 36.9744 -1.04276 -2.80654 0
M  V30 418 H 34.5204 -0.50288 -1.34934 0
M  V30 419 H 36.4734 1.03137 -4.08584 0
M  V30 420 H 35.1974 1.46239 -2.92031 0
M  V30 421 H 33.8564 -0.550525 -3.62443 0
M  V30 422 H 33.5044 1.65494 -4.74996 0
M  V30 423 H 33.2044 0.301067 -5.86828 0
M  V30 424 H 34.7284 1.22659 -5.98153 0
M  V30 425 H 36.1424 -1.01927 -5.64166 0
M  V30 426 H 34.5394 -1.8063 -5.7227 0
M  V30 427 H 35.6094 -2.14288 -4.34981 0
M  V30 428 N 36.9525 1.47285 -0.560781 0
M  V30 429 C 38.1985 2.03347 -0.0463654 0
M  V30 430 C 38.5535 1.42702 1.2905 0
M  V30 431 O 37.8465 0.574619 1.8278 0
M  V30 432 C 38.0405 3.57258 0.100784 0
M  V30 433 C 37.8695 4.32827 -1.22027 0
M  V30 434 C 36.6395 4.72588 -1.78854 0
M  V30 435 C 38.8375 4.67739 -2.13834 0
M  V30 436 N 36.8195 5.32816 -3.04927 0
M  V30 437 C 38.1905 5.28307 -3.24487 0
M  V30 438 C 40.2455 4.49667 -2.13784 0
M  V30 439 C 38.9485 5.72711 -4.35194 0
M  V30 440 C 40.9745 4.95073 -3.23506 0
M  V30 441 C 40.3365 5.55693 -4.32879 0
M  V30 442 H 36.4355 0.779755 -0.0592166 0
M  V30 443 H 39.0195 1.79723 -0.748857 0
M  V30 444 H 37.1905 3.80642 0.772404 0
M  V30 445 H 38.9225 3.9996 0.617589 0
M  V30 446 H 35.6775 4.54656 -1.32609 0
M  V30 447 H 36.1015 5.67471 -3.69197 0
M  V30 448 H 40.7435 4.02154 -1.30507 0
M  V30 449 H 38.4615 6.19214 -5.1923 0
M  V30 450 H 42.0475 4.82859 -3.24559 0
M  V30 451 H 40.9275 5.90188 -5.1638 0
M  V30 452 N 38.4306 0.297415 1.54768 0
M  V30 453 C 39.6586 -0.315623 2.04478 0
M  V30 454 C 40.0736 -1.47792 1.17486 0
M  V30 455 O 39.4306 -1.81404 0.19971 0
M  V30 456 C 39.4816 -0.7753 3.53088 0
M  V30 457 O 39.2026 0.340732 4.36773 0
M  V30 458 C 40.7036 -1.45386 4.18781 0
M  V30 459 H 37.9236 -0.0690887 0.667434 0
M  V30 460 H 40.4676 0.436003 1.99798 0
M  V30 461 H 38.6226 -1.47696 3.58141 0
M  V30 462 H 39.0366 -0.0165035 5.24497 0
M  V30 463 H 40.5106 -1.72669 5.24299 0
M  V30 464 H 40.9876 -2.39275 3.68299 0
M  V30 465 H 41.5936 -0.795475 4.17795 0
M  V30 466 N 39.9087 -1.5758 0.0250728 0
M  V30 467 C 41.1857 -1.82917 -0.692873 0
M  V30 468 C 41.5657 -0.908137 -1.90568 0
M  V30 469 O 40.9137 0.0372298 -2.2847 0
M  V30 470 C 41.1237 -3.32034 -1.07492 0
M  V30 471 C 42.4717 -3.98406 -1.46826 0
M  V30 472 O 43.4957 -3.36505 -1.16801 0
M  V30 473 O 42.3547 -5.07497 -2.02754 0
M  V30 474 H 39.4487 -0.754079 -0.33955 0
M  V30 475 H 41.9947 -1.69619 0.0524456 0
M  V30 476 H 40.7667 -3.90728 -0.211552 0
M  V30 477 H 40.3897 -3.50424 -1.87854 0
M  V30 478 N 41.3868 0.248026 -1.55636 0
M  V30 479 C 42.6328 0.97767 -1.77678 0
M  V30 480 C 42.9658 1.85016 -0.590135 0
M  V30 481 O 42.2408 1.90095 0.411611 0
M  V30 482 C 42.5238 1.83914 -3.09593 0
M  V30 483 C 42.3768 0.99491 -4.38659 0
M  V30 484 C 43.6958 2.82183 -3.37729 0
M  V30 485 H 40.8148 0.354005 -0.646413 0
M  V30 486 H 43.4568 0.248253 -1.88371 0
M  V30 487 H 41.6068 2.46104 -3.00608 0
M  V30 488 H 43.2788 0.391789 -4.59633 0
M  V30 489 H 41.5218 0.299231 -4.32767 0
M  V30 490 H 42.1928 1.63145 -5.2734 0
M  V30 491 H 44.6688 2.30129 -3.4667 0
M  V30 492 H 43.5448 3.39582 -4.31249 0
M  V30 493 H 43.8058 3.58588 -2.58586 0
M  V30 494 N 42.8649 1.48995 0.513639 0
M  V30 495 C 44.0949 1.61297 1.291 0
M  V30 496 C 44.5029 0.278656 1.87137 0
M  V30 497 O 43.8459 -0.744325 1.67945 0
M  V30 498 C 43.9079 2.61326 2.46879 0
M  V30 499 C 43.5719 4.05993 2.09807 0
M  V30 500 C 44.5689 4.93183 1.64519 0
M  V30 501 C 42.2539 4.51642 2.19829 0
M  V30 502 C 44.2479 6.24056 1.2974 0
M  V30 503 C 41.9349 5.82532 1.84662 0
M  V30 504 C 42.9329 6.68562 1.3969 0
M  V30 505 O 42.6209 7.97014 1.04992 0
M  V30 506 H 42.3529 0.546236 0.39825 0
M  V30 507 H 44.9069 1.95673 0.62459 0
M  V30 508 H 43.1369 2.22104 3.16554 0
M  V30 509 H 44.8259 2.6329 3.08923 0
M  V30 510 H 45.5919 4.59147 1.56233 0
M  V30 511 H 41.4709 3.84855 2.53786 0
M  V30 512 H 45.0149 6.91161 0.945659 0
M  V30 513 H 40.9119 6.16099 1.92594 0
M  V30 514 H 41.6799 8.09913 1.18249 0
M  V30 515 N 44.343 -0.763751 1.37857 0
M  V30 516 C 45.568 -1.55805 1.36893 0
M  V30 517 C 45.993 -1.88054 -0.0416135 0
M  V30 518 O 45.351 -1.49825 -1.02089 0
M  V30 519 C 45.399 -2.84012 2.22192 0
M  V30 520 O 44.503 -3.78732 1.63204 0
M  V30 521 H 43.844 -0.471638 0.46739 0
M  V30 522 H 46.374 -0.944657 1.81487 0
M  V30 523 H 46.384 -3.33037 2.35691 0
M  V30 524 H 45.059 -2.59869 3.24716 0
M  V30 525 H 43.636 -3.37402 1.58791 0
M  V30 526 N 45.8211 -1.22559 -0.990812 0
M  V30 527 C 46.7841 -0.998863 -2.0629 0
M  V30 528 C 47.7841 0.0354834 -1.60761 0
M  V30 529 O 48.9741 -0.203231 -1.7301 0
M  V30 530 C 46.1061 -0.509203 -3.37076 0
M  V30 531 H 47.2991 -1.95014 -2.27837 0
M  V30 532 H 44.8521 -1.04456 -1.16269 0
M  V30 533 H 45.5871 0.446335 -3.21214 0
M  V30 534 H 45.3721 -1.25547 -3.71457 0
M  V30 535 H 46.8621 -0.370888 -4.1595 0
M  V30 536 N 47.2992 1.18797 -1.03562 0
M  V30 537 C 48.2622 2.20464 -0.626769 0
M  V30 538 C 49.2622 1.57721 0.313173 0
M  V30 539 O 50.4522 1.73917 0.0992615 0
M  V30 540 C 47.5842 3.40802 0.0818498 0
M  V30 541 H 48.7772 2.58149 -1.5264 0
M  V30 542 H 46.3302 1.32593 -0.827578 0
M  V30 543 H 47.0652 3.08642 0.995518 0
M  V30 544 H 46.8502 3.8758 -0.593652 0
M  V30 545 H 48.3402 4.16092 0.354584 0
M  V30 546 N 48.7773 0.814389 1.34928 0
M  V30 547 C 50.1883 0.458364 1.80986 0
M  V30 548 C 50.5393 -1.02042 1.67577 0
M  V30 549 O 49.6643 -1.79352 1.21086 0
M  V30 550 C 50.2593 0.825212 3.28597 0
M  V30 551 C 48.8183 0.521677 3.72767 0
M  V30 552 C 47.9653 1.04668 2.56788 0
M  V30 553 H 50.9163 1.00533 1.22795 0
M  V30 554 H 50.9373 0.12571 3.80292 0
M  V30 555 H 50.4493 1.90154 3.38324 0
M  V30 556 H 48.5503 -0.545589 3.68584 0
M  V30 557 H 48.6633 1.05977 4.67232 0
M  V30 558 H 47.0273 0.468622 2.50352 0
M  V30 559 H 47.8103 2.12927 2.6929 0
M  V30 560 N 50.2554 -1.46986 0.568584 0
M  V30 561 C 51.2184 -2.28624 -0.162366 0
M  V30 562 C 52.2184 -1.37596 -0.832103 0
M  V30 563 O 53.4084 -1.60115 -0.68622 0
M  V30 564 C 50.5404 -3.17596 -1.23878 0
M  V30 565 H 51.7334 -2.94722 0.554899 0
M  V30 566 H 49.2864 -1.52863 0.325976 0
M  V30 567 H 50.0214 -2.56214 -1.98808 0
M  V30 568 H 49.8064 -3.846 -0.763219 0
M  V30 569 H 51.2964 -3.79078 -1.75185 0
M  V30 570 N 51.7335 -0.305618 -1.54608 0
M  V30 571 C 52.9815 0.301701 -1.99835 0
M  V30 572 C 53.3025 1.54054 -1.19551 0
M  V30 573 O 52.5725 1.93702 -0.292658 0
M  V30 574 H 51.1525 0.114468 -0.738178 0
M  V30 575 H 53.8145 -0.418016 -1.90364 0
M  V30 576 H 52.9105 0.570548 -3.06841 0
M  V30 577 N 53.2116 1.57565 -0.0334293 0
M  V30 578 C 54.1746 2.09393 0.932048 0
M  V30 579 C 55.1746 1.00986 1.25134 0
M  V30 580 O 56.3646 1.27129 1.19096 0
M  V30 581 C 53.4966 2.56338 2.2473 0
M  V30 582 H 54.6896 2.95984 0.483085 0
M  V30 583 H 52.2426 1.54819 0.21468 0
M  V30 584 H 52.9776 1.7309 2.74245 0
M  V30 585 H 52.7626 3.35542 2.02865 0
M  V30 586 H 54.2526 2.96646 2.93923 0
M  V30 587 N 54.6897 -0.239769 1.55765 0
M  V30 588 C 55.6217 -1.32001 1.87372 0
M  V30 589 C 56.6347 -1.43944 0.760522 0
M  V30 590 O 57.8237 -1.45167 1.0387 0
M  V30 591 C 54.9237 -2.69779 2.05115 0
M  V30 592 C 54.0967 -2.80014 3.36022 0
M  V30 593 C 53.1557 -3.98684 3.4342 0
M  V30 594 O 52.1817 -3.87877 4.16582 0
M  V30 595 N 53.3837 -5.12176 2.73232 0
M  V30 596 H 56.1487 -1.0522 2.80622 0
M  V30 597 H 53.7097 -0.429857 1.56089 0
M  V30 598 H 55.7017 -3.47517 2.07399 0
M  V30 599 H 54.2717 -2.89237 1.18577 0
M  V30 600 H 53.4917 -1.88896 3.45994 0
M  V30 601 H 54.7797 -2.83808 4.22292 0
M  V30 602 H 54.1777 -5.2385 2.13536 0
M  V30 603 H 52.7347 -5.88022 2.81199 0
M  V30 604 N 56.1678 -1.49265 -0.50573 0
M  V30 605 C 57.3958 -1.62215 -1.28429 0
M  V30 606 C 57.8108 -0.291697 -1.86533 0
M  V30 607 O 57.1678 0.722233 -1.67601 0
M  V30 608 C 57.2188 -2.68735 -2.41793 0
M  V30 609 O 56.9398 -3.96619 -1.86078 0
M  V30 610 C 58.4408 -2.92346 -3.3324 0
M  V30 611 H 55.6608 -0.546239 -0.389697 0
M  V30 612 H 58.2048 -1.95265 -0.607609 0
M  V30 613 H 56.3598 -2.38476 -3.053 0
M  V30 614 H 56.7738 -4.55256 -2.60465 0
M  V30 615 H 58.2478 -3.70623 -4.09075 0
M  V30 616 H 58.7248 -2.02081 -3.89948 0
M  V30 617 H 59.3308 -3.24003 -2.75503 0
M  V30 618 N 57.6459 0.756429 -1.3826 0
M  V30 619 C 58.8929 1.51547 -1.34312 0
M  V30 620 C 59.2209 1.94382 0.0677144 0
M  V30 621 O 58.4759 1.65514 1.04421 0
M  V30 622 C 58.7749 2.78313 -2.24224 0
M  V30 623 C 58.4409 2.54455 -3.72241 0
M  V30 624 C 57.1029 2.47657 -4.12576 0
M  V30 625 C 59.4549 2.3354 -4.65949 0
M  V30 626 C 56.7829 2.17956 -5.44713 0
M  V30 627 C 59.1349 2.05359 -5.9834 0
M  V30 628 C 57.7989 1.97016 -6.37762 0
M  V30 629 H 57.0689 0.55455 -0.491482 0
M  V30 630 H 59.7159 0.870039 -1.70595 0
M  V30 631 H 58.0209 3.47492 -1.80987 0
M  V30 632 H 59.7179 3.36259 -2.18474 0
M  V30 633 H 56.3079 2.60616 -3.40261 0
M  V30 634 H 60.4919 2.37772 -4.35635 0
M  V30 635 H 55.7479 2.10003 -5.74203 0
M  V30 636 H 59.9219 1.88179 -6.70494 0
M  V30 637 H 57.5489 1.73766 -7.40074 0
M  V30 638 N 59.124 1.23083 0.984299 0
M  V30 639 C 60.349 1.088 1.76571 0
M  V30 640 C 60.774 -0.356657 1.84688 0
M  V30 641 O 60.132 -1.25788 1.30565 0
M  V30 642 C 60.18 1.71371 3.17277 0
M  V30 643 O 59.284 0.973213 4.00752 0
M  V30 644 H 58.625 0.381599 0.543395 0
M  V30 645 H 61.155 1.63057 1.23587 0
M  V30 646 H 61.165 1.76449 3.67872 0
M  V30 647 H 59.84 2.76493 3.10684 0
M  V30 648 H 58.417 0.999078 3.59267 0
M  V30 649 N 60.6021 -1.18246 1.0419 0
M  V30 650 C 61.5321 -2.24127 0.654914 0
M  V30 651 C 62.5131 -1.66617 -0.342451 0
M  V30 652 O 63.6981 -1.92924 -0.222277 0
M  V30 653 C 60.8281 -3.47295 0.0183757 0
M  V30 654 C 59.7821 -4.17563 0.939414 0
M  V30 655 C 59.1081 -5.34438 0.167286 0
M  V30 656 C 60.4081 -4.70917 2.25908 0
M  V30 657 H 62.1021 -2.56753 1.54007 0
M  V30 658 H 59.6481 -1.23414 0.74195 0
M  V30 659 H 61.6011 -4.20572 -0.264082 0
M  V30 660 H 60.3251 -3.13907 -0.901664 0
M  V30 661 H 58.9841 -3.46186 1.20628 0
M  V30 662 H 58.6321 -4.97298 -0.7552 0
M  V30 663 H 58.3321 -5.82388 0.780901 0
M  V30 664 H 59.8561 -6.10504 -0.108125 0
M  V30 665 H 61.2701 -5.35882 2.03724 0
M  V30 666 H 59.6671 -5.29406 2.82577 0
M  V30 667 H 60.7371 -3.88272 2.9047 0
M  V30 668 N 62.0802 -0.821533 -1.34494 0
M  V30 669 C 63.0272 -0.240397 -2.29545 0
M  V30 670 C 63.9972 0.634031 -1.53523 0
M  V30 671 O 65.1822 0.575966 -1.81899 0
M  V30 672 C 62.3222 0.592869 -3.39969 0
M  V30 673 C 61.4352 -0.30365 -4.30932 0
M  V30 674 C 60.5702 0.539049 -5.28458 0
M  V30 675 C 59.6092 -0.356942 -6.11058 0
M  V30 676 N 58.7462 0.446603 -7.00678 0
M  V30 677 H 63.5862 -1.05632 -2.7865 0
M  V30 678 H 61.1232 -0.532413 -1.37127 0
M  V30 679 H 63.0812 1.09129 -4.02675 0
M  V30 680 H 61.7112 1.37392 -2.92102 0
M  V30 681 H 60.7632 -0.920276 -3.691 0
M  V30 682 H 62.0752 -0.992661 -4.88823 0
M  V30 683 H 61.2292 1.102 -5.96608 0
M  V30 684 H 59.9682 1.26157 -4.71101 0
M  V30 685 H 58.9732 -0.932047 -5.41842 0
M  V30 686 H 60.1982 -1.07755 -6.70497 0
M  V30 687 H 58.1442 1.15282 -6.45791 0
M  V30 688 H 58.0612 -0.184048 -7.55776 0
M  V30 689 H 59.3292 0.992352 -7.73158 0
M  V30 690 N 63.5583 1.46682 -0.576371 0
M  V30 691 C 64.5083 2.27278 0.181288 0
M  V30 692 C 65.4923 1.35497 0.867721 0
M  V30 693 O 66.6843 1.59717 0.762863 0
M  V30 694 C 63.8133 3.21703 1.19841 0
M  V30 695 C 62.8993 4.20969 0.51442 0
M  V30 696 N 63.2903 5.03999 -0.426407 0
M  V30 697 C 61.5883 4.39373 0.765963 0
M  V30 698 C 62.2893 5.75812 -0.825565 0
M  V30 699 N 61.2653 5.43315 -0.176116 0
M  V30 700 H 65.0673 2.88863 -0.541785 0
M  V30 701 H 62.5813 1.57455 -0.397697 0
M  V30 702 H 64.5783 3.78145 1.75533 0
M  V30 703 H 63.2383 2.61677 1.92238 0
M  V30 704 H 64.2493 5.11659 -0.8016 0
M  V30 705 H 60.9263 3.90502 1.47698 0
M  V30 706 H 62.3163 6.52577 -1.59976 0
M  V30 707 N 65.0364 0.313813 1.54444 0
M  V30 708 C 66.2614 -0.296681 2.05267 0
M  V30 709 C 66.6864 -1.45757 1.18897 0
M  V30 710 O 66.0444 -1.80239 0.195886 0
M  V30 711 C 66.0924 -0.71831 3.53373 0
M  V30 712 O 65.1964 -1.82175 3.69981 0
M  V30 713 H 64.5374 -0.0554061 0.661684 0
M  V30 714 H 67.0674 0.459387 1.99376 0
M  V30 715 H 67.0774 -1.00364 3.95463 0
M  V30 716 H 65.7524 0.130821 4.15694 0
M  V30 717 H 64.3294 -1.53598 3.39797 0
M  V30 718 N 66.5145 -1.57545 0.0417849 0
M  V30 719 C 67.4245 -2.14451 -0.951213 0
M  V30 720 C 68.4405 -1.09992 -1.34825 0
M  V30 721 O 69.6165 -1.42114 -1.42708 0
M  V30 722 C 66.6815 -2.67063 -2.21084 0
M  V30 723 C 65.7425 -3.86284 -1.87304 0
M  V30 724 C 64.9755 -4.36378 -3.07261 0
M  V30 725 O 65.1985 -3.85587 -4.20332 0
M  V30 726 O 64.1325 -5.28077 -2.88822 0
M  V30 727 H 67.9585 -2.99601 -0.497287 0
M  V30 728 H 65.5435 -1.48317 -0.179567 0
M  V30 729 H 67.4255 -3.00914 -2.95006 0
M  V30 730 H 66.1005 -1.84989 -2.65633 0
M  V30 731 H 65.0075 -3.57338 -1.10727 0
M  V30 732 H 66.3405 -4.6956 -1.47562 0
M  V30 733 N 67.9926 0.231505 -1.5589 0
M  V30 734 C 68.9426 1.29007 -1.87993 0
M  V30 735 C 69.9266 1.42764 -0.742102 0
M  V30 736 O 71.1186 1.45747 -1.00433 0
M  V30 737 C 68.2476 2.6425 -2.1915 0
M  V30 738 C 67.3336 2.54435 -3.39299 0
M  V30 739 N 67.7246 2.14262 -4.58176 0
M  V30 740 C 66.0226 2.85416 -3.42715 0
M  V30 741 C 66.7236 2.15455 -5.40328 0
M  V30 742 N 65.6996 2.55558 -4.79783 0
M  V30 743 H 69.5016 0.970213 -2.77424 0
M  V30 744 H 67.0156 0.440097 -1.56323 0
M  V30 745 H 69.0126 3.40665 -2.40319 0
M  V30 746 H 67.6726 2.9709 -1.31025 0
M  V30 747 H 68.6836 1.85554 -4.83518 0
M  V30 748 H 65.3606 3.22693 -2.64906 0
M  V30 749 H 66.7506 1.86605 -6.45467 0
M  V30 750 N 69.4707 1.49531 0.497807 0
M  V30 751 C 70.7167 1.59415 1.25358 0
M  V30 752 C 71.0497 0.281422 1.9215 0
M  V30 753 O 70.3247 -0.715249 1.80871 0
M  V30 754 C 70.6077 2.75566 2.3181 0
M  V30 755 C 70.4607 4.16642 1.69498 0
M  V30 756 C 71.7797 2.87347 3.33346 0
M  V30 757 H 68.8987 0.580244 0.454408 0
M  V30 758 H 71.5407 1.81827 0.551262 0
M  V30 759 H 69.6907 2.56587 2.91711 0
M  V30 760 H 71.3627 4.47145 1.13399 0
M  V30 761 H 69.6057 4.22141 0.998978 0
M  V30 762 H 70.2767 4.93792 2.46725 0
M  V30 763 H 72.7527 3.04634 2.83438 0
M  V30 764 H 71.6287 3.70289 4.05188 0
M  V30 765 H 71.8897 1.96834 3.95865 0
M  V30 766 N 70.9488 -0.749086 1.3866 0
M  V30 767 C 72.1948 -1.50959 1.36319 0
M  V30 768 C 72.5498 -1.92347 -0.0452451 0
M  V30 769 O 71.8428 -1.6289 -1.00884 0
M  V30 770 C 72.0368 -2.7712 2.25697 0
M  V30 771 C 71.8658 -2.48067 3.7509 0
M  V30 772 C 70.6358 -2.41062 4.44091 0
M  V30 773 C 72.8338 -2.14544 4.67414 0
M  V30 774 N 70.8158 -2.04331 5.78897 0
M  V30 775 C 72.1868 -1.88141 5.90765 0
M  V30 776 C 74.2418 -2.00892 4.55573 0
M  V30 777 C 72.9448 -1.49463 7.036 0
M  V30 778 C 74.9708 -1.63616 5.68317 0
M  V30 779 C 74.3328 -1.38088 6.90732 0
M  V30 780 H 70.4318 -0.551804 0.554108 0
M  V30 781 H 73.0158 -0.871886 1.74087 0
M  V30 782 H 71.1868 -3.38693 1.9011 0
M  V30 783 H 72.9188 -3.4321 2.1445 0
M  V30 784 H 69.6738 -2.57685 3.9736 0
M  V30 785 H 70.0978 -1.88598 6.502 0
M  V30 786 H 74.7398 -2.19301 3.61479 0
M  V30 787 H 72.4578 -1.29794 7.97608 0
M  V30 788 H 76.0438 -1.53678 5.61137 0
M  V30 789 H 74.9238 -1.09674 7.76493 0
M  V30 790 N 72.4269 -1.23603 -0.977757 0
M  V30 791 C 73.6729 -1.07129 -1.72195 0
M  V30 792 C 74.0059 0.390501 -1.90233 0
M  V30 793 O 73.2809 1.28902 -1.45653 0
M  V30 794 C 73.5639 -1.80031 -3.11867 0
M  V30 795 C 73.4169 -3.33899 -3.01383 0
M  V30 796 C 74.7359 -1.56492 -4.11337 0
M  V30 797 H 71.8549 -0.390571 -0.624999 0
M  V30 798 H 74.4969 -1.52142 -1.13811 0
M  V30 799 H 72.6469 -1.41768 -3.6171 0
M  V30 800 H 74.3189 -3.81699 -2.59043 0
M  V30 801 H 72.5619 -3.62796 -2.37827 0
M  V30 802 H 73.2329 -3.801 -4.00285 0
M  V30 803 H 75.7089 -1.89757 -3.70313 0
M  V30 804 H 74.5849 -2.09973 -5.07151 0
M  V30 805 H 74.8459 -0.500874 -4.39254 0
M  V30 806 N 73.905 1.17692 -1.04816 0
M  V30 807 C 74.815 2.25229 -0.65643 0
M  V30 808 C 75.831 1.71018 0.320761 0
M  V30 809 O 77.007 2.00649 0.173805 0
M  V30 810 C 74.072 3.46684 -0.0332629 0
M  V30 811 C 73.133 4.15997 -1.06042 0
M  V30 812 C 72.366 5.31654 -0.466893 0
M  V30 813 O 72.589 5.65777 0.724758 0
M  V30 814 O 71.523 5.89831 -1.1993 0
M  V30 815 H 75.349 2.61016 -1.55255 0
M  V30 816 H 72.934 1.24919 -0.81949 0
M  V30 817 H 74.816 4.20234 0.313256 0
M  V30 818 H 73.491 3.12703 0.836566 0
M  V30 819 H 72.398 3.44482 -1.45886 0
M  V30 820 H 73.731 4.53996 -1.90127 0
M  V30 821 N 75.3831 0.828654 1.34056 0
M  V30 822 C 76.6291 0.42008 1.98402 0
M  V30 823 C 76.9621 -1.01564 1.65525 0
M  V30 824 O 76.2371 -1.70834 0.929831 0
M  V30 825 C 76.5201 0.62927 3.54559 0
M  V30 826 C 76.3731 2.11152 3.97159 0
M  V30 827 C 77.6921 0.0688756 4.40046 0
M  V30 828 H 74.8111 0.154104 0.720709 0
M  V30 829 H 77.4531 1.04228 1.5886 0
M  V30 830 H 75.6031 0.0996418 3.88372 0
M  V30 831 H 77.2751 2.70522 3.73651 0
M  V30 832 H 75.5181 2.59985 3.47261 0
M  V30 833 H 76.1891 2.20868 5.05887 0
M  V30 834 H 78.6651 0.521458 4.1282 0
M  V30 835 H 77.5411 0.245006 5.48353 0
M  V30 836 H 77.8021 -1.0266 4.30015 0
M  V30 837 N 76.8612 -1.46375 0.584142 0
M  V30 838 C 78.1072 -2.02678 0.0703716 0
M  V30 839 C 78.4402 -1.4545 -1.28678 0
M  V30 840 O 77.7152 -0.62014 -1.84349 0
M  V30 841 C 77.9982 -3.60099 0.00614674 0
M  V30 842 C 77.8512 -4.27709 1.3923 0
M  V30 843 C 79.1702 -4.34598 -0.693742 0
M  V30 844 H 76.2892 -0.736504 0.027047 0
M  V30 845 H 78.9312 -1.74501 0.751615 0
M  V30 846 H 77.0812 -3.84236 -0.574009 0
M  V30 847 H 78.7532 -4.14832 2.01773 0
M  V30 848 H 76.9962 -3.87016 1.95962 0
M  V30 849 H 77.6672 -5.36478 1.29982 0
M  V30 850 H 80.1432 -4.15615 -0.200869 0
M  V30 851 H 79.0192 -5.44318 -0.707714 0
M  V30 852 H 79.2802 -4.05759 -1.75533 0
M  V30 853 N 78.3393 -0.321999 -1.54275 0
M  V30 854 C 79.7553 0.0306999 -1.5957 0
M  V30 855 C 79.9553 1.50614 -1.33857 0
M  V30 856 O 79.0113 2.2619 -1.12223 0
M  V30 857 C 80.3243 -0.386122 -2.98211 0
M  V30 858 C 81.8723 -0.336647 -3.11184 0
M  V30 859 C 82.3473 -0.728607 -4.52167 0
M  V30 860 N 83.8383 -0.681952 -4.58152 0
M  V30 861 C 84.5733 -0.957449 -5.6535 0
M  V30 862 N 84.0693 -1.3 -6.80494 0
M  V30 863 N 85.8623 -0.883113 -5.55119 0
M  V30 864 H 78.0133 -1.28332 -1.69247 0
M  V30 865 H 80.2763 -0.521716 -0.791528 0
M  V30 866 H 79.9823 -1.41404 -3.22022 0
M  V30 867 H 79.8563 0.249662 -3.76373 0
M  V30 868 H 82.2433 0.682058 -2.8711 0
M  V30 869 H 82.3243 -1.00734 -2.3513 0
M  V30 870 H 81.9683 -1.74522 -4.76974 0
M  V30 871 H 81.8983 -0.0356152 -5.26588 0
M  V30 872 H 84.3893 -0.428985 -3.75457 0
M  V30 873 H 84.7023 -1.49563 -7.58189 0
M  V30 874 H 83.0473 -1.33824 -6.81994 0
M  V30 875 H 86.2383 -0.615001 -4.64042 0
M  V30 876 H 86.4113 -1.10118 -6.38575 0
M  V30 877 N 79.8174 1.5752 -0.0501392 0
M  V30 878 C 81.0944 1.83996 0.663685 0
M  V30 879 C 81.4744 0.938339 1.89099 0
M  V30 880 O 80.8224 -0.00087759 2.285 0
M  V30 881 C 81.0324 3.33702 1.02196 0
M  V30 882 C 82.3804 4.00691 1.40469 0
M  V30 883 O 83.4044 3.38321 1.11433 0
M  V30 884 O 82.2634 5.10658 1.94654 0
M  V30 885 H 79.3574 0.759385 0.32751 0
M  V30 886 H 81.9034 1.69514 -0.0794238 0
M  V30 887 H 80.6754 3.91015 0.149364 0
M  V30 888 H 80.2984 3.53368 1.82255 0
M  V30 889 N 81.2955 -0.223234 1.56011 0
M  V30 890 C 82.5435 -0.946003 1.78592 0
M  V30 891 C 82.8645 -1.84936 0.618349 0
M  V30 892 O 82.1345 -1.92473 -0.364833 0
M  V30 893 H 80.7145 -0.352298 0.658707 0
M  V30 894 H 83.3765 -0.235494 1.93472 0
M  V30 895 H 82.4725 -1.55381 2.70672 0
M  V30 896 N 82.7736 -1.49793 -0.48987 0
M  V30 897 C 83.6836 -1.70036 -1.61632 0
M  V30 898 C 84.6996 -0.583102 -1.63939 0
M  V30 899 O 85.8756 -0.859169 -1.82154 0
M  V30 900 C 82.9406 -1.77277 -2.97949 0
M  V30 901 C 82.0016 -3.00918 -3.06181 0
M  V30 902 C 81.2346 -3.07804 -4.35996 0
M  V30 903 O 81.4576 -2.21982 -5.25433 0
M  V30 904 O 80.3916 -4.00369 -4.49431 0
M  V30 905 H 84.2176 -2.65486 -1.47482 0
M  V30 906 H 81.8026 -1.33666 -0.667362 0
M  V30 907 H 83.6846 -1.84329 -3.78947 0
M  V30 908 H 82.3596 -0.850076 -3.12339 0
M  V30 909 H 81.2666 -2.99377 -2.2433 0
M  V30 910 H 82.5996 -3.92704 -2.96723 0
M  V30 911 N 84.2517 0.741722 -1.39055 0
M  V30 912 C 85.2147 1.83733 -1.37021 0
M  V30 913 C 86.2147 1.58542 -0.268534 0
M  V30 914 O 87.4047 1.66067 -0.526076 0
M  V30 915 C 84.5367 3.2141 -1.13617 0
M  V30 916 H 85.7297 1.86941 -2.34506 0
M  V30 917 H 83.2827 0.944676 -1.24521 0
M  V30 918 H 84.0177 3.23865 -0.167863 0
M  V30 919 H 83.8027 3.4109 -1.93391 0
M  V30 920 H 85.2927 4.01477 -1.14918 0
M  V30 921 N 85.7298 1.2412 0.971189 0
M  V30 922 C 86.6398 1.04747 2.09917 0
M  V30 923 C 87.6558 -0.0107162 1.73997 0
M  V30 924 O 88.8318 0.186714 2.00533 0
M  V30 925 C 85.8968 0.650828 3.40537 0
M  V30 926 C 84.9578 1.7851 3.90426 0
M  V30 927 C 84.1908 1.40729 5.14812 0
M  V30 928 O 84.4138 0.29557 5.69634 0
M  V30 929 O 83.3478 2.23168 5.58999 0
M  V30 930 H 87.1738 1.99304 2.29154 0
M  V30 931 H 84.7588 1.02908 1.08307 0
M  V30 932 H 86.6408 0.440992 4.19086 0
M  V30 933 H 85.3158 -0.265649 3.22608 0
M  V30 934 H 84.2228 2.04966 3.12953 0
M  V30 935 H 85.5558 2.68023 4.12825 0
M  V30 936 N 87.2079 -1.17134 1.05439 0
M  V30 937 C 88.1179 -2.24878 0.668365 0
M  V30 938 C 89.1339 -1.71186 -0.311687 0
M  V30 939 O 90.3099 -2.00738 -0.163161 0
M  V30 940 C 87.3749 -3.46662 0.051648 0
M  V30 941 C 86.4359 -4.15429 1.08246 0
M  V30 942 C 85.6689 -5.31399 0.495082 0
M  V30 943 O 85.8919 -5.66153 -0.694743 0
M  V30 944 O 84.8259 -5.89187 1.23056 0
M  V30 945 H 88.6519 -2.60189 1.56637 0
M  V30 946 H 86.2369 -1.24482 0.826104 0
M  V30 947 H 88.1189 -4.20394 -0.290966 0
M  V30 948 H 86.7939 -3.13142 -0.819971 0
M  V30 949 H 85.7009 -3.43704 1.47711 0
M  V30 950 H 87.0339 -4.52982 1.92532 0
M  V30 951 N 88.686 -0.835752 -1.33615 0
M  V30 952 C 89.932 -0.430596 -1.98176 0
M  V30 953 C 90.265 1.00684 -1.66061 0
M  V30 954 O 89.54 1.70339 -0.938877 0
M  V30 955 C 89.823 -0.648065 -3.5422 0
M  V30 956 C 89.676 -2.13255 -3.96033 0
M  V30 957 C 90.995 -0.0922113 -4.40003 0
M  V30 958 H 88.114 -0.157924 -0.719881 0
M  V30 959 H 90.756 -1.05069 -1.58305 0
M  V30 960 H 88.906 -0.120237 -3.88314 0
M  V30 961 H 90.578 -2.725 -3.72211 0
M  V30 962 H 88.821 -2.61823 -3.45878 0
M  V30 963 H 89.492 -2.23547 -5.04708 0
M  V30 964 H 91.968 -0.543343 -4.12537 0
M  V30 965 H 90.844 -0.274083 -5.48215 0
M  V30 966 H 91.105 1.00378 -4.30554 0
M  V30 967 N 90.1641 1.46063 -0.591896 0
M  V30 968 C 91.1271 2.28854 0.125973 0
M  V30 969 C 92.1271 1.38903 0.810107 0
M  V30 970 O 93.3171 1.61186 0.66066 0
M  V30 971 C 90.4491 3.19526 1.1881 0
M  V30 972 H 91.6421 2.93802 -0.601717 0
M  V30 973 H 89.1951 1.52325 -0.350254 0
M  V30 974 H 89.9301 2.59345 1.94707 0
M  V30 975 H 89.7151 3.85766 0.701936 0
M  V30 976 H 91.2051 3.81817 1.69132 0
M  V30 977 N 91.6422 0.330177 1.54103 0
M  V30 978 C 92.8702 -0.272179 2.05102 0
M  V30 979 C 93.2852 -1.45267 1.20595 0
M  V30 980 O 92.6422 -1.8094 0.238144 0
M  V30 981 C 92.6932 -0.70023 3.54653 0
M  V30 982 O 92.4142 0.433301 4.35952 0
M  V30 983 C 93.9152 -1.3647 4.21771 0
M  V30 984 H 91.1352 -0.0549159 0.668749 0
M  V30 985 H 93.6792 0.478285 1.98828 0
M  V30 986 H 91.8342 -1.40066 3.61193 0
M  V30 987 H 92.2482 0.0947539 5.24414 0
M  V30 988 H 93.7222 -1.61509 5.27843 0
M  V30 989 H 94.1992 -2.31409 3.73292 0
M  V30 990 H 94.8052 -0.706675 4.19388 0
M  V30 991 N 93.1203 -1.57491 0.0584922 0
M  V30 992 C 94.0683 -2.13148 -0.931168 0
M  V30 993 C 95.0623 -1.06507 -1.31729 0
M  V30 994 O 96.2683 -1.24906 -1.29609 0
M  V30 995 H 92.6433 -0.68137 -0.31818 0
M  V30 996 H 94.6143 -2.95187 -0.436707 0
M  V30 997 C 93.3633 -2.69732 -2.19408 0
M  V30 998 H 92.6863 -3.51454 -1.90578 0
M  V30 999 H 94.1263 -3.12287 -2.86798 0
M  V30 1000 C 92.5853 -1.63855 -2.94369 0
M  V30 1001 O 93.1153 -1.05565 -3.87581 0
M  V30 1002 N 91.3213 -1.35202 -2.57233 0
M  V30 1003 H 90.8683 -1.82791 -1.81508 0
M  V30 1004 H 90.8263 -0.645922 -3.07693 0
M  V30 1005 N 94.5984 0.214957 -1.56127 0
M  V30 1006 C 95.8464 0.936518 -1.79091 0
M  V30 1007 C 96.1674 1.84606 -0.628148 0
M  V30 1008 O 95.4374 1.92664 0.35462 0
M  V30 1009 H 94.0174 0.3488 -0.660566 0
M  V30 1010 H 96.6794 0.22523 -1.93594 0
M  V30 1011 H 95.7754 1.53943 -2.71492 0
M  V30 1012 N 96.0765 1.50051 0.48192 0
M  V30 1013 C 97.0235 1.68122 1.58125 0
M  V30 1014 C 97.9935 0.522545 1.57666 0
M  V30 1015 O 99.1785 0.751844 1.75362 0
M  V30 1016 C 96.3185 1.77142 2.96167 0
M  V30 1017 C 95.4315 3.0444 3.06497 0
M  V30 1018 C 94.5665 3.04321 4.35387 0
M  V30 1019 C 93.6055 4.26118 4.3942 0
M  V30 1020 N 92.7425 4.238 5.59766 0
M  V30 1021 H 97.5825 2.6198 1.42022 0
M  V30 1022 H 95.1195 1.29877 0.690687 0
M  V30 1023 H 97.0775 1.80352 3.76203 0
M  V30 1024 H 95.7075 0.867329 3.1093 0
M  V30 1025 H 94.7595 3.10752 2.19402 0
M  V30 1026 H 96.0715 3.94426 3.05336 0
M  V30 1027 H 95.2255 3.062 5.23762 0
M  V30 1028 H 93.9645 2.12147 4.39141 0
M  V30 1029 H 92.9695 4.24463 3.49444 0
M  V30 1030 H 94.1945 5.19507 4.37366 0
M  V30 1031 H 92.1405 3.34474 5.64326 0
M  V30 1032 H 92.0575 5.07542 5.60301 0
M  V30 1033 H 93.3255 4.2981 6.50295 0
M  V30 1034 N 97.5546 -0.734337 1.39446 0
M  V30 1035 C 98.4866 -1.85861 1.34121 0
M  V30 1036 C 99.4996 -1.60871 0.249864 0
M  V30 1037 O 100.689 -1.71093 0.508865 0
M  V30 1038 C 97.7886 -3.21899 1.05991 0
M  V30 1039 C 96.9616 -3.74239 2.26415 0
M  V30 1040 C 96.0206 -4.88841 1.94733 0
M  V30 1041 O 95.0466 -5.02468 2.67422 0
M  V30 1042 N 96.2486 -5.73261 0.913884 0
M  V30 1043 H 99.0136 -1.90934 2.31007 0
M  V30 1044 H 96.5746 -0.915102 1.33557 0
M  V30 1045 H 98.5666 -3.96136 0.828147 0
M  V30 1046 H 97.1366 -3.12091 0.178361 0
M  V30 1047 H 96.3566 -2.91347 2.65539 0
M  V30 1048 H 97.6446 -4.05942 3.06738 0
M  V30 1049 H 97.0426 -5.64842 0.311476 0
M  V30 1050 H 95.5996 -6.47563 0.742015 0
M  V30 1051 N 99.0327 -1.24633 -0.964593 0
M  V30 1052 C 100.449 -1.01239 -1.2338 0
M  V30 1053 C 100.649 0.2769 -1.99588 0
M  V30 1054 O 99.7047 0.992241 -2.32187 0
M  V30 1055 C 101.018 -2.22937 -2.01791 0
M  V30 1056 C 102.566 -2.27594 -2.14872 0
M  V30 1057 C 103.041 -3.48921 -2.96678 0
M  V30 1058 N 104.532 -3.49257 -3.04259 0
M  V30 1059 C 105.267 -4.39795 -3.67924 0
M  V30 1060 N 104.763 -5.40591 -4.33281 0
M  V30 1061 N 106.556 -4.275 -3.64966 0
M  V30 1062 H 98.7067 -2.0748 -0.454502 0
M  V30 1063 H 100.97 -0.910647 -0.26349 0
M  V30 1064 H 100.676 -3.16587 -1.53184 0
M  V30 1065 H 100.55 -2.25306 -3.02518 0
M  V30 1066 H 102.937 -1.34473 -2.6268 0
M  V30 1067 H 103.018 -2.2925 -1.13482 0
M  V30 1068 H 102.662 -4.42359 -2.49562 0
M  V30 1069 H 102.592 -3.4451 -3.98272 0
M  V30 1070 H 105.083 -2.76337 -2.57771 0
M  V30 1071 H 105.396 -6.05904 -4.79687 0
M  V30 1072 H 103.741 -5.44475 -4.3194 0
M  V30 1073 H 106.932 -3.47987 -3.13086 0
M  V30 1074 H 107.105 -4.98258 -4.14298 0
M  V30 1075 N 100.511 1.16574 -1.06058 0
M  V30 1076 C 101.757 1.87565 -0.78683 0
M  V30 1077 C 102.112 1.80012 0.679214 0
M  V30 1078 O 101.405 1.20327 1.49104 0
M  V30 1079 C 101.599 3.36195 -1.21275 0
M  V30 1080 C 101.428 3.58216 -2.71866 0
M  V30 1081 C 100.198 3.7444 -3.39298 0
M  V30 1082 C 102.396 3.57134 -3.70081 0
M  V30 1083 N 100.378 3.84389 -4.78663 0
M  V30 1084 C 101.749 3.73038 -4.9522 0
M  V30 1085 C 103.804 3.40332 -3.63426 0
M  V30 1086 C 102.507 3.73879 -6.14497 0
M  V30 1087 C 104.533 3.42466 -4.82153 0
M  V30 1088 C 103.895 3.58887 -6.06118 0
M  V30 1089 H 99.9938 0.704081 -0.340284 0
M  V30 1090 H 102.578 1.39885 -1.35426 0
M  V30 1091 H 100.749 3.82522 -0.673179 0
M  V30 1092 H 102.481 3.94839 -0.887917 0
M  V30 1093 H 99.2358 3.74662 -2.89699 0
M  V30 1094 H 99.6598 3.93138 -5.51155 0
M  V30 1095 H 104.302 3.26566 -2.68541 0
M  V30 1096 H 102.02 3.86427 -7.09718 0
M  V30 1097 H 105.606 3.30712 -4.78666 0
M  V30 1098 H 104.486 3.60454 -6.9645 0
M  V30 1099 N 101.989 0.842826 1.3317 0
M  V30 1100 C 102.919 0.294028 2.31641 0
M  V30 1101 C 103.9 -0.600401 1.59151 0
M  V30 1102 O 105.085 -0.523124 1.87022 0
M  V30 1103 C 102.215 -0.528416 3.43257 0
M  V30 1104 C 101.169 0.27056 4.27144 0
M  V30 1105 C 100.495 -0.675881 5.30411 0
M  V30 1106 C 101.795 1.48981 5.00602 0
M  V30 1107 H 103.489 1.11681 2.77791 0
M  V30 1108 H 101.035 0.538478 1.33553 0
M  V30 1109 H 102.988 -0.922674 4.11175 0
M  V30 1110 H 101.712 -1.38445 2.95805 0
M  V30 1111 H 100.371 0.646427 3.60856 0
M  V30 1112 H 100.019 -1.52842 4.79216 0
M  V30 1113 H 99.7189 -0.145374 5.8742 0
M  V30 1114 H 101.243 -1.06757 6.01195 0
M  V30 1115 H 102.657 1.16849 5.61266 0
M  V30 1116 H 101.054 1.95739 5.6728 0
M  V30 1117 H 102.124 2.25746 4.29147 0
M  V30 1118 N 103.467 -1.45747 0.599634 0
M  V30 1119 C 104.397 -2.33235 -0.111306 0
M  V30 1120 C 105.378 -1.46359 -0.866781 0
M  V30 1121 O 106.563 -1.75146 -0.838904 0
M  V30 1122 C 103.693 -3.28932 -1.11451 0
M  V30 1123 C 102.647 -4.25381 -0.472772 0
M  V30 1124 C 101.973 -5.1071 -1.58365 0
M  V30 1125 C 103.273 -5.18831 0.600948 0
M  V30 1126 H 104.967 -2.92927 0.61919 0
M  V30 1127 H 102.513 -1.40857 0.299215 0
M  V30 1128 H 104.466 -3.89002 -1.62036 0
M  V30 1129 H 103.19 -2.67381 -1.8755 0
M  V30 1130 H 101.849 -3.66598 0.0121472 0
M  V30 1131 H 101.497 -4.45533 -2.33473 0
M  V30 1132 H 101.197 -5.7604 -1.15982 0
M  V30 1133 H 102.721 -5.73647 -2.09194 0
M  V30 1134 H 104.135 -5.73019 0.179491 0
M  V30 1135 H 102.532 -5.92595 0.946076 0
M  V30 1136 H 103.602 -4.6174 1.48068 0
M  V30 1137 N 104.945 -0.338344 -1.53925 0
M  V30 1138 C 106.17 0.263987 -2.05713 0
M  V30 1139 C 106.595 1.43847 -1.21201 0
M  V30 1140 O 105.953 1.79904 -0.224535 0
M  V30 1141 C 106.001 0.662 -3.54471 0
M  V30 1142 O 105.105 1.76265 -3.72833 0
M  V30 1143 H 104.446 0.0448722 -0.662482 0
M  V30 1144 H 106.976 -0.491048 -1.9862 0
M  V30 1145 H 106.986 0.940594 -3.9701 0
M  V30 1146 H 105.661 -0.196937 -4.15433 0
M  V30 1147 H 104.238 1.48173 -3.42198 0
M  V30 1148 N 106.423 1.57458 -0.0668435 0
M  V30 1149 C 107.834 1.80776 0.466558 0
M  V30 1150 C 108.185 0.980361 1.69951 0
M  V30 1151 O 107.31 0.201441 2.1546 0
M  V30 1152 C 107.905 3.27881 0.85321 0
M  V30 1153 C 106.464 3.52062 1.3315 0
M  V30 1154 C 105.611 2.75513 0.314264 0
M  V30 1155 H 108.562 1.5598 -0.292588 0
M  V30 1156 H 108.583 3.39659 1.715 0
M  V30 1157 H 108.095 3.88075 -0.0443439 0
M  V30 1158 H 106.196 2.97167 2.24772 0
M  V30 1159 H 106.309 4.60762 1.31285 0
M  V30 1160 H 104.673 2.42123 0.790492 0
M  V30 1161 H 105.456 3.38442 -0.575477 0
M  V30 1162 N 107.901 -0.206675 1.56239 0
M  V30 1163 C 109.126 -0.949474 1.8439 0
M  V30 1164 C 109.551 -1.76549 0.649016 0
M  V30 1165 O 108.909 -1.76782 -0.402231 0
M  V30 1166 C 108.957 -1.83078 3.10668 0
M  V30 1167 O 108.061 -2.9281 2.90407 0
M  V30 1168 H 107.402 -0.268033 0.607499 0
M  V30 1169 H 109.932 -0.215488 2.03462 0
M  V30 1170 H 109.942 -2.2377 3.41161 0
M  V30 1171 H 108.617 -1.23112 3.97261 0
M  V30 1172 H 107.194 -2.55956 2.71184 0
M  V30 1173 N 109.379 -1.50304 -0.473955 0
M  V30 1174 C 110.607 -1.64902 -1.24959 0
M  V30 1175 C 111.022 -0.331198 -1.85872 0
M  V30 1176 O 110.379 0.68652 -1.69095 0
M  V30 1177 C 110.43 -2.73803 -2.36038 0
M  V30 1178 O 110.151 -4.00477 -1.77624 0
M  V30 1179 C 111.652 -2.99349 -3.26964 0
M  V30 1180 H 108.872 -0.554383 -0.378022 0
M  V30 1181 H 111.416 -1.9651 -0.566054 0
M  V30 1182 H 109.571 -2.44898 -3.00173 0
M  V30 1183 H 109.985 -4.60678 -2.5075 0
M  V30 1184 H 111.459 -3.79217 -4.01121 0
M  V30 1185 H 111.936 -2.10307 -3.85574 0
M  V30 1186 H 112.542 -3.29774 -2.68569 0
M  V30 1187 N 110.857 0.726932 -1.39834 0
M  V30 1188 C 112.085 1.51613 -1.40787 0
M  V30 1189 C 112.5 1.88799 -0.00451505 0
M  V30 1190 O 111.857 1.54662 0.968809 0
M  V30 1191 C 111.908 2.79863 -2.28821 0
M  V30 1192 O 111.629 2.44253 -3.63692 0
M  V30 1193 C 113.13 3.73837 -2.38245 0
M  V30 1194 H 110.35 0.468264 -0.480593 0
M  V30 1195 H 112.894 0.897607 -1.83748 0
M  V30 1196 H 111.049 3.38027 -1.89252 0
M  V30 1197 H 111.463 3.26695 -4.1033 0
M  V30 1198 H 112.937 4.60699 -3.04073 0
M  V30 1199 H 113.414 4.16153 -1.40403 0
M  V30 1200 H 114.02 3.21589 -2.78317 0
M  V30 1201 N 112.336 1.25143 0.95797 0
M  V30 1202 C 113.266 1.07711 2.07173 0
M  V30 1203 C 114.247 -0.0128462 1.70095 0
M  V30 1204 O 115.432 0.156061 1.93572 0
M  V30 1205 C 112.562 0.691503 3.40346 0
M  V30 1206 C 111.516 1.73132 3.9142 0
M  V30 1207 C 110.842 1.20049 5.21049 0
M  V30 1208 C 112.142 3.1294 4.1817 0
M  V30 1209 H 113.836 2.00873 2.22014 0
M  V30 1210 H 111.382 0.967191 1.06684 0
M  V30 1211 H 113.335 0.556505 4.17709 0
M  V30 1212 H 112.059 -0.275819 3.25433 0
M  V30 1213 H 110.718 1.8547 3.16222 0
M  V30 1214 H 110.366 0.223499 5.02503 0
M  V30 1215 H 110.066 1.89545 5.56189 0
M  V30 1216 H 111.59 1.07782 6.01012 0
M  V30 1217 H 113.004 3.03775 4.86203 0
M  V30 1218 H 111.401 3.79875 4.64559 0
M  V30 1219 H 112.471 3.6025 3.24573 0
M  V30 1220 N 113.814 -1.1601 1.06675 0
M  V30 1221 C 115.23 -1.38622 0.790948 0
M  V30 1222 C 115.43 -1.92109 -0.607965 0
M  V30 1223 O 114.486 -2.12239 -1.36787 0
M  V30 1224 C 115.799 -2.36347 1.85905 0
M  V30 1225 C 117.347 -2.50023 1.88301 0
M  V30 1226 C 117.822 -3.51033 2.94176 0
M  V30 1227 N 119.313 -3.58563 2.93235 0
M  V30 1228 C 120.048 -4.36521 3.71803 0
M  V30 1229 N 119.544 -5.17869 4.602 0
M  V30 1230 N 121.337 -4.31541 3.60178 0
M  V30 1231 H 113.488 -0.796294 1.96908 0
M  V30 1232 H 115.751 -0.412597 0.853503 0
M  V30 1233 H 115.457 -2.04147 2.86386 0
M  V30 1234 H 115.331 -3.36042 1.71334 0
M  V30 1235 H 117.718 -2.81524 0.884769 0
M  V30 1236 H 117.799 -1.5035 2.06951 0
M  V30 1237 H 117.443 -3.20268 3.94196 0
M  V30 1238 H 117.373 -4.50445 2.72776 0
M  V30 1239 H 119.864 -3.00496 2.29152 0
M  V30 1240 H 120.177 -5.74578 5.16797 0
M  V30 1241 H 118.522 -5.17199 4.64253 0
M  V30 1242 H 121.713 -3.67051 2.90502 0
M  V30 1243 H 121.886 -4.9205 4.21653 0
M  V30 1244 N 115.292 -0.849877 -1.32721 0
M  V30 1245 C 116.538 -0.451591 -1.97708 0
M  V30 1246 C 116.871 0.989175 -1.6712 0
M  V30 1247 O 116.146 1.69334 -0.956891 0
M  V30 1248 C 116.429 -0.685598 -3.53513 0
M  V30 1249 C 116.282 -2.17444 -3.93749 0
M  V30 1250 C 117.601 -0.138874 -4.39881 0
M  V30 1251 H 114.72 -0.16555 -0.718166 0
M  V30 1252 H 117.362 -1.06742 -1.57182 0
M  V30 1253 H 115.512 -0.161416 -3.88165 0
M  V30 1254 H 117.184 -2.76433 -3.693 0
M  V30 1255 H 115.427 -2.65476 -3.43081 0
M  V30 1256 H 116.098 -2.28888 -5.02309 0
M  V30 1257 H 118.574 -0.587068 -4.11938 0
M  V30 1258 H 117.45 -0.332213 -5.47894 0
M  V30 1259 H 117.711 0.95806 -4.31594 0
M  V30 1260 N 116.77 1.45427 -0.607355 0
M  V30 1261 C 117.998 2.06614 -0.108814 0
M  V30 1262 C 118.413 1.45204 1.2067 0
M  V30 1263 O 117.77 0.566132 1.73497 0
M  V30 1264 C 117.821 3.61481 0.0375347 0
M  V30 1265 O 117.542 4.20598 -1.22593 0
M  V30 1266 C 119.043 4.39652 0.567561 0
M  V30 1267 H 116.263 0.66747 -0.0687351 0
M  V30 1268 H 118.807 1.86675 -0.835022 0
M  V30 1269 H 116.962 3.80762 0.714068 0
M  V30 1270 H 117.376 5.1377 -1.05547 0
M  V30 1271 H 118.85 5.48518 0.61905 0
M  V30 1272 H 119.327 4.09417 1.58978 0
M  V30 1273 H 119.933 4.25234 -0.0749202 0
M  V30 1274 N 118.248 0.346503 1.53744 0
M  V30 1275 C 119.181 -0.552023 2.21423 0
M  V30 1276 C 120.159 -1.09798 1.19929 0
M  V30 1277 O 121.343 -1.1577 1.4876 0
M  V30 1278 C 118.47 -1.75972 2.89398 0
M  V30 1279 C 117.516 -1.34295 4.04805 0
M  V30 1280 S 118.349 -0.360263 5.34287 0
M  V30 1281 C 119.505 -1.57473 6.05767 0
M  V30 1282 H 119.738 0.0228119 2.97291 0
M  V30 1283 H 117.271 0.130579 1.53847 0
M  V30 1284 H 119.229 -2.45256 3.2918 0
M  V30 1285 H 117.89 -2.30578 2.1329 0
M  V30 1286 H 117.083 -2.24349 4.51313 0
M  V30 1287 H 116.685 -0.729555 3.66815 0
M  V30 1288 H 118.977 -2.50875 6.29339 0
M  V30 1289 H 119.92 -1.15138 6.98676 0
M  V30 1290 H 120.328 -1.77212 5.35963 0
M  V30 1291 N 119.726 -1.57421 0.075193 0
M  V30 1292 C 120.951 -1.98364 -0.605515 0
M  V30 1293 C 121.376 -0.953383 -1.62149 0
M  V30 1294 O 120.734 0.0806053 -1.81121 0
M  V30 1295 C 120.782 -3.38332 -1.24756 0
M  V30 1296 O 119.886 -3.37959 -2.36342 0
M  V30 1297 H 119.227 -0.645553 -0.155428 0
M  V30 1298 H 121.757 -2.04044 0.150714 0
M  V30 1299 H 121.767 -3.75591 -1.5936 0
M  V30 1300 H 120.442 -4.12846 -0.503129 0
M  V30 1301 H 119.019 -3.12474 -2.03506 0
M  V30 1302 N 121.204 0.198386 -1.56346 0
M  V30 1303 C 122.136 1.26987 -1.90806 0
M  V30 1304 C 123.149 1.41877 -0.798419 0
M  V30 1305 O 124.338 1.42362 -1.07682 0
M  V30 1306 C 121.438 2.64246 -2.12196 0
M  V30 1307 C 120.611 2.71007 -3.43328 0
M  V30 1308 C 119.67 3.89439 -3.5387 0
M  V30 1309 O 118.696 3.76695 -4.26719 0
M  V30 1310 N 119.898 5.04752 -2.86715 0
M  V30 1311 H 122.663 0.977433 -2.83313 0
M  V30 1312 H 120.224 0.388322 -1.57174 0
M  V30 1313 H 122.216 3.41896 -2.1654 0
M  V30 1314 H 120.786 2.85992 -1.26204 0
M  V30 1315 H 120.006 1.79657 -3.50881 0
M  V30 1316 H 121.294 2.72512 -4.29668 0
M  V30 1317 H 120.692 5.18004 -2.2735 0
M  V30 1318 H 119.249 5.8036 -2.96691 0
M  V30 1319 N 122.682 1.50554 0.465978 0
M  V30 1320 C 123.645 1.69233 1.54574 0
M  V30 1321 C 124.645 0.562901 1.50626 0
M  V30 1322 O 125.835 0.830016 1.53155 0
M  V30 1323 C 122.967 1.7223 2.94193 0
M  V30 1324 H 124.16 2.65571 1.39327 0
M  V30 1325 H 121.713 1.40111 0.692711 0
M  V30 1326 H 122.448 0.77603 3.14878 0
M  V30 1327 H 122.233 2.54285 2.98466 0
M  V30 1328 H 123.723 1.88618 3.72576 0
M  V30 1329 N 124.16 -0.719506 1.40217 0
M  V30 1330 C 125.385 -1.51371 1.4178 0
M  V30 1331 C 125.81 -1.88091 0.0182355 0
M  V30 1332 O 125.168 -1.52997 -0.972707 0
M  V30 1333 C 125.216 -2.768 2.31115 0
M  V30 1334 O 124.32 -3.73349 1.7517 0
M  V30 1335 H 123.661 -0.456529 0.482159 0
M  V30 1336 H 126.191 -0.88644 1.844 0
M  V30 1337 H 126.201 -3.25371 2.46167 0
M  V30 1338 H 124.876 -2.49407 3.3282 0
M  V30 1339 H 123.453 -3.32179 1.69444 0
M  V30 1340 N 125.638 -1.25649 -0.95132 0
M  V30 1341 C 126.866 -1.13343 -1.73092 0
M  V30 1342 C 127.281 0.312434 -1.86197 0
M  V30 1343 O 126.638 1.21465 -1.36207 0
M  V30 1344 C 126.689 -1.78602 -3.14299 0
M  V30 1345 O 126.41 -3.17537 -3.01831 0
M  V30 1346 C 127.911 -1.72119 -4.08522 0
M  V30 1347 H 125.131 -0.395181 -0.542285 0
M  V30 1348 H 127.675 -1.66076 -1.19328 0
M  V30 1349 H 125.83 -1.29832 -3.64996 0
M  V30 1350 H 126.244 -3.49676 -3.90931 0
M  V30 1351 H 127.718 -2.22435 -5.052 0
M  V30 1352 H 128.195 -0.685635 -4.33815 0
M  V30 1353 H 128.801 -2.20393 -3.63741 0
M  V30 1354 N 127.117 1.15442 -1.07289 0
M  V30 1355 C 128.027 2.23786 -0.704057 0
M  V30 1356 C 129.043 1.7166 0.284413 0
M  V30 1357 O 130.219 2.00972 0.131205 0
M  V30 1358 C 127.284 3.46535 -0.106792 0
M  V30 1359 C 126.345 4.13654 -1.14842 0
M  V30 1360 C 125.578 5.30544 -0.57956 0
M  V30 1361 O 125.801 5.67187 0.604585 0
M  V30 1362 O 124.735 5.87154 -1.32414 0
M  V30 1363 H 128.561 2.57664 -1.60757 0
M  V30 1364 H 126.146 1.23152 -0.845803 0
M  V30 1365 H 128.028 4.20804 0.224048 0
M  V30 1366 H 126.703 3.14407 0.770049 0
M  V30 1367 H 125.61 3.4131 -1.5316 0
M  V30 1368 H 126.943 4.49861 -1.99714 0
M  V30 1369 N 128.595 0.856903 1.32268 0
M  V30 1370 C 129.558 0.308171 2.27119 0
M  V30 1371 C 130.558 -0.533421 1.51695 0
M  V30 1372 O 131.748 -0.344607 1.70757 0
M  V30 1373 C 128.88 -0.563757 3.36206 0
M  V30 1374 H 130.073 1.14535 2.77167 0
M  V30 1375 H 127.626 0.631421 1.42978 0
M  V30 1376 H 128.361 -1.42266 2.91429 0
M  V30 1377 H 128.146 0.0386749 3.92081 0
M  V30 1378 H 129.636 -0.940386 4.06874 0
M  V30 1379 N 130.073 -1.45103 0.615059 0
M  V30 1380 C 131.298 -2.07064 0.117988 0
M  V30 1381 C 131.723 -1.4554 -1.19163 0
M  V30 1382 O 131.081 -0.550855 -1.72729 0
M  V30 1383 C 131.129 -3.606 -0.000288387 0
M  V30 1384 O 130.233 -3.98847 -1.04856 0
M  V30 1385 H 129.574 -0.659467 0.0774581 0
M  V30 1386 H 132.104 -1.86236 0.847186 0
M  V30 1387 H 132.114 -4.07529 -0.196091 0
M  V30 1388 H 130.789 -4.04765 0.955932 0
M  V30 1389 H 129.366 -3.63577 -0.828619 0
M  V30 1390 N 131.551 -0.354651 -1.53558 0
M  V30 1391 C 132.776 0.242153 -2.05981 0
M  V30 1392 C 133.201 1.42553 -1.2272 0
M  V30 1393 O 132.559 1.79656 -0.243604 0
M  V30 1394 C 132.607 0.624367 -3.55154 0
M  V30 1395 O 131.711 1.72301 -3.74681 0
M  V30 1396 H 131.052 0.0378432 -0.662921 0
M  V30 1397 H 133.582 -0.512087 -1.98088 0
M  V30 1398 H 133.592 0.898433 -3.97985 0
M  V30 1399 H 132.267 -0.240989 -4.15201 0
M  V30 1400 H 130.844 1.44535 -3.4375 0
M  V30 1401 N 133.029 1.57378 -0.0835403 0
M  V30 1402 C 134.306 1.85363 0.624507 0
M  V30 1403 C 134.686 0.978239 1.87066 0
M  V30 1404 O 134.034 0.0475908 2.2845 0
M  V30 1405 C 134.244 3.35795 0.950947 0
M  V30 1406 C 135.592 4.03581 1.31939 0
M  V30 1407 O 136.616 3.40609 1.04232 0
M  V30 1408 O 135.475 5.14672 1.83779 0
M  V30 1409 H 132.569 0.766162 0.311329 0
M  V30 1410 H 135.115 1.69307 -0.115362 0
M  V30 1411 H 133.887 3.91244 0.0663899 0
M  V30 1412 H 133.51 3.57154 1.74719 0
M  V30 1413 N 134.507 -0.190092 1.56449 0
M  V30 1414 C 135.454 -1.23557 1.94942 0
M  V30 1415 C 136.424 -1.44972 0.810696 0
M  V30 1416 O 137.609 -1.58023 1.06927 0
M  V30 1417 C 134.749 -2.57416 2.2985 0
M  V30 1418 C 133.862 -2.43537 3.5681 0
M  V30 1419 C 132.997 -3.70134 3.81017 0
M  V30 1420 C 132.036 -3.51109 5.01387 0
M  V30 1421 N 131.173 -4.6973 5.21822 0
M  V30 1422 H 136.013 -0.900304 2.84075 0
M  V30 1423 H 133.55 -0.43318 1.40577 0
M  V30 1424 H 135.508 -3.35409 2.48106 0
M  V30 1425 H 134.138 -2.88975 1.43852 0
M  V30 1426 H 133.19 -1.56816 3.46573 0
M  V30 1427 H 134.502 -2.25415 4.4496 0
M  V30 1428 H 133.656 -4.56566 3.9954 0
M  V30 1429 H 132.395 -3.91215 2.91207 0
M  V30 1430 H 131.4 -2.63063 4.82782 0
M  V30 1431 H 132.625 -3.31468 5.9271 0
M  V30 1432 H 130.571 -4.91065 4.34961 0
M  V30 1433 H 130.488 -4.54452 6.0416 0
M  V30 1434 H 131.756 -5.57499 5.44808 0
M  V30 1435 N 135.985 -1.50799 -0.457987 0
M  V30 1436 C 137.231 -1.62683 -1.21088 0
M  V30 1437 C 137.564 -0.332268 -1.91336 0
M  V30 1438 O 136.839 0.667043 -1.82704 0
M  V30 1439 C 137.122 -2.81615 -2.24422 0
M  V30 1440 C 136.975 -4.20989 -1.58392 0
M  V30 1441 C 138.294 -2.96085 -3.2561 0
M  V30 1442 H 135.413 -0.592087 -0.438864 0
M  V30 1443 H 138.055 -1.83225 -0.50286 0
M  V30 1444 H 136.205 -2.64231 -2.84806 0
M  V30 1445 H 137.877 -4.49994 -1.01504 0
M  V30 1446 H 136.12 -4.24641 -0.886704 0
M  V30 1447 H 136.791 -5.0016 -2.33547 0
M  V30 1448 H 139.267 -3.12042 -2.75262 0
M  V30 1449 H 138.143 -3.80902 -3.95228 0
M  V30 1450 H 138.404 -2.0726 -3.90507 0
M  V30 1451 N 137.463 0.71206 -1.40597 0
M  V30 1452 C 138.691 1.50111 -1.42388 0
M  V30 1453 C 139.106 1.88784 -0.0245395 0
M  V30 1454 O 138.463 1.55681 0.952351 0
M  V30 1455 C 138.514 2.7742 -2.31776 0
M  V30 1456 O 138.235 2.40382 -3.66262 0
M  V30 1457 C 139.736 3.7129 -2.42196 0
M  V30 1458 H 136.956 0.46314 -0.485533 0
M  V30 1459 H 139.5 0.878068 -1.8469 0
M  V30 1460 H 137.655 3.36001 -1.92827 0
M  V30 1461 H 138.069 3.22324 -4.13772 0
M  V30 1462 H 139.543 4.57448 -3.08943 0
M  V30 1463 H 140.02 4.14641 -1.44809 0
M  V30 1464 H 140.626 3.18619 -2.81712 0
M  V30 1465 N 138.941 1.26152 0.944643 0
M  V30 1466 C 140.187 1.11657 1.69294 0
M  V30 1467 C 140.52 -0.339926 1.91202 0
M  V30 1468 O 139.795 -1.24994 1.49019 0
M  V30 1469 C 140.078 1.88236 3.06984 0
M  V30 1470 C 139.931 3.41772 2.92424 0
M  V30 1471 C 141.25 1.67343 4.07043 0
M  V30 1472 H 138.369 0.407004 0.614424 0
M  V30 1473 H 141.011 1.55106 1.09737 0
M  V30 1474 H 139.161 1.51308 3.57824 0
M  V30 1475 H 140.833 3.88433 2.48832 0
M  V30 1476 H 139.076 3.68974 2.28124 0
M  V30 1477 H 139.747 3.90579 3.90067 0
M  V30 1478 H 142.223 1.99509 3.65151 0
M  V30 1479 H 141.099 2.23346 5.01406 0
M  V30 1480 H 141.36 0.617158 4.37771 0
M  V30 1481 N 140.419 -1.14872 1.07899 0
M  V30 1482 C 141.367 -2.21857 0.698727 0
M  V30 1483 C 142.361 -1.66845 -0.293086 0
M  V30 1484 O 143.567 -1.79321 -0.156204 0
M  V30 1485 H 139.942 -0.722691 0.207899 0
M  V30 1486 H 141.913 -2.51205 1.61054 0
M  V30 1487 C 140.662 -3.47498 0.11858 0
M  V30 1488 H 139.985 -3.90154 0.872914 0
M  V30 1489 H 141.425 -4.23858 -0.109759 0
M  V30 1490 C 139.884 -3.16947 -1.1422 0
M  V30 1491 O 140.414 -3.3426 -2.22785 0
M  V30 1492 N 138.62 -2.70946 -1.05055 0
M  V30 1493 H 138.167 -2.57058 -0.167038 0
M  V30 1494 H 138.125 -2.50879 -1.89491 0
M  V30 1495 N 141.898 -0.863906 -1.31812 0
M  V30 1496 C 143.128 -0.485406 -2.00817 0
M  V30 1497 C 143.536 0.925007 -1.65046 0
M  V30 1498 O 142.879 1.61653 -0.872574 0
M  V30 1499 C 142.941 -0.555589 -3.55181 0
M  V30 1500 C 142.605 -1.92654 -4.14407 0
M  V30 1501 C 143.602 -2.89324 -4.31958 0
M  V30 1502 C 141.287 -2.2262 -4.50273 0
M  V30 1503 C 143.281 -4.14108 -4.84555 0
M  V30 1504 C 140.968 -3.47654 -5.02573 0
M  V30 1505 C 141.966 -4.43214 -5.19664 0
M  V30 1506 O 141.654 -5.66033 -5.70843 0
M  V30 1507 H 141.386 -0.188224 -0.649267 0
M  V30 1508 H 143.94 -1.16514 -1.69156 0
M  V30 1509 H 142.17 0.181037 -3.86276 0
M  V30 1510 H 143.859 -0.19138 -4.05449 0
M  V30 1511 H 144.625 -2.6748 -4.04573 0
M  V30 1512 H 140.504 -1.4902 -4.3625 0
M  V30 1513 H 144.048 -4.88703 -4.9781 0
M  V30 1514 H 139.945 -3.69345 -5.29391 0
M  V30 1515 H 140.713 -5.6812 -5.89222 0
M  V30 1516 N 143.376 1.44774 -0.622745 0
M  V30 1517 C 144.606 2.06187 -0.130532 0
M  V30 1518 C 145.014 1.46547 1.19669 0
M  V30 1519 O 144.357 0.579636 1.74316 0
M  V30 1520 C 144.419 3.59437 0.0674983 0
M  V30 1521 C 144.083 4.41496 -1.18026 0
M  V30 1522 C 145.08 4.75512 -2.102 0
M  V30 1523 C 142.765 4.82007 -1.41333 0
M  V30 1524 C 144.759 5.48912 -3.23998 0
M  V30 1525 C 142.446 5.55157 -2.55429 0
M  V30 1526 C 143.444 5.88528 -3.46589 0
M  V30 1527 O 143.132 6.60191 -4.58697 0
M  V30 1528 H 142.864 0.672045 -0.0730162 0
M  V30 1529 H 145.418 1.86768 -0.854802 0
M  V30 1530 H 143.648 3.77314 0.846825 0
M  V30 1531 H 145.337 4.02642 0.513209 0
M  V30 1532 H 146.103 4.4476 -1.93425 0
M  V30 1533 H 141.982 4.55457 -0.712709 0
M  V30 1534 H 145.526 5.74877 -3.95174 0
M  V30 1535 H 141.423 5.85324 -2.72151 0
M  V30 1536 H 142.191 6.78654 -4.57571 0
M  V30 1537 N 144.854 0.36279 1.53368 0
M  V30 1538 C 146.131 -0.284021 1.93527 0
M  V30 1539 C 146.511 -1.66628 1.29608 0
M  V30 1540 O 145.859 -2.23942 0.45413 0
M  V30 1541 C 146.069 -0.337028 3.47369 0
M  V30 1542 C 147.417 -0.578708 4.20638 0
M  V30 1543 O 148.441 -0.418352 3.53735 0
M  V30 1544 O 147.3 -0.89074 5.39192 0
M  V30 1545 H 144.394 -0.169743 0.809393 0
M  V30 1546 H 146.94 0.41537 1.64538 0
M  V30 1547 H 145.712 0.632217 3.86159 0
M  V30 1548 H 145.335 -1.08243 3.82582 0
M  V30 1549 N 146.332 -1.57332 0.0918853 0
M  V30 1550 C 147.242 -2.17368 -0.882505 0
M  V30 1551 C 148.258 -1.14226 -1.31257 0
M  V30 1552 O 149.434 -1.46582 -1.38115 0
M  V30 1553 C 146.499 -2.73962 -2.12476 0
M  V30 1554 C 145.56 -3.92048 -1.7492 0
M  V30 1555 C 144.793 -4.45933 -2.93223 0
M  V30 1556 O 145.016 -3.98764 -4.07852 0
M  V30 1557 O 143.95 -5.36999 -2.71875 0
M  V30 1558 H 147.776 -3.01031 -0.40172 0
M  V30 1559 H 145.361 -1.48813 -0.132291 0
M  V30 1560 H 147.243 -3.10147 -2.85283 0
M  V30 1561 H 145.918 -1.93347 -2.59613 0
M  V30 1562 H 144.825 -3.6068 -0.993025 0
M  V30 1563 H 146.158 -4.74017 -1.32548 0
M  V30 1564 N 147.81 0.181792 -1.56548 0
M  V30 1565 C 148.72 1.24538 -1.98815 0
M  V30 1566 C 149.736 1.49045 -0.897861 0
M  V30 1567 O 150.912 1.61399 -1.20467 0
M  V30 1568 C 147.977 2.56683 -2.33055 0
M  V30 1569 C 147.038 2.40131 -3.55859 0
M  V30 1570 C 146.271 3.65975 -3.88456 0
M  V30 1571 O 146.494 4.70711 -3.22161 0
M  V30 1572 O 145.428 3.6071 -4.81842 0
M  V30 1573 H 149.254 0.916647 -2.89536 0
M  V30 1574 H 146.839 0.387842 -1.44278 0
M  V30 1575 H 148.721 3.34655 -2.56094 0
M  V30 1576 H 147.396 2.89157 -1.45498 0
M  V30 1577 H 146.303 1.60226 -3.38051 0
M  V30 1578 H 147.636 2.12585 -4.43924 0
M  V30 1579 N 149.288 1.51039 0.449983 0
M  V30 1580 C 150.536 1.62759 1.19808 0
M  V30 1581 C 150.857 0.339981 1.92013 0
M  V30 1582 O 150.127 -0.643606 1.85026 0
M  V30 1583 H 148.707 0.599811 0.445237 0
M  V30 1584 H 151.369 1.87914 0.517138 0
M  V30 1585 H 150.465 2.44911 1.93455 0
M  V30 1586 N 150.766 -0.704594 1.40972 0
M  V30 1587 C 151.991 -1.49858 1.43378 0
M  V30 1588 C 152.416 -1.88061 0.038184 0
M  V30 1589 O 151.774 -1.5402 -0.956425 0
M  V30 1590 C 151.822 -2.74333 2.34038 0
M  V30 1591 O 150.926 -3.7147 1.7912 0
M  V30 1592 H 150.267 -0.45139 0.486974 0
M  V30 1593 H 152.797 -0.866832 1.8533 0
M  V30 1594 H 152.807 -3.22741 2.49604 0
M  V30 1595 H 151.482 -2.45863 3.35446 0
M  V30 1596 H 150.059 -3.30363 1.72958 0
M  V30 1597 N 152.244 -1.26651 -0.937939 0
M  V30 1598 C 153.493 -1.11775 -1.67897 0
M  V30 1599 C 153.806 0.33794 -1.92659 0
M  V30 1600 O 155.012 0.607434 -2.64618 0
M  V30 1601 C 153.468 -1.9523 -3.02346 0
M  V30 1602 C 153.076 -3.45393 -2.8532 0
M  V30 1603 C 154.82 -1.88972 -3.80118 0
M  V30 1604 C 152.727 -4.21083 -4.15263 0
M  V30 1605 H 151.657 -0.414696 -0.629717 0
M  V30 1606 H 154.308 -1.50988 -1.04283 0
M  V30 1607 H 152.69 -1.48853 -3.66959 0
M  V30 1608 H 153.864 -3.99561 -2.29537 0
M  V30 1609 H 152.179 -3.52921 -2.20988 0
M  V30 1610 H 154.776 -2.42805 -4.76392 0
M  V30 1611 H 155.119 -0.86113 -4.07296 0
M  V30 1612 H 155.652 -2.33189 -3.22285 0
M  V30 1613 H 152.391 -5.24425 -3.93267 0
M  V30 1614 H 151.911 -3.71695 -4.70747 0
M  V30 1615 H 153.59 -4.29706 -4.83696 0
M  V30 1616 N 153.722 1.14298 -1.08507 0
M  V30 1617 C 155.133 1.66926 -0.836227 0
M  V30 1618 C 155.484 1.85576 0.63686 0
M  V30 1619 O 154.609 1.56767 1.49175 0
M  V30 1620 C 155.204 3.03219 -1.51142 0
M  V30 1621 C 153.763 3.52876 -1.30979 0
M  V30 1622 C 152.91 2.2833 -1.57356 0
M  V30 1623 H 155.861 0.983491 -1.24552 0
M  V30 1624 H 155.882 3.68726 -0.939211 0
M  V30 1625 H 155.394 2.89612 -2.58353 0
M  V30 1626 H 153.495 3.71703 -0.258429 0
M  V30 1627 H 153.608 4.33586 -2.03814 0
M  V30 1628 H 151.972 2.34454 -0.995164 0
M  V30 1629 H 152.755 2.17298 -2.65775 0
M  V30 1630 N 155.201 0.870884 1.31352 0
M  V30 1631 C 156.45 0.478408 1.95944 0
M  V30 1632 C 156.763 -0.974493 1.69597 0
M  V30 1633 O 157.969 -1.47316 2.28058 0
M  V30 1634 C 156.425 0.804609 3.50791 0
M  V30 1635 C 156.033 2.27433 3.85977 0
M  V30 1636 C 157.777 0.480648 4.2177 0
M  V30 1637 C 155.684 2.5429 5.33939 0
M  V30 1638 H 154.614 0.175175 0.733369 0
M  V30 1639 H 157.265 1.06391 1.4951 0
M  V30 1640 H 155.647 0.148347 3.95722 0
M  V30 1641 H 156.821 2.97373 3.52002 0
M  V30 1642 H 155.136 2.56442 3.28065 0
M  V30 1643 H 157.733 0.658519 5.30629 0
M  V30 1644 H 158.076 -0.578979 4.12254 0
M  V30 1645 H 158.609 1.09349 3.82476 0
M  V30 1646 H 155.348 3.58939 5.48491 0
M  V30 1647 H 154.868 1.88945 5.69263 0
M  V30 1648 H 156.547 2.39066 6.01212 0
M  V30 1649 N 156.679 -1.44442 0.630414 0
M  V30 1650 C 157.956 -1.9549 0.0655657 0
M  V30 1651 C 158.336 -1.5724 -1.40851 0
M  V30 1652 O 157.684 -0.846116 -2.12257 0
M  V30 1653 C 157.894 -3.47812 0.287691 0
M  V30 1654 C 159.242 -4.24216 0.180513 0
M  V30 1655 O 160.266 -3.55526 0.219019 0
M  V30 1656 O 159.125 -5.46434 0.0848493 0
M  V30 1657 H 156.219 -0.826688 -0.0227177 0
M  V30 1658 H 158.765 -1.54496 0.702068 0
M  V30 1659 H 157.537 -3.687 1.31056 0
M  V30 1660 H 157.16 -3.95751 -0.382984 0
M  V30 1661 N 158.157 -0.370918 -1.53173 0
M  V30 1662 C 159.089 0.507823 -2.23503 0
M  V30 1663 C 160.102 1.04182 -1.251 0
M  V30 1664 O 161.291 0.947286 -1.5129 0
M  V30 1665 C 158.391 1.71447 -2.92334 0
M  V30 1666 C 157.564 1.31105 -4.17289 0
M  V30 1667 C 156.623 2.38035 -4.69282 0
M  V30 1668 O 155.649 2.00204 -5.32829 0
M  V30 1669 N 156.851 3.69697 -4.47554 0
M  V30 1670 H 159.616 -0.0946382 -2.99551 0
M  V30 1671 H 157.177 -0.196358 -1.60705 0
M  V30 1672 H 159.169 2.42469 -3.24023 0
M  V30 1673 H 157.739 2.22368 -2.19707 0
M  V30 1674 H 156.959 0.430462 -3.91843 0
M  V30 1675 H 158.247 1.0179 -4.98514 0
M  V30 1676 H 157.645 4.03205 -3.9679 0
M  V30 1677 H 156.202 4.36807 -4.8378 0
M  V30 1678 N 159.635 1.57281 -0.100228 0
M  V30 1679 C 160.598 2.13158 0.842398 0
M  V30 1680 C 161.598 1.06202 1.20738 0
M  V30 1681 O 162.788 1.32066 1.13597 0
M  V30 1682 C 159.92 2.65639 2.13655 0
M  V30 1683 H 161.113 2.97766 0.357114 0
M  V30 1684 H 158.666 1.5559 0.148823 0
M  V30 1685 H 159.401 1.84566 2.66657 0
M  V30 1686 H 159.186 3.43844 1.88451 0
M  V30 1687 H 160.676 3.08846 2.81077 0
M  V30 1688 N 161.113 -0.173488 1.56642 0
M  V30 1689 C 162.361 -0.888706 1.81512 0
M  V30 1690 C 162.682 -1.82875 0.676872 0
M  V30 1691 O 161.952 -1.93536 -0.303414 0
M  V30 1692 H 160.532 -0.331164 0.669582 0
M  V30 1693 H 163.194 -0.173823 1.94123 0
M  V30 1694 H 162.29 -1.46691 2.75478 0
M  V30 1695 N 162.591 -1.51276 -0.441967 0
M  V30 1696 C 163.521 -1.752 -1.54361 0
M  V30 1697 C 164.502 -0.601682 -1.59103 0
M  V30 1698 O 165.687 -0.843913 -1.74905 0
M  V30 1699 C 162.817 -1.87282 -2.92477 0
M  V30 1700 C 161.771 -3.02687 -3.02596 0
M  V30 1701 C 161.097 -2.99947 -4.42647 0
M  V30 1702 C 162.397 -4.4273 -2.77106 0
M  V30 1703 H 164.091 -2.67442 -1.34592 0
M  V30 1704 H 161.637 -1.28694 -0.646048 0
M  V30 1705 H 163.59 -2.02602 -3.695 0
M  V30 1706 H 162.314 -0.916844 -3.13467 0
M  V30 1707 H 160.973 -2.87065 -2.28012 0
M  V30 1708 H 160.621 -2.02136 -4.60597 0
M  V30 1709 H 160.321 -3.77439 -4.50348 0
M  V30 1710 H 161.845 -3.17354 -5.2165 0
M  V30 1711 H 163.259 -4.58727 -3.43864 0
M  V30 1712 H 161.656 -5.21893 -2.96222 0
M  V30 1713 H 162.726 -4.53087 -1.72744 0
M  V30 1714 N 164.069 0.697108 -1.41344 0
M  V30 1715 C 165.316 1.45714 -1.40619 0
M  V30 1716 C 165.644 1.94494 -0.0147907 0
M  V30 1717 O 164.899 1.69794 0.973066 0
M  V30 1718 C 165.198 2.68553 -2.35826 0
M  V30 1719 C 164.864 2.38438 -3.82698 0
M  V30 1720 C 163.526 2.29936 -4.22709 0
M  V30 1721 C 165.878 2.13567 -4.75435 0
M  V30 1722 C 163.206 1.94656 -5.53467 0
M  V30 1723 C 165.558 1.79797 -6.06511 0
M  V30 1724 C 164.222 1.69789 -6.45545 0
M  V30 1725 H 163.492 0.533206 -0.51456 0
M  V30 1726 H 166.139 0.796901 -1.74131 0
M  V30 1727 H 164.444 3.39503 -1.95563 0
M  V30 1728 H 166.141 3.2669 -2.32539 0
M  V30 1729 H 162.731 2.4595 -3.51008 0
M  V30 1730 H 166.915 2.19082 -4.45328 0
M  V30 1731 H 162.171 1.8546 -5.82593 0
M  V30 1732 H 166.345 1.59572 -6.77872 0
M  V30 1733 H 163.972 1.4222 -7.46778 0
M  V30 1734 N 165.547 1.27147 0.931209 0
M  V30 1735 C 166.477 1.12081 2.04842 0
M  V30 1736 C 167.458 0.0232364 1.70084 0
M  V30 1737 O 168.643 0.197085 1.93197 0
M  V30 1738 C 165.773 0.76354 3.38803 0
M  V30 1739 C 164.727 1.81396 3.87659 0
M  V30 1740 C 164.053 1.31075 5.18385 0
M  V30 1741 C 165.353 3.21739 4.11438 0
M  V30 1742 H 167.047 2.05537 2.17703 0
M  V30 1743 H 164.593 0.989603 1.04608 0
M  V30 1744 H 166.546 0.644982 4.16435 0
M  V30 1745 H 165.27 -0.206727 3.25945 0
M  V30 1746 H 163.929 1.92136 3.12217 0
M  V30 1747 H 163.577 0.330037 5.01916 0
M  V30 1748 H 163.277 2.013 5.52044 0
M  V30 1749 H 164.801 1.20506 5.98591 0
M  V30 1750 H 166.215 3.14019 4.79651 0
M  V30 1751 H 164.612 3.89644 4.56397 0
M  V30 1752 H 165.682 3.67054 3.16859 0
M  V30 1753 N 167.025 -1.13721 1.09112 0
M  V30 1754 C 168.253 -1.88773 0.846899 0
M  V30 1755 C 168.668 -1.7896 -0.601572 0
M  V30 1756 O 168.025 -1.15394 -1.41388 0
M  V30 1757 C 168.076 -3.3849 1.26913 0
M  V30 1758 O 167.797 -3.48043 2.66079 0
M  V30 1759 C 169.298 -4.30518 1.05682 0
M  V30 1760 H 166.518 -0.59772 0.304914 0
M  V30 1761 H 169.062 -1.43977 1.45227 0
M  V30 1762 H 167.217 -3.80881 0.707723 0
M  V30 1763 H 167.631 -4.4109 2.83795 0
M  V30 1764 H 169.105 -5.3391 1.40156 0
M  V30 1765 H 169.582 -4.392 -0.00563416 0
M  V30 1766 H 170.188 -3.93893 1.60402 0
M  V30 1767 N 168.503 -0.877838 -1.30888 0
M  V30 1768 C 169.466 -0.344265 -2.266 0
M  V30 1769 C 170.466 0.50922 -1.52524 0
M  V30 1770 O 171.656 0.317398 -1.71284 0
M  V30 1771 C 168.788 0.510198 -3.37061 0
M  V30 1772 H 169.981 -1.1893 -2.7531 0
M  V30 1773 H 167.534 -0.654088 -1.41956 0
M  V30 1774 H 168.269 1.37612 -2.93655 0
M  V30 1775 H 168.054 -0.101047 -3.9197 0
M  V30 1776 H 169.544 0.875537 -4.08319 0
M  V30 1777 N 169.982 1.44106 -0.638065 0
M  V30 1778 C 171.231 2.01194 -0.142744 0
M  V30 1779 C 171.544 1.50835 1.24532 0
M  V30 1780 O 172.75 2.00096 1.83504 0
M  V30 1781 C 171.206 3.59319 -0.20442 0
M  V30 1782 C 170.814 4.18674 -1.59423 0
M  V30 1783 C 172.558 4.23854 0.234079 0
M  V30 1784 C 170.465 5.69045 -1.61065 0
M  V30 1785 H 169.395 0.752367 -0.0495998 0
M  V30 1786 H 172.046 1.65246 -0.797881 0
M  V30 1787 H 170.428 3.92598 0.517946 0
M  V30 1788 H 171.602 3.96921 -2.34074 0
M  V30 1789 H 169.917 3.66453 -1.97741 0
M  V30 1790 H 172.514 5.34155 0.241443 0
M  V30 1791 H 172.857 3.96688 1.2627 0
M  V30 1792 H 173.39 3.95403 -0.436025 0
M  V30 1793 H 170.129 6.00956 -2.61787 0
M  V30 1794 H 169.649 5.929 -0.90718 0
M  V30 1795 H 171.328 6.32809 -1.34766 0
M  V30 1796 N 171.46 0.379036 1.52974 0
M  V30 1797 C 172.37 -0.468639 2.29872 0
M  V30 1798 C 173.386 -1.08067 1.36373 0
M  V30 1799 O 174.562 -1.08871 1.69438 0
M  V30 1800 C 171.627 -1.58594 3.083 0
M  V30 1801 C 170.688 -1.00007 4.17489 0
M  V30 1802 C 169.921 -2.06413 4.92168 0
M  V30 1803 O 170.144 -3.27751 4.66835 0
M  V30 1804 O 169.078 -1.68717 5.7777 0
M  V30 1805 H 172.904 0.157508 3.03291 0
M  V30 1806 H 170.489 0.143035 1.48714 0
M  V30 1807 H 172.371 -2.23525 3.57232 0
M  V30 1808 H 171.046 -2.19724 2.37703 0
M  V30 1809 H 169.953 -0.314299 3.72777 0
M  V30 1810 H 171.286 -0.433135 4.90291 0
M  V30 1811 N 172.938 -1.57226 0.108567 0
M  V30 1812 C 174.187 -1.94008 -0.551703 0
M  V30 1813 C 174.5 -0.993442 -1.68494 0
M  V30 1814 O 175.706 -1.25551 -2.40726 0
M  V30 1815 C 174.162 -3.44763 -1.03279 0
M  V30 1816 C 173.77 -4.47943 0.0714193 0
M  V30 1817 C 175.514 -3.90483 -1.66503 0
M  V30 1818 C 173.421 -5.89865 -0.425779 0
M  V30 1819 H 172.351 -0.724206 -0.209863 0
M  V30 1820 H 175.002 -1.82547 0.186741 0
M  V30 1821 H 173.384 -3.51422 -1.82533 0
M  V30 1822 H 174.558 -4.52942 0.847365 0
M  V30 1823 H 172.873 -4.11913 0.609669 0
M  V30 1824 H 175.47 -4.93925 -2.04798 0
M  V30 1825 H 175.813 -3.29877 -2.53942 0
M  V30 1826 H 176.346 -3.86581 -0.938074 0
M  V30 1827 H 173.085 -6.54202 0.412316 0
M  V30 1828 H 172.605 -5.88309 -1.16843 0
M  V30 1829 H 174.284 -6.40844 -0.890397 0
M  V30 1830 N 174.416 0.165178 -1.56732 0
M  V30 1831 C 175.641 0.900253 -1.86843 0
M  V30 1832 C 176.066 1.74766 -0.695596 0
M  V30 1833 O 175.424 1.77786 0.35522 0
M  V30 1834 C 175.472 1.74777 -3.15413 0
M  V30 1835 O 174.576 2.85007 -2.98068 0
M  V30 1836 H 173.917 0.251832 -0.614391 0
M  V30 1837 H 176.447 0.161468 -2.03962 0
M  V30 1838 H 176.457 2.14646 -3.46974 0
M  V30 1839 H 175.132 1.12537 -4.00385 0
M  V30 1840 H 173.709 2.48676 -2.77875 0
M  V30 1841 N 175.894 1.51508 0.433938 0
M  V30 1842 C 176.824 1.76016 1.53429 0
M  V30 1843 C 177.805 0.610112 1.58782 0
M  V30 1844 O 178.99 0.853177 1.74455 0
M  V30 1845 C 176.12 1.88831 2.9148 0
M  V30 1846 C 175.074 3.04288 3.00987 0
M  V30 1847 C 174.4 3.0229 4.4105 0
M  V30 1848 C 175.7 4.44193 2.74754 0
M  V30 1849 H 177.394 2.68152 1.33171 0
M  V30 1850 H 174.94 1.29035 0.639214 0
M  V30 1851 H 176.893 2.04559 3.6842 0
M  V30 1852 H 175.617 0.933455 3.12976 0
M  V30 1853 H 174.276 2.8827 2.26486 0
M  V30 1854 H 173.924 2.04576 4.59519 0
M  V30 1855 H 173.624 3.79822 4.4834 0
M  V30 1856 H 175.148 3.20116 5.1996 0
M  V30 1857 H 176.562 4.60544 3.41426 0
M  V30 1858 H 174.959 5.23457 2.9345 0
M  V30 1859 H 176.029 4.53996 1.70339 0
M  V30 1860 N 177.372 -0.689602 1.41712 0
M  V30 1861 C 178.649 -1.44457 1.31877 0
M  V30 1862 C 179.029 -2.11039 -0.0508537 0
M  V30 1863 O 178.377 -2.02138 -1.06547 0
M  V30 1864 C 178.587 -2.45913 2.47645 0
M  V30 1865 C 179.935 -3.10991 2.89084 0
M  V30 1866 O 180.959 -2.56238 2.47428 0
M  V30 1867 O 179.818 -4.10174 3.61137 0
M  V30 1868 H 176.912 -0.64362 0.519309 0
M  V30 1869 H 179.458 -0.719576 1.53689 0
M  V30 1870 H 178.23 -1.95409 3.39015 0
M  V30 1871 H 177.853 -3.25913 2.27742 0
M  V30 1872 N 178.85 -1.27639 -0.924453 0
M  V30 1873 C 180.096 -1.14336 -1.67497 0
M  V30 1874 C 180.429 0.309465 -1.91718 0
M  V30 1875 O 179.704 1.22608 -1.50989 0
M  V30 1876 C 179.987 -1.93096 -3.0395 0
M  V30 1877 C 179.84 -3.46381 -2.8695 0
M  V30 1878 C 181.159 -1.73798 -4.0433 0
M  V30 1879 H 178.278 -0.416728 -0.607871 0
M  V30 1880 H 180.92 -1.56832 -1.07256 0
M  V30 1881 H 179.07 -1.56982 -3.55372 0
M  V30 1882 H 180.742 -3.92343 -2.42621 0
M  V30 1883 H 178.985 -3.72557 -2.22225 0
M  V30 1884 H 179.656 -3.96735 -3.83804 0
M  V30 1885 H 182.132 -2.05293 -3.61931 0
M  V30 1886 H 181.008 -2.31294 -4.97789 0
M  V30 1887 H 181.269 -0.686725 -4.36734 0
M  V30 1888 N 180.328 1.1314 -1.09713 0
M  V30 1889 C 181.605 1.80762 -0.747302 0
M  V30 1890 C 181.985 1.96663 0.767265 0
M  V30 1891 O 181.333 1.53706 1.69076 0
M  V30 1892 C 181.543 3.15606 -1.48975 0
M  V30 1893 C 182.891 3.90914 -1.65746 0
M  V30 1894 O 183.915 3.25239 -1.45251 0
M  V30 1895 O 182.774 5.08718 -1.9967 0
M  V30 1896 H 179.868 0.782103 -0.268782 0
M  V30 1897 H 182.414 1.20041 -1.19951 0
M  V30 1898 H 181.186 2.99278 -2.52088 0
M  V30 1899 H 180.809 3.84029 -1.02991 0
M  V30 1900 N 181.806 0.884767 1.30421 0
M  V30 1901 C 182.769 0.356277 2.26414 0
M  V30 1902 C 183.769 -0.501124 1.52792 0
M  V30 1903 O 184.959 -0.30831 1.7145 0
M  V30 1904 C 182.091 -0.492316 3.37326 0
M  V30 1905 H 183.284 1.20389 2.74675 0
M  V30 1906 H 180.837 0.661607 1.41607 0
M  V30 1907 H 181.572 -1.36052 2.94381 0
M  V30 1908 H 181.357 0.121832 3.91911 0
M  V30 1909 H 182.847 -0.853871 4.08777 0
M  V30 1910 N 183.284 -1.43765 0.645699 0
M  V30 1911 C 184.561 -1.9541 0.0862963 0
M  V30 1912 C 184.941 -1.58725 -1.39175 0
M  V30 1913 O 184.289 -0.868581 -2.11348 0
M  V30 1914 C 184.499 -3.47488 0.324565 0
M  V30 1915 C 185.847 -4.24001 0.225497 0
M  V30 1916 O 186.871 -3.55274 0.256715 0
M  V30 1917 O 185.73 -5.46313 0.142801 0
M  V30 1918 H 182.824 -0.826882 -0.0139483 0
M  V30 1919 H 185.37 -1.53743 0.718415 0
M  V30 1920 H 184.142 -3.67289 1.3496 0
M  V30 1921 H 183.765 -3.96135 -0.340987 0
M  V30 1922 N 184.763 -0.387143 -1.52771 0
M  V30 1923 C 186.179 -0.037007 -1.59557 0
M  V30 1924 C 186.379 1.44801 -1.40124 0
M  V30 1925 O 185.435 2.21227 -1.21716 0
M  V30 1926 C 186.748 -0.512256 -2.96305 0
M  V30 1927 C 188.296 -0.468328 -3.09476 0
M  V30 1928 C 188.771 -0.919731 -4.4867 0
M  V30 1929 N 190.262 -0.875656 -4.54848 0
M  V30 1930 C 190.997 -1.19637 -5.6078 0
M  V30 1931 N 190.493 -1.58745 -6.74368 0
M  V30 1932 N 192.286 -1.11776 -5.50874 0
M  V30 1933 H 184.437 -1.35395 -1.63652 0
M  V30 1934 H 186.7 -0.554818 -0.768688 0
M  V30 1935 H 186.406 -1.54935 -3.15734 0
M  V30 1936 H 186.28 0.089805 -3.77093 0
M  V30 1937 H 188.667 0.559671 -2.89744 0
M  V30 1938 H 188.748 -1.10616 -2.30646 0
M  V30 1939 H 188.392 -1.94595 -4.69143 0
M  V30 1940 H 188.322 -0.258927 -5.25963 0
M  V30 1941 H 190.813 -0.587843 -3.733 0
M  V30 1942 H 191.126 -1.81586 -7.51163 0
M  V30 1943 H 189.471 -1.6263 -6.75705 0
M  V30 1944 H 192.662 -0.811264 -4.61016 0
M  V30 1945 H 192.835 -1.37103 -6.3333 0
M  V30 1946 N 186.241 1.57166 -0.116904 0
M  V30 1947 C 187.518 1.86645 0.585049 0
M  V30 1948 C 187.898 1.0177 1.84949 0
M  V30 1949 O 187.246 0.0960379 2.28298 0
M  V30 1950 C 187.456 3.37736 0.879507 0
M  V30 1951 C 188.804 4.06289 1.23348 0
M  V30 1952 O 189.828 3.42743 0.969836 0
M  V30 1953 O 188.687 5.18455 1.7282 0
M  V30 1954 H 185.781 0.772593 0.295007 0
M  V30 1955 H 188.327 1.69025 -0.151249 0
M  V30 1956 H 187.099 3.91296 -0.0166136 0
M  V30 1957 H 186.722 3.6078 1.67103 0
M  V30 1958 N 187.719 -0.156864 1.56817 0
M  V30 1959 C 188.967 -0.869404 1.82444 0
M  V30 1960 C 189.288 -1.82147 0.69623 0
M  V30 1961 O 188.558 -1.93847 -0.28287 0
M  V30 1962 H 187.138 -0.324043 0.673056 0
M  V30 1963 H 189.8 -0.153224 1.94297 0
M  V30 1964 H 188.896 -1.43761 2.77019 0
M  V30 1965 N 189.197 -1.51736 -0.425897 0
M  V30 1966 C 190.443 -1.65214 -1.1761 0
M  V30 1967 C 190.776 -0.372778 -1.90589 0
M  V30 1968 O 190.051 0.628139 -1.84078 0
M  V30 1969 C 190.334 -2.86312 -2.18398 0
M  V30 1970 C 190.187 -4.24254 -1.49426 0
M  V30 1971 C 191.506 -3.02925 -3.19256 0
M  V30 1972 H 188.625 -0.601263 -0.426206 0
M  V30 1973 H 191.267 -1.8425 -0.463882 0
M  V30 1974 H 189.417 -2.70213 -2.79137 0
M  V30 1975 H 191.089 -4.52046 -0.919362 0
M  V30 1976 H 189.332 -4.26426 -0.796432 0
M  V30 1977 H 190.003 -5.05001 -2.22885 0
M  V30 1978 H 192.479 -3.1781 -2.68581 0
M  V30 1979 H 191.355 -3.89199 -3.8706 0
M  V30 1980 H 191.616 -2.15497 -3.86023 0
M  V30 1981 N 190.675 0.682077 -1.42076 0
M  V30 1982 C 191.921 1.44428 -1.42367 0
M  V30 1983 C 192.254 1.94164 -0.0373056 0
M  V30 1984 O 191.529 1.70429 0.937239 0
M  V30 1985 C 191.812 2.64654 -2.44194 0
M  V30 1986 C 191.665 2.20596 -3.91991 0
M  V30 1987 C 192.984 3.66865 -2.431 0
M  V30 1988 H 190.103 0.523834 -0.518428 0
M  V30 1989 H 192.745 0.77576 -1.73442 0
M  V30 1990 H 190.895 3.2169 -2.17826 0
M  V30 1991 H 192.567 1.68783 -4.29313 0
M  V30 1992 H 190.81 1.52242 -4.06208 0
M  V30 1993 H 191.481 3.06921 -4.58807 0
M  V30 1994 H 193.957 3.19531 -2.66532 0
M  V30 1995 H 192.833 4.48577 -3.16339 0
M  V30 1996 H 193.094 4.17493 -1.45437 0
M  V30 1997 N 192.153 1.28127 0.917671 0
M  V30 1998 C 193.063 1.13556 2.05286 0
M  V30 1999 C 194.079 0.0630914 1.73886 0
M  V30 2000 O 195.255 0.271598 1.9956 0
M  V30 2001 C 192.32 0.794676 3.3747 0
M  V30 2002 C 191.381 1.94909 3.82504 0
M  V30 2003 C 190.614 1.62437 5.0838 0
M  V30 2004 O 190.837 0.536905 5.67867 0
M  V30 2005 O 189.771 2.46677 5.4903 0
M  V30 2006 H 193.597 2.08844 2.20495 0
M  V30 2007 H 191.182 1.07409 1.03845 0
M  V30 2008 H 193.064 0.618344 4.16839 0
M  V30 2009 H 191.739 -0.128581 3.23445 0
M  V30 2010 H 190.646 2.18055 3.03978 0
M  V30 2011 H 191.979 2.85291 4.01086 0
M  V30 2012 N 193.631 -1.12557 1.10312 0
M  V30 2013 C 194.578 -2.18247 0.750781 0
M  V30 2014 C 195.548 -1.63853 -0.272293 0
M  V30 2015 O 196.733 -1.90195 -0.151862 0
M  V30 2016 C 193.873 -3.44591 0.187379 0
M  V30 2017 C 192.986 -4.13046 1.2656 0
M  V30 2018 C 192.121 -5.27034 0.663978 0
M  V30 2019 C 191.16 -5.87353 1.72287 0
M  V30 2020 N 190.297 -6.92757 1.1416 0
M  V30 2021 H 195.137 -2.47732 1.65628 0
M  V30 2022 H 192.674 -1.21629 0.827337 0
M  V30 2023 H 194.632 -4.16904 -0.157148 0
M  V30 2024 H 193.262 -3.15527 -0.681355 0
M  V30 2025 H 192.314 -3.38924 1.72727 0
M  V30 2026 H 193.626 -4.53947 2.06721 0
M  V30 2027 H 192.78 -6.06104 0.268824 0
M  V30 2028 H 191.519 -4.87407 -0.169082 0
M  V30 2029 H 190.524 -5.06971 2.12746 0
M  V30 2030 H 191.749 -6.29051 2.55875 0
M  V30 2031 H 189.695 -6.5517 0.329984 0
M  V30 2032 H 189.612 -7.3225 1.88007 0
M  V30 2033 H 190.88 -7.75658 0.772956 0
M  V30 2034 N 195.109 -0.891671 -1.2995 0
M  V30 2035 C 196.057 -0.353066 -2.29905 0
M  V30 2036 C 197.051 0.543509 -1.60444 0
M  V30 2037 O 198.257 0.4272 -1.74857 0
M  V30 2038 H 194.632 -0.095531 -0.745907 0
M  V30 2039 H 196.603 -1.20961 -2.72784 0
M  V30 2040 C 195.352 0.411475 -3.45257 0
M  V30 2041 H 194.675 -0.269182 -3.98893 0
M  V30 2042 H 196.115 0.753328 -4.17254 0
M  V30 2043 C 194.574 1.6111 -2.9588 0
M  V30 2044 O 195.104 2.71045 -2.96475 0
M  V30 2045 N 193.31 1.45054 -2.51809 0
M  V30 2046 H 192.857 0.556175 -2.51524 0
M  V30 2047 H 192.815 2.25453 -2.1913 0
M  V30 2048 N 196.587 1.43421 -0.653314 0
M  V30 2049 C 197.535 2.32546 0.0501531 0
M  V30 2050 C 198.529 1.48617 0.812985 0
M  V30 2051 O 199.735 1.64825 0.723375 0
M  V30 2052 H 196.11 0.751185 0.0350032 0
M  V30 2053 H 198.081 2.89602 -0.719261 0
M  V30 2054 C 196.83 3.32925 1.00279 0
M  V30 2055 H 196.153 3.97532 0.425236 0
M  V30 2056 H 197.593 3.9792 1.46409 0
M  V30 2057 C 196.052 2.63532 2.09886 0
M  V30 2058 O 196.582 2.45092 3.18265 0
M  V30 2059 N 194.788 2.22905 1.86445 0
M  V30 2060 H 194.335 2.38103 0.98309 0
M  V30 2061 H 194.293 1.76805 2.59976 0
M  V30 2062 N 198.065 0.39524 1.52563 0
M  V30 2063 C 199.476 -0.0774719 1.86539 0
M  V30 2064 C 199.827 -1.45641 1.31466 0
M  V30 2065 O 198.952 -2.06459 0.648367 0
M  V30 2066 C 199.547 -0.147356 3.38479 0
M  V30 2067 C 198.106 -0.564373 3.72145 0
M  V30 2068 C 197.253 0.269919 2.75983 0
M  V30 2069 H 200.204 0.612876 1.46388 0
M  V30 2070 H 200.225 -0.965343 3.68051 0
M  V30 2071 H 199.737 0.856387 3.78534 0
M  V30 2072 H 197.838 -1.57527 3.37663 0
M  V30 2073 H 197.951 -0.318402 4.78041 0
M  V30 2074 H 196.315 -0.265696 2.5331 0
M  V30 2075 H 197.098 1.27175 3.18875 0
M  V30 2076 N 199.544 -1.57102 0.125237 0
M  V30 2077 C 200.491 -2.15641 -0.822655 0
M  V30 2078 C 201.461 -1.08313 -1.25927 0
M  V30 2079 O 202.646 -1.36251 -1.33567 0
M  V30 2080 C 199.786 -2.76504 -2.06494 0
M  V30 2081 C 198.899 -3.98158 -1.67612 0
M  V30 2082 C 198.034 -4.47088 -2.86854 0
M  V30 2083 C 197.073 -5.6126 -2.44242 0
M  V30 2084 N 196.21 -6.04905 -3.56419 0
M  V30 2085 H 201.05 -2.96313 -0.316625 0
M  V30 2086 H 198.587 -1.46388 -0.144588 0
M  V30 2087 H 200.545 -3.09925 -2.79289 0
M  V30 2088 H 199.175 -1.98512 -2.54545 0
M  V30 2089 H 198.227 -3.70858 -0.846661 0
M  V30 2090 H 199.539 -4.80934 -1.32301 0
M  V30 2091 H 198.693 -4.82451 -3.67867 0
M  V30 2092 H 197.432 -3.63275 -3.25396 0
M  V30 2093 H 196.437 -5.25495 -1.61663 0
M  V30 2094 H 197.662 -6.46843 -2.0681 0
M  V30 2095 H 195.608 -5.24032 -3.94623 0
M  V30 2096 H 195.525 -6.82552 -3.25051 0
M  V30 2097 H 196.793 -6.44907 -4.37853 0
M  V30 2098 N 201.022 0.148545 -1.56898 0
M  V30 2099 C 201.969 1.18345 -1.98149 0
M  V30 2100 C 202.939 1.42772 -0.848848 0
M  V30 2101 O 204.124 1.55132 -1.11079 0
M  V30 2102 C 201.264 2.51231 -2.36594 0
M  V30 2103 C 200.377 2.33991 -3.63142 0
M  V30 2104 C 199.512 3.59902 -3.90697 0
M  V30 2105 C 198.551 3.37692 -5.1052 0
M  V30 2106 N 197.688 4.5573 -5.34092 0
M  V30 2107 H 202.528 0.82467 -2.86362 0
M  V30 2108 H 200.065 0.395756 -1.41676 0
M  V30 2109 H 202.023 3.28713 -2.56912 0
M  V30 2110 H 200.653 2.85059 -1.51463 0
M  V30 2111 H 199.705 1.47572 -3.50609 0
M  V30 2112 H 201.017 2.13539 -4.5078 0
M  V30 2113 H 200.171 4.45813 -4.11505 0
M  V30 2114 H 198.91 3.83357 -3.01477 0
M  V30 2115 H 197.915 2.5017 -4.89587 0
M  V30 2116 H 199.14 3.15637 -6.0129 0
M  V30 2117 H 197.086 4.79361 -4.47827 0
M  V30 2118 H 197.003 4.38274 -6.15996 0
M  V30 2119 H 198.271 5.42858 -5.59397 0
M  V30 2120 N 202.5 1.5196 0.417844 0
M  V30 2121 C 203.463 1.74065 1.49111 0
M  V30 2122 C 204.463 0.610537 1.48758 0
M  V30 2123 O 205.653 0.87832 1.50437 0
M  V30 2124 C 202.785 1.81502 2.88565 0
M  V30 2125 H 203.978 2.69869 1.30807 0
M  V30 2126 H 201.531 1.42244 0.647785 0
M  V30 2127 H 202.266 0.875813 3.1225 0
M  V30 2128 H 202.051 2.63651 2.90225 0
M  V30 2129 H 203.541 2.00376 3.66387 0
M  V30 2130 N 203.978 -0.674533 1.42435 0
M  V30 2131 C 205.203 -1.46784 1.46524 0
M  V30 2132 C 205.628 -1.87938 0.078066 0
M  V30 2133 O 204.986 -1.56014 -0.92354 0
M  V30 2134 C 205.034 -2.69307 2.39805 0
M  V30 2135 O 204.138 -3.67587 1.86959 0
M  V30 2136 H 203.479 -0.440959 0.496439 0
M  V30 2137 H 206.009 -0.827326 1.87127 0
M  V30 2138 H 206.019 -3.17374 2.56393 0
M  V30 2139 H 204.694 -2.38692 3.40586 0
M  V30 2140 H 203.271 -3.2662 1.79927 0
M  V30 2141 N 205.456 -1.28612 -0.910864 0
M  V30 2142 C 206.702 -1.17116 -1.66299 0
M  V30 2143 C 207.057 0.276917 -1.90397 0
M  V30 2144 O 206.35 1.19795 -1.49532 0
M  V30 2145 C 206.544 -1.90624 -3.0232 0
M  V30 2146 C 206.373 -3.42431 -2.91498 0
M  V30 2147 C 205.143 -4.11773 -2.92867 0
M  V30 2148 C 207.341 -4.38124 -2.69355 0
M  V30 2149 N 205.323 -5.50025 -2.72664 0
M  V30 2150 C 206.694 -5.63759 -2.58023 0
M  V30 2151 C 208.749 -4.28016 -2.54375 0
M  V30 2152 C 207.452 -6.80436 -2.33238 0
M  V30 2153 C 209.478 -5.44433 -2.30969 0
M  V30 2154 C 208.84 -6.69034 -2.20394 0
M  V30 2155 H 204.939 -0.483506 -0.61461 0
M  V30 2156 H 207.523 -1.62299 -1.0755 0
M  V30 2157 H 205.694 -1.4787 -3.5915 0
M  V30 2158 H 207.426 -1.71488 -3.66571 0
M  V30 2159 H 204.181 -3.63378 -3.03732 0
M  V30 2160 H 204.605 -6.22705 -2.65646 0
M  V30 2161 H 209.247 -3.32388 -2.613 0
M  V30 2162 H 206.965 -7.7613 -2.25051 0
M  V30 2163 H 210.551 -5.38504 -2.20238 0
M  V30 2164 H 209.431 -7.57595 -2.02531 0
M  V30 2165 N 206.934 1.1197 -1.10907 0
M  V30 2166 C 208.162 1.87402 -0.876824 0
M  V30 2167 C 208.577 1.79894 0.573025 0
M  V30 2168 O 207.934 1.17629 1.39534 0
M  V30 2169 C 207.985 3.36428 -1.32282 0
M  V30 2170 O 207.706 3.43765 -2.71582 0
M  V30 2171 C 209.207 4.28783 -1.12518 0
M  V30 2172 H 206.427 0.592793 -0.314384 0
M  V30 2173 H 208.971 1.41649 -1.47499 0
M  V30 2174 H 207.126 3.79706 -0.768229 0
M  V30 2175 H 207.54 4.3652 -2.90776 0
M  V30 2176 H 209.014 5.31613 -1.48633 0
M  V30 2177 H 209.491 4.39153 -0.0642394 0
M  V30 2178 H 210.097 3.91291 -1.66648 0
M  V30 2179 N 208.412 0.89855 1.29475 0
M  V30 2180 C 209.658 0.534065 1.96263 0
M  V30 2181 C 210.013 -0.909415 1.69551 0
M  V30 2182 O 209.306 -1.63596 0.997349 0
M  V30 2183 C 209.5 0.761398 3.49195 0
M  V30 2184 C 209.329 2.22542 3.90775 0
M  V30 2185 C 208.099 2.87264 4.15701 0
M  V30 2186 C 210.297 3.20051 4.02581 0
M  V30 2187 N 208.279 4.24121 4.4384 0
M  V30 2188 C 209.65 4.42023 4.34759 0
M  V30 2189 C 211.705 3.15657 3.85052 0
M  V30 2190 C 210.408 5.60161 4.51235 0
M  V30 2191 C 212.434 4.33078 4.02737 0
M  V30 2192 C 211.796 5.5382 4.35273 0
M  V30 2193 H 207.895 0.245013 0.742625 0
M  V30 2194 H 210.479 1.15912 1.56437 0
M  V30 2195 H 208.65 0.165732 3.88046 0
M  V30 2196 H 210.382 0.362462 4.03074 0
M  V30 2197 H 207.137 2.38064 4.09417 0
M  V30 2198 H 207.561 4.94839 4.6202 0
M  V30 2199 H 212.203 2.23396 3.58962 0
M  V30 2200 H 209.921 6.52913 4.76162 0
M  V30 2201 H 213.507 4.31163 3.90628 0
M  V30 2202 H 212.387 6.43166 4.48672 0
M  V30 2203 N 209.89 -1.43072 0.660911 0
M  V30 2204 C 211.138 -2.01323 0.177094 0
M  V30 2205 C 211.459 -1.5245 -1.2159 0
M  V30 2206 O 210.729 -0.740322 -1.81373 0
M  V30 2207 H 209.309 -0.744382 0.0624804 0
M  V30 2208 H 211.971 -1.75179 0.854305 0
M  V30 2209 H 211.067 -3.11649 0.167641 0
M  V30 2210 N 211.368 -0.403325 -1.52352 0
M  V30 2211 C 212.779 0.0675782 -1.86578 0
M  V30 2212 C 213.13 1.44941 -1.32236 0
M  V30 2213 O 212.255 2.06112 -0.659307 0
M  V30 2214 C 212.85 0.129404 -3.38553 0
M  V30 2215 C 211.409 0.544629 -3.72439 0
M  V30 2216 C 210.556 -0.284551 -2.75836 0
M  V30 2217 H 213.507 -0.620631 -1.46061 0
M  V30 2218 H 213.528 0.94581 -3.68558 0
M  V30 2219 H 213.04 -0.87645 -3.78074 0
M  V30 2220 H 211.141 1.55734 -3.38493 0
M  V30 2221 H 211.254 0.293046 -4.78203 0
M  V30 2222 H 209.618 0.252258 -2.53448 0
M  V30 2223 H 210.401 -1.28865 -3.18196 0
M  V30 2224 N 212.846 1.57033 -0.133567 0
M  V30 2225 C 213.756 2.19632 0.824564 0
M  V30 2226 C 214.772 1.17666 1.28182 0
M  V30 2227 O 215.948 1.50193 1.3418 0
M  V30 2228 C 213.013 2.79499 2.05137 0
M  V30 2229 C 212.074 3.96548 1.64464 0
M  V30 2230 C 211.307 4.5355 2.81297 0
M  V30 2231 O 211.53 4.09438 3.97136 0
M  V30 2232 O 210.464 5.44018 2.57542 0
M  V30 2233 H 214.29 3.01991 0.321766 0
M  V30 2234 H 211.875 1.49112 0.0927889 0
M  V30 2235 H 213.757 3.17602 2.7696 0
M  V30 2236 H 212.432 2.00162 2.54395 0
M  V30 2237 H 211.339 3.63186 0.897048 0
M  V30 2238 H 212.672 4.77364 1.19934 0
M  V30 2239 N 214.325 -0.140222 1.56975 0
M  V30 2240 C 215.573 -0.850005 1.83356 0
M  V30 2241 C 215.894 -1.81399 0.71551 0
M  V30 2242 O 215.164 -1.94136 -0.262294 0
M  V30 2243 H 213.744 -0.316886 0.676456 0
M  V30 2244 H 216.406 -0.132608 1.94448 0
M  V30 2245 H 215.502 -1.40814 2.78528 0
M  V30 2246 N 215.803 -1.52179 -0.40978 0
M  V30 2247 C 216.735 -1.71703 -1.51825 0
M  V30 2248 C 217.748 -0.597445 -1.51441 0
M  V30 2249 O 218.937 -0.872582 -1.55719 0
M  V30 2250 C 216.037 -1.74171 -2.90719 0
M  V30 2251 C 215.21 -3.03156 -3.15302 0
M  V30 2252 C 214.269 -2.97445 -4.34065 0
M  V30 2253 O 213.295 -3.71352 -4.31377 0
M  V30 2254 N 214.497 -2.15191 -5.39141 0
M  V30 2255 H 217.262 -2.67334 -1.35472 0
M  V30 2256 H 214.823 -1.50409 -0.599069 0
M  V30 2257 H 216.815 -1.67884 -3.68235 0
M  V30 2258 H 215.385 -0.860166 -3.00533 0
M  V30 2259 H 214.605 -3.23097 -2.25836 0
M  V30 2260 H 215.893 -3.88484 -3.28569 0
M  V30 2261 H 215.291 -1.54573 -5.44173 0
M  V30 2262 H 213.848 -2.1476 -6.15403 0
M  V30 2263 N 217.281 0.66697 -1.42791 0
M  V30 2264 C 218.529 1.42417 -1.43394 0
M  V30 2265 C 218.85 1.94925 -0.0542373 0
M  V30 2266 O 218.12 1.73564 0.908415 0
M  V30 2267 H 216.7 0.528515 -0.527902 0
M  V30 2268 H 219.362 0.787562 -1.78279 0
M  V30 2269 H 218.458 2.27333 -2.13837 0
M  V30 2270 N 218.759 1.29093 0.90403 0
M  V30 2271 C 219.722 1.1386 1.98919 0
M  V30 2272 C 220.722 0.0753457 1.60623 0
M  V30 2273 O 221.912 0.321931 1.71199 0
M  V30 2274 C 219.044 0.740198 3.32767 0
M  V30 2275 H 220.237 2.10246 2.13861 0
M  V30 2276 H 217.79 1.12218 1.08797 0
M  V30 2277 H 218.525 -0.223997 3.23525 0
M  V30 2278 H 218.31 1.50838 3.61926 0
M  V30 2279 H 219.8 0.656546 4.12407 0
M  V30 2280 N 220.237 -1.11381 1.11499 0
M  V30 2281 C 221.486 -1.82494 0.858993 0
M  V30 2282 C 221.799 -1.85605 -0.617278 0
M  V30 2283 O 223.005 -2.52824 -0.989552 0
M  V30 2284 C 221.461 -3.27745 1.48699 0
M  V30 2285 C 221.069 -3.32961 2.99735 0
M  V30 2286 C 222.813 -4.03754 1.31085 0
M  V30 2287 C 220.72 -4.72612 3.55516 0
M  V30 2288 H 219.65 -0.683802 0.317696 0
M  V30 2289 H 222.301 -1.25331 1.34031 0
M  V30 2290 H 220.683 -3.84844 0.933339 0
M  V30 2291 H 221.857 -2.85741 3.61509 0
M  V30 2292 H 220.172 -2.70433 3.16631 0
M  V30 2293 H 222.769 -5.06891 1.70192 0
M  V30 2294 H 223.112 -4.15527 0.253496 0
M  V30 2295 H 223.645 -3.53043 1.83318 0
M  V30 2296 H 220.384 -4.66036 4.60967 0
M  V30 2297 H 219.904 -5.2024 2.98513 0
M  V30 2298 H 221.583 -5.4157 3.53992 0
M  V30 2299 N 221.715 -0.905404 -1.28997 0
M  V30 2300 C 222.645 -0.404212 -2.29975 0
M  V30 2301 C 223.626 0.523784 -1.61835 0
M  V30 2302 O 224.811 0.433298 -1.89304 0
M  V30 2303 C 221.941 0.364042 -3.45387 0
M  V30 2304 C 220.895 -0.474048 -4.25367 0
M  V30 2305 C 220.221 0.422045 -5.33032 0
M  V30 2306 C 221.521 -1.72696 -4.92923 0
M  V30 2307 H 223.215 -1.24807 -2.72146 0
M  V30 2308 H 220.761 -0.601585 -1.30832 0
M  V30 2309 H 222.714 0.725447 -4.15109 0
M  V30 2310 H 221.438 1.24174 -3.02074 0
M  V30 2311 H 220.097 -0.81786 -3.57361 0
M  V30 2312 H 219.745 1.29804 -4.85963 0
M  V30 2313 H 219.445 -0.135057 -5.87445 0
M  V30 2314 H 220.969 0.779517 -6.05604 0
M  V30 2315 H 222.383 -1.43495 -5.55051 0
M  V30 2316 H 220.78 -2.22582 -5.57295 0
M  V30 2317 H 221.85 -2.45964 -4.17887 0
M  V30 2318 N 223.193 1.4272 -0.668489 0
M  V30 2319 C 224.123 2.335 -0.000100175 0
M  V30 2320 C 225.104 1.50328 0.795964 0
M  V30 2321 O 226.289 1.78949 0.754385 0
M  V30 2322 C 223.419 3.33874 0.956302 0
M  V30 2323 C 222.373 4.27152 0.269278 0
M  V30 2324 C 221.699 5.17684 1.33818 0
M  V30 2325 C 222.999 5.15373 -0.847805 0
M  V30 2326 H 224.693 2.89639 -0.758244 0
M  V30 2327 H 222.239 1.39269 -0.366079 0
M  V30 2328 H 224.192 3.9629 1.43292 0
M  V30 2329 H 222.916 2.76025 1.74579 0
M  V30 2330 H 221.575 3.66123 -0.187042 0
M  V30 2331 H 221.223 4.56165 2.1195 0
M  V30 2332 H 220.923 5.80918 0.883659 0
M  V30 2333 H 222.447 5.82974 1.81586 0
M  V30 2334 H 223.861 5.7151 -0.452681 0
M  V30 2335 H 222.258 5.87407 -1.22773 0
M  V30 2336 H 223.328 4.5415 -1.69929 0
M  V30 2337 N 224.671 0.411399 1.52136 0
M  V30 2338 C 225.917 -0.163888 2.02137 0
M  V30 2339 C 226.25 -1.44597 1.29636 0
M  V30 2340 O 225.525 -1.90272 0.403353 0
M  V30 2341 C 225.808 -0.40927 3.57767 0
M  V30 2342 C 225.661 0.889643 4.40914 0
M  V30 2343 C 226.98 -1.19042 4.23694 0
M  V30 2344 H 224.099 -0.0580896 0.734707 0
M  V30 2345 H 226.741 0.54531 1.82007 0
M  V30 2346 H 224.891 -1.0134 3.7505 0
M  V30 2347 H 226.563 1.52575 4.35337 0
M  V30 2348 H 224.806 1.50011 4.07037 0
M  V30 2349 H 225.477 0.672314 5.4789 0
M  V30 2350 H 227.953 -0.678942 4.10524 0
M  V30 2351 H 226.829 -1.33086 5.32522 0
M  V30 2352 H 227.09 -2.21166 3.82803 0
M  V30 2353 N 226.149 -1.5696 0.141893 0
M  V30 2354 C 227.097 -2.17784 -0.816874 0
M  V30 2355 C 228.091 -1.1334 -1.25899 0
M  V30 2356 O 229.297 -1.316 -1.22806 0
M  V30 2357 H 225.672 -0.697278 -0.281615 0
M  V30 2358 H 227.643 -2.97087 -0.279621 0
M  V30 2359 C 226.392 -2.80983 -2.04802 0
M  V30 2360 H 225.715 -3.61062 -1.7168 0
M  V30 2361 H 227.155 -3.2705 -2.69841 0
M  V30 2362 C 225.614 -1.79228 -2.8527 0
M  V30 2363 O 226.144 -1.25962 -3.8144 0
M  V30 2364 N 224.35 -1.48647 -2.49704 0
M  V30 2365 H 223.897 -1.92155 -1.71564 0
M  V30 2366 H 223.855 -0.808115 -3.03837 0
M  V30 2367 N 227.627 0.131896 -1.57047 0
M  V30 2368 C 228.867 0.847972 -1.85981 0
M  V30 2369 C 229.231 1.77655 -0.7282 0
M  V30 2370 O 230.432 2.53322 -0.898968 0
M  V30 2371 C 228.703 1.58919 -3.20124 0
M  V30 2372 S 230.262 2.34862 -3.70655 0
M  V30 2373 H 227.08 0.283273 -0.652133 0
M  V30 2374 H 229.682 0.107057 -1.95207 0
M  V30 2375 H 228.386 0.898771 -4.00438 0
M  V30 2376 H 227.917 2.37073 -3.13942 0
M  V30 2377 H 229.932 3.60344 -3.41126 0
M  V30 2378 N 229.106 1.52395 0.401703 0
M  V30 2379 C 230.383 1.57387 1.16141 0
M  V30 2380 C 230.763 0.359359 2.08019 0
M  V30 2381 O 230.111 -0.65326 2.18963 0
M  V30 2382 C 230.321 2.90631 1.93221 0
M  V30 2383 C 231.669 3.43904 2.49028 0
M  V30 2384 O 232.693 2.92421 2.03393 0
M  V30 2385 O 231.552 4.33823 3.32356 0
M  V30 2386 H 228.646 0.634262 0.530698 0
M  V30 2387 H 231.192 1.64725 0.407883 0
M  V30 2388 H 229.964 3.70473 1.25958 0
M  V30 2389 H 229.587 2.8662 2.75563 0
M  V30 2390 N 230.584 -0.659388 1.43143 0
M  V30 2391 C 232 -0.974337 1.26407 0
M  V30 2392 C 232.2 -2.007 0.179341 0
M  V30 2393 O 231.256 -2.4856 -0.444295 0
M  V30 2394 C 232.569 -1.46447 2.62628 0
M  V30 2395 C 234.117 -1.58144 2.7011 0
M  V30 2396 C 234.592 -2.1055 4.06734 0
M  V30 2397 N 236.083 -2.17861 4.08767 0
M  V30 2398 C 236.818 -2.59519 5.1131 0
M  V30 2399 N 236.314 -3.00518 6.24228 0
M  V30 2400 N 238.107 -2.59404 4.98664 0
M  V30 2401 H 230.258 0.0240528 2.12386 0
M  V30 2402 H 232.521 -0.0518065 0.946583 0
M  V30 2403 H 232.227 -0.780123 3.42939 0
M  V30 2404 H 232.101 -2.44058 2.87603 0
M  V30 2405 H 234.488 -2.25682 1.90136 0
M  V30 2406 H 234.569 -0.589828 2.48907 0
M  V30 2407 H 234.213 -1.43616 4.87172 0
M  V30 2408 H 234.143 -3.10531 4.25298 0
M  V30 2409 H 236.634 -1.88975 3.27257 0
M  V30 2410 H 236.947 -3.31036 6.98309 0
M  V30 2411 H 235.292 -2.98337 6.2771 0
M  V30 2412 H 238.483 -2.26747 4.09516 0
M  V30 2413 H 238.656 -2.91548 5.78709 0
M  V30 2414 N 232.062 -1.29571 -0.897171 0
M  V30 2415 C 232.972 -1.16808 -2.03453 0
M  V30 2416 C 233.988 -0.0907471 -1.73763 0
M  V30 2417 O 235.164 -0.303312 -1.99103 0
M  V30 2418 C 232.229 -0.848264 -3.36163 0
M  V30 2419 C 231.29 -2.0097 -3.79354 0
M  V30 2420 C 230.523 -1.70505 -5.05731 0
M  V30 2421 O 230.746 -0.62718 -5.66941 0
M  V30 2422 O 229.68 -2.5538 -5.45036 0
M  V30 2423 H 233.506 -2.12325 -2.17144 0
M  V30 2424 H 231.091 -1.09047 -1.02123 0
M  V30 2425 H 232.973 -0.684581 -4.15802 0
M  V30 2426 H 231.648 0.0771071 -3.23608 0
M  V30 2427 H 230.555 -2.22863 -3.00471 0
M  V30 2428 H 231.888 -2.91636 -3.96496 0
M  V30 2429 N 233.54 1.10788 -1.12088 0
M  V30 2430 C 234.768 1.86461 -0.896651 0
M  V30 2431 C 235.183 1.80492 0.553912 0
M  V30 2432 O 234.54 1.19102 1.38278 0
M  V30 2433 C 234.591 3.35006 -1.35843 0
M  V30 2434 O 234.312 3.40866 -2.75213 0
M  V30 2435 C 235.813 4.27565 -1.1706 0
M  V30 2436 H 233.033 0.589425 -0.320654 0
M  V30 2437 H 235.577 1.40076 -1.48993 0
M  V30 2438 H 233.732 3.7887 -0.808458 0
M  V30 2439 H 234.146 4.33411 -2.9539 0
M  V30 2440 H 235.62 5.30007 -1.54263 0
M  V30 2441 H 236.097 4.3906 -0.110814 0
M  V30 2442 H 236.703 3.89501 -1.70789 0
M  V30 2443 N 235.018 0.912232 1.28515 0
M  V30 2444 C 236.429 0.591352 1.77087 0
M  V30 2445 C 236.78 -0.8933 1.74684 0
M  V30 2446 O 235.905 -1.69876 1.34056 0
M  V30 2447 C 236.5 1.06668 3.2157 0
M  V30 2448 C 235.059 0.79675 3.67871 0
M  V30 2449 C 234.206 1.23427 2.48316 0
M  V30 2450 H 237.157 1.09365 1.15 0
M  V30 2451 H 237.178 0.407455 3.78312 0
M  V30 2452 H 236.69 2.14726 3.23287 0
M  V30 2453 H 234.791 -0.270679 3.71616 0
M  V30 2454 H 234.904 1.40343 4.58084 0
M  V30 2455 H 233.268 0.653036 2.46186 0
M  V30 2456 H 234.051 2.32316 2.52753 0
M  V30 2457 N 236.496 -1.42363 0.676048 0
M  V30 2458 C 237.742 -2.02336 0.207809 0
M  V30 2459 C 238.097 -1.52506 -1.17302 0
M  V30 2460 O 237.39 -0.718048 -1.77636 0
M  V30 2461 C 237.584 -3.56929 0.183431 0
M  V30 2462 C 237.413 -4.21762 1.56036 0
M  V30 2463 C 236.183 -4.56881 2.15842 0
M  V30 2464 C 238.381 -4.49267 2.50327 0
M  V30 2465 N 236.363 -5.069 3.46303 0
M  V30 2466 C 237.734 -5.00851 3.65443 0
M  V30 2467 C 239.789 -4.31257 2.48841 0
M  V30 2468 C 238.492 -5.36317 4.79329 0
M  V30 2469 C 240.518 -4.678 3.61824 0
M  V30 2470 C 239.88 -5.19537 4.75668 0
M  V30 2471 H 235.979 -0.772583 0.120993 0
M  V30 2472 H 238.563 -1.73203 0.889306 0
M  V30 2473 H 236.734 -3.85576 -0.467483 0
M  V30 2474 H 238.466 -4.03603 -0.297808 0
M  V30 2475 H 235.221 -4.4268 1.68319 0
M  V30 2476 H 235.645 -5.36338 4.13123 0
M  V30 2477 H 240.287 -3.90511 1.62051 0
M  V30 2478 H 238.005 -5.75995 5.66794 0
M  V30 2479 H 241.591 -4.55541 3.61903 0
M  V30 2480 H 240.471 -5.47287 5.61646 0
M  V30 2481 N 237.974 -0.419461 -1.51915 0
M  V30 2482 C 238.904 0.391813 -2.30189 0
M  V30 2483 C 239.885 1.03699 -1.34836 0
M  V30 2484 O 241.07 1.04403 -1.63748 0
M  V30 2485 C 238.2 1.50312 -3.13087 0
M  V30 2486 C 237.154 0.9824 -4.16573 0
M  V30 2487 C 236.48 2.18809 -4.8788 0
M  V30 2488 C 237.78 0.0292356 -5.22292 0
M  V30 2489 H 239.474 -0.26135 -2.98257 0
M  V30 2490 H 237.02 -0.127134 -1.43438 0
M  V30 2491 H 238.973 2.07773 -3.66617 0
M  V30 2492 H 237.697 2.18431 -2.42807 0
M  V30 2493 H 236.356 0.430119 -3.64068 0
M  V30 2494 H 236.004 2.85507 -4.14119 0
M  V30 2495 H 235.704 1.84615 -5.57845 0
M  V30 2496 H 237.228 2.76858 -5.44226 0
M  V30 2497 H 238.642 0.512976 -5.71 0
M  V30 2498 H 237.039 -0.2244 -5.9968 0
M  V30 2499 H 238.109 -0.912931 -4.76228 0
M  V30 2500 N 239.452 1.56882 -0.150215 0
M  V30 2501 C 240.863 1.82995 0.370076 0
M  V30 2502 C 241.214 1.06907 1.64515 0
M  V30 2503 O 240.339 0.315369 2.1409 0
M  V30 2504 C 240.934 3.31942 0.678208 0
M  V30 2505 C 239.493 3.58625 1.14301 0
M  V30 2506 C 238.64 2.76792 0.167778 0
M  V30 2507 H 241.591 1.54209 -0.374858 0
M  V30 2508 H 241.612 3.48272 1.53254 0
M  V30 2509 H 241.124 3.87294 -0.249991 0
M  V30 2510 H 239.225 3.08664 2.08704 0
M  V30 2511 H 239.338 4.67073 1.06676 0
M  V30 2512 H 237.702 2.45972 0.661037 0
M  V30 2513 H 238.485 3.34916 -0.754069 0
M  V30 2514 N 240.93 -0.123565 1.57115 0
M  V30 2515 C 241.877 -1.15177 2.00007 0
M  V30 2516 C 242.847 -1.41403 0.871454 0
M  V30 2517 O 244.032 -1.53346 1.13533 0
M  V30 2518 C 241.172 -2.47436 2.40561 0
M  V30 2519 C 240.285 -2.28184 3.66819 0
M  V30 2520 C 239.42 -3.53641 3.96373 0
M  V30 2521 C 238.459 -3.29528 5.15827 0
M  V30 2522 N 237.596 -4.47175 5.41275 0
M  V30 2523 H 242.436 -0.779008 2.87638 0
M  V30 2524 H 239.973 -0.373166 1.42288 0
M  V30 2525 H 241.931 -3.24584 2.62109 0
M  V30 2526 H 240.561 -2.82614 1.55978 0
M  V30 2527 H 239.613 -1.41976 3.52912 0
M  V30 2528 H 240.925 -2.0634 4.5412 0
M  V30 2529 H 240.079 -4.39209 4.18545 0
M  V30 2530 H 238.818 -3.78512 3.07538 0
M  V30 2531 H 237.823 -2.42349 4.93505 0
M  V30 2532 H 239.048 -3.06031 6.06236 0
M  V30 2533 H 236.994 -4.72175 4.55397 0
M  V30 2534 H 236.911 -4.28419 6.22891 0
M  V30 2535 H 238.179 -5.3389 5.67963 0
M  V30 2536 N 242.408 -1.52605 -0.393616 0
M  V30 2537 C 243.318 -1.79971 -1.50492 0
M  V30 2538 C 244.334 -0.686181 -1.59899 0
M  V30 2539 O 245.51 -0.973274 -1.76322 0
M  V30 2540 C 242.575 -1.95867 -2.86072 0
M  V30 2541 C 241.636 -3.19781 -2.86424 0
M  V30 2542 C 240.869 -3.34909 -4.15538 0
M  V30 2543 O 241.092 -2.54948 -5.10253 0
M  V30 2544 O 240.026 -4.28141 -4.23059 0
M  V30 2545 H 243.852 -2.74328 -1.30299 0
M  V30 2546 H 241.437 -1.3764 -0.581005 0
M  V30 2547 H 243.319 -2.08056 -3.66457 0
M  V30 2548 H 241.994 -1.04699 -3.063 0
M  V30 2549 H 240.901 -3.13038 -2.04837 0
M  V30 2550 H 242.234 -4.1078 -2.71147 0
M  V30 2551 N 243.887 0.651787 -1.4349 0
M  V30 2552 C 245.164 1.40909 -1.35661 0
M  V30 2553 C 245.544 2.11099 -0.00511733 0
M  V30 2554 O 244.892 2.04892 1.0115 0
M  V30 2555 C 245.102 2.3926 -2.54078 0
M  V30 2556 C 246.45 3.03217 -2.97228 0
M  V30 2557 O 247.474 2.49588 -2.54135 0
M  V30 2558 O 246.333 4.00455 -3.71885 0
M  V30 2559 H 243.427 0.629625 -0.536191 0
M  V30 2560 H 245.973 0.678575 -1.55542 0
M  V30 2561 H 244.745 1.86352 -3.44076 0
M  V30 2562 H 244.368 3.1976 -2.36303 0
M  V30 2563 N 245.365 1.30045 0.890287 0
M  V30 2564 C 246.605 1.19839 1.65584 0
M  V30 2565 C 246.969 -0.244175 1.90441 0
M  V30 2566 O 248.17 -0.469378 2.6467 0
M  V30 2567 C 246.441 1.99876 2.96284 0
M  V30 2568 S 248 2.06309 3.87275 0
M  V30 2569 H 244.818 0.427157 0.568382 0
M  V30 2570 H 247.42 1.64453 1.05715 0
M  V30 2571 H 246.124 3.03809 2.75913 0
M  V30 2572 H 245.655 1.55903 3.61189 0
M  V30 2573 H 247.67 1.18661 4.81803 0
M  V30 2574 N 246.843 -1.10192 1.12674 0
M  V30 2575 C 248.259 -1.34235 0.863317 0
M  V30 2576 C 248.459 -1.95062 -0.505277 0
M  V30 2577 O 247.515 -2.19192 -1.25345 0
M  V30 2578 C 248.828 -2.2616 1.98172 0
M  V30 2579 C 250.376 -2.3969 2.0129 0
M  V30 2580 C 250.851 -3.34946 3.1237 0
M  V30 2581 N 252.342 -3.42515 3.11829 0
M  V30 2582 C 253.077 -4.16199 3.94419 0
M  V30 2583 N 252.573 -4.92747 4.87004 0
M  V30 2584 N 254.366 -4.11843 3.82547 0
M  V30 2585 H 246.517 -0.690798 2.00853 0
M  V30 2586 H 248.78 -0.366774 0.874174 0
M  V30 2587 H 248.486 -1.8868 2.96804 0
M  V30 2588 H 248.36 -3.26488 1.88906 0
M  V30 2589 H 250.747 -2.76438 1.03276 0
M  V30 2590 H 250.828 -1.39169 2.14629 0
M  V30 2591 H 250.472 -2.98923 4.10619 0
M  V30 2592 H 250.402 -4.35353 2.96269 0
M  V30 2593 H 252.893 -2.87926 2.44759 0
M  V30 2594 H 253.206 -5.46376 5.46528 0
M  V30 2595 H 251.551 -4.91862 4.91016 0
M  V30 2596 H 254.742 -3.51136 3.0955 0
M  V30 2597 H 254.915 -4.69007 4.47142 0
M  V30 2598 N 248.321 -0.919034 -1.28029 0
M  V30 2599 C 249.598 -0.473668 -1.89778 0
M  V30 2600 C 249.978 1.04783 -1.83259 0
M  V30 2601 O 249.326 1.8982 -1.27202 0
M  V30 2602 C 249.536 -1.00998 -3.34066 0
M  V30 2603 C 250.884 -1.06525 -4.1102 0
M  V30 2604 O 251.908 -0.958996 -3.43048 0
M  V30 2605 O 250.767 -1.22776 -5.3253 0
M  V30 2606 H 247.861 -0.15098 -0.813101 0
M  V30 2607 H 250.407 -1.01016 -1.36359 0
M  V30 2608 H 249.179 -2.05392 -3.33061 0
M  V30 2609 H 248.802 -0.454626 -3.94992 0
M  V30 2610 N 249.799 1.42003 -0.683588 0
M  V30 2611 C 250.709 2.34597 -0.0109075 0
M  V30 2612 C 251.725 1.55576 0.779245 0
M  V30 2613 O 252.901 1.88107 0.719555 0
M  V30 2614 C 249.966 3.34199 0.922588 0
M  V30 2615 C 249.027 4.29115 0.125984 0
M  V30 2616 C 248.26 5.23959 1.01502 0
M  V30 2617 O 248.483 5.23952 2.25456 0
M  V30 2618 O 247.417 6.00053 0.47111 0
M  V30 2619 H 251.243 2.93675 -0.773853 0
M  V30 2620 H 248.828 1.42654 -0.443861 0
M  V30 2621 H 250.71 3.95365 1.45823 0
M  V30 2622 H 249.385 2.77582 1.66523 0
M  V30 2623 H 248.292 3.71335 -0.453969 0
M  V30 2624 H 249.625 4.88798 -0.577736 0
M  V30 2625 N 251.277 0.427512 1.51691 0
M  V30 2626 C 252.224 -0.388867 2.275 0
M  V30 2627 C 253.194 -1.02532 1.30677 0
M  V30 2628 O 254.379 -1.0461 1.59566 0
M  V30 2629 C 251.519 -1.48954 3.11298 0
M  V30 2630 C 250.632 -0.872194 4.23104 0
M  V30 2631 C 249.767 -1.94709 4.94228 0
M  V30 2632 C 248.806 -1.30766 5.97969 0
M  V30 2633 N 247.943 -2.32349 6.62539 0
M  V30 2634 H 252.783 0.263997 2.96828 0
M  V30 2635 H 250.32 0.142033 1.46413 0
M  V30 2636 H 252.278 -2.13887 3.58201 0
M  V30 2637 H 250.908 -2.11217 2.44105 0
M  V30 2638 H 249.96 -0.111419 3.80237 0
M  V30 2639 H 251.272 -0.365264 4.97461 0
M  V30 2640 H 250.426 -2.67327 5.44629 0
M  V30 2641 H 249.165 -2.48773 4.1948 0
M  V30 2642 H 248.17 -0.566902 5.4687 0
M  V30 2643 H 249.395 -0.774483 6.74669 0
M  V30 2644 H 247.341 -2.85511 5.90609 0
M  V30 2645 H 247.258 -1.8652 7.3263 0
M  V30 2646 H 248.526 -3.04481 7.17574 0
M  V30 2647 N 252.755 -1.56801 0.158532 0
M  V30 2648 C 254.001 -1.96781 -0.490405 0
M  V30 2649 C 254.334 -1.04397 -1.63753 0
M  V30 2650 O 253.609 -0.0885805 -1.94298 0
M  V30 2651 C 253.892 -3.4635 -0.985594 0
M  V30 2652 C 253.745 -4.49512 0.160824 0
M  V30 2653 C 255.064 -3.98697 -1.86355 0
M  V30 2654 H 252.183 -0.715482 -0.176788 0
M  V30 2655 H 254.825 -1.88451 0.242088 0
M  V30 2656 H 252.975 -3.53579 -1.60978 0
M  V30 2657 H 254.647 -4.54353 0.797537 0
M  V30 2658 H 252.89 -4.26013 0.818256 0
M  V30 2659 H 253.561 -5.51531 -0.227569 0
M  V30 2660 H 256.037 -3.94019 -1.33746 0
M  V30 2661 H 254.913 -5.03792 -2.17909 0
M  V30 2662 H 255.174 -3.41744 -2.8047 0
M  V30 2663 N 254.233 0.115231 -1.57178 0
M  V30 2664 C 255.463 0.835224 -1.88964 0
M  V30 2665 C 255.871 1.73774 -0.74829 0
M  V30 2666 O 255.214 1.81401 0.289739 0
M  V30 2667 C 255.276 1.7178 -3.15804 0
M  V30 2668 C 254.94 0.989198 -4.46166 0
M  V30 2669 C 255.937 0.328263 -5.18863 0
M  V30 2670 C 253.622 0.969256 -4.9286 0
M  V30 2671 C 255.616 -0.342873 -6.36477 0
M  V30 2672 C 253.303 0.294324 -6.10391 0
M  V30 2673 C 254.301 -0.360582 -6.82048 0
M  V30 2674 O 253.989 -1.02474 -7.97342 0
M  V30 2675 H 253.721 0.245197 -0.629964 0
M  V30 2676 H 256.275 0.10303 -2.05141 0
M  V30 2677 H 254.505 2.49173 -2.95719 0
M  V30 2678 H 256.194 2.31255 -3.33581 0
M  V30 2679 H 256.96 0.335263 -4.8384 0
M  V30 2680 H 252.839 1.46844 -4.36987 0
M  V30 2681 H 256.383 -0.854629 -6.92345 0
M  V30 2682 H 252.28 0.285099 -6.4487 0
M  V30 2683 H 253.048 -0.929594 -8.13204 0
M  V30 2684 N 255.711 1.52812 0.385517 0
M  V30 2685 C 256.936 1.72207 1.15583 0
M  V30 2686 C 257.361 0.441034 1.82857 0
M  V30 2687 O 256.719 -0.603465 1.70962 0
M  V30 2688 C 256.767 2.87476 2.17692 0
M  V30 2689 O 255.871 2.54693 3.24354 0
M  V30 2690 H 255.212 0.572526 0.336319 0
M  V30 2691 H 257.742 1.99618 0.448744 0
M  V30 2692 H 257.752 3.13072 2.6163 0
M  V30 2693 H 256.427 3.80408 1.68115 0
M  V30 2694 H 255.004 2.3985 2.85529 0
M  V30 2695 N 257.189 -0.644168 1.43834 0
M  V30 2696 C 258.136 -1.75671 1.49694 0
M  V30 2697 C 259.106 -1.6246 0.345809 0
M  V30 2698 O 260.291 -1.82573 0.554234 0
M  V30 2699 C 257.431 -3.13867 1.43463 0
M  V30 2700 C 256.544 -3.38147 2.6885 0
M  V30 2701 C 255.679 -4.66241 2.54544 0
M  V30 2702 C 254.718 -4.83657 3.75157 0
M  V30 2703 N 253.855 -6.03016 3.59605 0
M  V30 2704 H 258.695 -1.69998 2.44754 0
M  V30 2705 H 256.232 -0.829458 1.21484 0
M  V30 2706 H 258.19 -3.9377 1.37843 0
M  V30 2707 H 256.82 -3.18588 0.519783 0
M  V30 2708 H 255.872 -2.52276 2.84712 0
M  V30 2709 H 257.184 -3.46899 3.58417 0
M  V30 2710 H 256.338 -5.54285 2.46683 0
M  V30 2711 H 255.077 -4.59826 1.62516 0
M  V30 2712 H 254.082 -3.94046 3.83416 0
M  V30 2713 H 255.307 -4.91896 4.68204 0
M  V30 2714 H 253.253 -5.97715 2.7032 0
M  V30 2715 H 253.17 -6.12766 4.42779 0
M  V30 2716 H 254.438 -6.93657 3.55613 0
M  V30 2717 N 258.668 -1.30515 -0.883378 0
M  V30 2718 C 259.578 -1.18959 -2.02203 0
M  V30 2719 C 260.594 -0.109172 -1.73657 0
M  V30 2720 O 261.77 -0.324413 -1.9877 0
M  V30 2721 C 258.835 -0.883871 -3.35244 0
M  V30 2722 C 257.896 -2.04982 -3.77201 0
M  V30 2723 C 257.129 -1.75859 -5.03894 0
M  V30 2724 O 257.352 -0.687276 -5.66244 0
M  V30 2725 O 256.286 -2.61146 -5.42297 0
M  V30 2726 H 260.112 -2.14616 -2.1488 0
M  V30 2727 H 257.697 -1.10124 -1.0096 0
M  V30 2728 H 259.579 -0.728644 -4.15053 0
M  V30 2729 H 258.254 0.0427798 -3.23672 0
M  V30 2730 H 257.161 -2.26038 -2.9809 0
M  V30 2731 H 258.494 -2.95825 -3.93381 0
M  V30 2732 N 260.146 1.09593 -1.13257 0
M  V30 2733 C 261.423 1.78293 -0.804432 0
M  V30 2734 C 261.803 1.99004 0.70431 0
M  V30 2735 O 261.151 1.59007 1.641 0
M  V30 2736 C 261.361 3.10707 -1.5894 0
M  V30 2737 C 262.709 3.85443 -1.78099 0
M  V30 2738 O 263.733 3.20454 -1.55525 0
M  V30 2739 O 262.592 5.02108 -2.15753 0
M  V30 2740 H 259.686 0.773156 -0.293528 0
M  V30 2741 H 262.232 1.16164 -1.23709 0
M  V30 2742 H 261.004 2.91106 -2.61482 0
M  V30 2743 H 260.627 3.80558 -1.15157 0
M  V30 2744 N 261.624 0.925811 1.2754 0
M  V30 2745 C 262.554 0.440748 2.29303 0
M  V30 2746 C 263.535 -0.497971 1.62648 0
M  V30 2747 O 264.72 -0.403126 1.8997 0
M  V30 2748 C 261.85 -0.309048 3.45922 0
M  V30 2749 C 260.804 0.54166 4.24559 0
M  V30 2750 C 260.13 -0.337191 5.33636 0
M  V30 2751 C 261.43 1.80516 4.90114 0
M  V30 2752 H 263.124 1.29121 2.70126 0
M  V30 2753 H 260.67 0.622323 1.29858 0
M  V30 2754 H 262.623 -0.659315 4.1621 0
M  V30 2755 H 261.347 -1.19352 3.04011 0
M  V30 2756 H 260.006 0.874609 3.56014 0
M  V30 2757 H 259.654 -1.22056 4.87966 0
M  V30 2758 H 259.354 0.228497 5.87156 0
M  V30 2759 H 260.878 -0.683072 6.06767 0
M  V30 2760 H 262.292 1.52307 5.52698 0
M  V30 2761 H 260.689 2.3142 5.53683 0
M  V30 2762 H 261.759 2.52581 4.13921 0
M  V30 2763 N 263.102 -1.41638 0.69111 0
M  V30 2764 C 264.049 -2.30789 0.0229705 0
M  V30 2765 C 265.019 -1.46863 -0.775911 0
M  V30 2766 O 266.204 -1.75661 -0.74485 0
M  V30 2767 C 263.344 -3.32868 -0.910666 0
M  V30 2768 C 262.457 -4.31875 -0.103874 0
M  V30 2769 C 261.592 -5.21024 -1.03475 0
M  V30 2770 C 260.631 -6.11702 -0.220598 0
M  V30 2771 N 259.768 -6.93349 -1.10504 0
M  V30 2772 H 264.608 -2.87366 0.788978 0
M  V30 2773 H 262.145 -1.41535 0.400794 0
M  V30 2774 H 264.103 -3.90596 -1.46597 0
M  V30 2775 H 262.733 -2.77851 -1.64312 0
M  V30 2776 H 261.785 -3.76131 0.568285 0
M  V30 2777 H 263.097 -4.96003 0.527504 0
M  V30 2778 H 262.251 -5.83565 -1.65943 0
M  V30 2779 H 260.99 -4.57112 -1.69999 0
M  V30 2780 H 259.995 -5.48215 0.417187 0
M  V30 2781 H 261.22 -6.77668 0.440784 0
M  V30 2782 H 259.166 -6.3205 -1.75638 0
M  V30 2783 H 259.083 -7.54146 -0.529125 0
M  V30 2784 H 260.351 -7.60362 -1.71667 0
M  V30 2785 N 264.58 -0.43555 -1.51462 0
M  V30 2786 C 265.857 0.191364 -1.94662 0
M  V30 2787 C 266.237 1.60254 -1.37411 0
M  V30 2788 O 265.585 2.2152 -0.560458 0
M  V30 2789 C 265.795 0.17091 -3.48581 0
M  V30 2790 C 267.143 0.377357 -4.2292 0
M  V30 2791 O 268.167 0.249104 -3.55328 0
M  V30 2792 O 267.026 0.63247 -5.42828 0
M  V30 2793 H 264.12 0.130932 -0.816569 0
M  V30 2794 H 266.666 -0.4934 -1.62369 0
M  V30 2795 H 265.438 -0.815738 -3.82703 0
M  V30 2796 H 265.061 0.898659 -3.87311 0
M  V30 2797 N 266.058 1.56714 -0.166846 0
M  V30 2798 C 266.991 2.13577 0.80375 0
M  V30 2799 C 267.969 1.06464 1.22899 0
M  V30 2800 O 269.153 1.34413 1.32157 0
M  V30 2801 C 266.28 2.67168 2.0818 0
M  V30 2802 C 265.326 3.86612 1.80093 0
M  V30 2803 S 266.159 5.26565 0.97416 0
M  V30 2804 C 267.315 5.83558 2.26297 0
M  V30 2805 H 267.548 2.9557 0.320267 0
M  V30 2806 H 265.081 1.54326 0.0477555 0
M  V30 2807 H 267.039 2.98692 2.8159 0
M  V30 2808 H 265.7 1.85269 2.53642 0
M  V30 2809 H 264.893 4.22422 2.7491 0
M  V30 2810 H 264.495 3.55951 1.14781 0
M  V30 2811 H 266.787 5.962 3.21795 0
M  V30 2812 H 267.73 6.80731 1.94962 0
M  V30 2813 H 268.138 5.11944 2.37853 0
M  V30 2814 N 267.536 -0.106894 1.57237 0
M  V30 2815 C 268.761 -0.830287 1.90055 0
M  V30 2816 C 269.186 -1.72064 0.75998 0
M  V30 2817 O 268.544 -1.78982 -0.288991 0
M  V30 2818 C 268.592 -1.6295 3.21683 0
M  V30 2819 O 267.696 -2.73748 3.08441 0
M  V30 2820 H 267.037 -0.228855 0.623315 0
M  V30 2821 H 269.567 -0.085658 2.04421 0
M  V30 2822 H 269.577 -2.01621 3.54701 0
M  V30 2823 H 268.252 -0.975989 4.04286 0
M  V30 2824 H 266.829 -2.38192 2.86913 0
M  V30 2825 N 269.014 -1.53014 -0.377408 0
M  V30 2826 C 269.946 -1.74884 -1.48149 0
M  V30 2827 C 270.959 -0.629433 -1.5014 0
M  V30 2828 O 272.148 -0.905416 -1.53833 0
M  V30 2829 C 269.248 -1.80299 -2.86959 0
M  V30 2830 C 268.421 -3.09776 -3.08801 0
M  V30 2831 C 267.48 -3.06586 -4.27658 0
M  V30 2832 O 266.506 -3.80419 -4.23403 0
M  V30 2833 N 267.708 -2.26578 -5.34455 0
M  V30 2834 H 270.473 -2.70147 -1.29771 0
M  V30 2835 H 268.034 -1.51646 -0.56703 0
M  V30 2836 H 270.026 -1.75657 -3.64591 0
M  V30 2837 H 268.596 -0.92372 -2.98641 0
M  V30 2838 H 267.816 -3.27815 -2.18931 0
M  V30 2839 H 269.104 -3.95366 -3.20255 0
M  V30 2840 H 268.502 -1.66081 -5.40771 0
M  V30 2841 H 267.059 -2.27766 -6.10709 0
M  V30 2842 N 270.492 0.636531 -1.44174 0
M  V30 2843 C 271.425 1.76139 -1.45087 0
M  V30 2844 C 272.403 1.59611 -0.310326 0
M  V30 2845 O 273.587 1.81568 -0.506477 0
M  V30 2846 C 270.714 3.13648 -1.27839 0
M  V30 2847 C 269.76 3.48838 -2.45386 0
M  V30 2848 S 270.593 3.46927 -4.07924 0
M  V30 2849 C 271.749 4.87064 -3.9309 0
M  V30 2850 H 271.982 1.75096 -2.40268 0
M  V30 2851 H 269.515 0.810666 -1.31406 0
M  V30 2852 H 271.473 3.93002 -1.18575 0
M  V30 2853 H 270.134 3.12235 -0.341787 0
M  V30 2854 H 269.327 4.48886 -2.29167 0
M  V30 2855 H 268.929 2.76935 -2.51362 0
M  V30 2856 H 271.221 5.76153 -3.56446 0
M  V30 2857 H 272.164 5.08337 -4.92949 0
M  V30 2858 H 272.572 4.61384 -3.25246 0
M  V30 2859 N 271.97 1.30982 0.876444 0
M  V30 2860 C 273.219 1.19658 1.62373 0
M  V30 2861 C 273.532 -0.245636 1.94052 0
M  V30 2862 O 274.738 -0.48049 2.67214 0
M  V30 2863 C 273.194 2.09433 2.92687 0
M  V30 2864 C 272.802 3.58613 2.68516 0
M  V30 2865 C 274.546 2.06893 3.70669 0
M  V30 2866 C 272.453 4.40416 3.94699 0
M  V30 2867 H 271.383 0.444268 0.609214 0
M  V30 2868 H 274.034 1.55791 0.969605 0
M  V30 2869 H 272.416 1.66191 3.59439 0
M  V30 2870 H 273.59 4.10058 2.10212 0
M  V30 2871 H 271.905 3.63063 2.03898 0
M  V30 2872 H 274.502 2.65258 4.64265 0
M  V30 2873 H 274.845 1.05448 4.02724 0
M  V30 2874 H 275.378 2.48301 3.10792 0
M  V30 2875 H 272.117 5.42591 3.67798 0
M  V30 2876 H 271.637 3.93731 4.52477 0
M  V30 2877 H 273.316 4.52294 4.62644 0
M  V30 2878 N 273.449 -1.08991 1.13837 0
M  V30 2879 C 274.379 -2.17771 0.842507 0
M  V30 2880 C 275.36 -1.6892 -0.20001 0
M  V30 2881 O 276.545 -1.94113 -0.0579731 0
M  V30 2882 C 273.675 -3.4589 0.312644 0
M  V30 2883 C 272.629 -4.08099 1.28992 0
M  V30 2884 C 271.955 -5.31098 0.619623 0
M  V30 2885 C 273.255 -4.50077 2.65005 0
M  V30 2886 H 274.949 -2.42777 1.75213 0
M  V30 2887 H 272.495 -1.16682 0.843875 0
M  V30 2888 H 274.448 -4.21297 0.0933043 0
M  V30 2889 H 273.172 -3.20419 -0.632382 0
M  V30 2890 H 271.831 -3.34717 1.49533 0
M  V30 2891 H 271.479 -5.0191 -0.33102 0
M  V30 2892 H 271.179 -5.73674 1.27167 0
M  V30 2893 H 272.703 -6.09224 0.409669 0
M  V30 2894 H 274.117 -5.16688 2.48407 0
M  V30 2895 H 272.514 -5.03553 3.26427 0
M  V30 2896 H 273.584 -3.62257 3.22332 0
M  V30 2897 N 274.927 -0.932562 -1.27047 0
M  V30 2898 C 276.343 -0.633544 -1.46487 0
M  V30 2899 C 276.543 0.815746 -1.84249 0
M  V30 2900 O 275.599 1.59319 -1.95892 0
M  V30 2901 C 276.912 -1.58758 -2.55375 0
M  V30 2902 C 278.46 -1.59634 -2.69232 0
M  V30 2903 C 278.935 -2.53747 -3.81283 0
M  V30 2904 N 280.426 -2.51982 -3.88664 0
M  V30 2905 C 281.161 -3.21491 -4.74796 0
M  V30 2906 N 280.657 -4.00395 -5.65381 0
M  V30 2907 N 282.45 -3.10485 -4.68568 0
M  V30 2908 H 274.601 -1.86946 -1.00821 0
M  V30 2909 H 276.864 -0.802897 -0.504044 0
M  V30 2910 H 276.57 -2.62172 -2.34432 0
M  V30 2911 H 276.444 -1.33301 -3.52861 0
M  V30 2912 H 278.831 -0.569488 -2.89553 0
M  V30 2913 H 278.912 -1.89142 -1.72218 0
M  V30 2914 H 278.556 -3.56545 -3.61715 0
M  V30 2915 H 278.486 -2.21532 -4.77735 0
M  V30 2916 H 280.977 -1.94681 -3.23895 0
M  V30 2917 H 281.29 -4.50406 -6.27976 0
M  V30 2918 H 279.635 -4.04498 -5.65161 0
M  V30 2919 H 282.826 -2.48331 -3.96799 0
M  V30 2920 H 282.999 -3.64925 -5.35475 0
M  V30 2921 N 276.405 1.4127 -0.698611 0
M  V30 2922 C 277.633 2.05503 -0.239992 0
M  V30 2923 C 278.048 1.52584 1.11191 0
M  V30 2924 O 277.405 0.675323 1.69545 0
M  V30 2925 C 277.456 3.60987 -0.192429 0
M  V30 2926 O 277.177 4.1195 -1.49094 0
M  V30 2927 C 278.678 4.42371 0.28681 0
M  V30 2928 H 275.898 0.661748 -0.111045 0
M  V30 2929 H 278.442 1.80987 -0.95205 0
M  V30 2930 H 276.597 3.84533 0.470472 0
M  V30 2931 H 277.011 5.06018 -1.38007 0
M  V30 2932 H 278.485 5.51344 0.26896 0
M  V30 2933 H 278.962 4.18699 1.32619 0
M  V30 2934 H 279.568 4.23897 -0.345201 0
M  V30 2935 N 277.883 0.443576 1.51229 0
M  V30 2936 C 278.83 -0.364716 2.279 0
M  V30 2937 C 279.8 -1.0114 1.31757 0
M  V30 2938 O 280.985 -1.02912 1.60667 0
M  V30 2939 C 278.125 -1.45644 3.12861 0
M  V30 2940 C 277.238 -0.827269 4.24005 0
M  V30 2941 C 276.373 -1.89456 4.96266 0
M  V30 2942 C 275.412 -1.24416 5.99322 0
M  V30 2943 N 274.549 -2.25309 6.64966 0
M  V30 2944 H 279.389 0.295464 2.96532 0
M  V30 2945 H 276.926 0.157554 1.46254 0
M  V30 2946 H 278.884 -2.10076 3.6045 0
M  V30 2947 H 277.514 -2.08616 2.46331 0
M  V30 2948 H 276.566 -0.0710839 3.80334 0
M  V30 2949 H 277.878 -0.312481 4.9782 0
M  V30 2950 H 277.032 -2.61535 5.47434 0
M  V30 2951 H 275.771 -2.4431 4.22095 0
M  V30 2952 H 274.776 -0.508868 5.4744 0
M  V30 2953 H 276.001 -0.702882 6.75453 0
M  V30 2954 H 273.947 -2.79231 5.93604 0
M  V30 2955 H 273.864 -1.78739 7.34567 0
M  V30 2956 H 275.132 -2.96853 7.20763 0
M  V30 2957 N 279.361 -1.56624 0.175154 0
M  V30 2958 C 280.609 -1.96609 -0.467885 0
M  V30 2959 C 280.93 -1.06238 -1.63519 0
M  V30 2960 O 280.2 -0.129523 -1.95471 0
M  V30 2961 H 278.78 -0.726008 -0.175845 0
M  V30 2962 H 281.442 -1.93195 0.257234 0
M  V30 2963 H 280.538 -3.00989 -0.825342 0
M  V30 2964 N 280.839 0.0985539 -1.57292 0
M  V30 2965 C 282.25 0.653457 -1.74891 0
M  V30 2966 C 282.601 1.7929 -0.796838 0
M  V30 2967 O 281.726 2.16385 0.0254886 0
M  V30 2968 C 282.321 1.19216 -3.17133 0
M  V30 2969 C 280.88 1.69316 -3.36168 0
M  V30 2970 C 280.027 0.601294 -2.70702 0
M  V30 2971 H 282.978 -0.127497 -1.58187 0
M  V30 2972 H 282.999 2.06154 -3.19814 0
M  V30 2973 H 282.511 0.362635 -3.86402 0
M  V30 2974 H 280.612 2.5468 -2.71972 0
M  V30 2975 H 280.725 1.78853 -4.44464 0
M  V30 2976 H 279.089 1.0399 -2.32504 0
M  V30 2977 H 279.872 -0.217592 -3.4261 0
M  V30 2978 N 282.317 1.53212 0.369288 0
M  V30 2979 C 283.594 1.59815 1.12776 0
M  V30 2980 C 283.974 0.403402 2.0721 0
M  V30 2981 O 283.322 -0.606667 2.20299 0
M  V30 2982 C 283.532 2.94664 1.87013 0
M  V30 2983 C 284.88 3.49109 2.41677 0
M  V30 2984 O 285.904 2.96669 1.97144 0
M  V30 2985 O 284.763 4.40775 3.23079 0
M  V30 2986 H 281.857 0.645376 0.517125 0
M  V30 2987 H 284.403 1.65553 0.37285 0
M  V30 2988 H 283.175 3.73061 1.18071 0
M  V30 2989 H 282.798 2.92401 2.69421 0
M  V30 2990 N 283.795 -0.628877 1.44509 0
M  V30 2991 C 285.211 -0.947305 1.28446 0
M  V30 2992 C 285.411 -2.00275 0.221872 0
M  V30 2993 O 284.467 -2.49447 -0.391471 0
M  V30 2994 C 285.78 -1.40843 2.65676 0
M  V30 2995 C 287.328 -1.52379 2.73404 0
M  V30 2996 C 287.803 -2.01875 4.11109 0
M  V30 2997 N 289.294 -2.09142 4.13296 0
M  V30 2998 C 290.029 -2.48615 5.16699 0
M  V30 2999 N 289.525 -2.87209 6.30462 0
M  V30 3000 N 291.318 -2.48768 5.04054 0
M  V30 3001 H 283.469 0.0690977 2.12288 0
M  V30 3002 H 285.732 -0.0317164 0.947469 0
M  V30 3003 H 285.438 -0.707206 3.44516 0
M  V30 3004 H 285.312 -2.37902 2.92716 0
M  V30 3005 H 287.699 -2.21598 1.9488 0
M  V30 3006 H 287.78 -0.536898 2.50102 0
M  V30 3007 H 287.424 -1.3325 4.90109 0
M  V30 3008 H 287.354 -3.0144 4.31789 0
M  V30 3009 H 289.845 -1.81991 3.31191 0
M  V30 3010 H 290.158 -3.16149 7.05174 0
M  V30 3011 H 288.503 -2.84955 6.33897 0
M  V30 3012 H 291.694 -2.18009 4.14234 0
M  V30 3013 H 291.867 -2.79207 5.84763 0
M  V30 3014 N 285.273 -1.31445 -0.869486 0
M  V30 3015 C 286.203 -1.21727 -1.99261 0
M  V30 3016 C 287.184 -0.104359 -1.6978 0
M  V30 3017 O 288.369 -0.289038 -1.92037 0
M  V30 3018 C 285.499 -0.924317 -3.34774 0
M  V30 3019 C 284.453 -1.99685 -3.78563 0
M  V30 3020 C 283.779 -1.55658 -5.11541 0
M  V30 3021 C 285.079 -3.41003 -3.95619 0
M  V30 3022 H 286.773 -2.1569 -2.07649 0
M  V30 3023 H 284.319 -1.03839 -0.997675 0
M  V30 3024 H 286.272 -0.842934 -4.12883 0
M  V30 3025 H 284.996 0.0509793 -3.2656 0
M  V30 3026 H 283.655 -2.06813 -3.02694 0
M  V30 3027 H 283.303 -0.569132 -4.9977 0
M  V30 3028 H 283.003 -2.27409 -5.41811 0
M  V30 3029 H 284.527 -1.48928 -5.92159 0
M  V30 3030 H 285.941 -3.36547 -4.64122 0
M  V30 3031 H 284.338 -4.10975 -4.37286 0
M  V30 3032 H 285.408 -3.81754 -2.98985 0
M  V30 3033 N 286.751 1.08385 -1.14413 0
M  V30 3034 C 288.162 1.62258 -0.923535 0
M  V30 3035 C 288.513 1.88691 0.537595 0
M  V30 3036 O 287.638 1.64454 1.40655 0
M  V30 3037 C 288.233 2.94781 -1.67002 0
M  V30 3038 C 286.792 3.45437 -1.495 0
M  V30 3039 C 285.939 2.19668 -1.69238 0
M  V30 3040 H 288.89 0.916086 -1.2959 0
M  V30 3041 H 288.911 3.63229 -1.13334 0
M  V30 3042 H 288.423 2.7551 -2.73342 0
M  V30 3043 H 286.524 3.6981 -0.455097 0
M  V30 3044 H 286.637 4.22173 -2.2651 0
M  V30 3045 H 285.001 2.28849 -1.11804 0
M  V30 3046 H 285.784 2.02905 -2.7692 0
M  V30 3047 N 288.23 0.939286 1.26551 0
M  V30 3048 C 289.193 0.451987 2.24699 0
M  V30 3049 C 290.193 -0.435869 1.5478 0
M  V30 3050 O 291.383 -0.235314 1.72603 0
M  V30 3051 C 288.515 -0.348801 3.39111 0
M  V30 3052 H 289.708 1.3193 2.69322 0
M  V30 3053 H 287.261 0.721072 1.38673 0
M  V30 3054 H 287.996 -1.23444 2.99887 0
M  V30 3055 H 287.781 0.287945 3.91041 0
M  V30 3056 H 289.271 -0.679726 4.12031 0
M  V30 3057 N 289.708 -1.40897 0.706093 0
M  V30 3058 C 290.956 -2.00657 0.241054 0
M  V30 3059 C 291.277 -1.56241 -1.16678 0
M  V30 3060 O 290.547 -0.79765 -1.78926 0
M  V30 3061 H 289.127 -0.742018 0.0861308 0
M  V30 3062 H 291.789 -1.72372 0.909604 0
M  V30 3063 H 290.885 -3.10958 0.266705 0
M  V30 3064 N 291.186 -0.45159 -1.50991 0
M  V30 3065 C 292.416 0.108177 -2.06317 0
M  V30 3066 C 292.824 1.35774 -1.31765 0
M  V30 3067 O 292.167 1.79838 -0.374694 0
M  V30 3068 C 292.229 0.481659 -3.56259 0
M  V30 3069 C 291.893 -0.663114 -4.52163 0
M  V30 3070 C 292.89 -1.53947 -4.96585 0
M  V30 3071 C 290.575 -0.8479 -4.95092 0
M  V30 3072 C 292.569 -2.58518 -5.82621 0
M  V30 3073 C 290.256 -1.89686 -5.80915 0
M  V30 3074 C 291.254 -2.76388 -6.24579 0
M  V30 3075 O 290.942 -3.79482 -7.08695 0
M  V30 3076 H 290.674 0.00499183 -0.675982 0
M  V30 3077 H 293.228 -0.633659 -1.95381 0
M  V30 3078 H 291.458 1.27641 -3.65027 0
M  V30 3079 H 293.147 0.974233 -3.94035 0
M  V30 3080 H 293.913 -1.4083 -4.64103 0
M  V30 3081 H 289.792 -0.18258 -4.60638 0
M  V30 3082 H 293.336 -3.26224 -6.16623 0
M  V30 3083 H 289.233 -2.02817 -6.12809 0
M  V30 3084 H 290.001 -3.76234 -7.26905 0
M  V30 3085 N 292.664 1.56529 -0.183458 0
M  V30 3086 C 293.574 2.22144 0.754272 0
M  V30 3087 C 294.59 1.21684 1.24374 0
M  V30 3088 O 295.766 1.54385 1.29333 0
M  V30 3089 C 292.831 2.85884 1.96141 0
M  V30 3090 C 291.892 4.01579 1.51765 0
M  V30 3091 C 291.125 4.6227 2.66725 0
M  V30 3092 O 291.348 4.21865 3.83909 0
M  V30 3093 O 290.282 5.51936 2.40104 0
M  V30 3094 H 294.108 3.02861 0.225527 0
M  V30 3095 H 291.693 1.49331 0.0453032 0
M  V30 3096 H 293.575 3.26253 2.66715 0
M  V30 3097 H 292.25 2.08154 2.47899 0
M  V30 3098 H 291.157 3.65856 0.781049 0
M  V30 3099 H 292.49 4.80938 1.04686 0
M  V30 3100 N 294.142 -0.090211 1.57342 0
M  V30 3101 C 295.391 -0.791531 1.8552 0
M  V30 3102 C 295.704 -1.79659 0.773441 0
M  V30 3103 O 296.91 -2.54616 0.942497 0
M  V30 3104 C 295.366 -1.45856 3.2902 0
M  V30 3105 C 294.974 -0.493017 4.45279 0
M  V30 3106 C 296.718 -2.14332 3.66418 0
M  V30 3107 C 294.625 -1.16491 5.79814 0
M  V30 3108 H 293.555 -0.299356 0.692027 0
M  V30 3109 H 296.206 -0.0445343 1.83446 0
M  V30 3110 H 294.588 -2.25318 3.2565 0
M  V30 3111 H 295.762 0.270464 4.60006 0
M  V30 3112 H 294.077 0.0863061 4.16311 0
M  V30 3113 H 296.674 -2.65344 4.64216 0
M  V30 3114 H 297.017 -2.93447 2.95287 0
M  V30 3115 H 297.55 -1.41724 3.71698 0
M  V30 3116 H 294.289 -0.41447 6.54188 0
M  V30 3117 H 293.809 -1.8997 5.68921 0
M  V30 3118 H 295.488 -1.69001 6.24538 0
M  V30 3119 N 295.62 -1.53406 -0.361157 0
M  V30 3120 C 296.866 -1.70054 -1.10496 0
M  V30 3121 C 297.199 -0.453278 -1.88836 0
M  V30 3122 O 296.474 0.5495 -1.86576 0
M  V30 3123 C 296.757 -2.95317 -2.06058 0
M  V30 3124 C 296.61 -4.3021 -1.31298 0
M  V30 3125 C 297.929 -3.16193 -3.06121 0
M  V30 3126 H 295.048 -0.618799 -0.400321 0
M  V30 3127 H 297.69 -1.86052 -0.385318 0
M  V30 3128 H 295.84 -2.81809 -2.67425 0
M  V30 3129 H 297.512 -4.55538 -0.726807 0
M  V30 3130 H 295.755 -4.29421 -0.614853 0
M  V30 3131 H 296.426 -5.14 -2.01265 0
M  V30 3132 H 298.902 -3.28916 -2.5486 0
M  V30 3133 H 297.778 -4.05266 -3.70204 0
M  V30 3134 H 298.039 -2.31676 -3.76535 0
M  V30 3135 N 297.098 0.621204 -1.44841 0
M  V30 3136 C 298.028 1.74366 -1.55303 0
M  V30 3137 C 299.009 1.65199 -0.405385 0
M  V30 3138 O 300.194 1.83807 -0.626787 0
M  V30 3139 C 297.324 3.12931 -1.50637 0
M  V30 3140 C 296.278 3.36896 -2.63979 0
M  V30 3141 C 295.604 4.75594 -2.44366 0
M  V30 3142 C 296.904 3.28483 -4.06074 0
M  V30 3143 H 298.598 1.65867 -2.49256 0
M  V30 3144 H 296.144 0.796558 -1.19962 0
M  V30 3145 H 298.097 3.9124 -1.56555 0
M  V30 3146 H 296.821 3.22237 -0.532057 0
M  V30 3147 H 295.48 2.60972 -2.57467 0
M  V30 3148 H 295.128 4.81616 -1.45105 0
M  V30 3149 H 294.828 4.92586 -3.20364 0
M  V30 3150 H 296.352 5.5612 -2.52117 0
M  V30 3151 H 297.766 3.96684 -4.13902 0
M  V30 3152 H 296.163 3.57008 -4.82354 0
M  V30 3153 H 297.233 2.26133 -4.28943 0
M  V30 3154 N 298.576 1.31904 0.862503 0
M  V30 3155 C 299.806 1.24817 1.64634 0
M  V30 3156 C 300.214 -0.187579 1.88268 0
M  V30 3157 O 299.557 -1.13253 1.44635 0
M  V30 3158 C 299.619 1.92996 3.03303 0
M  V30 3159 C 299.283 3.42336 3.02746 0
M  V30 3160 C 300.28 4.37956 2.80162 0
M  V30 3161 C 297.965 3.84147 3.2363 0
M  V30 3162 C 299.959 5.73361 2.78453 0
M  V30 3163 C 297.646 5.19663 3.21549 0
M  V30 3164 C 298.644 6.14081 2.98988 0
M  V30 3165 O 298.332 7.47118 2.96766 0
M  V30 3166 H 298.064 0.432222 0.519769 0
M  V30 3167 H 300.618 1.7445 1.08427 0
M  V30 3168 H 298.848 1.37922 3.61268 0
M  V30 3169 H 300.537 1.79723 3.63943 0
M  V30 3170 H 301.303 4.06981 2.63802 0
M  V30 3171 H 297.182 3.11083 3.40218 0
M  V30 3172 H 300.726 6.4703 2.60763 0
M  V30 3173 H 296.623 5.5027 3.37451 0
M  V30 3174 H 297.391 7.56382 3.12775 0
M  V30 3175 N 300.054 -1.07777 1.14986 0
M  V30 3176 C 301.303 -1.79669 0.916617 0
M  V30 3177 C 301.616 -1.87474 -0.557917 0
M  V30 3178 O 302.822 -2.55845 -0.908617 0
M  V30 3179 C 301.278 -3.22848 1.59051 0
M  V30 3180 C 300.886 -3.23257 3.10176 0
M  V30 3181 C 302.63 -3.99379 1.43864 0
M  V30 3182 C 300.537 -4.61063 3.70372 0
M  V30 3183 H 299.467 -0.673349 0.33929 0
M  V30 3184 H 302.118 -1.21003 1.37951 0
M  V30 3185 H 300.5 -3.8168 1.0553 0
M  V30 3186 H 301.674 -2.74095 3.70417 0
M  V30 3187 H 299.989 -2.60222 3.25074 0
M  V30 3188 H 302.586 -5.0122 1.86232 0
M  V30 3189 H 302.929 -4.14511 0.385564 0
M  V30 3190 H 303.462 -3.47032 1.94457 0
M  V30 3191 H 300.201 -4.51135 4.7556 0
M  V30 3192 H 299.721 -5.1048 3.14913 0
M  V30 3193 H 301.4 -5.30034 3.71043 0
M  V30 3194 N 301.532 -0.945985 -1.26051 0
M  V30 3195 C 302.757 -0.612525 -1.98149 0
M  V30 3196 C 303.182 0.806623 -1.69927 0
M  V30 3197 O 302.54 1.54411 -0.950108 0
M  V30 3198 C 302.588 -0.866981 -3.50023 0
M  V30 3199 O 301.692 0.0585333 -4.12358 0
M  V30 3200 H 301.033 -0.23379 -0.621481 0
M  V30 3201 H 303.563 -1.27023 -1.60395 0
M  V30 3202 H 303.573 -0.789792 -4.00283 0
M  V30 3203 H 302.248 -1.90135 -3.69894 0
M  V30 3204 H 300.825 -0.0701241 -3.72834 0
M  V30 3205 N 303.011 1.40521 -0.713556 0
M  V30 3206 C 303.944 2.28198 -0.00881422 0
M  V30 3207 C 304.922 1.43227 0.769735 0
M  V30 3208 O 306.106 1.72641 0.756799 0
M  V30 3209 C 303.233 3.23758 0.994899 0
M  V30 3210 C 302.279 4.25391 0.3074 0
M  V30 3211 S 303.112 5.26765 -0.963247 0
M  V30 3212 C 304.268 6.25888 0.0384143 0
M  V30 3213 H 304.501 2.87622 -0.752407 0
M  V30 3214 H 302.034 1.45925 -0.504502 0
M  V30 3215 H 303.992 3.79341 1.56879 0
M  V30 3216 H 302.653 2.63396 1.71118 0
M  V30 3217 H 301.846 4.92596 1.0661 0
M  V30 3218 H 301.448 3.73497 -0.193879 0
M  V30 3219 H 303.74 6.71683 0.885912 0
M  V30 3220 H 304.683 7.05552 -0.60019 0
M  V30 3221 H 305.091 5.63072 0.401233 0
M  V30 3222 N 304.489 0.459591 1.5075 0
M  V30 3223 C 305.714 -0.0996819 2.0716 0
M  V30 3224 C 306.139 -1.33761 1.32249 0
M  V30 3225 O 305.497 -1.77551 0.366786 0
M  V30 3226 C 305.545 -0.378226 3.58611 0
M  V30 3227 O 304.649 -1.46081 3.85661 0
M  V30 3228 H 303.99 0.00791392 0.663953 0
M  V30 3229 H 306.52 0.647329 1.9409 0
M  V30 3230 H 306.53 -0.622135 4.03229 0
M  V30 3231 H 305.205 0.526439 4.12555 0
M  V30 3232 H 303.782 -1.20511 3.5289 0
M  V30 3233 N 305.967 -1.56429 0.191757 0
M  V30 3234 C 307.244 -1.89224 -0.495332 0
M  V30 3235 C 307.624 -1.10478 -1.79883 0
M  V30 3236 O 306.972 -0.204852 -2.2758 0
M  V30 3237 C 307.182 -3.41548 -0.717367 0
M  V30 3238 C 308.53 -4.11711 -1.03823 0
M  V30 3239 O 309.554 -3.4698 -0.805204 0
M  V30 3240 O 308.413 -5.2611 -1.47887 0
M  V30 3241 H 305.507 -0.785788 -0.25781 0
M  V30 3242 H 308.053 -1.68111 0.231721 0
M  V30 3243 H 306.825 -3.90772 0.203287 0
M  V30 3244 H 306.448 -3.68342 -1.497 0
M  V30 3245 N 307.445 0.0818655 -1.57387 0
M  V30 3246 C 308.67 0.799946 -1.91352 0
M  V30 3247 C 309.095 1.70833 -0.787258 0
M  V30 3248 O 308.453 1.79419 0.26048 0
M  V30 3249 C 308.501 1.57812 -3.24234 0
M  V30 3250 O 307.605 2.68806 -3.12757 0
M  V30 3251 H 306.946 0.21891 -0.626877 0
M  V30 3252 H 309.476 0.0531256 -2.04531 0
M  V30 3253 H 309.486 1.95952 -3.57864 0
M  V30 3254 H 308.161 0.911548 -4.05788 0
M  V30 3255 H 306.738 2.33597 -2.90666 0
M  V30 3256 N 308.923 1.53595 0.353017 0
M  V30 3257 C 310.2 1.61002 1.11075 0
M  V30 3258 C 310.58 0.425356 2.0677 0
M  V30 3259 O 309.928 -0.583267 2.2093 0
M  V30 3260 C 310.138 2.96631 1.83877 0
M  V30 3261 C 311.486 3.51653 2.37961 0
M  V30 3262 O 312.51 2.98743 1.93987 0
M  V30 3263 O 311.369 4.44177 3.18386 0
M  V30 3264 H 308.463 0.650825 0.510251 0
M  V30 3265 H 311.009 1.6594 0.35527 0
M  V30 3266 H 309.781 3.74293 1.14108 0
M  V30 3267 H 309.404 2.95242 2.66304 0
M  V30 3268 N 310.401 -0.613514 1.45168 0
M  V30 3269 C 311.348 -1.72456 1.53387 0
M  V30 3270 C 312.318 -1.6169 0.380191 0
M  V30 3271 O 313.503 -1.81356 0.592836 0
M  V30 3272 C 310.643 -3.10753 1.50088 0
M  V30 3273 C 309.756 -3.32368 2.75963 0
M  V30 3274 C 308.891 -4.60737 2.64376 0
M  V30 3275 C 307.93 -4.7559 3.85332 0
M  V30 3276 N 307.067 -5.95253 3.72315 0
M  V30 3277 H 311.907 -1.64768 2.48305 0
M  V30 3278 H 309.444 -0.803503 1.23216 0
M  V30 3279 H 311.402 -3.90758 1.46164 0
M  V30 3280 H 310.032 -3.17413 0.587243 0
M  V30 3281 H 309.084 -2.4618 2.89999 0
M  V30 3282 H 310.396 -3.39218 3.65695 0
M  V30 3283 H 309.55 -5.48928 2.58385 0
M  V30 3284 H 308.289 -4.56275 1.72233 0
M  V30 3285 H 307.294 -3.85824 3.91688 0
M  V30 3286 H 308.519 -4.81854 4.78533 0
M  V30 3287 H 306.465 -5.91847 2.82937 0
M  V30 3288 H 306.382 -6.03236 4.55677 0
M  V30 3289 H 307.65 -6.85958 3.70246 0
M  V30 3290 N 311.879 -1.3236 -0.855495 0
M  V30 3291 C 313.125 -1.23054 -1.612 0
M  V30 3292 C 313.458 0.207404 -1.93089 0
M  V30 3293 O 312.733 1.14432 -1.57275 0
M  V30 3294 C 313.016 -2.08937 -2.93287 0
M  V30 3295 C 312.869 -3.61105 -2.68185 0
M  V30 3296 C 314.188 -1.94986 -3.94549 0
M  V30 3297 H 311.307 -0.448364 -0.584926 0
M  V30 3298 H 313.949 -1.62297 -0.987917 0
M  V30 3299 H 312.099 -1.75599 -3.46551 0
M  V30 3300 H 313.771 -4.04652 -2.21483 0
M  V30 3301 H 312.014 -3.83813 -2.02164 0
M  V30 3302 H 312.685 -4.16522 -3.62234 0
M  V30 3303 H 315.161 -2.24189 -3.5054 0
M  V30 3304 H 314.037 -2.57356 -4.84829 0
M  V30 3305 H 314.298 -0.917263 -4.3248 0
M  V30 3306 N 313.357 1.07166 -1.15556 0
M  V30 3307 C 314.605 1.79443 -0.929764 0
M  V30 3308 C 314.926 1.87246 0.544414 0
M  V30 3309 O 314.196 1.37473 1.39564 0
M  V30 3310 H 312.776 0.664625 -0.341003 0
M  V30 3311 H 315.438 1.29499 -1.45657 0
M  V30 3312 H 314.534 2.81832 -1.34079 0
M  V30 3313 N 314.835 0.952656 1.25548 0
M  V30 3314 C 316.081 0.607272 1.93494 0
M  V30 3315 C 316.414 -0.853245 1.74452 0
M  V30 3316 O 315.689 -1.61194 1.08843 0
M  V30 3317 C 315.972 0.96435 3.46947 0
M  V30 3318 C 315.825 2.48045 3.75225 0
M  V30 3319 C 317.144 0.487987 4.37386 0
M  V30 3320 H 314.263 0.222096 0.702739 0
M  V30 3321 H 316.905 1.18895 1.48203 0
M  V30 3322 H 315.055 0.469361 3.85654 0
M  V30 3323 H 316.727 3.04905 3.46166 0
M  V30 3324 H 314.97 2.919 3.209 0
M  V30 3325 H 315.641 2.6808 4.82532 0
M  V30 3326 H 318.117 0.912558 4.0597 0
M  V30 3327 H 316.993 0.766547 5.43521 0
M  V30 3328 H 317.254 -0.612063 4.37843 0
M  V30 3329 N 316.313 -1.40141 0.720998 0
M  V30 3330 C 317.56 -2.00787 0.262842 0
M  V30 3331 C 317.888 -1.5718 -1.14563 0
M  V30 3332 O 317.143 -0.785391 -1.79249 0
M  V30 3333 C 317.442 -3.56165 0.296892 0
M  V30 3334 C 317.108 -4.19373 1.65641 0
M  V30 3335 C 315.77 -4.36352 2.02855 0
M  V30 3336 C 318.122 -4.54578 2.54968 0
M  V30 3337 C 315.45 -4.8582 3.28931 0
M  V30 3338 C 317.802 -5.05447 3.80402 0
M  V30 3339 C 316.466 -5.20635 4.17726 0
M  V30 3340 H 315.736 -0.734731 0.0961807 0
M  V30 3341 H 318.383 -1.67673 0.925093 0
M  V30 3342 H 316.688 -3.8922 -0.448932 0
M  V30 3343 H 318.385 -4.00929 -0.0755208 0
M  V30 3344 H 314.975 -4.06549 1.35704 0
M  V30 3345 H 319.159 -4.41091 2.27491 0
M  V30 3346 H 314.415 -4.95764 3.57811 0
M  V30 3347 H 318.589 -5.31663 4.49786 0
M  V30 3348 H 316.216 -5.58728 5.15487 0
M  V30 3349 N 317.792 -0.46758 -1.50504 0
M  V30 3350 C 319.022 0.086288 -2.0642 0
M  V30 3351 C 319.43 1.34369 -1.33197 0
M  V30 3352 O 318.773 1.79431 -0.393747 0
M  V30 3353 C 318.835 0.443846 -3.5675 0
M  V30 3354 C 318.499 -0.711035 -4.51435 0
M  V30 3355 C 319.496 -1.59205 -4.94924 0
M  V30 3356 C 317.181 -0.900363 -4.94165 0
M  V30 3357 C 319.175 -2.64683 -5.79846 0
M  V30 3358 C 316.862 -1.95837 -5.7887 0
M  V30 3359 C 317.86 -2.82997 -6.21612 0
M  V30 3360 O 317.548 -3.86977 -7.0463 0
M  V30 3361 H 317.28 -0.00217814 -0.675996 0
M  V30 3362 H 319.834 -0.654346 -1.94698 0
M  V30 3363 H 318.064 1.23762 -3.6636 0
M  V30 3364 H 319.753 0.932386 -3.95046 0
M  V30 3365 H 320.519 -1.45745 -4.62583 0
M  V30 3366 H 316.398 -0.231427 -4.60419 0
M  V30 3367 H 319.942 -3.32745 -6.13128 0
M  V30 3368 H 315.839 -2.09305 -6.10624 0
M  V30 3369 H 316.607 -3.83923 -7.22873 0
M  V30 3370 N 319.27 1.56325 -0.20005 0
M  V30 3371 C 320.516 1.98012 0.438059 0
M  V30 3372 C 320.849 1.08702 1.60927 0
M  V30 3373 O 320.124 0.140064 1.93995 0
M  V30 3374 C 320.407 3.48841 0.893419 0
M  V30 3375 C 320.26 4.48928 -0.279947 0
M  V30 3376 C 321.579 4.03498 1.75719 0
M  V30 3377 H 318.698 0.719918 0.157757 0
M  V30 3378 H 321.34 1.87743 -0.291968 0
M  V30 3379 H 319.49 3.57723 1.51547 0
M  V30 3380 H 321.162 4.52079 -0.91772 0
M  V30 3381 H 319.405 4.23694 -0.930919 0
M  V30 3382 H 320.076 5.5194 0.0812601 0
M  V30 3383 H 322.552 3.97427 1.23253 0
M  V30 3384 H 321.428 5.09393 2.04476 0
M  V30 3385 H 321.689 3.4906 2.71311 0
M  V30 3386 N 320.748 -0.0735177 1.57428 0
M  V30 3387 C 321.658 -1.10547 2.06922 0
M  V30 3388 C 322.674 -1.42506 0.998402 0
M  V30 3389 O 323.85 -1.52717 1.31299 0
M  V30 3390 C 320.915 -2.40019 2.50184 0
M  V30 3391 C 319.976 -2.15046 3.71556 0
M  V30 3392 C 319.209 -3.38345 4.12745 0
M  V30 3393 O 319.432 -4.47399 3.53822 0
M  V30 3394 O 318.366 -3.2666 5.05546 0
M  V30 3395 H 322.192 -0.715013 2.95163 0
M  V30 3396 H 319.777 -0.287531 1.46607 0
M  V30 3397 H 321.659 -3.16218 2.78539 0
M  V30 3398 H 320.334 -2.78447 1.65072 0
M  V30 3399 H 319.241 -1.36558 3.48285 0
M  V30 3400 H 320.574 -1.81499 4.57514 0
M  V30 3401 N 322.226 -1.5378 -0.344866 0
M  V30 3402 C 323.174 -1.82373 -1.4437 0
M  V30 3403 C 324.168 -0.694128 -1.54526 0
M  V30 3404 O 325.374 -0.877442 -1.57165 0
M  V30 3405 H 321.749 -0.577765 -0.481344 0
M  V30 3406 H 323.72 -2.74306 -1.17468 0
M  V30 3407 C 322.469 -2.04898 -2.80913 0
M  V30 3408 H 321.792 -2.9127 -2.73865 0
M  V30 3409 H 323.232 -2.28871 -3.56923 0
M  V30 3410 C 321.691 -0.834116 -3.26411 0
M  V30 3411 O 322.221 -0.0328885 -4.01687 0
M  V30 3412 N 320.427 -0.65171 -2.83198 0
M  V30 3413 H 319.974 -1.30489 -2.22104 0
M  V30 3414 H 319.932 0.159686 -3.13994 0
M  V30 3415 N 323.704 0.605807 -1.45491 0
M  V30 3416 C 325.115 1.18777 -1.44045 0
M  V30 3417 C 325.466 1.95471 -0.169001 0
M  V30 3418 O 324.591 2.0374 0.729324 0
M  V30 3419 C 325.186 2.16064 -2.60963 0
M  V30 3420 C 323.745 2.69633 -2.62631 0
M  V30 3421 C 322.892 1.45072 -2.36325 0
M  V30 3422 H 325.843 0.395017 -1.53705 0
M  V30 3423 H 325.864 2.9913 -2.35163 0
M  V30 3424 H 325.376 1.60217 -3.53486 0
M  V30 3425 H 323.477 3.29414 -1.74119 0
M  V30 3426 H 323.59 3.13944 -3.61906 0
M  V30 3427 H 321.954 1.74089 -1.85917 0
M  V30 3428 H 322.737 0.910899 -3.30995 0
M  V30 3429 N 325.182 1.32811 0.848464 0
M  V30 3430 C 326.429 1.23724 1.60308 0
M  V30 3431 C 326.757 -0.1994 1.93475 0
M  V30 3432 O 326.012 -1.15406 1.5805 0
M  V30 3433 C 326.311 2.04831 2.92881 0
M  V30 3434 C 325.977 3.54125 2.79117 0
M  V30 3435 C 324.639 3.94829 2.7507 0
M  V30 3436 C 326.991 4.49036 2.64606 0
M  V30 3437 C 324.319 5.28675 2.544 0
M  V30 3438 C 326.671 5.83033 2.4547 0
M  V30 3439 C 325.335 6.22931 2.39819 0
M  V30 3440 H 324.605 0.452737 0.586609 0
M  V30 3441 H 327.252 1.64301 0.983743 0
M  V30 3442 H 325.557 1.57001 3.58968 0
M  V30 3443 H 327.254 1.95164 3.50303 0
M  V30 3444 H 323.844 3.21801 2.83094 0
M  V30 3445 H 328.028 4.18505 2.66772 0
M  V30 3446 H 323.284 5.58637 2.48465 0
M  V30 3447 H 327.458 6.56186 2.33222 0
M  V30 3448 H 325.085 7.26584 2.23562 0
M  V30 3449 N 326.66 -1.06551 1.16123 0
M  V30 3450 C 327.907 -1.79302 0.941126 0
M  V30 3451 C 328.235 -1.87105 -0.531235 0
M  V30 3452 O 327.49 -1.35692 -1.41018 0
M  V30 3453 C 327.789 -3.23911 1.51052 0
M  V30 3454 C 327.455 -3.36193 3.00475 0
M  V30 3455 C 326.117 -3.39252 3.41265 0
M  V30 3456 C 328.469 -3.38326 3.96465 0
M  V30 3457 C 325.797 -3.42057 4.76669 0
M  V30 3458 C 328.149 -3.4267 5.31752 0
M  V30 3459 C 326.813 -3.4401 5.72026 0
M  V30 3460 H 326.083 -0.656111 0.344382 0
M  V30 3461 H 328.73 -1.25325 1.44796 0
M  V30 3462 H 327.035 -3.80723 0.925063 0
M  V30 3463 H 328.732 -3.78793 1.31593 0
M  V30 3464 H 325.322 -3.34516 2.6795 0
M  V30 3465 H 329.506 -3.35176 3.6602 0
M  V30 3466 H 324.762 -3.41398 5.07206 0
M  V30 3467 H 328.936 -3.43268 6.05921 0
M  V30 3468 H 326.563 -3.45937 6.76928 0
M  V30 3469 N 328.138 -0.959301 -1.25041 0
M  V30 3470 C 329.386 -0.615393 -1.92503 0
M  V30 3471 C 329.707 0.850969 -1.75452 0
M  V30 3472 O 328.977 1.60658 -1.12098 0
M  V30 3473 H 327.557 -0.224613 -0.712431 0
M  V30 3474 H 330.219 -1.21855 -1.5211 0
M  V30 3475 H 329.315 -0.848738 -3.00338 0
M  V30 3476 N 329.616 1.39756 -0.72842 0
M  V30 3477 C 330.548 2.29157 -0.0446202 0
M  V30 3478 C 331.561 1.46484 0.710367 0
M  V30 3479 O 332.75 1.69632 0.55562 0
M  V30 3480 C 329.85 3.24987 0.961071 0
M  V30 3481 C 329.023 4.36572 0.268967 0
M  V30 3482 C 328.082 5.12756 1.18184 0
M  V30 3483 O 327.108 5.6534 0.661794 0
M  V30 3484 N 328.31 5.23331 2.51206 0
M  V30 3485 H 331.075 2.88482 -0.812295 0
M  V30 3486 H 328.636 1.51265 -0.577098 0
M  V30 3487 H 330.628 3.72827 1.57423 0
M  V30 3488 H 329.198 2.66739 1.63 0
M  V30 3489 H 328.418 3.90694 -0.524574 0
M  V30 3490 H 329.706 5.08363 -0.210934 0
M  V30 3491 H 329.104 4.82116 2.9594 0
M  V30 3492 H 327.661 5.74634 3.07634 0
M  V30 3493 N 331.094 0.475555 1.50254 0
M  V30 3494 C 332.51 0.12997 1.5907 0
M  V30 3495 C 332.71 -1.36385 1.48328 0
M  V30 3496 O 331.766 -2.13754 1.34407 0
M  V30 3497 C 333.079 0.684139 2.92814 0
M  V30 3498 C 334.627 0.647965 3.0622 0
M  V30 3499 C 335.102 1.17975 4.42545 0
M  V30 3500 N 336.593 1.13936 4.48969 0
M  V30 3501 C 337.328 1.52129 5.52851 0
M  V30 3502 N 336.824 1.97793 6.63965 0
M  V30 3503 N 338.617 1.43704 5.4342 0
M  V30 3504 H 330.768 1.44706 1.55479 0
M  V30 3505 H 333.031 0.598691 0.735033 0
M  V30 3506 H 332.737 1.73079 3.06164 0
M  V30 3507 H 332.611 0.130204 3.76975 0
M  V30 3508 H 334.998 -0.38979 2.92514 0
M  V30 3509 H 335.079 1.23876 2.23805 0
M  V30 3510 H 334.723 2.21616 4.57 0
M  V30 3511 H 334.653 0.565138 5.23559 0
M  V30 3512 H 337.144 0.804488 3.69238 0
M  V30 3513 H 337.457 2.25072 7.39299 0
M  V30 3514 H 335.802 2.01749 6.65073 0
M  V30 3515 H 338.993 1.07867 4.55502 0
M  V30 3516 H 339.166 1.73794 6.24259 0
M  V30 3517 N 332.573 -1.56217 0.208337 0
M  V30 3518 C 333.803 -2.02043 -0.431523 0
M  V30 3519 C 334.211 -1.08755 -1.54819 0
M  V30 3520 O 333.554 -0.0870009 -1.83494 0
M  V30 3521 C 333.616 -3.44239 -1.03633 0
M  V30 3522 C 333.28 -4.56965 -0.0567502 0
M  V30 3523 C 334.277 -5.14624 0.738773 0
M  V30 3524 C 331.962 -5.02266 0.0581736 0
M  V30 3525 C 333.956 -6.16045 1.63605 0
M  V30 3526 C 331.643 -6.03528 0.959001 0
M  V30 3527 C 332.641 -6.60293 1.7465 0
M  V30 3528 O 332.329 -7.59586 2.6322 0
M  V30 3529 H 332.061 -0.666772 -0.111313 0
M  V30 3530 H 334.615 -2.02919 0.318277 0
M  V30 3531 H 332.845 -3.40391 -1.83497 0
M  V30 3532 H 334.534 -3.73793 -1.58221 0
M  V30 3533 H 335.3 -4.80483 0.660364 0
M  V30 3534 H 331.179 -4.57771 -0.544633 0
M  V30 3535 H 334.723 -6.60279 2.25116 0
M  V30 3536 H 330.62 -6.37092 1.03848 0
M  V30 3537 H 331.388 -7.77057 2.57148 0
M  V30 3538 N 334.051 0.0651679 -1.57465 0
M  V30 3539 C 335.3 0.761916 -1.86756 0
M  V30 3540 C 335.613 1.78406 -0.801925 0
M  V30 3541 O 336.819 2.53084 -0.982885 0
M  V30 3542 C 335.275 1.40603 -3.31299 0
M  V30 3543 C 334.883 0.422115 -4.46007 0
M  V30 3544 C 336.627 2.08476 -3.69781 0
M  V30 3545 C 334.534 1.07252 -5.81593 0
M  V30 3546 H 333.464 0.288308 -0.696702 0
M  V30 3547 H 336.115 0.015344 -1.83494 0
M  V30 3548 H 334.497 2.20109 -3.29193 0
M  V30 3549 H 335.671 -0.343613 -4.59517 0
M  V30 3550 H 333.986 -0.152527 -4.16121 0
M  V30 3551 H 336.583 2.57925 -4.68379 0
M  V30 3552 H 336.926 2.88712 -2.99919 0
M  V30 3553 H 337.459 1.35792 -3.73905 0
M  V30 3554 H 334.198 0.310342 -6.54765 0
M  V30 3555 H 333.718 1.80895 -5.71872 0
M  V30 3556 H 335.397 1.59043 -6.27148 0
M  V30 3557 N 335.529 1.53961 0.336706 0
M  V30 3558 C 336.479 1.7881 1.41461 0
M  V30 3559 C 337.463 0.643561 1.47469 0
M  V30 3560 O 338.655 0.903166 1.52223 0
M  V30 3561 C 335.784 2.00722 2.78506 0
M  V30 3562 C 334.87 3.2126 2.76862 0
M  V30 3563 N 335.261 4.42588 2.44845 0
M  V30 3564 C 333.559 3.22568 3.08004 0
M  V30 3565 C 334.26 5.2447 2.51607 0
M  V30 3566 N 333.236 4.61344 2.87511 0
M  V30 3567 H 337.038 2.70205 1.15615 0
M  V30 3568 H 334.552 1.52978 0.545112 0
M  V30 3569 H 336.549 2.1666 3.5618 0
M  V30 3570 H 335.209 1.10573 3.05293 0
M  V30 3571 H 336.22 4.69819 2.17922 0
M  V30 3572 H 332.897 2.42409 3.39918 0
M  V30 3573 H 334.287 6.31324 2.29955 0
M  V30 3574 N 337.007 -0.598083 1.45811 0
M  V30 3575 C 338.256 -1.35295 1.49594 0
M  V30 3576 C 338.569 -1.95057 0.145679 0
M  V30 3577 O 339.775 -2.71431 0.0612099 0
M  V30 3578 C 338.231 -2.45124 2.63519 0
M  V30 3579 C 337.839 -1.91732 4.04899 0
M  V30 3580 C 339.583 -3.2205 2.76558 0
M  V30 3581 C 337.49 -2.991 5.1019 0
M  V30 3582 H 336.42 -0.508552 0.556679 0
M  V30 3583 H 339.071 -0.639977 1.71978 0
M  V30 3584 H 337.453 -3.19149 2.34435 0
M  V30 3585 H 338.627 -1.24352 4.43704 0
M  V30 3586 H 336.942 -1.27522 3.96393 0
M  V30 3587 H 339.539 -4.0215 3.52391 0
M  V30 3588 H 339.882 -3.73663 1.83526 0
M  V30 3589 H 340.415 -2.55127 3.05213 0
M  V30 3590 H 337.154 -2.52393 6.04961 0
M  V30 3591 H 336.674 -3.65017 4.75944 0
M  V30 3592 H 338.353 -3.63318 5.35359 0
M  V30 3593 N 338.485 -1.33259 -0.841409 0
M  V30 3594 C 339.415 -1.25926 -1.96634 0
M  V30 3595 C 340.396 -0.140349 -1.6952 0
M  V30 3596 O 341.581 -0.329707 -1.91381 0
M  V30 3597 C 338.711 -0.99512 -3.32738 0
M  V30 3598 C 337.665 -2.0767 -3.74242 0
M  V30 3599 C 336.991 -1.66474 -5.08125 0
M  V30 3600 C 338.291 -3.49318 -3.88297 0
M  V30 3601 H 339.985 -2.20046 -2.03027 0
M  V30 3602 H 337.531 -1.05931 -0.975425 0
M  V30 3603 H 339.484 -0.930323 -4.11002 0
M  V30 3604 H 338.208 -0.0183004 -3.26595 0
M  V30 3605 H 336.867 -2.13187 -2.98239 0
M  V30 3606 H 336.515 -0.675012 -4.9845 0
M  V30 3607 H 336.215 -2.3885 -5.36865 0
M  V30 3608 H 337.739 -1.61455 -5.88867 0
M  V30 3609 H 339.153 -3.46316 -4.56879 0
M  V30 3610 H 337.55 -4.20158 -4.28471 0
M  V30 3611 H 338.62 -3.8801 -2.9082 0
M  V30 3612 N 339.963 1.05934 -1.16686 0
M  V30 3613 C 341.211 1.78447 -0.948744 0
M  V30 3614 C 341.532 1.87813 0.524523 0
M  V30 3615 O 340.802 1.38945 1.38098 0
M  V30 3616 H 339.382 0.660971 -0.348033 0
M  V30 3617 H 342.044 1.27947 -1.47022 0
M  V30 3618 H 341.14 2.80394 -1.37061 0
M  V30 3619 N 341.441 0.965919 1.2453 0
M  V30 3620 C 342.857 0.67216 1.44756 0
M  V30 3621 C 343.057 -0.766609 1.86347 0
M  V30 3622 O 342.113 -1.5407 2.00047 0
M  V30 3623 C 343.426 1.65473 2.51076 0
M  V30 3624 C 344.974 1.66716 2.64905 0
M  V30 3625 C 345.449 2.63766 3.74421 0
M  V30 3626 N 346.94 2.62198 3.81846 0
M  V30 3627 C 347.675 3.33966 4.66106 0
M  V30 3628 N 347.171 4.15245 5.54566 0
M  V30 3629 N 348.964 3.22799 4.60171 0
M  V30 3630 H 341.115 1.89553 0.958293 0
M  V30 3631 H 343.378 0.815979 0.482579 0
M  V30 3632 H 343.084 2.68296 2.27399 0
M  V30 3633 H 342.958 1.4261 3.49202 0
M  V30 3634 H 345.345 0.646057 2.87941 0
M  V30 3635 H 345.426 1.93642 1.67142 0
M  V30 3636 H 345.07 3.6601 3.52135 0
M  V30 3637 H 345 2.34121 4.71694 0
M  V30 3638 H 347.491 2.032 3.18619 0
M  V30 3639 H 347.804 4.66898 6.15814 0
M  V30 3640 H 346.149 4.1934 5.54237 0
M  V30 3641 H 349.34 2.58764 3.90075 0
M  V30 3642 H 349.513 3.78994 5.25612 0
M  V30 3643 N 342.919 -1.39368 0.735821 0
M  V30 3644 C 344.335 -1.54204 0.411492 0
M  V30 3645 C 344.535 -1.70268 -1.07755 0
M  V30 3646 O 343.591 -1.70364 -1.86366 0
M  V30 3647 C 344.904 -2.75925 1.19523 0
M  V30 3648 C 346.452 -2.89761 1.18354 0
M  V30 3649 C 346.927 -4.14421 1.94986 0
M  V30 3650 N 348.418 -4.21462 1.92156 0
M  V30 3651 C 349.153 -5.16871 2.48258 0
M  V30 3652 N 348.649 -6.18063 3.13001 0
M  V30 3653 N 350.442 -5.09093 2.38287 0
M  V30 3654 H 342.593 -1.27189 1.70108 0
M  V30 3655 H 344.856 -0.616517 0.720147 0
M  V30 3656 H 344.562 -2.70401 2.24892 0
M  V30 3657 H 344.436 -3.68614 0.800222 0
M  V30 3658 H 346.823 -2.94777 0.137975 0
M  V30 3659 H 346.904 -1.98133 1.61793 0
M  V30 3660 H 346.548 -4.10166 2.99543 0
M  V30 3661 H 346.478 -5.05095 1.48953 0
M  V30 3662 H 348.969 -3.48979 1.44991 0
M  V30 3663 H 349.282 -6.87326 3.53275 0
M  V30 3664 H 347.627 -6.18448 3.17091 0
M  V30 3665 H 350.818 -4.28973 1.8735 0
M  V30 3666 H 350.991 -5.83272 2.82308 0
M  V30 3667 N 344.397 -0.483516 -1.5 0
M  V30 3668 C 345.344 0.304164 -2.28787 0
M  V30 3669 C 346.314 0.976114 -1.34392 0
M  V30 3670 O 347.499 0.986156 -1.63339 0
M  V30 3671 C 344.639 1.37298 -3.16612 0
M  V30 3672 C 343.752 0.714561 -4.26049 0
M  V30 3673 C 342.887 1.76232 -5.01114 0
M  V30 3674 C 341.926 1.08483 -6.0241 0
M  V30 3675 N 341.063 2.076 -6.70706 0
M  V30 3676 H 345.903 -0.373981 -2.95644 0
M  V30 3677 H 343.44 -0.196275 -1.45785 0
M  V30 3678 H 345.398 2.00445 -3.65893 0
M  V30 3679 H 344.028 2.02012 -2.51776 0
M  V30 3680 H 343.08 -0.0297798 -3.80388 0
M  V30 3681 H 344.392 0.180383 -4.98474 0
M  V30 3682 H 343.546 2.46929 -5.54176 0
M  V30 3683 H 342.285 2.33033 -4.28424 0
M  V30 3684 H 341.29 0.363545 -5.48597 0
M  V30 3685 H 342.515 0.523551 -6.77079 0
M  V30 3686 H 340.461 2.63394 -6.00799 0
M  V30 3687 H 340.378 1.59201 -7.39047 0
M  V30 3688 H 341.646 2.77639 -7.2838 0
M  V30 3689 N 345.875 1.56104 -0.216619 0
M  V30 3690 C 346.805 2.23063 0.690296 0
M  V30 3691 C 347.786 1.20072 1.20485 0
M  V30 3692 O 348.971 1.48643 1.24976 0
M  V30 3693 C 346.101 2.90672 1.90072 0
M  V30 3694 C 345.055 4.00092 1.5202 0
M  V30 3695 C 344.381 4.54972 2.80899 0
M  V30 3696 C 345.681 5.17398 0.71391 0
M  V30 3697 H 347.375 2.99109 0.132038 0
M  V30 3698 H 344.921 1.43866 0.0620664 0
M  V30 3699 H 346.874 3.36204 2.54057 0
M  V30 3700 H 345.598 2.12066 2.48386 0
M  V30 3701 H 344.257 3.55283 0.903839 0
M  V30 3702 H 343.905 3.73102 3.37348 0
M  V30 3703 H 343.605 5.28817 2.56176 0
M  V30 3704 H 345.129 5.0322 3.45836 0
M  V30 3705 H 346.543 5.59342 1.25735 0
M  V30 3706 H 344.94 5.97444 0.563951 0
M  V30 3707 H 346.01 4.84088 -0.280527 0
M  V30 3708 N 347.353 -0.0568162 1.57498 0
M  V30 3709 C 348.583 -0.764515 1.91934 0
M  V30 3710 C 348.991 -1.70877 0.81227 0
M  V30 3711 O 348.334 -1.82351 -0.222213 0
M  V30 3712 C 348.396 -1.5994 3.21962 0
M  V30 3713 C 348.06 -0.822925 4.4953 0
M  V30 3714 C 349.057 -0.135464 5.19723 0
M  V30 3715 C 346.742 -0.785666 4.96117 0
M  V30 3716 C 348.736 0.578861 6.34766 0
M  V30 3717 C 346.423 -0.0675784 6.11063 0
M  V30 3718 C 347.421 0.613471 6.80239 0
M  V30 3719 O 347.109 1.31996 7.92989 0
M  V30 3720 H 346.841 -0.221647 0.63863 0
M  V30 3721 H 349.395 -0.0268218 2.05382 0
M  V30 3722 H 347.625 -2.38026 3.04763 0
M  V30 3723 H 349.314 -2.18715 3.41934 0
M  V30 3724 H 350.08 -0.155458 4.84751 0
M  V30 3725 H 345.959 -1.30524 4.42136 0
M  V30 3726 H 349.503 1.111 6.88696 0
M  V30 3727 H 345.4 -0.0455636 6.45484 0
M  V30 3728 H 346.168 1.23077 8.09194 0
M  V30 3729 N 348.832 -1.54138 -0.328536 0
M  V30 3730 C 349.782 -1.79557 -1.4051 0
M  V30 3731 C 350.766 -0.651373 -1.47126 0
M  V30 3732 O 351.958 -0.911226 -1.51742 0
M  V30 3733 C 349.087 -2.02196 -2.77438 0
M  V30 3734 C 348.173 -3.22724 -2.75155 0
M  V30 3735 N 348.564 -4.43881 -2.42494 0
M  V30 3736 C 346.862 -3.24196 -3.06289 0
M  V30 3737 C 347.563 -5.25797 -2.48822 0
M  V30 3738 N 346.539 -4.62862 -2.8506 0
M  V30 3739 H 350.341 -2.70814 -1.1418 0
M  V30 3740 H 347.855 -1.53265 -0.536991 0
M  V30 3741 H 349.852 -2.18546 -3.55026 0
M  V30 3742 H 348.512 -1.12191 -3.04702 0
M  V30 3743 H 349.523 -4.70969 -2.15428 0
M  V30 3744 H 346.2 -2.44208 -3.38627 0
M  V30 3745 H 347.59 -6.32535 -2.26603 0
M  V30 3746 N 350.31 0.590341 -1.46126 0
M  V30 3747 C 351.556 1.35082 -1.51264 0
M  V30 3748 C 351.889 1.93534 -0.160711 0
M  V30 3749 O 351.164 1.76045 0.826956 0
M  V30 3750 C 351.447 2.48588 -2.6053 0
M  V30 3751 C 351.3 1.95221 -4.05227 0
M  V30 3752 C 352.619 3.50662 -2.6594 0
M  V30 3753 H 349.738 0.489803 -0.550692 0
M  V30 3754 H 352.38 0.663887 -1.78024 0
M  V30 3755 H 350.53 3.07186 -2.37843 0
M  V30 3756 H 352.202 1.41139 -4.39178 0
M  V30 3757 H 350.445 1.26101 -4.15068 0
M  V30 3758 H 351.116 2.77121 -4.77397 0
M  V30 3759 H 353.592 3.01934 -2.86313 0
M  V30 3760 H 352.468 4.27551 -3.44226 0
M  V30 3761 H 352.729 4.07399 -1.71694 0
M  V30 3762 N 351.788 1.33704 0.83433 0
M  V30 3763 C 353.034 1.25603 1.59222 0
M  V30 3764 C 353.367 -0.176659 1.93395 0
M  V30 3765 O 352.642 -1.11915 1.59076 0
M  V30 3766 C 352.925 2.13576 2.89926 0
M  V30 3767 C 352.778 3.65326 2.62406 0
M  V30 3768 C 354.097 2.01238 3.91397 0
M  V30 3769 H 351.216 0.457613 0.577719 0
M  V30 3770 H 353.858 1.63848 0.961972 0
M  V30 3771 H 352.008 1.8109 3.43713 0
M  V30 3772 H 353.68 4.08124 2.15017 0
M  V30 3773 H 351.923 3.8698 1.96033 0
M  V30 3774 H 352.594 4.22232 3.55562 0
M  V30 3775 H 355.07 2.29738 3.46929 0
M  V30 3776 H 353.946 2.65036 4.80673 0
M  V30 3777 H 354.207 0.985951 4.30966 0
M  V30 3778 N 353.266 -1.05314 1.17247 0
M  V30 3779 C 354.213 -2.13031 0.888058 0
M  V30 3780 C 355.183 -1.65253 -0.167537 0
M  V30 3781 O 356.368 -1.90775 -0.0305974 0
M  V30 3782 C 353.508 -3.42702 0.406147 0
M  V30 3783 C 352.621 -4.04161 1.52572 0
M  V30 3784 C 351.756 -5.21744 0.997808 0
M  V30 3785 C 350.795 -5.75207 2.09291 0
M  V30 3786 N 349.932 -6.84094 1.57986 0
M  V30 3787 H 354.772 -2.36698 1.81048 0
M  V30 3788 H 352.309 -1.16121 0.903013 0
M  V30 3789 H 354.267 -4.17059 0.108305 0
M  V30 3790 H 352.897 -3.19222 -0.479313 0
M  V30 3791 H 351.949 -3.27253 1.93931 0
M  V30 3792 H 353.261 -4.39881 2.35172 0
M  V30 3793 H 352.415 -6.03168 0.653739 0
M  V30 3794 H 351.154 -4.87495 0.141232 0
M  V30 3795 H 350.159 -4.92414 2.44557 0
M  V30 3796 H 351.384 -6.11505 2.95362 0
M  V30 3797 H 349.33 -6.51745 0.74598 0
M  V30 3798 H 349.247 -7.18811 2.34195 0
M  V30 3799 H 350.515 -7.69172 1.26468 0
M  V30 3800 N 354.744 -0.972509 -1.24016 0
M  V30 3801 C 355.974 -0.653853 -1.9598 0
M  V30 3802 C 356.382 0.781801 -1.72292 0
M  V30 3803 O 355.725 1.53677 -1.00644 0
M  V30 3804 C 355.787 -0.854608 -3.49194 0
M  V30 3805 C 355.451 -2.27082 -3.96589 0
M  V30 3806 C 356.448 -3.24892 -4.05883 0
M  V30 3807 C 354.133 -2.5998 -4.29786 0
M  V30 3808 C 356.127 -4.53684 -4.47716 0
M  V30 3809 C 353.814 -3.88997 -4.71301 0
M  V30 3810 C 354.812 -4.85661 -4.80232 0
M  V30 3811 O 354.5 -6.12376 -5.20818 0
M  V30 3812 H 354.232 -0.242572 -0.630979 0
M  V30 3813 H 356.786 -1.30431 -1.58673 0
M  V30 3814 H 355.016 -0.146985 -3.86421 0
M  V30 3815 H 356.705 -0.534311 -4.02368 0
M  V30 3816 H 357.471 -3.00805 -3.80449 0
M  V30 3817 H 353.35 -1.85457 -4.22051 0
M  V30 3818 H 356.894 -5.29135 -4.54601 0
M  V30 3819 H 352.791 -4.12882 -4.96184 0
M  V30 3820 H 353.559 -6.16013 -5.38953 0
M  V30 3821 N 356.222 1.38976 -0.743202 0
M  V30 3822 C 357.45 2.04636 -0.30525 0
M  V30 3823 C 357.865 1.56044 1.06281 0
M  V30 3824 O 357.222 0.728921 1.67311 0
M  V30 3825 C 357.273 3.60193 -0.307177 0
M  V30 3826 O 356.994 4.06998 -1.62124 0
M  V30 3827 C 358.495 4.4306 0.145928 0
M  V30 3828 H 355.715 0.65788 -0.132041 0
M  V30 3829 H 358.259 1.77866 -1.00915 0
M  V30 3830 H 356.414 3.85835 0.347898 0
M  V30 3831 H 356.828 5.01371 -1.54036 0
M  V30 3832 H 358.302 5.51921 0.0934183 0
M  V30 3833 H 358.779 4.22706 1.19231 0
M  V30 3834 H 359.385 4.22584 -0.479886 0
M  V30 3835 N 357.7 0.491464 1.49741 0
M  V30 3836 C 358.948 -0.0563141 2.02022 0
M  V30 3837 C 359.269 -1.38363 1.37407 0
M  V30 3838 O 358.539 -1.88702 0.526166 0
M  V30 3839 H 357.119 -0.0238014 0.746621 0
M  V30 3840 H 359.781 0.646533 1.83864 0
M  V30 3841 H 358.877 -0.192967 3.11503 0
M  V30 3842 N 359.178 -1.55987 0.224894 0
M  V30 3843 C 360.426 -1.97998 -0.405099 0
M  V30 3844 C 360.747 -1.11387 -1.60056 0
M  V30 3845 O 360.017 -0.191645 -1.9496 0
M  V30 3846 H 358.597 -0.731235 -0.152658 0
M  V30 3847 H 361.259 -1.92279 0.318567 0
M  V30 3848 H 360.355 -3.03463 -0.729167 0
M  V30 3849 N 360.656 0.0484629 -1.57525 0
M  V30 3850 C 361.881 0.759177 -1.93006 0
M  V30 3851 C 362.306 1.69125 -0.823317 0
M  V30 3852 O 361.664 1.79931 0.222364 0
M  V30 3853 C 361.712 1.50899 -3.27509 0
M  V30 3854 O 360.816 2.62112 -3.18388 0
M  V30 3855 H 360.157 0.205564 -0.631379 0
M  V30 3856 H 362.687 0.00972959 -2.04598 0
M  V30 3857 H 362.697 1.88317 -3.6194 0
M  V30 3858 H 361.372 0.825269 -4.0763 0
M  V30 3859 H 359.949 2.27379 -2.95556 0
M  V30 3860 N 362.134 1.5431 0.320358 0
M  V30 3861 C 363.097 1.83195 1.3774 0
M  V30 3862 C 364.097 0.703906 1.44575 0
M  V30 3863 O 365.287 0.972214 1.44546 0
M  V30 3864 C 362.419 1.99487 2.76438 0
M  V30 3865 H 363.612 2.77642 1.1338 0
M  V30 3866 H 361.165 1.46076 0.556012 0
M  V30 3867 H 361.9 1.07262 3.06048 0
M  V30 3868 H 361.685 2.81575 2.7287 0
M  V30 3869 H 363.175 2.23271 3.52902 0
M  V30 3870 N 363.613 -0.582584 1.46437 0
M  V30 3871 C 364.523 -1.71949 1.59595 0
M  V30 3872 C 365.539 -1.67264 0.479443 0
M  V30 3873 O 366.715 -1.87171 0.743579 0
M  V30 3874 C 363.78 -3.08452 1.58298 0
M  V30 3875 C 362.841 -3.244 2.81182 0
M  V30 3876 C 362.074 -4.54391 2.79937 0
M  V30 3877 O 362.297 -5.38287 1.8869 0
M  V30 3878 O 361.231 -4.73588 3.71481 0
M  V30 3879 H 365.057 -1.63795 2.55744 0
M  V30 3880 H 362.642 -0.749643 1.29231 0
M  V30 3881 H 364.524 -3.89732 1.60271 0
M  V30 3882 H 363.199 -3.17043 0.653094 0
M  V30 3883 H 362.106 -2.42613 2.84763 0
M  V30 3884 H 363.439 -3.20699 3.7338 0
M  V30 3885 N 365.091 -1.34144 -0.827227 0
M  V30 3886 C 366.021 -1.28005 -1.95287 0
M  V30 3887 C 367.002 -0.158321 -1.69362 0
M  V30 3888 O 368.187 -0.349987 -1.9102 0
M  V30 3889 C 365.317 -1.03036 -3.31664 0
M  V30 3890 C 364.271 -2.11628 -3.72019 0
M  V30 3891 C 363.597 -1.71854 -5.0633 0
M  V30 3892 C 364.897 -3.53417 -3.8457 0
M  V30 3893 H 366.591 -2.22187 -2.00682 0
M  V30 3894 H 364.137 -1.0696 -0.964135 0
M  V30 3895 H 366.09 -0.973863 -4.09993 0
M  V30 3896 H 364.814 -0.0529391 -3.26557 0
M  V30 3897 H 363.473 -2.16339 -2.95961 0
M  V30 3898 H 363.121 -0.727841 -4.97706 0
M  V30 3899 H 362.821 -2.44531 -5.34302 0
M  V30 3900 H 364.345 -1.67692 -5.87122 0
M  V30 3901 H 365.759 -3.51142 -4.5318 0
M  V30 3902 H 364.156 -4.24679 -4.2399 0
M  V30 3903 H 365.226 -3.91072 -2.86689 0
M  V30 3904 N 366.569 1.04691 -1.17803 0
M  V30 3905 C 367.499 2.14494 -0.92275 0
M  V30 3906 C 368.48 1.69546 0.137179 0
M  V30 3907 O 369.665 1.94195 -0.0141108 0
M  V30 3908 C 366.795 3.44491 -0.440803 0
M  V30 3909 C 365.749 4.03031 -1.4405 0
M  V30 3910 C 365.075 5.28432 -0.81631 0
M  V30 3911 C 366.375 4.39932 -2.81527 0
M  V30 3912 H 368.069 2.36107 -1.84103 0
M  V30 3913 H 365.615 1.1347 -0.886599 0
M  V30 3914 H 367.568 4.2066 -0.249602 0
M  V30 3915 H 366.292 3.22546 0.513025 0
M  V30 3916 H 364.951 3.28937 -1.61853 0
M  V30 3917 H 364.599 5.02792 0.144511 0
M  V30 3918 H 364.299 5.68559 -1.48371 0
M  V30 3919 H 365.823 6.07284 -0.635496 0
M  V30 3920 H 367.237 5.07113 -2.67412 0
M  V30 3921 H 365.634 4.9109 -3.44892 0
M  V30 3922 H 366.704 3.50045 -3.35554 0
M  V30 3923 N 368.047 0.979072 1.23499 0
M  V30 3924 C 369.294 0.647219 1.91878 0
M  V30 3925 C 369.622 -0.819074 1.76413 0
M  V30 3926 O 368.877 -1.60616 1.11808 0
M  V30 3927 C 369.176 0.981932 3.43646 0
M  V30 3928 C 368.842 2.43822 3.79291 0
M  V30 3929 C 367.504 2.83622 3.88731 0
M  V30 3930 C 369.856 3.3828 3.96505 0
M  V30 3931 C 367.184 4.16897 4.12812 0
M  V30 3932 C 369.536 4.71197 4.22085 0
M  V30 3933 C 368.2 5.10758 4.29747 0
M  V30 3934 H 367.47 0.236834 0.702133 0
M  V30 3935 H 370.117 1.23268 1.46551 0
M  V30 3936 H 368.422 0.314365 3.90537 0
M  V30 3937 H 370.119 0.703395 3.94783 0
M  V30 3938 H 366.709 2.11966 3.72516 0
M  V30 3939 H 370.893 3.0871 3.88603 0
M  V30 3940 H 366.149 4.47157 4.16966 0
M  V30 3941 H 370.323 5.44348 4.34348 0
M  V30 3942 H 367.95 6.1405 4.48159 0
M  V30 3943 N 369.525 -1.3858 0.750561 0
M  V30 3944 C 370.772 -2.00184 0.305373 0
M  V30 3945 C 371.1 -1.59575 -1.11203 0
M  V30 3946 O 370.355 -0.823236 -1.77542 0
M  V30 3947 C 370.654 -3.55455 0.372373 0
M  V30 3948 C 370.32 -4.15765 1.745 0
M  V30 3949 C 368.982 -4.31951 2.12065 0
M  V30 3950 C 371.334 -4.49067 2.64553 0
M  V30 3951 C 368.662 -4.78734 3.39162 0
M  V30 3952 C 371.014 -4.97265 3.91038 0
M  V30 3953 C 369.678 -5.11658 4.28676 0
M  V30 3954 H 368.948 -0.732526 0.111744 0
M  V30 3955 H 371.595 -1.65673 0.960451 0
M  V30 3956 H 369.9 -3.90084 -0.366272 0
M  V30 3957 H 371.597 -4.00999 0.00953918 0
M  V30 3958 H 368.187 -4.03579 1.44297 0
M  V30 3959 H 372.371 -4.36166 2.36796 0
M  V30 3960 H 367.627 -4.88062 3.68246 0
M  V30 3961 H 371.801 -5.22003 4.60962 0
M  V30 3962 H 369.428 -5.47668 5.27222 0
M  V30 3963 N 371.003 -0.499398 -1.49478 0
M  V30 3964 C 372.249 0.0457576 -2.02748 0
M  V30 3965 C 372.582 1.36793 -1.37846 0
M  V30 3966 O 371.857 1.87596 -0.513601 0
M  V30 3967 C 372.14 0.199986 -3.59544 0
M  V30 3968 C 371.993 -1.1452 -4.34977 0
M  V30 3969 C 373.312 0.94137 -4.29914 0
M  V30 3970 H 370.431 0.0151552 -0.736844 0
M  V30 3971 H 373.073 -0.650498 -1.78518 0
M  V30 3972 H 371.223 0.793007 -3.8032 0
M  V30 3973 H 372.895 -1.77697 -4.25701 0
M  V30 3974 H 371.138 -1.73488 -3.97598 0
M  V30 3975 H 371.809 -0.990607 -5.43039 0
M  V30 3976 H 374.285 0.43844 -4.13784 0
M  V30 3977 H 373.161 1.01812 -5.39375 0
M  V30 3978 H 373.422 1.98471 -3.95046 0
M  V30 3979 N 372.481 1.55866 -0.233164 0
M  V30 3980 C 373.391 2.24431 0.683217 0
M  V30 3981 C 374.407 1.2558 1.2044 0
M  V30 3982 O 375.583 1.58422 1.24356 0
M  V30 3983 C 372.648 2.91979 1.86947 0
M  V30 3984 C 371.709 4.06204 1.38912 0
M  V30 3985 C 370.942 4.70522 2.51883 0
M  V30 3986 O 371.165 4.33865 3.70293 0
M  V30 3987 O 370.099 5.59296 2.22423 0
M  V30 3988 H 373.925 3.03426 0.129059 0
M  V30 3989 H 371.51 1.494 -0.0022283 0
M  V30 3990 H 373.392 3.34573 2.56201 0
M  V30 3991 H 372.067 2.15935 2.41151 0
M  V30 3992 H 370.974 3.68155 0.664259 0
M  V30 3993 H 372.307 4.84025 0.893328 0
M  V30 3994 N 373.959 -0.0401083 1.57549 0
M  V30 3995 C 375.207 -0.731677 1.8839 0
M  V30 3996 C 375.528 -1.76481 0.829425 0
M  V30 3997 O 374.798 -1.95411 -0.1383 0
M  V30 3998 H 373.378 -0.273225 0.695239 0
M  V30 3999 H 376.04 -0.00867725 1.94898 0
M  V30 4000 H 375.136 -1.22816 2.86919 0
M  V30 4001 N 375.437 -1.54477 -0.31217 0
M  V30 4002 C 376.367 -1.87652 -1.38957 0
M  V30 4003 C 377.348 -0.734358 -1.53431 0
M  V30 4004 O 378.533 -0.98911 -1.67123 0
M  V30 4005 C 375.663 -2.11396 -2.75552 0
M  V30 4006 C 374.617 -3.27243 -2.75855 0
M  V30 4007 C 373.943 -3.36382 -4.15633 0
M  V30 4008 C 375.243 -4.64622 -2.38587 0
M  V30 4009 H 376.937 -2.77887 -1.11442 0
M  V30 4010 H 374.483 -1.33707 -0.534655 0
M  V30 4011 H 376.436 -2.33189 -3.51 0
M  V30 4012 H 375.16 -1.17921 -3.04569 0
M  V30 4013 H 373.819 -3.05356 -2.02863 0
M  V30 4014 H 373.467 -2.40445 -4.41809 0
M  V30 4015 H 373.167 -4.14249 -4.1674 0
M  V30 4016 H 374.691 -3.60422 -4.92877 0
M  V30 4017 H 376.105 -4.86219 -3.03749 0
M  V30 4018 H 374.502 -5.45121 -2.50925 0
M  V30 4019 H 375.572 -4.66097 -1.33723 0
M  V30 4020 N 376.915 0.57481 -1.46744 0
M  V30 4021 C 378.155 1.34369 -1.54027 0
M  V30 4022 C 378.519 1.91051 -0.190642 0
M  V30 4023 O 379.72 2.68444 -0.138255 0
M  V30 4024 C 377.991 2.43706 -2.61423 0
M  V30 4025 S 379.55 3.30915 -2.88167 0
M  V30 4026 H 376.368 0.45768 -0.544105 0
M  V30 4027 H 378.97 0.659959 -1.84024 0
M  V30 4028 H 377.674 2.0047 -3.58106 0
M  V30 4029 H 377.205 3.16842 -2.33184 0
M  V30 4030 H 379.22 4.42742 -2.24039 0
M  V30 4031 N 378.394 1.34581 0.820102 0
M  V30 4032 C 379.641 1.27096 1.57648 0
M  V30 4033 C 379.969 -0.158317 1.93855 0
M  V30 4034 O 379.224 -1.12028 1.60463 0
M  V30 4035 C 379.523 2.10997 2.8847 0
M  V30 4036 C 379.189 3.59966 2.71543 0
M  V30 4037 C 377.851 4.00575 2.66634 0
M  V30 4038 C 380.203 4.54548 2.55021 0
M  V30 4039 C 377.531 5.33953 2.43128 0
M  V30 4040 C 379.883 5.88109 2.33047 0
M  V30 4041 C 378.547 6.27878 2.26552 0
M  V30 4042 H 377.817 0.465078 0.576874 0
M  V30 4043 H 380.464 1.6635 0.948671 0
M  V30 4044 H 378.769 1.6458 3.55557 0
M  V30 4045 H 380.466 2.0255 3.46084 0
M  V30 4046 H 377.056 3.27733 2.76205 0
M  V30 4047 H 381.24 4.24069 2.57835 0
M  V30 4048 H 376.496 5.63781 2.3656 0
M  V30 4049 H 380.67 6.60985 2.19251 0
M  V30 4050 H 378.297 7.31162 2.081 0
M  V30 4051 N 379.872 -1.04064 1.18357 0
M  V30 4052 C 381.283 -1.58719 0.98312 0
M  V30 4053 C 381.634 -1.90556 -0.467193 0
M  V30 4054 O 380.759 -1.69561 -1.34454 0
M  V30 4055 C 381.354 -2.88379 1.77828 0
M  V30 4056 C 379.913 -3.3965 1.62218 0
M  V30 4057 C 379.06 -2.13235 1.77274 0
M  V30 4058 H 382.011 -0.867359 1.32901 0
M  V30 4059 H 382.032 -3.58773 1.26737 0
M  V30 4060 H 381.544 -2.65176 2.83379 0
M  V30 4061 H 379.645 -3.67866 0.592036 0
M  V30 4062 H 379.758 -4.13475 2.42023 0
M  V30 4063 H 378.122 -2.24542 1.20221 0
M  V30 4064 H 378.905 -1.92487 2.8426 0
M  V30 4065 N 381.35 -0.985608 -1.22978 0
M  V30 4066 C 382.627 -0.573599 -1.87001 0
M  V30 4067 C 383.007 0.949213 -1.88555 0
M  V30 4068 O 382.355 1.82811 -1.37086 0
M  V30 4069 C 382.565 -1.18564 -3.28243 0
M  V30 4070 C 383.913 -1.28163 -4.04796 0
M  V30 4071 O 384.937 -1.13949 -3.37482 0
M  V30 4072 O 383.796 -1.50832 -5.25273 0
M  V30 4073 H 380.89 -0.193868 -0.803955 0
M  V30 4074 H 383.436 -1.08102 -1.30813 0
M  V30 4075 H 382.208 -2.22758 -3.21706 0
M  V30 4076 H 381.831 -0.663363 -3.92027 0
M  V30 4077 N 382.828 1.3818 -0.7579 0
M  V30 4078 C 383.738 2.3421 -0.135247 0
M  V30 4079 C 384.754 1.59487 0.695683 0
M  V30 4080 O 385.93 1.91657 0.618832 0
M  V30 4081 C 382.995 3.3862 0.744139 0
M  V30 4082 C 382.056 4.2918 -0.101658 0
M  V30 4083 C 381.289 5.28603 0.735851 0
M  V30 4084 O 381.512 5.35166 1.97366 0
M  V30 4085 O 380.446 6.01707 0.152372 0
M  V30 4086 H 384.272 2.8916 -0.928436 0
M  V30 4087 H 381.857 1.40101 -0.518855 0
M  V30 4088 H 383.739 4.02539 1.2466 0
M  V30 4089 H 382.414 2.86019 1.51575 0
M  V30 4090 H 381.321 3.68407 -0.650167 0
M  V30 4091 H 382.654 4.85048 -0.836024 0
M  V30 4092 N 384.306 0.507319 1.49211 0
M  V30 4093 C 385.554 -0.0348839 2.0207 0
M  V30 4094 C 385.875 -1.36898 1.38866 0
M  V30 4095 O 385.145 -1.88133 0.546151 0
M  V30 4096 H 383.725 -0.0158812 0.746831 0
M  V30 4097 H 386.387 0.665998 1.83168 0
M  V30 4098 H 385.483 -0.159917 3.1169 0
M  V30 4099 N 385.784 -1.5574 0.241426 0
M  V30 4100 C 387.031 -1.9881 -0.384836 0
M  V30 4101 C 387.359 -1.12947 -1.58346 0
M  V30 4102 O 386.614 -0.178993 -1.9488 0
M  V30 4103 C 386.913 -3.47308 -0.843317 0
M  V30 4104 C 386.579 -4.50223 0.246946 0
M  V30 4105 C 385.241 -4.78088 0.546399 0
M  V30 4106 C 387.593 -5.11841 0.983282 0
M  V30 4107 C 384.921 -5.64846 1.58636 0
M  V30 4108 C 387.273 -5.99727 2.01272 0
M  V30 4109 C 385.937 -6.25927 2.31888 0
M  V30 4110 H 385.207 -0.727496 -0.140821 0
M  V30 4111 H 387.854 -1.8831 0.348106 0
M  V30 4112 H 386.159 -3.55112 -1.65537 0
M  V30 4113 H 387.856 -3.78017 -1.33806 0
M  V30 4114 H 384.446 -4.286 0.00340639 0
M  V30 4115 H 388.63 -4.90366 0.765182 0
M  V30 4116 H 383.886 -5.83403 1.82896 0
M  V30 4117 H 388.06 -6.46517 2.58823 0
M  V30 4118 H 385.687 -6.92949 3.12611 0
M  V30 4119 N 387.262 0.0317525 -1.57568 0
M  V30 4120 C 388.487 0.738664 -1.938 0
M  V30 4121 C 388.912 1.68242 -0.841208 0
M  V30 4122 O 388.27 1.80157 0.203267 0
M  V30 4123 C 388.318 1.47417 -3.29091 0
M  V30 4124 O 387.422 2.5872 -3.2115 0
M  V30 4125 H 386.763 0.198856 -0.633524 0
M  V30 4126 H 389.293 -0.0119713 -2.04596 0
M  V30 4127 H 389.303 1.84468 -3.63917 0
M  V30 4128 H 387.978 0.781988 -4.08482 0
M  V30 4129 H 386.555 2.24231 -2.97951 0
M  V30 4130 N 388.74 1.54641 0.303973 0
M  V30 4131 C 389.988 1.73437 1.0375 0
M  V30 4132 C 390.309 0.521449 1.87899 0
M  V30 4133 O 389.579 -0.46432 1.90318 0
M  V30 4134 H 388.159 0.639518 0.386039 0
M  V30 4135 H 390.821 1.91988 0.335675 0
M  V30 4136 H 389.917 2.62235 1.69231 0
M  V30 4137 N 390.218 -0.567019 1.47046 0
M  V30 4138 C 391.148 -1.68482 1.61667 0
M  V30 4139 C 392.129 -1.6358 0.466418 0
M  V30 4140 O 393.314 -1.81354 0.694574 0
M  V30 4141 C 390.444 -3.07124 1.62148 0
M  V30 4142 C 389.398 -3.26867 2.76301 0
M  V30 4143 C 388.724 -4.66196 2.61849 0
M  V30 4144 C 390.024 -3.13186 4.17986 0
M  V30 4145 H 391.718 -1.56502 2.5524 0
M  V30 4146 H 389.264 -0.751486 1.22836 0
M  V30 4147 H 391.217 -3.8516 1.70968 0
M  V30 4148 H 389.941 -3.2004 0.651287 0
M  V30 4149 H 388.6 -2.51237 2.66975 0
M  V30 4150 H 388.248 -4.75898 1.62879 0
M  V30 4151 H 387.948 -4.80356 3.38425 0
M  V30 4152 H 389.472 -5.46379 2.72584 0
M  V30 4153 H 390.886 -3.81049 4.2834 0
M  V30 4154 H 389.283 -3.3886 4.95272 0
M  V30 4155 H 390.353 -2.10057 4.3704 0
M  V30 4156 N 391.696 -1.35014 -0.812953 0
M  V30 4157 C 392.942 -1.2812 -1.57204 0
M  V30 4158 C 393.275 0.145869 -1.93651 0
M  V30 4159 O 392.55 1.0937 -1.60836 0
M  V30 4160 C 392.833 -2.18162 -2.86492 0
M  V30 4161 C 392.686 -3.69454 -2.56561 0
M  V30 4162 C 394.005 -2.07439 -3.88145 0
M  V30 4163 H 391.124 -0.466746 -0.570366 0
M  V30 4164 H 393.766 -1.65357 -0.935783 0
M  V30 4165 H 391.916 -1.86535 -3.40789 0
M  V30 4166 H 393.588 -4.11493 -2.08497 0
M  V30 4167 H 391.831 -3.9005 -1.89851 0
M  V30 4168 H 392.502 -4.27835 -3.48799 0
M  V30 4169 H 394.978 -2.35228 -3.4323 0
M  V30 4170 H 393.854 -2.7265 -4.76396 0
M  V30 4171 H 394.115 -1.05439 -4.29343 0
M  V30 4172 N 393.175 1.03435 -1.18907 0
M  V30 4173 C 394.4 1.80919 -1.01406 0
M  V30 4174 C 394.825 1.83055 0.432721 0
M  V30 4175 O 394.183 1.25252 1.31079 0
M  V30 4176 C 394.231 3.24091 -1.58105 0
M  V30 4177 O 393.335 4.04434 -0.806669 0
M  V30 4178 H 392.676 0.558709 -0.358803 0
M  V30 4179 H 395.206 1.30223 -1.57807 0
M  V30 4180 H 395.216 3.74853 -1.61087 0
M  V30 4181 H 393.891 3.21851 -2.6341 0
M  V30 4182 H 392.468 3.63091 -0.849666 0
M  V30 4183 N 394.653 0.992116 1.22453 0
M  V30 4184 C 395.902 0.662992 1.90492 0
M  V30 4185 C 396.215 -0.808407 1.78113 0
M  V30 4186 O 397.421 -1.24908 2.41061 0
M  V30 4187 C 395.877 1.1353 3.41524 0
M  V30 4188 C 395.485 2.63187 3.62542 0
M  V30 4189 C 397.229 0.880465 4.15269 0
M  V30 4190 C 395.136 3.04024 5.0727 0
M  V30 4191 H 394.066 0.244278 0.713333 0
M  V30 4192 H 396.717 1.20157 1.38688 0
M  V30 4193 H 395.099 0.52485 3.92506 0
M  V30 4194 H 396.273 3.2957 3.22056 0
M  V30 4195 H 394.588 2.86543 3.02129 0
M  V30 4196 H 397.185 1.16128 5.21937 0
M  V30 4197 H 397.528 -0.183408 4.15896 0
M  V30 4198 H 398.061 1.45307 3.70312 0
M  V30 4199 H 394.8 4.09584 5.11782 0
M  V30 4200 H 394.32 2.42343 5.48662 0
M  V30 4201 H 395.999 2.95282 5.75689 0
M  V30 4202 N 396.131 -1.37776 0.765217 0
M  V30 4203 C 397.081 -2.2768 0.12075 0
M  V30 4204 C 398.065 -1.45778 -0.680988 0
M  V30 4205 O 399.257 -1.684 -0.545033 0
M  V30 4206 C 396.386 -3.34722 -0.762626 0
M  V30 4207 C 395.472 -4.24074 0.0465881 0
M  V30 4208 N 395.863 -4.93939 1.08892 0
M  V30 4209 C 394.161 -4.45643 -0.178418 0
M  V30 4210 C 394.862 -5.59845 1.57951 0
M  V30 4211 N 393.838 -5.36218 0.892797 0
M  V30 4212 H 397.64 -2.79166 0.918889 0
M  V30 4213 H 395.154 -1.50816 0.602353 0
M  V30 4214 H 397.151 -3.98031 -1.24005 0
M  V30 4215 H 395.811 -2.84793 -1.55959 0
M  V30 4216 H 396.822 -4.96572 1.47095 0
M  V30 4217 H 393.499 -4.06599 -0.9478 0
M  V30 4218 H 394.889 -6.25703 2.44838 0
M  V30 4219 N 397.609 -0.515225 -1.4894 0
M  V30 4220 C 398.855 0.0242508 -2.02785 0
M  V30 4221 C 399.188 1.35323 -1.39289 0
M  V30 4222 O 398.463 1.87041 -0.533469 0
M  V30 4223 C 398.746 0.16184 -3.59736 0
M  V30 4224 C 398.599 -1.19127 -4.33738 0
M  V30 4225 C 399.918 0.895719 -4.30888 0
M  V30 4226 H 397.037 0.00733914 -0.736963 0
M  V30 4227 H 399.679 -0.669395 -1.77818 0
M  V30 4228 H 397.829 0.752624 -3.8114 0
M  V30 4229 H 399.501 -1.82202 -4.23792 0
M  V30 4230 H 397.744 -1.77695 -3.95736 0
M  V30 4231 H 398.415 -1.04815 -5.41957 0
M  V30 4232 H 400.891 0.394528 -4.14225 0
M  V30 4233 H 399.767 0.960859 -5.40425 0
M  V30 4234 H 400.028 1.9427 -3.97129 0
M  V30 4235 N 399.087 1.5561 -0.249682 0
M  V30 4236 C 400.312 2.03865 0.381305 0
M  V30 4237 C 400.737 1.12769 1.50548 0
M  V30 4238 O 400.095 0.121189 1.80895 0
M  V30 4239 C 400.143 3.50101 0.863816 0
M  V30 4240 O 399.247 3.62132 1.97318 0
M  V30 4241 H 398.588 0.658827 0.0827194 0
M  V30 4242 H 401.118 2.01105 -0.376552 0
M  V30 4243 H 401.128 3.90975 1.1663 0
M  V30 4244 H 399.803 4.1588 0.0411816 0
M  V30 4245 H 398.38 3.33155 1.67517 0
M  V30 4246 N 400.565 -0.0233959 1.57583 0
M  V30 4247 C 401.495 -1.02162 2.09965 0
M  V30 4248 C 402.476 -1.3735 1.00344 0
M  V30 4249 O 403.661 -1.46135 1.27899 0
M  V30 4250 C 400.791 -2.32081 2.58371 0
M  V30 4251 C 399.745 -2.1112 3.72307 0
M  V30 4252 C 399.071 -3.46848 4.06941 0
M  V30 4253 C 400.371 -1.49276 5.00514 0
M  V30 4254 H 402.065 -0.585557 2.93618 0
M  V30 4255 H 399.611 -0.280218 1.41247 0
M  V30 4256 H 401.564 -3.02249 2.93639 0
M  V30 4257 H 400.288 -2.77758 1.71808 0
M  V30 4258 H 398.947 -1.43384 3.37397 0
M  V30 4259 H 398.595 -3.90184 3.17436 0
M  V30 4260 H 398.295 -3.33646 4.83688 0
M  V30 4261 H 399.819 -4.18369 4.44747 0
M  V30 4262 H 401.233 -2.09368 5.33702 0
M  V30 4263 H 399.63 -1.46632 5.8191 0
M  V30 4264 H 400.7 -0.459217 4.82721 0
M  V30 4265 N 402.043 -1.548 -0.295768 0
M  V30 4266 C 402.973 -1.89115 -1.36959 0
M  V30 4267 C 403.954 -0.75059 -1.52644 0
M  V30 4268 O 405.139 -1.00678 -1.66065 0
M  V30 4269 C 402.269 -2.14307 -2.73295 0
M  V30 4270 C 401.223 -3.30151 -2.72368 0
M  V30 4271 C 400.549 -3.40772 -4.12042 0
M  V30 4272 C 401.849 -4.67126 -2.33646 0
M  V30 4273 H 403.543 -2.79053 -1.08488 0
M  V30 4274 H 401.089 -1.34266 -0.520443 0
M  V30 4275 H 403.042 -2.36898 -3.48507 0
M  V30 4276 H 401.766 -1.21145 -3.03301 0
M  V30 4277 H 400.425 -3.0749 -1.99613 0
M  V30 4278 H 400.073 -2.45117 -4.39234 0
M  V30 4279 H 399.773 -4.18645 -4.12322 0
M  V30 4280 H 401.297 -3.6563 -4.89027 0
M  V30 4281 H 402.711 -4.89414 -2.98575 0
M  V30 4282 H 401.108 -5.47751 -2.45129 0
M  V30 4283 H 402.178 -4.67489 -1.28772 0
M  V30 4284 N 403.521 0.559213 -1.47345 0
M  V30 4285 C 404.431 1.69388 -1.62311 0
M  V30 4286 C 405.447 1.6648 -0.505993 0
M  V30 4287 O 406.623 1.85964 -0.773262 0
M  V30 4288 C 403.688 3.05894 -1.63185 0
M  V30 4289 C 402.749 3.19885 -2.86307 0
M  V30 4290 C 401.982 4.49879 -2.87131 0
M  V30 4291 O 402.205 5.35217 -1.97229 0
M  V30 4292 O 401.139 4.67618 -3.78968 0
M  V30 4293 H 404.965 1.59706 -2.58317 0
M  V30 4294 H 402.55 0.728989 -1.30407 0
M  V30 4295 H 404.432 3.87133 -1.66451 0
M  V30 4296 H 403.107 3.15964 -0.70345 0
M  V30 4297 H 402.014 2.38052 -2.88587 0
M  V30 4298 H 403.347 3.14718 -3.78435 0
M  V30 4299 N 404.999 1.35443 0.805782 0
M  V30 4300 C 406.229 1.31687 1.59192 0
M  V30 4301 C 406.637 -0.10756 1.88894 0
M  V30 4302 O 405.98 -1.07017 1.49309 0
M  V30 4303 C 406.042 2.05686 2.94845 0
M  V30 4304 C 405.706 3.54868 2.87954 0
M  V30 4305 C 406.703 4.49444 2.61335 0
M  V30 4306 C 404.388 3.97528 3.07046 0
M  V30 4307 C 406.382 5.84655 2.53885 0
M  V30 4308 C 404.069 5.32833 2.99219 0
M  V30 4309 C 405.067 6.26209 2.72674 0
M  V30 4310 O 404.755 7.59032 2.64811 0
M  V30 4311 H 404.487 0.453878 0.50097 0
M  V30 4312 H 407.041 1.78892 1.0093 0
M  V30 4313 H 405.271 1.5312 3.55093 0
M  V30 4314 H 406.96 1.94998 3.55993 0
M  V30 4315 H 407.726 4.17804 2.46303 0
M  V30 4316 H 403.605 3.25233 3.26718 0
M  V30 4317 H 407.149 6.57508 2.33086 0
M  V30 4318 H 403.046 5.64087 3.13809 0
M  V30 4319 H 403.814 7.68967 2.80413 0
M  V30 4320 N 406.477 -1.02803 1.19454 0
M  V30 4321 C 407.41 -2.107 0.876396 0
M  V30 4322 C 408.388 -1.61741 -0.166897 0
M  V30 4323 O 409.572 -1.88451 -0.0430195 0
M  V30 4324 C 406.699 -3.37262 0.311758 0
M  V30 4325 C 405.745 -4.05093 1.33424 0
M  V30 4326 S 406.578 -4.50498 2.89503 0
M  V30 4327 C 407.734 -5.80277 2.34584 0
M  V30 4328 H 407.967 -2.37362 1.79016 0
M  V30 4329 H 405.5 -1.15755 1.02177 0
M  V30 4330 H 407.458 -4.10499 -0.00748752 0
M  V30 4331 H 406.119 -3.08693 -0.58032 0
M  V30 4332 H 405.312 -4.9611 0.888302 0
M  V30 4333 H 404.914 -3.3803 1.60037 0
M  V30 4334 H 407.206 -6.54873 1.73633 0
M  V30 4335 H 408.149 -6.29651 3.23952 0
M  V30 4336 H 408.557 -5.3599 1.77131 0
M  V30 4337 N 407.956 -0.998596 -1.21925 0
M  V30 4338 C 408.919 -0.558679 -2.22287 0
M  V30 4339 C 409.919 0.361525 -1.56683 0
M  V30 4340 O 411.109 0.152695 -1.73529 0
M  V30 4341 C 408.241 0.18661 -3.40389 0
M  V30 4342 H 409.434 -1.4463 -2.62721 0
M  V30 4343 H 406.987 -0.786413 -1.35075 0
M  V30 4344 H 407.722 1.08996 -3.05435 0
M  V30 4345 H 407.507 -0.474188 -3.89222 0
M  V30 4346 H 408.997 0.482367 -4.14805 0
M  V30 4347 N 409.434 1.37368 -0.772513 0
M  V30 4348 C 410.366 2.28899 -0.117502 0
M  V30 4349 C 411.379 1.4867 0.663405 0
M  V30 4350 O 412.568 1.71314 0.501372 0
M  V30 4351 C 409.668 3.2788 0.857192 0
M  V30 4352 C 408.841 4.37207 0.129938 0
M  V30 4353 C 407.9 5.16257 1.01811 0
M  V30 4354 O 406.926 5.67159 0.481601 0
M  V30 4355 N 408.128 5.31058 2.3443 0
M  V30 4356 H 410.893 2.85752 -0.903662 0
M  V30 4357 H 408.454 1.49353 -0.62493 0
M  V30 4358 H 410.446 3.77647 1.45482 0
M  V30 4359 H 409.016 2.7179 1.54432 0
M  V30 4360 H 408.236 3.88827 -0.648605 0
M  V30 4361 H 409.524 5.07434 -0.372559 0
M  V30 4362 H 408.922 4.91287 2.80452 0
M  V30 4363 H 407.479 5.84131 2.89197 0
M  V30 4364 N 410.912 0.523116 1.48665 0
M  V30 4365 C 412.189 -0.0775449 1.95446 0
M  V30 4366 C 412.569 -1.5197 1.4652 0
M  V30 4367 O 411.917 -2.17876 0.688657 0
M  V30 4368 C 412.127 0.0326135 3.48985 0
M  V30 4369 C 413.475 -0.130141 4.24401 0
M  V30 4370 O 414.499 -0.0415142 3.56176 0
M  V30 4371 O 413.358 -0.31491 5.45592 0
M  V30 4372 H 410.452 -0.0831012 0.822814 0
M  V30 4373 H 412.998 0.587227 1.59216 0
M  V30 4374 H 411.77 1.03748 3.77296 0
M  V30 4375 H 411.393 -0.671317 3.91892 0
M  V30 4376 N 412.39 -1.55475 0.257931 0
M  V30 4377 C 413.639 -1.98383 -0.364275 0
M  V30 4378 C 413.952 -1.14952 -1.58258 0
M  V30 4379 O 415.158 -1.47924 -2.27664 0
M  V30 4380 C 413.614 -3.53037 -0.699479 0
M  V30 4381 C 413.222 -4.45223 0.498046 0
M  V30 4382 C 414.966 -4.04575 -1.28526 0
M  V30 4383 C 412.873 -5.91238 0.138383 0
M  V30 4384 H 411.803 -0.740911 -0.13988 0
M  V30 4385 H 414.454 -1.79936 0.359883 0
M  V30 4386 H 412.836 -3.6722 -1.48207 0
M  V30 4387 H 414.01 -4.42803 1.27522 0
M  V30 4388 H 412.325 -4.04226 0.999503 0
M  V30 4389 H 414.922 -5.11196 -1.56788 0
M  V30 4390 H 415.265 -3.5258 -2.21344 0
M  V30 4391 H 415.798 -3.93762 -0.565337 0
M  V30 4392 H 412.537 -6.47294 1.03398 0
M  V30 4393 H 412.057 -5.96768 -0.602374 0
M  V30 4394 H 413.736 -6.46413 -0.27553 0
M  V30 4395 N 413.868 0.0150385 -1.57593 0
M  V30 4396 C 415.279 0.559832 -1.78109 0
M  V30 4397 C 415.63 1.74814 -0.890756 0
M  V30 4398 O 414.755 2.16216 -0.0892482 0
M  V30 4399 C 415.35 1.02238 -3.23006 0
M  V30 4400 C 413.909 1.51258 -3.44671 0
M  V30 4401 C 413.056 0.456955 -2.73509 0
M  V30 4402 H 416.007 -0.211169 -1.57289 0
M  V30 4403 H 416.028 1.88912 -3.30292 0
M  V30 4404 H 415.54 0.157302 -3.87781 0
M  V30 4405 H 413.641 2.39905 -2.8509 0
M  V30 4406 H 413.754 1.55042 -4.5332 0
M  V30 4407 H 412.118 0.915196 -2.37689 0
M  V30 4408 H 412.901 -0.398896 -3.40975 0
M  V30 4409 N 415.346 1.54954 0.287554 0
M  V30 4410 C 416.276 1.89839 1.35954 0
M  V30 4411 C 417.257 0.758675 1.52244 0
M  V30 4412 O 418.442 1.01557 1.65529 0
M  V30 4413 C 415.572 2.15753 2.72154 0
M  V30 4414 C 414.526 3.3159 2.70614 0
M  V30 4415 C 413.852 3.42952 4.10229 0
M  V30 4416 C 415.152 4.68359 2.31165 0
M  V30 4417 H 416.846 2.79625 1.07007 0
M  V30 4418 H 414.392 1.3454 0.513316 0
M  V30 4419 H 416.345 2.38743 3.47246 0
M  V30 4420 H 415.069 1.22752 3.02654 0
M  V30 4421 H 413.728 3.08545 1.97979 0
M  V30 4422 H 413.376 2.47443 4.37928 0
M  V30 4423 H 413.076 4.20826 4.10097 0
M  V30 4424 H 414.6 3.68218 4.87081 0
M  V30 4425 H 416.014 4.9099 2.95976 0
M  V30 4426 H 414.411 5.49044 2.42221 0
M  V30 4427 H 415.481 4.68165 1.26291 0
M  V30 4428 N 416.824 -0.551391 1.4764 0
M  V30 4429 C 418.052 -1.33357 1.58189 0
M  V30 4430 C 418.467 -1.87342 0.234199 0
M  V30 4431 O 417.824 -1.65301 -0.77343 0
M  V30 4432 C 417.875 -2.49942 2.61173 0
M  V30 4433 O 417.596 -1.98187 3.90709 0
M  V30 4434 C 419.097 -3.42072 2.8196 0
M  V30 4435 H 416.317 -0.40631 0.533998 0
M  V30 4436 H 418.861 -0.667367 1.93304 0
M  V30 4437 H 417.016 -3.12489 2.28975 0
M  V30 4438 H 417.43 -2.74342 4.47031 0
M  V30 4439 H 418.904 -4.20278 3.57869 0
M  V30 4440 H 419.381 -3.95978 1.89995 0
M  V30 4441 H 419.987 -2.85336 3.15378 0
M  V30 4442 N 418.302 -1.35869 -0.798587 0
M  V30 4443 C 419.713 -1.26498 -1.37314 0
M  V30 4444 C 420.064 0.0991899 -1.95949 0
M  V30 4445 O 419.189 1.0004 -1.91888 0
M  V30 4446 C 419.784 -2.29054 -2.49639 0
M  V30 4447 C 418.343 -2.234 -3.02935 0
M  V30 4448 C 417.49 -2.14329 -1.75949 0
M  V30 4449 H 420.441 -1.46881 -0.600971 0
M  V30 4450 H 420.462 -1.92166 -3.28409 0
M  V30 4451 H 419.974 -3.2833 -2.06933 0
M  V30 4452 H 418.075 -1.27562 -3.50084 0
M  V30 4453 H 418.188 -3.15703 -3.60372 0
M  V30 4454 H 416.552 -1.60435 -1.9782 0
M  V30 4455 H 417.335 -3.15477 -1.35384 0
M  V30 4456 N 419.78 1.02168 -1.19998 0
M  V30 4457 C 421.029 1.75091 -1.0013 0
M  V30 4458 C 421.342 1.89923 0.467835 0
M  V30 4459 O 422.548 2.59888 0.785515 0
M  V30 4460 C 421.004 3.14892 -1.74273 0
M  V30 4461 C 420.612 3.0809 -3.25245 0
M  V30 4462 C 422.356 3.9206 -1.62755 0
M  V30 4463 C 420.263 4.42867 -3.91948 0
M  V30 4464 H 419.193 0.656394 -0.37103 0
M  V30 4465 H 421.844 1.14284 -1.43567 0
M  V30 4466 H 420.226 3.7621 -1.2362 0
M  V30 4467 H 421.4 2.5611 -3.83072 0
M  V30 4468 H 419.715 2.44416 -3.3712 0
M  V30 4469 H 422.312 4.91764 -2.09934 0
M  V30 4470 H 422.655 4.12199 -0.582894 0
M  V30 4471 H 423.188 3.37359 -2.10793 0
M  V30 4472 H 419.927 4.27931 -4.96543 0
M  V30 4473 H 419.447 4.94874 -3.3891 0
M  V30 4474 H 421.126 5.11728 -3.95909 0
M  V30 4475 N 421.258 1.00505 1.21394 0
M  V30 4476 C 422.505 0.687774 1.90462 0
M  V30 4477 C 422.833 -0.78147 1.7811 0
M  V30 4478 O 422.088 -1.58208 1.1519 0
M  V30 4479 C 422.387 1.0546 3.41486 0
M  V30 4480 C 422.053 2.51812 3.74034 0
M  V30 4481 C 420.715 2.91804 3.82628 0
M  V30 4482 C 423.067 3.46614 3.8924 0
M  V30 4483 C 420.395 4.2556 4.03876 0
M  V30 4484 C 422.747 4.80044 4.11995 0
M  V30 4485 C 421.411 5.19759 4.18816 0
M  V30 4486 H 420.681 0.251674 0.696951 0
M  V30 4487 H 423.328 1.26349 1.43903 0
M  V30 4488 H 421.633 0.397133 3.89782 0
M  V30 4489 H 423.33 0.786976 3.93202 0
M  V30 4490 H 419.92 2.1982 3.67936 0
M  V30 4491 H 424.104 3.16883 3.81967 0
M  V30 4492 H 419.36 4.55901 4.07387 0
M  V30 4493 H 423.534 5.53439 4.22704 0
M  V30 4494 H 421.161 6.23418 4.35033 0
M  V30 4495 N 422.737 -1.36956 0.779787 0
M  V30 4496 C 423.965 -2.03755 0.359398 0
M  V30 4497 C 424.38 -1.58807 -1.02106 0
M  V30 4498 O 423.737 -0.773024 -1.6532 0
M  V30 4499 C 423.788 -3.59251 0.402568 0
M  V30 4500 O 423.509 -4.02557 1.72858 0
M  V30 4501 C 425.01 -4.43291 -0.0284068 0
M  V30 4502 H 422.23 -0.654148 0.149437 0
M  V30 4503 H 424.774 -1.75128 1.05595 0
M  V30 4504 H 422.929 -3.86621 -0.245478 0
M  V30 4505 H 423.343 -4.97111 1.67275 0
M  V30 4506 H 424.817 -5.51975 0.0529466 0
M  V30 4507 H 425.294 -4.25719 -1.07982 0
M  V30 4508 H 425.9 -4.21163 0.591758 0
M  V30 4509 N 424.215 -0.530993 -1.48385 0
M  V30 4510 C 425.492 0.0671788 -1.95485 0
M  V30 4511 C 425.872 1.51191 -1.47324 0
M  V30 4512 O 425.22 2.17507 -0.700202 0
M  V30 4513 C 425.43 -0.0511206 -3.48963 0
M  V30 4514 C 426.778 0.107632 -4.24464 0
M  V30 4515 O 427.802 0.0226248 -3.56193 0
M  V30 4516 O 426.661 0.285972 -5.45751 0
M  V30 4517 H 423.755 0.0787365 -0.823243 0
M  V30 4518 H 426.301 -0.595662 -1.58902 0
M  V30 4519 H 425.073 -1.05747 -3.7674 0
M  V30 4520 H 424.696 0.650525 -3.92242 0
M  V30 4521 N 425.693 1.55336 -0.266172 0
M  V30 4522 C 426.921 2.03801 0.356756 0
M  V30 4523 C 427.336 1.14485 1.50129 0
M  V30 4524 O 426.693 0.163121 1.8177 0
M  V30 4525 C 426.744 3.51455 0.846281 0
M  V30 4526 O 426.465 4.37371 -0.252663 0
M  V30 4527 C 427.966 4.15767 1.53794 0
M  V30 4528 H 425.186 0.665906 0.0825218 0
M  V30 4529 H 427.73 2.00636 -0.39566 0
M  V30 4530 H 425.885 3.55092 1.54881 0
M  V30 4531 H 426.299 5.24358 0.122173 0
M  V30 4532 H 427.773 5.20714 1.83198 0
M  V30 4533 H 428.25 3.63404 2.46646 0
M  V30 4534 H 428.856 4.16107 0.879488 0
M  V30 4535 N 427.171 -0.0066808 1.57599 0
M  V30 4536 C 428.417 -0.693947 1.90558 0
M  V30 4537 C 428.75 -1.73792 0.866594 0
M  V30 4538 O 428.025 -1.94156 -0.115548 0
M  V30 4539 C 428.308 -1.34317 3.34112 0
M  V30 4540 C 428.161 -0.311189 4.48722 0
M  V30 4541 C 429.48 -2.27116 3.7697 0
M  V30 4542 H 426.599 -0.250803 0.693013 0
M  V30 4543 H 429.241 0.043242 1.89951 0
M  V30 4544 H 427.391 -1.9715 3.3476 0
M  V30 4545 H 429.063 0.316944 4.6021 0
M  V30 4546 H 427.306 0.367253 4.32243 0
M  V30 4547 H 427.977 -0.804366 5.46108 0
M  V30 4548 H 430.453 -1.74306 3.77831 0
M  V30 4549 H 429.329 -2.69511 4.78179 0
M  V30 4550 H 429.59 -3.14743 3.10466 0
M  V30 4551 N 428.649 -1.55105 -0.279332 0
M  V30 4552 C 429.898 -1.74618 -1.00952 0
M  V30 4553 C 430.211 -0.551096 -1.87676 0
M  V30 4554 O 431.417 -0.628507 -2.64125 0
M  V30 4555 C 429.873 -3.09025 -1.84476 0
M  V30 4556 C 429.481 -4.36081 -1.0265 0
M  V30 4557 C 431.225 -3.37891 -2.56963 0
M  V30 4558 C 429.132 -5.6153 -1.85576 0
M  V30 4559 H 428.062 -0.650868 -0.38064 0
M  V30 4560 H 430.713 -1.81569 -0.265475 0
M  V30 4561 H 429.095 -2.96095 -2.62952 0
M  V30 4562 H 430.269 -4.59909 -0.286354 0
M  V30 4563 H 428.584 -4.14312 -0.416464 0
M  V30 4564 H 431.181 -4.28822 -3.19399 0
M  V30 4565 H 431.524 -2.57737 -3.26921 0
M  V30 4566 H 432.057 -3.5189 -1.85522 0
M  V30 4567 H 428.796 -6.44413 -1.2005 0
M  V30 4568 H 428.316 -5.41854 -2.57204 0
M  V30 4569 H 429.995 -5.99594 -2.43096 0
M  V30 4570 N 430.127 0.543554 -1.4793 0
M  V30 4571 C 431.374 1.30008 -1.55255 0
M  V30 4572 C 431.702 1.93245 -0.220612 0
M  V30 4573 O 430.957 1.79141 0.787843 0
M  V30 4574 C 431.256 2.42078 -2.62932 0
M  V30 4575 C 430.922 1.96583 -4.0579 0
M  V30 4576 C 429.584 1.83893 -4.44676 0
M  V30 4577 C 431.936 1.62034 -4.95373 0
M  V30 4578 C 429.264 1.34969 -5.70964 0
M  V30 4579 C 431.616 1.14577 -6.22137 0
M  V30 4580 C 430.28 1.00493 -6.59892 0
M  V30 4581 H 429.55 0.475735 -0.568117 0
M  V30 4582 H 432.197 0.608075 -1.81589 0
M  V30 4583 H 430.502 3.16892 -2.30406 0
M  V30 4584 H 432.199 3.00236 -2.65818 0
M  V30 4585 H 428.789 2.07407 -3.75074 0
M  V30 4586 H 432.973 1.70705 -4.66019 0
M  V30 4587 H 428.229 1.2274 -5.98953 0
M  V30 4588 H 432.403 0.869109 -6.90955 0
M  V30 4589 H 430.03 0.623624 -7.57638 0
M  V30 4590 N 431.605 1.3629 0.791371 0
M  V30 4591 C 433.021 1.16661 1.08914 0
M  V30 4592 C 433.221 -0.0106266 2.01497 0
M  V30 4593 O 432.277 -0.676596 2.43266 0
M  V30 4594 C 433.59 2.47656 1.70549 0
M  V30 4595 C 435.138 2.54002 1.82899 0
M  V30 4596 C 435.613 3.85078 2.47949 0
M  V30 4597 N 437.104 3.86413 2.5542 0
M  V30 4598 C 437.839 4.84572 3.06557 0
M  V30 4599 N 437.335 5.93124 3.58016 0
M  V30 4600 N 439.128 4.71994 3.05251 0
M  V30 4601 H 431.279 2.11668 0.176238 0
M  V30 4602 H 433.542 0.937486 0.140796 0
M  V30 4603 H 433.248 3.34059 1.09989 0
M  V30 4604 H 433.122 2.63319 2.70079 0
M  V30 4605 H 435.509 1.68018 2.42598 0
M  V30 4606 H 435.59 2.42239 0.821808 0
M  V30 4607 H 435.234 4.71467 1.88895 0
M  V30 4608 H 435.164 3.94135 3.49235 0
M  V30 4609 H 437.655 3.07988 2.18979 0
M  V30 4610 H 437.968 6.63999 3.95381 0
M  V30 4611 H 436.313 5.96796 3.56173 0
M  V30 4612 H 439.504 3.86321 2.64336 0
M  V30 4613 H 439.677 5.48653 3.44796 0
M  V30 4614 N 433.083 -1.0153 1.20538 0
M  V30 4615 C 434.332 -1.74558 1.01057 0
M  V30 4616 C 434.645 -1.90168 -0.457756 0
M  V30 4617 O 435.851 -2.60301 -0.771722 0
M  V30 4618 C 434.307 -3.13963 1.75941 0
M  V30 4619 C 433.915 -3.06361 3.26875 0
M  V30 4620 C 435.659 -3.91191 1.64832 0
M  V30 4621 C 433.566 -4.40782 3.94291 0
M  V30 4622 H 432.496 -0.654417 0.374505 0
M  V30 4623 H 435.147 -1.13521 1.44171 0
M  V30 4624 H 433.529 -3.75549 1.25614 0
M  V30 4625 H 434.703 -2.54074 3.84425 0
M  V30 4626 H 433.018 -2.42625 3.38411 0
M  V30 4627 H 435.615 -4.90644 2.12539 0
M  V30 4628 H 435.958 -4.11884 0.604745 0
M  V30 4629 H 436.491 -3.36236 2.12579 0
M  V30 4630 H 433.23 -4.25292 4.98805 0
M  V30 4631 H 432.75 -4.9307 3.41529 0
M  V30 4632 H 434.429 -5.09621 3.98617 0
M  V30 4633 N 434.561 -1.01147 -1.20859 0
M  V30 4634 C 435.524 -0.582224 -2.21682 0
M  V30 4635 C 436.524 0.344887 -1.57058 0
M  V30 4636 O 437.714 0.134281 -1.73682 0
M  V30 4637 C 434.846 0.150496 -3.40568 0
M  V30 4638 H 436.039 -1.47408 -2.61172 0
M  V30 4639 H 433.592 -0.800695 -1.34233 0
M  V30 4640 H 434.327 1.0575 -3.06574 0
M  V30 4641 H 434.112 -0.515444 -3.88697 0
M  V30 4642 H 435.602 0.438344 -4.15293 0
M  V30 4643 N 436.039 1.36541 -0.78704 0
M  V30 4644 C 437.45 1.81873 -0.421807 0
M  V30 4645 C 437.801 1.65487 1.05397 0
M  V30 4646 O 436.926 1.17448 1.81755 0
M  V30 4647 C 437.521 3.30192 -0.758841 0
M  V30 4648 C 436.08 3.73743 -0.446468 0
M  V30 4649 C 435.227 2.58844 -0.994728 0
M  V30 4650 H 438.178 1.24796 -0.98039 0
M  V30 4651 H 438.199 3.80468 -0.0490648 0
M  V30 4652 H 437.711 3.42087 -1.83299 0
M  V30 4653 H 435.812 3.6741 0.619739 0
M  V30 4654 H 435.925 4.69272 -0.965415 0
M  V30 4655 H 434.289 2.51245 -0.418087 0
M  V30 4656 H 435.072 2.73525 -2.07458 0
M  V30 4657 N 437.518 0.538854 1.48102 0
M  V30 4658 C 438.764 0.0161732 2.03394 0
M  V30 4659 C 439.119 -1.31154 1.40771 0
M  V30 4660 O 438.412 -1.83613 0.547421 0
M  V30 4661 C 438.606 -0.153808 3.57069 0
M  V30 4662 C 438.435 1.15588 4.34591 0
M  V30 4663 C 437.205 1.71818 4.75191 0
M  V30 4664 C 439.403 2.06867 4.70861 0
M  V30 4665 N 437.385 2.96983 5.37284 0
M  V30 4666 C 438.756 3.16609 5.33066 0
M  V30 4667 C 440.811 2.07085 4.52791 0
M  V30 4668 C 439.514 4.26645 5.79109 0
M  V30 4669 C 441.54 3.16121 4.99821 0
M  V30 4670 C 440.902 4.24582 5.62058 0
M  V30 4671 H 437.001 0.0476346 0.780548 0
M  V30 4672 H 439.585 0.722094 1.80815 0
M  V30 4673 H 437.756 -0.828825 3.79454 0
M  V30 4674 H 439.488 -0.676896 3.98999 0
M  V30 4675 H 436.243 1.25845 4.56574 0
M  V30 4676 H 436.667 3.60732 5.72889 0
M  V30 4677 H 441.309 1.24522 4.04047 0
M  V30 4678 H 439.027 5.0998 6.26854 0
M  V30 4679 H 442.613 3.17355 4.87624 0
M  V30 4680 H 441.493 5.07562 5.97788 0
M  V30 4681 N 438.996 -1.55193 0.274407 0
M  V30 4682 C 440.245 -1.98758 -0.343213 0
M  V30 4683 C 440.558 -1.16624 -1.5703 0
M  V30 4684 O 441.764 -1.5033 -2.26082 0
M  V30 4685 C 440.22 -3.53759 -0.661996 0
M  V30 4686 C 439.828 -4.4467 0.54524 0
M  V30 4687 C 441.572 -4.05916 -1.24228 0
M  V30 4688 C 439.479 -5.91058 0.201084 0
M  V30 4689 H 438.409 -0.742353 -0.132014 0
M  V30 4690 H 441.06 -1.79545 0.378948 0
M  V30 4691 H 439.442 -3.68772 -1.44304 0
M  V30 4692 H 440.616 -4.41426 1.32212 0
M  V30 4693 H 438.931 -4.03143 1.04232 0
M  V30 4694 H 441.528 -5.12831 -1.51357 0
M  V30 4695 H 441.871 -3.54908 -2.17592 0
M  V30 4696 H 442.404 -3.9434 -0.523542 0
M  V30 4697 H 439.143 -6.46161 1.10258 0
M  V30 4698 H 438.663 -5.97373 -0.539045 0
M  V30 4699 H 440.342 -6.46669 -0.206954 0
M  V30 4700 N 440.474 -0.00167713 -1.576 0
M  V30 4701 C 441.407 1.02317 -2.03977 0
M  V30 4702 C 442.385 1.33381 -0.929963 0
M  V30 4703 O 443.569 1.45517 -1.19822 0
M  V30 4704 C 440.696 2.35035 -2.43878 0
M  V30 4705 C 439.742 2.19621 -3.65607 0
M  V30 4706 S 440.575 1.52068 -5.13455 0
M  V30 4707 C 441.731 2.86212 -5.56627 0
M  V30 4708 H 441.964 0.628285 -2.90585 0
M  V30 4709 H 439.497 0.209239 -1.52976 0
M  V30 4710 H 441.455 3.11345 -2.67534 0
M  V30 4711 H 440.116 2.71663 -1.57665 0
M  V30 4712 H 439.309 3.1767 -3.91282 0
M  V30 4713 H 438.911 1.51455 -3.41961 0
M  V30 4714 H 441.203 3.82509 -5.59189 0
M  V30 4715 H 442.146 2.65235 -6.56549 0
M  V30 4716 H 442.554 2.90199 -4.84195 0
M  V30 4717 N 441.952 1.55251 0.271103 0
M  V30 4718 C 443.18 1.79974 1.02064 0
M  V30 4719 C 443.595 0.574003 1.79863 0
M  V30 4720 O 442.952 -0.456962 1.76686 0
M  V30 4721 C 443.003 3.02603 1.97772 0
M  V30 4722 O 442.724 4.20443 1.23124 0
M  V30 4723 C 444.225 3.39944 2.84522 0
M  V30 4724 H 441.445 0.599489 0.301419 0
M  V30 4725 H 443.989 2.02268 0.301313 0
M  V30 4726 H 442.144 2.8243 2.65165 0
M  V30 4727 H 442.558 4.89783 1.87651 0
M  V30 4728 H 444.032 4.28915 3.47471 0
M  V30 4729 H 444.509 2.59432 3.54389 0
M  V30 4730 H 445.115 3.62383 2.22618 0
M  V30 4731 N 443.43 -0.535701 1.48216 0
M  V30 4732 C 444.841 -1.11769 1.49548 0
M  V30 4733 C 445.192 -1.94442 0.26207 0
M  V30 4734 O 444.317 -2.06987 -0.631287 0
M  V30 4735 C 444.912 -2.03367 2.70975 0
M  V30 4736 C 443.471 -2.56795 2.75196 0
M  V30 4737 C 442.618 -1.33631 2.42977 0
M  V30 4738 H 445.569 -0.321232 1.55415 0
M  V30 4739 H 445.59 -2.87569 2.49167 0
M  V30 4740 H 445.102 -1.43169 3.60727 0
M  V30 4741 H 443.203 -3.20731 1.89638 0
M  V30 4742 H 443.316 -2.9632 3.76472 0
M  V30 4743 H 441.68 -1.6502 1.94012 0
M  V30 4744 H 442.463 -0.75194 3.34964 0
M  V30 4745 N 444.908 -1.36708 -0.784132 0
M  V30 4746 C 445.856 -1.31533 -1.91838 0
M  V30 4747 C 446.85 -0.206205 -1.6814 0
M  V30 4748 O 448.056 -0.373519 -1.76082 0
M  V30 4749 H 444.431 -0.409613 -0.630651 0
M  V30 4750 H 446.402 -2.2731 -1.9332 0
M  V30 4751 C 445.151 -1.12679 -3.28936 0
M  V30 4752 H 444.474 -1.97274 -3.4774 0
M  V30 4753 H 445.914 -1.13106 -4.08636 0
M  V30 4754 C 444.373 0.168281 -3.36479 0
M  V30 4755 O 444.903 1.15625 -3.84699 0
M  V30 4756 N 443.109 0.214762 -2.89805 0
M  V30 4757 H 442.656 -0.589852 -2.50756 0
M  V30 4758 H 442.614 1.08094 -2.95234 0
M  V30 4759 N 446.386 1.0089 -1.21074 0
M  V30 4760 C 447.635 1.74019 -1.01981 0
M  V30 4761 C 447.948 1.90408 0.447665 0
M  V30 4762 O 449.154 2.60707 0.757906 0
M  V30 4763 C 447.61 3.13026 -1.77603 0
M  V30 4764 C 447.218 3.04623 -3.28495 0
M  V30 4765 C 448.962 3.90312 -1.66904 0
M  V30 4766 C 446.869 4.38685 -3.96623 0
M  V30 4767 H 445.799 0.652422 -0.377971 0
M  V30 4768 H 448.45 1.12755 -1.44771 0
M  V30 4769 H 446.832 3.74878 -1.27604 0
M  V30 4770 H 448.006 2.52032 -3.85767 0
M  V30 4771 H 446.321 2.40827 -3.39693 0
M  V30 4772 H 448.918 4.8951 -2.15138 0
M  V30 4773 H 449.261 4.11558 -0.62658 0
M  V30 4774 H 449.794 3.35104 -2.14359 0
M  V30 4775 H 446.533 4.22641 -5.01054 0
M  V30 4776 H 446.053 4.91252 -3.4414 0
M  V30 4777 H 447.732 5.075 -4.01314 0
M  V30 4778 N 447.864 1.01787 1.20321 0
M  V30 4779 C 448.794 0.609625 2.25401 0
M  V30 4780 C 449.775 -0.375951 1.65893 0
M  V30 4781 O 450.96 -0.261101 1.92437 0
M  V30 4782 C 448.09 -0.0515995 3.47262 0
M  V30 4783 C 447.044 0.855095 4.19371 0
M  V30 4784 C 446.37 0.0595757 5.34667 0
M  V30 4785 C 447.67 2.16374 4.75373 0
M  V30 4786 H 449.364 1.48803 2.59804 0
M  V30 4787 H 446.91 0.716934 1.24884 0
M  V30 4788 H 448.863 -0.348764 4.19954 0
M  V30 4789 H 447.587 -0.964726 3.12027 0
M  V30 4790 H 446.246 1.13628 3.48546 0
M  V30 4791 H 445.894 -0.85524 4.95676 0
M  V30 4792 H 445.594 0.663406 5.83843 0
M  V30 4793 H 447.118 -0.231105 6.10162 0
M  V30 4794 H 448.532 1.92885 5.39878 0
M  V30 4795 H 446.929 2.71853 5.34991 0
M  V30 4796 H 447.999 2.82589 3.94045 0
M  V30 4797 N 449.342 -1.36122 0.79427 0
M  V30 4798 C 450.753 -1.81646 0.431446 0
M  V30 4799 C 451.104 -1.66043 -1.04518 0
M  V30 4800 O 450.229 -1.1841 -1.8113 0
M  V30 4801 C 450.824 -3.29785 0.776341 0
M  V30 4802 C 449.383 -3.73501 0.466282 0
M  V30 4803 C 448.53 -2.58313 1.00844 0
M  V30 4804 H 451.481 -1.24274 0.986995 0
M  V30 4805 H 451.502 -3.80437 0.0692413 0
M  V30 4806 H 451.014 -3.4111 1.8511 0
M  V30 4807 H 449.115 -3.67733 -0.600245 0
M  V30 4808 H 449.228 -4.68754 0.990288 0
M  V30 4809 H 447.592 -2.5102 0.431406 0
M  V30 4810 H 448.375 -2.72421 2.08906 0
M  V30 4811 N 450.82 -0.546701 -1.47814 0
M  V30 4812 C 452.231 -0.110564 -1.86372 0
M  V30 4813 C 452.582 1.31678 -1.45449 0
M  V30 4814 O 451.707 1.98889 -0.852758 0
M  V30 4815 C 452.302 -0.193873 -3.38245 0
M  V30 4816 C 450.861 0.187164 -3.75934 0
M  V30 4817 C 450.008 -0.546166 -2.71868 0
M  V30 4818 H 452.959 -0.757022 -1.39481 0
M  V30 4819 H 452.98 0.590218 -3.75895 0
M  V30 4820 H 452.492 -1.23282 -3.67999 0
M  V30 4821 H 450.593 1.22762 -3.51796 0
M  V30 4822 H 450.706 -0.164083 -4.78819 0
M  V30 4823 H 449.07 0.00953904 -2.54698 0
M  V30 4824 H 449.853 -1.58606 -3.04465 0
M  V30 4825 N 452.299 1.55045 -0.282633 0
M  V30 4826 C 453.545 2.00056 0.332481 0
M  V30 4827 C 453.878 1.1708 1.54939 0
M  V30 4828 O 453.153 0.2427 1.9298 0
M  V30 4829 C 453.436 3.53086 0.70725 0
M  V30 4830 C 453.289 4.46813 -0.517521 0
M  V30 4831 C 454.608 4.12245 1.54084 0
M  V30 4832 H 451.727 0.727268 0.119373 0
M  V30 4833 H 454.369 1.85932 -0.391076 0
M  V30 4834 H 452.519 3.65253 1.32372 0
M  V30 4835 H 454.191 4.46579 -1.15607 0
M  V30 4836 H 452.434 4.18163 -1.1542 0
M  V30 4837 H 453.105 5.51595 -0.211426 0
M  V30 4838 H 455.581 4.03401 1.02013 0
M  V30 4839 H 454.457 5.19515 1.77186 0
M  V30 4840 H 454.718 3.62951 2.52427 0
M  V30 4841 N 453.777 0.010035 1.57597 0
M  V30 4842 C 455.002 -0.687021 1.95691 0
M  V30 4843 C 455.427 -1.65952 0.885519 0
M  V30 4844 O 454.785 -1.80633 -0.15543 0
M  V30 4845 C 454.833 -1.3864 3.32884 0
M  V30 4846 O 453.937 -2.50115 3.27897 0
M  V30 4847 H 453.278 -0.181989 0.638573 0
M  V30 4848 H 455.808 0.0662122 2.04493 0
M  V30 4849 H 455.818 -1.74754 3.6868 0
M  V30 4850 H 454.493 -0.673411 4.10412 0
M  V30 4851 H 453.07 -2.16253 3.03791 0
M  V30 4852 N 455.255 -1.55392 -0.262866 0
M  V30 4853 C 456.501 -1.76737 -0.99458 0
M  V30 4854 C 456.834 -0.572453 -1.85571 0
M  V30 4855 O 456.109 0.429732 -1.89693 0
M  V30 4856 C 456.392 -3.07824 -1.8686 0
M  V30 4857 C 456.245 -4.3769 -1.03672 0
M  V30 4858 C 457.564 -3.35021 -2.85393 0
M  V30 4859 H 454.683 -0.643005 -0.360157 0
M  V30 4860 H 457.325 -1.88126 -0.266216 0
M  V30 4861 H 455.475 -2.98245 -2.48962 0
M  V30 4862 H 457.147 -4.59238 -0.43563 0
M  V30 4863 H 455.39 -4.32461 -0.340513 0
M  V30 4864 H 456.061 -5.25759 -1.6817 0
M  V30 4865 H 458.537 -3.44458 -2.33426 0
M  V30 4866 H 457.413 -4.27989 -3.43681 0
M  V30 4867 H 457.674 -2.55153 -3.61039 0
M  V30 4868 N 456.733 0.527833 -1.48498 0
M  V30 4869 C 457.98 1.28354 -1.56625 0
M  V30 4870 C 458.308 1.93 -0.241096 0
M  V30 4871 O 457.563 1.79967 0.768798 0
M  V30 4872 C 457.862 2.39275 -2.65485 0
M  V30 4873 C 457.528 1.92268 -4.07853 0
M  V30 4874 C 456.19 1.79166 -4.46602 0
M  V30 4875 C 458.542 1.56771 -4.97064 0
M  V30 4876 C 455.87 1.28905 -5.72364 0
M  V30 4877 C 458.222 1.07972 -6.23318 0
M  V30 4878 C 456.886 0.934887 -6.60921 0
M  V30 4879 H 456.156 0.469682 -0.573131 0
M  V30 4880 H 458.803 0.588781 -1.82224 0
M  V30 4881 H 457.108 3.1443 -2.33754 0
M  V30 4882 H 458.805 2.974 -2.68988 0
M  V30 4883 H 455.395 2.03417 -3.77252 0
M  V30 4884 H 459.579 1.65753 -4.67803 0
M  V30 4885 H 454.835 1.16381 -6.00221 0
M  V30 4886 H 459.009 0.795775 -6.91838 0
M  V30 4887 H 456.636 0.543231 -7.58257 0
M  V30 4888 N 458.211 1.37122 0.776871 0
M  V30 4889 C 459.457 1.32243 1.53752 0
M  V30 4890 C 459.79 -0.0944745 1.9397 0
M  V30 4891 O 459.065 -1.05068 1.6368 0
M  V30 4892 C 459.348 2.25681 2.80607 0
M  V30 4893 C 459.201 3.76127 2.46676 0
M  V30 4894 C 460.52 2.17657 3.82509 0
M  V30 4895 H 457.639 0.481704 0.557791 0
M  V30 4896 H 460.281 1.6778 0.891612 0
M  V30 4897 H 458.431 1.95505 3.35723 0
M  V30 4898 H 460.103 4.16877 1.97513 0
M  V30 4899 H 458.346 3.94946 1.79443 0
M  V30 4900 H 459.017 4.36933 3.37333 0
M  V30 4901 H 461.493 2.44245 3.36873 0
M  V30 4902 H 460.369 2.85185 4.69 0
M  V30 4903 H 460.63 1.16785 4.26396 0
M  V30 4904 N 459.689 -1.00246 1.21608 0
M  V30 4905 C 460.929 -1.75589 1.04631 0
M  V30 4906 C 461.293 -1.87513 -0.412648 0
M  V30 4907 O 462.494 -2.59444 -0.703003 0
M  V30 4908 C 460.765 -3.12893 1.72722 0
M  V30 4909 S 462.324 -4.04095 1.71034 0
M  V30 4910 H 459.142 -0.604133 0.374892 0
M  V30 4911 H 461.744 -1.19927 1.54395 0
M  V30 4912 H 460.448 -3.0185 2.78055 0
M  V30 4913 H 459.979 -3.73628 1.23149 0
M  V30 4914 H 461.994 -4.9045 0.753231 0
M  V30 4915 N 461.167 -1.02423 -1.1978 0
M  V30 4916 C 462.407 -0.726635 -1.91048 0
M  V30 4917 C 462.771 0.730947 -1.77542 0
M  V30 4918 O 463.972 1.14141 -2.43362 0
M  V30 4919 C 462.243 -1.15964 -3.38064 0
M  V30 4920 S 463.802 -0.985172 -4.27598 0
M  V30 4921 H 460.62 -0.264679 -0.659899 0
M  V30 4922 H 463.222 -1.31309 -1.44838 0
M  V30 4923 H 461.926 -2.21619 -3.45417 0
M  V30 4924 H 461.457 -0.566274 -3.89303 0
M  V30 4925 H 463.472 0.106946 -4.96085 0
M  V30 4926 N 462.645 1.35699 -0.801477 0
M  V30 4927 C 463.578 2.2768 -0.153922 0
M  V30 4928 C 464.556 1.47832 0.67709 0
M  V30 4929 O 465.74 1.77104 0.645474 0
M  V30 4930 C 462.867 3.2943 0.786986 0
M  V30 4931 C 461.913 4.26485 0.0362447 0
M  V30 4932 S 462.746 5.19573 -1.2963 0
M  V30 4933 C 463.902 6.24866 -0.359705 0
M  V30 4934 H 464.135 2.82254 -0.9338 0
M  V30 4935 H 461.668 1.42421 -0.596283 0
M  V30 4936 H 463.626 3.8855 1.32436 0
M  V30 4937 H 462.287 2.73745 1.54021 0
M  V30 4938 H 461.48 4.98378 0.750668 0
M  V30 4939 H 461.082 3.71508 -0.431017 0
M  V30 4940 H 463.374 6.75957 0.456954 0
M  V30 4941 H 464.317 7.00307 -1.04768 0
M  V30 4942 H 464.725 5.64484 0.0423274 0
M  V30 4943 N 464.123 0.554532 1.47522 0
M  V30 4944 C 465.07 -0.19466 2.29978 0
M  V30 4945 C 466.04 -0.910882 1.38896 0
M  V30 4946 O 467.225 -0.907102 1.67858 0
M  V30 4947 C 464.365 -1.22035 3.22802 0
M  V30 4948 C 463.478 -0.510474 4.28973 0
M  V30 4949 C 462.613 -1.52123 5.08952 0
M  V30 4950 C 461.652 -0.796173 6.069 0
M  V30 4951 N 460.789 -1.75363 6.79847 0
M  V30 4952 H 465.629 0.51461 2.93523 0
M  V30 4953 H 463.166 0.265607 1.44682 0
M  V30 4954 H 465.124 -1.8276 3.7504 0
M  V30 4955 H 463.754 -1.89769 2.61127 0
M  V30 4956 H 462.806 0.211234 3.79813 0
M  V30 4957 H 464.118 0.0576503 4.98767 0
M  V30 4958 H 463.272 -2.20207 5.65326 0
M  V30 4959 H 462.011 -2.12327 4.39054 0
M  V30 4960 H 461.016 -0.101388 5.49707 0
M  V30 4961 H 462.241 -0.199911 6.78806 0
M  V30 4962 H 460.187 -2.3443 6.12682 0
M  V30 4963 H 460.104 -1.23759 7.45801 0
M  V30 4964 H 461.372 -2.4257 7.40797 0
M  V30 4965 N 465.601 -1.54893 0.290851 0
M  V30 4966 C 466.878 -1.91991 -0.373989 0
M  V30 4967 C 467.258 -1.21694 -1.72493 0
M  V30 4968 O 466.606 -0.34917 -2.25816 0
M  V30 4969 C 466.816 -3.45419 -0.498703 0
M  V30 4970 C 468.164 -4.1748 -0.774298 0
M  V30 4971 O 469.188 -3.51398 -0.582908 0
M  V30 4972 O 468.047 -5.3445 -1.14129 0
M  V30 4973 H 465.141 -0.800593 -0.207315 0
M  V30 4974 H 467.687 -1.66297 0.338164 0
M  V30 4975 H 466.459 -3.88688 0.451392 0
M  V30 4976 H 466.082 -3.77117 -1.25972 0
M  V30 4977 N 467.08 -0.0183926 -1.57589 0
M  V30 4978 C 468.028 0.985111 -2.10709 0
M  V30 4979 C 469.022 1.34397 -1.0312 0
M  V30 4980 O 470.228 1.32746 -1.21567 0
M  V30 4981 H 466.603 0.335418 -0.673052 0
M  V30 4982 H 468.574 0.511689 -2.9398 0
M  V30 4983 C 467.323 2.26202 -2.64061 0
M  V30 4984 H 466.646 1.9946 -3.4649 0
M  V30 4985 H 468.086 2.94652 -3.04887 0
M  V30 4986 C 466.545 2.98444 -1.5631 0
M  V30 4987 O 467.075 3.90142 -0.956674 0
M  V30 4988 N 465.281 2.6059 -1.28612 0
M  V30 4989 H 464.828 1.86101 -1.78112 0
M  V30 4990 H 464.786 3.09238 -0.567406 0
M  V30 4991 N 468.558 1.5553 0.254621 0
M  V30 4992 C 469.788 1.80784 1.00004 0
M  V30 4993 C 470.196 0.59071 1.79742 0
M  V30 4994 O 469.539 -0.449988 1.78103 0
M  V30 4995 C 469.601 2.99268 1.99196 0
M  V30 4996 C 469.265 4.35595 1.38224 0
M  V30 4997 C 470.262 5.13884 0.788611 0
M  V30 4998 C 467.947 4.82281 1.40393 0
M  V30 4999 C 469.941 6.37004 0.224783 0
M  V30 5000 C 467.628 6.05351 0.836243 0
M  V30 5001 C 468.626 6.82551 0.24769 0
M  V30 5002 O 468.314 8.03297 -0.311249 0
M  V30 5003 H 468.046 0.60565 0.300274 0
M  V30 5004 H 470.6 2.03411 0.285143 0
M  V30 5005 H 468.83 2.72377 2.74496 0
M  V30 5006 H 470.519 3.11682 2.60018 0
M  V30 5007 H 471.285 4.78938 0.764423 0
M  V30 5008 H 467.164 4.22189 1.85142 0
M  V30 5009 H 470.708 6.97203 -0.235235 0
M  V30 5010 H 466.605 6.39776 0.857733 0
M  V30 5011 H 467.373 8.1825 -0.20237 0
M  V30 5012 N 470.036 -0.519951 1.48776 0
M  V30 5013 C 470.966 -1.63253 1.66945 0
M  V30 5014 C 471.947 -1.62014 0.518224 0
M  V30 5015 O 473.132 -1.79053 0.751919 0
M  V30 5016 C 470.262 -3.0181 1.71836 0
M  V30 5017 C 469.216 -3.17911 2.8656 0
M  V30 5018 C 468.542 -4.5763 2.76548 0
M  V30 5019 C 469.842 -2.99729 4.27738 0
M  V30 5020 H 471.536 -1.48302 2.6009 0
M  V30 5021 H 469.082 -0.712026 1.25165 0
M  V30 5022 H 471.035 -3.79525 1.83135 0
M  V30 5023 H 469.759 -3.17806 0.752775 0
M  V30 5024 H 468.418 -2.42616 2.74833 0
M  V30 5025 H 468.066 -4.70476 1.77937 0
M  V30 5026 H 467.766 -4.69346 3.53536 0
M  V30 5027 H 469.29 -5.37431 2.89828 0
M  V30 5028 H 470.704 -3.67228 4.40246 0
M  V30 5029 H 469.101 -3.22932 5.05801 0
M  V30 5030 H 470.171 -1.96047 4.43502 0
M  V30 5031 N 471.514 -1.37532 -0.769588 0
M  V30 5032 C 472.761 -1.3286 -1.52822 0
M  V30 5033 C 473.089 0.0862597 -1.94309 0
M  V30 5034 O 472.344 1.05995 -1.6451 0
M  V30 5035 C 472.643 -2.21558 -2.8044 0
M  V30 5036 C 472.309 -3.69796 -2.57996 0
M  V30 5037 C 470.971 -4.10194 -2.51583 0
M  V30 5038 C 473.323 -4.63699 -2.37976 0
M  V30 5039 C 470.651 -5.42608 -2.23144 0
M  V30 5040 C 473.003 -5.96353 -2.1106 0
M  V30 5041 C 471.667 -6.35853 -2.03093 0
M  V30 5042 H 470.937 -0.486168 -0.559215 0
M  V30 5043 H 473.584 -1.69757 -0.886277 0
M  V30 5044 H 471.889 -1.77663 -3.49204 0
M  V30 5045 H 473.586 -2.15256 -3.38328 0
M  V30 5046 H 470.176 -3.37759 -2.63851 0
M  V30 5047 H 474.36 -4.33346 -2.41919 0
M  V30 5048 H 469.616 -5.72173 -2.15472 0
M  V30 5049 H 473.79 -6.68667 -1.94568 0
M  V30 5050 H 471.417 -7.38382 -1.8082 0
M  V30 5051 N 472.992 0.995999 -1.22138 0
M  V30 5052 C 473.922 2.10387 -1.01289 0
M  V30 5053 C 474.903 1.69975 0.0651454 0
M  V30 5054 O 476.088 1.9396 -0.0964628 0
M  V30 5055 C 473.218 3.42312 -0.586517 0
M  V30 5056 C 472.172 3.96558 -1.61014 0
M  V30 5057 C 471.498 5.24494 -1.0397 0
M  V30 5058 C 472.798 4.27595 -2.99933 0
M  V30 5059 H 474.492 2.28086 -1.93951 0
M  V30 5060 H 472.038 1.09607 -0.933928 0
M  V30 5061 H 473.991 4.19223 -0.427793 0
M  V30 5062 H 472.715 3.24431 0.375761 0
M  V30 5063 H 471.374 3.21776 -1.75658 0
M  V30 5064 H 471.022 5.02953 -0.0688703 0
M  V30 5065 H 470.722 5.61755 -1.72352 0
M  V30 5066 H 472.246 6.04042 -0.892494 0
M  V30 5067 H 473.66 4.95315 -2.8868 0
M  V30 5068 H 472.057 4.76021 -3.6541 0
M  V30 5069 H 473.127 3.35498 -3.50099 0
M  V30 5070 N 474.47 1.03057 1.19235 0
M  V30 5071 C 475.417 0.612832 2.22515 0
M  V30 5072 C 476.387 -0.374224 1.61829 0
M  V30 5073 O 477.572 -0.270501 1.88873 0
M  V30 5074 C 474.712 -0.028475 3.45088 0
M  V30 5075 C 473.825 1.00483 4.20151 0
M  V30 5076 C 472.96 0.333102 5.30155 0
M  V30 5077 C 471.999 1.3522 5.96977 0
M  V30 5078 N 471.136 0.70616 6.9854 0
M  V30 5079 H 475.976 1.49812 2.57605 0
M  V30 5080 H 473.513 0.749658 1.26564 0
M  V30 5081 H 475.471 -0.417548 4.15105 0
M  V30 5082 H 474.101 -0.877334 3.10649 0
M  V30 5083 H 473.153 1.51194 3.49062 0
M  V30 5084 H 474.465 1.77929 4.65986 0
M  V30 5085 H 473.619 -0.110725 6.06599 0
M  V30 5086 H 472.358 -0.473547 4.85396 0
M  V30 5087 H 471.363 1.80627 5.19282 0
M  V30 5088 H 472.588 2.16037 6.4382 0
M  V30 5089 H 470.534 -0.0803667 6.55951 0
M  V30 5090 H 470.451 1.41848 7.42573 0
M  V30 5091 H 471.719 0.286391 7.78974 0
M  V30 5092 N 475.948 -1.35272 0.808662 0
M  V30 5093 C 476.858 -2.33546 0.222079 0
M  V30 5094 C 477.874 -1.6196 -0.636011 0
M  V30 5095 O 479.05 -1.93822 -0.547274 0
M  V30 5096 C 476.115 -3.41148 -0.61795 0
M  V30 5097 C 475.176 -4.28507 0.260875 0
M  V30 5098 C 474.409 -5.3097 -0.539156 0
M  V30 5099 O 474.632 -5.42123 -1.77367 0
M  V30 5100 O 473.566 -6.01858 0.0710526 0
M  V30 5101 H 477.392 -2.85515 1.03512 0
M  V30 5102 H 474.977 -1.38079 0.570495 0
M  V30 5103 H 476.859 -4.06889 -1.09634 0
M  V30 5104 H 475.534 -2.91447 -1.40855 0
M  V30 5105 H 474.441 -3.6574 0.786451 0
M  V30 5106 H 475.774 -4.81611 1.01547 0
M  V30 5107 N 477.426 -0.562348 -1.47226 0
M  V30 5108 C 478.672 -0.0402761 -2.0276 0
M  V30 5109 C 479.005 1.30823 -1.43523 0
M  V30 5110 O 478.28 1.85249 -0.592705 0
M  V30 5111 C 478.563 0.047311 -3.60069 0
M  V30 5112 C 478.416 -1.32865 -4.29729 0
M  V30 5113 C 479.735 0.758182 -4.3352 0
M  V30 5114 H 476.854 -0.0161105 -0.736824 0
M  V30 5115 H 479.496 -0.725628 -1.75598 0
M  V30 5116 H 477.646 0.630986 -3.83342 0
M  V30 5117 H 479.318 -1.95593 -4.17781 0
M  V30 5118 H 477.561 -1.90195 -3.89882 0
M  V30 5119 H 478.232 -1.22004 -5.38349 0
M  V30 5120 H 480.708 0.262546 -4.15271 0
M  V30 5121 H 479.584 0.78844 -5.43208 0
M  V30 5122 H 479.845 1.81537 -4.03109 0
M  V30 5123 N 478.904 1.54736 -0.299062 0
M  V30 5124 C 479.851 2.23448 0.577899 0
M  V30 5125 C 480.821 1.21637 1.13109 0
M  V30 5126 O 482.006 1.50252 1.17597 0
M  V30 5127 C 479.146 2.9774 1.74484 0
M  V30 5128 C 478.259 4.1432 1.22323 0
M  V30 5129 C 477.394 4.76199 2.35388 0
M  V30 5130 C 476.433 5.84927 1.80351 0
M  V30 5131 N 475.57 6.4077 2.86982 0
M  V30 5132 H 480.41 2.97996 -0.0146545 0
M  V30 5133 H 477.947 1.47088 -0.0190013 0
M  V30 5134 H 479.905 3.39045 2.43114 0
M  V30 5135 H 478.535 2.25572 2.30905 0
M  V30 5136 H 477.587 3.7797 0.429249 0
M  V30 5137 H 478.899 4.92659 0.780309 0
M  V30 5138 H 478.053 5.20346 3.11969 0
M  V30 5139 H 476.792 3.97188 2.83006 0
M  V30 5140 H 475.797 5.40207 1.02259 0
M  V30 5141 H 477.022 6.65821 1.3364 0
M  V30 5142 H 474.968 5.64643 3.33938 0
M  V30 5143 H 474.885 7.1445 2.4718 0
M  V30 5144 H 476.153 6.89574 3.63466 0
M  V30 5145 N 480.382 0.0267497 1.57577 0
M  V30 5146 C 481.33 -0.973923 2.11229 0
M  V30 5147 C 482.324 -1.33849 1.03831 0
M  V30 5148 O 483.53 -1.321 1.22269 0
M  V30 5149 H 479.905 -0.331844 0.674821 0
M  V30 5150 H 481.876 -0.496092 2.94247 0
M  V30 5151 C 480.625 -2.24798 2.65257 0
M  V30 5152 H 479.948 -1.9762 3.47543 0
M  V30 5153 H 481.388 -2.93031 3.06445 0
M  V30 5154 C 479.847 -2.97611 1.57891 0
M  V30 5155 O 480.377 -3.89629 0.97735 0
M  V30 5156 N 478.583 -2.59905 1.29992 0
M  V30 5157 H 478.13 -1.85154 1.79097 0
M  V30 5158 H 478.088 -3.08932 0.583798 0
M  V30 5159 N 481.861 -1.55662 -0.24637 0
M  V30 5160 C 482.791 -1.93377 -1.30873 0
M  V30 5161 C 483.772 -0.798773 -1.50179 0
M  V30 5162 O 484.957 -1.0591 -1.62778 0
M  V30 5163 C 482.087 -2.22893 -2.66338 0
M  V30 5164 C 481.041 -3.38649 -2.61727 0
M  V30 5165 C 480.367 -3.53708 -4.00992 0
M  V30 5166 C 481.667 -4.74323 -2.18666 0
M  V30 5167 H 483.361 -2.82363 -0.995552 0
M  V30 5168 H 480.907 -1.35854 -0.477464 0
M  V30 5169 H 482.86 -2.47866 -3.40794 0
M  V30 5170 H 481.584 -1.30733 -2.99293 0
M  V30 5171 H 480.243 -3.13685 -1.89729 0
M  V30 5172 H 479.891 -2.58967 -4.31214 0
M  V30 5173 H 479.591 -4.31551 -3.98795 0
M  V30 5174 H 481.115 -3.81003 -4.77147 0
M  V30 5175 H 482.529 -4.98665 -2.82854 0
M  V30 5176 H 480.926 -5.55273 -2.27579 0
M  V30 5177 H 481.996 -4.71349 -1.13834 0
M  V30 5178 N 483.339 0.512053 -1.4905 0
M  V30 5179 C 484.585 1.26874 -1.58212 0
M  V30 5180 C 484.918 1.9241 -0.263073 0
M  V30 5181 O 484.193 1.80181 0.732476 0
M  V30 5182 C 484.476 2.34428 -2.73341 0
M  V30 5183 C 484.329 1.73466 -4.15006 0
M  V30 5184 C 485.648 3.36073 -2.84154 0
M  V30 5185 H 482.767 0.459924 -0.575881 0
M  V30 5186 H 485.409 0.568587 -1.81293 0
M  V30 5187 H 483.559 2.94146 -2.53792 0
M  V30 5188 H 485.231 1.17661 -4.46042 0
M  V30 5189 H 483.474 1.03921 -4.21168 0
M  V30 5190 H 484.145 2.51426 -4.91415 0
M  V30 5191 H 486.621 2.86332 -3.01916 0
M  V30 5192 H 485.497 4.08703 -3.66406 0
M  V30 5193 H 485.758 3.97725 -1.93048 0
M  V30 5194 N 484.817 1.37938 0.762283 0
M  V30 5195 C 485.727 1.36681 1.90671 0
M  V30 5196 C 486.743 0.265078 1.71969 0
M  V30 5197 O 487.919 0.502055 1.95042 0
M  V30 5198 C 484.984 1.18211 3.25925 0
M  V30 5199 C 484.045 2.3811 3.57214 0
M  V30 5200 C 483.278 2.20512 4.86014 0
M  V30 5201 O 483.501 1.19429 5.57757 0
M  V30 5202 O 482.435 3.08911 5.16583 0
M  V30 5203 H 486.261 2.33091 1.94685 0
M  V30 5204 H 483.846 1.18767 0.906356 0
M  V30 5205 H 485.728 1.09937 4.06807 0
M  V30 5206 H 484.403 0.248807 3.22742 0
M  V30 5207 H 483.31 2.51958 2.76529 0
M  V30 5208 H 484.643 3.30041 3.65149 0
M  V30 5209 N 486.295 -0.989507 1.22664 0
M  V30 5210 C 487.242 -2.08024 0.999733 0
M  V30 5211 C 488.212 -1.65909 -0.0797047 0
M  V30 5212 O 489.397 -1.90669 0.0705715 0
M  V30 5213 C 486.537 -3.40067 0.587234 0
M  V30 5214 C 485.65 -3.95505 1.73781 0
M  V30 5215 C 484.785 -5.15722 1.27297 0
M  V30 5216 C 483.824 -5.63305 2.39488 0
M  V30 5217 N 482.961 -6.74758 1.94026 0
M  V30 5218 H 487.801 -2.26768 1.9334 0
M  V30 5219 H 485.338 -1.11171 0.963297 0
M  V30 5220 H 487.296 -4.15899 0.329227 0
M  V30 5221 H 485.926 -3.21314 -0.309426 0
M  V30 5222 H 484.978 -3.16513 2.11006 0
M  V30 5223 H 486.29 -4.26797 2.58158 0
M  V30 5224 H 485.444 -5.98854 0.972546 0
M  V30 5225 H 484.183 -4.86061 0.399445 0
M  V30 5226 H 483.188 -4.78759 2.70315 0
M  V30 5227 H 484.413 -5.94988 3.27362 0
M  V30 5228 H 482.359 -6.46874 1.09041 0
M  V30 5229 H 482.276 -7.05386 2.71968 0
M  V30 5230 H 483.544 -7.61387 1.67062 0
M  V30 5231 N 487.773 -1.03688 -1.18687 0
M  V30 5232 C 489.001 -0.757918 -1.92518 0
M  V30 5233 C 489.416 0.684398 -1.75959 0
M  V30 5234 O 488.773 1.46617 -1.08673 0
M  V30 5235 C 488.824 -1.10985 -3.44042 0
M  V30 5236 O 488.545 -2.49554 -3.60076 0
M  V30 5237 C 490.046 -0.854844 -4.3498 0
M  V30 5238 H 487.266 -0.276699 -0.611293 0
M  V30 5239 H 489.81 -1.38352 -1.50595 0
M  V30 5240 H 487.965 -0.529279 -3.83767 0
M  V30 5241 H 488.379 -2.6291 -4.53849 0
M  V30 5242 H 489.853 -1.15098 -5.39867 0
M  V30 5243 H 490.33 0.210507 -4.38695 0
M  V30 5244 H 490.936 -1.41853 -4.00946 0
M  V30 5245 N 489.251 1.34841 -0.815825 0
M  V30 5246 C 490.199 2.31549 -0.220888 0
M  V30 5247 C 491.193 1.5707 0.634457 0
M  V30 5248 O 492.399 1.72125 0.526589 0
M  V30 5249 H 488.774 0.750153 -0.0526782 0
M  V30 5250 H 490.745 2.7926 -1.05149 0
M  V30 5251 C 489.494 3.42335 0.608427 0
M  V30 5252 H 488.817 3.9978 -0.0404121 0
M  V30 5253 H 490.257 4.12258 0.990931 0
M  V30 5254 C 488.716 2.86173 1.77782 0
M  V30 5255 O 489.246 2.80474 2.87571 0
M  V30 5256 N 487.452 2.43093 1.59229 0
M  V30 5257 H 486.999 2.47928 0.699237 0
M  V30 5258 H 486.957 2.05866 2.37627 0
M  V30 5259 N 490.729 0.570148 1.46925 0
M  V30 5260 C 491.969 0.0534743 2.0433 0
M  V30 5261 C 492.333 -1.27729 1.4335 0
M  V30 5262 O 493.534 -1.88244 1.91879 0
M  V30 5263 C 491.805 -0.0244296 3.57392 0
M  V30 5264 S 493.364 -0.485351 4.36108 0
M  V30 5265 H 490.182 0.0313908 0.710307 0
M  V30 5266 H 492.784 0.759808 1.80131 0
M  V30 5267 H 491.488 0.948261 3.99295 0
M  V30 5268 H 491.019 -0.753922 3.86108 0
M  V30 5269 H 493.034 -1.74258 4.64595 0
M  V30 5270 N 492.207 -1.54576 0.307264 0
M  V30 5271 C 493.117 -2.27435 -0.57536 0
M  V30 5272 C 494.133 -1.31183 -1.14311 0
M  V30 5273 O 495.309 -1.64175 -1.16656 0
M  V30 5274 C 492.374 -3.00566 -1.72803 0
M  V30 5275 C 491.435 -4.12369 -1.19373 0
M  V30 5276 C 490.668 -4.82003 -2.29147 0
M  V30 5277 O 490.891 -4.51038 -3.49171 0
M  V30 5278 O 489.825 -5.69271 -1.95485 0
M  V30 5279 H 493.651 -3.03696 0.0158558 0
M  V30 5280 H 491.236 -1.49219 0.0735064 0
M  V30 5281 H 493.118 -3.46416 -2.39946 0
M  V30 5282 H 491.793 -2.27195 -2.30574 0
M  V30 5283 H 490.7 -3.70905 -0.487851 0
M  V30 5284 H 492.033 -4.87736 -0.661376 0
M  V30 5285 N 493.685 -0.035106 -1.57561 0
M  V30 5286 C 494.615 0.942993 -2.13612 0
M  V30 5287 C 495.596 1.33531 -1.05373 0
M  V30 5288 O 496.781 1.41287 -1.33235 0
M  V30 5289 C 493.911 2.22332 -2.66807 0
M  V30 5290 C 492.865 1.97156 -3.79886 0
M  V30 5291 C 492.191 3.31506 -4.19533 0
M  V30 5292 C 493.491 1.30596 -5.05709 0
M  V30 5293 H 495.185 0.476179 -2.95589 0
M  V30 5294 H 492.731 0.227602 -1.4219 0
M  V30 5295 H 494.684 2.91142 -3.04654 0
M  V30 5296 H 493.408 2.7119 -1.81999 0
M  V30 5297 H 492.067 1.30763 -3.42486 0
M  V30 5298 H 491.715 3.78134 -3.31698 0
M  V30 5299 H 491.415 3.15465 -4.95738 0
M  V30 5300 H 492.939 4.01574 -4.59968 0
M  V30 5301 H 494.353 1.89416 -5.41105 0
M  V30 5302 H 492.75 1.24934 -5.86951 0
M  V30 5303 H 493.82 0.279742 -4.84092 0
M  V30 5304 N 495.163 1.55791 0.238111 0
M  V30 5305 C 496.11 1.9105 1.29493 0
M  V30 5306 C 497.08 0.765733 1.47397 0
M  V30 5307 O 498.265 1.02017 1.61236 0
M  V30 5308 C 495.405 2.21826 2.64362 0
M  V30 5309 C 494.518 3.49153 2.54394 0
M  V30 5310 C 493.653 3.69455 3.81676 0
M  V30 5311 C 492.692 4.90353 3.66361 0
M  V30 5312 N 491.829 5.07131 4.85554 0
M  V30 5313 H 496.669 2.81172 0.987233 0
M  V30 5314 H 494.206 1.39179 0.476203 0
M  V30 5315 H 496.164 2.37675 3.4288 0
M  V30 5316 H 494.794 1.34897 2.93262 0
M  V30 5317 H 493.846 3.41587 1.67399 0
M  V30 5318 H 495.158 4.37818 2.38991 0
M  V30 5319 H 494.312 3.85311 4.68636 0
M  V30 5320 H 493.051 2.7904 3.99985 0
M  V30 5321 H 492.056 4.74464 2.77784 0
M  V30 5322 H 493.281 5.82237 3.49538 0
M  V30 5323 H 491.227 4.19654 5.04209 0
M  V30 5324 H 491.144 5.89899 4.72816 0
M  V30 5325 H 492.412 5.27407 5.73988 0
M  V30 5326 N 496.642 -0.504142 1.49319 0
M  V30 5327 C 497.888 -1.26033 1.58882 0
M  V30 5328 C 498.221 -1.92268 0.273274 0
M  V30 5329 O 497.496 -1.80567 -0.72291 0
M  V30 5330 C 497.779 -2.32976 2.7458 0
M  V30 5331 C 497.632 -1.71263 4.1592 0
M  V30 5332 C 498.951 -3.34561 2.85932 0
M  V30 5333 H 496.07 -0.456863 0.578312 0
M  V30 5334 H 498.712 -0.558965 1.81592 0
M  V30 5335 H 496.862 -2.92796 2.55348 0
M  V30 5336 H 498.534 -1.15294 4.4666 0
M  V30 5337 H 496.777 -1.01686 4.21714 0
M  V30 5338 H 497.448 -2.48816 4.92742 0
M  V30 5339 H 499.924 -2.84727 3.0343 0
M  V30 5340 H 498.8 -4.06754 3.68568 0
M  V30 5341 H 499.061 -3.96695 1.95154 0
M  V30 5342 N 498.12 -1.38341 -0.754957 0
M  V30 5343 C 499.36 -1.35888 -1.52689 0
M  V30 5344 C 499.724 0.0513682 -1.91931 0
M  V30 5345 O 500.925 0.200761 -2.68049 0
M  V30 5346 C 499.196 -2.28666 -2.74676 0
M  V30 5347 S 500.755 -2.4422 -3.64558 0
M  V30 5348 H 497.573 -0.482165 -0.522531 0
M  V30 5349 H 500.175 -1.74253 -0.886358 0
M  V30 5350 H 498.879 -3.30023 -2.43953 0
M  V30 5351 H 498.41 -1.91445 -3.43675 0
M  V30 5352 H 500.425 -1.66525 -4.67423 0
M  V30 5353 N 499.598 0.982988 -1.23187 0
M  V30 5354 C 500.845 1.72392 -1.06241 0
M  V30 5355 C 501.173 1.9032 0.40108 0
M  V30 5356 O 500.428 1.45084 1.31336 0
M  V30 5357 C 500.727 3.12736 -1.73006 0
M  V30 5358 C 500.393 3.14695 -3.22921 0
M  V30 5359 C 499.055 3.14937 -3.63824 0
M  V30 5360 C 501.407 3.10211 -4.1883 0
M  V30 5361 C 498.735 3.08408 -4.99101 0
M  V30 5362 C 501.087 3.05224 -5.54095 0
M  V30 5363 C 499.751 3.03787 -5.94365 0
M  V30 5364 H 499.021 0.630829 -0.388762 0
M  V30 5365 H 501.668 1.15053 -1.53085 0
M  V30 5366 H 499.973 3.73446 -1.18514 0
M  V30 5367 H 501.67 3.68828 -1.57374 0
M  V30 5368 H 498.26 3.15262 -2.90358 0
M  V30 5369 H 502.444 3.09166 -3.8824 0
M  V30 5370 H 497.7 3.05646 -5.29519 0
M  V30 5371 H 501.874 3.00712 -6.28128 0
M  V30 5372 H 499.501 2.98483 -6.99151 0
M  V30 5373 N 501.076 1.04316 1.18135 0
M  V30 5374 C 502.008 0.594444 2.21357 0
M  V30 5375 C 503.021 -0.337215 1.59269 0
M  V30 5376 O 504.21 -0.131337 1.78016 0
M  V30 5377 C 501.31 -0.151251 3.38562 0
M  V30 5378 C 500.483 0.788907 4.30227 0
M  V30 5379 C 499.542 0.0860572 5.2613 0
M  V30 5380 O 498.568 0.717302 5.64662 0
M  V30 5381 N 499.77 -1.17969 5.68387 0
M  V30 5382 H 502.535 1.48227 2.60478 0
M  V30 5383 H 500.096 0.92396 1.32946 0
M  V30 5384 H 502.088 -0.631352 3.99745 0
M  V30 5385 H 500.658 -0.940639 2.98112 0
M  V30 5386 H 499.878 1.44882 3.6661 0
M  V30 5387 H 501.166 1.42738 4.88368 0
M  V30 5388 H 500.564 -1.71302 5.3914 0
M  V30 5389 H 499.121 -1.60402 6.31755 0
M  V30 5390 N 502.554 -1.34406 0.822964 0
M  V30 5391 C 503.784 -2.02214 0.423424 0
M  V30 5392 C 504.192 -1.62124 -0.975322 0
M  V30 5393 O 503.535 -0.822452 -1.6426 0
M  V30 5394 C 503.597 -3.56721 0.446107 0
M  V30 5395 C 503.261 -4.20136 1.79819 0
M  V30 5396 C 504.258 -4.4065 2.75904 0
M  V30 5397 C 501.943 -4.56906 2.08669 0
M  V30 5398 C 503.937 -4.9706 3.99012 0
M  V30 5399 C 501.624 -5.13026 3.32036 0
M  V30 5400 C 502.622 -5.33047 4.27024 0
M  V30 5401 O 502.31 -5.87979 5.48211 0
M  V30 5402 H 502.042 -0.654748 0.168169 0
M  V30 5403 H 504.596 -1.72659 1.11257 0
M  V30 5404 H 502.826 -3.85537 -0.299734 0
M  V30 5405 H 504.515 -4.05845 0.0666114 0
M  V30 5406 H 505.281 -4.12607 2.54912 0
M  V30 5407 H 501.16 -4.40626 1.35535 0
M  V30 5408 H 504.704 -5.12603 4.73164 0
M  V30 5409 H 500.601 -5.40498 3.52891 0
M  V30 5410 H 501.369 -6.06413 5.49732 0
M  V30 5411 N 504.032 -0.577932 -1.46621 0
M  V30 5412 C 504.962 0.145917 -2.33044 0
M  V30 5413 C 505.943 0.888412 -1.45056 0
M  V30 5414 O 507.128 0.864812 -1.73881 0
M  V30 5415 C 504.258 1.16322 -3.27241 0
M  V30 5416 C 503.212 0.535868 -4.24632 0
M  V30 5417 C 502.538 1.65929 -5.08303 0
M  V30 5418 C 503.838 -0.523861 -5.19666 0
M  V30 5419 H 505.532 -0.575636 -2.93814 0
M  V30 5420 H 503.078 -0.278272 -1.41286 0
M  V30 5421 H 505.031 1.67793 -3.86553 0
M  V30 5422 H 503.755 1.91498 -2.64567 0
M  V30 5423 H 502.414 0.0422759 -3.66576 0
M  V30 5424 H 502.062 2.40061 -4.42018 0
M  V30 5425 H 501.762 1.2452 -5.74255 0
M  V30 5426 H 503.286 2.17686 -5.70478 0
M  V30 5427 H 504.7 -0.0944059 -5.73222 0
M  V30 5428 H 503.097 -0.858 -5.93935 0
M  V30 5429 H 504.167 -1.41197 -4.63887 0
M  V30 5430 N 505.51 1.54411 -0.315457 0
M  V30 5431 C 506.458 2.25514 0.569771 0
M  V30 5432 C 507.452 1.2663 1.12522 0
M  V30 5433 O 508.658 1.44434 1.07419 0
M  V30 5434 H 505.033 0.724257 0.202376 0
M  V30 5435 H 507.004 2.98354 -0.0522895 0
M  V30 5436 C 505.753 3.02004 1.72305 0
M  V30 5437 H 505.076 3.77906 1.30488 0
M  V30 5438 H 506.516 3.55014 2.31821 0
M  V30 5439 C 504.975 2.09822 2.63583 0
M  V30 5440 O 505.505 1.67574 3.65078 0
M  V30 5441 N 503.711 1.75478 2.31637 0
M  V30 5442 H 503.258 2.10032 1.49145 0
M  V30 5443 H 503.216 1.14079 2.92973 0
M  V30 5444 N 506.988 0.0434614 1.5754 0
M  V30 5445 C 508.404 -0.313039 1.565 0
M  V30 5446 C 508.604 -1.71954 1.05043 0
M  V30 5447 O 507.66 -2.425 0.703564 0
M  V30 5448 C 508.973 -0.148544 3.00333 0
M  V30 5449 C 510.521 -0.220231 3.12224 0
M  V30 5450 C 510.996 -0.0843565 4.57922 0
M  V30 5451 N 512.487 -0.140881 4.62986 0
M  V30 5452 C 513.222 -0.0597443 5.73369 0
M  V30 5453 N 512.718 0.0733004 6.92761 0
M  V30 5454 N 514.511 -0.11477 5.61983 0
M  V30 5455 H 506.662 0.96303 1.89313 0
M  V30 5456 H 508.925 0.373164 0.871466 0
M  V30 5457 H 508.631 0.820894 3.41986 0
M  V30 5458 H 508.505 -0.912798 3.65989 0
M  V30 5459 H 510.892 -1.18014 2.70475 0
M  V30 5460 H 510.973 0.574646 2.49262 0
M  V30 5461 H 510.617 0.872192 5.00355 0
M  V30 5462 H 510.547 -0.898281 5.18882 0
M  V30 5463 H 513.038 -0.243273 3.77116 0
M  V30 5464 H 513.351 0.128128 7.72694 0
M  V30 5465 H 511.696 0.10828 6.94916 0
M  V30 5466 H 514.887 -0.217212 4.67596 0
M  V30 5467 H 515.06 -0.0480779 6.47982 0
M  V30 5468 N 508.466 -1.55915 -0.229846 0
M  V30 5469 C 509.714 -1.7819 -0.953565 0
M  V30 5470 C 510.035 -0.610504 -1.85197 0
M  V30 5471 O 509.305 0.372988 -1.92316 0
M  V30 5472 H 507.885 -0.657208 -0.355087 0
M  V30 5473 H 510.547 -1.9337 -0.243693 0
M  V30 5474 H 509.643 -2.70011 -1.56527 0
M  V30 5475 N 509.944 0.496216 -1.49584 0
M  V30 5476 C 511.221 1.25755 -1.49816 0
M  V30 5477 C 511.601 2.09859 -0.228572 0
M  V30 5478 O 510.949 2.14449 0.788908 0
M  V30 5479 C 511.159 2.11017 -2.7798 0
M  V30 5480 C 512.507 2.70047 -3.27658 0
M  V30 5481 O 513.531 2.21281 -2.79129 0
M  V30 5482 O 512.39 3.58834 -4.1219 0
M  V30 5483 H 509.484 0.569322 -0.599834 0
M  V30 5484 H 512.03 0.510094 -1.61852 0
M  V30 5485 H 510.802 1.48879 -3.61871 0
M  V30 5486 H 510.425 2.92947 -2.68827 0
M  V30 5487 N 511.423 1.38739 0.74761 0
M  V30 5488 C 512.839 1.20067 1.05148 0
M  V30 5489 C 513.039 0.0534835 2.01429 0
M  V30 5490 O 512.095 -0.59886 2.45296 0
M  V30 5491 C 513.408 2.52957 1.62584 0
M  V30 5492 C 514.956 2.59692 1.74726 0
M  V30 5493 C 515.431 3.92772 2.35573 0
M  V30 5494 N 516.922 3.94343 2.42997 0
M  V30 5495 C 517.657 4.9408 2.90985 0
M  V30 5496 N 517.153 6.04214 3.38965 0
M  V30 5497 N 518.946 4.81466 2.9008 0
M  V30 5498 H 511.097 2.12121 0.108808 0
M  V30 5499 H 513.36 0.941491 0.110899 0
M  V30 5500 H 513.066 3.37389 0.993051 0
M  V30 5501 H 512.94 2.71779 2.61565 0
M  V30 5502 H 515.327 1.75651 2.3713 0
M  V30 5503 H 515.408 2.44731 0.744326 0
M  V30 5504 H 515.052 4.77238 1.738 0
M  V30 5505 H 514.982 4.05046 3.36519 0
M  V30 5506 H 517.473 3.14799 2.0907 0
M  V30 5507 H 517.786 6.76241 3.74056 0
M  V30 5508 H 516.131 6.07825 3.37007 0
M  V30 5509 H 519.322 3.94535 2.51912 0
M  V30 5510 H 519.495 5.59344 3.27166 0
M  V30 5511 N 512.901 -0.976442 1.23707 0
M  V30 5512 C 514.147 -1.72158 1.08319 0
M  V30 5513 C 514.502 -1.88701 -0.375445 0
M  V30 5514 O 513.795 -1.43107 -1.274 0
M  V30 5515 C 513.989 -3.11814 1.74662 0
M  V30 5516 C 513.818 -3.08892 3.26827 0
M  V30 5517 C 512.588 -3.13861 3.96004 0
M  V30 5518 C 514.786 -2.9175 4.2354 0
M  V30 5519 N 512.768 -3.00867 5.35119 0
M  V30 5520 C 514.139 -2.8696 5.49595 0
M  V30 5521 C 516.194 -2.76265 4.14225 0
M  V30 5522 C 514.897 -2.68268 6.67401 0
M  V30 5523 C 516.923 -2.58938 5.317 0
M  V30 5524 C 516.285 -2.54849 6.56682 0
M  V30 5525 H 512.384 -0.638896 0.450927 0
M  V30 5526 H 514.968 -1.15835 1.56494 0
M  V30 5527 H 513.139 -3.66347 1.29014 0
M  V30 5528 H 514.871 -3.74984 1.52215 0
M  V30 5529 H 511.626 -3.22198 3.4711 0
M  V30 5530 H 512.05 -2.97634 6.08065 0
M  V30 5531 H 516.692 -2.78213 3.18366 0
M  V30 5532 H 514.41 -2.65063 7.63392 0
M  V30 5533 H 517.996 -2.47914 5.26336 0
M  V30 5534 H 516.876 -2.41611 7.46052 0
M  V30 5535 N 514.379 -1.04941 -1.1758 0
M  V30 5536 C 515.628 -0.753124 -1.87112 0
M  V30 5537 C 515.941 0.722507 -1.81767 0
M  V30 5538 O 517.147 1.13265 -2.46746 0
M  V30 5539 C 515.603 -1.29695 -3.35719 0
M  V30 5540 C 515.211 -2.80184 -3.49572 0
M  V30 5541 C 516.955 -1.07759 -4.10595 0
M  V30 5542 C 514.862 -3.2788 -4.92187 0
M  V30 5543 H 513.792 -0.278034 -0.700866 0
M  V30 5544 H 516.443 -1.26637 -1.32798 0
M  V30 5545 H 514.825 -0.711522 -3.89555 0
M  V30 5546 H 515.999 -3.44561 -3.05965 0
M  V30 5547 H 514.314 -3.00632 -2.88113 0
M  V30 5548 H 516.911 -1.40899 -5.15802 0
M  V30 5549 H 517.254 -0.0152302 -4.16297 0
M  V30 5550 H 517.787 -1.62809 -3.62957 0
M  V30 5551 H 514.526 -4.33535 -4.91658 0
M  V30 5552 H 514.046 -2.68245 -5.36475 0
M  V30 5553 H 515.725 -3.22412 -5.60945 0
M  V30 5554 N 515.857 1.33968 -0.830081 0
M  V30 5555 C 516.789 2.28194 -0.21448 0
M  V30 5556 C 517.802 1.5135 0.599752 0
M  V30 5557 O 518.991 1.73286 0.42826 0
M  V30 5558 C 516.091 3.31221 0.717356 0
M  V30 5559 C 515.264 4.37365 -0.055613 0
M  V30 5560 C 514.323 5.2011 0.798231 0
M  V30 5561 O 513.349 5.68691 0.240616 0
M  V30 5562 N 514.551 5.40523 2.11695 0
M  V30 5563 H 517.316 2.81662 -1.02405 0
M  V30 5564 H 514.877 1.46568 -0.687713 0
M  V30 5565 H 516.869 3.83477 1.29334 0
M  V30 5566 H 515.439 2.78095 1.42765 0
M  V30 5567 H 514.659 3.85727 -0.812936 0
M  V30 5568 H 515.947 5.05397 -0.587444 0
M  V30 5569 H 515.345 5.0274 2.59363 0
M  V30 5570 H 513.902 5.95871 2.64162 0
M  V30 5571 N 517.335 0.585699 1.46312 0
M  V30 5572 C 518.612 0.00542031 1.95599 0
M  V30 5573 C 518.992 -1.45619 1.52834 0
M  V30 5574 O 518.34 -2.14759 0.780446 0
M  V30 5575 C 518.55 0.180601 3.48532 0
M  V30 5576 C 519.898 0.049979 4.24571 0
M  V30 5577 O 520.922 0.109589 3.56031 0
M  V30 5578 O 519.781 -0.0832226 5.46437 0
M  V30 5579 H 516.875 -0.0481281 0.825598 0
M  V30 5580 H 519.421 0.654227 1.56582 0
M  V30 5581 H 518.193 1.19657 3.72556 0
M  V30 5582 H 517.816 -0.504498 3.94386 0
M  V30 5583 N 518.813 -1.54241 0.323641 0
M  V30 5584 C 519.723 -2.28033 -0.551205 0
M  V30 5585 C 520.739 -1.32388 -1.12913 0
M  V30 5586 O 521.915 -1.65403 -1.14908 0
M  V30 5587 C 518.98 -3.02382 -1.69606 0
M  V30 5588 C 518.041 -4.13612 -1.14993 0
M  V30 5589 C 517.274 -4.84407 -2.24022 0
M  V30 5590 O 517.497 -4.54716 -3.44368 0
M  V30 5591 O 516.431 -5.71312 -1.89436 0
M  V30 5592 H 520.257 -3.03662 0.048066 0
M  V30 5593 H 517.842 -1.49133 0.0893289 0
M  V30 5594 H 519.724 -3.48941 -2.36259 0
M  V30 5595 H 518.399 -2.29628 -2.28151 0
M  V30 5596 H 517.306 -3.71402 -0.448484 0
M  V30 5597 H 518.639 -4.8841 -0.609608 0
M  V30 5598 N 520.291 -0.0518155 -1.57515 0
M  V30 5599 C 521.54 0.621286 -1.91893 0
M  V30 5600 C 521.853 1.71966 -0.932052 0
M  V30 5601 O 523.059 2.45096 -1.16791 0
M  V30 5602 C 521.515 1.15641 -3.40816 0
M  V30 5603 C 521.123 0.0901146 -4.47909 0
M  V30 5604 C 522.867 1.80472 -3.84227 0
M  V30 5605 C 520.774 0.638154 -5.87947 0
M  V30 5606 H 519.704 0.235835 -0.716169 0
M  V30 5607 H 522.355 -0.120809 -1.83102 0
M  V30 5608 H 520.737 1.95084 -3.44613 0
M  V30 5609 H 521.911 -0.683525 -4.55702 0
M  V30 5610 H 520.226 -0.460774 -4.13843 0
M  V30 5611 H 522.823 2.22471 -4.86221 0
M  V30 5612 H 523.166 2.65669 -3.20508 0
M  V30 5613 H 523.699 1.07683 -3.82948 0
M  V30 5614 H 520.438 -0.176202 -6.55263 0
M  V30 5615 H 519.958 1.37976 -5.83714 0
M  V30 5616 H 521.637 1.12085 -6.37217 0
M  V30 5617 N 521.769 1.56035 0.221574 0
M  V30 5618 C 522.679 1.95581 1.29558 0
M  V30 5619 C 523.695 0.859639 1.51282 0
M  V30 5620 O 524.871 1.16321 1.64413 0
M  V30 5621 C 521.936 2.26447 2.62531 0
M  V30 5622 C 520.997 3.49632 2.4911 0
M  V30 5623 C 520.23 3.79017 3.75742 0
M  V30 5624 O 520.453 3.10077 4.78757 0
M  V30 5625 O 519.387 4.72507 3.72855 0
M  V30 5626 H 523.213 2.8711 0.990035 0
M  V30 5627 H 520.798 1.43244 0.424434 0
M  V30 5628 H 522.68 2.47494 3.41064 0
M  V30 5629 H 521.355 1.38092 2.92766 0
M  V30 5630 H 520.262 3.33864 1.68777 0
M  V30 5631 H 521.595 4.3837 2.23814 0
M  V30 5632 N 523.247 -0.488276 1.49845 0
M  V30 5633 C 524.494 -1.24157 1.59973 0
M  V30 5634 C 524.822 -1.92293 0.292182 0
M  V30 5635 O 524.077 -1.81942 -0.720813 0
M  V30 5636 C 524.376 -2.32152 2.71735 0
M  V30 5637 C 524.042 -1.81387 4.12807 0
M  V30 5638 C 522.704 -1.67262 4.51195 0
M  V30 5639 C 525.056 -1.43537 5.01045 0
M  V30 5640 C 522.384 -1.13685 5.7558 0
M  V30 5641 C 524.736 -0.914081 6.25961 0
M  V30 5642 C 523.4 -0.759327 6.63167 0
M  V30 5643 H 522.67 -0.454322 0.585383 0
M  V30 5644 H 525.317 -0.540261 1.83721 0
M  V30 5645 H 523.622 -3.08122 2.42008 0
M  V30 5646 H 525.319 -2.90164 2.76778 0
M  V30 5647 H 521.909 -1.93344 3.82513 0
M  V30 5648 H 526.093 -1.53292 4.72033 0
M  V30 5649 H 521.349 -1.00426 6.03096 0
M  V30 5650 H 525.523 -0.612066 6.93705 0
M  V30 5651 H 523.15 -0.342002 7.5943 0
M  V30 5652 N 524.725 -1.39134 -0.740242 0
M  V30 5653 C 525.973 -1.35803 -1.49673 0
M  V30 5654 C 526.294 0.0470897 -1.94943 0
M  V30 5655 O 525.564 0.997347 -1.68611 0
M  V30 5656 H 524.144 -0.499736 -0.555224 0
M  V30 5657 H 526.806 -1.73947 -0.879107 0
M  V30 5658 H 525.902 -2.0174 -2.38133 0
M  V30 5659 N 526.204 0.969867 -1.24223 0
M  V30 5660 C 527.434 1.74502 -1.106 0
M  V30 5661 C 527.842 1.86038 0.344483 0
M  V30 5662 O 527.185 1.3465 1.24961 0
M  V30 5663 C 527.247 3.18391 -1.66935 0
M  V30 5664 C 526.911 3.30334 -3.15798 0
M  V30 5665 C 527.908 3.15832 -4.12973 0
M  V30 5666 C 525.593 3.54644 -3.55715 0
M  V30 5667 C 527.587 3.25461 -5.48045 0
M  V30 5668 C 525.274 3.63912 -4.90929 0
M  V30 5669 C 526.272 3.49332 -5.86904 0
M  V30 5670 O 525.96 3.58251 -7.1966 0
M  V30 5671 H 525.692 0.554119 -0.387206 0
M  V30 5672 H 528.246 1.22646 -1.64764 0
M  V30 5673 H 526.476 3.71543 -1.07203 0
M  V30 5674 H 528.165 3.77707 -1.48634 0
M  V30 5675 H 528.931 2.96937 -3.83476 0
M  V30 5676 H 524.81 3.65059 -2.81519 0
M  V30 5677 H 528.354 3.13998 -6.22937 0
M  V30 5678 H 524.251 3.82319 -5.20098 0
M  V30 5679 H 525.019 3.7498 -7.27552 0
M  V30 5680 N 527.682 1.05563 1.17022 0
M  V30 5681 C 528.931 0.763036 1.8671 0
M  V30 5682 C 529.244 -0.712857 1.82147 0
M  V30 5683 O 530.45 -1.11955 2.47343 0
M  V30 5684 C 528.906 1.31474 3.35026 0
M  V30 5685 C 528.514 2.82034 3.48081 0
M  V30 5686 C 530.258 1.09935 4.10018 0
M  V30 5687 C 528.165 3.30486 4.90442 0
M  V30 5688 H 527.095 0.281747 0.699382 0
M  V30 5689 H 529.746 1.2734 1.32124 0
M  V30 5690 H 528.128 0.732171 3.89173 0
M  V30 5691 H 529.302 3.46178 3.04133 0
M  V30 5692 H 527.617 3.02156 2.86515 0
M  V30 5693 H 530.214 1.43632 5.15048 0
M  V30 5694 H 530.557 0.0373072 4.16283 0
M  V30 5695 H 531.09 1.64732 3.62089 0
M  V30 5696 H 527.829 4.36137 4.89352 0
M  V30 5697 H 527.349 2.71086 5.35044 0
M  V30 5698 H 529.028 3.25382 5.59227 0
M  V30 5699 N 529.16 -1.33526 0.837174 0
M  V30 5700 C 530.07 -2.33023 0.271568 0
M  V30 5701 C 531.086 -1.63272 -0.601514 0
M  V30 5702 O 532.262 -1.94939 -0.506038 0
M  V30 5703 C 529.327 -3.42382 -0.545448 0
M  V30 5704 C 528.388 -4.27857 0.351709 0
M  V30 5705 C 527.621 -5.31994 -0.426409 0
M  V30 5706 O 527.844 -5.45763 -1.65828 0
M  V30 5707 O 526.778 -6.01572 0.1987 0
M  V30 5708 H 530.604 -2.83256 1.09545 0
M  V30 5709 H 528.189 -1.36837 0.599655 0
M  V30 5710 H 530.071 -4.09122 -1.00979 0
M  V30 5711 H 528.746 -2.94369 -1.34641 0
M  V30 5712 H 527.653 -3.6399 0.863853 0
M  V30 5713 H 528.986 -4.79349 1.1174 0
M  V30 5714 N 530.638 -0.59345 -1.46 0
M  V30 5715 C 531.601 0.123538 -2.28867 0
M  V30 5716 C 532.601 0.808628 -1.38989 0
M  V30 5717 O 533.791 0.658945 -1.61256 0
M  V30 5718 C 530.923 1.1847 -3.19653 0
M  V30 5719 H 532.116 -0.604843 -2.93737 0
M  V30 5720 H 529.669 -0.351875 -1.52288 0
M  V30 5721 H 530.404 1.94431 -2.59552 0
M  V30 5722 H 530.189 0.69783 -3.8584 0
M  V30 5723 H 531.679 1.68726 -3.81997 0
M  V30 5724 N 532.116 1.54067 -0.331816 0
M  V30 5725 C 533.527 1.86059 0.15454 0
M  V30 5726 C 533.878 1.25331 1.50952 0
M  V30 5727 O 533.003 0.562441 2.08963 0
M  V30 5728 C 533.598 3.37581 0.287192 0
M  V30 5729 C 532.157 3.69493 0.717773 0
M  V30 5730 C 531.304 2.76863 -0.155569 0
M  V30 5731 H 534.255 1.48797 -0.55182 0
M  V30 5732 H 534.276 3.63744 1.11671 0
M  V30 5733 H 533.788 3.81751 -0.699131 0
M  V30 5734 H 531.889 3.3086 1.71354 0
M  V30 5735 H 532.002 4.76315 0.5158 0
M  V30 5736 H 530.366 2.51995 0.370213 0
M  V30 5737 H 531.149 3.23861 -1.13881 0
M  V30 5738 N 533.594 0.0601682 1.57485 0
M  V30 5739 C 534.544 -0.920969 2.08572 0
M  V30 5740 C 535.528 -1.26617 0.992827 0
M  V30 5741 O 536.72 -1.24708 1.25606 0
M  V30 5742 C 533.849 -2.19267 2.64153 0
M  V30 5743 C 532.935 -1.87447 3.80427 0
M  V30 5744 N 533.326 -1.26025 4.89848 0
M  V30 5745 C 531.624 -2.17265 3.89502 0
M  V30 5746 C 532.325 -1.12036 5.70809 0
M  V30 5747 N 531.301 -1.62624 5.18705 0
M  V30 5748 H 535.103 -0.441561 2.90564 0
M  V30 5749 H 532.617 -0.144043 1.6176 0
M  V30 5750 H 534.614 -2.90462 2.99061 0
M  V30 5751 H 533.274 -2.67806 1.83603 0
M  V30 5752 H 534.285 -0.931336 5.09457 0
M  V30 5753 H 530.962 -2.68262 3.19909 0
M  V30 5754 H 532.352 -0.642783 6.68818 0
M  V30 5755 N 535.072 -1.5615 -0.213296 0
M  V30 5756 C 536.019 -1.93086 -1.26437 0
M  V30 5757 C 536.989 -0.789086 -1.4616 0
M  V30 5758 O 538.174 -1.04569 -1.59593 0
M  V30 5759 C 535.314 -2.26003 -2.608 0
M  V30 5760 C 534.427 -3.53156 -2.48807 0
M  V30 5761 C 533.562 -3.7548 -3.7575 0
M  V30 5762 C 532.601 -4.96119 -3.58514 0
M  V30 5763 N 531.738 -5.14791 -4.77425 0
M  V30 5764 H 536.578 -2.82707 -0.942376 0
M  V30 5765 H 534.115 -1.39919 -0.454001 0
M  V30 5766 H 536.073 -2.431 -3.39055 0
M  V30 5767 H 534.703 -1.39546 -2.91079 0
M  V30 5768 H 533.755 -3.44207 -1.61944 0
M  V30 5769 H 535.067 -4.41565 -2.31996 0
M  V30 5770 H 534.221 -3.92718 -4.62447 0
M  V30 5771 H 532.96 -2.85368 -3.95495 0
M  V30 5772 H 531.965 -4.78823 -2.70201 0
M  V30 5773 H 533.19 -5.87724 -3.40231 0
M  V30 5774 H 531.136 -4.27623 -4.97468 0
M  V30 5775 H 531.053 -5.97347 -4.63371 0
M  V30 5776 H 532.321 -5.36471 -5.65525 0
M  V30 5777 N 536.55 0.480323 -1.50102 0
M  V30 5778 C 537.798 1.23063 -1.60312 0
M  V30 5779 C 538.119 1.92659 -0.301226 0
M  V30 5780 O 537.389 1.83691 0.680753 0
M  V30 5781 H 535.969 0.457231 -0.590719 0
M  V30 5782 H 538.631 0.554893 -1.86834 0
M  V30 5783 H 537.727 1.9835 -2.40964 0
M  V30 5784 N 538.028 1.39524 0.732853 0
M  V30 5785 C 539.275 1.36865 1.49246 0
M  V30 5786 C 539.603 -0.0347118 1.94469 0
M  V30 5787 O 538.858 -1.01596 1.67262 0
M  V30 5788 C 539.157 2.28916 2.74468 0
M  V30 5789 C 538.823 3.76506 2.481 0
M  V30 5790 C 537.485 4.16721 2.40619 0
M  V30 5791 C 539.837 4.69846 2.25598 0
M  V30 5792 C 537.165 5.48334 2.08679 0
M  V30 5793 C 539.517 6.01739 1.95174 0
M  V30 5794 C 538.181 6.41015 1.86163 0
M  V30 5795 H 537.451 0.500824 0.546129 0
M  V30 5796 H 540.098 1.72047 0.840958 0
M  V30 5797 H 538.403 1.86859 3.4437 0
M  V30 5798 H 540.1 2.2415 3.32502 0
M  V30 5799 H 536.69 3.44635 2.54803 0
M  V30 5800 H 540.874 4.39608 2.30344 0
M  V30 5801 H 536.13 5.77685 2.00226 0
M  V30 5802 H 540.304 6.73591 1.76771 0
M  V30 5803 H 537.931 7.42917 1.61179 0
M  V30 5804 N 539.506 -0.963266 1.24736 0
M  V30 5805 C 540.917 -1.52145 1.08207 0
M  V30 5806 C 541.268 -1.93142 -0.345061 0
M  V30 5807 O 540.393 -1.77769 -1.23399 0
M  V30 5808 C 540.988 -2.76486 1.95808 0
M  V30 5809 C 539.547 -3.28646 1.8349 0
M  V30 5810 C 538.694 -2.01529 1.90476 0
M  V30 5811 H 541.645 -0.781083 1.38148 0
M  V30 5812 H 541.666 -3.49986 1.49297 0
M  V30 5813 H 541.178 -2.46617 2.99669 0
M  V30 5814 H 539.279 -3.63357 0.824787 0
M  V30 5815 H 539.392 -3.97246 2.67829 0
M  V30 5816 H 537.756 -2.16442 1.34258 0
M  V30 5817 H 538.539 -1.7402 2.95926 0
M  V30 5818 N 540.985 -1.06182 -1.16461 0
M  V30 5819 C 542.231 -0.779015 -1.87241 0
M  V30 5820 C 542.564 0.692715 -1.81425 0
M  V30 5821 O 541.839 1.5074 -1.22913 0
M  V30 5822 C 542.122 -1.2728 -3.36856 0
M  V30 5823 C 541.975 -2.80821 -3.51368 0
M  V30 5824 C 543.294 -0.879799 -4.31216 0
M  V30 5825 H 540.413 -0.284464 -0.679889 0
M  V30 5826 H 543.055 -1.31755 -1.36896 0
M  V30 5827 H 541.205 -0.814673 -3.79862 0
M  V30 5828 H 542.877 -3.34833 -3.17308 0
M  V30 5829 H 541.12 -3.19606 -2.93316 0
M  V30 5830 H 541.791 -3.10435 -4.56436 0
M  V30 5831 H 544.267 -1.27436 -3.96105 0
M  V30 5832 H 543.143 -1.25278 -5.34412 0
M  V30 5833 H 543.404 0.215372 -4.41575 0
M  V30 5834 N 542.463 1.3308 -0.844243 0
M  V30 5835 C 543.709 1.97898 -0.443206 0
M  V30 5836 C 544.042 1.66699 0.99625 0
M  V30 5837 O 543.317 0.949704 1.69738 0
M  V30 5838 C 543.6 3.53801 -0.670606 0
M  V30 5839 C 543.453 3.94667 -2.15772 0
M  V30 5840 C 544.772 4.39936 -0.120226 0
M  V30 5841 H 541.891 0.718861 -0.162504 0
M  V30 5842 H 544.533 1.57633 -1.06075 0
M  V30 5843 H 542.683 3.88229 -0.14496 0
M  V30 5844 H 544.355 3.70469 -2.74865 0
M  V30 5845 H 542.598 3.44203 -2.6402 0
M  V30 5846 H 543.269 5.03275 -2.26757 0
M  V30 5847 H 545.745 4.12183 -0.5696 0
M  V30 5848 H 544.621 5.4803 -0.308984 0
M  V30 5849 H 544.882 4.31184 0.976347 0
M  V30 5850 N 543.941 0.601185 1.45683 0
M  V30 5851 C 544.871 -0.108824 2.33246 0
M  V30 5852 C 545.852 -0.865223 1.46451 0
M  V30 5853 O 547.037 -0.83704 1.75235 0
M  V30 5854 C 544.167 -1.11101 3.2905 0
M  V30 5855 C 543.121 -0.468244 4.25431 0
M  V30 5856 C 542.447 -1.57822 5.10878 0
M  V30 5857 C 543.747 0.606469 5.18767 0
M  V30 5858 H 545.441 0.622306 2.92861 0
M  V30 5859 H 542.987 0.300714 1.40825 0
M  V30 5860 H 544.94 -1.61622 3.89174 0
M  V30 5861 H 543.664 -1.87265 2.67581 0
M  V30 5862 H 542.323 0.0160484 3.66596 0
M  V30 5863 H 541.971 -2.32998 4.45781 0
M  V30 5864 H 541.671 -1.15369 5.76163 0
M  V30 5865 H 543.195 -2.08583 5.73869 0
M  V30 5866 H 544.609 0.185589 5.73 0
M  V30 5867 H 543.006 0.952381 5.92494 0
M  V30 5868 H 544.076 1.48559 4.61582 0
M  V30 5869 N 545.419 -1.53889 0.339982 0
M  V30 5870 C 546.696 -1.93084 -0.312719 0
M  V30 5871 C 547.076 -1.2712 -1.68534 0
M  V30 5872 O 546.424 -0.420835 -2.24591 0
M  V30 5873 C 546.634 -3.4683 -0.388558 0
M  V30 5874 C 547.982 -4.19732 -0.641088 0
M  V30 5875 O 549.006 -3.53075 -0.470818 0
M  V30 5876 O 547.865 -5.3781 -0.970685 0
M  V30 5877 H 544.959 -0.806784 -0.18174 0
M  V30 5878 H 547.505 -1.65137 0.390898 0
M  V30 5879 H 546.277 -3.87055 0.574821 0
M  V30 5880 H 545.9 -3.80933 -1.1391 0
M  V30 5881 N 546.897 -0.0685191 -1.57451 0
M  V30 5882 C 548.122 0.613919 -1.98106 0
M  V30 5883 C 548.547 1.62551 -0.946501 0
M  V30 5884 O 547.905 1.81085 0.0882824 0
M  V30 5885 C 547.953 1.26189 -3.378 0
M  V30 5886 O 547.057 2.37773 -3.36954 0
M  V30 5887 H 546.398 0.158163 -0.644888 0
M  V30 5888 H 548.928 -0.142063 -2.04106 0
M  V30 5889 H 548.938 1.60951 -3.74912 0
M  V30 5890 H 547.613 0.520625 -4.12629 0
M  V30 5891 H 546.19 2.04829 -3.11608 0
M  V30 5892 N 548.375 1.56261 0.205012 0
M  V30 5893 C 549.786 1.70056 0.770574 0
M  V30 5894 C 550.137 0.673398 1.84282 0
M  V30 5895 O 549.262 -0.172196 2.15714 0
M  V30 5896 C 549.857 3.08316 1.40451 0
M  V30 5897 C 548.416 3.2391 1.91727 0
M  V30 5898 C 547.563 2.66001 0.783516 0
M  V30 5899 H 550.514 1.58688 -0.019911 0
M  V30 5900 H 550.535 3.05094 2.27371 0
M  V30 5901 H 550.047 3.83053 0.623882 0
M  V30 5902 H 548.148 2.54072 2.7254 0
M  V30 5903 H 548.261 4.3131 2.08588 0
M  V30 5904 H 546.625 2.24915 1.19521 0
M  V30 5905 H 547.408 3.43297 0.0152883 0
M  V30 5906 N 549.853 -0.472356 1.50355 0
M  V30 5907 C 551.269 -0.806001 1.37753 0
M  V30 5908 C 551.469 -1.968 0.432649 0
M  V30 5909 O 550.525 -2.52189 -0.12519 0
M  V30 5910 C 551.838 -1.11926 2.79093 0
M  V30 5911 C 553.386 -1.22579 2.87999 0
M  V30 5912 C 553.861 -1.57218 4.3017 0
M  V30 5913 N 555.352 -1.64212 4.33115 0
M  V30 5914 C 556.087 -1.92517 5.40116 0
M  V30 5915 N 555.583 -2.1885 6.57325 0
M  V30 5916 N 557.376 -1.94008 5.27558 0
M  V30 5917 H 549.527 0.293451 2.10363 0
M  V30 5918 H 551.79 0.0687672 0.945503 0
M  V30 5919 H 551.496 -0.338504 3.50067 0
M  V30 5920 H 551.37 -2.05577 3.16256 0
M  V30 5921 H 553.757 -1.99722 2.17245 0
M  V30 5922 H 553.838 -0.269107 2.54381 0
M  V30 5923 H 553.482 -0.806154 5.01461 0
M  V30 5924 H 553.412 -2.54034 4.61275 0
M  V30 5925 H 555.903 -1.45906 3.48597 0
M  V30 5926 H 556.216 -2.39718 7.3468 0
M  V30 5927 H 554.561 -2.16245 6.60502 0
M  V30 5928 H 557.752 -1.72931 4.34986 0
M  V30 5929 H 557.925 -2.15731 6.11035 0
M  V30 5930 N 551.331 -1.39911 -0.725443 0
M  V30 5931 C 552.608 -1.28158 -1.47766 0
M  V30 5932 C 552.988 0.104545 -2.10841 0
M  V30 5933 O 552.336 1.11657 -1.99361 0
M  V30 5934 C 552.546 -2.41306 -2.52135 0
M  V30 5935 C 553.894 -2.81076 -3.18247 0
M  V30 5936 O 554.918 -2.40827 -2.62452 0
M  V30 5937 O 553.777 -3.50581 -4.19231 0
M  V30 5938 H 550.871 -0.502761 -0.656628 0
M  V30 5939 H 553.417 -1.51808 -0.758456 0
M  V30 5940 H 552.189 -3.33932 -2.03974 0
M  V30 5941 H 551.812 -2.19374 -3.31603 0
M  V30 5942 N 552.809 0.956637 -1.25245 0
M  V30 5943 C 554.057 1.69764 -1.09657 0
M  V30 5944 C 554.378 1.91583 0.363464 0
M  V30 5945 O 553.648 1.50149 1.25825 0
M  V30 5946 H 552.228 0.629097 -0.402798 0
M  V30 5947 H 554.89 1.15026 -1.57337 0
M  V30 5948 H 553.986 2.67769 -1.60331 0
M  V30 5949 N 554.287 1.06798 1.15896 0
M  V30 5950 C 555.235 0.677525 2.22514 0
M  V30 5951 C 556.229 -0.308994 1.66558 0
M  V30 5952 O 557.435 -0.173308 1.79164 0
M  V30 5953 H 553.81 0.200994 0.724642 0
M  V30 5954 H 555.781 1.5865 2.52731 0
M  V30 5955 C 554.53 0.0854153 3.47595 0
M  V30 5956 H 553.853 0.835645 3.90969 0
M  V30 5957 H 555.293 -0.150199 4.23734 0
M  V30 5958 C 553.752 -1.1724 3.15843 0
M  V30 5959 O 554.282 -2.25965 3.32119 0
M  V30 5960 N 552.488 -1.07636 2.69931 0
M  V30 5961 H 552.035 -0.191559 2.56887 0
M  V30 5962 H 551.993 -1.91876 2.4906 0
M  V30 5963 N 555.766 -1.3263 0.851289 0
M  V30 5964 C 556.696 -2.31449 0.308771 0
M  V30 5965 C 557.677 -1.59531 -0.590255 0
M  V30 5966 O 558.862 -1.87351 -0.511205 0
M  V30 5967 C 555.992 -3.43586 -0.506548 0
M  V30 5968 C 554.946 -4.26963 0.297753 0
M  V30 5969 C 554.272 -5.30831 -0.642094 0
M  V30 5970 C 555.572 -4.99643 1.52166 0
M  V30 5971 H 557.266 -2.77074 1.13447 0
M  V30 5972 H 554.812 -1.33207 0.546971 0
M  V30 5973 H 556.765 -4.11754 -0.896474 0
M  V30 5974 H 555.489 -2.96681 -1.36558 0
M  V30 5975 H 554.148 -3.60437 0.669391 0
M  V30 5976 H 553.796 -4.8018 -1.49788 0
M  V30 5977 H 553.496 -5.87501 -0.107968 0
M  V30 5978 H 555.02 -6.01862 -1.02927 0
M  V30 5979 H 556.434 -5.6051 1.20421 0
M  V30 5980 H 554.831 -5.66022 1.99347 0
M  V30 5981 H 555.901 -4.27701 2.28474 0
M  V30 5982 N 557.244 -0.608902 -1.45362 0
M  V30 5983 C 558.191 0.109172 -2.30542 0
M  V30 5984 C 559.161 0.858704 -1.42181 0
M  V30 5985 O 560.346 0.844178 -1.71109 0
M  V30 5986 C 557.486 1.09971 -3.27109 0
M  V30 5987 C 556.599 0.350911 -4.30572 0
M  V30 5988 C 555.734 1.33129 -5.14247 0
M  V30 5989 C 554.773 0.570377 -6.09437 0
M  V30 5990 N 553.91 1.5001 -6.85887 0
M  V30 5991 H 558.75 -0.623195 -2.91411 0
M  V30 5992 H 556.287 -0.319122 -1.43597 0
M  V30 5993 H 558.245 1.68714 -3.81564 0
M  V30 5994 H 556.875 1.79947 -2.67991 0
M  V30 5995 H 555.927 -0.352054 -3.78767 0
M  V30 5996 H 557.239 -0.242725 -4.98209 0
M  V30 5997 H 556.393 1.99074 -5.73109 0
M  V30 5998 H 555.132 1.95885 -4.46632 0
M  V30 5999 H 554.137 -0.102702 -5.49704 0
M  V30 6000 H 555.362 -0.0521607 -6.7908 0
M  V30 6001 H 553.308 2.11529 -6.2096 0
M  V30 6002 H 553.225 0.959934 -7.49881 0
M  V30 6003 H 554.493 2.14909 -7.49289 0
M  V30 6004 N 558.722 1.53707 -0.348139 0
M  V30 6005 C 559.999 1.93247 0.302475 0
M  V30 6006 C 560.379 1.28012 1.67857 0
M  V30 6007 O 559.727 0.43274 2.24365 0
M  V30 6008 C 559.937 3.47031 0.370159 0
M  V30 6009 C 561.285 4.20066 0.61882 0
M  V30 6010 O 562.309 3.53319 0.452087 0
M  V30 6011 O 561.168 5.38318 0.94215 0
M  V30 6012 H 558.262 0.807736 0.177458 0
M  V30 6013 H 560.808 1.64927 -0.399651 0
M  V30 6014 H 559.58 3.86745 -0.59534 0
M  V30 6015 H 559.203 3.81532 1.11888 0
M  V30 6016 N 560.2 0.0768682 1.57412 0
M  V30 6017 C 561.447 -0.591085 1.93681 0
M  V30 6018 C 561.775 -1.69311 0.957286 0
M  V30 6019 O 561.03 -1.95682 -0.0262428 0
M  V30 6020 C 561.329 -1.20268 3.36557 0
M  V30 6021 C 560.995 -0.226286 4.50332 0
M  V30 6022 C 559.657 0.0423142 4.81181 0
M  V30 6023 C 562.009 0.441415 5.19327 0
M  V30 6024 C 559.337 0.985616 5.78362 0
M  V30 6025 C 561.689 1.37307 6.17519 0
M  V30 6026 C 560.353 1.65009 6.46783 0
M  V30 6027 H 559.623 -0.216293 0.70873 0
M  V30 6028 H 562.27 0.148824 1.90921 0
M  V30 6029 H 560.575 -2.01844 3.35807 0
M  V30 6030 H 562.272 -1.72688 3.61911 0
M  V30 6031 H 558.862 -0.445821 4.26275 0
M  V30 6032 H 563.046 0.247023 4.95685 0
M  V30 6033 H 558.302 1.20743 5.99359 0
M  V30 6034 H 562.476 1.89637 6.70083 0
M  V30 6035 H 560.103 2.38263 7.21897 0
M  V30 6036 N 561.678 -1.56367 -0.196722 0
M  V30 6037 C 563.089 -1.70462 -0.761545 0
M  V30 6038 C 563.44 -0.683161 -1.83922 0
M  V30 6039 O 562.565 0.160753 -2.15802 0
M  V30 6040 C 563.16 -3.09057 -1.38814 0
M  V30 6041 C 561.719 -3.24922 -1.90007 0
M  V30 6042 C 560.866 -2.66412 -0.769399 0
M  V30 6043 H 563.817 -1.58675 0.0283263 0
M  V30 6044 H 563.838 -3.06296 -2.2575 0
M  V30 6045 H 563.35 -3.83378 -0.603559 0
M  V30 6046 H 561.451 -2.55514 -2.71189 0
M  V30 6047 H 561.564 -4.3241 -2.06297 0
M  V30 6048 H 559.928 -2.25546 -1.18326 0
M  V30 6049 H 560.711 -3.433 0.00291773 0
M  V30 6050 N 563.156 0.464375 -1.50603 0
M  V30 6051 C 564.402 1.21776 -1.62168 0
M  V30 6052 C 564.735 1.91476 -0.324154 0
M  V30 6053 O 564.01 1.8242 0.674782 0
M  V30 6054 C 564.293 2.25614 -2.80661 0
M  V30 6055 C 564.146 1.60175 -4.20314 0
M  V30 6056 C 565.465 3.26862 -2.94702 0
M  V30 6057 H 562.584 0.44137 -0.590222 0
M  V30 6058 H 565.226 0.510623 -1.8301 0
M  V30 6059 H 563.376 2.85923 -2.63021 0
M  V30 6060 H 565.048 1.03411 -4.4956 0
M  V30 6061 H 563.291 0.904697 -4.24261 0
M  V30 6062 H 563.962 2.35665 -4.99165 0
M  V30 6063 H 566.438 2.76582 -3.10872 0
M  V30 6064 H 565.314 3.96839 -3.79223 0
M  V30 6065 H 565.575 3.91382 -2.05603 0
M  V30 6066 N 564.634 1.40294 0.718013 0
M  V30 6067 C 565.581 1.40367 1.8321 0
M  V30 6068 C 566.551 0.260952 1.64037 0
M  V30 6069 O 567.736 0.458648 1.85205 0
M  V30 6070 C 564.876 1.26965 3.20895 0
M  V30 6071 C 563.989 2.50922 3.51656 0
M  V30 6072 C 563.124 2.29981 4.78834 0
M  V30 6073 C 562.163 3.49527 5.02491 0
M  V30 6074 N 561.3 3.27796 6.20882 0
M  V30 6075 H 566.14 2.35593 1.82482 0
M  V30 6076 H 563.677 1.17012 0.891444 0
M  V30 6077 H 565.635 1.17202 4.00399 0
M  V30 6078 H 564.265 0.353591 3.20858 0
M  V30 6079 H 563.317 2.71223 2.66725 0
M  V30 6080 H 564.629 3.39913 3.65048 0
M  V30 6081 H 563.783 2.17558 5.66351 0
M  V30 6082 H 562.522 1.38411 4.67647 0
M  V30 6083 H 561.527 3.6243 4.1343 0
M  V30 6084 H 562.752 4.42021 5.15553 0
M  V30 6085 H 560.698 2.38906 6.1095 0
M  V30 6086 H 560.615 4.10351 6.34939 0
M  V30 6087 H 561.883 3.19101 7.11193 0
M  V30 6088 N 566.112 -0.949982 1.2575 0
M  V30 6089 C 567.022 -2.08109 1.08295 0
M  V30 6090 C 568.038 -1.7399 0.0188181 0
M  V30 6091 O 569.214 -2.00187 0.220724 0
M  V30 6092 C 566.279 -3.39383 0.708534 0
M  V30 6093 C 565.34 -3.8734 1.85111 0
M  V30 6094 C 564.573 -5.12349 1.49447 0
M  V30 6095 O 564.796 -5.6905 0.392212 0
M  V30 6096 O 563.73 -5.5513 2.32624 0
M  V30 6097 H 567.556 -2.25738 2.03165 0
M  V30 6098 H 565.141 -1.06545 1.04731 0
M  V30 6099 H 567.023 -4.18277 0.512061 0
M  V30 6100 H 565.698 -3.23013 -0.210854 0
M  V30 6101 H 564.605 -3.09429 2.10248 0
M  V30 6102 H 565.938 -4.08216 2.74991 0
M  V30 6103 N 567.59 -1.07411 -1.15328 0
M  V30 6104 C 568.52 -0.716472 -2.22236 0
M  V30 6105 C 569.501 0.296373 -1.67498 0
M  V30 6106 O 570.686 0.168989 -1.93463 0
M  V30 6107 C 567.816 -0.114142 -3.47112 0
M  V30 6108 C 566.77 -1.05421 -4.14814 0
M  V30 6109 C 566.096 -0.314604 -5.33774 0
M  V30 6110 C 567.396 -2.38808 -4.64508 0
M  V30 6111 H 569.09 -1.61029 -2.52408 0
M  V30 6112 H 566.636 -0.775702 -1.21321 0
M  V30 6113 H 568.589 0.148001 -4.2114 0
M  V30 6114 H 567.313 0.814755 -3.16274 0
M  V30 6115 H 565.972 -1.30128 -3.42728 0
M  V30 6116 H 565.62 0.617772 -4.99192 0
M  V30 6117 H 565.32 -0.941209 -5.80013 0
M  V30 6118 H 566.844 -0.0602747 -6.1057 0
M  V30 6119 H 568.258 -2.18424 -5.3006 0
M  V30 6120 H 566.655 -2.97069 -5.21412 0
M  V30 6121 H 567.725 -3.01067 -3.80114 0
M  V30 6122 N 569.068 1.32177 -0.85831 0
M  V30 6123 C 569.998 2.31282 -0.321041 0
M  V30 6124 C 570.979 1.59841 0.581786 0
M  V30 6125 O 572.164 1.87619 0.501262 0
M  V30 6126 C 569.294 3.4385 0.48832 0
M  V30 6127 C 568.248 4.26799 -0.320391 0
M  V30 6128 C 567.574 5.31164 0.613934 0
M  V30 6129 C 568.874 4.98829 -1.54813 0
M  V30 6130 H 570.568 2.76469 -1.14915 0
M  V30 6131 H 568.114 1.32916 -0.554028 0
M  V30 6132 H 570.067 4.12224 0.874626 0
M  V30 6133 H 568.791 2.97401 1.34983 0
M  V30 6134 H 567.45 3.60077 -0.688497 0
M  V30 6135 H 567.098 4.80967 1.47239 0
M  V30 6136 H 566.798 5.8755 0.0768097 0
M  V30 6137 H 568.322 6.024 0.997336 0
M  V30 6138 H 569.736 5.59864 -1.23392 0
M  V30 6139 H 568.133 5.64957 -2.02346 0
M  V30 6140 H 569.203 4.26483 -2.30739 0
M  V30 6141 N 570.547 0.616602 1.45037 0
M  V30 6142 C 571.795 0.115103 2.01772 0
M  V30 6143 C 572.116 -1.2622 1.48639 0
M  V30 6144 O 571.386 -1.83563 0.684199 0
M  V30 6145 H 569.966 0.0395607 0.745952 0
M  V30 6146 H 572.628 0.800032 1.77723 0
M  V30 6147 H 571.724 0.0717274 3.12018 0
M  V30 6148 N 572.025 -1.5352 0.356285 0
M  V30 6149 C 573.436 -1.86282 -0.12492 0
M  V30 6150 C 573.787 -1.27717 -1.48939 0
M  V30 6151 O 572.912 -0.595614 -2.08042 0
M  V30 6152 C 573.507 -3.37995 -0.23345 0
M  V30 6153 C 572.066 -3.70588 -0.658899 0
M  V30 6154 C 571.213 -2.76581 0.199596 0
M  V30 6155 H 574.164 -1.47901 0.575423 0
M  V30 6156 H 574.185 -3.65475 -1.0587 0
M  V30 6157 H 573.697 -3.8059 0.759776 0
M  V30 6158 H 571.798 -3.33544 -1.66069 0
M  V30 6159 H 571.911 -4.77076 -0.439957 0
M  V30 6160 H 570.275 -2.52552 -0.330076 0
M  V30 6161 H 571.058 -3.22008 1.19019 0
M  V30 6162 N 573.503 -0.0852151 -1.57369 0
M  V30 6163 C 574.78 0.622534 -1.85429 0
M  V30 6164 C 575.16 1.86962 -0.980229 0
M  V30 6165 O 574.508 2.28445 -0.0500219 0
M  V30 6166 C 574.718 0.947374 -3.35896 0
M  V30 6167 C 576.066 1.31509 -4.03721 0
M  V30 6168 O 577.09 1.03869 -3.40719 0
M  V30 6169 O 575.949 1.83231 -5.14868 0
M  V30 6170 H 573.043 0.310513 -0.766492 0
M  V30 6171 H 575.589 -0.117164 -1.69295 0
M  V30 6172 H 574.361 0.0622264 -3.91251 0
M  V30 6173 H 573.984 1.74338 -3.5734 0
M  V30 6174 N 574.981 1.5647 0.188427 0
M  V30 6175 C 576.228 1.81013 0.907779 0
M  V30 6176 C 576.556 0.65953 1.82977 0
M  V30 6177 O 575.811 -0.354308 1.92466 0
M  V30 6178 C 576.11 3.11596 1.7505 0
M  V30 6179 C 575.776 4.40145 0.978922 0
M  V30 6180 C 574.438 4.75066 0.765912 0
M  V30 6181 C 576.79 5.19369 0.436498 0
M  V30 6182 C 574.118 5.867 -0.00089868 0
M  V30 6183 C 576.47 6.31805 -0.317136 0
M  V30 6184 C 575.134 6.65303 -0.541103 0
M  V30 6185 H 574.404 0.662373 0.33218 0
M  V30 6186 H 577.051 1.9071 0.173732 0
M  V30 6187 H 575.356 2.97165 2.55343 0
M  V30 6188 H 577.053 3.27793 2.30983 0
M  V30 6189 H 573.643 4.12745 1.15497 0
M  V30 6190 H 577.827 4.92799 0.588449 0
M  V30 6191 H 573.083 6.11122 -0.184329 0
M  V30 6192 H 577.257 6.92406 -0.744788 0
M  V30 6193 H 574.884 7.51646 -1.13718 0
M  V30 6194 N 576.459 -0.456382 1.50847 0
M  V30 6195 C 577.707 -1.20497 1.62249 0
M  V30 6196 C 578.028 -1.92156 0.331839 0
M  V30 6197 O 577.298 -1.84751 -0.651443 0
M  V30 6198 H 575.878 -0.447775 0.597918 0
M  V30 6199 H 578.54 -0.525099 1.87693 0
M  V30 6200 H 577.636 -1.94492 2.44089 0
M  V30 6201 N 577.937 -1.40673 -0.710563 0
M  V30 6202 C 579.167 -1.4234 -1.49742 0
M  V30 6203 C 579.575 -0.022821 -1.89186 0
M  V30 6204 O 578.918 0.964773 -1.56326 0
M  V30 6205 C 578.98 -2.25509 -2.79975 0
M  V30 6206 C 578.644 -3.73862 -2.62824 0
M  V30 6207 C 579.641 -4.66379 -2.29752 0
M  V30 6208 C 577.326 -4.17735 -2.78932 0
M  V30 6209 C 579.32 -6.00756 -2.13006 0
M  V30 6210 C 577.007 -5.5218 -2.61802 0
M  V30 6211 C 578.005 -6.43505 -2.28888 0
M  V30 6212 O 577.693 -7.75472 -2.11894 0
M  V30 6213 H 577.425 -0.487311 -0.468513 0
M  V30 6214 H 579.979 -1.8542 -0.883668 0
M  V30 6215 H 578.209 -1.77218 -3.43701 0
M  V30 6216 H 579.898 -2.19058 -3.41714 0
M  V30 6217 H 580.664 -4.33778 -2.16936 0
M  V30 6218 H 576.543 -3.46967 -3.03537 0
M  V30 6219 H 580.087 -6.72003 -1.87237 0
M  V30 6220 H 575.984 -5.84365 -2.74204 0
M  V30 6221 H 576.752 -7.86458 -2.26775 0
M  V30 6222 N 579.415 0.9433 -1.26252 0
M  V30 6223 C 580.661 1.69175 -1.11837 0
M  V30 6224 C 580.994 1.91238 0.337891 0
M  V30 6225 O 580.269 1.49152 1.24836 0
M  V30 6226 C 580.552 3.06783 -1.88563 0
M  V30 6227 C 580.405 2.9206 -3.42083 0
M  V30 6228 C 581.724 4.06865 -1.67776 0
M  V30 6229 H 578.843 0.61399 -0.407658 0
M  V30 6230 H 581.485 1.09572 -1.55222 0
M  V30 6231 H 579.635 3.57663 -1.51689 0
M  V30 6232 H 581.307 2.48419 -3.88698 0
M  V30 6233 H 579.55 2.27731 -3.69217 0
M  V30 6234 H 580.221 3.89651 -3.90994 0
M  V30 6235 H 582.697 3.64939 -1.99897 0
M  V30 6236 H 581.573 5.01168 -2.23879 0
M  V30 6237 H 581.834 4.37705 -0.621816 0
M  V30 6238 N 580.893 1.08022 1.14757 0
M  V30 6239 C 582.121 0.828847 1.89572 0
M  V30 6240 C 582.536 -0.618621 1.78377 0
M  V30 6241 O 581.893 -1.42482 1.1404 0
M  V30 6242 C 581.944 1.23677 3.39685 0
M  V30 6243 O 581.665 2.62746 3.50566 0
M  V30 6244 C 583.166 1.01569 4.31507 0
M  V30 6245 H 580.386 0.299196 0.600602 0
M  V30 6246 H 582.93 1.43846 1.45357 0
M  V30 6247 H 581.085 0.671347 3.81539 0
M  V30 6248 H 581.499 2.79573 4.43778 0
M  V30 6249 H 582.973 1.35055 5.35223 0
M  V30 6250 H 583.45 -0.0475433 4.39174 0
M  V30 6251 H 584.056 1.56636 3.95405 0
M  V30 6252 N 582.371 -1.3172 0.865308 0
M  V30 6253 C 583.787 -1.4958 0.556596 0
M  V30 6254 C 583.987 -1.79763 -0.910353 0
M  V30 6255 O 583.043 -1.87351 -1.6928 0
M  V30 6256 C 584.356 -2.63277 1.45279 0
M  V30 6257 C 585.904 -2.77161 1.45433 0
M  V30 6258 C 586.379 -3.93949 2.33598 0
M  V30 6259 N 587.87 -4.01228 2.31453 0
M  V30 6260 C 588.605 -4.90855 2.96393 0
M  V30 6261 N 588.101 -5.85416 3.70486 0
M  V30 6262 N 589.894 -4.84063 2.85726 0
M  V30 6263 H 582.045 -1.10396 1.81456 0
M  V30 6264 H 584.308 -0.54507 0.775631 0
M  V30 6265 H 584.014 -2.47734 2.49641 0
M  V30 6266 H 583.888 -3.59309 1.14792 0
M  V30 6267 H 586.275 -2.9212 0.41831 0
M  V30 6268 H 586.356 -1.8181 1.79941 0
M  V30 6269 H 586 -3.79748 3.37274 0
M  V30 6270 H 585.93 -4.88598 1.96417 0
M  V30 6271 H 588.421 -3.3357 1.77593 0
M  V30 6272 H 588.734 -6.50525 4.17178 0
M  V30 6273 H 587.079 -5.85409 3.74594 0
M  V30 6274 H 590.27 -4.09163 2.27384 0
M  V30 6275 H 590.443 -5.53708 3.36617 0
M  V30 6276 N 583.85 -0.624285 -1.44708 0
M  V30 6277 C 584.76 0.0861083 -2.34442 0
M  V30 6278 C 585.776 0.84291 -1.5222 0
M  V30 6279 O 586.952 0.796723 -1.84971 0
M  V30 6280 C 584.017 1.05999 -3.30099 0
M  V30 6281 C 583.077 0.303316 -4.28227 0
M  V30 6282 C 582.311 1.23081 -5.19314 0
M  V30 6283 O 582.534 2.46929 -5.14181 0
M  V30 6284 O 581.468 0.71883 -5.97592 0
M  V30 6285 H 585.293 -0.651756 -2.96624 0
M  V30 6286 H 582.879 -0.384493 -1.44368 0
M  V30 6287 H 584.76 1.62046 -3.88997 0
M  V30 6288 H 583.436 1.77859 -2.70459 0
M  V30 6289 H 582.343 -0.300033 -3.72895 0
M  V30 6290 H 583.676 -0.375123 -4.90768 0
M  V30 6291 N 585.328 1.53329 -0.364422 0
M  V30 6292 C 586.739 1.86345 0.115039 0
M  V30 6293 C 587.09 1.28505 1.4826 0
M  V30 6294 O 586.215 0.606639 2.07723 0
M  V30 6295 C 586.81 3.38114 0.215522 0
M  V30 6296 C 585.369 3.70932 0.639237 0
M  V30 6297 C 584.516 2.76471 -0.214261 0
M  V30 6298 H 587.467 1.47593 -0.583258 0
M  V30 6299 H 587.488 3.66031 1.0393 0
M  V30 6300 H 587 3.80182 -0.779948 0
M  V30 6301 H 585.101 3.3442 1.64298 0
M  V30 6302 H 585.214 4.77302 0.41465 0
M  V30 6303 H 583.578 2.52724 0.316678 0
M  V30 6304 H 584.361 3.21373 -1.20725 0
M  V30 6305 N 586.806 0.0935595 1.57322 0
M  V30 6306 C 587.736 -0.863062 2.16964 0
M  V30 6307 C 588.717 -1.29528 1.10256 0
M  V30 6308 O 589.902 -1.36245 1.38387 0
M  V30 6309 C 587.032 -2.12276 2.74875 0
M  V30 6310 C 585.986 -1.82921 3.86942 0
M  V30 6311 C 585.312 -3.15707 4.31548 0
M  V30 6312 C 586.612 -1.11737 5.10208 0
M  V30 6313 H 588.306 -0.366145 2.97153 0
M  V30 6314 H 585.852 -0.174673 1.42937 0
M  V30 6315 H 587.805 -2.79634 3.1525 0
M  V30 6316 H 586.529 -2.64248 1.91938 0
M  V30 6317 H 585.188 -1.17961 3.47103 0
M  V30 6318 H 584.836 -3.65563 3.45504 0
M  V30 6319 H 584.536 -2.96849 5.07104 0
M  V30 6320 H 586.06 -3.84226 4.74555 0
M  V30 6321 H 587.474 -1.69203 5.47762 0
M  V30 6322 H 585.871 -1.03064 5.91183 0
M  V30 6323 H 586.941 -0.0998818 4.84797 0
M  V30 6324 N 588.284 -1.56567 -0.180126 0
M  V30 6325 C 589.531 -1.81492 -0.898167 0
M  V30 6326 C 589.859 -0.669225 -1.82624 0
M  V30 6327 O 589.114 0.344096 -1.92651 0
M  V30 6328 C 589.413 -3.1252 -1.73395 0
M  V30 6329 C 589.079 -4.40658 -0.955567 0
M  V30 6330 C 587.741 -4.75465 -0.740707 0
M  V30 6331 C 590.093 -5.19593 -0.408948 0
M  V30 6332 C 587.421 -5.86691 0.0320128 0
M  V30 6333 C 589.773 -6.31627 0.350638 0
M  V30 6334 C 588.437 -6.65007 0.576378 0
M  V30 6335 H 587.707 -0.664125 -0.328662 0
M  V30 6336 H 590.354 -1.908 -0.163616 0
M  V30 6337 H 588.659 -2.98515 -2.53763 0
M  V30 6338 H 590.356 -3.29013 -2.29241 0
M  V30 6339 H 586.946 -4.13352 -1.13306 0
M  V30 6340 H 591.13 -4.93104 -0.562307 0
M  V30 6341 H 586.386 -6.11016 0.216735 0
M  V30 6342 H 590.56 -6.92001 0.781497 0
M  V30 6343 H 588.187 -7.51033 1.17703 0
M  V30 6344 N 589.762 0.448376 -1.51087 0
M  V30 6345 C 590.672 1.56882 -1.74428 0
M  V30 6346 C 591.688 1.62268 -0.62809 0
M  V30 6347 O 592.864 1.79716 -0.909075 0
M  V30 6348 C 589.929 2.92947 -1.85426 0
M  V30 6349 C 588.99 2.97766 -3.09247 0
M  V30 6350 C 588.223 4.27341 -3.19711 0
M  V30 6351 O 588.446 5.19112 -2.36387 0
M  V30 6352 O 587.38 4.38219 -4.12611 0
M  V30 6353 H 591.206 1.40104 -2.69452 0
M  V30 6354 H 588.791 0.630247 -1.35456 0
M  V30 6355 H 590.673 3.73719 -1.94709 0
M  V30 6356 H 589.348 3.09876 -0.935887 0
M  V30 6357 H 588.255 2.15989 -3.0545 0
M  V30 6358 H 589.588 2.8578 -4.00738 0
M  V30 6359 N 591.24 1.41047 0.703093 0
M  V30 6360 C 592.465 1.43537 1.49706 0
M  V30 6361 C 592.89 0.0401853 1.88057 0
M  V30 6362 O 592.248 -0.954785 1.54122 0
M  V30 6363 C 592.296 2.3433 2.74084 0
M  V30 6364 O 591.4 1.79515 3.71279 0
M  V30 6365 H 590.741 0.487454 0.450871 0
M  V30 6366 H 593.271 1.85422 0.86486 0
M  V30 6367 H 593.281 2.49947 3.22476 0
M  V30 6368 H 591.956 3.35708 2.45506 0
M  V30 6369 H 590.533 1.7331 3.30179 0
M  V30 6370 N 592.718 -0.936591 1.26751 0
M  V30 6371 C 593.964 -1.6858 1.12733 0
M  V30 6372 C 594.297 -1.91414 -0.327745 0
M  V30 6373 O 593.572 -1.49812 -1.24043 0
M  V30 6374 C 593.855 -3.05779 1.90187 0
M  V30 6375 C 593.708 -2.90242 3.43627 0
M  V30 6376 C 595.027 -4.0597 1.69931 0
M  V30 6377 H 592.146 -0.61182 0.410908 0
M  V30 6378 H 594.788 -1.08747 1.55801 0
M  V30 6379 H 592.938 -3.56853 1.53584 0
M  V30 6380 H 594.61 -2.46354 3.9001 0
M  V30 6381 H 592.853 -2.2577 3.70419 0
M  V30 6382 H 593.524 -3.87572 3.93055 0
M  V30 6383 H 596 -3.63874 2.0183 0
M  V30 6384 H 594.876 -4.99974 2.26534 0
M  V30 6385 H 595.137 -4.37369 0.64502 0
M  V30 6386 N 594.196 -1.08629 -1.14182 0
M  V30 6387 C 595.424 -0.838889 -1.8913 0
M  V30 6388 C 595.839 0.609153 -1.78703 0
M  V30 6389 O 595.196 1.41876 -1.14794 0
M  V30 6390 C 595.247 -1.25477 -3.39025 0
M  V30 6391 O 594.968 -2.64601 -3.49167 0
M  V30 6392 C 596.469 -1.03856 -4.30963 0
M  V30 6393 H 593.689 -0.302377 -0.599007 0
M  V30 6394 H 596.233 -1.44615 -1.44592 0
M  V30 6395 H 594.388 -0.691571 -3.81177 0
M  V30 6396 H 594.802 -2.81922 -4.42289 0
M  V30 6397 H 596.276 -1.37892 -5.345 0
M  V30 6398 H 596.753 0.0242522 -4.39193 0
M  V30 6399 H 597.359 -1.58731 -3.94569 0
M  V30 6400 N 595.674 1.31259 -0.872281 0
M  V30 6401 C 596.899 2.0133 -0.498099 0
M  V30 6402 C 597.324 1.65031 0.902568 0
M  V30 6403 O 596.682 0.860164 1.59596 0
M  V30 6404 C 596.73 3.54411 -0.665205 0
M  V30 6405 O 595.834 4.11347 0.294473 0
M  V30 6406 H 595.175 0.633844 -0.197832 0
M  V30 6407 H 597.705 1.67402 -1.17633 0
M  V30 6408 H 597.715 4.04147 -0.559373 0
M  V30 6409 H 596.39 3.80171 -1.68651 0
M  V30 6410 H 594.967 3.72624 0.143403 0
M  V30 6411 N 597.152 0.631951 1.44375 0
M  V30 6412 C 598.082 -0.0593243 2.33425 0
M  V30 6413 C 599.063 -0.833964 1.48253 0
M  V30 6414 O 600.248 -0.799682 1.76971 0
M  V30 6415 C 597.378 -1.04096 3.31333 0
M  V30 6416 C 596.332 -0.377899 4.26328 0
M  V30 6417 C 595.658 -1.4695 5.14111 0
M  V30 6418 C 596.958 0.716371 5.17364 0
M  V30 6419 H 598.652 0.684287 2.91475 0
M  V30 6420 H 596.198 0.330518 1.40156 0
M  V30 6421 H 598.151 -1.53331 3.92514 0
M  V30 6422 H 596.875 -1.81547 2.71493 0
M  V30 6423 H 595.534 0.0938054 3.6648 0
M  V30 6424 H 595.182 -2.2349 4.50623 0
M  V30 6425 H 594.882 -1.03121 5.78481 0
M  V30 6426 H 596.406 -1.96363 5.78164 0
M  V30 6427 H 597.82 0.307089 5.72477 0
M  V30 6428 H 596.217 1.07784 5.90341 0
M  V30 6429 H 597.287 1.58316 4.58327 0
M  V30 6430 N 598.631 -1.53133 0.372548 0
M  V30 6431 C 599.908 -1.93704 -0.271693 0
M  V30 6432 C 600.288 -1.30667 -1.65799 0
M  V30 6433 O 599.636 -0.46838 -2.23648 0
M  V30 6434 C 599.846 -3.47576 -0.314903 0
M  V30 6435 C 601.194 -4.20998 -0.551912 0
M  V30 6436 O 602.218 -3.53994 -0.39582 0
M  V30 6437 O 601.077 -5.39748 -0.85639 0
M  V30 6438 H 598.171 -0.810457 -0.164586 0
M  V30 6439 H 600.717 -1.6427 0.425838 0
M  V30 6440 H 599.489 -3.85749 0.656792 0
M  V30 6441 H 599.112 -3.83264 -1.05804 0
M  V30 6442 N 600.109 -0.101901 -1.5727 0
M  V30 6443 C 601.334 0.571759 -1.99363 0
M  V30 6444 C 601.759 1.60507 -0.980768 0
M  V30 6445 O 601.117 1.81231 0.0498517 0
M  V30 6446 C 601.165 1.18996 -3.404 0
M  V30 6447 O 600.269 2.30572 -3.41922 0
M  V30 6448 H 599.61 0.144449 -0.648098 0
M  V30 6449 H 602.14 -0.185325 -2.03759 0
M  V30 6450 H 602.15 1.52962 -3.78241 0
M  V30 6451 H 600.825 0.432984 -4.1364 0
M  V30 6452 H 599.402 1.98173 -3.15883 0
M  V30 6453 N 601.587 1.56661 0.17182 0
M  V30 6454 C 602.834 1.81965 0.888529 0
M  V30 6455 C 603.162 0.6789 1.82267 0
M  V30 6456 O 602.417 -0.333875 1.92831 0
M  V30 6457 C 602.716 3.13435 1.71736 0
M  V30 6458 C 602.382 4.41159 0.932184 0
M  V30 6459 C 601.044 4.75851 0.715481 0
M  V30 6460 C 603.396 5.19803 0.381387 0
M  V30 6461 C 600.724 5.86666 -0.063126 0
M  V30 6462 C 603.076 6.31433 -0.384129 0
M  V30 6463 C 601.74 6.64692 -0.611637 0
M  V30 6464 H 601.01 0.665859 0.325136 0
M  V30 6465 H 603.657 1.90884 0.153495 0
M  V30 6466 H 601.962 2.99857 2.52177 0
M  V30 6467 H 603.659 3.30224 2.27493 0
M  V30 6468 H 600.249 4.13947 1.11112 0
M  V30 6469 H 604.433 4.93396 0.536148 0
M  V30 6470 H 599.689 6.10892 -0.249136 0
M  V30 6471 H 603.863 6.91577 -0.818185 0
M  V30 6472 H 601.49 7.50398 -1.21684 0
M  V30 6473 N 603.065 -0.440357 1.51323 0
M  V30 6474 C 604.313 -1.18769 1.63518 0
M  V30 6475 C 604.634 -1.91793 0.352201 0
M  V30 6476 O 603.904 -1.85432 -0.631811 0
M  V30 6477 H 602.484 -0.441408 0.602634 0
M  V30 6478 H 605.146 -0.505162 1.8824 0
M  V30 6479 H 604.242 -1.91892 2.46138 0
M  V30 6480 N 604.543 -1.41418 -0.695603 0
M  V30 6481 C 605.491 -1.43467 -1.83084 0
M  V30 6482 C 606.485 -0.312719 -1.66489 0
M  V30 6483 O 607.691 -0.484744 -1.7335 0
M  V30 6484 H 604.066 -0.448891 -0.603325 0
M  V30 6485 H 606.037 -2.39144 -1.78473 0
M  V30 6486 C 604.786 -1.3337 -3.21104 0
M  V30 6487 H 604.109 -2.18989 -3.3449 0
M  V30 6488 H 605.549 -1.38865 -4.00615 0
M  V30 6489 C 604.008 -0.0460484 -3.36869 0
M  V30 6490 O 604.538 0.909258 -3.91274 0
M  V30 6491 N 602.744 0.0300222 -2.90584 0
M  V30 6492 H 602.291 -0.748129 -2.46497 0
M  V30 6493 H 602.249 0.890991 -3.01511 0
M  V30 6494 N 606.021 0.929856 -1.27246 0
M  V30 6495 C 606.951 2.04722 -1.12299 0
M  V30 6496 C 607.932 1.70082 -0.0250464 0
M  V30 6497 O 609.117 1.93176 -0.199141 0
M  V30 6498 C 606.247 3.38721 -0.767145 0
M  V30 6499 C 605.201 3.87466 -1.81808 0
M  V30 6500 C 604.527 5.18246 -1.31626 0
M  V30 6501 C 605.827 4.11095 -3.22177 0
M  V30 6502 H 607.521 2.17485 -2.05769 0
M  V30 6503 H 605.067 1.04503 -0.990715 0
M  V30 6504 H 607.02 4.16366 -0.649413 0
M  V30 6505 H 605.744 3.25967 0.203259 0
M  V30 6506 H 604.403 3.12012 -1.92468 0
M  V30 6507 H 604.051 5.01881 -0.335378 0
M  V30 6508 H 603.751 5.51829 -2.01887 0
M  V30 6509 H 605.275 5.98462 -1.21143 0
M  V30 6510 H 606.689 4.79316 -3.1453 0
M  V30 6511 H 605.086 4.55982 -3.90129 0
M  V30 6512 H 606.156 3.16468 -3.67391 0
M  V30 6513 N 607.499 1.09233 1.13605 0
M  V30 6514 C 608.409 0.741939 2.22559 0
M  V30 6515 C 609.425 -0.255236 1.72118 0
M  V30 6516 O 610.601 -0.0970747 2.01166 0
M  V30 6517 C 607.666 0.165595 3.46304 0
M  V30 6518 C 606.727 1.21846 4.11645 0
M  V30 6519 C 605.96 0.669526 5.29484 0
M  V30 6520 O 606.183 -0.508228 5.68131 0
M  V30 6521 O 605.117 1.42361 5.84822 0
M  V30 6522 H 608.943 1.65107 2.54899 0
M  V30 6523 H 606.528 0.866584 1.21699 0
M  V30 6524 H 608.41 -0.152592 4.21124 0
M  V30 6525 H 607.085 -0.716573 3.15669 0
M  V30 6526 H 605.992 1.58931 3.38662 0
M  V30 6527 H 607.325 2.07321 4.46407 0
M  V30 6528 N 608.977 -1.30795 0.87923 0
M  V30 6529 C 610.223 -1.96653 0.495519 0
M  V30 6530 C 610.556 -1.69282 -0.951703 0
M  V30 6531 O 609.831 -0.994374 -1.6716 0
M  V30 6532 C 610.114 -3.51898 0.764174 0
M  V30 6533 C 609.967 -3.88808 2.2616 0
M  V30 6534 C 611.286 -4.39462 0.236825 0
M  V30 6535 H 608.405 -0.7143 0.181507 0
M  V30 6536 H 611.047 -1.54765 1.10217 0
M  V30 6537 H 609.197 -3.87709 0.247841 0
M  V30 6538 H 610.869 -3.63051 2.8459 0
M  V30 6539 H 609.112 -3.37082 2.73053 0
M  V30 6540 H 609.783 -4.97086 2.4002 0
M  V30 6541 H 612.259 -4.10528 0.678683 0
M  V30 6542 H 611.135 -5.47018 0.454176 0
M  V30 6543 H 611.396 -4.33621 -0.861683 0
M  V30 6544 N 610.455 -0.639598 -1.44038 0
M  V30 6545 C 611.68 -0.153117 -2.06834 0
M  V30 6546 C 612.105 1.16676 -1.47541 0
M  V30 6547 O 611.463 1.71769 -0.580093 0
M  V30 6548 C 611.511 -0.0609169 -3.60549 0
M  V30 6549 O 610.615 0.98071 -4.00569 0
M  V30 6550 H 609.956 -0.0886402 -0.658057 0
M  V30 6551 H 612.486 -0.878674 -1.84771 0
M  V30 6552 H 612.496 0.126892 -4.07803 0
M  V30 6553 H 611.171 -1.0245 -4.03084 0
M  V30 6554 H 609.748 0.766789 -3.64931 0
M  V30 6555 N 611.933 1.52934 -0.380664 0
M  V30 6556 C 613.344 1.86457 0.0952684 0
M  V30 6557 C 613.695 1.3007 1.46889 0
M  V30 6558 O 612.82 0.628636 2.07068 0
M  V30 6559 C 613.415 3.38323 0.179648 0
M  V30 6560 C 611.974 3.71589 0.599858 0
M  V30 6561 C 611.121 2.76228 -0.243572 0
M  V30 6562 H 614.072 1.46966 -0.59888 0
M  V30 6563 H 614.093 3.67113 1.00042 0
M  V30 6564 H 613.605 3.79333 -0.820228 0
M  V30 6565 H 611.706 3.36144 1.60742 0
M  V30 6566 H 611.819 4.77715 0.364003 0
M  V30 6567 H 610.183 2.53045 0.289855 0
M  V30 6568 H 610.966 3.20074 -1.24127 0
M  V30 6569 N 613.412 0.11024 1.57214 0
M  V30 6570 C 614.823 -0.416527 1.81994 0
M  V30 6571 C 615.174 -1.67183 1.02686 0
M  V30 6572 O 614.299 -2.14823 0.260782 0
M  V30 6573 C 614.894 -0.762466 3.30109 0
M  V30 6574 C 613.453 -1.23391 3.556 0
M  V30 6575 C 612.6 -0.238166 2.76275 0
M  V30 6576 H 615.551 0.335491 1.55113 0
M  V30 6577 H 615.572 -1.62068 3.44259 0
M  V30 6578 H 615.084 0.151346 3.87805 0
M  V30 6579 H 613.185 -2.16492 3.03253 0
M  V30 6580 H 613.298 -1.18528 4.64207 0
M  V30 6581 H 611.662 -0.723421 2.4421 0
M  V30 6582 H 612.445 0.668591 3.36727 0
M  V30 6583 N 614.89 -1.56749 -0.16351 0
M  V30 6584 C 616.136 -1.82704 -0.880168 0
M  V30 6585 C 616.469 -0.689311 -1.81555 0
M  V30 6586 O 615.744 0.308224 -1.92042 0
M  V30 6587 C 616.027 -3.19084 -1.66905 0
M  V30 6588 C 615.88 -4.43397 -0.756269 0
M  V30 6589 C 617.199 -3.52493 -2.63509 0
M  V30 6590 H 614.318 -0.664608 -0.318535 0
M  V30 6591 H 616.96 -1.89438 -0.146036 0
M  V30 6592 H 615.11 -3.13475 -2.2949 0
M  V30 6593 H 616.782 -4.61079 -0.14269 0
M  V30 6594 H 615.025 -4.33752 -0.0647944 0
M  V30 6595 H 615.696 -5.3539 -1.34393 0
M  V30 6596 H 618.172 -3.58606 -2.11047 0
M  V30 6597 H 617.048 -4.48979 -3.15767 0
M  V30 6598 H 617.309 -2.77597 -3.44082 0
M  V30 6599 N 616.368 0.432326 -1.51554 0
M  V30 6600 C 617.596 1.20364 -1.68286 0
M  V30 6601 C 618.011 1.84888 -0.38233 0
M  V30 6602 O 617.368 1.70924 0.639627 0
M  V30 6603 C 617.419 2.28398 -2.80208 0
M  V30 6604 O 617.14 1.66512 -4.05223 0
M  V30 6605 C 618.641 3.18584 -3.08251 0
M  V30 6606 H 615.861 0.36259 -0.564596 0
M  V30 6607 H 618.405 0.511647 -1.97996 0
M  V30 6608 H 616.56 2.93305 -2.53083 0
M  V30 6609 H 616.974 2.37951 -4.67418 0
M  V30 6610 H 618.448 3.90511 -3.90135 0
M  V30 6611 H 618.925 3.79628 -2.2086 0
M  V30 6612 H 619.531 2.59372 -3.37055 0
M  V30 6613 N 617.846 1.41785 0.688094 0
M  V30 6614 C 619.092 1.41753 1.4503 0
M  V30 6615 C 619.425 0.0290745 1.94178 0
M  V30 6616 O 618.7 -0.944456 1.7003 0
M  V30 6617 C 618.983 2.43069 2.65686 0
M  V30 6618 C 618.836 3.91053 2.22256 0
M  V30 6619 C 620.155 2.41543 3.67893 0
M  V30 6620 H 617.274 0.516202 0.526027 0
M  V30 6621 H 619.916 1.73111 0.783105 0
M  V30 6622 H 618.066 2.1646 3.2261 0
M  V30 6623 H 619.738 4.28594 1.70602 0
M  V30 6624 H 617.981 4.05559 1.53963 0
M  V30 6625 H 618.652 4.57501 3.08863 0
M  V30 6626 H 621.128 2.65175 3.20658 0
M  V30 6627 H 620.004 3.14434 4.49914 0
M  V30 6628 H 620.265 1.43666 4.18106 0
M  V30 6629 N 619.324 -0.923095 1.27737 0
M  V30 6630 C 620.272 -2.04567 1.10703 0
M  V30 6631 C 621.266 -1.69375 0.0288445 0
M  V30 6632 O 622.472 -1.79027 0.186913 0
M  V30 6633 H 618.847 -0.670109 0.34126 0
M  V30 6634 H 620.818 -2.1608 2.05796 0
M  V30 6635 C 619.567 -3.38934 0.775837 0
M  V30 6636 H 618.89 -3.66501 1.59741 0
M  V30 6637 H 620.33 -4.18239 0.696548 0
M  V30 6638 C 618.789 -3.32863 -0.520012 0
M  V30 6639 O 619.319 -3.70462 -1.55308 0
M  V30 6640 N 617.525 -2.85958 -0.51732 0
M  V30 6641 H 617.072 -2.55557 0.32379 0
M  V30 6642 H 617.03 -2.82279 -1.38441 0
M  V30 6643 N 620.802 -1.09834 -1.13024 0
M  V30 6644 C 622.05 -0.835297 -1.8403 0
M  V30 6645 C 622.371 0.640944 -1.84165 0
M  V30 6646 O 621.641 1.46517 -1.30037 0
M  V30 6647 H 620.221 -0.306018 -0.681441 0
M  V30 6648 H 622.883 -1.38734 -1.36891 0
M  V30 6649 H 621.979 -1.19258 -2.88416 0
M  V30 6650 N 622.28 1.30327 -0.886154 0
M  V30 6651 C 623.227 2.28099 -0.352069 0
M  V30 6652 C 624.197 1.56433 0.558397 0
M  V30 6653 O 625.382 1.84492 0.486561 0
M  V30 6654 C 622.522 3.42456 0.426346 0
M  V30 6655 C 621.635 4.28938 -0.513472 0
M  V30 6656 C 620.77 5.30458 0.280657 0
M  V30 6657 C 619.809 6.0859 -0.654556 0
M  V30 6658 N 618.946 7.02022 0.104322 0
M  V30 6659 H 623.786 2.73166 -1.19097 0
M  V30 6660 H 621.323 1.34367 -0.598662 0
M  V30 6661 H 623.281 4.07518 0.893587 0
M  V30 6662 H 621.911 2.98455 1.22981 0
M  V30 6663 H 620.963 3.64173 -1.09921 0
M  V30 6664 H 622.275 4.83399 -1.2299 0
M  V30 6665 H 621.429 6.01273 0.8097 0
M  V30 6666 H 620.168 4.76693 1.03029 0
M  V30 6667 H 619.173 5.36651 -1.19522 0
M  V30 6668 H 620.398 6.64443 -1.4033 0
M  V30 6669 H 618.344 6.50645 0.836472 0
M  V30 6670 H 618.261 7.53979 -0.552453 0
M  V30 6671 H 619.529 7.77077 0.614069 0
M  V30 6672 N 623.758 0.647228 1.43697 0
M  V30 6673 C 624.986 0.16575 2.06235 0
M  V30 6674 C 625.401 -1.1662 1.48476 0
M  V30 6675 O 624.758 -1.7187 0.613762 0
M  V30 6676 C 624.809 0.0621651 3.61447 0
M  V30 6677 O 624.53 1.34146 4.17057 0
M  V30 6678 C 626.031 -0.446102 4.4105 0
M  V30 6679 H 623.251 0.0871158 0.665321 0
M  V30 6680 H 625.795 0.886183 1.84301 0
M  V30 6681 H 623.95 -0.608794 3.82587 0
M  V30 6682 H 624.364 1.19675 5.10664 0
M  V30 6683 H 625.838 -0.46755 5.50016 0
M  V30 6684 H 626.315 -1.47627 4.13646 0
M  V30 6685 H 626.921 0.192159 4.24866 0
M  V30 6686 N 625.236 -1.5273 0.388769 0
M  V30 6687 C 626.466 -2.05693 -0.193397 0
M  V30 6688 C 626.874 -1.26038 -1.41107 0
M  V30 6689 O 626.217 -0.30001 -1.81234 0
M  V30 6690 C 626.279 -3.53962 -0.628561 0
M  V30 6691 C 625.943 -4.54519 0.475576 0
M  V30 6692 C 626.94 -5.02526 1.33281 0
M  V30 6693 C 624.625 -4.98174 0.642453 0
M  V30 6694 C 626.619 -5.92812 2.34205 0
M  V30 6695 C 624.306 -5.88262 1.65503 0
M  V30 6696 C 625.304 -6.35473 2.50325 0
M  V30 6697 O 624.992 -7.23781 3.49852 0
M  V30 6698 H 624.724 -0.675197 -0.0329395 0
M  V30 6699 H 627.278 -1.97835 0.552326 0
M  V30 6700 H 625.508 -3.59437 -1.42625 0
M  V30 6701 H 627.197 -3.89669 -1.13633 0
M  V30 6702 H 627.963 -4.6953 1.21519 0
M  V30 6703 H 623.842 -4.60999 -0.00805093 0
M  V30 6704 H 627.386 -6.29585 3.00447 0
M  V30 6705 H 623.283 -6.20672 1.77304 0
M  V30 6706 H 624.051 -7.4184 3.45855 0
M  V30 6707 N 626.714 -0.118576 -1.57153 0
M  V30 6708 C 628.125 0.40687 -1.82213 0
M  V30 6709 C 628.476 1.66636 -1.03571 0
M  V30 6710 O 627.601 2.14682 -0.272171 0
M  V30 6711 C 628.196 0.744949 -3.30509 0
M  V30 6712 C 626.755 1.21503 -3.5625 0
M  V30 6713 C 625.902 0.223511 -2.76398 0
M  V30 6714 H 628.853 -0.343712 -1.54933 0
M  V30 6715 H 628.874 1.6024 -3.45114 0
M  V30 6716 H 628.386 -0.171911 -3.87719 0
M  V30 6717 H 626.487 2.1488 -3.04396 0
M  V30 6718 H 626.6 1.16065 -4.64829 0
M  V30 6719 H 624.964 0.71046 -2.44591 0
M  V30 6720 H 625.747 -0.686439 -3.36367 0
M  V30 6721 N 628.193 1.56834 0.155195 0
M  V30 6722 C 629.123 2.00678 1.19376 0
M  V30 6723 C 630.104 0.884973 1.45266 0
M  V30 6724 O 631.289 1.1522 1.56326 0
M  V30 6725 C 628.419 2.38042 2.5289 0
M  V30 6726 C 627.373 3.53332 2.41538 0
M  V30 6727 C 626.699 3.76485 3.79688 0
M  V30 6728 C 627.999 4.86265 1.9064 0
M  V30 6729 H 629.693 2.87688 0.829232 0
M  V30 6730 H 627.239 1.38407 0.397445 0
M  V30 6731 H 629.192 2.67314 3.25763 0
M  V30 6732 H 627.916 1.4796 2.91162 0
M  V30 6733 H 626.575 3.24213 1.71117 0
M  V30 6734 H 626.223 2.83667 4.15382 0
M  V30 6735 H 625.923 4.54068 3.72956 0
M  V30 6736 H 627.447 4.08174 4.54122 0
M  V30 6737 H 628.861 5.14308 2.53299 0
M  V30 6738 H 627.258 5.67597 1.94818 0
M  V30 6739 H 628.328 4.77184 0.861596 0
M  V30 6740 N 629.671 -0.424282 1.51781 0
M  V30 6741 C 630.919 -1.17028 1.64769 0
M  V30 6742 C 631.24 -1.91409 0.372523 0
M  V30 6743 O 630.51 -1.86091 -0.612108 0
M  V30 6744 H 629.09 -0.434992 0.607282 0
M  V30 6745 H 631.752 -0.485169 1.88765 0
M  V30 6746 H 630.848 -1.8927 2.4816 0
M  V30 6747 N 631.149 -1.42148 -0.680565 0
M  V30 6748 C 632.565 -1.24947 -0.992995 0
M  V30 6749 C 632.765 -0.149527 -2.00944 0
M  V30 6750 O 631.821 0.481145 -2.47873 0
M  V30 6751 C 633.134 -2.60426 -1.5033 0
M  V30 6752 C 634.682 -2.67733 -1.62137 0
M  V30 6753 C 635.157 -4.03564 -2.16565 0
M  V30 6754 N 636.648 -4.05488 -2.23905 0
M  V30 6755 C 637.383 -5.07401 -2.67081 0
M  V30 6756 N 636.879 -6.19698 -3.09751 0
M  V30 6757 N 638.672 -4.94758 -2.66778 0
M  V30 6758 H 630.823 -2.12399 -0.0074788 0
M  V30 6759 H 633.086 -0.94571 -0.0658529 0
M  V30 6760 H 632.792 -3.41743 -0.830947 0
M  V30 6761 H 632.666 -2.83949 -2.483 0
M  V30 6762 H 635.053 -1.86765 -2.2848 0
M  V30 6763 H 635.134 -2.48004 -0.626713 0
M  V30 6764 H 634.778 -4.84987 -1.50833 0
M  V30 6765 H 634.708 -4.20641 -3.1681 0
M  V30 6766 H 637.199 -3.24415 -1.93812 0
M  V30 6767 H 637.512 -6.93318 -3.41365 0
M  V30 6768 H 635.857 -6.23212 -3.07623 0
M  V30 6769 H 639.048 -4.06105 -2.32801 0
M  V30 6770 H 639.221 -5.74317 -3.00107 0
M  V30 6771 N 632.627 0.916307 -1.28225 0
M  V30 6772 C 633.876 1.65975 -1.14608 0
M  V30 6773 C 634.189 1.93204 0.305191 0
M  V30 6774 O 635.395 2.65611 0.562432 0
M  V30 6775 C 633.851 2.98989 -2.00333 0
M  V30 6776 C 633.459 2.79417 -3.50186 0
M  V30 6777 C 635.203 3.76856 -1.95397 0
M  V30 6778 C 633.11 4.08056 -4.28071 0
M  V30 6779 H 632.04 0.622587 -0.425324 0
M  V30 6780 H 634.691 1.01705 -1.52736 0
M  V30 6781 H 633.073 3.6438 -1.5506 0
M  V30 6782 H 634.247 2.22723 -4.034 0
M  V30 6783 H 632.562 2.14966 -3.56621 0
M  V30 6784 H 635.159 4.72203 -2.50856 0
M  V30 6785 H 635.502 4.05776 -0.930137 0
M  V30 6786 H 636.035 3.1828 -2.38626 0
M  V30 6787 H 632.774 3.8431 -5.31024 0
M  V30 6788 H 632.294 4.64371 -3.79631 0
M  V30 6789 H 633.973 4.76333 -4.37854 0
M  V30 6790 N 634.105 1.10431 1.1244 0
M  V30 6791 C 635.035 0.775143 2.20258 0
M  V30 6792 C 636.016 -0.25186 1.68225 0
M  V30 6793 O 637.201 -0.117637 1.93843 0
M  V30 6794 C 634.331 0.206133 3.46688 0
M  V30 6795 C 633.285 1.16382 4.11873 0
M  V30 6796 C 632.611 0.456014 5.32752 0
M  V30 6797 C 633.911 2.5104 4.58013 0
M  V30 6798 H 635.605 1.67665 2.4805 0
M  V30 6799 H 633.151 0.807595 1.19222 0
M  V30 6800 H 635.104 -0.036291 4.21384 0
M  V30 6801 H 633.828 -0.730614 3.18323 0
M  V30 6802 H 632.487 1.39169 3.39157 0
M  V30 6803 H 632.135 -0.485203 5.00654 0
M  V30 6804 H 631.835 1.09466 5.77314 0
M  V30 6805 H 633.359 0.222135 6.10196 0
M  V30 6806 H 634.773 2.32401 5.24083 0
M  V30 6807 H 633.17 3.10789 5.13352 0
M  V30 6808 H 634.24 3.11039 3.71998 0
M  V30 6809 N 635.583 -1.29855 0.893053 0
M  V30 6810 C 636.832 -1.95104 0.511597 0
M  V30 6811 C 637.145 -1.71226 -0.945567 0
M  V30 6812 O 638.351 -2.30525 -1.43424 0
M  V30 6813 C 636.807 -3.49374 0.864034 0
M  V30 6814 C 636.415 -3.82061 2.33952 0
M  V30 6815 C 638.159 -4.20894 0.552167 0
M  V30 6816 C 636.066 -5.29546 2.63316 0
M  V30 6817 H 634.996 -0.73029 0.187597 0
M  V30 6818 H 637.647 -1.47682 1.08914 0
M  V30 6819 H 636.029 -3.95413 0.215493 0
M  V30 6820 H 637.203 -3.46904 3.03305 0
M  V30 6821 H 635.518 -3.23665 2.61973 0
M  V30 6822 H 638.115 -5.29435 0.748489 0
M  V30 6823 H 638.458 -4.13178 -0.508924 0
M  V30 6824 H 638.991 -3.80564 1.15825 0
M  V30 6825 H 635.73 -5.4232 3.68197 0
M  V30 6826 H 635.25 -5.65974 1.9858 0
M  V30 6827 H 636.929 -5.97068 2.49236 0
M  V30 6828 N 637.061 -0.65484 -1.43351 0
M  V30 6829 C 638.309 -0.168559 -2.01396 0
M  V30 6830 C 638.63 1.22235 -1.51933 0
M  V30 6831 O 637.9 1.81685 -0.732627 0
M  V30 6832 H 636.48 -0.0593244 -0.744641 0
M  V30 6833 H 639.142 -0.846871 -1.75539 0
M  V30 6834 H 638.238 -0.154428 -3.11718 0
M  V30 6835 N 638.539 1.52521 -0.396863 0
M  V30 6836 C 639.764 2.06571 0.185258 0
M  V30 6837 C 640.189 1.26605 1.39115 0
M  V30 6838 O 639.547 0.293055 1.78916 0
M  V30 6839 C 639.595 3.5674 0.526189 0
M  V30 6840 O 638.699 3.7929 1.61903 0
M  V30 6841 H 638.04 0.663712 0.0195474 0
M  V30 6842 H 640.57 1.966 -0.566519 0
M  V30 6843 H 640.58 4.00311 0.788338 0
M  V30 6844 H 639.255 4.14379 -0.355397 0
M  V30 6845 H 637.832 3.47605 1.35 0
M  V30 6846 N 640.017 0.126909 1.57088 0
M  V30 6847 C 641.242 -0.53997 2.00248 0
M  V30 6848 C 641.667 -1.58927 1.00618 0
M  V30 6849 O 641.025 -1.81288 -0.0210131 0
M  V30 6850 C 641.073 -1.13565 3.4225 0
M  V30 6851 O 640.177 -2.25103 3.45547 0
M  V30 6852 H 639.518 -0.13412 0.650314 0
M  V30 6853 H 642.048 0.217718 2.03438 0
M  V30 6854 H 642.058 -1.46925 3.80627 0
M  V30 6855 H 640.733 -0.367122 4.14277 0
M  V30 6856 H 639.31 -1.93123 3.18995 0
M  V30 6857 N 641.495 -1.56914 -0.146875 0
M  V30 6858 C 642.742 -1.83356 -0.859467 0
M  V30 6859 C 643.07 -0.707811 -1.81164 0
M  V30 6860 O 642.325 0.303155 -1.93338 0
M  V30 6861 C 642.624 -3.16128 -1.66727 0
M  V30 6862 C 642.29 -4.42586 -0.861881 0
M  V30 6863 C 640.952 -4.76929 -0.639687 0
M  V30 6864 C 643.304 -5.20344 -0.298643 0
M  V30 6865 C 640.632 -5.86491 0.156451 0
M  V30 6866 C 642.984 -6.30742 0.484536 0
M  V30 6867 C 641.648 -6.63635 0.717306 0
M  V30 6868 H 640.918 -0.670947 -0.314501 0
M  V30 6869 H 643.565 -1.91104 -0.123108 0
M  V30 6870 H 641.87 -3.03831 -2.47374 0
M  V30 6871 H 643.567 -3.33802 -2.2221 0
M  V30 6872 H 640.157 -4.15662 -1.04513 0
M  V30 6873 H 644.341 -4.94186 -0.457585 0
M  V30 6874 H 639.597 -6.10419 0.346292 0
M  V30 6875 H 643.771 -6.90188 0.928105 0
M  V30 6876 H 641.398 -7.48367 1.33607 0
M  V30 6877 N 642.974 0.416227 -1.52004 0
M  V30 6878 C 644.385 0.995319 -1.57957 0
M  V30 6879 C 644.736 1.91744 -0.415754 0
M  V30 6880 O 643.861 2.11349 0.464808 0
M  V30 6881 C 644.456 1.81191 -2.86278 0
M  V30 6882 C 643.015 2.34115 -2.94732 0
M  V30 6883 C 642.162 1.139 -2.52828 0
M  V30 6884 H 645.113 0.196716 -1.57476 0
M  V30 6885 H 645.134 2.66859 -2.71231 0
M  V30 6886 H 644.646 1.14051 -3.70963 0
M  V30 6887 H 642.747 3.04647 -2.14525 0
M  V30 6888 H 642.86 2.65466 -3.98829 0
M  V30 6889 H 641.224 1.49081 -2.06511 0
M  V30 6890 H 642.007 0.483383 -3.3988 0
M  V30 6891 N 644.452 1.42507 0.673017 0
M  V30 6892 C 645.382 1.48916 1.79851 0
M  V30 6893 C 646.363 0.345566 1.66553 0
M  V30 6894 O 647.548 0.560116 1.85947 0
M  V30 6895 C 644.678 1.39258 3.18158 0
M  V30 6896 C 643.632 2.51662 3.46194 0
M  V30 6897 C 642.958 2.27062 4.84094 0
M  V30 6898 C 644.258 3.93968 3.42909 0
M  V30 6899 H 645.952 2.43114 1.74745 0
M  V30 6900 H 643.498 1.17013 0.839288 0
M  V30 6901 H 645.451 1.42349 3.96629 0
M  V30 6902 H 644.175 0.415542 3.23946 0
M  V30 6903 H 642.834 2.47891 2.70084 0
M  V30 6904 H 642.482 1.27648 4.86534 0
M  V30 6905 H 642.182 3.02398 5.03815 0
M  V30 6906 H 643.706 2.31905 5.64847 0
M  V30 6907 H 645.12 3.99332 4.11347 0
M  V30 6908 H 643.517 4.6917 3.74165 0
M  V30 6909 H 644.587 4.20512 2.41449 0
M  V30 6910 N 645.93 -0.909495 1.28709 0
M  V30 6911 C 647.155 -1.69801 1.1909 0
M  V30 6912 C 647.58 -1.86479 -0.246388 0
M  V30 6913 O 646.938 -1.37802 -1.17815 0
M  V30 6914 C 646.986 -3.06543 1.89904 0
M  V30 6915 O 646.09 -3.94268 1.2094 0
M  V30 6916 H 645.431 -0.519783 0.413185 0
M  V30 6917 H 647.961 -1.13689 1.70106 0
M  V30 6918 H 647.971 -3.56748 1.97977 0
M  V30 6919 H 646.646 -2.93722 2.94449 0
M  V30 6920 H 645.223 -3.52702 1.2106 0
M  V30 6921 N 647.408 -1.11026 -1.11852 0
M  V30 6922 C 648.656 -0.854769 -1.83134 0
M  V30 6923 C 648.977 0.621375 -1.84835 0
M  V30 6924 O 648.247 1.45129 -1.31584 0
M  V30 6925 H 646.827 -0.313229 -0.678157 0
M  V30 6926 H 649.489 -1.40178 -1.35411 0
M  V30 6927 H 648.585 -1.22311 -2.87135 0
M  V30 6928 N 648.886 1.2938 -0.899927 0
M  V30 6929 C 650.134 1.95164 -0.524924 0
M  V30 6930 C 650.455 1.71292 0.931888 0
M  V30 6931 O 649.725 1.04481 1.65712 0
M  V30 6932 H 648.305 0.722133 -0.191135 0
M  V30 6933 H 650.967 1.57628 -1.14627 0
M  V30 6934 H 650.063 3.0397 -0.707711 0
M  V30 6935 N 650.364 0.662433 1.43002 0
M  V30 6936 C 651.78 0.330835 1.56133 0
M  V30 6937 C 651.98 -1.16454 1.64441 0
M  V30 6938 O 651.036 -1.94964 1.60453 0
M  V30 6939 C 652.349 1.05029 2.81761 0
M  V30 6940 C 653.897 1.03142 2.95518 0
M  V30 6941 C 654.372 1.73196 4.2399 0
M  V30 6942 N 655.863 1.70004 4.30875 0
M  V30 6943 C 656.598 2.21074 5.29069 0
M  V30 6944 N 656.094 2.80473 6.33488 0
M  V30 6945 N 657.887 2.1152 5.20784 0
M  V30 6946 H 650.038 1.63272 1.35853 0
M  V30 6947 H 652.301 0.687149 0.653092 0
M  V30 6948 H 652.007 2.10542 2.81718 0
M  V30 6949 H 651.881 0.607664 3.72273 0
M  V30 6950 H 654.268 -0.0153339 2.95096 0
M  V30 6951 H 654.349 1.51282 2.0627 0
M  V30 6952 H 653.993 2.77833 4.25172 0
M  V30 6953 H 653.923 1.22515 5.1215 0
M  V30 6954 H 656.414 1.26667 3.56039 0
M  V30 6955 H 656.727 3.17094 7.04749 0
M  V30 6956 H 655.072 2.84538 6.34085 0
M  V30 6957 H 658.263 1.64814 4.38126 0
M  V30 6958 H 658.436 2.51629 5.97149 0
M  V30 6959 N 651.842 -1.52309 0.404946 0
M  V30 6960 C 653.258 -1.59503 0.0556255 0
M  V30 6961 C 653.458 -1.41805 -1.43156 0
M  V30 6962 O 652.514 -1.2429 -2.19792 0
M  V30 6963 C 653.827 -2.95687 0.546801 0
M  V30 6964 C 655.375 -3.08909 0.504413 0
M  V30 6965 C 655.85 -4.47566 0.97203 0
M  V30 6966 N 657.341 -4.53795 0.928679 0
M  V30 6967 C 658.076 -5.59346 1.26174 0
M  V30 6968 N 657.572 -6.72469 1.66604 0
M  V30 6969 N 659.365 -5.49532 1.18198 0
M  V30 6970 H 651.516 -1.6206 1.37296 0
M  V30 6971 H 653.779 -0.762161 0.563751 0
M  V30 6972 H 653.485 -3.13905 1.58609 0
M  V30 6973 H 653.359 -3.77172 -0.0457905 0
M  V30 6974 H 655.746 -2.90378 -0.525819 0
M  V30 6975 H 655.827 -2.2934 1.13301 0
M  V30 6976 H 655.471 -4.6684 2.00057 0
M  V30 6977 H 655.401 -5.25625 0.320292 0
M  V30 6978 H 657.892 -3.72588 0.631369 0
M  V30 6979 H 658.205 -7.48993 1.9034 0
M  V30 6980 H 656.55 -6.73761 1.70504 0
M  V30 6981 H 659.741 -4.60038 0.865011 0
M  V30 6982 H 659.914 -6.31687 1.44485 0
M  V30 6983 N 653.32 -0.135238 -1.57019 0
M  V30 6984 C 654.253 0.846618 -2.11914 0
M  V30 6985 C 655.231 1.25019 -1.03966 0
M  V30 6986 O 656.415 1.34838 -1.31723 0
M  V30 6987 C 653.542 2.1352 -2.6292 0
M  V30 6988 C 652.588 1.87846 -3.82905 0
M  V30 6989 S 653.421 1.08005 -5.24495 0
M  V30 6990 C 654.577 2.38008 -5.78881 0
M  V30 6991 H 654.81 0.379752 -2.94865 0
M  V30 6992 H 652.343 0.0788387 -1.54199 0
M  V30 6993 H 654.301 2.87551 -2.92958 0
M  V30 6994 H 652.962 2.57323 -1.80121 0
M  V30 6995 H 652.155 2.83365 -4.16797 0
M  V30 6996 H 651.757 1.21929 -3.53567 0
M  V30 6997 H 654.049 3.33742 -5.89595 0
M  V30 6998 H 654.992 2.08638 -6.76665 0
M  V30 6999 H 655.4 2.48119 -5.07048 0
M  V30 7000 N 654.798 1.5699 0.138552 0
M  V30 7001 C 656.026 1.87976 0.864437 0
M  V30 7002 C 656.441 0.724372 1.74351 0
M  V30 7003 O 655.798 -0.305575 1.79924 0
M  V30 7004 C 655.849 3.18276 1.71414 0
M  V30 7005 O 655.57 4.29365 0.870487 0
M  V30 7006 C 657.071 3.62834 2.54688 0
M  V30 7007 H 654.291 0.622878 0.249528 0
M  V30 7008 H 656.835 2.04094 0.128805 0
M  V30 7009 H 654.99 3.03886 2.40274 0
M  V30 7010 H 655.404 5.03924 1.45466 0
M  V30 7011 H 656.878 4.5682 3.0987 0
M  V30 7012 H 657.355 2.88533 3.31127 0
M  V30 7013 H 657.961 3.79946 1.91105 0
M  V30 7014 N 656.276 -0.40816 1.52223 0
M  V30 7015 C 657.223 -1.49737 1.75635 0
M  V30 7016 C 658.193 -1.5493 0.598824 0
M  V30 7017 O 659.378 -1.71487 0.83648 0
M  V30 7018 C 656.518 -2.87174 1.91376 0
M  V30 7019 C 655.631 -2.91283 3.19027 0
M  V30 7020 C 654.766 -4.20026 3.25195 0
M  V30 7021 C 653.805 -4.18113 4.47044 0
M  V30 7022 N 652.942 -5.38429 4.50598 0
M  V30 7023 H 657.782 -1.29075 2.68596 0
M  V30 7024 H 655.319 -0.626518 1.33091 0
M  V30 7025 H 657.277 -3.66959 1.98486 0
M  V30 7026 H 655.907 -3.06329 1.01795 0
M  V30 7027 H 654.959 -2.03984 3.21084 0
M  V30 7028 H 656.271 -2.85734 4.08849 0
M  V30 7029 H 655.425 -5.08204 3.31382 0
M  V30 7030 H 654.164 -4.28271 2.33313 0
M  V30 7031 H 653.169 -3.28325 4.41002 0
M  V30 7032 H 654.394 -4.11507 5.40221 0
M  V30 7033 H 652.34 -5.4734 3.616 0
M  V30 7034 H 652.257 -5.34879 5.34266 0
M  V30 7035 H 653.525 -6.28557 4.61016 0
M  V30 7036 N 657.755 -1.42862 -0.66545 0
M  V30 7037 C 659.001 -1.44043 -1.42757 0
M  V30 7038 C 659.334 -0.0599629 -1.94107 0
M  V30 7039 O 658.609 0.917286 -1.71511 0
M  V30 7040 C 658.892 -2.47266 -2.61786 0
M  V30 7041 C 658.745 -3.94539 -2.16007 0
M  V30 7042 C 660.064 -2.47365 -3.64003 0
M  V30 7043 H 657.183 -0.524506 -0.517748 0
M  V30 7044 H 659.825 -1.74335 -0.755466 0
M  V30 7045 H 657.975 -2.21565 -3.19126 0
M  V30 7046 H 659.647 -4.31254 -1.63762 0
M  V30 7047 H 657.89 -4.07957 -1.47491 0
M  V30 7048 H 658.561 -4.62357 -3.01546 0
M  V30 7049 H 661.037 -2.70243 -3.16399 0
M  V30 7050 H 659.913 -3.21552 -4.44854 0
M  V30 7051 H 660.174 -1.50299 -4.15767 0
M  V30 7052 N 659.233 0.902656 -1.29189 0
M  V30 7053 C 660.479 1.65532 -1.17163 0
M  V30 7054 C 660.812 1.92216 0.276879 0
M  V30 7055 O 660.087 1.53048 1.20027 0
M  V30 7056 C 660.37 3.00629 -1.98228 0
M  V30 7057 C 660.223 2.81029 -3.51202 0
M  V30 7058 C 661.542 4.01321 -1.80635 0
M  V30 7059 H 658.661 0.60071 -0.426985 0
M  V30 7060 H 661.303 1.04578 -1.5863 0
M  V30 7061 H 659.453 3.52656 -1.62991 0
M  V30 7062 H 661.125 2.35927 -3.96404 0
M  V30 7063 H 659.368 2.1587 -3.76275 0
M  V30 7064 H 660.039 3.77014 -4.03192 0
M  V30 7065 H 662.515 3.58394 -2.11406 0
M  V30 7066 H 661.391 4.93792 -2.3971 0
M  V30 7067 H 661.652 4.35505 -0.760754 0
M  V30 7068 N 660.711 1.11618 1.11262 0
M  V30 7069 C 662.127 0.850468 1.35053 0
M  V30 7070 C 662.327 -0.523868 1.94571 0
M  V30 7071 O 661.383 -1.2743 2.17986 0
M  V30 7072 C 662.696 1.96005 2.28041 0
M  V30 7073 C 664.244 1.98993 2.416 0
M  V30 7074 C 664.719 3.0916 3.37911 0
M  V30 7075 N 666.21 3.08547 3.45475 0
M  V30 7076 C 666.945 3.9043 4.19943 0
M  V30 7077 N 666.441 4.8228 4.97371 0
M  V30 7078 N 668.234 3.786 4.15474 0
M  V30 7079 H 660.385 2.00184 0.709932 0
M  V30 7080 H 662.648 0.870635 0.375099 0
M  V30 7081 H 662.354 2.9499 1.91503 0
M  V30 7082 H 662.228 1.85782 3.28275 0
M  V30 7083 H 664.615 1.00633 2.77411 0
M  V30 7084 H 664.696 2.13292 1.4121 0
M  V30 7085 H 664.34 4.07748 3.02827 0
M  V30 7086 H 664.27 2.92102 4.3816 0
M  V30 7087 H 666.761 2.42 2.90249 0
M  V30 7088 H 667.074 5.41289 5.51567 0
M  V30 7089 H 665.419 4.863 4.96525 0
M  V30 7090 H 668.61 3.06185 3.54074 0
M  V30 7091 H 668.783 4.42647 4.73253 0
M  V30 7092 N 662.189 -1.289 0.906776 0
M  V30 7093 C 663.466 -1.90221 0.455537 0
M  V30 7094 C 663.846 -1.82251 -1.06527 0
M  V30 7095 O 663.194 -1.25385 -1.91026 0
M  V30 7096 C 663.404 -3.35015 0.97806 0
M  V30 7097 C 664.752 -4.12018 1.02598 0
M  V30 7098 O 665.776 -3.43947 0.926218 0
M  V30 7099 O 664.635 -5.33677 1.17689 0
M  V30 7100 H 661.729 -0.814505 0.143214 0
M  V30 7101 H 664.275 -1.37317 0.997104 0
M  V30 7102 H 663.047 -3.35006 2.02204 0
M  V30 7103 H 662.67 -3.95408 0.416914 0
M  V30 7104 N 663.667 -0.670007 -1.42649 0
M  V30 7105 C 664.914 -0.190286 -2.01604 0
M  V30 7106 C 665.242 1.20155 -1.52948 0
M  V30 7107 O 664.497 1.81964 -0.72026 0
M  V30 7108 C 664.796 -0.168298 -3.57004 0
M  V30 7109 C 664.462 -1.50415 -4.25072 0
M  V30 7110 C 663.124 -1.86992 -4.43382 0
M  V30 7111 C 665.476 -2.38414 -4.63474 0
M  V30 7112 C 662.804 -3.11203 -4.97363 0
M  V30 7113 C 665.156 -3.61933 -5.18833 0
M  V30 7114 C 663.82 -3.98685 -5.35356 0
M  V30 7115 H 663.09 -0.0696305 -0.737721 0
M  V30 7116 H 665.737 -0.864044 -1.70899 0
M  V30 7117 H 664.042 0.588958 -3.87348 0
M  V30 7118 H 665.739 0.22001 -4.00396 0
M  V30 7119 H 662.329 -1.20959 -4.11177 0
M  V30 7120 H 666.513 -2.11442 -4.49006 0
M  V30 7121 H 661.769 -3.39705 -5.08341 0
M  V30 7122 H 665.943 -4.30326 -5.47533 0
M  V30 7123 H 663.57 -4.95009 -5.76949 0
M  V30 7124 N 665.145 1.52092 -0.413018 0
M  V30 7125 C 666.075 2.30021 0.401567 0
M  V30 7126 C 667.056 1.34395 1.04269 0
M  V30 7127 O 668.241 1.63304 1.05097 0
M  V30 7128 C 665.371 3.12447 1.51638 0
M  V30 7129 C 664.325 4.16153 1.00005 0
M  V30 7130 C 663.651 4.86948 2.20875 0
M  V30 7131 C 664.951 5.22275 0.0513757 0
M  V30 7132 H 666.645 2.98365 -0.248704 0
M  V30 7133 H 664.191 1.4349 -0.121052 0
M  V30 7134 H 666.144 3.65733 2.09326 0
M  V30 7135 H 664.868 2.41879 2.19458 0
M  V30 7136 H 663.527 3.63882 0.445549 0
M  V30 7137 H 663.175 4.12905 2.8726 0
M  V30 7138 H 662.875 5.57057 1.86978 0
M  V30 7139 H 664.399 5.43048 2.79162 0
M  V30 7140 H 665.813 5.70778 0.537176 0
M  V30 7141 H 664.21 5.9977 -0.198977 0
M  V30 7142 H 665.28 4.76611 -0.892736 0
M  V30 7143 N 666.623 0.143563 1.56945 0
M  V30 7144 C 667.57 -0.797433 2.16586 0
M  V30 7145 C 668.54 -1.24654 1.09775 0
M  V30 7146 O 669.725 -1.31968 1.37801 0
M  V30 7147 C 666.865 -2.03253 2.78895 0
M  V30 7148 C 665.978 -1.62954 4.00087 0
M  V30 7149 C 665.113 -2.81617 4.50406 0
M  V30 7150 C 664.152 -2.37675 5.64072 0
M  V30 7151 N 663.289 -3.49335 6.09023 0
M  V30 7152 H 668.129 -0.282023 2.96662 0
M  V30 7153 H 665.666 -0.127494 1.46546 0
M  V30 7154 H 667.624 -2.75653 3.13163 0
M  V30 7155 H 666.254 -2.52211 2.01469 0
M  V30 7156 H 665.306 -0.803322 3.71821 0
M  V30 7157 H 666.618 -1.26679 4.82446 0
M  V30 7158 H 665.772 -3.62212 4.86711 0
M  V30 7159 H 664.511 -3.21134 3.67048 0
M  V30 7160 H 663.516 -1.55519 5.27346 0
M  V30 7161 H 664.741 -1.99247 6.49213 0
M  V30 7162 H 662.687 -3.8848 5.28601 0
M  V30 7163 H 662.604 -3.17064 6.86299 0
M  V30 7164 H 663.872 -4.30297 6.49973 0
M  V30 7165 N 668.101 -1.57061 -0.130224 0
M  V30 7166 C 669.064 -1.98593 -1.14426 0
M  V30 7167 C 670.064 -0.874584 -1.34936 0
M  V30 7168 O 671.254 -1.14086 -1.31643 0
M  V30 7169 C 668.386 -2.31639 -2.50112 0
M  V30 7170 H 669.579 -2.89374 -0.787561 0
M  V30 7171 H 667.132 -1.51756 -0.374146 0
M  V30 7172 H 667.867 -1.43703 -2.90723 0
M  V30 7173 H 667.652 -3.12684 -2.36583 0
M  V30 7174 H 669.142 -2.64551 -3.23114 0
M  V30 7175 N 669.579 0.400081 -1.52437 0
M  V30 7176 C 670.511 1.50729 -1.72666 0
M  V30 7177 C 671.524 1.51058 -0.607075 0
M  V30 7178 O 672.713 1.5516 -0.88248 0
M  V30 7179 C 669.813 2.89604 -1.76019 0
M  V30 7180 C 668.986 3.13365 -3.05157 0
M  V30 7181 C 668.045 4.32163 -3.00203 0
M  V30 7182 O 667.071 4.29004 -3.74092 0
M  V30 7183 N 668.273 5.3776 -2.18619 0
M  V30 7184 H 671.038 1.33767 -2.68191 0
M  V30 7185 H 668.599 0.58948 -1.50787 0
M  V30 7186 H 670.591 3.67159 -1.70225 0
M  V30 7187 H 669.161 2.99979 -0.879284 0
M  V30 7188 H 668.381 2.23774 -3.24529 0
M  V30 7189 H 669.669 3.26089 -3.90568 0
M  V30 7190 H 669.067 5.43177 -1.58035 0
M  V30 7191 H 667.624 6.14023 -2.18674 0
M  V30 7192 N 671.057 1.43213 0.657864 0
M  V30 7193 C 671.989 1.43974 1.78337 0
M  V30 7194 C 673.002 0.336482 1.59285 0
M  V30 7195 O 674.191 0.600631 1.68091 0
M  V30 7196 C 671.291 1.23242 3.15697 0
M  V30 7197 C 670.464 2.46319 3.61449 0
M  V30 7198 C 669.523 2.2088 4.77597 0
M  V30 7199 O 668.549 2.942 4.87273 0
M  V30 7200 N 669.751 1.22251 5.67481 0
M  V30 7201 H 672.516 2.40993 1.78164 0
M  V30 7202 H 670.077 1.3831 0.841549 0
M  V30 7203 H 672.069 1.04113 3.91079 0
M  V30 7204 H 670.639 0.346849 3.1067 0
M  V30 7205 H 669.859 2.80904 2.76563 0
M  V30 7206 H 671.147 3.28239 3.88763 0
M  V30 7207 H 670.545 0.616433 5.62331 0
M  V30 7208 H 669.102 1.09107 6.42603 0
M  V30 7209 N 672.536 -0.895792 1.29666 0
M  V30 7210 C 673.782 -1.64908 1.18039 0
M  V30 7211 C 674.115 -1.9236 -0.266682 0
M  V30 7212 O 673.39 -1.53682 -1.19214 0
M  V30 7213 C 673.673 -2.99574 1.99819 0
M  V30 7214 C 673.526 -2.79163 3.52687 0
M  V30 7215 C 674.845 -4.00358 1.82761 0
M  V30 7216 H 671.964 -0.598437 0.430165 0
M  V30 7217 H 674.606 -1.03736 1.59182 0
M  V30 7218 H 672.756 -3.51786 1.64859 0
M  V30 7219 H 674.428 -2.33821 3.9765 0
M  V30 7220 H 672.671 -2.13871 3.77414 0
M  V30 7221 H 673.342 -3.74871 4.05186 0
M  V30 7222 H 675.818 -3.57268 2.13304 0
M  V30 7223 H 674.694 -4.92514 2.42325 0
M  V30 7224 H 674.955 -4.35096 0.783839 0
M  V30 7225 N 674.014 -1.12206 -1.10668 0
M  V30 7226 C 674.946 -0.74552 -2.16736 0
M  V30 7227 C 675.959 0.226696 -1.61214 0
M  V30 7228 O 677.148 0.0083936 -1.78498 0
M  V30 7229 C 674.248 -0.0823368 -3.388 0
M  V30 7230 C 673.421 -1.08341 -4.2377 0
M  V30 7231 C 672.48 -0.448292 -5.24287 0
M  V30 7232 O 671.506 -1.10458 -5.58379 0
M  V30 7233 N 672.708 0.785336 -5.75163 0
M  V30 7234 H 675.473 -1.65818 -2.49649 0
M  V30 7235 H 673.034 -1.01335 -1.26265 0
M  V30 7236 H 675.026 0.354476 -4.03145 0
M  V30 7237 H 673.596 0.733041 -3.03884 0
M  V30 7238 H 672.816 -1.69792 -3.55759 0
M  V30 7239 H 674.104 -1.76042 -4.77375 0
M  V30 7240 H 673.502 1.33755 -5.4966 0
M  V30 7241 H 672.059 1.16501 -6.41304 0
M  V30 7242 N 675.492 1.28418 -0.913599 0
M  V30 7243 C 676.455 2.25564 -0.406624 0
M  V30 7244 C 677.455 1.5387 0.466965 0
M  V30 7245 O 678.645 1.72094 0.270042 0
M  V30 7246 C 675.777 3.38339 0.417053 0
M  V30 7247 H 676.97 2.71926 -1.26477 0
M  V30 7248 H 674.523 1.40098 -0.692986 0
M  V30 7249 H 675.258 2.97339 1.29461 0
M  V30 7250 H 675.043 3.91542 -0.209102 0
M  V30 7251 H 676.533 4.10578 0.762602 0
M  V30 7252 N 676.97 0.677563 1.42291 0
M  V30 7253 C 678.381 0.277912 1.8462 0
M  V30 7254 C 678.732 -1.18048 1.56714 0
M  V30 7255 O 677.857 -1.90404 1.02836 0
M  V30 7256 C 678.452 0.497619 3.35126 0
M  V30 7257 C 677.011 0.152063 3.76093 0
M  V30 7258 C 676.158 0.78872 2.65847 0
M  V30 7259 H 679.109 0.879527 1.32098 0
M  V30 7260 H 679.13 -0.24939 3.79682 0
M  V30 7261 H 678.642 1.55913 3.55405 0
M  V30 7262 H 676.743 -0.905896 3.6142 0
M  V30 7263 H 676.856 0.594514 4.75397 0
M  V30 7264 H 675.22 0.219813 2.5375 0
M  V30 7265 H 676.003 1.85374 2.88949 0
M  V30 7266 N 678.448 -1.51871 0.421078 0
M  V30 7267 C 679.694 -2.02237 -0.151014 0
M  V30 7268 C 680.027 -1.30554 -1.43768 0
M  V30 7269 O 679.302 -0.41546 -1.90011 0
M  V30 7270 C 679.585 -3.5802 -0.386482 0
M  V30 7271 C 679.438 -4.40339 0.9177 0
M  V30 7272 C 680.757 -4.24444 -1.16342 0
M  V30 7273 H 677.876 -0.735062 -0.0534102 0
M  V30 7274 H 680.518 -1.81656 0.556888 0
M  V30 7275 H 678.668 -3.75688 -0.989494 0
M  V30 7276 H 680.34 -4.34357 1.55344 0
M  V30 7277 H 678.583 -4.06073 1.526 0
M  V30 7278 H 679.254 -5.47451 0.707187 0
M  V30 7279 H 681.73 -4.10948 -0.652788 0
M  V30 7280 H 680.606 -5.33358 -1.29693 0
M  V30 7281 H 680.867 -3.84204 -2.18724 0
M  V30 7282 N 679.926 -0.151884 -1.56866 0
M  V30 7283 C 680.836 0.798876 -2.20579 0
M  V30 7284 C 681.852 1.268 -1.19154 0
M  V30 7285 O 683.028 1.32418 -1.51748 0
M  V30 7286 C 680.093 2.01861 -2.81874 0
M  V30 7287 C 679.154 1.59825 -3.9844 0
M  V30 7288 C 678.387 2.75984 -4.56802 0
M  V30 7289 O 678.61 3.92331 -4.14044 0
M  V30 7290 O 677.544 2.51175 -5.46987 0
M  V30 7291 H 681.37 0.2865 -3.02346 0
M  V30 7292 H 678.955 0.0753806 -1.4921 0
M  V30 7293 H 680.837 2.73235 -3.20813 0
M  V30 7294 H 679.512 2.52042 -2.03117 0
M  V30 7295 H 678.419 0.854601 -3.64208 0
M  V30 7296 H 679.752 1.14355 -4.78731 0
M  V30 7297 N 681.404 1.57128 0.121893 0
M  V30 7298 C 682.334 2.03165 1.15092 0
M  V30 7299 C 683.315 0.915587 1.43356 0
M  V30 7300 O 684.5 1.1851 1.53847 0
M  V30 7301 C 681.63 2.43352 2.47784 0
M  V30 7302 C 680.584 3.58376 2.33989 0
M  V30 7303 C 679.91 3.84454 3.71617 0
M  V30 7304 C 681.21 4.90199 1.80283 0
M  V30 7305 H 682.904 2.89382 0.768023 0
M  V30 7306 H 680.45 1.39218 0.367998 0
M  V30 7307 H 682.403 2.74163 3.20019 0
M  V30 7308 H 681.127 1.54103 2.87958 0
M  V30 7309 H 679.786 3.2777 1.64202 0
M  V30 7310 H 679.434 2.92414 4.09271 0
M  V30 7311 H 679.134 4.61877 3.6324 0
M  V30 7312 H 680.658 4.17714 4.45362 0
M  V30 7313 H 682.072 5.19565 2.42333 0
M  V30 7314 H 680.469 5.71601 1.82735 0
M  V30 7315 H 681.539 4.78904 0.760184 0
M  V30 7316 N 682.882 -0.391992 1.52647 0
M  V30 7317 C 684.112 -1.15692 1.71169 0
M  V30 7318 C 684.52 -1.84285 0.428444 0
M  V30 7319 O 683.863 -1.73393 -0.606669 0
M  V30 7320 C 683.925 -2.25033 2.80357 0
M  V30 7321 C 683.589 -1.76433 4.21569 0
M  V30 7322 C 684.586 -1.2427 5.0483 0
M  V30 7323 C 682.271 -1.82746 4.67877 0
M  V30 7324 C 684.265 -0.790657 6.32477 0
M  V30 7325 C 681.952 -1.37153 5.9551 0
M  V30 7326 C 682.95 -0.853997 6.7764 0
M  V30 7327 O 682.638 -0.404708 8.02881 0
M  V30 7328 H 682.37 -0.35297 0.576531 0
M  V30 7329 H 684.924 -0.464994 2.00067 0
M  V30 7330 H 683.154 -2.97641 2.46874 0
M  V30 7331 H 684.843 -2.86718 2.87311 0
M  V30 7332 H 685.609 -1.18752 4.70237 0
M  V30 7333 H 681.488 -2.21971 4.04042 0
M  V30 7334 H 685.032 -0.386024 6.96531 0
M  V30 7335 H 680.929 -1.42356 6.29607 0
M  V30 7336 H 681.697 -0.526459 8.16805 0
M  V30 7337 N 684.36 -1.4356 -0.65026 0
M  V30 7338 C 685.585 -1.48995 -1.44275 0
M  V30 7339 C 686.01 -0.109954 -1.87778 0
M  V30 7340 O 685.368 0.896926 -1.57559 0
M  V30 7341 C 685.416 -2.44341 -2.65198 0
M  V30 7342 O 684.52 -1.93172 -3.6436 0
M  V30 7343 H 683.861 -0.503852 -0.432469 0
M  V30 7344 H 686.391 -1.88504 -0.795446 0
M  V30 7345 H 686.401 -2.61743 -3.12977 0
M  V30 7346 H 685.076 -3.44588 -2.32877 0
M  V30 7347 H 683.653 -1.85445 -3.23519 0
M  V30 7348 N 685.838 0.888903 -1.30139 0
M  V30 7349 C 687.115 1.62145 -1.094 0
M  V30 7350 C 687.495 2.08041 0.358091 0
M  V30 7351 O 686.843 1.84438 1.34888 0
M  V30 7352 C 687.053 2.794 -2.09133 0
M  V30 7353 C 688.401 3.49826 -2.40638 0
M  V30 7354 O 689.425 2.89583 -2.07412 0
M  V30 7355 O 688.284 4.58457 -2.97455 0
M  V30 7356 H 685.378 0.712475 -0.41989 0
M  V30 7357 H 687.924 0.936023 -1.41551 0
M  V30 7358 H 686.696 2.42762 -3.06891 0
M  V30 7359 H 686.319 3.55643 -1.77776 0
M  V30 7360 N 687.317 1.12792 1.10072 0
M  V30 7361 C 688.563 0.89679 1.82563 0
M  V30 7362 C 688.918 -0.571152 1.83727 0
M  V30 7363 O 688.211 -1.41697 1.28967 0
M  V30 7364 C 688.405 1.4102 3.28403 0
M  V30 7365 C 688.234 2.92652 3.41445 0
M  V30 7366 C 687.004 3.60928 3.53637 0
M  V30 7367 C 689.202 3.9063 3.34534 0
M  V30 7368 N 687.184 5.00638 3.55295 0
M  V30 7369 C 688.555 5.16492 3.42981 0
M  V30 7370 C 690.61 3.82989 3.18157 0
M  V30 7371 C 689.313 6.35609 3.3674 0
M  V30 7372 C 691.339 5.01633 3.13239 0
M  V30 7373 C 690.701 6.26355 3.22272 0
M  V30 7374 H 686.8 0.381482 0.682638 0
M  V30 7375 H 689.384 1.43491 1.31599 0
M  V30 7376 H 687.555 0.899077 3.77851 0
M  V30 7377 H 689.287 1.12075 3.88872 0
M  V30 7378 H 686.042 3.11429 3.56803 0
M  V30 7379 H 686.466 5.73521 3.59725 0
M  V30 7380 H 691.108 2.87454 3.10049 0
M  V30 7381 H 688.826 7.31407 3.43613 0
M  V30 7382 H 692.412 4.97454 3.01713 0
M  V30 7383 H 691.292 7.1662 3.18473 0
M  V30 7384 N 688.795 -1.27931 0.920396 0
M  V30 7385 C 689.725 -2.29487 0.431024 0
M  V30 7386 C 690.706 -1.62435 -0.504861 0
M  V30 7387 O 691.891 -1.89797 -0.411176 0
M  V30 7388 C 689.021 -3.45788 -0.323709 0
M  V30 7389 C 687.975 -4.24784 0.523658 0
M  V30 7390 C 687.301 -5.33488 -0.359809 0
M  V30 7391 C 688.601 -4.90874 1.78437 0
M  V30 7392 H 690.295 -2.70671 1.27975 0
M  V30 7393 H 687.841 -1.30121 0.616813 0
M  V30 7394 H 689.794 -4.15927 -0.676952 0
M  V30 7395 H 688.518 -3.03502 -1.2064 0
M  V30 7396 H 687.177 -3.56382 0.85951 0
M  V30 7397 H 686.825 -4.87445 -1.24124 0
M  V30 7398 H 686.525 -5.87247 0.203605 0
M  V30 7399 H 688.049 -6.06472 -0.708787 0
M  V30 7400 H 689.463 -5.53339 1.49963 0
M  V30 7401 H 687.86 -5.54659 2.29071 0
M  V30 7402 H 688.93 -4.14988 2.50824 0
M  V30 7403 N 690.273 -0.685099 -1.4193 0
M  V30 7404 C 691.501 -0.220372 -2.05723 0
M  V30 7405 C 691.916 1.12642 -1.51516 0
M  V30 7406 O 691.273 1.70182 -0.659114 0
M  V30 7407 C 691.324 -0.157974 -3.61155 0
M  V30 7408 O 691.045 -1.45156 -4.13354 0
M  V30 7409 C 692.546 0.329009 -4.42077 0
M  V30 7410 H 689.766 -0.104725 -0.662777 0
M  V30 7411 H 692.31 -0.934736 -1.81887 0
M  V30 7412 H 690.465 0.507144 -3.84066 0
M  V30 7413 H 690.879 -1.33172 -5.07312 0
M  V30 7414 H 692.353 0.321559 -5.51063 0
M  V30 7415 H 692.83 1.36608 -4.17414 0
M  V30 7416 H 693.436 -0.304737 -4.24207 0
M  V30 7417 N 691.751 1.51645 -0.429126 0
M  V30 7418 C 692.997 2.02314 0.140286 0
M  V30 7419 C 693.33 1.31314 1.43074 0
M  V30 7420 O 692.605 0.425531 1.89788 0
M  V30 7421 C 692.888 3.5822 0.36749 0
M  V30 7422 C 692.741 4.39846 -0.941039 0
M  V30 7423 C 694.06 4.25055 1.14089 0
M  V30 7424 H 691.179 0.735335 0.0495112 0
M  V30 7425 H 693.821 1.81358 -0.566514 0
M  V30 7426 H 691.971 3.76207 0.969556 0
M  V30 7427 H 693.643 4.33527 -1.57646 0
M  V30 7428 H 691.886 4.05259 -1.54751 0
M  V30 7429 H 692.557 5.47069 -0.73621 0
M  V30 7430 H 695.033 4.11288 0.630986 0
M  V30 7431 H 693.909 5.34038 1.26863 0
M  V30 7432 H 694.17 3.85358 2.16683 0
M  V30 7433 N 693.229 0.160201 1.56784 0
M  V30 7434 C 694.477 -0.486625 1.96154 0
M  V30 7435 C 694.798 -1.64525 1.04673 0
M  V30 7436 O 694.068 -1.95586 0.110864 0
M  V30 7437 H 692.648 -0.182764 0.724297 0
M  V30 7438 H 695.31 0.238787 1.93432 0
M  V30 7439 H 694.406 -0.854025 3.00188 0
M  V30 7440 N 694.707 -1.5719 -0.113559 0
M  V30 7441 C 695.657 -1.97166 -1.14497 0
M  V30 7442 C 696.641 -0.847413 -1.36776 0
M  V30 7443 O 697.833 -1.11114 -1.37777 0
M  V30 7444 C 694.962 -2.38411 -2.47013 0
M  V30 7445 C 694.048 -3.5748 -2.28185 0
M  V30 7446 N 694.439 -4.72998 -1.79182 0
M  V30 7447 C 692.737 -3.63218 -2.58821 0
M  V30 7448 C 693.438 -5.55007 -1.74191 0
M  V30 7449 N 692.414 -4.9765 -2.18735 0
M  V30 7450 H 696.216 -2.83937 -0.758733 0
M  V30 7451 H 693.73 -1.59191 -0.321234 0
M  V30 7452 H 695.727 -2.65269 -3.21618 0
M  V30 7453 H 694.387 -1.53007 -2.8639 0
M  V30 7454 H 695.398 -4.96109 -1.48649 0
M  V30 7455 H 692.075 -2.88434 -3.01847 0
M  V30 7456 H 693.465 -6.57678 -1.37512 0
M  V30 7457 N 696.185 0.383891 -1.52853 0
M  V30 7458 C 697.431 1.13009 -1.68395 0
M  V30 7459 C 697.764 1.89488 -0.425195 0
M  V30 7460 O 697.039 1.8574 0.577136 0
M  V30 7461 C 697.322 2.10419 -2.92226 0
M  V30 7462 C 697.175 1.3767 -4.28214 0
M  V30 7463 C 698.494 3.10781 -3.11614 0
M  V30 7464 H 695.613 0.409463 -0.612788 0
M  V30 7465 H 698.255 0.412895 -1.85459 0
M  V30 7466 H 696.405 2.71579 -2.77808 0
M  V30 7467 H 698.077 0.794352 -4.54409 0
M  V30 7468 H 696.32 0.678533 -4.2846 0
M  V30 7469 H 696.991 2.08874 -5.10956 0
M  V30 7470 H 699.467 2.59715 -3.25096 0
M  V30 7471 H 698.343 3.76179 -3.99725 0
M  V30 7472 H 698.604 3.79933 -2.2606 0
M  V30 7473 N 697.663 1.43903 0.642637 0
M  V30 7474 C 698.94 1.36556 1.40043 0
M  V30 7475 C 699.32 0.0185588 2.11092 0
M  V30 7476 O 698.668 -0.998438 2.05532 0
M  V30 7477 C 698.878 2.55596 2.37638 0
M  V30 7478 C 700.226 2.99153 3.01318 0
M  V30 7479 O 701.25 2.55719 2.47965 0
M  V30 7480 O 700.109 3.74427 3.98078 0
M  V30 7481 H 697.203 0.540189 0.626198 0
M  V30 7482 H 699.749 1.55971 0.668657 0
M  V30 7483 H 698.521 3.45256 1.84158 0
M  V30 7484 H 698.144 2.38334 3.18249 0
M  V30 7485 N 699.141 -0.881989 1.30609 0
M  V30 7486 C 700.051 -2.02076 1.19174 0
M  V30 7487 C 701.067 -1.73645 0.11102 0
M  V30 7488 O 702.243 -1.98735 0.326528 0
M  V30 7489 C 699.308 -3.3515 0.887438 0
M  V30 7490 C 698.369 -3.76983 2.05383 0
M  V30 7491 C 697.602 -5.03707 1.76395 0
M  V30 7492 O 697.825 -5.66171 0.693302 0
M  V30 7493 O 696.759 -5.42019 2.61723 0
M  V30 7494 H 700.585 -2.14652 2.14845 0
M  V30 7495 H 698.17 -1.00843 1.10232 0
M  V30 7496 H 700.052 -4.14975 0.73306 0
M  V30 7497 H 698.727 -3.23676 -0.0393354 0
M  V30 7498 H 697.634 -2.97849 2.26355 0
M  V30 7499 H 698.967 -3.93066 2.96243 0
M  V30 7500 N 700.619 -1.13374 -1.09472 0
M  V30 7501 C 701.866 -0.89519 -1.81639 0
M  V30 7502 C 702.194 0.57868 -1.85692 0
M  V30 7503 O 701.449 1.44426 -1.32059 0
M  V30 7504 C 701.748 -1.42759 -3.2765 0
M  V30 7505 C 701.414 -2.91822 -3.43731 0
M  V30 7506 C 700.076 -3.32521 -3.47827 0
M  V30 7507 C 702.428 -3.87727 -3.48307 0
M  V30 7508 C 699.756 -4.6781 -3.54078 0
M  V30 7509 C 702.108 -5.22859 -3.56091 0
M  V30 7510 C 700.772 -5.63086 -3.58456 0
M  V30 7511 H 700.042 -0.327573 -0.664663 0
M  V30 7512 H 702.689 -1.4156 -1.28969 0
M  V30 7513 H 700.994 -0.827871 -3.82954 0
M  V30 7514 H 702.691 -1.2191 -3.8202 0
M  V30 7515 H 699.281 -2.5935 -3.41226 0
M  V30 7516 H 703.465 -3.57371 -3.44383 0
M  V30 7517 H 698.721 -4.98353 -3.54195 0
M  V30 7518 H 702.895 -5.96989 -3.58577 0
M  V30 7519 H 700.522 -6.67905 -3.63052 0
M  V30 7520 N 702.098 1.27442 -0.927168 0
M  V30 7521 C 703.031 2.25177 -0.370232 0
M  V30 7522 C 704.009 1.53612 0.533103 0
M  V30 7523 O 705.193 1.8245 0.47373 0
M  V30 7524 C 702.32 3.35431 0.469411 0
M  V30 7525 C 701.366 4.24888 -0.370419 0
M  V30 7526 S 702.199 5.04852 -1.78562 0
M  V30 7527 C 703.355 6.18592 -0.953651 0
M  V30 7528 H 703.588 2.72069 -1.19858 0
M  V30 7529 H 701.121 1.36089 -0.729316 0
M  V30 7530 H 703.079 3.99404 0.947992 0
M  V30 7531 H 701.74 2.87179 1.27228 0
M  V30 7532 H 700.933 5.03264 0.272226 0
M  V30 7533 H 700.535 3.65709 -0.783153 0
M  V30 7534 H 702.827 6.77235 -0.189408 0
M  V30 7535 H 703.77 6.87132 -1.7104 0
M  V30 7536 H 704.178 5.62318 -0.495897 0
M  V30 7537 N 703.576 0.692616 1.41565 0
M  V30 7538 C 704.801 0.229776 2.06123 0
M  V30 7539 C 705.226 -1.11119 1.5177 0
M  V30 7540 O 704.584 -1.69498 0.643444 0
M  V30 7541 C 704.632 0.19469 3.60074 0
M  V30 7542 O 703.736 -0.831366 4.03933 0
M  V30 7543 H 703.077 0.113002 0.654314 0
M  V30 7544 H 705.607 0.946645 1.81383 0
M  V30 7545 H 705.617 0.0245487 4.07993 0
M  V30 7546 H 704.292 1.17339 3.99004 0
M  V30 7547 H 702.869 -0.630819 3.67526 0
M  V30 7548 N 705.054 -1.51416 0.437162 0
M  V30 7549 C 706.301 -2.02086 -0.129364 0
M  V30 7550 C 706.629 -1.32133 -1.42728 0
M  V30 7551 O 705.884 -0.424916 -1.91031 0
M  V30 7552 C 706.183 -3.55203 -0.39564 0
M  V30 7553 C 705.849 -4.43447 0.81644 0
M  V30 7554 C 704.511 -4.67285 1.14884 0
M  V30 7555 C 706.863 -4.95219 1.62503 0
M  V30 7556 C 704.191 -5.40141 2.29052 0
M  V30 7557 C 706.543 -5.69327 2.7577 0
M  V30 7558 C 705.207 -5.91429 3.09464 0
M  V30 7559 H 704.477 -0.739486 -0.0473375 0
M  V30 7560 H 707.124 -1.82368 0.584321 0
M  V30 7561 H 705.429 -3.73252 -1.19121 0
M  V30 7562 H 707.126 -3.91944 -0.847399 0
M  V30 7563 H 703.716 -4.2509 0.547422 0
M  V30 7564 H 707.9 -4.76686 1.38144 0
M  V30 7565 H 703.156 -5.55468 2.55471 0
M  V30 7566 H 707.33 -6.08433 3.38795 0
M  V30 7567 H 704.957 -6.47662 3.98042 0
M  V30 7568 N 706.532 -0.168513 -1.56696 0
M  V30 7569 C 707.778 0.477865 -1.9709 0
M  V30 7570 C 708.111 1.63084 -1.05438 0
M  V30 7571 O 707.386 1.94238 -0.10095 0
M  V30 7572 C 707.669 0.963521 -3.4697 0
M  V30 7573 C 707.522 -0.189443 -4.49401 0
M  V30 7574 C 708.841 1.83813 -3.99876 0
M  V30 7575 H 705.96 0.172229 -0.716593 0
M  V30 7576 H 708.602 -0.254083 -1.88293 0
M  V30 7577 H 706.752 1.58724 -3.54597 0
M  V30 7578 H 708.424 -0.826451 -4.53836 0
M  V30 7579 H 706.667 -0.845366 -4.25483 0
M  V30 7580 H 707.338 0.192446 -5.51664 0
M  V30 7581 H 709.814 1.31235 -3.94863 0
M  V30 7582 H 708.69 2.14697 -5.0517 0
M  V30 7583 H 708.951 2.78289 -3.43523 0
M  V30 7584 N 708.01 1.57248 0.105221 0
M  V30 7585 C 709.421 1.74612 0.660865 0
M  V30 7586 C 709.772 0.789231 1.79626 0
M  V30 7587 O 708.897 -0.0346611 2.16372 0
M  V30 7588 C 709.492 3.16624 1.20559 0
M  V30 7589 C 708.051 3.35447 1.7074 0
M  V30 7590 C 707.198 2.70445 0.612764 0
M  V30 7591 H 710.149 1.5824 -0.12079 0
M  V30 7592 H 710.17 3.18937 2.07508 0
M  V30 7593 H 709.682 3.86245 0.379012 0
M  V30 7594 H 707.783 2.7089 2.5583 0
M  V30 7595 H 707.896 4.43702 1.80736 0
M  V30 7596 H 706.26 2.32061 1.04975 0
M  V30 7597 H 707.043 3.42699 -0.203066 0
M  V30 7598 N 709.488 -0.375779 1.53054 0
M  V30 7599 C 710.737 -1.11674 1.67964 0
M  V30 7600 C 711.05 -1.90755 0.432655 0
M  V30 7601 O 712.256 -2.67538 0.462109 0
M  V30 7602 C 710.712 -2.0344 2.96884 0
M  V30 7603 C 710.32 -1.29719 4.28809 0
M  V30 7604 C 712.064 -2.7759 3.2116 0
M  V30 7605 C 709.971 -2.20327 5.48826 0
M  V30 7606 H 708.901 -0.420597 0.625791 0
M  V30 7607 H 711.552 -0.378499 1.79554 0
M  V30 7608 H 709.934 -2.80953 2.79072 0
M  V30 7609 H 711.108 -0.573394 4.57219 0
M  V30 7610 H 709.423 -0.674735 4.10897 0
M  V30 7611 H 712.02 -3.4559 4.0801 0
M  V30 7612 H 712.363 -3.42399 2.36789 0
M  V30 7613 H 712.896 -2.07164 3.396 0
M  V30 7614 H 709.635 -1.60113 6.35645 0
M  V30 7615 H 709.155 -2.90585 5.2471 0
M  V30 7616 H 710.834 -2.80116 5.83219 0
M  V30 7617 N 710.966 -1.44241 -0.634997 0
M  V30 7618 C 712.377 -1.41622 -1.21655 0
M  V30 7619 C 712.728 -0.129584 -1.95772 0
M  V30 7620 O 711.853 0.770225 -2.02229 0
M  V30 7621 C 712.448 -2.56557 -2.21278 0
M  V30 7622 C 711.007 -2.57145 -2.7487 0
M  V30 7623 C 710.154 -2.33354 -1.49804 0
M  V30 7624 H 713.105 -1.52878 -0.425905 0
M  V30 7625 H 713.126 -2.29089 -3.03807 0
M  V30 7626 H 712.638 -3.50186 -1.67306 0
M  V30 7627 H 710.739 -1.67447 -3.32855 0
M  V30 7628 H 710.852 -3.55507 -3.21172 0
M  V30 7629 H 709.216 -1.82372 -1.77799 0
M  V30 7630 H 709.999 -3.29092 -0.977402 0
M  V30 7631 N 712.444 0.87505 -1.31075 0
M  V30 7632 C 713.692 1.62447 -1.20231 0
M  V30 7633 C 714.013 1.93506 0.240888 0
M  V30 7634 O 713.283 1.57847 1.16022 0
M  V30 7635 H 711.863 0.602207 -0.441991 0
M  V30 7636 H 714.525 1.04788 -1.64334 0
M  V30 7637 H 713.621 2.57031 -1.77036 0
M  V30 7638 N 713.922 1.13953 1.08869 0
M  V30 7639 C 715.15 0.92817 1.84912 0
M  V30 7640 C 715.565 -0.523197 1.81406 0
M  V30 7641 O 714.922 -1.36237 1.21432 0
M  V30 7642 C 714.973 1.41509 3.32652 0
M  V30 7643 O 714.694 2.80959 3.36145 0
M  V30 7644 C 716.195 1.243 4.25517 0
M  V30 7645 H 713.415 0.330612 0.583898 0
M  V30 7646 H 715.959 1.51349 1.37527 0
M  V30 7647 H 714.114 0.872648 3.77444 0
M  V30 7648 H 714.528 3.02704 4.28335 0
M  V30 7649 H 716.002 1.63237 5.27312 0
M  V30 7650 H 716.479 0.18532 4.38809 0
M  V30 7651 H 717.085 1.77375 3.86546 0
M  V30 7652 N 715.4 -1.26948 0.933913 0
M  V30 7653 C 716.347 -2.26635 0.436484 0
M  V30 7654 C 717.317 -1.58397 -0.499953 0
M  V30 7655 O 718.502 -1.86171 -0.417753 0
M  V30 7656 C 715.642 -3.43803 -0.298951 0
M  V30 7657 C 714.755 -4.26736 0.672316 0
M  V30 7658 C 713.89 -5.31134 -0.0835872 0
M  V30 7659 C 712.929 -6.05742 0.879979 0
M  V30 7660 N 712.066 -7.01926 0.156301 0
M  V30 7661 H 716.906 -2.68558 1.29154 0
M  V30 7662 H 714.443 -1.32052 0.648118 0
M  V30 7663 H 716.401 -4.10554 -0.741723 0
M  V30 7664 H 715.031 -3.02814 -1.1182 0
M  V30 7665 H 714.083 -3.59842 1.23361 0
M  V30 7666 H 715.395 -4.78502 1.40846 0
M  V30 7667 H 714.549 -6.03863 -0.585984 0
M  V30 7668 H 713.288 -4.80188 -0.852661 0
M  V30 7669 H 712.293 -5.31846 1.39357 0
M  V30 7670 H 713.518 -6.58777 1.64894 0
M  V30 7671 H 711.464 -6.53301 -0.594413 0
M  V30 7672 H 711.381 -7.51409 0.831906 0
M  V30 7673 H 712.649 -7.78821 -0.325239 0
M  V30 7674 N 716.879 -0.700114 -1.41195 0
M  V30 7675 C 717.826 -0.0376652 -2.30769 0
M  V30 7676 C 718.796 0.766544 -1.47354 0
M  V30 7677 O 719.981 0.73365 -1.76131 0
M  V30 7678 C 717.121 0.889452 -3.33441 0
M  V30 7679 C 716.234 0.076373 -4.31932 0
M  V30 7680 C 715.369 1.00155 -5.21673 0
M  V30 7681 C 714.408 0.181644 -6.1183 0
M  V30 7682 N 713.545 1.06087 -6.94039 0
M  V30 7683 H 718.385 -0.80726 -2.86858 0
M  V30 7684 H 715.922 -0.409798 -1.41277 0
M  V30 7685 H 717.88 1.44107 -3.91522 0
M  V30 7686 H 716.51 1.6254 -2.78892 0
M  V30 7687 H 715.562 -0.592223 -3.75762 0
M  V30 7688 H 716.874 -0.559076 -4.95657 0
M  V30 7689 H 716.028 1.62223 -5.8461 0
M  V30 7690 H 714.767 1.67085 -4.58186 0
M  V30 7691 H 713.772 -0.452085 -5.47938 0
M  V30 7692 H 714.997 -0.483925 -6.77374 0
M  V30 7693 H 712.943 1.7161 -6.33156 0
M  V30 7694 H 712.86 0.481094 -7.54468 0
M  V30 7695 H 714.128 1.66822 -7.6144 0
M  V30 7696 N 718.357 1.51182 -0.445186 0
M  V30 7697 C 719.604 2.02152 0.118645 0
M  V30 7698 C 719.932 1.32888 1.42025 0
M  V30 7699 O 719.187 0.435041 1.90803 0
M  V30 7700 C 719.486 3.55408 0.376797 0
M  V30 7701 C 719.152 4.43008 -0.839945 0
M  V30 7702 C 717.814 4.66669 -1.17361 0
M  V30 7703 C 720.166 4.9435 -1.65127 0
M  V30 7704 C 717.494 5.38919 -2.31913 0
M  V30 7705 C 719.846 5.67857 -2.78786 0
M  V30 7706 C 718.51 5.89779 -3.12597 0
M  V30 7707 H 717.78 0.739727 0.0434152 0
M  V30 7708 H 720.427 1.82055 -0.593984 0
M  V30 7709 H 718.732 3.73879 1.1714 0
M  V30 7710 H 720.429 3.92388 0.826602 0
M  V30 7711 H 717.019 4.24793 -0.569958 0
M  V30 7712 H 721.203 4.75947 -1.4067 0
M  V30 7713 H 716.459 5.54105 -2.58413 0
M  V30 7714 H 720.633 6.06628 -3.42017 0
M  V30 7715 H 718.26 6.45542 -4.01471 0
M  V30 7716 N 719.835 0.176821 1.56605 0
M  V30 7717 C 720.765 -0.746841 2.21234 0
M  V30 7718 C 721.746 -1.23502 1.16967 0
M  V30 7719 O 722.931 -1.28718 1.45414 0
M  V30 7720 C 720.061 -1.97407 2.8574 0
M  V30 7721 C 719.015 -1.62153 3.96094 0
M  V30 7722 C 718.341 -2.92387 4.47676 0
M  V30 7723 C 719.641 -0.845353 5.15413 0
M  V30 7724 H 721.335 -0.208116 2.98676 0
M  V30 7725 H 718.881 -0.0986594 1.43662 0
M  V30 7726 H 720.834 -2.62531 3.2963 0
M  V30 7727 H 719.558 -2.53703 2.05676 0
M  V30 7728 H 718.217 -0.993964 3.52868 0
M  V30 7729 H 717.865 -3.46734 3.64396 0
M  V30 7730 H 717.565 -2.69551 5.22127 0
M  V30 7731 H 719.089 -3.5853 4.94255 0
M  V30 7732 H 720.503 -1.39929 5.55961 0
M  V30 7733 H 718.9 -0.715814 5.95815 0
M  V30 7734 H 719.97 0.157239 4.84645 0
M  V30 7735 N 721.313 -1.57302 -0.09688 0
M  V30 7736 C 722.243 -2.0497 -1.11846 0
M  V30 7737 C 723.224 -0.938278 -1.41882 0
M  V30 7738 O 724.409 -1.20943 -1.51942 0
M  V30 7739 C 721.539 -2.47264 -2.43881 0
M  V30 7740 C 720.493 -3.62053 -2.28257 0
M  V30 7741 C 719.819 -3.90318 -3.65453 0
M  V30 7742 C 721.119 -4.93005 -1.72461 0
M  V30 7743 H 722.813 -2.90567 -0.721888 0
M  V30 7744 H 720.359 -1.39786 -0.345803 0
M  V30 7745 H 722.312 -2.7922 -3.15617 0
M  V30 7746 H 721.036 -1.58664 -2.8547 0
M  V30 7747 H 719.695 -3.30341 -1.58967 0
M  V30 7748 H 719.343 -2.98889 -4.04567 0
M  V30 7749 H 719.043 -4.67597 -3.55846 0
M  V30 7750 H 720.567 -4.24747 -4.3866 0
M  V30 7751 H 721.981 -5.23354 -2.34036 0
M  V30 7752 H 720.378 -5.74436 -1.73618 0
M  V30 7753 H 721.448 -4.80053 -0.683898 0
M  V30 7754 N 722.791 0.367657 -1.53252 0
M  V30 7755 C 723.721 1.45632 -1.8252 0
M  V30 7756 C 724.702 1.55979 -0.678568 0
M  V30 7757 O 725.887 1.70581 -0.928217 0
M  V30 7758 C 723.017 2.82994 -2.01325 0
M  V30 7759 C 721.971 2.87473 -3.17086 0
M  V30 7760 C 721.297 4.2749 -3.21179 0
M  V30 7761 C 722.597 2.55182 -4.55719 0
M  V30 7762 H 724.291 1.21387 -2.73689 0
M  V30 7763 H 721.837 0.58251 -1.31692 0
M  V30 7764 H 723.79 3.59179 -2.20383 0
M  V30 7765 H 722.514 3.08622 -1.06864 0
M  V30 7766 H 721.173 2.13739 -2.97844 0
M  V30 7767 H 720.821 4.5019 -2.24361 0
M  V30 7768 H 720.521 4.31403 -3.98955 0
M  V30 7769 H 722.045 5.0555 -3.42419 0
M  V30 7770 H 723.459 3.21081 -4.74953 0
M  V30 7771 H 721.856 2.70414 -5.3572 0
M  V30 7772 H 722.926 1.5044 -4.60973 0
M  V30 7773 N 724.269 1.44576 0.627338 0
M  V30 7774 C 725.202 1.46206 1.75212 0
M  V30 7775 C 726.18 0.320483 1.5941 0
M  V30 7776 O 727.364 0.518028 1.81242 0
M  V30 7777 C 724.491 1.29834 3.12827 0
M  V30 7778 C 723.537 2.47603 3.47268 0
M  V30 7779 S 724.37 4.10125 3.44322 0
M  V30 7780 C 725.526 3.96183 4.84551 0
M  V30 7781 H 725.759 2.41378 1.73563 0
M  V30 7782 H 723.292 1.3192 0.802283 0
M  V30 7783 H 725.25 1.21075 3.92239 0
M  V30 7784 H 723.911 0.361662 3.12011 0
M  V30 7785 H 723.104 2.3202 4.47418 0
M  V30 7786 H 722.706 2.53121 2.75329 0
M  V30 7787 H 724.998 3.60107 5.73872 0
M  V30 7788 H 725.941 4.96176 5.05188 0
M  V30 7789 H 726.349 3.28177 4.59304 0
M  V30 7790 N 725.747 -0.868086 1.31537 0
M  V30 7791 C 726.71 -1.95703 1.19302 0
M  V30 7792 C 727.71 -1.60355 0.119612 0
M  V30 7793 O 728.9 -1.70247 0.36902 0
M  V30 7794 C 726.032 -3.30599 0.831684 0
M  V30 7795 H 727.225 -2.07982 2.16064 0
M  V30 7796 H 724.778 -1.05661 1.15176 0
M  V30 7797 H 725.513 -3.2402 -0.134694 0
M  V30 7798 H 725.298 -3.57629 1.60761 0
M  V30 7799 H 726.788 -4.10439 0.770026 0
M  V30 7800 N 727.225 -1.14528 -1.08264 0
M  V30 7801 C 728.45 -0.938381 -1.84957 0
M  V30 7802 C 728.875 0.508044 -1.81109 0
M  V30 7803 O 728.233 1.36146 -1.19724 0
M  V30 7804 C 728.281 -1.44568 -3.30352 0
M  V30 7805 O 727.385 -0.638745 -4.07423 0
M  V30 7806 H 726.726 -0.335394 -0.573068 0
M  V30 7807 H 729.256 -1.52287 -1.36637 0
M  V30 7808 H 729.266 -1.45449 -3.81194 0
M  V30 7809 H 727.941 -2.49876 -3.32468 0
M  V30 7810 H 726.518 -0.698801 -3.66294 0
M  V30 7811 N 728.703 1.26451 -0.940633 0
M  V30 7812 C 729.931 1.97868 -0.604642 0
M  V30 7813 C 730.346 1.70051 0.820251 0
M  V30 7814 O 729.703 0.96843 1.54686 0
M  V30 7815 C 729.754 3.51684 -0.836689 0
M  V30 7816 O 729.475 3.78533 -2.20554 0
M  V30 7817 C 730.976 4.40343 -0.511169 0
M  V30 7818 H 728.196 0.631105 -0.227919 0
M  V30 7819 H 730.74 1.60979 -1.26119 0
M  V30 7820 H 728.895 3.86736 -0.226759 0
M  V30 7821 H 729.309 4.73065 -2.26517 0
M  V30 7822 H 730.783 5.47229 -0.724157 0
M  V30 7823 H 731.26 4.35694 0.553815 0
M  V30 7824 H 731.866 4.10834 -1.0998 0
M  V30 7825 N 730.181 0.707592 1.40822 0
M  V30 7826 C 731.406 0.251626 2.05868 0
M  V30 7827 C 731.831 -1.09503 1.5294 0
M  V30 7828 O 731.189 -1.68806 0.661385 0
M  V30 7829 C 731.237 0.23287 3.59847 0
M  V30 7830 O 730.341 -0.788477 4.04792 0
M  V30 7831 H 729.682 0.119936 0.653078 0
M  V30 7832 H 732.212 0.96583 1.80369 0
M  V30 7833 H 732.222 0.0678204 4.07944 0
M  V30 7834 H 730.897 1.21565 3.97737 0
M  V30 7835 H 729.474 -0.591802 3.68174 0
M  V30 7836 N 731.66 -1.50943 0.453197 0
M  V30 7837 C 732.623 -2.26684 -0.338705 0
M  V30 7838 C 733.623 -1.30748 -0.936032 0
M  V30 7839 O 734.813 -1.54327 -0.808002 0
M  V30 7840 C 731.945 -3.07063 -1.48071 0
M  V30 7841 H 733.138 -2.98131 0.325289 0
M  V30 7842 H 730.691 -1.54926 0.206771 0
M  V30 7843 H 731.426 -2.4007 -2.18029 0
M  V30 7844 H 731.211 -3.77545 -1.0584 0
M  V30 7845 H 732.701 -3.64393 -2.0398 0
M  V30 7846 N 733.138 -0.185124 -1.56509 0
M  V30 7847 C 734.378 0.458547 -1.9919 0
M  V30 7848 C 734.742 1.59484 -1.06906 0
M  V30 7849 O 735.943 2.30201 -1.38783 0
M  V30 7850 C 734.214 0.916263 -3.45455 0
M  V30 7851 S 735.773 1.55918 -4.10165 0
M  V30 7852 H 732.591 0.147008 -0.695636 0
M  V30 7853 H 735.193 -0.285841 -1.93399 0
M  V30 7854 H 733.897 0.0790543 -4.10324 0
M  V30 7855 H 733.428 1.69436 -3.55042 0
M  V30 7856 H 735.443 2.84771 -4.0635 0
M  V30 7857 N 734.616 1.57351 0.0885366 0
M  V30 7858 C 735.846 1.90355 0.80303 0
M  V30 7859 C 736.254 0.777678 1.72478 0
M  V30 7860 O 735.597 -0.258908 1.81866 0
M  V30 7861 C 735.659 3.18674 1.66395 0
M  V30 7862 C 735.323 4.4778 0.913327 0
M  V30 7863 C 736.32 5.19345 0.240148 0
M  V30 7864 C 734.005 4.94434 0.885462 0
M  V30 7865 C 735.999 6.35803 -0.450854 0
M  V30 7866 C 733.686 6.10802 0.190679 0
M  V30 7867 C 734.684 6.81337 -0.476295 0
M  V30 7868 O 734.372 7.95488 -1.15992 0
M  V30 7869 H 734.104 0.634035 0.234469 0
M  V30 7870 H 736.658 2.05287 0.0681959 0
M  V30 7871 H 734.888 2.99906 2.44117 0
M  V30 7872 H 736.577 3.37458 2.2556 0
M  V30 7873 H 737.343 4.84339 0.253092 0
M  V30 7874 H 733.222 4.39417 1.39406 0
M  V30 7875 H 736.766 6.90795 -0.972019 0
M  V30 7876 H 732.663 6.45261 0.175603 0
M  V30 7877 H 733.431 8.11509 -1.06749 0
M  V30 7878 N 736.094 -0.359525 1.53444 0
M  V30 7879 C 737.041 -1.44073 1.8031 0
M  V30 7880 C 738.011 -1.52946 0.647811 0
M  V30 7881 O 739.196 -1.68739 0.890614 0
M  V30 7882 C 736.336 -2.80941 2.00416 0
M  V30 7883 C 735.449 -2.80986 3.28132 0
M  V30 7884 C 734.584 -4.09468 3.38393 0
M  V30 7885 C 733.623 -4.03679 4.60119 0
M  V30 7886 N 732.76 -5.23821 4.675 0
M  V30 7887 H 737.6 -1.20464 2.72566 0
M  V30 7888 H 735.137 -0.583859 1.35017 0
M  V30 7889 H 737.095 -3.60459 2.1006 0
M  V30 7890 H 735.725 -3.02936 1.11489 0
M  V30 7891 H 734.777 -1.93666 3.27411 0
M  V30 7892 H 736.089 -2.72583 4.17732 0
M  V30 7893 H 735.243 -4.97404 3.47382 0
M  V30 7894 H 733.982 -4.20632 2.4682 0
M  V30 7895 H 732.987 -3.14129 4.51224 0
M  V30 7896 H 734.212 -3.94112 5.5304 0
M  V30 7897 H 732.158 -5.35559 3.7883 0
M  V30 7898 H 732.075 -5.17611 5.51013 0
M  V30 7899 H 733.343 -6.13572 4.8078 0
M  V30 7900 N 737.572 -1.44907 -0.619662 0
M  V30 7901 C 738.502 -1.55488 -1.742 0
M  V30 7902 C 739.483 -0.407143 -1.65156 0
M  V30 7903 O 740.668 -0.628743 -1.8374 0
M  V30 7904 C 737.798 -1.5097 -3.1277 0
M  V30 7905 C 736.752 -2.64337 -3.36615 0
M  V30 7906 C 736.078 -2.44872 -4.75333 0
M  V30 7907 C 737.378 -4.06423 -3.28051 0
M  V30 7908 H 739.072 -2.49432 -1.65602 0
M  V30 7909 H 736.618 -1.20047 -0.795281 0
M  V30 7910 H 738.571 -1.56971 -3.91073 0
M  V30 7911 H 737.295 -0.535486 -3.2218 0
M  V30 7912 H 735.954 -2.57744 -2.60698 0
M  V30 7913 H 735.602 -1.45617 -4.81461 0
M  V30 7914 H 735.302 -3.20888 -4.92244 0
M  V30 7915 H 736.826 -2.52709 -5.55851 0
M  V30 7916 H 738.24 -4.14324 -3.96243 0
M  V30 7917 H 736.637 -4.82733 -3.56495 0
M  V30 7918 H 737.707 -4.29183 -2.25676 0
M  V30 7919 N 739.05 0.861098 -1.31996 0
M  V30 7920 C 740.297 1.61481 -1.22188 0
M  V30 7921 C 740.625 1.93276 0.217853 0
M  V30 7922 O 739.88 1.56942 1.16909 0
M  V30 7923 C 740.179 2.94822 -2.02027 0
M  V30 7924 C 739.845 2.82483 -3.51446 0
M  V30 7925 C 738.507 2.78825 -3.92186 0
M  V30 7926 C 740.859 2.68878 -4.46491 0
M  V30 7927 C 738.187 2.59433 -5.26224 0
M  V30 7928 C 740.539 2.51022 -5.80664 0
M  V30 7929 C 739.203 2.45753 -6.20614 0
M  V30 7930 H 738.473 0.590902 -0.447119 0
M  V30 7931 H 741.12 0.999376 -1.63355 0
M  V30 7932 H 739.425 3.6045 -1.53569 0
M  V30 7933 H 741.122 3.52149 -1.91812 0
M  V30 7934 H 737.712 2.86152 -3.19085 0
M  V30 7935 H 741.896 2.70754 -4.1594 0
M  V30 7936 H 737.152 2.53784 -5.5624 0
M  V30 7937 H 741.326 2.39473 -6.53931 0
M  V30 7938 H 738.953 2.30485 -7.24417 0
M  V30 7939 N 740.528 1.15101 1.07655 0
M  V30 7940 C 741.944 0.893004 1.32279 0
M  V30 7941 C 742.144 -0.461701 1.96139 0
M  V30 7942 O 741.2 -1.20431 2.21929 0
M  V30 7943 C 742.513 2.03161 2.21689 0
M  V30 7944 C 744.061 2.06579 2.35147 0
M  V30 7945 C 744.536 3.19754 3.27905 0
M  V30 7946 N 746.027 3.19382 3.35484 0
M  V30 7947 C 746.762 4.03592 4.07309 0
M  V30 7948 N 746.258 4.97859 4.81776 0
M  V30 7949 N 748.051 3.91626 4.03219 0
M  V30 7950 H 740.202 2.02341 0.645886 0
M  V30 7951 H 742.465 0.882127 0.347211 0
M  V30 7952 H 742.171 3.00934 1.82021 0
M  V30 7953 H 742.045 1.96132 3.22199 0
M  V30 7954 H 744.432 1.09408 2.74069 0
M  V30 7955 H 744.513 2.17676 1.34353 0
M  V30 7956 H 744.157 4.17175 2.89702 0
M  V30 7957 H 744.087 3.05893 4.28645 0
M  V30 7958 H 746.578 2.51112 2.82403 0
M  V30 7959 H 746.891 5.58563 5.34067 0
M  V30 7960 H 745.236 5.0185 4.80803 0
M  V30 7961 H 748.427 3.17295 3.44154 0
M  V30 7962 H 748.6 4.57479 4.5893 0
M  V30 7963 N 742.006 -1.2595 0.947325 0
M  V30 7964 C 742.916 -2.29883 0.468079 0
M  V30 7965 C 743.932 -1.67783 -0.460975 0
M  V30 7966 O 745.108 -1.98526 -0.339006 0
M  V30 7967 C 742.173 -3.45773 -0.253315 0
M  V30 7968 C 741.234 -4.23337 0.713054 0
M  V30 7969 C 740.467 -5.33694 0.025993 0
M  V30 7970 O 740.69 -5.57853 -1.18978 0
M  V30 7971 O 739.624 -5.97724 0.70782 0
M  V30 7972 H 743.45 -2.72952 1.33156 0
M  V30 7973 H 741.035 -1.31263 0.713468 0
M  V30 7974 H 742.917 -4.16209 -0.659423 0
M  V30 7975 H 741.592 -3.04721 -1.09209 0
M  V30 7976 H 740.499 -3.55359 1.16923 0
M  V30 7977 H 741.832 -4.68154 1.51963 0
M  V30 7978 N 743.484 -0.715051 -1.40445 0
M  V30 7979 C 744.431 -0.0621393 -2.30716 0
M  V30 7980 C 745.401 0.750871 -1.48159 0
M  V30 7981 O 746.586 0.714928 -1.76899 0
M  V30 7982 C 743.726 0.854036 -3.34365 0
M  V30 7983 C 742.839 0.0305565 -4.31989 0
M  V30 7984 C 741.974 0.946162 -5.22706 0
M  V30 7985 C 741.013 0.116741 -6.11989 0
M  V30 7986 N 740.15 0.987194 -6.95125 0
M  V30 7987 H 744.99 -0.83764 -2.85985 0
M  V30 7988 H 742.527 -0.424759 -1.40834 0
M  V30 7989 H 744.485 1.39946 -3.93028 0
M  V30 7990 H 743.115 1.59572 -2.806 0
M  V30 7991 H 742.167 -0.632044 -3.75112 0
M  V30 7992 H 743.479 -0.611615 -4.95036 0
M  V30 7993 H 742.633 1.56014 -5.86297 0
M  V30 7994 H 741.372 1.62216 -4.59932 0
M  V30 7995 H 740.377 -0.510176 -5.47428 0
M  V30 7996 H 741.602 -0.555742 -6.76822 0
M  V30 7997 H 739.548 1.64885 -6.3494 0
M  V30 7998 H 739.465 0.401046 -7.54936 0
M  V30 7999 H 740.733 1.58737 -7.63166 0
M  V30 8000 N 744.962 1.50701 -0.461195 0
M  V30 8001 C 745.894 2.26124 0.374244 0
M  V30 8002 C 746.907 1.31064 0.965715 0
M  V30 8003 O 748.096 1.56647 0.855801 0
M  V30 8004 C 745.196 3.01996 1.5379 0
M  V30 8005 C 744.369 4.24336 1.06101 0
M  V30 8006 C 743.428 4.82585 2.09756 0
M  V30 8007 O 742.454 5.43775 1.68219 0
M  V30 8008 N 743.656 4.68712 3.42475 0
M  V30 8009 H 746.421 2.9846 -0.2723 0
M  V30 8010 H 743.982 1.59256 -0.291415 0
M  V30 8011 H 745.974 3.37846 2.22806 0
M  V30 8012 H 744.544 2.32521 2.08933 0
M  V30 8013 H 743.764 3.93707 0.197085 0
M  V30 8014 H 745.052 5.03678 0.720156 0
M  V30 8015 H 744.45 4.20026 3.78938 0
M  V30 8016 H 743.007 5.08858 4.07317 0
M  V30 8017 N 746.441 0.193421 1.56409 0
M  V30 8018 C 747.388 -0.728124 2.19014 0
M  V30 8019 C 748.358 -1.21098 1.13686 0
M  V30 8020 O 749.543 -1.27517 1.4193 0
M  V30 8021 C 746.683 -1.94277 2.8522 0
M  V30 8022 C 745.796 -1.50143 4.05069 0
M  V30 8023 C 744.931 -2.67145 4.59137 0
M  V30 8024 C 743.97 -2.19609 5.71348 0
M  V30 8025 N 743.107 -3.29782 6.19829 0
M  V30 8026 H 747.947 -0.187499 2.9741 0
M  V30 8027 H 745.484 -0.0808064 1.46878 0
M  V30 8028 H 747.442 -2.65551 3.21774 0
M  V30 8029 H 746.072 -2.45673 2.09391 0
M  V30 8030 H 745.124 -0.684624 3.74189 0
M  V30 8031 H 746.436 -1.11266 4.86232 0
M  V30 8032 H 745.59 -3.46544 4.97988 0
M  V30 8033 H 744.329 -3.09295 3.77078 0
M  V30 8034 H 743.334 -1.38664 5.32027 0
M  V30 8035 H 744.559 -1.78492 6.55223 0
M  V30 8036 H 742.505 -3.71466 5.40693 0
M  V30 8037 H 742.422 -2.95069 6.96039 0
M  V30 8038 H 743.69 -4.094 6.63334 0
M  V30 8039 N 747.919 -1.57396 -0.0801906 0
M  V30 8040 C 749.196 -1.77883 -0.813451 0
M  V30 8041 C 749.576 -0.778879 -1.96206 0
M  V30 8042 O 748.924 0.189683 -2.27711 0
M  V30 8043 C 749.134 -3.24116 -1.2942 0
M  V30 8044 C 750.482 -3.87714 -1.73098 0
M  V30 8045 O 751.506 -3.27956 -1.39007 0
M  V30 8046 O 750.365 -4.92828 -2.36184 0
M  V30 8047 H 747.459 -0.729727 -0.389138 0
M  V30 8048 H 750.005 -1.69591 -0.0609166 0
M  V30 8049 H 748.777 -3.88443 -0.471947 0
M  V30 8050 H 748.4 -3.371 -2.1083 0
M  V30 8051 N 749.397 0.351382 -1.53633 0
M  V30 8052 C 750.645 1.09034 -1.70165 0
M  V30 8053 C 750.966 1.89413 -0.463422 0
M  V30 8054 O 750.236 1.888 0.522624 0
M  V30 8055 H 748.816 0.405522 -0.627344 0
M  V30 8056 H 751.478 0.394554 -1.90865 0
M  V30 8057 H 750.574 1.77215 -2.56907 0
M  V30 8058 N 750.875 1.45233 0.611969 0
M  V30 8059 C 751.825 1.49997 1.71711 0
M  V30 8060 C 752.809 0.363689 1.56736 0
M  V30 8061 O 754.001 0.610261 1.66147 0
M  V30 8062 C 751.13 1.46537 3.10454 0
M  V30 8063 C 750.216 2.65351 3.30831 0
M  V30 8064 N 750.607 3.90485 3.21489 0
M  V30 8065 C 748.905 2.60955 3.61688 0
M  V30 8066 C 749.606 4.69758 3.43078 0
M  V30 8067 N 748.582 4.01141 3.66861 0
M  V30 8068 H 752.384 2.44574 1.62975 0
M  V30 8069 H 749.898 1.40464 0.815082 0
M  V30 8070 H 751.895 1.48035 3.89732 0
M  V30 8071 H 750.555 0.530139 3.20343 0
M  V30 8072 H 751.566 4.22171 2.99987 0
M  V30 8073 H 748.243 1.76319 3.78441 0
M  V30 8074 H 749.633 5.7877 3.41285 0
M  V30 8075 N 752.353 -0.854086 1.3245 0
M  V30 8076 C 753.601 -1.60513 1.228 0
M  V30 8077 C 753.922 -1.93865 -0.210073 0
M  V30 8078 O 753.192 -1.59673 -1.13496 0
M  V30 8079 H 751.772 -0.595099 0.451516 0
M  V30 8080 H 754.434 -1.0216 1.6598 0
M  V30 8081 H 753.53 -2.54182 1.81102 0
M  V30 8082 N 753.831 -1.1567 -1.07043 0
M  V30 8083 C 754.741 -0.870435 -2.17855 0
M  V30 8084 C 755.757 0.154452 -1.73313 0
M  V30 8085 O 756.933 -0.0203759 -2.0139 0
M  V30 8086 C 753.998 -0.367219 -3.4475 0
M  V30 8087 C 753.059 -1.45639 -4.03841 0
M  V30 8088 C 752.292 -0.977092 -5.2468 0
M  V30 8089 O 752.515 0.176127 -5.70128 0
M  V30 8090 O 751.449 -1.76215 -5.75527 0
M  V30 8091 H 755.275 -1.79687 -2.44839 0
M  V30 8092 H 752.86 -0.936064 -1.1644 0
M  V30 8093 H 754.742 -0.0931947 -4.21297 0
M  V30 8094 H 753.417 0.53131 -3.1931 0
M  V30 8095 H 752.324 -1.78406 -3.28819 0
M  V30 8096 H 753.657 -2.32995 -4.3356 0
M  V30 8097 N 755.309 1.25446 -0.953992 0
M  V30 8098 C 756.272 2.24156 -0.478179 0
M  V30 8099 C 757.272 1.55278 0.417776 0
M  V30 8100 O 758.462 1.72866 0.215155 0
M  V30 8101 C 755.594 3.39495 0.309202 0
M  V30 8102 H 756.787 2.67764 -1.35064 0
M  V30 8103 H 754.34 1.37822 -0.737206 0
M  V30 8104 H 755.075 3.01307 1.19936 0
M  V30 8105 H 754.86 3.90679 -0.333562 0
M  V30 8106 H 756.35 4.12796 0.631594 0
M  V30 8107 N 756.787 0.722489 1.40064 0
M  V30 8108 C 758.036 0.261932 1.99992 0
M  V30 8109 C 758.349 -1.15358 1.57961 0
M  V30 8110 O 759.555 -1.71301 2.10637 0
M  V30 8111 C 758.011 0.41737 3.57472 0
M  V30 8112 C 757.619 1.83997 4.08472 0
M  V30 8113 C 759.363 0.0179561 4.24496 0
M  V30 8114 C 757.27 1.94563 5.5848 0
M  V30 8115 H 756.2 0.0941768 0.748095 0
M  V30 8116 H 758.851 0.894572 1.60218 0
M  V30 8117 H 757.233 -0.283965 3.94981 0
M  V30 8118 H 758.407 2.57224 3.82325 0
M  V30 8119 H 756.722 2.19147 3.54067 0
M  V30 8120 H 759.319 0.076085 5.34646 0
M  V30 8121 H 759.662 -1.02498 4.03485 0
M  V30 8122 H 760.195 0.669988 3.92117 0
M  V30 8123 H 756.934 2.97001 5.84355 0
M  V30 8124 H 756.454 1.25756 5.86469 0
M  V30 8125 H 758.133 1.72095 6.23692 0
M  V30 8126 N 758.265 -1.50454 0.469181 0
M  V30 8127 C 759.198 -2.25149 -0.371928 0
M  V30 8128 C 760.176 -1.28382 -0.997845 0
M  V30 8129 O 761.36 -1.57599 -1.03415 0
M  V30 8130 C 758.487 -3.02629 -1.52097 0
M  V30 8131 C 757.533 -4.14305 -1.01262 0
M  V30 8132 S 758.366 -5.35453 0.0711459 0
M  V30 8133 C 759.522 -6.1648 -1.08181 0
M  V30 8134 H 759.755 -2.96142 0.262134 0
M  V30 8135 H 757.288 -1.52296 0.254042 0
M  V30 8136 H 759.246 -3.47861 -2.17952 0
M  V30 8137 H 757.907 -2.31165 -2.12654 0
M  V30 8138 H 757.1 -4.67913 -1.87278 0
M  V30 8139 H 756.702 -3.71499 -0.431804 0
M  V30 8140 H 758.994 -6.47497 -1.99382 0
M  V30 8141 H 759.937 -7.05679 -0.585028 0
M  V30 8142 H 760.345 -5.48492 -1.33478 0
M  V30 8143 N 759.743 -0.201713 -1.56304 0
M  V30 8144 C 760.99 0.435307 -1.97766 0
M  V30 8145 C 761.318 1.61169 -1.0888 0
M  V30 8146 O 760.573 1.95272 -0.12934 0
M  V30 8147 C 760.872 0.931432 -3.45049 0
M  V30 8148 C 760.538 -0.132287 -4.50706 0
M  V30 8149 C 759.2 -0.424552 -4.79323 0
M  V30 8150 C 761.552 -0.852703 -5.14177 0
M  V30 8151 C 758.88 -1.4421 -5.68701 0
M  V30 8152 C 761.232 -1.85944 -6.04655 0
M  V30 8153 C 759.896 -2.15884 -6.31625 0
M  V30 8154 H 759.166 0.15929 -0.723676 0
M  V30 8155 H 761.813 -0.300069 -1.89134 0
M  V30 8156 H 760.118 1.7452 -3.50785 0
M  V30 8157 H 761.815 1.43383 -3.74489 0
M  V30 8158 H 758.405 0.105671 -4.2847 0
M  V30 8159 H 762.589 -0.640139 -4.92154 0
M  V30 8160 H 757.845 -1.6799 -5.87869 0
M  V30 8161 H 762.019 -2.42286 -6.52894 0
M  V30 8162 H 759.646 -2.94875 -7.0068 0
M  V30 8163 N 761.222 1.57436 0.0718424 0
M  V30 8164 C 762.169 2.03686 1.08539 0
M  V30 8165 C 763.139 0.917474 1.38462 0
M  V30 8166 O 764.324 1.18513 1.4953 0
M  V30 8167 C 761.464 2.48566 2.39393 0
M  V30 8168 C 760.577 3.74122 2.16001 0
M  V30 8169 C 759.712 4.07786 3.40418 0
M  V30 8170 C 758.751 5.26383 3.1239 0
M  V30 8171 N 757.888 5.55685 4.29138 0
M  V30 8172 H 762.728 2.90043 0.684018 0
M  V30 8173 H 760.265 1.43438 0.326183 0
M  V30 8174 H 762.223 2.72639 3.15791 0
M  V30 8175 H 760.853 1.65186 2.77333 0
M  V30 8176 H 759.905 3.57389 1.30296 0
M  V30 8177 H 761.217 4.60659 1.91298 0
M  V30 8178 H 760.371 4.32759 4.25211 0
M  V30 8179 H 759.11 3.19817 3.68197 0
M  V30 8180 H 758.115 5.01206 2.25993 0
M  V30 8181 H 759.34 6.1597 2.85934 0
M  V30 8182 H 757.286 4.70675 4.56948 0
M  V30 8183 H 757.203 6.3664 4.07708 0
M  V30 8184 H 758.471 5.85209 5.14928 0
M  V30 8185 N 762.7 -0.34323 1.53817 0
M  V30 8186 C 763.948 -1.0813 1.70741 0
M  V30 8187 C 764.269 -1.89165 0.473461 0
M  V30 8188 O 763.539 -1.89075 -0.512605 0
M  V30 8189 H 762.119 -0.40219 0.629486 0
M  V30 8190 H 764.781 -0.384426 1.91071 0
M  V30 8191 H 763.877 -1.7585 2.57843 0
M  V30 8192 N 764.178 -1.45556 -0.604258 0
M  V30 8193 C 765.108 -1.57327 -1.72541 0
M  V30 8194 C 766.089 -0.424637 -1.64714 0
M  V30 8195 O 767.274 -0.648196 -1.83063 0
M  V30 8196 C 764.404 -1.54279 -3.11152 0
M  V30 8197 C 763.358 -2.67893 -3.33792 0
M  V30 8198 C 762.684 -2.499 -4.72709 0
M  V30 8199 C 763.984 -4.0988 -3.23722 0
M  V30 8200 H 765.678 -2.51175 -1.62947 0
M  V30 8201 H 763.224 -1.20884 -0.782504 0
M  V30 8202 H 765.177 -1.6111 -3.89386 0
M  V30 8203 H 763.901 -0.569627 -3.21594 0
M  V30 8204 H 762.56 -2.60495 -2.57949 0
M  V30 8205 H 762.208 -1.50715 -4.79889 0
M  V30 8206 H 761.908 -3.26091 -4.88813 0
M  V30 8207 H 763.432 -2.5859 -5.5314 0
M  V30 8208 H 764.846 -4.18503 -3.91826 0
M  V30 8209 H 763.243 -4.86487 -3.51355 0
M  V30 8210 H 764.313 -4.31553 -2.21111 0
M  V30 8211 N 765.656 0.84705 -1.32902 0
M  V30 8212 C 766.904 1.5986 -1.2365 0
M  V30 8213 C 767.225 1.93974 0.199789 0
M  V30 8214 O 766.495 1.60273 1.12648 0
M  V30 8215 H 765.075 0.592696 -0.454665 0
M  V30 8216 H 767.737 1.01278 -1.66519 0
M  V30 8217 H 766.833 2.53218 -1.82448 0
M  V30 8218 N 767.134 1.16236 1.06428 0
M  V30 8219 C 768.382 0.941171 1.78847 0
M  V30 8220 C 768.703 -0.53248 1.87589 0
M  V30 8221 O 767.973 -1.38686 1.38358 0
M  V30 8222 H 766.553 0.345228 0.66244 0
M  V30 8223 H 769.215 1.46479 1.28569 0
M  V30 8224 H 768.311 1.35871 2.80972 0
M  V30 8225 N 768.612 -1.24939 0.960631 0
M  V30 8226 C 769.545 -2.24116 0.429804 0
M  V30 8227 C 770.523 -1.54972 -0.492188 0
M  V30 8228 O 771.707 -1.83642 -0.42519 0
M  V30 8229 C 768.834 -3.36558 -0.380312 0
M  V30 8230 C 767.88 -4.23757 0.482941 0
M  V30 8231 S 768.713 -4.9994 1.91885 0
M  V30 8232 C 769.869 -6.15846 1.11732 0
M  V30 8233 H 770.102 -2.68795 1.27029 0
M  V30 8234 H 767.635 -1.34108 0.765141 0
M  V30 8235 H 769.593 -4.01777 -0.841764 0
M  V30 8236 H 768.254 -2.90451 -1.19569 0
M  V30 8237 H 767.447 -5.03809 -0.138699 0
M  V30 8238 H 767.049 -3.63504 0.879839 0
M  V30 8239 H 769.341 -6.76495 0.368898 0
M  V30 8240 H 770.284 -6.82356 1.89198 0
M  V30 8241 H 770.692 -5.60805 0.644812 0
M  V30 8242 N 770.09 -0.729906 -1.39679 0
M  V30 8243 C 771.315 -0.284345 -2.05442 0
M  V30 8244 C 771.74 1.07056 -1.54663 0
M  V30 8245 O 771.098 1.67732 -0.688157 0
M  V30 8246 C 771.146 -0.290089 -3.59431 0
M  V30 8247 O 770.25 0.723978 -4.05995 0
M  V30 8248 H 769.591 -0.130311 -0.651088 0
M  V30 8249 H 772.121 -0.994403 -1.78809 0
M  V30 8250 H 772.131 -0.132712 -4.07784 0
M  V30 8251 H 770.806 -1.27877 -3.95753 0
M  V30 8252 H 769.383 0.533154 -3.69069 0
M  V30 8253 N 771.568 1.50203 -0.477153 0
M  V30 8254 C 772.793 2.07263 0.0754986 0
M  V30 8255 C 773.218 1.33801 1.32208 0
M  V30 8256 O 772.576 0.387482 1.77111 0
M  V30 8257 C 772.624 3.59028 0.336348 0
M  V30 8258 O 771.728 3.87339 1.4157 0
M  V30 8259 H 771.069 0.663815 -0.015662 0
M  V30 8260 H 773.599 1.93321 -0.669936 0
M  V30 8261 H 773.609 4.03927 0.575034 0
M  V30 8262 H 772.284 4.11912 -0.574551 0
M  V30 8263 H 770.861 3.54272 1.16385 0
M  V30 8264 N 773.046 0.209999 1.56195 0
M  V30 8265 C 773.993 -0.704854 2.19774 0
M  V30 8266 C 774.963 -1.19886 1.14964 0
M  V30 8267 O 776.148 -1.26005 1.43274 0
M  V30 8268 C 773.288 -1.91241 2.87265 0
M  V30 8269 C 772.401 -1.45838 4.06639 0
M  V30 8270 C 771.536 -2.6226 4.61945 0
M  V30 8271 C 770.575 -2.13537 5.73645 0
M  V30 8272 N 769.712 -3.2319 6.23292 0
M  V30 8273 H 774.552 -0.155944 2.97592 0
M  V30 8274 H 772.089 -0.0652235 1.46955 0
M  V30 8275 H 774.047 -2.62123 3.24573 0
M  V30 8276 H 772.677 -2.43439 2.11985 0
M  V30 8277 H 771.729 -0.644897 3.74894 0
M  V30 8278 H 773.041 -1.06103 4.87384 0
M  V30 8279 H 772.195 -3.41243 5.01636 0
M  V30 8280 H 770.934 -3.05278 3.80338 0
M  V30 8281 H 769.939 -1.33013 5.33468 0
M  V30 8282 H 771.164 -1.71533 6.57079 0
M  V30 8283 H 769.11 -3.65711 5.44602 0
M  V30 8284 H 769.027 -2.8767 6.99129 0
M  V30 8285 H 770.295 -4.02342 6.67639 0
M  V30 8286 N 774.524 -1.57472 -0.0634922 0
M  V30 8287 C 775.94 -1.54016 -0.418466 0
M  V30 8288 C 776.14 -0.931376 -1.78683 0
M  V30 8289 O 775.196 -0.537465 -2.46714 0
M  V30 8290 C 776.509 -2.98634 -0.351906 0
M  V30 8291 C 778.057 -3.10012 -0.431494 0
M  V30 8292 C 778.532 -4.56296 -0.394754 0
M  V30 8293 N 780.023 -4.60964 -0.454583 0
M  V30 8294 C 780.758 -5.71643 -0.448501 0
M  V30 8295 N 780.254 -6.91663 -0.396742 0
M  V30 8296 N 782.047 -5.5991 -0.495677 0
M  V30 8297 H 774.198 -1.95409 0.832408 0
M  V30 8298 H 776.461 -0.894769 0.313197 0
M  V30 8299 H 776.167 -3.46766 0.587048 0
M  V30 8300 H 776.041 -3.58955 -1.15893 0
M  V30 8301 H 778.428 -2.61848 -1.36087 0
M  V30 8302 H 778.509 -2.52585 0.404258 0
M  V30 8303 H 778.153 -5.05119 0.530811 0
M  V30 8304 H 778.083 -5.11594 -1.24815 0
M  V30 8305 H 780.574 -3.74598 -0.498496 0
M  V30 8306 H 780.887 -7.71783 -0.396256 0
M  V30 8307 H 779.232 -6.9405 -0.363304 0
M  V30 8308 H 782.423 -4.65046 -0.533864 0
M  V30 8309 H 782.596 -6.46164 -0.487469 0
M  V30 8310 N 776.003 0.335068 -1.53997 0
M  V30 8311 C 777.252 1.07182 -1.70865 0
M  V30 8312 C 777.565 1.89541 -0.483078 0
M  V30 8313 O 778.771 2.66219 -0.532879 0
M  V30 8314 C 777.227 1.95497 -3.02174 0
M  V30 8315 C 776.835 1.18304 -4.32097 0
M  V30 8316 C 778.579 2.68978 -3.28407 0
M  V30 8317 C 776.486 2.05699 -5.54474 0
M  V30 8318 H 775.416 0.403857 -0.636722 0
M  V30 8319 H 778.067 0.33076 -1.80494 0
M  V30 8320 H 776.449 2.73456 -2.86423 0
M  V30 8321 H 777.623 0.451969 -4.58578 0
M  V30 8322 H 775.938 0.565556 -4.12541 0
M  V30 8323 H 778.535 3.34651 -4.17029 0
M  V30 8324 H 778.878 3.36 -2.45784 0
M  V30 8325 H 779.411 1.98087 -3.44973 0
M  V30 8326 H 776.15 1.43204 -6.39666 0
M  V30 8327 H 775.67 2.76572 -5.32229 0
M  V30 8328 H 777.349 2.64554 -5.90441 0
M  V30 8329 N 777.481 1.45874 0.596531 0
M  V30 8330 C 778.709 1.54013 1.38158 0
M  V30 8331 C 779.124 0.17648 1.87973 0
M  V30 8332 O 778.481 -0.823895 1.62844 0
M  V30 8333 C 778.532 2.53363 2.57855 0
M  V30 8334 O 778.253 3.8443 2.10108 0
M  V30 8335 C 779.754 2.71308 3.50581 0
M  V30 8336 H 776.974 0.521251 0.422538 0
M  V30 8337 H 779.518 1.9116 0.726493 0
M  V30 8338 H 777.673 2.19257 3.19382 0
M  V30 8339 H 778.087 4.38384 2.87958 0
M  V30 8340 H 779.561 3.44776 4.31084 0
M  V30 8341 H 780.038 1.77728 4.01633 0
M  V30 8342 H 780.644 3.06455 2.94899 0
M  V30 8343 N 778.959 -0.83999 1.33349 0
M  V30 8344 C 780.208 -1.59011 1.2409 0
M  V30 8345 C 780.521 -1.94655 -0.192029 0
M  V30 8346 O 781.727 -2.68438 -0.406617 0
M  V30 8347 C 780.183 -2.86801 2.17425 0
M  V30 8348 C 779.791 -2.58525 3.65881 0
M  V30 8349 C 781.535 -3.64823 2.17036 0
M  V30 8350 C 779.442 -3.82404 4.51133 0
M  V30 8351 H 778.372 -0.596731 0.460899 0
M  V30 8352 H 781.023 -0.926274 1.58406 0
M  V30 8353 H 779.405 -3.54719 1.7604 0
M  V30 8354 H 780.579 -1.98824 4.15699 0
M  V30 8355 H 778.894 -1.93808 3.68548 0
M  V30 8356 H 781.491 -4.56774 2.7796 0
M  V30 8357 H 781.834 -3.99663 1.16513 0
M  V30 8358 H 782.367 -3.03826 2.56777 0
M  V30 8359 H 779.106 -3.52696 5.52527 0
M  V30 8360 H 778.626 -4.41447 4.0606 0
M  V30 8361 H 780.305 -4.49995 4.6488 0
M  V30 8362 N 780.437 -1.16799 -1.0581 0
M  V30 8363 C 781.385 -0.875111 -2.1551 0
M  V30 8364 C 782.379 0.157781 -1.68664 0
M  V30 8365 O 783.585 0.011297 -1.79996 0
M  V30 8366 H 779.96 -0.26542 -0.703602 0
M  V30 8367 H 781.931 -1.8076 -2.37421 0
M  V30 8368 C 780.68 -0.39802 -3.45414 0
M  V30 8369 H 780.003 -1.18425 -3.81858 0
M  V30 8370 H 781.443 -0.231913 -4.23365 0
M  V30 8371 C 779.902 0.88327 -3.25115 0
M  V30 8372 O 780.432 1.95145 -3.51114 0
M  V30 8373 N 778.638 0.828961 -2.78526 0
M  V30 8374 H 778.185 -0.0405029 -2.57568 0
M  V30 8375 H 778.143 1.68673 -2.65324 0
M  V30 8376 N 781.915 1.24427 -0.967243 0
M  V30 8377 C 782.862 2.25398 -0.496419 0
M  V30 8378 C 783.832 1.59667 0.457781 0
M  V30 8379 O 785.017 1.87213 0.368246 0
M  V30 8380 C 782.157 3.44474 0.207693 0
M  V30 8381 C 781.27 4.24804 -0.785221 0
M  V30 8382 C 780.405 5.31169 -0.0572631 0
M  V30 8383 C 779.444 6.03195 -1.04027 0
M  V30 8384 N 778.581 7.01265 -0.34235 0
M  V30 8385 H 783.421 2.65039 -1.36229 0
M  V30 8386 H 780.958 1.30288 -0.682902 0
M  V30 8387 H 782.916 4.12376 0.632612 0
M  V30 8388 H 781.546 3.05672 1.03752 0
M  V30 8389 H 780.598 3.56445 -1.32858 0
M  V30 8390 H 781.91 4.74599 -1.53483 0
M  V30 8391 H 781.064 6.05205 0.425674 0
M  V30 8392 H 779.803 4.8228 0.725047 0
M  V30 8393 H 778.808 5.27964 -1.53409 0
M  V30 8394 H 780.033 6.54173 -1.82302 0
M  V30 8395 H 777.979 6.54648 0.420993 0
M  V30 8396 H 777.896 7.48939 -1.03084 0
M  V30 8397 H 779.164 7.7941 0.118634 0
M  V30 8398 N 783.393 0.737304 1.3929 0
M  V30 8399 C 784.642 0.283129 1.99703 0
M  V30 8400 C 784.955 -1.13677 1.59176 0
M  V30 8401 O 786.161 -1.69058 2.12442 0
M  V30 8402 C 784.617 0.455262 3.57009 0
M  V30 8403 C 784.225 1.88319 4.06497 0
M  V30 8404 C 785.969 0.0629786 4.24453 0
M  V30 8405 C 783.876 2.00475 5.56385 0
M  V30 8406 H 782.806 0.102106 0.747054 0
M  V30 8407 H 785.457 0.911515 1.5926 0
M  V30 8408 H 783.839 -0.242057 3.9526 0
M  V30 8409 H 785.013 2.61265 3.79575 0
M  V30 8410 H 783.328 2.2289 3.51723 0
M  V30 8411 H 785.925 0.132787 5.34535 0
M  V30 8412 H 786.268 -0.982128 4.04549 0
M  V30 8413 H 786.801 0.71154 3.91385 0
M  V30 8414 H 783.54 3.03182 5.81172 0
M  V30 8415 H 783.06 1.31969 5.85102 0
M  V30 8416 H 784.739 1.787 6.21832 0
M  V30 8417 N 784.871 -1.49948 0.485112 0
M  V30 8418 C 785.801 -2.31675 -0.291364 0
M  V30 8419 C 786.782 -1.39216 -0.977383 0
M  V30 8420 O 787.967 -1.68133 -0.971855 0
M  V30 8421 C 785.097 -3.19326 -1.36558 0
M  V30 8422 C 784.051 -4.2045 -0.800359 0
M  V30 8423 C 783.377 -4.96931 -1.97391 0
M  V30 8424 C 784.677 -5.21925 0.197867 0
M  V30 8425 H 786.371 -2.96839 0.390775 0
M  V30 8426 H 783.917 -1.42749 0.189375 0
M  V30 8427 H 785.87 -3.75304 -1.91638 0
M  V30 8428 H 784.594 -2.52074 -2.07668 0
M  V30 8429 H 783.253 -3.65594 -0.271428 0
M  V30 8430 H 782.901 -4.26141 -2.67232 0
M  V30 8431 H 782.601 -5.65344 -1.60187 0
M  V30 8432 H 784.125 -5.55749 -2.52935 0
M  V30 8433 H 785.539 -5.72691 -0.264239 0
M  V30 8434 H 783.936 -5.98138 0.484908 0
M  V30 8435 H 785.006 -4.71809 1.11912 0
M  V30 8436 N 786.349 -0.21828 -1.56081 0
M  V30 8437 C 787.574 0.422302 -2.03055 0
M  V30 8438 C 787.999 1.5279 -1.09713 0
M  V30 8439 O 787.357 1.81102 -0.0847187 0
M  V30 8440 C 787.405 0.934177 -3.48289 0
M  V30 8441 O 786.509 2.04574 -3.58083 0
M  V30 8442 H 785.85 0.0959764 -0.657027 0
M  V30 8443 H 788.38 -0.335958 -2.01823 0
M  V30 8444 H 788.39 1.24484 -3.88546 0
M  V30 8445 H 787.065 0.124963 -4.15712 0
M  V30 8446 H 785.642 1.74196 -3.29712 0
M  V30 8447 N 787.827 1.57504 0.0551401 0
M  V30 8448 C 788.775 2.05884 1.08233 0
M  V30 8449 C 789.769 0.967383 1.39061 0
M  V30 8450 O 790.975 1.15242 1.38273 0
M  V30 8451 H 787.35 0.656673 0.366449 0
M  V30 8452 H 789.321 2.91273 0.648269 0
M  V30 8453 C 788.07 2.53221 2.38273 0
M  V30 8454 H 787.393 3.36809 2.15406 0
M  V30 8455 H 788.833 2.9081 3.08554 0
M  V30 8456 C 787.292 1.42218 3.05411 0
M  V30 8457 O 787.822 0.773638 3.9418 0
M  V30 8458 N 786.028 1.16316 2.66306 0
M  V30 8459 H 785.575 1.69237 1.94207 0
M  V30 8460 H 785.533 0.422534 3.11548 0
M  V30 8461 N 789.305 -0.326896 1.54172 0
M  V30 8462 C 790.215 -1.42525 1.86343 0
M  V30 8463 C 791.231 -1.56764 0.75505 0
M  V30 8464 O 792.407 -1.71924 1.04901 0
M  V30 8465 C 789.472 -2.77286 2.08119 0
M  V30 8466 C 788.533 -2.7225 3.31931 0
M  V30 8467 C 787.766 -4.00584 3.52659 0
M  V30 8468 O 787.989 -4.98686 2.76891 0
M  V30 8469 O 786.923 -4.04045 4.46129 0
M  V30 8470 H 790.749 -1.18249 2.79734 0
M  V30 8471 H 788.334 -0.520614 1.40036 0
M  V30 8472 H 790.216 -3.57065 2.23791 0
M  V30 8473 H 788.891 -3.01459 1.17917 0
M  V30 8474 H 787.798 -1.91033 3.21647 0
M  V30 8475 H 789.131 -2.53032 4.2218 0
M  V30 8476 N 790.784 -1.46188 -0.588786 0
M  V30 8477 C 792.009 -1.5498 -1.37826 0
M  V30 8478 C 792.434 -0.189498 -1.87143 0
M  V30 8479 O 791.792 0.829293 -1.61222 0
M  V30 8480 C 791.84 -2.55369 -2.54596 0
M  V30 8481 O 790.944 -2.08452 -3.55839 0
M  V30 8482 H 790.285 -0.521741 -0.41071 0
M  V30 8483 H 792.815 -1.91708 -0.714779 0
M  V30 8484 H 792.825 -2.74782 -3.01594 0
M  V30 8485 H 791.5 -3.54155 -2.18052 0
M  V30 8486 H 790.077 -1.98999 -3.15363 0
M  V30 8487 N 792.262 0.832906 -1.33792 0
M  V30 8488 C 793.192 1.95828 -1.27176 0
M  V30 8489 C 794.173 1.69427 -0.15114 0
M  V30 8490 O 795.358 1.91167 -0.341886 0
M  V30 8491 C 792.488 3.32098 -1.01629 0
M  V30 8492 C 791.442 3.72912 -2.10049 0
M  V30 8493 C 790.768 5.07054 -1.69706 0
M  V30 8494 C 792.068 3.86064 -3.51783 0
M  V30 8495 H 793.762 2.01622 -2.21334 0
M  V30 8496 H 791.308 0.96866 -1.0655 0
M  V30 8497 H 793.261 4.10402 -0.956474 0
M  V30 8498 H 791.985 3.26577 -0.0390956 0
M  V30 8499 H 790.644 2.96876 -2.15082 0
M  V30 8500 H 790.292 4.9801 -0.706737 0
M  V30 8501 H 789.992 5.35333 -2.42264 0
M  V30 8502 H 791.516 5.87827 -1.65202 0
M  V30 8503 H 792.93 4.54665 -3.49218 0
M  V30 8504 H 791.327 4.25787 -4.22878 0
M  V30 8505 H 792.397 2.88344 -3.89854 0
M  V30 8506 N 793.74 1.17359 1.05189 0
M  V30 8507 C 794.986 0.963413 1.78455 0
M  V30 8508 C 795.319 -0.506703 1.87473 0
M  V30 8509 O 794.594 -1.37611 1.37453 0
M  V30 8510 C 794.877 1.60519 3.22344 0
M  V30 8511 C 794.73 3.14741 3.21338 0
M  V30 8512 C 796.049 1.3091 4.20179 0
M  V30 8513 H 793.168 0.351412 0.647826 0
M  V30 8514 H 795.81 1.44858 1.22948 0
M  V30 8515 H 793.96 1.19265 3.69741 0
M  V30 8516 H 795.632 3.65053 2.82017 0
M  V30 8517 H 793.875 3.4749 2.59679 0
M  V30 8518 H 794.546 3.54775 4.22894 0
M  V30 8519 H 797.022 1.66635 3.81277 0
M  V30 8520 H 795.898 1.784 5.191 0
M  V30 8521 H 796.159 0.229908 4.41502 0
M  V30 8522 N 795.218 -1.23913 0.973828 0
M  V30 8523 C 796.15 -2.24397 0.466763 0
M  V30 8524 C 797.163 -1.57078 -0.427828 0
M  V30 8525 O 798.352 -1.76973 -0.233019 0
M  V30 8526 C 795.452 -3.37141 -0.344798 0
M  V30 8527 C 794.625 -4.34037 0.541349 0
M  V30 8528 C 793.684 -5.2576 -0.215243 0
M  V30 8529 O 792.71 -5.67842 0.39291 0
M  V30 8530 N 793.912 -5.60702 -1.5031 0
M  V30 8531 H 796.677 -2.68536 1.33074 0
M  V30 8532 H 794.238 -1.38017 0.846346 0
M  V30 8533 H 796.23 -3.95476 -0.859133 0
M  V30 8534 H 794.8 -2.92239 -1.10974 0
M  V30 8535 H 794.02 -3.74302 1.23659 0
M  V30 8536 H 795.308 -4.95738 1.1455 0
M  V30 8537 H 794.706 -5.28451 -2.01882 0
M  V30 8538 H 793.263 -6.21538 -1.96301 0
M  V30 8539 N 796.696 -0.74468 -1.38897 0
M  V30 8540 C 797.606 -0.112892 -2.34328 0
M  V30 8541 C 798.622 0.71087 -1.58816 0
M  V30 8542 O 799.798 0.637092 -1.91058 0
M  V30 8543 C 796.863 0.776417 -3.37894 0
M  V30 8544 C 795.924 -0.0606999 -4.29257 0
M  V30 8545 C 795.157 0.786258 -5.27877 0
M  V30 8546 O 795.38 2.02463 -5.33259 0
M  V30 8547 O 794.314 0.209781 -6.01534 0
M  V30 8548 H 798.14 -0.900801 -2.90033 0
M  V30 8549 H 795.725 -0.505462 -1.4059 0
M  V30 8550 H 797.607 1.28496 -4.01331 0
M  V30 8551 H 796.282 1.54297 -2.84559 0
M  V30 8552 H 795.189 -0.614984 -3.69011 0
M  V30 8553 H 796.522 -0.789702 -4.85824 0
M  V30 8554 N 798.174 1.49689 -0.493057 0
M  V30 8555 C 799.122 2.30613 0.303383 0
M  V30 8556 C 800.116 1.38867 0.970165 0
M  V30 8557 O 801.322 1.55956 0.898761 0
M  V30 8558 H 797.697 0.742891 0.116691 0
M  V30 8559 H 799.668 2.95717 -0.39924 0
M  V30 8560 C 798.417 3.20008 1.35978 0
M  V30 8561 H 797.74 3.90526 0.856103 0
M  V30 8562 H 799.18 3.79586 1.88919 0
M  V30 8563 C 797.639 2.39079 2.37367 0
M  V30 8564 O 798.169 2.08933 3.43089 0
M  V30 8565 N 796.375 2.0125 2.09635 0
M  V30 8566 H 795.922 2.25966 1.23682 0
M  V30 8567 H 795.88 1.47408 2.77702 0
M  V30 8568 N 799.652 0.226554 1.55963 0
M  V30 8569 C 800.582 -0.676079 2.23498 0
M  V30 8570 C 801.563 -1.19718 1.20837 0
M  V30 8571 O 802.748 -1.24027 1.49436 0
M  V30 8572 C 799.878 -1.88217 2.91876 0
M  V30 8573 C 798.832 -1.4947 4.01052 0
M  V30 8574 C 798.158 -2.77997 4.56751 0
M  V30 8575 C 799.458 -0.680951 5.17842 0
M  V30 8576 H 801.152 -0.112989 2.99187 0
M  V30 8577 H 798.698 -0.0529046 1.43903 0
M  V30 8578 H 800.651 -2.51911 3.37815 0
M  V30 8579 H 799.375 -2.47031 2.13643 0
M  V30 8580 H 798.034 -0.881199 3.55852 0
M  V30 8581 H 797.682 -3.34966 3.75243 0
M  V30 8582 H 797.382 -2.52803 5.30438 0
M  V30 8583 H 798.906 -3.42625 5.05411 0
M  V30 8584 H 800.32 -1.22171 5.60131 0
M  V30 8585 H 798.717 -0.525898 5.97791 0
M  V30 8586 H 799.787 0.311346 4.83899 0
M  V30 8587 N 801.13 -1.57531 -0.0467866 0
M  V30 8588 C 802.36 -1.92417 -0.752279 0
M  V30 8589 C 802.768 -0.823134 -1.70356 0
M  V30 8590 O 802.111 0.210598 -1.82489 0
M  V30 8591 C 802.173 -3.22974 -1.57887 0
M  V30 8592 C 801.837 -4.50045 -0.794285 0
M  V30 8593 C 802.834 -5.19799 -0.102368 0
M  V30 8594 C 800.519 -4.96608 -0.754061 0
M  V30 8595 C 802.513 -6.34385 0.619267 0
M  V30 8596 C 800.2 -6.11093 -0.0286682 0
M  V30 8597 C 801.198 -6.79835 0.656772 0
M  V30 8598 O 800.886 -7.92133 1.37042 0
M  V30 8599 H 800.618 -0.640029 -0.217576 0
M  V30 8600 H 803.172 -2.05395 -0.0137438 0
M  V30 8601 H 801.402 -3.06273 -2.3608 0
M  V30 8602 H 803.091 -3.43319 -2.16533 0
M  V30 8603 H 803.857 -4.8484 -0.124589 0
M  V30 8604 H 799.736 -4.42958 -1.27706 0
M  V30 8605 H 803.28 -6.87975 1.15483 0
M  V30 8606 H 799.177 -6.455 -0.00446214 0
M  V30 8607 H 799.945 -8.08394 1.28227 0
M  V30 8608 N 802.608 0.318715 -1.54344 0
M  V30 8609 C 803.855 1.05608 -1.72781 0
M  V30 8610 C 804.183 1.87854 -0.504083 0
M  V30 8611 O 803.438 1.88826 0.51414 0
M  V30 8612 C 803.737 2.00514 -2.95853 0
M  V30 8613 C 803.403 1.34385 -4.30409 0
M  V30 8614 C 802.065 1.16081 -4.66989 0
M  V30 8615 C 804.417 0.869627 -5.13894 0
M  V30 8616 C 801.745 0.490114 -5.84649 0
M  V30 8617 C 804.097 0.212735 -6.32242 0
M  V30 8618 C 802.761 0.0175882 -6.67498 0
M  V30 8619 H 802.031 0.386449 -0.632249 0
M  V30 8620 H 804.678 0.332729 -1.88587 0
M  V30 8621 H 802.983 2.79317 -2.74753 0
M  V30 8622 H 804.68 2.57605 -3.07312 0
M  V30 8623 H 801.27 1.49634 -4.01631 0
M  V30 8624 H 805.454 0.998809 -4.86146 0
M  V30 8625 H 800.71 0.327767 -6.10521 0
M  V30 8626 H 804.884 -0.162699 -6.9621 0
M  V30 8627 H 802.511 -0.504137 -7.58527 0
M  V30 8628 N 804.086 1.46499 0.581025 0
M  V30 8629 C 805.018 1.53225 1.70455 0
M  V30 8630 C 806.031 0.420443 1.57277 0
M  V30 8631 O 807.22 0.688888 1.64671 0
M  V30 8632 C 804.32 1.39803 3.08721 0
M  V30 8633 C 803.493 2.65132 3.47884 0
M  V30 8634 C 802.552 2.45886 4.65217 0
M  V30 8635 O 801.578 3.19615 4.70993 0
M  V30 8636 N 802.78 1.5216 5.60203 0
M  V30 8637 H 805.545 2.50098 1.65139 0
M  V30 8638 H 803.106 1.42576 0.76705 0
M  V30 8639 H 805.098 1.24697 3.8501 0
M  V30 8640 H 803.668 0.51104 3.08394 0
M  V30 8641 H 802.888 2.95169 2.61284 0
M  V30 8642 H 804.176 3.48385 3.70817 0
M  V30 8643 H 803.574 0.913646 5.58273 0
M  V30 8644 H 802.131 1.43017 6.35916 0
M  V30 8645 N 805.565 -0.825799 1.34232 0
M  V30 8646 C 806.981 -1.11848 1.13851 0
M  V30 8647 C 807.181 -2.01405 -0.0619031 0
M  V30 8648 O 806.237 -2.41465 -0.738287 0
M  V30 8649 C 807.55 -1.76797 2.43235 0
M  V30 8650 C 809.098 -1.89304 2.49265 0
M  V30 8651 C 809.573 -2.57669 3.78643 0
M  V30 8652 N 811.064 -2.65171 3.79788 0
M  V30 8653 C 811.799 -3.1879 4.76614 0
M  V30 8654 N 811.295 -3.72995 5.83821 0
M  V30 8655 N 813.088 -3.17164 4.64073 0
M  V30 8656 H 805.239 -0.230049 2.11151 0
M  V30 8657 H 807.502 -0.164609 0.9336 0
M  V30 8658 H 807.208 -1.18455 3.31152 0
M  V30 8659 H 807.082 -2.76693 2.56361 0
M  V30 8660 H 809.469 -2.46796 1.6179 0
M  V30 8661 H 809.55 -0.883191 2.4007 0
M  V30 8662 H 809.194 -2.00833 4.66507 0
M  V30 8663 H 809.124 -3.59152 3.8512 0
M  V30 8664 H 811.615 -2.26746 3.02315 0
M  V30 8665 H 811.928 -4.12151 6.53721 0
M  V30 8666 H 810.273 -3.71246 5.87538 0
M  V30 8667 H 813.464 -2.74082 3.79469 0
M  V30 8668 H 813.637 -3.58647 5.397 0
M  V30 8669 N 807.043 -1.17915 -1.04565 0
M  V30 8670 C 808.283 -0.982331 -1.79247 0
M  V30 8671 C 808.647 0.47998 -1.85904 0
M  V30 8672 O 809.848 0.796078 -2.56741 0
M  V30 8673 C 808.119 -1.61329 -3.18916 0
M  V30 8674 S 809.678 -1.56355 -4.09998 0
M  V30 8675 H 806.496 -0.352869 -0.617256 0
M  V30 8676 H 809.098 -1.49971 -1.25415 0
M  V30 8677 H 807.802 -2.66993 -3.11678 0
M  V30 8678 H 807.333 -1.09599 -3.77825 0
M  V30 8679 H 809.348 -0.57593 -4.92846 0
M  V30 8680 N 808.521 1.23394 -0.980386 0
M  V30 8681 C 809.451 2.2717 -0.540024 0
M  V30 8682 C 810.432 1.64659 0.426787 0
M  V30 8683 O 811.617 1.91543 0.320153 0
M  V30 8684 C 808.747 3.46939 0.15836 0
M  V30 8685 C 807.701 4.21802 -0.725732 0
M  V30 8686 C 807.027 5.34597 0.104866 0
M  V30 8687 C 808.327 4.81802 -2.01654 0
M  V30 8688 H 810.021 2.64257 -1.40743 0
M  V30 8689 H 807.567 1.2703 -0.678193 0
M  V30 8690 H 809.52 4.18683 0.477737 0
M  V30 8691 H 808.244 3.08912 1.06022 0
M  V30 8692 H 806.903 3.51875 -1.02857 0
M  V30 8693 H 806.551 4.92812 1.00726 0
M  V30 8694 H 806.251 5.85607 -0.483557 0
M  V30 8695 H 807.775 6.09163 0.418624 0
M  V30 8696 H 809.189 5.45554 -1.76193 0
M  V30 8697 H 807.586 5.43098 -2.55273 0
M  V30 8698 H 808.656 4.02549 -2.70338 0
M  V30 8699 N 809.999 0.752036 1.385 0
M  V30 8700 C 811.276 0.233075 1.94206 0
M  V30 8701 C 811.656 -1.26838 1.68746 0
M  V30 8702 O 811.004 -2.04214 1.02513 0
M  V30 8703 C 811.214 0.58509 3.44061 0
M  V30 8704 C 812.562 0.543871 4.21102 0
M  V30 8705 O 813.586 0.523291 3.52335 0
M  V30 8706 O 812.445 0.553436 5.4369 0
M  V30 8707 H 809.539 0.0483049 0.825588 0
M  V30 8708 H 812.085 0.832053 1.47902 0
M  V30 8709 H 810.857 1.62212 3.56094 0
M  V30 8710 H 810.48 -0.0419738 3.97578 0
M  V30 8711 N 811.477 -1.49425 0.500989 0
M  V30 8712 C 812.723 -2.03369 -0.0355945 0
M  V30 8713 C 813.078 -1.37387 -1.34694 0
M  V30 8714 O 812.371 -0.500516 -1.84947 0
M  V30 8715 C 812.565 -3.56562 -0.24463 0
M  V30 8716 C 812.394 -4.37392 1.04491 0
M  V30 8717 C 811.164 -4.7941 1.59669 0
M  V30 8718 C 813.362 -4.75974 1.94817 0
M  V30 8719 N 811.344 -5.44668 2.83214 0
M  V30 8720 C 812.715 -5.4095 3.0294 0
M  V30 8721 C 814.77 -4.57915 1.95495 0
M  V30 8722 C 813.473 -5.89779 4.11768 0
M  V30 8723 C 815.499 -5.07705 3.03298 0
M  V30 8724 C 814.861 -5.72682 4.1014 0
M  V30 8725 H 810.96 -0.781507 0.0277547 0
M  V30 8726 H 813.544 -1.82594 0.675844 0
M  V30 8727 H 811.715 -3.77221 -0.925126 0
M  V30 8728 H 813.447 -3.97147 -0.778219 0
M  V30 8729 H 810.202 -4.59629 1.14185 0
M  V30 8730 H 810.626 -5.81884 3.46035 0
M  V30 8731 H 815.268 -4.07085 1.14199 0
M  V30 8732 H 812.986 -6.3963 4.93862 0
M  V30 8733 H 816.572 -4.95542 3.04843 0
M  V30 8734 H 815.452 -6.10512 4.92184 0
M  V30 8735 N 812.955 -0.234822 -1.55841 0
M  V30 8736 C 813.903 0.686145 -2.22249 0
M  V30 8737 C 814.897 1.18948 -1.20614 0
M  V30 8738 O 816.103 1.14777 -1.38659 0
M  V30 8739 H 812.478 0.239724 -0.712767 0
M  V30 8740 H 814.449 0.102762 -2.98223 0
M  V30 8741 C 813.198 1.8776 -2.92646 0
M  V30 8742 H 812.521 1.49943 -3.70617 0
M  V30 8743 H 813.961 2.4995 -3.42493 0
M  V30 8744 C 812.42 2.74127 -1.95847 0
M  V30 8745 O 812.95 3.7329 -1.48384 0
M  V30 8746 N 811.156 2.4044 -1.63209 0
M  V30 8747 H 810.703 1.59854 -2.02001 0
M  V30 8748 H 810.661 2.98504 -0.987063 0
M  V30 8749 N 814.433 1.57553 0.0384317 0
M  V30 8750 C 815.849 1.54663 0.39391 0
M  V30 8751 C 816.049 0.959685 1.77179 0
M  V30 8752 O 815.105 0.576647 2.45827 0
M  V30 8753 C 816.418 2.99156 0.304352 0
M  V30 8754 C 817.966 3.10659 0.382119 0
M  V30 8755 C 818.441 4.56866 0.322111 0
M  V30 8756 N 819.932 4.61629 0.38119 0
M  V30 8757 C 820.667 5.72284 0.357501 0
M  V30 8758 N 820.163 6.92207 0.286654 0
M  V30 8759 N 821.956 5.60628 0.406538 0
M  V30 8760 H 814.107 1.9406 -0.86339 0
M  V30 8761 H 816.37 0.889673 -0.327392 0
M  V30 8762 H 816.076 3.45788 -0.642141 0
M  V30 8763 H 815.95 3.60753 1.10168 0
M  V30 8764 H 818.337 2.6398 1.31904 0
M  V30 8765 H 818.418 2.5191 -0.444391 0
M  V30 8766 H 818.062 5.0421 -0.611104 0
M  V30 8767 H 817.992 5.13515 1.1666 0
M  V30 8768 H 820.483 3.75343 0.438838 0
M  V30 8769 H 820.796 7.72316 0.273421 0
M  V30 8770 H 819.141 6.9454 0.252841 0
M  V30 8771 H 822.332 4.65836 0.459812 0
M  V30 8772 H 822.505 6.46858 0.384608 0
M  V30 8773 N 815.911 -0.310526 1.54511 0
M  V30 8774 C 817.188 -1.06593 1.64004 0
M  V30 8775 C 817.568 -2.05519 0.482216 0
M  V30 8776 O 816.916 -2.22455 -0.52212 0
M  V30 8777 C 817.126 -1.75627 3.01589 0
M  V30 8778 C 818.474 -2.28173 3.58081 0
M  V30 8779 O 819.498 -1.85674 3.03979 0
M  V30 8780 O 818.357 -3.06015 4.52788 0
M  V30 8781 H 815.451 -0.492109 0.664649 0
M  V30 8782 H 817.997 -0.309374 1.66856 0
M  V30 8783 H 816.769 -1.03743 3.77297 0
M  V30 8784 H 816.392 -2.58061 3.02473 0
M  V30 8785 N 817.389 -1.46805 -0.573248 0
M  V30 8786 C 818.638 -1.51868 -1.32736 0
M  V30 8787 C 818.951 -0.178765 -1.94781 0
M  V30 8788 O 820.157 -0.107272 -2.71288 0
M  V30 8789 C 818.613 -2.67641 -2.40616 0
M  V30 8790 C 818.221 -4.08094 -1.84832 0
M  V30 8791 C 819.965 -2.81984 -3.17309 0
M  V30 8792 C 817.872 -5.15193 -2.90397 0
M  V30 8793 H 816.802 -0.56523 -0.49903 0
M  V30 8794 H 819.453 -1.7304 -0.610695 0
M  V30 8795 H 817.835 -2.39818 -3.15124 0
M  V30 8796 H 819.009 -4.45751 -1.16803 0
M  V30 8797 H 817.324 -3.985 -1.20775 0
M  V30 8798 H 819.921 -3.59166 -3.96111 0
M  V30 8799 H 820.264 -1.89842 -3.70494 0
M  V30 8800 H 820.797 -3.095 -2.4991 0
M  V30 8801 H 817.536 -6.09158 -2.42088 0
M  V30 8802 H 817.056 -4.82071 -3.56886 0
M  V30 8803 H 818.735 -5.41448 -3.54179 0
M  V30 8804 N 818.867 0.818669 -1.34668 0
M  V30 8805 C 819.797 1.94468 -1.29245 0
M  V30 8806 C 820.778 1.69257 -0.169101 0
M  V30 8807 O 821.963 1.90794 -0.362143 0
M  V30 8808 C 819.093 3.31001 -1.05145 0
M  V30 8809 C 818.047 3.70663 -2.13992 0
M  V30 8810 C 817.373 5.05226 -1.75074 0
M  V30 8811 C 818.673 3.82312 -3.55858 0
M  V30 8812 H 820.367 1.99263 -2.2346 0
M  V30 8813 H 817.913 0.957304 -1.07572 0
M  V30 8814 H 819.866 4.09364 -0.999949 0
M  V30 8815 H 818.59 3.26517 -0.0737312 0
M  V30 8816 H 817.249 2.94578 -2.18219 0
M  V30 8817 H 816.897 4.97233 -0.759518 0
M  V30 8818 H 816.597 5.32734 -2.47928 0
M  V30 8819 H 818.121 5.86042 -1.71427 0
M  V30 8820 H 819.535 4.50935 -3.5402 0
M  V30 8821 H 817.932 4.21278 -4.2737 0
M  V30 8822 H 819.002 2.84193 -3.9289 0
M  V30 8823 N 820.346 1.18468 1.03938 0
M  V30 8824 C 821.293 0.912859 2.1198 0
M  V30 8825 C 822.263 -0.14824 1.65437 0
M  V30 8826 O 823.448 -0.008331 1.90798 0
M  V30 8827 C 820.588 0.446114 3.42204 0
M  V30 8828 C 819.701 1.57278 4.02353 0
M  V30 8829 C 818.836 1.05863 5.20544 0
M  V30 8830 C 817.875 2.1599 5.72726 0
M  V30 8831 N 817.012 1.65959 6.82204 0
M  V30 8832 H 821.852 1.83798 2.34569 0
M  V30 8833 H 819.389 0.916504 1.15059 0
M  V30 8834 H 821.347 0.15697 4.16905 0
M  V30 8835 H 819.977 -0.442025 3.19759 0
M  V30 8836 H 819.029 1.97737 3.24968 0
M  V30 8837 H 820.341 2.40289 4.37107 0
M  V30 8838 H 819.495 0.724087 6.02364 0
M  V30 8839 H 818.234 0.198116 4.87297 0
M  V30 8840 H 817.239 2.50287 4.89527 0
M  V30 8841 H 818.464 3.02479 6.08016 0
M  V30 8842 H 816.41 0.82199 6.5083 0
M  V30 8843 H 816.327 2.42567 7.16029 0
M  V30 8844 H 817.595 1.35436 7.67644 0
M  V30 8845 N 821.824 -1.22873 0.986916 0
M  V30 8846 C 822.771 -2.2458 0.532215 0
M  V30 8847 C 823.741 -1.60375 -0.432322 0
M  V30 8848 O 824.926 -1.87775 -0.338416 0
M  V30 8849 C 822.066 -3.44761 -0.152864 0
M  V30 8850 C 821.179 -4.23501 0.852704 0
M  V30 8851 C 820.314 -5.31011 0.14176 0
M  V30 8852 C 819.353 -6.01464 1.1361 0
M  V30 8853 N 818.49 -7.00631 0.453871 0
M  V30 8854 H 823.33 -2.62838 1.40428 0
M  V30 8855 H 820.867 -1.29185 0.703543 0
M  V30 8856 H 822.825 -4.1333 -0.566926 0
M  V30 8857 H 821.455 -3.07284 -0.988756 0
M  V30 8858 H 820.507 -3.54286 1.38512 0
M  V30 8859 H 821.819 -4.72097 1.61014 0
M  V30 8860 H 820.973 -6.05805 -0.329337 0
M  V30 8861 H 819.712 -4.83373 -0.648229 0
M  V30 8862 H 818.717 -5.25456 1.61789 0
M  V30 8863 H 819.942 -6.5119 1.92686 0
M  V30 8864 H 817.888 -6.55235 -0.316791 0
M  V30 8865 H 817.805 -7.47204 1.14986 0
M  V30 8866 H 819.073 -7.795 0.00537823 0
M  V30 8867 N 823.302 -0.75937 -1.38099 0
M  V30 8868 C 824.212 -0.13774 -2.34195 0
M  V30 8869 C 825.228 0.693985 -1.59561 0
M  V30 8870 O 826.404 0.616792 -1.91723 0
M  V30 8871 C 823.469 0.740535 -3.38699 0
M  V30 8872 C 822.53 -0.106225 -4.29169 0
M  V30 8873 C 821.763 0.730225 -5.28681 0
M  V30 8874 O 821.986 1.96796 -5.35376 0
M  V30 8875 O 820.92 0.145969 -6.01723 0
M  V30 8876 H 824.746 -0.931512 -2.89061 0
M  V30 8877 H 822.331 -0.520345 -1.40046 0
M  V30 8878 H 824.213 1.24232 -4.02672 0
M  V30 8879 H 822.888 1.51271 -2.8618 0
M  V30 8880 H 821.795 -0.654088 -3.68337 0
M  V30 8881 H 823.128 -0.841186 -4.84959 0
M  V30 8882 N 824.78 1.49157 -0.508906 0
M  V30 8883 C 825.71 2.32109 0.254469 0
M  V30 8884 C 826.691 1.40754 0.955111 0
M  V30 8885 O 827.876 1.69658 0.944983 0
M  V30 8886 C 825.006 3.21458 1.3146 0
M  V30 8887 C 823.96 4.2167 0.733368 0
M  V30 8888 C 823.286 5.00009 1.8946 0
M  V30 8889 C 824.586 5.21544 -0.280875 0
M  V30 8890 H 826.28 2.9618 -0.43795 0
M  V30 8891 H 823.826 1.4243 -0.212062 0
M  V30 8892 H 825.779 3.78305 1.85643 0
M  V30 8893 H 824.503 2.55346 2.03632 0
M  V30 8894 H 823.162 3.65979 0.213231 0
M  V30 8895 H 822.81 4.30338 2.60419 0
M  V30 8896 H 822.51 5.67821 1.51173 0
M  V30 8897 H 824.034 5.59702 2.44061 0
M  V30 8898 H 825.448 5.73039 0.173095 0
M  V30 8899 H 823.845 5.97291 -0.580006 0
M  V30 8900 H 824.915 4.69969 -1.19404 0
M  V30 8901 N 826.258 0.243083 1.55714 0
M  V30 8902 C 827.506 -0.381964 1.98458 0
M  V30 8903 C 827.827 -1.58745 1.13247 0
M  V30 8904 O 827.097 -1.94723 0.214384 0
M  V30 8905 H 825.677 -0.144114 0.732967 0
M  V30 8906 H 828.339 0.340985 1.91894 0
M  V30 8907 H 827.435 -0.693702 3.04293 0
M  V30 8908 N 827.736 -1.57571 -0.0300757 0
M  V30 8909 C 828.666 -2.0953 -1.03051 0
M  V30 8910 C 829.647 -0.99761 -1.37774 0
M  V30 8911 O 830.832 -1.27279 -1.46676 0
M  V30 8912 C 827.962 -2.57385 -2.33174 0
M  V30 8913 C 826.916 -3.71409 -2.12696 0
M  V30 8914 C 826.242 -4.05467 -3.4857 0
M  V30 8915 C 827.542 -4.99877 -1.51396 0
M  V30 8916 H 829.236 -2.93367 -0.597999 0
M  V30 8917 H 826.782 -1.41127 -0.286203 0
M  V30 8918 H 828.735 -2.92355 -3.03491 0
M  V30 8919 H 827.459 -1.70629 -2.78484 0
M  V30 8920 H 826.118 -3.36786 -1.44813 0
M  V30 8921 H 825.766 -3.15779 -3.91526 0
M  V30 8922 H 825.466 -4.82269 -3.35694 0
M  V30 8923 H 826.99 -4.4297 -4.2025 0
M  V30 8924 H 828.404 -5.3281 -2.11629 0
M  V30 8925 H 826.801 -5.81283 -1.49098 0
M  V30 8926 H 827.871 -4.82522 -0.479676 0
M  V30 8927 N 829.214 0.302327 -1.54673 0
M  V30 8928 C 830.442 1.05669 -1.77881 0
M  V30 8929 C 830.857 1.80983 -0.537648 0
M  V30 8930 O 830.214 1.7573 0.492467 0
M  V30 8931 C 830.265 2.03828 -2.98557 0
M  V30 8932 O 829.986 1.3157 -4.17877 0
M  V30 8933 C 831.487 2.91314 -3.34143 0
M  V30 8934 H 828.707 0.313436 -0.593295 0
M  V30 8935 H 831.251 0.342003 -2.0162 0
M  V30 8936 H 829.406 2.70801 -2.7703 0
M  V30 8937 H 829.82 1.97481 -4.85903 0
M  V30 8938 H 831.294 3.56042 -4.21827 0
M  V30 8939 H 831.771 3.59544 -2.52239 0
M  V30 8940 H 832.377 2.29874 -3.57824 0
M  V30 8941 N 830.692 1.47107 0.565454 0
M  V30 8942 C 831.602 1.61591 1.70075 0
M  V30 8943 C 832.618 0.498931 1.66693 0
M  V30 8944 O 833.794 0.765372 1.8629 0
M  V30 8945 C 830.859 1.61887 3.06583 0
M  V30 8946 C 829.92 2.84949 3.21096 0
M  V30 8947 C 829.153 2.85221 4.51093 0
M  V30 8948 O 829.376 1.94959 5.36048 0
M  V30 8949 O 828.31 3.76982 4.69221 0
M  V30 8950 H 832.136 2.57638 1.60799 0
M  V30 8951 H 829.721 1.30097 0.73451 0
M  V30 8952 H 831.603 1.64809 3.87835 0
M  V30 8953 H 830.278 0.69005 3.16259 0
M  V30 8954 H 829.185 2.87575 2.39273 0
M  V30 8955 H 830.518 3.77098 3.1632 0
M  V30 8956 N 832.17 -0.811516 1.35101 0
M  V30 8957 C 833.102 -1.93102 1.23468 0
M  V30 8958 C 834.115 -1.62021 0.159095 0
M  V30 8959 O 835.304 -1.73682 0.411945 0
M  V30 8960 C 832.404 -3.27345 0.877404 0
M  V30 8961 C 831.577 -3.86368 2.05033 0
M  V30 8962 C 830.636 -4.99009 1.66963 0
M  V30 8963 O 829.662 -5.16698 2.38772 0
M  V30 8964 N 830.864 -5.7749 0.590394 0
M  V30 8965 H 833.629 -2.0361 2.19916 0
M  V30 8966 H 831.19 -0.988687 1.28205 0
M  V30 8967 H 833.182 -4.00163 0.604298 0
M  V30 8968 H 831.752 -3.126 0.00275267 0
M  V30 8969 H 830.972 -3.05804 2.48752 0
M  V30 8970 H 832.26 -4.22533 2.83449 0
M  V30 8971 H 831.658 -5.657 -0.00633259 0
M  V30 8972 H 830.215 -6.50708 0.377055 0
M  V30 8973 N 833.648 -1.19017 -1.03309 0
M  V30 8974 C 834.925 -0.899659 -1.73682 0
M  V30 8975 C 835.305 0.595677 -2.02521 0
M  V30 8976 O 834.653 1.55263 -1.67648 0
M  V30 8977 C 834.863 -1.75508 -3.01659 0
M  V30 8978 C 836.211 -1.98679 -3.75249 0
M  V30 8979 O 837.235 -1.72624 -3.11576 0
M  V30 8980 O 836.094 -2.42587 -4.89708 0
M  V30 8981 H 833.188 -0.334903 -0.756154 0
M  V30 8982 H 835.734 -1.29809 -1.09305 0
M  V30 8983 H 834.506 -2.7684 -2.76542 0
M  V30 8984 H 834.129 -1.35565 -3.73775 0
M  V30 8985 N 835.127 1.22348 -0.993418 0
M  V30 8986 C 836.376 1.90422 -0.665019 0
M  V30 8987 C 836.689 1.78199 0.806512 0
M  V30 8988 O 837.895 2.41193 1.24652 0
M  V30 8989 C 836.351 3.41403 -1.13893 0
M  V30 8990 C 835.959 3.62262 -2.63572 0
M  V30 8991 C 837.703 4.15175 -0.884884 0
M  V30 8992 C 835.61 5.06947 -3.04564 0
M  V30 8993 H 834.54 0.713073 -0.245037 0
M  V30 8994 H 837.191 1.3856 -1.20305 0
M  V30 8995 H 835.573 3.9245 -0.529027 0
M  V30 8996 H 836.747 3.21705 -3.29913 0
M  V30 8997 H 835.062 3.01824 -2.86865 0
M  V30 8998 H 837.659 5.21813 -1.16684 0
M  V30 8999 H 838.002 4.15915 0.178982 0
M  V30 9000 H 838.535 3.70157 -1.45701 0
M  V30 9001 H 835.274 5.11346 -4.10128 0
M  V30 9002 H 834.794 5.48404 -2.42927 0
M  V30 9003 H 836.473 5.75374 -2.95894 0
M  V30 9004 N 836.605 0.766683 1.37694 0
M  V30 9005 C 837.854 0.325425 1.99057 0
M  V30 9006 C 838.167 -1.10275 1.61551 0
M  V30 9007 O 839.373 -1.64513 2.1598 0
M  V30 9008 C 837.829 0.530886 3.55963 0
M  V30 9009 C 837.437 1.96899 4.02411 0
M  V30 9010 C 839.181 0.152997 4.24224 0
M  V30 9011 C 837.088 2.12232 5.52007 0
M  V30 9012 H 836.018 0.117929 0.744721 0
M  V30 9013 H 838.669 0.945091 1.5729 0
M  V30 9014 H 837.051 -0.158162 3.95684 0
M  V30 9015 H 838.225 2.69258 3.73948 0
M  V30 9016 H 836.54 2.303 3.46916 0
M  V30 9017 H 839.137 0.24614 5.34133 0
M  V30 9018 H 839.48 -0.896096 4.06541 0
M  V30 9019 H 840.013 0.794398 3.89787 0
M  V30 9020 H 836.752 3.15442 5.7461 0
M  V30 9021 H 836.272 1.4435 5.82171 0
M  V30 9022 H 837.951 1.9185 6.17902 0
M  V30 9023 N 838.083 -1.48885 0.516809 0
M  V30 9024 C 839.36 -1.95412 -0.0858293 0
M  V30 9025 C 839.74 -1.45875 -1.5259 0
M  V30 9026 O 839.088 -0.679415 -2.18166 0
M  V30 9027 C 839.298 -3.48995 0.0178194 0
M  V30 9028 C 840.646 -4.24342 -0.14813 0
M  V30 9029 O 841.67 -3.56155 -0.0566125 0
M  V30 9030 O 840.529 -5.45454 -0.338035 0
M  V30 9031 H 837.623 -0.822455 -0.0865884 0
M  V30 9032 H 840.169 -1.59464 0.580472 0
M  V30 9033 H 838.941 -3.77732 1.02147 0
M  V30 9034 H 838.564 -3.91604 -0.687924 0
M  V30 9035 N 839.561 -0.251338 -1.55583 0
M  V30 9036 C 840.491 0.640437 -2.24545 0
M  V30 9037 C 841.472 1.17781 -1.22726 0
M  V30 9038 O 842.657 1.21633 -1.5139 0
M  V30 9039 C 839.787 1.8355 -2.94834 0
M  V30 9040 C 838.741 1.4307 -4.03379 0
M  V30 9041 C 838.067 2.70695 -4.61116 0
M  V30 9042 C 839.367 0.59848 -5.1886 0
M  V30 9043 H 841.061 0.0653772 -2.99329 0
M  V30 9044 H 838.607 0.0300042 -1.43969 0
M  V30 9045 H 840.56 2.46505 -3.4178 0
M  V30 9046 H 839.284 2.43601 -2.17546 0
M  V30 9047 H 837.943 0.824474 -3.57209 0
M  V30 9048 H 837.591 3.28954 -3.80524 0
M  V30 9049 H 837.291 2.44332 -5.34393 0
M  V30 9050 H 838.815 3.34541 -5.10798 0
M  V30 9051 H 840.229 1.13244 -5.62004 0
M  V30 9052 H 838.626 0.430728 -5.98552 0
M  V30 9053 H 839.696 -0.38829 -4.83343 0
M  V30 9054 N 841.039 1.57585 0.0217189 0
M  V30 9055 C 842.45 1.7787 0.567377 0
M  V30 9056 C 842.801 0.883337 1.7519 0
M  V30 9057 O 841.926 0.0800819 2.16252 0
M  V30 9058 C 842.521 3.2257 1.03606 0
M  V30 9059 C 841.08 3.44026 1.52718 0
M  V30 9060 C 840.227 2.73313 0.468545 0
M  V30 9061 H 843.178 1.57377 -0.2045 0
M  V30 9062 H 843.199 3.29488 1.9031 0
M  V30 9063 H 842.711 3.87711 0.173739 0
M  V30 9064 H 840.812 2.8407 2.41111 0
M  V30 9065 H 840.925 4.52659 1.56962 0
M  V30 9066 H 839.289 2.37299 0.925263 0
M  V30 9067 H 840.072 3.41141 -0.384438 0
M  V30 9068 N 842.517 -0.29412 1.54831 0
M  V30 9069 C 843.48 -1.3461 1.85507 0
M  V30 9070 C 844.48 -1.43359 0.728343 0
M  V30 9071 O 845.67 -1.42875 0.996609 0
M  V30 9072 C 842.802 -2.73012 2.0415 0
M  V30 9073 H 843.995 -1.08651 2.79526 0
M  V30 9074 H 841.548 -0.531138 1.46999 0
M  V30 9075 H 842.283 -3.04183 1.12441 0
M  V30 9076 H 842.068 -2.68051 2.86166 0
M  V30 9077 H 843.558 -3.49061 2.29229 0
M  V30 9078 N 843.995 -1.47404 -0.557645 0
M  V30 9079 C 844.925 -1.62736 -1.67449 0
M  V30 9080 C 845.906 -0.476824 -1.6328 0
M  V30 9081 O 847.091 -0.706108 -1.80908 0
M  V30 9082 C 844.221 -1.641 -3.06086 0
M  V30 9083 C 843.175 -2.78377 -3.25101 0
M  V30 9084 C 842.501 -2.64812 -4.6452 0
M  V30 9085 C 843.801 -4.19971 -3.10518 0
M  V30 9086 H 845.495 -2.56232 -1.54873 0
M  V30 9087 H 843.041 -1.23312 -0.743649 0
M  V30 9088 H 844.994 -1.73417 -3.84063 0
M  V30 9089 H 843.718 -0.671652 -3.19619 0
M  V30 9090 H 842.377 -2.6857 -2.49531 0
M  V30 9091 H 842.025 -1.65906 -4.74852 0
M  V30 9092 H 841.725 -3.41477 -4.78191 0
M  V30 9093 H 843.249 -2.76057 -5.44633 0
M  V30 9094 H 844.663 -4.30757 -3.78313 0
M  V30 9095 H 843.06 -4.97419 -3.35699 0
M  V30 9096 H 844.13 -4.38369 -2.0727 0
M  V30 9097 N 845.473 0.80434 -1.35529 0
M  V30 9098 C 846.72 1.56154 -1.28927 0
M  V30 9099 C 847.048 1.94026 0.135682 0
M  V30 9100 O 846.303 1.61759 1.10148 0
M  V30 9101 C 846.602 2.85988 -2.14349 0
M  V30 9102 C 846.268 2.67323 -3.6311 0
M  V30 9103 C 844.93 2.61941 -4.03659 0
M  V30 9104 C 847.282 2.49699 -4.57493 0
M  V30 9105 C 844.61 2.3688 -5.36754 0
M  V30 9106 C 846.962 2.26168 -5.90788 0
M  V30 9107 C 845.626 2.19209 -6.30479 0
M  V30 9108 H 844.896 0.571407 -0.471779 0
M  V30 9109 H 847.543 0.929193 -1.67446 0
M  V30 9110 H 845.848 3.53612 -1.68718 0
M  V30 9111 H 847.545 3.43697 -2.06576 0
M  V30 9112 H 844.135 2.72361 -3.30934 0
M  V30 9113 H 848.319 2.52869 -4.27049 0
M  V30 9114 H 843.575 2.29964 -5.66504 0
M  V30 9115 H 847.749 2.11522 -6.63499 0
M  V30 9116 H 845.376 1.99553 -7.33541 0
M  V30 9117 N 846.951 1.19563 1.02676 0
M  V30 9118 C 847.898 0.935291 2.11 0
M  V30 9119 C 848.868 -0.130685 1.65585 0
M  V30 9120 O 850.053 0.0119062 1.90796 0
M  V30 9121 C 847.193 0.482384 3.41712 0
M  V30 9122 C 846.306 1.61537 4.00662 0
M  V30 9123 C 845.441 1.11378 5.19392 0
M  V30 9124 C 844.48 2.22052 5.70403 0
M  V30 9125 N 843.617 1.73185 6.80405 0
M  V30 9126 H 848.457 1.86275 2.32606 0
M  V30 9127 H 845.994 0.928656 1.14081 0
M  V30 9128 H 847.952 0.20118 4.16715 0
M  V30 9129 H 846.582 -0.408086 3.2021 0
M  V30 9130 H 845.634 2.01173 3.22852 0
M  V30 9131 H 846.946 2.44912 4.34534 0
M  V30 9132 H 846.1 0.787935 6.01562 0
M  V30 9133 H 844.839 0.249789 4.8706 0
M  V30 9134 H 843.844 2.55465 4.86845 0
M  V30 9135 H 845.069 3.08911 6.04774 0
M  V30 9136 H 843.015 0.890973 6.49921 0
M  V30 9137 H 842.932 2.50148 7.13416 0
M  V30 9138 H 844.2 1.4357 7.66164 0
M  V30 9139 N 848.429 -1.21819 0.999893 0
M  V30 9140 C 849.362 -2.22635 0.500887 0
M  V30 9141 C 850.34 -1.56459 -0.442636 0
M  V30 9142 O 851.524 -1.84902 -0.366551 0
M  V30 9143 C 848.651 -3.37598 -0.273046 0
M  V30 9144 C 847.697 -4.22006 0.617511 0
M  V30 9145 S 848.53 -4.93583 2.07693 0
M  V30 9146 C 849.686 -6.1198 1.31269 0
M  V30 9147 H 849.919 -2.64618 1.35516 0
M  V30 9148 H 847.452 -1.31606 0.807419 0
M  V30 9149 H 849.41 -4.04251 -0.713515 0
M  V30 9150 H 848.071 -2.94108 -1.10268 0
M  V30 9151 H 847.264 -5.03995 0.0216543 0
M  V30 9152 H 846.866 -3.6052 0.99504 0
M  V30 9153 H 849.158 -6.74979 0.583933 0
M  V30 9154 H 850.101 -6.75991 2.10811 0
M  V30 9155 H 850.509 -5.5847 0.822901 0
M  V30 9156 N 849.908 -0.773975 -1.37286 0
M  V30 9157 C 851.185 -0.263942 -1.93811 0
M  V30 9158 C 851.565 1.24138 -1.70743 0
M  V30 9159 O 850.913 2.02557 -1.05749 0
M  V30 9160 C 851.123 -0.639753 -3.43086 0
M  V30 9161 C 852.471 -0.610796 -4.20184 0
M  V30 9162 O 853.495 -0.579278 -3.51458 0
M  V30 9163 O 852.354 -0.639862 -5.42741 0
M  V30 9164 H 849.448 -0.0614331 -0.824715 0
M  V30 9165 H 851.994 -0.855477 -1.46559 0
M  V30 9166 H 850.766 -1.67856 -3.53469 0
M  V30 9167 H 850.389 -0.0212827 -3.97594 0
M  V30 9168 N 851.386 1.48609 -0.524698 0
M  V30 9169 C 852.296 2.33318 0.244923 0
M  V30 9170 C 853.312 1.46153 0.944214 0
M  V30 9171 O 854.488 1.79141 0.920347 0
M  V30 9172 C 851.553 3.22149 1.28144 0
M  V30 9173 C 850.614 4.25184 0.593068 0
M  V30 9174 C 849.847 5.0977 1.5802 0
M  V30 9175 O 850.07 4.96249 2.81235 0
M  V30 9176 O 849.004 5.9134 1.1225 0
M  V30 9177 H 852.83 3.00362 -0.449066 0
M  V30 9178 H 850.415 1.46643 -0.285689 0
M  V30 9179 H 852.297 3.77111 1.88057 0
M  V30 9180 H 850.972 2.57772 1.95793 0
M  V30 9181 H 849.879 3.74071 -0.0464214 0
M  V30 9182 H 851.212 4.92183 -0.0413893 0
M  V30 9183 N 852.864 0.259585 1.55447 0
M  V30 9184 C 854.141 -0.412595 1.91199 0
M  V30 9185 C 854.521 -1.74909 1.18194 0
M  V30 9186 O 853.869 -2.26474 0.303603 0
M  V30 9187 C 854.079 -0.568195 3.44344 0
M  V30 9188 C 855.427 -0.858253 4.15836 0
M  V30 9189 O 856.451 -0.653588 3.50152 0
M  V30 9190 O 855.31 -1.24874 5.32042 0
M  V30 9191 H 852.404 -0.223403 0.796254 0
M  V30 9192 H 854.95 0.30459 1.66944 0
M  V30 9193 H 853.722 0.372989 3.89518 0
M  V30 9194 H 853.345 -1.33544 3.74502 0
M  V30 9195 N 854.342 -1.57594 -0.0133615 0
M  V30 9196 C 855.292 -2.04048 -1.01726 0
M  V30 9197 C 856.276 -0.932682 -1.3111 0
M  V30 9198 O 857.468 -1.19652 -1.30432 0
M  V30 9199 C 854.597 -2.53637 -2.31351 0
M  V30 9200 C 853.683 -3.71269 -2.04989 0
M  V30 9201 N 854.074 -4.83436 -1.48739 0
M  V30 9202 C 852.372 -3.78943 -2.35198 0
M  V30 9203 C 853.073 -5.64961 -1.38542 0
M  V30 9204 N 852.049 -5.10554 -1.86643 0
M  V30 9205 H 855.851 -2.88188 -0.576623 0
M  V30 9206 H 853.365 -1.60912 -0.219344 0
M  V30 9207 H 855.362 -2.85186 -3.04096 0
M  V30 9208 H 854.022 -1.7091 -2.76079 0
M  V30 9209 H 855.033 -5.04558 -1.16798 0
M  V30 9210 H 851.71 -3.07047 -2.82893 0
M  V30 9211 H 853.1 -6.65092 -0.954075 0
M  V30 9212 N 855.82 0.285905 -1.54985 0
M  V30 9213 C 857.236 0.632405 -1.46536 0
M  V30 9214 C 857.436 1.90074 -0.668888 0
M  V30 9215 O 856.492 2.51839 -0.182586 0
M  V30 9216 C 857.805 0.771361 -2.90638 0
M  V30 9217 C 859.353 0.866262 -3.00774 0
M  V30 9218 C 859.828 1.0371 -4.46103 0
M  V30 9219 N 861.319 1.10294 -4.49877 0
M  V30 9220 C 862.054 1.25369 -5.59527 0
M  V30 9221 N 861.55 1.37246 -6.7907 0
M  V30 9222 N 863.343 1.28377 -5.47244 0
M  V30 9223 H 855.494 -0.547226 -2.0523 0
M  V30 9224 H 857.757 -0.183298 -0.930111 0
M  V30 9225 H 857.463 -0.0899485 -3.51585 0
M  V30 9226 H 857.337 1.65569 -3.3892 0
M  V30 9227 H 859.724 1.71805 -2.39931 0
M  V30 9228 H 859.805 -0.0424049 -2.55765 0
M  V30 9229 H 859.449 0.190021 -5.07544 0
M  V30 9230 H 859.379 1.96022 -4.88757 0
M  V30 9231 H 861.87 1.02407 -3.6376 0
M  V30 9232 H 862.183 1.48546 -7.58389 0
M  V30 9233 H 860.528 1.34274 -6.81906 0
M  V30 9234 H 863.719 1.1872 -4.52795 0
M  V30 9235 H 863.892 1.39782 -6.32744 0
M  V30 9236 N 857.298 1.47698 0.54982 0
M  V30 9237 C 858.261 1.60282 1.63837 0
M  V30 9238 C 859.261 0.477394 1.5355 0
M  V30 9239 O 860.451 0.742665 1.57576 0
M  V30 9240 C 857.583 1.55431 3.03404 0
M  V30 9241 H 858.776 2.57325 1.54026 0
M  V30 9242 H 856.329 1.35999 0.770329 0
M  V30 9243 H 857.064 0.597912 3.1874 0
M  V30 9244 H 856.849 2.37116 3.12279 0
M  V30 9245 H 858.339 1.6739 3.82584 0
M  V30 9246 N 858.776 -0.797141 1.35954 0
M  V30 9247 C 860.192 -1.09408 1.16198 0
M  V30 9248 C 860.392 -2.01491 -0.0191682 0
M  V30 9249 O 859.448 -2.42977 -0.686902 0
M  V30 9250 C 860.761 -1.71597 2.46931 0
M  V30 9251 C 862.309 -1.83974 2.53224 0
M  V30 9252 C 862.784 -2.49579 3.84024 0
M  V30 9253 N 864.275 -2.57055 3.85327 0
M  V30 9254 C 865.01 -3.08608 4.83268 0
M  V30 9255 N 864.506 -3.60527 5.91601 0
M  V30 9256 N 866.299 -3.07249 4.70696 0
M  V30 9257 H 858.45 -0.185209 2.11591 0
M  V30 9258 H 860.713 -0.144768 0.936881 0
M  V30 9259 H 860.419 -1.11404 3.3359 0
M  V30 9260 H 860.293 -2.71193 2.62172 0
M  V30 9261 H 862.68 -2.43308 1.66988 0
M  V30 9262 H 862.761 -0.83207 2.41889 0
M  V30 9263 H 862.405 -1.90892 4.70662 0
M  V30 9264 H 862.335 -3.50902 3.92651 0
M  V30 9265 H 864.826 -2.20283 3.07057 0
M  V30 9266 H 865.139 -3.98192 6.62317 0
M  V30 9267 H 863.484 -3.587 5.95281 0
M  V30 9268 H 866.675 -2.65972 3.85197 0
M  V30 9269 H 866.848 -3.47119 5.47186 0
M  V30 9270 N 860.254 -1.20106 -1.0204 0
M  V30 9271 C 861.217 -0.948261 -2.08664 0
M  V30 9272 C 862.217 0.0746753 -1.60627 0
M  V30 9273 O 863.407 -0.160981 -1.73455 0
M  V30 9274 C 860.539 -0.426854 -3.38217 0
M  V30 9275 H 861.732 -1.894 -2.32524 0
M  V30 9276 H 859.285 -1.0159 -1.18782 0
M  V30 9277 H 860.02 0.524532 -3.2003 0
M  V30 9278 H 859.805 -1.16451 -3.74408 0
M  V30 9279 H 861.295 -0.269346 -4.1673 0
M  V30 9280 N 861.732 1.21287 -1.00634 0
M  V30 9281 C 862.979 1.90389 -0.6898 0
M  V30 9282 C 863.307 1.78193 0.779574 0
M  V30 9283 O 862.562 1.15358 1.58085 0
M  V30 9284 C 862.861 3.41374 -1.05824 0
M  V30 9285 C 862.527 3.73766 -2.5221 0
M  V30 9286 C 861.189 3.82317 -2.92211 0
M  V30 9287 C 863.541 3.88871 -3.47028 0
M  V30 9288 C 860.869 4.03423 -4.2599 0
M  V30 9289 C 863.221 4.11484 -4.80483 0
M  V30 9290 C 861.885 4.18263 -5.20204 0
M  V30 9291 H 861.155 0.696683 -0.252416 0
M  V30 9292 H 863.802 1.43769 -1.26502 0
M  V30 9293 H 862.107 3.8974 -0.401281 0
M  V30 9294 H 863.804 3.93118 -0.79116 0
M  V30 9295 H 860.394 3.67702 -2.20212 0
M  V30 9296 H 864.578 3.8163 -3.17289 0
M  V30 9297 H 859.834 4.06902 -4.56334 0
M  V30 9298 H 864.008 4.22115 -5.53888 0
M  V30 9299 H 861.635 4.34369 -6.23881 0
M  V30 9300 N 863.21 0.781244 1.36873 0
M  V30 9301 C 864.457 0.349889 1.99454 0
M  V30 9302 C 864.785 -1.07621 1.62013 0
M  V30 9303 O 864.04 -1.75665 0.86258 0
M  V30 9304 C 864.339 0.45146 3.54537 0
M  V30 9305 C 864.005 1.83718 4.11775 0
M  V30 9306 C 862.667 2.21634 4.2712 0
M  V30 9307 C 865.019 2.7449 4.43063 0
M  V30 9308 C 862.347 3.49742 4.7106 0
M  V30 9309 C 864.699 4.02017 4.88431 0
M  V30 9310 C 863.363 4.39967 5.01982 0
M  V30 9311 H 862.633 0.128033 0.729855 0
M  V30 9312 H 865.28 0.997117 1.63493 0
M  V30 9313 H 863.585 -0.279288 3.90803 0
M  V30 9314 H 865.282 0.0988609 4.00878 0
M  V30 9315 H 861.872 1.53251 4.00265 0
M  V30 9316 H 866.056 2.46453 4.30783 0
M  V30 9317 H 861.312 3.79026 4.79738 0
M  V30 9318 H 865.486 4.72475 5.11605 0
M  V30 9319 H 863.113 5.39291 5.35788 0
M  V30 9320 N 864.689 -1.48329 0.532571 0
M  V30 9321 C 866.1 -1.86469 0.0927749 0
M  V30 9322 C 866.451 -1.44186 -1.3306 0
M  V30 9323 O 865.576 -0.833741 -1.99694 0
M  V30 9324 C 866.171 -3.38414 0.161588 0
M  V30 9325 C 864.73 -3.75739 -0.223028 0
M  V30 9326 C 863.877 -2.72377 0.520199 0
M  V30 9327 H 866.828 -1.40197 0.743678 0
M  V30 9328 H 866.849 -3.75314 -0.626059 0
M  V30 9329 H 866.361 -3.69159 1.19765 0
M  V30 9330 H 864.462 -3.50608 -1.26113 0
M  V30 9331 H 864.575 -4.78954 0.118385 0
M  V30 9332 H 862.939 -2.54678 -0.0338425 0
M  V30 9333 H 863.722 -3.05965 1.55694 0
M  V30 9334 N 866.167 -0.267825 -1.55308 0
M  V30 9335 C 867.115 0.638848 -2.23655 0
M  V30 9336 C 868.109 1.16363 -1.2311 0
M  V30 9337 O 869.315 1.1181 -1.41062 0
M  V30 9338 H 865.69 0.224551 -0.717691 0
M  V30 9339 H 867.661 0.0394809 -2.98374 0
M  V30 9340 C 866.41 1.8151 -2.96562 0
M  V30 9341 H 865.733 1.42048 -3.73715 0
M  V30 9342 H 867.173 2.42629 -3.47717 0
M  V30 9343 C 865.632 2.69911 -2.01618 0
M  V30 9344 O 866.162 3.70058 -1.56268 0
M  V30 9345 N 864.368 2.36924 -1.68272 0
M  V30 9346 H 863.915 1.55533 -2.05347 0
M  V30 9347 H 863.873 2.96343 -1.05016 0
M  V30 9348 N 867.645 1.57599 0.00500368 0
M  V30 9349 C 868.578 2.03541 1.03181 0
M  V30 9350 C 869.556 0.924301 1.33774 0
M  V30 9351 O 870.74 1.19204 1.46023 0
M  V30 9352 C 867.867 2.42879 2.36067 0
M  V30 9353 C 866.913 3.64673 2.21169 0
M  V30 9354 S 867.746 5.12805 1.54243 0
M  V30 9355 C 868.902 5.55408 2.88569 0
M  V30 9356 H 869.135 2.90316 0.640598 0
M  V30 9357 H 866.668 1.52886 0.215722 0
M  V30 9358 H 868.626 2.66212 3.12476 0
M  V30 9359 H 867.287 1.56512 2.72329 0
M  V30 9360 H 866.48 3.89932 3.19326 0
M  V30 9361 H 866.082 3.41316 1.52904 0
M  V30 9362 H 868.374 5.57563 3.84876 0
M  V30 9363 H 869.317 6.55418 2.68016 0
M  V30 9364 H 869.725 4.82961 2.92249 0
M  V30 9365 N 869.123 -0.277682 1.55134 0
M  V30 9366 C 870.369 -1.0114 1.7578 0
M  V30 9367 C 870.702 -1.86109 0.554719 0
M  V30 9368 O 869.977 -1.89275 -0.447813 0
M  V30 9369 C 870.26 -1.89789 3.06027 0
M  V30 9370 C 870.113 -1.07844 4.3668 0
M  V30 9371 C 871.432 -2.88577 3.32282 0
M  V30 9372 H 868.551 -0.366277 0.639539 0
M  V30 9373 H 871.193 -0.284155 1.87863 0
M  V30 9374 H 869.343 -2.51796 2.95856 0
M  V30 9375 H 871.015 -0.479432 4.58802 0
M  V30 9376 H 869.258 -0.381764 4.32117 0
M  V30 9377 H 869.929 -1.73179 5.24131 0
M  V30 9378 H 872.405 -2.36702 3.42215 0
M  V30 9379 H 871.281 -3.47749 4.2469 0
M  V30 9380 H 871.542 -3.63458 2.51696 0
M  V30 9381 N 870.601 -1.47988 -0.541979 0
M  V30 9382 C 871.549 -1.62044 -1.66867 0
M  V30 9383 C 872.543 -0.487217 -1.62242 0
M  V30 9384 O 873.749 -0.66554 -1.67244 0
M  V30 9385 H 870.124 -0.51024 -0.552412 0
M  V30 9386 H 872.095 -2.56695 -1.52153 0
M  V30 9387 C 870.844 -1.66615 -3.0518 0
M  V30 9388 H 870.167 -2.5317 -3.09427 0
M  V30 9389 H 871.607 -1.80496 -3.83663 0
M  V30 9390 C 870.066 -0.402421 -3.34488 0
M  V30 9391 O 870.596 0.48992 -3.98701 0
M  V30 9392 N 868.802 -0.277778 -2.89269 0
M  V30 9393 H 868.349 -1.00488 -2.37192 0
M  V30 9394 H 868.307 0.566784 -3.09249 0
M  V30 9395 N 872.079 0.78992 -1.36375 0
M  V30 9396 C 873.012 1.90907 -1.25019 0
M  V30 9397 C 873.99 1.62043 -0.134463 0
M  V30 9398 O 875.174 1.86008 -0.305506 0
M  V30 9399 C 872.301 3.25716 -0.928822 0
M  V30 9400 C 871.347 3.73511 -2.05892 0
M  V30 9401 S 872.18 3.89332 -3.6767 0
M  V30 9402 C 873.336 5.27017 -3.37645 0
M  V30 9403 H 873.569 2.00247 -2.19746 0
M  V30 9404 H 871.102 0.949097 -1.21785 0
M  V30 9405 H 873.06 4.03586 -0.750219 0
M  V30 9406 H 871.721 3.141 0.000658424 0
M  V30 9407 H 870.914 4.71195 -1.78862 0
M  V30 9408 H 870.516 3.02688 -2.19672 0
M  V30 9409 H 872.808 6.1158 -2.91507 0
M  V30 9410 H 873.751 5.5905 -4.3459 0
M  V30 9411 H 874.159 4.94093 -2.73006 0
M  V30 9412 N 873.557 1.20646 1.01402 0
M  V30 9413 C 874.806 1.01242 1.7445 0
M  V30 9414 C 875.119 -0.455732 1.90217 0
M  V30 9415 O 876.325 -0.768951 2.60383 0
M  V30 9416 C 874.781 1.76275 3.13776 0
M  V30 9417 C 874.389 3.27201 3.06013 0
M  V30 9418 C 876.133 1.65248 3.91016 0
M  V30 9419 C 874.04 3.9476 4.40362 0
M  V30 9420 H 872.97 0.375202 0.654018 0
M  V30 9421 H 875.621 1.44292 1.13367 0
M  V30 9422 H 874.003 1.26013 3.75415 0
M  V30 9423 H 875.177 3.84695 2.53665 0
M  V30 9424 H 873.492 3.38669 2.42265 0
M  V30 9425 H 876.089 2.13061 4.90417 0
M  V30 9426 H 876.432 0.609128 4.1182 0
M  V30 9427 H 876.965 2.12937 3.3601 0
M  V30 9428 H 873.704 4.99258 4.24761 0
M  V30 9429 H 873.224 3.42054 4.92706 0
M  V30 9430 H 874.903 3.99159 5.09196 0
M  V30 9431 N 875.035 -1.20752 1.01276 0
M  V30 9432 C 876.281 -1.90302 0.700924 0
M  V30 9433 C 876.614 -1.78406 -0.767142 0
M  V30 9434 O 875.889 -1.16575 -1.55694 0
M  V30 9435 C 876.172 -3.41831 1.13242 0
M  V30 9436 C 876.025 -3.6268 2.66051 0
M  V30 9437 C 877.344 -4.34486 0.700738 0
M  V30 9438 H 874.463 -0.69107 0.256107 0
M  V30 9439 H 877.105 -1.42227 1.25982 0
M  V30 9440 H 875.255 -3.82906 0.656902 0
M  V30 9441 H 876.927 -3.30882 3.21426 0
M  V30 9442 H 875.17 -3.06281 3.07204 0
M  V30 9443 H 875.841 -4.68882 2.91296 0
M  V30 9444 H 878.317 -4.01036 1.10948 0
M  V30 9445 H 877.193 -5.39136 1.03073 0
M  V30 9446 H 877.454 -4.40307 -0.39778 0
M  V30 9447 N 876.513 -0.788492 -1.36457 0
M  V30 9448 C 877.443 -0.200468 -2.32638 0
M  V30 9449 C 878.424 0.664031 -1.56603 0
M  V30 9450 O 879.609 0.598045 -1.84762 0
M  V30 9451 C 876.739 0.666274 -3.40849 0
M  V30 9452 C 875.693 -0.0982574 -4.27887 0
M  V30 9453 C 875.019 0.889018 -5.27258 0
M  V30 9454 C 876.319 -1.28692 -5.06197 0
M  V30 9455 H 878.013 -1.00399 -2.82065 0
M  V30 9456 H 875.559 -0.484237 -1.35614 0
M  V30 9457 H 877.512 1.08757 -4.07124 0
M  V30 9458 H 876.236 1.50249 -2.89987 0
M  V30 9459 H 874.895 -0.500525 -3.63167 0
M  V30 9460 H 874.543 1.72024 -4.7267 0
M  V30 9461 H 874.243 0.381909 -5.86358 0
M  V30 9462 H 875.767 1.30891 -5.96406 0
M  V30 9463 H 877.181 -0.941429 -5.65517 0
M  V30 9464 H 875.578 -1.72726 -5.74705 0
M  V30 9465 H 876.648 -2.08273 -4.37893 0
M  V30 9466 N 877.991 1.48044 -0.54043 0
M  V30 9467 C 879.268 1.95523 0.0547302 0
M  V30 9468 C 879.648 1.48284 1.5025 0
M  V30 9469 O 878.996 0.714037 2.17057 0
M  V30 9470 C 879.206 3.48923 -0.0733393 0
M  V30 9471 C 880.554 4.24523 0.0806026 0
M  V30 9472 O 881.578 3.562 -5.58687e-05 0
M  V30 9473 O 880.437 5.45922 0.251216 0
M  V30 9474 H 877.531 0.823728 0.073493 0
M  V30 9475 H 880.077 1.5852 -0.605768 0
M  V30 9476 H 878.849 3.76059 -1.08144 0
M  V30 9477 H 878.472 3.92648 0.625536 0
M  V30 9478 N 879.47 0.276058 1.55163 0
M  V30 9479 C 880.417 -0.611006 2.22565 0
M  V30 9480 C 881.387 -1.14902 1.19945 0
M  V30 9481 O 882.572 -1.19815 1.48489 0
M  V30 9482 C 879.712 -1.78885 2.95117 0
M  V30 9483 C 878.825 -1.2846 4.12458 0
M  V30 9484 C 877.96 -2.42432 4.72652 0
M  V30 9485 C 876.999 -1.89015 5.82185 0
M  V30 9486 N 876.136 -2.96463 6.36439 0
M  V30 9487 H 880.976 -0.0295849 2.97985 0
M  V30 9488 H 878.513 -0.00283607 1.471 0
M  V30 9489 H 880.471 -2.48121 3.35398 0
M  V30 9490 H 879.101 -2.34229 2.22119 0
M  V30 9491 H 878.153 -0.485312 3.77292 0
M  V30 9492 H 879.465 -0.853358 4.91446 0
M  V30 9493 H 878.619 -3.19659 5.15658 0
M  V30 9494 H 877.358 -2.88872 3.92943 0
M  V30 9495 H 876.363 -1.10267 5.38629 0
M  V30 9496 H 877.588 -1.43509 6.63763 0
M  V30 9497 H 875.534 -3.42283 5.59623 0
M  V30 9498 H 875.451 -2.57759 7.10701 0
M  V30 9499 H 876.719 -3.73663 6.84103 0
M  V30 9500 N 880.948 -1.576 0.00335426 0
M  V30 9501 C 882.225 -1.81945 -0.718015 0
M  V30 9502 C 882.605 -0.881788 -1.91801 0
M  V30 9503 O 881.953 0.0687118 -2.28397 0
M  V30 9504 C 882.163 -3.30521 -1.12058 0
M  V30 9505 C 883.511 -3.96345 -1.52303 0
M  V30 9506 O 884.535 -3.34864 -1.21428 0
M  V30 9507 O 883.394 -5.04655 -2.09728 0
M  V30 9508 H 880.488 -0.749328 -0.34991 0
M  V30 9509 H 883.034 -1.69675 0.0290654 0
M  V30 9510 H 881.806 -3.90399 -0.265378 0
M  V30 9511 H 881.429 -3.47802 -1.92665 0
M  V30 9512 N 882.426 0.269451 -1.5528 0
M  V30 9513 C 883.356 1.33729 -1.91413 0
M  V30 9514 C 884.337 1.51348 -0.776391 0
M  V30 9515 O 885.522 1.64332 -1.03482 0
M  V30 9516 C 882.652 2.69618 -2.18914 0
M  V30 9517 C 881.606 2.66725 -3.34726 0
M  V30 9518 C 880.932 4.06199 -3.47716 0
M  V30 9519 C 882.232 2.25684 -4.71025 0
M  V30 9520 H 883.926 1.03736 -2.80854 0
M  V30 9521 H 881.472 0.497579 -1.3513 0
M  V30 9522 H 883.425 3.44436 -2.42779 0
M  V30 9523 H 882.149 3.01201 -1.26275 0
M  V30 9524 H 880.808 1.94365 -3.10834 0
M  V30 9525 H 880.456 4.3501 -2.52537 0
M  V30 9526 H 880.156 4.05157 -4.25583 0
M  V30 9527 H 881.68 4.8275 -3.73877 0
M  V30 9528 H 883.094 2.90225 -4.94411 0
M  V30 9529 H 881.491 2.35797 -5.51833 0
M  V30 9530 H 882.561 1.20819 -4.69607 0
M  V30 9531 N 883.904 1.48273 0.534124 0
M  V30 9532 C 885.152 1.55771 1.28762 0
M  V30 9533 C 885.473 0.231575 1.9362 0
M  V30 9534 O 884.743 -0.746533 1.81118 0
M  V30 9535 H 883.323 0.573851 0.47823 0
M  V30 9536 H 885.985 1.84712 0.621888 0
M  V30 9537 H 885.081 2.33657 2.06908 0
M  V30 9538 N 885.382 -0.782676 1.36792 0
M  V30 9539 C 886.631 -1.53605 1.30723 0
M  V30 9540 C 886.944 -1.95294 -0.109296 0
M  V30 9541 O 888.15 -2.69921 -0.292398 0
M  V30 9542 C 886.606 -2.77321 2.29393 0
M  V30 9543 C 886.214 -2.42774 3.76517 0
M  V30 9544 C 887.958 -3.55289 2.32314 0
M  V30 9545 C 885.865 -3.62926 4.66947 0
M  V30 9546 H 884.795 -0.576646 0.485794 0
M  V30 9547 H 887.446 -0.858255 1.62192 0
M  V30 9548 H 885.828 -3.46934 1.90927 0
M  V30 9549 H 887.002 -1.81014 4.23758 0
M  V30 9550 H 885.317 -1.78002 3.76436 0
M  V30 9551 H 887.914 -4.44573 2.97083 0
M  V30 9552 H 888.257 -3.94361 1.3336 0
M  V30 9553 H 888.79 -2.92662 2.69432 0
M  V30 9554 H 885.529 -3.28944 5.66989 0
M  V30 9555 H 885.049 -4.23828 4.24418 0
M  V30 9556 H 886.728 -4.29873 4.83548 0
M  V30 9557 N 886.86 -1.21182 -1.00761 0
M  V30 9558 C 888.271 -1.02652 -1.55947 0
M  V30 9559 C 888.622 0.414466 -1.91772 0
M  V30 9560 O 887.747 1.29727 -1.73204 0
M  V30 9561 C 888.342 -1.85713 -2.83366 0
M  V30 9562 C 886.901 -1.71523 -3.35048 0
M  V30 9563 C 886.048 -1.83087 -2.08265 0
M  V30 9564 H 888.999 -1.35242 -0.830379 0
M  V30 9565 H 889.02 -1.36583 -3.55141 0
M  V30 9566 H 888.532 -2.90584 -2.5726 0
M  V30 9567 H 886.633 -0.693257 -3.66094 0
M  V30 9568 H 886.746 -2.53333 -4.06644 0
M  V30 9569 H 885.11 -1.26367 -2.21141 0
M  V30 9570 H 885.893 -2.8946 -1.84575 0
M  V30 9571 N 888.338 1.20213 -1.01915 0
M  V30 9572 C 889.285 2.2309 -0.591571 0
M  V30 9573 C 890.255 1.61465 0.389649 0
M  V30 9574 O 891.44 1.88606 0.288511 0
M  V30 9575 C 888.58 3.45045 0.0614028 0
M  V30 9576 C 887.693 4.21091 -0.964688 0
M  V30 9577 C 886.828 5.30448 -0.282499 0
M  V30 9578 C 885.867 5.98241 -1.29517 0
M  V30 9579 N 885.004 6.99182 -0.639472 0
M  V30 9580 H 889.844 2.59023 -1.47347 0
M  V30 9581 H 887.381 1.27274 -0.737547 0
M  V30 9582 H 889.339 4.14688 0.45714 0
M  V30 9583 H 887.969 3.09797 0.906937 0
M  V30 9584 H 887.021 3.50489 -1.47857 0
M  V30 9585 H 888.333 4.67662 -1.73475 0
M  V30 9586 H 887.487 6.06466 0.168603 0
M  V30 9587 H 886.226 4.84922 0.519843 0
M  V30 9588 H 885.231 5.20982 -1.75663 0
M  V30 9589 H 886.456 6.45853 -2.09884 0
M  V30 9590 H 884.402 6.55844 0.142955 0
M  V30 9591 H 884.319 7.43893 -1.34756 0
M  V30 9592 H 885.587 7.79212 -0.212047 0
M  V30 9593 N 889.816 0.795718 1.36037 0
M  V30 9594 C 891.227 0.433379 1.816 0
M  V30 9595 C 891.578 -1.04341 1.66155 0
M  V30 9596 O 890.703 -1.81004 1.18603 0
M  V30 9597 C 891.298 0.77985 3.29703 0
M  V30 9598 C 889.857 0.470256 3.73451 0
M  V30 9599 C 889.004 1.01119 2.58206 0
M  V30 9600 H 891.955 0.988317 1.24169 0
M  V30 9601 H 891.976 0.0732898 3.80429 0
M  V30 9602 H 891.488 1.85473 3.40913 0
M  V30 9603 H 889.589 -0.596332 3.67797 0
M  V30 9604 H 889.702 0.995276 4.68648 0
M  V30 9605 H 888.066 0.434077 2.50974 0
M  V30 9606 H 888.849 2.09196 2.72198 0
M  V30 9607 N 891.294 -1.47756 0.548274 0
M  V30 9608 C 892.541 -2.02489 0.0208955 0
M  V30 9609 C 892.869 -1.42356 -1.32533 0
M  V30 9610 O 892.124 -0.565448 -1.87353 0
M  V30 9611 C 892.423 -3.5716 -0.131069 0
M  V30 9612 C 892.089 -4.36169 1.14313 0
M  V30 9613 C 890.751 -4.57476 1.4923 0
M  V30 9614 C 893.103 -4.81801 1.9879 0
M  V30 9615 C 890.431 -5.21662 2.68487 0
M  V30 9616 C 892.783 -5.47303 3.17242 0
M  V30 9617 C 891.447 -5.66844 3.52483 0
M  V30 9618 H 890.717 -0.740961 0.00764621 0
M  V30 9619 H 893.364 -1.77531 0.717987 0
M  V30 9620 H 891.669 -3.8106 -0.911063 0
M  V30 9621 H 893.366 -3.9715 -0.55433 0
M  V30 9622 H 889.956 -4.19858 0.861235 0
M  V30 9623 H 894.14 -4.65126 1.73123 0
M  V30 9624 H 889.396 -5.34987 2.95971 0
M  V30 9625 H 893.57 -5.81626 3.82994 0
M  V30 9626 H 891.197 -6.16352 4.44988 0
M  V30 9627 N 892.772 -0.284283 -1.55015 0
M  V30 9628 C 894.02 0.329212 -1.99401 0
M  V30 9629 C 894.341 1.55687 -1.17416 0
M  V30 9630 O 893.611 1.94087 -0.265937 0
M  V30 9631 H 892.191 0.12463 -0.73653 0
M  V30 9632 H 894.853 -0.391743 -1.90922 0
M  V30 9633 H 893.949 0.61278 -3.06025 0
M  V30 9634 N 894.251 1.57596 -0.0117121 0
M  V30 9635 C 895.662 1.79033 0.529521 0
M  V30 9636 C 896.013 0.920299 1.73277 0
M  V30 9637 O 895.138 0.125934 2.16033 0
M  V30 9638 C 895.733 3.24695 0.967405 0
M  V30 9639 C 894.292 3.47188 1.45387 0
M  V30 9640 C 893.439 2.74245 0.410466 0
M  V30 9641 H 896.39 1.56908 -0.237836 0
M  V30 9642 H 896.411 3.33451 1.83278 0
M  V30 9643 H 895.923 3.87992 0.0914605 0
M  V30 9644 H 894.024 2.89121 2.35032 0
M  V30 9645 H 894.137 4.55886 1.47325 0
M  V30 9646 H 892.501 2.39209 0.874721 0
M  V30 9647 H 893.284 3.40248 -0.456713 0
M  V30 9648 N 895.729 -0.261212 1.5542 0
M  V30 9649 C 896.661 -1.34571 1.85535 0
M  V30 9650 C 897.674 -1.44979 0.740612 0
M  V30 9651 O 898.863 -1.46584 1.01859 0
M  V30 9652 C 895.963 -2.7258 2.01378 0
M  V30 9653 C 895.136 -2.84618 3.32131 0
M  V30 9654 C 894.195 -4.03379 3.37893 0
M  V30 9655 O 893.221 -3.93581 4.11197 0
M  V30 9656 N 894.423 -5.15893 2.66148 0
M  V30 9657 H 897.188 -1.09078 2.79145 0
M  V30 9658 H 894.749 -0.451327 1.55482 0
M  V30 9659 H 896.741 -3.50342 2.0259 0
M  V30 9660 H 895.311 -2.90844 1.14579 0
M  V30 9661 H 894.531 -1.93647 3.43358 0
M  V30 9662 H 895.819 -2.896 4.18341 0
M  V30 9663 H 895.217 -5.26743 2.06297 0
M  V30 9664 H 893.774 -5.91842 2.73069 0
M  V30 9665 N 897.207 -1.48554 -0.526253 0
M  V30 9666 C 898.453 -1.56994 -1.28378 0
M  V30 9667 C 898.786 -0.244701 -1.92652 0
M  V30 9668 O 898.061 0.749636 -1.79473 0
M  V30 9669 C 898.344 -2.71092 -2.37026 0
M  V30 9670 C 898.197 -4.13331 -1.77418 0
M  V30 9671 C 899.516 -2.80934 -3.38769 0
M  V30 9672 H 896.635 -0.571466 -0.465398 0
M  V30 9673 H 899.277 -1.80742 -0.585861 0
M  V30 9674 H 897.427 -2.50973 -2.96555 0
M  V30 9675 H 899.099 -4.44899 -1.21912 0
M  V30 9676 H 897.342 -4.20158 -1.07936 0
M  V30 9677 H 898.013 -4.88994 -2.56104 0
M  V30 9678 H 900.489 -2.9917 -2.892 0
M  V30 9679 H 899.365 -3.62489 -4.12181 0
M  V30 9680 H 899.626 -1.89244 -3.99549 0
M  V30 9681 N 898.685 0.775411 -1.37205 0
M  V30 9682 C 899.595 1.91967 -1.34855 0
M  V30 9683 C 900.611 1.72214 -0.248656 0
M  V30 9684 O 901.787 1.95512 -0.483421 0
M  V30 9685 C 898.852 3.27038 -1.15096 0
M  V30 9686 C 897.913 3.5947 -2.34691 0
M  V30 9687 C 897.146 4.88097 -2.15865 0
M  V30 9688 O 897.369 5.58871 -1.14102 0
M  V30 9689 O 896.303 5.19507 -3.03967 0
M  V30 9690 H 900.129 1.969 -2.31223 0
M  V30 9691 H 897.714 0.917647 -1.17897 0
M  V30 9692 H 899.596 4.07837 -1.0605 0
M  V30 9693 H 898.271 3.22965 -0.217999 0
M  V30 9694 H 897.178 2.7892 -2.49308 0
M  V30 9695 H 898.511 3.68282 -3.26541 0
M  V30 9696 N 900.163 1.21714 1.00117 0
M  V30 9697 C 901.073 0.99597 2.12409 0
M  V30 9698 C 902.089 -0.0531431 1.73919 0
M  V30 9699 O 903.265 0.137757 2.00928 0
M  V30 9700 C 900.33 0.567593 3.42022 0
M  V30 9701 C 899.391 1.68936 3.94663 0
M  V30 9702 C 898.624 1.28133 5.1809 0
M  V30 9703 O 898.847 0.156574 5.70185 0
M  V30 9704 O 897.781 2.0947 5.64275 0
M  V30 9705 H 901.607 1.93657 2.33946 0
M  V30 9706 H 899.192 1.00236 1.10784 0
M  V30 9707 H 901.074 0.338664 4.20037 0
M  V30 9708 H 899.749 -0.34424 3.21864 0
M  V30 9709 H 898.656 1.97274 3.17858 0
M  V30 9710 H 899.989 2.57876 4.19238 0
M  V30 9711 N 901.641 -1.19671 1.02551 0
M  V30 9712 C 902.551 -2.26441 0.613329 0
M  V30 9713 C 903.567 -1.70375 -0.353339 0
M  V30 9714 O 904.743 -2.0028 -0.212064 0
M  V30 9715 C 901.808 -3.46684 -0.0329028 0
M  V30 9716 C 900.869 -4.17945 0.980837 0
M  V30 9717 C 900.102 -5.32448 0.36535 0
M  V30 9718 O 900.325 -5.64291 -0.832596 0
M  V30 9719 O 899.259 -5.92012 1.08652 0
M  V30 9720 H 903.085 -2.63932 1.50246 0
M  V30 9721 H 900.67 -1.2646 0.795502 0
M  V30 9722 H 902.552 -4.1956 -0.393395 0
M  V30 9723 H 901.227 -3.1105 -0.896089 0
M  V30 9724 H 900.134 -3.47204 1.39286 0
M  V30 9725 H 901.467 -4.57542 1.81428 0
M  V30 9726 N 903.119 -0.802921 -1.35613 0
M  V30 9727 C 904.359 -0.387163 -2.007 0
M  V30 9728 C 904.723 1.02546 -1.62322 0
M  V30 9729 O 905.924 1.54303 -2.201 0
M  V30 9730 C 904.195 -0.560813 -3.52973 0
M  V30 9731 S 905.754 -0.234935 -4.38171 0
M  V30 9732 H 902.572 -0.147218 -0.695592 0
M  V30 9733 H 905.174 -1.04437 -1.65267 0
M  V30 9734 H 903.878 -1.58897 -3.78391 0
M  V30 9735 H 903.409 0.111845 -3.93241 0
M  V30 9736 H 905.424 0.958715 -4.8685 0
M  V30 9737 N 904.597 1.47463 -0.556102 0
M  V30 9738 C 905.837 2.04372 -0.0339743 0
M  V30 9739 C 906.201 1.42125 1.29091 0
M  V30 9740 O 907.402 1.90074 1.90066 0
M  V30 9741 C 905.673 3.57352 0.0585316 0
M  V30 9742 S 907.232 4.35625 0.526943 0
M  V30 9743 H 904.05 0.710574 -0.0246115 0
M  V30 9744 H 906.652 1.80848 -0.742585 0
M  V30 9745 H 905.356 4.00181 -0.910116 0
M  V30 9746 H 904.887 3.85371 0.790731 0
M  V30 9747 H 906.902 4.62911 1.78683 0
M  V30 9748 N 906.075 0.2925 1.54862 0
M  V30 9749 C 907.005 -0.580677 2.26165 0
M  V30 9750 C 907.986 -1.14485 1.25806 0
M  V30 9751 O 909.171 -1.17577 1.54562 0
M  V30 9752 C 906.301 -1.75668 2.99596 0
M  V30 9753 C 905.255 -1.32325 4.07031 0
M  V30 9754 C 904.581 -2.58374 4.68131 0
M  V30 9755 C 905.881 -0.460703 5.20264 0
M  V30 9756 H 907.575 0.0140075 2.99397 0
M  V30 9757 H 905.121 0.00817706 1.43998 0
M  V30 9758 H 907.074 -2.37356 3.48195 0
M  V30 9759 H 905.798 -2.37747 2.23928 0
M  V30 9760 H 904.457 -0.729477 3.59269 0
M  V30 9761 H 904.105 -3.18749 3.89112 0
M  V30 9762 H 903.805 -2.30078 5.40683 0
M  V30 9763 H 905.329 -3.2088 5.19489 0
M  V30 9764 H 906.743 -0.983037 5.64809 0
M  V30 9765 H 905.14 -0.271881 5.99484 0
M  V30 9766 H 906.21 0.516304 4.82143 0
M  V30 9767 N 907.553 -1.57587 0.0200696 0
M  V30 9768 C 908.463 -2.13119 -0.980676 0
M  V30 9769 C 909.479 -1.08124 -1.36328 0
M  V30 9770 O 910.655 -1.40134 -1.44653 0
M  V30 9771 C 907.72 -2.63991 -2.24743 0
M  V30 9772 C 906.781 -3.83667 -1.9261 0
M  V30 9773 C 906.014 -4.32103 -3.13246 0
M  V30 9774 O 906.237 -3.79758 -4.25606 0
M  V30 9775 O 905.171 -5.24047 -2.96072 0
M  V30 9776 H 908.997 -2.98887 -0.538528 0
M  V30 9777 H 906.582 -1.48055 -0.19999 0
M  V30 9778 H 908.464 -2.9682 -2.99125 0
M  V30 9779 H 907.139 -1.81311 -2.68157 0
M  V30 9780 H 906.046 -3.55778 -1.15641 0
M  V30 9781 H 907.379 -4.67482 -1.54019 0
M  V30 9782 N 909.032 0.252966 -1.55557 0
M  V30 9783 C 909.965 1.33928 -1.84766 0
M  V30 9784 C 910.943 1.46653 -0.702254 0
M  V30 9785 O 912.127 1.62963 -0.947375 0
M  V30 9786 C 909.254 2.71348 -2.02701 0
M  V30 9787 C 908.3 2.75804 -3.25322 0
M  V30 9788 S 909.133 2.33025 -4.82141 0
M  V30 9789 C 910.289 3.72382 -5.03073 0
M  V30 9790 H 910.522 1.08951 -2.76617 0
M  V30 9791 H 908.055 0.45364 -1.47585 0
M  V30 9792 H 910.013 3.50478 -2.13718 0
M  V30 9793 H 908.674 2.93566 -1.11703 0
M  V30 9794 H 907.867 3.76713 -3.34819 0
M  V30 9795 H 907.469 2.04713 -3.12999 0
M  V30 9796 H 909.761 4.67828 -4.90044 0
M  V30 9797 H 910.704 3.67824 -6.05071 0
M  V30 9798 H 911.112 3.64614 -4.30949 0
M  V30 9799 N 910.51 1.48831 0.518367 0
M  V30 9800 C 911.46 1.60614 1.61824 0
M  V30 9801 C 912.444 0.462631 1.54106 0
M  V30 9802 O 913.636 0.714689 1.6193 0
M  V30 9803 C 910.765 1.65984 3.00507 0
M  V30 9804 C 909.851 2.85854 3.13286 0
M  V30 9805 N 910.242 4.1014 2.96005 0
M  V30 9806 C 908.54 2.83429 3.4436 0
M  V30 9807 C 909.241 4.90626 3.12508 0
M  V30 9808 N 908.217 4.2366 3.40607 0
M  V30 9809 H 912.019 2.54443 1.47091 0
M  V30 9810 H 909.533 1.45363 0.724102 0
M  V30 9811 H 911.53 1.72521 3.79529 0
M  V30 9812 H 910.19 0.732792 3.16323 0
M  V30 9813 H 911.201 4.40395 2.72531 0
M  V30 9814 H 907.878 2.0003 3.66462 0
M  V30 9815 H 909.268 5.99302 3.03786 0
M  V30 9816 N 911.988 -0.768124 1.37614 0
M  V30 9817 C 913.234 -1.52907 1.33219 0
M  V30 9818 C 913.567 -1.94026 -0.0821218 0
M  V30 9819 O 912.842 -1.64345 -1.04023 0
M  V30 9820 C 913.125 -2.79164 2.27463 0
M  V30 9821 C 912.978 -2.44276 3.7769 0
M  V30 9822 C 914.297 -3.81115 2.20089 0
M  V30 9823 H 911.416 -0.554712 0.485246 0
M  V30 9824 H 914.058 -0.880911 1.68345 0
M  V30 9825 H 912.208 -3.34472 1.97639 0
M  V30 9826 H 913.88 -1.94855 4.18126 0
M  V30 9827 H 912.123 -1.76925 3.96081 0
M  V30 9828 H 912.794 -3.34544 4.39072 0
M  V30 9829 H 915.27 -3.35311 2.46386 0
M  V30 9830 H 914.146 -4.67174 2.88166 0
M  V30 9831 H 914.407 -4.25644 1.19498 0
M  V30 9832 N 913.466 -1.22244 -0.994698 0
M  V30 9833 C 914.882 -0.982006 -1.25813 0
M  V30 9834 C 915.082 0.325488 -1.98854 0
M  V30 9835 O 914.138 1.04857 -2.29698 0
M  V30 9836 C 915.451 -2.1795 -2.07167 0
M  V30 9837 C 916.999 -2.22287 -2.20358 0
M  V30 9838 C 917.474 -3.41583 -3.05098 0
M  V30 9839 N 918.965 -3.41734 -3.12686 0
M  V30 9840 C 919.7 -4.30692 -3.78539 0
M  V30 9841 N 919.196 -5.29865 -4.46335 0
M  V30 9842 N 920.989 -4.18473 -3.75283 0
M  V30 9843 H 913.14 -2.0631 -0.504963 0
M  V30 9844 H 915.403 -0.90395 -0.285618 0
M  V30 9845 H 915.109 -3.12758 -1.60858 0
M  V30 9846 H 914.983 -2.17862 -3.07922 0
M  V30 9847 H 917.37 -1.28028 -2.65881 0
M  V30 9848 H 917.451 -2.26414 -1.19039 0
M  V30 9849 H 917.095 -4.36141 -2.60275 0
M  V30 9850 H 917.025 -3.34695 -4.06555 0
M  V30 9851 H 919.516 -2.69969 -2.64433 0
M  V30 9852 H 919.829 -5.94027 -4.9432 0
M  V30 9853 H 918.174 -5.3378 -4.45089 0
M  V30 9854 H 921.365 -3.40249 -3.21478 0
M  V30 9855 H 921.538 -4.88007 -4.26326 0
M  V30 9856 N 914.944 1.19125 -1.03184 0
M  V30 9857 C 916.192 1.8851 -0.728587 0
M  V30 9858 C 916.513 1.80195 0.74531 0
M  V30 9859 O 915.783 1.21437 1.5372 0
M  V30 9860 H 914.363 0.69784 -0.266511 0
M  V30 9861 H 917.025 1.44607 -1.3067 0
M  V30 9862 H 916.121 2.9477 -1.02554 0
M  V30 9863 N 916.422 0.810101 1.35185 0
M  V30 9864 C 917.352 0.237453 2.32289 0
M  V30 9865 C 918.333 -0.639032 1.5764 0
M  V30 9866 O 919.518 -0.568575 1.8569 0
M  V30 9867 C 916.648 -0.611964 3.41866 0
M  V30 9868 C 915.602 0.166318 4.27677 0
M  V30 9869 C 914.928 -0.805024 5.28605 0
M  V30 9870 C 916.228 1.36729 5.04086 0
M  V30 9871 H 917.922 1.04874 2.80432 0
M  V30 9872 H 915.468 0.505751 1.34826 0
M  V30 9873 H 917.421 -1.02267 4.08802 0
M  V30 9874 H 916.145 -1.45617 2.92341 0
M  V30 9875 H 914.804 0.558238 3.62325 0
M  V30 9876 H 914.452 -1.64483 4.75347 0
M  V30 9877 H 914.152 -0.288577 5.86891 0
M  V30 9878 H 915.676 -1.21386 5.98413 0
M  V30 9879 H 917.09 1.03128 5.63948 0
M  V30 9880 H 915.487 1.81848 5.71884 0
M  V30 9881 H 916.557 2.15214 4.34524 0
M  V30 9882 N 917.9 -1.47166 0.563914 0
M  V30 9883 C 918.83 -2.32894 -0.168148 0
M  V30 9884 C 919.811 -1.44202 -0.902214 0
M  V30 9885 O 920.996 -1.73048 -0.881365 0
M  V30 9886 C 918.126 -3.26116 -1.19439 0
M  V30 9887 C 917.08 -4.24101 -0.576363 0
M  V30 9888 C 916.406 -5.06696 -1.70772 0
M  V30 9889 C 917.706 -5.20142 0.47425 0
M  V30 9890 H 919.4 -2.9435 0.547573 0
M  V30 9891 H 916.946 -1.41545 0.264778 0
M  V30 9892 H 918.899 -3.84935 -1.71474 0
M  V30 9893 H 917.623 -2.62728 -1.94014 0
M  V30 9894 H 916.282 -3.66519 -0.0772534 0
M  V30 9895 H 915.93 -4.39707 -2.44268 0
M  V30 9896 H 915.63 -5.7304 -1.29994 0
M  V30 9897 H 917.154 -5.68375 -2.2312 0
M  V30 9898 H 918.568 -5.73286 0.0397035 0
M  V30 9899 H 916.965 -5.94726 0.801287 0
M  V30 9900 H 918.035 -4.65214 1.36764 0
M  V30 9901 N 919.378 -0.300708 -1.54705 0
M  V30 9902 C 920.288 0.584996 -2.27189 0
M  V30 9903 C 921.304 1.14866 -1.30697 0
M  V30 9904 O 922.48 1.17351 -1.63679 0
M  V30 9905 C 919.545 1.74076 -2.99831 0
M  V30 9906 C 918.606 1.2112 -4.1186 0
M  V30 9907 C 917.839 2.31188 -4.81028 0
M  V30 9908 O 918.062 3.5108 -4.49554 0
M  V30 9909 O 916.996 1.97897 -5.68437 0
M  V30 9910 H 920.822 -0.00298177 -3.037 0
M  V30 9911 H 918.407 -0.0671802 -1.49249 0
M  V30 9912 H 920.289 2.41413 -3.45395 0
M  V30 9913 H 918.964 2.31535 -2.26215 0
M  V30 9914 H 917.871 0.50357 -3.70695 0
M  V30 9915 H 919.204 0.682046 -4.87452 0
M  V30 9916 N 920.856 1.57574 -0.0284266 0
M  V30 9917 C 922.267 1.79585 0.510502 0
M  V30 9918 C 922.618 0.938625 1.72291 0
M  V30 9919 O 921.743 0.14884 2.15888 0
M  V30 9920 C 922.338 3.25703 0.932912 0
M  V30 9921 C 920.897 3.48711 1.41696 0
M  V30 9922 C 920.044 2.74665 0.381356 0
M  V30 9923 H 922.995 1.56647 -0.254464 0
M  V30 9924 H 923.016 3.35376 1.79731 0
M  V30 9925 H 922.528 3.88067 0.0503036 0
M  V30 9926 H 920.629 2.91597 2.31952 0
M  V30 9927 H 920.742 4.57423 1.42481 0
M  V30 9928 H 919.106 2.40123 0.8493 0
M  V30 9929 H 919.889 3.39745 -0.492775 0
M  V30 9930 N 922.334 -0.244713 1.55689 0
M  V30 9931 C 923.264 -1.30667 1.93516 0
M  V30 9932 C 924.245 -1.50094 0.800371 0
M  V30 9933 O 925.43 -1.62665 1.06083 0
M  V30 9934 C 922.56 -2.66101 2.23176 0
M  V30 9935 C 921.514 -2.61366 3.38927 0
M  V30 9936 C 920.84 -4.00616 3.54134 0
M  V30 9937 C 922.14 -2.18161 4.74555 0
M  V30 9938 H 923.834 -0.992546 2.82469 0
M  V30 9939 H 921.38 -0.476018 1.35905 0
M  V30 9940 H 923.333 -3.4053 2.48228 0
M  V30 9941 H 922.057 -2.99154 1.31051 0
M  V30 9942 H 920.716 -1.89395 3.13887 0
M  V30 9943 H 920.364 -4.30938 2.59426 0
M  V30 9944 H 920.064 -3.98335 4.31975 0
M  V30 9945 H 921.588 -4.76741 3.8151 0
M  V30 9946 H 923.002 -2.82323 4.98965 0
M  V30 9947 H 921.399 -2.26988 5.55515 0
M  V30 9948 H 922.469 -1.13333 4.7147 0
M  V30 9949 N 923.813 -1.49104 -0.510467 0
M  V30 9950 C 925.061 -1.578 -1.26268 0
M  V30 9951 C 925.382 -0.262349 -1.93227 0
M  V30 9952 O 924.652 0.717624 -1.82283 0
M  V30 9953 H 923.232 -0.581387 -0.46904 0
M  V30 9954 H 925.894 -1.85678 -0.592423 0
M  V30 9955 H 924.99 -2.36919 -2.03165 0
M  V30 9956 N 925.291 0.760815 -1.38019 0
M  V30 9957 C 926.221 1.88811 -1.37377 0
M  V30 9958 C 927.202 1.68388 -0.240737 0
M  V30 9959 O 928.387 1.89086 -0.442739 0
M  V30 9960 C 925.517 3.26244 -1.1909 0
M  V30 9961 C 924.471 3.61254 -2.29521 0
M  V30 9962 C 923.797 4.97346 -1.96345 0
M  V30 9963 C 925.097 3.66874 -3.71753 0
M  V30 9964 H 926.791 1.89606 -2.31711 0
M  V30 9965 H 924.337 0.910818 -1.11535 0
M  V30 9966 H 926.29 4.04755 -1.17267 0
M  V30 9967 H 925.014 3.2591 -0.212152 0
M  V30 9968 H 923.673 2.85057 -2.30517 0
M  V30 9969 H 923.321 4.93564 -0.969728 0
M  V30 9970 H 923.021 5.21739 -2.703 0
M  V30 9971 H 924.545 5.78244 -1.96129 0
M  V30 9972 H 925.959 4.35514 -3.72828 0
M  V30 9973 H 924.356 4.02772 -4.44853 0
M  V30 9974 H 925.426 2.67273 -4.0459 0
M  V30 9975 N 926.769 1.22769 0.988202 0
M  V30 9976 C 927.679 1.01844 2.11341 0
M  V30 9977 C 928.695 -0.0346937 1.73965 0
M  V30 9978 O 929.871 0.159061 2.00771 0
M  V30 9979 C 926.936 0.603837 3.41401 0
M  V30 9980 C 925.997 1.73113 3.92849 0
M  V30 9981 C 925.23 1.33621 5.16702 0
M  V30 9982 O 925.453 0.217041 5.69987 0
M  V30 9983 O 924.387 2.15444 5.62021 0
M  V30 9984 H 928.213 1.96127 2.31879 0
M  V30 9985 H 925.798 1.01405 1.09715 0
M  V30 9986 H 927.68 0.383196 4.19654 0
M  V30 9987 H 926.355 -0.310082 3.22211 0
M  V30 9988 H 925.262 2.00634 3.15748 0
M  V30 9989 H 926.595 2.62308 4.1648 0
M  V30 9990 N 928.247 -1.18576 1.03814 0
M  V30 9991 C 929.487 -1.90187 0.748882 0
M  V30 9992 C 929.851 -1.78383 -0.710177 0
M  V30 9993 O 931.052 -2.44678 -1.11293 0
M  V30 9994 C 929.323 -3.36688 1.19901 0
M  V30 9995 S 930.882 -4.26419 1.03501 0
M  V30 9996 H 927.7 -0.656765 0.272362 0
M  V30 9997 H 930.302 -1.43296 1.32991 0
M  V30 9998 H 929.006 -3.42808 2.25635 0
M  V30 9999 H 928.537 -3.88616 0.611669 0
M  V30 10000 H 930.552 -4.96176 -0.0490431 0
M  V30 10001 N 929.725 -0.817259 -1.34754 0
M  V30 10002 C 930.953 -0.415451 -2.02686 0
M  V30 10003 C 931.368 0.97688 -1.61563 0
M  V30 10004 O 930.725 1.63125 -0.818321 0
M  V30 10005 C 930.776 -0.501486 -3.58005 0
M  V30 10006 O 930.497 -1.83893 -3.97637 0
M  V30 10007 C 931.998 -0.0938504 -4.43201 0
M  V30 10008 H 929.218 -0.16742 -0.649778 0
M  V30 10009 H 931.762 -1.10384 -1.7215 0
M  V30 10010 H 929.917 0.138766 -3.87151 0
M  V30 10011 H 930.331 -1.8092 -4.92309 0
M  V30 10012 H 931.805 -0.205145 -5.51619 0
M  V30 10013 H 932.282 0.962011 -4.28535 0
M  V30 10014 H 932.888 -0.707677 -4.19371 0
M  V30 10015 N 931.203 1.46865 -0.571711 0
M  V30 10016 C 932.45 2.0243 -0.0531071 0
M  V30 10017 C 932.778 1.44446 1.30252 0
M  V30 10018 O 932.033 0.595182 1.8643 0
M  V30 10019 C 932.332 3.57323 0.0742311 0
M  V30 10020 C 931.998 4.34295 -1.21237 0
M  V30 10021 C 930.66 4.55044 -1.56489 0
M  V30 10022 C 933.012 4.78577 -2.0643 0
M  V30 10023 C 930.34 5.17325 -2.76752 0
M  V30 10024 C 932.692 5.42186 -3.25909 0
M  V30 10025 C 931.356 5.61165 -3.61456 0
M  V30 10026 H 930.626 0.740745 -0.0194333 0
M  V30 10027 H 933.273 1.76366 -0.74614 0
M  V30 10028 H 931.578 3.82461 0.850325 0
M  V30 10029 H 933.275 3.97982 0.491077 0
M  V30 10030 H 929.865 4.18435 -0.927922 0
M  V30 10031 H 934.049 4.62313 -1.80501 0
M  V30 10032 H 929.305 5.30211 -3.04444 0
M  V30 10033 H 933.479 5.75459 -3.92198 0
M  V30 10034 H 931.106 6.09195 -4.54737 0
M  V30 10035 N 932.681 0.308908 1.54543 0
M  V30 10036 C 933.93 -0.298854 1.99474 0
M  V30 10037 C 934.243 -1.54393 1.20093 0
M  V30 10038 O 935.449 -2.22677 1.55329 0
M  V30 10039 C 933.905 -0.58303 3.55146 0
M  V30 10040 C 933.513 0.644157 4.43345 0
M  V30 10041 C 935.257 -1.15155 4.08582 0
M  V30 10042 C 933.164 0.332694 5.90463 0
M  V30 10043 H 932.094 -0.115445 0.74511 0
M  V30 10044 H 934.745 0.418848 1.78656 0
M  V30 10045 H 933.127 -1.36053 3.71894 0
M  V30 10046 H 934.301 1.42012 4.38371 0
M  V30 10047 H 932.616 1.13186 4.00722 0
M  V30 10048 H 935.213 -1.39896 5.16075 0
M  V30 10049 H 935.556 -2.09632 3.59667 0
M  V30 10050 H 936.089 -0.435571 3.95408 0
M  V30 10051 H 932.828 1.24624 6.43544 0
M  V30 10052 H 932.348 -0.405844 5.98425 0
M  V30 10053 H 934.027 -0.0628545 6.46969 0
M  V30 10054 N 934.159 -1.57557 0.0367827 0
M  V30 10055 C 935.436 -1.83427 -0.679261 0
M  V30 10056 C 935.816 -0.922274 -1.89888 0
M  V30 10057 O 935.164 0.02025 -2.28491 0
M  V30 10058 C 935.374 -3.32823 -1.05022 0
M  V30 10059 C 936.722 -3.99486 -1.43861 0
M  V30 10060 O 937.746 -3.37364 -1.14297 0
M  V30 10061 O 936.605 -5.0899 -1.98977 0
M  V30 10062 H 933.699 -0.756581 -0.333936 0
M  V30 10063 H 936.245 -1.69575 0.0650494 0
M  V30 10064 H 935.017 -3.90874 -0.182509 0
M  V30 10065 H 934.64 -3.5181 -1.85244 0
M  V30 10066 N 935.637 0.236453 -1.55816 0
M  V30 10067 C 936.914 0.986463 -1.68903 0
M  V30 10068 C 937.294 2.02984 -0.579722 0
M  V30 10069 O 936.642 2.24693 0.415389 0
M  V30 10070 C 936.852 1.61038 -3.09625 0
M  V30 10071 C 938.2 2.10829 -3.6856 0
M  V30 10072 O 939.224 1.7096 -3.12492 0
M  V30 10073 O 938.083 2.84064 -4.66873 0
M  V30 10074 H 935.177 0.459837 -0.687371 0
M  V30 10075 H 937.723 0.229412 -1.68142 0
M  V30 10076 H 936.495 0.856232 -3.81817 0
M  V30 10077 H 936.118 2.43336 -3.14441 0
M  V30 10078 N 937.115 1.49373 0.502552 0
M  V30 10079 C 938.364 1.58028 1.25339 0
M  V30 10080 C 938.677 0.271494 1.93707 0
M  V30 10081 O 939.883 0.236584 2.70467 0
M  V30 10082 C 938.339 2.78817 2.27572 0
M  V30 10083 C 937.947 4.16448 1.65151 0
M  V30 10084 C 939.691 2.96802 3.03494 0
M  V30 10085 C 937.598 5.28461 2.65486 0
M  V30 10086 H 936.528 0.588396 0.471494 0
M  V30 10087 H 939.179 1.75756 0.52744 0
M  V30 10088 H 937.561 2.5458 3.03323 0
M  V30 10089 H 938.735 4.50816 0.954029 0
M  V30 10090 H 937.05 4.03809 1.01625 0
M  V30 10091 H 939.647 3.77656 3.78524 0
M  V30 10092 H 939.99 2.07303 3.61014 0
M  V30 10093 H 940.523 3.21071 2.34858 0
M  V30 10094 H 937.262 6.20015 2.12749 0
M  V30 10095 H 936.782 4.9855 3.33479 0
M  V30 10096 H 938.461 5.5773 3.27943 0
M  V30 10097 N 938.594 -0.753485 1.38421 0
M  V30 10098 C 939.819 -1.54783 1.38047 0
M  V30 10099 C 940.244 -1.8808 -0.0276371 0
M  V30 10100 O 939.602 -1.5058 -1.00973 0
M  V30 10101 C 939.65 -2.82353 2.24297 0
M  V30 10102 O 938.754 -3.77509 1.66014 0
M  V30 10103 H 938.095 -0.468151 0.470883 0
M  V30 10104 H 940.625 -0.931144 1.82184 0
M  V30 10105 H 940.635 -3.31277 2.38159 0
M  V30 10106 H 939.31 -2.57449 3.26639 0
M  V30 10107 H 937.887 -3.36212 1.61294 0
M  V30 10108 N 940.072 -1.23292 -0.981677 0
M  V30 10109 C 941.035 -1.01417 -2.05542 0
M  V30 10110 C 942.035 0.0235354 -1.60783 0
M  V30 10111 O 943.225 -0.216082 -1.72855 0
M  V30 10112 C 940.357 -0.534239 -3.36688 0
M  V30 10113 H 941.55 -1.96702 -2.26381 0
M  V30 10114 H 939.103 -1.05318 -1.1549 0
M  V30 10115 H 939.838 0.422452 -3.21537 0
M  V30 10116 H 939.623 -1.28304 -3.70514 0
M  V30 10117 H 941.113 -0.40179 -4.15663 0
M  V30 10118 N 941.55 1.18024 -1.04442 0
M  V30 10119 C 942.78 1.91753 -0.769044 0
M  V30 10120 C 943.188 1.76629 0.678141 0
M  V30 10121 O 942.531 1.09589 1.47431 0
M  V30 10122 C 942.593 3.43505 -1.0604 0
M  V30 10123 C 942.257 3.82409 -2.50225 0
M  V30 10124 C 943.254 3.8588 -3.48414 0
M  V30 10125 C 940.939 4.13594 -2.85036 0
M  V30 10126 C 942.933 4.19993 -4.79463 0
M  V30 10127 C 940.62 4.47377 -4.1629 0
M  V30 10128 C 941.618 4.50553 -5.13314 0
M  V30 10129 O 941.306 4.83546 -6.42214 0
M  V30 10130 H 941.038 0.615466 -0.279603 0
M  V30 10131 H 943.592 1.5065 -1.3962 0
M  V30 10132 H 941.822 3.84866 -0.376125 0
M  V30 10133 H 943.511 3.98486 -0.772235 0
M  V30 10134 H 944.277 3.6192 -3.2286 0
M  V30 10135 H 940.156 4.10297 -2.10185 0
M  V30 10136 H 943.7 4.22387 -5.55189 0
M  V30 10137 H 939.597 4.70798 -4.4161 0
M  V30 10138 H 940.365 5.01433 -6.46921 0
M  V30 10139 N 943.028 0.824394 1.34319 0
M  V30 10140 C 943.978 0.219624 2.2694 0
M  V30 10141 C 944.962 -0.616964 1.48601 0
M  V30 10142 O 946.154 -0.471303 1.7061 0
M  V30 10143 C 943.283 -0.616379 3.37721 0
M  V30 10144 C 942.369 0.230917 4.23471 0
M  V30 10145 N 942.76 1.30264 4.88738 0
M  V30 10146 C 941.058 0.0155016 4.45997 0
M  V30 10147 C 941.759 1.82141 5.52449 0
M  V30 10148 N 940.735 1.12508 5.3183 0
M  V30 10149 H 944.537 1.03939 2.74907 0
M  V30 10150 H 942.051 0.667353 1.48055 0
M  V30 10151 H 944.048 -1.06582 4.03046 0
M  V30 10152 H 942.708 -1.43429 2.91304 0
M  V30 10153 H 943.719 1.68545 4.89707 0
M  V30 10154 H 940.396 -0.770128 4.10336 0
M  V30 10155 H 941.786 2.7181 6.14466 0
M  V30 10156 N 944.506 -1.46559 0.579492 0
M  V30 10157 C 945.453 -2.30275 -0.155598 0
M  V30 10158 C 946.423 -1.40422 -0.887175 0
M  V30 10159 O 947.608 -1.69373 -0.878481 0
M  V30 10160 C 944.748 -3.24827 -1.16539 0
M  V30 10161 C 943.861 -4.29778 -0.43759 0
M  V30 10162 C 942.996 -5.11461 -1.43462 0
M  V30 10163 C 942.035 -6.08164 -0.693048 0
M  V30 10164 N 941.172 -6.82726 -1.63799 0
M  V30 10165 H 946.012 -2.92607 0.564356 0
M  V30 10166 H 943.549 -1.44211 0.290126 0
M  V30 10167 H 945.507 -3.78088 -1.76368 0
M  V30 10168 H 944.137 -2.64311 -1.8531 0
M  V30 10169 H 943.189 -3.794 0.27567 0
M  V30 10170 H 944.501 -4.98597 0.142298 0
M  V30 10171 H 943.655 -5.68982 -2.1058 0
M  V30 10172 H 942.394 -4.42595 -2.04844 0
M  V30 10173 H 941.399 -5.49799 -0.00807093 0
M  V30 10174 H 942.624 -6.79047 -0.0846678 0
M  V30 10175 H 940.57 -6.16572 -2.23997 0
M  V30 10176 H 940.487 -7.47795 -1.11082 0
M  V30 10177 H 941.755 -7.44807 -2.29962 0
M  V30 10178 N 945.984 -0.3171 -1.54377 0
M  V30 10179 C 947.231 0.28741 -2.0045 0
M  V30 10180 C 947.559 1.52648 -1.20535 0
M  V30 10181 O 946.814 1.93775 -0.273831 0
M  V30 10182 C 947.113 0.672917 -3.51008 0
M  V30 10183 C 946.779 -0.466245 -4.48483 0
M  V30 10184 C 945.441 -0.778933 -4.74854 0
M  V30 10185 C 947.793 -1.23176 -5.06436 0
M  V30 10186 C 945.121 -1.85997 -5.56437 0
M  V30 10187 C 947.473 -2.30284 -5.89196 0
M  V30 10188 C 946.137 -2.62141 -6.13872 0
M  V30 10189 H 945.407 0.105171 -0.733499 0
M  V30 10190 H 948.054 -0.439538 -1.86388 0
M  V30 10191 H 946.359 1.48019 -3.62764 0
M  V30 10192 H 948.056 1.15209 -3.84094 0
M  V30 10193 H 944.646 -0.212449 -4.28073 0
M  V30 10194 H 948.83 -1.00344 -4.8605 0
M  V30 10195 H 944.086 -2.11134 -5.73788 0
M  V30 10196 H 948.26 -2.90048 -6.33123 0
M  V30 10197 H 945.887 -3.46037 -6.76877 0
M  V30 10198 N 947.462 1.57535 -0.0451378 0
M  V30 10199 C 948.392 2.14208 0.929372 0
M  V30 10200 C 949.373 1.06221 1.32858 0
M  V30 10201 O 950.558 1.34132 1.40436 0
M  V30 10202 C 947.688 2.68217 2.20629 0
M  V30 10203 C 946.642 3.81134 1.94734 0
M  V30 10204 C 945.968 4.21636 3.28828 0
M  V30 10205 C 947.268 5.06531 1.27374 0
M  V30 10206 H 948.962 2.95886 0.457348 0
M  V30 10207 H 946.508 1.42332 0.218544 0
M  V30 10208 H 948.461 3.06502 2.89196 0
M  V30 10209 H 947.185 1.83722 2.70026 0
M  V30 10210 H 945.844 3.43312 1.28579 0
M  V30 10211 H 945.492 3.34099 3.76014 0
M  V30 10212 H 945.192 4.97736 3.12302 0
M  V30 10213 H 946.716 4.62516 3.98637 0
M  V30 10214 H 948.13 5.423 1.85967 0
M  V30 10215 H 946.527 5.87735 1.21194 0
M  V30 10216 H 947.597 4.84261 0.248913 0
M  V30 10217 N 948.94 -0.228186 1.55939 0
M  V30 10218 C 950.188 -0.951668 1.78291 0
M  V30 10219 C 950.509 -1.85132 0.612474 0
M  V30 10220 O 949.779 -1.92356 -0.370942 0
M  V30 10221 H 948.359 -0.354388 0.657585 0
M  V30 10222 H 951.021 -0.241635 1.93396 0
M  V30 10223 H 950.117 -1.56239 2.70177 0
M  V30 10224 N 950.418 -1.49637 -0.494624 0
M  V30 10225 C 951.328 -1.69522 -1.62172 0
M  V30 10226 C 952.344 -0.577894 -1.64123 0
M  V30 10227 O 953.52 -0.853382 -1.82426 0
M  V30 10228 C 950.585 -1.7633 -2.9851 0
M  V30 10229 C 949.646 -2.99944 -3.07135 0
M  V30 10230 C 948.879 -3.06419 -4.36971 0
M  V30 10231 O 949.102 -2.20312 -5.26136 0
M  V30 10232 O 948.036 -3.9894 -4.507 0
M  V30 10233 H 951.862 -2.65017 -1.48324 0
M  V30 10234 H 949.447 -1.33454 -0.671603 0
M  V30 10235 H 951.329 -1.83125 -3.7953 0
M  V30 10236 H 950.004 -0.840155 -3.12607 0
M  V30 10237 H 948.911 -2.98664 -2.2528 0
M  V30 10238 H 950.244 -3.9176 -2.97968 0
M  V30 10239 N 951.896 0.746133 -1.38819 0
M  V30 10240 C 953.142 1.50768 -1.35635 0
M  V30 10241 C 953.475 1.94132 0.0512435 0
M  V30 10242 O 952.75 1.65979 1.01396 0
M  V30 10243 C 953.033 2.7551 -2.31875 0
M  V30 10244 C 952.886 2.38236 -3.81528 0
M  V30 10245 C 954.205 3.77566 -2.26124 0
M  V30 10246 H 951.324 0.546922 -0.494009 0
M  V30 10247 H 953.966 0.854017 -1.69725 0
M  V30 10248 H 952.116 3.31285 -2.02935 0
M  V30 10249 H 953.788 1.88178 -4.21173 0
M  V30 10250 H 952.031 1.70601 -3.98846 0
M  V30 10251 H 952.702 3.27517 -4.44339 0
M  V30 10252 H 955.178 3.31349 -2.51689 0
M  V30 10253 H 954.054 4.62531 -2.95561 0
M  V30 10254 H 954.315 4.23689 -1.26254 0
M  V30 10255 N 953.375 1.23811 0.975125 0
M  V30 10256 C 954.325 0.991036 2.05335 0
M  V30 10257 C 955.309 -0.0648793 1.60769 0
M  V30 10258 O 956.501 0.147917 1.76381 0
M  V30 10259 C 953.63 0.589822 3.38195 0
M  V30 10260 C 952.716 1.68142 3.89344 0
M  V30 10261 N 953.107 2.91274 4.13513 0
M  V30 10262 C 951.405 1.55722 4.17931 0
M  V30 10263 C 952.106 3.61987 4.55347 0
M  V30 10264 N 951.082 2.8952 4.60086 0
M  V30 10265 H 954.884 1.92612 2.21986 0
M  V30 10266 H 952.398 1.13827 1.15832 0
M  V30 10267 H 954.395 0.394075 4.15033 0
M  V30 10268 H 953.055 -0.338157 3.22934 0
M  V30 10269 H 954.066 3.27528 4.01181 0
M  V30 10270 H 950.743 0.696732 4.11645 0
M  V30 10271 H 952.133 4.67572 4.8252 0
M  V30 10272 N 954.853 -1.17469 1.05066 0
M  V30 10273 C 956.093 -1.89382 0.769012 0
M  V30 10274 C 956.457 -1.79126 -0.691217 0
M  V30 10275 O 957.658 -2.45845 -1.08692 0
M  V30 10276 C 955.929 -3.35397 1.23465 0
M  V30 10277 S 957.488 -4.25297 1.08018 0
M  V30 10278 H 954.306 -0.653839 0.279312 0
M  V30 10279 H 956.908 -1.41877 1.34503 0
M  V30 10280 H 955.612 -3.40395 2.29258 0
M  V30 10281 H 955.143 -3.87945 0.652853 0
M  V30 10282 H 957.158 -4.962 0.00358573 0
M  V30 10283 N 956.331 -0.831506 -1.3388 0
M  V30 10284 C 957.579 -0.422837 -1.97627 0
M  V30 10285 C 957.9 1.01961 -1.6622 0
M  V30 10286 O 957.17 1.70916 -0.957323 0
M  V30 10287 H 955.75 -0.153365 -0.731087 0
M  V30 10288 H 958.412 -1.06284 -1.6337 0
M  V30 10289 H 957.508 -0.548858 -3.07236 0
M  V30 10290 N 957.809 1.4625 -0.587256 0
M  V30 10291 C 959.037 2.06744 -0.08033 0
M  V30 10292 C 959.452 1.43527 1.2266 0
M  V30 10293 O 958.809 0.542168 1.74261 0
M  V30 10294 C 958.86 3.61394 0.0873469 0
M  V30 10295 O 958.581 4.22247 -1.16785 0
M  V30 10296 C 960.082 4.38828 0.628095 0
M  V30 10297 H 957.302 0.668354 -0.0595301 0
M  V30 10298 H 959.846 1.87808 -0.809217 0
M  V30 10299 H 958.001 3.79742 0.766473 0
M  V30 10300 H 958.415 5.15176 -0.984565 0
M  V30 10301 H 959.889 5.47613 0.694583 0
M  V30 10302 H 960.366 4.07188 1.64606 0
M  V30 10303 H 960.972 4.25297 -0.0163115 0
M  V30 10304 N 959.287 0.325282 1.54207 0
M  V30 10305 C 960.235 -0.5554 2.25872 0
M  V30 10306 C 961.229 -1.11714 1.27344 0
M  V30 10307 O 962.435 -1.06498 1.45115 0
M  V30 10308 H 958.81 -0.19776 0.725531 0
M  V30 10309 H 960.781 0.0712858 2.98315 0
M  V30 10310 C 959.53 -1.70379 3.03095 0
M  V30 10311 H 958.853 -1.2808 3.78729 0
M  V30 10312 H 960.293 -2.29556 3.56483 0
M  V30 10313 C 958.752 -2.62242 2.11496 0
M  V30 10314 O 959.282 -3.64003 1.69895 0
M  V30 10315 N 957.488 -2.30515 1.7695 0
M  V30 10316 H 957.035 -1.47805 2.10978 0
M  V30 10317 H 956.993 -2.92241 1.15942 0
M  V30 10318 N 960.765 -1.57509 0.0534917 0
M  V30 10319 C 962.011 -1.93068 -0.62069 0
M  V30 10320 C 962.344 -0.932313 -1.70357 0
M  V30 10321 O 961.619 0.0413393 -1.94456 0
M  V30 10322 C 961.902 -3.38997 -1.21463 0
M  V30 10323 C 961.755 -4.49583 -0.13965 0
M  V30 10324 C 963.074 -3.85366 -2.12558 0
M  V30 10325 H 960.193 -0.702083 -0.224163 0
M  V30 10326 H 962.835 -1.89647 0.115729 0
M  V30 10327 H 960.985 -3.42043 -1.84226 0
M  V30 10328 H 962.657 -4.58664 0.492411 0
M  V30 10329 H 960.9 -4.30525 0.532006 0
M  V30 10330 H 961.571 -5.48781 -0.595287 0
M  V30 10331 H 964.047 -3.8421 -1.59755 0
M  V30 10332 H 962.923 -4.8812 -2.51058 0
M  V30 10333 H 963.184 -3.22256 -3.02661 0
M  V30 10334 N 962.243 0.219913 -1.56058 0
M  V30 10335 C 963.659 0.569685 -1.49086 0
M  V30 10336 C 963.859 1.87066 -0.748903 0
M  V30 10337 O 962.915 2.50838 -0.289235 0
M  V30 10338 C 964.228 0.647397 -2.93648 0
M  V30 10339 C 965.776 0.737914 -3.04177 0
M  V30 10340 C 966.251 0.846957 -4.50101 0
M  V30 10341 N 967.742 0.911136 -4.5415 0
M  V30 10342 C 968.477 1.01525 -5.64341 0
M  V30 10343 N 967.973 1.0832 -6.8428 0
M  V30 10344 N 969.766 1.05051 -5.52196 0
M  V30 10345 H 961.917 -0.633778 -2.02724 0
M  V30 10346 H 964.18 -0.222583 -0.921499 0
M  V30 10347 H 963.886 -0.238987 -3.50887 0
M  V30 10348 H 963.76 1.51046 -3.45637 0
M  V30 10349 H 966.147 1.61474 -2.47002 0
M  V30 10350 H 966.228 -0.150845 -2.55355 0
M  V30 10351 H 965.872 -0.0254166 -5.07894 0
M  V30 10352 H 965.802 1.75116 -4.96631 0
M  V30 10353 H 968.293 0.868869 -3.67776 0
M  V30 10354 H 968.606 1.16247 -7.64007 0
M  V30 10355 H 966.951 1.05231 -6.86987 0
M  V30 10356 H 970.142 0.994086 -4.57423 0
M  V30 10357 H 970.315 1.12819 -6.38103 0
M  V30 10358 N 963.721 1.49897 0.486681 0
M  V30 10359 C 965.137 1.36977 0.819109 0
M  V30 10360 C 965.337 0.41385 1.97204 0
M  V30 10361 O 964.393 -0.149249 2.52059 0
M  V30 10362 C 965.706 2.78013 1.14584 0
M  V30 10363 C 967.254 2.86816 1.25321 0
M  V30 10364 C 967.729 4.28651 1.61316 0
M  V30 10365 N 969.22 4.31528 1.68337 0
M  V30 10366 C 969.955 5.38254 1.97662 0
M  V30 10367 N 969.451 6.55207 2.25113 0
M  V30 10368 N 971.244 5.25683 1.99033 0
M  V30 10369 H 963.395 2.10634 -0.273364 0
M  V30 10370 H 965.658 0.946116 -0.0597418 0
M  V30 10371 H 965.364 3.49728 0.371892 0
M  V30 10372 H 965.238 3.1428 2.08585 0
M  V30 10373 H 967.625 2.15329 2.01785 0
M  V30 10374 H 967.706 2.54112 0.293368 0
M  V30 10375 H 967.35 5.00669 0.853968 0
M  V30 10376 H 967.28 4.5883 2.58424 0
M  V30 10377 H 969.771 3.47189 1.49226 0
M  V30 10378 H 970.084 7.32359 2.46717 0
M  V30 10379 H 968.429 6.58408 2.22538 0
M  V30 10380 H 971.62 4.33316 1.77074 0
M  V30 10381 H 971.793 6.08949 2.21552 0
M  V30 10382 N 965.199 -0.738761 1.39212 0
M  V30 10383 C 966.146 -1.85273 1.37631 0
M  V30 10384 C 967.116 -1.64407 0.236572 0
M  V30 10385 O 968.301 -1.85866 0.431104 0
M  V30 10386 C 965.441 -3.22745 1.22188 0
M  V30 10387 C 964.554 -3.55342 2.45674 0
M  V30 10388 C 963.689 -4.82195 2.22847 0
M  V30 10389 C 962.728 -5.07625 3.42029 0
M  V30 10390 N 961.865 -6.25679 3.18543 0
M  V30 10391 H 966.705 -1.85959 2.32859 0
M  V30 10392 H 964.242 -0.908716 1.15675 0
M  V30 10393 H 966.2 -4.02095 1.11245 0
M  V30 10394 H 964.83 -3.21347 0.30592 0
M  V30 10395 H 963.882 -2.70722 2.67233 0
M  V30 10396 H 965.194 -3.70054 3.34457 0
M  V30 10397 H 964.348 -5.69518 2.09126 0
M  V30 10398 H 963.087 -4.6965 1.31454 0
M  V30 10399 H 962.092 -4.18765 3.56253 0
M  V30 10400 H 963.317 -5.22058 4.34319 0
M  V30 10401 H 961.263 -6.14429 2.2981 0
M  V30 10402 H 961.18 -6.40961 4.0088 0
M  V30 10403 H 962.448 -7.15851 3.08508 0
M  V30 10404 N 966.677 -1.24326 -0.968545 0
M  V30 10405 C 968.088 -1.07561 -1.52603 0
M  V30 10406 C 968.439 0.353245 -1.92994 0
M  V30 10407 O 967.564 1.24151 -1.77244 0
M  V30 10408 C 968.159 -1.94634 -2.77314 0
M  V30 10409 C 966.718 -1.82095 -3.29421 0
M  V30 10410 C 965.865 -1.8962 -2.02335 0
M  V30 10411 H 968.816 -1.37815 -0.786932 0
M  V30 10412 H 968.837 -1.47812 -3.50616 0
M  V30 10413 H 968.349 -2.98621 -2.47885 0
M  V30 10414 H 966.45 -0.809376 -3.63703 0
M  V30 10415 H 966.563 -2.66142 -3.98378 0
M  V30 10416 H 964.927 -1.33339 -2.17009 0
M  V30 10417 H 965.71 -2.95185 -1.75273 0
M  V30 10418 N 968.156 1.1691 -1.05688 0
M  V30 10419 C 969.403 1.87292 -0.76993 0
M  V30 10420 C 969.731 1.81339 0.703295 0
M  V30 10421 O 968.986 1.21959 1.5305 0
M  V30 10422 C 969.285 3.36578 -1.20207 0
M  V30 10423 C 968.951 3.62732 -2.67836 0
M  V30 10424 C 967.613 3.69579 -3.08163 0
M  V30 10425 C 969.965 3.73803 -3.63209 0
M  V30 10426 C 967.293 3.84992 -4.42717 0
M  V30 10427 C 969.645 3.90735 -4.97503 0
M  V30 10428 C 968.309 3.95823 -5.37476 0
M  V30 10429 H 967.579 0.68535 -0.281737 0
M  V30 10430 H 970.226 1.38274 -1.32486 0
M  V30 10431 H 968.531 3.87687 -0.566222 0
M  V30 10432 H 970.228 3.89409 -0.957183 0
M  V30 10433 H 966.818 3.58031 -2.35609 0
M  V30 10434 H 971.002 3.67829 -3.3319 0
M  V30 10435 H 966.258 3.87181 -4.73182 0
M  V30 10436 H 970.432 3.98243 -5.71293 0
M  V30 10437 H 968.059 4.07518 -6.41742 0
M  V30 10438 N 969.634 0.838594 1.33437 0
M  V30 10439 C 970.862 0.447644 2.01999 0
M  V30 10440 C 971.277 -0.951053 1.63096 0
M  V30 10441 O 970.634 -1.61802 0.844169 0
M  V30 10442 C 970.685 0.558378 3.57162 0
M  V30 10443 O 970.406 1.90196 3.94661 0
M  V30 10444 C 971.907 0.164348 4.42995 0
M  V30 10445 H 969.127 0.177736 0.647032 0
M  V30 10446 H 971.671 1.13109 1.70372 0
M  V30 10447 H 969.826 -0.0771563 3.87323 0
M  V30 10448 H 970.24 1.88729 4.89369 0
M  V30 10449 H 971.714 0.292876 5.51222 0
M  V30 10450 H 972.191 -0.893713 4.30011 0
M  V30 10451 H 972.797 0.774306 4.18192 0
M  V30 10452 N 971.112 -1.45937 0.595003 0
M  V30 10453 C 972.359 -2.0232 0.0853053 0
M  V30 10454 C 972.687 -1.465 -1.27937 0
M  V30 10455 O 971.942 -0.624767 -1.85459 0
M  V30 10456 C 972.241 -3.57396 -0.0173747 0
M  V30 10457 C 971.907 -4.32311 1.28131 0
M  V30 10458 C 970.569 -4.52496 1.63708 0
M  V30 10459 C 972.921 -4.75233 2.14017 0
M  V30 10460 C 970.249 -5.12857 2.84947 0
M  V30 10461 C 972.601 -5.36933 3.34493 0
M  V30 10462 C 971.265 -5.55343 3.70338 0
M  V30 10463 H 970.535 -0.740342 0.0312154 0
M  V30 10464 H 973.182 -1.75157 0.774103 0
M  V30 10465 H 971.487 -3.83766 -0.789371 0
M  V30 10466 H 973.184 -3.98713 -0.427699 0
M  V30 10467 H 969.774 -4.16905 0.994374 0
M  V30 10468 H 973.958 -4.59383 1.87833 0
M  V30 10469 H 969.214 -5.253 3.12841 0
M  V30 10470 H 973.388 -5.69147 4.01304 0
M  V30 10471 H 971.015 -6.01883 4.64371 0
M  V30 10472 N 972.59 -0.333456 -1.54032 0
M  V30 10473 C 973.537 0.527981 -2.2468 0
M  V30 10474 C 974.507 1.10371 -1.24127 0
M  V30 10475 O 975.692 1.14221 -1.52834 0
M  V30 10476 C 972.832 1.67808 -3.01553 0
M  V30 10477 C 971.945 1.13064 -4.16942 0
M  V30 10478 C 971.08 2.24722 -4.81325 0
M  V30 10479 C 970.119 1.67277 -5.88799 0
M  V30 10480 N 969.256 2.72638 -6.47003 0
M  V30 10481 H 974.096 -0.0810308 -2.9789 0
M  V30 10482 H 971.633 -0.051761 -1.47009 0
M  V30 10483 H 973.591 2.35502 -3.44376 0
M  V30 10484 H 972.221 2.25823 -2.30659 0
M  V30 10485 H 971.273 0.344948 -3.78833 0
M  V30 10486 H 972.585 0.670373 -4.94275 0
M  V30 10487 H 971.739 3.00301 -5.27166 0
M  V30 10488 H 970.478 2.74089 -4.03394 0
M  V30 10489 H 969.483 0.902002 -5.4235 0
M  V30 10490 H 970.708 1.18775 -6.68632 0
M  V30 10491 H 968.654 3.21277 -5.71941 0
M  V30 10492 H 968.571 2.31204 -7.19778 0
M  V30 10493 H 969.839 3.48015 -6.97499 0
M  V30 10494 N 974.068 1.57479 -0.061844 0
M  V30 10495 C 975.314 1.9421 0.604485 0
M  V30 10496 C 975.669 0.941011 1.67818 0
M  V30 10497 O 974.962 -0.0382264 1.91562 0
M  V30 10498 C 975.156 3.35394 1.23474 0
M  V30 10499 C 974.985 4.49144 0.223628 0
M  V30 10500 C 973.755 5.04949 -0.188187 0
M  V30 10501 C 975.953 5.11508 -0.535193 0
M  V30 10502 N 973.935 6.02235 -1.19105 0
M  V30 10503 C 975.306 6.04199 -1.39082 0
M  V30 10504 C 977.361 4.94364 -0.592346 0
M  V30 10505 C 976.064 6.81587 -2.2985 0
M  V30 10506 C 978.09 5.72388 -1.48749 0
M  V30 10507 C 977.452 6.6472 -2.33082 0
M  V30 10508 H 973.551 0.757931 0.192522 0
M  V30 10509 H 976.135 1.9422 -0.136667 0
M  V30 10510 H 974.306 3.36141 1.94587 0
M  V30 10511 H 976.038 3.59387 1.86073 0
M  V30 10512 H 972.793 4.73207 0.192933 0
M  V30 10513 H 973.217 6.55575 -1.68969 0
M  V30 10514 H 977.859 4.22776 0.045445 0
M  V30 10515 H 975.577 7.5246 -2.94669 0
M  V30 10516 H 979.163 5.61146 -1.53642 0
M  V30 10517 H 978.043 7.2404 -3.01225 0
M  V30 10518 N 975.546 -0.211634 1.56173 0
M  V30 10519 C 976.792 -0.931479 1.80818 0
M  V30 10520 C 977.147 -1.81571 0.636373 0
M  V30 10521 O 976.44 -1.8801 -0.369182 0
M  V30 10522 C 976.634 -1.79657 3.08963 0
M  V30 10523 C 976.463 -0.997577 4.38496 0
M  V30 10524 C 975.233 -0.688558 5.00587 0
M  V30 10525 C 977.431 -0.358138 5.13052 0
M  V30 10526 N 975.413 0.130797 6.13761 0
M  V30 10527 C 976.784 0.324159 6.19152 0
M  V30 10528 C 978.839 -0.272178 4.97156 0
M  V30 10529 C 977.542 1.08421 7.11082 0
M  V30 10530 C 979.568 0.474428 5.89494 0
M  V30 10531 C 978.93 1.14523 6.95028 0
M  V30 10532 H 975.029 -0.32079 0.713174 0
M  V30 10533 H 977.613 -0.201528 1.93654 0
M  V30 10534 H 975.784 -2.49826 2.97392 0
M  V30 10535 H 977.516 -2.45464 3.2176 0
M  V30 10536 H 974.271 -1.00899 4.62727 0
M  V30 10537 H 974.695 0.5296 6.74925 0
M  V30 10538 H 979.337 -0.776448 4.15609 0
M  V30 10539 H 977.055 1.59996 7.92103 0
M  V30 10540 H 980.641 0.542076 5.79269 0
M  V30 10541 H 979.521 1.71371 7.65246 0
M  V30 10542 N 977.024 -1.50153 -0.478725 0
M  V30 10543 C 977.974 -1.64848 -1.57509 0
M  V30 10544 C 978.958 -0.503327 -1.52825 0
M  V30 10545 O 980.15 -0.75737 -1.59978 0
M  V30 10546 C 977.279 -1.73893 -2.96 0
M  V30 10547 C 976.365 -2.9406 -3.05597 0
M  V30 10548 N 976.756 -4.17844 -2.85027 0
M  V30 10549 C 975.054 -2.92459 -3.36725 0
M  V30 10550 C 975.755 -4.98739 -2.9939 0
M  V30 10551 N 974.731 -4.32542 -3.29255 0
M  V30 10552 H 978.533 -2.58254 -1.40293 0
M  V30 10553 H 976.047 -1.47232 -0.685307 0
M  V30 10554 H 978.044 -1.82523 -3.74821 0
M  V30 10555 H 976.704 -0.816402 -3.14269 0
M  V30 10556 H 977.715 -4.47465 -2.60759 0
M  V30 10557 H 974.392 -2.09675 -3.6103 0
M  V30 10558 H 975.782 -6.07146 -2.8779 0
M  V30 10559 N 978.502 0.731368 -1.39602 0
M  V30 10560 C 979.435 1.85433 -1.33004 0
M  V30 10561 C 980.413 1.61327 -0.20307 0
M  V30 10562 O 981.597 1.84545 -0.384124 0
M  V30 10563 C 978.724 3.21483 -1.06613 0
M  V30 10564 C 977.77 3.64443 -2.21549 0
M  V30 10565 S 978.603 3.73387 -3.83852 0
M  V30 10566 C 979.759 5.12222 -3.59694 0
M  V30 10567 H 979.992 1.90747 -2.28041 0
M  V30 10568 H 977.525 0.89659 -1.25701 0
M  V30 10569 H 979.483 4.00041 -0.920719 0
M  V30 10570 H 978.144 3.1382 -0.132563 0
M  V30 10571 H 977.337 4.63185 -1.98686 0
M  V30 10572 H 976.939 2.93099 -2.32312 0
M  V30 10573 H 979.231 5.98666 -3.17184 0
M  V30 10574 H 980.174 5.40115 -4.5791 0
M  V30 10575 H 980.582 4.8207 -2.93716 0
M  V30 10576 N 979.98 1.24838 0.961938 0
M  V30 10577 C 981.226 1.09313 1.70817 0
M  V30 10578 C 981.559 -0.366244 1.90715 0
M  V30 10579 O 980.834 -1.27036 1.47282 0
M  V30 10580 C 981.117 1.83988 3.09549 0
M  V30 10581 C 980.97 3.3771 2.97106 0
M  V30 10582 C 982.289 1.61718 4.09311 0
M  V30 10583 H 979.408 0.398498 0.619974 0
M  V30 10584 H 982.05 1.53579 1.11864 0
M  V30 10585 H 980.2 1.46363 3.59875 0
M  V30 10586 H 981.872 3.84967 2.54161 0
M  V30 10587 H 980.115 3.65795 2.33187 0
M  V30 10588 H 980.786 3.85166 3.95412 0
M  V30 10589 H 983.262 1.94458 3.67866 0
M  V30 10590 H 982.138 2.16415 5.04436 0
M  V30 10591 H 982.399 0.55677 4.3858 0
M  V30 10592 N 981.458 -1.16348 1.06306 0
M  V30 10593 C 982.869 -1.68491 0.80422 0
M  V30 10594 C 983.22 -1.84327 -0.672159 0
M  V30 10595 O 982.345 -1.53892 -1.52139 0
M  V30 10596 C 982.94 -3.06048 1.45328 0
M  V30 10597 C 981.499 -3.55311 1.24221 0
M  V30 10598 C 980.646 -2.31291 1.5297 0
M  V30 10599 H 983.597 -1.00708 1.22652 0
M  V30 10600 H 983.618 -3.70451 0.868674 0
M  V30 10601 H 983.13 -2.9449 2.52779 0
M  V30 10602 H 981.231 -3.72128 0.187447 0
M  V30 10603 H 981.344 -4.37397 1.95502 0
M  V30 10604 H 979.708 -2.3631 0.950241 0
M  V30 10605 H 980.491 -2.22331 2.6158 0
M  V30 10606 O 982.975 -0.980107 -1.2836 0
M  V30 10607 H 983.666 -0.624235 -1.83366 0
M  V30 END ATOM
M  V30 BEGIN BOND
M  V30 END BOND
M  V30 END CTAB
M  END
$$$$
