drugbank_target|Q9Y289 Sodium-dependent multivitamin transporter (DB00166)
 OpenBabel12092119243D

  0  0  0     0  0            999 V3000
M  V30 BEGIN CTAB
M  V30 COUNTS 9746 9870 0 0 0
M  V30 BEGIN ATOM
M  V30 1 H -0.908 1.98254 -0.117106 0
M  V30 2 N 0 1.576 0 0
M  V30 3 C 0.933 2.03868 1.02534 0
M  V30 4 C 1.911 0.928543 1.3348 0
M  V30 5 O 3.095 1.19667 1.45644 0
M  V30 6 C 0.222 2.43627 2.35294 0
M  V30 7 C -0.732 3.65373 2.2001 0
M  V30 8 S 0.101 5.13292 1.52614 0
M  V30 9 C 1.257 5.56322 2.86805 0
M  V30 10 H 1.49 2.90518 0.631377 0
M  V30 11 H -0.977 1.52953 0.210867 0
M  V30 12 H 0.981 2.67203 3.11629 0
M  V30 13 H -0.358 1.57376 2.7183 0
M  V30 14 H -1.165 3.90944 3.18086 0
M  V30 15 H -1.563 3.418 1.51819 0
M  V30 16 H 0.729 5.58782 3.83104 0
M  V30 17 H 1.672 6.56266 2.65933 0
M  V30 18 H 2.08 4.83886 2.90714 0
M  V30 19 N 1.4781 -0.272755 1.55222 0
M  V30 20 C 2.7031 -1.02683 1.80197 0
M  V30 21 C 3.1281 -1.79142 0.573551 0
M  V30 22 O 2.4861 -1.74917 -0.476849 0
M  V30 23 C 2.5341 -1.9609 3.02624 0
M  V30 24 O 1.6381 -3.04863 2.77727 0
M  V30 25 H 0.9791 -0.293557 0.595584 0
M  V30 26 H 3.5091 -0.30159 2.02365 0
M  V30 27 H 3.5191 -2.38039 3.31363 0
M  V30 28 H 2.1941 -1.39851 3.91682 0
M  V30 29 H 0.7711 -2.67228 2.60084 0
M  V30 30 N 2.9562 -1.48159 -0.537278 0
M  V30 31 C 4.2022 -1.56035 -1.29541 0
M  V30 32 C 4.5352 -0.230377 -1.92829 0
M  V30 33 O 3.8102 0.762952 -1.78911 0
M  V30 34 C 4.0932 -2.69323 -2.39034 0
M  V30 35 C 3.9462 -4.12002 -1.80485 0
M  V30 36 C 5.2652 -2.78408 -3.40847 0
M  V30 37 H 2.3842 -0.567992 -0.469632 0
M  V30 38 H 5.0262 -1.80302 -0.599277 0
M  V30 39 H 3.1762 -2.48763 -2.98412 0
M  V30 40 H 4.8482 -4.43981 -1.25215 0
M  V30 41 H 3.0912 -4.19344 -1.11055 0
M  V30 42 H 3.7622 -4.87077 -2.59731 0
M  V30 43 H 6.2382 -2.97012 -2.91416 0
M  V30 44 H 5.1142 -3.59416 -4.14863 0
M  V30 45 H 5.3752 -1.86269 -4.00944 0
M  V30 46 N 4.4343 0.785586 -1.36625 0
M  V30 47 C 5.6823 1.54057 -1.30808 0
M  V30 48 C 6.0033 1.94683 0.111157 0
M  V30 49 O 5.2733 1.65241 1.05224 0
M  V30 50 H 3.8533 0.571354 -0.481211 0
M  V30 51 H 6.5153 0.935821 -1.70963 0
M  V30 52 H 5.6113 2.44637 -1.93801 0
M  V30 53 N 5.9124 1.20967 1.01018 0
M  V30 54 C 7.1584 1.02526 1.74975 0
M  V30 55 C 7.4914 -0.4408 1.89131 0
M  V30 56 O 6.7664 -1.32718 1.42184 0
M  V30 57 C 7.0494 1.71699 3.1653 0
M  V30 58 C 6.9024 3.25791 3.10129 0
M  V30 59 C 8.2214 1.45531 4.15342 0
M  V30 60 H 5.3404 0.373863 0.635134 0
M  V30 61 H 7.9824 1.49071 1.17805 0
M  V30 62 H 6.1324 1.32128 3.65341 0
M  V30 63 H 7.8044 3.74697 2.69072 0
M  V30 64 H 6.0474 3.56363 2.47362 0
M  V30 65 H 6.7184 3.69353 4.10222 0
M  V30 66 H 9.1944 1.79872 3.75213 0
M  V30 67 H 8.0704 1.96453 5.1254 0
M  V30 68 H 8.3314 0.384237 4.40427 0
M  V30 69 N 7.3905 -1.2043 1.01659 0
M  V30 70 C 8.6155 -1.94318 0.724942 0
M  V30 71 C 9.0405 -1.74266 -0.708034 0
M  V30 72 O 8.3985 -1.03694 -1.48719 0
M  V30 73 C 8.4465 -3.44486 1.06591 0
M  V30 74 O 7.5505 -4.12017 0.177599 0
M  V30 75 H 6.8915 -0.60708 0.26898 0
M  V30 76 H 9.4215 -1.52861 1.35995 0
M  V30 77 H 9.4315 -3.95106 1.01762 0
M  V30 78 H 8.1065 -3.58404 2.10997 0
M  V30 79 H 6.6835 -3.71821 0.283421 0
M  V30 80 N 8.8686 -0.792821 -1.36206 0
M  V30 81 C 10.0966 -0.378825 -2.03402 0
M  V30 82 C 10.5116 1.00586 -1.59774 0
M  V30 83 O 9.8686 1.64574 -0.788764 0
M  V30 84 C 9.9196 -0.43683 -3.58851 0
M  V30 85 O 9.6406 -1.76691 -4.00889 0
M  V30 86 C 11.1416 -0.0138943 -4.43298 0
M  V30 87 H 8.3616 -0.155673 -0.652692 0
M  V30 88 H 10.9056 -1.07261 -1.74113 0
M  V30 89 H 9.0606 0.208575 -3.86838 0
M  V30 90 H 9.4746 -1.72011 -4.95492 0
M  V30 91 H 10.9486 -0.105615 -5.51899 0
M  V30 92 H 11.4256 1.03915 -4.2673 0
M  V30 93 H 12.0316 -0.63192 -4.20579 0
M  V30 94 N 10.3467 1.47872 -0.545128 0
M  V30 95 C 11.5717 2.07391 -0.0190611 0
M  V30 96 C 11.9967 1.39688 1.25971 0
M  V30 97 O 11.3547 0.467816 1.7516 0
M  V30 98 C 11.4027 3.60188 0.172335 0
M  V30 99 O 10.5067 3.9339 1.23766 0
M  V30 100 H 9.8477 0.662411 -0.0459059 0
M  V30 101 H 12.3777 1.90066 -0.757365 0
M  V30 102 H 12.3877 4.06129 0.390305 0
M  V30 103 H 11.0627 4.08865 -0.761725 0
M  V30 104 H 9.6397 3.5921 1.00114 0
M  V30 105 N 11.8248 0.280983 1.55075 0
M  V30 106 C 12.7878 -0.590896 2.21452 0
M  V30 107 C 13.7878 -1.07682 1.19421 0
M  V30 108 O 14.9778 -0.97605 1.44288 0
M  V30 109 C 12.1098 -1.81587 2.88511 0
M  V30 110 H 13.3028 -0.0112554 2.99898 0
M  V30 111 H 10.8558 0.0316438 1.56268 0
M  V30 112 H 11.5908 -2.43587 2.14093 0
M  V30 113 H 11.3758 -1.4753 3.63287 0
M  V30 114 H 12.8658 -2.43575 3.39206 0
M  V30 115 N 13.3029 -1.57598 0.00835791 0
M  V30 116 C 14.7139 -1.7892 -0.53333 0
M  V30 117 C 15.0649 -0.916609 -1.73473 0
M  V30 118 O 14.1899 -0.121336 -2.1606 0
M  V30 119 C 14.7849 -3.24488 -0.974313 0
M  V30 120 C 13.3439 -3.46878 -1.46125 0
M  V30 121 C 12.4909 -2.74157 -0.416302 0
M  V30 122 H 15.4419 -1.56958 0.234495 0
M  V30 123 H 15.4629 -3.3306 -1.83988 0
M  V30 124 H 14.9749 -3.87972 -0.099718 0
M  V30 125 H 13.0759 -2.8862 -2.35646 0
M  V30 126 H 13.1889 -4.55572 -1.48295 0
M  V30 127 H 11.5529 -2.39022 -0.87981 0
M  V30 128 H 12.3359 -3.40345 0.44947 0
M  V30 129 N 14.781 0.264519 -1.55364 0
M  V30 130 C 15.711 1.33121 -1.91836 0
M  V30 131 C 16.692 1.51101 -0.781192 0
M  V30 132 O 17.877 1.64003 -1.04003 0
M  V30 133 C 15.007 2.68921 -2.19769 0
M  V30 134 C 13.961 2.65661 -3.35571 0
M  V30 135 C 13.287 4.05093 -3.49004 0
M  V30 136 C 14.587 2.24187 -4.71739 0
M  V30 137 H 16.281 1.02844 -2.81182 0
M  V30 138 H 13.827 0.493286 -1.35287 0
M  V30 139 H 15.78 3.43663 -2.43872 0
M  V30 140 H 14.504 3.00799 -1.27231 0
M  V30 141 H 13.163 1.93377 -3.1145 0
M  V30 142 H 12.811 4.34206 -2.53917 0
M  V30 143 H 12.511 4.03804 -4.26868 0
M  V30 144 H 14.035 4.81561 -3.75408 0
M  V30 145 H 15.449 2.88654 -4.9533 0
M  V30 146 H 13.846 2.34044 -5.52579 0
M  V30 147 H 14.916 1.19327 -4.69988 0
M  V30 148 N 16.2591 1.48442 0.529413 0
M  V30 149 C 17.4841 1.60406 1.31471 0
M  V30 150 C 17.9091 0.264738 1.86228 0
M  V30 151 O 17.2671 -0.763668 1.64432 0
M  V30 152 C 17.3151 2.65419 2.44101 0
M  V30 153 O 16.4191 2.22618 3.47153 0
M  V30 154 H 15.7601 0.537863 0.389357 0
M  V30 155 H 18.2901 1.94432 0.636965 0
M  V30 156 H 18.3001 2.86709 2.90279 0
M  V30 157 H 16.9751 3.62652 2.03608 0
M  V30 158 H 15.5521 2.11543 3.0709 0
M  V30 159 N 17.7372 -0.778329 1.37039 0
M  V30 160 C 19.1482 -1.35421 1.28523 0
M  V30 161 C 19.4992 -1.96075 -0.0700901 0
M  V30 162 O 18.6242 -1.93352 -0.971801 0
M  V30 163 C 19.2192 -2.46211 2.32735 0
M  V30 164 C 17.7782 -2.99585 2.27873 0
M  V30 165 C 16.9252 -1.72748 2.16918 0
M  V30 166 H 19.8762 -0.5791 1.47757 0
M  V30 167 H 19.8972 -3.2552 1.9702 0
M  V30 168 H 19.4092 -2.02036 3.31365 0
M  V30 169 H 17.5102 -3.48152 1.32745 0
M  V30 170 H 17.6232 -3.55646 3.21018 0
M  V30 171 H 15.9872 -1.95416 1.63354 0
M  V30 172 H 16.7702 -1.30686 3.17452 0
M  V30 173 N 19.2153 -1.21501 -1.00376 0
M  V30 174 C 20.4433 -1.059 -1.77744 0
M  V30 175 C 20.8583 0.391125 -1.84704 0
M  V30 176 O 20.2153 1.27133 -1.30933 0
M  V30 177 C 20.2663 -1.65111 -3.21591 0
M  V30 178 O 19.9873 -3.0445 -3.15027 0
M  V30 179 C 21.4883 -1.54637 -4.15454 0
M  V30 180 H 18.7083 -0.371825 -0.558558 0
M  V30 181 H 21.2523 -1.60865 -1.26264 0
M  V30 182 H 19.4073 -1.14235 -3.70175 0
M  V30 183 H 19.8213 -3.3278 -4.0541 0
M  V30 184 H 21.2953 -2.00808 -5.14179 0
M  V30 185 H 21.7723 -0.501022 -4.36333 0
M  V30 186 H 22.3783 -2.04767 -3.72761 0
M  V30 187 N 20.6934 1.19889 -1.02296 0
M  V30 188 C 21.9184 1.9393 -0.735237 0
M  V30 189 C 22.3434 1.74639 0.698782 0
M  V30 190 O 21.7014 1.04481 1.48167 0
M  V30 191 C 21.7494 3.43916 -1.08417 0
M  V30 192 O 20.8534 4.11917 -0.199446 0
M  V30 193 H 20.1944 0.605645 -0.272196 0
M  V30 194 H 22.7244 1.52137 -1.36804 0
M  V30 195 H 22.7344 3.9456 -1.03856 0
M  V30 196 H 21.4094 3.5728 -2.12894 0
M  V30 197 H 19.9864 3.71666 -0.303136 0
M  V30 198 N 22.1715 0.800033 1.35784 0
M  V30 199 C 23.4195 0.376597 1.9856 0
M  V30 200 C 23.7405 -1.05812 1.63795 0
M  V30 201 O 23.0105 -1.73103 0.917171 0
M  V30 202 H 21.5905 0.136261 0.734467 0
M  V30 203 H 24.2525 1.02442 1.65806 0
M  V30 204 H 23.3485 0.477002 3.08433 0
M  V30 205 N 23.6496 -1.47581 0.552962 0
M  V30 206 C 24.8776 -2.06875 0.0320556 0
M  V30 207 C 25.2926 -1.40625 -1.25976 0
M  V30 208 O 24.6496 -0.501349 -1.75479 0
M  V30 209 C 24.7006 -3.61092 -0.17167 0
M  V30 210 O 24.4216 -4.24858 1.06899 0
M  V30 211 C 25.9226 -4.37242 -0.730344 0
M  V30 212 H 23.1426 -0.669561 0.043915 0
M  V30 213 H 25.6866 -1.89646 0.765163 0
M  V30 214 H 23.8416 -3.7785 -0.854894 0
M  V30 215 H 24.2556 -5.17334 0.864059 0
M  V30 216 H 25.7296 -5.45842 -0.822203 0
M  V30 217 H 26.2066 -4.03235 -1.74064 0
M  V30 218 H 26.8126 -4.25219 -0.0829543 0
M  V30 219 N 25.1277 -0.289203 -1.54924 0
M  V30 220 C 26.3527 0.329299 -2.04769 0
M  V30 221 C 26.7777 1.4763 -1.16564 0
M  V30 222 O 26.1357 1.80527 -0.167186 0
M  V30 223 C 26.1837 0.774438 -3.52186 0
M  V30 224 O 25.2877 1.88038 -3.67036 0
M  V30 225 H 24.6287 0.0659259 -0.660719 0
M  V30 226 H 27.1587 -0.42761 -2.00082 0
M  V30 227 H 27.1687 1.06642 -3.93816 0
M  V30 228 H 25.8437 -0.0646707 -4.1585 0
M  V30 229 H 24.4207 1.58985 -3.3731 0
M  V30 230 N 26.6058 1.57591 -0.0167156 0
M  V30 231 C 27.8518 1.91567 0.665582 0
M  V30 232 C 28.1848 0.892298 1.72487 0
M  V30 233 O 27.4598 -0.0867127 1.94307 0
M  V30 234 C 27.7428 3.36069 1.29342 0
M  V30 235 C 27.5958 4.49135 0.244541 0
M  V30 236 C 28.9148 3.803 2.21495 0
M  V30 237 H 26.0338 0.69666 0.240488 0
M  V30 238 H 28.6758 1.89866 -0.0714356 0
M  V30 239 H 26.8258 3.3765 1.92158 0
M  V30 240 H 28.4978 4.59689 -0.385228 0
M  V30 241 H 26.7408 4.3165 -0.431379 0
M  V30 242 H 27.4118 5.47242 0.723207 0
M  V30 243 H 29.8878 3.80377 1.68678 0
M  V30 244 H 28.7638 4.82127 2.62382 0
M  V30 245 H 29.0248 3.15104 3.101 0
M  V30 246 N 28.0839 -0.256276 1.55502 0
M  V30 247 C 29.3319 -0.983672 1.76545 0
M  V30 248 C 29.6529 -1.86206 0.578982 0
M  V30 249 O 28.9229 -1.91656 -0.405577 0
M  V30 250 H 27.5029 -0.366191 0.651086 0
M  V30 251 H 30.1649 -0.276479 1.92929 0
M  V30 252 H 29.2609 -1.61087 2.67315 0
M  V30 253 N 29.562 -1.4872 -0.521534 0
M  V30 254 C 30.495 -1.58451 -1.64221 0
M  V30 255 C 31.473 -0.434513 -1.56687 0
M  V30 256 O 32.657 -0.647275 -1.77038 0
M  V30 257 C 29.784 -1.52037 -3.02659 0
M  V30 258 C 28.83 -2.71981 -3.28525 0
M  V30 259 S 29.663 -4.33869 -3.13876 0
M  V30 260 C 30.819 -4.30067 -4.54745 0
M  V30 261 H 31.052 -2.53256 -1.55719 0
M  V30 262 H 28.585 -1.37358 -0.705143 0
M  V30 263 H 30.543 -1.49023 -3.82495 0
M  V30 264 H 29.204 -0.585541 -3.08594 0
M  V30 265 H 28.397 -2.63656 -4.29536 0
M  V30 266 H 27.999 -2.72302 -2.56374 0
M  V30 267 H 30.291 -4.00521 -5.46433 0
M  V30 268 H 31.234 -5.31287 -4.68123 0
M  V30 269 H 31.642 -3.60419 -4.34463 0
M  V30 270 N 31.0401 0.771051 -1.3745 0
M  V30 271 C 32.2651 1.56529 -1.36065 0
M  V30 272 C 32.6901 1.88029 0.0515859 0
M  V30 273 O 32.0481 1.49282 1.02882 0
M  V30 274 C 32.0961 2.85187 -2.20683 0
M  V30 275 O 31.2001 3.79593 -1.61193 0
M  V30 276 H 30.5411 0.47411 -0.464883 0
M  V30 277 H 33.0711 0.954269 -1.80983 0
M  V30 278 H 33.0811 3.34283 -2.33921 0
M  V30 279 H 31.7561 2.61588 -3.23334 0
M  V30 280 H 30.3331 3.38239 -1.56999 0
M  V30 281 N 32.5182 1.22032 0.997298 0
M  V30 282 C 33.7462 1.06841 1.7718 0
M  V30 283 C 34.1612 -0.381325 1.84909 0
M  V30 284 O 33.5182 -1.26437 1.31605 0
M  V30 285 C 33.5692 1.66814 3.20711 0
M  V30 286 O 33.2902 3.06116 3.13408 0
M  V30 287 C 34.7912 1.56838 4.14628 0
M  V30 288 H 32.0112 0.374782 0.556578 0
M  V30 289 H 34.5552 1.61532 1.2541 0
M  V30 290 H 32.7102 1.16196 3.69564 0
M  V30 291 H 33.1242 3.34926 4.0364 0
M  V30 292 H 34.5982 2.03532 5.13107 0
M  V30 293 H 35.0752 0.524155 4.36061 0
M  V30 294 H 35.6812 2.06741 3.7167 0
M  V30 295 N 33.9963 -1.19345 1.0293 0
M  V30 296 C 35.2433 -1.89038 0.726008 0
M  V30 297 C 35.5713 -1.79649 -0.745427 0
M  V30 298 O 34.8263 -1.18354 -1.55855 0
M  V30 299 C 35.1253 -3.39292 1.12319 0
M  V30 300 C 34.7913 -3.68885 2.59297 0
M  V30 301 C 33.4533 -3.76671 2.99453 0
M  V30 302 C 35.8053 -3.82178 3.54386 0
M  V30 303 C 33.1333 -3.9522 4.33611 0
M  V30 304 C 35.4853 -4.0224 4.88248 0
M  V30 305 C 34.1493 -4.08259 5.28092 0
M  V30 306 H 33.4193 -0.691739 0.265665 0
M  V30 307 H 36.0663 -1.41328 1.29223 0
M  V30 308 H 34.3713 -3.88903 0.475584 0
M  V30 309 H 36.0683 -3.91536 0.866037 0
M  V30 310 H 32.6583 -3.63433 2.27189 0
M  V30 311 H 36.8423 -3.75505 3.24514 0
M  V30 312 H 32.0983 -3.98119 4.64016 0
M  V30 313 H 36.2723 -4.11468 5.61843 0
M  V30 314 H 33.8993 -4.22384 6.32057 0
M  V30 315 N 35.4744 -0.807222 -1.35358 0
M  V30 316 C 36.6994 -0.399309 -2.0352 0
M  V30 317 C 37.1244 0.981986 -1.60433 0
M  V30 318 O 36.4824 1.63601 -0.781299 0
M  V30 319 C 36.5304 -0.491552 -3.57234 0
M  V30 320 O 35.6344 0.494754 -4.09421 0
M  V30 321 H 34.9754 -0.166682 -0.642739 0
M  V30 322 H 37.5054 -1.09328 -1.72941 0
M  V30 323 H 37.5154 -0.361588 -4.06395 0
M  V30 324 H 36.1904 -1.49907 -3.87944 0
M  V30 325 H 34.7674 0.324977 -3.71481 0
M  V30 326 N 36.9525 1.47285 -0.560781 0
M  V30 327 C 38.2015 2.01668 -0.035895 0
M  V30 328 C 38.5145 1.44021 1.32353 0
M  V30 329 O 39.7205 1.90088 1.93853 0
M  V30 330 C 38.1765 3.59897 -0.0136659 0
M  V30 331 C 37.7845 4.26536 -1.37006 0
M  V30 332 C 39.5285 4.22017 0.458425 0
M  V30 333 C 37.4355 5.76782 -1.30675 0
M  V30 334 H 36.3655 0.753938 -0.00964879 0
M  V30 335 H 39.0165 1.69243 -0.709166 0
M  V30 336 H 37.3985 3.89301 0.725325 0
M  V30 337 H 38.5725 4.0877 -2.12705 0
M  V30 338 H 36.8875 3.76419 -1.78038 0
M  V30 339 H 39.4845 5.32124 0.524247 0
M  V30 340 H 39.8275 3.89437 1.4712 0
M  V30 341 H 40.3605 3.97159 -0.225818 0
M  V30 342 H 37.0995 6.13988 -2.29564 0
M  V30 343 H 36.6195 5.96875 -0.591622 0
M  V30 344 H 38.2985 6.39063 -1.01033 0
M  V30 345 N 38.4306 0.297415 1.54768 0
M  V30 346 C 39.3636 -0.622188 2.19554 0
M  V30 347 C 40.3416 -1.13558 1.16376 0
M  V30 348 O 41.5256 -1.20444 1.45002 0
M  V30 349 C 38.6526 -1.8509 2.83653 0
M  V30 350 C 37.6986 -1.47106 4.00328 0
M  V30 351 S 38.5316 -0.53006 5.3287 0
M  V30 352 C 39.6876 -1.76665 6.0045 0
M  V30 353 H 39.9206 -0.0717806 2.97213 0
M  V30 354 H 37.4536 0.0815678 1.54184 0
M  V30 355 H 39.4116 -2.55605 3.21211 0
M  V30 356 H 38.0726 -2.37247 2.05846 0
M  V30 357 H 37.2656 -2.38594 4.43947 0
M  V30 358 H 36.8676 -0.845885 3.64309 0
M  V30 359 H 39.1596 -2.7077 6.21039 0
M  V30 360 H 40.1026 -1.37308 6.9466 0
M  V30 361 H 40.5106 -1.94174 5.30054 0
M  V30 362 N 39.9087 -1.5758 0.0250728 0
M  V30 363 C 41.1857 -1.82917 -0.692873 0
M  V30 364 C 41.5657 -0.908137 -1.90568 0
M  V30 365 O 40.9137 0.0372298 -2.2847 0
M  V30 366 C 41.1237 -3.32034 -1.07492 0
M  V30 367 C 42.4717 -3.98406 -1.46826 0
M  V30 368 O 43.4957 -3.36505 -1.16801 0
M  V30 369 O 42.3547 -5.07497 -2.02754 0
M  V30 370 H 39.4487 -0.754079 -0.33955 0
M  V30 371 H 41.9947 -1.69619 0.0524456 0
M  V30 372 H 40.7667 -3.90728 -0.211552 0
M  V30 373 H 40.3897 -3.50424 -1.87854 0
M  V30 374 N 41.3868 0.248026 -1.55636 0
M  V30 375 C 42.6168 0.992367 -1.81206 0
M  V30 376 C 43.0248 1.7949 -0.598324 0
M  V30 377 O 42.3678 1.78292 0.442434 0
M  V30 378 C 42.4298 1.97926 -3.00109 0
M  V30 379 C 42.0938 1.36377 -4.36177 0
M  V30 380 C 43.0908 0.76682 -5.14214 0
M  V30 381 C 40.7758 1.38347 -4.82872 0
M  V30 382 C 42.7698 0.197778 -6.37093 0
M  V30 383 C 40.4568 0.810574 -6.057 0
M  V30 384 C 41.4548 0.218754 -6.8265 0
M  V30 385 O 41.1428 -0.345298 -8.03158 0
M  V30 386 H 40.8748 0.297704 -0.606917 0
M  V30 387 H 43.4288 0.276517 -2.0353 0
M  V30 388 H 41.6588 2.73339 -2.73538 0
M  V30 389 H 43.3478 2.58694 -3.12781 0
M  V30 390 H 44.1138 0.744114 -4.79258 0
M  V30 391 H 39.9928 1.8335 -4.2297 0
M  V30 392 H 43.5368 -0.264788 -6.97097 0
M  V30 393 H 39.4338 0.830604 -6.40134 0
M  V30 394 H 40.2018 -0.237055 -8.18157 0
M  V30 395 N 42.8649 1.48995 0.513639 0
M  V30 396 C 44.1109 1.58076 1.27042 0
M  V30 397 C 44.4439 0.261026 1.92438 0
M  V30 398 O 43.7189 -0.734393 1.80103 0
M  V30 399 C 44.0019 2.73091 2.34719 0
M  V30 400 C 43.8549 4.14821 1.73907 0
M  V30 401 C 45.1739 2.83796 3.36375 0
M  V30 402 H 42.2929 0.575391 0.460536 0
M  V30 403 H 44.9349 1.81232 0.570516 0
M  V30 404 H 43.0849 2.53479 2.94416 0
M  V30 405 H 44.7569 4.45917 1.18135 0
M  V30 406 H 42.9999 4.21058 1.0437 0
M  V30 407 H 43.6709 4.91147 2.51949 0
M  V30 408 H 46.1469 3.01611 2.86653 0
M  V30 409 H 45.0229 3.65971 4.09093 0
M  V30 410 H 45.2839 1.92624 3.9793 0
M  V30 411 N 44.343 -0.763751 1.37857 0
M  V30 412 C 45.589 -1.52483 1.33704 0
M  V30 413 C 45.922 -1.94051 -0.0759612 0
M  V30 414 O 45.197 -1.64675 -1.03501 0
M  V30 415 C 45.48 -2.78441 2.28348 0
M  V30 416 C 45.333 -2.43075 3.78463 0
M  V30 417 C 46.652 -3.80415 2.21298 0
M  V30 418 H 43.771 -0.553169 0.487005 0
M  V30 419 H 46.413 -0.875562 1.68624 0
M  V30 420 H 44.563 -3.33842 1.987 0
M  V30 421 H 46.235 -1.93527 4.18742 0
M  V30 422 H 44.478 -1.75666 3.96641 0
M  V30 423 H 45.149 -3.33149 4.40132 0
M  V30 424 H 47.625 -3.34527 2.47449 0
M  V30 425 H 46.501 -4.66257 2.89647 0
M  V30 426 H 46.762 -4.25262 1.20849 0
M  V30 427 N 45.8211 -1.22559 -0.990812 0
M  V30 428 C 47.0681 -1.05141 -1.73065 0
M  V30 429 C 47.3961 0.413191 -1.9006 0
M  V30 430 O 46.6511 1.32257 -1.44245 0
M  V30 431 C 46.9501 -1.71011 -3.13831 0
M  V30 432 C 46.6161 -3.20911 -3.16745 0
M  V30 433 C 45.2781 -3.61812 -3.17247 0
M  V30 434 C 47.6301 -4.16846 -3.12872 0
M  V30 435 C 44.9581 -4.97127 -3.1158 0
M  V30 436 C 47.3101 -5.5214 -3.08746 0
M  V30 437 C 45.9741 -5.92419 -3.07565 0
M  V30 438 H 45.2441 -0.384738 -0.633291 0
M  V30 439 H 47.8911 -1.5235 -1.16025 0
M  V30 440 H 46.1961 -1.16133 -3.74193 0
M  V30 441 H 47.8931 -1.55023 -3.69823 0
M  V30 442 H 44.4831 -2.88344 -3.17105 0
M  V30 443 H 48.6671 -3.86263 -3.11632 0
M  V30 444 H 43.9231 -5.27562 -3.09012 0
M  V30 445 H 48.0971 -6.26201 -3.04705 0
M  V30 446 H 45.7241 -6.97236 -3.02929 0
M  V30 447 N 47.2992 1.18797 -1.03562 0
M  V30 448 C 48.5452 1.8893 -0.737113 0
M  V30 449 C 48.8782 1.79837 0.732956 0
M  V30 450 O 48.1532 1.19525 1.5344 0
M  V30 451 C 48.4362 3.39607 -1.19745 0
M  V30 452 C 48.2892 3.57537 -2.72924 0
M  V30 453 C 49.6082 4.33069 -0.783526 0
M  V30 454 H 46.7272 0.686057 -0.269249 0
M  V30 455 H 49.3692 1.39797 -1.28673 0
M  V30 456 H 47.5192 3.81583 -0.729855 0
M  V30 457 H 49.1912 3.24688 -3.27682 0
M  V30 458 H 47.4342 3.00363 -3.12993 0
M  V30 459 H 48.1052 4.63238 -3.00191 0
M  V30 460 H 50.5812 3.98846 -1.18581 0
M  V30 461 H 49.4572 5.3707 -1.13343 0
M  V30 462 H 49.7182 4.40986 0.313681 0
M  V30 463 N 48.7773 0.814389 1.34928 0
M  V30 464 C 49.7073 0.244827 2.32213 0
M  V30 465 C 50.6883 -0.634024 1.57842 0
M  V30 466 O 51.8733 -0.562676 1.8587 0
M  V30 467 C 49.0033 -0.601106 3.42058 0
M  V30 468 C 47.9573 0.179896 4.27622 0
M  V30 469 C 47.2833 -0.788237 5.28858 0
M  V30 470 C 48.5833 1.38329 5.03649 0
M  V30 471 H 50.2773 1.05763 2.80097 0
M  V30 472 H 47.8233 0.510029 1.34665 0
M  V30 473 H 49.7763 -1.00968 4.09125 0
M  V30 474 H 48.5003 -1.44688 2.92802 0
M  V30 475 H 47.1593 0.569739 3.62146 0
M  V30 476 H 46.8073 -1.62973 4.75866 0
M  V30 477 H 46.5073 -0.269942 5.8698 0
M  V30 478 H 48.0313 -1.19485 5.98795 0
M  V30 479 H 49.4453 1.04918 5.63618 0
M  V30 480 H 47.8423 1.83662 5.71304 0
M  V30 481 H 48.9123 2.16592 4.33839 0
M  V30 482 N 50.2554 -1.46986 0.568584 0
M  V30 483 C 51.1854 -2.32946 -0.160753 0
M  V30 484 C 52.1664 -1.44487 -0.897631 0
M  V30 485 O 53.3514 -1.73327 -0.875867 0
M  V30 486 C 50.4814 -3.26494 -1.18403 0
M  V30 487 C 49.4354 -4.24282 -0.562895 0
M  V30 488 C 48.7614 -5.07236 -1.69163 0
M  V30 489 C 50.0614 -5.19989 0.490761 0
M  V30 490 H 51.7554 -2.94175 0.556916 0
M  V30 491 H 49.3014 -1.4146 0.26927 0
M  V30 492 H 51.2544 -3.85477 -1.70251 0
M  V30 493 H 49.9784 -2.63343 -1.93179 0
M  V30 494 H 48.6374 -3.66541 -0.0656164 0
M  V30 495 H 48.2854 -4.4048 -2.42871 0
M  V30 496 H 47.9854 -5.7345 -1.28174 0
M  V30 497 H 49.5094 -5.6908 -2.21314 0
M  V30 498 H 50.9234 -5.73271 0.0579047 0
M  V30 499 H 49.3204 -5.94469 0.820165 0
M  V30 500 H 50.3904 -4.64777 1.3824 0
M  V30 501 N 51.7335 -0.305618 -1.54608 0
M  V30 502 C 52.6635 0.561482 -2.26649 0
M  V30 503 C 53.6445 1.13415 -1.26772 0
M  V30 504 O 54.8295 1.16262 -1.55553 0
M  V30 505 C 51.9595 1.73122 -3.01075 0
M  V30 506 C 50.9135 1.2887 -4.08138 0
M  V30 507 C 50.2395 2.54396 -4.70305 0
M  V30 508 C 51.5395 0.416578 -5.20636 0
M  V30 509 H 53.2335 -0.0393902 -2.99374 0
M  V30 510 H 50.7795 -0.020385 -1.43986 0
M  V30 511 H 52.7325 2.34396 -3.50195 0
M  V30 512 H 51.4565 2.3584 -2.25936 0
M  V30 513 H 50.1155 0.698991 -3.59875 0
M  V30 514 H 49.7635 3.15439 -3.918 0
M  V30 515 H 49.4635 2.25486 -5.42614 0
M  V30 516 H 50.9875 3.16464 -5.2219 0
M  V30 517 H 52.4015 0.935116 -5.65622 0
M  V30 518 H 50.7985 0.221046 -5.99693 0
M  V30 519 H 51.8685 -0.557162 -4.81688 0
M  V30 520 N 53.2116 1.57565 -0.0334293 0
M  V30 521 C 54.4576 1.92262 0.645226 0
M  V30 522 C 54.7906 0.910543 1.71531 0
M  V30 523 O 54.0656 -0.066099 1.94388 0
M  V30 524 C 54.3486 3.37422 1.2577 0
M  V30 525 C 54.2016 4.49369 0.196891 0
M  V30 526 C 55.5206 3.82628 2.17449 0
M  V30 527 H 52.6396 0.699171 0.233085 0
M  V30 528 H 55.2816 1.89779 -0.0915694 0
M  V30 529 H 53.4316 3.39669 1.88566 0
M  V30 530 H 55.1036 4.59254 -0.433962 0
M  V30 531 H 53.3466 4.31168 -0.477137 0
M  V30 532 H 54.0176 5.47978 0.665124 0
M  V30 533 H 56.4936 3.82145 1.64634 0
M  V30 534 H 55.3696 4.84883 2.57254 0
M  V30 535 H 55.6306 3.18376 3.0674 0
M  V30 536 N 54.6897 -0.239769 1.55765 0
M  V30 537 C 55.6197 -1.30052 1.9393 0
M  V30 538 C 56.6007 -1.49839 0.805132 0
M  V30 539 O 57.7857 -1.62328 1.06599 0
M  V30 540 C 54.9157 -2.65391 2.2402 0
M  V30 541 C 53.8697 -2.60289 3.39755 0
M  V30 542 C 53.1957 -3.99489 3.55405 0
M  V30 543 C 54.4957 -2.16654 4.75246 0
M  V30 544 H 56.1897 -0.983573 2.82783 0
M  V30 545 H 53.7357 -0.471701 1.36055 0
M  V30 546 H 55.6887 -3.3974 2.49308 0
M  V30 547 H 54.4127 -2.98736 1.32 0
M  V30 548 H 53.0717 -1.88398 3.14487 0
M  V30 549 H 52.7197 -4.30112 2.60793 0
M  V30 550 H 52.4197 -3.96962 4.33238 0
M  V30 551 H 53.9437 -4.75528 3.83022 0
M  V30 552 H 55.3577 -2.80737 4.99859 0
M  V30 553 H 53.7547 -2.25223 5.56232 0
M  V30 554 H 54.8247 -1.11835 4.71827 0
M  V30 555 N 56.1678 -1.49265 -0.50573 0
M  V30 556 C 57.3928 -1.62478 -1.28902 0
M  V30 557 C 57.8178 -0.294332 -1.85783 0
M  V30 558 O 57.1758 0.737412 -1.65626 0
M  V30 559 C 57.2238 -2.69268 -2.39848 0
M  V30 560 O 56.3278 -2.28113 -3.43567 0
M  V30 561 H 55.6688 -0.54399 -0.380751 0
M  V30 562 H 58.1988 -1.95421 -0.605952 0
M  V30 563 H 58.2088 -2.91291 -2.85681 0
M  V30 564 H 56.8838 -3.65846 -1.97812 0
M  V30 565 H 55.4608 -2.16401 -3.03685 0
M  V30 566 N 57.6459 0.756429 -1.3826 0
M  V30 567 C 58.5759 1.88374 -1.37976 0
M  V30 568 C 59.5569 1.68311 -0.246082 0
M  V30 569 O 60.7419 1.88944 -0.44874 0
M  V30 570 C 57.8719 3.25864 -1.20125 0
M  V30 571 C 56.8259 3.60523 -2.30666 0
M  V30 572 C 56.1519 4.9672 -1.97923 0
M  V30 573 C 57.4519 3.65692 -3.72916 0
M  V30 574 H 59.1459 1.88869 -2.32312 0
M  V30 575 H 56.6919 0.907272 -1.11824 0
M  V30 576 H 58.6449 4.0438 -1.18552 0
M  V30 577 H 57.3689 3.25841 -0.222498 0
M  V30 578 H 56.0279 2.84324 -2.3142 0
M  V30 579 H 55.6759 4.93253 -0.985393 0
M  V30 580 H 55.3759 5.20878 -2.71955 0
M  V30 581 H 56.8999 5.77618 -1.97964 0
M  V30 582 H 58.3139 4.34328 -3.74208 0
M  V30 583 H 56.7109 4.01358 -4.4613 0
M  V30 584 H 57.7809 2.65987 -4.05436 0
M  V30 585 N 59.124 1.23083 0.984299 0
M  V30 586 C 60.087 1.00979 2.05757 0
M  V30 587 C 61.087 -0.0269573 1.60777 0
M  V30 588 O 62.277 0.212403 1.729 0
M  V30 589 C 59.409 0.527072 3.36801 0
M  V30 590 H 60.602 1.9622 2.26799 0
M  V30 591 H 58.155 1.05072 1.15714 0
M  V30 592 H 58.89 -0.429294 3.21446 0
M  V30 593 H 58.675 1.27515 3.70786 0
M  V30 594 H 60.165 0.392942 4.15747 0
M  V30 595 N 60.6021 -1.18246 1.0419 0
M  V30 596 C 61.8511 -1.87588 0.741194 0
M  V30 597 C 62.1641 -1.81303 -0.734066 0
M  V30 598 O 63.3701 -2.46019 -1.14834 0
M  V30 599 C 61.8261 -3.36538 1.27555 0
M  V30 600 C 61.4341 -3.51349 2.77953 0
M  V30 601 C 63.1781 -4.11273 1.05143 0
M  V30 602 C 61.0851 -4.94265 3.2474 0
M  V30 603 H 60.0151 -0.702622 0.273565 0
M  V30 604 H 62.6661 -1.33601 1.25789 0
M  V30 605 H 61.0481 -3.9 0.686703 0
M  V30 606 H 62.2221 -3.08153 3.42605 0
M  V30 607 H 60.5371 -2.90022 2.98791 0
M  V30 608 H 63.1341 -5.16689 1.37611 0
M  V30 609 H 63.4771 -4.16298 -0.0112774 0
M  V30 610 H 64.0101 -3.63987 1.60495 0
M  V30 611 H 60.7491 -4.94408 4.30396 0
M  V30 612 H 60.2691 -5.38172 2.64823 0
M  V30 613 H 61.9481 -5.62987 3.18834 0
M  V30 614 N 62.0802 -0.821533 -1.34494 0
M  V30 615 C 63.3282 -0.408139 -1.97936 0
M  V30 616 C 63.6492 1.03193 -1.65457 0
M  V30 617 O 62.9192 1.71622 -0.944595 0
M  V30 618 H 61.4992 -0.147928 -0.732206 0
M  V30 619 H 64.1612 -1.05067 -1.64155 0
M  V30 620 H 63.2572 -0.52601 -3.07635 0
M  V30 621 N 63.5583 1.46682 -0.576371 0
M  V30 622 C 64.4883 2.33028 0.148397 0
M  V30 623 C 65.4693 1.44961 0.889956 0
M  V30 624 O 66.6543 1.73789 0.866662 0
M  V30 625 C 63.7843 3.27117 1.1667 0
M  V30 626 C 62.7383 4.24575 0.540386 0
M  V30 627 C 62.0643 5.08126 1.6647 0
M  V30 628 C 63.3643 5.19722 -0.518331 0
M  V30 629 H 65.0583 2.93875 -0.572509 0
M  V30 630 H 62.6043 1.41315 -0.276768 0
M  V30 631 H 64.5573 3.86374 1.68204 0
M  V30 632 H 63.2813 2.64364 1.9178 0
M  V30 633 H 61.9403 3.66571 0.0461769 0
M  V30 634 H 61.5883 4.41762 2.40531 0
M  V30 635 H 61.2883 5.74122 1.25131 0
M  V30 636 H 62.8123 5.70246 2.18293 0
M  V30 637 H 64.2263 5.73232 -0.0883058 0
M  V30 638 H 62.6233 5.94026 -0.851679 0
M  V30 639 H 63.6933 4.64037 -1.40703 0
M  V30 640 N 65.0364 0.313813 1.54444 0
M  V30 641 C 66.2664 -0.293491 2.04505 0
M  V30 642 C 66.6744 -1.47086 1.19005 0
M  V30 643 O 66.0174 -1.82481 0.211257 0
M  V30 644 C 66.0794 -0.800455 3.50475 0
M  V30 645 C 65.7434 0.253322 4.56297 0
M  V30 646 C 66.7404 1.08612 5.08428 0
M  V30 647 C 64.4254 0.398708 5.00715 0
M  V30 648 C 66.4194 2.05013 6.0353 0
M  V30 649 C 64.1064 1.36614 5.95634 0
M  V30 650 C 65.1044 2.19033 6.46926 0
M  V30 651 O 64.7924 3.14134 7.39983 0
M  V30 652 H 64.5244 -0.0658325 0.672787 0
M  V30 653 H 67.0784 0.455177 2.00293 0
M  V30 654 H 65.3084 -1.59987 3.52053 0
M  V30 655 H 66.9974 -1.32504 3.83663 0
M  V30 656 H 67.7634 0.984736 4.74898 0
M  V30 657 H 63.6424 -0.23289 4.60411 0
M  V30 658 H 67.1864 2.69382 6.4349 0
M  V30 659 H 63.0834 1.4682 6.28581 0
M  V30 660 H 63.8514 3.0926 7.57826 0
M  V30 661 N 66.5145 -1.57545 0.0417849 0
M  V30 662 C 67.4645 -2.07483 -0.945247 0
M  V30 663 C 68.4485 -0.977983 -1.27767 0
M  V30 664 O 69.6405 -1.24142 -1.26166 0
M  V30 665 C 66.7695 -2.61576 -2.22335 0
M  V30 666 C 65.8555 -3.78213 -1.91874 0
M  V30 667 N 66.2465 -4.88344 -1.31733 0
M  V30 668 C 64.5445 -3.8694 -2.21796 0
M  V30 669 C 65.2455 -5.69462 -1.1869 0
M  V30 670 N 64.2215 -5.16771 -1.68666 0
M  V30 671 H 68.0235 -2.90029 -0.475441 0
M  V30 672 H 65.5375 -1.61581 -0.162911 0
M  V30 673 H 67.5345 -2.95651 -2.93932 0
M  V30 674 H 66.1945 -1.80465 -2.69931 0
M  V30 675 H 67.2055 -5.08335 -0.990729 0
M  V30 676 H 63.8825 -3.16757 -2.71977 0
M  V30 677 H 65.2725 -6.68023 -0.720793 0
M  V30 678 N 67.9926 0.231505 -1.5589 0
M  V30 679 C 68.9556 1.27028 -1.90779 0
M  V30 680 C 69.9556 1.40308 -0.785507 0
M  V30 681 O 71.1456 1.38744 -1.05336 0
M  V30 682 C 68.2776 2.64566 -2.14983 0
M  V30 683 H 69.4706 0.973017 -2.83677 0
M  V30 684 H 67.0236 0.471486 -1.49019 0
M  V30 685 H 67.7586 2.99406 -1.24604 0
M  V30 686 H 67.5436 2.56305 -2.96732 0
M  V30 687 H 69.0336 3.39543 -2.43105 0
M  V30 688 N 69.4707 1.49531 0.497807 0
M  V30 689 C 70.7107 1.60799 1.26187 0
M  V30 690 C 71.0747 0.289627 1.89803 0
M  V30 691 O 72.2757 0.277512 2.67364 0
M  V30 692 C 70.5467 2.73729 2.29798 0
M  V30 693 S 72.1057 3.04968 3.155 0
M  V30 694 H 68.9237 0.567145 0.428798 0
M  V30 695 H 71.5257 1.87204 0.563477 0
M  V30 696 H 70.2297 3.68036 1.81597 0
M  V30 697 H 69.7607 2.49328 3.04301 0
M  V30 698 H 71.7757 2.46735 4.30507 0
M  V30 699 N 70.9488 -0.749086 1.3866 0
M  V30 700 C 72.3648 -1.05276 1.19955 0
M  V30 701 C 72.5648 -2.01435 0.05134 0
M  V30 702 O 71.6208 -2.45232 -0.60147 0
M  V30 703 C 72.9338 -1.62853 2.52783 0
M  V30 704 C 74.4818 -1.75002 2.59506 0
M  V30 705 C 74.9568 -2.35991 3.92521 0
M  V30 706 N 76.4478 -2.43416 3.94085 0
M  V30 707 C 77.1828 -2.91511 4.9377 0
M  V30 708 N 76.6788 -3.39608 6.03853 0
M  V30 709 N 78.4718 -2.90592 4.81157 0
M  V30 710 H 70.6228 -0.111066 2.12109 0
M  V30 711 H 72.8858 -0.111901 0.941373 0
M  V30 712 H 72.5918 -0.99664 3.37283 0
M  V30 713 H 72.4658 -2.61854 2.715 0
M  V30 714 H 74.8528 -2.37317 1.75398 0
M  V30 715 H 74.9338 -0.74693 2.44652 0
M  V30 716 H 74.5778 -1.74308 4.77053 0
M  V30 717 H 74.5078 -3.3695 4.04688 0
M  V30 718 H 76.9988 -2.09405 3.14576 0
M  V30 719 H 77.3118 -3.74775 6.75843 0
M  V30 720 H 75.6568 -3.37653 6.07466 0
M  V30 721 H 78.8478 -2.52332 3.94267 0
M  V30 722 H 79.0208 -3.27762 5.58996 0
M  V30 723 N 72.4269 -1.23603 -0.977757 0
M  V30 724 C 73.6749 -1.06759 -1.71601 0
M  V30 725 C 73.9959 0.395929 -1.90938 0
M  V30 726 O 73.2659 1.28356 -1.47992 0
M  V30 727 H 71.8459 -0.392062 -0.635843 0
M  V30 728 H 74.5079 -1.55362 -1.1768 0
M  V30 729 H 73.6039 -1.55763 -2.70452 0
M  V30 730 N 73.905 1.17692 -1.04816 0
M  V30 731 C 75.151 1.88389 -0.766892 0
M  V30 732 C 75.506 1.79282 0.698269 0
M  V30 733 O 74.799 1.18739 1.50372 0
M  V30 734 C 74.993 3.37462 -1.17703 0
M  V30 735 C 74.822 3.6108 -2.68051 0
M  V30 736 C 73.592 3.78018 -3.35307 0
M  V30 737 C 75.79 3.61039 -3.66273 0
M  V30 738 N 73.772 3.89444 -4.74559 0
M  V30 739 C 75.143 3.78269 -4.91235 0
M  V30 740 C 77.198 3.44168 -3.59796 0
M  V30 741 C 75.901 3.80376 -6.10497 0
M  V30 742 C 77.927 3.4756 -4.78493 0
M  V30 743 C 77.289 3.65295 -6.02278 0
M  V30 744 H 73.388 0.707651 -0.332798 0
M  V30 745 H 75.972 1.41314 -1.33934 0
M  V30 746 H 74.143 3.83214 -0.63257 0
M  V30 747 H 75.875 3.95759 -0.845989 0
M  V30 748 H 72.63 3.77714 -2.85708 0
M  V30 749 H 73.054 3.98962 -5.46954 0
M  V30 750 H 77.696 3.29396 -2.65062 0
M  V30 751 H 75.414 3.93933 -7.05579 0
M  V30 752 H 79 3.3577 -4.75131 0
M  V30 753 H 77.88 3.6782 -6.92588 0
M  V30 754 N 75.3831 0.828654 1.34056 0
M  V30 755 C 76.6311 0.41863 1.97717 0
M  V30 756 C 76.9521 -1.02314 1.66002 0
M  V30 757 O 76.2221 -1.71119 0.953683 0
M  V30 758 H 74.8021 0.151809 0.731412 0
M  V30 759 H 77.4641 1.05936 1.63596 0
M  V30 760 H 76.5601 0.542318 3.07352 0
M  V30 761 N 76.8612 -1.46375 0.584142 0
M  V30 762 C 78.2772 -1.57694 0.245929 0
M  V30 763 C 78.4772 -1.57903 -1.25175 0
M  V30 764 O 77.5332 -1.49676 -2.03355 0
M  V30 765 C 78.8462 -2.87028 0.896402 0
M  V30 766 C 80.3942 -3.00662 0.870127 0
M  V30 767 C 80.8692 -4.32734 1.50017 0
M  V30 768 N 82.3602 -4.39436 1.46458 0
M  V30 769 C 83.0952 -5.40248 1.92144 0
M  V30 770 N 82.5912 -6.47726 2.4581 0
M  V30 771 N 84.3842 -5.31459 1.83052 0
M  V30 772 H 76.5352 -1.44483 1.55687 0
M  V30 773 H 78.7982 -0.689291 0.650831 0
M  V30 774 H 78.5042 -2.9269 1.95002 0
M  V30 775 H 78.3782 -3.75014 0.405486 0
M  V30 776 H 80.7652 -2.94581 -0.174871 0
M  V30 777 H 80.8462 -2.14148 1.39908 0
M  V30 778 H 80.4902 -4.39573 2.54437 0
M  V30 779 H 80.4202 -5.18025 0.946432 0
M  V30 780 H 82.9112 -3.62367 1.07231 0
M  V30 781 H 83.2242 -7.20863 2.78525 0
M  V30 782 H 81.5692 -6.48542 2.49836 0
M  V30 783 H 84.7602 -4.46396 1.40883 0
M  V30 784 H 84.9332 -6.09881 2.18973 0
M  V30 785 N 78.3393 -0.321999 -1.54275 0
M  V30 786 C 79.2893 0.560185 -2.21011 0
M  V30 787 C 80.2733 1.08283 -1.19011 0
M  V30 788 O 81.4653 1.02011 -1.44647 0
M  V30 789 C 78.5943 1.72137 -2.97025 0
M  V30 790 C 77.6803 1.21369 -4.06363 0
M  V30 791 N 78.0713 0.425566 -5.04007 0
M  V30 792 C 76.3693 1.49255 -4.20284 0
M  V30 793 C 77.0703 0.152601 -5.815 0
M  V30 794 N 76.0463 0.738294 -5.38563 0
M  V30 795 H 79.8483 -0.049265 -2.93859 0
M  V30 796 H 77.3623 -0.127779 -1.61897 0
M  V30 797 H 79.3593 2.36512 -3.43319 0
M  V30 798 H 78.0193 2.33431 -2.25699 0
M  V30 799 H 79.0303 0.068551 -5.17855 0
M  V30 800 H 75.7073 2.11145 -3.60172 0
M  V30 801 H 77.0973 -0.481764 -6.70171 0
M  V30 802 N 79.8174 1.5752 -0.0501392 0
M  V30 803 C 81.0454 1.96963 0.633492 0
M  V30 804 C 81.4604 0.927631 1.6444 0
M  V30 805 O 80.8174 -0.0882665 1.82286 0
M  V30 806 C 80.8684 3.36487 1.32132 0
M  V30 807 O 80.5894 4.36693 0.350894 0
M  V30 808 C 82.0904 3.90682 2.09481 0
M  V30 809 H 79.3104 0.648244 0.173266 0
M  V30 810 H 81.8544 2.0417 -0.116134 0
M  V30 811 H 80.0094 3.30434 2.02218 0
M  V30 812 H 80.4234 5.17702 0.841735 0
M  V30 813 H 81.8974 4.90591 2.5303 0
M  V30 814 H 82.3744 3.26053 2.94255 0
M  V30 815 H 82.9804 4.00069 1.44307 0
M  V30 816 N 81.2955 -0.223234 1.56011 0
M  V30 817 C 82.5415 -0.949279 1.79211 0
M  V30 818 C 82.8745 -1.84054 0.619494 0
M  V30 819 O 82.1495 -1.90726 -0.381317 0
M  V30 820 C 82.4325 -1.78965 3.12479 0
M  V30 821 C 82.2855 -0.924997 4.40186 0
M  V30 822 C 83.6045 -2.76774 3.42175 0
M  V30 823 H 80.7235 -0.343676 0.651963 0
M  V30 824 H 83.3655 -0.218253 1.88742 0
M  V30 825 H 81.5155 -2.41291 3.04485 0
M  V30 826 H 83.1875 -0.318615 4.60198 0
M  V30 827 H 81.4305 -0.230344 4.33188 0
M  V30 828 H 82.1015 -1.54735 5.29869 0
M  V30 829 H 84.5775 -2.24584 3.50287 0
M  V30 830 H 83.4535 -3.32678 4.36597 0
M  V30 831 H 83.7145 -3.54429 2.64258 0
M  V30 832 N 82.7736 -1.49793 -0.48987 0
M  V30 833 C 84.0216 -1.59525 -1.24081 0
M  V30 834 C 84.3426 -0.288953 -1.92847 0
M  V30 835 O 83.6126 0.692436 -1.83254 0
M  V30 836 H 82.1926 -0.587796 -0.460983 0
M  V30 837 H 84.8546 -1.86477 -0.566778 0
M  V30 838 H 83.9506 -2.39696 -1.99881 0
M  V30 839 N 84.2517 0.741722 -1.39055 0
M  V30 840 C 85.1617 1.88621 -1.39496 0
M  V30 841 C 86.1777 1.71557 -0.290578 0
M  V30 842 O 87.3537 1.94275 -0.530954 0
M  V30 843 C 84.4187 3.24134 -1.23037 0
M  V30 844 C 83.4797 3.5364 -2.43387 0
M  V30 845 C 82.7127 4.82687 -2.27703 0
M  V30 846 O 82.9357 5.55922 -1.27696 0
M  V30 847 O 81.8697 5.1194 -3.16545 0
M  V30 848 H 85.6957 1.91203 -2.35956 0
M  V30 849 H 83.2807 0.888625 -1.20099 0
M  V30 850 H 85.1627 4.0513 -1.15964 0
M  V30 851 H 83.8377 3.22337 -0.296691 0
M  V30 852 H 82.7447 2.72758 -2.56035 0
M  V30 853 H 84.0777 3.60209 -3.35425 0
M  V30 854 N 85.7298 1.2412 0.971189 0
M  V30 855 C 86.6598 1.05508 2.08304 0
M  V30 856 C 87.6408 -0.0308864 1.70072 0
M  V30 857 O 88.8258 0.135521 1.93727 0
M  V30 858 C 85.9558 0.655365 3.4106 0
M  V30 859 C 84.9098 1.68971 3.93234 0
M  V30 860 C 84.2358 1.14516 5.22293 0
M  V30 861 C 85.5358 3.08487 4.21465 0
M  V30 862 H 87.2298 1.98507 2.24132 0
M  V30 863 H 84.7758 0.955821 1.07704 0
M  V30 864 H 86.7288 0.51217 4.18276 0
M  V30 865 H 85.4528 -0.31032 3.25122 0
M  V30 866 H 84.1118 1.82106 3.18171 0
M  V30 867 H 83.7598 0.170189 5.02712 0
M  V30 868 H 83.4598 1.83635 5.58168 0
M  V30 869 H 84.9838 1.01401 6.02121 0
M  V30 870 H 86.3978 2.98601 4.89398 0
M  V30 871 H 84.7948 3.74926 4.68562 0
M  V30 872 H 85.8648 3.56787 3.28376 0
M  V30 873 N 87.2079 -1.17134 1.05439 0
M  V30 874 C 88.1379 -2.2342 0.678649 0
M  V30 875 C 89.1189 -1.66971 -0.32476 0
M  V30 876 O 90.3039 -1.93149 -0.201802 0
M  V30 877 C 87.4339 -3.47256 0.0552099 0
M  V30 878 C 86.3879 -4.16543 0.98365 0
M  V30 879 C 85.7139 -5.34231 0.223961 0
M  V30 880 C 87.0139 -4.68495 2.3089 0
M  V30 881 H 88.7079 -2.55105 1.56722 0
M  V30 882 H 86.2539 -1.2262 0.754998 0
M  V30 883 H 88.2069 -4.20828 -0.21946 0
M  V30 884 H 86.9309 -3.14846 -0.868319 0
M  V30 885 H 85.5899 -3.44887 1.24293 0
M  V30 886 H 85.2379 -4.98071 -0.702412 0
M  V30 887 H 84.9379 -5.81527 0.842627 0
M  V30 888 H 86.4619 -6.10585 -0.0433671 0
M  V30 889 H 87.8759 -5.33691 2.09396 0
M  V30 890 H 86.2729 -5.26379 2.88176 0
M  V30 891 H 87.3429 -3.85169 2.94572 0
M  V30 892 N 88.686 -0.835752 -1.33615 0
M  V30 893 C 89.619 -0.211815 -2.27215 0
M  V30 894 C 90.597 0.639249 -1.49507 0
M  V30 895 O 91.781 0.600193 -1.78689 0
M  V30 896 C 88.908 0.702893 -3.31326 0
M  V30 897 C 87.954 -0.0723049 -4.26439 0
M  V30 898 S 88.787 -1.42811 -5.16106 0
M  V30 899 C 89.943 -0.518613 -6.23748 0
M  V30 900 H 90.176 -1.00533 -2.79786 0
M  V30 901 H 87.709 -0.632336 -1.40858 0
M  V30 902 H 89.667 1.22505 -3.91794 0
M  V30 903 H 88.328 1.47004 -2.77576 0
M  V30 904 H 87.521 0.62359 -5.00127 0
M  V30 905 H 87.123 -0.525424 -3.70291 0
M  V30 906 H 89.415 0.284778 -6.76901 0
M  V30 907 H 90.358 -1.22556 -6.97413 0
M  V30 908 H 90.766 -0.101344 -5.64409 0
M  V30 909 N 90.1641 1.46063 -0.591896 0
M  V30 910 C 91.1271 2.28854 0.125973 0
M  V30 911 C 92.1271 1.38903 0.810107 0
M  V30 912 O 93.3171 1.61186 0.66066 0
M  V30 913 C 90.4491 3.19526 1.1881 0
M  V30 914 H 91.6421 2.93802 -0.601717 0
M  V30 915 H 89.1951 1.52325 -0.350254 0
M  V30 916 H 89.9301 2.59345 1.94707 0
M  V30 917 H 89.7151 3.85766 0.701936 0
M  V30 918 H 91.2051 3.81817 1.69132 0
M  V30 919 N 91.6422 0.330177 1.54103 0
M  V30 920 C 92.9192 -0.325007 1.92881 0
M  V30 921 C 93.2992 -1.6934 1.26045 0
M  V30 922 O 92.6472 -2.24855 0.406526 0
M  V30 923 C 92.8572 -0.410634 3.46576 0
M  V30 924 C 94.2052 -0.667801 4.19316 0
M  V30 925 O 95.2292 -0.49329 3.52768 0
M  V30 926 O 94.0882 -1.00491 5.37181 0
M  V30 927 H 91.1822 -0.186873 0.80561 0
M  V30 928 H 93.7282 0.380376 1.65382 0
M  V30 929 H 92.5002 0.550164 3.87413 0
M  V30 930 H 92.1232 -1.16333 3.802 0
M  V30 931 N 93.1203 -1.57491 0.0584922 0
M  V30 932 C 94.5363 -1.56792 -0.298091 0
M  V30 933 C 94.7363 -1.06679 -1.70944 0
M  V30 934 O 93.7923 -0.726672 -2.41818 0
M  V30 935 C 95.1053 -3.00461 -0.119879 0
M  V30 936 C 96.6533 -3.1242 -0.190428 0
M  V30 937 C 97.1283 -4.57982 -0.0406567 0
M  V30 938 N 98.6193 -4.63099 -0.0966958 0
M  V30 939 C 99.3543 -5.734 -0.00502943 0
M  V30 940 N 98.8503 -6.9266 0.139402 0
M  V30 941 N 100.643 -5.62067 -0.0611391 0
M  V30 942 H 92.7943 -1.88386 0.98105 0
M  V30 943 H 95.0573 -0.867865 0.381463 0
M  V30 944 H 94.7633 -3.41187 0.85349 0
M  V30 945 H 94.6373 -3.66843 -0.877833 0
M  V30 946 H 97.0243 -2.71589 -1.15427 0
M  V30 947 H 97.1053 -2.48702 0.598405 0
M  V30 948 H 96.7493 -4.995 0.919897 0
M  V30 949 H 96.6793 -5.19715 -0.848727 0
M  V30 950 H 99.1703 -3.77331 -0.207277 0
M  V30 951 H 99.4833 -7.72536 0.201855 0
M  V30 952 H 97.8283 -6.94781 0.174586 0
M  V30 953 H 101.019 -4.67782 -0.172583 0
M  V30 954 H 101.192 -6.47999 0.0137562 0
M  V30 955 N 94.5984 0.214957 -1.56127 0
M  V30 956 C 95.5454 1.26642 -1.92952 0
M  V30 957 C 96.5154 1.46244 -0.78753 0
M  V30 958 O 97.7004 1.59704 -1.04399 0
M  V30 959 C 94.8404 2.6104 -2.25726 0
M  V30 960 C 93.9534 2.49183 -3.52891 0
M  V30 961 C 93.0884 3.76149 -3.7508 0
M  V30 962 C 92.1274 3.59041 -4.95738 0
M  V30 963 N 91.2644 4.77972 -5.14283 0
M  V30 964 H 96.1044 0.945384 -2.82607 0
M  V30 965 H 93.6414 0.455489 -1.3987 0
M  V30 966 H 95.5994 3.39313 -2.42739 0
M  V30 967 H 94.2294 2.91227 -1.39236 0
M  V30 968 H 93.2814 1.6231 -3.44034 0
M  V30 969 H 94.5934 2.32466 -4.41318 0
M  V30 970 H 93.7474 4.62865 -3.92226 0
M  V30 971 H 92.4864 3.95799 -2.84947 0
M  V30 972 H 91.4914 2.7071 -4.78535 0
M  V30 973 H 92.7164 3.40856 -5.87362 0
M  V30 974 H 90.6624 4.97923 -4.27093 0
M  V30 975 H 90.5794 4.64006 -5.96853 0
M  V30 976 H 91.8474 5.66096 -5.35869 0
M  V30 977 N 96.0765 1.50051 0.48192 0
M  V30 978 C 97.0095 1.62749 1.59963 0
M  V30 979 C 97.9875 0.475903 1.5548 0
M  V30 980 O 99.1715 0.693986 1.7526 0
M  V30 981 C 96.2985 1.60008 2.98522 0
M  V30 982 C 95.3445 2.80596 3.21198 0
M  V30 983 S 96.1775 4.42038 3.02262 0
M  V30 984 C 97.3335 4.41973 4.43182 0
M  V30 985 H 97.5665 2.57296 1.4895 0
M  V30 986 H 95.0995 1.39179 0.668477 0
M  V30 987 H 97.0575 1.59112 3.78409 0
M  V30 988 H 95.7185 0.667153 3.06933 0
M  V30 989 H 94.9115 2.74952 4.22395 0
M  V30 990 H 94.5135 2.79003 2.49065 0
M  V30 991 H 96.8055 4.14868 5.35622 0
M  V30 992 H 97.7485 5.43512 4.53873 0
M  V30 993 H 98.1565 3.71812 4.24755 0
M  V30 994 N 97.5546 -0.734337 1.39446 0
M  V30 995 C 98.8026 -1.49096 1.36436 0
M  V30 996 C 99.1236 -1.94961 -0.0388255 0
M  V30 997 O 98.3936 -1.69033 -0.990191 0
M  V30 998 H 96.9736 -0.5531 0.502085 0
M  V30 999 H 99.6356 -0.871725 1.74319 0
M  V30 1000 H 98.7316 -2.37276 2.02747 0
M  V30 1001 N 99.0327 -1.24633 -0.964593 0
M  V30 1002 C 100.273 -1.09981 -1.72289 0
M  V30 1003 C 100.637 0.354792 -1.88693 0
M  V30 1004 O 101.838 0.62289 -2.61483 0
M  V30 1005 C 100.109 -1.82262 -3.07434 0
M  V30 1006 S 101.668 -1.83379 -3.98645 0
M  V30 1007 H 98.4857 -0.393292 -0.59232 0
M  V30 1008 H 101.088 -1.58009 -1.15123 0
M  V30 1009 H 99.7917 -2.87206 -2.93157 0
M  V30 1010 H 99.3227 -1.3458 -3.69664 0
M  V30 1011 H 101.338 -0.903691 -4.87901 0
M  V30 1012 N 100.511 1.16574 -1.06058 0
M  V30 1013 C 101.441 2.23057 -0.690488 0
M  V30 1014 C 102.422 1.67141 0.315901 0
M  V30 1015 O 103.607 1.93253 0.191556 0
M  V30 1016 C 100.737 3.47222 -0.073625 0
M  V30 1017 C 99.6908 4.16016 -1.00573 0
M  V30 1018 C 99.0168 5.34104 -0.252289 0
M  V30 1019 C 100.317 4.67264 -2.33371 0
M  V30 1020 H 102.011 2.54271 -1.58072 0
M  V30 1021 H 99.5568 1.22218 -0.76149 0
M  V30 1022 H 101.51 4.20939 0.19714 0
M  V30 1023 H 100.234 3.15302 0.85161 0
M  V30 1024 H 98.8928 3.44223 -1.2612 0
M  V30 1025 H 98.5408 4.98437 0.675988 0
M  V30 1026 H 98.2408 5.81072 -0.873455 0
M  V30 1027 H 99.7648 6.10599 0.0109857 0
M  V30 1028 H 101.179 5.32573 -2.12223 0
M  V30 1029 H 99.5758 5.24843 -2.90963 0
M  V30 1030 H 100.646 3.83602 -2.96611 0
M  V30 1031 N 101.989 0.842826 1.3317 0
M  V30 1032 C 103.4 0.496651 1.79973 0
M  V30 1033 C 103.751 -0.984641 1.69703 0
M  V30 1034 O 102.876 -1.76743 1.24863 0
M  V30 1035 C 103.471 0.894727 3.26772 0
M  V30 1036 C 102.03 0.600629 3.71577 0
M  V30 1037 C 101.177 1.10091 2.5451 0
M  V30 1038 H 104.128 1.03116 1.20635 0
M  V30 1039 H 104.149 0.206347 3.7994 0
M  V30 1040 H 103.661 1.97287 3.34215 0
M  V30 1041 H 101.762 -0.467284 3.69658 0
M  V30 1042 H 101.875 1.15863 4.64879 0
M  V30 1043 H 100.239 0.52162 2.49301 0
M  V30 1044 H 101.022 2.18591 2.64713 0
M  V30 1045 N 103.467 -1.45747 0.599634 0
M  V30 1046 C 104.713 -2.02592 0.0918643 0
M  V30 1047 C 105.046 -1.46806 -1.27128 0
M  V30 1048 O 104.321 -0.639658 -1.83681 0
M  V30 1049 C 104.604 -3.60073 0.0443398 0
M  V30 1050 C 104.457 -4.26208 1.43759 0
M  V30 1051 C 105.776 -4.35309 -0.647608 0
M  V30 1052 H 102.895 -0.736175 0.034857 0
M  V30 1053 H 105.537 -1.73694 0.770081 0
M  V30 1054 H 103.687 -3.84823 -0.533224 0
M  V30 1055 H 105.359 -4.12668 2.06162 0
M  V30 1056 H 103.602 -3.84916 2.00056 0
M  V30 1057 H 104.273 -5.35069 1.35665 0
M  V30 1058 H 106.749 -4.15805 -0.156776 0
M  V30 1059 H 105.625 -5.45038 -0.649942 0
M  V30 1060 H 105.886 -4.07598 -1.71219 0
M  V30 1061 N 104.945 -0.338344 -1.53925 0
M  V30 1062 C 105.908 0.508299 -2.23493 0
M  V30 1063 C 106.908 1.03175 -1.23335 0
M  V30 1064 O 108.098 0.921826 -1.47811 0
M  V30 1065 C 105.23 1.70754 -2.95052 0
M  V30 1066 H 106.423 -0.100058 -2.99733 0
M  V30 1067 H 103.976 -0.0896198 -1.56043 0
M  V30 1068 H 104.711 2.35474 -2.22986 0
M  V30 1069 H 104.496 1.33946 -3.68512 0
M  V30 1070 H 105.986 2.30818 -3.48013 0
M  V30 1071 N 106.423 1.57458 -0.0668435 0
M  V30 1072 C 107.353 2.15468 0.899764 0
M  V30 1073 C 108.334 1.08042 1.31381 0
M  V30 1074 O 109.519 1.36054 1.38574 0
M  V30 1075 C 106.649 2.71232 2.16911 0
M  V30 1076 C 105.603 3.83781 1.89463 0
M  V30 1077 C 104.929 4.26127 3.22986 0
M  V30 1078 C 106.229 5.08238 1.20381 0
M  V30 1079 H 107.923 2.96488 0.416529 0
M  V30 1080 H 105.469 1.4262 0.198908 0
M  V30 1081 H 107.422 3.10458 2.84945 0
M  V30 1082 H 106.146 1.87426 2.67468 0
M  V30 1083 H 104.805 3.45051 1.23836 0
M  V30 1084 H 104.453 3.39249 3.71374 0
M  V30 1085 H 104.153 5.01993 3.05413 0
M  V30 1086 H 105.677 4.67966 3.92225 0
M  V30 1087 H 107.091 5.44811 1.78475 0
M  V30 1088 H 105.488 5.89349 1.13083 0
M  V30 1089 H 106.558 4.84558 0.182153 0
M  V30 1090 N 107.901 -0.206675 1.56239 0
M  V30 1091 C 109.126 -0.949474 1.8439 0
M  V30 1092 C 109.551 -1.76549 0.649016 0
M  V30 1093 O 108.909 -1.76782 -0.402231 0
M  V30 1094 C 108.957 -1.83078 3.10668 0
M  V30 1095 O 108.061 -2.9281 2.90407 0
M  V30 1096 H 107.402 -0.268033 0.607499 0
M  V30 1097 H 109.932 -0.215488 2.03462 0
M  V30 1098 H 109.942 -2.2377 3.41161 0
M  V30 1099 H 108.617 -1.23112 3.97261 0
M  V30 1100 H 107.194 -2.55956 2.71184 0
M  V30 1101 N 109.379 -1.50304 -0.473955 0
M  V30 1102 C 110.309 -1.71886 -1.58042 0
M  V30 1103 C 111.29 -0.567799 -1.60344 0
M  V30 1104 O 112.475 -0.806623 -1.76656 0
M  V30 1105 C 109.605 -1.81036 -2.96384 0
M  V30 1106 C 108.559 -2.962 -3.08949 0
M  V30 1107 C 107.885 -2.9049 -4.48909 0
M  V30 1108 C 109.185 -4.36752 -2.86434 0
M  V30 1109 H 110.879 -2.64527 -1.40234 0
M  V30 1110 H 108.425 -1.27295 -0.673201 0
M  V30 1111 H 110.378 -1.94719 -3.73714 0
M  V30 1112 H 109.102 -0.850147 -3.15341 0
M  V30 1113 H 107.761 -2.82164 -2.3405 0
M  V30 1114 H 107.409 -1.92321 -4.64781 0
M  V30 1115 H 107.109 -3.67802 -4.58253 0
M  V30 1116 H 108.633 -3.06218 -5.28264 0
M  V30 1117 H 110.047 -4.5133 -3.53517 0
M  V30 1118 H 108.444 -5.15493 -3.07225 0
M  V30 1119 H 109.514 -4.49321 -1.82316 0
M  V30 1120 N 110.857 0.726932 -1.39834 0
M  V30 1121 C 111.787 1.85405 -1.41941 0
M  V30 1122 C 112.768 1.67751 -0.281728 0
M  V30 1123 O 113.953 1.8795 -0.488717 0
M  V30 1124 C 111.083 3.23243 -1.2701 0
M  V30 1125 C 110.037 3.55549 -2.38262 0
M  V30 1126 C 109.363 4.9241 -2.08415 0
M  V30 1127 C 110.663 3.577 -3.80589 0
M  V30 1128 H 112.357 1.83899 -2.36266 0
M  V30 1129 H 109.903 0.883349 -1.13723 0
M  V30 1130 H 111.856 4.01775 -1.27103 0
M  V30 1131 H 110.58 3.25296 -0.291564 0
M  V30 1132 H 109.239 2.79351 -2.37399 0
M  V30 1133 H 108.887 4.91052 -1.0898 0
M  V30 1134 H 108.587 5.14992 -2.82943 0
M  V30 1135 H 110.111 5.73289 -2.10171 0
M  V30 1136 H 111.525 4.26293 -3.83337 0
M  V30 1137 H 109.922 3.91804 -4.54543 0
M  V30 1138 H 110.992 2.57328 -4.10987 0
M  V30 1139 N 112.336 1.25143 0.95797 0
M  V30 1140 C 113.299 1.05321 2.03569 0
M  V30 1141 C 114.299 0.007152 1.60798 0
M  V30 1142 O 115.489 0.24903 1.72411 0
M  V30 1143 C 112.621 0.598394 3.35607 0
M  V30 1144 H 113.814 2.00986 2.22586 0
M  V30 1145 H 111.367 1.07502 1.13459 0
M  V30 1146 H 112.102 -0.361014 3.22284 0
M  V30 1147 H 111.887 1.35351 3.67998 0
M  V30 1148 H 113.377 0.48104 4.1482 0
M  V30 1149 N 113.814 -1.1601 1.06675 0
M  V30 1150 C 115.042 -1.90527 0.806667 0
M  V30 1151 C 115.457 -1.77643 -0.639396 0
M  V30 1152 O 114.814 -1.12369 -1.43803 0
M  V30 1153 C 114.865 -3.41106 1.19705 0
M  V30 1154 O 114.586 -3.53608 2.58636 0
M  V30 1155 C 116.087 -4.32663 0.965266 0
M  V30 1156 H 113.307 -0.604053 0.292166 0
M  V30 1157 H 115.851 -1.47026 1.4214 0
M  V30 1158 H 114.006 -3.82296 0.626774 0
M  V30 1159 H 114.42 -4.47011 2.74375 0
M  V30 1160 H 115.894 -5.36763 1.288 0
M  V30 1161 H 116.371 -4.39089 -0.0987936 0
M  V30 1162 H 116.977 -3.97206 1.52011 0
M  V30 1163 N 115.292 -0.849877 -1.32721 0
M  V30 1164 C 116.539 -0.450923 -1.97416 0
M  V30 1165 C 116.867 0.992376 -1.67279 0
M  V30 1166 O 116.122 1.71048 -0.950845 0
M  V30 1167 C 116.421 -0.631272 -3.51781 0
M  V30 1168 C 116.087 -2.04432 -4.01894 0
M  V30 1169 C 114.749 -2.4308 -4.1529 0
M  V30 1170 C 117.101 -2.96679 -4.28522 0
M  V30 1171 C 114.429 -3.73257 -4.52654 0
M  V30 1172 C 116.781 -4.26349 -4.67343 0
M  V30 1173 C 115.445 -4.64939 -4.78945 0
M  V30 1174 H 114.715 -0.165004 -0.722395 0
M  V30 1175 H 117.362 -1.07901 -1.58207 0
M  V30 1176 H 115.667 0.0800767 -3.91718 0
M  V30 1177 H 117.364 -0.302709 -3.99856 0
M  V30 1178 H 113.954 -1.73419 -3.91949 0
M  V30 1179 H 118.138 -2.68054 -4.17685 0
M  V30 1180 H 113.394 -4.02946 -4.59831 0
M  V30 1181 H 117.568 -4.97895 -4.86902 0
M  V30 1182 H 115.195 -5.65855 -5.07654 0
M  V30 1183 N 116.77 1.45427 -0.607355 0
M  V30 1184 C 117.702 2.2871 0.149752 0
M  V30 1185 C 118.715 1.39937 0.831958 0
M  V30 1186 O 119.904 1.64313 0.697385 0
M  V30 1187 C 117.004 3.15673 1.23304 0
M  V30 1188 C 116.177 4.32722 0.637996 0
M  V30 1189 C 115.236 5.00895 1.61215 0
M  V30 1190 O 114.262 5.57697 1.13854 0
M  V30 1191 N 115.464 5.00159 2.94655 0
M  V30 1192 H 118.229 2.94328 -0.564882 0
M  V30 1193 H 115.79 1.55612 -0.446823 0
M  V30 1194 H 117.782 3.58144 1.88454 0
M  V30 1195 H 116.352 2.51965 1.8502 0
M  V30 1196 H 115.572 3.93734 -0.191572 0
M  V30 1197 H 116.86 5.08321 0.220665 0
M  V30 1198 H 116.258 4.553 3.35735 0
M  V30 1199 H 114.815 5.46495 3.55228 0
M  V30 1200 N 118.248 0.346503 1.53744 0
M  V30 1201 C 119.473 -0.253074 2.0585 0
M  V30 1202 C 119.898 -1.43202 1.21962 0
M  V30 1203 O 119.256 -1.79783 0.234073 0
M  V30 1204 C 119.304 -0.643193 3.54817 0
M  V30 1205 O 118.408 -1.74286 3.73762 0
M  V30 1206 H 117.749 -0.0413583 0.662711 0
M  V30 1207 H 120.279 0.501574 1.98357 0
M  V30 1208 H 120.289 -0.919526 3.97503 0
M  V30 1209 H 118.964 0.218966 4.15323 0
M  V30 1210 H 117.541 -1.46356 3.42979 0
M  V30 1211 N 119.726 -1.57421 0.075193 0
M  V30 1212 C 120.689 -2.11791 -0.876203 0
M  V30 1213 C 121.689 -1.04268 -1.22412 0
M  V30 1214 O 122.879 -1.30242 -1.15684 0
M  V30 1215 C 120.011 -2.62207 -2.17854 0
M  V30 1216 H 121.204 -2.9716 -0.40444 0
M  V30 1217 H 118.757 -1.55333 -0.173557 0
M  V30 1218 H 119.492 -1.803 -2.6956 0
M  V30 1219 H 119.277 -3.40802 -1.93897 0
M  V30 1220 H 120.767 -3.04335 -2.85955 0
M  V30 1221 N 121.204 0.198386 -1.56346 0
M  V30 1222 C 122.45 0.920648 -1.80698 0
M  V30 1223 C 122.783 1.83045 -0.648697 0
M  V30 1224 O 122.058 1.91308 0.350925 0
M  V30 1225 C 122.341 1.73971 -3.15287 0
M  V30 1226 C 122.194 0.85485 -4.41602 0
M  V30 1227 C 123.513 2.71296 -3.46535 0
M  V30 1228 H 120.632 0.333261 -0.657348 0
M  V30 1229 H 123.274 0.188198 -1.89066 0
M  V30 1230 H 121.424 2.36416 -3.08285 0
M  V30 1231 H 123.096 0.245362 -4.60647 0
M  V30 1232 H 121.339 0.161398 -4.335 0
M  V30 1233 H 122.01 1.46286 -5.32264 0
M  V30 1234 H 124.486 2.18983 -3.53816 0
M  V30 1235 H 123.362 3.2569 -4.41834 0
M  V30 1236 H 123.623 3.5018 -2.69864 0
M  V30 1237 N 122.682 1.50554 0.465978 0
M  V30 1238 C 123.645 1.69233 1.54574 0
M  V30 1239 C 124.645 0.562901 1.50626 0
M  V30 1240 O 125.835 0.830016 1.53155 0
M  V30 1241 C 122.967 1.7223 2.94193 0
M  V30 1242 H 124.16 2.65571 1.39327 0
M  V30 1243 H 121.713 1.40111 0.692711 0
M  V30 1244 H 122.448 0.77603 3.14878 0
M  V30 1245 H 122.233 2.54285 2.98466 0
M  V30 1246 H 123.723 1.88618 3.72576 0
M  V30 1247 N 124.16 -0.719506 1.40217 0
M  V30 1248 C 125.409 -1.47486 1.37589 0
M  V30 1249 C 125.722 -1.9559 -0.0201568 0
M  V30 1250 O 126.928 -2.70973 -0.169049 0
M  V30 1251 C 125.384 -2.66575 2.41796 0
M  V30 1252 C 124.992 -2.25358 3.87192 0
M  V30 1253 C 126.736 -3.4433 2.48269 0
M  V30 1254 C 124.643 -3.41262 4.83005 0
M  V30 1255 H 123.573 -0.553901 0.511576 0
M  V30 1256 H 126.224 -0.783427 1.65936 0
M  V30 1257 H 124.606 -3.3787 2.06543 0
M  V30 1258 H 125.78 -1.61509 4.31569 0
M  V30 1259 H 124.095 -1.60657 3.84159 0
M  V30 1260 H 126.692 -4.30569 3.17041 0
M  V30 1261 H 127.035 -3.87872 1.51198 0
M  V30 1262 H 127.568 -2.80076 2.82493 0
M  V30 1263 H 124.307 -3.02755 5.81394 0
M  V30 1264 H 123.827 -4.0404 4.43297 0
M  V30 1265 H 125.506 -4.07383 5.02641 0
M  V30 1266 N 125.638 -1.25649 -0.95132 0
M  V30 1267 C 126.568 -1.08808 -2.06599 0
M  V30 1268 C 127.549 0.00382547 -1.701 0
M  V30 1269 O 128.734 -0.166325 -1.93486 0
M  V30 1270 C 125.864 -0.709542 -3.39975 0
M  V30 1271 C 124.818 -1.75206 -3.90496 0
M  V30 1272 C 124.144 -1.22811 -5.20405 0
M  V30 1273 C 125.444 -3.15153 -4.16504 0
M  V30 1274 H 127.138 -2.02048 -2.20946 0
M  V30 1275 H 124.684 -0.972835 -1.06169 0
M  V30 1276 H 126.637 -0.578649 -4.17408 0
M  V30 1277 H 125.361 0.258556 -3.25575 0
M  V30 1278 H 124.02 -1.87145 -3.15234 0
M  V30 1279 H 123.668 -0.250145 -5.02378 0
M  V30 1280 H 123.368 -1.92492 -5.55176 0
M  V30 1281 H 124.892 -1.10968 -6.00432 0
M  V30 1282 H 126.306 -3.06349 -4.84586 0
M  V30 1283 H 124.703 -3.82333 -4.62538 0
M  V30 1284 H 125.773 -3.61966 -3.22658 0
M  V30 1285 N 127.117 1.15442 -1.07289 0
M  V30 1286 C 128.365 1.85845 -0.794096 0
M  V30 1287 C 128.686 1.82692 0.681809 0
M  V30 1288 O 127.956 1.26741 1.49377 0
M  V30 1289 H 126.536 0.688089 -0.290763 0
M  V30 1290 H 129.198 1.39947 -1.3565 0
M  V30 1291 H 128.294 2.91001 -1.12804 0
M  V30 1292 N 128.595 0.856903 1.32268 0
M  V30 1293 C 129.841 0.462069 1.97466 0
M  V30 1294 C 130.174 -0.980298 1.67642 0
M  V30 1295 O 129.449 -1.68824 0.965858 0
M  V30 1296 C 129.732 0.704336 3.53145 0
M  V30 1297 C 129.585 2.19529 3.9259 0
M  V30 1298 C 130.904 0.1622 4.39801 0
M  V30 1299 H 128.023 0.169357 0.717278 0
M  V30 1300 H 130.665 1.07574 1.56614 0
M  V30 1301 H 128.815 0.181999 3.88073 0
M  V30 1302 H 130.487 2.78387 3.67829 0
M  V30 1303 H 128.73 2.67292 3.41668 0
M  V30 1304 H 129.401 2.31549 5.01088 0
M  V30 1305 H 131.877 0.608905 4.11621 0
M  V30 1306 H 130.753 0.361265 5.4771 0
M  V30 1307 H 131.014 -0.935158 4.32096 0
M  V30 1308 N 130.073 -1.45103 0.615059 0
M  V30 1309 C 131.484 -1.85654 0.197383 0
M  V30 1310 C 131.835 -1.51433 -1.24749 0
M  V30 1311 O 130.96 -0.944608 -1.94695 0
M  V30 1312 C 131.555 -3.36972 0.351448 0
M  V30 1313 C 130.114 -3.76398 -0.011593 0
M  V30 1314 C 129.261 -2.69024 0.672394 0
M  V30 1315 H 132.212 -1.35797 0.821263 0
M  V30 1316 H 132.233 -3.78239 -0.414227 0
M  V30 1317 H 131.745 -3.61847 1.40314 0
M  V30 1318 H 129.846 -3.5714 -1.06217 0
M  V30 1319 H 129.959 -4.77532 0.387265 0
M  V30 1320 H 128.323 -2.54465 0.109284 0
M  V30 1321 H 129.106 -2.96735 1.72636 0
M  V30 1322 N 131.551 -0.354651 -1.53558 0
M  V30 1323 C 132.776 0.242153 -2.05981 0
M  V30 1324 C 133.201 1.42553 -1.2272 0
M  V30 1325 O 132.559 1.79656 -0.243604 0
M  V30 1326 C 132.607 0.624367 -3.55154 0
M  V30 1327 O 131.711 1.72301 -3.74681 0
M  V30 1328 H 131.052 0.0378432 -0.662921 0
M  V30 1329 H 133.582 -0.512087 -1.98088 0
M  V30 1330 H 133.592 0.898433 -3.97985 0
M  V30 1331 H 132.267 -0.240989 -4.15201 0
M  V30 1332 H 130.844 1.44535 -3.4375 0
M  V30 1333 N 133.029 1.57378 -0.0835403 0
M  V30 1334 C 133.939 2.16897 0.894021 0
M  V30 1335 C 134.955 1.13528 1.31861 0
M  V30 1336 O 136.131 1.45848 1.3889 0
M  V30 1337 C 133.196 2.72831 2.13925 0
M  V30 1338 C 132.257 3.91115 1.76997 0
M  V30 1339 C 131.49 4.44371 2.95584 0
M  V30 1340 O 131.713 3.96596 4.09961 0
M  V30 1341 O 130.647 5.35549 2.74719 0
M  V30 1342 H 134.473 3.00814 0.417679 0
M  V30 1343 H 132.058 1.48741 0.140181 0
M  V30 1344 H 133.94 3.0863 2.86924 0
M  V30 1345 H 132.615 1.91967 2.60635 0
M  V30 1346 H 131.522 3.60148 1.01214 0
M  V30 1347 H 132.855 4.73307 1.3506 0
M  V30 1348 N 134.507 -0.190092 1.56449 0
M  V30 1349 C 135.756 -0.907912 1.80111 0
M  V30 1350 C 136.069 -1.84214 0.657619 0
M  V30 1351 O 137.275 -2.60094 0.778663 0
M  V30 1352 C 135.731 -1.66485 3.19078 0
M  V30 1353 C 135.339 -0.7752 4.41242 0
M  V30 1354 C 137.083 -2.37201 3.52045 0
M  V30 1355 C 134.99 -1.53129 5.71231 0
M  V30 1356 H 133.92 -0.34276 0.671589 0
M  V30 1357 H 136.571 -0.161109 1.82791 0
M  V30 1358 H 134.953 -2.45572 3.10661 0
M  V30 1359 H 136.127 -0.0226298 4.60794 0
M  V30 1360 H 134.442 -0.178627 4.16017 0
M  V30 1361 H 137.039 -2.94329 4.46402 0
M  V30 1362 H 137.382 -3.11632 2.76028 0
M  V30 1363 H 137.915 -1.65075 3.61932 0
M  V30 1364 H 134.654 -0.82967 6.50228 0
M  V30 1365 H 134.174 -2.25767 5.55688 0
M  V30 1366 H 135.853 -2.08377 6.12526 0
M  V30 1367 N 135.985 -1.50799 -0.457987 0
M  V30 1368 C 137.215 -1.65977 -1.23025 0
M  V30 1369 C 137.623 -0.347918 -1.85974 0
M  V30 1370 O 136.966 0.68148 -1.70592 0
M  V30 1371 C 137.028 -2.70309 -2.3701 0
M  V30 1372 C 136.692 -4.135 -1.94594 0
M  V30 1373 C 137.689 -4.98949 -1.46101 0
M  V30 1374 C 135.374 -4.5949 -2.02915 0
M  V30 1375 C 137.368 -6.28442 -1.06489 0
M  V30 1376 C 135.055 -5.88984 -1.62914 0
M  V30 1377 C 136.053 -6.73286 -1.1478 0
M  V30 1378 O 135.741 -8.00362 -0.75339 0
M  V30 1379 H 135.473 -0.56064 -0.377702 0
M  V30 1380 H 138.027 -1.97857 -0.551537 0
M  V30 1381 H 136.257 -2.337 -3.08093 0
M  V30 1382 H 137.946 -2.74574 -2.98938 0
M  V30 1383 H 138.712 -4.6463 -1.39084 0
M  V30 1384 H 134.591 -3.94009 -2.39328 0
M  V30 1385 H 138.135 -6.94194 -0.688488 0
M  V30 1386 H 134.032 -6.22822 -1.69595 0
M  V30 1387 H 134.8 -8.13744 -0.88108 0
M  V30 1388 N 137.463 0.71206 -1.40597 0
M  V30 1389 C 138.879 1.02058 -1.22704 0
M  V30 1390 C 139.079 2.01228 -0.104729 0
M  V30 1391 O 138.135 2.4674 0.53624 0
M  V30 1392 C 139.448 1.56094 -2.57012 0
M  V30 1393 C 140.996 1.6806 -2.64054 0
M  V30 1394 C 141.471 2.25501 -3.9864 0
M  V30 1395 N 142.962 2.32882 -4.004 0
M  V30 1396 C 143.697 2.78317 -5.01325 0
M  V30 1397 N 143.193 3.23478 -6.12645 0
M  V30 1398 N 144.986 2.77733 -4.88693 0
M  V30 1399 H 137.137 0.0547896 -2.12329 0
M  V30 1400 H 139.4 0.0869027 -0.944008 0
M  V30 1401 H 139.106 0.906865 -3.39807 0
M  V30 1402 H 138.98 2.54564 -2.78347 0
M  V30 1403 H 141.367 2.32583 -1.81629 0
M  V30 1404 H 141.448 0.681802 -2.46546 0
M  V30 1405 H 141.092 1.61598 -4.81506 0
M  V30 1406 H 141.022 3.26102 -4.13479 0
M  V30 1407 H 143.513 2.00991 -3.20017 0
M  V30 1408 H 143.826 3.56725 -6.85542 0
M  V30 1409 H 142.171 3.21429 -6.16205 0
M  V30 1410 H 145.362 2.4179 -4.00818 0
M  V30 1411 H 145.535 3.12826 -5.67489 0
M  V30 1412 N 138.941 1.26152 0.944643 0
M  V30 1413 C 140.188 1.11492 1.69044 0
M  V30 1414 C 140.516 -0.342366 1.91463 0
M  V30 1415 O 139.771 -1.26812 1.49054 0
M  V30 1416 C 140.07 1.82541 3.07268 0
M  V30 1417 C 139.736 3.32445 3.04616 0
M  V30 1418 C 138.398 3.73337 3.036 0
M  V30 1419 C 140.75 4.28171 2.97185 0
M  V30 1420 C 138.078 5.08348 2.92915 0
M  V30 1421 C 140.43 5.63218 2.88041 0
M  V30 1422 C 139.094 6.03426 2.85366 0
M  V30 1423 H 138.364 0.407977 0.618576 0
M  V30 1424 H 141.011 1.56551 1.10291 0
M  V30 1425 H 139.316 1.29941 3.69625 0
M  V30 1426 H 141.013 1.68642 3.63815 0
M  V30 1427 H 137.603 2.99915 3.06185 0
M  V30 1428 H 141.787 3.97563 2.97081 0
M  V30 1429 H 137.043 5.38667 2.89219 0
M  V30 1430 H 141.217 6.37078 2.81254 0
M  V30 1431 H 138.844 7.07999 2.76842 0
M  V30 1432 N 140.419 -1.14872 1.07899 0
M  V30 1433 C 141.667 -1.85422 0.803941 0
M  V30 1434 C 141.988 -1.83051 -0.67211 0
M  V30 1435 O 141.258 -1.27532 -1.48703 0
M  V30 1436 H 139.838 -0.686537 0.294408 0
M  V30 1437 H 142.5 -1.39226 1.3639 0
M  V30 1438 H 141.596 -2.90399 1.14346 0
M  V30 1439 N 141.898 -0.863906 -1.31812 0
M  V30 1440 C 143.126 -0.486111 -2.01108 0
M  V30 1441 C 143.541 0.919755 -1.64882 0
M  V30 1442 O 142.898 1.60162 -0.874893 0
M  V30 1443 C 142.949 -0.626435 -3.56031 0
M  V30 1444 O 142.67 -1.97693 -3.90959 0
M  V30 1445 C 144.171 -0.248857 -4.42601 0
M  V30 1446 H 141.391 -0.190052 -0.643523 0
M  V30 1447 H 143.935 -1.1634 -1.68182 0
M  V30 1448 H 142.09 0.00322717 -3.874 0
M  V30 1449 H 142.504 -1.98034 -4.85678 0
M  V30 1450 H 143.978 -0.398016 -5.50563 0
M  V30 1451 H 144.455 0.811489 -4.31638 0
M  V30 1452 H 145.061 -0.853971 -4.16638 0
M  V30 1453 N 143.376 1.44774 -0.622745 0
M  V30 1454 C 144.308 2.28856 0.125485 0
M  V30 1455 C 145.321 1.40811 0.817069 0
M  V30 1456 O 146.51 1.65044 0.679918 0
M  V30 1457 C 143.61 3.16963 1.19949 0
M  V30 1458 C 142.783 4.33374 0.592064 0
M  V30 1459 C 141.842 5.02577 1.55893 0
M  V30 1460 O 140.868 5.58873 1.07933 0
M  V30 1461 N 142.07 5.03256 2.89334 0
M  V30 1462 H 144.835 2.93713 -0.596068 0
M  V30 1463 H 142.396 1.55129 -0.463303 0
M  V30 1464 H 144.388 3.60123 1.84644 0
M  V30 1465 H 142.958 2.53913 1.82337 0
M  V30 1466 H 142.178 3.93509 -0.233322 0
M  V30 1467 H 143.466 5.08527 0.166738 0
M  V30 1468 H 142.864 4.58836 3.30887 0
M  V30 1469 H 141.421 5.50232 3.49412 0
M  V30 1470 N 144.854 0.36279 1.53368 0
M  V30 1471 C 146.084 -0.228281 2.05335 0
M  V30 1472 C 146.492 -1.43226 1.23625 0
M  V30 1473 O 145.835 -1.81717 0.269206 0
M  V30 1474 C 145.897 -0.688549 3.52845 0
M  V30 1475 C 145.561 0.398362 4.5526 0
M  V30 1476 C 146.558 1.24732 5.04716 0
M  V30 1477 C 144.243 0.557805 4.99193 0
M  V30 1478 C 146.237 2.2411 5.96702 0
M  V30 1479 C 143.924 1.55495 5.90986 0
M  V30 1480 C 144.922 2.39503 6.39631 0
M  V30 1481 O 144.61 3.37517 7.29615 0
M  V30 1482 H 144.342 -0.044395 0.674541 0
M  V30 1483 H 146.896 0.518668 1.98744 0
M  V30 1484 H 145.126 -1.48706 3.56964 0
M  V30 1485 H 146.815 -1.20231 3.87685 0
M  V30 1486 H 147.581 1.13532 4.71525 0
M  V30 1487 H 143.46 -0.0862959 4.60919 0
M  V30 1488 H 147.004 2.89718 6.34594 0
M  V30 1489 H 142.901 1.66744 6.23592 0
M  V30 1490 H 143.669 3.33213 7.47604 0
M  V30 1491 N 146.332 -1.57332 0.0918853 0
M  V30 1492 C 147.578 -1.95328 -0.567313 0
M  V30 1493 C 147.933 -0.972866 -1.65991 0
M  V30 1494 O 147.226 0.00166256 -1.916 0
M  V30 1495 C 147.42 -3.37689 -1.17051 0
M  V30 1496 C 147.249 -4.49489 -0.137875 0
M  V30 1497 C 146.019 -5.04498 0.284515 0
M  V30 1498 C 148.217 -5.10393 0.63271 0
M  V30 1499 N 146.199 -5.99853 1.30576 0
M  V30 1500 C 147.57 -6.01435 1.50587 0
M  V30 1501 C 149.625 -4.93143 0.68658 0
M  V30 1502 C 148.328 -6.77077 2.42815 0
M  V30 1503 C 150.354 -5.69445 1.59645 0
M  V30 1504 C 149.716 -6.60151 2.45725 0
M  V30 1505 H 145.815 -0.761467 -0.178023 0
M  V30 1506 H 148.399 -1.93924 0.173706 0
M  V30 1507 H 146.57 -3.39793 -1.88136 0
M  V30 1508 H 148.302 -3.62872 -1.79181 0
M  V30 1509 H 145.057 -4.73489 -0.102593 0
M  V30 1510 H 145.481 -6.52231 1.81449 0
M  V30 1511 H 150.123 -4.22785 0.035244 0
M  V30 1512 H 147.841 -7.46699 3.08975 0
M  V30 1513 H 151.427 -5.58112 1.64323 0
M  V30 1514 H 150.307 -7.18159 3.14987 0
M  V30 1515 N 147.81 0.181792 -1.56548 0
M  V30 1516 C 149.057 0.900097 -1.81396 0
M  V30 1517 C 149.385 1.82695 -0.667281 0
M  V30 1518 O 148.64 1.92614 0.346146 0
M  V30 1519 C 148.939 1.73728 -3.12335 0
M  V30 1520 C 148.605 0.960255 -4.40556 0
M  V30 1521 C 147.267 0.745766 -4.75386 0
M  V30 1522 C 149.619 0.414477 -5.19549 0
M  V30 1523 C 146.947 -0.0257694 -5.86694 0
M  V30 1524 C 149.299 -0.343916 -6.31664 0
M  V30 1525 C 147.963 -0.569301 -6.65068 0
M  V30 1526 H 147.233 0.329369 -0.663775 0
M  V30 1527 H 149.88 0.165647 -1.90782 0
M  V30 1528 H 148.185 2.54081 -2.98245 0
M  V30 1529 H 149.882 2.29591 -3.28769 0
M  V30 1530 H 146.472 1.13746 -4.13231 0
M  V30 1531 H 150.656 0.567554 -4.93044 0
M  V30 1532 H 145.912 -0.210233 -6.11038 0
M  V30 1533 H 150.086 -0.774133 -6.92084 0
M  V30 1534 H 147.713 -1.16903 -7.51158 0
M  V30 1535 N 149.288 1.51039 0.449983 0
M  V30 1536 C 150.218 1.74379 1.55288 0
M  V30 1537 C 151.199 0.593236 1.5942 0
M  V30 1538 O 152.384 0.834625 1.7535 0
M  V30 1539 C 149.514 1.85728 2.93466 0
M  V30 1540 C 148.468 3.01078 3.04197 0
M  V30 1541 C 147.794 2.97595 4.44231 0
M  V30 1542 C 149.094 4.41254 2.7945 0
M  V30 1543 H 150.788 2.66725 1.36008 0
M  V30 1544 H 148.334 1.2835 0.652864 0
M  V30 1545 H 150.287 2.0064 3.70569 0
M  V30 1546 H 149.011 0.900207 3.13949 0
M  V30 1547 H 147.67 2.85851 2.29531 0
M  V30 1548 H 147.318 1.99691 4.61663 0
M  V30 1549 H 147.018 3.75046 4.52343 0
M  V30 1550 H 148.542 3.14583 5.23326 0
M  V30 1551 H 149.956 4.56897 3.46292 0
M  V30 1552 H 148.353 5.20315 2.98985 0
M  V30 1553 H 149.423 4.52164 1.75144 0
M  V30 1554 N 150.766 -0.704594 1.40972 0
M  V30 1555 C 152.014 -1.46169 1.39568 0
M  V30 1556 C 152.335 -1.95 0.00253745 0
M  V30 1557 O 151.605 -1.71095 -0.954114 0
M  V30 1558 H 150.185 -0.542326 0.513704 0
M  V30 1559 H 152.847 -0.834553 1.76128 0
M  V30 1560 H 151.943 -2.32922 2.07735 0
M  V30 1561 N 152.244 -1.26651 -0.937939 0
M  V30 1562 C 153.484 -1.13611 -1.69917 0
M  V30 1563 C 153.848 0.314687 -1.89404 0
M  V30 1564 O 155.049 0.567285 -2.62746 0
M  V30 1565 C 153.32 -1.88742 -3.03498 0
M  V30 1566 S 154.879 -1.91794 -3.94665 0
M  V30 1567 H 151.697 -0.405767 -0.583844 0
M  V30 1568 H 154.299 -1.60416 -1.11745 0
M  V30 1569 H 153.003 -2.9336 -2.86999 0
M  V30 1570 H 152.534 -1.42391 -3.66727 0
M  V30 1571 H 154.549 -1.00698 -4.85875 0
M  V30 1572 N 153.722 1.14298 -1.08507 0
M  V30 1573 C 154.962 1.87016 -0.824894 0
M  V30 1574 C 155.326 1.81099 0.637735 0
M  V30 1575 O 156.527 2.48963 1.01345 0
M  V30 1576 C 154.798 3.31584 -1.33368 0
M  V30 1577 S 156.357 4.21903 -1.20596 0
M  V30 1578 H 153.175 0.645259 -0.2986 0
M  V30 1579 H 155.777 1.37822 -1.38656 0
M  V30 1580 H 154.481 3.33439 -2.39262 0
M  V30 1581 H 154.012 3.85836 -0.767734 0
M  V30 1582 H 156.027 4.95971 -0.150891 0
M  V30 1583 N 155.201 0.870884 1.31352 0
M  V30 1584 C 156.431 0.496049 2.00557 0
M  V30 1585 C 156.839 -0.916241 1.65534 0
M  V30 1586 O 156.182 -1.61188 0.881134 0
M  V30 1587 C 156.244 0.574418 3.54881 0
M  V30 1588 C 155.908 1.94849 4.1338 0
M  V30 1589 C 156.905 2.91611 4.30417 0
M  V30 1590 C 154.59 2.25005 4.49086 0
M  V30 1591 C 156.584 4.16672 4.82352 0
M  V30 1592 C 154.271 3.50315 5.00722 0
M  V30 1593 C 155.269 4.45964 5.17306 0
M  V30 1594 O 154.957 5.69052 5.67833 0
M  V30 1595 H 154.689 0.191664 0.64826 0
M  V30 1596 H 157.243 1.17409 1.68536 0
M  V30 1597 H 155.473 -0.160549 3.86367 0
M  V30 1598 H 157.162 0.212879 4.05341 0
M  V30 1599 H 157.928 2.69622 4.03149 0
M  V30 1600 H 153.807 1.51332 4.35453 0
M  V30 1601 H 157.351 4.91336 4.95211 0
M  V30 1602 H 153.248 3.72147 5.27424 0
M  V30 1603 H 154.016 5.71236 5.86201 0
M  V30 1604 N 156.679 -1.44442 0.630414 0
M  V30 1605 C 157.926 -2.02052 0.134617 0
M  V30 1606 C 158.254 -1.49576 -1.24327 0
M  V30 1607 O 157.509 -0.669806 -1.83881 0
M  V30 1608 C 157.808 -3.57332 0.0697835 0
M  V30 1609 C 157.474 -4.29058 1.38635 0
M  V30 1610 C 156.136 -4.4837 1.74694 0
M  V30 1611 C 158.488 -4.69872 2.25543 0
M  V30 1612 C 155.816 -5.05756 2.97369 0
M  V30 1613 C 158.168 -5.28616 3.47487 0
M  V30 1614 C 156.832 -5.46147 3.8377 0
M  V30 1615 H 156.102 -0.739361 0.0492598 0
M  V30 1616 H 158.749 -1.73217 0.816586 0
M  V30 1617 H 157.054 -3.85577 -0.695553 0
M  V30 1618 H 158.751 -3.99637 -0.330344 0
M  V30 1619 H 155.341 -4.14357 1.09574 0
M  V30 1620 H 159.525 -4.54666 1.98979 0
M  V30 1621 H 154.781 -5.17515 3.25558 0
M  V30 1622 H 158.955 -5.59192 4.15063 0
M  V30 1623 H 156.582 -5.9038 4.7891 0
M  V30 1624 N 158.157 -0.370918 -1.53173 0
M  V30 1625 C 159.087 0.464847 -2.28826 0
M  V30 1626 C 160.068 1.07936 -1.31468 0
M  V30 1627 O 161.253 1.0956 -1.60344 0
M  V30 1628 C 158.383 1.60196 -3.08147 0
M  V30 1629 C 157.337 1.11443 -4.13237 0
M  V30 1630 C 156.663 2.3422 -4.80672 0
M  V30 1631 C 157.963 0.195384 -5.21934 0
M  V30 1632 H 159.657 -0.166329 -2.98938 0
M  V30 1633 H 157.203 -0.0814359 -1.4377 0
M  V30 1634 H 159.156 2.19332 -3.59822 0
M  V30 1635 H 157.88 2.26045 -2.35735 0
M  V30 1636 H 156.539 0.545727 -3.62515 0
M  V30 1637 H 156.187 2.98537 -4.04827 0
M  V30 1638 H 155.887 2.02269 -5.51689 0
M  V30 1639 H 157.411 2.94032 -5.35143 0
M  V30 1640 H 158.825 0.694375 -5.69079 0
M  V30 1641 H 157.222 -0.0335027 -6.00091 0
M  V30 1642 H 158.292 -0.760961 -4.78892 0
M  V30 1643 N 159.635 1.57281 -0.100228 0
M  V30 1644 C 160.883 1.94153 0.561157 0
M  V30 1645 C 161.204 0.983157 1.68401 0
M  V30 1646 O 160.474 0.0361132 1.95867 0
M  V30 1647 H 159.054 0.716791 0.210283 0
M  V30 1648 H 161.716 1.94202 -0.164765 0
M  V30 1649 H 160.812 2.96709 0.968008 0
M  V30 1650 N 161.113 -0.173488 1.56642 0
M  V30 1651 C 162.043 -1.2171 1.99271 0
M  V30 1652 C 163.024 -1.46289 0.867959 0
M  V30 1653 O 164.209 -1.5766 1.13388 0
M  V30 1654 C 161.339 -2.55651 2.35074 0
M  V30 1655 C 160.293 -2.45645 3.50489 0
M  V30 1656 C 159.619 -3.84056 3.72028 0
M  V30 1657 C 160.919 -1.96302 4.84007 0
M  V30 1658 H 162.613 -0.86275 2.867 0
M  V30 1659 H 160.159 -0.413571 1.37933 0
M  V30 1660 H 162.112 -3.2886 2.63494 0
M  V30 1661 H 160.836 -2.92869 1.44552 0
M  V30 1662 H 159.495 -1.7489 3.22194 0
M  V30 1663 H 159.143 -4.18664 2.788 0
M  V30 1664 H 158.843 -3.7823 4.49684 0
M  V30 1665 H 160.367 -4.58854 4.02846 0
M  V30 1666 H 161.781 -2.59284 5.11317 0
M  V30 1667 H 160.178 -2.01429 5.65284 0
M  V30 1668 H 161.248 -0.917226 4.76146 0
M  V30 1669 N 162.591 -1.51276 -0.441967 0
M  V30 1670 C 163.521 -1.752 -1.54361 0
M  V30 1671 C 164.502 -0.601682 -1.59103 0
M  V30 1672 O 165.687 -0.843913 -1.74905 0
M  V30 1673 C 162.817 -1.87282 -2.92477 0
M  V30 1674 C 161.771 -3.02687 -3.02596 0
M  V30 1675 C 161.097 -2.99947 -4.42647 0
M  V30 1676 C 162.397 -4.4273 -2.77106 0
M  V30 1677 H 164.091 -2.67442 -1.34592 0
M  V30 1678 H 161.637 -1.28694 -0.646048 0
M  V30 1679 H 163.59 -2.02602 -3.695 0
M  V30 1680 H 162.314 -0.916844 -3.13467 0
M  V30 1681 H 160.973 -2.87065 -2.28012 0
M  V30 1682 H 160.621 -2.02136 -4.60597 0
M  V30 1683 H 160.321 -3.77439 -4.50348 0
M  V30 1684 H 161.845 -3.17354 -5.2165 0
M  V30 1685 H 163.259 -4.58727 -3.43864 0
M  V30 1686 H 161.656 -5.21893 -2.96222 0
M  V30 1687 H 162.726 -4.53087 -1.72744 0
M  V30 1688 N 164.069 0.697108 -1.41344 0
M  V30 1689 C 165.318 1.45279 -1.39918 0
M  V30 1690 C 165.631 1.95597 -0.0109624 0
M  V30 1691 O 166.837 2.71208 0.125919 0
M  V30 1692 C 165.293 2.62695 -2.46007 0
M  V30 1693 C 164.901 2.19169 -3.90729 0
M  V30 1694 C 166.645 3.40336 -2.53715 0
M  V30 1695 C 164.552 3.33535 -4.88373 0
M  V30 1696 H 163.482 0.545692 -0.520323 0
M  V30 1697 H 166.133 0.756929 -1.67161 0
M  V30 1698 H 164.515 3.34541 -2.11892 0
M  V30 1699 H 165.689 1.54623 -4.34083 0
M  V30 1700 H 164.004 1.54525 -3.86666 0
M  V30 1701 H 166.601 4.2547 -3.2385 0
M  V30 1702 H 166.944 3.85418 -1.5735 0
M  V30 1703 H 167.477 2.75546 -2.86913 0
M  V30 1704 H 164.216 2.93468 -5.86137 0
M  V30 1705 H 163.736 3.96936 -4.49668 0
M  V30 1706 H 165.415 3.99335 -5.09059 0
M  V30 1707 N 165.547 1.27147 0.931209 0
M  V30 1708 C 166.958 1.12044 1.49342 0
M  V30 1709 C 167.309 -0.295795 1.93957 0
M  V30 1710 O 166.434 -1.18835 1.80852 0
M  V30 1711 C 167.029 2.02781 2.71414 0
M  V30 1712 C 165.588 1.91794 3.2387 0
M  V30 1713 C 164.735 1.95543 1.96617 0
M  V30 1714 H 167.686 1.40091 0.745672 0
M  V30 1715 H 167.707 1.58156 3.46074 0
M  V30 1716 H 167.219 3.05848 2.38911 0
M  V30 1717 H 165.32 0.916992 3.6114 0
M  V30 1718 H 165.433 2.77852 3.90302 0
M  V30 1719 H 163.797 1.39722 2.12955 0
M  V30 1720 H 164.58 3.00259 1.66432 0
M  V30 1721 N 167.025 -1.13721 1.09112 0
M  V30 1722 C 167.988 -2.17222 0.731241 0
M  V30 1723 C 168.988 -1.59035 -0.237566 0
M  V30 1724 O 170.178 -1.74192 -0.0161704 0
M  V30 1725 C 167.31 -3.40804 0.0808443 0
M  V30 1726 H 168.503 -2.50573 1.64783 0
M  V30 1727 H 166.056 -1.28493 0.889897 0
M  V30 1728 H 166.791 -3.1304 -0.847127 0
M  V30 1729 H 166.576 -3.84306 0.777896 0
M  V30 1730 H 168.066 -4.1731 -0.155657 0
M  V30 1731 N 168.503 -0.877838 -1.30888 0
M  V30 1732 C 169.453 -0.310872 -2.25871 0
M  V30 1733 C 170.437 0.556596 -1.50966 0
M  V30 1734 O 171.629 0.402187 -1.7237 0
M  V30 1735 C 168.758 0.479821 -3.3993 0
M  V30 1736 C 167.844 -0.401333 -4.22197 0
M  V30 1737 N 168.235 -1.49848 -4.83093 0
M  V30 1738 C 166.533 -0.195167 -4.45573 0
M  V30 1739 C 167.234 -2.0425 -5.44662 0
M  V30 1740 N 166.21 -1.33843 -5.26865 0
M  V30 1741 H 170.012 -1.1493 -2.70496 0
M  V30 1742 H 167.526 -0.726458 -1.45246 0
M  V30 1743 H 169.523 0.902582 -4.07012 0
M  V30 1744 H 168.183 1.31577 -2.96846 0
M  V30 1745 H 169.194 -1.88137 -4.82519 0
M  V30 1746 H 165.871 0.604192 -4.13105 0
M  V30 1747 H 167.261 -2.96345 -6.03017 0
M  V30 1748 N 169.982 1.44106 -0.638065 0
M  V30 1749 C 171.231 2.01194 -0.142744 0
M  V30 1750 C 171.544 1.50835 1.24532 0
M  V30 1751 O 172.75 2.00096 1.83504 0
M  V30 1752 C 171.206 3.59319 -0.20442 0
M  V30 1753 C 170.814 4.18674 -1.59423 0
M  V30 1754 C 172.558 4.23854 0.234079 0
M  V30 1755 C 170.465 5.69045 -1.61065 0
M  V30 1756 H 169.395 0.752367 -0.0495998 0
M  V30 1757 H 172.046 1.65246 -0.797881 0
M  V30 1758 H 170.428 3.92598 0.517946 0
M  V30 1759 H 171.602 3.96921 -2.34074 0
M  V30 1760 H 169.917 3.66453 -1.97741 0
M  V30 1761 H 172.514 5.34155 0.241443 0
M  V30 1762 H 172.857 3.96688 1.2627 0
M  V30 1763 H 173.39 3.95403 -0.436025 0
M  V30 1764 H 170.129 6.00956 -2.61787 0
M  V30 1765 H 169.649 5.929 -0.90718 0
M  V30 1766 H 171.328 6.32809 -1.34766 0
M  V30 1767 N 171.46 0.379036 1.52974 0
M  V30 1768 C 172.707 -0.206421 2.01445 0
M  V30 1769 C 173.035 -1.47668 1.26587 0
M  V30 1770 O 172.29 -1.92514 0.351675 0
M  V30 1771 C 172.589 -0.53096 3.53434 0
M  V30 1772 C 172.255 0.646546 4.46241 0
M  V30 1773 C 170.917 0.969604 4.7133 0
M  V30 1774 C 173.269 1.43479 5.01062 0
M  V30 1775 C 170.597 2.08263 5.48492 0
M  V30 1776 C 172.949 2.53834 5.7944 0
M  V30 1777 C 171.613 2.86659 6.02812 0
M  V30 1778 H 170.883 -0.0755349 0.73714 0
M  V30 1779 H 173.53 0.514271 1.84465 0
M  V30 1780 H 171.835 -1.33285 3.68432 0
M  V30 1781 H 173.532 -0.996417 3.88423 0
M  V30 1782 H 170.122 0.384734 4.2687 0
M  V30 1783 H 174.306 1.19844 4.81613 0
M  V30 1784 H 169.562 2.34078 5.64816 0
M  V30 1785 H 173.736 3.15319 6.20924 0
M  V30 1786 H 171.363 3.73026 6.62387 0
M  V30 1787 N 172.938 -1.57226 0.108567 0
M  V30 1788 C 174.187 -1.94008 -0.551703 0
M  V30 1789 C 174.5 -0.993442 -1.68494 0
M  V30 1790 O 175.706 -1.25551 -2.40726 0
M  V30 1791 C 174.162 -3.44763 -1.03279 0
M  V30 1792 C 173.77 -4.47943 0.0714193 0
M  V30 1793 C 175.514 -3.90483 -1.66503 0
M  V30 1794 C 173.421 -5.89865 -0.425779 0
M  V30 1795 H 172.351 -0.724206 -0.209863 0
M  V30 1796 H 175.002 -1.82547 0.186741 0
M  V30 1797 H 173.384 -3.51422 -1.82533 0
M  V30 1798 H 174.558 -4.52942 0.847365 0
M  V30 1799 H 172.873 -4.11913 0.609669 0
M  V30 1800 H 175.47 -4.93925 -2.04798 0
M  V30 1801 H 175.813 -3.29877 -2.53942 0
M  V30 1802 H 176.346 -3.86581 -0.938074 0
M  V30 1803 H 173.085 -6.54202 0.412316 0
M  V30 1804 H 172.605 -5.88309 -1.16843 0
M  V30 1805 H 174.284 -6.40844 -0.890397 0
M  V30 1806 N 174.416 0.165178 -1.56732 0
M  V30 1807 C 175.827 0.727046 -1.71962 0
M  V30 1808 C 176.178 1.82508 -0.720078 0
M  V30 1809 O 175.303 2.16082 0.117242 0
M  V30 1810 C 175.898 1.32559 -3.11791 0
M  V30 1811 C 174.457 1.83422 -3.28684 0
M  V30 1812 C 173.604 0.715567 -2.67908 0
M  V30 1813 H 176.555 -0.0602896 -1.58585 0
M  V30 1814 H 176.576 2.19533 -3.10782 0
M  V30 1815 H 176.088 0.526195 -3.84516 0
M  V30 1816 H 174.189 2.65986 -2.60926 0
M  V30 1817 H 174.302 1.97543 -4.36478 0
M  V30 1818 H 172.666 1.13758 -2.27884 0
M  V30 1819 H 173.449 -0.0720836 -3.43224 0
M  V30 1820 N 175.894 1.51508 0.433938 0
M  V30 1821 C 177.14 1.64588 1.18484 0
M  V30 1822 C 177.473 0.362666 1.90784 0
M  V30 1823 O 176.748 -0.637892 1.83742 0
M  V30 1824 C 177.031 2.85149 2.19913 0
M  V30 1825 C 176.884 4.23456 1.51674 0
M  V30 1826 C 178.203 3.01227 3.20858 0
M  V30 1827 H 175.322 0.598994 0.429389 0
M  V30 1828 H 177.964 1.84002 0.473647 0
M  V30 1829 H 176.114 2.68729 2.80566 0
M  V30 1830 H 177.786 4.51552 0.943322 0
M  V30 1831 H 176.029 4.25998 0.819035 0
M  V30 1832 H 176.7 5.03812 2.2556 0
M  V30 1833 H 179.176 3.16382 2.70263 0
M  V30 1834 H 178.052 3.87141 3.89118 0
M  V30 1835 H 178.313 2.13447 3.8716 0
M  V30 1836 N 177.372 -0.689602 1.41712 0
M  V30 1837 C 178.619 -1.44966 1.4139 0
M  V30 1838 C 178.947 -1.94484 0.025105 0
M  V30 1839 O 178.202 -1.70307 -0.964048 0
M  V30 1840 C 178.501 -2.67298 2.37247 0
M  V30 1841 C 178.167 -2.36405 3.83958 0
M  V30 1842 C 176.829 -2.27691 4.23923 0
M  V30 1843 C 179.181 -2.11043 4.76561 0
M  V30 1844 C 176.509 -1.91719 5.54492 0
M  V30 1845 C 178.861 -1.76578 6.07456 0
M  V30 1846 C 177.525 -1.66363 6.46436 0
M  V30 1847 H 176.795 -0.53047 0.517381 0
M  V30 1848 H 179.442 -0.787655 1.74552 0
M  V30 1849 H 177.747 -3.38461 1.9736 0
M  V30 1850 H 179.444 -3.25452 2.34269 0
M  V30 1851 H 176.034 -2.44085 3.52308 0
M  V30 1852 H 180.218 -2.16717 4.46483 0
M  V30 1853 H 175.474 -1.82367 5.83568 0
M  V30 1854 H 179.648 -1.55974 6.78708 0
M  V30 1855 H 177.275 -1.38258 7.47522 0
M  V30 1856 N 178.85 -1.27639 -0.924453 0
M  V30 1857 C 180.08 -1.16819 -1.70402 0
M  V30 1858 C 180.488 0.277191 -1.87158 0
M  V30 1859 O 179.831 1.20025 -1.39067 0
M  V30 1860 C 179.893 -1.78305 -3.12166 0
M  V30 1861 C 179.557 -3.27502 -3.18734 0
M  V30 1862 C 180.554 -4.2409 -3.00738 0
M  V30 1863 C 178.239 -3.68269 -3.4159 0
M  V30 1864 C 180.233 -5.59422 -3.05492 0
M  V30 1865 C 177.92 -5.0373 -3.45977 0
M  V30 1866 C 178.918 -5.99116 -3.27946 0
M  V30 1867 O 178.606 -7.32108 -3.32074 0
M  V30 1868 H 178.338 -0.406931 -0.539799 0
M  V30 1869 H 180.892 -1.69078 -1.16626 0
M  V30 1870 H 179.122 -1.20528 -3.67437 0
M  V30 1871 H 180.811 -1.62154 -3.72103 0
M  V30 1872 H 181.577 -3.93931 -2.82919 0
M  V30 1873 H 177.456 -2.94496 -3.54673 0
M  V30 1874 H 181 -6.33852 -2.91337 0
M  V30 1875 H 176.897 -5.33543 -3.63321 0
M  V30 1876 H 177.665 -7.40598 -3.48507 0
M  V30 1877 N 180.328 1.1314 -1.09713 0
M  V30 1878 C 181.744 1.36477 -0.827423 0
M  V30 1879 C 181.944 1.93654 0.556817 0
M  V30 1880 O 181 2.15791 1.31112 0
M  V30 1881 C 182.313 2.31334 -1.92106 0
M  V30 1882 C 183.861 2.44943 -1.94864 0
M  V30 1883 C 184.336 3.4311 -3.0338 0
M  V30 1884 N 185.827 3.50662 -3.02639 0
M  V30 1885 C 186.562 4.2651 -3.83246 0
M  V30 1886 N 186.058 5.05485 -4.73768 0
M  V30 1887 N 187.851 4.2184 -3.71493 0
M  V30 1888 H 180.002 0.743807 -1.9895 0
M  V30 1889 H 182.265 0.389823 -0.864143 0
M  V30 1890 H 181.971 1.96483 -2.91698 0
M  V30 1891 H 181.845 3.31381 -1.80184 0
M  V30 1892 H 184.232 2.79079 -0.959099 0
M  V30 1893 H 184.313 1.4481 -2.10864 0
M  V30 1894 H 183.957 3.09704 -4.02549 0
M  V30 1895 H 183.887 4.43055 -2.84622 0
M  V30 1896 H 186.378 2.94315 -2.37039 0
M  V30 1897 H 186.691 5.60675 -5.3185 0
M  V30 1898 H 185.036 5.04708 -4.77802 0
M  V30 1899 H 188.227 3.5922 -3.00131 0
M  V30 1900 H 188.4 4.80697 -4.3455 0
M  V30 1901 N 181.806 0.884767 1.30421 0
M  V30 1902 C 182.736 0.367574 2.30589 0
M  V30 1903 C 183.717 -0.549464 1.60981 0
M  V30 1904 O 184.902 -0.46336 1.88591 0
M  V30 1905 C 182.032 -0.418944 3.44764 0
M  V30 1906 C 180.986 0.406316 4.26067 0
M  V30 1907 C 180.312 -0.506793 5.32293 0
M  V30 1908 C 181.612 1.64832 4.95608 0
M  V30 1909 H 183.306 1.20462 2.74097 0
M  V30 1910 H 180.852 0.580695 1.31772 0
M  V30 1911 H 182.805 -0.791395 4.13902 0
M  V30 1912 H 181.529 -1.28964 3.0006 0
M  V30 1913 H 180.188 0.760903 3.58617 0
M  V30 1914 H 179.836 -1.37519 4.83836 0
M  V30 1915 H 179.536 0.0415828 5.87585 0
M  V30 1916 H 181.06 -0.875764 6.04287 0
M  V30 1917 H 182.474 1.34646 5.57264 0
M  V30 1918 H 180.871 2.13688 5.60765 0
M  V30 1919 H 181.941 2.39284 4.21748 0
M  V30 1920 N 183.284 -1.43765 0.645699 0
M  V30 1921 C 184.234 -2.27884 -0.0726442 0
M  V30 1922 C 185.218 -1.39483 -0.802086 0
M  V30 1923 O 186.41 -1.63174 -0.685791 0
M  V30 1924 C 183.539 -3.27055 -1.04356 0
M  V30 1925 C 182.625 -4.22944 -0.312985 0
M  V30 1926 N 183.016 -5.01391 0.666386 0
M  V30 1927 C 181.314 -4.42528 -0.55546 0
M  V30 1928 C 182.015 -5.71217 1.09935 0
M  V30 1929 N 180.991 -5.41856 0.435137 0
M  V30 1930 H 184.793 -2.85949 0.678988 0
M  V30 1931 H 182.307 -1.55378 0.472368 0
M  V30 1932 H 184.304 -3.86089 -1.57292 0
M  V30 1933 H 182.964 -2.70551 -1.79534 0
M  V30 1934 H 183.975 -5.07252 1.04481 0
M  V30 1935 H 180.652 -3.97104 -1.28899 0
M  V30 1936 H 182.042 -6.44202 1.90929 0
M  V30 1937 N 184.763 -0.387143 -1.52771 0
M  V30 1938 C 185.693 0.440551 -2.29306 0
M  V30 1939 C 186.674 1.06535 -1.32606 0
M  V30 1940 O 187.859 1.07853 -1.61497 0
M  V30 1941 C 184.989 1.56919 -3.09829 0
M  V30 1942 C 183.943 1.07054 -4.14395 0
M  V30 1943 C 183.269 2.29109 -4.83129 0
M  V30 1944 C 184.569 0.140015 -5.22112 0
M  V30 1945 H 186.263 -0.198026 -2.98744 0
M  V30 1946 H 183.809 -0.09668 -1.43675 0
M  V30 1947 H 185.762 2.15503 -3.62128 0
M  V30 1948 H 184.486 2.23532 -2.3812 0
M  V30 1949 H 183.145 0.507247 -3.63074 0
M  V30 1950 H 182.793 2.94227 -4.0797 0
M  V30 1951 H 182.493 1.96406 -5.53804 0
M  V30 1952 H 184.017 2.88339 -5.38231 0
M  V30 1953 H 185.431 0.633978 -5.69784 0
M  V30 1954 H 183.828 -0.0971485 -6.00021 0
M  V30 1955 H 184.898 -0.811711 -4.78058 0
M  V30 1956 N 186.241 1.57166 -0.116904 0
M  V30 1957 C 187.469 1.99473 0.549383 0
M  V30 1958 C 187.884 0.996541 1.60357 0
M  V30 1959 O 187.241 -0.0108731 1.82497 0
M  V30 1960 C 187.292 3.41788 1.17741 0
M  V30 1961 O 187.013 4.37788 0.165362 0
M  V30 1962 C 188.514 3.99216 1.92722 0
M  V30 1963 H 185.734 0.655009 0.145616 0
M  V30 1964 H 188.278 2.03494 -0.202625 0
M  V30 1965 H 186.433 3.38713 1.88021 0
M  V30 1966 H 186.847 5.20806 0.621403 0
M  V30 1967 H 188.321 5.00882 2.31995 0
M  V30 1968 H 188.798 3.3824 2.80161 0
M  V30 1969 H 189.404 4.0583 1.27209 0
M  V30 1970 N 187.719 -0.156864 1.56817 0
M  V30 1971 C 188.944 -0.890331 1.87318 0
M  V30 1972 C 189.369 -1.74394 0.704855 0
M  V30 1973 O 188.727 -1.77972 -0.345786 0
M  V30 1974 C 188.775 -1.73102 3.16336 0
M  V30 1975 O 187.879 -2.83422 2.99576 0
M  V30 1976 H 187.22 -0.24857 0.615718 0
M  V30 1977 H 189.75 -0.150649 2.04045 0
M  V30 1978 H 189.76 -2.12803 3.48107 0
M  V30 1979 H 188.435 -1.10412 4.00976 0
M  V30 1980 H 187.012 -2.47199 2.7919 0
M  V30 1981 N 189.197 -1.51736 -0.425897 0
M  V30 1982 C 190.16 -1.73271 -1.50032 0
M  V30 1983 C 191.16 -0.602639 -1.4908 0
M  V30 1984 O 192.35 -0.87033 -1.509 0
M  V30 1985 C 189.482 -1.79969 -2.89523 0
M  V30 1986 H 190.675 -2.69172 -1.32237 0
M  V30 1987 H 188.228 -1.41899 -0.65532 0
M  V30 1988 H 188.963 -0.859241 -3.1271 0
M  V30 1989 H 188.748 -2.62109 -2.91619 0
M  V30 1990 H 190.238 -1.9843 -3.67444 0
M  V30 1991 N 190.675 0.682077 -1.42076 0
M  V30 1992 C 191.905 1.46844 -1.45329 0
M  V30 1993 C 192.313 1.89102 -0.0609328 0
M  V30 1994 O 191.656 1.58238 0.933082 0
M  V30 1995 C 191.718 2.75375 -2.31104 0
M  V30 1996 C 191.382 2.55238 -3.79081 0
M  V30 1997 C 192.379 2.20309 -4.70914 0
M  V30 1998 C 190.064 2.70459 -4.2327 0
M  V30 1999 C 192.058 2.00859 -6.04925 0
M  V30 2000 C 189.745 2.50624 -5.57343 0
M  V30 2001 C 190.743 2.15876 -6.47986 0
M  V30 2002 O 190.431 1.96227 -7.79583 0
M  V30 2003 H 190.163 0.4586 -0.496651 0
M  V30 2004 H 192.717 0.846131 -1.87162 0
M  V30 2005 H 190.947 3.40061 -1.84107 0
M  V30 2006 H 192.636 3.37231 -2.25898 0
M  V30 2007 H 193.402 2.08153 -4.38061 0
M  V30 2008 H 189.281 2.96485 -3.53012 0
M  V30 2009 H 192.825 1.7366 -6.75639 0
M  V30 2010 H 188.722 2.62375 -5.89771 0
M  V30 2011 H 189.49 2.10883 -7.90867 0
M  V30 2012 N 192.153 1.28127 0.917671 0
M  V30 2013 C 193.063 1.13556 2.05286 0
M  V30 2014 C 194.079 0.0630914 1.73886 0
M  V30 2015 O 195.255 0.271598 1.9956 0
M  V30 2016 C 192.32 0.794676 3.3747 0
M  V30 2017 C 191.381 1.94909 3.82504 0
M  V30 2018 C 190.614 1.62437 5.0838 0
M  V30 2019 O 190.837 0.536905 5.67867 0
M  V30 2020 O 189.771 2.46677 5.4903 0
M  V30 2021 H 193.597 2.08844 2.20495 0
M  V30 2022 H 191.182 1.07409 1.03845 0
M  V30 2023 H 193.064 0.618344 4.16839 0
M  V30 2024 H 191.739 -0.128581 3.23445 0
M  V30 2025 H 190.646 2.18055 3.03978 0
M  V30 2026 H 191.979 2.85291 4.01086 0
M  V30 2027 N 193.631 -1.12557 1.10312 0
M  V30 2028 C 194.861 -1.87592 0.865617 0
M  V30 2029 C 195.269 -1.79851 -0.587389 0
M  V30 2030 O 194.612 -1.16949 -1.41664 0
M  V30 2031 C 194.674 -3.37665 1.23381 0
M  V30 2032 C 194.338 -3.69181 2.69359 0
M  V30 2033 C 195.335 -3.67652 3.67597 0
M  V30 2034 C 193.02 -3.98555 3.05711 0
M  V30 2035 C 195.014 -3.95053 5.00212 0
M  V30 2036 C 192.701 -4.25616 4.38514 0
M  V30 2037 C 193.699 -4.23851 5.35574 0
M  V30 2038 O 193.387 -4.50242 6.65986 0
M  V30 2039 H 193.119 -0.600442 0.310557 0
M  V30 2040 H 195.673 -1.4335 1.47105 0
M  V30 2041 H 193.903 -3.82454 0.571467 0
M  V30 2042 H 195.592 -3.94041 0.973994 0
M  V30 2043 H 196.358 -3.45024 3.40857 0
M  V30 2044 H 192.237 -3.99071 2.30789 0
M  V30 2045 H 195.781 -3.93591 5.75962 0
M  V30 2046 H 191.678 -4.47718 4.64994 0
M  V30 2047 H 192.446 -4.67867 6.71597 0
M  V30 2048 N 195.109 -0.891671 -1.2995 0
M  V30 2049 C 196.039 -0.379797 -2.30391 0
M  V30 2050 C 197.02 0.540919 -1.6127 0
M  V30 2051 O 198.205 0.453352 -1.88834 0
M  V30 2052 C 195.335 0.400654 -3.44981 0
M  V30 2053 C 194.289 -0.428905 -4.25846 0
M  V30 2054 C 193.615 0.478557 -5.32554 0
M  V30 2055 C 194.915 -1.67458 -4.94727 0
M  V30 2056 H 196.609 -1.21914 -2.73454 0
M  V30 2057 H 194.155 -0.587675 -1.31462 0
M  V30 2058 H 196.108 0.769434 -4.14316 0
M  V30 2059 H 194.832 1.27371 -3.0074 0
M  V30 2060 H 193.491 -0.779911 -3.58208 0
M  V30 2061 H 193.139 1.34951 -4.84559 0
M  V30 2062 H 192.839 -0.0727433 -5.87555 0
M  V30 2063 H 194.363 0.843705 -6.04743 0
M  V30 2064 H 195.777 -1.376 -5.56542 0
M  V30 2065 H 194.174 -2.16659 -5.59624 0
M  V30 2066 H 195.244 -2.41518 -4.20473 0
M  V30 2067 N 196.587 1.43421 -0.653314 0
M  V30 2068 C 197.497 2.34568 0.0388565 0
M  V30 2069 C 198.513 1.53888 0.81207 0
M  V30 2070 O 199.689 1.86539 0.759294 0
M  V30 2071 C 196.754 3.32167 0.993269 0
M  V30 2072 C 195.815 4.28751 0.216977 0
M  V30 2073 C 195.048 5.21688 1.12593 0
M  V30 2074 O 195.271 5.19052 2.36519 0
M  V30 2075 O 194.205 5.98919 0.598284 0
M  V30 2076 H 198.031 2.95251 -0.711386 0
M  V30 2077 H 195.616 1.43564 -0.413502 0
M  V30 2078 H 197.498 3.92183 1.54176 0
M  V30 2079 H 196.173 2.73987 1.72374 0
M  V30 2080 H 195.08 3.72215 -0.375101 0
M  V30 2081 H 196.413 4.89913 -0.473924 0
M  V30 2082 N 198.065 0.39524 1.52563 0
M  V30 2083 C 198.995 -0.428384 2.29537 0
M  V30 2084 C 199.976 -1.05831 1.33169 0
M  V30 2085 O 201.161 -1.06995 1.62067 0
M  V30 2086 C 198.291 -1.55274 3.10656 0
M  V30 2087 C 197.245 -1.04855 4.14957 0
M  V30 2088 C 196.571 -2.26543 4.84337 0
M  V30 2089 C 197.871 -0.112324 5.22179 0
M  V30 2090 H 199.565 0.213867 2.98635 0
M  V30 2091 H 197.111 0.104298 1.43622 0
M  V30 2092 H 199.064 -2.1358 3.63265 0
M  V30 2093 H 197.788 -2.22266 2.39302 0
M  V30 2094 H 196.447 -0.487985 3.63338 0
M  V30 2095 H 196.095 -2.92059 4.09525 0
M  V30 2096 H 195.795 -1.93466 5.54837 0
M  V30 2097 H 197.319 -2.85481 5.39753 0
M  V30 2098 H 198.733 -0.603752 5.70112 0
M  V30 2099 H 197.13 0.128968 5.99961 0
M  V30 2100 H 198.2 0.837052 4.77621 0
M  V30 2101 N 199.544 -1.57102 0.125237 0
M  V30 2102 C 200.96 -1.57915 -0.231322 0
M  V30 2103 C 201.16 -1.13833 -1.66266 0
M  V30 2104 O 200.216 -0.828581 -2.38518 0
M  V30 2105 C 201.529 -3.00699 0.00766489 0
M  V30 2106 C 203.077 -3.12947 -0.0577483 0
M  V30 2107 C 203.552 -4.57742 0.153626 0
M  V30 2108 N 205.043 -4.63092 0.0998073 0
M  V30 2109 C 205.778 -5.72905 0.238174 0
M  V30 2110 N 205.274 -6.91445 0.433057 0
M  V30 2111 N 207.067 -5.6182 0.177308 0
M  V30 2112 H 199.218 -1.84055 1.06007 0
M  V30 2113 H 201.481 -0.850905 0.417929 0
M  V30 2114 H 201.187 -3.3726 0.997431 0
M  V30 2115 H 201.061 -3.70236 -0.721452 0
M  V30 2116 H 203.448 -2.7624 -1.03804 0
M  V30 2117 H 203.529 -2.4594 0.70335 0
M  V30 2118 H 203.173 -4.95149 1.13092 0
M  V30 2119 H 203.103 -5.22848 -0.627534 0
M  V30 2120 H 205.594 -3.77871 -0.047051 0
M  V30 2121 H 205.907 -7.70985 0.529332 0
M  V30 2122 H 204.252 -6.93415 0.469109 0
M  V30 2123 H 207.443 -4.68093 0.0259748 0
M  V30 2124 H 207.616 -6.47357 0.288582 0
M  V30 2125 N 201.022 0.148545 -1.56898 0
M  V30 2126 C 202.269 0.861418 -1.83264 0
M  V30 2127 C 202.597 1.81239 -0.705883 0
M  V30 2128 O 201.852 1.93305 0.305212 0
M  V30 2129 C 202.151 1.67064 -3.1595 0
M  V30 2130 C 201.817 0.866591 -4.42494 0
M  V30 2131 C 200.479 0.644762 -4.76861 0
M  V30 2132 C 202.831 0.30418 -5.20312 0
M  V30 2133 C 200.159 -0.15021 -5.86508 0
M  V30 2134 C 202.511 -0.477824 -6.30793 0
M  V30 2135 C 201.175 -0.710244 -6.63711 0
M  V30 2136 H 200.445 0.315215 -0.670612 0
M  V30 2137 H 203.092 0.125142 -1.91091 0
M  V30 2138 H 201.397 2.47698 -3.03567 0
M  V30 2139 H 203.094 2.22566 -3.33565 0
M  V30 2140 H 199.684 1.04955 -4.15551 0
M  V30 2141 H 203.868 0.462844 -4.94137 0
M  V30 2142 H 199.124 -0.339796 -6.10455 0
M  V30 2143 H 203.298 -0.92076 -6.90286 0
M  V30 2144 H 200.925 -1.3281 -7.48509 0
M  V30 2145 N 202.5 1.5196 0.417844 0
M  V30 2146 C 203.448 1.75278 1.52907 0
M  V30 2147 C 204.442 0.619611 1.57662 0
M  V30 2148 O 205.648 0.801457 1.61173 0
M  V30 2149 H 202.023 0.554141 0.508362 0
M  V30 2150 H 203.994 2.68389 1.30422 0
M  V30 2151 C 202.743 1.91262 2.90369 0
M  V30 2152 H 202.066 2.77872 2.8745 0
M  V30 2153 H 203.506 2.11581 3.67436 0
M  V30 2154 C 201.965 0.677431 3.30019 0
M  V30 2155 O 202.495 -0.158799 4.01386 0
M  V30 2156 N 200.701 0.515851 2.85985 0
M  V30 2157 H 200.248 1.19744 2.28077 0
M  V30 2158 H 200.206 -0.309315 3.12875 0
M  V30 2159 N 203.978 -0.674533 1.42435 0
M  V30 2160 C 204.925 -1.78807 1.45934 0
M  V30 2161 C 205.895 -1.63157 0.311271 0
M  V30 2162 O 207.08 -1.83707 0.515383 0
M  V30 2163 C 204.22 -3.16839 1.36773 0
M  V30 2164 C 203.333 -3.43774 2.61617 0
M  V30 2165 C 202.468 -4.71536 2.44597 0
M  V30 2166 C 201.507 -4.91505 3.64814 0
M  V30 2167 N 200.644 -6.10508 3.46734 0
M  V30 2168 H 205.484 -1.75151 2.41093 0
M  V30 2169 H 203.021 -0.85504 1.19697 0
M  V30 2170 H 204.979 -3.96606 1.29459 0
M  V30 2171 H 203.609 -3.19619 0.452089 0
M  V30 2172 H 202.661 -2.58259 2.79297 0
M  V30 2173 H 203.973 -3.54423 3.50978 0
M  V30 2174 H 203.127 -5.59393 2.3487 0
M  V30 2175 H 201.866 -4.6317 1.52726 0
M  V30 2176 H 200.871 -4.0209 3.74972 0
M  V30 2177 H 202.096 -5.01716 4.57665 0
M  V30 2178 H 200.042 -6.03315 2.5758 0
M  V30 2179 H 199.959 -6.2202 4.29682 0
M  V30 2180 H 201.227 -7.01044 3.40819 0
M  V30 2181 N 205.456 -1.28612 -0.910864 0
M  V30 2182 C 206.684 -1.18792 -1.69399 0
M  V30 2183 C 207.099 0.253039 -1.87097 0
M  V30 2184 O 206.456 1.17071 -1.40003 0
M  V30 2185 C 206.507 -1.88511 -3.08457 0
M  V30 2186 O 206.228 -3.26979 -2.91576 0
M  V30 2187 C 207.729 -1.85029 -4.02839 0
M  V30 2188 H 204.949 -0.412233 -0.529438 0
M  V30 2189 H 207.493 -1.69788 -1.13984 0
M  V30 2190 H 205.648 -1.41379 -3.60681 0
M  V30 2191 H 206.062 -3.61936 -3.79608 0
M  V30 2192 H 207.536 -2.38395 -4.97867 0
M  V30 2193 H 208.013 -0.823303 -4.31414 0
M  V30 2194 H 208.619 -2.31853 -3.56545 0
M  V30 2195 N 206.934 1.1197 -1.10907 0
M  V30 2196 C 208.18 1.8386 -0.855773 0
M  V30 2197 C 208.513 1.84134 0.617103 0
M  V30 2198 O 207.788 1.29041 1.45529 0
M  V30 2199 C 208.071 3.31305 -1.411 0
M  V30 2200 C 207.924 3.39456 -2.9511 0
M  V30 2201 C 209.243 4.2721 -1.05736 0
M  V30 2202 H 206.362 0.667545 -0.312334 0
M  V30 2203 H 209.004 1.31331 -1.37303 0
M  V30 2204 H 207.154 3.76169 -0.97105 0
M  V30 2205 H 208.826 3.03191 -3.47668 0
M  V30 2206 H 207.069 2.79849 -3.31462 0
M  V30 2207 H 207.74 4.43209 -3.29044 0
M  V30 2208 H 210.216 3.90497 -1.43706 0
M  V30 2209 H 209.092 5.28775 -1.47269 0
M  V30 2210 H 209.353 4.42088 0.0325958 0
M  V30 2211 N 208.412 0.89855 1.29475 0
M  V30 2212 C 209.828 0.594483 1.48115 0
M  V30 2213 C 210.028 -0.86431 1.82022 0
M  V30 2214 O 209.084 -1.64457 1.91599 0
M  V30 2215 C 210.397 1.51932 2.59494 0
M  V30 2216 C 211.945 1.5244 2.7337 0
M  V30 2217 C 212.42 2.43548 3.87877 0
M  V30 2218 N 213.911 2.41589 3.95208 0
M  V30 2219 C 214.646 3.08789 4.83153 0
M  V30 2220 N 214.142 3.85265 5.75798 0
M  V30 2221 N 215.935 2.97952 4.76635 0
M  V30 2222 H 208.086 1.84207 1.05742 0
M  V30 2223 H 210.349 0.789251 0.525154 0
M  V30 2224 H 210.055 2.55865 2.41301 0
M  V30 2225 H 209.929 1.23899 3.56271 0
M  V30 2226 H 212.316 0.492518 2.90961 0
M  V30 2227 H 212.397 1.8451 1.77172 0
M  V30 2228 H 212.041 3.46829 3.71041 0
M  V30 2229 H 211.971 2.08788 4.83441 0
M  V30 2230 H 214.462 1.86025 3.28943 0
M  V30 2231 H 214.775 4.33598 6.39697 0
M  V30 2232 H 213.12 3.89371 5.75687 0
M  V30 2233 H 216.311 2.37723 4.03244 0
M  V30 2234 H 216.484 3.50599 5.44962 0
M  V30 2235 N 209.89 -1.43072 0.660911 0
M  V30 2236 C 211.136 -2.0202 0.177708 0
M  V30 2237 C 211.469 -1.52066 -1.20787 0
M  V30 2238 O 210.744 -0.716987 -1.80802 0
M  V30 2239 C 211.027 -3.59561 0.197019 0
M  V30 2240 C 210.88 -4.19727 1.61706 0
M  V30 2241 C 212.199 -4.37664 -0.462396 0
M  V30 2242 H 209.318 -0.734034 0.0660494 0
M  V30 2243 H 211.96 -1.70272 0.843058 0
M  V30 2244 H 210.11 -3.86739 -0.369527 0
M  V30 2245 H 211.782 -4.03553 2.23479 0
M  V30 2246 H 210.025 -3.76084 2.16201 0
M  V30 2247 H 210.696 -5.28834 1.58237 0
M  V30 2248 H 213.172 -4.16095 0.0197215 0
M  V30 2249 H 212.048 -5.47305 -0.418188 0
M  V30 2250 H 212.309 -4.14493 -1.53778 0
M  V30 2251 N 211.368 -0.403325 -1.52352 0
M  V30 2252 C 212.608 0.173946 -2.03659 0
M  V30 2253 C 212.972 1.42869 -1.28267 0
M  V30 2254 O 214.173 2.08403 -1.69769 0
M  V30 2255 C 212.444 0.421478 -3.54906 0
M  V30 2256 S 214.003 0.967027 -4.28012 0
M  V30 2257 H 210.821 0.0477461 -0.709395 0
M  V30 2258 H 213.423 -0.554906 -1.87459 0
M  V30 2259 H 212.127 -0.498616 -4.0736 0
M  V30 2260 H 211.658 1.17837 -3.75337 0
M  V30 2261 H 213.673 2.24812 -4.4235 0
M  V30 2262 N 212.846 1.57033 -0.133567 0
M  V30 2263 C 214.094 1.953 0.519848 0
M  V30 2264 C 214.415 1.01866 1.66278 0
M  V30 2265 O 213.685 0.0776513 1.95746 0
M  V30 2266 H 212.265 0.721091 0.195032 0
M  V30 2267 H 214.927 1.93809 -0.205921 0
M  V30 2268 H 214.023 2.98695 0.904854 0
M  V30 2269 N 214.325 -0.140222 1.56975 0
M  V30 2270 C 215.553 -0.866437 1.87884 0
M  V30 2271 C 215.968 -1.74428 0.722517 0
M  V30 2272 O 215.325 -1.79891 -0.30749 0
M  V30 2273 C 215.376 -1.71753 3.18093 0
M  V30 2274 O 215.097 -0.875056 4.29272 0
M  V30 2275 C 216.598 -2.55074 3.62563 0
M  V30 2276 H 213.818 -0.25019 0.622612 0
M  V30 2277 H 216.362 -0.130977 2.0408 0
M  V30 2278 H 214.517 -2.40598 3.03631 0
M  V30 2279 H 214.931 -1.46002 5.03769 0
M  V30 2280 H 216.405 -3.10356 4.5649 0
M  V30 2281 H 216.882 -3.31434 2.88181 0
M  V30 2282 H 217.488 -1.91509 3.79743 0
M  V30 2283 N 215.803 -1.52179 -0.40978 0
M  V30 2284 C 217.049 -1.66453 -1.15851 0
M  V30 2285 C 217.382 -0.392972 -1.90182 0
M  V30 2286 O 216.657 0.608579 -1.84734 0
M  V30 2287 C 216.94 -2.88612 -2.15349 0
M  V30 2288 C 216.793 -4.25815 -1.44918 0
M  V30 2289 C 218.112 -3.06294 -3.16026 0
M  V30 2290 H 215.231 -0.60575 -0.419805 0
M  V30 2291 H 217.873 -1.84732 -0.444314 0
M  V30 2292 H 216.023 -2.73158 -2.76255 0
M  V30 2293 H 217.695 -4.52995 -0.871365 0
M  V30 2294 H 215.938 -4.27247 -0.751159 0
M  V30 2295 H 216.609 -5.07337 -2.17516 0
M  V30 2296 H 219.085 -3.20641 -2.65195 0
M  V30 2297 H 217.961 -3.93283 -3.8291 0
M  V30 2298 H 218.222 -2.19579 -3.83715 0
M  V30 2299 N 217.281 0.66697 -1.42791 0
M  V30 2300 C 218.509 1.45505 -1.47091 0
M  V30 2301 C 218.924 1.8861 -0.0845873 0
M  V30 2302 O 218.281 1.58632 0.90234 0
M  V30 2303 C 218.332 2.69906 -2.40485 0
M  V30 2304 O 218.053 2.28608 -3.73725 0
M  V30 2305 C 219.554 3.63396 -2.53886 0
M  V30 2306 H 216.774 0.447459 -0.500022 0
M  V30 2307 H 219.318 0.818866 -1.8739 0
M  V30 2308 H 217.473 3.29696 -2.03419 0
M  V30 2309 H 217.887 3.08997 -4.23817 0
M  V30 2310 H 219.361 4.47387 -3.2334 0
M  V30 2311 H 219.838 4.09824 -1.57927 0
M  V30 2312 H 220.444 3.09495 -2.91706 0
M  V30 2313 N 218.759 1.29093 0.90403 0
M  V30 2314 C 220.006 1.16813 1.65411 0
M  V30 2315 C 220.334 -0.28128 1.92455 0
M  V30 2316 O 219.589 -1.22006 1.53013 0
M  V30 2317 C 219.888 1.92224 3.01305 0
M  V30 2318 C 219.554 3.41968 2.93885 0
M  V30 2319 C 218.216 3.82807 2.91569 0
M  V30 2320 C 220.568 4.37409 2.83413 0
M  V30 2321 C 217.896 5.1741 2.76594 0
M  V30 2322 C 220.248 5.72097 2.69977 0
M  V30 2323 C 218.912 6.12199 2.66024 0
M  V30 2324 H 218.182 0.42745 0.605283 0
M  V30 2325 H 220.829 1.59981 1.05254 0
M  V30 2326 H 219.134 1.41635 3.65304 0
M  V30 2327 H 220.831 1.80131 3.58265 0
M  V30 2328 H 217.421 3.09504 2.96488 0
M  V30 2329 H 221.605 4.06813 2.84283 0
M  V30 2330 H 216.861 5.47596 2.71935 0
M  V30 2331 H 221.035 6.45704 2.60844 0
M  V30 2332 H 218.662 7.16448 2.54178 0
M  V30 2333 N 220.237 -1.11381 1.11499 0
M  V30 2334 C 221.486 -1.82494 0.858993 0
M  V30 2335 C 221.799 -1.85605 -0.617278 0
M  V30 2336 O 223.005 -2.52824 -0.989552 0
M  V30 2337 C 221.461 -3.27745 1.48699 0
M  V30 2338 C 221.069 -3.32961 2.99735 0
M  V30 2339 C 222.813 -4.03754 1.31085 0
M  V30 2340 C 220.72 -4.72612 3.55516 0
M  V30 2341 H 219.65 -0.683802 0.317696 0
M  V30 2342 H 222.301 -1.25331 1.34031 0
M  V30 2343 H 220.683 -3.84844 0.933339 0
M  V30 2344 H 221.857 -2.85741 3.61509 0
M  V30 2345 H 220.172 -2.70433 3.16631 0
M  V30 2346 H 222.769 -5.06891 1.70192 0
M  V30 2347 H 223.112 -4.15527 0.253496 0
M  V30 2348 H 223.645 -3.53043 1.83318 0
M  V30 2349 H 220.384 -4.66036 4.60967 0
M  V30 2350 H 219.904 -5.2024 2.98513 0
M  V30 2351 H 221.583 -5.4157 3.53992 0
M  V30 2352 N 221.715 -0.905404 -1.28997 0
M  V30 2353 C 222.962 -0.534248 -1.95325 0
M  V30 2354 C 223.29 0.920535 -1.71337 0
M  V30 2355 O 222.545 1.66861 -1.02254 0
M  V30 2356 C 222.844 -0.779906 -3.48787 0
M  V30 2357 C 222.51 -2.21293 -3.92861 0
M  V30 2358 C 221.172 -2.60475 -4.04606 0
M  V30 2359 C 223.524 -3.14587 -4.15553 0
M  V30 2360 C 220.852 -3.9212 -4.36416 0
M  V30 2361 C 223.204 -4.45787 -4.48839 0
M  V30 2362 C 221.868 -4.84834 -4.58794 0
M  V30 2363 H 221.138 -0.195495 -0.714747 0
M  V30 2364 H 223.785 -1.14514 -1.53488 0
M  V30 2365 H 222.09 -0.0861365 -3.91705 0
M  V30 2366 H 223.787 -0.472029 -3.98212 0
M  V30 2367 H 220.377 -1.89887 -3.84241 0
M  V30 2368 H 224.561 -2.85528 -4.0594 0
M  V30 2369 H 219.817 -4.22086 -4.42327 0
M  V30 2370 H 223.991 -5.18098 -4.65346 0
M  V30 2371 H 221.618 -5.86877 -4.83197 0
M  V30 2372 N 223.193 1.4272 -0.668489 0
M  V30 2373 C 224.125 2.2914 0.052613 0
M  V30 2374 C 225.138 1.43339 0.771857 0
M  V30 2375 O 226.327 1.67123 0.627067 0
M  V30 2376 C 223.427 3.20618 1.09804 0
M  V30 2377 C 222.6 4.35039 0.45389 0
M  V30 2378 C 221.659 5.07282 1.39825 0
M  V30 2379 O 220.685 5.62024 0.900978 0
M  V30 2380 N 221.887 5.12206 2.73176 0
M  V30 2381 H 224.652 2.91668 -0.689209 0
M  V30 2382 H 222.213 1.53577 -0.512422 0
M  V30 2383 H 224.205 3.65815 1.73094 0
M  V30 2384 H 222.775 2.59585 1.74167 0
M  V30 2385 H 221.995 3.92567 -0.358396 0
M  V30 2386 H 223.283 5.088 0.00486972 0
M  V30 2387 H 222.681 4.6913 3.16122 0
M  V30 2388 H 221.238 5.61069 3.31729 0
M  V30 2389 N 224.671 0.411399 1.52136 0
M  V30 2390 C 225.604 -0.457614 2.23565 0
M  V30 2391 C 226.582 -1.04613 1.24478 0
M  V30 2392 O 227.766 -1.09356 1.53536 0
M  V30 2393 C 224.893 -1.6354 2.96602 0
M  V30 2394 C 223.939 -1.17005 4.10137 0
M  V30 2395 S 224.772 -0.13333 5.35334 0
M  V30 2396 C 225.928 -1.31638 6.119 0
M  V30 2397 H 226.161 0.148883 2.96927 0
M  V30 2398 H 223.694 0.195713 1.53155 0
M  V30 2399 H 225.652 -2.31074 3.39286 0
M  V30 2400 H 224.313 -2.21324 2.22878 0
M  V30 2401 H 223.506 -2.05005 4.60422 0
M  V30 2402 H 223.108 -0.573319 3.6958 0
M  V30 2403 H 225.4 -2.23957 6.39413 0
M  V30 2404 H 226.343 -0.854014 7.02931 0
M  V30 2405 H 226.751 -1.54321 5.42997 0
M  V30 2406 N 226.149 -1.5696 0.141893 0
M  V30 2407 C 227.395 -1.9625 -0.511248 0
M  V30 2408 C 227.728 -1.02654 -1.64851 0
M  V30 2409 O 227.003 -0.0679676 -1.94381 0
M  V30 2410 C 227.286 -3.45285 -1.02227 0
M  V30 2411 C 227.139 -4.49658 0.113138 0
M  V30 2412 C 228.458 -3.96698 -1.90574 0
M  V30 2413 H 225.577 -0.713567 -0.184367 0
M  V30 2414 H 228.219 -1.88698 0.222087 0
M  V30 2415 H 226.369 -3.51852 -1.64719 0
M  V30 2416 H 228.041 -4.55174 0.749302 0
M  V30 2417 H 226.284 -4.26857 0.773026 0
M  V30 2418 H 226.955 -5.51258 -0.286053 0
M  V30 2419 H 229.431 -3.92578 -1.37918 0
M  V30 2420 H 228.307 -5.01453 -2.2324 0
M  V30 2421 H 228.568 -3.3875 -2.84079 0
M  V30 2422 N 227.627 0.131896 -1.57047 0
M  V30 2423 C 228.876 0.84044 -1.83356 0
M  V30 2424 C 229.189 1.81646 -0.725535 0
M  V30 2425 O 230.395 2.57025 -0.874659 0
M  V30 2426 C 228.851 1.54528 -3.25037 0
M  V30 2427 C 228.459 0.610902 -4.43815 0
M  V30 2428 C 230.203 2.23972 -3.60606 0
M  V30 2429 C 228.11 1.31823 -5.76521 0
M  V30 2430 H 227.04 0.317599 -0.683847 0
M  V30 2431 H 229.691 0.0931561 -1.83263 0
M  V30 2432 H 228.073 2.33873 -3.19561 0
M  V30 2433 H 229.247 -0.148407 -4.60561 0
M  V30 2434 H 227.562 0.0241016 -4.16393 0
M  V30 2435 H 230.159 2.77558 -4.57018 0
M  V30 2436 H 230.502 3.01173 -2.87403 0
M  V30 2437 H 231.035 1.51529 -3.6781 0
M  V30 2438 H 227.774 0.587771 -6.52859 0
M  V30 2439 H 227.294 2.04987 -5.63685 0
M  V30 2440 H 228.973 1.855 -6.19838 0
M  V30 2441 N 229.106 1.52395 0.401703 0
M  V30 2442 C 230.336 1.70429 1.1678 0
M  V30 2443 C 230.744 0.416702 1.84554 0
M  V30 2444 O 230.087 -0.617697 1.73003 0
M  V30 2445 C 230.149 2.78919 2.26814 0
M  V30 2446 C 229.813 4.20437 1.79113 0
M  V30 2447 C 230.81 5.04028 1.27482 0
M  V30 2448 C 228.495 4.66704 1.85722 0
M  V30 2449 C 230.489 6.31961 0.830913 0
M  V30 2450 C 228.176 5.94625 1.40942 0
M  V30 2451 C 229.174 6.77082 0.897128 0
M  V30 2452 O 228.862 8.02607 0.455822 0
M  V30 2453 H 228.594 0.574272 0.356634 0
M  V30 2454 H 231.148 1.99767 0.477724 0
M  V30 2455 H 229.378 2.44973 2.99207 0
M  V30 2456 H 231.067 2.8548 2.88541 0
M  V30 2457 H 231.833 4.69471 1.21744 0
M  V30 2458 H 227.712 4.0262 2.24539 0
M  V30 2459 H 231.256 6.96271 0.430368 0
M  V30 2460 H 227.153 6.28688 1.46362 0
M  V30 2461 H 227.921 8.16453 0.578457 0
M  V30 2462 N 230.584 -0.659388 1.43143 0
M  V30 2463 C 231.517 -1.78425 1.42267 0
M  V30 2464 C 232.495 -1.60085 0.284894 0
M  V30 2465 O 233.679 -1.82351 0.477527 0
M  V30 2466 C 230.806 -3.15642 1.22833 0
M  V30 2467 C 229.852 -3.52698 2.39806 0
M  V30 2468 S 230.685 -3.53372 4.02353 0
M  V30 2469 C 231.841 -4.93256 3.85291 0
M  V30 2470 H 232.074 -1.78897 2.37452 0
M  V30 2471 H 229.607 -0.831469 1.301 0
M  V30 2472 H 231.565 -3.94838 1.12308 0
M  V30 2473 H 230.226 -3.12739 0.29207 0
M  V30 2474 H 229.419 -4.52475 2.21996 0
M  V30 2475 H 229.021 -2.80899 2.46925 0
M  V30 2476 H 231.313 -5.81751 3.47235 0
M  V30 2477 H 232.256 -5.16115 4.84799 0
M  V30 2478 H 232.664 -4.665 3.17865 0
M  V30 2479 N 232.062 -1.29571 -0.897171 0
M  V30 2480 C 233.31 -1.17456 -1.64464 0
M  V30 2481 C 233.631 0.273698 -1.9307 0
M  V30 2482 O 232.901 1.18684 -1.55855 0
M  V30 2483 H 231.481 -0.431706 -0.609622 0
M  V30 2484 H 234.143 -1.62531 -1.07562 0
M  V30 2485 H 233.239 -1.72648 -2.59998 0
M  V30 2486 N 233.54 1.10788 -1.12088 0
M  V30 2487 C 234.786 1.82942 -0.875226 0
M  V30 2488 C 235.119 1.84779 0.597538 0
M  V30 2489 O 234.394 1.30578 1.44152 0
M  V30 2490 C 234.677 3.29789 -1.44606 0
M  V30 2491 C 234.53 3.36307 -2.98693 0
M  V30 2492 C 235.849 4.26064 -1.10261 0
M  V30 2493 H 232.968 0.664195 -0.319397 0
M  V30 2494 H 235.61 1.29867 -1.38689 0
M  V30 2495 H 233.76 3.75118 -1.01089 0
M  V30 2496 H 235.432 2.99487 -3.50864 0
M  V30 2497 H 233.675 2.76318 -3.34411 0
M  V30 2498 H 234.346 4.39694 -3.33726 0
M  V30 2499 H 236.822 3.88951 -1.4784 0
M  V30 2500 H 235.698 5.27183 -1.52869 0
M  V30 2501 H 235.959 4.42098 -0.0142953 0
M  V30 2502 N 235.018 0.912232 1.28515 0
M  V30 2503 C 236.264 0.545405 1.95328 0
M  V30 2504 C 236.597 -0.908313 1.71649 0
M  V30 2505 O 235.872 -1.64575 1.03659 0
M  V30 2506 C 236.155 0.853483 3.4984 0
M  V30 2507 C 236.008 2.35982 3.82926 0
M  V30 2508 C 237.327 0.348589 4.38717 0
M  V30 2509 H 234.446 0.199626 0.709449 0
M  V30 2510 H 237.088 1.1412 1.5191 0
M  V30 2511 H 235.238 0.34643 3.86952 0
M  V30 2512 H 236.91 2.93738 3.55691 0
M  V30 2513 H 235.153 2.81543 3.30024 0
M  V30 2514 H 235.824 2.52593 4.90816 0
M  V30 2515 H 238.3 0.78294 4.08668 0
M  V30 2516 H 237.176 0.593242 5.45685 0
M  V30 2517 H 237.437 -0.751049 4.35674 0
M  V30 2518 N 236.496 -1.42363 0.676048 0
M  V30 2519 C 237.426 -2.33497 0.0124832 0
M  V30 2520 C 238.407 -1.50748 -0.787981 0
M  V30 2521 O 239.592 -1.79346 -0.744884 0
M  V30 2522 C 236.722 -3.34377 -0.938582 0
M  V30 2523 C 235.676 -4.27289 -0.246622 0
M  V30 2524 C 235.002 -5.18386 -1.31071 0
M  V30 2525 C 236.302 -5.14916 0.875125 0
M  V30 2526 H 237.996 -2.89233 0.773593 0
M  V30 2527 H 235.542 -1.39073 0.37346 0
M  V30 2528 H 237.495 -3.97044 -1.41188 0
M  V30 2529 H 236.219 -2.76947 -1.73113 0
M  V30 2530 H 234.878 -3.66018 0.206456 0
M  V30 2531 H 234.526 -4.57282 -2.09528 0
M  V30 2532 H 234.226 -5.81378 -0.852839 0
M  V30 2533 H 235.75 -5.83929 -1.78492 0
M  V30 2534 H 237.164 -5.71262 0.482983 0
M  V30 2535 H 235.561 -5.86747 1.25887 0
M  V30 2536 H 236.631 -4.53242 1.72335 0
M  V30 2537 N 237.974 -0.419461 -1.51915 0
M  V30 2538 C 239.204 0.151915 -2.06041 0
M  V30 2539 C 239.612 1.38539 -1.28855 0
M  V30 2540 O 238.955 1.80592 -0.336463 0
M  V30 2541 C 239.017 0.557119 -3.55157 0
M  V30 2542 C 238.681 -0.567054 -4.53468 0
M  V30 2543 C 239.678 -1.43379 -4.99738 0
M  V30 2544 C 237.363 -0.742693 -4.96779 0
M  V30 2545 C 239.357 -2.46102 -5.87973 0
M  V30 2546 C 237.044 -1.77322 -5.84808 0
M  V30 2547 C 238.042 -2.63078 -6.30301 0
M  V30 2548 O 237.73 -3.64364 -7.16585 0
M  V30 2549 H 237.462 0.0193293 -0.675724 0
M  V30 2550 H 240.016 -0.592073 -1.96682 0
M  V30 2551 H 238.246 1.35355 -3.62238 0
M  V30 2552 H 239.935 1.05759 -3.9188 0
M  V30 2553 H 240.701 -1.30954 -4.66986 0
M  V30 2554 H 236.58 -0.0848307 -4.60922 0
M  V30 2555 H 240.124 -3.13071 -6.23404 0
M  V30 2556 H 236.021 -1.89773 -6.16974 0
M  V30 2557 H 236.789 -3.60731 -7.34721 0
M  V30 2558 N 239.452 1.56882 -0.150215 0
M  V30 2559 C 240.415 2.1573 0.774157 0
M  V30 2560 C 241.415 1.0999 1.17298 0
M  V30 2561 O 242.605 1.35613 1.09338 0
M  V30 2562 C 239.737 2.72302 2.05096 0
M  V30 2563 H 240.93 2.98752 0.262201 0
M  V30 2564 H 238.483 1.55985 0.099248 0
M  V30 2565 H 239.218 1.92956 2.6065 0
M  V30 2566 H 239.003 3.49665 1.77416 0
M  V30 2567 H 240.493 3.17632 2.71109 0
M  V30 2568 N 240.93 -0.123565 1.57115 0
M  V30 2569 C 242.341 -0.681198 1.73829 0
M  V30 2570 C 242.692 -1.80535 0.768214 0
M  V30 2571 O 241.817 -2.16317 -0.0599103 0
M  V30 2572 C 242.412 -1.24246 3.15196 0
M  V30 2573 C 240.971 -1.74643 3.33432 0
M  V30 2574 C 240.118 -0.644284 2.69711 0
M  V30 2575 H 243.069 0.102315 1.5837 0
M  V30 2576 H 243.09 -2.11216 3.16493 0
M  V30 2577 H 242.602 -0.424062 3.85776 0
M  V30 2578 H 240.703 -2.58974 2.67886 0
M  V30 2579 H 240.816 -1.85902 4.41562 0
M  V30 2580 H 239.18 -1.07676 2.3082 0
M  V30 2581 H 239.963 0.163058 3.42913 0
M  V30 2582 N 242.408 -1.52605 -0.393616 0
M  V30 2583 C 243.633 -1.71592 -1.16495 0
M  V30 2584 C 244.058 -0.43133 -1.83088 0
M  V30 2585 O 243.416 0.612523 -1.7064 0
M  V30 2586 C 243.464 -2.86318 -2.19213 0
M  V30 2587 O 242.568 -2.52969 -3.257 0
M  V30 2588 H 241.909 -0.570734 -0.33935 0
M  V30 2589 H 244.439 -1.99377 -0.459324 0
M  V30 2590 H 244.449 -3.1168 -2.63286 0
M  V30 2591 H 243.124 -3.79511 -1.7013 0
M  V30 2592 H 241.701 -2.38332 -2.86797 0
M  V30 2593 N 243.887 0.651787 -1.4349 0
M  V30 2594 C 244.817 1.77621 -1.51569 0
M  V30 2595 C 245.798 1.66022 -0.370253 0
M  V30 2596 O 246.983 1.85095 -0.587658 0
M  V30 2597 C 244.113 3.16056 -1.43966 0
M  V30 2598 C 243.067 3.4242 -2.56774 0
M  V30 2599 C 242.393 4.8067 -2.34223 0
M  V30 2600 C 243.693 3.37023 -3.99015 0
M  V30 2601 H 245.387 1.71117 -2.45681 0
M  V30 2602 H 242.933 0.821825 -1.18246 0
M  V30 2603 H 244.886 3.94472 -1.48221 0
M  V30 2604 H 243.61 3.23293 -0.463586 0
M  V30 2605 H 242.269 2.66375 -2.51873 0
M  V30 2606 H 241.917 4.84585 -1.34856 0
M  V30 2607 H 241.617 4.9927 -3.09844 0
M  V30 2608 H 243.141 5.61342 -2.40265 0
M  V30 2609 H 244.555 4.05374 -4.05395 0
M  V30 2610 H 242.952 3.67159 -4.74673 0
M  V30 2611 H 244.022 2.3518 -4.2405 0
M  V30 2612 N 245.365 1.30045 0.890287 0
M  V30 2613 C 246.328 1.15963 1.977 0
M  V30 2614 C 247.328 0.0923777 1.60534 0
M  V30 2615 O 248.518 0.340071 1.70848 0
M  V30 2616 C 245.65 0.775451 3.31963 0
M  V30 2617 H 246.843 2.12502 2.11619 0
M  V30 2618 H 244.396 1.13366 1.07601 0
M  V30 2619 H 245.131 -0.189671 3.23745 0
M  V30 2620 H 244.916 1.54668 3.60306 0
M  V30 2621 H 246.406 0.700251 4.11687 0
M  V30 2622 N 246.843 -1.10192 1.12674 0
M  V30 2623 C 247.773 -2.18652 0.819362 0
M  V30 2624 C 248.754 -1.68698 -0.217915 0
M  V30 2625 O 249.939 -1.94041 -0.0785581 0
M  V30 2626 C 247.069 -3.46202 0.27594 0
M  V30 2627 C 246.023 -4.09444 1.24656 0
M  V30 2628 C 245.349 -5.31725 0.563258 0
M  V30 2629 C 246.649 -4.52863 2.60217 0
M  V30 2630 H 248.343 -2.44622 1.72628 0
M  V30 2631 H 245.889 -1.17571 0.831451 0
M  V30 2632 H 247.842 -4.21372 0.0486149 0
M  V30 2633 H 246.566 -3.1973 -0.666331 0
M  V30 2634 H 245.225 -3.36284 1.45974 0
M  V30 2635 H 244.873 -5.0153 -0.384235 0
M  V30 2636 H 244.573 -5.74991 1.21075 0
M  V30 2637 H 246.097 -6.09624 0.34503 0
M  V30 2638 H 247.511 -5.19294 2.42913 0
M  V30 2639 H 245.908 -5.06986 3.21068 0
M  V30 2640 H 246.978 -3.65656 3.18471 0
M  V30 2641 N 248.321 -0.919034 -1.28029 0
M  V30 2642 C 249.269 -0.401753 -2.29104 0
M  V30 2643 C 250.263 0.509354 -1.61561 0
M  V30 2644 O 251.469 0.390014 -1.75724 0
M  V30 2645 H 247.844 -0.111331 -0.743713 0
M  V30 2646 H 249.815 -1.2672 -2.70156 0
M  V30 2647 C 248.564 0.338148 -3.46052 0
M  V30 2648 H 247.887 -0.353732 -3.98232 0
M  V30 2649 H 249.327 0.664653 -4.18758 0
M  V30 2650 C 247.786 1.54798 -2.99231 0
M  V30 2651 O 248.316 2.64696 -3.02157 0
M  V30 2652 N 246.522 1.3968 -2.54829 0
M  V30 2653 H 246.069 0.502698 -2.52647 0
M  V30 2654 H 246.027 2.20755 -2.23863 0
M  V30 2655 N 249.799 1.42003 -0.683588 0
M  V30 2656 C 250.762 2.29191 -0.0198243 0
M  V30 2657 C 251.762 1.43773 0.72013 0
M  V30 2658 O 252.952 1.65061 0.556815 0
M  V30 2659 C 250.084 3.26435 0.982487 0
M  V30 2660 H 251.277 2.8938 -0.787345 0
M  V30 2661 H 248.83 1.49789 -0.446418 0
M  V30 2662 H 249.565 2.71203 1.77819 0
M  V30 2663 H 249.35 3.89449 0.455182 0
M  V30 2664 H 250.84 3.918 1.44508 0
M  V30 2665 N 251.277 0.427512 1.51691 0
M  V30 2666 C 252.523 -0.142439 2.02299 0
M  V30 2667 C 252.856 -1.43214 1.31162 0
M  V30 2668 O 252.131 -1.89833 0.423511 0
M  V30 2669 C 252.414 -0.371301 3.58181 0
M  V30 2670 C 252.267 0.936358 4.39946 0
M  V30 2671 C 253.586 -1.14542 4.24933 0
M  V30 2672 H 250.705 -0.0502937 0.735282 0
M  V30 2673 H 253.347 0.564584 1.81418 0
M  V30 2674 H 251.497 -0.973559 3.76104 0
M  V30 2675 H 253.169 1.57184 4.33694 0
M  V30 2676 H 251.412 1.5432 4.05423 0
M  V30 2677 H 252.083 0.730388 5.47147 0
M  V30 2678 H 254.559 -0.635362 4.11221 0
M  V30 2679 H 253.435 -1.27431 5.33903 0
M  V30 2680 H 253.696 -2.17093 3.85127 0
M  V30 2681 N 252.755 -1.56801 0.158532 0
M  V30 2682 C 253.983 -2.00859 -0.496303 0
M  V30 2683 C 254.398 -1.03871 -1.57659 0
M  V30 2684 O 253.755 -0.0375165 -1.82461 0
M  V30 2685 C 253.806 -3.4479 -1.08638 0
M  V30 2686 O 253.527 -4.38072 -0.0492322 0
M  V30 2687 C 255.028 -4.04185 -1.8207 0
M  V30 2688 H 252.248 -0.65864 -0.128199 0
M  V30 2689 H 254.792 -2.02885 0.256506 0
M  V30 2690 H 252.947 -3.43579 -1.78975 0
M  V30 2691 H 253.361 -5.2227 -0.483102 0
M  V30 2692 H 254.835 -5.06857 -2.18633 0
M  V30 2693 H 255.312 -3.45549 -2.71095 0
M  V30 2694 H 255.918 -4.0906 -1.16405 0
M  V30 2695 N 254.233 0.115231 -1.57178 0
M  V30 2696 C 255.481 0.820727 -1.84685 0
M  V30 2697 C 255.802 1.80237 -0.744279 0
M  V30 2698 O 255.072 1.94529 0.231375 0
M  V30 2699 H 253.652 0.306084 -0.681411 0
M  V30 2700 H 256.314 0.101656 -1.94635 0
M  V30 2701 H 255.41 1.36366 -2.80733 0
M  V30 2702 N 255.711 1.52812 0.385517 0
M  V30 2703 C 256.958 1.68026 1.1302 0
M  V30 2704 C 257.286 0.421934 1.89868 0
M  V30 2705 O 256.541 -0.595749 1.86412 0
M  V30 2706 C 256.84 2.86856 2.13187 0
M  V30 2707 C 256.506 4.24159 1.5297 0
M  V30 2708 C 255.168 4.61501 1.36274 0
M  V30 2709 C 257.52 5.09627 1.09223 0
M  V30 2710 C 254.848 5.81966 0.743837 0
M  V30 2711 C 257.2 6.30719 0.487411 0
M  V30 2712 C 255.864 6.6679 0.307777 0
M  V30 2713 H 255.134 0.614849 0.413571 0
M  V30 2714 H 257.781 1.86962 0.414405 0
M  V30 2715 H 256.086 2.6235 2.90998 0
M  V30 2716 H 257.783 2.95821 2.70722 0
M  V30 2717 H 254.373 3.94746 1.66954 0
M  V30 2718 H 258.557 4.81343 1.20922 0
M  V30 2719 H 253.813 6.08519 0.592891 0
M  V30 2720 H 257.987 6.96259 0.140143 0
M  V30 2721 H 255.614 7.60001 -0.173879 0
M  V30 2722 N 257.189 -0.644168 1.43834 0
M  V30 2723 C 258.466 -1.40188 1.36406 0
M  V30 2724 C 258.846 -2.11094 0.0163124 0
M  V30 2725 O 258.194 -2.05426 -1.00062 0
M  V30 2726 C 258.404 -2.3791 2.55343 0
M  V30 2727 C 259.752 -3.01637 2.98832 0
M  V30 2728 O 260.776 -2.48237 2.55455 0
M  V30 2729 O 259.635 -3.98477 3.74003 0
M  V30 2730 H 256.729 -0.626773 0.539523 0
M  V30 2731 H 259.275 -0.670317 1.559 0
M  V30 2732 H 258.047 -1.84525 3.4506 0
M  V30 2733 H 257.67 -3.18503 2.37995 0
M  V30 2734 N 258.668 -1.30515 -0.883378 0
M  V30 2735 C 259.598 -1.19607 -2.00541 0
M  V30 2736 C 260.579 -0.086346 -1.69881 0
M  V30 2737 O 261.764 -0.268654 -1.92333 0
M  V30 2738 C 258.894 -0.888758 -3.35736 0
M  V30 2739 C 257.848 -1.95659 -3.8066 0
M  V30 2740 C 257.174 -1.50224 -5.13164 0
M  V30 2741 C 258.474 -3.36788 -3.99213 0
M  V30 2742 H 260.168 -2.13476 -2.09925 0
M  V30 2743 H 257.714 -1.02775 -1.00863 0
M  V30 2744 H 259.667 -0.799094 -4.13754 0
M  V30 2745 H 258.391 0.0856125 -3.26488 0
M  V30 2746 H 257.05 -2.03591 -3.04871 0
M  V30 2747 H 256.698 -0.516092 -5.00345 0
M  V30 2748 H 256.398 -2.2165 -5.44192 0
M  V30 2749 H 257.922 -1.42639 -5.93706 0
M  V30 2750 H 259.336 -3.31605 -4.67665 0
M  V30 2751 H 257.733 -4.06314 -4.41621 0
M  V30 2752 H 258.803 -3.78561 -3.03017 0
M  V30 2753 N 260.146 1.09593 -1.13257 0
M  V30 2754 C 261.392 1.82181 -0.904521 0
M  V30 2755 C 261.747 1.83967 0.563358 0
M  V30 2756 O 261.04 1.29566 1.41149 0
M  V30 2757 C 261.234 3.27802 -1.42411 0
M  V30 2758 C 261.063 3.40201 -2.94097 0
M  V30 2759 C 259.833 3.52104 -3.62424 0
M  V30 2760 C 262.031 3.32875 -3.92044 0
M  V30 2761 N 260.013 3.53169 -5.0214 0
M  V30 2762 C 261.384 3.40789 -5.17941 0
M  V30 2763 C 263.439 3.16531 -3.84334 0
M  V30 2764 C 262.142 3.34042 -6.37031 0
M  V30 2765 C 264.168 3.11109 -5.02956 0
M  V30 2766 C 263.53 3.19614 -6.27715 0
M  V30 2767 H 259.629 0.681015 -0.384373 0
M  V30 2768 H 262.213 1.3099 -1.44048 0
M  V30 2769 H 260.384 3.77466 -0.915086 0
M  V30 2770 H 262.116 3.88393 -1.13722 0
M  V30 2771 H 258.871 3.5548 -3.12939 0
M  V30 2772 H 259.295 3.57291 -5.75041 0
M  V30 2773 H 263.937 3.08827 -2.88766 0
M  V30 2774 H 261.655 3.4051 -7.32857 0
M  V30 2775 H 265.241 2.99601 -4.98729 0
M  V30 2776 H 264.121 3.15432 -7.17964 0
M  V30 2777 N 261.624 0.925811 1.2754 0
M  V30 2778 C 262.554 0.440748 2.29303 0
M  V30 2779 C 263.535 -0.497971 1.62648 0
M  V30 2780 O 264.72 -0.403126 1.8997 0
M  V30 2781 C 261.85 -0.309048 3.45922 0
M  V30 2782 C 260.804 0.54166 4.24559 0
M  V30 2783 C 260.13 -0.337191 5.33636 0
M  V30 2784 C 261.43 1.80516 4.90114 0
M  V30 2785 H 263.124 1.29121 2.70126 0
M  V30 2786 H 260.67 0.622323 1.29858 0
M  V30 2787 H 262.623 -0.659315 4.1621 0
M  V30 2788 H 261.347 -1.19352 3.04011 0
M  V30 2789 H 260.006 0.874609 3.56014 0
M  V30 2790 H 259.654 -1.22056 4.87966 0
M  V30 2791 H 259.354 0.228497 5.87156 0
M  V30 2792 H 260.878 -0.683072 6.06767 0
M  V30 2793 H 262.292 1.52307 5.52698 0
M  V30 2794 H 260.689 2.3142 5.53683 0
M  V30 2795 H 261.759 2.52581 4.13921 0
M  V30 2796 N 263.102 -1.41638 0.69111 0
M  V30 2797 C 264.327 -2.06148 0.227583 0
M  V30 2798 C 264.752 -1.51652 -1.11281 0
M  V30 2799 O 264.11 -0.64164 -1.69566 0
M  V30 2800 C 264.158 -3.60095 0.190858 0
M  V30 2801 O 263.262 -4.03845 -0.835664 0
M  V30 2802 H 262.603 -0.654434 0.112306 0
M  V30 2803 H 265.133 -1.81484 0.944714 0
M  V30 2804 H 265.143 -4.07995 0.020207 0
M  V30 2805 H 263.818 -3.99129 1.16915 0
M  V30 2806 H 262.395 -3.67458 -0.63473 0
M  V30 2807 N 264.58 -0.43555 -1.51462 0
M  V30 2808 C 265.826 0.131709 -2.02372 0
M  V30 2809 C 266.159 1.42516 -1.3192 0
M  V30 2810 O 265.434 1.89606 -0.433573 0
M  V30 2811 C 265.717 0.352301 -3.58373 0
M  V30 2812 C 265.57 -0.959676 -4.39443 0
M  V30 2813 C 266.889 1.12286 -4.25535 0
M  V30 2814 H 264.008 0.0463936 -0.735538 0
M  V30 2815 H 266.65 -0.574197 -1.81116 0
M  V30 2816 H 264.8 0.9536 -3.76615 0
M  V30 2817 H 266.472 -1.59482 -4.32855 0
M  V30 2818 H 264.715 -1.56468 -4.04599 0
M  V30 2819 H 265.386 -0.759394 -5.46752 0
M  V30 2820 H 267.862 0.613545 -4.11552 0
M  V30 2821 H 266.738 1.24598 -5.34571 0
M  V30 2822 H 266.999 2.15048 -3.86273 0
M  V30 2823 N 266.058 1.56714 -0.166846 0
M  V30 2824 C 266.988 2.20754 0.760913 0
M  V30 2825 C 267.969 1.16178 1.24244 0
M  V30 2826 O 269.154 1.44592 1.29641 0
M  V30 2827 C 266.284 2.84478 1.99223 0
M  V30 2828 C 265.238 3.95053 1.64672 0
M  V30 2829 C 264.564 4.45805 2.95232 0
M  V30 2830 C 265.864 5.14865 0.878155 0
M  V30 2831 H 267.558 2.98537 0.22713 0
M  V30 2832 H 265.104 1.43596 0.107805 0
M  V30 2833 H 267.057 3.27951 2.64624 0
M  V30 2834 H 265.781 2.04056 2.55007 0
M  V30 2835 H 264.44 3.52228 1.01641 0
M  V30 2836 H 264.088 3.62181 3.49047 0
M  V30 2837 H 263.788 5.204 2.7287 0
M  V30 2838 H 265.312 4.91962 3.6167 0
M  V30 2839 H 266.726 5.55059 1.43466 0
M  V30 2840 H 265.123 5.95348 0.753738 0
M  V30 2841 H 266.193 4.84735 -0.126377 0
M  V30 2842 N 267.536 -0.106894 1.57237 0
M  V30 2843 C 268.499 -1.11466 2.0027 0
M  V30 2844 C 269.499 -1.33623 0.894519 0
M  V30 2845 O 270.689 -1.29935 1.16028 0
M  V30 2846 C 267.821 -2.46646 2.35327 0
M  V30 2847 H 269.014 -0.744516 2.90512 0
M  V30 2848 H 266.567 -0.351576 1.52295 0
M  V30 2849 H 267.302 -2.88558 1.48003 0
M  V30 2850 H 267.087 -2.31915 3.16161 0
M  V30 2851 H 268.577 -3.19151 2.69318 0
M  V30 2852 N 269.014 -1.53014 -0.377408 0
M  V30 2853 C 269.944 -1.81589 -1.46791 0
M  V30 2854 C 270.925 -0.668622 -1.56408 0
M  V30 2855 O 272.11 -0.917337 -1.71168 0
M  V30 2856 C 269.24 -1.99519 -2.8427 0
M  V30 2857 C 268.194 -3.15249 -2.89486 0
M  V30 2858 C 267.52 -3.18451 -4.29527 0
M  V30 2859 C 268.82 -4.54084 -2.58079 0
M  V30 2860 H 270.514 -2.7291 -1.23127 0
M  V30 2861 H 268.06 -1.31319 -0.590883 0
M  V30 2862 H 270.013 -2.18092 -3.60575 0
M  V30 2863 H 268.737 -1.04897 -3.09296 0
M  V30 2864 H 267.396 -2.96477 -2.15631 0
M  V30 2865 H 267.044 -2.2149 -4.5161 0
M  V30 2866 H 266.744 -3.962 -4.33934 0
M  V30 2867 H 268.268 -3.39193 -5.07721 0
M  V30 2868 H 269.682 -4.72899 -3.24098 0
M  V30 2869 H 268.079 -5.33987 -2.7382 0
M  V30 2870 H 269.149 -4.60006 -1.53372 0
M  V30 2871 N 270.492 0.636531 -1.44174 0
M  V30 2872 C 271.74 1.39343 -1.46383 0
M  V30 2873 C 272.061 1.94766 -0.0955715 0
M  V30 2874 O 271.331 1.75452 0.871395 0
M  V30 2875 H 269.911 0.517199 -0.538994 0
M  V30 2876 H 272.573 0.74957 -1.7991 0
M  V30 2877 H 271.669 2.22746 -2.18611 0
M  V30 2878 N 271.97 1.30982 0.876444 0
M  V30 2879 C 273.219 1.19658 1.62373 0
M  V30 2880 C 273.532 -0.245636 1.94052 0
M  V30 2881 O 274.738 -0.48049 2.67214 0
M  V30 2882 C 273.194 2.09433 2.92687 0
M  V30 2883 C 272.802 3.58613 2.68516 0
M  V30 2884 C 274.546 2.06893 3.70669 0
M  V30 2885 C 272.453 4.40416 3.94699 0
M  V30 2886 H 271.383 0.444268 0.609214 0
M  V30 2887 H 274.034 1.55791 0.969605 0
M  V30 2888 H 272.416 1.66191 3.59439 0
M  V30 2889 H 273.59 4.10058 2.10212 0
M  V30 2890 H 271.905 3.63063 2.03898 0
M  V30 2891 H 274.502 2.65258 4.64265 0
M  V30 2892 H 274.845 1.05448 4.02724 0
M  V30 2893 H 275.378 2.48301 3.10792 0
M  V30 2894 H 272.117 5.42591 3.67798 0
M  V30 2895 H 271.637 3.93731 4.52477 0
M  V30 2896 H 273.316 4.52294 4.62644 0
M  V30 2897 N 273.449 -1.08991 1.13837 0
M  V30 2898 C 274.695 -1.81526 0.90422 0
M  V30 2899 C 275.028 -1.85706 -0.568066 0
M  V30 2900 O 274.303 -1.32855 -1.42056 0
M  V30 2901 C 274.586 -3.27447 1.49835 0
M  V30 2902 C 274.439 -3.31512 3.04006 0
M  V30 2903 C 275.758 -4.24256 1.17025 0
M  V30 2904 H 272.877 -0.659029 0.329923 0
M  V30 2905 H 275.519 -1.27644 1.40737 0
M  V30 2906 H 273.669 -3.73462 1.07044 0
M  V30 2907 H 275.341 -2.93867 3.55584 0
M  V30 2908 H 273.584 -2.70963 3.38765 0
M  V30 2909 H 274.255 -4.34329 3.40679 0
M  V30 2910 H 276.731 -3.86549 1.54009 0
M  V30 2911 H 275.607 -5.24684 1.61237 0
M  V30 2912 H 275.868 -4.42019 0.0846274 0
M  V30 2913 N 274.927 -0.932562 -1.27047 0
M  V30 2914 C 276.167 -0.582919 -1.95912 0
M  V30 2915 C 276.531 0.860629 -1.71631 0
M  V30 2916 O 277.732 1.31878 -2.34225 0
M  V30 2917 C 276.003 -0.905673 -3.45734 0
M  V30 2918 S 277.562 -0.665277 -4.33727 0
M  V30 2919 H 274.38 -0.215 -0.677714 0
M  V30 2920 H 276.982 -1.20204 -1.54179 0
M  V30 2921 H 275.686 -1.95386 -3.60905 0
M  V30 2922 H 275.217 -0.275939 -3.92431 0
M  V30 2923 H 277.232 0.474635 -4.93925 0
M  V30 2924 N 276.405 1.4127 -0.698611 0
M  V30 2925 C 277.633 2.05503 -0.239992 0
M  V30 2926 C 278.048 1.52584 1.11191 0
M  V30 2927 O 277.405 0.675323 1.69545 0
M  V30 2928 C 277.456 3.60987 -0.192429 0
M  V30 2929 O 277.177 4.1195 -1.49094 0
M  V30 2930 C 278.678 4.42371 0.28681 0
M  V30 2931 H 275.898 0.661748 -0.111045 0
M  V30 2932 H 278.442 1.80987 -0.95205 0
M  V30 2933 H 276.597 3.84533 0.470472 0
M  V30 2934 H 277.011 5.06018 -1.38007 0
M  V30 2935 H 278.485 5.51344 0.26896 0
M  V30 2936 H 278.962 4.18699 1.32619 0
M  V30 2937 H 279.568 4.23897 -0.345201 0
M  V30 2938 N 277.883 0.443576 1.51229 0
M  V30 2939 C 279.129 -0.120975 2.02439 0
M  V30 2940 C 279.462 -1.41815 1.32674 0
M  V30 2941 O 278.737 -1.89373 0.443622 0
M  V30 2942 C 279.02 -0.333291 3.58554 0
M  V30 2943 C 278.873 0.982968 4.38928 0
M  V30 2944 C 280.192 -1.10028 4.26124 0
M  V30 2945 H 277.311 -0.0424923 0.735774 0
M  V30 2946 H 279.953 0.583794 1.80809 0
M  V30 2947 H 278.103 -0.933614 3.77115 0
M  V30 2948 H 279.775 1.61775 4.32003 0
M  V30 2949 H 278.018 1.58611 4.03763 0
M  V30 2950 H 278.689 0.788379 5.46341 0
M  V30 2951 H 281.165 -0.591711 4.11871 0
M  V30 2952 H 280.041 -1.21761 5.35225 0
M  V30 2953 H 280.302 -2.12996 3.87408 0
M  V30 2954 N 279.361 -1.56624 0.175154 0
M  V30 2955 C 280.591 -2.01082 -0.474283 0
M  V30 2956 C 280.999 -1.05447 -1.57091 0
M  V30 2957 O 280.342 -0.0480595 -1.83637 0
M  V30 2958 C 280.404 -3.41963 -1.10911 0
M  V30 2959 C 280.068 -4.56742 -0.153666 0
M  V30 2960 C 281.065 -5.16076 0.629448 0
M  V30 2961 C 278.75 -5.02277 -0.0483776 0
M  V30 2962 C 280.744 -6.19377 1.50501 0
M  V30 2963 C 278.431 -6.05427 0.830768 0
M  V30 2964 C 279.429 -6.63849 1.60605 0
M  V30 2965 O 279.117 -7.64998 2.47049 0
M  V30 2966 H 278.849 -0.664261 -0.125432 0
M  V30 2967 H 281.403 -2.03549 0.275163 0
M  V30 2968 H 279.633 -3.36422 -1.90676 0
M  V30 2969 H 281.322 -3.70352 -1.66114 0
M  V30 2970 H 282.088 -4.81776 0.558297 0
M  V30 2971 H 277.967 -4.56513 -0.641611 0
M  V30 2972 H 281.511 -6.64906 2.1106 0
M  V30 2973 H 277.408 -6.39151 0.903107 0
M  V30 2974 H 278.176 -7.82336 2.40607 0
M  V30 2975 N 280.839 0.0985539 -1.57292 0
M  V30 2976 C 282.067 0.816318 -1.90115 0
M  V30 2977 C 282.482 1.72451 -0.768509 0
M  V30 2978 O 281.839 1.80643 0.259687 0
M  V30 2979 C 281.89 1.63259 -3.22535 0
M  V30 2980 O 281.611 0.760934 -4.31441 0
M  V30 2981 C 283.112 2.45372 -3.69199 0
M  V30 2982 H 280.332 0.233595 -0.629027 0
M  V30 2983 H 282.876 0.0768229 -2.04356 0
M  V30 2984 H 281.031 2.32463 -3.09903 0
M  V30 2985 H 281.445 1.32595 -5.07463 0
M  V30 2986 H 282.919 2.98144 -4.64558 0
M  V30 2987 H 283.396 3.23677 -2.96867 0
M  V30 2988 H 284.002 1.81373 -3.84687 0
M  V30 2989 N 282.317 1.53212 0.369288 0
M  V30 2990 C 283.28 1.7872 1.43498 0
M  V30 2991 C 284.28 0.657554 1.46741 0
M  V30 2992 O 285.47 0.925736 1.47566 0
M  V30 2993 C 282.602 1.90591 2.82645 0
M  V30 2994 H 283.795 2.73894 1.22156 0
M  V30 2995 H 281.348 1.44233 0.602203 0
M  V30 2996 H 282.083 0.974709 3.09306 0
M  V30 2997 H 281.868 2.72751 2.8169 0
M  V30 2998 H 283.358 2.11931 3.59826 0
M  V30 2999 N 283.795 -0.628877 1.44509 0
M  V30 3000 C 284.725 -1.75187 1.54376 0
M  V30 3001 C 285.706 -1.65411 0.396618 0
M  V30 3002 O 286.891 -1.84137 0.617031 0
M  V30 3003 C 284.021 -3.13725 1.48976 0
M  V30 3004 C 282.975 -3.38291 2.62189 0
M  V30 3005 C 282.301 -4.76883 2.41841 0
M  V30 3006 C 283.601 -3.30632 4.04326 0
M  V30 3007 H 285.295 -1.67187 2.48373 0
M  V30 3008 H 282.841 -0.802909 1.19538 0
M  V30 3009 H 284.794 -3.92064 1.54478 0
M  V30 3010 H 283.518 -3.22515 0.514961 0
M  V30 3011 H 282.177 -2.62334 2.56079 0
M  V30 3012 H 281.825 -4.82378 1.42548 0
M  V30 3013 H 281.525 -4.94278 3.17747 0
M  V30 3014 H 283.049 -5.57449 2.49165 0
M  V30 3015 H 284.463 -3.98873 4.11793 0
M  V30 3016 H 282.86 -3.59561 4.80454 0
M  V30 3017 H 283.93 -2.28404 4.27738 0
M  V30 3018 N 285.273 -1.31445 -0.869486 0
M  V30 3019 C 286.521 -1.20918 -1.61936 0
M  V30 3020 C 286.842 0.232683 -1.93607 0
M  V30 3021 O 286.112 1.15352 -1.58338 0
M  V30 3022 H 284.692 -0.44454 -0.600328 0
M  V30 3023 H 287.354 -1.64776 -1.0409 0
M  V30 3024 H 286.45 -1.78124 -2.56278 0
M  V30 3025 N 286.751 1.08385 -1.14413 0
M  V30 3026 C 287.999 1.80419 -0.910679 0
M  V30 3027 C 288.32 1.86658 0.564243 0
M  V30 3028 O 287.59 1.35985 1.41014 0
M  V30 3029 H 286.17 0.668204 -0.333934 0
M  V30 3030 H 288.832 1.31037 -1.44275 0
M  V30 3031 H 287.928 2.83238 -1.31082 0
M  V30 3032 N 288.23 0.939286 1.26551 0
M  V30 3033 C 289.16 0.465044 2.28822 0
M  V30 3034 C 290.141 -0.480692 1.63167 0
M  V30 3035 O 291.326 -0.382955 1.90387 0
M  V30 3036 C 288.456 -0.27234 3.46231 0
M  V30 3037 C 287.41 0.58666 4.2396 0
M  V30 3038 C 286.736 -0.280573 5.33963 0
M  V30 3039 C 288.036 1.85704 4.88171 0
M  V30 3040 H 289.73 1.31979 2.68741 0
M  V30 3041 H 287.276 0.636061 1.29191 0
M  V30 3042 H 289.229 -0.615133 4.16886 0
M  V30 3043 H 287.953 -1.16121 3.0526 0
M  V30 3044 H 286.612 0.91232 3.55067 0
M  V30 3045 H 286.26 -1.16874 4.89234 0
M  V30 3046 H 285.96 0.29076 5.8688 0
M  V30 3047 H 287.484 -0.618678 6.07458 0
M  V30 3048 H 288.898 1.58161 5.51052 0
M  V30 3049 H 287.295 2.37279 5.51197 0
M  V30 3050 H 288.365 2.56957 4.11219 0
M  V30 3051 N 289.708 -1.40897 0.706093 0
M  V30 3052 C 290.655 -2.30751 0.0474474 0
M  V30 3053 C 291.625 -1.47678 -0.76029 0
M  V30 3054 O 292.81 -1.76441 -0.726177 0
M  V30 3055 C 289.95 -3.33815 -0.875309 0
M  V30 3056 C 289.063 -4.31961 -0.0580623 0
M  V30 3057 C 288.198 -5.22093 -0.979425 0
M  V30 3058 C 287.237 -6.11902 -0.155706 0
M  V30 3059 N 286.374 -6.94482 -1.03144 0
M  V30 3060 H 291.214 -2.86513 0.819413 0
M  V30 3061 H 288.751 -1.41102 0.415783 0
M  V30 3062 H 290.709 -3.92129 -1.42446 0
M  V30 3063 H 289.339 -2.79579 -1.61356 0
M  V30 3064 H 288.391 -3.75507 0.608147 0
M  V30 3065 H 289.703 -4.95415 0.580082 0
M  V30 3066 H 288.857 -5.85292 -1.59744 0
M  V30 3067 H 287.596 -4.5889 -1.65141 0
M  V30 3068 H 286.601 -5.47742 0.475309 0
M  V30 3069 H 287.826 -6.77162 0.512635 0
M  V30 3070 H 285.772 -6.33877 -1.68924 0
M  V30 3071 H 285.689 -7.54665 -0.449108 0
M  V30 3072 H 286.957 -7.6214 -1.63593 0
M  V30 3073 N 291.186 -0.45159 -1.50991 0
M  V30 3074 C 292.149 0.341117 -2.26647 0
M  V30 3075 C 293.149 0.937422 -1.30649 0
M  V30 3076 O 294.339 0.809644 -1.54241 0
M  V30 3077 C 291.471 1.48398 -3.06905 0
M  V30 3078 H 292.664 -0.322117 -2.98165 0
M  V30 3079 H 290.217 -0.205122 -1.54948 0
M  V30 3080 H 290.952 2.18284 -2.39838 0
M  V30 3081 H 290.737 1.06241 -3.77432 0
M  V30 3082 H 292.227 2.04367 -3.64176 0
M  V30 3083 N 292.664 1.56529 -0.183458 0
M  V30 3084 C 293.91 1.97537 0.459036 0
M  V30 3085 C 294.243 1.06989 1.62071 0
M  V30 3086 O 293.518 0.11948 1.94133 0
M  V30 3087 C 293.801 3.47874 0.930368 0
M  V30 3088 C 293.654 4.492 -0.232317 0
M  V30 3089 C 294.973 4.01612 1.79989 0
M  V30 3090 H 292.092 0.718204 0.165383 0
M  V30 3091 H 294.734 1.88042 -0.272038 0
M  V30 3092 H 292.884 3.56095 1.55333 0
M  V30 3093 H 294.556 4.53027 -0.86972 0
M  V30 3094 H 292.799 4.24657 -0.885928 0
M  V30 3095 H 293.47 5.51823 0.139796 0
M  V30 3096 H 295.946 3.96097 1.27461 0
M  V30 3097 H 294.822 5.07195 2.09867 0
M  V30 3098 H 295.083 3.46163 2.74998 0
M  V30 3099 N 294.142 -0.090211 1.57342 0
M  V30 3100 C 295.391 -0.791531 1.8552 0
M  V30 3101 C 295.704 -1.79659 0.773441 0
M  V30 3102 O 296.91 -2.54616 0.942497 0
M  V30 3103 C 295.366 -1.45856 3.2902 0
M  V30 3104 C 294.974 -0.493017 4.45279 0
M  V30 3105 C 296.718 -2.14332 3.66418 0
M  V30 3106 C 294.625 -1.16491 5.79814 0
M  V30 3107 H 293.555 -0.299356 0.692027 0
M  V30 3108 H 296.206 -0.0445343 1.83446 0
M  V30 3109 H 294.588 -2.25318 3.2565 0
M  V30 3110 H 295.762 0.270464 4.60006 0
M  V30 3111 H 294.077 0.0863061 4.16311 0
M  V30 3112 H 296.674 -2.65344 4.64216 0
M  V30 3113 H 297.017 -2.93447 2.95287 0
M  V30 3114 H 297.55 -1.41724 3.71698 0
M  V30 3115 H 294.289 -0.41447 6.54188 0
M  V30 3116 H 293.809 -1.8997 5.68921 0
M  V30 3117 H 295.488 -1.69001 6.24538 0
M  V30 3118 N 295.62 -1.53406 -0.361157 0
M  V30 3119 C 296.866 -1.70999 -1.1014 0
M  V30 3120 C 297.221 -0.458425 -1.86859 0
M  V30 3121 O 296.514 0.548654 -1.83577 0
M  V30 3122 C 296.708 -2.90211 -2.08596 0
M  V30 3123 C 296.537 -4.26841 -1.41553 0
M  V30 3124 C 295.307 -4.91621 -1.16778 0
M  V30 3125 C 297.505 -5.07212 -0.850915 0
M  V30 3126 N 295.487 -6.12164 -0.461312 0
M  V30 3127 C 296.858 -6.19394 -0.274046 0
M  V30 3128 C 298.913 -4.92218 -0.750036 0
M  V30 3129 C 297.616 -7.18221 0.393868 0
M  V30 3130 C 299.642 -5.91322 -0.095894 0
M  V30 3131 C 299.004 -7.0283 0.470081 0
M  V30 3132 H 295.103 -0.678939 -0.388028 0
M  V30 3133 H 297.687 -1.90811 -0.38722 0
M  V30 3134 H 295.858 -2.71931 -2.77323 0
M  V30 3135 H 297.59 -2.96606 -2.7533 0
M  V30 3136 H 294.345 -4.50849 -1.45024 0
M  V30 3137 H 294.769 -6.76888 -0.123312 0
M  V30 3138 H 299.411 -4.06192 -1.17337 0
M  V30 3139 H 297.129 -8.03835 0.82914 0
M  V30 3140 H 300.715 -5.81797 -0.0187075 0
M  V30 3141 H 299.595 -7.782 0.968241 0
M  V30 3142 N 297.098 0.621204 -1.44841 0
M  V30 3143 C 298.326 1.40752 -1.51646 0
M  V30 3144 C 298.741 1.88246 -0.144549 0
M  V30 3145 O 298.098 1.61422 0.851416 0
M  V30 3146 C 298.149 2.62119 -2.4895 0
M  V30 3147 O 297.87 2.16602 -3.80808 0
M  V30 3148 C 299.371 3.55135 -2.65319 0
M  V30 3149 H 296.591 0.431325 -0.514004 0
M  V30 3150 H 299.135 0.758835 -1.899 0
M  V30 3151 H 297.29 3.23058 -2.13805 0
M  V30 3152 H 297.704 2.95358 -4.33433 0
M  V30 3153 H 299.178 4.36874 -3.37409 0
M  V30 3154 H 299.655 4.04592 -1.70886 0
M  V30 3155 H 300.261 3.00058 -3.01405 0
M  V30 3156 N 298.576 1.31904 0.862503 0
M  V30 3157 C 299.853 1.12644 1.59908 0
M  V30 3158 C 300.233 -0.316104 2.0872 0
M  V30 3159 O 299.581 -1.31145 1.87118 0
M  V30 3160 C 299.791 2.1472 2.7513 0
M  V30 3161 C 301.139 2.47637 3.44907 0
M  V30 3162 O 302.163 2.13205 2.85346 0
M  V30 3163 O 301.022 3.06632 4.52371 0
M  V30 3164 H 298.116 0.43416 0.703871 0
M  V30 3165 H 300.662 1.43408 0.907314 0
M  V30 3166 H 299.434 3.1172 2.3653 0
M  V30 3167 H 299.057 1.84905 3.51989 0
M  V30 3168 N 300.054 -1.07777 1.14986 0
M  V30 3169 C 301.3 -1.80557 0.923422 0
M  V30 3170 C 301.633 -1.86298 -0.548337 0
M  V30 3171 O 300.908 -1.34354 -1.40639 0
M  V30 3172 C 301.191 -3.25839 1.53299 0
M  V30 3173 C 301.044 -3.28269 3.07505 0
M  V30 3174 C 302.363 -4.22991 1.21518 0
M  V30 3175 H 299.482 -0.655493 0.336894 0
M  V30 3176 H 302.124 -1.26144 1.42083 0
M  V30 3177 H 300.274 -3.72306 1.10999 0
M  V30 3178 H 301.946 -2.90079 3.58681 0
M  V30 3179 H 300.189 -2.67355 3.4162 0
M  V30 3180 H 300.86 -4.30691 3.45266 0
M  V30 3181 H 303.336 -3.84894 1.581 0
M  V30 3182 H 302.212 -5.22945 1.66793 0
M  V30 3183 H 302.473 -4.41904 0.131505 0
M  V30 3184 N 301.532 -0.945985 -1.26051 0
M  V30 3185 C 302.779 -0.596118 -1.93527 0
M  V30 3186 C 303.107 0.865559 -1.74179 0
M  V30 3187 O 302.362 1.63524 -1.0751 0
M  V30 3188 C 302.661 -0.890475 -3.46129 0
M  V30 3189 C 302.327 -2.3368 -3.85622 0
M  V30 3190 C 300.989 -2.73216 -3.96114 0
M  V30 3191 C 303.341 -3.27648 -4.05334 0
M  V30 3192 C 300.669 -4.05806 -4.2372 0
M  V30 3193 C 303.021 -4.59841 -4.3443 0
M  V30 3194 C 301.685 -4.99185 -4.43137 0
M  V30 3195 H 300.955 -0.218135 -0.708165 0
M  V30 3196 H 303.602 -1.1934 -1.49768 0
M  V30 3197 H 301.907 -0.210711 -3.91233 0
M  V30 3198 H 303.604 -0.598478 -3.96509 0
M  V30 3199 H 300.194 -2.02015 -3.78005 0
M  V30 3200 H 304.378 -2.98298 -3.96651 0
M  V30 3201 H 299.634 -4.35945 -4.28675 0
M  V30 3202 H 303.808 -5.32641 -4.48628 0
M  V30 3203 H 301.435 -6.01952 -4.64282 0
M  V30 3204 N 303.011 1.40521 -0.713556 0
M  V30 3205 C 303.943 2.29191 -0.0203126 0
M  V30 3206 C 304.956 1.45723 0.725864 0
M  V30 3207 O 306.145 1.69033 0.573581 0
M  V30 3208 C 303.245 3.2395 0.995486 0
M  V30 3209 C 302.418 4.36262 0.315256 0
M  V30 3210 C 301.477 5.11474 1.23616 0
M  V30 3211 O 300.503 5.64606 0.721719 0
M  V30 3212 N 301.705 5.20638 2.56743 0
M  V30 3213 H 304.47 2.89327 -0.781652 0
M  V30 3214 H 302.031 1.51869 -0.561022 0
M  V30 3215 H 304.023 3.71137 1.61368 0
M  V30 3216 H 302.593 2.64995 1.6582 0
M  V30 3217 H 301.813 3.91228 -0.483106 0
M  V30 3218 H 303.101 5.08558 -0.157004 0
M  V30 3219 H 302.499 4.7895 3.01037 0
M  V30 3220 H 301.056 5.71339 3.13712 0
M  V30 3221 N 304.489 0.459591 1.5075 0
M  V30 3222 C 305.717 -0.0973749 2.06671 0
M  V30 3223 C 306.132 -1.34524 1.32472 0
M  V30 3224 O 305.489 -1.7827 0.390634 0
M  V30 3225 C 305.54 -0.39714 3.59312 0
M  V30 3226 O 305.261 0.801214 4.30711 0
M  V30 3227 C 306.762 -1.00234 4.31819 0
M  V30 3228 H 303.982 0.00195854 0.670997 0
M  V30 3229 H 306.526 0.645072 1.94059 0
M  V30 3230 H 304.681 -1.08951 3.71764 0
M  V30 3231 H 305.095 0.538857 5.21725 0
M  V30 3232 H 306.569 -1.16193 5.39632 0
M  V30 3233 H 307.046 -1.98939 3.91561 0
M  V30 3234 H 307.652 -0.348699 4.23868 0
M  V30 3235 N 305.967 -1.56429 0.191757 0
M  V30 3236 C 306.897 -2.21937 -0.725696 0
M  V30 3237 C 307.878 -1.1814 -1.2238 0
M  V30 3238 O 309.063 -1.46636 -1.27325 0
M  V30 3239 C 306.193 -2.87611 -1.94672 0
M  V30 3240 C 305.147 -3.97623 -1.58366 0
M  V30 3241 C 304.473 -4.50446 -2.88102 0
M  V30 3242 C 305.773 -5.16197 -0.796133 0
M  V30 3243 H 307.467 -2.98861 -0.179606 0
M  V30 3244 H 305.013 -1.43749 -0.0849464 0
M  V30 3245 H 306.966 -3.3212 -2.59373 0
M  V30 3246 H 305.69 -2.08087 -2.51728 0
M  V30 3247 H 304.349 -3.53801 -0.960247 0
M  V30 3248 H 303.997 -3.67688 -3.43241 0
M  V30 3249 H 303.697 -5.24675 -2.64556 0
M  V30 3250 H 305.221 -4.97654 -3.53798 0
M  V30 3251 H 306.635 -5.57271 -1.34618 0
M  V30 3252 H 305.032 -5.96471 -0.658928 0
M  V30 3253 H 306.102 -4.84473 0.203478 0
M  V30 3254 N 307.445 0.0818655 -1.57387 0
M  V30 3255 C 308.691 0.784074 -1.8703 0
M  V30 3256 C 309.024 1.77729 -0.782689 0
M  V30 3257 O 308.299 1.93384 0.208051 0
M  V30 3258 C 308.582 1.50105 -3.27323 0
M  V30 3259 C 308.435 0.524925 -4.46727 0
M  V30 3260 C 309.754 2.44843 -3.65705 0
M  V30 3261 H 306.873 0.283582 -0.680257 0
M  V30 3262 H 309.515 0.0474352 -1.89941 0
M  V30 3263 H 307.665 2.12897 -3.24972 0
M  V30 3264 H 309.337 -0.0970111 -4.61198 0
M  V30 3265 H 307.58 -0.160606 -4.33503 0
M  V30 3266 H 308.251 1.064 -5.41648 0
M  V30 3267 H 310.727 1.92135 -3.69085 0
M  V30 3268 H 309.603 2.92018 -4.64776 0
M  V30 3269 H 309.864 3.29197 -2.95096 0
M  V30 3270 N 308.923 1.53595 0.353017 0
M  V30 3271 C 309.856 1.7572 1.45594 0
M  V30 3272 C 310.834 0.605961 1.50887 0
M  V30 3273 O 312.018 0.840023 1.68748 0
M  V30 3274 C 309.145 1.84732 2.83887 0
M  V30 3275 C 308.191 3.06808 2.96262 0
M  V30 3276 S 309.024 4.66065 2.63711 0
M  V30 3277 C 310.18 4.77943 4.04131 0
M  V30 3278 H 310.413 2.68994 1.26608 0
M  V30 3279 H 307.946 1.44343 0.548117 0
M  V30 3280 H 309.904 1.9061 3.63563 0
M  V30 3281 H 308.565 0.92488 3.00175 0
M  V30 3282 H 307.758 3.09761 3.97573 0
M  V30 3283 H 307.36 2.99108 2.24523 0
M  V30 3284 H 309.652 4.5877 4.98534 0
M  V30 3285 H 310.595 5.80022 4.06177 0
M  V30 3286 H 311.003 4.06472 3.91715 0
M  V30 3287 N 310.401 -0.613514 1.45168 0
M  V30 3288 C 311.648 -1.37268 1.48875 0
M  V30 3289 C 311.976 -1.94077 0.128161 0
M  V30 3290 O 311.231 -1.75178 -0.872416 0
M  V30 3291 C 311.53 -2.54347 2.51083 0
M  V30 3292 C 311.196 -2.1572 3.95949 0
M  V30 3293 C 309.858 -2.04899 4.35396 0
M  V30 3294 C 312.21 -1.85485 4.87078 0
M  V30 3295 C 309.538 -1.62057 5.63875 0
M  V30 3296 C 311.89 -1.4413 6.15962 0
M  V30 3297 C 310.554 -1.31863 6.54346 0
M  V30 3298 H 309.824 -0.502299 0.544773 0
M  V30 3299 H 312.471 -0.694021 1.78481 0
M  V30 3300 H 310.776 -3.27524 2.15024 0
M  V30 3301 H 312.473 -3.12577 2.51191 0
M  V30 3302 H 309.063 -2.25066 3.64751 0
M  V30 3303 H 313.247 -1.92745 4.57343 0
M  V30 3304 H 308.503 -1.51177 5.92415 0
M  V30 3305 H 312.677 -1.19778 6.86022 0
M  V30 3306 H 310.304 -0.984392 7.538 0
M  V30 3307 N 311.879 -1.3236 -0.855495 0
M  V30 3308 C 312.809 -1.23833 -1.97958 0
M  V30 3309 C 313.79 -0.122361 -1.69659 0
M  V30 3310 O 314.975 -0.30939 -1.9172 0
M  V30 3311 C 312.105 -0.959772 -3.33775 0
M  V30 3312 C 311.059 -2.03689 -3.76424 0
M  V30 3313 C 310.385 -1.61075 -5.09862 0
M  V30 3314 C 311.685 -3.4518 -3.9198 0
M  V30 3315 H 313.379 -2.1788 -2.0535 0
M  V30 3316 H 310.925 -1.04891 -0.986605 0
M  V30 3317 H 312.878 -0.886678 -4.11966 0
M  V30 3318 H 311.602 0.0163404 -3.26596 0
M  V30 3319 H 310.261 -2.10012 -3.00484 0
M  V30 3320 H 309.909 -0.622107 -4.99138 0
M  V30 3321 H 309.609 -2.33143 -5.39368 0
M  V30 3322 H 311.133 -1.55201 -5.90546 0
M  V30 3323 H 312.547 -3.4145 -4.60526 0
M  V30 3324 H 310.944 -4.1559 -4.32903 0
M  V30 3325 H 312.014 -3.84903 -2.94919 0
M  V30 3326 N 313.357 1.07166 -1.15556 0
M  V30 3327 C 314.605 1.79443 -0.929764 0
M  V30 3328 C 314.926 1.87246 0.544414 0
M  V30 3329 O 314.196 1.37473 1.39564 0
M  V30 3330 H 312.776 0.664625 -0.341003 0
M  V30 3331 H 315.438 1.29499 -1.45657 0
M  V30 3332 H 314.534 2.81832 -1.34079 0
M  V30 3333 N 314.835 0.952656 1.25548 0
M  V30 3334 C 315.767 0.428609 2.25157 0
M  V30 3335 C 316.78 -0.454428 1.56329 0
M  V30 3336 O 317.969 -0.263023 1.76552 0
M  V30 3337 C 315.069 -0.401972 3.36508 0
M  V30 3338 C 314.242 0.467601 4.34893 0
M  V30 3339 C 313.301 -0.30445 5.25319 0
M  V30 3340 O 312.327 0.296473 5.68427 0
M  V30 3341 N 313.529 -1.59805 5.5807 0
M  V30 3342 H 316.294 1.28497 2.70756 0
M  V30 3343 H 313.855 0.822798 1.39433 0
M  V30 3344 H 315.847 -0.926134 3.9396 0
M  V30 3345 H 314.417 -1.15918 2.90313 0
M  V30 3346 H 313.637 1.17288 3.76347 0
M  V30 3347 H 314.925 1.06119 4.97611 0
M  V30 3348 H 314.323 -2.10823 5.24948 0
M  V30 3349 H 312.88 -2.06822 6.18116 0
M  V30 3350 N 316.313 -1.40141 0.720998 0
M  V30 3351 C 317.243 -2.33339 0.0867621 0
M  V30 3352 C 318.224 -1.53178 -0.739622 0
M  V30 3353 O 319.409 -1.81625 -0.687449 0
M  V30 3354 C 316.539 -3.37194 -0.831728 0
M  V30 3355 C 315.493 -4.27857 -0.110558 0
M  V30 3356 C 314.819 -5.22294 -1.14513 0
M  V30 3357 C 316.119 -5.11872 1.0385 0
M  V30 3358 H 317.813 -2.86626 0.865219 0
M  V30 3359 H 315.359 -1.37814 0.417516 0
M  V30 3360 H 317.312 -4.01335 -1.28485 0
M  V30 3361 H 316.036 -2.82314 -1.64214 0
M  V30 3362 H 314.695 -3.65176 0.322797 0
M  V30 3363 H 314.343 -4.63717 -1.94874 0
M  V30 3364 H 314.043 -5.83797 -0.667446 0
M  V30 3365 H 315.567 -5.89312 -1.59824 0
M  V30 3366 H 316.981 -5.69436 0.664482 0
M  V30 3367 H 315.378 -5.82445 1.4449 0
M  V30 3368 H 316.448 -4.4753 1.86668 0
M  V30 3369 N 317.792 -0.46758 -1.50504 0
M  V30 3370 C 318.755 0.317059 -2.26996 0
M  V30 3371 C 319.755 0.923513 -1.31635 0
M  V30 3372 O 320.945 0.793239 -1.55091 0
M  V30 3373 C 318.077 1.45134 -3.08462 0
M  V30 3374 H 319.27 -0.353723 -2.97807 0
M  V30 3375 H 316.823 -0.221545 -1.54722 0
M  V30 3376 H 317.558 2.15728 -2.4214 0
M  V30 3377 H 317.343 1.02232 -3.78538 0
M  V30 3378 H 318.833 2.00493 -3.66323 0
M  V30 3379 N 319.27 1.56325 -0.20005 0
M  V30 3380 C 320.516 1.98012 0.438059 0
M  V30 3381 C 320.849 1.08702 1.60927 0
M  V30 3382 O 320.124 0.140064 1.93995 0
M  V30 3383 C 320.407 3.48841 0.893419 0
M  V30 3384 C 320.26 4.48928 -0.279947 0
M  V30 3385 C 321.579 4.03498 1.75719 0
M  V30 3386 H 318.698 0.719918 0.157757 0
M  V30 3387 H 321.34 1.87743 -0.291968 0
M  V30 3388 H 319.49 3.57723 1.51547 0
M  V30 3389 H 321.162 4.52079 -0.91772 0
M  V30 3390 H 319.405 4.23694 -0.930919 0
M  V30 3391 H 320.076 5.5194 0.0812601 0
M  V30 3392 H 322.552 3.97427 1.23253 0
M  V30 3393 H 321.428 5.09393 2.04476 0
M  V30 3394 H 321.689 3.4906 2.71311 0
M  V30 3395 N 320.748 -0.0735177 1.57428 0
M  V30 3396 C 321.997 -0.771809 1.86349 0
M  V30 3397 C 322.31 -1.78828 0.792452 0
M  V30 3398 O 323.516 -2.53602 0.96945 0
M  V30 3399 C 321.972 -1.42358 3.30548 0
M  V30 3400 C 321.58 -0.445761 4.45777 0
M  V30 3401 C 323.324 -2.10434 3.6867 0
M  V30 3402 C 321.231 -1.10335 5.81016 0
M  V30 3403 H 320.161 -0.291999 0.695164 0
M  V30 3404 H 322.812 -0.0250749 1.83483 0
M  V30 3405 H 321.194 -2.21852 3.28021 0
M  V30 3406 H 322.368 0.319239 4.59693 0
M  V30 3407 H 320.683 0.130457 4.16196 0
M  V30 3408 H 323.28 -2.60405 4.67004 0
M  V30 3409 H 323.623 -2.90298 2.98383 0
M  V30 3410 H 324.156 -1.37773 3.7318 0
M  V30 3411 H 320.895 -0.345061 6.54591 0
M  V30 3412 H 320.415 -1.83925 5.70904 0
M  V30 3413 H 322.094 -1.62367 6.26295 0
M  V30 3414 N 322.226 -1.5378 -0.344866 0
M  V30 3415 C 323.475 -1.7018 -1.08267 0
M  V30 3416 C 323.788 -0.471 -1.89845 0
M  V30 3417 O 324.994 -0.515917 -2.66553 0
M  V30 3418 C 323.45 -3.00923 -1.97417 0
M  V30 3419 C 323.058 -4.31335 -1.21053 0
M  V30 3420 C 324.802 -3.26688 -2.71063 0
M  V30 3421 C 322.709 -5.53153 -2.09225 0
M  V30 3422 H 321.639 -0.634138 -0.407903 0
M  V30 3423 H 324.29 -1.8028 -0.342246 0
M  V30 3424 H 322.672 -2.84676 -2.75274 0
M  V30 3425 H 323.846 -4.58281 -0.481159 0
M  V30 3426 H 322.161 -4.12173 -0.591813 0
M  V30 3427 H 324.758 -4.1489 -3.37299 0
M  V30 3428 H 325.101 -2.43639 -3.37558 0
M  V30 3429 H 325.634 -3.43705 -2.0028 0
M  V30 3430 H 322.373 -6.38741 -1.47274 0
M  V30 3431 H 321.893 -5.30458 -2.79955 0
M  V30 3432 H 323.572 -5.88744 -2.68308 0
M  V30 3433 N 323.704 0.605807 -1.45491 0
M  V30 3434 C 324.95 1.36679 -1.49823 0
M  V30 3435 C 325.283 1.93693 -0.140175 0
M  V30 3436 O 324.558 1.75158 0.845581 0
M  V30 3437 C 324.841 2.51337 -2.57879 0
M  V30 3438 C 324.694 1.99508 -4.03134 0
M  V30 3439 C 326.013 3.53463 -2.62205 0
M  V30 3440 H 323.132 0.495617 -0.545466 0
M  V30 3441 H 325.774 0.682732 -1.7731 0
M  V30 3442 H 323.924 3.09691 -2.34571 0
M  V30 3443 H 325.596 1.45789 -4.37656 0
M  V30 3444 H 323.839 1.30496 -4.13707 0
M  V30 3445 H 324.51 2.82169 -4.74431 0
M  V30 3446 H 326.986 3.04953 -2.83095 0
M  V30 3447 H 325.862 4.31178 -3.39672 0
M  V30 3448 H 326.123 4.09197 -1.67363 0
M  V30 3449 N 325.182 1.32811 0.848464 0
M  V30 3450 C 326.43 1.23479 1.59991 0
M  V30 3451 C 326.751 -0.201853 1.93952 0
M  V30 3452 O 326.021 -1.12818 1.60153 0
M  V30 3453 H 324.601 0.454034 0.593179 0
M  V30 3454 H 327.263 1.66412 1.01455 0
M  V30 3455 H 326.359 1.82178 2.53412 0
M  V30 3456 N 326.66 -1.06551 1.16123 0
M  V30 3457 C 327.885 -1.83544 0.965735 0
M  V30 3458 C 328.31 -1.81843 -0.481102 0
M  V30 3459 O 327.668 -1.21732 -1.34354 0
M  V30 3460 C 327.716 -3.28169 1.49457 0
M  V30 3461 O 326.82 -4.0643 0.699157 0
M  V30 3462 H 326.161 -0.568026 0.343864 0
M  V30 3463 H 328.691 -1.34362 1.54299 0
M  V30 3464 H 328.701 -3.78992 1.51092 0
M  V30 3465 H 327.376 -3.28722 2.54784 0
M  V30 3466 H 325.953 -3.65216 0.7531 0
M  V30 3467 N 328.138 -0.959301 -1.25041 0
M  V30 3468 C 329.101 -0.487677 -2.23952 0
M  V30 3469 C 330.101 0.41119 -1.55454 0
M  V30 3470 O 331.291 0.207825 -1.72956 0
M  V30 3471 C 328.423 0.294807 -3.39623 0
M  V30 3472 H 329.616 -1.36198 -2.67189 0
M  V30 3473 H 327.169 -0.743042 -1.37508 0
M  V30 3474 H 327.904 1.18658 -3.01813 0
M  V30 3475 H 327.689 -0.35012 -3.90534 0
M  V30 3476 H 329.179 0.614089 -4.1306 0
M  V30 3477 N 329.616 1.39756 -0.72842 0
M  V30 3478 C 330.563 2.30647 -0.0841519 0
M  V30 3479 C 331.533 1.48869 0.7367 0
M  V30 3480 O 332.718 1.77574 0.698015 0
M  V30 3481 C 329.858 3.35165 0.822091 0
M  V30 3482 C 328.971 4.31999 -0.0106663 0
M  V30 3483 C 328.106 5.23585 0.896241 0
M  V30 3484 C 327.145 6.12072 0.0583381 0
M  V30 3485 N 326.282 6.96035 0.920818 0
M  V30 3486 H 331.122 2.85173 -0.864891 0
M  V30 3487 H 328.659 1.40422 -0.438179 0
M  V30 3488 H 330.617 3.94345 1.36189 0
M  V30 3489 H 329.247 2.8211 1.56888 0
M  V30 3490 H 328.299 3.74492 -0.66781 0
M  V30 3491 H 329.611 4.9443 -0.658825 0
M  V30 3492 H 328.765 5.87759 1.50412 0
M  V30 3493 H 327.504 4.61459 1.57819 0
M  V30 3494 H 326.509 5.46916 -0.562389 0
M  V30 3495 H 327.734 6.76261 -0.6203 0
M  V30 3496 H 325.68 6.36485 1.58818 0
M  V30 3497 H 325.597 7.55284 0.32899 0
M  V30 3498 H 326.865 7.64646 1.51447 0
M  V30 3499 N 331.094 0.475555 1.50254 0
M  V30 3500 C 332.34 -0.0780073 2.0265 0
M  V30 3501 C 332.673 -1.38968 1.35652 0
M  V30 3502 O 331.948 -1.8839 0.483691 0
M  V30 3503 C 332.231 -0.257161 3.59181 0
M  V30 3504 C 332.084 1.07585 4.36744 0
M  V30 3505 C 333.403 -1.00965 4.28362 0
M  V30 3506 H 330.522 -0.0268758 0.73651 0
M  V30 3507 H 333.164 0.622015 1.7953 0
M  V30 3508 H 331.314 -0.853412 3.79011 0
M  V30 3509 H 332.986 1.70902 4.28474 0
M  V30 3510 H 331.229 1.6714 4.00308 0
M  V30 3511 H 331.9 0.904088 5.44546 0
M  V30 3512 H 334.376 -0.504214 4.13034 0
M  V30 3513 H 333.252 -1.10381 5.37687 0
M  V30 3514 H 333.513 -2.04731 3.91839 0
M  V30 3515 N 332.573 -1.56217 0.208337 0
M  V30 3516 C 333.821 -1.97558 -0.426076 0
M  V30 3517 C 334.142 -1.09683 -1.61229 0
M  V30 3518 O 333.412 -0.170956 -1.95153 0
M  V30 3519 H 331.992 -0.729575 -0.160405 0
M  V30 3520 H 334.654 -1.92606 0.298155 0
M  V30 3521 H 333.75 -3.02672 -0.761312 0
M  V30 3522 N 334.051 0.0651679 -1.57465 0
M  V30 3523 C 335.299 0.761555 -1.87202 0
M  V30 3524 C 335.62 1.77778 -0.801243 0
M  V30 3525 O 334.89 1.95166 0.16937 0
M  V30 3526 H 333.47 0.284251 -0.690804 0
M  V30 3527 H 336.132 0.0396827 -1.9486 0
M  V30 3528 H 335.228 1.27365 -2.84929 0
M  V30 3529 N 335.529 1.53961 0.336706 0
M  V30 3530 C 336.459 1.85417 1.41925 0
M  V30 3531 C 337.44 0.709856 1.5458 0
M  V30 3532 O 338.625 0.962396 1.68676 0
M  V30 3533 C 335.755 2.06985 2.78881 0
M  V30 3534 C 334.709 3.22813 2.81026 0
M  V30 3535 C 334.035 3.29727 4.20932 0
M  V30 3536 C 335.335 4.60767 2.45949 0
M  V30 3537 H 337.029 2.76079 1.15848 0
M  V30 3538 H 334.575 1.32839 0.555859 0
M  V30 3539 H 336.528 2.27575 3.54665 0
M  V30 3540 H 335.252 1.13061 3.06406 0
M  V30 3541 H 333.911 3.0209 2.07695 0
M  V30 3542 H 333.559 2.33385 4.45579 0
M  V30 3543 H 333.259 4.07566 4.23277 0
M  V30 3544 H 334.783 3.52536 4.98549 0
M  V30 3545 H 336.197 4.81325 3.11446 0
M  V30 3546 H 334.594 5.4106 2.59566 0
M  V30 3547 H 335.664 4.6391 1.41122 0
M  V30 3548 N 337.007 -0.598083 1.45811 0
M  V30 3549 C 338.255 -1.35413 1.50026 0
M  V30 3550 C 338.576 -1.94444 0.147177 0
M  V30 3551 O 337.846 -1.77701 -0.824571 0
M  V30 3552 H 336.426 -0.502727 0.552517 0
M  V30 3553 H 339.088 -0.701606 1.81834 0
M  V30 3554 H 338.184 -2.16871 2.2444 0
M  V30 3555 N 338.485 -1.33259 -0.841409 0
M  V30 3556 C 339.901 -1.12538 -1.13169 0
M  V30 3557 C 340.101 0.0854037 -2.01319 0
M  V30 3558 O 339.157 0.766417 -2.40587 0
M  V30 3559 C 340.47 -2.41156 -1.79623 0
M  V30 3560 C 342.018 -2.47038 -1.922 0
M  V30 3561 C 342.493 -3.7561 -2.6207 0
M  V30 3562 N 343.984 -3.76667 -2.69585 0
M  V30 3563 C 344.719 -4.72861 -3.2433 0
M  V30 3564 N 344.215 -5.79428 -3.79783 0
M  V30 3565 N 346.008 -4.6034 -3.22558 0
M  V30 3566 H 338.159 -2.10868 -0.254676 0
M  V30 3567 H 340.422 -0.931615 -0.175493 0
M  V30 3568 H 340.128 -3.29747 -1.22311 0
M  V30 3569 H 340.002 -2.53114 -2.79666 0
M  V30 3570 H 342.389 -1.58898 -2.48667 0
M  V30 3571 H 342.47 -2.39022 -0.911148 0
M  V30 3572 H 342.114 -4.64131 -2.06263 0
M  V30 3573 H 342.044 -3.80902 -3.63622 0
M  V30 3574 H 344.535 -2.99648 -2.30259 0
M  V30 3575 H 344.848 -6.48867 -4.19752 0
M  V30 3576 H 343.193 -5.83166 -3.78078 0
M  V30 3577 H 346.384 -3.76244 -2.78492 0
M  V30 3578 H 346.557 -5.35478 -3.64921 0
M  V30 3579 N 339.963 1.05934 -1.16686 0
M  V30 3580 C 341.209 1.79065 -0.95203 0
M  V30 3581 C 341.542 1.87147 0.518629 0
M  V30 3582 O 340.817 1.36574 1.38484 0
M  V30 3583 C 341.1 3.23359 -1.58464 0
M  V30 3584 C 340.953 3.23336 -3.12689 0
M  V30 3585 C 342.272 4.21004 -1.28232 0
M  V30 3586 H 339.391 0.65005 -0.34728 0
M  V30 3587 H 342.033 1.23868 -1.44072 0
M  V30 3588 H 340.183 3.70493 -1.16908 0
M  V30 3589 H 341.855 2.84336 -3.6325 0
M  V30 3590 H 340.098 2.61886 -3.4583 0
M  V30 3591 H 340.769 4.25144 -3.52075 0
M  V30 3592 H 343.245 3.8233 -1.64203 0
M  V30 3593 H 342.121 5.20225 -1.75092 0
M  V30 3594 H 342.382 4.41639 -0.201791 0
M  V30 3595 N 341.441 0.965919 1.2453 0
M  V30 3596 C 342.687 0.637349 1.93156 0
M  V30 3597 C 343.042 -0.818261 1.74133 0
M  V30 3598 O 342.335 -1.58079 1.08266 0
M  V30 3599 C 342.529 0.945428 3.44669 0
M  V30 3600 C 342.358 2.42944 3.78429 0
M  V30 3601 C 341.128 3.08895 3.9989 0
M  V30 3602 C 343.326 3.40941 3.8505 0
M  V30 3603 N 341.308 4.47052 4.20735 0
M  V30 3604 C 342.679 4.64448 4.10717 0
M  V30 3605 C 344.734 3.35624 3.67779 0
M  V30 3606 C 343.437 5.83292 4.20907 0
M  V30 3607 C 345.463 4.53818 3.79214 0
M  V30 3608 C 344.825 5.76114 4.05304 0
M  V30 3609 H 340.924 0.284034 0.728594 0
M  V30 3610 H 343.508 1.24041 1.50073 0
M  V30 3611 H 341.679 0.371193 3.86622 0
M  V30 3612 H 343.411 0.575613 4.00586 0
M  V30 3613 H 340.166 2.59432 3.96222 0
M  V30 3614 H 340.59 5.18634 4.35141 0
M  V30 3615 H 345.232 2.4211 3.46616 0
M  V30 3616 H 342.95 6.77236 4.40883 0
M  V30 3617 H 346.536 4.51263 3.67224 0
M  V30 3618 H 345.416 6.66045 4.13949 0
M  V30 3619 N 342.919 -1.39368 0.735821 0
M  V30 3620 C 343.882 -2.2896 0.104874 0
M  V30 3621 C 344.882 -1.46347 -0.666274 0
M  V30 3622 O 346.072 -1.67014 -0.49517 0
M  V30 3623 C 343.204 -3.29857 -0.860656 0
M  V30 3624 H 344.397 -2.86259 0.894205 0
M  V30 3625 H 341.95 -1.48029 0.501704 0
M  V30 3626 H 342.685 -2.77615 -1.67631 0
M  V30 3627 H 342.47 -3.9087 -0.310327 0
M  V30 3628 H 343.96 -3.96893 -1.29867 0
M  V30 3629 N 344.397 -0.483516 -1.5 0
M  V30 3630 C 345.643 0.0672592 -2.02688 0
M  V30 3631 C 345.976 1.38247 -1.36387 0
M  V30 3632 O 345.251 1.88131 -0.493675 0
M  V30 3633 C 345.534 0.238109 -3.59312 0
M  V30 3634 C 345.387 -1.099 -4.36168 0
M  V30 3635 C 346.706 0.986916 -4.28892 0
M  V30 3636 H 343.825 0.0229696 -0.736642 0
M  V30 3637 H 346.467 -0.631527 -1.79197 0
M  V30 3638 H 344.617 0.8333 -3.79458 0
M  V30 3639 H 346.289 -1.73172 -4.27562 0
M  V30 3640 H 344.532 -1.69261 -3.99416 0
M  V30 3641 H 345.203 -0.932954 -5.44059 0
M  V30 3642 H 347.679 0.482302 -4.13295 0
M  V30 3643 H 346.555 1.07527 -5.38265 0
M  V30 3644 H 346.816 2.0265 -3.92919 0
M  V30 3645 N 345.875 1.56104 -0.216619 0
M  V30 3646 C 346.838 2.18819 0.681962 0
M  V30 3647 C 347.838 1.14866 1.12528 0
M  V30 3648 O 349.028 1.40128 1.03488 0
M  V30 3649 C 346.16 2.80756 1.93362 0
M  V30 3650 H 347.353 2.99595 0.135254 0
M  V30 3651 H 344.906 1.56265 0.0330003 0
M  V30 3652 H 345.641 2.03837 2.52232 0
M  V30 3653 H 345.426 3.56876 1.62426 0
M  V30 3654 H 346.916 3.28844 2.57393 0
M  V30 3655 N 347.353 -0.0568162 1.57498 0
M  V30 3656 C 348.578 -0.769402 1.92601 0
M  V30 3657 C 349.003 -1.69559 0.814336 0
M  V30 3658 O 348.361 -1.79811 -0.231903 0
M  V30 3659 C 348.409 -1.52634 3.26704 0
M  V30 3660 O 347.513 -2.63797 3.16994 0
M  V30 3661 H 346.854 -0.208909 0.63028 0
M  V30 3662 H 349.384 -0.0205798 2.0459 0
M  V30 3663 H 349.394 -1.90234 3.60936 0
M  V30 3664 H 348.069 -0.846875 4.07186 0
M  V30 3665 H 346.646 -2.28943 2.94346 0
M  V30 3666 N 348.832 -1.54138 -0.328536 0
M  V30 3667 C 349.764 -1.79509 -1.4251 0
M  V30 3668 C 350.777 -0.67688 -1.48061 0
M  V30 3669 O 351.966 -0.953898 -1.50874 0
M  V30 3670 C 349.066 -1.89337 -2.81078 0
M  V30 3671 C 348.239 -3.19443 -2.98789 0
M  V30 3672 C 347.298 -3.20036 -4.17688 0
M  V30 3673 O 346.324 -3.93697 -4.11086 0
M  V30 3674 N 347.526 -2.43467 -5.26976 0
M  V30 3675 H 350.291 -2.74139 -1.21111 0
M  V30 3676 H 347.852 -1.53373 -0.518499 0
M  V30 3677 H 349.844 -1.87167 -3.58818 0
M  V30 3678 H 348.414 -1.01826 -2.95551 0
M  V30 3679 H 347.634 -3.34614 -2.08391 0
M  V30 3680 H 348.922 -4.05354 -3.07515 0
M  V30 3681 H 348.32 -1.83201 -5.35214 0
M  V30 3682 H 346.877 -2.4708 -6.03154 0
M  V30 3683 N 350.31 0.590341 -1.46126 0
M  V30 3684 C 351.26 1.69466 -1.5253 0
M  V30 3685 C 352.244 1.56179 -0.386917 0
M  V30 3686 O 353.436 1.65223 -0.634858 0
M  V30 3687 C 350.565 3.08245 -1.5113 0
M  V30 3688 C 349.651 3.26856 -2.70233 0
M  V30 3689 N 350.042 3.15657 -3.95214 0
M  V30 3690 C 348.34 3.57775 -2.66296 0
M  V30 3691 C 349.041 3.36066 -4.74799 0
M  V30 3692 N 348.017 3.60865 -4.06543 0
M  V30 3693 H 351.819 1.59326 -2.46966 0
M  V30 3694 H 349.333 0.79414 -1.41659 0
M  V30 3695 H 351.33 3.87492 -1.53804 0
M  V30 3696 H 349.99 3.19521 -0.577636 0
M  V30 3697 H 351.001 2.93686 -4.26578 0
M  V30 3698 H 347.678 3.75782 -1.81918 0
M  V30 3699 H 349.068 3.32655 -5.83772 0
M  V30 3700 N 351.788 1.33704 0.83433 0
M  V30 3701 C 353.036 1.25169 1.58673 0
M  V30 3702 C 353.357 -0.18127 1.94156 0
M  V30 3703 O 352.627 -1.11113 1.6134 0
M  V30 3704 H 351.207 0.4603 0.58833 0
M  V30 3705 H 353.869 1.67478 0.996847 0
M  V30 3706 H 352.965 1.84856 2.51465 0
M  V30 3707 N 353.266 -1.05314 1.17247 0
M  V30 3708 C 354.682 -1.30452 0.919473 0
M  V30 3709 C 354.882 -1.9703 -0.42209 0
M  V30 3710 O 353.938 -2.24311 -1.15935 0
M  V30 3711 C 355.251 -2.17551 2.07586 0
M  V30 3712 C 356.799 -2.30937 2.11275 0
M  V30 3713 C 357.274 -3.21396 3.26296 0
M  V30 3714 N 358.765 -3.28981 3.26076 0
M  V30 3715 C 359.5 -3.99095 4.11716 0
M  V30 3716 N 358.996 -4.71648 5.07465 0
M  V30 3717 N 360.789 -3.95247 3.9967 0
M  V30 3718 H 352.94 -0.604988 2.03602 0
M  V30 3719 H 355.203 -0.329368 0.888944 0
M  V30 3720 H 354.909 -1.75921 3.0454 0
M  V30 3721 H 354.783 -3.18182 2.02584 0
M  V30 3722 H 357.17 -2.71809 1.14907 0
M  V30 3723 H 357.251 -1.2994 2.20339 0
M  V30 3724 H 356.895 -2.81238 4.22927 0
M  V30 3725 H 356.825 -4.22395 3.14467 0
M  V30 3726 H 359.316 -2.77286 2.5675 0
M  V30 3727 H 359.629 -5.22705 5.6921 0
M  V30 3728 H 357.974 -4.70594 5.11435 0
M  V30 3729 H 361.165 -3.37691 3.24164 0
M  V30 3730 H 361.338 -4.4962 4.66632 0
M  V30 3731 N 354.744 -0.972509 -1.24016 0
M  V30 3732 C 355.993 -0.632603 -1.91523 0
M  V30 3733 C 356.306 0.836641 -1.76804 0
M  V30 3734 O 357.512 1.28728 -2.39043 0
M  V30 3735 C 355.968 -1.08082 -3.43287 0
M  V30 3736 C 355.576 -2.57386 -3.66683 0
M  V30 3737 C 357.32 -0.814288 -4.16617 0
M  V30 3738 C 355.227 -2.95915 -5.12043 0
M  V30 3739 H 354.157 -0.232898 -0.717129 0
M  V30 3740 H 356.808 -1.17936 -1.40582 0
M  V30 3741 H 355.19 -0.462339 -3.93292 0
M  V30 3742 H 356.364 -3.24405 -3.27258 0
M  V30 3743 H 354.679 -2.81701 -3.06649 0
M  V30 3744 H 357.276 -1.0781 -5.23718 0
M  V30 3745 H 357.619 0.24955 -4.15551 0
M  V30 3746 H 358.152 -1.39397 -3.72577 0
M  V30 3747 H 354.891 -4.0139 -5.18234 0
M  V30 3748 H 354.411 -2.33584 -5.52448 0
M  V30 3749 H 356.09 -2.86086 -5.80314 0
M  V30 3750 N 356.222 1.38976 -0.743202 0
M  V30 3751 C 357.447 2.05161 -0.303936 0
M  V30 3752 C 357.872 1.55677 1.05576 0
M  V30 3753 O 357.23 0.704131 1.67068 0
M  V30 3754 C 357.278 3.59138 -0.324373 0
M  V30 3755 O 356.382 4.06668 0.685204 0
M  V30 3756 H 355.723 0.649815 -0.136518 0
M  V30 3757 H 358.253 1.77852 -1.01142 0
M  V30 3758 H 358.263 4.07639 -0.171618 0
M  V30 3759 H 356.938 3.94515 -1.31647 0
M  V30 3760 H 355.515 3.69561 0.497913 0
M  V30 3761 N 357.7 0.491464 1.49741 0
M  V30 3762 C 358.948 -0.0563141 2.02022 0
M  V30 3763 C 359.269 -1.38363 1.37407 0
M  V30 3764 O 358.539 -1.88702 0.526166 0
M  V30 3765 H 357.119 -0.0238014 0.746621 0
M  V30 3766 H 359.781 0.646533 1.83864 0
M  V30 3767 H 358.877 -0.192967 3.11503 0
M  V30 3768 N 359.178 -1.55987 0.224894 0
M  V30 3769 C 360.425 -1.9839 -0.4059 0
M  V30 3770 C 360.753 -1.11261 -1.59535 0
M  V30 3771 O 360.008 -0.158314 -1.95059 0
M  V30 3772 C 360.307 -3.46394 -0.880106 0
M  V30 3773 C 359.973 -4.5046 0.19918 0
M  V30 3774 C 358.635 -4.7864 0.495661 0
M  V30 3775 C 360.987 -5.12855 0.928939 0
M  V30 3776 C 358.315 -5.66497 1.52636 0
M  V30 3777 C 360.667 -6.01828 1.949 0
M  V30 3778 C 359.331 -6.28351 2.25236 0
M  V30 3779 H 358.601 -0.725961 -0.148529 0
M  V30 3780 H 361.248 -1.88668 0.328113 0
M  V30 3781 H 359.553 -3.53337 -1.69294 0
M  V30 3782 H 361.25 -3.76577 -1.37808 0
M  V30 3783 H 357.84 -4.28579 -0.0420526 0
M  V30 3784 H 362.024 -4.9115 0.713129 0
M  V30 3785 H 357.28 -5.8531 1.76698 0
M  V30 3786 H 361.454 -6.49225 2.51951 0
M  V30 3787 H 359.081 -6.96226 3.05244 0
M  V30 3788 N 360.656 0.0484629 -1.57525 0
M  V30 3789 C 361.566 1.07241 -2.08654 0
M  V30 3790 C 362.582 1.409 -1.02095 0
M  V30 3791 O 363.758 1.50609 -1.33712 0
M  V30 3792 C 360.823 2.36008 -2.5397 0
M  V30 3793 C 359.884 2.09108 -3.7493 0
M  V30 3794 C 359.117 3.31736 -4.18075 0
M  V30 3795 O 359.34 4.41714 -3.60895 0
M  V30 3796 O 358.274 3.18576 -5.10679 0
M  V30 3797 H 362.1 0.667965 -2.96263 0
M  V30 3798 H 359.685 0.26417 -1.47046 0
M  V30 3799 H 361.567 3.11747 -2.83535 0
M  V30 3800 H 360.242 2.75786 -1.69481 0
M  V30 3801 H 359.149 1.31 -3.50414 0
M  V30 3802 H 360.482 1.74198 -4.60343 0
M  V30 3803 N 362.134 1.5431 0.320358 0
M  V30 3804 C 363.064 1.86912 1.3995 0
M  V30 3805 C 364.045 0.726211 1.53819 0
M  V30 3806 O 365.23 0.980233 1.67646 0
M  V30 3807 C 362.36 2.09932 2.7667 0
M  V30 3808 C 361.314 3.25776 2.77586 0
M  V30 3809 C 360.64 3.34173 4.17412 0
M  V30 3810 C 361.94 4.6335 2.41048 0
M  V30 3811 H 363.634 2.77292 1.12914 0
M  V30 3812 H 361.18 1.33421 0.541738 0
M  V30 3813 H 363.133 2.31324 3.52232 0
M  V30 3814 H 361.857 1.16304 3.0519 0
M  V30 3815 H 360.516 3.04276 2.04479 0
M  V30 3816 H 360.164 2.38098 4.43078 0
M  V30 3817 H 359.864 4.12033 4.18931 0
M  V30 3818 H 361.388 3.57803 4.94782 0
M  V30 3819 H 362.802 4.84602 3.06324 0
M  V30 3820 H 361.199 5.43782 2.53813 0
M  V30 3821 H 362.269 4.65381 1.36193 0
M  V30 3822 N 363.613 -0.582584 1.46437 0
M  V30 3823 C 364.89 -1.34276 1.4223 0
M  V30 3824 C 365.27 -2.10835 0.10583 0
M  V30 3825 O 364.618 -2.09485 -0.912596 0
M  V30 3826 C 364.828 -2.26865 2.65204 0
M  V30 3827 C 366.176 -2.88691 3.11356 0
M  V30 3828 O 367.2 -2.37178 2.65753 0
M  V30 3829 O 366.059 -3.82255 3.90568 0
M  V30 3830 H 363.153 -0.603326 0.565621 0
M  V30 3831 H 365.699 -0.603591 1.58603 0
M  V30 3832 H 364.471 -1.69724 3.52576 0
M  V30 3833 H 364.094 -3.08122 2.5129 0
M  V30 3834 N 365.091 -1.34144 -0.827227 0
M  V30 3835 C 366.502 -1.23557 -1.39966 0
M  V30 3836 C 366.853 0.140731 -1.95695 0
M  V30 3837 O 365.978 1.04087 -1.89723 0
M  V30 3838 C 366.573 -2.23708 -2.54441 0
M  V30 3839 C 365.132 -2.16924 -3.07605 0
M  V30 3840 C 364.279 -2.10549 -1.80456 0
M  V30 3841 H 367.23 -1.45573 -0.631991 0
M  V30 3842 H 367.251 -1.85157 -3.32411 0
M  V30 3843 H 366.763 -3.23866 -2.13851 0
M  V30 3844 H 364.864 -1.20107 -3.52711 0
M  V30 3845 H 364.977 -3.07988 -3.66988 0
M  V30 3846 H 363.341 -1.56203 -2.01178 0
M  V30 3847 H 364.124 -3.12535 -1.42046 0
M  V30 3848 N 366.569 1.04691 -1.17803 0
M  V30 3849 C 367.846 1.7472 -0.879328 0
M  V30 3850 C 368.226 2.01812 0.619271 0
M  V30 3851 O 367.574 1.65824 1.57209 0
M  V30 3852 C 367.784 3.03686 -1.71976 0
M  V30 3853 C 369.132 3.77542 -1.94286 0
M  V30 3854 O 370.156 3.13569 -1.68976 0
M  V30 3855 O 369.015 4.92506 -2.36855 0
M  V30 3856 H 366.109 0.760011 -0.326056 0
M  V30 3857 H 368.655 1.10813 -1.28525 0
M  V30 3858 H 367.427 2.79754 -2.73594 0
M  V30 3859 H 367.05 3.75332 -1.31194 0
M  V30 3860 N 368.047 0.979072 1.23499 0
M  V30 3861 C 369.458 0.684391 1.73704 0
M  V30 3862 C 369.809 -0.799448 1.79174 0
M  V30 3863 O 368.934 -1.62531 1.42873 0
M  V30 3864 C 369.529 1.23564 3.15464 0
M  V30 3865 C 368.088 0.99063 3.6313 0
M  V30 3866 C 367.235 1.36416 2.41425 0
M  V30 3867 H 370.186 1.15307 1.09041 0
M  V30 3868 H 370.207 0.607417 3.7562 0
M  V30 3869 H 369.719 2.31561 3.1145 0
M  V30 3870 H 367.82 -0.0733136 3.72528 0
M  V30 3871 H 367.933 1.64427 4.5 0
M  V30 3872 H 366.297 0.782616 2.42378 0
M  V30 3873 H 367.08 2.45387 2.40083 0
M  V30 3874 N 369.525 -1.3858 0.750561 0
M  V30 3875 C 370.772 -2.00184 0.305373 0
M  V30 3876 C 371.1 -1.59575 -1.11203 0
M  V30 3877 O 370.355 -0.823236 -1.77542 0
M  V30 3878 C 370.654 -3.55455 0.372373 0
M  V30 3879 C 370.32 -4.15765 1.745 0
M  V30 3880 C 368.982 -4.31951 2.12065 0
M  V30 3881 C 371.334 -4.49067 2.64553 0
M  V30 3882 C 368.662 -4.78734 3.39162 0
M  V30 3883 C 371.014 -4.97265 3.91038 0
M  V30 3884 C 369.678 -5.11658 4.28676 0
M  V30 3885 H 368.948 -0.732526 0.111744 0
M  V30 3886 H 371.595 -1.65673 0.960451 0
M  V30 3887 H 369.9 -3.90084 -0.366272 0
M  V30 3888 H 371.597 -4.00999 0.00953918 0
M  V30 3889 H 368.187 -4.03579 1.44297 0
M  V30 3890 H 372.371 -4.36166 2.36796 0
M  V30 3891 H 367.627 -4.88062 3.68246 0
M  V30 3892 H 371.801 -5.22003 4.60962 0
M  V30 3893 H 369.428 -5.47668 5.27222 0
M  V30 3894 N 371.003 -0.499398 -1.49478 0
M  V30 3895 C 372.249 0.0457576 -2.02748 0
M  V30 3896 C 372.582 1.36793 -1.37846 0
M  V30 3897 O 371.857 1.87596 -0.513601 0
M  V30 3898 C 372.14 0.199986 -3.59544 0
M  V30 3899 C 371.993 -1.1452 -4.34977 0
M  V30 3900 C 373.312 0.94137 -4.29914 0
M  V30 3901 H 370.431 0.0151552 -0.736844 0
M  V30 3902 H 373.073 -0.650498 -1.78518 0
M  V30 3903 H 371.223 0.793007 -3.8032 0
M  V30 3904 H 372.895 -1.77697 -4.25701 0
M  V30 3905 H 371.138 -1.73488 -3.97598 0
M  V30 3906 H 371.809 -0.990607 -5.43039 0
M  V30 3907 H 374.285 0.43844 -4.13784 0
M  V30 3908 H 373.161 1.01812 -5.39375 0
M  V30 3909 H 373.422 1.98471 -3.95046 0
M  V30 3910 N 372.481 1.55866 -0.233164 0
M  V30 3911 C 373.897 1.59133 0.121988 0
M  V30 3912 C 374.097 1.25016 1.58029 0
M  V30 3913 O 373.153 0.990922 2.32243 0
M  V30 3914 C 374.466 2.99932 -0.214792 0
M  V30 3915 C 376.014 3.12601 -0.157971 0
M  V30 3916 C 376.489 4.55597 -0.46859 0
M  V30 3917 N 377.98 4.61305 -0.418585 0
M  V30 3918 C 378.715 5.69903 -0.63227 0
M  V30 3919 N 378.211 6.86819 -0.90835 0
M  V30 3920 N 380.004 5.59264 -0.563913 0
M  V30 3921 H 372.155 1.76315 -1.18434 0
M  V30 3922 H 374.418 0.820093 -0.475553 0
M  V30 3923 H 374.124 3.29588 -1.22739 0
M  V30 3924 H 373.998 3.74327 0.464691 0
M  V30 3925 H 376.385 2.82735 0.845283 0
M  V30 3926 H 376.466 2.40511 -0.871102 0
M  V30 3927 H 376.11 4.86182 -1.46934 0
M  V30 3928 H 376.04 5.25928 0.265865 0
M  V30 3929 H 378.531 3.77297 -0.213368 0
M  V30 3930 H 378.844 7.65507 -1.05919 0
M  V30 3931 H 377.189 6.88536 -0.945673 0
M  V30 3932 H 380.38 4.66802 -0.348372 0
M  V30 3933 H 380.553 6.43831 -0.733847 0
M  V30 3934 N 373.959 -0.0401083 1.57549 0
M  V30 3935 C 374.909 -1.05175 2.02292 0
M  V30 3936 C 375.893 -1.32674 0.910294 0
M  V30 3937 O 377.085 -1.32444 1.17421 0
M  V30 3938 C 374.214 -2.35622 2.49674 0
M  V30 3939 C 373.3 -2.11261 3.67736 0
M  V30 3940 N 373.691 -1.56923 4.80842 0
M  V30 3941 C 371.989 -2.41596 3.74897 0
M  V30 3942 C 372.69 -1.48111 5.62528 0
M  V30 3943 N 371.666 -1.95282 5.07312 0
M  V30 3944 H 375.468 -0.625455 2.87168 0
M  V30 3945 H 372.982 -0.246624 1.60516 0
M  V30 3946 H 374.979 -3.08893 2.79983 0
M  V30 3947 H 373.639 -2.7894 1.662 0
M  V30 3948 H 374.65 -1.25345 5.02503 0
M  V30 3949 H 371.327 -2.88064 3.02201 0
M  V30 3950 H 372.717 -1.06683 6.63377 0
M  V30 3951 N 375.437 -1.54477 -0.31217 0
M  V30 3952 C 376.665 -1.77205 -1.068 0
M  V30 3953 C 377.08 -0.526114 -1.81321 0
M  V30 3954 O 376.437 0.503647 -1.75413 0
M  V30 3955 C 376.488 -2.97253 -2.05725 0
M  V30 3956 O 376.209 -4.1703 -1.34228 0
M  V30 3957 C 377.71 -3.32281 -2.93435 0
M  V30 3958 H 374.93 -0.591287 -0.317208 0
M  V30 3959 H 377.474 -2.01398 -0.354834 0
M  V30 3960 H 375.629 -2.753 -2.72559 0
M  V30 3961 H 376.043 -4.84636 -2.00571 0
M  V30 3962 H 377.517 -4.19551 -3.58721 0
M  V30 3963 H 377.994 -2.49945 -3.61143 0
M  V30 3964 H 378.6 -3.56353 -2.32147 0
M  V30 3965 N 376.915 0.57481 -1.46744 0
M  V30 3966 C 378.162 1.33272 -1.52462 0
M  V30 3967 C 378.49 1.93669 -0.179572 0
M  V30 3968 O 377.745 1.7743 0.825664 0
M  V30 3969 C 378.044 2.476 -2.57738 0
M  V30 3970 C 377.71 2.05146 -4.01529 0
M  V30 3971 C 376.372 1.93284 -4.40676 0
M  V30 3972 C 378.724 1.72506 -4.91824 0
M  V30 3973 C 376.052 1.47049 -5.67973 0
M  V30 3974 C 378.404 1.27748 -6.19567 0
M  V30 3975 C 377.068 1.14468 -6.57612 0
M  V30 3976 H 376.338 0.487678 -0.557899 0
M  V30 3977 H 378.985 0.646456 -1.80259 0
M  V30 3978 H 377.29 3.21708 -2.23632 0
M  V30 3979 H 378.987 3.05807 -2.5939 0
M  V30 3980 H 375.577 2.15316 -3.7059 0
M  V30 3981 H 379.761 1.80552 -4.62293 0
M  V30 3982 H 375.017 1.35417 -5.96215 0
M  V30 3983 H 379.191 1.01547 -6.88957 0
M  V30 3984 H 376.818 0.78419 -7.56145 0
M  V30 3985 N 378.394 1.34581 0.820102 0
M  V30 3986 C 379.64 1.28294 1.57836 0
M  V30 3987 C 379.995 -0.145099 1.91852 0
M  V30 3988 O 379.288 -1.09209 1.57429 0
M  V30 3989 C 379.482 2.10997 2.8847 0
M  V30 3990 C 379.311 3.61698 2.67216 0
M  V30 3991 C 378.081 4.3097 2.63805 0
M  V30 3992 C 380.279 4.55638 2.38534 0
M  V30 3993 N 378.261 5.67502 2.34126 0
M  V30 3994 C 379.632 5.80194 2.18574 0
M  V30 3995 C 381.687 4.44523 2.24285 0
M  V30 3996 C 380.39 6.94886 1.8581 0
M  V30 3997 C 382.416 5.5905 1.92916 0
M  V30 3998 C 381.778 6.82627 1.73782 0
M  V30 3999 H 377.877 0.524697 0.579842 0
M  V30 4000 H 380.461 1.69323 0.961139 0
M  V30 4001 H 378.632 1.7226 3.48111 0
M  V30 4002 H 380.364 1.96333 3.53886 0
M  V30 4003 H 377.119 3.83438 2.77978 0
M  V30 4004 H 377.543 6.39525 2.22118 0
M  V30 4005 H 382.185 3.49599 2.37782 0
M  V30 4006 H 379.903 7.89789 1.7105 0
M  V30 4007 H 383.489 5.52396 1.82619 0
M  V30 4008 H 382.369 7.69748 1.49861 0
M  V30 4009 N 379.872 -1.04064 1.18357 0
M  V30 4010 C 381.1 -1.80916 1.00384 0
M  V30 4011 C 381.515 -1.83414 -0.447738 0
M  V30 4012 O 380.872 -1.26962 -1.31099 0
M  V30 4013 C 380.923 -3.26516 1.55144 0
M  V30 4014 O 380.644 -3.2424 2.94618 0
M  V30 4015 C 382.145 -4.20013 1.41789 0
M  V30 4016 H 379.365 -0.569728 0.354474 0
M  V30 4017 H 381.909 -1.31151 1.56906 0
M  V30 4018 H 380.064 -3.73512 1.02798 0
M  V30 4019 H 380.478 -4.15452 3.20156 0
M  V30 4020 H 381.952 -5.20111 1.84901 0
M  V30 4021 H 382.429 -4.37667 0.36661 0
M  V30 4022 H 383.035 -3.78881 1.93207 0
M  V30 4023 N 381.35 -0.985608 -1.22978 0
M  V30 4024 C 382.28 -0.549649 -2.26939 0
M  V30 4025 C 383.261 0.419803 -1.64838 0
M  V30 4026 O 384.446 0.31203 -1.91677 0
M  V30 4027 C 381.576 0.143652 -3.47003 0
M  V30 4028 C 380.53 -0.743606 -4.21491 0
M  V30 4029 C 379.856 0.0822027 -5.34637 0
M  V30 4030 C 381.156 -2.03694 -4.80943 0
M  V30 4031 H 382.85 -1.41862 -2.63658 0
M  V30 4032 H 380.396 -0.683571 -1.26741 0
M  V30 4033 H 382.349 0.459985 -4.18882 0
M  V30 4034 H 381.073 1.04711 -3.09359 0
M  V30 4035 H 379.732 -1.04347 -3.51436 0
M  V30 4036 H 379.38 0.986359 -4.93234 0
M  V30 4037 H 379.08 -0.508377 -5.85397 0
M  V30 4038 H 380.604 0.392797 -6.09335 0
M  V30 4039 H 382.018 -1.78504 -5.44802 0
M  V30 4040 H 380.415 -2.57573 -5.42011 0
M  V30 4041 H 381.485 -2.72042 -4.01399 0
M  V30 4042 N 382.828 1.3818 -0.7579 0
M  V30 4043 C 383.791 2.28764 -0.141286 0
M  V30 4044 C 384.791 1.47388 0.642907 0
M  V30 4045 O 385.981 1.67781 0.468536 0
M  V30 4046 C 383.113 3.31184 0.808069 0
M  V30 4047 H 384.306 2.848 -0.939633 0
M  V30 4048 H 381.859 1.47212 -0.525191 0
M  V30 4049 H 382.594 2.80247 1.63193 0
M  V30 4050 H 382.379 3.91314 0.248104 0
M  V30 4051 H 383.869 3.98909 1.23536 0
M  V30 4052 N 384.306 0.507319 1.49211 0
M  V30 4053 C 385.553 -0.0349529 2.0247 0
M  V30 4054 C 385.881 -1.36409 1.38647 0
M  V30 4055 O 385.136 -1.88841 0.513566 0
M  V30 4056 C 385.435 -0.229513 3.56662 0
M  V30 4057 C 385.101 1.02241 4.39156 0
M  V30 4058 C 383.763 1.36557 4.61417 0
M  V30 4059 C 386.115 1.85428 4.871 0
M  V30 4060 C 383.443 2.53999 5.28868 0
M  V30 4061 C 385.795 3.02028 5.55843 0
M  V30 4062 C 384.459 3.36717 5.76349 0
M  V30 4063 H 383.729 -0.0127902 0.74089 0
M  V30 4064 H 386.376 0.668756 1.79443 0
M  V30 4065 H 384.681 -1.0158 3.78403 0
M  V30 4066 H 386.378 -0.663641 3.9547 0
M  V30 4067 H 382.968 0.745124 4.22073 0
M  V30 4068 H 387.152 1.6023 4.69723 0
M  V30 4069 H 382.408 2.81105 5.42946 0
M  V30 4070 H 386.582 3.66808 5.91967 0
M  V30 4071 H 384.209 4.27821 6.28389 0
M  V30 4072 N 385.784 -1.5574 0.241426 0
M  V30 4073 C 387.032 -1.98417 -0.384075 0
M  V30 4074 C 387.353 -1.13078 -1.58866 0
M  V30 4075 O 386.623 -0.212312 -1.94746 0
M  V30 4076 H 385.203 -0.732813 -0.144894 0
M  V30 4077 H 387.865 -1.9193 0.338943 0
M  V30 4078 H 386.961 -3.04219 -0.696939 0
M  V30 4079 N 387.262 0.0317525 -1.57568 0
M  V30 4080 C 388.51 0.721676 -1.88776 0
M  V30 4081 C 388.831 1.76039 -0.838772 0
M  V30 4082 O 388.101 1.95482 0.127935 0
M  V30 4083 H 386.681 0.269534 -0.696678 0
M  V30 4084 H 389.343 -0.00165879 -1.949 0
M  V30 4085 H 388.439 1.21293 -2.87566 0
M  V30 4086 N 388.74 1.54641 0.303973 0
M  V30 4087 C 389.986 1.74038 1.04109 0
M  V30 4088 C 390.319 0.523051 1.87024 0
M  V30 4089 O 389.594 -0.479874 1.88487 0
M  V30 4090 C 389.877 3.02761 1.94955 0
M  V30 4091 C 389.73 4.34787 1.1524 0
M  V30 4092 C 391.049 3.27336 2.94175 0
M  V30 4093 H 388.168 0.63323 0.377079 0
M  V30 4094 H 390.81 1.87354 0.316001 0
M  V30 4095 H 388.96 2.9154 2.56782 0
M  V30 4096 H 390.632 4.57922 0.557236 0
M  V30 4097 H 388.875 4.31407 0.455053 0
M  V30 4098 H 389.546 5.21116 1.8205 0
M  V30 4099 H 392.022 3.38148 2.42477 0
M  V30 4100 H 390.898 4.18726 3.54908 0
M  V30 4101 H 391.159 2.45491 3.67677 0
M  V30 4102 N 390.218 -0.567019 1.47046 0
M  V30 4103 C 391.465 -1.32462 1.53167 0
M  V30 4104 C 391.793 -1.93571 0.189841 0
M  V30 4105 O 391.048 -1.77865 -0.816243 0
M  V30 4106 C 391.347 -2.4623 2.59047 0
M  V30 4107 C 391.013 -2.03014 4.02612 0
M  V30 4108 C 389.675 -1.90944 4.41694 0
M  V30 4109 C 392.027 -1.69895 4.92732 0
M  V30 4110 C 389.355 -1.44035 5.68745 0
M  V30 4111 C 391.707 -1.2446 6.20236 0
M  V30 4112 C 390.371 -1.10979 6.5821 0
M  V30 4113 H 389.641 -0.484713 0.560477 0
M  V30 4114 H 392.288 -0.636888 1.80599 0
M  V30 4115 H 390.593 -3.20517 2.25335 0
M  V30 4116 H 392.29 -3.04427 2.61008 0
M  V30 4117 H 388.88 -2.13348 3.71726 0
M  V30 4118 H 393.064 -1.78098 4.63244 0
M  V30 4119 H 388.32 -1.32254 5.96925 0
M  V30 4120 H 392.494 -0.978924 6.89485 0
M  V30 4121 H 390.121 -0.744078 7.5655 0
M  V30 4122 N 391.696 -1.35014 -0.812953 0
M  V30 4123 C 392.629 -1.21761 -1.93001 0
M  V30 4124 C 393.607 -0.10694 -1.62248 0
M  V30 4125 O 394.791 -0.273891 -1.865 0
M  V30 4126 C 391.918 -0.873404 -3.27245 0
M  V30 4127 C 390.964 -1.99523 -3.76952 0
M  V30 4128 S 391.797 -3.61009 -3.95516 0
M  V30 4129 C 392.953 -3.28651 -5.32672 0
M  V30 4130 H 393.186 -2.16315 -2.03948 0
M  V30 4131 H 390.719 -1.20156 -0.969631 0
M  V30 4132 H 392.677 -0.68161 -4.04802 0
M  V30 4133 H 391.338 0.053971 -3.14054 0
M  V30 4134 H 390.531 -1.70838 -4.74163 0
M  V30 4135 H 390.133 -2.14503 -3.06373 0
M  V30 4136 H 392.425 -2.81085 -6.1644 0
M  V30 4137 H 393.368 -4.25039 -5.66346 0
M  V30 4138 H 393.776 -2.6458 -4.98656 0
M  V30 4139 N 393.175 1.03435 -1.18907 0
M  V30 4140 C 394.108 2.11162 -0.86521 0
M  V30 4141 C 395.086 1.6165 0.175473 0
M  V30 4142 O 396.27 1.88425 0.0530129 0
M  V30 4143 C 393.397 3.37423 -0.293868 0
M  V30 4144 C 392.443 4.05795 -1.31274 0
M  V30 4145 S 393.276 4.52027 -2.8711 0
M  V30 4146 C 394.432 5.81513 -2.31504 0
M  V30 4147 H 394.665 2.38308 -1.77754 0
M  V30 4148 H 392.198 1.16295 -1.01562 0
M  V30 4149 H 394.156 4.1049 0.0292572 0
M  V30 4150 H 392.817 3.0838 0.596682 0
M  V30 4151 H 392.01 4.96574 -0.86198 0
M  V30 4152 H 391.612 3.38874 -1.58242 0
M  V30 4153 H 393.904 6.55784 -1.70157 0
M  V30 4154 H 394.847 6.3136 -3.20608 0
M  V30 4155 H 395.255 5.36921 -1.74286 0
M  V30 4156 N 394.653 0.992116 1.22453 0
M  V30 4157 C 395.583 0.561677 2.26644 0
M  V30 4158 C 396.564 -0.411055 1.65059 0
M  V30 4159 O 397.749 -0.301861 1.9184 0
M  V30 4160 C 394.879 -0.125247 3.47074 0
M  V30 4161 C 393.833 0.765948 4.21091 0
M  V30 4162 C 393.159 -0.0538484 5.34673 0
M  V30 4163 C 394.459 2.06242 4.79856 0
M  V30 4164 H 396.153 1.43259 2.62902 0
M  V30 4165 H 393.699 0.690283 1.26377 0
M  V30 4166 H 395.652 -0.437764 4.1912 0
M  V30 4167 H 394.376 -1.03069 3.0991 0
M  V30 4168 H 393.035 1.0621 3.50878 0
M  V30 4169 H 392.683 -0.960188 4.9375 0
M  V30 4170 H 392.383 0.539415 5.85119 0
M  V30 4171 H 393.907 -0.360477 6.09535 0
M  V30 4172 H 395.321 1.8139 5.43848 0
M  V30 4173 H 393.718 2.60444 5.40638 0
M  V30 4174 H 394.788 2.74167 3.99951 0
M  V30 4175 N 396.131 -1.37776 0.765217 0
M  V30 4176 C 397.356 -2.04651 0.336537 0
M  V30 4177 C 397.781 -1.57337 -1.03086 0
M  V30 4178 O 397.139 -0.730621 -1.65927 0
M  V30 4179 C 397.187 -3.58577 0.381468 0
M  V30 4180 O 396.291 -4.07706 -0.62042 0
M  V30 4181 H 395.632 -0.64756 0.146838 0
M  V30 4182 H 398.162 -1.76221 1.03959 0
M  V30 4183 H 398.172 -4.07314 0.236448 0
M  V30 4184 H 396.847 -3.9237 1.37907 0
M  V30 4185 H 395.424 -3.70306 -0.439056 0
M  V30 4186 N 397.609 -0.515225 -1.4894 0
M  V30 4187 C 398.539 0.244628 -2.32215 0
M  V30 4188 C 399.52 0.949136 -1.41157 0
M  V30 4189 O 400.705 0.937783 -1.70057 0
M  V30 4190 C 397.835 1.30096 -3.22013 0
M  V30 4191 C 396.789 0.715486 -4.21977 0
M  V30 4192 C 396.115 1.87339 -5.00808 0
M  V30 4193 C 397.415 -0.302982 -5.2142 0
M  V30 4194 H 399.109 -0.450501 -2.95991 0
M  V30 4195 H 396.655 -0.218098 -1.42339 0
M  V30 4196 H 398.608 1.84037 -3.79089 0
M  V30 4197 H 397.332 2.02547 -2.56207 0
M  V30 4198 H 395.991 0.197715 -3.66066 0
M  V30 4199 H 395.639 2.58592 -4.31438 0
M  V30 4200 H 395.339 1.48764 -5.68457 0
M  V30 4201 H 396.863 2.41686 -5.60732 0
M  V30 4202 H 398.277 0.148802 -5.73107 0
M  V30 4203 H 396.674 -0.60532 -5.97039 0
M  V30 4204 H 397.744 -1.21395 -4.69459 0
M  V30 4205 N 399.087 1.5561 -0.249682 0
M  V30 4206 C 400.317 2.03116 0.377803 0
M  V30 4207 C 400.725 1.12822 1.51881 0
M  V30 4208 O 400.068 0.13562 1.83199 0
M  V30 4209 C 400.13 3.46866 0.944693 0
M  V30 4210 C 399.794 4.56955 -0.0644259 0
M  V30 4211 C 400.791 5.12485 -0.874957 0
M  V30 4212 C 398.476 5.01936 -0.19132 0
M  V30 4213 C 400.47 6.11491 -1.79881 0
M  V30 4214 C 398.157 6.00773 -1.11868 0
M  V30 4215 C 399.155 6.5543 -1.92095 0
M  V30 4216 O 398.843 7.5234 -2.83267 0
M  V30 4217 H 398.575 0.669489 0.0935961 0
M  V30 4218 H 401.129 2.02004 -0.371966 0
M  V30 4219 H 399.359 3.45136 1.74407 0
M  V30 4220 H 401.048 3.77856 1.48255 0
M  V30 4221 H 401.814 4.78564 -0.787523 0
M  V30 4222 H 397.693 4.59055 0.423072 0
M  V30 4223 H 401.237 6.54078 -2.42543 0
M  V30 4224 H 397.134 6.34114 -1.20703 0
M  V30 4225 H 397.902 7.69966 -2.7766 0
M  V30 4226 N 400.565 -0.0233959 1.57583 0
M  V30 4227 C 401.813 -0.711654 1.89156 0
M  V30 4228 C 402.134 -1.75591 0.848096 0
M  V30 4229 O 401.404 -1.95547 -0.117566 0
M  V30 4230 H 399.984 -0.265835 0.698098 0
M  V30 4231 H 402.646 0.0119948 1.94896 0
M  V30 4232 H 401.742 -1.19766 2.88206 0
M  V30 4233 N 402.043 -1.548 -0.295768 0
M  V30 4234 C 403.289 -1.74588 -1.03184 0
M  V30 4235 C 403.622 -0.532962 -1.86744 0
M  V30 4236 O 402.897 0.469872 -1.88739 0
M  V30 4237 C 403.18 -3.03791 -1.93347 0
M  V30 4238 C 403.033 -4.35392 -1.12933 0
M  V30 4239 C 404.352 -3.28892 -2.92435 0
M  V30 4240 H 401.471 -0.635221 -0.373715 0
M  V30 4241 H 404.113 -1.87519 -0.30606 0
M  V30 4242 H 402.263 -2.92898 -2.55232 0
M  V30 4243 H 403.935 -4.58211 -0.532943 0
M  V30 4244 H 402.178 -4.31642 -0.432168 0
M  V30 4245 H 402.849 -5.22074 -1.79284 0
M  V30 4246 H 405.325 -3.39429 -2.4068 0
M  V30 4247 H 404.201 -4.20603 -3.52682 0
M  V30 4248 H 404.462 -2.47437 -3.6637 0
M  V30 4249 N 403.521 0.559213 -1.47345 0
M  V30 4250 C 404.469 1.68747 -1.60085 0
M  V30 4251 C 405.463 1.628 -0.46825 0
M  V30 4252 O 406.669 1.68009 -0.645977 0
M  V30 4253 H 403.044 0.558329 -0.503759 0
M  V30 4254 H 405.015 1.55138 -2.54902 0
M  V30 4255 C 403.764 3.07103 -1.63042 0
M  V30 4256 H 403.087 3.12361 -2.49541 0
M  V30 4257 H 404.527 3.85743 -1.76006 0
M  V30 4258 C 402.986 3.34935 -0.363357 0
M  V30 4259 O 403.516 3.98102 0.536416 0
M  V30 4260 N 401.722 2.89574 -0.244 0
M  V30 4261 H 401.269 2.38348 -0.977133 0
M  V30 4262 H 401.227 3.08566 0.602836 0
M  V30 4263 N 404.999 1.35443 0.805782 0
M  V30 4264 C 405.931 1.24285 1.92577 0
M  V30 4265 C 406.944 0.165962 1.61952 0
M  V30 4266 O 408.133 0.419303 1.73505 0
M  V30 4267 C 405.233 0.891272 3.2697 0
M  V30 4268 C 404.406 2.06669 3.85495 0
M  V30 4269 C 403.465 1.69077 4.98297 0
M  V30 4270 O 402.491 2.4096 5.15681 0
M  V30 4271 N 403.693 0.614869 5.77234 0
M  V30 4272 H 406.458 2.20777 2.02676 0
M  V30 4273 H 404.019 1.28623 0.983243 0
M  V30 4274 H 406.011 0.621256 3.99903 0
M  V30 4275 H 404.581 0.016004 3.12596 0
M  V30 4276 H 403.801 2.50046 3.04747 0
M  V30 4277 H 405.089 2.85237 4.21328 0
M  V30 4278 H 404.487 0.017648 5.65697 0
M  V30 4279 H 403.044 0.404636 6.50543 0
M  V30 4280 N 406.477 -1.02803 1.19454 0
M  V30 4281 C 407.44 -2.09264 0.934955 0
M  V30 4282 C 408.44 -1.60576 -0.0849015 0
M  V30 4283 O 409.63 -1.73554 0.149933 0
M  V30 4284 C 406.762 -3.38482 0.40531 0
M  V30 4285 H 407.955 -2.33726 1.87916 0
M  V30 4286 H 405.508 -1.19426 1.00832 0
M  V30 4287 H 406.243 -3.19689 -0.544899 0
M  V30 4288 H 406.028 -3.75142 1.14065 0
M  V30 4289 H 407.518 -4.16894 0.242806 0
M  V30 4290 N 407.956 -0.998596 -1.21925 0
M  V30 4291 C 408.888 -0.511879 -2.23411 0
M  V30 4292 C 409.901 0.396094 -1.57908 0
M  V30 4293 O 411.09 0.197316 -1.77406 0
M  V30 4294 C 408.19 0.276802 -3.37768 0
M  V30 4295 C 407.363 -0.628687 -4.32858 0
M  V30 4296 C 406.422 0.109272 -5.26087 0
M  V30 4297 O 405.448 -0.507237 -5.66935 0
M  V30 4298 N 406.65 1.38983 -5.63617 0
M  V30 4299 H 409.415 -1.38457 -2.658 0
M  V30 4300 H 406.976 -0.873981 -1.36283 0
M  V30 4301 H 408.968 0.77928 -3.97126 0
M  V30 4302 H 407.538 1.05063 -2.94415 0
M  V30 4303 H 406.758 -1.31175 -3.71735 0
M  V30 4304 H 408.046 -1.24514 -4.93329 0
M  V30 4305 H 407.444 1.91194 -5.32411 0
M  V30 4306 H 406.001 1.83739 -6.25367 0
M  V30 4307 N 409.434 1.37368 -0.772513 0
M  V30 4308 C 410.68 1.99969 -0.337681 0
M  V30 4309 C 411.013 1.61184 1.08321 0
M  V30 4310 O 410.288 0.858395 1.74533 0
M  V30 4311 C 410.571 3.56858 -0.482121 0
M  V30 4312 C 410.424 4.0555 -1.94549 0
M  V30 4313 C 411.743 4.39955 0.113143 0
M  V30 4314 H 408.862 0.726464 -0.124171 0
M  V30 4315 H 411.504 1.63034 -0.975699 0
M  V30 4316 H 409.654 3.88452 0.0610361 0
M  V30 4317 H 411.326 3.84518 -2.54841 0
M  V30 4318 H 409.569 3.57715 -2.45403 0
M  V30 4319 H 410.24 5.14587 -1.9976 0
M  V30 4320 H 412.716 4.14623 -0.35031 0
M  V30 4321 H 411.592 5.48897 -0.0180514 0
M  V30 4322 H 411.853 4.25403 1.20354 0
M  V30 4323 N 410.912 0.523116 1.48665 0
M  V30 4324 C 411.844 -0.280421 2.27478 0
M  V30 4325 C 412.857 -0.910694 1.34945 0
M  V30 4326 O 414.046 -0.790295 1.60052 0
M  V30 4327 C 411.146 -1.41171 3.08097 0
M  V30 4328 C 410.319 -0.884642 4.28361 0
M  V30 4329 C 409.378 -1.89622 4.90846 0
M  V30 4330 O 408.404 -1.4559 5.50265 0
M  V30 4331 N 409.606 -3.22801 4.82472 0
M  V30 4332 H 412.371 0.395481 2.97079 0
M  V30 4333 H 409.932 0.357018 1.57915 0
M  V30 4334 H 411.924 -2.08645 3.4677 0
M  V30 4335 H 410.494 -1.99139 2.40961 0
M  V30 4336 H 409.714 -0.0341177 3.94185 0
M  V30 4337 H 411.002 -0.511268 5.06225 0
M  V30 4338 H 410.4 -3.61246 4.35336 0
M  V30 4339 H 408.957 -3.85927 5.25265 0
M  V30 4340 N 412.39 -1.55475 0.257931 0
M  V30 4341 C 413.806 -1.59307 -0.0966563 0
M  V30 4342 C 414.006 -1.27514 -1.5602 0
M  V30 4343 O 413.062 -1.02774 -2.30637 0
M  V30 4344 C 414.375 -2.99552 0.262481 0
M  V30 4345 C 415.923 -3.1231 0.207683 0
M  V30 4346 C 416.398 -4.54793 0.541012 0
M  V30 4347 N 417.889 -4.6058 0.491921 0
M  V30 4348 C 418.624 -5.68825 0.722857 0
M  V30 4349 N 418.12 -6.85287 1.0175 0
M  V30 4350 N 419.913 -5.58296 0.652815 0
M  V30 4351 H 412.064 -1.74409 1.21224 0
M  V30 4352 H 414.327 -0.812424 0.48854 0
M  V30 4353 H 414.033 -3.27593 1.27967 0
M  V30 4354 H 413.907 -3.75019 -0.40508 0
M  V30 4355 H 416.294 -2.84044 -0.800195 0
M  V30 4356 H 416.375 -2.39095 0.909255 0
M  V30 4357 H 416.019 -4.83783 1.5465 0
M  V30 4358 H 415.949 -5.26285 -0.18216 0
M  V30 4359 H 418.44 -3.7691 0.273366 0
M  V30 4360 H 418.753 -7.63725 1.18084 0
M  V30 4361 H 417.098 -6.86945 1.05509 0
M  V30 4362 H 420.289 -4.66189 0.422592 0
M  V30 4363 H 420.462 -6.42582 0.836182 0
M  V30 4364 N 413.868 0.0150385 -1.57593 0
M  V30 4365 C 415.098 0.713359 -1.93894 0
M  V30 4366 C 415.506 1.68663 -0.857289 0
M  V30 4367 O 414.849 1.82876 0.173788 0
M  V30 4368 C 414.911 1.51348 -3.26089 0
M  V30 4369 C 414.575 0.703451 -4.51554 0
M  V30 4370 C 415.572 -0.00237924 -5.199 0
M  V30 4371 C 413.257 0.653854 -4.98026 0
M  V30 4372 C 415.251 -0.746955 -6.33008 0
M  V30 4373 C 412.938 -0.0944578 -6.11027 0
M  V30 4374 C 413.936 -0.793609 -6.78374 0
M  V30 4375 O 413.624 -1.52974 -7.89211 0
M  V30 4376 H 413.356 0.204637 -0.644282 0
M  V30 4377 H 415.91 -0.0276411 -2.05381 0
M  V30 4378 H 414.14 2.29862 -3.10967 0
M  V30 4379 H 415.829 2.09572 -3.47612 0
M  V30 4380 H 416.595 0.0268803 -4.84993 0
M  V30 4381 H 412.474 1.18756 -4.45441 0
M  V30 4382 H 416.018 -1.2932 -6.85509 0
M  V30 4383 H 411.915 -0.125591 -6.45378 0
M  V30 4384 H 412.683 -1.44488 -8.05646 0
M  V30 4385 N 415.346 1.54954 0.287554 0
M  V30 4386 C 416.276 1.89839 1.35954 0
M  V30 4387 C 417.257 0.758675 1.52244 0
M  V30 4388 O 418.442 1.01557 1.65529 0
M  V30 4389 C 415.572 2.15753 2.72154 0
M  V30 4390 C 414.526 3.3159 2.70614 0
M  V30 4391 C 413.852 3.42952 4.10229 0
M  V30 4392 C 415.152 4.68359 2.31165 0
M  V30 4393 H 416.846 2.79625 1.07007 0
M  V30 4394 H 414.392 1.3454 0.513316 0
M  V30 4395 H 416.345 2.38743 3.47246 0
M  V30 4396 H 415.069 1.22752 3.02654 0
M  V30 4397 H 413.728 3.08545 1.97979 0
M  V30 4398 H 413.376 2.47443 4.37928 0
M  V30 4399 H 413.076 4.20826 4.10097 0
M  V30 4400 H 414.6 3.68218 4.87081 0
M  V30 4401 H 416.014 4.9099 2.95976 0
M  V30 4402 H 414.411 5.49044 2.42221 0
M  V30 4403 H 415.481 4.68165 1.26291 0
M  V30 4404 N 416.824 -0.551391 1.4764 0
M  V30 4405 C 418.049 -1.33837 1.58437 0
M  V30 4406 C 418.474 -1.866 0.237063 0
M  V30 4407 O 417.832 -1.6328 -0.787994 0
M  V30 4408 C 417.88 -2.48014 2.61766 0
M  V30 4409 O 416.984 -3.50419 2.1744 0
M  V30 4410 H 416.325 -0.397299 0.532024 0
M  V30 4411 H 418.855 -0.665759 1.93465 0
M  V30 4412 H 418.865 -2.94503 2.82369 0
M  V30 4413 H 417.54 -2.08969 3.5959 0
M  V30 4414 H 416.117 -3.10196 2.06961 0
M  V30 4415 N 418.302 -1.35869 -0.798587 0
M  V30 4416 C 419.527 -1.32883 -1.59238 0
M  V30 4417 C 419.952 0.0894587 -1.87887 0
M  V30 4418 O 419.31 1.05869 -1.47178 0
M  V30 4419 C 419.358 -2.14892 -2.89575 0
M  V30 4420 O 418.462 -1.53512 -3.82763 0
M  V30 4421 H 417.803 -0.455236 -0.48338 0
M  V30 4422 H 420.333 -1.79024 -0.990539 0
M  V30 4423 H 420.343 -2.27139 -3.38928 0
M  V30 4424 H 419.018 -3.17998 -2.68049 0
M  V30 4425 H 417.595 -1.50153 -3.41334 0
M  V30 4426 N 419.78 1.02168 -1.19998 0
M  V30 4427 C 421.196 1.27969 -0.953737 0
M  V30 4428 C 421.396 1.98079 0.369703 0
M  V30 4429 O 420.452 2.27306 1.09947 0
M  V30 4430 C 421.765 2.11971 -2.13281 0
M  V30 4431 C 423.313 2.25255 -2.17323 0
M  V30 4432 C 423.788 3.12632 -3.34702 0
M  V30 4433 N 425.279 3.2022 -3.34684 0
M  V30 4434 C 426.014 3.88039 -4.22153 0
M  V30 4435 N 425.51 4.58027 -5.19791 0
M  V30 4436 N 427.303 3.84511 -4.10009 0
M  V30 4437 H 419.454 0.550794 -2.05134 0
M  V30 4438 H 421.717 0.305683 -0.897364 0
M  V30 4439 H 421.423 1.67785 -3.09097 0
M  V30 4440 H 421.297 3.12699 -2.10949 0
M  V30 4441 H 423.684 2.68667 -1.22073 0
M  V30 4442 H 423.765 1.24053 -2.23706 0
M  V30 4443 H 423.409 2.69926 -4.30235 0
M  V30 4444 H 423.339 4.13909 -3.25556 0
M  V30 4445 H 425.83 2.70382 -2.64012 0
M  V30 4446 H 426.143 5.07429 -5.82868 0
M  V30 4447 H 424.488 4.56869 -5.23733 0
M  V30 4448 H 427.679 3.28978 -3.33003 0
M  V30 4449 H 427.852 4.3709 -4.78389 0
M  V30 4450 N 421.258 1.00505 1.21394 0
M  V30 4451 C 422.486 0.706609 1.9446 0
M  V30 4452 C 422.901 -0.73081 1.74082 0
M  V30 4453 O 422.258 -1.49446 1.04747 0
M  V30 4454 C 422.309 1.01824 3.46863 0
M  V30 4455 O 422.03 2.39919 3.66566 0
M  V30 4456 C 423.531 0.739216 4.37093 0
M  V30 4457 H 420.751 0.260394 0.618414 0
M  V30 4458 H 423.295 1.34311 1.54211 0
M  V30 4459 H 421.45 0.427343 3.85036 0
M  V30 4460 H 421.864 2.50784 4.6066 0
M  V30 4461 H 423.338 1.00744 5.42729 0
M  V30 4462 H 423.815 -0.326746 4.37983 0
M  V30 4463 H 424.421 1.31173 4.04566 0
M  V30 4464 N 422.737 -1.36956 0.779787 0
M  V30 4465 C 423.647 -2.33965 0.172491 0
M  V30 4466 C 424.663 -1.60574 -0.670222 0
M  V30 4467 O 425.839 -1.92617 -0.588263 0
M  V30 4468 C 422.904 -3.39761 -0.690173 0
M  V30 4469 C 421.965 -4.28964 0.169924 0
M  V30 4470 C 421.198 -5.29707 -0.651662 0
M  V30 4471 O 421.421 -5.38238 -1.88827 0
M  V30 4472 O 420.355 -6.01873 -0.0566264 0
M  V30 4473 H 424.181 -2.87647 0.974321 0
M  V30 4474 H 421.766 -1.39258 0.541078 0
M  V30 4475 H 423.648 -4.04471 -1.1824 0
M  V30 4476 H 422.323 -2.88394 -1.47006 0
M  V30 4477 H 421.23 -3.67326 0.708696 0
M  V30 4478 H 422.563 -4.83656 0.913085 0
M  V30 4479 N 424.215 -0.530993 -1.48385 0
M  V30 4480 C 425.162 0.231223 -2.29639 0
M  V30 4481 C 426.132 0.932864 -1.37429 0
M  V30 4482 O 427.317 0.933692 -1.66394 0
M  V30 4483 C 424.457 1.27155 -3.2082 0
M  V30 4484 C 423.57 0.578655 -4.28107 0
M  V30 4485 C 422.705 1.602 -5.06467 0
M  V30 4486 C 421.744 0.892625 -6.05556 0
M  V30 4487 N 420.881 1.86157 -6.76971 0
M  V30 4488 H 425.721 -0.467848 -2.94305 0
M  V30 4489 H 423.258 -0.242556 -1.45086 0
M  V30 4490 H 425.216 1.88703 -3.72085 0
M  V30 4491 H 423.846 1.939 -2.58075 0
M  V30 4492 H 422.898 -0.150782 -3.80101 0
M  V30 4493 H 424.21 0.0217065 -4.98795 0
M  V30 4494 H 423.364 2.29173 -5.61751 0
M  V30 4495 H 422.103 2.19285 -4.35621 0
M  V30 4496 H 421.108 0.188829 -5.49476 0
M  V30 4497 H 422.333 0.307878 -6.78402 0
M  V30 4498 H 420.279 2.44147 -6.08875 0
M  V30 4499 H 420.196 1.35608 -7.43738 0
M  V30 4500 H 421.464 2.54325 -7.36844 0
M  V30 4501 N 425.693 1.55336 -0.266172 0
M  V30 4502 C 426.656 2.20878 0.612001 0
M  V30 4503 C 427.656 1.18388 1.08816 0
M  V30 4504 O 428.846 1.4335 0.989774 0
M  V30 4505 C 425.978 2.86765 1.84332 0
M  V30 4506 H 427.171 2.99873 0.0398718 0
M  V30 4507 H 424.724 1.56291 -0.0167309 0
M  V30 4508 H 425.459 2.11759 2.45619 0
M  V30 4509 H 425.244 3.61862 1.5099 0
M  V30 4510 H 426.734 3.36867 2.46801 0
M  V30 4511 N 427.171 -0.0066808 1.57599 0
M  V30 4512 C 428.134 -0.985035 2.06953 0
M  V30 4513 C 429.134 -1.27663 0.977687 0
M  V30 4514 O 430.324 -1.22293 1.24057 0
M  V30 4515 C 427.456 -2.3118 2.50536 0
M  V30 4516 H 428.649 -0.558255 2.94658 0
M  V30 4517 H 426.202 -0.254011 1.54222 0
M  V30 4518 H 426.937 -2.78561 1.66054 0
M  V30 4519 H 426.722 -2.11338 3.3027 0
M  V30 4520 H 428.212 -3.01377 2.8907 0
M  V30 4521 N 428.649 -1.55105 -0.279332 0
M  V30 4522 C 429.895 -1.75672 -1.01327 0
M  V30 4523 C 430.228 -0.552739 -1.86168 0
M  V30 4524 O 429.503 0.449827 -1.89227 0
M  V30 4525 C 429.786 -3.05825 -1.90114 0
M  V30 4526 C 429.639 -4.36565 -1.08309 0
M  V30 4527 C 430.958 -3.31975 -2.8893 0
M  V30 4528 H 428.077 -0.639149 -0.366957 0
M  V30 4529 H 430.719 -1.87833 -0.286154 0
M  V30 4530 H 428.869 -2.95588 -2.52111 0
M  V30 4531 H 430.541 -4.58751 -0.484314 0
M  V30 4532 H 428.784 -4.32076 -0.386362 0
M  V30 4533 H 429.455 -5.23946 -1.73737 0
M  V30 4534 H 431.931 -3.41963 -2.37067 0
M  V30 4535 H 430.807 -4.2432 -3.48201 0
M  V30 4536 H 431.068 -2.51309 -3.63725 0
M  V30 4537 N 430.127 0.543554 -1.4793 0
M  V30 4538 C 431.057 1.65888 -1.64327 0
M  V30 4539 C 432.038 1.62818 -0.492383 0
M  V30 4540 O 433.223 1.80226 -0.723338 0
M  V30 4541 C 430.353 3.04506 -1.67013 0
M  V30 4542 C 429.307 3.2243 -2.81466 0
M  V30 4543 C 428.633 4.61972 -2.69233 0
M  V30 4544 C 429.933 3.06496 -4.22915 0
M  V30 4545 H 431.627 1.52421 -2.57698 0
M  V30 4546 H 429.173 0.731849 -1.24016 0
M  V30 4547 H 431.126 3.82391 -1.77074 0
M  V30 4548 H 429.85 3.18964 -0.70212 0
M  V30 4549 H 428.509 2.46957 -2.70938 0
M  V30 4550 H 428.157 4.73247 -1.7043 0
M  V30 4551 H 427.857 4.74911 -3.46025 0
M  V30 4552 H 429.381 5.41974 -2.81242 0
M  V30 4553 H 430.795 3.74186 -4.34348 0
M  V30 4554 H 429.192 3.30938 -5.006 0
M  V30 4555 H 430.262 2.03077 -4.40327 0
M  V30 4556 N 431.605 1.3629 0.791371 0
M  V30 4557 C 432.83 1.33726 1.58531 0
M  V30 4558 C 433.255 -0.0794933 1.87932 0
M  V30 4559 O 432.613 -1.05087 1.47738 0
M  V30 4560 C 432.661 2.16425 2.88431 0
M  V30 4561 O 431.765 1.5554 3.81944 0
M  V30 4562 H 431.106 0.457793 0.480959 0
M  V30 4563 H 433.636 1.79547 0.981031 0
M  V30 4564 H 433.646 2.28933 3.37718 0
M  V30 4565 H 432.321 3.19415 2.66359 0
M  V30 4566 H 430.898 1.51961 3.40532 0
M  V30 4567 N 433.083 -1.0153 1.20538 0
M  V30 4568 C 434.323 -1.76689 1.02763 0
M  V30 4569 C 434.687 -1.87065 -0.432513 0
M  V30 4570 O 435.888 -2.58684 -0.730481 0
M  V30 4571 C 434.159 -3.14707 1.69393 0
M  V30 4572 S 435.718 -4.05886 1.66738 0
M  V30 4573 H 432.536 -0.608076 0.368463 0
M  V30 4574 H 435.138 -1.21558 1.53114 0
M  V30 4575 H 433.842 -3.04782 2.74838 0
M  V30 4576 H 433.373 -3.74913 1.19179 0
M  V30 4577 H 435.388 -4.91221 0.70117 0
M  V30 4578 N 434.561 -1.01147 -1.20859 0
M  V30 4579 C 435.791 -0.715872 -1.93801 0
M  V30 4580 C 436.199 0.726592 -1.74692 0
M  V30 4581 O 435.542 1.50397 -1.05482 0
M  V30 4582 C 435.604 -0.965269 -3.46299 0
M  V30 4583 C 435.268 -2.39584 -3.89164 0
M  V30 4584 C 436.265 -3.3764 -3.95342 0
M  V30 4585 C 433.95 -2.73522 -4.21297 0
M  V30 4586 C 435.944 -4.67698 -4.33056 0
M  V30 4587 C 433.631 -4.03794 -4.58687 0
M  V30 4588 C 434.629 -5.00693 -4.64538 0
M  V30 4589 O 434.317 -6.28635 -5.01072 0
M  V30 4590 H 434.049 -0.262524 -0.622942 0
M  V30 4591 H 436.603 -1.35413 -1.54443 0
M  V30 4592 H 434.833 -0.269847 -3.85757 0
M  V30 4593 H 436.522 -0.662051 -4.00464 0
M  V30 4594 H 437.288 -3.12757 -3.70686 0
M  V30 4595 H 433.167 -1.9879 -4.15937 0
M  V30 4596 H 436.711 -5.4333 -4.37537 0
M  V30 4597 H 432.608 -4.28459 -4.82797 0
M  V30 4598 H 433.376 -6.32847 -5.19083 0
M  V30 4599 N 436.039 1.36541 -0.78704 0
M  V30 4600 C 437.002 2.28413 -0.189778 0
M  V30 4601 C 438.002 1.48719 0.611499 0
M  V30 4602 O 439.192 1.68737 0.432842 0
M  V30 4603 C 436.324 3.32824 0.737638 0
M  V30 4604 H 437.517 2.82743 -0.999831 0
M  V30 4605 H 435.07 1.46065 -0.556298 0
M  V30 4606 H 435.805 2.83646 1.57212 0
M  V30 4607 H 435.59 3.91752 0.165044 0
M  V30 4608 H 437.08 4.0144 1.15047 0
M  V30 4609 N 437.518 0.538854 1.48102 0
M  V30 4610 C 438.764 0.00801365 2.02798 0
M  V30 4611 C 439.097 -1.3309 1.41424 0
M  V30 4612 O 438.372 -1.86169 0.563158 0
M  V30 4613 C 438.655 -0.104589 3.59948 0
M  V30 4614 C 438.508 1.26012 4.31788 0
M  V30 4615 C 439.827 -0.827055 4.32259 0
M  V30 4616 H 436.946 0.00438624 0.736987 0
M  V30 4617 H 439.588 0.6976 1.7673 0
M  V30 4618 H 437.738 -0.691893 3.82289 0
M  V30 4619 H 439.41 1.88922 4.2084 0
M  V30 4620 H 437.653 1.83968 3.92859 0
M  V30 4621 H 438.324 1.13424 5.40221 0
M  V30 4622 H 440.8 -0.328578 4.14801 0
M  V30 4623 H 439.676 -0.87476 5.41885 0
M  V30 4624 H 439.937 -1.87927 4.0017 0
M  V30 4625 N 438.996 -1.55193 0.274407 0
M  V30 4626 C 440.243 -1.99581 -0.342579 0
M  V30 4627 C 440.571 -1.1628 -1.55914 0
M  V30 4628 O 439.826 -0.22029 -1.94456 0
M  V30 4629 C 440.125 -3.49019 -0.769458 0
M  V30 4630 C 439.791 -4.49598 0.342389 0
M  V30 4631 C 438.453 -4.76821 0.647686 0
M  V30 4632 C 440.805 -5.0964 1.09163 0
M  V30 4633 C 438.133 -5.61354 1.70581 0
M  V30 4634 C 440.485 -5.95323 2.13948 0
M  V30 4635 C 439.149 -6.20867 2.45113 0
M  V30 4636 H 438.419 -0.730319 -0.125358 0
M  V30 4637 H 441.066 -1.87529 0.387971 0
M  V30 4638 H 439.371 -3.58544 -1.57967 0
M  V30 4639 H 441.068 -3.8077 -1.25757 0
M  V30 4640 H 437.658 -4.28496 0.094318 0
M  V30 4641 H 441.842 -4.88632 0.869024 0
M  V30 4642 H 437.098 -5.79392 1.9523 0
M  V30 4643 H 441.272 -6.40881 2.72478 0
M  V30 4644 H 438.899 -6.86162 3.27239 0
M  V30 4645 N 440.474 -0.00167713 -1.576 0
M  V30 4646 C 441.885 0.54091 -1.78693 0
M  V30 4647 C 442.236 1.7386 -0.909247 0
M  V30 4648 O 441.361 2.16109 -0.112176 0
M  V30 4649 C 441.956 0.98806 -3.24072 0
M  V30 4650 C 440.515 1.47594 -3.46256 0
M  V30 4651 C 439.662 0.42792 -2.73978 0
M  V30 4652 H 442.613 -0.22784 -1.57056 0
M  V30 4653 H 442.634 1.85398 -3.32277 0
M  V30 4654 H 442.146 0.116164 -3.87926 0
M  V30 4655 H 440.247 2.36868 -2.87618 0
M  V30 4656 H 440.36 1.50225 -4.54939 0
M  V30 4657 H 438.724 0.889934 -2.38647 0
M  V30 4658 H 439.507 -0.435038 -3.40532 0
M  V30 4659 N 441.952 1.55251 0.271103 0
M  V30 4660 C 443.199 1.75946 1.00245 0
M  V30 4661 C 443.527 0.561611 1.86215 0
M  V30 4662 O 442.782 -0.455832 1.90317 0
M  V30 4663 C 443.081 3.01879 1.91321 0
M  V30 4664 C 442.747 4.34337 1.21086 0
M  V30 4665 C 441.409 4.70338 1.01666 0
M  V30 4666 C 443.761 5.16325 0.71119 0
M  V30 4667 C 441.089 5.8588 0.310099 0
M  V30 4668 C 443.441 6.32597 0.0182157 0
M  V30 4669 C 442.105 6.67236 -0.18768 0
M  V30 4670 H 441.375 0.643833 0.366824 0
M  V30 4671 H 444.022 1.89521 0.27458 0
M  V30 4672 H 442.327 2.83212 2.70736 0
M  V30 4673 H 444.024 3.15088 2.48033 0
M  V30 4674 H 440.614 4.06043 1.37213 0
M  V30 4675 H 444.798 4.88987 0.848844 0
M  V30 4676 H 440.054 6.1124 0.139873 0
M  V30 4677 H 444.228 6.9538 -0.376711 0
M  V30 4678 H 441.855 7.56618 -0.73715 0
M  V30 4679 N 443.43 -0.535701 1.48216 0
M  V30 4680 C 444.362 -1.65662 1.58394 0
M  V30 4681 C 445.375 -1.5591 0.468607 0
M  V30 4682 O 446.564 -1.62475 0.7392 0
M  V30 4683 C 443.664 -3.04276 1.4923 0
M  V30 4684 C 442.837 -3.39567 2.75705 0
M  V30 4685 C 441.896 -4.57436 2.60075 0
M  V30 4686 O 440.922 -4.60942 3.33948 0
M  V30 4687 N 442.124 -5.55259 1.69315 0
M  V30 4688 H 444.889 -1.5737 2.55058 0
M  V30 4689 H 442.45 -0.722845 1.44867 0
M  V30 4690 H 444.442 -3.80994 1.36477 0
M  V30 4691 H 443.012 -3.06677 0.605632 0
M  V30 4692 H 442.232 -2.52083 3.03064 0
M  V30 4693 H 443.52 -3.59929 3.59623 0
M  V30 4694 H 442.918 -5.552 1.08489 0
M  V30 4695 H 441.475 -6.31218 1.62504 0
M  V30 4696 N 444.908 -1.36708 -0.784132 0
M  V30 4697 C 445.84 -1.27333 -1.90575 0
M  V30 4698 C 446.853 -0.191706 -1.61667 0
M  V30 4699 O 448.042 -0.446854 -1.72816 0
M  V30 4700 C 445.142 -0.943177 -3.25511 0
M  V30 4701 C 444.315 -2.12776 -3.82158 0
M  V30 4702 C 443.374 -1.76983 -4.95544 0
M  V30 4703 O 442.4 -2.49134 -5.11782 0
M  V30 4704 N 443.602 -0.706624 -5.76183 0
M  V30 4705 H 446.367 -2.23974 -1.99138 0
M  V30 4706 H 443.928 -1.30171 -0.962656 0
M  V30 4707 H 445.92 -0.684799 -3.98864 0
M  V30 4708 H 444.49 -0.0657333 -3.12531 0
M  V30 4709 H 443.71 -2.54863 -3.0073 0
M  V30 4710 H 444.998 -2.91904 -4.16737 0
M  V30 4711 H 444.396 -0.107643 -5.65598 0
M  V30 4712 H 442.953 -0.50808 -6.49817 0
M  V30 4713 N 446.386 1.0089 -1.21074 0
M  V30 4714 C 447.632 1.74866 -1.02712 0
M  V30 4715 C 447.965 1.89178 0.438787 0
M  V30 4716 O 447.24 1.42325 1.32567 0
M  V30 4717 C 447.523 3.16347 -1.72036 0
M  V30 4718 C 447.376 3.09782 -3.26121 0
M  V30 4719 C 448.695 4.15187 -1.45973 0
M  V30 4720 H 445.814 0.634736 -0.374539 0
M  V30 4721 H 448.456 1.17646 -1.49196 0
M  V30 4722 H 446.606 3.65201 -1.32517 0
M  V30 4723 H 448.278 2.68673 -3.74983 0
M  V30 4724 H 446.521 2.46982 -3.56626 0
M  V30 4725 H 447.192 4.09829 -3.6979 0
M  V30 4726 H 449.668 3.75022 -1.80272 0
M  V30 4727 H 448.544 5.12331 -1.96999 0
M  V30 4728 H 448.805 4.40386 -0.388924 0
M  V30 4729 N 447.864 1.01787 1.20321 0
M  V30 4730 C 449.089 0.727009 1.9424 0
M  V30 4731 C 449.514 -0.706179 1.74341 0
M  V30 4732 O 448.872 -1.48609 1.03852 0
M  V30 4733 C 448.92 1.06958 3.44372 0
M  V30 4734 O 448.024 0.181983 4.11998 0
M  V30 4735 H 447.365 0.269626 0.606793 0
M  V30 4736 H 449.895 1.36158 1.52716 0
M  V30 4737 H 449.905 1.02182 3.94997 0
M  V30 4738 H 448.58 2.11378 3.58179 0
M  V30 4739 H 447.157 0.287378 3.71791 0
M  V30 4740 N 449.342 -1.36122 0.79427 0
M  V30 4741 C 450.272 -2.32551 0.210328 0
M  V30 4742 C 451.253 -1.56884 -0.657386 0
M  V30 4743 O 452.438 -1.85014 -0.590207 0
M  V30 4744 C 449.568 -3.41128 -0.651819 0
M  V30 4745 C 448.522 -4.27842 0.116395 0
M  V30 4746 C 447.848 -5.2763 -0.86666 0
M  V30 4747 C 449.148 -5.05647 1.30837 0
M  V30 4748 H 450.842 -2.81636 1.01594 0
M  V30 4749 H 448.388 -1.35407 0.489981 0
M  V30 4750 H 450.341 -4.07581 -1.07031 0
M  V30 4751 H 449.065 -2.90622 -1.49019 0
M  V30 4752 H 447.724 -3.62952 0.515915 0
M  V30 4753 H 447.372 -4.73395 -1.70019 0
M  V30 4754 H 447.072 -5.86514 -0.35705 0
M  V30 4755 H 448.596 -5.96955 -1.28361 0
M  V30 4756 H 450.01 -5.65113 0.965393 0
M  V30 4757 H 448.407 -5.73967 1.75161 0
M  V30 4758 H 449.477 -4.37006 2.10128 0
M  V30 4759 N 450.82 -0.546701 -1.47814 0
M  V30 4760 C 452.06 -0.0209604 -2.04389 0
M  V30 4761 C 452.424 1.29993 -1.413 0
M  V30 4762 O 453.625 1.91273 -1.8886 0
M  V30 4763 C 451.896 0.0812844 -3.57308 0
M  V30 4764 S 453.455 0.55467 -4.3528 0
M  V30 4765 H 450.273 -0.0200865 -0.710716 0
M  V30 4766 H 452.875 -0.731055 -1.81317 0
M  V30 4767 H 451.579 -0.884616 -4.00753 0
M  V30 4768 H 451.11 0.815253 -3.8486 0
M  V30 4769 H 453.125 1.81627 -4.61764 0
M  V30 4770 N 452.299 1.55045 -0.282633 0
M  V30 4771 C 453.545 2.00056 0.332481 0
M  V30 4772 C 453.878 1.1708 1.54939 0
M  V30 4773 O 453.153 0.2427 1.9298 0
M  V30 4774 C 453.436 3.53086 0.70725 0
M  V30 4775 C 453.289 4.46813 -0.517521 0
M  V30 4776 C 454.608 4.12245 1.54084 0
M  V30 4777 H 451.727 0.727268 0.119373 0
M  V30 4778 H 454.369 1.85932 -0.391076 0
M  V30 4779 H 452.519 3.65253 1.32372 0
M  V30 4780 H 454.191 4.46579 -1.15607 0
M  V30 4781 H 452.434 4.18163 -1.1542 0
M  V30 4782 H 453.105 5.51595 -0.211426 0
M  V30 4783 H 455.581 4.03401 1.02013 0
M  V30 4784 H 454.457 5.19515 1.77186 0
M  V30 4785 H 454.718 3.62951 2.52427 0
M  V30 4786 N 453.777 0.010035 1.57597 0
M  V30 4787 C 455.025 -0.671371 1.90623 0
M  V30 4788 C 455.346 -1.73753 0.885151 0
M  V30 4789 O 454.616 -1.95752 -0.0760611 0
M  V30 4790 H 453.196 -0.250968 0.703579 0
M  V30 4791 H 455.858 0.0533325 1.94827 0
M  V30 4792 H 454.954 -1.13626 2.90681 0
M  V30 4793 N 455.255 -1.55392 -0.262866 0
M  V30 4794 C 456.495 -1.78231 -1.00064 0
M  V30 4795 C 456.859 -0.576966 -1.83126 0
M  V30 4796 O 458.06 -0.683809 -2.59957 0
M  V30 4797 C 456.331 -3.05701 -1.85153 0
M  V30 4798 S 457.89 -3.49699 -2.65058 0
M  V30 4799 H 454.708 -0.626138 -0.336856 0
M  V30 4800 H 457.31 -1.93626 -0.27005 0
M  V30 4801 H 456.014 -3.91511 -1.23074 0
M  V30 4802 H 455.545 -2.93 -2.62515 0
M  V30 4803 H 457.56 -3.09772 -3.87629 0
M  V30 4804 N 456.733 0.527833 -1.48498 0
M  V30 4805 C 457.663 1.64136 -1.66077 0
M  V30 4806 C 458.644 1.62286 -0.509625 0
M  V30 4807 O 459.829 1.79449 -0.742413 0
M  V30 4808 C 456.959 3.02717 -1.70234 0
M  V30 4809 C 455.913 3.19426 -2.8487 0
M  V30 4810 C 455.239 4.5909 -2.74118 0
M  V30 4811 C 456.539 3.01993 -4.26142 0
M  V30 4812 H 458.233 1.4968 -2.593 0
M  V30 4813 H 455.779 0.718654 -1.24785 0
M  V30 4814 H 457.732 3.80491 -1.8112 0
M  V30 4815 H 456.456 3.18201 -0.735911 0
M  V30 4816 H 455.115 2.4407 -2.73542 0
M  V30 4817 H 454.763 4.71413 -1.7544 0
M  V30 4818 H 454.463 4.71214 -3.51042 0
M  V30 4819 H 455.987 5.3896 -2.86974 0
M  V30 4820 H 457.401 3.69558 -4.38292 0
M  V30 4821 H 455.798 3.2561 -5.04082 0
M  V30 4822 H 456.868 1.98396 -4.42456 0
M  V30 4823 N 458.211 1.37122 0.776871 0
M  V30 4824 C 459.46 1.31373 1.53049 0
M  V30 4825 C 459.773 -0.101016 1.95339 0
M  V30 4826 O 460.979 -0.280953 2.70042 0
M  V30 4827 C 459.435 2.30567 2.76346 0
M  V30 4828 C 459.043 3.77543 2.41175 0
M  V30 4829 C 460.787 2.33818 3.54301 0
M  V30 4830 C 458.694 4.68481 3.60943 0
M  V30 4831 H 457.624 0.488234 0.574581 0
M  V30 4832 H 460.275 1.62554 0.851372 0
M  V30 4833 H 458.657 1.92396 3.46121 0
M  V30 4834 H 459.831 4.24521 1.79216 0
M  V30 4835 H 458.146 3.77187 1.76405 0
M  V30 4836 H 460.743 2.98965 4.4331 0
M  V30 4837 H 461.086 1.3503 3.93793 0
M  V30 4838 H 461.619 2.7067 2.91518 0
M  V30 4839 H 458.358 5.68378 3.26537 0
M  V30 4840 H 457.878 4.2621 4.22025 0
M  V30 4841 H 459.557 4.85366 4.27819 0
M  V30 4842 N 459.689 -1.00246 1.21608 0
M  V30 4843 C 460.937 -1.73717 1.0328 0
M  V30 4844 C 461.258 -1.90102 -0.434318 0
M  V30 4845 O 460.528 -1.45376 -1.31311 0
M  V30 4846 H 459.108 -0.643613 0.379172 0
M  V30 4847 H 461.77 -1.20787 1.52959 0
M  V30 4848 H 460.866 -2.73535 1.50283 0
M  V30 4849 N 461.167 -1.02423 -1.1978 0
M  V30 4850 C 462.097 -0.62157 -2.25075 0
M  V30 4851 C 463.078 0.367148 -1.6609 0
M  V30 4852 O 464.263 0.250892 -1.92573 0
M  V30 4853 C 461.393 0.0331826 -3.47284 0
M  V30 4854 C 460.347 -0.877323 -4.18912 0
M  V30 4855 C 459.673 -0.0879296 -5.34628 0
M  V30 4856 C 460.973 -2.18892 -4.74219 0
M  V30 4857 H 462.667 -1.50179 -2.59011 0
M  V30 4858 H 460.213 -0.723547 -1.24502 0
M  V30 4859 H 462.166 0.326488 -4.20133 0
M  V30 4860 H 460.89 0.948164 -3.12534 0
M  V30 4861 H 459.549 -1.15475 -3.47938 0
M  V30 4862 H 459.197 0.828941 -4.96123 0
M  V30 4863 H 458.897 -0.694359 -5.83483 0
M  V30 4864 H 460.421 0.198743 -6.10276 0
M  V30 4865 H 461.835 -1.95746 -5.38847 0
M  V30 4866 H 460.232 -2.74686 -5.33542 0
M  V30 4867 H 461.302 -2.84674 -3.92541 0
M  V30 4868 N 462.645 1.35699 -0.801477 0
M  V30 4869 C 463.891 1.99208 -0.380022 0
M  V30 4870 C 464.224 1.63445 1.04878 0
M  V30 4871 O 463.499 0.895223 1.72673 0
M  V30 4872 C 463.782 3.55755 -0.557708 0
M  V30 4873 C 463.635 4.01332 -2.03107 0
M  V30 4874 C 464.954 4.40096 0.0197968 0
M  V30 4875 H 462.073 0.723667 -0.139552 0
M  V30 4876 H 464.715 1.60928 -1.01006 0
M  V30 4877 H 462.865 3.88494 -0.0213741 0
M  V30 4878 H 464.537 3.79026 -2.62939 0
M  V30 4879 H 462.78 3.52429 -2.52936 0
M  V30 4880 H 463.451 5.10234 -2.1063 0
M  V30 4881 H 465.927 4.13786 -0.438179 0
M  V30 4882 H 464.803 5.48735 -0.134477 0
M  V30 4883 H 465.064 4.2786 1.11303 0
M  V30 4884 N 464.123 0.554532 1.47522 0
M  V30 4885 C 465.056 -0.242442 2.26908 0
M  V30 4886 C 466.034 -0.922722 1.33883 0
M  V30 4887 O 467.218 -0.942244 1.63261 0
M  V30 4888 C 464.345 -1.34525 3.10839 0
M  V30 4889 C 463.391 -0.773805 4.19422 0
M  V30 4890 S 464.224 0.377525 5.34168 0
M  V30 4891 C 465.38 -0.727164 6.21662 0
M  V30 4892 H 465.613 0.431218 2.94156 0
M  V30 4893 H 463.146 0.3408 1.50592 0
M  V30 4894 H 465.104 -1.97683 3.59766 0
M  V30 4895 H 463.765 -1.99073 2.42958 0
M  V30 4896 H 462.958 -1.60187 4.77866 0
M  V30 4897 H 462.56 -0.218448 3.73361 0
M  V30 4898 H 464.852 -1.61992 6.57849 0
M  V30 4899 H 465.795 -0.180135 7.07871 0
M  V30 4900 H 466.203 -1.01863 5.55233 0
M  V30 4901 N 465.601 -1.54893 0.290851 0
M  V30 4902 C 466.848 -1.99933 -0.321391 0
M  V30 4903 C 467.176 -1.17927 -1.54672 0
M  V30 4904 O 466.431 -0.240902 -1.94212 0
M  V30 4905 C 466.73 -3.49815 -0.732397 0
M  V30 4906 C 466.396 -4.4921 0.390056 0
M  V30 4907 C 465.058 -4.76107 0.698223 0
M  V30 4908 C 467.41 -5.08453 1.14562 0
M  V30 4909 C 464.738 -5.59514 1.76526 0
M  V30 4910 C 467.09 -5.9302 2.2025 0
M  V30 4911 C 465.754 -6.18232 2.51684 0
M  V30 4912 H 465.024 -0.731608 -0.117605 0
M  V30 4913 H 467.671 -1.87107 0.407839 0
M  V30 4914 H 465.976 -3.60199 -1.54155 0
M  V30 4915 H 467.673 -3.82083 -1.21712 0
M  V30 4916 H 464.263 -4.28372 0.13976 0
M  V30 4917 H 468.447 -4.87683 0.920801 0
M  V30 4918 H 463.703 -5.77289 2.01364 0
M  V30 4919 H 467.877 -6.37955 2.7926 0
M  V30 4920 H 465.504 -6.82653 3.34499 0
M  V30 4921 N 467.08 -0.0183926 -1.57589 0
M  V30 4922 C 468.043 0.951986 -2.08494 0
M  V30 4923 C 469.043 1.26092 -0.997874 0
M  V30 4924 O 470.233 1.20304 -1.25987 0
M  V30 4925 C 467.365 2.27165 -2.54182 0
M  V30 4926 H 468.558 0.511307 -2.95509 0
M  V30 4927 H 466.111 0.229444 -1.54607 0
M  V30 4928 H 466.846 2.75884 -1.70465 0
M  V30 4929 H 466.631 2.06057 -3.33591 0
M  V30 4930 H 468.121 2.9674 -2.93828 0
M  V30 4931 N 468.558 1.5553 0.254621 0
M  V30 4932 C 469.788 1.80784 1.00004 0
M  V30 4933 C 470.196 0.59071 1.79742 0
M  V30 4934 O 469.539 -0.449988 1.78103 0
M  V30 4935 C 469.601 2.99268 1.99196 0
M  V30 4936 C 469.265 4.35595 1.38224 0
M  V30 4937 C 470.262 5.13884 0.788611 0
M  V30 4938 C 467.947 4.82281 1.40393 0
M  V30 4939 C 469.941 6.37004 0.224783 0
M  V30 4940 C 467.628 6.05351 0.836243 0
M  V30 4941 C 468.626 6.82551 0.24769 0
M  V30 4942 O 468.314 8.03297 -0.311249 0
M  V30 4943 H 468.046 0.60565 0.300274 0
M  V30 4944 H 470.6 2.03411 0.285143 0
M  V30 4945 H 468.83 2.72377 2.74496 0
M  V30 4946 H 470.519 3.11682 2.60018 0
M  V30 4947 H 471.285 4.78938 0.764423 0
M  V30 4948 H 467.164 4.22189 1.85142 0
M  V30 4949 H 470.708 6.97203 -0.235235 0
M  V30 4950 H 466.605 6.39776 0.857733 0
M  V30 4951 H 467.373 8.1825 -0.20237 0
M  V30 4952 N 470.036 -0.519951 1.48776 0
M  V30 4953 C 471.266 -1.29783 1.60748 0
M  V30 4954 C 471.674 -1.87253 0.27072 0
M  V30 4955 O 471.017 -1.67628 -0.751438 0
M  V30 4956 C 471.079 -2.47984 2.60277 0
M  V30 4957 C 470.743 -2.11526 4.051 0
M  V30 4958 C 471.74 -1.66608 4.92481 0
M  V30 4959 C 469.425 -2.21742 4.50706 0
M  V30 4960 C 471.419 -1.32384 6.23501 0
M  V30 4961 C 469.106 -1.87129 5.81744 0
M  V30 4962 C 470.104 -1.42523 6.67964 0
M  V30 4963 O 469.792 -1.0837 7.96562 0
M  V30 4964 H 469.524 -0.400562 0.544542 0
M  V30 4965 H 472.078 -0.632879 1.95407 0
M  V30 4966 H 470.308 -3.17493 2.2076 0
M  V30 4967 H 471.997 -3.10036 2.61978 0
M  V30 4968 H 472.763 -1.58178 4.58481 0
M  V30 4969 H 468.642 -2.55415 3.83776 0
M  V30 4970 H 472.186 -0.974949 6.90754 0
M  V30 4971 H 468.083 -1.95204 6.15277 0
M  V30 4972 H 468.851 -1.21681 8.09405 0
M  V30 4973 N 471.514 -1.37532 -0.769588 0
M  V30 4974 C 472.446 -1.29347 -1.89214 0
M  V30 4975 C 473.459 -0.208842 -1.61455 0
M  V30 4976 O 474.648 -0.465158 -1.72333 0
M  V30 4977 C 471.748 -0.977649 -3.24492 0
M  V30 4978 C 470.921 -2.16817 -3.7988 0
M  V30 4979 C 469.98 -1.82229 -4.93639 0
M  V30 4980 O 469.006 -2.54548 -5.09111 0
M  V30 4981 N 470.208 -0.767696 -5.75401 0
M  V30 4982 H 472.973 -2.26073 -1.96751 0
M  V30 4983 H 470.534 -1.31185 -0.948795 0
M  V30 4984 H 472.526 -0.727065 -3.98115 0
M  V30 4985 H 471.096 -0.0988777 -3.12444 0
M  V30 4986 H 470.316 -2.58038 -2.9801 0
M  V30 4987 H 471.604 -2.96308 -4.13617 0
M  V30 4988 H 471.002 -0.167626 -5.65452 0
M  V30 4989 H 469.559 -0.576973 -6.49241 0
M  V30 4990 N 472.992 0.995999 -1.22138 0
M  V30 4991 C 473.902 2.11985 -1.00496 0
M  V30 4992 C 474.918 1.7394 0.0457701 0
M  V30 4993 O 476.094 2.00868 -0.146273 0
M  V30 4994 C 473.159 3.41779 -0.582086 0
M  V30 4995 C 472.22 3.93943 -1.70608 0
M  V30 4996 C 471.453 5.17542 -1.30328 0
M  V30 4997 O 471.676 5.70114 -0.180743 0
M  V30 4998 O 470.61 5.63382 -2.11861 0
M  V30 4999 H 474.436 2.33123 -1.94647 0
M  V30 5000 H 472.021 1.10358 -1.00705 0
M  V30 5001 H 473.903 4.1989 -0.356467 0
M  V30 5002 H 472.578 3.22007 0.330592 0
M  V30 5003 H 471.485 3.17019 -1.98619 0
M  V30 5004 H 472.818 4.18141 -2.59651 0
M  V30 5005 N 474.47 1.03057 1.19235 0
M  V30 5006 C 475.7 0.746613 1.92638 0
M  V30 5007 C 476.108 -0.698708 1.75826 0
M  V30 5008 O 475.451 -1.487 1.07861 0
M  V30 5009 C 475.513 1.02024 3.44719 0
M  V30 5010 C 475.177 2.45745 3.85303 0
M  V30 5011 C 476.174 3.43887 3.8992 0
M  V30 5012 C 473.859 2.8019 4.16892 0
M  V30 5013 C 475.853 4.74529 4.2556 0
M  V30 5014 C 473.54 4.1104 4.52205 0
M  V30 5015 C 474.538 5.0802 4.56513 0
M  V30 5016 O 474.226 6.36527 4.91008 0
M  V30 5017 H 473.958 0.272401 0.618687 0
M  V30 5018 H 476.512 1.37853 1.52269 0
M  V30 5019 H 474.742 0.331184 3.85279 0
M  V30 5020 H 476.431 0.725677 3.9936 0
M  V30 5021 H 477.197 3.18614 3.65664 0
M  V30 5022 H 473.076 2.05382 4.12722 0
M  V30 5023 H 476.62 5.50222 4.28838 0
M  V30 5024 H 472.517 4.36086 4.7592 0
M  V30 5025 H 473.285 6.41025 5.08949 0
M  V30 5026 N 475.948 -1.35272 0.808662 0
M  V30 5027 C 477.359 -1.81179 0.450688 0
M  V30 5028 C 477.71 -1.67143 -1.02751 0
M  V30 5029 O 476.835 -1.20325 -1.79864 0
M  V30 5030 C 477.43 -3.28943 0.811275 0
M  V30 5031 C 475.989 -3.72985 0.505871 0
M  V30 5032 C 475.136 -2.57229 1.03578 0
M  V30 5033 H 478.087 -1.2322 1.00012 0
M  V30 5034 H 478.108 -3.80342 0.109588 0
M  V30 5035 H 477.62 -3.39127 1.88718 0
M  V30 5036 H 475.721 -3.68349 -0.561209 0
M  V30 5037 H 475.834 -4.67677 1.03995 0
M  V30 5038 H 474.198 -2.50548 0.458005 0
M  V30 5039 H 474.981 -2.7019 2.11784 0
M  V30 5040 N 477.426 -0.562348 -1.47226 0
M  V30 5041 C 478.359 0.230405 -2.27034 0
M  V30 5042 C 479.337 0.915609 -1.3437 0
M  V30 5043 O 480.521 0.933573 -1.63758 0
M  V30 5044 C 477.648 1.32874 -3.11548 0
M  V30 5045 C 476.694 0.751552 -4.19826 0
M  V30 5046 S 477.527 -0.405848 -5.3396 0
M  V30 5047 C 478.683 0.694186 -6.22038 0
M  V30 5048 H 478.916 -0.446811 -2.93923 0
M  V30 5049 H 476.449 -0.348781 -1.50409 0
M  V30 5050 H 478.407 1.95773 -3.60809 0
M  V30 5051 H 477.068 1.97782 -2.44011 0
M  V30 5052 H 476.261 1.57651 -4.78709 0
M  V30 5053 H 475.863 0.198645 -3.73472 0
M  V30 5054 H 478.155 1.58501 -6.58698 0
M  V30 5055 H 479.098 0.142592 -7.07956 0
M  V30 5056 H 479.506 0.989169 -5.55766 0
M  V30 5057 N 478.904 1.54736 -0.299062 0
M  V30 5058 C 480.129 2.04975 0.316254 0
M  V30 5059 C 480.554 1.17501 1.46885 0
M  V30 5060 O 479.912 0.178678 1.80417 0
M  V30 5061 C 479.96 3.52672 0.751997 0
M  V30 5062 O 479.064 3.68226 1.85697 0
M  V30 5063 H 478.405 0.661126 0.0617175 0
M  V30 5064 H 480.935 1.99805 -0.440341 0
M  V30 5065 H 480.945 3.94488 1.04133 0
M  V30 5066 H 479.62 4.158 -0.0911482 0
M  V30 5067 H 478.197 3.38316 1.56834 0
M  V30 5068 N 480.382 0.0267497 1.57577 0
M  V30 5069 C 481.631 -0.651736 1.9088 0
M  V30 5070 C 481.944 -1.73427 0.904576 0
M  V30 5071 O 483.15 -2.46923 1.12877 0
M  V30 5072 C 481.606 -1.21048 3.38933 0
M  V30 5073 C 481.214 -0.161362 4.47709 0
M  V30 5074 C 482.958 -1.86562 3.81307 0
M  V30 5075 C 480.865 -0.731611 5.86857 0
M  V30 5076 H 479.795 -0.247198 0.712326 0
M  V30 5077 H 482.446 0.0916641 1.83271 0
M  V30 5078 H 480.828 -2.00542 3.41466 0
M  V30 5079 H 482.002 0.61094 4.56732 0
M  V30 5080 H 480.317 0.394877 4.14523 0
M  V30 5081 H 482.914 -2.30178 4.8262 0
M  V30 5082 H 483.257 -2.70735 3.16241 0
M  V30 5083 H 483.79 -1.13762 3.81186 0
M  V30 5084 H 480.529 0.0719329 6.55461 0
M  V30 5085 H 480.049 -1.47245 5.81445 0
M  V30 5086 H 481.728 -1.22208 6.35354 0
M  V30 5087 N 481.861 -1.55662 -0.24637 0
M  V30 5088 C 482.793 -1.86811 -1.32794 0
M  V30 5089 C 483.806 -0.754413 -1.44265 0
M  V30 5090 O 484.995 -1.03253 -1.45606 0
M  V30 5091 C 482.095 -2.0397 -2.70646 0
M  V30 5092 C 481.268 -3.34832 -2.81436 0
M  V30 5093 C 480.327 -3.41727 -4.00136 0
M  V30 5094 O 479.353 -4.14934 -3.89639 0
M  V30 5095 N 480.555 -2.71058 -5.1333 0
M  V30 5096 H 483.32 -2.80174 -1.06409 0
M  V30 5097 H 480.881 -1.55906 -0.43647 0
M  V30 5098 H 482.873 -2.05924 -3.48393 0
M  V30 5099 H 481.443 -1.1735 -2.89738 0
M  V30 5100 H 480.663 -3.4519 -1.90361 0
M  V30 5101 H 481.951 -4.21085 -2.85595 0
M  V30 5102 H 481.349 -2.11314 -5.2475 0
M  V30 5103 H 479.906 -2.78704 -5.89209 0
M  V30 5104 N 483.339 0.512053 -1.4905 0
M  V30 5105 C 484.271 1.63121 -1.6101 0
M  V30 5106 C 485.284 1.55145 -0.493352 0
M  V30 5107 O 486.473 1.61278 -0.764955 0
M  V30 5108 C 483.573 3.01863 -1.54052 0
M  V30 5109 C 482.746 3.35138 -2.81072 0
M  V30 5110 C 481.805 4.5324 -2.67319 0
M  V30 5111 O 480.831 4.55571 -3.41238 0
M  V30 5112 N 482.033 5.52495 -1.78127 0
M  V30 5113 H 484.798 1.53292 -2.5753 0
M  V30 5114 H 482.359 0.699706 -1.45999 0
M  V30 5115 H 484.351 3.78774 -1.42521 0
M  V30 5116 H 482.921 3.05675 -0.654345 0
M  V30 5117 H 482.141 2.4723 -3.07036 0
M  V30 5118 H 483.429 3.54162 -3.65304 0
M  V30 5119 H 482.827 5.53403 -1.17308 0
M  V30 5120 H 481.384 6.28553 -1.72525 0
M  V30 5121 N 484.817 1.37938 0.762283 0
M  V30 5122 C 485.78 1.34279 1.85747 0
M  V30 5123 C 486.78 0.244969 1.58923 0
M  V30 5124 O 487.97 0.501365 1.66829 0
M  V30 5125 C 485.102 1.08833 3.23061 0
M  V30 5126 H 486.295 2.31705 1.90401 0
M  V30 5127 H 483.848 1.23105 0.963057 0
M  V30 5128 H 484.583 0.119767 3.24079 0
M  V30 5129 H 484.368 1.88306 3.43923 0
M  V30 5130 H 485.858 1.08946 4.03138 0
M  V30 5131 N 486.295 -0.989507 1.22664 0
M  V30 5132 C 487.227 -2.0824 0.957542 0
M  V30 5133 C 488.24 -1.6267 -0.0651098 0
M  V30 5134 O 489.429 -1.77695 0.169312 0
M  V30 5135 C 486.529 -3.36298 0.419145 0
M  V30 5136 C 485.702 -4.10882 1.49982 0
M  V30 5137 C 484.761 -5.17221 0.967904 0
M  V30 5138 O 483.787 -5.44613 1.65487 0
M  V30 5139 N 484.989 -5.80124 -0.20896 0
M  V30 5140 H 487.754 -2.31904 1.89843 0
M  V30 5141 H 485.315 -1.15552 1.13399 0
M  V30 5142 H 487.307 -4.04671 0.0485451 0
M  V30 5143 H 485.877 -3.09671 -0.426937 0
M  V30 5144 H 485.097 -3.37092 2.04359 0
M  V30 5145 H 486.385 -4.57482 2.22682 0
M  V30 5146 H 485.783 -5.60244 -0.783818 0
M  V30 5147 H 484.34 -6.49715 -0.520913 0
M  V30 5148 N 487.773 -1.03688 -1.18687 0
M  V30 5149 C 488.736 -0.629115 -2.20397 0
M  V30 5150 C 489.736 0.311495 -1.57754 0
M  V30 5151 O 490.926 0.0974107 -1.73927 0
M  V30 5152 C 488.058 0.0782231 -3.4081 0
M  V30 5153 H 489.251 -1.52915 -2.57987 0
M  V30 5154 H 486.804 -0.828988 -1.32505 0
M  V30 5155 H 487.539 0.992233 -3.08748 0
M  V30 5156 H 487.324 -0.597776 -3.87517 0
M  V30 5157 H 488.814 0.350156 -4.16129 0
M  V30 5158 N 489.251 1.34841 -0.815825 0
M  V30 5159 C 490.214 2.27959 -0.238185 0
M  V30 5160 C 491.214 1.49983 0.579816 0
M  V30 5161 O 492.404 1.69617 0.396953 0
M  V30 5162 C 489.536 3.34314 0.666876 0
M  V30 5163 H 490.729 2.80558 -1.05958 0
M  V30 5164 H 488.282 1.44852 -0.587156 0
M  V30 5165 H 489.017 2.86916 1.5116 0
M  V30 5166 H 488.802 3.92014 0.0819106 0
M  V30 5167 H 490.292 4.0379 1.06506 0
M  V30 5168 N 490.729 0.570148 1.46925 0
M  V30 5169 C 492.14 0.1402 1.86173 0
M  V30 5170 C 492.491 -1.29347 1.47526 0
M  V30 5171 O 491.616 -1.97508 0.884292 0
M  V30 5172 C 492.211 0.247661 3.37894 0
M  V30 5173 C 490.77 -0.127332 3.76185 0
M  V30 5174 C 489.917 0.589349 2.70965 0
M  V30 5175 H 492.868 0.779117 1.38259 0
M  V30 5176 H 492.889 -0.530341 3.76786 0
M  V30 5177 H 492.401 1.29121 3.65991 0
M  V30 5178 H 490.502 -1.17149 3.53704 0
M  V30 5179 H 490.615 0.240238 4.78497 0
M  V30 5180 H 488.979 0.0309824 2.54681 0
M  V30 5181 H 489.762 1.6343 3.01903 0
M  V30 5182 N 492.207 -1.54576 0.307264 0
M  V30 5183 C 493.484 -1.92377 -0.353605 0
M  V30 5184 C 493.864 -1.23517 -1.71192 0
M  V30 5185 O 493.212 -0.373101 -2.25433 0
M  V30 5186 C 493.422 -3.45928 -0.462039 0
M  V30 5187 C 494.77 -4.18278 -0.729975 0
M  V30 5188 O 495.794 -3.51997 -0.545605 0
M  V30 5189 O 494.653 -5.3563 -1.08454 0
M  V30 5190 H 491.747 -0.802747 -0.198812 0
M  V30 5191 H 494.293 -1.65929 0.355783 0
M  V30 5192 H 493.065 -3.88187 0.492592 0
M  V30 5193 H 492.688 -3.78431 -1.21965 0
M  V30 5194 N 493.685 -0.035106 -1.57561 0
M  V30 5195 C 494.617 0.973604 -2.07494 0
M  V30 5196 C 495.63 1.28504 -0.999534 0
M  V30 5197 O 496.819 1.24864 -1.27559 0
M  V30 5198 C 493.919 2.29945 -2.48955 0
M  V30 5199 C 493.092 2.1723 -3.79644 0
M  V30 5200 C 492.151 3.328 -4.07592 0
M  V30 5201 O 491.177 3.09418 -4.77754 0
M  V30 5202 N 492.379 4.56779 -3.58236 0
M  V30 5203 H 495.144 0.547525 -2.94656 0
M  V30 5204 H 492.705 0.151515 -1.61189 0
M  V30 5205 H 494.697 3.06097 -2.64739 0
M  V30 5206 H 493.267 2.64173 -1.67126 0
M  V30 5207 H 492.487 1.25768 -3.73599 0
M  V30 5208 H 493.775 2.05945 -4.65257 0
M  V30 5209 H 493.173 4.78668 -3.01485 0
M  V30 5210 H 491.73 5.30079 -3.79288 0
M  V30 5211 N 495.163 1.55791 0.238111 0
M  V30 5212 C 496.41 1.78033 0.964907 0
M  V30 5213 C 496.738 0.600984 1.84982 0
M  V30 5214 O 495.993 -0.41536 1.91241 0
M  V30 5215 C 496.292 3.05869 1.84875 0
M  V30 5216 C 495.958 4.36808 1.11846 0
M  V30 5217 C 494.62 4.72388 0.916662 0
M  V30 5218 C 496.972 5.17717 0.60151 0
M  V30 5219 C 494.3 5.86406 0.185756 0
M  V30 5220 C 496.652 6.32494 -0.115972 0
M  V30 5221 C 495.316 6.66688 -0.329168 0
M  V30 5222 H 494.586 0.651469 0.353085 0
M  V30 5223 H 497.233 1.90061 0.234318 0
M  V30 5224 H 495.538 2.88891 2.64668 0
M  V30 5225 H 497.235 3.20278 2.41294 0
M  V30 5226 H 493.825 4.08862 1.28569 0
M  V30 5227 H 498.009 4.90678 0.744932 0
M  V30 5228 H 493.265 6.11399 0.0101886 0
M  V30 5229 H 497.439 6.94425 -0.524127 0
M  V30 5230 H 495.066 7.54884 -0.897474 0
M  V30 5231 N 496.642 -0.504142 1.49319 0
M  V30 5232 C 497.888 -1.26033 1.58882 0
M  V30 5233 C 498.221 -1.92268 0.273274 0
M  V30 5234 O 497.496 -1.80567 -0.72291 0
M  V30 5235 C 497.779 -2.32976 2.7458 0
M  V30 5236 C 497.632 -1.71263 4.1592 0
M  V30 5237 C 498.951 -3.34561 2.85932 0
M  V30 5238 H 496.07 -0.456863 0.578312 0
M  V30 5239 H 498.712 -0.558965 1.81592 0
M  V30 5240 H 496.862 -2.92796 2.55348 0
M  V30 5241 H 498.534 -1.15294 4.4666 0
M  V30 5242 H 496.777 -1.01686 4.21714 0
M  V30 5243 H 497.448 -2.48816 4.92742 0
M  V30 5244 H 499.924 -2.84727 3.0343 0
M  V30 5245 H 498.8 -4.06754 3.68568 0
M  V30 5246 H 499.061 -3.96695 1.95154 0
M  V30 5247 N 498.12 -1.38341 -0.754957 0
M  V30 5248 C 499.05 -1.38176 -1.88227 0
M  V30 5249 C 500.031 -0.247873 -1.68284 0
M  V30 5250 O 501.216 -0.45075 -1.88896 0
M  V30 5251 C 498.346 -1.20471 -3.25736 0
M  V30 5252 C 497.3 -2.3105 -3.60278 0
M  V30 5253 C 496.626 -1.98452 -4.96509 0
M  V30 5254 C 497.926 -3.73305 -3.65295 0
M  V30 5255 H 499.62 -2.32512 -1.88622 0
M  V30 5256 H 497.166 -1.1192 -0.906082 0
M  V30 5257 H 499.119 -1.18982 -4.04254 0
M  V30 5258 H 497.843 -0.225965 -3.25817 0
M  V30 5259 H 496.502 -2.31723 -2.84078 0
M  V30 5260 H 496.15 -0.990641 -4.93148 0
M  V30 5261 H 495.85 -2.7251 -5.20588 0
M  V30 5262 H 497.374 -1.98578 -5.77407 0
M  V30 5263 H 498.788 -3.7467 -4.3393 0
M  V30 5264 H 497.185 -4.46557 -4.00883 0
M  V30 5265 H 498.255 -4.05719 -2.65556 0
M  V30 5266 N 499.598 0.982988 -1.23187 0
M  V30 5267 C 500.828 1.75666 -1.08743 0
M  V30 5268 C 501.236 1.85662 0.364195 0
M  V30 5269 O 500.579 1.33317 1.26382 0
M  V30 5270 C 500.641 3.20144 -1.63549 0
M  V30 5271 C 500.305 3.33665 -3.12277 0
M  V30 5272 C 501.302 3.20194 -4.096 0
M  V30 5273 C 498.987 3.58397 -3.51933 0
M  V30 5274 C 500.981 3.31256 -5.44563 0
M  V30 5275 C 498.668 3.69098 -4.87042 0
M  V30 5276 C 499.666 3.55537 -5.83166 0
M  V30 5277 O 499.354 3.65864 -7.1582 0
M  V30 5278 H 499.086 0.558194 -0.381307 0
M  V30 5279 H 501.64 1.24387 -1.63454 0
M  V30 5280 H 499.87 3.72659 -1.03256 0
M  V30 5281 H 501.559 3.79262 -1.4462 0
M  V30 5282 H 502.325 3.00987 -3.80305 0
M  V30 5283 H 498.204 3.68025 -2.77631 0
M  V30 5284 H 501.748 3.20588 -6.19572 0
M  V30 5285 H 497.645 3.87814 -5.16014 0
M  V30 5286 H 498.413 3.82675 -7.23534 0
M  V30 5287 N 501.076 1.04316 1.18135 0
M  V30 5288 C 502.323 0.74802 1.88178 0
M  V30 5289 C 502.651 -0.72441 1.80506 0
M  V30 5290 O 501.906 -1.54463 1.20165 0
M  V30 5291 C 502.205 1.16271 3.37958 0
M  V30 5292 C 501.871 2.63585 3.65833 0
M  V30 5293 C 500.533 3.03829 3.73151 0
M  V30 5294 C 502.885 3.58822 3.78016 0
M  V30 5295 C 500.213 4.38194 3.90132 0
M  V30 5296 C 502.565 4.92909 3.96514 0
M  V30 5297 C 501.229 5.3282 4.02068 0
M  V30 5298 H 500.499 0.27372 0.688592 0
M  V30 5299 H 503.146 1.30863 1.39811 0
M  V30 5300 H 501.451 0.520938 3.88321 0
M  V30 5301 H 503.148 0.911672 3.90499 0
M  V30 5302 H 499.738 2.31414 3.60757 0
M  V30 5303 H 503.922 3.28875 3.71692 0
M  V30 5304 H 499.178 4.68631 3.92677 0
M  V30 5305 H 503.352 5.66606 4.04883 0
M  V30 5306 H 500.979 6.36943 4.14979 0
M  V30 5307 N 502.554 -1.34406 0.822964 0
M  V30 5308 C 503.8 -1.98578 0.411666 0
M  V30 5309 C 504.133 -1.65093 -1.02264 0
M  V30 5310 O 503.408 -0.92258 -1.71227 0
M  V30 5311 C 503.691 -3.54823 0.614235 0
M  V30 5312 C 503.544 -3.9805 2.09466 0
M  V30 5313 C 504.863 -4.40071 0.050221 0
M  V30 5314 H 501.982 -0.721355 0.151047 0
M  V30 5315 H 504.624 -1.59301 1.03554 0
M  V30 5316 H 502.774 -3.88411 0.0831774 0
M  V30 5317 H 504.446 -3.74795 2.68936 0
M  V30 5318 H 502.689 -3.4836 2.5851 0
M  V30 5319 H 503.36 -5.06819 2.18721 0
M  V30 5320 H 505.836 -4.13037 0.503953 0
M  V30 5321 H 504.712 -5.48452 0.221759 0
M  V30 5322 H 504.973 -4.29576 -1.04482 0
M  V30 5323 N 504.032 -0.577932 -1.46621 0
M  V30 5324 C 504.965 0.206312 -2.27265 0
M  V30 5325 C 505.943 0.901306 -1.35334 0
M  V30 5326 O 507.127 0.916151 -1.64739 0
M  V30 5327 C 504.254 1.29563 -3.1294 0
M  V30 5328 C 503.3 0.706981 -4.206 0
M  V30 5329 S 504.133 -0.462459 -5.33499 0
M  V30 5330 C 505.289 0.628171 -6.2274 0
M  V30 5331 H 505.522 -0.477961 -2.93433 0
M  V30 5332 H 503.055 -0.364715 -1.50031 0
M  V30 5333 H 505.013 1.91935 -3.62865 0
M  V30 5334 H 503.674 1.95183 -2.46095 0
M  V30 5335 H 502.867 1.52565 -4.80354 0
M  V30 5336 H 502.469 0.159022 -3.73662 0
M  V30 5337 H 504.761 1.51506 -6.60342 0
M  V30 5338 H 505.704 0.0674961 -7.08068 0
M  V30 5339 H 506.112 0.930167 -5.56784 0
M  V30 5340 N 505.51 1.54411 -0.315457 0
M  V30 5341 C 506.787 1.92562 0.343398 0
M  V30 5342 C 507.167 1.24423 1.70535 0
M  V30 5343 O 506.515 0.385051 2.25232 0
M  V30 5344 C 506.725 3.46168 0.443687 0
M  V30 5345 C 508.073 4.18659 0.707783 0
M  V30 5346 O 509.097 3.52281 0.52693 0
M  V30 5347 O 507.956 5.36198 1.05612 0
M  V30 5348 H 505.05 0.80379 0.194552 0
M  V30 5349 H 507.596 1.65738 -0.364577 0
M  V30 5350 H 506.368 3.8792 -0.513172 0
M  V30 5351 H 505.991 3.79073 1.19956 0
M  V30 5352 N 506.988 0.0434614 1.5754 0
M  V30 5353 C 507.918 -0.931651 2.14109 0
M  V30 5354 C 508.899 -1.32971 1.06079 0
M  V30 5355 O 510.084 -1.40579 1.33982 0
M  V30 5356 C 507.214 -2.20914 2.67982 0
M  V30 5357 C 506.168 -1.95139 3.80926 0
M  V30 5358 C 505.494 -3.29276 4.21285 0
M  V30 5359 C 506.794 -1.27913 5.06395 0
M  V30 5360 H 508.488 -0.460497 2.95837 0
M  V30 5361 H 506.034 -0.220058 1.42309 0
M  V30 5362 H 507.987 -2.89522 3.06194 0
M  V30 5363 H 506.711 -2.70221 1.83434 0
M  V30 5364 H 505.37 -1.28945 3.43175 0
M  V30 5365 H 505.018 -3.76369 3.33699 0
M  V30 5366 H 504.718 -3.12831 4.97404 0
M  V30 5367 H 506.242 -3.99129 4.62091 0
M  V30 5368 H 507.656 -1.86544 5.42102 0
M  V30 5369 H 506.053 -1.2182 5.87605 0
M  V30 5370 H 507.123 -0.254066 4.84234 0
M  V30 5371 N 508.466 -1.55915 -0.229846 0
M  V30 5372 C 509.396 -1.94754 -1.28815 0
M  V30 5373 C 510.377 -0.814657 -1.49323 0
M  V30 5374 O 511.562 -1.07631 -1.61645 0
M  V30 5375 C 508.692 -2.25705 -2.63959 0
M  V30 5376 C 507.646 -3.41406 -2.5812 0
M  V30 5377 C 506.972 -3.57941 -3.97218 0
M  V30 5378 C 508.272 -4.76616 -2.13623 0
M  V30 5379 H 509.966 -2.83404 -0.965547 0
M  V30 5380 H 507.512 -1.36353 -0.463028 0
M  V30 5381 H 509.465 -2.51467 -3.38146 0
M  V30 5382 H 508.189 -1.339 -2.9789 0
M  V30 5383 H 506.848 -3.1568 -1.86391 0
M  V30 5384 H 506.496 -2.63526 -4.28443 0
M  V30 5385 H 506.196 -4.35757 -3.94195 0
M  V30 5386 H 507.72 -3.86042 -4.73079 0
M  V30 5387 H 509.134 -5.01637 -2.77549 0
M  V30 5388 H 507.531 -5.57655 -2.21677 0
M  V30 5389 H 508.601 -4.7253 -1.08829 0
M  V30 5390 N 509.944 0.496216 -1.49584 0
M  V30 5391 C 510.891 1.59722 -1.66606 0
M  V30 5392 C 511.861 1.58158 -0.507477 0
M  V30 5393 O 513.046 1.76072 -0.735076 0
M  V30 5394 C 510.186 2.97844 -1.74308 0
M  V30 5395 C 509.299 3.09388 -3.01502 0
M  V30 5396 C 508.434 4.38271 -3.00153 0
M  V30 5397 C 507.473 4.43466 -4.21906 0
M  V30 5398 N 506.61 5.63784 -4.1844 0
M  V30 5399 H 511.45 1.44515 -2.60613 0
M  V30 5400 H 508.987 0.703048 -1.29212 0
M  V30 5401 H 510.945 3.77907 -1.76754 0
M  V30 5402 H 509.575 3.11743 -0.837619 0
M  V30 5403 H 508.627 2.22357 -3.08645 0
M  V30 5404 H 509.939 3.09085 -3.91494 0
M  V30 5405 H 509.093 5.2666 -3.01188 0
M  V30 5406 H 507.832 4.41146 -2.07947 0
M  V30 5407 H 506.837 3.53478 -4.21109 0
M  V30 5408 H 508.062 4.42303 -5.1531 0
M  V30 5409 H 506.008 5.67491 -3.29074 0
M  V30 5410 H 505.925 5.65118 -5.02173 0
M  V30 5411 H 507.193 6.54367 -4.23585 0
M  V30 5412 N 511.423 1.38739 0.74761 0
M  V30 5413 C 512.671 1.35007 1.50391 0
M  V30 5414 C 512.992 -0.0574274 1.94915 0
M  V30 5415 O 512.262 -1.00628 1.6808 0
M  V30 5416 H 510.842 0.496784 0.557866 0
M  V30 5417 H 513.504 1.73479 0.888319 0
M  V30 5418 H 512.6 2.00474 2.392 0
M  V30 5419 N 512.901 -0.976442 1.23707 0
M  V30 5420 C 513.831 -2.08749 1.04624 0
M  V30 5421 C 514.812 -1.70057 -0.0380956 0
M  V30 5422 O 515.997 -1.93782 0.127308 0
M  V30 5423 C 513.127 -3.41335 0.640902 0
M  V30 5424 C 512.081 -3.93947 1.67302 0
M  V30 5425 C 511.407 -5.22774 1.12301 0
M  V30 5426 C 512.707 -4.22769 3.06697 0
M  V30 5427 H 514.401 -2.24972 1.97555 0
M  V30 5428 H 511.947 -1.08108 0.951247 0
M  V30 5429 H 513.9 -4.18489 0.494434 0
M  V30 5430 H 512.624 -3.24988 -0.324099 0
M  V30 5431 H 511.283 -3.18941 1.80755 0
M  V30 5432 H 510.931 -5.0278 0.148877 0
M  V30 5433 H 510.631 -5.58942 1.81267 0
M  V30 5434 H 512.155 -6.02546 0.988479 0
M  V30 5435 H 513.569 -4.90659 2.96524 0
M  V30 5436 H 511.966 -4.70147 3.72937 0
M  V30 5437 H 513.036 -3.29885 3.55392 0
M  V30 5438 N 514.379 -1.04941 -1.1758 0
M  V30 5439 C 515.79 -0.784501 -1.69418 0
M  V30 5440 C 516.141 0.693625 -1.8353 0
M  V30 5441 O 515.266 1.53925 -1.52106 0
M  V30 5442 C 515.861 -1.41746 -3.07723 0
M  V30 5443 C 514.42 -1.20066 -3.56737 0
M  V30 5444 C 513.567 -1.5026 -2.33061 0
M  V30 5445 H 516.518 -1.21469 -1.02133 0
M  V30 5446 H 516.539 -0.825381 -3.7144 0
M  V30 5447 H 516.051 -2.49325 -2.9742 0
M  V30 5448 H 514.152 -0.144006 -3.72322 0
M  V30 5449 H 514.265 -1.90384 -4.39648 0
M  V30 5450 H 512.629 -0.922598 -2.37403 0
M  V30 5451 H 513.412 -2.58967 -2.25368 0
M  V30 5452 N 515.857 1.33968 -0.830081 0
M  V30 5453 C 517.105 1.97672 -0.420734 0
M  V30 5454 C 517.426 1.66111 1.02138 0
M  V30 5455 O 516.696 0.955503 1.71017 0
M  V30 5456 H 515.276 0.73125 -0.152587 0
M  V30 5457 H 517.938 1.63483 -1.0611 0
M  V30 5458 H 517.034 3.07294 -0.545588 0
M  V30 5459 N 517.335 0.585699 1.46312 0
M  V30 5460 C 518.265 -0.133556 2.33118 0
M  V30 5461 C 519.246 -0.880707 1.45525 0
M  V30 5462 O 520.431 -0.855579 1.74337 0
M  V30 5463 C 517.561 -1.14585 3.27853 0
M  V30 5464 C 516.515 -0.513341 4.2491 0
M  V30 5465 C 515.841 -1.63231 5.09175 0
M  V30 5466 C 517.141 0.551413 5.19381 0
M  V30 5467 H 518.835 0.59121 2.93505 0
M  V30 5468 H 516.381 0.285761 1.41136 0
M  V30 5469 H 518.334 -1.65741 3.87438 0
M  V30 5470 H 517.058 -1.90093 2.65579 0
M  V30 5471 H 515.717 -0.0228349 3.66593 0
M  V30 5472 H 515.365 -2.37713 4.43285 0
M  V30 5473 H 515.065 -1.21473 5.74907 0
M  V30 5474 H 516.589 -2.14658 5.71624 0
M  V30 5475 H 518.003 0.124804 5.73164 0
M  V30 5476 H 516.4 0.889486 5.93471 0
M  V30 5477 H 517.47 1.43655 4.63132 0
M  V30 5478 N 518.813 -1.54241 0.323641 0
M  V30 5479 C 520.224 -1.85975 -0.164405 0
M  V30 5480 C 520.575 -1.24529 -1.51615 0
M  V30 5481 O 519.7 -0.551351 -2.09258 0
M  V30 5482 C 520.295 -3.37424 -0.305091 0
M  V30 5483 C 518.854 -3.69107 -0.737358 0
M  V30 5484 C 518.001 -2.76942 0.140884 0
M  V30 5485 H 520.952 -1.49088 0.543922 0
M  V30 5486 H 520.973 -3.63147 -1.13598 0
M  V30 5487 H 520.485 -3.82116 0.678876 0
M  V30 5488 H 518.586 -3.29947 -1.73107 0
M  V30 5489 H 518.699 -4.76035 -0.541053 0
M  V30 5490 H 517.063 -2.51795 -0.383572 0
M  V30 5491 H 517.846 -3.24461 1.12162 0
M  V30 5492 N 520.291 -0.0518155 -1.57515 0
M  V30 5493 C 521.539 0.620595 -1.92336 0
M  V30 5494 C 521.86 1.71345 -0.930907 0
M  V30 5495 O 521.13 1.95885 0.0241341 0
M  V30 5496 H 519.71 0.232226 -0.709986 0
M  V30 5497 H 522.372 -0.104969 -1.94617 0
M  V30 5498 H 521.468 1.05879 -2.93592 0
M  V30 5499 N 521.769 1.56035 0.221574 0
M  V30 5500 C 522.699 1.95434 1.2778 0
M  V30 5501 C 523.68 0.822564 1.48889 0
M  V30 5502 O 524.865 1.08486 1.61072 0
M  V30 5503 C 521.995 2.27102 2.62759 0
M  V30 5504 C 520.949 3.4277 2.56306 0
M  V30 5505 C 520.275 3.60043 3.95314 0
M  V30 5506 C 521.575 4.77742 2.11093 0
M  V30 5507 H 523.269 2.83912 0.950504 0
M  V30 5508 H 520.815 1.36596 0.455791 0
M  V30 5509 H 522.768 2.53256 3.36807 0
M  V30 5510 H 521.492 1.35478 2.97176 0
M  V30 5511 H 520.151 3.16664 1.84715 0
M  V30 5512 H 519.799 2.65794 4.27039 0
M  V30 5513 H 519.499 4.37841 3.91879 0
M  V30 5514 H 521.023 3.88545 4.71025 0
M  V30 5515 H 522.437 5.03102 2.74885 0
M  V30 5516 H 520.834 5.58823 2.18716 0
M  V30 5517 H 521.904 4.731 1.06321 0
M  V30 5518 N 523.247 -0.488276 1.49845 0
M  V30 5519 C 524.494 -1.24157 1.59973 0
M  V30 5520 C 524.822 -1.92293 0.292182 0
M  V30 5521 O 524.077 -1.81942 -0.720813 0
M  V30 5522 C 524.376 -2.32152 2.71735 0
M  V30 5523 C 524.042 -1.81387 4.12807 0
M  V30 5524 C 522.704 -1.67262 4.51195 0
M  V30 5525 C 525.056 -1.43537 5.01045 0
M  V30 5526 C 522.384 -1.13685 5.7558 0
M  V30 5527 C 524.736 -0.914081 6.25961 0
M  V30 5528 C 523.4 -0.759327 6.63167 0
M  V30 5529 H 522.67 -0.454322 0.585383 0
M  V30 5530 H 525.317 -0.540261 1.83721 0
M  V30 5531 H 523.622 -3.08122 2.42008 0
M  V30 5532 H 525.319 -2.90164 2.76778 0
M  V30 5533 H 521.909 -1.93344 3.82513 0
M  V30 5534 H 526.093 -1.53292 4.72033 0
M  V30 5535 H 521.349 -1.00426 6.03096 0
M  V30 5536 H 525.523 -0.612066 6.93705 0
M  V30 5537 H 523.15 -0.342002 7.5943 0
M  V30 5538 N 524.725 -1.39134 -0.740242 0
M  V30 5539 C 525.974 -1.35384 -1.49512 0
M  V30 5540 C 526.287 0.04919 -1.95538 0
M  V30 5541 O 527.493 0.209257 -2.70692 0
M  V30 5542 C 525.949 -2.37812 -2.70136 0
M  V30 5543 C 525.557 -3.83804 -2.31081 0
M  V30 5544 C 527.301 -2.4313 -3.47977 0
M  V30 5545 C 525.208 -4.77886 -3.48395 0
M  V30 5546 H 524.138 -0.503297 -0.561434 0
M  V30 5547 H 526.789 -1.64754 -0.807974 0
M  V30 5548 H 525.171 -2.01505 -3.40899 0
M  V30 5549 H 526.345 -4.29123 -1.67898 0
M  V30 5550 H 524.66 -3.81732 -1.66343 0
M  V30 5551 H 527.257 -3.10614 -4.35228 0
M  V30 5552 H 527.6 -1.45423 -3.90074 0
M  V30 5553 H 528.133 -2.78304 -2.84239 0
M  V30 5554 H 524.872 -5.76836 -3.11353 0
M  V30 5555 H 524.392 -4.3725 -4.10576 0
M  V30 5556 H 526.071 -4.96538 -4.148 0
M  V30 5557 N 526.204 0.969867 -1.24223 0
M  V30 5558 C 527.167 2.04564 -1.03373 0
M  V30 5559 C 528.167 1.60798 0.00819206 0
M  V30 5560 O 529.357 1.72641 -0.232567 0
M  V30 5561 C 526.489 3.36163 -0.566343 0
M  V30 5562 H 527.682 2.24494 -1.98853 0
M  V30 5563 H 525.235 1.1448 -1.06415 0
M  V30 5564 H 525.97 3.21925 0.391751 0
M  V30 5565 H 525.755 3.69273 -1.31834 0
M  V30 5566 H 527.245 4.1526 -0.441435 0
M  V30 5567 N 527.682 1.05563 1.17022 0
M  V30 5568 C 528.922 0.777033 1.89054 0
M  V30 5569 C 529.286 -0.683617 1.79418 0
M  V30 5570 O 530.487 -1.07648 2.46303 0
M  V30 5571 C 528.758 1.24886 3.34871 0
M  V30 5572 S 530.317 1.0982 4.24835 0
M  V30 5573 H 527.135 0.282082 0.652649 0
M  V30 5574 H 529.737 1.35103 1.41306 0
M  V30 5575 H 528.441 2.30699 3.3942 0
M  V30 5576 H 527.972 0.669292 3.87665 0
M  V30 5577 H 529.987 0.02462 4.96194 0
M  V30 5578 N 529.16 -1.33526 0.837174 0
M  V30 5579 C 530.09 -2.31764 0.284206 0
M  V30 5580 C 531.071 -1.58896 -0.607142 0
M  V30 5581 O 532.256 -1.86798 -0.531047 0
M  V30 5582 C 529.386 -3.43029 -0.542962 0
M  V30 5583 C 528.34 -4.27255 0.252451 0
M  V30 5584 C 527.666 -5.3012 -0.69836 0
M  V30 5585 C 528.966 -5.01229 1.46858 0
M  V30 5586 H 530.66 -2.78262 1.10502 0
M  V30 5587 H 528.206 -1.3378 0.532812 0
M  V30 5588 H 530.159 -4.1078 -0.940096 0
M  V30 5589 H 528.883 -2.95216 -1.39697 0
M  V30 5590 H 527.542 -3.61127 0.631124 0
M  V30 5591 H 527.19 -4.78564 -1.54872 0
M  V30 5592 H 526.89 -5.87353 -0.170274 0
M  V30 5593 H 528.414 -6.00737 -1.09305 0
M  V30 5594 H 529.828 -5.61756 1.14469 0
M  V30 5595 H 528.225 -5.68104 1.93333 0
M  V30 5596 H 529.295 -4.301 2.23924 0
M  V30 5597 N 530.638 -0.59345 -1.46 0
M  V30 5598 C 531.885 -0.0831523 -2.02329 0
M  V30 5599 C 532.213 1.28093 -1.46364 0
M  V30 5600 O 531.468 1.85526 -0.622793 0
M  V30 5601 C 531.767 0.021178 -3.57394 0
M  V30 5602 C 531.433 -1.27671 -4.32448 0
M  V30 5603 C 530.095 -1.63227 -4.5267 0
M  V30 5604 C 532.447 -2.13511 -4.7546 0
M  V30 5605 C 529.775 -2.84401 -5.1316 0
M  V30 5606 C 532.127 -3.33922 -5.37289 0
M  V30 5607 C 530.791 -3.69747 -5.55737 0
M  V30 5608 H 530.061 -0.0304276 -0.740375 0
M  V30 5609 H 532.708 -0.772239 -1.75239 0
M  V30 5610 H 531.013 0.793454 -3.83682 0
M  V30 5611 H 532.71 0.431942 -3.98667 0
M  V30 5612 H 529.3 -0.989937 -4.17011 0
M  V30 5613 H 533.484 -1.87344 -4.59582 0
M  V30 5614 H 528.74 -3.12282 -5.25633 0
M  V30 5615 H 532.914 -4.00698 -5.69574 0
M  V30 5616 H 530.541 -4.6373 -6.02377 0
M  V30 5617 N 532.116 1.54067 -0.331816 0
M  V30 5618 C 533.341 2.05599 0.272705 0
M  V30 5619 C 533.766 1.2059 1.44359 0
M  V30 5620 O 533.124 0.216907 1.79998 0
M  V30 5621 C 533.172 3.54188 0.677021 0
M  V30 5622 O 532.276 3.72082 1.77844 0
M  V30 5623 H 531.617 0.662286 0.0476801 0
M  V30 5624 H 534.147 1.98826 -0.482624 0
M  V30 5625 H 534.157 3.96608 0.957415 0
M  V30 5626 H 532.832 4.15513 -0.179325 0
M  V30 5627 H 531.409 3.41566 1.49622 0
M  V30 5628 N 533.594 0.0601682 1.57485 0
M  V30 5629 C 534.842 -0.610386 1.92662 0
M  V30 5630 C 535.163 -1.70849 0.939981 0
M  V30 5631 O 534.433 -1.95895 -0.0137455 0
M  V30 5632 H 533.013 -0.228457 0.711208 0
M  V30 5633 H 535.675 0.115288 1.94559 0
M  V30 5634 H 534.771 -1.0432 2.94149 0
M  V30 5635 N 535.072 -1.5615 -0.213296 0
M  V30 5636 C 536.297 -1.83986 -0.957282 0
M  V30 5637 C 536.722 -0.641526 -1.76822 0
M  V30 5638 O 536.08 0.409722 -1.7661 0
M  V30 5639 C 536.128 -3.09889 -1.84393 0
M  V30 5640 O 535.232 -2.89163 -2.94038 0
M  V30 5641 H 534.573 -0.606357 -0.270605 0
M  V30 5642 H 537.103 -2.03369 -0.224111 0
M  V30 5643 H 537.113 -3.40209 -2.25215 0
M  V30 5644 H 535.788 -3.96735 -1.24795 0
M  V30 5645 H 534.365 -2.70097 -2.57103 0
M  V30 5646 N 536.55 0.480323 -1.50102 0
M  V30 5647 C 537.48 1.58769 -1.71215 0
M  V30 5648 C 538.461 1.60583 -0.560997 0
M  V30 5649 O 539.646 1.76996 -0.799127 0
M  V30 5650 C 536.776 2.97148 -1.79778 0
M  V30 5651 C 535.73 3.10201 -2.94888 0
M  V30 5652 C 535.056 4.50137 -2.88584 0
M  V30 5653 C 536.356 2.88283 -4.35534 0
M  V30 5654 H 538.05 1.41354 -2.6393 0
M  V30 5655 H 535.596 0.678591 -1.27008 0
M  V30 5656 H 537.549 3.74536 -1.93133 0
M  V30 5657 H 536.273 3.15699 -0.836772 0
M  V30 5658 H 534.932 2.35244 -2.81169 0
M  V30 5659 H 534.58 4.65593 -1.90349 0
M  V30 5660 H 534.28 4.59808 -3.65856 0
M  V30 5661 H 535.804 5.29558 -3.03976 0
M  V30 5662 H 537.218 3.55427 -4.49827 0
M  V30 5663 H 535.615 3.09408 -5.14186 0
M  V30 5664 H 536.685 1.84219 -4.48544 0
M  V30 5665 N 538.028 1.39524 0.732853 0
M  V30 5666 C 539.253 1.40329 1.52717 0
M  V30 5667 C 539.678 0.000286574 1.881 0
M  V30 5668 O 539.036 -0.987262 1.52062 0
M  V30 5669 C 539.084 2.28464 2.78992 0
M  V30 5670 O 538.188 1.716 3.75003 0
M  V30 5671 H 537.529 0.47778 0.461109 0
M  V30 5672 H 540.059 1.83546 0.903996 0
M  V30 5673 H 540.069 2.43051 3.27705 0
M  V30 5674 H 538.744 3.30425 2.52572 0
M  V30 5675 H 537.321 1.66267 3.33781 0
M  V30 5676 N 539.506 -0.963266 1.24736 0
M  V30 5677 C 540.734 -1.74166 1.11686 0
M  V30 5678 C 541.149 -1.8589 -0.330187 0
M  V30 5679 O 540.506 -1.35042 -1.2276 0
M  V30 5680 C 540.557 -3.15989 1.75595 0
M  V30 5681 O 540.278 -3.04847 3.14642 0
M  V30 5682 C 541.779 -4.10145 1.68213 0
M  V30 5683 H 538.999 -0.546031 0.389989 0
M  V30 5684 H 541.543 -1.20907 1.64929 0
M  V30 5685 H 539.698 -3.66219 1.26343 0
M  V30 5686 H 540.112 -3.9425 3.4593 0
M  V30 5687 H 541.586 -5.07299 2.17604 0
M  V30 5688 H 542.063 -4.3445 0.644208 0
M  V30 5689 H 542.669 -3.65827 2.16912 0
M  V30 5690 N 540.985 -1.06182 -1.16461 0
M  V30 5691 C 542.234 -0.772927 -1.86303 0
M  V30 5692 C 542.547 0.703187 -1.82523 0
M  V30 5693 O 543.753 1.10641 -2.47933 0
M  V30 5694 C 542.209 -1.33249 -3.34324 0
M  V30 5695 C 541.817 -2.83876 -3.46581 0
M  V30 5696 C 543.561 -1.12108 -4.09429 0
M  V30 5697 C 541.468 -3.33082 -4.88682 0
M  V30 5698 H 540.398 -0.285452 -0.697878 0
M  V30 5699 H 543.049 -1.28039 -1.31447 0
M  V30 5700 H 541.431 -0.7528 -3.88779 0
M  V30 5701 H 542.605 -3.47786 -3.02293 0
M  V30 5702 H 540.92 -3.03671 -2.84909 0
M  V30 5703 H 543.517 -1.46361 -5.14279 0
M  V30 5704 H 543.86 -0.0593832 -4.16258 0
M  V30 5705 H 544.393 -1.6665 -3.6121 0
M  V30 5706 H 541.132 -4.38726 -4.87032 0
M  V30 5707 H 540.652 -2.73919 -5.33599 0
M  V30 5708 H 542.331 -3.28344 -5.57494 0
M  V30 5709 N 542.463 1.3308 -0.844243 0
M  V30 5710 C 543.688 2.02341 -0.455282 0
M  V30 5711 C 544.113 1.6308 0.93737 0
M  V30 5712 O 543.471 0.826118 1.61385 0
M  V30 5713 C 543.519 3.55743 -0.58988 0
M  V30 5714 O 542.623 4.1063 0.38166 0
M  V30 5715 H 541.964 0.637898 -0.184343 0
M  V30 5716 H 544.494 1.6986 -1.14056 0
M  V30 5717 H 544.504 4.05243 -0.473522 0
M  V30 5718 H 543.179 3.83662 -1.60549 0
M  V30 5719 H 541.756 3.72236 0.22241 0
M  V30 5720 N 543.941 0.601185 1.45683 0
M  V30 5721 C 545.166 0.0982245 2.07167 0
M  V30 5722 C 545.591 -1.20546 1.44396 0
M  V30 5723 O 544.949 -1.73247 0.534347 0
M  V30 5724 C 544.997 -0.0346976 3.60583 0
M  V30 5725 O 544.101 -1.08657 3.97828 0
M  V30 5726 H 543.442 0.0711618 0.660176 0
M  V30 5727 H 545.972 0.829376 1.87036 0
M  V30 5728 H 545.982 -0.234969 4.07323 0
M  V30 5729 H 544.657 0.917265 4.05659 0
M  V30 5730 H 543.234 -0.863275 3.6277 0
M  V30 5731 N 545.419 -1.53889 0.339982 0
M  V30 5732 C 546.382 -2.23547 -0.50592 0
M  V30 5733 C 547.382 -1.23445 -1.03044 0
M  V30 5734 O 548.572 -1.47909 -0.920253 0
M  V30 5735 C 545.704 -2.95234 -1.7044 0
M  V30 5736 H 546.897 -2.99722 0.103247 0
M  V30 5737 H 544.45 -1.56033 0.0912804 0
M  V30 5738 H 545.185 -2.23236 -2.35236 0
M  V30 5739 H 544.97 -3.68654 -1.33553 0
M  V30 5740 H 546.46 -3.48258 -2.30447 0
M  V30 5741 N 546.897 -0.0685191 -1.57451 0
M  V30 5742 C 548.144 0.601348 -1.93365 0
M  V30 5743 C 548.472 1.69816 -0.948294 0
M  V30 5744 O 547.727 1.95666 0.0366199 0
M  V30 5745 C 548.026 1.22051 -3.35914 0
M  V30 5746 C 547.692 0.250165 -4.50205 0
M  V30 5747 C 546.354 -0.0167954 -4.81197 0
M  V30 5748 C 548.706 -0.413867 -5.19554 0
M  V30 5749 C 546.034 -0.95493 -5.78876 0
M  V30 5750 C 548.386 -1.3403 -6.18238 0
M  V30 5751 C 547.05 -1.61576 -6.47649 0
M  V30 5752 H 546.32 0.220049 -0.707573 0
M  V30 5753 H 548.967 -0.138697 -1.90997 0
M  V30 5754 H 547.272 2.03622 -3.34732 0
M  V30 5755 H 548.969 1.74605 -3.6099 0
M  V30 5756 H 545.559 0.468421 -4.26033 0
M  V30 5757 H 549.743 -0.220733 -4.95809 0
M  V30 5758 H 544.999 -1.17563 -5.99991 0
M  V30 5759 H 549.173 -1.86081 -6.71079 0
M  V30 5760 H 546.8 -2.34431 -7.2315 0
M  V30 5761 N 548.375 1.56261 0.205012 0
M  V30 5762 C 549.323 1.94631 1.27364 0
M  V30 5763 C 550.317 0.830434 1.47649 0
M  V30 5764 O 551.523 1.01538 1.48627 0
M  V30 5765 H 547.898 0.618755 0.427371 0
M  V30 5766 H 549.869 2.83768 0.922941 0
M  V30 5767 C 548.618 2.29358 2.61324 0
M  V30 5768 H 547.941 3.14744 2.46528 0
M  V30 5769 H 549.381 2.60076 3.34868 0
M  V30 5770 C 547.84 1.12461 3.17575 0
M  V30 5771 O 548.37 0.394407 3.99759 0
M  V30 5772 N 546.576 0.904036 2.7618 0
M  V30 5773 H 546.123 1.49956 2.09454 0
M  V30 5774 H 546.081 0.123662 3.14157 0
M  V30 5775 N 549.853 -0.472356 1.50355 0
M  V30 5776 C 551.078 -1.25251 1.65309 0
M  V30 5777 C 551.503 -1.85081 0.335643 0
M  V30 5778 O 550.861 -1.67227 -0.700335 0
M  V30 5779 C 550.909 -2.3379 2.74544 0
M  V30 5780 O 550.013 -3.38401 2.35709 0
M  V30 5781 H 549.354 -0.368539 0.552336 0
M  V30 5782 H 551.884 -0.562271 1.96722 0
M  V30 5783 H 551.894 -2.79121 2.97583 0
M  V30 5784 H 550.569 -1.89614 3.70161 0
M  V30 5785 H 549.146 -2.9879 2.23112 0
M  V30 5786 N 551.331 -1.39911 -0.725443 0
M  V30 5787 C 552.261 -1.42138 -1.85254 0
M  V30 5788 C 553.242 -0.283513 -1.67721 0
M  V30 5789 O 554.427 -0.490717 -1.87898 0
M  V30 5790 C 551.557 -1.27354 -3.23107 0
M  V30 5791 C 550.511 -2.3864 -3.55296 0
M  V30 5792 C 549.837 -2.08939 -4.92188 0
M  V30 5793 C 551.137 -3.8097 -3.57295 0
M  V30 5794 H 552.831 -2.36461 -1.83648 0
M  V30 5795 H 550.377 -1.13817 -0.882138 0
M  V30 5796 H 552.33 -1.2753 -4.01639 0
M  V30 5797 H 551.054 -0.295025 -3.25265 0
M  V30 5798 H 549.713 -2.37696 -2.79099 0
M  V30 5799 H 549.361 -1.09502 -4.90936 0
M  V30 5800 H 549.061 -2.83491 -5.14691 0
M  V30 5801 H 550.585 -2.10781 -5.73065 0
M  V30 5802 H 551.999 -3.8379 -4.25885 0
M  V30 5803 H 550.396 -4.5496 -3.9132 0
M  V30 5804 H 551.466 -4.11261 -2.5689 0
M  V30 5805 N 552.809 0.956637 -1.25245 0
M  V30 5806 C 553.772 2.03457 -1.05537 0
M  V30 5807 C 554.772 1.60798 -0.00886317 0
M  V30 5808 O 555.962 1.72384 -0.250865 0
M  V30 5809 C 553.094 3.35543 -0.601965 0
M  V30 5810 H 554.287 2.22372 -2.01223 0
M  V30 5811 H 551.84 1.13344 -1.07623 0
M  V30 5812 H 552.575 3.22323 0.357584 0
M  V30 5813 H 552.36 3.67854 -1.35743 0
M  V30 5814 H 553.85 4.14769 -0.485454 0
M  V30 5815 N 554.287 1.06798 1.15896 0
M  V30 5816 C 555.515 0.808694 1.90441 0
M  V30 5817 C 555.93 -0.637506 1.77711 0
M  V30 5818 O 555.287 -1.43684 1.12522 0
M  V30 5819 C 555.338 1.20068 3.40978 0
M  V30 5820 O 555.059 2.59013 3.53333 0
M  V30 5821 C 556.56 0.96987 4.3256 0
M  V30 5822 H 553.78 0.292809 0.603742 0
M  V30 5823 H 556.324 1.42296 1.46874 0
M  V30 5824 H 554.479 0.630842 3.82229 0
M  V30 5825 H 554.893 2.7485 4.46719 0
M  V30 5826 H 556.367 1.29371 5.36626 0
M  V30 5827 H 556.844 -0.0941209 4.39099 0
M  V30 5828 H 557.45 1.52433 3.97044 0
M  V30 5829 N 555.766 -1.3263 0.851289 0
M  V30 5830 C 557.012 -1.9766 0.453694 0
M  V30 5831 C 557.345 -1.67225 -0.987396 0
M  V30 5832 O 556.62 -0.958693 -1.69232 0
M  V30 5833 C 556.903 -3.5344 0.68936 0
M  V30 5834 C 556.756 -3.93517 2.17862 0
M  V30 5835 C 558.075 -4.39866 0.143555 0
M  V30 5836 H 555.194 -0.717989 0.166314 0
M  V30 5837 H 557.836 -1.57068 1.06909 0
M  V30 5838 H 555.986 -3.88147 0.165546 0
M  V30 5839 H 557.658 -3.69006 2.76826 0
M  V30 5840 H 555.901 -3.42798 2.65841 0
M  V30 5841 H 556.572 -5.02065 2.29422 0
M  V30 5842 H 559.048 -4.11875 0.591451 0
M  V30 5843 H 557.924 -5.47858 0.338043 0
M  V30 5844 H 558.185 -4.31696 -0.953466 0
M  V30 5845 N 557.244 -0.608902 -1.45362 0
M  V30 5846 C 558.472 -0.111013 -2.06602 0
M  V30 5847 C 558.887 1.20516 -1.45332 0
M  V30 5848 O 558.244 1.73437 -0.567978 0
M  V30 5849 C 558.295 0.033688 -3.61484 0
M  V30 5850 O 558.016 -1.23041 -4.20467 0
M  V30 5851 C 559.517 0.562882 -4.39712 0
M  V30 5852 H 556.737 -0.0694453 -0.667397 0
M  V30 5853 H 559.281 -0.837008 -1.86586 0
M  V30 5854 H 557.436 0.710016 -3.80838 0
M  V30 5855 H 557.85 -1.06094 -5.13658 0
M  V30 5856 H 559.324 0.613213 -5.48583 0
M  V30 5857 H 559.801 1.58543 -4.09586 0
M  V30 5858 H 560.407 -0.0794454 -4.25226 0
M  V30 5859 N 558.722 1.53707 -0.348139 0
M  V30 5860 C 559.655 2.21481 0.549667 0
M  V30 5861 C 560.633 1.20046 1.09671 0
M  V30 5862 O 561.817 1.48883 1.15612 0
M  V30 5863 C 558.944 2.89585 1.75664 0
M  V30 5864 C 557.99 4.04948 1.33864 0
M  V30 5865 S 558.823 5.34325 0.354577 0
M  V30 5866 C 559.979 6.05934 1.56828 0
M  V30 5867 H 560.212 2.97289 -0.0259755 0
M  V30 5868 H 557.745 1.53833 -0.132216 0
M  V30 5869 H 559.703 3.29441 2.44906 0
M  V30 5870 H 558.364 2.13535 2.30351 0
M  V30 5871 H 557.557 4.51552 2.23868 0
M  V30 5872 H 557.159 3.66893 0.725651 0
M  V30 5873 H 559.451 6.29606 2.50205 0
M  V30 5874 H 560.394 6.98799 1.14395 0
M  V30 5875 H 560.802 5.36151 1.76642 0
M  V30 5876 N 560.2 0.0768682 1.57412 0
M  V30 5877 C 561.11 -0.903207 2.16516 0
M  V30 5878 C 562.126 -1.32341 1.12968 0
M  V30 5879 O 563.302 -1.39507 1.45258 0
M  V30 5880 C 560.367 -2.1508 2.71922 0
M  V30 5881 C 559.428 -1.78653 3.90361 0
M  V30 5882 C 558.661 -2.97465 4.43114 0
M  V30 5883 O 558.884 -4.11638 3.94854 0
M  V30 5884 O 557.818 -2.76987 5.3438 0
M  V30 5885 H 561.644 -0.430427 3.00634 0
M  V30 5886 H 559.229 -0.146485 1.4868 0
M  V30 5887 H 561.111 -2.8823 3.07411 0
M  V30 5888 H 559.786 -2.61446 1.9086 0
M  V30 5889 H 558.693 -1.0274 3.59716 0
M  V30 5890 H 560.026 -1.37066 4.7273 0
M  V30 5891 N 561.678 -1.56367 -0.196722 0
M  V30 5892 C 562.955 -1.71359 -0.943159 0
M  V30 5893 C 563.335 -0.631192 -2.01443 0
M  V30 5894 O 562.683 0.358071 -2.25677 0
M  V30 5895 C 562.893 -3.13623 -1.53106 0
M  V30 5896 C 564.241 -3.73806 -2.01381 0
M  V30 5897 O 565.265 -3.16742 -1.62951 0
M  V30 5898 O 564.124 -4.73951 -2.7209 0
M  V30 5899 H 561.218 -0.698851 -0.442195 0
M  V30 5900 H 563.764 -1.68672 -0.186547 0
M  V30 5901 H 562.536 -3.83873 -0.758785 0
M  V30 5902 H 562.159 -3.20532 -2.35255 0
M  V30 5903 N 563.156 0.464375 -1.50603 0
M  V30 5904 C 564.086 1.56944 -1.72889 0
M  V30 5905 C 565.067 1.59979 -0.577997 0
M  V30 5906 O 566.252 1.76138 -0.817855 0
M  V30 5907 C 563.382 2.95225 -1.8292 0
M  V30 5908 C 562.336 3.07056 -2.98162 0
M  V30 5909 C 561.662 4.47051 -2.93343 0
M  V30 5910 C 562.962 2.83648 -4.38567 0
M  V30 5911 H 564.656 1.38547 -2.65415 0
M  V30 5912 H 562.202 0.665082 -1.27721 0
M  V30 5913 H 564.155 3.72467 -1.97095 0
M  V30 5914 H 562.879 3.14793 -0.870209 0
M  V30 5915 H 561.538 2.32248 -2.83648 0
M  V30 5916 H 561.186 4.63547 -1.95276 0
M  V30 5917 H 560.886 4.55902 -3.70712 0
M  V30 5918 H 562.41 5.26304 -3.09575 0
M  V30 5919 H 563.824 3.50636 -4.53572 0
M  V30 5920 H 562.221 3.03937 -5.17438 0
M  V30 5921 H 563.291 1.79451 -4.50472 0
M  V30 5922 N 564.634 1.40294 0.718013 0
M  V30 5923 C 565.883 1.37746 1.4734 0
M  V30 5924 C 566.196 -0.0180754 1.95592 0
M  V30 5925 O 567.402 -0.166166 2.70991 0
M  V30 5926 C 565.858 2.4208 2.66318 0
M  V30 5927 C 565.466 3.87432 2.24945 0
M  V30 5928 C 567.21 2.48635 3.44065 0
M  V30 5929 C 565.117 4.83368 3.40748 0
M  V30 5930 H 564.047 0.512165 0.553356 0
M  V30 5931 H 566.698 1.66019 0.781661 0
M  V30 5932 H 565.08 2.06903 3.3765 0
M  V30 5933 H 566.254 4.3174 1.6105 0
M  V30 5934 H 564.569 3.8433 1.60249 0
M  V30 5935 H 567.166 3.17499 4.30231 0
M  V30 5936 H 567.509 1.51611 3.87711 0
M  V30 5937 H 568.042 2.82791 2.79775 0
M  V30 5938 H 564.781 5.81716 3.02136 0
M  V30 5939 H 564.301 4.43726 4.03568 0
M  V30 5940 H 565.98 5.03074 4.06848 0
M  V30 5941 N 566.112 -0.949982 1.2575 0
M  V30 5942 C 567.528 -1.22191 1.02672 0
M  V30 5943 C 567.728 -1.99898 -0.253588 0
M  V30 5944 O 566.784 -2.33329 -0.965076 0
M  V30 5945 C 568.097 -1.99175 2.25277 0
M  V30 5946 C 569.645 -2.12201 2.30087 0
M  V30 5947 C 570.12 -2.92586 3.5236 0
M  V30 5948 N 571.611 -3.00163 3.52784 0
M  V30 5949 C 572.346 -3.62766 4.44059 0
M  V30 5950 N 571.842 -4.26943 5.45611 0
M  V30 5951 N 573.635 -3.59953 4.3173 0
M  V30 5952 H 565.786 -0.430258 2.07996 0
M  V30 5953 H 568.049 -0.252844 0.91366 0
M  V30 5954 H 567.755 -1.49479 3.18354 0
M  V30 5955 H 567.629 -2.99868 2.28821 0
M  V30 5956 H 570.016 -2.61093 1.3753 0
M  V30 5957 H 570.097 -1.10799 2.30559 0
M  V30 5958 H 569.741 -2.44383 4.45241 0
M  V30 5959 H 569.671 -3.94224 3.49134 0
M  V30 5960 H 572.162 -2.54529 2.79327 0
M  V30 5961 H 572.475 -4.72583 6.11461 0
M  V30 5962 H 570.82 -4.25557 5.49478 0
M  V30 5963 H 574.011 -3.09003 3.51617 0
M  V30 5964 H 574.184 -4.08455 5.03059 0
M  V30 5965 N 567.59 -1.07411 -1.15328 0
M  V30 5966 C 569.001 -0.820261 -1.67716 0
M  V30 5967 C 569.352 0.654539 -1.8496 0
M  V30 5968 O 568.477 1.50664 -1.55337 0
M  V30 5969 C 569.072 -1.48242 -3.04647 0
M  V30 5970 C 567.631 -1.27606 -3.5411 0
M  V30 5971 C 566.778 -1.5517 -2.29821 0
M  V30 5972 H 569.729 -1.23608 -0.995332 0
M  V30 5973 H 569.75 -0.903984 -3.69606 0
M  V30 5974 H 569.262 -2.55578 -2.92064 0
M  V30 5975 H 567.363 -0.222948 -3.71932 0
M  V30 5976 H 567.476 -1.99667 -4.35511 0
M  V30 5977 H 565.84 -0.972747 -2.35393 0
M  V30 5978 H 566.623 -2.63689 -2.19824 0
M  V30 5979 N 569.068 1.32177 -0.85831 0
M  V30 5980 C 570.314 1.97813 -0.47346 0
M  V30 5981 C 570.669 1.66674 0.961122 0
M  V30 5982 O 569.962 0.94657 1.66585 0
M  V30 5983 C 570.156 3.51372 -0.653658 0
M  V30 5984 C 569.985 3.97433 -2.1042 0
M  V30 5985 C 568.755 4.24338 -2.74345 0
M  V30 5986 C 570.953 4.12233 -3.0752 0
M  V30 5987 N 568.935 4.56672 -4.10272 0
M  V30 5988 C 570.306 4.48146 -4.28445 0
M  V30 5989 C 572.361 3.94577 -3.03667 0
M  V30 5990 C 571.064 4.68246 -5.4602 0
M  V30 5991 C 573.09 4.15864 -4.20489 0
M  V30 5992 C 572.452 4.52098 -5.40173 0
M  V30 5993 H 568.551 0.749808 -0.222061 0
M  V30 5994 H 571.135 1.59927 -1.11047 0
M  V30 5995 H 569.306 3.88372 -0.0463267 0
M  V30 5996 H 571.038 4.03998 -0.238343 0
M  V30 5997 H 567.793 4.16544 -2.25362 0
M  V30 5998 H 568.217 4.77019 -4.80398 0
M  V30 5999 H 572.859 3.65662 -2.12252 0
M  V30 6000 H 570.577 4.96014 -6.37962 0
M  V30 6001 H 574.163 4.03702 -4.18947 0
M  V30 6002 H 573.043 4.68238 -6.29065 0
M  V30 6003 N 570.547 0.616602 1.45037 0
M  V30 6004 C 571.794 0.115331 2.02171 0
M  V30 6005 C 572.122 -1.25748 1.48383 0
M  V30 6006 O 571.377 -1.84511 0.652229 0
M  V30 6007 C 571.676 0.0356829 3.57382 0
M  V30 6008 C 571.342 1.34535 4.30362 0
M  V30 6009 C 570.004 1.70408 4.50016 0
M  V30 6010 C 572.356 2.21049 4.72003 0
M  V30 6011 C 569.684 2.92529 5.0857 0
M  V30 6012 C 572.036 3.42427 5.31908 0
M  V30 6013 C 570.7 3.78541 5.49784 0
M  V30 6014 H 569.97 0.0422024 0.739797 0
M  V30 6015 H 572.617 0.80002 1.73988 0
M  V30 6016 H 570.922 -0.732314 3.84895 0
M  V30 6017 H 572.619 -0.368463 3.99304 0
M  V30 6018 H 569.209 1.05615 4.15383 0
M  V30 6019 H 573.393 1.94632 4.56544 0
M  V30 6020 H 568.649 3.20605 5.20598 0
M  V30 6021 H 572.823 4.09709 5.63127 0
M  V30 6022 H 570.45 4.73255 5.94923 0
M  V30 6023 N 572.025 -1.5352 0.356285 0
M  V30 6024 C 573.436 -1.86282 -0.12492 0
M  V30 6025 C 573.787 -1.27717 -1.48939 0
M  V30 6026 O 572.912 -0.595614 -2.08042 0
M  V30 6027 C 573.507 -3.37995 -0.23345 0
M  V30 6028 C 572.066 -3.70588 -0.658899 0
M  V30 6029 C 571.213 -2.76581 0.199596 0
M  V30 6030 H 574.164 -1.47901 0.575423 0
M  V30 6031 H 574.185 -3.65475 -1.0587 0
M  V30 6032 H 573.697 -3.8059 0.759776 0
M  V30 6033 H 571.798 -3.33544 -1.66069 0
M  V30 6034 H 571.911 -4.77076 -0.439957 0
M  V30 6035 H 570.275 -2.52552 -0.330076 0
M  V30 6036 H 571.058 -3.22008 1.19019 0
M  V30 6037 N 573.503 -0.0852151 -1.57369 0
M  V30 6038 C 574.413 0.891712 -2.16992 0
M  V30 6039 C 575.429 1.3174 -1.13669 0
M  V30 6040 O 576.605 1.38735 -1.45995 0
M  V30 6041 C 573.67 2.13635 -2.73059 0
M  V30 6042 C 572.731 1.7658 -3.91303 0
M  V30 6043 C 571.964 2.95111 -4.44686 0
M  V30 6044 O 572.187 4.09539 -3.97032 0
M  V30 6045 O 571.121 2.74149 -5.35841 0
M  V30 6046 H 574.947 0.414477 -3.00858 0
M  V30 6047 H 572.532 0.138598 -1.48756 0
M  V30 6048 H 574.414 2.86595 -3.08935 0
M  V30 6049 H 573.089 2.6043 -1.92244 0
M  V30 6050 H 571.996 1.00831 -3.60255 0
M  V30 6051 H 573.329 1.34557 -4.7345 0
M  V30 6052 N 574.981 1.5647 0.188427 0
M  V30 6053 C 576.228 1.81013 0.907779 0
M  V30 6054 C 576.556 0.65953 1.82977 0
M  V30 6055 O 575.811 -0.354308 1.92466 0
M  V30 6056 C 576.11 3.11596 1.7505 0
M  V30 6057 C 575.776 4.40145 0.978922 0
M  V30 6058 C 574.438 4.75066 0.765912 0
M  V30 6059 C 576.79 5.19369 0.436498 0
M  V30 6060 C 574.118 5.867 -0.00089868 0
M  V30 6061 C 576.47 6.31805 -0.317136 0
M  V30 6062 C 575.134 6.65303 -0.541103 0
M  V30 6063 H 574.404 0.662373 0.33218 0
M  V30 6064 H 577.051 1.9071 0.173732 0
M  V30 6065 H 575.356 2.97165 2.55343 0
M  V30 6066 H 577.053 3.27793 2.30983 0
M  V30 6067 H 573.643 4.12745 1.15497 0
M  V30 6068 H 577.827 4.92799 0.588449 0
M  V30 6069 H 573.083 6.11122 -0.184329 0
M  V30 6070 H 577.257 6.92406 -0.744788 0
M  V30 6071 H 574.884 7.51646 -1.13718 0
M  V30 6072 N 576.459 -0.456382 1.50847 0
M  V30 6073 C 577.684 -1.2349 1.66628 0
M  V30 6074 C 578.109 -1.84715 0.355254 0
M  V30 6075 O 577.467 -1.67961 -0.682559 0
M  V30 6076 C 577.515 -2.30865 2.77009 0
M  V30 6077 O 576.619 -3.35882 2.39285 0
M  V30 6078 H 575.96 -0.36266 0.556214 0
M  V30 6079 H 578.49 -0.541374 1.97308 0
M  V30 6080 H 578.5 -2.75949 3.00526 0
M  V30 6081 H 577.175 -1.85677 3.72152 0
M  V30 6082 H 575.752 -2.96406 2.26269 0
M  V30 6083 N 577.937 -1.40673 -0.710563 0
M  V30 6084 C 578.847 -1.43663 -1.85467 0
M  V30 6085 C 579.863 -0.328721 -1.70867 0
M  V30 6086 O 581.039 -0.574098 -1.93044 0
M  V30 6087 C 578.104 -1.30226 -3.21313 0
M  V30 6088 C 577.165 -2.51204 -3.48131 0
M  V30 6089 C 576.398 -2.38398 -4.77495 0
M  V30 6090 O 576.621 -1.40048 -5.5294 0
M  V30 6091 O 575.555 -3.2787 -5.04762 0
M  V30 6092 H 579.381 -2.40156 -1.859 0
M  V30 6093 H 576.966 -1.22049 -0.861652 0
M  V30 6094 H 578.848 -1.2496 -4.02446 0
M  V30 6095 H 577.523 -0.368419 -3.21597 0
M  V30 6096 H 576.43 -2.62048 -2.66987 0
M  V30 6097 H 577.763 -3.43366 -3.52648 0
M  V30 6098 N 579.415 0.9433 -1.26252 0
M  V30 6099 C 580.378 2.02326 -1.07689 0
M  V30 6100 C 581.378 1.60779 -0.0259174 0
M  V30 6101 O 582.568 1.72108 -0.269134 0
M  V30 6102 C 579.7 3.34886 -0.63752 0
M  V30 6103 H 580.893 2.20225 -2.0357 0
M  V30 6104 H 578.446 1.12197 -1.08819 0
M  V30 6105 H 579.181 3.22684 0.323377 0
M  V30 6106 H 578.966 3.66393 -1.39637 0
M  V30 6107 H 580.456 4.14231 -0.529418 0
M  V30 6108 N 580.893 1.08022 1.14757 0
M  V30 6109 C 582.309 0.807072 1.3769 0
M  V30 6110 C 582.509 -0.585504 1.92806 0
M  V30 6111 O 581.565 -1.34301 2.13821 0
M  V30 6112 C 582.878 1.88651 2.34161 0
M  V30 6113 C 584.426 1.91206 2.47809 0
M  V30 6114 C 584.901 2.98253 3.47576 0
M  V30 6115 N 586.392 2.974 3.55117 0
M  V30 6116 C 587.127 3.76872 4.32152 0
M  V30 6117 N 586.623 4.66212 5.12463 0
M  V30 6118 N 588.416 3.6519 4.27309 0
M  V30 6119 H 580.567 1.97824 0.77326 0
M  V30 6120 H 582.83 0.85826 0.402608 0
M  V30 6121 H 582.536 2.88749 2.00791 0
M  V30 6122 H 582.41 1.75244 3.3402 0
M  V30 6123 H 584.797 0.917564 2.80472 0
M  V30 6124 H 584.878 2.08691 1.47925 0
M  V30 6125 H 584.522 3.97907 3.15646 0
M  V30 6126 H 584.452 2.78014 4.47231 0
M  V30 6127 H 586.943 2.32643 2.97801 0
M  V30 6128 H 587.256 5.23468 5.68508 0
M  V30 6129 H 585.601 4.70257 5.11745 0
M  V30 6130 H 588.792 2.94765 3.63636 0
M  V30 6131 H 588.965 4.27366 4.87095 0
M  V30 6132 N 582.371 -1.3172 0.865308 0
M  V30 6133 C 583.334 -2.26918 0.322627 0
M  V30 6134 C 584.334 -1.52031 -0.523751 0
M  V30 6135 O 585.524 -1.70973 -0.333727 0
M  V30 6136 C 582.656 -3.36558 -0.542338 0
M  V30 6137 H 583.849 -2.76432 1.16298 0
M  V30 6138 H 581.402 -1.42573 0.640512 0
M  V30 6139 H 582.137 -2.92329 -1.40407 0
M  V30 6140 H 581.922 -3.92048 0.0636395 0
M  V30 6141 H 583.412 -4.07465 -0.91446 0
M  V30 6142 N 583.85 -0.624285 -1.44708 0
M  V30 6143 C 585.099 -0.123539 -2.01321 0
M  V30 6144 C 585.412 1.25966 -1.49639 0
M  V30 6145 O 586.618 1.85405 -1.98336 0
M  V30 6146 C 585.074 -0.170124 -3.59498 0
M  V30 6147 C 584.682 -1.55421 -4.20176 0
M  V30 6148 C 586.426 0.274513 -4.23611 0
M  V30 6149 C 584.332 -1.55628 -5.70556 0
M  V30 6150 H 583.263 -0.0424183 -0.752806 0
M  V30 6151 H 585.913 -0.782076 -1.65999 0
M  V30 6152 H 584.296 0.555385 -3.92086 0
M  V30 6153 H 585.47 -2.30276 -3.99136 0
M  V30 6154 H 583.784 -1.94235 -3.68323 0
M  V30 6155 H 586.382 0.292402 -5.339 0
M  V30 6156 H 586.725 1.3005 -3.95465 0
M  V30 6157 H 587.258 -0.398275 -3.95801 0
M  V30 6158 H 583.997 -2.56041 -6.03426 0
M  V30 6159 H 583.517 -0.850563 -5.93739 0
M  V30 6160 H 585.196 -1.28721 -6.34066 0
M  V30 6161 N 585.328 1.53329 -0.364422 0
M  V30 6162 C 586.261 2.22052 0.526145 0
M  V30 6163 C 587.239 1.21203 1.08391 0
M  V30 6164 O 588.423 1.50101 1.14026 0
M  V30 6165 C 585.55 2.91432 1.72583 0
M  V30 6166 C 584.596 4.06345 1.29562 0
M  V30 6167 S 585.429 5.34671 0.297885 0
M  V30 6168 C 586.585 6.07563 1.50392 0
M  V30 6169 H 586.818 2.97244 -0.0575055 0
M  V30 6170 H 584.351 1.53684 -0.148525 0
M  V30 6171 H 586.309 3.3202 2.41398 0
M  V30 6172 H 584.97 2.15966 2.28073 0
M  V30 6173 H 584.163 4.53901 2.19067 0
M  V30 6174 H 583.765 3.67642 0.686696 0
M  V30 6175 H 586.057 6.32224 2.43513 0
M  V30 6176 H 587 6.99973 1.06977 0
M  V30 6177 H 587.408 5.37994 1.70945 0
M  V30 6178 N 586.806 0.0935595 1.57322 0
M  V30 6179 C 587.736 -0.863062 2.16964 0
M  V30 6180 C 588.717 -1.29528 1.10256 0
M  V30 6181 O 589.902 -1.36245 1.38387 0
M  V30 6182 C 587.032 -2.12276 2.74875 0
M  V30 6183 C 585.986 -1.82921 3.86942 0
M  V30 6184 C 585.312 -3.15707 4.31548 0
M  V30 6185 C 586.612 -1.11737 5.10208 0
M  V30 6186 H 588.306 -0.366145 2.97153 0
M  V30 6187 H 585.852 -0.174673 1.42937 0
M  V30 6188 H 587.805 -2.79634 3.1525 0
M  V30 6189 H 586.529 -2.64248 1.91938 0
M  V30 6190 H 585.188 -1.17961 3.47103 0
M  V30 6191 H 584.836 -3.65563 3.45504 0
M  V30 6192 H 584.536 -2.96849 5.07104 0
M  V30 6193 H 586.06 -3.84226 4.74555 0
M  V30 6194 H 587.474 -1.69203 5.47762 0
M  V30 6195 H 585.871 -1.03064 5.91183 0
M  V30 6196 H 586.941 -0.0998818 4.84797 0
M  V30 6197 N 588.284 -1.56567 -0.180126 0
M  V30 6198 C 589.509 -1.85975 -0.918041 0
M  V30 6199 C 589.934 -0.678888 -1.75422 0
M  V30 6200 O 589.292 0.372168 -1.77439 0
M  V30 6201 C 589.34 -3.13731 -1.77779 0
M  V30 6202 O 588.444 -2.95335 -2.87838 0
M  V30 6203 H 587.785 -0.61196 -0.257683 0
M  V30 6204 H 590.315 -2.03798 -0.180923 0
M  V30 6205 H 590.325 -3.4491 -2.17948 0
M  V30 6206 H 589 -3.99293 -1.16352 0
M  V30 6207 H 587.577 -2.7549 -2.51316 0
M  V30 6208 N 589.762 0.448376 -1.51087 0
M  V30 6209 C 591.178 0.783984 -1.39017 0
M  V30 6210 C 591.378 1.96087 -0.463904 0
M  V30 6211 O 590.434 2.52357 0.0850534 0
M  V30 6212 C 591.747 1.07471 -2.80839 0
M  V30 6213 C 593.295 1.17981 -2.89913 0
M  V30 6214 C 593.77 1.50354 -4.32617 0
M  V30 6215 N 595.261 1.57301 -4.35673 0
M  V30 6216 C 595.996 1.839 -5.4311 0
M  V30 6217 N 595.492 2.08365 -6.60724 0
M  V30 6218 N 597.285 1.8559 -5.30578 0
M  V30 6219 H 589.436 -0.326881 -2.0987 0
M  V30 6220 H 591.699 -0.0838006 -0.944289 0
M  V30 6221 H 591.405 0.282768 -3.50561 0
M  V30 6222 H 591.279 2.00519 -3.19487 0
M  V30 6223 H 593.666 1.9624 -2.20395 0
M  V30 6224 H 593.747 0.228603 -2.54776 0
M  V30 6225 H 593.391 0.726273 -5.0268 0
M  V30 6226 H 593.321 2.46663 -4.65258 0
M  V30 6227 H 595.812 1.40342 -3.50874 0
M  V30 6228 H 596.125 2.27999 -7.38401 0
M  V30 6229 H 594.47 2.0571 -6.63859 0
M  V30 6230 H 597.661 1.65989 -4.37682 0
M  V30 6231 H 597.834 2.05983 -6.1439 0
M  V30 6232 N 591.24 1.41047 0.703093 0
M  V30 6233 C 592.488 1.39723 1.4602 0
M  V30 6234 C 592.809 0.00461257 1.94999 0
M  V30 6235 O 592.079 -0.952292 1.71196 0
M  V30 6236 H 590.659 0.514281 0.541779 0
M  V30 6237 H 593.321 1.76217 0.832678 0
M  V30 6238 H 592.417 2.07982 2.32701 0
M  V30 6239 N 592.718 -0.936591 1.26751 0
M  V30 6240 C 593.648 -2.05315 1.11212 0
M  V30 6241 C 594.629 -1.70092 0.0160262 0
M  V30 6242 O 595.814 -1.93279 0.188894 0
M  V30 6243 C 592.944 -3.39123 0.749171 0
M  V30 6244 C 591.898 -3.88425 1.79751 0
M  V30 6245 C 591.224 -5.18936 1.28876 0
M  V30 6246 C 592.524 -4.12798 3.19992 0
M  V30 6247 H 594.218 -2.18573 2.04613 0
M  V30 6248 H 591.764 -1.05027 0.985159 0
M  V30 6249 H 593.717 -4.16704 0.627323 0
M  V30 6250 H 592.441 -3.25855 -0.220543 0
M  V30 6251 H 591.1 -3.13028 1.90811 0
M  V30 6252 H 590.748 -5.02051 0.308757 0
M  V30 6253 H 590.448 -5.52892 1.98958 0
M  V30 6254 H 591.972 -5.99096 1.17967 0
M  V30 6255 H 593.386 -4.80977 3.11983 0
M  V30 6256 H 591.783 -4.58044 3.87705 0
M  V30 6257 H 592.853 -3.18412 3.65707 0
M  V30 6258 N 594.196 -1.08629 -1.14182 0
M  V30 6259 C 595.159 -0.722027 -2.1753 0
M  V30 6260 C 596.159 0.244305 -1.58933 0
M  V30 6261 O 597.349 0.0235545 -1.74184 0
M  V30 6262 C 594.481 -0.0663966 -3.40835 0
M  V30 6263 H 595.674 -1.63719 -2.51269 0
M  V30 6264 H 593.227 -0.884442 -1.28869 0
M  V30 6265 H 593.962 0.860389 -3.12678 0
M  V30 6266 H 593.747 -0.761598 -3.84632 0
M  V30 6267 H 595.237 0.173346 -4.1724 0
M  V30 6268 N 595.674 1.31259 -0.872281 0
M  V30 6269 C 596.921 1.96622 -0.484365 0
M  V30 6270 C 597.249 1.68939 0.963841 0
M  V30 6271 O 596.504 0.97974 1.6941 0
M  V30 6272 C 596.803 3.50659 -0.690889 0
M  V30 6273 C 596.469 3.98366 -2.11224 0
M  V30 6274 C 595.131 4.11104 -2.50094 0
M  V30 6275 C 597.483 4.23425 -3.0391 0
M  V30 6276 C 594.811 4.46254 -3.80887 0
M  V30 6277 C 597.163 4.60039 -4.3422 0
M  V30 6278 C 595.827 4.70984 -4.73001 0
M  V30 6279 H 595.097 0.71949 -0.177242 0
M  V30 6280 H 597.744 1.56353 -1.10571 0
M  V30 6281 H 596.049 3.91798 0.0135782 0
M  V30 6282 H 597.746 3.99284 -0.370534 0
M  V30 6283 H 594.336 3.88949 -1.80047 0
M  V30 6284 H 598.52 4.13075 -2.75104 0
M  V30 6285 H 593.776 4.52926 -4.10692 0
M  V30 6286 H 597.95 4.78381 -5.06088 0
M  V30 6287 H 595.577 4.97977 -5.7439 0
M  V30 6288 N 597.152 0.631951 1.44375 0
M  V30 6289 C 598.4 0.136497 2.01639 0
M  V30 6290 C 598.721 -1.24637 1.49969 0
M  V30 6291 O 597.991 -1.82827 0.70363 0
M  V30 6292 H 596.571 0.0474703 0.74549 0
M  V30 6293 H 599.233 0.818837 1.76865 0
M  V30 6294 H 598.329 0.104817 3.11924 0
M  V30 6295 N 598.631 -1.53133 0.372548 0
M  V30 6296 C 599.861 -2.05476 -0.215202 0
M  V30 6297 C 600.269 -1.24534 -1.42436 0
M  V30 6298 O 599.612 -0.280771 -1.81542 0
M  V30 6299 C 599.674 -3.53276 -0.666068 0
M  V30 6300 C 599.338 -4.54998 0.427342 0
M  V30 6301 C 600.335 -5.03911 1.27944 0
M  V30 6302 C 598.02 -4.98828 0.589579 0
M  V30 6303 C 600.014 -5.95263 2.27905 0
M  V30 6304 C 597.701 -5.89984 1.59255 0
M  V30 6305 C 598.699 -6.38093 2.43571 0
M  V30 6306 O 598.387 -7.27451 3.42156 0
M  V30 6307 H 598.119 -0.67481 -0.040099 0
M  V30 6308 H 600.673 -1.98409 0.531312 0
M  V30 6309 H 598.903 -3.57904 -1.4643 0
M  V30 6310 H 600.592 -3.88442 -1.1776 0
M  V30 6311 H 601.358 -4.70792 1.16532 0
M  V30 6312 H 597.237 -4.60965 -0.0569456 0
M  V30 6313 H 600.781 -6.32736 2.93753 0
M  V30 6314 H 596.678 -6.22518 1.70711 0
M  V30 6315 H 597.446 -7.45467 3.37967 0
M  V30 6316 N 600.109 -0.101901 -1.5727 0
M  V30 6317 C 601.357 0.559091 -1.94213 0
M  V30 6318 C 601.678 1.68297 -0.984948 0
M  V30 6319 O 600.948 1.95863 -0.0381975 0
M  V30 6320 H 599.528 0.20952 -0.717015 0
M  V30 6321 H 602.19 -0.166831 -1.94185 0
M  V30 6322 H 601.286 0.96485 -2.96811 0
M  V30 6323 N 601.587 1.56661 0.17182 0
M  V30 6324 C 602.517 1.99401 1.21498 0
M  V30 6325 C 603.498 0.869516 1.46197 0
M  V30 6326 O 604.683 1.13556 1.57539 0
M  V30 6327 C 601.813 2.35346 2.55401 0
M  V30 6328 C 600.767 3.5075 2.45272 0
M  V30 6329 C 600.093 3.72437 3.8366 0
M  V30 6330 C 601.393 4.84216 1.95787 0
M  V30 6331 H 603.087 2.86792 0.859699 0
M  V30 6332 H 600.633 1.37977 0.412103 0
M  V30 6333 H 602.586 2.63843 3.2858 0
M  V30 6334 H 601.31 1.44864 2.92715 0
M  V30 6335 H 599.969 3.2238 1.74547 0
M  V30 6336 H 599.617 2.79246 4.18367 0
M  V30 6337 H 599.317 4.50087 3.77751 0
M  V30 6338 H 600.841 4.03334 4.58426 0
M  V30 6339 H 602.255 5.11592 2.5874 0
M  V30 6340 H 600.652 5.65498 2.00827 0
M  V30 6341 H 601.722 4.76243 0.912159 0
M  V30 6342 N 603.065 -0.440357 1.51323 0
M  V30 6343 C 603.995 -1.54174 1.75364 0
M  V30 6344 C 604.976 -1.59039 0.603375 0
M  V30 6345 O 606.161 -1.74815 0.845774 0
M  V30 6346 C 603.291 -2.92277 1.87593 0
M  V30 6347 C 602.245 -3.02274 3.03009 0
M  V30 6348 C 601.571 -4.42327 3.00418 0
M  V30 6349 C 602.871 -2.76634 4.43024 0
M  V30 6350 H 604.565 -1.34307 2.67585 0
M  V30 6351 H 602.111 -0.644678 1.28763 0
M  V30 6352 H 604.064 -3.69284 2.02995 0
M  V30 6353 H 602.788 -3.13369 0.920179 0
M  V30 6354 H 601.447 -2.27706 2.87307 0
M  V30 6355 H 601.095 -4.60382 2.02626 0
M  V30 6356 H 600.795 -4.49946 3.77918 0
M  V30 6357 H 602.319 -5.21312 3.17909 0
M  V30 6358 H 603.733 -3.43376 4.59093 0
M  V30 6359 H 602.13 -2.95666 5.22208 0
M  V30 6360 H 603.2 -1.72262 4.5327 0
M  V30 6361 N 604.543 -1.41418 -0.695603 0
M  V30 6362 C 605.783 -1.42241 -1.46788 0
M  V30 6363 C 606.147 -0.0300827 -1.91976 0
M  V30 6364 O 607.348 0.0868914 -2.6866 0
M  V30 6365 C 605.619 -2.4011 -2.6473 0
M  V30 6366 S 607.178 -2.59462 -3.53871 0
M  V30 6367 H 603.996 -0.503893 -0.50161 0
M  V30 6368 H 606.598 -1.77855 -0.811654 0
M  V30 6369 H 605.302 -3.40073 -2.29736 0
M  V30 6370 H 604.833 -2.05849 -3.35246 0
M  V30 6371 H 606.848 -1.862 -4.59939 0
M  V30 6372 N 606.021 0.929856 -1.27246 0
M  V30 6373 C 606.951 2.04722 -1.12299 0
M  V30 6374 C 607.932 1.70082 -0.0250464 0
M  V30 6375 O 609.117 1.93176 -0.199141 0
M  V30 6376 C 606.247 3.38721 -0.767145 0
M  V30 6377 C 605.201 3.87466 -1.81808 0
M  V30 6378 C 604.527 5.18246 -1.31626 0
M  V30 6379 C 605.827 4.11095 -3.22177 0
M  V30 6380 H 607.521 2.17485 -2.05769 0
M  V30 6381 H 605.067 1.04503 -0.990715 0
M  V30 6382 H 607.02 4.16366 -0.649413 0
M  V30 6383 H 605.744 3.25967 0.203259 0
M  V30 6384 H 604.403 3.12012 -1.92468 0
M  V30 6385 H 604.051 5.01881 -0.335378 0
M  V30 6386 H 603.751 5.51829 -2.01887 0
M  V30 6387 H 605.275 5.98462 -1.21143 0
M  V30 6388 H 606.689 4.79316 -3.1453 0
M  V30 6389 H 605.086 4.55982 -3.90129 0
M  V30 6390 H 606.156 3.16468 -3.67391 0
M  V30 6391 N 607.499 1.09233 1.13605 0
M  V30 6392 C 608.747 0.825525 1.84471 0
M  V30 6393 C 609.068 -0.650702 1.83823 0
M  V30 6394 O 608.338 -1.47204 1.29259 0
M  V30 6395 H 606.918 0.3024 0.683054 0
M  V30 6396 H 609.58 1.38006 1.37624 0
M  V30 6397 H 608.676 1.17727 2.89045 0
M  V30 6398 N 608.977 -1.30795 0.87923 0
M  V30 6399 C 609.91 -2.26396 0.286404 0
M  V30 6400 C 610.888 -1.51528 -0.589748 0
M  V30 6401 O 612.072 -1.80566 -0.541119 0
M  V30 6402 C 609.199 -3.33458 -0.593581 0
M  V30 6403 C 608.245 -4.2597 0.21247 0
M  V30 6404 S 609.078 -5.11132 1.59702 0
M  V30 6405 C 610.234 -6.21705 0.723408 0
M  V30 6406 H 610.467 -2.7633 1.09677 0
M  V30 6407 H 608 -1.38703 0.678305 0
M  V30 6408 H 609.958 -3.9561 -1.09557 0
M  V30 6409 H 608.619 -2.82259 -1.37799 0
M  V30 6410 H 607.812 -5.01907 -0.458822 0
M  V30 6411 H 607.414 -3.68363 0.646883 0
M  V30 6412 H 609.706 -6.77472 -0.0620739 0
M  V30 6413 H 610.649 -6.93007 1.4542 0
M  V30 6414 H 611.057 -5.63771 0.286855 0
M  V30 6415 N 610.455 -0.639598 -1.44038 0
M  V30 6416 C 611.418 0.0506628 -2.29144 0
M  V30 6417 C 612.418 0.764001 -1.41491 0
M  V30 6418 O 613.608 0.607309 -1.63271 0
M  V30 6419 C 610.74 1.0824 -3.2326 0
M  V30 6420 H 611.933 -0.697987 -2.91664 0
M  V30 6421 H 609.486 -0.400146 -1.51091 0
M  V30 6422 H 610.221 1.86075 -2.65606 0
M  V30 6423 H 610.006 0.574725 -3.87865 0
M  V30 6424 H 611.496 1.56487 -3.87171 0
M  V30 6425 N 611.933 1.52934 -0.380664 0
M  V30 6426 C 613.163 2.05587 0.204302 0
M  V30 6427 C 613.571 1.25288 1.41773 0
M  V30 6428 O 612.914 0.290394 1.8139 0
M  V30 6429 C 612.976 3.53624 0.647324 0
M  V30 6430 C 612.64 4.54765 -0.451465 0
M  V30 6431 C 613.637 5.03226 -1.30614 0
M  V30 6432 C 611.322 4.98508 -0.616025 0
M  V30 6433 C 613.316 5.94046 -2.31058 0
M  V30 6434 C 611.003 5.89131 -1.62381 0
M  V30 6435 C 612.001 6.36792 -2.46952 0
M  V30 6436 O 611.689 7.25626 -3.46009 0
M  V30 6437 H 611.421 0.675013 0.0365198 0
M  V30 6438 H 613.975 1.98125 -0.541827 0
M  V30 6439 H 612.205 3.58676 1.44529 0
M  V30 6440 H 613.894 3.89061 1.15698 0
M  V30 6441 H 614.66 4.70167 -1.19027 0
M  V30 6442 H 610.539 4.60989 0.0324987 0
M  V30 6443 H 614.083 6.3117 -2.97104 0
M  V30 6444 H 609.98 6.21603 -1.7401 0
M  V30 6445 H 610.748 7.43664 -3.41916 0
M  V30 6446 N 613.412 0.11024 1.57214 0
M  V30 6447 C 614.661 -0.549638 1.94067 0
M  V30 6448 C 614.974 -1.68388 0.995234 0
M  V30 6449 O 616.18 -2.40593 1.25807 0
M  V30 6450 C 614.636 -1.02912 3.44873 0
M  V30 6451 C 614.244 0.0761861 4.47935 0
M  V30 6452 C 615.988 -1.66087 3.9066 0
M  V30 6453 C 613.895 -0.419502 5.8991 0
M  V30 6454 H 612.825 -0.209092 0.724428 0
M  V30 6455 H 615.476 0.188683 1.82527 0
M  V30 6456 H 613.858 -1.82159 3.51616 0
M  V30 6457 H 615.032 0.852185 4.52851 0
M  V30 6458 H 613.347 0.614052 4.11847 0
M  V30 6459 H 615.944 -2.04272 4.94143 0
M  V30 6460 H 616.287 -2.53591 3.30148 0
M  V30 6461 H 616.82 -0.933959 3.86681 0
M  V30 6462 H 613.559 0.419277 6.54158 0
M  V30 6463 H 613.079 -1.16217 5.88433 0
M  V30 6464 H 614.758 -0.883577 6.40938 0
M  V30 6465 N 614.89 -1.56749 -0.16351 0
M  V30 6466 C 616.115 -1.86938 -0.898264 0
M  V30 6467 C 616.54 -0.697456 -1.74692 0
M  V30 6468 O 615.898 0.353327 -1.77824 0
M  V30 6469 C 615.946 -3.15599 -1.74441 0
M  V30 6470 O 615.05 -2.98371 -2.8469 0
M  V30 6471 H 614.391 -0.614659 -0.251178 0
M  V30 6472 H 616.921 -2.03979 -0.159298 0
M  V30 6473 H 616.931 -3.47202 -2.14277 0
M  V30 6474 H 615.606 -4.00505 -1.1211 0
M  V30 6475 H 614.183 -2.7814 -2.4838 0
M  V30 6476 N 616.368 0.432326 -1.51554 0
M  V30 6477 C 617.593 1.20824 -1.68571 0
M  V30 6478 C 618.018 1.84126 -0.384596 0
M  V30 6479 O 617.376 1.69025 0.655751 0
M  V30 6480 C 617.424 2.26429 -2.80646 0
M  V30 6481 O 616.528 3.32032 -2.44598 0
M  V30 6482 H 615.869 0.353765 -0.561913 0
M  V30 6483 H 618.399 0.509916 -1.98144 0
M  V30 6484 H 618.409 2.71133 -3.04878 0
M  V30 6485 H 617.084 1.79733 -3.75058 0
M  V30 6486 H 615.661 2.92769 -2.30956 0
M  V30 6487 N 617.846 1.41785 0.688094 0
M  V30 6488 C 618.778 1.40159 1.81351 0
M  V30 6489 C 619.791 0.30262 1.59963 0
M  V30 6490 O 620.98 0.564841 1.69327 0
M  V30 6491 C 618.08 1.16517 3.1824 0
M  V30 6492 C 617.253 2.38597 3.66593 0
M  V30 6493 C 616.312 2.10699 4.82174 0
M  V30 6494 O 615.338 2.83798 4.93404 0
M  V30 6495 N 616.54 1.10187 5.69947 0
M  V30 6496 H 619.305 2.3716 1.83236 0
M  V30 6497 H 616.866 1.36494 0.870697 0
M  V30 6498 H 618.858 0.957941 3.93199 0
M  V30 6499 H 617.428 0.280873 3.11336 0
M  V30 6500 H 616.648 2.74974 2.82459 0
M  V30 6501 H 617.936 3.19919 3.95638 0
M  V30 6502 H 617.334 0.497016 5.63512 0
M  V30 6503 H 615.891 0.954518 6.44773 0
M  V30 6504 N 619.324 -0.923095 1.27737 0
M  V30 6505 C 620.257 -2.02515 1.05181 0
M  V30 6506 C 621.235 -1.62574 -0.0292204 0
M  V30 6507 O 622.419 -1.88137 0.116848 0
M  V30 6508 C 619.546 -3.33407 0.596468 0
M  V30 6509 C 618.592 -3.92328 1.67276 0
M  V30 6510 S 619.425 -4.24342 3.26641 0
M  V30 6511 C 620.581 -5.58308 2.82919 0
M  V30 6512 H 620.814 -2.21336 1.98488 0
M  V30 6513 H 618.347 -1.06679 1.1162 0
M  V30 6514 H 620.305 -4.09086 0.34044 0
M  V30 6515 H 618.966 -3.125 -0.316614 0
M  V30 6516 H 618.159 -4.86797 1.30556 0
M  V30 6517 H 617.761 -3.2325 1.8811 0
M  V30 6518 H 620.053 -6.37801 2.28509 0
M  V30 6519 H 620.996 -5.99931 3.7615 0
M  V30 6520 H 621.404 -5.19049 2.21919 0
M  V30 6521 N 620.802 -1.09834 -1.13024 0
M  V30 6522 C 622.05 -0.835297 -1.8403 0
M  V30 6523 C 622.371 0.640944 -1.84165 0
M  V30 6524 O 621.641 1.46517 -1.30037 0
M  V30 6525 H 620.221 -0.306018 -0.681441 0
M  V30 6526 H 622.883 -1.38734 -1.36891 0
M  V30 6527 H 621.979 -1.19258 -2.88416 0
M  V30 6528 N 622.28 1.30327 -0.886154 0
M  V30 6529 C 623.691 1.78243 -0.555554 0
M  V30 6530 C 624.042 1.72849 0.928314 0
M  V30 6531 O 623.167 1.30607 1.72542 0
M  V30 6532 C 623.762 3.23654 -1.00168 0
M  V30 6533 C 622.321 3.69401 -0.722471 0
M  V30 6534 C 621.468 2.50753 -1.18399 0
M  V30 6535 H 624.419 1.1718 -1.07026 0
M  V30 6536 H 624.44 3.79056 -0.331152 0
M  V30 6537 H 623.952 3.27548 -2.08169 0
M  V30 6538 H 622.053 3.70995 0.345496 0
M  V30 6539 H 622.166 4.60818 -1.31085 0
M  V30 6540 H 620.53 2.47452 -0.603303 0
M  V30 6541 H 621.313 2.57383 -2.27176 0
M  V30 6542 N 623.758 0.647228 1.43697 0
M  V30 6543 C 625.004 0.158422 2.0218 0
M  V30 6544 C 625.337 -1.22233 1.50907 0
M  V30 6545 O 624.612 -1.81478 0.699702 0
M  V30 6546 C 624.895 0.1627 3.59732 0
M  V30 6547 C 624.748 1.57694 4.21251 0
M  V30 6548 C 626.067 -0.504138 4.37203 0
M  V30 6549 H 623.186 0.059042 0.734631 0
M  V30 6550 H 625.828 0.826772 1.71069 0
M  V30 6551 H 623.978 -0.406414 3.86368 0
M  V30 6552 H 625.65 2.19618 4.05667 0
M  V30 6553 H 623.893 2.12603 3.7813 0
M  V30 6554 H 624.564 1.53183 5.3032 0
M  V30 6555 H 627.04 -0.0199841 4.16095 0
M  V30 6556 H 625.916 -0.470394 5.46881 0
M  V30 6557 H 626.177 -1.57726 4.13007 0
M  V30 6558 N 625.236 -1.5273 0.388769 0
M  V30 6559 C 626.166 -2.29353 -0.438111 0
M  V30 6560 C 627.147 -1.32719 -1.06394 0
M  V30 6561 O 628.332 -1.61612 -1.07681 0
M  V30 6562 C 625.462 -3.09995 -1.56589 0
M  V30 6563 C 624.416 -4.14509 -1.06613 0
M  V30 6564 C 623.742 -4.83372 -2.28594 0
M  V30 6565 C 625.042 -5.22127 -0.134459 0
M  V30 6566 H 626.736 -2.98723 0.201206 0
M  V30 6567 H 624.282 -1.43665 0.0982089 0
M  V30 6568 H 626.235 -3.62357 -2.15118 0
M  V30 6569 H 624.959 -2.38357 -2.23279 0
M  V30 6570 H 623.618 -3.63128 -0.503383 0
M  V30 6571 H 623.266 -4.08283 -2.93792 0
M  V30 6572 H 622.966 -5.54012 -1.95817 0
M  V30 6573 H 624.49 -5.38538 -2.87766 0
M  V30 6574 H 625.904 -5.69851 -0.627914 0
M  V30 6575 H 624.301 -6.00011 0.103534 0
M  V30 6576 H 625.371 -4.77971 0.816798 0
M  V30 6577 N 626.714 -0.118576 -1.57153 0
M  V30 6578 C 627.646 0.862247 -2.12363 0
M  V30 6579 C 628.659 1.23025 -1.06625 0
M  V30 6580 O 629.848 1.17927 -1.33998 0
M  V30 6581 C 626.948 2.16425 -2.60794 0
M  V30 6582 C 626.121 1.96801 -3.90626 0
M  V30 6583 C 625.18 3.10726 -4.2466 0
M  V30 6584 O 624.206 2.83659 -4.93484 0
M  V30 6585 N 625.408 4.37147 -3.81946 0
M  V30 6586 H 628.173 0.390564 -2.97144 0
M  V30 6587 H 625.734 0.0658591 -1.61766 0
M  V30 6588 H 627.726 2.91633 -2.80593 0
M  V30 6589 H 626.296 2.54943 -1.80895 0
M  V30 6590 H 625.516 1.05787 -3.7974 0
M  V30 6591 H 626.804 1.80993 -4.7552 0
M  V30 6592 H 626.202 4.62014 -3.26435 0
M  V30 6593 H 624.759 5.09229 -4.06853 0
M  V30 6594 N 628.193 1.56834 0.155195 0
M  V30 6595 C 629.156 1.96748 1.17571 0
M  V30 6596 C 630.156 0.853006 1.3631 0
M  V30 6597 O 631.346 1.11978 1.33441 0
M  V30 6598 C 628.478 2.27631 2.53765 0
M  V30 6599 H 629.671 2.88085 0.833498 0
M  V30 6600 H 627.224 1.51141 0.398242 0
M  V30 6601 H 627.959 1.39059 2.92973 0
M  V30 6602 H 627.744 3.0888 2.41527 0
M  V30 6603 H 629.234 2.59377 3.27282 0
M  V30 6604 N 629.671 -0.424282 1.51781 0
M  V30 6605 C 630.634 -1.49848 1.73431 0
M  V30 6606 C 631.634 -1.49016 0.604225 0
M  V30 6607 O 632.824 -1.50808 0.871935 0
M  V30 6608 C 629.956 -2.89332 1.80277 0
M  V30 6609 H 631.149 -1.3195 2.69312 0
M  V30 6610 H 628.702 -0.653809 1.41968 0
M  V30 6611 H 629.437 -3.12618 0.862568 0
M  V30 6612 H 629.222 -2.9134 2.62419 0
M  V30 6613 H 630.712 -3.67233 1.98821 0
M  V30 6614 N 631.149 -1.42148 -0.680565 0
M  V30 6615 C 632.398 -1.41604 -1.43636 0
M  V30 6616 C 632.711 -0.0337887 -1.95571 0
M  V30 6617 O 633.917 0.0942588 -2.71336 0
M  V30 6618 C 632.373 -2.49056 -2.59806 0
M  V30 6619 C 631.981 -3.9326 -2.14594 0
M  V30 6620 C 633.725 -2.5767 -3.37352 0
M  V30 6621 C 631.632 -4.92232 -3.27813 0
M  V30 6622 H 630.562 -0.526656 -0.539583 0
M  V30 6623 H 633.213 -1.68033 -0.737369 0
M  V30 6624 H 631.595 -2.15782 -3.32045 0
M  V30 6625 H 632.769 -4.35858 -1.49546 0
M  V30 6626 H 631.084 -3.88443 -1.50002 0
M  V30 6627 H 633.681 -3.28794 -4.21662 0
M  V30 6628 H 634.024 -1.61837 -3.83555 0
M  V30 6629 H 634.557 -2.90109 -2.72179 0
M  V30 6630 H 631.296 -5.89522 -2.86607 0
M  V30 6631 H 630.816 -4.5427 -3.91661 0
M  V30 6632 H 632.495 -5.13684 -3.93367 0
M  V30 6633 N 632.627 0.916307 -1.28225 0
M  V30 6634 C 633.852 1.7043 -1.18188 0
M  V30 6635 C 634.277 1.86346 0.256274 0
M  V30 6636 O 633.635 1.37175 1.18544 0
M  V30 6637 C 633.683 3.07546 -1.88275 0
M  V30 6638 O 632.787 3.94904 -1.18848 0
M  V30 6639 H 632.128 0.521967 -0.410423 0
M  V30 6640 H 634.658 1.14589 -1.69501 0
M  V30 6641 H 634.668 3.57793 -1.96082 0
M  V30 6642 H 633.343 2.95279 -2.92887 0
M  V30 6643 H 631.92 3.53339 -1.19187 0
M  V30 6644 N 634.105 1.10431 1.1244 0
M  V30 6645 C 635.354 0.841539 1.83306 0
M  V30 6646 C 635.667 -0.634961 1.85007 0
M  V30 6647 O 636.873 -1.01363 2.51869 0
M  V30 6648 C 635.329 1.45565 3.29149 0
M  V30 6649 C 634.937 2.96544 3.35806 0
M  V30 6650 C 636.681 1.27227 4.04986 0
M  V30 6651 C 634.588 3.5099 4.75983 0
M  V30 6652 H 633.518 0.311156 0.686803 0
M  V30 6653 H 636.169 1.32829 1.26604 0
M  V30 6654 H 634.551 0.896574 3.85717 0
M  V30 6655 H 635.725 3.58766 2.89177 0
M  V30 6656 H 634.04 3.14036 2.73442 0
M  V30 6657 H 636.637 1.65348 5.08492 0
M  V30 6658 H 636.98 0.213834 4.1575 0
M  V30 6659 H 637.513 1.79941 3.54776 0
M  V30 6660 H 634.252 4.56499 4.70413 0
M  V30 6661 H 633.772 2.93535 5.23065 0
M  V30 6662 H 635.451 3.48808 5.44924 0
M  V30 6663 N 635.583 -1.29855 0.893053 0
M  V30 6664 C 636.83 -1.95826 0.515585 0
M  V30 6665 C 637.158 -1.70451 -0.936842 0
M  V30 6666 O 636.413 -1.00657 -1.67829 0
M  V30 6667 C 636.712 -3.49515 0.746588 0
M  V30 6668 C 636.378 -3.94955 2.17535 0
M  V30 6669 C 635.04 -4.07073 2.56603 0
M  V30 6670 C 637.392 -4.18536 3.10607 0
M  V30 6671 C 634.72 -4.40138 3.87938 0
M  V30 6672 C 637.072 -4.53073 4.41484 0
M  V30 6673 C 635.736 -4.634 4.80434 0
M  V30 6674 H 635.006 -0.71658 0.188666 0
M  V30 6675 H 637.653 -1.54574 1.13045 0
M  V30 6676 H 635.958 -3.9177 0.0487551 0
M  V30 6677 H 637.655 -3.98644 0.434009 0
M  V30 6678 H 634.245 -3.86035 1.86212 0
M  V30 6679 H 638.429 -4.08646 2.81641 0
M  V30 6680 H 633.685 -4.46335 4.17846 0
M  V30 6681 H 637.859 -4.70269 5.13634 0
M  V30 6682 H 635.486 -4.88775 5.82239 0
M  V30 6683 N 637.061 -0.65484 -1.43351 0
M  V30 6684 C 638.309 -0.168559 -2.01396 0
M  V30 6685 C 638.63 1.22235 -1.51933 0
M  V30 6686 O 637.9 1.81685 -0.732627 0
M  V30 6687 H 636.48 -0.0593244 -0.744641 0
M  V30 6688 H 639.142 -0.846871 -1.75539 0
M  V30 6689 H 638.238 -0.154428 -3.11718 0
M  V30 6690 N 638.539 1.52521 -0.396863 0
M  V30 6691 C 639.472 2.23118 0.478926 0
M  V30 6692 C 640.45 1.23475 1.05796 0
M  V30 6693 O 641.634 1.52486 1.10817 0
M  V30 6694 C 638.761 2.95028 1.66362 0
M  V30 6695 C 637.807 4.09002 1.20913 0
M  V30 6696 S 638.64 5.35182 0.184407 0
M  V30 6697 C 639.796 6.10616 1.37471 0
M  V30 6698 H 640.029 2.97056 -0.120542 0
M  V30 6699 H 637.562 1.53334 -0.18109 0
M  V30 6700 H 639.52 3.37066 2.34301 0
M  V30 6701 H 638.181 2.20756 2.23441 0
M  V30 6702 H 637.374 4.58445 2.09389 0
M  V30 6703 H 636.976 3.69016 0.608559 0
M  V30 6704 H 639.268 6.37247 2.30048 0
M  V30 6705 H 640.211 7.02084 0.921051 0
M  V30 6706 H 640.619 5.41499 1.59495 0
M  V30 6707 N 640.017 0.126909 1.57088 0
M  V30 6708 C 641.263 -0.529952 1.95753 0
M  V30 6709 C 641.596 -1.65823 1.01077 0
M  V30 6710 O 640.871 -1.94437 0.0494162 0
M  V30 6711 C 641.154 -1.05517 3.44294 0
M  V30 6712 C 641.007 0.0702253 4.49745 0
M  V30 6713 C 642.326 -1.9435 3.94862 0
M  V30 6714 H 639.445 -0.191168 0.711775 0
M  V30 6715 H 642.087 0.204071 1.88901 0
M  V30 6716 H 640.237 -1.68069 3.50264 0
M  V30 6717 H 641.909 0.705834 4.55868 0
M  V30 6718 H 640.152 0.732259 4.27575 0
M  V30 6719 H 640.823 -0.338642 5.5096 0
M  V30 6720 H 643.299 -1.41658 3.91244 0
M  V30 6721 H 642.175 -2.28015 4.993 0
M  V30 6722 H 642.436 -2.87299 3.36024 0
M  V30 6723 N 641.495 -1.56914 -0.146875 0
M  V30 6724 C 642.743 -1.82994 -0.85777 0
M  V30 6725 C 643.064 -0.707814 -1.817 0
M  V30 6726 O 642.334 0.270521 -1.94023 0
M  V30 6727 H 640.914 -0.675106 -0.319751 0
M  V30 6728 H 643.576 -1.9439 -0.140849 0
M  V30 6729 H 642.672 -2.77928 -1.41994 0
M  V30 6730 N 642.974 0.416227 -1.52004 0
M  V30 6731 C 644.222 1.16153 -1.65387 0
M  V30 6732 C 644.543 1.91208 -0.382669 0
M  V30 6733 O 643.813 1.86413 0.602231 0
M  V30 6734 H 642.393 0.431765 -0.60958 0
M  V30 6735 H 645.055 0.475151 -1.89019 0
M  V30 6736 H 644.151 1.87952 -2.4916 0
M  V30 6737 N 644.452 1.42507 0.673017 0
M  V30 6738 C 645.863 1.38347 1.25367 0
M  V30 6739 C 646.214 0.0776327 1.96046 0
M  V30 6740 O 645.339 -0.823571 2.00116 0
M  V30 6741 C 645.934 2.506 2.28002 0
M  V30 6742 C 644.493 2.49767 2.81591 0
M  V30 6743 C 643.64 2.293 1.55938 0
M  V30 6744 H 646.591 1.51695 0.466288 0
M  V30 6745 H 646.612 2.20953 3.09774 0
M  V30 6746 H 646.124 3.45627 1.76532 0
M  V30 6747 H 644.225 1.58563 3.37177 0
M  V30 6748 H 644.338 3.46867 3.30485 0
M  V30 6749 H 642.702 1.77594 1.82572 0
M  V30 6750 H 643.485 3.26385 1.06431 0
M  V30 6751 N 645.93 -0.909495 1.28709 0
M  V30 6752 C 646.86 -2.0291 1.15542 0
M  V30 6753 C 647.841 -1.7002 0.0521017 0
M  V30 6754 O 649.026 -1.92835 0.229849 0
M  V30 6755 C 646.156 -3.37458 0.820935 0
M  V30 6756 C 645.11 -3.84524 1.87949 0
M  V30 6757 C 644.436 -5.16086 1.39854 0
M  V30 6758 C 645.736 -4.05918 3.28676 0
M  V30 6759 H 647.43 -2.14183 2.09203 0
M  V30 6760 H 644.976 -1.02913 1.00722 0
M  V30 6761 H 646.929 -4.1528 0.715571 0
M  V30 6762 H 645.653 -3.26249 -0.151374 0
M  V30 6763 H 644.312 -3.08911 1.97408 0
M  V30 6764 H 643.96 -5.01284 0.41518 0
M  V30 6765 H 643.66 -5.48547 2.1064 0
M  V30 6766 H 645.184 -5.96459 1.30649 0
M  V30 6767 H 646.598 -4.74252 3.22115 0
M  V30 6768 H 644.995 -4.49717 3.97334 0
M  V30 6769 H 646.065 -3.10583 3.72379 0
M  V30 6770 N 647.408 -1.11026 -1.11852 0
M  V30 6771 C 648.338 -0.786812 -2.19844 0
M  V30 6772 C 649.319 0.242935 -1.68356 0
M  V30 6773 O 650.504 0.107355 -1.93903 0
M  V30 6774 C 647.634 -0.224516 -3.46574 0
M  V30 6775 C 646.588 -1.18564 -4.1125 0
M  V30 6776 C 645.914 -0.484261 -5.32503 0
M  V30 6777 C 647.214 -2.53465 -4.56676 0
M  V30 6778 H 648.908 -1.68978 -2.47158 0
M  V30 6779 H 646.454 -0.813906 -1.18792 0
M  V30 6780 H 648.407 0.0139435 -4.21398 0
M  V30 6781 H 647.131 0.713722 -3.18706 0
M  V30 6782 H 645.79 -1.40966 -3.38414 0
M  V30 6783 H 645.438 0.458646 -5.00905 0
M  V30 6784 H 645.138 -1.12526 -5.76725 0
M  V30 6785 H 646.662 -0.254492 -6.10069 0
M  V30 6786 H 648.076 -2.35177 -5.22843 0
M  V30 6787 H 646.473 -3.13507 -5.11697 0
M  V30 6788 H 647.543 -3.13008 -3.70343 0
M  V30 6789 N 648.886 1.2938 -0.899927 0
M  V30 6790 C 650.134 1.95164 -0.524924 0
M  V30 6791 C 650.455 1.71292 0.931888 0
M  V30 6792 O 649.725 1.04481 1.65712 0
M  V30 6793 H 648.305 0.722133 -0.191135 0
M  V30 6794 H 650.967 1.57628 -1.14627 0
M  V30 6795 H 650.063 3.0397 -0.707711 0
M  V30 6796 N 650.364 0.662433 1.43002 0
M  V30 6797 C 651.294 -0.00979809 2.33498 0
M  V30 6798 C 652.275 -0.802329 1.49989 0
M  V30 6799 O 653.46 -0.761964 1.78627 0
M  V30 6800 C 650.59 -0.970446 3.33466 0
M  V30 6801 C 649.544 -0.287383 4.27034 0
M  V30 6802 C 648.87 -1.36012 5.17112 0
M  V30 6803 C 650.17 0.82595 5.15728 0
M  V30 6804 H 651.864 0.745959 2.89958 0
M  V30 6805 H 649.41 0.360172 1.39423 0
M  V30 6806 H 651.363 -1.44971 3.95679 0
M  V30 6807 H 650.087 -1.75748 2.75282 0
M  V30 6808 H 648.746 0.17152 3.66199 0
M  V30 6809 H 648.394 -2.13882 4.55262 0
M  V30 6810 H 648.094 -0.908276 5.80538 0
M  V30 6811 H 649.618 -1.84056 5.82199 0
M  V30 6812 H 651.032 0.42845 5.71697 0
M  V30 6813 H 649.429 1.20282 5.87922 0
M  V30 6814 H 650.499 1.68003 4.54866 0
M  V30 6815 N 651.842 -1.52309 0.404946 0
M  V30 6816 C 653.089 -2.01767 -0.1722 0
M  V30 6817 C 653.417 -1.29075 -1.45498 0
M  V30 6818 O 652.672 -0.3843 -1.9189 0
M  V30 6819 C 652.971 -3.54284 -0.470895 0
M  V30 6820 C 652.637 -4.45079 0.722194 0
M  V30 6821 C 651.299 -4.69617 1.04946 0
M  V30 6822 C 653.651 -4.98555 1.51962 0
M  V30 6823 C 650.979 -5.44878 2.17543 0
M  V30 6824 C 653.331 -5.75049 2.63632 0
M  V30 6825 C 651.995 -5.9786 2.9685 0
M  V30 6826 H 651.265 -0.738316 -0.0630125 0
M  V30 6827 H 653.912 -1.83566 0.545506 0
M  V30 6828 H 652.217 -3.70642 -1.27012 0
M  V30 6829 H 653.914 -3.90058 -0.930346 0
M  V30 6830 H 650.504 -4.26155 0.457131 0
M  V30 6831 H 654.688 -4.79509 1.28002 0
M  V30 6832 H 649.944 -5.60762 2.43631 0
M  V30 6833 H 654.118 -6.15483 3.25813 0
M  V30 6834 H 651.745 -6.5596 3.84215 0
M  V30 6835 N 653.32 -0.135238 -1.57019 0
M  V30 6836 C 654.56 0.521686 -1.9763 0
M  V30 6837 C 654.924 1.62804 -1.01778 0
M  V30 6838 O 656.125 2.345 -1.31389 0
M  V30 6839 C 654.396 1.0257 -3.42365 0
M  V30 6840 S 655.955 1.68888 -4.04997 0
M  V30 6841 H 652.773 0.169064 -0.690607 0
M  V30 6842 H 655.375 -0.224168 -1.94211 0
M  V30 6843 H 654.079 0.209556 -4.09865 0
M  V30 6844 H 653.61 1.80645 -3.49472 0
M  V30 6845 H 655.625 2.97554 -3.97084 0
M  V30 6846 N 654.798 1.5699 0.138552 0
M  V30 6847 C 655.728 2.01933 1.17241 0
M  V30 6848 C 656.709 0.90033 1.44319 0
M  V30 6849 O 657.894 1.16872 1.55095 0
M  V30 6850 C 655.024 2.40711 2.50351 0
M  V30 6851 C 653.978 3.55874 2.37776 0
M  V30 6852 C 653.304 3.80491 3.75674 0
M  V30 6853 C 654.604 4.8826 1.85472 0
M  V30 6854 H 656.298 2.88551 0.798672 0
M  V30 6855 H 653.844 1.3882 0.382743 0
M  V30 6856 H 655.797 2.70754 3.22909 0
M  V30 6857 H 654.521 1.5104 2.89576 0
M  V30 6858 H 653.18 3.2601 1.67669 0
M  V30 6859 H 652.828 2.88057 4.12349 0
M  V30 6860 H 652.528 4.57998 3.68119 0
M  V30 6861 H 654.052 4.12967 4.49767 0
M  V30 6862 H 655.466 5.16965 2.4783 0
M  V30 6863 H 653.863 5.69631 1.88787 0
M  V30 6864 H 654.933 4.78071 0.810935 0
M  V30 6865 N 656.276 -0.40816 1.52223 0
M  V30 6866 C 657.524 -1.15274 1.66001 0
M  V30 6867 C 657.845 -1.91003 0.392803 0
M  V30 6868 O 657.115 -1.8673 -0.592336 0
M  V30 6869 H 655.695 -0.428526 0.611861 0
M  V30 6870 H 658.357 -0.46512 1.89269 0
M  V30 6871 H 657.453 -1.86628 2.50153 0
M  V30 6872 N 657.755 -1.42862 -0.66545 0
M  V30 6873 C 658.688 -1.41509 -1.79026 0
M  V30 6874 C 659.666 -0.278106 -1.60204 0
M  V30 6875 O 660.85 -0.469792 -1.82552 0
M  V30 6876 C 657.977 -1.21494 -3.1616 0
M  V30 6877 C 657.023 -2.38308 -3.53711 0
M  V30 6878 S 657.856 -4.00852 -3.55075 0
M  V30 6879 C 659.012 -3.83197 -4.94885 0
M  V30 6880 H 659.245 -2.36691 -1.79902 0
M  V30 6881 H 656.778 -1.29746 -0.836977 0
M  V30 6882 H 658.736 -1.10633 -3.95311 0
M  V30 6883 H 657.397 -0.27881 -3.1286 0
M  V30 6884 H 656.59 -2.20076 -4.53412 0
M  V30 6885 H 656.192 -2.45732 -2.81943 0
M  V30 6886 H 658.484 -3.44765 -5.83218 0
M  V30 6887 H 659.427 -4.82607 -5.18166 0
M  V30 6888 H 659.835 -3.15884 -4.67843 0
M  V30 6889 N 659.233 0.902656 -1.29189 0
M  V30 6890 C 660.48 1.65287 -1.16989 0
M  V30 6891 C 660.808 1.92485 0.279232 0
M  V30 6892 O 660.063 1.53143 1.21843 0
M  V30 6893 C 660.362 3.011 -1.92545 0
M  V30 6894 C 660.028 2.93521 -3.42281 0
M  V30 6895 C 658.69 2.91161 -3.83117 0
M  V30 6896 C 661.042 2.82947 -4.3771 0
M  V30 6897 C 658.37 2.76043 -5.17704 0
M  V30 6898 C 660.722 2.69368 -5.72384 0
M  V30 6899 C 659.386 2.65373 -6.12482 0
M  V30 6900 H 658.656 0.604828 -0.428094 0
M  V30 6901 H 661.303 1.05084 -1.60092 0
M  V30 6902 H 659.608 3.65153 -1.42024 0
M  V30 6903 H 661.305 3.58073 -1.80512 0
M  V30 6904 H 657.895 2.96158 -3.09819 0
M  V30 6905 H 662.079 2.83849 -4.07116 0
M  V30 6906 H 657.335 2.71352 -5.47885 0
M  V30 6907 H 661.509 2.60156 -6.45981 0
M  V30 6908 H 659.136 2.53415 -7.16718 0
M  V30 6909 N 660.711 1.11618 1.11262 0
M  V30 6910 C 661.958 0.86618 1.8304 0
M  V30 6911 C 662.286 -0.608149 1.84748 0
M  V30 6912 O 661.541 -1.46508 1.29745 0
M  V30 6913 C 661.84 1.37529 3.2988 0
M  V30 6914 C 661.506 2.86317 3.4833 0
M  V30 6915 C 660.168 3.26945 3.53073 0
M  V30 6916 C 662.52 3.82136 3.54431 0
M  V30 6917 C 659.848 4.62117 3.61475 0
M  V30 6918 C 662.2 5.17128 3.64365 0
M  V30 6919 C 660.864 5.57312 3.67369 0
M  V30 6920 H 660.134 0.316958 0.66979 0
M  V30 6921 H 662.781 1.3949 1.31205 0
M  V30 6922 H 661.086 0.766842 3.84222 0
M  V30 6923 H 662.783 1.15817 3.83911 0
M  V30 6924 H 659.373 2.53889 3.45309 0
M  V30 6925 H 663.557 3.51847 3.50025 0
M  V30 6926 H 658.813 4.92655 3.62079 0
M  V30 6927 H 662.987 5.91208 3.68029 0
M  V30 6928 H 660.614 6.62045 3.73632 0
M  V30 6929 N 662.189 -1.289 0.906776 0
M  V30 6930 C 663.6 -1.77336 0.58384 0
M  V30 6931 C 663.951 -1.74304 -0.900697 0
M  V30 6932 O 663.076 -1.33335 -1.70443 0
M  V30 6933 C 663.671 -3.22019 1.05304 0
M  V30 6934 C 662.23 -3.68205 0.781148 0
M  V30 6935 C 661.377 -2.48837 1.22373 0
M  V30 6936 H 664.328 -1.15462 1.08877 0
M  V30 6937 H 664.349 -3.78481 0.391414 0
M  V30 6938 H 663.861 -3.24194 2.13353 0
M  V30 6939 H 661.962 -3.71497 -0.28643 0
M  V30 6940 H 662.075 -4.58675 1.384 0
M  V30 6941 H 660.439 -2.46461 0.642594 0
M  V30 6942 H 661.222 -2.53736 2.31242 0
M  V30 6943 N 663.667 -0.670007 -1.42649 0
M  V30 6944 C 664.907 -0.194106 -2.03476 0
M  V30 6945 C 665.271 1.1755 -1.51809 0
M  V30 6946 O 666.472 1.74579 -2.04391 0
M  V30 6947 C 664.743 -0.221828 -3.56711 0
M  V30 6948 S 666.302 0.183772 -4.38415 0
M  V30 6949 H 663.12 -0.0802478 -0.706457 0
M  V30 6950 H 665.722 -0.882092 -1.74469 0
M  V30 6951 H 664.426 -1.22107 -3.91814 0
M  V30 6952 H 663.957 0.486149 -3.90385 0
M  V30 6953 H 665.972 1.41839 -4.75496 0
M  V30 6954 N 665.145 1.52092 -0.413018 0
M  V30 6955 C 666.108 2.25706 0.398687 0
M  V30 6956 C 667.108 1.28221 0.970368 0
M  V30 6957 O 668.298 1.52131 0.848635 0
M  V30 6958 C 665.43 3.03029 1.5616 0
M  V30 6959 H 666.623 2.98888 -0.246131 0
M  V30 6960 H 664.176 1.5542 -0.165622 0
M  V30 6961 H 664.911 2.34205 2.24317 0
M  V30 6962 H 664.696 3.74606 1.15812 0
M  V30 6963 H 666.186 3.58857 2.13569 0
M  V30 6964 N 666.623 0.143563 1.56945 0
M  V30 6965 C 667.571 -0.814556 2.17871 0
M  V30 6966 C 668.565 -1.25778 1.13474 0
M  V30 6967 O 669.771 -1.22666 1.31731 0
M  V30 6968 H 666.146 -0.280873 0.697578 0
M  V30 6969 H 668.117 -0.276459 2.97117 0
M  V30 6970 C 666.866 -2.04503 2.81201 0
M  V30 6971 H 666.189 -1.71296 3.61245 0
M  V30 6972 H 667.629 -2.69493 3.27337 0
M  V30 6973 C 666.088 -2.85079 1.79532 0
M  V30 6974 O 666.618 -3.81306 1.26368 0
M  V30 6975 N 664.824 -2.49546 1.48913 0
M  V30 6976 H 664.371 -1.71359 1.92338 0
M  V30 6977 H 664.329 -3.03751 0.811348 0
M  V30 6978 N 668.101 -1.57061 -0.130224 0
M  V30 6979 C 669.512 -1.73539 -0.68856 0
M  V30 6980 C 669.863 -0.760554 -1.80859 0
M  V30 6981 O 668.988 0.0690796 -2.1629 0
M  V30 6982 C 669.583 -3.14666 -1.25581 0
M  V30 6983 C 668.142 -3.32689 -1.76055 0
M  V30 6984 C 667.289 -2.69436 -0.655712 0
M  V30 6985 H 670.24 -1.58412 0.0956002 0
M  V30 6986 H 670.261 -3.15595 -2.12556 0
M  V30 6987 H 669.773 -3.85593 -0.440412 0
M  V30 6988 H 667.874 -2.66786 -2.60108 0
M  V30 6989 H 667.987 -4.4077 -1.87772 0
M  V30 6990 H 666.351 -2.30362 -1.08654 0
M  V30 6991 H 667.134 -3.42979 0.14852 0
M  V30 6992 N 669.579 0.400081 -1.52437 0
M  V30 6993 C 670.99 0.97851 -1.59003 0
M  V30 6994 C 671.341 1.91293 -0.436068 0
M  V30 6995 O 670.466 2.1183 0.442365 0
M  V30 6996 C 671.061 1.78145 -2.88184 0
M  V30 6997 C 669.62 2.30976 -2.97199 0
M  V30 6998 C 668.767 1.11212 -2.54022 0
M  V30 6999 H 671.718 0.180002 -1.57676 0
M  V30 7000 H 671.739 2.63968 -2.74046 0
M  V30 7001 H 671.251 1.1011 -3.72152 0
M  V30 7002 H 669.352 3.02355 -2.17744 0
M  V30 7003 H 669.465 2.61221 -4.01622 0
M  V30 7004 H 667.829 1.46882 -2.08081 0
M  V30 7005 H 668.612 0.447307 -3.40373 0
M  V30 7006 N 671.057 1.43213 0.657864 0
M  V30 7007 C 672.305 1.44298 1.41501 0
M  V30 7008 C 672.626 0.0666478 1.94886 0
M  V30 7009 O 671.896 -0.897345 1.74139 0
M  V30 7010 H 670.476 0.531257 0.525143 0
M  V30 7011 H 673.138 1.78777 0.776195 0
M  V30 7012 H 672.234 2.1528 2.25966 0
M  V30 7013 N 672.536 -0.895792 1.29666 0
M  V30 7014 C 673.499 -1.98189 1.15124 0
M  V30 7015 C 674.499 -1.60572 0.0855717 0
M  V30 7016 O 675.689 -1.70991 0.332826 0
M  V30 7017 C 672.821 -3.32289 0.761372 0
M  V30 7018 H 674.014 -2.12518 2.11603 0
M  V30 7019 H 671.567 -1.0808 1.12908 0
M  V30 7020 H 672.302 -3.23662 -0.203393 0
M  V30 7021 H 672.087 -3.60958 1.53139 0
M  V30 7022 H 673.577 -4.1198 0.682792 0
M  V30 7023 N 674.014 -1.12206 -1.10668 0
M  V30 7024 C 675.26 -0.877172 -1.82848 0
M  V30 7025 C 675.593 0.595571 -1.84842 0
M  V30 7026 O 674.868 1.44013 -1.30731 0
M  V30 7027 C 675.151 -1.44957 -3.29635 0
M  V30 7028 C 675.004 -2.99051 -3.35989 0
M  V30 7029 C 676.323 -1.10714 -4.25946 0
M  V30 7030 H 673.442 -0.320103 -0.663854 0
M  V30 7031 H 676.084 -1.38827 -1.2972 0
M  V30 7032 H 674.234 -1.01488 -3.7501 0
M  V30 7033 H 675.906 -3.51182 -2.99113 0
M  V30 7034 H 674.149 -3.34705 -2.75962 0
M  V30 7035 H 674.82 -3.34194 -4.39339 0
M  V30 7036 H 677.296 -1.48254 -3.88793 0
M  V30 7037 H 676.172 -1.5343 -5.2702 0
M  V30 7038 H 676.433 -0.019 -4.42096 0
M  V30 7039 N 675.492 1.28418 -0.913599 0
M  V30 7040 C 676.738 1.9527 -0.547484 0
M  V30 7041 C 677.071 1.71745 0.906486 0
M  V30 7042 O 676.346 1.03834 1.64465 0
M  V30 7043 C 676.629 3.49748 -0.857205 0
M  V30 7044 C 676.482 3.82675 -2.3639 0
M  V30 7045 C 677.801 4.3868 -0.353258 0
M  V30 7046 H 674.92 0.709236 -0.200381 0
M  V30 7047 H 677.562 1.51789 -1.14281 0
M  V30 7048 H 675.712 3.86915 -0.350548 0
M  V30 7049 H 677.384 3.55378 -2.94116 0
M  V30 7050 H 675.627 3.29724 -2.81894 0
M  V30 7051 H 676.298 4.90547 -2.53115 0
M  V30 7052 H 678.774 4.08584 -0.787288 0
M  V30 7053 H 677.65 5.45621 -0.599049 0
M  V30 7054 H 677.911 4.35753 0.746413 0
M  V30 7055 N 676.97 0.677563 1.42291 0
M  V30 7056 C 678.218 0.200578 2.01102 0
M  V30 7057 C 678.539 -1.19803 1.53858 0
M  V30 7058 O 677.809 -1.80496 0.761439 0
M  V30 7059 H 676.389 0.0711634 0.743603 0
M  V30 7060 H 679.051 0.874691 1.7417 0
M  V30 7061 H 678.147 0.204 3.11433 0
M  V30 7062 N 678.448 -1.51871 0.421078 0
M  V30 7063 C 679.378 -2.30231 -0.389363 0
M  V30 7064 C 680.359 -1.34946 -1.03555 0
M  V30 7065 O 681.544 -1.63859 -1.04229 0
M  V30 7066 C 678.674 -3.13247 -1.49979 0
M  V30 7067 C 677.628 -4.16677 -0.977966 0
M  V30 7068 C 676.954 -4.88112 -2.1829 0
M  V30 7069 C 678.254 -5.22295 -0.0236775 0
M  V30 7070 H 679.948 -2.98229 0.264524 0
M  V30 7071 H 677.494 -1.43424 0.12866 0
M  V30 7072 H 679.447 -3.66838 -2.07383 0
M  V30 7073 H 678.171 -2.4304 -2.18173 0
M  V30 7074 H 676.83 -3.64114 -0.426245 0
M  V30 7075 H 676.478 -4.14423 -2.85066 0
M  V30 7076 H 676.178 -5.58041 -1.84021 0
M  V30 7077 H 677.702 -5.44521 -2.76278 0
M  V30 7078 H 679.116 -5.71055 -0.506899 0
M  V30 7079 H 677.513 -5.99656 0.230782 0
M  V30 7080 H 678.583 -4.76131 0.917999 0
M  V30 7081 N 679.926 -0.151884 -1.56866 0
M  V30 7082 C 680.856 0.781943 -2.20018 0
M  V30 7083 C 681.837 1.25347 -1.14987 0
M  V30 7084 O 683.022 1.31015 -1.43348 0
M  V30 7085 C 680.152 2.01928 -2.82564 0
M  V30 7086 C 679.106 1.68434 -3.93464 0
M  V30 7087 C 678.432 2.99472 -4.42968 0
M  V30 7088 C 679.732 0.927244 -5.14003 0
M  V30 7089 H 681.426 0.255607 -2.98307 0
M  V30 7090 H 678.972 0.121502 -1.43486 0
M  V30 7091 H 680.925 2.67741 -3.25411 0
M  V30 7092 H 679.649 2.56943 -2.01614 0
M  V30 7093 H 678.308 1.04998 -3.51242 0
M  V30 7094 H 677.956 3.52488 -3.58834 0
M  V30 7095 H 677.656 2.77823 -5.17772 0
M  V30 7096 H 679.18 3.66348 -4.88489 0
M  V30 7097 H 680.594 1.48756 -5.53665 0
M  V30 7098 H 678.991 0.810513 -5.94601 0
M  V30 7099 H 680.061 -0.0801163 -4.84834 0
M  V30 7100 N 681.404 1.57128 0.121893 0
M  V30 7101 C 682.367 1.99197 1.13372 0
M  V30 7102 C 683.367 0.881728 1.3447 0
M  V30 7103 O 684.557 1.14783 1.31036 0
M  V30 7104 C 681.689 2.32963 2.4888 0
M  V30 7105 H 682.882 2.89788 0.772204 0
M  V30 7106 H 680.435 1.51952 0.366093 0
M  V30 7107 H 681.17 1.45243 2.89957 0
M  V30 7108 H 680.955 3.13934 2.34921 0
M  V30 7109 H 682.445 2.66261 3.21706 0
M  V30 7110 N 682.882 -0.391992 1.52647 0
M  V30 7111 C 684.13 -1.13507 1.67214 0
M  V30 7112 C 684.451 -1.90575 0.41304 0
M  V30 7113 O 683.721 -1.87348 -0.572498 0
M  V30 7114 H 682.301 -0.422013 0.616372 0
M  V30 7115 H 684.963 -0.44502 1.89751 0
M  V30 7116 H 684.059 -1.83964 2.52118 0
M  V30 7117 N 684.36 -1.4356 -0.65026 0
M  V30 7118 C 685.29 -1.51758 -1.77459 0
M  V30 7119 C 686.271 -0.372019 -1.65982 0
M  V30 7120 O 687.456 -0.589627 -1.85033 0
M  V30 7121 C 684.586 -1.44302 -3.15902 0
M  V30 7122 C 683.54 -2.57138 -3.42146 0
M  V30 7123 C 682.866 -2.34735 -4.8042 0
M  V30 7124 C 684.166 -3.99373 -3.36598 0
M  V30 7125 H 685.86 -2.45863 -1.70855 0
M  V30 7126 H 683.406 -1.18333 -0.820566 0
M  V30 7127 H 685.359 -1.48641 -3.94314 0
M  V30 7128 H 684.083 -0.467026 -3.23244 0
M  V30 7129 H 682.742 -2.52157 -2.66106 0
M  V30 7130 H 682.39 -1.35372 -4.84441 0
M  V30 7131 H 682.09 -3.10375 -4.9894 0
M  V30 7132 H 683.614 -2.40862 -5.61086 0
M  V30 7133 H 685.028 -4.05826 -4.04942 0
M  V30 7134 H 683.425 -4.75063 -3.66654 0
M  V30 7135 H 684.495 -4.243 -2.34729 0
M  V30 7136 N 685.838 0.888903 -1.30139 0
M  V30 7137 C 687.084 1.6428 -1.18912 0
M  V30 7138 C 687.417 1.92499 0.256477 0
M  V30 7139 O 686.692 1.54312 1.18397 0
M  V30 7140 C 686.975 2.9851 -2.01405 0
M  V30 7141 C 686.828 2.77288 -3.54163 0
M  V30 7142 C 688.147 3.99383 -1.84882 0
M  V30 7143 H 685.266 0.596148 -0.433333 0
M  V30 7144 H 687.908 1.0289 -1.5973 0
M  V30 7145 H 686.058 3.50907 -1.66722 0
M  V30 7146 H 687.73 2.31709 -3.98884 0
M  V30 7147 H 685.973 2.11867 -3.78543 0
M  V30 7148 H 686.644 3.72717 -4.07168 0
M  V30 7149 H 689.12 3.56132 -2.15196 0
M  V30 7150 H 687.996 4.91222 -2.44934 0
M  V30 7151 H 688.257 4.34674 -0.806902 0
M  V30 7152 N 687.317 1.12792 1.10072 0
M  V30 7153 C 688.25 0.742921 2.15768 0
M  V30 7154 C 689.228 -0.267714 1.60381 0
M  V30 7155 O 690.412 -0.160782 1.87813 0
M  V30 7156 C 687.539 0.100244 3.38552 0
M  V30 7157 C 686.585 1.07831 4.12644 0
M  V30 7158 S 687.418 2.60765 4.6772 0
M  V30 7159 C 688.574 1.97838 5.9381 0
M  V30 7160 H 688.807 1.63822 2.48092 0
M  V30 7161 H 686.34 0.947385 1.21918 0
M  V30 7162 H 688.298 -0.264175 4.09649 0
M  V30 7163 H 686.959 -0.772223 3.04459 0
M  V30 7164 H 686.152 0.576325 5.00694 0
M  V30 7165 H 685.754 1.38586 3.47376 0
M  V30 7166 H 688.046 1.32341 6.64449 0
M  V30 7167 H 688.989 2.83943 6.48677 0
M  V30 7168 H 689.397 1.43267 5.46017 0
M  V30 7169 N 688.795 -1.27931 0.920396 0
M  V30 7170 C 689.758 -2.25345 0.41858 0
M  V30 7171 C 690.758 -1.54116 -0.458798 0
M  V30 7172 O 691.948 -1.72235 -0.260912 0
M  V30 7173 C 689.08 -3.38556 -0.399104 0
M  V30 7174 H 690.273 -2.71251 1.27918 0
M  V30 7175 H 687.826 -1.39728 0.700406 0
M  V30 7176 H 688.561 -2.98021 -1.27882 0
M  V30 7177 H 688.346 -3.91426 0.229863 0
M  V30 7178 H 689.836 -4.10976 -0.740817 0
M  V30 7179 N 690.273 -0.685099 -1.4193 0
M  V30 7180 C 691.52 -0.211658 -2.01391 0
M  V30 7181 C 691.848 1.18526 -1.54214 0
M  V30 7182 O 691.103 1.81189 -0.739519 0
M  V30 7183 C 691.402 -0.206154 -3.56805 0
M  V30 7184 C 691.068 -1.54915 -4.23453 0
M  V30 7185 C 689.73 -1.91684 -4.41373 0
M  V30 7186 C 692.082 -2.43317 -4.60919 0
M  V30 7187 C 689.41 -3.16461 -4.94034 0
M  V30 7188 C 691.762 -3.67415 -5.14965 0
M  V30 7189 C 690.426 -4.04341 -5.31098 0
M  V30 7190 H 689.696 -0.0774511 -0.736941 0
M  V30 7191 H 692.343 -0.882121 -1.69973 0
M  V30 7192 H 690.648 0.547841 -3.87951 0
M  V30 7193 H 692.345 0.17753 -4.00607 0
M  V30 7194 H 688.935 -1.25314 -4.09871 0
M  V30 7195 H 693.119 -2.16192 -4.46738 0
M  V30 7196 H 688.375 -3.45078 -5.04709 0
M  V30 7197 H 692.549 -4.3611 -5.42938 0
M  V30 7198 H 690.176 -5.01101 -5.71666 0
M  V30 7199 N 691.751 1.51645 -0.429126 0
M  V30 7200 C 692.997 2.02967 0.132584 0
M  V30 7201 C 693.352 1.30804 1.41096 0
M  V30 7202 O 692.645 0.411705 1.87124 0
M  V30 7203 C 692.839 3.54989 0.414472 0
M  V30 7204 C 692.668 4.41879 -0.83503 0
M  V30 7205 C 691.438 4.86482 -1.36614 0
M  V30 7206 C 693.636 4.84727 -1.71886 0
M  V30 7207 N 691.618 5.5756 -2.56904 0
M  V30 7208 C 692.989 5.54788 -2.76786 0
M  V30 7209 C 695.044 4.66721 -1.73425 0
M  V30 7210 C 693.747 6.08753 -3.8316 0
M  V30 7211 C 695.773 5.21597 -2.7873 0
M  V30 7212 C 695.135 5.91598 -3.8235 0
M  V30 7213 H 691.234 0.781942 0.00956367 0
M  V30 7214 H 693.818 1.8561 -0.587957 0
M  V30 7215 H 691.989 3.72378 1.10405 0
M  V30 7216 H 693.721 3.92982 0.966817 0
M  V30 7217 H 690.476 4.64553 -0.921255 0
M  V30 7218 H 690.9 5.97731 -3.17879 0
M  V30 7219 H 695.542 4.1207 -0.946467 0
M  V30 7220 H 693.26 6.62464 -4.62782 0
M  V30 7221 H 696.846 5.09522 -2.80853 0
M  V30 7222 H 695.726 6.33299 -4.62495 0
M  V30 7223 N 693.229 0.160201 1.56784 0
M  V30 7224 C 694.478 -0.487619 1.95717 0
M  V30 7225 C 694.791 -1.65136 1.0483 0
M  V30 7226 O 695.997 -2.36468 1.33398 0
M  V30 7227 C 694.453 -0.91888 3.47972 0
M  V30 7228 C 694.061 0.218655 4.47466 0
M  V30 7229 C 695.805 -1.53575 3.95746 0
M  V30 7230 C 693.712 -0.231614 5.90946 0
M  V30 7231 H 692.642 -0.185939 0.730714 0
M  V30 7232 H 695.293 0.246657 1.81835 0
M  V30 7233 H 693.675 -1.70881 3.57234 0
M  V30 7234 H 694.849 0.995825 4.49911 0
M  V30 7235 H 693.164 0.744767 4.09685 0
M  V30 7236 H 695.761 -1.88448 5.00391 0
M  V30 7237 H 696.104 -2.42959 3.38048 0
M  V30 7238 H 696.637 -0.810467 3.89456 0
M  V30 7239 H 693.376 0.62718 6.52493 0
M  V30 7240 H 692.896 -0.974379 5.91833 0
M  V30 7241 H 694.575 -0.67922 6.43425 0
M  V30 7242 N 694.707 -1.5719 -0.113559 0
M  V30 7243 C 695.955 -1.84772 -0.818761 0
M  V30 7244 C 696.276 -0.746196 -1.80158 0
M  V30 7245 O 695.546 0.229305 -1.94553 0
M  V30 7246 H 694.126 -0.681737 -0.305359 0
M  V30 7247 H 696.788 -1.94645 -0.0995845 0
M  V30 7248 H 695.884 -2.80878 -1.36067 0
M  V30 7249 N 696.185 0.383891 -1.52853 0
M  V30 7250 C 697.434 1.12563 -1.67369 0
M  V30 7251 C 697.747 1.90982 -0.422533 0
M  V30 7252 O 698.953 2.6778 -0.447914 0
M  V30 7253 C 697.409 2.05011 -2.95801 0
M  V30 7254 C 697.017 1.31991 -4.28115 0
M  V30 7255 C 698.761 2.79289 -3.19684 0
M  V30 7256 C 696.668 2.23235 -5.4765 0
M  V30 7257 H 695.598 0.42391 -0.623552 0
M  V30 7258 H 698.249 0.388016 -1.79351 0
M  V30 7259 H 696.631 2.82429 -2.77578 0
M  V30 7260 H 697.805 0.597633 -4.56908 0
M  V30 7261 H 696.12 0.696517 -4.10533 0
M  V30 7262 H 698.717 3.47749 -4.06171 0
M  V30 7263 H 699.06 3.43649 -2.3497 0
M  V30 7264 H 699.593 2.08962 -3.38496 0
M  V30 7265 H 696.332 1.63482 -6.34786 0
M  V30 7266 H 695.852 2.93364 -5.23161 0
M  V30 7267 H 697.531 2.83205 -5.81725 0
M  V30 7268 N 697.663 1.43903 0.642637 0
M  V30 7269 C 698.911 1.45791 1.39962 0
M  V30 7270 C 699.232 0.0873144 1.94804 0
M  V30 7271 O 698.502 -0.878825 1.75081 0
M  V30 7272 H 697.082 0.536797 0.519479 0
M  V30 7273 H 699.744 1.7959 0.757189 0
M  V30 7274 H 698.84 2.17665 2.2367 0
M  V30 7275 N 699.141 -0.881989 1.30609 0
M  V30 7276 C 700.366 -1.67236 1.22665 0
M  V30 7277 C 700.791 -1.8696 -0.206777 0
M  V30 7278 O 700.149 -1.4027 -1.14865 0
M  V30 7279 C 700.197 -3.02446 1.96363 0
M  V30 7280 O 699.301 -3.91614 1.29276 0
M  V30 7281 H 698.642 -0.510902 0.424117 0
M  V30 7282 H 701.172 -1.10055 1.72479 0
M  V30 7283 H 701.182 -3.52468 2.055 0
M  V30 7284 H 699.857 -2.8741 3.00613 0
M  V30 7285 H 698.434 -3.50055 1.28514 0
M  V30 7286 N 700.619 -1.13374 -1.09472 0
M  V30 7287 C 701.868 -0.889844 -1.8101 0
M  V30 7288 C 702.181 0.585686 -1.86625 0
M  V30 7289 O 703.387 0.946497 -2.54467 0
M  V30 7290 C 701.843 -1.54241 -3.25174 0
M  V30 7291 C 701.451 -3.05343 -3.27826 0
M  V30 7292 C 703.195 -1.37919 -4.0147 0
M  V30 7293 C 701.102 -3.63486 -4.6651 0
M  V30 7294 H 700.032 -0.329256 -0.678311 0
M  V30 7295 H 702.683 -1.36139 -1.23038 0
M  V30 7296 H 701.065 -0.998525 -3.83204 0
M  V30 7297 H 702.239 -3.66307 -2.79563 0
M  V30 7298 H 700.554 -3.21175 -2.65019 0
M  V30 7299 H 703.151 -1.78771 -5.03929 0
M  V30 7300 H 703.494 -0.323987 -4.15037 0
M  V30 7301 H 704.027 -1.89284 -3.49881 0
M  V30 7302 H 700.766 -4.68811 -4.58145 0
M  V30 7303 H 700.286 -3.073 -5.15099 0
M  V30 7304 H 701.965 -3.63134 -5.35484 0
M  V30 7305 N 702.098 1.27442 -0.927168 0
M  V30 7306 C 703.344 1.94679 -0.568164 0
M  V30 7307 C 703.677 1.72697 0.888219 0
M  V30 7308 O 702.952 1.05573 1.63354 0
M  V30 7309 C 703.235 3.4882 -0.894253 0
M  V30 7310 C 703.088 3.80146 -2.40435 0
M  V30 7311 C 704.407 4.38281 -0.399766 0
M  V30 7312 H 701.526 0.707071 -0.207892 0
M  V30 7313 H 704.168 1.50568 -1.15885 0
M  V30 7314 H 702.318 3.86522 -0.391566 0
M  V30 7315 H 703.99 3.52238 -2.97869 0
M  V30 7316 H 702.233 3.26716 -2.85375 0
M  V30 7317 H 702.904 4.87835 -2.58304 0
M  V30 7318 H 705.38 4.07726 -0.83058 0
M  V30 7319 H 704.256 5.44955 -0.656885 0
M  V30 7320 H 704.517 4.36521 0.700153 0
M  V30 7321 N 703.576 0.692616 1.41565 0
M  V30 7322 C 704.804 0.231279 2.05603 0
M  V30 7323 C 705.219 -1.11837 1.52111 0
M  V30 7324 O 704.576 -1.6983 0.66813 0
M  V30 7325 C 704.627 0.177125 3.61066 0
M  V30 7326 O 704.348 1.47346 4.12578 0
M  V30 7327 C 705.849 -0.30556 4.42246 0
M  V30 7328 H 703.069 0.108238 0.662213 0
M  V30 7329 H 705.613 0.944369 1.81389 0
M  V30 7330 H 703.768 -0.486769 3.8433 0
M  V30 7331 H 704.182 1.35861 5.06599 0
M  V30 7332 H 705.656 -0.29233 5.51225 0
M  V30 7333 H 706.133 -1.34393 4.18133 0
M  V30 7334 H 706.739 0.327229 4.24039 0
M  V30 7335 N 705.054 -1.51416 0.437162 0
M  V30 7336 C 706.279 -2.0699 -0.130424 0
M  V30 7337 C 706.704 -1.30249 -1.35709 0
M  V30 7338 O 706.062 -0.340388 -1.78076 0
M  V30 7339 C 706.11 -3.5801 -0.43142 0
M  V30 7340 O 705.214 -3.8345 -1.5179 0
M  V30 7341 H 704.555 -0.663997 -0.00194339 0
M  V30 7342 H 707.085 -1.95029 0.618445 0
M  V30 7343 H 707.095 -4.02261 -0.681926 0
M  V30 7344 H 705.77 -4.13291 0.465137 0
M  V30 7345 H 704.347 -3.51062 -1.25737 0
M  V30 7346 N 706.532 -0.168513 -1.56696 0
M  V30 7347 C 707.465 0.801477 -2.13662 0
M  V30 7348 C 708.443 1.22786 -1.06594 0
M  V30 7349 O 709.627 1.32014 -1.34554 0
M  V30 7350 C 706.754 2.07896 -2.6739 0
M  V30 7351 C 705.8 1.79681 -3.86803 0
M  V30 7352 S 706.633 0.968556 -5.26668 0
M  V30 7353 C 707.789 2.25676 -5.83799 0
M  V30 7354 H 708.022 0.317121 -2.95604 0
M  V30 7355 H 705.555 0.0461132 -1.54331 0
M  V30 7356 H 707.513 2.81272 -2.98992 0
M  V30 7357 H 706.174 2.53445 -1.85539 0
M  V30 7358 H 705.367 2.74461 -4.22714 0
M  V30 7359 H 704.969 1.14402 -3.56073 0
M  V30 7360 H 707.261 3.2116 -5.96542 0
M  V30 7361 H 708.204 1.94238 -6.80939 0
M  V30 7362 H 708.612 2.37308 -5.12197 0
M  V30 7363 N 708.01 1.57248 0.105221 0
M  V30 7364 C 709.258 1.85204 0.808951 0
M  V30 7365 C 709.579 0.75574 1.7976 0
M  V30 7366 O 708.849 -0.218984 1.94672 0
M  V30 7367 H 707.429 0.683346 0.301739 0
M  V30 7368 H 710.091 1.94695 0.0892605 0
M  V30 7369 H 709.187 2.81595 1.34575 0
M  V30 7370 N 709.488 -0.375779 1.53054 0
M  V30 7371 C 710.713 -1.14484 1.7294 0
M  V30 7372 C 711.138 -1.82572 0.452668 0
M  V30 7373 O 710.496 -1.71343 -0.592567 0
M  V30 7374 C 710.544 -2.15857 2.88857 0
M  V30 7375 O 709.648 -3.22725 2.56753 0
M  V30 7376 H 708.989 -0.332666 0.574656 0
M  V30 7377 H 711.519 -0.436025 1.999 0
M  V30 7378 H 711.529 -2.59631 3.14731 0
M  V30 7379 H 710.204 -1.65689 3.81471 0
M  V30 7380 H 708.781 -2.83996 2.41663 0
M  V30 7381 N 710.966 -1.44241 -0.634997 0
M  V30 7382 C 712.191 -1.50516 -1.42687 0
M  V30 7383 C 712.616 -0.129864 -1.87651 0
M  V30 7384 O 711.974 0.880164 -1.58502 0
M  V30 7385 C 712.022 -2.4714 -2.62591 0
M  V30 7386 O 711.126 -1.97025 -3.62291 0
M  V30 7387 H 710.467 -0.50841 -0.427101 0
M  V30 7388 H 712.997 -1.89337 -0.775408 0
M  V30 7389 H 713.007 -2.65048 -3.10183 0
M  V30 7390 H 711.682 -3.47039 -2.29209 0
M  V30 7391 H 710.259 -1.88866 -3.21534 0
M  V30 7392 N 712.444 0.87505 -1.31075 0
M  V30 7393 C 713.377 1.98471 -1.12625 0
M  V30 7394 C 714.355 1.6257 -0.0311379 0
M  V30 7395 O 715.539 1.87574 -0.186594 0
M  V30 7396 C 712.666 3.30963 -0.719799 0
M  V30 7397 C 711.712 3.85849 -1.81722 0
M  V30 7398 S 712.545 4.11926 -3.42165 0
M  V30 7399 C 713.701 5.47423 -3.03445 0
M  V30 7400 H 713.934 2.13817 -2.06566 0
M  V30 7401 H 711.467 1.02463 -1.15502 0
M  V30 7402 H 713.425 4.07541 -0.492035 0
M  V30 7403 H 712.086 3.1346 0.200413 0
M  V30 7404 H 711.279 4.81616 -1.48533 0
M  V30 7405 H 710.881 3.16046 -1.99977 0
M  V30 7406 H 713.173 6.28881 -2.52023 0
M  V30 7407 H 714.116 5.85557 -3.98157 0
M  V30 7408 H 714.524 5.10455 -2.41031 0
M  V30 7409 N 713.922 1.13953 1.08869 0
M  V30 7410 C 715.333 0.916649 1.62648 0
M  V30 7411 C 715.684 -0.545589 1.88462 0
M  V30 7412 O 714.809 -1.41351 1.63856 0
M  V30 7413 C 715.404 1.65751 2.95486 0
M  V30 7414 C 713.963 1.48034 3.46068 0
M  V30 7415 C 713.11 1.68305 2.20383 0
M  V30 7416 H 716.061 1.292 0.921572 0
M  V30 7417 H 716.082 1.11794 3.63707 0
M  V30 7418 H 715.594 2.72171 2.76667 0
M  V30 7419 H 713.695 0.439416 3.7 0
M  V30 7420 H 713.808 2.24719 4.23129 0
M  V30 7421 H 712.172 1.10833 2.29321 0
M  V30 7422 H 712.955 2.76057 2.04077 0
M  V30 7423 N 715.4 -1.26948 0.933913 0
M  V30 7424 C 716.811 -1.76058 0.621324 0
M  V30 7425 C 717.162 -1.76175 -0.863522 0
M  V30 7426 O 716.287 -1.36921 -1.67576 0
M  V30 7427 C 716.882 -3.19713 1.12111 0
M  V30 7428 C 715.441 -3.66465 0.859074 0
M  V30 7429 C 714.588 -2.46186 1.27624 0
M  V30 7430 H 717.539 -1.13127 1.11301 0
M  V30 7431 H 717.56 -3.77566 0.471608 0
M  V30 7432 H 717.072 -3.19596 2.20182 0
M  V30 7433 H 715.173 -3.72021 -0.207566 0
M  V30 7434 H 715.286 -4.55636 1.48098 0
M  V30 7435 H 713.65 -2.45042 0.694727 0
M  V30 7436 H 714.433 -2.48774 2.36572 0
M  V30 7437 N 716.879 -0.700114 -1.41195 0
M  V30 7438 C 718.104 -0.240704 -2.05998 0
M  V30 7439 C 718.529 1.10313 -1.52357 0
M  V30 7440 O 717.887 1.69154 -0.652424 0
M  V30 7441 C 717.935 -0.213783 -3.59966 0
M  V30 7442 O 717.039 0.809933 -4.04368 0
M  V30 7443 H 716.38 -0.116471 -0.653705 0
M  V30 7444 H 718.91 -0.956251 -1.80878 0
M  V30 7445 H 718.92 -0.0461852 -4.07974 0
M  V30 7446 H 717.595 -1.19454 -3.98376 0
M  V30 7447 H 716.172 0.611319 -3.67855 0
M  V30 7448 N 718.357 1.51182 -0.445186 0
M  V30 7449 C 719.768 1.86693 0.0160999 0
M  V30 7450 C 720.119 1.36183 1.4124 0
M  V30 7451 O 719.244 0.715895 2.04215 0
M  V30 7452 C 719.839 3.38781 0.0359918 0
M  V30 7453 C 718.398 3.73799 0.441715 0
M  V30 7454 C 717.545 2.74947 -0.360511 0
M  V30 7455 H 720.496 1.44294 -0.660674 0
M  V30 7456 H 720.517 3.71026 0.843813 0
M  V30 7457 H 720.029 3.75513 -0.980378 0
M  V30 7458 H 718.13 3.42659 1.4634 0
M  V30 7459 H 718.243 4.78829 0.16106 0
M  V30 7460 H 716.607 2.54047 0.182269 0
M  V30 7461 H 717.39 3.14521 -1.3759 0
M  V30 7462 N 719.835 0.176821 1.56605 0
M  V30 7463 C 721.06 -0.47599 2.01864 0
M  V30 7464 C 721.485 -1.55645 1.05623 0
M  V30 7465 O 720.843 -1.81263 0.0366729 0
M  V30 7466 C 720.891 -1.02619 3.4569 0
M  V30 7467 O 719.995 -2.13996 3.52533 0
M  V30 7468 H 719.336 -0.113363 0.654251 0
M  V30 7469 H 721.866 0.28233 2.02643 0
M  V30 7470 H 721.876 -1.34742 3.85109 0
M  V30 7471 H 720.551 -0.235138 4.15235 0
M  V30 7472 H 719.128 -1.82876 3.24978 0
M  V30 7473 N 721.313 -1.57302 -0.09688 0
M  V30 7474 C 722.261 -2.02942 -1.13654 0
M  V30 7475 C 723.255 -0.930173 -1.41577 0
M  V30 7476 O 724.461 -1.11535 -1.41279 0
M  V30 7477 H 720.836 -0.646726 -0.383731 0
M  V30 7478 H 722.807 -2.89452 -0.725267 0
M  V30 7479 C 721.556 -2.46815 -2.44903 0
M  V30 7480 H 720.879 -3.30979 -2.24261 0
M  V30 7481 H 722.319 -2.82527 -3.16156 0
M  V30 7482 C 720.778 -1.34071 -3.09074 0
M  V30 7483 O 721.308 -0.668856 -3.96092 0
M  V30 7484 N 719.514 -1.09214 -2.69296 0
M  V30 7485 H 719.061 -1.64029 -1.98626 0
M  V30 7486 H 719.019 -0.339785 -3.12559 0
M  V30 7487 N 722.791 0.367657 -1.53252 0
M  V30 7488 C 724.039 1.10832 -1.68999 0
M  V30 7489 C 724.36 1.89894 -0.443306 0
M  V30 7490 O 723.63 1.88235 0.54262 0
M  V30 7491 H 722.21 0.412153 -0.623008 0
M  V30 7492 H 724.872 0.414775 -1.90435 0
M  V30 7493 H 723.968 1.7993 -2.55013 0
M  V30 7494 N 724.269 1.44576 0.627338 0
M  V30 7495 C 725.494 1.51271 1.41887 0
M  V30 7496 C 725.919 0.139814 1.8758 0
M  V30 7497 O 725.277 -0.871746 1.58966 0
M  V30 7498 C 725.325 2.48529 2.61277 0
M  V30 7499 O 724.429 1.98944 3.61241 0
M  V30 7500 H 723.77 0.510668 0.424399 0
M  V30 7501 H 726.3 1.89746 0.765356 0
M  V30 7502 H 726.31 2.66689 3.08773 0
M  V30 7503 H 724.985 3.48249 2.27366 0
M  V30 7504 H 723.562 1.90568 3.20528 0
M  V30 7505 N 725.747 -0.868086 1.31537 0
M  V30 7506 C 726.972 -1.65926 1.24432 0
M  V30 7507 C 727.397 -1.87169 -0.186936 0
M  V30 7508 O 726.755 -1.4148 -1.13371 0
M  V30 7509 C 726.803 -3.00347 1.9956 0
M  V30 7510 O 725.907 -3.90221 1.33422 0
M  V30 7511 H 725.248 -0.506375 0.429512 0
M  V30 7512 H 727.778 -1.0822 1.73637 0
M  V30 7513 H 727.788 -3.50269 2.09226 0
M  V30 7514 H 726.463 -2.84205 3.03645 0
M  V30 7515 H 725.04 -3.48672 1.32219 0
M  V30 7516 N 727.225 -1.14528 -1.08264 0
M  V30 7517 C 728.472 -0.914405 -1.80679 0
M  V30 7518 C 728.8 0.558952 -1.86295 0
M  V30 7519 O 728.055 1.43017 -1.33584 0
M  V30 7520 C 728.354 -1.46226 -3.26117 0
M  V30 7521 C 728.02 -2.95451 -3.40616 0
M  V30 7522 C 726.682 -3.36191 -3.4428 0
M  V30 7523 C 729.034 -3.91399 -3.44175 0
M  V30 7524 C 726.362 -4.71539 -3.49096 0
M  V30 7525 C 728.714 -5.26606 -3.50526 0
M  V30 7526 C 727.378 -5.66856 -3.52464 0
M  V30 7527 H 726.648 -0.334604 -0.661151 0
M  V30 7528 H 729.295 -1.4292 -1.27461 0
M  V30 7529 H 727.6 -0.868442 -3.82054 0
M  V30 7530 H 729.297 -1.25955 -3.80705 0
M  V30 7531 H 725.887 -2.62955 -3.38456 0
M  V30 7532 H 730.071 -3.61004 -3.40573 0
M  V30 7533 H 725.327 -5.02082 -3.4889 0
M  V30 7534 H 729.501 -6.00758 -3.52225 0
M  V30 7535 H 727.128 -6.71718 -3.55948 0
M  V30 7536 N 728.703 1.26451 -0.940633 0
M  V30 7537 C 729.928 1.98407 -0.60412 0
M  V30 7538 C 730.353 1.69584 0.81382 0
M  V30 7539 O 729.711 0.943553 1.54812 0
M  V30 7540 C 729.759 3.50387 -0.852136 0
M  V30 7541 O 728.863 4.1233 0.076013 0
M  V30 7542 H 728.204 0.622466 -0.231153 0
M  V30 7543 H 730.734 1.60932 -1.26342 0
M  V30 7544 H 730.744 4.00614 -0.772816 0
M  V30 7545 H 729.419 3.70696 -1.88566 0
M  V30 7546 H 727.996 3.7286 -0.0543187 0
M  V30 7547 N 730.181 0.707592 1.40822 0
M  V30 7548 C 731.111 0.0644925 2.33411 0
M  V30 7549 C 732.092 -0.754205 1.52466 0
M  V30 7550 O 733.277 -0.704749 1.80961 0
M  V30 7551 C 730.407 -0.863865 3.36385 0
M  V30 7552 C 729.361 -0.15138 4.27732 0
M  V30 7553 C 728.687 -1.19491 5.21177 0
M  V30 7554 C 729.987 0.989607 5.12839 0
M  V30 7555 H 731.681 0.837829 2.87438 0
M  V30 7556 H 729.227 0.404346 1.38207 0
M  V30 7557 H 731.18 -1.32309 4.0009 0
M  V30 7558 H 729.904 -1.66901 2.80734 0
M  V30 7559 H 728.563 0.287937 3.65467 0
M  V30 7560 H 728.211 -1.9929 4.61836 0
M  V30 7561 H 727.911 -0.723123 5.83134 0
M  V30 7562 H 729.435 -1.6544 5.8776 0
M  V30 7563 H 730.849 0.610114 5.70044 0
M  V30 7564 H 729.246 1.38926 5.83798 0
M  V30 7565 H 730.316 1.82389 4.49291 0
M  V30 7566 N 731.66 -1.50943 0.453197 0
M  V30 7567 C 733.071 -1.86699 -0.00619892 0
M  V30 7568 C 733.422 -1.3693 -1.40515 0
M  V30 7569 O 732.547 -0.726715 -2.03833 0
M  V30 7570 C 733.142 -3.38795 -0.018025 0
M  V30 7571 C 731.701 -3.74028 -0.421885 0
M  V30 7572 C 730.848 -2.74752 0.375087 0
M  V30 7573 H 733.799 -1.43942 0.668317 0
M  V30 7574 H 733.82 -3.71468 -0.824125 0
M  V30 7575 H 733.332 -3.74988 1.00028 0
M  V30 7576 H 731.433 -3.43431 -1.44521 0
M  V30 7577 H 731.546 -4.78908 -0.135664 0
M  V30 7578 H 729.91 -2.5414 -0.168794 0
M  V30 7579 H 730.693 -3.13787 1.39256 0
M  V30 7580 N 733.138 -0.185124 -1.56509 0
M  V30 7581 C 734.366 0.462139 -2.01673 0
M  V30 7582 C 734.781 1.55873 -1.06532 0
M  V30 7583 O 734.138 1.82371 -0.0684805 0
M  V30 7584 C 734.189 1.0277 -3.46584 0
M  V30 7585 O 733.91 -0.0251296 -4.38093 0
M  V30 7586 C 735.411 1.75183 -4.07217 0
M  V30 7587 H 732.631 0.117001 -0.660721 0
M  V30 7588 H 735.175 -0.290905 -2.0242 0
M  V30 7589 H 733.33 1.73118 -3.46568 0
M  V30 7590 H 733.744 0.394387 -5.23015 0
M  V30 7591 H 735.218 2.09999 -5.10494 0
M  V30 7592 H 735.695 2.6519 -3.50101 0
M  V30 7593 H 736.301 1.09445 -4.10977 0
M  V30 7594 N 734.616 1.57351 0.0885366 0
M  V30 7595 C 735.564 2.03542 1.12576 0
M  V30 7596 C 736.558 0.937668 1.41082 0
M  V30 7597 O 737.764 1.12283 1.40686 0
M  V30 7598 H 734.139 0.648752 0.380296 0
M  V30 7599 H 736.11 2.89833 0.709906 0
M  V30 7600 C 734.859 2.4811 2.43591 0
M  V30 7601 H 734.182 3.32164 2.22502 0
M  V30 7602 H 735.622 2.842 3.14653 0
M  V30 7603 C 734.081 1.35708 3.08359 0
M  V30 7604 O 734.611 0.689852 3.95732 0
M  V30 7605 N 732.817 1.10641 2.68713 0
M  V30 7606 H 732.364 1.6508 1.97753 0
M  V30 7607 H 732.322 0.356355 3.12374 0
M  V30 7608 N 736.094 -0.359525 1.53444 0
M  V30 7609 C 737.024 -1.44662 1.8329 0
M  V30 7610 C 738.005 -1.55617 0.68683 0
M  V30 7611 O 739.19 -1.70086 0.93725 0
M  V30 7612 C 736.32 -2.81923 2.02822 0
M  V30 7613 C 735.274 -2.85787 3.18606 0
M  V30 7614 C 734.6 -4.25781 3.23442 0
M  V30 7615 C 735.9 -2.52762 4.57065 0
M  V30 7616 H 737.594 -1.19934 2.74329 0
M  V30 7617 H 735.14 -0.575517 1.31999 0
M  V30 7618 H 737.093 -3.58005 2.22285 0
M  V30 7619 H 735.817 -3.08051 1.085 0
M  V30 7620 H 734.476 -2.12157 2.98973 0
M  V30 7621 H 734.124 -4.48994 2.26745 0
M  V30 7622 H 733.824 -4.29281 4.01238 0
M  V30 7623 H 735.348 -5.03727 3.45096 0
M  V30 7624 H 736.762 -3.18557 4.76649 0
M  V30 7625 H 735.159 -2.67569 5.37147 0
M  V30 7626 H 736.229 -1.47993 4.61764 0
M  V30 7627 N 737.572 -1.44907 -0.619662 0
M  V30 7628 C 738.8 -1.51795 -1.40591 0
M  V30 7629 C 739.215 -0.146553 -1.8823 0
M  V30 7630 O 738.572 0.849698 -1.61513 0
M  V30 7631 C 738.623 -2.49229 -2.61853 0
M  V30 7632 O 738.344 -3.81039 -2.16197 0
M  V30 7633 C 739.845 -2.65696 -3.54853 0
M  V30 7634 H 737.065 -0.514463 -0.430777 0
M  V30 7635 H 739.609 -1.8998 -0.756813 0
M  V30 7636 H 737.764 -2.14149 -3.2283 0
M  V30 7637 H 738.178 -4.33747 -2.94896 0
M  V30 7638 H 739.652 -3.37874 -4.36515 0
M  V30 7639 H 740.129 -1.71316 -4.0441 0
M  V30 7640 H 740.735 -3.01724 -2.99737 0
M  V30 7641 N 739.05 0.861098 -1.31996 0
M  V30 7642 C 740.296 1.61721 -1.22369 0
M  V30 7643 C 740.629 1.93 0.215587 0
M  V30 7644 O 739.904 1.56789 1.15098 0
M  V30 7645 C 740.187 2.9417 -2.07691 0
M  V30 7646 C 740.04 2.69714 -3.59965 0
M  V30 7647 C 741.359 3.95372 -1.93312 0
M  V30 7648 H 738.478 0.586822 -0.44588 0
M  V30 7649 H 741.12 0.994788 -1.61876 0
M  V30 7650 H 739.27 3.47292 -1.74128 0
M  V30 7651 H 740.942 2.23196 -4.03709 0
M  V30 7652 H 739.185 2.03789 -3.82952 0
M  V30 7653 H 739.856 3.63996 -4.14983 0
M  V30 7654 H 742.332 3.51487 -2.22701 0
M  V30 7655 H 741.208 4.85916 -2.55298 0
M  V30 7656 H 741.469 4.32865 -0.898922 0
M  V30 7657 N 740.528 1.15101 1.07655 0
M  V30 7658 C 741.491 0.847625 2.12951 0
M  V30 7659 C 742.491 -0.151227 1.60087 0
M  V30 7660 O 743.681 0.0780399 1.74025 0
M  V30 7661 C 740.813 0.265 3.39868 0
M  V30 7662 H 742.006 1.7809 2.41296 0
M  V30 7663 H 739.559 0.958072 1.23494 0
M  V30 7664 H 740.294 -0.676625 3.17163 0
M  V30 7665 H 740.079 0.984554 3.79538 0
M  V30 7666 H 741.569 0.0702121 4.17541 0
M  V30 7667 N 742.006 -1.2595 0.947325 0
M  V30 7668 C 743.234 -1.97544 0.615127 0
M  V30 7669 C 743.649 -1.70484 -0.811221 0
M  V30 7670 O 743.006 -0.97662 -1.5417 0
M  V30 7671 C 743.057 -3.51236 0.855328 0
M  V30 7672 O 742.778 -3.77359 2.22558 0
M  V30 7673 C 744.279 -4.40066 0.534515 0
M  V30 7674 H 741.499 -0.629888 0.231263 0
M  V30 7675 H 744.043 -1.60308 1.26971 0
M  V30 7676 H 742.198 -3.8661 0.247266 0
M  V30 7677 H 742.612 -4.71857 2.29022 0
M  V30 7678 H 744.086 -5.46838 0.753168 0
M  V30 7679 H 744.563 -4.35982 -0.530701 0
M  V30 7680 H 745.169 -4.10245 1.12158 0
M  V30 7681 N 743.484 -0.715051 -1.40445 0
M  V30 7682 C 744.73 -0.254705 -2.01194 0
M  V30 7683 C 745.063 1.14894 -1.56567 0
M  V30 7684 O 744.338 1.77933 -0.785491 0
M  V30 7685 C 744.621 -0.334148 -3.58546 0
M  V30 7686 C 744.474 -1.77613 -4.13248 0
M  V30 7687 C 745.793 0.294968 -4.3911 0
M  V30 7688 H 742.912 -0.094025 -0.730978 0
M  V30 7689 H 745.554 -0.907449 -1.66929 0
M  V30 7690 H 743.704 0.221609 -3.87867 0
M  V30 7691 H 745.376 -2.38723 -3.94727 0
M  V30 7692 H 743.619 -2.30402 -3.67556 0
M  V30 7693 H 744.29 -1.78311 -5.22407 0
M  V30 7694 H 746.766 -0.178563 -4.15717 0
M  V30 7695 H 745.642 0.208934 -5.48502 0
M  V30 7696 H 745.903 1.37841 -4.20062 0
M  V30 7697 N 744.962 1.50701 -0.461195 0
M  V30 7698 C 746.19 2.06681 0.0951756 0
M  V30 7699 C 746.605 1.32615 1.34382 0
M  V30 7700 O 745.962 0.392531 1.78229 0
M  V30 7701 C 746.013 3.59354 0.393316 0
M  V30 7702 O 745.734 4.30626 -0.805797 0
M  V30 7703 C 747.235 4.31926 0.997744 0
M  V30 7704 H 744.455 0.670995 -0.00267259 0
M  V30 7705 H 746.999 1.93991 -0.647137 0
M  V30 7706 H 745.154 3.7188 1.08555 0
M  V30 7707 H 745.568 5.21667 -0.544409 0
M  V30 7708 H 747.042 5.39756 1.15619 0
M  V30 7709 H 747.519 3.91772 1.98523 0
M  V30 7710 H 748.125 4.23905 0.344188 0
M  V30 7711 N 746.441 0.193421 1.56409 0
M  V30 7712 C 747.669 -0.451438 2.01915 0
M  V30 7713 C 748.084 -1.55306 1.07357 0
M  V30 7714 O 747.441 -1.82333 0.0781512 0
M  V30 7715 C 747.492 -1.00931 3.47124 0
M  V30 7716 O 747.213 0.0483623 4.38073 0
M  V30 7717 C 748.714 -1.73021 4.0814 0
M  V30 7718 H 745.934 -0.113495 0.661332 0
M  V30 7719 H 748.478 0.301636 2.02263 0
M  V30 7720 H 746.633 -1.71277 3.47481 0
M  V30 7721 H 747.047 -0.366644 5.23217 0
M  V30 7722 H 748.521 -2.07289 5.11601 0
M  V30 7723 H 748.998 -2.6333 3.51502 0
M  V30 7724 H 749.604 -1.07264 4.11551 0
M  V30 7725 N 747.919 -1.57396 -0.0801906 0
M  V30 7726 C 748.849 -2.06145 -1.09665 0
M  V30 7727 C 749.83 -0.953273 -1.40878 0
M  V30 7728 O 751.015 -1.22548 -1.50651 0
M  V30 7729 C 748.145 -2.49836 -2.41245 0
M  V30 7730 C 747.099 -3.64454 -2.24405 0
M  V30 7731 C 746.425 -3.94172 -3.61293 0
M  V30 7732 C 747.725 -4.94807 -1.67223 0
M  V30 7733 H 749.419 -2.91316 -0.691028 0
M  V30 7734 H 746.965 -1.40145 -0.330957 0
M  V30 7735 H 748.918 -2.82552 -3.12638 0
M  V30 7736 H 747.642 -1.61683 -2.83771 0
M  V30 7737 H 746.301 -3.32008 -1.55454 0
M  V30 7738 H 745.949 -3.03163 -4.01374 0
M  V30 7739 H 745.649 -4.71345 -3.50867 0
M  V30 7740 H 747.173 -4.29376 -4.3413 0
M  V30 7741 H 748.587 -5.25807 -2.28472 0
M  V30 7742 H 746.984 -5.76245 -1.67515 0
M  V30 7743 H 748.054 -4.80751 -0.632944 0
M  V30 7744 N 749.397 0.351382 -1.53633 0
M  V30 7745 C 750.33 1.45407 -1.75875 0
M  V30 7746 C 751.308 1.50822 -0.607566 0
M  V30 7747 O 752.492 1.68658 -0.841818 0
M  V30 7748 C 749.619 2.8369 -1.85034 0
M  V30 7749 C 748.665 2.95935 -3.07123 0
M  V30 7750 S 749.498 2.63215 -4.66345 0
M  V30 7751 C 750.654 4.03622 -4.78373 0
M  V30 7752 H 750.887 1.26322 -2.69128 0
M  V30 7753 H 748.42 0.546581 -1.44402 0
M  V30 7754 H 750.378 3.6336 -1.90996 0
M  V30 7755 H 749.039 3.00076 -0.928074 0
M  V30 7756 H 748.232 3.97243 -3.10183 0
M  V30 7757 H 747.834 2.24205 -2.99346 0
M  V30 7758 H 750.126 4.98046 -4.593 0
M  V30 7759 H 751.069 4.05559 -5.80454 0
M  V30 7760 H 751.477 3.91282 -4.06889 0
M  V30 7761 N 750.875 1.45233 0.611969 0
M  V30 7762 C 752.286 1.4354 1.19387 0
M  V30 7763 C 752.637 0.160713 1.95541 0
M  V30 7764 O 751.762 -0.737954 2.03429 0
M  V30 7765 C 752.357 2.60045 2.17169 0
M  V30 7766 C 750.916 2.61486 2.70744 0
M  V30 7767 C 750.063 2.35708 1.46072 0
M  V30 7768 H 753.014 1.53536 0.401529 0
M  V30 7769 H 753.035 2.33893 3.00124 0
M  V30 7770 H 752.547 3.52803 1.61714 0
M  V30 7771 H 750.648 1.72721 3.30149 0
M  V30 7772 H 750.761 3.60572 3.15476 0
M  V30 7773 H 749.125 1.85178 1.74875 0
M  V30 7774 H 749.908 3.30606 0.924922 0
M  V30 7775 N 752.353 -0.854086 1.3245 0
M  V30 7776 C 753.283 -1.97827 1.24044 0
M  V30 7777 C 754.264 -1.69646 0.124166 0
M  V30 7778 O 755.449 -1.91687 0.31143 0
M  V30 7779 C 752.579 -3.33673 0.963324 0
M  V30 7780 C 751.533 -3.76207 2.04089 0
M  V30 7781 C 750.859 -5.0969 1.61618 0
M  V30 7782 C 752.159 -3.91612 3.45597 0
M  V30 7783 H 753.853 -2.05118 2.18099 0
M  V30 7784 H 751.399 -0.985489 1.04996 0
M  V30 7785 H 753.352 -4.11871 0.891061 0
M  V30 7786 H 752.076 -3.26597 -0.0128649 0
M  V30 7787 H 750.735 -3.0026 2.10332 0
M  V30 7788 H 750.383 -4.99072 0.627418 0
M  V30 7789 H 750.083 -5.3912 2.33717 0
M  V30 7790 H 751.607 -5.90381 1.55829 0
M  V30 7791 H 753.021 -4.60163 3.4194 0
M  V30 7792 H 751.418 -4.3246 4.16051 0
M  V30 7793 H 752.488 -2.9451 3.85217 0
M  V30 7794 N 753.831 -1.1567 -1.07043 0
M  V30 7795 C 755.059 -0.957471 -1.83412 0
M  V30 7796 C 755.474 0.494271 -1.82215 0
M  V30 7797 O 754.831 1.34288 -1.23584 0
M  V30 7798 C 754.882 -1.46784 -3.30359 0
M  V30 7799 O 754.603 -2.86271 -3.31633 0
M  V30 7800 C 756.104 -1.31054 -4.23485 0
M  V30 7801 H 753.324 -0.33986 -0.578564 0
M  V30 7802 H 755.868 -1.53518 -1.35102 0
M  V30 7803 H 754.023 -0.932586 -3.76007 0
M  V30 7804 H 754.437 -3.0948 -4.23465 0
M  V30 7805 H 755.911 -1.71605 -5.24648 0
M  V30 7806 H 756.388 -0.255107 -4.38458 0
M  V30 7807 H 756.994 -1.83503 -3.83676 0
M  V30 7808 N 755.309 1.25446 -0.953992 0
M  V30 7809 C 756.537 1.97215 -0.625595 0
M  V30 7810 C 756.952 1.70911 0.802168 0
M  V30 7811 O 756.309 0.984782 1.5365 0
M  V30 7812 C 756.36 3.50777 -0.873943 0
M  V30 7813 O 756.081 3.76173 -2.24556 0
M  V30 7814 C 757.582 4.39776 -0.557845 0
M  V30 7815 H 754.802 0.628652 -0.2346 0
M  V30 7816 H 757.346 1.59632 -1.27819 0
M  V30 7817 H 755.501 3.86474 -0.267765 0
M  V30 7818 H 755.915 4.70636 -2.31522 0
M  V30 7819 H 757.389 5.46431 -0.782157 0
M  V30 7820 H 757.866 4.36257 0.507573 0
M  V30 7821 H 758.472 4.09644 -1.14332 0
M  V30 7822 N 756.787 0.722489 1.40064 0
M  V30 7823 C 758.034 0.264979 2.00759 0
M  V30 7824 C 758.362 -1.14395 1.57302 0
M  V30 7825 O 757.617 -1.79165 0.787298 0
M  V30 7826 C 757.916 0.300682 3.56133 0
M  V30 7827 C 757.582 1.66087 4.19197 0
M  V30 7828 C 756.244 2.03319 4.36136 0
M  V30 7829 C 758.596 2.55452 4.54306 0
M  V30 7830 C 755.924 3.29448 4.8547 0
M  V30 7831 C 758.276 3.8094 5.05042 0
M  V30 7832 C 756.94 4.1828 5.2019 0
M  V30 7833 H 756.21 0.0969625 0.734629 0
M  V30 7834 H 758.857 0.926877 1.67575 0
M  V30 7835 H 757.162 -0.44479 3.89267 0
M  V30 7836 H 758.859 -0.0712542 4.00937 0
M  V30 7837 H 755.449 1.36137 4.06405 0
M  V30 7838 H 759.633 2.27961 4.40849 0
M  V30 7839 H 754.889 3.58338 4.95382 0
M  V30 7840 H 759.063 4.50351 5.31184 0
M  V30 7841 H 756.69 5.16081 5.58179 0
M  V30 7842 N 758.265 -1.50454 0.469181 0
M  V30 7843 C 759.49 -2.0722 -0.0864892 0
M  V30 7844 C 759.915 -1.33098 -1.32916 0
M  V30 7845 O 759.273 -0.378084 -1.77314 0
M  V30 7846 C 759.321 -3.58845 -0.355384 0
M  V30 7847 O 758.425 -3.86583 -1.43622 0
M  V30 7848 H 757.766 -0.663889 0.0121414 0
M  V30 7849 H 760.296 -1.93674 0.659674 0
M  V30 7850 H 760.306 -4.03617 -0.596447 0
M  V30 7851 H 758.981 -4.12211 0.552698 0
M  V30 7852 H 757.558 -3.5365 -1.18262 0
M  V30 7853 N 759.743 -0.201713 -1.56304 0
M  V30 7854 C 760.69 0.716499 -2.19397 0
M  V30 7855 C 761.66 1.20494 -1.14326 0
M  V30 7856 O 762.845 1.26763 -1.42604 0
M  V30 7857 C 759.985 1.92762 -2.86246 0
M  V30 7858 C 759.098 1.47993 -4.0586 0
M  V30 7859 C 758.233 2.64706 -4.60547 0
M  V30 7860 C 757.272 2.16576 -5.72504 0
M  V30 7861 N 756.409 3.26491 -6.21569 0
M  V30 7862 H 761.249 0.171724 -2.97505 0
M  V30 7863 H 758.786 0.073016 -1.46919 0
M  V30 7864 H 760.744 2.6384 -3.23178 0
M  V30 7865 H 759.374 2.44559 -2.10691 0
M  V30 7866 H 758.426 0.66477 -3.74546 0
M  V30 7867 H 759.738 1.08686 -4.86815 0
M  V30 7868 H 758.892 3.43898 -4.99819 0
M  V30 7869 H 757.631 3.0729 -3.78713 0
M  V30 7870 H 756.636 1.3584 -5.32755 0
M  V30 7871 H 757.861 1.75015 -6.56161 0
M  V30 7872 H 755.807 3.68594 -5.42655 0
M  V30 7873 H 755.724 2.91374 -6.97594 0
M  V30 7874 H 756.992 4.05877 -6.65495 0
M  V30 7875 N 761.222 1.57436 0.0718424 0
M  V30 7876 C 762.633 1.75975 0.623678 0
M  V30 7877 C 762.984 0.827155 1.77912 0
M  V30 7878 O 762.109 0.0112425 2.16397 0
M  V30 7879 C 762.704 3.1911 1.13816 0
M  V30 7880 C 761.263 3.38994 1.63586 0
M  V30 7881 C 760.41 2.71684 0.555261 0
M  V30 7882 H 763.361 1.57948 -0.154328 0
M  V30 7883 H 763.382 3.23267 2.00696 0
M  V30 7884 H 762.894 3.86962 0.296998 0
M  V30 7885 H 760.995 2.76256 2.50027 0
M  V30 7886 H 761.108 4.47436 1.71283 0
M  V30 7887 H 759.472 2.34236 1.00029 0
M  V30 7888 H 760.255 3.42191 -0.275712 0
M  V30 7889 N 762.7 -0.34323 1.53817 0
M  V30 7890 C 763.928 -1.10348 1.75017 0
M  V30 7891 C 764.343 -1.82345 0.489475 0
M  V30 7892 O 763.7 -1.74362 -0.538886 0
M  V30 7893 C 763.751 -2.11672 2.93048 0
M  V30 7894 O 763.472 -1.42603 4.14241 0
M  V30 7895 C 764.973 -3.0007 3.26301 0
M  V30 7896 H 762.193 -0.329056 0.584776 0
M  V30 7897 H 764.737 -0.395339 2.00642 0
M  V30 7898 H 762.892 -2.78051 2.69753 0
M  V30 7899 H 763.306 -2.10294 4.80496 0
M  V30 7900 H 764.78 -3.67101 4.12239 0
M  V30 7901 H 765.257 -3.66105 2.42618 0
M  V30 7902 H 765.863 -2.3928 3.51604 0
M  V30 7903 N 764.178 -1.45556 -0.604258 0
M  V30 7904 C 765.426 -1.4945 -1.36048 0
M  V30 7905 C 765.747 -0.138933 -1.94504 0
M  V30 7906 O 765.017 0.832097 -1.7735 0
M  V30 7907 H 763.597 -0.550381 -0.505064 0
M  V30 7908 H 766.259 -1.81535 -0.709308 0
M  V30 7909 H 765.355 -2.23519 -2.17821 0
M  V30 7910 N 765.656 0.84705 -1.32902 0
M  V30 7911 C 766.586 1.97166 -1.25091 0
M  V30 7912 C 767.567 1.69578 -0.133161 0
M  V30 7913 O 768.752 1.91519 -0.321591 0
M  V30 7914 C 765.882 3.33157 -0.981006 0
M  V30 7915 C 764.836 3.75119 -2.06082 0
M  V30 7916 C 764.162 5.08826 -1.64318 0
M  V30 7917 C 765.462 3.89774 -3.47669 0
M  V30 7918 H 767.156 2.03958 -2.19184 0
M  V30 7919 H 764.702 0.979907 -1.05517 0
M  V30 7920 H 766.655 4.11393 -0.912891 0
M  V30 7921 H 765.379 3.266 -0.00445559 0
M  V30 7922 H 764.038 2.9914 -2.11921 0
M  V30 7923 H 763.686 4.98732 -0.653876 0
M  V30 7924 H 763.386 5.37873 -2.36572 0
M  V30 7925 H 764.91 5.89546 -1.58958 0
M  V30 7926 H 766.324 4.58343 -3.44376 0
M  V30 7927 H 764.721 4.30248 -4.18338 0
M  V30 7928 H 765.791 2.92463 -3.86773 0
M  V30 7929 N 767.134 1.16236 1.06428 0
M  V30 7930 C 768.066 0.825446 2.1382 0
M  V30 7931 C 769.079 -0.166707 1.61944 0
M  V30 7932 O 770.268 0.0578606 1.78406 0
M  V30 7933 C 767.368 0.208023 3.38261 0
M  V30 7934 C 766.541 1.23994 4.19457 0
M  V30 7935 C 765.6 0.642569 5.22262 0
M  V30 7936 O 764.626 1.31106 5.53895 0
M  V30 7937 N 765.828 -0.571327 5.77682 0
M  V30 7938 H 768.593 1.7497 2.43322 0
M  V30 7939 H 766.154 1.05951 1.22417 0
M  V30 7940 H 768.146 -0.204608 4.04182 0
M  V30 7941 H 766.716 -0.619752 3.06395 0
M  V30 7942 H 765.936 1.82879 3.49212 0
M  V30 7943 H 767.224 1.93638 4.70512 0
M  V30 7944 H 766.622 -1.13263 5.54245 0
M  V30 7945 H 765.179 -0.926187 6.45186 0
M  V30 7946 N 768.612 -1.24939 0.960631 0
M  V30 7947 C 770.028 -1.45039 0.666018 0
M  V30 7948 C 770.228 -1.86021 -0.774501 0
M  V30 7949 O 769.284 -1.99392 -1.54916 0
M  V30 7950 C 770.597 -2.51775 1.64408 0
M  V30 7951 C 772.145 -2.6561 1.65592 0
M  V30 7952 C 772.62 -3.75536 2.62177 0
M  V30 7953 N 774.111 -3.82954 2.60577 0
M  V30 7954 C 774.846 -4.67517 3.31987 0
M  V30 7955 N 774.342 -5.56321 4.1289 0
M  V30 7956 N 776.135 -4.61535 3.20845 0
M  V30 7957 H 768.286 -0.96632 1.89145 0
M  V30 7958 H 770.549 -0.486034 0.813926 0
M  V30 7959 H 770.255 -2.28534 2.67329 0
M  V30 7960 H 770.129 -3.49804 1.41128 0
M  V30 7961 H 772.516 -2.88212 0.633846 0
M  V30 7962 H 772.597 -1.67962 1.92931 0
M  V30 7963 H 772.241 -3.53684 3.64514 0
M  V30 7964 H 772.171 -4.72682 2.32119 0
M  V30 7965 H 774.662 -3.19478 2.01847 0
M  V30 7966 H 774.975 -6.17787 4.64283 0
M  V30 7967 H 773.32 -5.5601 4.16987 0
M  V30 7968 H 776.511 -3.91169 2.57108 0
M  V30 7969 H 776.684 -5.27214 3.76762 0
M  V30 7970 N 770.09 -0.729906 -1.39679 0
M  V30 7971 C 771.337 -0.275622 -2.00615 0
M  V30 7972 C 771.665 1.13559 -1.57907 0
M  V30 7973 O 770.92 1.78745 -0.796789 0
M  V30 7974 C 771.219 -0.319564 -3.55968 0
M  V30 7975 C 770.885 -1.68308 -4.1831 0
M  V30 7976 C 769.547 -2.05629 -4.35052 0
M  V30 7977 C 771.899 -2.57857 -4.52945 0
M  V30 7978 C 769.227 -3.32018 -4.83716 0
M  V30 7979 C 771.579 -3.83613 -5.03015 0
M  V30 7980 C 770.243 -4.21033 -5.17965 0
M  V30 7981 H 769.513 -0.100857 -0.734104 0
M  V30 7982 H 772.16 -0.93575 -1.67081 0
M  V30 7983 H 770.465 0.42414 -3.89497 0
M  V30 7984 H 772.162 0.0499905 -4.00969 0
M  V30 7985 H 768.752 -1.3829 -4.05677 0
M  V30 7986 H 772.936 -2.30295 -4.39634 0
M  V30 7987 H 768.192 -3.6096 -4.93475 0
M  V30 7988 H 772.366 -4.53162 -5.28788 0
M  V30 7989 H 769.993 -5.19034 -5.55435 0
M  V30 7990 N 771.568 1.50203 -0.477153 0
M  V30 7991 C 772.798 2.0647 0.0731427 0
M  V30 7992 C 773.206 1.3405 1.33518 0
M  V30 7993 O 772.549 0.405164 1.79176 0
M  V30 7994 C 772.611 3.57025 0.421121 0
M  V30 7995 C 772.275 4.50973 -0.739765 0
M  V30 7996 C 773.272 4.939 -1.62353 0
M  V30 7997 C 770.957 4.93581 -0.93181 0
M  V30 7998 C 772.951 5.78149 -2.6837 0
M  V30 7999 C 770.638 5.77612 -1.99519 0
M  V30 8000 C 771.636 6.19798 -2.86949 0
M  V30 8001 O 771.324 7.02152 -3.91456 0
M  V30 8002 H 771.056 0.675969 -0.00648243 0
M  V30 8003 H 773.61 1.94278 -0.66673 0
M  V30 8004 H 771.84 3.67141 1.21426 0
M  V30 8005 H 773.529 3.95632 0.907213 0
M  V30 8006 H 774.295 4.61646 -1.48687 0
M  V30 8007 H 770.174 4.60262 -0.260739 0
M  V30 8008 H 773.718 6.10997 -3.36643 0
M  V30 8009 H 769.615 6.09279 -2.13189 0
M  V30 8010 H 770.383 7.20414 -3.88518 0
M  V30 8011 N 773.046 0.209999 1.56195 0
M  V30 8012 C 774.271 -0.433064 2.02828 0
M  V30 8013 C 774.696 -1.5337 1.08901 0
M  V30 8014 O 774.054 -1.81144 0.0751132 0
M  V30 8015 C 774.102 -0.952635 3.47789 0
M  V30 8016 O 773.206 -2.0647 3.56993 0
M  V30 8017 H 772.547 -0.0994594 0.656509 0
M  V30 8018 H 775.077 0.32525 2.01998 0
M  V30 8019 H 775.087 -1.26542 3.8788 0
M  V30 8020 H 773.762 -0.147007 4.1564 0
M  V30 8021 H 772.339 -1.75942 3.28784 0
M  V30 8022 N 774.524 -1.57472 -0.0634922 0
M  V30 8023 C 775.454 -2.07297 -1.07473 0
M  V30 8024 C 776.435 -0.968162 -1.39859 0
M  V30 8025 O 777.62 -1.24139 -1.49343 0
M  V30 8026 C 774.75 -2.52381 -2.38581 0
M  V30 8027 C 773.704 -3.66813 -2.20526 0
M  V30 8028 C 773.03 -3.97982 -3.57092 0
M  V30 8029 C 774.33 -4.96553 -1.61965 0
M  V30 8030 H 776.024 -2.92033 -0.660092 0
M  V30 8031 H 773.57 -1.40488 -0.316074 0
M  V30 8032 H 775.523 -2.85852 -3.09624 0
M  V30 8033 H 774.247 -1.64684 -2.8204 0
M  V30 8034 H 772.906 -3.33639 -1.51924 0
M  V30 8035 H 772.554 -3.07403 -3.98136 0
M  V30 8036 H 772.254 -4.7504 -3.45848 0
M  V30 8037 H 773.778 -4.33956 -4.29552 0
M  V30 8038 H 775.192 -5.28201 -2.22883 0
M  V30 8039 H 773.589 -5.7799 -1.61394 0
M  V30 8040 H 774.659 -4.81396 -0.581918 0
M  V30 8041 N 776.003 0.335068 -1.53997 0
M  V30 8042 C 777.228 1.09859 -1.75914 0
M  V30 8043 C 777.653 1.81308 -0.500915 0
M  V30 8044 O 777.011 1.72854 0.54693 0
M  V30 8045 C 777.059 2.08122 -2.94478 0
M  V30 8046 O 776.163 3.15805 -2.65219 0
M  V30 8047 H 775.504 0.317313 -0.583274 0
M  V30 8048 H 778.034 0.382872 -2.00986 0
M  V30 8049 H 778.044 2.51195 -3.21504 0
M  V30 8050 H 776.719 1.55517 -3.8573 0
M  V30 8051 H 775.296 2.77489 -2.49107 0
M  V30 8052 N 777.481 1.45874 0.596531 0
M  V30 8053 C 778.711 1.5379 1.37958 0
M  V30 8054 C 779.119 0.173086 1.88407 0
M  V30 8055 O 778.462 -0.837498 1.63498 0
M  V30 8056 C 778.524 2.47044 2.61169 0
M  V30 8057 C 778.188 3.93565 2.32283 0
M  V30 8058 C 779.185 4.83162 1.91965 0
M  V30 8059 C 776.87 4.38579 2.44854 0
M  V30 8060 C 778.864 6.15782 1.64593 0
M  V30 8061 C 776.551 5.71238 2.17095 0
M  V30 8062 C 777.549 6.59659 1.77028 0
M  V30 8063 O 777.237 7.89857 1.49601 0
M  V30 8064 H 776.969 0.523 0.428307 0
M  V30 8065 H 779.523 1.91855 0.733529 0
M  V30 8066 H 777.753 2.0397 3.28532 0
M  V30 8067 H 779.442 2.4552 3.23226 0
M  V30 8068 H 780.208 4.49646 1.8178 0
M  V30 8069 H 776.087 3.6999 2.75006 0
M  V30 8070 H 779.631 6.84757 1.33245 0
M  V30 8071 H 775.528 6.04306 2.26901 0
M  V30 8072 H 776.296 8.01991 1.63561 0
M  V30 8073 N 778.959 -0.83999 1.33349 0
M  V30 8074 C 779.889 -1.965 1.26135 0
M  V30 8075 C 780.87 -1.69505 0.142152 0
M  V30 8076 O 782.055 -1.91346 0.331743 0
M  V30 8077 C 779.185 -3.32632 0.99866 0
M  V30 8078 C 778.139 -3.74021 2.08068 0
M  V30 8079 C 777.465 -5.07947 1.67014 0
M  V30 8080 C 778.765 -3.87925 3.49731 0
M  V30 8081 H 780.459 -2.02793 2.20262 0
M  V30 8082 H 778.005 -0.974297 1.06035 0
M  V30 8083 H 779.958 -4.10903 0.934696 0
M  V30 8084 H 778.682 -3.26593 0.0217759 0
M  V30 8085 H 777.341 -2.98012 2.13505 0
M  V30 8086 H 776.989 -4.98378 0.680316 0
M  V30 8087 H 776.689 -5.36611 2.39422 0
M  V30 8088 H 778.213 -5.88695 1.62082 0
M  V30 8089 H 779.627 -4.5651 3.46802 0
M  V30 8090 H 778.024 -4.28023 4.20614 0
M  V30 8091 H 779.094 -2.90407 3.88319 0
M  V30 8092 N 780.437 -1.16799 -1.0581 0
M  V30 8093 C 781.683 -0.963929 -1.79109 0
M  V30 8094 C 782.038 0.502569 -1.8572 0
M  V30 8095 O 781.331 1.36813 -1.34137 0
M  V30 8096 C 781.525 -1.53111 -3.22942 0
M  V30 8097 C 781.354 -3.05123 -3.30348 0
M  V30 8098 C 780.124 -3.73804 -3.39998 0
M  V30 8099 C 782.322 -4.02777 -3.19805 0
M  V30 8100 N 780.304 -5.1348 -3.36469 0
M  V30 8101 C 781.675 -5.28866 -3.23576 0
M  V30 8102 C 783.73 -3.94533 -3.03724 0
M  V30 8103 C 782.433 -6.47669 -3.12918 0
M  V30 8104 C 784.459 -5.12913 -2.94405 0
M  V30 8105 C 783.821 -6.37884 -2.98803 0
M  V30 8106 H 779.92 -0.406555 -0.66801 0
M  V30 8107 H 782.504 -1.48277 -1.26183 0
M  V30 8108 H 780.675 -1.03869 -3.74254 0
M  V30 8109 H 782.407 -1.2643 -3.84444 0
M  V30 8110 H 779.162 -3.24457 -3.44999 0
M  V30 8111 H 779.586 -5.86477 -3.38191 0
M  V30 8112 H 784.228 -2.98763 -2.99166 0
M  V30 8113 H 781.946 -7.43656 -3.16231 0
M  V30 8114 H 785.532 -5.08309 -2.83042 0
M  V30 8115 H 784.412 -7.27946 -2.91657 0
M  V30 8116 N 781.915 1.24427 -0.967243 0
M  V30 8117 C 783.145 1.96256 -0.64554 0
M  V30 8118 C 783.553 1.71959 0.789098 0
M  V30 8119 O 782.896 0.999913 1.54102 0
M  V30 8120 C 782.958 3.49553 -0.839798 0
M  V30 8121 C 782.622 3.97548 -2.25399 0
M  V30 8122 C 783.619 4.07257 -3.23168 0
M  V30 8123 C 781.304 4.30884 -2.58156 0
M  V30 8124 C 783.298 4.49635 -4.51782 0
M  V30 8125 C 780.985 4.72946 -3.86996 0
M  V30 8126 C 781.983 4.82286 -4.83621 0
M  V30 8127 O 781.671 5.23409 -6.10162 0
M  V30 8128 H 781.403 0.632002 -0.239895 0
M  V30 8129 H 783.957 1.59224 -1.29757 0
M  V30 8130 H 782.187 3.86479 -0.130603 0
M  V30 8131 H 783.876 4.02591 -0.517249 0
M  V30 8132 H 784.642 3.8172 -2.9919 0
M  V30 8133 H 780.521 4.22833 -1.83666 0
M  V30 8134 H 784.065 4.5684 -5.27203 0
M  V30 8135 H 779.962 4.9793 -4.10775 0
M  V30 8136 H 780.73 5.4156 -6.13722 0
M  V30 8137 N 783.393 0.737304 1.3929 0
M  V30 8138 C 784.618 0.295237 2.05288 0
M  V30 8139 C 785.043 -1.06235 1.55228 0
M  V30 8140 O 784.401 -1.67365 0.697043 0
M  V30 8141 C 784.449 0.309146 3.59272 0
M  V30 8142 O 783.553 -0.702437 4.06374 0
M  V30 8143 H 782.894 0.133762 0.650387 0
M  V30 8144 H 785.424 1.00387 1.78279 0
M  V30 8145 H 785.434 0.154336 4.07708 0
M  V30 8146 H 784.109 1.29974 3.95069 0
M  V30 8147 H 782.686 -0.513574 3.69346 0
M  V30 8148 N 784.871 -1.49948 0.485112 0
M  V30 8149 C 785.834 -2.27351 -0.290546 0
M  V30 8150 C 786.834 -1.32704 -0.908087 0
M  V30 8151 O 788.024 -1.56007 -0.775085 0
M  V30 8152 C 785.156 -3.10135 -1.41524 0
M  V30 8153 H 786.349 -2.97374 0.388454 0
M  V30 8154 H 783.902 -1.54453 0.239586 0
M  V30 8155 H 784.637 -2.44641 -2.12888 0
M  V30 8156 H 784.422 -3.79705 -0.978074 0
M  V30 8157 H 785.912 -3.68638 -1.96204 0
M  V30 8158 N 786.349 -0.21828 -1.56081 0
M  V30 8159 C 787.299 0.706492 -2.16778 0
M  V30 8160 C 788.283 1.15987 -1.11516 0
M  V30 8161 O 789.475 1.11441 -1.37513 0
M  V30 8162 C 786.604 1.91583 -2.8487 0
M  V30 8163 C 785.69 1.48228 -3.97353 0
M  V30 8164 N 786.081 0.761113 -5.00041 0
M  V30 8165 C 784.379 1.76982 -4.09382 0
M  V30 8166 C 785.08 0.540496 -5.79184 0
M  V30 8167 N 784.056 1.09622 -5.32432 0
M  V30 8168 H 787.858 0.147038 -2.93532 0
M  V30 8169 H 785.372 -0.0194049 -1.62388 0
M  V30 8170 H 787.369 2.58906 -3.26762 0
M  V30 8171 H 786.029 2.47979 -2.09611 0
M  V30 8172 H 787.04 0.414141 -5.16241 0
M  V30 8173 H 783.717 2.34721 -3.45271 0
M  V30 8174 H 785.107 -0.0332531 -6.71892 0
M  V30 8175 N 787.827 1.57504 0.0551401 0
M  V30 8176 C 788.775 2.05884 1.08233 0
M  V30 8177 C 789.769 0.967383 1.39061 0
M  V30 8178 O 790.975 1.15242 1.38273 0
M  V30 8179 H 787.35 0.656673 0.366449 0
M  V30 8180 H 789.321 2.91273 0.648269 0
M  V30 8181 C 788.07 2.53221 2.38273 0
M  V30 8182 H 787.393 3.36809 2.15406 0
M  V30 8183 H 788.833 2.9081 3.08554 0
M  V30 8184 C 787.292 1.42218 3.05411 0
M  V30 8185 O 787.822 0.773638 3.9418 0
M  V30 8186 N 786.028 1.16316 2.66306 0
M  V30 8187 H 785.575 1.69237 1.94207 0
M  V30 8188 H 785.533 0.422534 3.11548 0
M  V30 8189 N 789.305 -0.326896 1.54172 0
M  V30 8190 C 790.53 -1.08924 1.76494 0
M  V30 8191 C 790.955 -1.81039 0.510523 0
M  V30 8192 O 790.313 -1.73141 -0.537756 0
M  V30 8193 C 790.361 -2.06558 2.95578 0
M  V30 8194 O 789.465 -3.14394 2.6689 0
M  V30 8195 H 788.806 -0.314216 0.584948 0
M  V30 8196 H 791.336 -0.372207 2.01186 0
M  V30 8197 H 791.346 -2.49487 3.22832 0
M  V30 8198 H 790.021 -1.53469 3.86549 0
M  V30 8199 H 788.598 -2.76164 2.50576 0
M  V30 8200 N 790.784 -1.46188 -0.588786 0
M  V30 8201 C 792.012 -1.54743 -1.37339 0
M  V30 8202 C 792.427 -0.186446 -1.87877 0
M  V30 8203 O 791.784 0.815247 -1.63279 0
M  V30 8204 C 791.835 -2.54727 -2.56508 0
M  V30 8205 O 791.556 -3.85539 -2.08066 0
M  V30 8206 C 793.057 -2.73163 -3.49137 0
M  V30 8207 H 790.277 -0.523484 -0.419768 0
M  V30 8208 H 792.821 -1.91543 -0.716345 0
M  V30 8209 H 790.976 -2.20948 -3.18215 0
M  V30 8210 H 791.39 -4.39905 -2.85629 0
M  V30 8211 H 792.864 -3.47057 -4.2925 0
M  V30 8212 H 793.341 -1.79856 -4.00685 0
M  V30 8213 H 793.947 -3.08014 -2.9327 0
M  V30 8214 N 792.262 0.832906 -1.33792 0
M  V30 8215 C 793.49 1.62048 -1.28639 0
M  V30 8216 C 793.905 1.88269 0.141522 0
M  V30 8217 O 793.262 1.46706 1.08553 0
M  V30 8218 C 793.313 2.96722 -2.0649 0
M  V30 8219 O 793.034 2.7165 -3.43712 0
M  V30 8220 C 794.535 3.91144 -2.08617 0
M  V30 8221 H 791.755 0.504032 -0.442937 0
M  V30 8222 H 794.299 1.03704 -1.76255 0
M  V30 8223 H 792.454 3.51652 -1.62541 0
M  V30 8224 H 792.868 3.57453 -3.83833 0
M  V30 8225 H 794.342 4.82837 -2.67531 0
M  V30 8226 H 794.819 4.25766 -1.07796 0
M  V30 8227 H 795.425 3.42152 -2.52611 0
M  V30 8228 N 793.74 1.17359 1.05189 0
M  V30 8229 C 794.986 0.963413 1.78455 0
M  V30 8230 C 795.319 -0.506703 1.87473 0
M  V30 8231 O 794.594 -1.37611 1.37453 0
M  V30 8232 C 794.877 1.60519 3.22344 0
M  V30 8233 C 794.73 3.14741 3.21338 0
M  V30 8234 C 796.049 1.3091 4.20179 0
M  V30 8235 H 793.168 0.351412 0.647826 0
M  V30 8236 H 795.81 1.44858 1.22948 0
M  V30 8237 H 793.96 1.19265 3.69741 0
M  V30 8238 H 795.632 3.65053 2.82017 0
M  V30 8239 H 793.875 3.4749 2.59679 0
M  V30 8240 H 794.546 3.54775 4.22894 0
M  V30 8241 H 797.022 1.66635 3.81277 0
M  V30 8242 H 795.898 1.784 5.191 0
M  V30 8243 H 796.159 0.229908 4.41502 0
M  V30 8244 N 795.218 -1.23913 0.973828 0
M  V30 8245 C 796.467 -1.91455 0.63464 0
M  V30 8246 C 796.78 -1.76893 -0.834759 0
M  V30 8247 O 797.986 -2.3918 -1.28473 0
M  V30 8248 C 796.442 -3.43172 1.08447 0
M  V30 8249 C 796.05 -3.66409 2.57776 0
M  V30 8250 C 797.794 -4.1653 0.818721 0
M  V30 8251 C 795.701 -5.11728 2.9646 0
M  V30 8252 H 794.631 -0.716881 0.233661 0
M  V30 8253 H 797.282 -1.40457 1.18085 0
M  V30 8254 H 795.664 -3.93242 0.466524 0
M  V30 8255 H 796.838 -3.26913 3.24753 0
M  V30 8256 H 795.153 -3.06349 2.82027 0
M  V30 8257 H 797.75 -5.23603 1.08367 0
M  V30 8258 H 798.093 -4.15578 -0.245128 0
M  V30 8259 H 798.626 -3.72428 1.39793 0
M  V30 8260 H 795.365 -5.17806 4.01941 0
M  V30 8261 H 794.885 -5.52199 2.34172 0
M  V30 8262 H 796.564 -5.80009 2.86703 0
M  V30 8263 N 796.696 -0.74468 -1.38897 0
M  V30 8264 C 797.942 -0.297324 -2.00609 0
M  V30 8265 C 798.275 1.11547 -1.58968 0
M  V30 8266 O 797.55 1.76227 -0.823057 0
M  V30 8267 C 797.833 -0.410125 -3.57757 0
M  V30 8268 C 797.686 -1.86338 -4.09387 0
M  V30 8269 C 799.005 0.20176 -4.39637 0
M  V30 8270 H 796.124 -0.109509 -0.728819 0
M  V30 8271 H 798.766 -0.942653 -1.64967 0
M  V30 8272 H 796.916 0.139287 -3.8825 0
M  V30 8273 H 798.588 -2.47042 -3.89574 0
M  V30 8274 H 796.831 -2.38146 -3.62586 0
M  V30 8275 H 797.502 -1.89352 -5.18507 0
M  V30 8276 H 799.978 -0.266703 -4.15244 0
M  V30 8277 H 798.854 0.0925415 -5.48822 0
M  V30 8278 H 799.115 1.289 -4.22891 0
M  V30 8279 N 798.174 1.49689 -0.493057 0
M  V30 8280 C 799.42 2.02727 0.0543518 0
M  V30 8281 C 799.753 1.37264 1.37376 0
M  V30 8282 O 799.028 0.505644 1.87812 0
M  V30 8283 C 799.311 3.59456 0.215226 0
M  V30 8284 C 799.164 4.35459 -1.12675 0
M  V30 8285 C 800.483 4.29511 0.959586 0
M  V30 8286 H 797.602 0.736773 0.0182786 0
M  V30 8287 H 800.244 1.78792 -0.642924 0
M  V30 8288 H 798.394 3.79981 0.809122 0
M  V30 8289 H 800.066 4.2645 -1.75891 0
M  V30 8290 H 798.309 3.9833 -1.71801 0
M  V30 8291 H 798.98 5.43454 -0.967578 0
M  V30 8292 H 801.456 4.13594 0.455977 0
M  V30 8293 H 800.332 5.38939 1.04098 0
M  V30 8294 H 800.593 3.94202 2.00144 0
M  V30 8295 N 799.652 0.226554 1.55963 0
M  V30 8296 C 800.9 -0.402991 1.98041 0
M  V30 8297 C 801.221 -1.59938 1.11557 0
M  V30 8298 O 800.491 -1.9494 0.193719 0
M  V30 8299 H 799.071 -0.15188 0.731397 0
M  V30 8300 H 801.733 0.320613 1.92245 0
M  V30 8301 H 800.829 -0.725937 3.0354 0
M  V30 8302 N 801.13 -1.57531 -0.0467866 0
M  V30 8303 C 802.06 -2.08425 -1.05268 0
M  V30 8304 C 803.041 -0.982941 -1.38825 0
M  V30 8305 O 804.226 -1.25716 -1.48018 0
M  V30 8306 C 801.356 -2.54897 -2.35891 0
M  V30 8307 C 800.31 -3.69132 -2.16623 0
M  V30 8308 C 799.636 -4.01747 -3.52851 0
M  V30 8309 C 800.936 -4.98243 -1.56689 0
M  V30 8310 H 802.63 -2.92716 -0.62908 0
M  V30 8311 H 800.176 -1.40816 -0.301156 0
M  V30 8312 H 802.129 -2.8912 -3.06574 0
M  V30 8313 H 800.853 -1.67666 -2.80278 0
M  V30 8314 H 799.512 -3.35231 -1.48377 0
M  V30 8315 H 799.16 -3.11608 -3.94853 0
M  V30 8316 H 798.86 -4.78681 -3.4079 0
M  V30 8317 H 800.384 -4.38487 -4.24925 0
M  V30 8318 H 801.798 -5.30535 -2.17268 0
M  V30 8319 H 800.195 -5.79669 -1.55255 0
M  V30 8320 H 801.265 -4.81986 -0.530827 0
M  V30 8321 N 802.608 0.318715 -1.54344 0
M  V30 8322 C 803.857 1.05363 -1.71993 0
M  V30 8323 C 804.17 1.89018 -0.503155 0
M  V30 8324 O 805.376 2.65639 -0.561085 0
M  V30 8325 C 803.832 1.92281 -3.0423 0
M  V30 8326 C 803.44 1.13715 -4.33328 0
M  V30 8327 C 805.184 2.65479 -3.31242 0
M  V30 8328 C 803.091 1.99806 -5.56625 0
M  V30 8329 H 802.021 0.397081 -0.64097 0
M  V30 8330 H 804.672 0.311598 -1.80835 0
M  V30 8331 H 803.054 2.70402 -2.89307 0
M  V30 8332 H 804.228 0.403305 -4.59032 0
M  V30 8333 H 802.543 0.521769 -4.13118 0
M  V30 8334 H 805.14 3.30209 -4.20555 0
M  V30 8335 H 805.483 3.33374 -2.49334 0
M  V30 8336 H 806.016 1.94417 -3.47054 0
M  V30 8337 H 802.755 1.36411 -6.41149 0
M  V30 8338 H 802.275 2.70911 -5.35133 0
M  V30 8339 H 803.954 2.58277 -5.93213 0
M  V30 8340 N 804.086 1.46499 0.581025 0
M  V30 8341 C 805.332 1.52121 1.34116 0
M  V30 8342 C 805.665 0.173031 1.93428 0
M  V30 8343 O 804.94 -0.815729 1.76568 0
M  V30 8344 C 805.223 2.62108 2.46924 0
M  V30 8345 C 805.076 4.06462 1.92636 0
M  V30 8346 C 806.395 2.68167 3.48962 0
M  V30 8347 H 803.514 0.5538 0.486287 0
M  V30 8348 H 806.156 1.78443 0.652538 0
M  V30 8349 H 804.306 2.39794 3.05665 0
M  V30 8350 H 805.978 4.40068 1.3834 0
M  V30 8351 H 804.221 4.15862 1.23455 0
M  V30 8352 H 804.892 4.79152 2.74076 0
M  V30 8353 H 807.368 2.8823 3.00104 0
M  V30 8354 H 806.244 3.46942 4.2535 0
M  V30 8355 H 806.505 1.74284 4.06297 0
M  V30 8356 N 805.565 -0.825799 1.34232 0
M  V30 8357 C 806.79 -1.61883 1.29648 0
M  V30 8358 C 807.215 -1.87669 -0.127295 0
M  V30 8359 O 806.573 -1.45016 -1.08813 0
M  V30 8360 C 806.621 -2.93846 2.09014 0
M  V30 8361 O 805.725 -3.85778 1.4577 0
M  V30 8362 H 805.066 -0.492454 0.445405 0
M  V30 8363 H 807.596 -1.02641 1.76992 0
M  V30 8364 H 807.606 -3.43435 2.20264 0
M  V30 8365 H 806.281 -2.74401 3.12533 0
M  V30 8366 H 804.858 -3.4429 1.43245 0
M  V30 8367 N 807.043 -1.17915 -1.04565 0
M  V30 8368 C 807.973 -0.925033 -2.14395 0
M  V30 8369 C 808.954 0.135375 -1.6956 0
M  V30 8370 O 810.139 -0.0161774 -1.94193 0
M  V30 8371 C 807.269 -0.444469 -3.44444 0
M  V30 8372 C 806.223 -1.44478 -4.02877 0
M  V30 8373 C 805.549 -0.821933 -5.28345 0
M  V30 8374 C 806.849 -2.81995 -4.39632 0
M  V30 8375 H 808.543 -1.84354 -2.35911 0
M  V30 8376 H 806.089 -0.887806 -1.13375 0
M  V30 8377 H 808.042 -0.254078 -4.20633 0
M  V30 8378 H 806.766 0.509592 -3.226 0
M  V30 8379 H 805.425 -1.62203 -3.28764 0
M  V30 8380 H 805.073 0.139161 -5.02807 0
M  V30 8381 H 804.773 -1.48976 -5.68401 0
M  V30 8382 H 806.297 -0.641959 -6.07216 0
M  V30 8383 H 807.711 -2.67952 -5.06828 0
M  V30 8384 H 806.108 -3.45414 -4.90723 0
M  V30 8385 H 807.178 -3.35927 -3.49687 0
M  V30 8386 N 808.521 1.23394 -0.980386 0
M  V30 8387 C 809.451 2.2717 -0.540024 0
M  V30 8388 C 810.432 1.64659 0.426787 0
M  V30 8389 O 811.617 1.91543 0.320153 0
M  V30 8390 C 808.747 3.46939 0.15836 0
M  V30 8391 C 807.701 4.21802 -0.725732 0
M  V30 8392 C 807.027 5.34597 0.104866 0
M  V30 8393 C 808.327 4.81802 -2.01654 0
M  V30 8394 H 810.021 2.64257 -1.40743 0
M  V30 8395 H 807.567 1.2703 -0.678193 0
M  V30 8396 H 809.52 4.18683 0.477737 0
M  V30 8397 H 808.244 3.08912 1.06022 0
M  V30 8398 H 806.903 3.51875 -1.02857 0
M  V30 8399 H 806.551 4.92812 1.00726 0
M  V30 8400 H 806.251 5.85607 -0.483557 0
M  V30 8401 H 807.775 6.09163 0.418624 0
M  V30 8402 H 809.189 5.45554 -1.76193 0
M  V30 8403 H 807.586 5.43098 -2.55273 0
M  V30 8404 H 808.656 4.02549 -2.70338 0
M  V30 8405 N 809.999 0.752036 1.385 0
M  V30 8406 C 811.227 0.318274 2.04437 0
M  V30 8407 C 811.642 -1.05285 1.56718 0
M  V30 8408 O 810.999 -1.66844 0.73956 0
M  V30 8409 C 811.05 0.330106 3.5999 0
M  V30 8410 O 810.771 1.64712 4.05957 0
M  V30 8411 C 812.272 -0.117713 4.43144 0
M  V30 8412 H 809.492 0.136228 0.657026 0
M  V30 8413 H 812.036 1.02045 1.7722 0
M  V30 8414 H 810.191 -0.323323 3.86048 0
M  V30 8415 H 810.605 1.57225 5.0038 0
M  V30 8416 H 812.079 -0.0582735 5.51969 0
M  V30 8417 H 812.556 -1.16538 4.23457 0
M  V30 8418 H 813.162 0.506784 4.2227 0
M  V30 8419 N 811.477 -1.49425 0.500989 0
M  V30 8420 C 812.725 -2.02053 -0.0434495 0
M  V30 8421 C 813.046 -1.38285 -1.37486 0
M  V30 8422 O 812.316 -0.538171 -1.88363 0
M  V30 8423 H 810.896 -0.746757 -0.0190469 0
M  V30 8424 H 813.558 -1.83449 0.658227 0
M  V30 8425 H 812.654 -3.11619 -0.173129 0
M  V30 8426 N 812.955 -0.234822 -1.55841 0
M  V30 8427 C 814.371 0.120295 -1.59146 0
M  V30 8428 C 814.571 1.57896 -1.25184 0
M  V30 8429 O 813.627 2.32138 -0.993393 0
M  V30 8430 C 814.94 -0.217984 -2.99909 0
M  V30 8431 C 816.488 -0.161298 -3.12584 0
M  V30 8432 C 816.963 -0.473438 -4.55546 0
M  V30 8433 N 818.454 -0.423494 -4.6126 0
M  V30 8434 C 819.189 -0.638334 -5.69836 0
M  V30 8435 N 818.685 -0.915659 -6.86722 0
M  V30 8436 N 820.478 -0.569864 -5.59204 0
M  V30 8437 H 812.629 -1.18622 -1.76189 0
M  V30 8438 H 814.892 -0.476426 -0.819587 0
M  V30 8439 H 814.598 -1.2309 -3.29457 0
M  V30 8440 H 814.472 0.460707 -3.74376 0
M  V30 8441 H 816.859 0.842274 -2.82825 0
M  V30 8442 H 816.94 -0.873661 -2.40418 0
M  V30 8443 H 816.584 -1.47451 -4.86025 0
M  V30 8444 H 816.514 0.260268 -5.25956 0
M  V30 8445 H 819.005 -0.217383 -3.77274 0
M  V30 8446 H 819.318 -1.06734 -7.65394 0
M  V30 8447 H 817.663 -0.953 -6.88435 0
M  V30 8448 H 820.854 -0.35334 -4.66765 0
M  V30 8449 H 821.027 -0.740698 -6.43753 0
M  V30 8450 N 814.433 1.57553 0.0384317 0
M  V30 8451 C 815.366 2.01307 1.07475 0
M  V30 8452 C 816.344 0.895717 1.35704 0
M  V30 8453 O 817.528 1.16079 1.48519 0
M  V30 8454 C 814.655 2.37817 2.41165 0
M  V30 8455 C 813.701 3.599 2.28855 0
M  V30 8456 S 814.534 5.09418 1.65086 0
M  V30 8457 C 815.69 5.49162 3.00286 0
M  V30 8458 H 815.923 2.88892 0.702034 0
M  V30 8459 H 813.456 1.52394 0.248103 0
M  V30 8460 H 815.414 2.59524 3.18053 0
M  V30 8461 H 814.075 1.507 2.75587 0
M  V30 8462 H 813.268 3.83071 3.27525 0
M  V30 8463 H 812.87 3.37996 1.60109 0
M  V30 8464 H 815.162 5.49274 3.96617 0
M  V30 8465 H 816.105 6.49586 2.81858 0
M  V30 8466 H 816.513 4.76653 3.02427 0
M  V30 8467 N 815.911 -0.310526 1.54511 0
M  V30 8468 C 817.327 -0.655637 1.45511 0
M  V30 8469 C 817.527 -1.91114 0.638564 0
M  V30 8470 O 816.583 -2.52098 0.142497 0
M  V30 8471 C 817.896 -0.817501 2.89374 0
M  V30 8472 C 819.444 -0.914003 2.99358 0
M  V30 8473 C 819.919 -1.10794 4.44397 0
M  V30 8474 N 821.41 -1.17437 4.48066 0
M  V30 8475 C 822.145 -1.34255 5.57461 0
M  V30 8476 N 821.641 -1.48032 6.768 0
M  V30 8477 N 823.434 -1.37067 5.45132 0
M  V30 8478 H 815.585 0.514506 2.06074 0
M  V30 8479 H 817.848 0.168478 0.932909 0
M  V30 8480 H 817.554 0.034003 3.51684 0
M  V30 8481 H 817.428 -1.7094 3.36243 0
M  V30 8482 H 819.815 -1.756 2.37168 0
M  V30 8483 H 819.896 0.00170958 2.558 0
M  V30 8484 H 819.54 -0.270743 5.07178 0
M  V30 8485 H 819.47 -2.03773 4.85576 0
M  V30 8486 H 821.961 -1.08181 3.62084 0
M  V30 8487 H 822.274 -1.60593 7.5593 0
M  V30 8488 H 820.619 -1.45105 6.79683 0
M  V30 8489 H 823.81 -1.25909 4.50849 0
M  V30 8490 H 823.983 -1.49831 6.3044 0
M  V30 8491 N 817.389 -1.46805 -0.573248 0
M  V30 8492 C 818.637 -1.52302 -1.32847 0
M  V30 8493 C 818.958 -0.180159 -1.94166 0
M  V30 8494 O 818.228 0.794291 -1.79075 0
M  V30 8495 H 816.808 -0.56097 -0.493276 0
M  V30 8496 H 819.47 -1.82998 -0.670642 0
M  V30 8497 H 818.566 -2.28089 -2.13031 0
M  V30 8498 N 818.867 0.818669 -1.34668 0
M  V30 8499 C 820.283 1.11243 -1.14443 0
M  V30 8500 C 820.483 2.01435 0.0512212 0
M  V30 8501 O 819.539 2.41854 0.725471 0
M  V30 8502 C 820.852 1.75504 -2.4417 0
M  V30 8503 C 822.4 1.8798 -2.50265 0
M  V30 8504 C 822.875 2.55657 -3.80004 0
M  V30 8505 N 824.366 2.63153 -3.81189 0
M  V30 8506 C 825.101 3.16258 -4.78298 0
M  V30 8507 N 824.597 3.69893 -5.85791 0
M  V30 8508 N 826.39 3.14698 -4.65748 0
M  V30 8509 H 818.541 0.218848 -2.1127 0
M  V30 8510 H 820.804 0.159655 -0.934459 0
M  V30 8511 H 820.51 1.16697 -3.31775 0
M  V30 8512 H 820.384 2.75329 -2.57825 0
M  V30 8513 H 822.771 2.45934 -1.63096 0
M  V30 8514 H 822.852 0.870447 -2.40535 0
M  V30 8515 H 822.496 1.98356 -4.67565 0
M  V30 8516 H 822.426 3.57105 -3.87019 0
M  V30 8517 H 824.917 2.2514 -3.03513 0
M  V30 8518 H 825.23 4.08678 -6.55898 0
M  V30 8519 H 823.575 3.68125 -5.89499 0
M  V30 8520 H 826.766 2.72066 -3.80917 0
M  V30 8521 H 826.939 3.5578 -5.41594 0
M  V30 8522 N 820.346 1.18468 1.03938 0
M  V30 8523 C 821.571 1.00638 1.81347 0
M  V30 8524 C 821.996 -0.440477 1.8287 0
M  V30 8525 O 821.354 -1.31609 1.24695 0
M  V30 8526 C 821.402 1.5673 3.24759 0
M  V30 8527 O 820.506 0.789517 4.04772 0
M  V30 8528 H 819.847 0.356432 0.560225 0
M  V30 8529 H 822.377 1.57253 1.30891 0
M  V30 8530 H 822.387 1.59496 3.75533 0
M  V30 8531 H 821.062 2.62043 3.22965 0
M  V30 8532 H 819.639 0.834267 3.63448 0
M  V30 8533 N 821.824 -1.22873 0.986916 0
M  V30 8534 C 822.754 -2.2688 0.552064 0
M  V30 8535 C 823.735 -1.64883 -0.418048 0
M  V30 8536 O 824.92 -1.9171 -0.30999 0
M  V30 8537 C 822.05 -3.47018 -0.139959 0
M  V30 8538 C 821.004 -4.21411 0.748091 0
M  V30 8539 C 820.33 -5.34645 -0.0765132 0
M  V30 8540 C 821.63 -4.80726 2.04206 0
M  V30 8541 H 823.324 -2.63507 1.42143 0
M  V30 8542 H 820.87 -1.26668 0.68492 0
M  V30 8543 H 822.823 -4.18931 -0.455527 0
M  V30 8544 H 821.547 -3.0947 -1.04382 0
M  V30 8545 H 820.206 -3.51325 1.04721 0
M  V30 8546 H 819.854 -4.93339 -0.981109 0
M  V30 8547 H 819.554 -5.85342 0.514606 0
M  V30 8548 H 821.078 -6.09377 -0.386313 0
M  V30 8549 H 822.492 -5.44612 1.79083 0
M  V30 8550 H 820.889 -5.41737 2.5815 0
M  V30 8551 H 821.959 -4.01109 2.72469 0
M  V30 8552 N 823.302 -0.75937 -1.38099 0
M  V30 8553 C 824.25 -0.124954 -2.32264 0
M  V30 8554 C 825.244 0.698863 -1.54312 0
M  V30 8555 O 826.45 0.597312 -1.698 0
M  V30 8556 H 822.825 -0.0216142 -0.751689 0
M  V30 8557 H 824.796 -0.935115 -2.83369 0
M  V30 8558 C 823.545 0.749463 -3.39527 0
M  V30 8559 H 822.868 0.124932 -3.99605 0
M  V30 8560 H 824.308 1.16055 -4.07808 0
M  V30 8561 C 822.767 1.89464 -2.78577 0
M  V30 8562 O 823.297 2.98923 -2.68343 0
M  V30 8563 N 821.503 1.69145 -2.36301 0
M  V30 8564 H 821.05 0.801157 -2.44825 0
M  V30 8565 H 821.008 2.45936 -1.95864 0
M  V30 8566 N 824.78 1.49157 -0.508906 0
M  V30 8567 C 826.191 1.86593 -0.0630975 0
M  V30 8568 C 826.542 1.42051 1.35337 0
M  V30 8569 O 825.667 0.801866 2.00995 0
M  V30 8570 C 826.262 3.38629 -0.107729 0
M  V30 8571 C 824.821 3.75336 0.282776 0
M  V30 8572 C 823.968 2.7317 -0.4768 0
M  V30 8573 H 826.919 1.41362 -0.72128 0
M  V30 8574 H 826.94 3.74271 0.685689 0
M  V30 8575 H 826.452 3.71017 -1.13876 0
M  V30 8576 H 824.553 3.48558 1.31675 0
M  V30 8577 H 824.666 4.79081 -0.0421728 0
M  V30 8578 H 823.03 2.54591 0.0743552 0
M  V30 8579 H 823.813 3.08403 -1.50807 0
M  V30 8580 N 826.258 0.243083 1.55714 0
M  V30 8581 C 827.221 -0.644723 2.19945 0
M  V30 8582 C 828.221 -1.10562 1.16759 0
M  V30 8583 O 829.411 -1.01095 1.41865 0
M  V30 8584 C 826.543 -1.88569 2.83997 0
M  V30 8585 H 827.736 -0.0843839 2.99781 0
M  V30 8586 H 825.289 -0.00647246 1.56299 0
M  V30 8587 H 826.024 -2.48736 2.08089 0
M  V30 8588 H 825.809 -1.56345 3.59581 0
M  V30 8589 H 827.299 -2.51774 3.33166 0
M  V30 8590 N 827.736 -1.57571 -0.0300757 0
M  V30 8591 C 828.964 -1.93485 -0.732891 0
M  V30 8592 C 829.379 -0.842758 -1.68947 0
M  V30 8593 O 828.736 0.180904 -1.81601 0
M  V30 8594 C 828.787 -3.29328 -1.49082 0
M  V30 8595 O 828.508 -4.34341 -0.572639 0
M  V30 8596 C 830.009 -3.79517 -2.29088 0
M  V30 8597 H 827.229 -0.638588 -0.206026 0
M  V30 8598 H 829.773 -2.04496 0.0120966 0
M  V30 8599 H 827.928 -3.19716 -2.1877 0
M  V30 8600 H 828.342 -5.12748 -1.10406 0
M  V30 8601 H 829.816 -4.77081 -2.77665 0
M  V30 8602 H 830.293 -3.10659 -3.10464 0
M  V30 8603 H 830.899 -3.92208 -1.64477 0
M  V30 8604 N 829.214 0.302327 -1.54673 0
M  V30 8605 C 830.463 1.03533 -1.73101 0
M  V30 8606 C 830.776 1.88473 -0.523174 0
M  V30 8607 O 831.982 2.65029 -0.589229 0
M  V30 8608 C 830.438 1.89043 -3.06252 0
M  V30 8609 C 830.046 1.09112 -4.3451 0
M  V30 8610 C 831.79 2.61951 -3.34039 0
M  V30 8611 C 829.697 1.93891 -5.58713 0
M  V30 8612 H 828.627 0.390261 -0.645145 0
M  V30 8613 H 831.278 0.2924 -1.81155 0
M  V30 8614 H 829.66 2.67319 -2.92159 0
M  V30 8615 H 830.834 0.354596 -4.59434 0
M  V30 8616 H 829.149 0.477923 -4.13648 0
M  V30 8617 H 831.746 3.25729 -4.24033 0
M  V30 8618 H 832.089 3.30711 -2.52855 0
M  V30 8619 H 832.622 1.90725 -3.49097 0
M  V30 8620 H 829.361 1.29604 -6.4256 0
M  V30 8621 H 828.881 2.6522 -5.37976 0
M  V30 8622 H 830.56 2.51971 -5.95919 0
M  V30 8623 N 830.692 1.47107 0.565454 0
M  V30 8624 C 831.922 1.56681 1.34664 0
M  V30 8625 C 832.33 0.213011 1.87997 0
M  V30 8626 O 831.673 -0.802629 1.65238 0
M  V30 8627 C 831.735 2.52528 2.55871 0
M  V30 8628 C 831.399 3.98403 2.23883 0
M  V30 8629 C 832.396 4.87125 1.81673 0
M  V30 8630 C 830.081 4.43674 2.35496 0
M  V30 8631 C 832.075 6.19135 1.51494 0
M  V30 8632 C 829.762 5.75714 2.0493 0
M  V30 8633 C 830.76 6.63266 1.62996 0
M  V30 8634 O 830.448 7.92853 1.32813 0
M  V30 8635 H 830.18 0.531967 0.417117 0
M  V30 8636 H 832.734 1.93368 0.692669 0
M  V30 8637 H 830.964 2.10893 3.24131 0
M  V30 8638 H 832.653 2.5232 3.17945 0
M  V30 8639 H 833.419 4.534 1.72201 0
M  V30 8640 H 829.298 3.7574 2.67096 0
M  V30 8641 H 832.842 6.87429 1.1869 0
M  V30 8642 H 828.739 6.08983 2.14031 0
M  V30 8643 H 829.507 8.0528 1.46513 0
M  V30 8644 N 832.17 -0.811516 1.35101 0
M  V30 8645 C 833.581 -1.38515 1.25182 0
M  V30 8646 C 833.932 -1.95846 -0.117883 0
M  V30 8647 O 833.057 -1.90925 -1.01866 0
M  V30 8648 C 833.652 -2.51813 2.26662 0
M  V30 8649 C 832.211 -3.05052 2.20499 0
M  V30 8650 C 831.358 -1.77987 2.12641 0
M  V30 8651 H 834.309 -0.614959 1.46301 0
M  V30 8652 H 834.33 -3.30228 1.89023 0
M  V30 8653 H 833.842 -2.10057 3.2634 0
M  V30 8654 H 831.943 -3.51285 1.24215 0
M  V30 8655 H 832.056 -3.63368 3.1225 0
M  V30 8656 H 830.42 -1.99342 1.5854 0
M  V30 8657 H 831.203 -1.38389 3.14171 0
M  V30 8658 N 833.648 -1.19017 -1.03309 0
M  V30 8659 C 834.894 -0.991681 -1.769 0
M  V30 8660 C 835.227 0.476813 -1.88255 0
M  V30 8661 O 834.502 1.35407 -1.39625 0
M  V30 8662 C 834.785 -1.65627 -3.19749 0
M  V30 8663 C 834.638 -3.19813 -3.1629 0
M  V30 8664 C 835.957 -1.37579 -4.18043 0
M  V30 8665 H 833.076 -0.361674 -0.642153 0
M  V30 8666 H 835.718 -1.46795 -1.20628 0
M  V30 8667 H 833.868 -1.25132 -3.67796 0
M  V30 8668 H 835.54 -3.69494 -2.76174 0
M  V30 8669 H 833.783 -3.51578 -2.54117 0
M  V30 8670 H 834.454 -3.61457 -4.17196 0
M  V30 8671 H 836.93 -1.72679 -3.78578 0
M  V30 8672 H 835.806 -1.86636 -5.16196 0
M  V30 8673 H 836.067 -0.300118 -4.4108 0
M  V30 8674 N 835.127 1.22348 -0.993418 0
M  V30 8675 C 836.057 2.26584 -0.564088 0
M  V30 8676 C 837.038 1.65102 0.409298 0
M  V30 8677 O 838.223 1.91872 0.299819 0
M  V30 8678 C 835.353 3.47087 0.121554 0
M  V30 8679 C 834.307 4.21009 -0.770429 0
M  V30 8680 C 833.633 5.34678 0.0481586 0
M  V30 8681 C 834.933 4.79636 -2.06752 0
M  V30 8682 H 836.627 2.62749 -1.43538 0
M  V30 8683 H 834.173 1.26303 -0.691628 0
M  V30 8684 H 836.126 4.19166 0.433303 0
M  V30 8685 H 834.85 3.1002 1.0274 0
M  V30 8686 H 833.509 3.50764 -1.06583 0
M  V30 8687 H 833.157 4.93852 0.954933 0
M  V30 8688 H 832.857 5.85061 -0.545641 0
M  V30 8689 H 834.381 6.09573 0.353991 0
M  V30 8690 H 835.795 5.43654 -1.81969 0
M  V30 8691 H 834.192 5.4036 -2.61019 0
M  V30 8692 H 835.262 3.99659 -2.74592 0
M  V30 8693 N 836.605 0.766683 1.37694 0
M  V30 8694 C 838.016 0.394761 1.82479 0
M  V30 8695 C 838.367 -1.07842 1.63904 0
M  V30 8696 O 837.492 -1.83479 1.14737 0
M  V30 8697 C 838.087 0.70974 3.31283 0
M  V30 8698 C 836.646 0.390936 3.74364 0
M  V30 8699 C 835.793 0.956192 2.60293 0
M  V30 8700 H 838.744 0.961756 1.26238 0
M  V30 8701 H 838.765 -0.00742144 3.80499 0
M  V30 8702 H 838.277 1.782 3.4477 0
M  V30 8703 H 836.378 -0.674213 3.66449 0
M  V30 8704 H 836.491 0.895645 4.70654 0
M  V30 8705 H 834.855 0.380744 2.51838 0
M  V30 8706 H 835.638 2.03375 2.76575 0
M  V30 8707 N 838.083 -1.48885 0.516809 0
M  V30 8708 C 839.03 -2.29408 -0.253125 0
M  V30 8709 C 840 -1.36533 -0.945935 0
M  V30 8710 O 841.185 -1.65495 -0.949527 0
M  V30 8711 C 838.325 -3.19592 -1.30211 0
M  V30 8712 C 837.438 -4.27535 -0.61948 0
M  V30 8713 C 836.573 -5.04916 -1.65026 0
M  V30 8714 C 835.612 -6.04677 -0.950368 0
M  V30 8715 N 834.749 -6.75164 -1.92608 0
M  V30 8716 H 839.589 -2.94738 0.439744 0
M  V30 8717 H 837.126 -1.45311 0.2287 0
M  V30 8718 H 839.084 -3.70267 -1.92245 0
M  V30 8719 H 837.714 -2.56213 -1.96353 0
M  V30 8720 H 836.766 -3.80228 0.114505 0
M  V30 8721 H 838.078 -4.98752 -0.0693016 0
M  V30 8722 H 837.232 -5.59539 -2.34523 0
M  V30 8723 H 835.971 -4.33508 -2.23432 0
M  V30 8724 H 834.976 -5.4927 -0.241252 0
M  V30 8725 H 836.201 -6.78077 -0.372599 0
M  V30 8726 H 834.147 -6.06517 -2.49946 0
M  V30 8727 H 834.064 -7.4241 -1.42699 0
M  V30 8728 H 835.332 -7.34384 -2.61345 0
M  V30 8729 N 839.561 -0.251338 -1.55583 0
M  V30 8730 C 840.491 0.640437 -2.24545 0
M  V30 8731 C 841.472 1.17781 -1.22726 0
M  V30 8732 O 842.657 1.21633 -1.5139 0
M  V30 8733 C 839.787 1.8355 -2.94834 0
M  V30 8734 C 838.741 1.4307 -4.03379 0
M  V30 8735 C 838.067 2.70695 -4.61116 0
M  V30 8736 C 839.367 0.59848 -5.1886 0
M  V30 8737 H 841.061 0.0653772 -2.99329 0
M  V30 8738 H 838.607 0.0300042 -1.43969 0
M  V30 8739 H 840.56 2.46505 -3.4178 0
M  V30 8740 H 839.284 2.43601 -2.17546 0
M  V30 8741 H 837.943 0.824474 -3.57209 0
M  V30 8742 H 837.591 3.28954 -3.80524 0
M  V30 8743 H 837.291 2.44332 -5.34393 0
M  V30 8744 H 838.815 3.34541 -5.10798 0
M  V30 8745 H 840.229 1.13244 -5.62004 0
M  V30 8746 H 838.626 0.430728 -5.98552 0
M  V30 8747 H 839.696 -0.38829 -4.83343 0
M  V30 8748 N 841.039 1.57585 0.0217189 0
M  V30 8749 C 841.969 2.10073 1.01939 0
M  V30 8750 C 842.95 1.0049 1.37243 0
M  V30 8751 O 844.135 1.28055 1.45999 0
M  V30 8752 C 841.265 2.58618 2.31806 0
M  V30 8753 C 840.219 3.72531 2.10724 0
M  V30 8754 C 839.545 4.07309 3.46415 0
M  V30 8755 C 840.845 5.00672 1.48743 0
M  V30 8756 H 842.539 2.9368 0.582432 0
M  V30 8757 H 840.085 1.41277 0.278715 0
M  V30 8758 H 842.038 2.9396 3.01936 0
M  V30 8759 H 840.762 1.72104 2.77575 0
M  V30 8760 H 839.421 3.37549 1.43025 0
M  V30 8761 H 839.069 3.17851 3.89846 0
M  V30 8762 H 838.769 4.84042 3.33132 0
M  V30 8763 H 840.293 4.45192 4.17895 0
M  V30 8764 H 841.707 5.33925 2.088 0
M  V30 8765 H 840.104 5.82065 1.46013 0
M  V30 8766 H 841.174 4.82769 0.45408 0
M  V30 8767 N 842.517 -0.29412 1.54831 0
M  V30 8768 C 843.742 -1.05156 1.78765 0
M  V30 8769 C 844.167 -1.79916 0.548809 0
M  V30 8770 O 843.525 -1.74243 -0.500909 0
M  V30 8771 C 843.573 -2.00242 2.99893 0
M  V30 8772 O 842.677 -3.08662 2.73499 0
M  V30 8773 H 842.018 -0.301737 0.591482 0
M  V30 8774 H 844.548 -0.329449 2.0193 0
M  V30 8775 H 844.558 -2.42583 3.28051 0
M  V30 8776 H 843.233 -1.45235 3.89717 0
M  V30 8777 H 841.81 -2.70786 2.56377 0
M  V30 8778 N 843.995 -1.47404 -0.557645 0
M  V30 8779 C 844.925 -1.62736 -1.67449 0
M  V30 8780 C 845.906 -0.476824 -1.6328 0
M  V30 8781 O 847.091 -0.706108 -1.80908 0
M  V30 8782 C 844.221 -1.641 -3.06086 0
M  V30 8783 C 843.175 -2.78377 -3.25101 0
M  V30 8784 C 842.501 -2.64812 -4.6452 0
M  V30 8785 C 843.801 -4.19971 -3.10518 0
M  V30 8786 H 845.495 -2.56232 -1.54873 0
M  V30 8787 H 843.041 -1.23312 -0.743649 0
M  V30 8788 H 844.994 -1.73417 -3.84063 0
M  V30 8789 H 843.718 -0.671652 -3.19619 0
M  V30 8790 H 842.377 -2.6857 -2.49531 0
M  V30 8791 H 842.025 -1.65906 -4.74852 0
M  V30 8792 H 841.725 -3.41477 -4.78191 0
M  V30 8793 H 843.249 -2.76057 -5.44633 0
M  V30 8794 H 844.663 -4.30757 -3.78313 0
M  V30 8795 H 843.06 -4.97419 -3.35699 0
M  V30 8796 H 844.13 -4.38369 -2.0727 0
M  V30 8797 N 845.473 0.80434 -1.35529 0
M  V30 8798 C 846.403 1.93086 -1.31301 0
M  V30 8799 C 847.384 1.69068 -0.187044 0
M  V30 8800 O 848.569 1.90399 -0.382359 0
M  V30 8801 C 845.699 3.29867 -1.0865 0
M  V30 8802 C 844.653 3.68373 -2.17911 0
M  V30 8803 C 843.979 5.0334 -1.80423 0
M  V30 8804 C 845.279 3.78516 -3.59893 0
M  V30 8805 H 846.973 1.96882 -2.25561 0
M  V30 8806 H 844.519 0.945841 -1.08581 0
M  V30 8807 H 846.472 4.08281 -1.04331 0
M  V30 8808 H 845.196 3.2642 -0.108359 0
M  V30 8809 H 843.855 2.92247 -2.21331 0
M  V30 8810 H 843.503 4.96399 -0.812213 0
M  V30 8811 H 843.203 5.30074 -2.53565 0
M  V30 8812 H 844.727 5.84191 -1.77633 0
M  V30 8813 H 846.141 4.47155 -3.58783 0
M  V30 8814 H 844.538 4.16721 -4.31814 0
M  V30 8815 H 845.608 2.8001 -3.95882 0
M  V30 8816 N 846.951 1.19563 1.02676 0
M  V30 8817 C 848.362 1.00158 1.57561 0
M  V30 8818 C 848.713 -0.444922 1.91089 0
M  V30 8819 O 847.838 -1.32466 1.71119 0
M  V30 8820 C 848.433 1.81181 2.86284 0
M  V30 8821 C 846.992 1.66171 3.37734 0
M  V30 8822 C 846.139 1.7975 2.11152 0
M  V30 8823 H 849.09 1.33904 0.85179 0
M  V30 8824 H 849.111 1.30916 3.57269 0
M  V30 8825 H 848.623 2.86454 2.6185 0
M  V30 8826 H 846.724 0.634927 3.6715 0
M  V30 8827 H 846.837 2.46832 4.10622 0
M  V30 8828 H 845.201 1.22833 2.23123 0
M  V30 8829 H 845.984 2.86487 1.89157 0
M  V30 8830 N 848.429 -1.21819 0.999893 0
M  V30 8831 C 849.359 -2.26282 0.576096 0
M  V30 8832 C 850.34 -1.65317 -0.400537 0
M  V30 8833 O 851.525 -1.92028 -0.28964 0
M  V30 8834 C 848.655 -3.47147 -0.103145 0
M  V30 8835 C 847.609 -4.20594 0.792745 0
M  V30 8836 C 846.935 -5.34696 -0.0198026 0
M  V30 8837 C 848.235 -4.78533 2.09293 0
M  V30 8838 H 849.929 -2.61984 1.4493 0
M  V30 8839 H 847.475 -1.25935 0.698316 0
M  V30 8840 H 849.428 -4.1939 -0.411068 0
M  V30 8841 H 848.152 -3.1056 -1.01094 0
M  V30 8842 H 846.811 -3.50194 1.08442 0
M  V30 8843 H 846.459 -4.94352 -0.928729 0
M  V30 8844 H 846.159 -5.84764 0.576661 0
M  V30 8845 H 847.683 -6.09752 -0.321659 0
M  V30 8846 H 849.097 -5.42682 1.8485 0
M  V30 8847 H 847.494 -5.38968 2.63881 0
M  V30 8848 H 848.564 -3.98197 2.76708 0
M  V30 8849 N 849.908 -0.773975 -1.37286 0
M  V30 8850 C 851.133 -0.349561 -2.04433 0
M  V30 8851 C 851.558 1.02082 -1.5799 0
M  V30 8852 O 850.916 1.65458 -0.741172 0
M  V30 8853 C 850.964 -0.404292 -3.58326 0
M  V30 8854 O 850.068 0.594447 -4.08093 0
M  V30 8855 H 849.409 -0.150959 -0.646612 0
M  V30 8856 H 851.939 -1.05079 -1.75555 0
M  V30 8857 H 851.949 -0.262378 -4.07155 0
M  V30 8858 H 850.624 -1.40403 -3.91484 0
M  V30 8859 H 849.201 0.415468 -3.70578 0
M  V30 8860 N 851.386 1.48609 -0.524698 0
M  V30 8861 C 852.626 2.04398 0.00938367 0
M  V30 8862 C 852.99 1.39355 1.32077 0
M  V30 8863 O 854.191 1.86 1.94055 0
M  V30 8864 C 852.462 3.57148 0.134318 0
M  V30 8865 S 854.021 4.34409 0.619227 0
M  V30 8866 H 850.839 0.710936 -0.00953362 0
M  V30 8867 H 853.441 1.82382 -0.704058 0
M  V30 8868 H 852.145 4.02022 -0.825027 0
M  V30 8869 H 851.676 3.83607 0.872296 0
M  V30 8870 H 853.691 4.59017 1.88462 0
M  V30 8871 N 852.864 0.259585 1.55447 0
M  V30 8872 C 853.796 -0.667548 2.19263 0
M  V30 8873 C 854.809 -1.12925 1.17268 0
M  V30 8874 O 855.998 -1.05384 1.44071 0
M  V30 8875 C 853.098 -1.92066 2.7922 0
M  V30 8876 C 852.271 -1.60832 4.06758 0
M  V30 8877 C 851.33 -2.71231 4.50911 0
M  V30 8878 O 850.356 -2.38077 5.17019 0
M  V30 8879 N 851.558 -4.00984 4.19752 0
M  V30 8880 H 854.323 -0.121449 2.99454 0
M  V30 8881 H 851.884 0.0800519 1.61702 0
M  V30 8882 H 853.876 -2.65186 3.0571 0
M  V30 8883 H 852.446 -2.37621 2.03113 0
M  V30 8884 H 851.666 -0.711685 3.87722 0
M  V30 8885 H 852.954 -1.37445 4.89884 0
M  V30 8886 H 852.352 -4.30748 3.66706 0
M  V30 8887 H 850.909 -4.7053 4.51048 0
M  V30 8888 N 854.342 -1.57594 -0.0133615 0
M  V30 8889 C 855.289 -2.07574 -1.00905 0
M  V30 8890 C 856.259 -0.968231 -1.34961 0
M  V30 8891 O 857.444 -1.23981 -1.45028 0
M  V30 8892 C 854.584 -2.5728 -2.30002 0
M  V30 8893 C 853.697 -3.81881 -2.01967 0
M  V30 8894 C 852.832 -4.20139 -3.25049 0
M  V30 8895 C 851.871 -5.37614 -2.92639 0
M  V30 8896 N 851.008 -5.71229 -4.08218 0
M  V30 8897 H 855.848 -2.92382 -0.575899 0
M  V30 8898 H 853.385 -1.4455 -0.272722 0
M  V30 8899 H 855.343 -2.84171 -3.05454 0
M  V30 8900 H 853.973 -1.75365 -2.71011 0
M  V30 8901 H 853.025 -3.61979 -1.16942 0
M  V30 8902 H 854.337 -4.67441 -1.74069 0
M  V30 8903 H 853.491 -4.48242 -4.08857 0
M  V30 8904 H 852.23 -3.33262 -3.56073 0
M  V30 8905 H 851.235 -5.09248 -2.07235 0
M  V30 8906 H 852.46 -6.26157 -2.62876 0
M  V30 8907 H 850.406 -4.8731 -4.39164 0
M  V30 8908 H 850.323 -6.51333 -3.83799 0
M  V30 8909 H 851.591 -6.03917 -4.92854 0
M  V30 8910 N 855.82 0.285905 -1.54985 0
M  V30 8911 C 857.236 0.632405 -1.46536 0
M  V30 8912 C 857.436 1.90074 -0.668888 0
M  V30 8913 O 856.492 2.51839 -0.182586 0
M  V30 8914 C 857.805 0.771361 -2.90638 0
M  V30 8915 C 859.353 0.866262 -3.00774 0
M  V30 8916 C 859.828 1.0371 -4.46103 0
M  V30 8917 N 861.319 1.10294 -4.49877 0
M  V30 8918 C 862.054 1.25369 -5.59527 0
M  V30 8919 N 861.55 1.37246 -6.7907 0
M  V30 8920 N 863.343 1.28377 -5.47244 0
M  V30 8921 H 855.494 -0.547226 -2.0523 0
M  V30 8922 H 857.757 -0.183298 -0.930111 0
M  V30 8923 H 857.463 -0.0899485 -3.51585 0
M  V30 8924 H 857.337 1.65569 -3.3892 0
M  V30 8925 H 859.724 1.71805 -2.39931 0
M  V30 8926 H 859.805 -0.0424049 -2.55765 0
M  V30 8927 H 859.449 0.190021 -5.07544 0
M  V30 8928 H 859.379 1.96022 -4.88757 0
M  V30 8929 H 861.87 1.02407 -3.6376 0
M  V30 8930 H 862.183 1.48546 -7.58389 0
M  V30 8931 H 860.528 1.34274 -6.81906 0
M  V30 8932 H 863.719 1.1872 -4.52795 0
M  V30 8933 H 863.892 1.39782 -6.32744 0
M  V30 8934 N 857.298 1.47698 0.54982 0
M  V30 8935 C 858.228 1.63622 1.66583 0
M  V30 8936 C 859.209 0.485477 1.63025 0
M  V30 8937 O 860.394 0.715692 1.80531 0
M  V30 8938 C 857.524 1.65721 3.05211 0
M  V30 8939 C 856.478 2.80097 3.2362 0
M  V30 8940 C 855.804 2.67272 4.63109 0
M  V30 8941 C 857.104 4.21612 3.08286 0
M  V30 8942 H 858.798 2.57049 1.53512 0
M  V30 8943 H 856.344 1.23705 0.737099 0
M  V30 8944 H 858.297 1.75451 3.83138 0
M  V30 8945 H 857.021 0.688593 3.19258 0
M  V30 8946 H 855.68 2.69889 2.48104 0
M  V30 8947 H 855.328 1.68422 4.73965 0
M  V30 8948 H 855.028 3.44008 4.76374 0
M  V30 8949 H 856.552 2.78942 5.43161 0
M  V30 8950 H 857.966 4.32758 3.76024 0
M  V30 8951 H 856.363 4.99193 3.33057 0
M  V30 8952 H 857.433 4.39462 2.04942 0
M  V30 8953 N 858.776 -0.797141 1.35954 0
M  V30 8954 C 859.726 -1.89899 1.26184 0
M  V30 8955 C 860.71 -1.60152 0.155007 0
M  V30 8956 O 861.902 -1.72715 0.387108 0
M  V30 8957 C 859.031 -3.2699 1.04559 0
M  V30 8958 C 858.117 -3.62772 2.19675 0
M  V30 8959 N 858.508 -3.6992 3.44953 0
M  V30 8960 C 856.806 -3.92786 2.1127 0
M  V30 8961 C 857.507 -4.01718 4.20711 0
M  V30 8962 N 856.483 -4.16298 3.49567 0
M  V30 8963 H 860.285 -1.9364 2.2109 0
M  V30 8964 H 857.799 -0.992246 1.28562 0
M  V30 8965 H 859.796 -4.0578 0.956474 0
M  V30 8966 H 858.456 -3.24529 0.105467 0
M  V30 8967 H 859.467 -3.52759 3.79185 0
M  V30 8968 H 856.144 -3.98295 1.25168 0
M  V30 8969 H 857.534 -4.14237 5.29016 0
M  V30 8970 N 860.254 -1.20106 -1.0204 0
M  V30 8971 C 861.494 -1.02013 -1.77123 0
M  V30 8972 C 861.858 0.440439 -1.8688 0
M  V30 8973 O 863.059 0.74144 -2.58372 0
M  V30 8974 C 861.33 -1.68058 -3.15423 0
M  V30 8975 S 862.889 -1.65016 -4.0659 0
M  V30 8976 H 859.707 -0.365882 -0.609632 0
M  V30 8977 H 862.309 -1.52597 -1.22206 0
M  V30 8978 H 861.013 -2.73544 -3.05944 0
M  V30 8979 H 860.544 -1.17589 -3.75415 0
M  V30 8980 H 862.559 -0.680341 -4.91514 0
M  V30 8981 N 861.732 1.21287 -1.00634 0
M  V30 8982 C 863.148 1.42467 -0.719389 0
M  V30 8983 C 863.348 1.88767 0.704927 0
M  V30 8984 O 862.404 2.05004 1.47409 0
M  V30 8985 C 863.717 2.455 -1.73639 0
M  V30 8986 C 865.265 2.59281 -1.75335 0
M  V30 8987 C 865.74 3.65547 -2.75934 0
M  V30 8988 N 867.231 3.73019 -2.74611 0
M  V30 8989 C 867.966 4.54873 -3.4911 0
M  V30 8990 N 867.462 5.40614 -4.33253 0
M  V30 8991 N 869.255 4.49309 -3.37754 0
M  V30 8992 H 861.406 0.895454 -1.92602 0
M  V30 8993 H 863.669 0.455491 -0.831404 0
M  V30 8994 H 863.375 2.18455 -2.75627 0
M  V30 8995 H 863.249 3.44325 -1.54014 0
M  V30 8996 H 865.636 2.85661 -0.740377 0
M  V30 8997 H 865.717 1.60685 -1.99032 0
M  V30 8998 H 865.361 3.39911 -3.77389 0
M  V30 8999 H 865.291 4.63741 -2.49503 0
M  V30 9000 H 867.782 3.11766 -2.13565 0
M  V30 9001 H 868.095 6.0013 -4.86892 0
M  V30 9002 H 866.44 5.40151 -4.37335 0
M  V30 9003 H 869.631 3.81357 -2.71449 0
M  V30 9004 H 869.804 5.12867 -3.9607 0
M  V30 9005 N 863.21 0.781244 1.36873 0
M  V30 9006 C 864.435 0.360398 2.04245 0
M  V30 9007 C 864.86 -1.01242 1.58529 0
M  V30 9008 O 864.218 -1.65063 0.749936 0
M  V30 9009 C 864.266 0.42329 3.58107 0
M  V30 9010 O 863.37 -0.572796 4.08403 0
M  V30 9011 H 862.711 0.154386 0.645803 0
M  V30 9012 H 865.241 1.06008 1.74996 0
M  V30 9013 H 865.251 0.283967 4.07011 0
M  V30 9014 H 863.926 1.42477 3.90734 0
M  V30 9015 H 862.503 -0.395809 3.70793 0
M  V30 9016 N 864.689 -1.48329 0.532571 0
M  V30 9017 C 865.919 -2.066 0.00353785 0
M  V30 9018 C 866.327 -1.38913 -1.28451 0
M  V30 9019 O 865.67 -0.471385 -1.77549 0
M  V30 9020 C 865.732 -3.58342 -0.288324 0
M  V30 9021 C 865.396 -4.47917 0.906631 0
M  V30 9022 C 866.393 -4.87534 1.80572 0
M  V30 9023 C 864.078 -4.89783 1.11436 0
M  V30 9024 C 866.072 -5.6779 2.89642 0
M  V30 9025 C 863.759 -5.69809 2.20819 0
M  V30 9026 C 864.757 -6.08721 3.09755 0
M  V30 9027 O 864.445 -6.8714 4.17246 0
M  V30 9028 H 864.177 -0.675263 0.0315661 0
M  V30 9029 H 866.731 -1.91669 0.738375 0
M  V30 9030 H 864.961 -3.71395 -1.07717 0
M  V30 9031 H 866.65 -3.98726 -0.759752 0
M  V30 9032 H 867.416 -4.5581 1.65719 0
M  V30 9033 H 863.295 -4.58977 0.431382 0
M  V30 9034 H 866.839 -5.98082 3.59087 0
M  V30 9035 H 862.736 -6.00947 2.35655 0
M  V30 9036 H 863.504 -7.05498 4.14988 0
M  V30 9037 N 866.167 -0.267825 -1.55308 0
M  V30 9038 C 867.415 0.350343 -1.9904 0
M  V30 9039 C 867.736 1.56924 -1.15758 0
M  V30 9040 O 867.006 1.94358 -0.245336 0
M  V30 9041 H 865.586 0.132435 -0.735167 0
M  V30 9042 H 868.248 -0.371471 -1.91327 0
M  V30 9043 H 867.344 0.645203 -3.05358 0
M  V30 9044 N 867.645 1.57599 0.00500368 0
M  V30 9045 C 868.577 2.04949 1.02609 0
M  V30 9046 C 869.59 0.966507 1.31006 0
M  V30 9047 O 870.779 1.2434 1.2807 0
M  V30 9048 C 867.879 2.43023 2.36206 0
M  V30 9049 C 867.052 3.73993 2.26821 0
M  V30 9050 C 866.111 3.9899 3.43065 0
M  V30 9051 O 865.137 4.69725 3.21477 0
M  V30 9052 N 866.339 3.46496 4.65748 0
M  V30 9053 H 869.104 2.93167 0.622336 0
M  V30 9054 H 866.665 1.60752 0.192488 0
M  V30 9055 H 868.657 2.56863 3.12735 0
M  V30 9056 H 867.227 1.60349 2.68341 0
M  V30 9057 H 866.447 3.70277 1.35235 0
M  V30 9058 H 867.735 4.59865 2.17719 0
M  V30 9059 H 867.133 2.89206 4.86186 0
M  V30 9060 H 865.69 3.65675 5.3956 0
M  V30 9061 N 869.123 -0.277682 1.55134 0
M  V30 9062 C 870.4 -1.0309 1.66228 0
M  V30 9063 C 870.78 -2.0445 0.525701 0
M  V30 9064 O 870.128 -2.23512 -0.474816 0
M  V30 9065 C 870.338 -1.6919 3.05247 0
M  V30 9066 C 871.686 -2.20526 3.62841 0
M  V30 9067 O 872.71 -1.79185 3.07849 0
M  V30 9068 O 871.569 -2.96342 4.59177 0
M  V30 9069 H 868.663 -0.4779 0.674937 0
M  V30 9070 H 871.209 -0.273912 1.67475 0
M  V30 9071 H 869.981 -0.957163 3.79413 0
M  V30 9072 H 869.604 -2.51587 3.07879 0
M  V30 9073 N 870.601 -1.47988 -0.541979 0
M  V30 9074 C 871.551 -1.58019 -1.64359 0
M  V30 9075 C 872.535 -0.438056 -1.54822 0
M  V30 9076 O 873.727 -0.688837 -1.63046 0
M  V30 9077 C 870.856 -1.61182 -3.03109 0
M  V30 9078 C 869.942 -2.80834 -3.17794 0
M  V30 9079 N 870.333 -4.05379 -3.02492 0
M  V30 9080 C 868.631 -2.77914 -3.48826 0
M  V30 9081 C 869.332 -4.85592 -3.20274 0
M  V30 9082 N 868.308 -4.18188 -3.47304 0
M  V30 9083 H 872.11 -2.52071 -1.5112 0
M  V30 9084 H 869.624 -1.44193 -0.747137 0
M  V30 9085 H 871.621 -1.66461 -3.82226 0
M  V30 9086 H 870.281 -0.682375 -3.17449 0
M  V30 9087 H 871.292 -4.36003 -2.79503 0
M  V30 9088 H 867.969 -1.94174 -3.69598 0
M  V30 9089 H 869.359 -5.94394 -3.13282 0
M  V30 9090 N 872.079 0.78992 -1.36375 0
M  V30 9091 C 873.009 1.91683 -1.33341 0
M  V30 9092 C 873.99 1.68861 -0.204965 0
M  V30 9093 O 875.175 1.89982 -0.402531 0
M  V30 9094 C 872.305 3.28696 -1.12143 0
M  V30 9095 C 871.259 3.66041 -2.21806 0
M  V30 9096 C 870.585 5.01399 -1.85751 0
M  V30 9097 C 871.885 3.74677 -3.63888 0
M  V30 9098 H 873.579 1.94478 -2.27637 0
M  V30 9099 H 871.125 0.934271 -1.09578 0
M  V30 9100 H 873.078 4.07151 -1.08656 0
M  V30 9101 H 871.802 3.26287 -0.142974 0
M  V30 9102 H 870.461 2.89883 -2.24418 0
M  V30 9103 H 870.109 4.9551 -0.864817 0
M  V30 9104 H 869.809 5.27355 -2.59173 0
M  V30 9105 H 871.333 5.82274 -1.83819 0
M  V30 9106 H 872.747 4.43324 -3.63506 0
M  V30 9107 H 871.144 4.12118 -4.3621 0
M  V30 9108 H 872.214 2.75795 -3.9883 0
M  V30 9109 N 873.557 1.20646 1.01402 0
M  V30 9110 C 874.834 0.927176 1.72229 0
M  V30 9111 C 875.214 -0.563382 2.03443 0
M  V30 9112 O 874.562 -1.52576 1.70096 0
M  V30 9113 C 874.772 1.80285 2.98828 0
M  V30 9114 C 876.12 2.04624 3.72041 0
M  V30 9115 O 877.144 1.77559 3.0879 0
M  V30 9116 O 876.003 2.50347 4.85787 0
M  V30 9117 H 873.097 0.346891 0.75073 0
M  V30 9118 H 875.643 1.31532 1.07227 0
M  V30 9119 H 874.415 2.81204 2.72102 0
M  V30 9120 H 874.038 1.41495 3.71571 0
M  V30 9121 N 875.035 -1.20752 1.01276 0
M  V30 9122 C 876.263 -1.94006 0.718976 0
M  V30 9123 C 876.678 -1.74544 -0.719711 0
M  V30 9124 O 876.035 -1.05697 -1.48776 0
M  V30 9125 C 876.086 -3.46208 1.04031 0
M  V30 9126 O 875.807 -3.65031 2.42248 0
M  V30 9127 C 877.308 -4.36614 0.767032 0
M  V30 9128 H 874.528 -0.616743 0.264327 0
M  V30 9129 H 877.072 -1.53352 1.3529 0
M  V30 9130 H 875.227 -3.84756 0.451852 0
M  V30 9131 H 875.641 -4.59054 2.53712 0
M  V30 9132 H 877.115 -5.42076 1.04198 0
M  V30 9133 H 877.592 -4.38182 -0.298851 0
M  V30 9134 H 878.198 -4.03723 1.33746 0
M  V30 9135 N 876.513 -0.788492 -1.36457 0
M  V30 9136 C 877.761 -0.359749 -1.98872 0
M  V30 9137 C 878.082 1.07197 -1.62892 0
M  V30 9138 O 877.352 1.73875 -0.902463 0
M  V30 9139 H 875.932 -0.130029 -0.735596 0
M  V30 9140 H 878.594 -1.01033 -1.66668 0
M  V30 9141 H 877.69 -0.450835 -3.08827 0
M  V30 9142 N 877.991 1.48044 -0.54043 0
M  V30 9143 C 878.921 2.32597 0.205178 0
M  V30 9144 C 879.902 1.42748 0.925041 0
M  V30 9145 O 881.087 1.71624 0.908784 0
M  V30 9146 C 878.217 3.24175 1.24612 0
M  V30 9147 C 877.171 4.23131 0.64376 0
M  V30 9148 C 876.497 5.03915 1.78812 0
M  V30 9149 C 877.797 5.20831 -0.39144 0
M  V30 9150 H 879.491 2.95184 -0.500676 0
M  V30 9151 H 877.037 1.41948 -0.242225 0
M  V30 9152 H 878.99 3.82158 1.77576 0
M  V30 9153 H 877.714 2.59608 1.98169 0
M  V30 9154 H 876.373 3.66349 0.135554 0
M  V30 9155 H 876.021 4.35765 2.51232 0
M  V30 9156 H 875.721 5.709 1.39094 0
M  V30 9157 H 877.245 5.64753 2.32134 0
M  V30 9158 H 878.659 5.73277 0.0515064 0
M  V30 9159 H 877.056 5.95926 -0.706569 0
M  V30 9160 H 878.126 4.6733 -1.29345 0
M  V30 9161 N 879.47 0.276058 1.55163 0
M  V30 9162 C 880.717 -0.340455 1.99618 0
M  V30 9163 C 881.045 -1.5579 1.16446 0
M  V30 9164 O 880.3 -1.94433 0.222359 0
M  V30 9165 C 880.599 -0.765744 3.491 0
M  V30 9166 C 880.265 0.347174 4.49561 0
M  V30 9167 C 878.927 0.65276 4.76752 0
M  V30 9168 C 881.279 1.09705 5.09523 0
M  V30 9169 C 878.607 1.71179 5.61173 0
M  V30 9170 C 880.959 2.14581 5.95095 0
M  V30 9171 C 879.623 2.45773 6.20606 0
M  V30 9172 H 878.893 -0.124581 0.730452 0
M  V30 9173 H 881.54 0.389966 1.87487 0
M  V30 9174 H 879.845 -1.57585 3.58712 0
M  V30 9175 H 881.542 -1.25352 3.80904 0
M  V30 9176 H 878.132 0.0988779 4.28486 0
M  V30 9177 H 882.316 0.874223 4.8854 0
M  V30 9178 H 877.572 1.95846 5.79184 0
M  V30 9179 H 881.746 2.7316 6.40591 0
M  V30 9180 H 879.373 3.27969 6.85813 0
M  V30 9181 N 880.948 -1.576 0.00335426 0
M  V30 9182 C 882.359 -1.7875 -0.539008 0
M  V30 9183 C 882.71 -0.911097 -1.73763 0
M  V30 9184 O 881.835 -0.114476 -2.16097 0
M  V30 9185 C 882.43 -3.24177 -0.984611 0
M  V30 9186 C 880.989 -3.46412 -1.47226 0
M  V30 9187 C 880.136 -2.74024 -0.425004 0
M  V30 9188 H 883.087 -1.57032 0.229511 0
M  V30 9189 H 883.108 -3.32474 -1.85044 0
M  V30 9190 H 882.62 -3.87938 -0.112035 0
M  V30 9191 H 880.721 -2.8787 -2.36562 0
M  V30 9192 H 880.834 -4.55098 -1.49741 0
M  V30 9193 H 879.198 -2.38741 -0.887394 0
M  V30 9194 H 879.981 -3.40486 0.438662 0
M  V30 9195 N 882.426 0.269451 -1.5528 0
M  V30 9196 C 883.336 1.35511 -1.91505 0
M  V30 9197 C 884.352 1.53854 -0.812712 0
M  V30 9198 O 885.528 1.67912 -1.1121 0
M  V30 9199 C 882.593 2.6937 -2.18267 0
M  V30 9200 C 881.654 2.59743 -3.41807 0
M  V30 9201 C 880.887 3.87219 -3.67283 0
M  V30 9202 O 881.11 4.88066 -2.95208 0
M  V30 9203 O 880.044 3.87209 -4.60818 0
M  V30 9204 H 883.87 1.07785 -2.8393 0
M  V30 9205 H 881.455 0.468282 -1.41871 0
M  V30 9206 H 883.337 3.48513 -2.36889 0
M  V30 9207 H 882.012 2.96874 -1.29024 0
M  V30 9208 H 880.919 1.78964 -3.28516 0
M  V30 9209 H 882.252 2.37188 -4.3128 0
M  V30 9210 N 883.904 1.48273 0.534124 0
M  V30 9211 C 884.851 1.62487 1.6391 0
M  V30 9212 C 885.821 0.467062 1.59398 0
M  V30 9213 O 887.006 0.690029 1.77885 0
M  V30 9214 C 884.146 1.66671 3.02183 0
M  V30 9215 C 883.259 2.9353 3.16961 0
M  V30 9216 C 882.394 2.88902 4.45768 0
M  V30 9217 C 881.433 4.10483 4.54059 0
M  V30 9218 N 880.57 4.03956 5.74251 0
M  V30 9219 H 885.41 2.56851 1.51101 0
M  V30 9220 H 882.947 1.27381 0.735704 0
M  V30 9221 H 884.905 1.67079 3.82283 0
M  V30 9222 H 883.535 0.758011 3.13774 0
M  V30 9223 H 882.587 3.02886 2.3014 0
M  V30 9224 H 883.899 3.83501 3.18949 0
M  V30 9225 H 883.053 2.87688 5.34154 0
M  V30 9226 H 881.792 1.96652 4.46295 0
M  V30 9227 H 880.797 4.11977 3.64081 0
M  V30 9228 H 882.022 5.03887 4.55274 0
M  V30 9229 H 879.968 3.14525 5.75682 0
M  V30 9230 H 879.885 4.87628 5.77715 0
M  V30 9231 H 881.153 4.06795 6.64935 0
M  V30 9232 N 885.382 -0.782676 1.36792 0
M  V30 9233 C 886.793 -1.35828 1.28092 0
M  V30 9234 C 887.144 -1.96052 -0.076315 0
M  V30 9235 O 886.269 -1.93042 -0.977935 0
M  V30 9236 C 886.864 -2.46949 2.31952 0
M  V30 9237 C 885.423 -3.00307 2.2692 0
M  V30 9238 C 884.57 -1.73436 2.16368 0
M  V30 9239 H 887.521 -0.583788 1.47572 0
M  V30 9240 H 887.542 -3.26144 1.95986 0
M  V30 9241 H 887.054 -2.03087 3.30722 0
M  V30 9242 H 885.155 -3.48571 1.31639 0
M  V30 9243 H 885.268 -3.56663 3.19887 0
M  V30 9244 H 883.632 -1.95934 1.62733 0
M  V30 9245 H 884.415 -1.31693 3.17036 0
M  V30 9246 N 886.86 -1.21182 -1.00761 0
M  V30 9247 C 888.276 -0.968607 -1.26847 0
M  V30 9248 C 888.476 0.346561 -1.98497 0
M  V30 9249 O 887.532 1.07287 -2.28573 0
M  V30 9250 C 888.845 -2.1574 -2.09467 0
M  V30 9251 C 890.393 -2.19937 -2.22703 0
M  V30 9252 C 890.868 -3.38328 -3.08704 0
M  V30 9253 N 892.359 -3.38398 -3.16293 0
M  V30 9254 C 893.094 -4.26653 -3.83086 0
M  V30 9255 N 892.59 -5.25101 -4.5193 0
M  V30 9256 N 894.383 -4.14469 -3.797 0
M  V30 9257 H 886.534 -2.05763 -0.526816 0
M  V30 9258 H 888.797 -0.90087 -0.29519 0
M  V30 9259 H 888.503 -3.11034 -1.64167 0
M  V30 9260 H 888.377 -2.14584 -3.10216 0
M  V30 9261 H 890.764 -1.25201 -2.67224 0
M  V30 9262 H 890.845 -2.25139 -1.21433 0
M  V30 9263 H 890.489 -4.33356 -2.64886 0
M  V30 9264 H 890.419 -3.30364 -4.10082 0
M  V30 9265 H 892.91 -2.67149 -2.67282 0
M  V30 9266 H 893.223 -5.8875 -5.00592 0
M  V30 9267 H 891.568 -5.29029 -4.50726 0
M  V30 9268 H 894.759 -3.3682 -3.25069 0
M  V30 9269 H 894.932 -4.83458 -4.31477 0
M  V30 9270 N 888.338 1.20213 -1.01915 0
M  V30 9271 C 889.286 2.25125 -0.584936 0
M  V30 9272 C 890.28 1.65138 0.377602 0
M  V30 9273 O 891.486 1.78294 0.247245 0
M  V30 9274 H 887.861 0.732333 -0.170858 0
M  V30 9275 H 889.832 2.59075 -1.48063 0
M  V30 9276 C 888.581 3.47651 0.058389 0
M  V30 9277 H 887.904 3.9409 -0.673263 0
M  V30 9278 H 889.344 4.2275 0.325285 0
M  V30 9279 C 887.803 3.10725 1.30199 0
M  V30 9280 O 888.333 3.22491 2.39505 0
M  V30 9281 N 886.539 2.6525 1.18706 0
M  V30 9282 H 886.086 2.55875 0.297618 0
M  V30 9283 H 886.044 2.40913 2.02011 0
M  V30 9284 N 889.816 0.795718 1.36037 0
M  V30 9285 C 891.064 0.370291 1.98679 0
M  V30 9286 C 891.385 -1.06332 1.63458 0
M  V30 9287 O 890.655 -1.73394 0.911671 0
M  V30 9288 H 889.235 0.133928 0.734896 0
M  V30 9289 H 891.897 1.01915 1.6613 0
M  V30 9290 H 890.993 0.467207 3.08583 0
M  V30 9291 N 891.294 -1.47756 0.548274 0
M  V30 9292 C 892.54 -2.02789 0.0209265 0
M  V30 9293 C 892.873 -1.42268 -1.32187 0
M  V30 9294 O 892.148 -0.575001 -1.85806 0
M  V30 9295 C 892.431 -3.60007 -0.0816674 0
M  V30 9296 C 892.284 -4.30977 1.28759 0
M  V30 9297 C 893.603 -4.32777 -0.799515 0
M  V30 9298 H 890.722 -0.736944 0.00907884 0
M  V30 9299 H 893.364 -1.76282 0.708839 0
M  V30 9300 H 891.514 -3.82722 -0.667537 0
M  V30 9301 H 893.186 -4.19629 1.91597 0
M  V30 9302 H 891.429 -3.9168 1.86466 0
M  V30 9303 H 892.1 -5.39488 1.16861 0
M  V30 9304 H 894.576 -4.15001 -0.30216 0
M  V30 9305 H 893.452 -5.42431 -0.840239 0
M  V30 9306 H 893.713 -4.01358 -1.85375 0
M  V30 9307 N 892.772 -0.284283 -1.55015 0
M  V30 9308 C 893.702 0.592663 -2.25853 0
M  V30 9309 C 894.683 1.15151 -1.25197 0
M  V30 9310 O 895.868 1.18395 -1.53936 0
M  V30 9311 C 892.998 1.77254 -2.98661 0
M  V30 9312 C 891.952 1.34482 -4.06323 0
M  V30 9313 C 891.278 2.60853 -4.66754 0
M  V30 9314 C 892.578 0.488288 -5.20013 0
M  V30 9315 H 894.272 0.00187041 -2.994 0
M  V30 9316 H 891.818 -0.000540402 -1.44 0
M  V30 9317 H 893.771 2.39199 -3.46932 0
M  V30 9318 H 892.495 2.38931 -2.22664 0
M  V30 9319 H 891.154 0.748519 -3.58877 0
M  V30 9320 H 890.802 3.20808 -3.87416 0
M  V30 9321 H 890.502 2.32942 -5.39455 0
M  V30 9322 H 892.026 3.23631 -5.1778 0
M  V30 9323 H 893.44 1.01298 -5.6428 0
M  V30 9324 H 891.837 0.303669 -5.99331 0
M  V30 9325 H 892.907 -0.490727 -4.8241 0
M  V30 9326 N 894.251 1.57596 -0.0117121 0
M  V30 9327 C 895.499 1.90694 0.669342 0
M  V30 9328 C 895.82 0.886999 1.73659 0
M  V30 9329 O 895.09 -0.0739779 1.9576 0
M  V30 9330 H 893.67 0.703846 0.250219 0
M  V30 9331 H 896.332 1.94821 -0.0554057 0
M  V30 9332 H 895.428 2.90802 1.13316 0
M  V30 9333 N 895.729 -0.261212 1.5542 0
M  V30 9334 C 897.006 -1.01321 1.67312 0
M  V30 9335 C 897.386 -2.0388 0.547356 0
M  V30 9336 O 896.734 -2.24003 -0.451083 0
M  V30 9337 C 896.944 -1.65943 3.07024 0
M  V30 9338 C 898.292 -2.16666 3.65159 0
M  V30 9339 O 899.316 -1.75909 3.09733 0
M  V30 9340 O 898.175 -2.91455 4.62294 0
M  V30 9341 H 895.269 -0.470714 0.679968 0
M  V30 9342 H 897.815 -0.256133 1.67756 0
M  V30 9343 H 896.587 -0.916868 3.80407 0
M  V30 9344 H 896.21 -2.48308 3.1053 0
M  V30 9345 N 897.207 -1.48554 -0.526253 0
M  V30 9346 C 898.432 -1.60686 -1.31129 0
M  V30 9347 C 898.857 -0.268701 -1.86171 0
M  V30 9348 O 898.215 0.760167 -1.64594 0
M  V30 9349 C 898.263 -2.65938 -2.43536 0
M  V30 9350 O 897.367 -2.23356 -3.46678 0
M  V30 9351 H 896.708 -0.538691 -0.388211 0
M  V30 9352 H 899.238 -1.94567 -0.632826 0
M  V30 9353 H 899.248 -2.87327 -2.89668 0
M  V30 9354 H 897.923 -3.63085 -2.02835 0
M  V30 9355 H 896.5 -2.12196 -3.06639 0
M  V30 9356 N 898.685 0.775411 -1.37205 0
M  V30 9357 C 900.101 1.07546 -1.17924 0
M  V30 9358 C 900.301 2.01496 -0.0128897 0
M  V30 9359 O 899.357 2.44039 0.64816 0
M  V30 9360 C 900.67 1.67647 -2.49629 0
M  V30 9361 C 902.218 1.79923 -2.56119 0
M  V30 9362 C 902.693 2.43438 -3.87946 0
M  V30 9363 N 904.184 2.50893 -3.89368 0
M  V30 9364 C 904.919 3.00881 -4.88117 0
M  V30 9365 N 904.415 3.5107 -5.97262 0
M  V30 9366 N 906.208 2.99722 -4.75524 0
M  V30 9367 H 898.359 0.151524 -2.11859 0
M  V30 9368 H 900.622 0.129845 -0.939066 0
M  V30 9369 H 900.328 1.06082 -3.3532 0
M  V30 9370 H 900.202 2.66988 -2.66453 0
M  V30 9371 H 902.589 2.40621 -1.70838 0
M  V30 9372 H 902.67 0.793482 -2.43182 0
M  V30 9373 H 902.314 1.8338 -4.73639 0
M  V30 9374 H 902.244 3.44611 -3.98184 0
M  V30 9375 H 904.735 2.1537 -3.10522 0
M  V30 9376 H 905.048 3.87604 -6.68568 0
M  V30 9377 H 903.393 3.49184 -6.00912 0
M  V30 9378 H 906.584 2.5981 -3.8938 0
M  V30 9379 H 906.757 3.38369 -5.52639 0
M  V30 9380 N 900.163 1.21714 1.00117 0
M  V30 9381 C 901.44 0.945391 1.71236 0
M  V30 9382 C 901.82 -0.541772 2.0403 0
M  V30 9383 O 901.168 -1.50763 1.71705 0
M  V30 9384 C 901.378 1.83444 2.96899 0
M  V30 9385 C 902.726 2.08558 3.69849 0
M  V30 9386 O 903.75 1.80824 3.06889 0
M  V30 9387 O 902.609 2.55485 4.83104 0
M  V30 9388 H 899.703 0.354834 0.747009 0
M  V30 9389 H 902.249 1.32661 1.05825 0
M  V30 9390 H 901.021 2.84075 2.69105 0
M  V30 9391 H 900.644 1.45428 3.70049 0
M  V30 9392 N 901.641 -1.19671 1.02551 0
M  V30 9393 C 902.588 -2.22773 0.603394 0
M  V30 9394 C 903.558 -1.61669 -0.381081 0
M  V30 9395 O 904.743 -1.88756 -0.278505 0
M  V30 9396 C 901.883 -3.45073 -0.0431034 0
M  V30 9397 C 900.996 -4.20574 0.987006 0
M  V30 9398 C 900.131 -5.30291 0.310626 0
M  V30 9399 C 899.17 -5.97545 1.32688 0
M  V30 9400 N 898.307 -6.98833 0.676542 0
M  V30 9401 H 903.147 -2.58238 1.48719 0
M  V30 9402 H 900.684 -1.26881 0.744286 0
M  V30 9403 H 902.642 -4.14925 -0.435141 0
M  V30 9404 H 901.272 -3.10274 -0.890495 0
M  V30 9405 H 900.324 -3.497 1.49713 0
M  V30 9406 H 901.636 -4.66736 1.75952 0
M  V30 9407 H 900.79 -6.06547 -0.136438 0
M  V30 9408 H 899.529 -4.8519 -0.49412 0
M  V30 9409 H 898.534 -5.20043 1.78424 0
M  V30 9410 H 899.759 -6.4473 2.13306 0
M  V30 9411 H 897.705 -6.55911 -0.108172 0
M  V30 9412 H 897.622 -7.43168 1.38699 0
M  V30 9413 H 898.89 -7.79088 0.253367 0
M  V30 9414 N 903.119 -0.802921 -1.35613 0
M  V30 9415 C 904.029 -0.212177 -2.33639 0
M  V30 9416 C 905.045 0.642871 -1.61689 0
M  V30 9417 O 906.221 0.555485 -1.93588 0
M  V30 9418 C 903.286 0.632406 -3.40883 0
M  V30 9419 C 902.347 -0.242708 -4.28613 0
M  V30 9420 C 901.58 0.56166 -5.30736 0
M  V30 9421 O 901.803 1.79664 -5.41366 0
M  V30 9422 O 900.737 -0.0455387 -6.01883 0
M  V30 9423 H 904.563 -1.023 -2.85952 0
M  V30 9424 H 902.148 -0.564636 -1.38319 0
M  V30 9425 H 904.03 1.11358 -4.0642 0
M  V30 9426 H 902.705 1.42089 -2.90848 0
M  V30 9427 H 901.612 -0.77094 -3.6607 0
M  V30 9428 H 902.945 -0.995046 -4.82037 0
M  V30 9429 N 904.597 1.47463 -0.556102 0
M  V30 9430 C 905.56 2.28478 0.181743 0
M  V30 9431 C 906.56 1.36886 0.843738 0
M  V30 9432 O 907.75 1.59527 0.69977 0
M  V30 9433 C 904.882 3.16534 1.26566 0
M  V30 9434 H 906.075 2.95182 -0.529892 0
M  V30 9435 H 903.628 1.53134 -0.313005 0
M  V30 9436 H 904.363 2.5452 2.00973 0
M  V30 9437 H 904.148 3.83939 0.795798 0
M  V30 9438 H 905.638 3.77579 1.78393 0
M  V30 9439 N 906.075 0.2925 1.54862 0
M  V30 9440 C 907.008 -0.629155 2.19356 0
M  V30 9441 C 907.986 -1.13927 1.16014 0
M  V30 9442 O 909.17 -1.20904 1.44618 0
M  V30 9443 C 906.297 -1.8599 2.83064 0
M  V30 9444 C 905.343 -1.48376 3.99859 0
M  V30 9445 S 906.176 -0.546976 5.32699 0
M  V30 9446 C 907.332 -1.7857 5.99886 0
M  V30 9447 H 907.565 -0.0812166 2.97189 0
M  V30 9448 H 905.098 0.0766721 1.5421 0
M  V30 9449 H 907.056 -2.56623 3.20398 0
M  V30 9450 H 905.717 -2.37899 2.05092 0
M  V30 9451 H 904.91 -2.40002 4.43187 0
M  V30 9452 H 904.512 -0.857447 3.64038 0
M  V30 9453 H 906.804 -2.7274 6.20177 0
M  V30 9454 H 907.747 -1.39513 6.9422 0
M  V30 9455 H 908.155 -1.95856 5.29434 0
M  V30 9456 N 907.553 -1.57587 0.0200696 0
M  V30 9457 C 908.516 -2.08595 -0.949767 0
M  V30 9458 C 909.516 -0.999215 -1.25985 0
M  V30 9459 O 910.706 -1.26115 -1.2017 0
M  V30 9460 C 907.838 -2.54424 -2.26895 0
M  V30 9461 H 909.031 -2.95563 -0.508161 0
M  V30 9462 H 906.584 -1.54631 -0.227798 0
M  V30 9463 H 907.319 -1.70758 -2.75703 0
M  V30 9464 H 907.104 -3.3381 -2.05702 0
M  V30 9465 H 908.594 -2.94144 -2.96427 0
M  V30 9466 N 909.032 0.252966 -1.55557 0
M  V30 9467 C 909.962 1.31691 -1.9282 0
M  V30 9468 C 910.943 1.50516 -0.7924 0
M  V30 9469 O 912.128 1.63225 -1.05219 0
M  V30 9470 C 909.258 2.67281 -2.21762 0
M  V30 9471 C 908.212 2.6316 -3.37536 0
M  V30 9472 C 907.538 4.02488 -3.52005 0
M  V30 9473 C 908.838 2.20675 -4.73392 0
M  V30 9474 H 910.532 1.00751 -2.81939 0
M  V30 9475 H 908.078 0.483219 -1.3565 0
M  V30 9476 H 910.031 3.41842 -2.46419 0
M  V30 9477 H 908.755 2.99845 -1.29463 0
M  V30 9478 H 907.414 1.91057 -3.12878 0
M  V30 9479 H 907.062 4.32307 -2.57137 0
M  V30 9480 H 906.762 4.00621 -4.29857 0
M  V30 9481 H 908.286 4.78758 -3.78977 0
M  V30 9482 H 909.7 2.84965 -4.97461 0
M  V30 9483 H 908.097 2.29931 -5.54303 0
M  V30 9484 H 909.167 1.15831 -4.70862 0
M  V30 9485 N 910.51 1.48831 0.518367 0
M  V30 9486 C 911.787 1.47933 1.27966 0
M  V30 9487 C 912.167 0.197393 2.10175 0
M  V30 9488 O 911.515 -0.820656 2.13255 0
M  V30 9489 C 911.725 2.74816 2.15121 0
M  V30 9490 C 913.073 3.23613 2.74881 0
M  V30 9491 O 914.097 2.75814 2.254 0
M  V30 9492 O 912.956 4.06818 3.64913 0
M  V30 9493 H 910.05 0.591316 0.578164 0
M  V30 9494 H 912.596 1.61077 0.534065 0
M  V30 9495 H 911.368 3.59621 1.54234 0
M  V30 9496 H 910.991 2.64449 2.96905 0
M  V30 9497 N 911.988 -0.768124 1.37614 0
M  V30 9498 C 913.236 -1.52379 1.3276 0
M  V30 9499 C 913.557 -1.94809 -0.0863564 0
M  V30 9500 O 912.827 -1.66568 -1.03112 0
M  V30 9501 H 911.407 -0.565179 0.488448 0
M  V30 9502 H 914.069 -0.913974 1.72141 0
M  V30 9503 H 913.165 -2.4215 1.96901 0
M  V30 9504 N 913.466 -1.22244 -0.994698 0
M  V30 9505 C 914.694 -1.07218 -1.76952 0
M  V30 9506 C 915.109 0.377388 -1.8499 0
M  V30 9507 O 914.466 1.26157 -1.31874 0
M  V30 9508 C 914.517 -1.67496 -3.20355 0
M  V30 9509 O 914.238 -3.06782 -3.12756 0
M  V30 9510 C 915.739 -1.57721 -4.14294 0
M  V30 9511 H 912.959 -0.375966 -0.555779 0
M  V30 9512 H 915.503 -1.61799 -1.25065 0
M  V30 9513 H 913.658 -1.16982 -3.69315 0
M  V30 9514 H 914.072 -3.35784 -4.02926 0
M  V30 9515 H 915.546 -2.04623 -5.12673 0
M  V30 9516 H 916.023 -0.533434 -4.35949 0
M  V30 9517 H 916.629 -2.07531 -3.71229 0
M  V30 9518 N 914.944 1.19125 -1.03184 0
M  V30 9519 C 915.907 2.20662 -0.619766 0
M  V30 9520 C 916.907 1.57621 0.318179 0
M  V30 9521 O 918.097 1.73885 0.104783 0
M  V30 9522 C 915.229 3.40774 0.0926696 0
M  V30 9523 H 916.422 2.58633 -1.5182 0
M  V30 9524 H 913.975 1.32855 -0.823364 0
M  V30 9525 H 914.71 3.08324 1.00531 0
M  V30 9526 H 914.495 3.87766 -0.581344 0
M  V30 9527 H 915.985 4.15977 0.367792 0
M  V30 9528 N 916.422 0.810101 1.35185 0
M  V30 9529 C 917.652 0.404109 2.02609 0
M  V30 9530 C 918.06 -0.990748 1.61186 0
M  V30 9531 O 917.403 -1.65038 0.80674 0
M  V30 9532 C 917.465 0.412047 3.57131 0
M  V30 9533 C 917.129 1.75802 4.21832 0
M  V30 9534 C 918.126 2.71687 4.43263 0
M  V30 9535 C 915.811 2.04299 4.58876 0
M  V30 9536 C 917.805 3.9425 5.00845 0
M  V30 9537 C 915.492 3.27125 5.16171 0
M  V30 9538 C 916.49 4.21918 5.37098 0
M  V30 9539 O 916.178 5.42576 5.93184 0
M  V30 9540 H 915.91 0.161914 0.656323 0
M  V30 9541 H 918.464 1.09605 1.73712 0
M  V30 9542 H 916.694 -0.336509 3.85233 0
M  V30 9543 H 918.383 0.0278817 4.0589 0
M  V30 9544 H 919.149 2.50964 4.15021 0
M  V30 9545 H 915.028 1.31324 4.41899 0
M  V30 9546 H 918.572 4.68251 5.17094 0
M  V30 9547 H 914.469 3.47718 5.43841 0
M  V30 9548 H 915.237 5.43921 6.11631 0
M  V30 9549 N 917.9 -1.47166 0.563914 0
M  V30 9550 C 918.832 -2.28165 -0.217583 0
M  V30 9551 C 919.845 -1.37405 -0.873134 0
M  V30 9552 O 921.034 -1.6217 -0.745857 0
M  V30 9553 C 918.134 -3.11873 -1.32621 0
M  V30 9554 C 917.307 -4.30637 -0.766177 0
M  V30 9555 C 916.366 -4.95889 -1.76014 0
M  V30 9556 O 915.392 -5.54071 -1.3036 0
M  V30 9557 N 916.594 -4.91191 -3.09373 0
M  V30 9558 H 919.359 -2.95876 0.477256 0
M  V30 9559 H 916.92 -1.5687 0.40043 0
M  V30 9560 H 918.912 -3.52392 -1.99003 0
M  V30 9561 H 917.482 -2.46361 -1.92419 0
M  V30 9562 H 916.702 -3.94129 0.0745998 0
M  V30 9563 H 917.99 -5.07442 -0.371472 0
M  V30 9564 H 917.388 -4.45133 -3.49104 0
M  V30 9565 H 915.945 -5.35708 -3.71295 0
M  V30 9566 N 919.378 -0.300708 -1.54705 0
M  V30 9567 C 920.626 0.308044 -1.99739 0
M  V30 9568 C 920.947 1.54433 -1.19061 0
M  V30 9569 O 920.217 1.93794 -0.286507 0
M  V30 9570 H 918.797 0.116811 -0.73781 0
M  V30 9571 H 921.459 -0.41197 -1.90496 0
M  V30 9572 H 920.555 0.580287 -3.06658 0
M  V30 9573 N 920.856 1.57574 -0.0284266 0
M  V30 9574 C 922.081 1.96479 0.664137 0
M  V30 9575 C 922.506 0.904826 1.64908 0
M  V30 9576 O 921.864 -0.134339 1.80802 0
M  V30 9577 C 921.912 3.34479 1.34745 0
M  V30 9578 O 921.016 3.30794 2.46271 0
M  V30 9579 H 920.357 0.640654 0.174524 0
M  V30 9580 H 922.887 2.04402 -0.0900729 0
M  V30 9581 H 922.897 3.70694 1.7044 0
M  V30 9582 H 921.572 4.1117 0.625468 0
M  V30 9583 H 920.149 3.06294 2.12693 0
M  V30 9584 N 922.334 -0.244713 1.55689 0
M  V30 9585 C 923.559 -0.994157 1.8202 0
M  V30 9586 C 923.984 -1.78079 0.60577 0
M  V30 9587 O 923.342 -1.75748 -0.445221 0
M  V30 9588 C 923.39 -1.90599 3.06111 0
M  V30 9589 O 922.494 -2.99804 2.8318 0
M  V30 9590 H 921.835 -0.282767 0.600782 0
M  V30 9591 H 924.365 -0.26504 2.02876 0
M  V30 9592 H 924.375 -2.32023 3.35603 0
M  V30 9593 H 923.05 -1.32763 3.9414 0
M  V30 9594 H 921.627 -2.62493 2.64862 0
M  V30 9595 N 923.813 -1.49104 -0.510467 0
M  V30 9596 C 925.038 -1.62068 -1.29417 0
M  V30 9597 C 925.463 -0.288432 -1.85875 0
M  V30 9598 O 924.821 0.742667 -1.65391 0
M  V30 9599 C 924.869 -2.68506 -2.40701 0
M  V30 9600 O 923.973 -2.27021 -3.4429 0
M  V30 9601 H 923.314 -0.542778 -0.382476 0
M  V30 9602 H 925.844 -1.95228 -0.612154 0
M  V30 9603 H 925.854 -2.90383 -2.86604 0
M  V30 9604 H 924.529 -3.65216 -1.98973 0
M  V30 9605 H 923.106 -2.15436 -3.04371 0
M  V30 9606 N 925.291 0.760815 -1.38019 0
M  V30 9607 C 926.519 1.55001 -1.37048 0
M  V30 9608 C 926.934 1.88754 0.0415261 0
M  V30 9609 O 926.291 1.52254 1.00624 0
M  V30 9610 C 926.342 2.8536 -2.21928 0
M  V30 9611 O 926.063 2.53049 -3.57628 0
M  V30 9612 C 927.564 3.79536 -2.29057 0
M  V30 9613 H 924.784 0.479844 -0.469032 0
M  V30 9614 H 927.328 0.942148 -1.81504 0
M  V30 9615 H 925.483 3.42542 -1.80953 0
M  V30 9616 H 925.897 3.36604 -4.02241 0
M  V30 9617 H 927.371 4.67977 -2.92749 0
M  V30 9618 H 927.848 4.19453 -1.30213 0
M  V30 9619 H 928.454 3.28281 -2.70392 0
M  V30 9620 N 926.769 1.22769 0.988202 0
M  V30 9621 C 928.009 1.06673 1.74356 0
M  V30 9622 C 928.373 -0.390737 1.87982 0
M  V30 9623 O 929.574 -0.672677 2.60247 0
M  V30 9624 C 927.845 1.76361 3.10856 0
M  V30 9625 S 929.404 1.75738 4.02071 0
M  V30 9626 H 926.222 0.381917 0.599717 0
M  V30 9627 H 928.824 1.55784 1.18117 0
M  V30 9628 H 927.528 2.81559 2.98584 0
M  V30 9629 H 927.059 1.27501 3.72165 0
M  V30 9630 H 929.074 0.810418 4.89537 0
M  V30 9631 N 928.247 -1.18576 1.03814 0
M  V30 9632 C 929.496 -1.87822 0.735235 0
M  V30 9633 C 929.809 -1.81069 -0.739819 0
M  V30 9634 O 931.015 -2.45654 -1.15614 0
M  V30 9635 C 929.471 -3.36941 1.26486 0
M  V30 9636 C 929.079 -3.5223 2.76836 0
M  V30 9637 C 930.823 -4.11604 1.03836 0
M  V30 9638 C 928.73 -4.95294 3.23169 0
M  V30 9639 H 927.66 -0.703487 0.271333 0
M  V30 9640 H 930.311 -1.34 1.25365 0
M  V30 9641 H 928.693 -3.90217 0.674318 0
M  V30 9642 H 929.867 -3.09239 3.41625 0
M  V30 9643 H 928.182 -2.90969 2.97869 0
M  V30 9644 H 930.779 -5.17123 1.3597 0
M  V30 9645 H 931.122 -4.16293 -0.0244945 0
M  V30 9646 H 931.655 -3.64494 1.59338 0
M  V30 9647 H 928.394 -4.95772 4.28824 0
M  V30 9648 H 927.914 -5.3901 2.63113 0
M  V30 9649 H 929.593 -5.63996 3.17045 0
M  V30 9650 N 929.725 -0.817259 -1.34754 0
M  V30 9651 C 930.655 -0.249769 -2.3216 0
M  V30 9652 C 931.636 0.630663 -1.57977 0
M  V30 9653 O 932.821 0.558719 -1.85989 0
M  V30 9654 C 929.951 0.593825 -3.42186 0
M  V30 9655 C 928.905 -0.188997 -4.27583 0
M  V30 9656 C 928.231 0.776979 -5.29025 0
M  V30 9657 C 929.531 -1.39401 -5.03354 0
M  V30 9658 H 931.225 -1.06359 -2.79872 0
M  V30 9659 H 928.771 -0.512894 -1.34556 0
M  V30 9660 H 930.724 1.00097 -4.09339 0
M  V30 9661 H 929.448 1.44064 -2.93109 0
M  V30 9662 H 928.107 -0.577445 -3.62024 0
M  V30 9663 H 927.755 1.61959 -4.76212 0
M  V30 9664 H 927.455 0.257448 -5.87036 0
M  V30 9665 H 928.979 1.18211 -5.99048 0
M  V30 9666 H 930.393 -1.06117 -5.63393 0
M  V30 9667 H 928.79 -1.84878 -5.70912 0
M  V30 9668 H 929.86 -2.17515 -4.33377 0
M  V30 9669 N 931.203 1.46865 -0.571711 0
M  V30 9670 C 932.135 2.28277 0.205479 0
M  V30 9671 C 933.148 1.37866 0.865835 0
M  V30 9672 O 934.337 1.62564 0.737247 0
M  V30 9673 C 931.437 3.12572 1.30965 0
M  V30 9674 C 930.61 4.31038 0.743328 0
M  V30 9675 C 929.669 4.96815 1.73382 0
M  V30 9676 O 928.695 5.54755 1.2742 0
M  V30 9677 N 929.897 4.92825 3.06764 0
M  V30 9678 H 932.662 2.95618 -0.49294 0
M  V30 9679 H 930.223 1.56655 -0.408744 0
M  V30 9680 H 932.215 3.53442 1.97131 0
M  V30 9681 H 930.785 2.47378 1.91109 0
M  V30 9682 H 930.005 3.94084 -0.0955004 0
M  V30 9683 H 931.293 5.07632 0.344556 0
M  V30 9684 H 930.691 4.46978 3.46738 0
M  V30 9685 H 929.248 5.3767 3.68449 0
M  V30 9686 N 932.681 0.308908 1.54543 0
M  V30 9687 C 933.591 -0.572939 2.27496 0
M  V30 9688 C 934.607 -1.14171 1.31305 0
M  V30 9689 O 935.783 -1.16481 1.64299 0
M  V30 9690 C 932.848 -1.72483 3.0075 0
M  V30 9691 C 931.909 -1.18934 4.12496 0
M  V30 9692 C 931.142 -2.28634 4.82247 0
M  V30 9693 O 931.365 -3.48691 4.5141 0
M  V30 9694 O 930.299 -1.94879 5.69478 0
M  V30 9695 H 934.125 0.0190877 3.03694 0
M  V30 9696 H 931.71 0.0750943 1.49211 0
M  V30 9697 H 933.592 -2.39578 3.46671 0
M  V30 9698 H 932.267 -2.30332 2.2744 0
M  V30 9699 H 931.174 -0.483904 3.70957 0
M  V30 9700 H 932.507 -0.656185 4.87806 0
M  V30 9701 N 934.159 -1.57557 0.0367827 0
M  V30 9702 C 935.387 -1.96419 -0.650168 0
M  V30 9703 C 935.802 -0.913656 -1.6522 0
M  V30 9704 O 935.159 0.103718 -1.82205 0
M  V30 9705 C 935.21 -3.35355 -1.3498 0
M  V30 9706 O 934.931 -4.36379 -0.387905 0
M  V30 9707 C 936.432 -3.88892 -2.12786 0
M  V30 9708 H 933.652 -0.646751 -0.178756 0
M  V30 9709 H 936.196 -2.04261 0.0988197 0
M  V30 9710 H 934.351 -3.28708 -2.05012 0
M  V30 9711 H 934.765 -5.16969 -0.885596 0
M  V30 9712 H 936.239 -4.88428 -2.5718 0
M  V30 9713 H 936.716 -3.23547 -2.97008 0
M  V30 9714 H 937.322 -3.98831 -1.47694 0
M  V30 9715 N 935.637 0.236453 -1.55816 0
M  V30 9716 C 936.862 0.98449 -1.82545 0
M  V30 9717 C 937.287 1.77755 -0.615206 0
M  V30 9718 O 936.645 1.75982 0.435895 0
M  V30 9719 C 936.693 1.88973 -3.07118 0
M  V30 9720 O 935.797 2.98298 -2.84766 0
M  V30 9721 H 935.138 0.279577 -0.602273 0
M  V30 9722 H 937.668 0.254277 -2.03014 0
M  V30 9723 H 937.678 2.3024 -3.36829 0
M  V30 9724 H 936.353 1.30671 -3.94839 0
M  V30 9725 H 934.93 2.61085 -2.6625 0
M  V30 9726 N 937.115 1.49373 0.502552 0
M  V30 9727 C 938.045 1.68839 1.61294 0
M  V30 9728 C 939.026 0.537096 1.61398 0
M  V30 9729 O 940.211 0.772764 1.78163 0
M  V30 9730 C 937.341 1.75347 2.99784 0
M  V30 9731 C 936.295 2.90251 3.14545 0
M  V30 9732 C 935.621 2.8187 4.54371 0
M  V30 9733 C 936.921 4.31207 2.94717 0
M  V30 9734 H 938.615 2.61803 1.45257 0
M  V30 9735 H 936.161 1.25987 0.697371 0
M  V30 9736 H 938.114 1.87552 3.77362 0
M  V30 9737 H 936.838 0.789814 3.16906 0
M  V30 9738 H 935.497 2.77646 2.39392 0
M  V30 9739 H 935.145 1.83416 4.68367 0
M  V30 9740 H 934.845 3.5899 4.65188 0
M  V30 9741 H 936.369 2.96081 5.34012 0
M  V30 9742 H 937.783 4.44501 3.62065 0
M  V30 9743 H 936.18 5.09536 3.17007 0
M  V30 9744 H 937.25 4.45759 1.90857 0
M  V30 9745 O 938.632 -0.647824 1.47937 0
M  V30 9746 H 939.323 -1.30144 1.43465 0
M  V30 END ATOM
M  V30 BEGIN BOND
M  V30 END BOND
M  V30 END CTAB
M  END
$$$$
