drugbank_target|Q9Y2U5 Mitogen-activated protein kinase kinase kinase 2 (DB06616; DB12010)
 OpenBabel12092120583D

  0  0  0     0  0            999 V3000
M  V30 BEGIN CTAB
M  V30 COUNTS 9757 9869 0 0 0
M  V30 BEGIN ATOM
M  V30 1 H -0.908 1.98254 -0.117106 0
M  V30 2 N 0 1.576 0 0
M  V30 3 C 0.933 2.03868 1.02534 0
M  V30 4 C 1.911 0.928543 1.3348 0
M  V30 5 O 3.095 1.19667 1.45644 0
M  V30 6 C 0.222 2.43627 2.35294 0
M  V30 7 C -0.732 3.65373 2.2001 0
M  V30 8 S 0.101 5.13292 1.52614 0
M  V30 9 C 1.257 5.56322 2.86805 0
M  V30 10 H 1.49 2.90518 0.631377 0
M  V30 11 H -0.977 1.52953 0.210867 0
M  V30 12 H 0.981 2.67203 3.11629 0
M  V30 13 H -0.358 1.57376 2.7183 0
M  V30 14 H -1.165 3.90944 3.18086 0
M  V30 15 H -1.563 3.418 1.51819 0
M  V30 16 H 0.729 5.58782 3.83104 0
M  V30 17 H 1.672 6.56266 2.65933 0
M  V30 18 H 2.08 4.83886 2.90714 0
M  V30 19 N 1.4781 -0.272755 1.55222 0
M  V30 20 C 2.7551 -1.02562 1.66555 0
M  V30 21 C 3.1351 -2.04282 0.532189 0
M  V30 22 O 2.4831 -2.23662 -0.467717 0
M  V30 23 C 2.6931 -1.6822 3.05782 0
M  V30 24 C 4.0411 -2.19373 3.63539 0
M  V30 25 O 5.0651 -1.78206 3.08417 0
M  V30 26 O 3.9241 -2.94883 4.60115 0
M  V30 27 H 1.0181 -0.475755 0.676451 0
M  V30 28 H 3.5641 -0.268593 1.67561 0
M  V30 29 H 2.3361 -0.945112 3.79715 0
M  V30 30 H 1.9591 -2.50609 3.08676 0
M  V30 31 N 2.9562 -1.48159 -0.537278 0
M  V30 32 C 4.2332 -1.46291 -1.29839 0
M  V30 33 C 4.6132 -0.170613 -2.10409 0
M  V30 34 O 3.9612 0.847746 -2.12192 0
M  V30 35 C 4.1712 -2.72055 -2.18603 0
M  V30 36 C 5.5192 -3.20087 -2.7898 0
M  V30 37 O 6.5432 -2.72921 -2.28894 0
M  V30 38 O 5.4022 -4.02138 -3.70064 0
M  V30 39 H 2.4962 -0.583906 -0.585647 0
M  V30 40 H 5.0422 -1.60384 -0.554534 0
M  V30 41 H 3.8142 -3.57628 -1.58801 0
M  V30 42 H 3.4372 -2.60646 -3.00249 0
M  V30 43 N 4.4343 0.785586 -1.36625 0
M  V30 44 C 5.3663 1.90711 -1.2713 0
M  V30 45 C 6.3793 1.61688 -0.189986 0
M  V30 46 O 7.5683 1.72864 -0.445014 0
M  V30 47 C 4.6683 3.25611 -0.939713 0
M  V30 48 C 3.8413 3.82385 -2.12369 0
M  V30 49 C 2.9003 4.95732 -1.76456 0
M  V30 50 O 1.9263 5.12047 -2.48589 0
M  V30 51 N 3.1283 5.76258 -0.700492 0
M  V30 52 H 5.8933 1.99376 -2.23762 0
M  V30 53 H 3.4543 0.964041 -1.30069 0
M  V30 54 H 5.4463 3.98937 -0.680554 0
M  V30 55 H 4.0163 3.12538 -0.0624074 0
M  V30 56 H 3.2363 3.01001 -2.54543 0
M  V30 57 H 4.5243 4.17047 -2.9146 0
M  V30 58 H 3.9223 5.65609 -0.101624 0
M  V30 59 H 2.4793 6.4987 -0.501165 0
M  V30 60 N 5.9124 1.20967 1.01018 0
M  V30 61 C 6.8444 0.922059 2.09835 0
M  V30 62 C 7.8574 -0.0927106 1.62536 0
M  V30 63 O 9.0464 0.139127 1.77957 0
M  V30 64 C 6.1464 0.362004 3.36961 0
M  V30 65 C 5.3194 1.42986 4.13369 0
M  V30 66 C 4.3784 0.879976 5.1879 0
M  V30 67 O 3.4044 1.56219 5.47343 0
M  V30 68 N 4.6064 -0.307396 5.79686 0
M  V30 69 H 7.3714 1.8588 2.35093 0
M  V30 70 H 4.9324 1.11422 1.1746 0
M  V30 71 H 6.9244 -0.0201474 4.04695 0
M  V30 72 H 5.4944 -0.479437 3.08902 0
M  V30 73 H 4.7144 1.98608 3.40512 0
M  V30 74 H 6.0024 2.14885 4.61196 0
M  V30 75 H 5.4004 -0.878796 5.58832 0
M  V30 76 H 3.9574 -0.631115 6.48737 0
M  V30 77 N 7.3905 -1.2043 1.01659 0
M  V30 78 C 8.3535 -2.21433 0.591616 0
M  V30 79 C 9.3535 -1.57203 -0.338226 0
M  V30 80 O 10.5435 -1.73737 -0.126918 0
M  V30 81 C 7.6755 -3.40628 -0.136058 0
M  V30 82 H 8.8685 -2.60545 1.48514 0
M  V30 83 H 6.4215 -1.33893 0.806379 0
M  V30 84 H 7.1565 -3.07019 -1.04449 0
M  V30 85 H 6.9415 -3.88475 0.531917 0
M  V30 86 H 8.4315 -4.15475 -0.420735 0
M  V30 87 N 8.8686 -0.792821 -1.36206 0
M  V30 88 C 9.7986 -0.207853 -2.32573 0
M  V30 89 C 10.7796 0.659055 -1.56813 0
M  V30 90 O 11.9646 0.592176 -1.84951 0
M  V30 91 C 9.0946 0.655449 -3.41059 0
M  V30 92 C 8.0486 -0.111842 -4.27854 0
M  V30 93 C 7.3746 0.872274 -5.27537 0
M  V30 94 C 8.6746 -1.30299 -5.05786 0
M  V30 95 H 10.3686 -1.01294 -2.81744 0
M  V30 96 H 7.9146 -0.48854 -1.3546 0
M  V30 97 H 9.8676 1.07464 -4.07467 0
M  V30 98 H 8.5916 1.49328 -2.90463 0
M  V30 99 H 7.2506 -0.512053 -3.63006 0
M  V30 100 H 6.8986 1.70523 -4.73214 0
M  V30 101 H 6.5986 0.363291 -5.86476 0
M  V30 102 H 8.1226 1.28996 -5.96818 0
M  V30 103 H 9.5366 -0.959379 -5.65216 0
M  V30 104 H 7.9336 -1.7455 -5.74154 0
M  V30 105 H 9.0036 -2.09663 -4.37229 0
M  V30 106 N 10.3467 1.47872 -0.545128 0
M  V30 107 C 11.2947 2.31533 0.222512 0
M  V30 108 C 12.2887 1.42177 0.920985 0
M  V30 109 O 13.4947 1.59005 0.843645 0
M  V30 110 H 9.8697 0.746519 0.0906278 0
M  V30 111 H 11.8407 2.94139 -0.50246 0
M  V30 112 C 10.5897 3.2457 1.24699 0
M  V30 113 H 9.9127 3.93283 0.718944 0
M  V30 114 H 11.3527 3.85963 1.75523 0
M  V30 115 C 9.8117 2.47237 2.28856 0
M  V30 116 O 10.3417 2.20808 3.35569 0
M  V30 117 N 8.5477 2.08461 2.02466 0
M  V30 118 H 8.0947 2.30155 1.157 0
M  V30 119 H 8.0527 1.57033 2.72375 0
M  V30 120 N 11.8248 0.280983 1.55075 0
M  V30 121 C 13.0498 -0.340154 2.04592 0
M  V30 122 C 13.4748 -1.48246 1.15779 0
M  V30 123 O 12.8328 -1.80614 0.15761 0
M  V30 124 C 12.8808 -0.793104 3.5177 0
M  V30 125 O 11.9848 -1.89981 3.66034 0
M  V30 126 H 11.3258 -0.0694289 0.66036 0
M  V30 127 H 13.8558 0.416993 2.00306 0
M  V30 128 H 13.8658 -1.08729 3.93245 0
M  V30 129 H 12.5408 0.0426163 4.15878 0
M  V30 130 H 11.1178 -1.60771 3.36463 0
M  V30 131 N 13.3029 -1.57598 0.00835791 0
M  V30 132 C 14.5519 -1.90107 -0.673968 0
M  V30 133 C 14.8649 -0.884275 -1.7447 0
M  V30 134 O 16.0709 -1.09987 -2.48224 0
M  V30 135 C 14.5269 -3.37497 -1.24995 0
M  V30 136 C 14.1349 -4.47491 -0.2136 0
M  V30 137 C 15.8789 -3.79104 -1.90999 0
M  V30 138 C 13.7859 -5.85963 -0.80005 0
M  V30 139 H 12.7159 -0.709393 -0.255495 0
M  V30 140 H 15.3669 -1.83365 0.0702693 0
M  V30 141 H 13.7489 -3.39102 -2.04513 0
M  V30 142 H 14.9229 -4.57414 0.557596 0
M  V30 143 H 13.2379 -4.14956 0.346474 0
M  V30 144 H 15.8349 -4.79901 -2.35795 0
M  V30 145 H 16.1779 -3.1306 -2.74407 0
M  V30 146 H 16.7109 -3.79833 -1.18203 0
M  V30 147 H 13.4499 -6.555 -0.00456708 0
M  V30 148 H 12.9699 -5.79687 -1.54021 0
M  V30 149 H 14.6489 -6.33884 -1.29615 0
M  V30 150 N 14.781 0.264519 -1.55364 0
M  V30 151 C 15.714 1.35297 -1.83766 0
M  V30 152 C 16.692 1.47171 -0.691336 0
M  V30 153 O 17.876 1.63663 -0.935238 0
M  V30 154 C 15.003 2.72847 -2.00679 0
M  V30 155 C 14.049 2.78214 -3.23263 0
M  V30 156 S 14.882 2.36601 -4.80396 0
M  V30 157 C 16.038 3.7611 -5.00292 0
M  V30 158 H 16.271 1.11003 -2.758 0
M  V30 159 H 13.804 0.464596 -1.47244 0
M  V30 160 H 15.762 3.52057 -2.11108 0
M  V30 161 H 14.423 2.94388 -1.09518 0
M  V30 162 H 13.616 3.7919 -3.3201 0
M  V30 163 H 13.218 2.07034 -3.11469 0
M  V30 164 H 15.51 4.71457 -4.86554 0
M  V30 165 H 16.453 3.7231 -6.02321 0
M  V30 166 H 16.861 3.67806 -4.28228 0
M  V30 167 N 16.2591 1.48442 0.529413 0
M  V30 168 C 17.1911 1.59095 1.64989 0
M  V30 169 C 18.2041 0.475212 1.5571 0
M  V30 170 O 19.3931 0.746081 1.6216 0
M  V30 171 C 16.4931 1.50518 3.0364 0
M  V30 172 C 15.6661 2.77142 3.38395 0
M  V30 173 C 14.7251 2.62012 4.56329 0
M  V30 174 O 13.7511 3.35898 4.59522 0
M  V30 175 N 14.9531 1.71667 5.54536 0
M  V30 176 H 17.7181 2.55723 1.56287 0
M  V30 177 H 15.2791 1.45173 0.716697 0
M  V30 178 H 17.2711 1.38091 3.80412 0
M  V30 179 H 15.8411 0.618627 3.06418 0
M  V30 180 H 15.0611 3.0413 2.50796 0
M  V30 181 H 16.3491 3.61146 3.58401 0
M  V30 182 H 15.7471 1.10841 5.54735 0
M  V30 183 H 14.3041 1.65178 6.30523 0
M  V30 184 N 17.7372 -0.778329 1.37039 0
M  V30 185 C 19.0142 -1.52551 1.22424 0
M  V30 186 C 19.3942 -2.10288 -0.184964 0
M  V30 187 O 18.7422 -1.94953 -1.19187 0
M  V30 188 C 18.9522 -2.61164 2.31504 0
M  V30 189 C 20.3002 -3.28746 2.68721 0
M  V30 190 O 21.3242 -2.71455 2.30631 0
M  V30 191 O 20.1832 -4.3231 3.3432 0
M  V30 192 H 17.2772 -0.675343 0.477326 0
M  V30 193 H 19.8232 -0.815859 1.48801 0
M  V30 194 H 18.5952 -2.16574 3.25901 0
M  V30 195 H 18.2182 -3.39737 2.06554 0
M  V30 196 N 19.2153 -1.21501 -1.00376 0
M  V30 197 C 20.1453 -0.999478 -2.11028 0
M  V30 198 C 21.1263 0.0759671 -1.6993 0
M  V30 199 O 22.3113 -0.0841106 -1.94018 0
M  V30 200 C 19.4413 -0.564709 -3.42678 0
M  V30 201 C 18.3953 -1.58486 -3.97576 0
M  V30 202 C 17.7213 -1.00628 -5.25146 0
M  V30 203 C 19.0213 -2.97204 -4.29496 0
M  V30 204 H 20.7153 -1.92495 -2.29317 0
M  V30 205 H 18.2613 -0.92693 -1.102 0
M  V30 206 H 20.2143 -0.401091 -4.19487 0
M  V30 207 H 18.9383 0.396411 -3.24185 0
M  V30 208 H 17.5973 -1.73606 -3.22888 0
M  V30 209 H 17.2453 -0.0368439 -5.02987 0
M  V30 210 H 16.9453 -1.68771 -5.62841 0
M  V30 211 H 18.4693 -0.854015 -6.04598 0
M  V30 212 H 19.8833 -2.8552 -4.97143 0
M  V30 213 H 18.2803 -3.62372 -4.78338 0
M  V30 214 H 19.3503 -3.47956 -3.3772 0
M  V30 215 N 20.6934 1.19889 -1.02296 0
M  V30 216 C 21.6564 2.21116 -0.603351 0
M  V30 217 C 22.6564 1.5738 0.329884 0
M  V30 218 O 23.8464 1.73802 0.117702 0
M  V30 219 C 20.9784 3.40696 0.117992 0
M  V30 220 H 22.1714 2.59754 -1.49893 0
M  V30 221 H 19.7244 1.33463 -0.813468 0
M  V30 222 H 20.4594 3.07569 1.0282 0
M  V30 223 H 20.2444 3.88188 -0.552511 0
M  V30 224 H 21.7344 4.15692 0.398696 0
M  V30 225 N 22.1715 0.800033 1.35784 0
M  V30 226 C 23.4175 0.377901 1.99248 0
M  V30 227 C 23.7505 -1.05052 1.63333 0
M  V30 228 O 23.0255 -1.72768 0.893385 0
M  V30 229 C 23.3085 0.553922 3.55814 0
M  V30 230 C 23.1615 2.0268 4.01548 0
M  V30 231 C 24.4805 -0.0244802 4.40093 0
M  V30 232 H 21.5995 0.138782 0.723815 0
M  V30 233 H 24.2415 1.00835 1.61035 0
M  V30 234 H 22.3915 0.0172398 3.88496 0
M  V30 235 H 24.0635 2.62536 3.79305 0
M  V30 236 H 22.3065 2.5256 3.52698 0
M  V30 237 H 22.9775 2.10087 5.10458 0
M  V30 238 H 25.4535 0.433775 4.13833 0
M  V30 239 H 24.3295 0.128637 5.48749 0
M  V30 240 H 24.5905 -1.11758 4.27741 0
M  V30 241 N 23.6496 -1.47581 0.552962 0
M  V30 242 C 24.5796 -2.32762 -0.185451 0
M  V30 243 C 25.5606 -1.43527 -0.912905 0
M  V30 244 O 26.7456 -1.72388 -0.894201 0
M  V30 245 C 23.8756 -3.25219 -1.21859 0
M  V30 246 C 22.8296 -4.23661 -0.607864 0
M  V30 247 C 22.1556 -5.05413 -1.74533 0
M  V30 248 C 23.4556 -5.20481 0.435582 0
M  V30 249 H 25.1496 -2.94749 0.525684 0
M  V30 250 H 22.6956 -1.41738 0.254251 0
M  V30 251 H 24.6486 -3.8365 -1.7433 0
M  V30 252 H 23.3726 -2.61279 -1.95961 0
M  V30 253 H 22.0316 -3.66451 -0.104489 0
M  V30 254 H 21.6796 -4.3788 -2.47529 0
M  V30 255 H 21.3796 -5.72059 -1.34249 0
M  V30 256 H 22.9036 -5.66701 -2.27338 0
M  V30 257 H 24.3176 -5.733 -0.00290157 0
M  V30 258 H 22.7146 -5.95305 0.757067 0
M  V30 259 H 23.7846 -4.66217 1.33303 0
M  V30 260 N 25.1277 -0.289203 -1.54924 0
M  V30 261 C 26.0777 0.606939 -2.19773 0
M  V30 262 C 27.0617 1.10783 -1.16687 0
M  V30 263 O 28.2537 1.05057 -1.4245 0
M  V30 264 C 25.3827 1.78398 -2.93307 0
M  V30 265 C 24.4687 1.29961 -4.03697 0
M  V30 266 N 24.8597 0.532377 -5.0299 0
M  V30 267 C 23.1577 1.58136 -4.17024 0
M  V30 268 C 23.8587 0.275912 -5.81045 0
M  V30 269 N 22.8347 0.852365 -5.36876 0
M  V30 270 H 26.6367 0.0130779 -2.93897 0
M  V30 271 H 24.1507 -0.09341 -1.62131 0
M  V30 272 H 26.1477 2.43741 -3.38225 0
M  V30 273 H 24.8077 2.38166 -2.20697 0
M  V30 274 H 25.8187 0.17838 -5.17593 0
M  V30 275 H 22.4957 2.18738 -3.55612 0
M  V30 276 H 23.8857 -0.339502 -6.71042 0
M  V30 277 N 26.6058 1.57591 -0.0167156 0
M  V30 278 C 27.5528 2.09462 0.969251 0
M  V30 279 C 28.5228 0.99381 1.33089 0
M  V30 280 O 29.7078 1.26726 1.42636 0
M  V30 281 C 26.8478 2.61622 2.25051 0
M  V30 282 C 25.9608 3.85666 1.94642 0
M  V30 283 C 25.0958 4.26266 3.16972 0
M  V30 284 C 24.1348 5.43101 2.82326 0
M  V30 285 N 23.2718 5.78915 3.97243 0
M  V30 286 H 28.1118 2.93428 0.519997 0
M  V30 287 H 25.6488 1.45044 0.245087 0
M  V30 288 H 27.6068 2.89949 2.99976 0
M  V30 289 H 26.2368 1.80505 2.67615 0
M  V30 290 H 25.2888 3.64145 1.10013 0
M  V30 291 H 26.6008 4.70678 1.65117 0
M  V30 292 H 25.7548 4.55963 4.00228 0
M  V30 293 H 24.4938 3.39996 3.49648 0
M  V30 294 H 23.4988 5.1311 1.97479 0
M  V30 295 H 24.7238 6.3106 2.50879 0
M  V30 296 H 22.6698 4.95602 4.29785 0
M  V30 297 H 22.5868 6.58539 3.71299 0
M  V30 298 H 23.8548 6.13212 4.81239 0
M  V30 299 N 28.0839 -0.256276 1.55502 0
M  V30 300 C 29.0469 -1.30047 1.88734 0
M  V30 301 C 30.0469 -1.4154 0.763086 0
M  V30 302 O 31.2369 -1.40403 1.03115 0
M  V30 303 C 28.3689 -2.67953 2.10747 0
M  V30 304 H 29.5619 -1.01802 2.82093 0
M  V30 305 H 27.1149 -0.495134 1.4825 0
M  V30 306 H 27.8499 -3.01351 1.19825 0
M  V30 307 H 27.6349 -2.60993 2.92617 0
M  V30 308 H 29.1249 -3.43368 2.37673 0
M  V30 309 N 29.562 -1.4872 -0.521534 0
M  V30 310 C 30.787 -1.61101 -1.30618 0
M  V30 311 C 31.212 -0.274611 -1.86085 0
M  V30 312 O 30.57 0.754937 -1.64834 0
M  V30 313 C 30.618 -2.66709 -2.4269 0
M  V30 314 O 29.722 -2.24456 -3.45967 0
M  V30 315 H 29.063 -0.539921 -0.386499 0
M  V30 316 H 31.593 -1.94767 -0.626645 0
M  V30 317 H 31.603 -2.88245 -2.88754 0
M  V30 318 H 30.278 -3.63727 -2.01682 0
M  V30 319 H 28.855 -2.13168 -3.05964 0
M  V30 320 N 31.0401 0.771051 -1.3745 0
M  V30 321 C 32.4561 1.07171 -1.18265 0
M  V30 322 C 32.6561 2.01491 -0.019287 0
M  V30 323 O 31.7121 2.44244 0.640408 0
M  V30 324 C 33.0251 1.66854 -2.50161 0
M  V30 325 C 34.5731 1.79109 -2.56689 0
M  V30 326 C 35.0481 2.42205 -3.88717 0
M  V30 327 N 36.5391 2.49655 -3.90162 0
M  V30 328 C 37.2741 2.9933 -4.8907 0
M  V30 329 N 36.7701 3.49172 -5.98374 0
M  V30 330 N 38.5631 2.9821 -4.76474 0
M  V30 331 H 30.7141 0.144796 -2.11906 0
M  V30 332 H 32.9771 0.126863 -0.939473 0
M  V30 333 H 32.6831 1.05017 -3.35655 0
M  V30 334 H 32.5571 2.6614 -2.673 0
M  V30 335 H 34.9441 2.40077 -1.71601 0
M  V30 336 H 35.0251 0.785757 -2.43433 0
M  V30 337 H 34.6691 1.81875 -4.74219 0
M  V30 338 H 34.5991 3.43345 -3.99276 0
M  V30 339 H 37.0901 2.14383 -3.11205 0
M  V30 340 H 37.4031 3.8548 -6.69795 0
M  V30 341 H 35.7481 3.47275 -6.02018 0
M  V30 342 H 38.9391 2.58572 -3.90203 0
M  V30 343 H 39.1121 3.36613 -5.53711 0
M  V30 344 N 32.5182 1.22032 0.997298 0
M  V30 345 C 33.9292 1.0397 1.55071 0
M  V30 346 C 34.2802 -0.398192 1.92117 0
M  V30 347 O 33.4052 -1.28254 1.74298 0
M  V30 348 C 34.0002 1.88109 2.81781 0
M  V30 349 C 32.5592 1.74357 3.33581 0
M  V30 350 C 31.7062 1.84846 2.06706 0
M  V30 351 H 34.6572 1.35941 0.818883 0
M  V30 352 H 34.6782 1.39589 3.53971 0
M  V30 353 H 34.1902 2.92754 2.54787 0
M  V30 354 H 32.2912 0.72427 3.65493 0
M  V30 355 H 32.4042 2.56772 4.04481 0
M  V30 356 H 30.7682 1.28238 2.20062 0
M  V30 357 H 31.5512 2.91014 1.82114 0
M  V30 358 N 33.9963 -1.19345 1.0293 0
M  V30 359 C 34.9593 -2.20793 0.615069 0
M  V30 360 C 35.9593 -1.57553 -0.321533 0
M  V30 361 O 37.1493 -1.73862 -0.108483 0
M  V30 362 C 34.2813 -3.40754 -0.0999222 0
M  V30 363 H 35.4743 -2.58955 1.51269 0
M  V30 364 H 33.0273 -1.3303 0.820534 0
M  V30 365 H 33.7623 -3.0811 -1.01187 0
M  V30 366 H 33.5473 -3.87889 0.57309 0
M  V30 367 H 35.0373 -4.15898 -0.376645 0
M  V30 368 N 35.4744 -0.807222 -1.35358 0
M  V30 369 C 36.4044 -0.232509 -2.3234 0
M  V30 370 C 37.3854 0.642386 -1.57504 0
M  V30 371 O 38.5704 0.572526 -1.85569 0
M  V30 372 C 35.7004 0.619238 -3.41735 0
M  V30 373 C 34.6544 -0.157215 -4.27711 0
M  V30 374 C 33.9804 0.816273 -5.28433 0
M  V30 375 C 35.2804 -1.35656 -5.04376 0
M  V30 376 H 36.9744 -1.04276 -2.80654 0
M  V30 377 H 34.5204 -0.50288 -1.34934 0
M  V30 378 H 36.4734 1.03137 -4.08584 0
M  V30 379 H 35.1974 1.46239 -2.92031 0
M  V30 380 H 33.8564 -0.550525 -3.62443 0
M  V30 381 H 33.5044 1.65494 -4.74996 0
M  V30 382 H 33.2044 0.301067 -5.86828 0
M  V30 383 H 34.7284 1.22659 -5.98153 0
M  V30 384 H 36.1424 -1.01927 -5.64166 0
M  V30 385 H 34.5394 -1.8063 -5.7227 0
M  V30 386 H 35.6094 -2.14288 -4.34981 0
M  V30 387 N 36.9525 1.47285 -0.560781 0
M  V30 388 C 38.1775 2.07359 -0.0410566 0
M  V30 389 C 38.6025 1.41017 1.24483 0
M  V30 390 O 37.9605 0.486368 1.74654 0
M  V30 391 C 38.0085 3.6035 0.134123 0
M  V30 392 O 37.1125 3.94681 1.19587 0
M  V30 393 H 36.4535 0.661887 -0.0529291 0
M  V30 394 H 38.9835 1.89252 -0.777482 0
M  V30 395 H 38.9935 4.0652 0.347207 0
M  V30 396 H 37.6685 4.08034 -0.805047 0
M  V30 397 H 36.2455 3.60251 0.962987 0
M  V30 398 N 38.4306 0.297415 1.54768 0
M  V30 399 C 39.3606 -0.573494 2.26348 0
M  V30 400 C 40.3416 -1.14085 1.26169 0
M  V30 401 O 41.5266 -1.17086 1.54934 0
M  V30 402 C 38.6566 -1.74716 3.00153 0
M  V30 403 C 37.6106 -1.31032 4.07449 0
M  V30 404 C 36.9366 -2.56887 4.68949 0
M  V30 405 C 38.2366 -0.444183 5.20408 0
M  V30 406 H 39.9306 0.0235131 2.99391 0
M  V30 407 H 37.4766 0.0127488 1.43994 0
M  V30 408 H 39.4296 -2.3625 3.48947 0
M  V30 409 H 38.1536 -2.37035 2.24682 0
M  V30 410 H 36.8126 -0.718066 3.59499 0
M  V30 411 H 36.4606 -3.17512 3.90122 0
M  V30 412 H 36.1606 -2.2836 5.41411 0
M  V30 413 H 37.6846 -3.19229 5.20505 0
M  V30 414 H 39.0986 -0.9651 5.65118 0
M  V30 415 H 37.4956 -0.252846 5.99567 0
M  V30 416 H 38.5656 0.531609 4.81977 0
M  V30 417 N 39.9087 -1.5758 0.0250728 0
M  V30 418 C 40.8407 -2.06869 -0.986796 0
M  V30 419 C 41.8537 -0.991332 -1.29137 0
M  V30 420 O 43.0427 -1.26761 -1.25674 0
M  V30 421 C 40.1427 -2.47486 -2.31525 0
M  V30 422 C 39.3157 -3.78253 -2.19643 0
M  V30 423 C 38.3747 -4.05464 -3.35388 0
M  V30 424 O 37.4007 -4.75774 -3.12454 0
M  V30 425 N 38.6027 -3.55321 -4.59051 0
M  V30 426 H 41.3677 -2.94302 -0.566276 0
M  V30 427 H 38.9287 -1.6109 -0.161776 0
M  V30 428 H 40.9207 -2.62785 -3.07776 0
M  V30 429 H 39.4907 -1.65441 -2.65232 0
M  V30 430 H 38.7107 -3.7279 -1.28144 0
M  V30 431 H 39.9987 -4.63936 -2.08903 0
M  V30 432 H 39.3967 -2.98431 -4.80578 0
M  V30 433 H 37.9537 -3.75905 -5.32483 0
M  V30 434 N 41.3868 0.248026 -1.55636 0
M  V30 435 C 42.2968 1.32859 -1.93354 0
M  V30 436 C 43.3128 1.52719 -0.833838 0
M  V30 437 O 44.4888 1.66363 -1.13513 0
M  V30 438 C 41.5538 2.66337 -2.21958 0
M  V30 439 C 40.6148 2.55008 -3.45354 0
M  V30 440 C 39.8478 3.82121 -3.72584 0
M  V30 441 O 40.0708 4.83951 -3.01907 0
M  V30 442 O 39.0048 3.80822 -4.6611 0
M  V30 443 H 42.8308 1.03862 -2.85388 0
M  V30 444 H 40.4158 0.448686 -1.42503 0
M  V30 445 H 42.2978 3.45216 -2.4167 0
M  V30 446 H 40.9728 2.95068 -1.33103 0
M  V30 447 H 39.8798 1.7442 -3.30951 0
M  V30 448 H 41.2128 2.31222 -4.34508 0
M  V30 449 N 42.8649 1.48995 0.513639 0
M  V30 450 C 44.0929 1.61531 1.29288 0
M  V30 451 C 44.5079 0.281801 1.86685 0
M  V30 452 O 43.8649 -0.731111 1.67215 0
M  V30 453 C 43.9159 2.67449 2.43215 0
M  V30 454 O 43.6369 3.95626 1.88179 0
M  V30 455 C 45.1379 2.90575 3.34785 0
M  V30 456 H 42.3579 0.544165 0.392588 0
M  V30 457 H 44.9019 1.9494 0.617956 0
M  V30 458 H 43.0569 2.36853 3.0656 0
M  V30 459 H 43.4709 4.53868 2.62876 0
M  V30 460 H 44.9449 3.68449 4.11035 0
M  V30 461 H 45.4219 2.00011 3.91015 0
M  V30 462 H 46.0279 3.22538 2.77218 0
M  V30 463 N 44.343 -0.763751 1.37857 0
M  V30 464 C 45.759 -1.06542 1.18832 0
M  V30 465 C 45.959 -2.01478 0.0299722 0
M  V30 466 O 45.015 -2.4458 -0.627447 0
M  V30 467 C 46.328 -1.65525 2.51042 0
M  V30 468 C 47.876 -1.77745 2.57635 0
M  V30 469 C 48.351 -2.4014 3.89996 0
M  V30 470 N 49.842 -2.47582 3.91481 0
M  V30 471 C 50.577 -2.96732 4.9065 0
M  V30 472 N 50.073 -3.45993 6.00217 0
M  V30 473 N 51.866 -2.95679 4.78048 0
M  V30 474 H 44.017 -0.133556 2.1198 0
M  V30 475 H 46.28 -0.121879 0.940133 0
M  V30 476 H 45.986 -1.03236 3.36207 0
M  V30 477 H 45.86 -2.64719 2.68707 0
M  V30 478 H 48.247 -2.39164 1.72872 0
M  V30 479 H 48.328 -0.772836 2.43846 0
M  V30 480 H 47.972 -1.79358 4.75177 0
M  V30 481 H 47.902 -3.41223 4.01092 0
M  V30 482 H 50.393 -2.1273 3.12337 0
M  V30 483 H 50.706 -3.81922 6.7183 0
M  V30 484 H 49.051 -3.44077 6.03851 0
M  V30 485 H 52.242 -2.56499 3.91568 0
M  V30 486 H 52.415 -3.33672 5.55488 0
M  V30 487 N 45.8211 -1.22559 -0.990812 0
M  V30 488 C 46.7681 -0.997519 -2.0813 0
M  V30 489 C 47.7381 0.0814702 -1.659 0
M  V30 490 O 48.9231 -0.0685424 -1.90677 0
M  V30 491 C 46.0631 -0.583615 -3.40129 0
M  V30 492 C 45.1761 -1.7336 -3.9569 0
M  V30 493 C 44.3111 -1.26748 -5.15857 0
M  V30 494 C 43.3501 -2.38888 -5.63559 0
M  V30 495 N 42.4871 -1.93308 -6.74964 0
M  V30 496 H 47.3271 -1.93099 -2.26973 0
M  V30 497 H 44.8641 -0.962114 -1.11273 0
M  V30 498 H 46.8221 -0.324801 -4.15934 0
M  V30 499 H 45.4521 0.312845 -3.2128 0
M  V30 500 H 44.5041 -2.10669 -3.16738 0
M  V30 501 H 45.8161 -2.57704 -4.27071 0
M  V30 502 H 44.9701 -0.966173 -5.98957 0
M  V30 503 H 43.7091 -0.394272 -4.86104 0
M  V30 504 H 42.7141 -2.69805 -4.79046 0
M  V30 505 H 43.9391 -3.26728 -5.95336 0
M  V30 506 H 41.8851 -1.08352 -6.4699 0
M  V30 507 H 41.8021 -2.71217 -7.05675 0
M  V30 508 H 43.0701 -1.66252 -7.61564 0
M  V30 509 N 47.2992 1.18797 -1.03562 0
M  V30 510 C 48.2622 2.20464 -0.626769 0
M  V30 511 C 49.2622 1.57721 0.313173 0
M  V30 512 O 50.4522 1.73917 0.0992615 0
M  V30 513 C 47.5842 3.40802 0.0818498 0
M  V30 514 H 48.7772 2.58149 -1.5264 0
M  V30 515 H 46.3302 1.32593 -0.827578 0
M  V30 516 H 47.0652 3.08642 0.995518 0
M  V30 517 H 46.8502 3.8758 -0.593652 0
M  V30 518 H 48.3402 4.16092 0.354584 0
M  V30 519 N 48.7773 0.814389 1.34928 0
M  V30 520 C 49.7243 0.22822 2.29669 0
M  V30 521 C 50.6943 -0.642164 1.53184 0
M  V30 522 O 51.8793 -0.585605 1.81591 0
M  V30 523 C 49.0193 -0.61089 3.3965 0
M  V30 524 C 48.1323 0.280792 4.31086 0
M  V30 525 C 47.2673 -0.567067 5.28165 0
M  V30 526 C 46.3063 0.324531 6.11239 0
M  V30 527 N 45.4433 -0.483756 7.00431 0
M  V30 528 H 50.2833 1.04153 2.79206 0
M  V30 529 H 47.8203 0.525133 1.37407 0
M  V30 530 H 49.7783 -1.11263 4.0209 0
M  V30 531 H 48.4083 -1.38939 2.91369 0
M  V30 532 H 47.4603 0.900688 3.69583 0
M  V30 533 H 48.7723 0.966723 4.89342 0
M  V30 534 H 47.9263 -1.13363 5.96015 0
M  V30 535 H 46.6653 -1.28654 4.70425 0
M  V30 536 H 45.6703 0.903298 5.42329 0
M  V30 537 H 46.8953 1.04198 6.71059 0
M  V30 538 H 44.8413 -1.18706 6.45171 0
M  V30 539 H 44.7583 0.143965 7.55863 0
M  V30 540 H 46.0263 -1.03334 7.7262 0
M  V30 541 N 50.2554 -1.46986 0.568584 0
M  V30 542 C 51.4804 -2.07335 0.0520528 0
M  V30 543 C 51.9054 -1.41675 -1.23733 0
M  V30 544 O 51.2634 -0.495623 -1.74394 0
M  V30 545 C 51.3114 -3.60417 -0.11501 0
M  V30 546 O 50.4154 -3.95309 -1.17492 0
M  V30 547 H 49.7564 -0.661597 0.0564385 0
M  V30 548 H 52.2864 -1.88837 0.787507 0
M  V30 549 H 52.2964 -4.06698 -0.325644 0
M  V30 550 H 50.9714 -4.07601 0.826675 0
M  V30 551 H 49.5484 -3.60757 -0.943869 0
M  V30 552 N 51.7335 -0.305618 -1.54608 0
M  V30 553 C 52.9585 0.307562 -2.05107 0
M  V30 554 C 53.3835 1.46385 -1.18123 0
M  V30 555 O 52.7415 1.8034 -0.186324 0
M  V30 556 C 52.7895 0.73704 -3.52987 0
M  V30 557 O 51.8935 1.84134 -3.6901 0
M  V30 558 H 51.2345 0.0589143 -0.661381 0
M  V30 559 H 53.7645 -0.448807 -1.99617 0
M  V30 560 H 53.7745 1.02459 -3.94925 0
M  V30 561 H 52.4495 -0.108773 -4.15758 0
M  V30 562 H 51.0265 1.55398 -3.38978 0
M  V30 563 N 53.2116 1.57565 -0.0334293 0
M  V30 564 C 54.4366 1.96689 0.657895 0
M  V30 565 C 54.8616 0.910057 1.64619 0
M  V30 566 O 54.2196 -0.128598 1.80843 0
M  V30 567 C 54.2676 3.34905 1.33683 0
M  V30 568 O 53.3716 3.31574 2.45219 0
M  V30 569 H 52.7126 0.641205 0.172489 0
M  V30 570 H 55.2426 2.04372 -0.0965621 0
M  V30 571 H 55.2526 3.71234 1.69262 0
M  V30 572 H 53.9276 4.11366 0.612411 0
M  V30 573 H 52.5046 3.06968 2.11719 0
M  V30 574 N 54.6897 -0.239769 1.55765 0
M  V30 575 C 56.1007 -0.808263 1.68297 0
M  V30 576 C 56.4517 -1.85736 0.632181 0
M  V30 577 O 55.5767 -2.15277 -0.220204 0
M  V30 578 C 56.1717 -1.47284 3.05111 0
M  V30 579 C 54.7307 -1.98895 3.19559 0
M  V30 580 C 53.8777 -0.842575 2.64189 0
M  V30 581 H 56.8287 -0.0154422 1.58692 0
M  V30 582 H 56.8497 -2.34111 2.99954 0
M  V30 583 H 56.3617 -0.709053 3.81568 0
M  V30 584 H 54.4627 -2.78132 2.47938 0
M  V30 585 H 54.5757 -2.18143 4.26556 0
M  V30 586 H 52.9397 -1.24501 2.22197 0
M  V30 587 H 53.7227 -0.0917552 3.43177 0
M  V30 588 N 56.1678 -1.49265 -0.50573 0
M  V30 589 C 57.1148 -1.65585 -1.6078 0
M  V30 590 C 58.0848 -0.497396 -1.58478 0
M  V30 591 O 59.2698 -0.72385 -1.76536 0
M  V30 592 C 56.4098 -1.72408 -2.98948 0
M  V30 593 C 55.5228 -2.99525 -3.11301 0
M  V30 594 C 54.6578 -2.97356 -4.40174 0
M  V30 595 C 53.6968 -4.19074 -4.46143 0
M  V30 596 N 52.8338 -4.14841 -5.66437 0
M  V30 597 H 57.6738 -2.59688 -1.46172 0
M  V30 598 H 55.2108 -1.28761 -0.711261 0
M  V30 599 H 57.1688 -1.74344 -3.79025 0
M  V30 600 H 55.7988 -0.817753 -3.1227 0
M  V30 601 H 54.8508 -3.07222 -2.24318 0
M  V30 602 H 56.1628 -3.89518 -3.11572 0
M  V30 603 H 55.3168 -2.97829 -5.28567 0
M  V30 604 H 54.0558 -2.05133 -4.42461 0
M  V30 605 H 53.0608 -4.1885 -3.56153 0
M  V30 606 H 54.2858 -5.12483 -4.45575 0
M  V30 607 H 52.2318 -3.25453 -5.69575 0
M  V30 608 H 52.1488 -4.98564 -5.68304 0
M  V30 609 H 53.4168 -4.1941 -6.57051 0
M  V30 610 N 57.6459 0.756429 -1.3826 0
M  V30 611 C 58.5929 1.87011 -1.35261 0
M  V30 612 C 59.5629 1.64695 -0.215616 0
M  V30 613 O 60.7479 1.864 -0.407399 0
M  V30 614 C 57.8879 3.24275 -1.18068 0
M  V30 615 C 57.0009 3.58442 -2.41129 0
M  V30 616 C 56.1359 4.84994 -2.16689 0
M  V30 617 C 55.1749 5.11939 -3.35537 0
M  V30 618 N 54.3119 6.29685 -3.10549 0
M  V30 619 H 59.1519 1.8891 -2.30472 0
M  V30 620 H 56.6889 0.923373 -1.14509 0
M  V30 621 H 58.6469 4.03479 -1.06116 0
M  V30 622 H 57.2769 3.21711 -0.264973 0
M  V30 623 H 56.3289 2.74103 -2.63764 0
M  V30 624 H 57.6409 3.74283 -3.29717 0
M  V30 625 H 56.7949 5.72135 -2.01857 0
M  V30 626 H 55.5339 4.71286 -1.25462 0
M  V30 627 H 54.5389 4.23268 -3.50891 0
M  V30 628 H 55.7639 5.27546 -4.27635 0
M  V30 629 H 53.7099 6.17306 -2.21967 0
M  V30 630 H 53.6269 6.46014 -3.92686 0
M  V30 631 H 54.8949 7.19722 -2.99367 0
M  V30 632 N 59.124 1.23083 0.984299 0
M  V30 633 C 60.056 0.96636 2.07832 0
M  V30 634 C 61.069 -0.0582135 1.62696 0
M  V30 635 O 62.258 0.176843 1.77622 0
M  V30 636 C 59.358 0.433397 3.36117 0
M  V30 637 C 58.531 1.51722 4.10243 0
M  V30 638 C 57.59 0.989821 5.16807 0
M  V30 639 O 56.616 1.67794 5.43906 0
M  V30 640 N 57.818 -0.184367 5.80207 0
M  V30 641 H 60.583 1.90824 2.31098 0
M  V30 642 H 58.144 1.13888 1.1507 0
M  V30 643 H 60.136 0.065699 4.04647 0
M  V30 644 H 58.706 -0.413806 3.09849 0
M  V30 645 H 57.926 2.05786 3.36223 0
M  V30 646 H 59.214 2.24619 4.56534 0
M  V30 647 H 58.612 -0.760062 5.60571 0
M  V30 648 H 57.169 -0.493366 6.4993 0
M  V30 649 N 60.6021 -1.18246 1.0419 0
M  V30 650 C 61.5501 -2.23968 0.627792 0
M  V30 651 C 62.5441 -1.65828 -0.346019 0
M  V30 652 O 63.7501 -1.78733 -0.213175 0
M  V30 653 H 60.1251 -0.728939 0.184802 0
M  V30 654 H 62.0961 -2.56202 1.52981 0
M  V30 655 C 60.8451 -3.47699 0.00796591 0
M  V30 656 H 60.1681 -3.92734 0.748347 0
M  V30 657 H 61.6081 -4.23294 -0.24455 0
M  V30 658 C 60.0671 -3.13153 -1.24246 0
M  V30 659 O 60.5971 -3.27003 -2.33307 0
M  V30 660 N 58.8031 -2.67467 -1.13622 0
M  V30 661 H 58.3501 -2.56396 -0.248734 0
M  V30 662 H 58.3081 -2.44724 -1.97377 0
M  V30 663 N 62.0802 -0.821533 -1.34494 0
M  V30 664 C 63.3572 -0.33159 -1.92769 0
M  V30 665 C 63.7372 1.18088 -1.74981 0
M  V30 666 O 63.0852 1.98733 -1.12772 0
M  V30 667 C 63.2952 -0.759398 -3.40638 0
M  V30 668 C 64.6432 -0.757433 -4.1779 0
M  V30 669 O 65.6672 -0.70189 -3.49216 0
M  V30 670 O 64.5262 -0.829361 -5.4017 0
M  V30 671 H 61.6202 -0.0902502 -0.822061 0
M  V30 672 H 64.1662 -0.906231 -1.43477 0
M  V30 673 H 62.9382 -1.8012 -3.47379 0
M  V30 674 H 62.5612 -0.160378 -3.97276 0
M  V30 675 N 63.5583 1.46682 -0.576371 0
M  V30 676 C 64.8043 2.02712 -0.0596221 0
M  V30 677 C 65.1373 1.44765 1.29448 0
M  V30 678 O 64.4123 0.610355 1.84675 0
M  V30 679 C 64.6953 3.60098 0.0129503 0
M  V30 680 C 64.5483 4.28441 -1.3696 0
M  V30 681 C 65.8673 4.34224 0.71678 0
M  V30 682 H 62.9863 0.736637 -0.0231407 0
M  V30 683 H 65.6283 1.74898 -0.742351 0
M  V30 684 H 63.7783 3.83926 0.594378 0
M  V30 685 H 65.4503 4.15896 -1.9957 0
M  V30 686 H 63.6933 3.8805 -1.93907 0
M  V30 687 H 64.3643 5.3716 -1.27135 0
M  V30 688 H 66.8403 4.15503 0.222908 0
M  V30 689 H 65.7163 5.43936 0.73657 0
M  V30 690 H 65.9773 4.04823 1.77682 0
M  V30 691 N 65.0364 0.313813 1.54444 0
M  V30 692 C 66.4524 -0.0391619 1.59552 0
M  V30 693 C 66.6524 -1.51322 1.33056 0
M  V30 694 O 65.7084 -2.26782 1.11022 0
M  V30 695 C 67.0214 0.370302 2.98411 0
M  V30 696 C 68.5694 0.320139 3.11358 0
M  V30 697 C 69.0444 0.704617 4.52547 0
M  V30 698 N 70.5354 0.657645 4.58508 0
M  V30 699 C 71.2704 0.927453 5.6585 0
M  V30 700 N 70.7664 1.26389 6.81174 0
M  V30 701 N 72.5594 0.853662 5.5558 0
M  V30 702 H 64.7104 1.27433 1.69925 0
M  V30 703 H 66.9734 0.517511 0.794284 0
M  V30 704 H 66.6794 1.39694 3.22767 0
M  V30 705 H 66.5534 -0.269619 3.76235 0
M  V30 706 H 68.9404 -0.697275 2.86744 0
M  V30 707 H 69.0214 0.99486 2.35661 0
M  V30 708 H 68.6654 1.7199 4.77893 0
M  V30 709 H 68.5954 0.00768843 5.26599 0
M  V30 710 H 71.0864 0.409067 3.75679 0
M  V30 711 H 71.3994 1.4554 7.58972 0
M  V30 712 H 69.7444 1.30206 6.82694 0
M  V30 713 H 72.9354 0.590383 4.64362 0
M  V30 714 H 73.1084 1.0673 6.3915 0
M  V30 715 N 66.5145 -1.57545 0.0417849 0
M  V30 716 C 67.7605 -1.92601 -0.635021 0
M  V30 717 C 68.0935 -0.919627 -1.71045 0
M  V30 718 O 67.3685 0.0557892 -1.9442 0
M  V30 719 C 67.6515 -3.38085 -1.23979 0
M  V30 720 C 67.5045 -4.49467 -0.173057 0
M  V30 721 C 68.8235 -3.83776 -2.15416 0
M  V30 722 H 65.9425 -0.700397 -0.229374 0
M  V30 723 H 68.5845 -1.89728 0.101633 0
M  V30 724 H 66.7345 -3.40664 -1.86762 0
M  V30 725 H 68.4065 -4.59018 0.458312 0
M  V30 726 H 66.6495 -4.30909 0.499996 0
M  V30 727 H 67.3205 -5.48323 -0.636054 0
M  V30 728 H 69.7965 -3.83013 -1.62605 0
M  V30 729 H 68.6725 -4.8624 -2.54679 0
M  V30 730 H 68.9335 -3.19998 -3.05047 0
M  V30 731 N 67.9926 0.231505 -1.5589 0
M  V30 732 C 68.9396 1.28682 -1.91598 0
M  V30 733 C 69.9096 1.47071 -0.771974 0
M  V30 734 O 71.0946 1.60802 -1.027 0
M  V30 735 C 68.2346 2.6342 -2.22944 0
M  V30 736 C 67.3476 2.52912 -3.50228 0
M  V30 737 C 66.4826 3.80106 -3.7107 0
M  V30 738 C 65.5216 3.64279 -4.91902 0
M  V30 739 N 64.6586 4.834 -5.09184 0
M  V30 740 H 69.4986 0.975305 -2.81588 0
M  V30 741 H 67.0356 0.470299 -1.39379 0
M  V30 742 H 68.9936 3.41869 -2.39126 0
M  V30 743 H 67.6236 2.92687 -1.36139 0
M  V30 744 H 66.6756 1.6595 -3.42294 0
M  V30 745 H 67.9876 2.37133 -4.38827 0
M  V30 746 H 67.1416 4.66999 -3.87295 0
M  V30 747 H 65.8806 3.98799 -2.80733 0
M  V30 748 H 64.8856 2.7577 -4.75637 0
M  V30 749 H 66.1106 3.47067 -5.83714 0
M  V30 750 H 64.0566 5.02425 -4.21788 0
M  V30 751 H 63.9736 4.70311 -5.91898 0
M  V30 752 H 65.2416 5.71747 -5.29835 0
M  V30 753 N 69.4707 1.49531 0.497807 0
M  V30 754 C 70.7177 1.59179 1.25173 0
M  V30 755 C 71.0457 0.279932 1.92475 0
M  V30 756 O 70.3007 -0.732383 1.81479 0
M  V30 757 C 70.5997 2.70252 2.33878 0
M  V30 758 C 70.2657 4.11644 1.84012 0
M  V30 759 C 68.9277 4.50121 1.70132 0
M  V30 760 C 71.2797 5.00121 1.46725 0
M  V30 761 C 68.6077 5.74845 1.17348 0
M  V30 762 C 70.9597 6.25366 0.95392 0
M  V30 763 C 69.6237 6.6267 0.801538 0
M  V30 764 H 68.8937 0.582478 0.45804 0
M  V30 765 H 71.5407 1.83373 0.551948 0
M  V30 766 H 69.8457 2.40041 3.09657 0
M  V30 767 H 71.5427 2.74925 2.9192 0
M  V30 768 H 68.1327 3.81274 1.95775 0
M  V30 769 H 72.3167 4.71048 1.56294 0
M  V30 770 H 67.5727 6.02444 1.04264 0
M  V30 771 H 71.7467 6.93301 0.656225 0
M  V30 772 H 69.3737 7.59197 0.390351 0
M  V30 773 N 70.9488 -0.749086 1.3866 0
M  V30 774 C 71.8588 -1.89358 1.38494 0
M  V30 775 C 72.8748 -1.71708 0.281476 0
M  V30 776 O 74.0508 -1.94554 0.520643 0
M  V30 777 C 71.1158 -3.24782 1.21316 0
M  V30 778 C 70.1768 -3.54926 2.41508 0
M  V30 779 C 69.4098 -4.83888 2.2514 0
M  V30 780 O 69.6328 -5.56592 1.24746 0
M  V30 781 O 68.5668 -5.13612 3.13826 0
M  V30 782 H 72.3928 -1.92452 2.34938 0
M  V30 783 H 69.9778 -0.894981 1.19626 0
M  V30 784 H 71.8598 -4.05739 1.13814 0
M  V30 785 H 70.5348 -3.2249 0.279592 0
M  V30 786 H 69.4418 -2.74112 2.54585 0
M  V30 787 H 70.7748 -3.61983 3.3351 0
M  V30 788 N 72.4269 -1.23603 -0.977757 0
M  V30 789 C 73.3769 -0.986664 -2.05545 0
M  V30 790 C 74.3609 0.0683009 -1.60755 0
M  V30 791 O 75.5529 -0.144162 -1.76412 0
M  V30 792 C 72.6819 -0.582623 -3.3832 0
M  V30 793 C 71.7679 -1.67313 -3.89701 0
M  V30 794 N 72.1589 -2.90394 -4.14132 0
M  V30 795 C 70.4569 -1.54832 -4.18262 0
M  V30 796 C 71.1579 -3.61017 -4.56116 0
M  V30 797 N 70.1339 -2.8854 -4.60701 0
M  V30 798 H 73.9359 -1.92139 -2.22396 0
M  V30 799 H 71.4499 -1.1358 -1.16074 0
M  V30 800 H 73.4469 -0.38524 -4.15116 0
M  V30 801 H 72.1069 0.34503 -3.22862 0
M  V30 802 H 73.1179 -3.26673 -4.01877 0
M  V30 803 H 69.7949 -0.687969 -4.11793 0
M  V30 804 H 71.1849 -4.66544 -4.83514 0
M  V30 805 N 73.905 1.17692 -1.04816 0
M  V30 806 C 75.321 1.39863 -0.768794 0
M  V30 807 C 75.521 1.91118 0.638451 0
M  V30 808 O 74.577 2.10036 1.40146 0
M  V30 809 C 75.89 2.39274 -1.82122 0
M  V30 810 C 77.438 2.52987 -1.843 0
M  V30 811 C 77.913 3.55669 -2.88555 0
M  V30 812 N 79.404 3.63183 -2.87493 0
M  V30 813 C 80.139 4.42381 -3.64811 0
M  V30 814 N 79.635 5.25125 -4.51903 0
M  V30 815 N 81.428 4.37217 -3.53267 0
M  V30 816 H 73.579 0.82752 -1.95617 0
M  V30 817 H 75.842 0.426123 -0.846831 0
M  V30 818 H 75.548 2.08678 -2.83102 0
M  V30 819 H 75.422 3.38725 -1.65967 0
M  V30 820 H 77.809 2.82896 -0.839869 0
M  V30 821 H 77.89 1.53623 -2.04532 0
M  V30 822 H 77.534 3.26499 -3.89051 0
M  V30 823 H 77.464 4.54728 -2.65575 0
M  V30 824 H 79.955 3.04103 -2.24343 0
M  V30 825 H 80.268 5.82728 -5.07591 0
M  V30 826 H 78.613 5.24519 -4.55966 0
M  V30 827 H 81.804 3.71626 -2.84625 0
M  V30 828 H 81.977 4.98696 -4.13771 0
M  V30 829 N 75.3831 0.828654 1.34056 0
M  V30 830 C 76.6311 0.41863 1.97717 0
M  V30 831 C 76.9521 -1.02314 1.66002 0
M  V30 832 O 76.2221 -1.71119 0.953683 0
M  V30 833 H 74.8021 0.151809 0.731412 0
M  V30 834 H 77.4641 1.05936 1.63596 0
M  V30 835 H 76.5601 0.542318 3.07352 0
M  V30 836 N 76.8612 -1.46375 0.584142 0
M  V30 837 C 77.7712 -2.34115 -0.150728 0
M  V30 838 C 78.7872 -1.49838 -0.884567 0
M  V30 839 O 79.9632 -1.82704 -0.847429 0
M  V30 840 C 77.0282 -3.2705 -1.15062 0
M  V30 841 C 76.0892 -4.27228 -0.421293 0
M  V30 842 C 75.3222 -5.15722 -1.37355 0
M  V30 843 O 75.5452 -5.07176 -2.61014 0
M  V30 844 O 74.4792 -5.95383 -0.883355 0
M  V30 845 H 78.3052 -2.98309 0.569708 0
M  V30 846 H 75.8902 -1.45373 0.344535 0
M  V30 847 H 77.7722 -3.84381 -1.72712 0
M  V30 848 H 76.4472 -2.65451 -1.8525 0
M  V30 849 H 75.3542 -3.7358 0.197085 0
M  V30 850 H 76.6872 -4.91616 0.239641 0
M  V30 851 N 78.3393 -0.321999 -1.54275 0
M  V30 852 C 79.2863 0.544664 -2.24281 0
M  V30 853 C 80.2563 1.1129 -1.23303 0
M  V30 854 O 81.4413 1.15354 -1.51981 0
M  V30 855 C 78.5813 1.70045 -3.00298 0
M  V30 856 C 77.6943 1.16159 -4.1609 0
M  V30 857 C 76.8293 2.28293 -4.79641 0
M  V30 858 C 75.8683 1.71648 -5.8754 0
M  V30 859 N 75.0053 2.77438 -6.44959 0
M  V30 860 H 79.8453 -0.0588907 -2.97942 0
M  V30 861 H 77.3823 -0.0408345 -1.47043 0
M  V30 862 H 79.3403 2.38054 -3.42616 0
M  V30 863 H 77.9703 2.27531 -2.28975 0
M  V30 864 H 77.0223 0.373092 -3.78566 0
M  V30 865 H 78.3343 0.707087 -4.93763 0
M  V30 866 H 77.4883 3.0421 -5.2492 0
M  V30 867 H 76.2273 2.77079 -4.01346 0
M  V30 868 H 75.2323 0.942282 -5.41665 0
M  V30 869 H 76.4573 1.23741 -6.67731 0
M  V30 870 H 74.4033 3.25519 -5.69538 0
M  V30 871 H 74.3203 2.36547 -7.1804 0
M  V30 872 H 75.5883 3.53189 -6.94894 0
M  V30 873 N 79.8174 1.5752 -0.0501392 0
M  V30 874 C 81.2334 1.56631 0.306402 0
M  V30 875 C 81.4334 1.0577 1.71508 0
M  V30 876 O 80.4894 0.713837 2.422 0
M  V30 877 C 81.8024 3.00393 0.135811 0
M  V30 878 C 83.3504 3.12315 0.206993 0
M  V30 879 C 83.8254 4.57954 0.064944 0
M  V30 880 N 85.3164 4.63041 0.121254 0
M  V30 881 C 86.0514 5.73389 0.0354381 0
M  V30 882 N 85.5474 6.92724 -0.102666 0
M  V30 883 N 87.3404 5.62026 0.090946 0
M  V30 884 H 79.4914 1.88903 -0.971046 0
M  V30 885 H 81.7544 0.869876 -0.376855 0
M  V30 886 H 81.4604 3.41635 -0.835384 0
M  V30 887 H 81.3344 3.66373 0.897275 0
M  V30 888 H 83.7214 2.70973 1.16866 0
M  V30 889 H 83.8024 2.49016 -0.585208 0
M  V30 890 H 83.4464 4.99981 -0.893394 0
M  V30 891 H 83.3764 5.19258 0.876277 0
M  V30 892 H 85.8674 3.77216 0.227284 0
M  V30 893 H 86.1804 7.72633 -0.160882 0
M  V30 894 H 84.5254 6.94864 -0.137737 0
M  V30 895 H 87.7164 4.67684 0.197388 0
M  V30 896 H 87.8894 6.47997 0.0206089 0
M  V30 897 N 81.2955 -0.223234 1.56011 0
M  V30 898 C 82.5445 -0.945912 1.78144 0
M  V30 899 C 82.8575 -1.85567 0.618396 0
M  V30 900 O 84.0635 -2.61688 0.723318 0
M  V30 901 C 82.5195 -1.73216 3.15475 0
M  V30 902 C 82.1275 -0.868619 4.39499 0
M  V30 903 C 83.8715 -2.44615 3.46935 0
M  V30 904 C 81.7785 -1.65212 5.67855 0
M  V30 905 H 80.7085 -0.356929 0.664167 0
M  V30 906 H 83.3595 -0.199845 1.82409 0
M  V30 907 H 81.7415 -2.52107 3.05382 0
M  V30 908 H 82.9155 -0.120366 4.60643 0
M  V30 909 H 81.2305 -0.26683 4.15544 0
M  V30 910 H 83.8275 -3.03732 4.40058 0
M  V30 911 H 84.1705 -3.17417 2.69355 0
M  V30 912 H 84.7035 -1.72715 3.58349 0
M  V30 913 H 81.4425 -0.967407 6.48322 0
M  V30 914 H 80.9625 -2.37503 5.50774 0
M  V30 915 H 82.6415 -2.21322 6.07968 0
M  V30 916 N 82.7736 -1.49793 -0.48987 0
M  V30 917 C 83.7036 -1.70201 -1.59856 0
M  V30 918 C 84.6846 -0.55076 -1.60937 0
M  V30 919 O 85.8696 -0.787841 -1.77501 0
M  V30 920 C 82.9996 -1.77882 -2.98287 0
M  V30 921 C 81.9536 -2.92907 -3.12073 0
M  V30 922 C 81.2796 -2.85712 -4.51965 0
M  V30 923 C 82.5796 -4.3369 -2.91051 0
M  V30 924 H 84.2736 -2.63025 -1.43032 0
M  V30 925 H 81.8196 -1.26574 -0.686664 0
M  V30 926 H 83.7726 -1.90744 -3.75759 0
M  V30 927 H 82.4966 -0.816653 -3.16225 0
M  V30 928 H 81.1556 -2.79665 -2.37029 0
M  V30 929 H 80.8036 -1.8738 -4.66795 0
M  V30 930 H 80.5036 -3.62921 -4.62128 0
M  V30 931 H 82.0276 -3.00598 -5.31482 0
M  V30 932 H 83.4416 -4.47555 -3.58284 0
M  V30 933 H 81.8386 -5.12205 -3.12675 0
M  V30 934 H 82.9086 -4.47362 -1.87071 0
M  V30 935 N 84.2517 0.741722 -1.39055 0
M  V30 936 C 85.1837 1.8657 -1.33133 0
M  V30 937 C 86.1967 1.61001 -0.241329 0
M  V30 938 O 87.3857 1.7136 -0.499784 0
M  V30 939 C 84.4857 3.22457 -1.04283 0
M  V30 940 C 83.6587 3.75435 -2.24427 0
M  V30 941 C 82.7177 4.89867 -1.92138 0
M  V30 942 O 81.7437 5.03879 -2.64754 0
M  V30 943 N 82.9457 5.73738 -0.88347 0
M  V30 944 H 85.7107 1.92156 -2.29991 0
M  V30 945 H 83.2717 0.922172 -1.3307 0
M  V30 946 H 85.2637 3.9657 -0.807128 0
M  V30 947 H 83.8337 3.12181 -0.161807 0
M  V30 948 H 83.0537 2.92751 -2.6399 0
M  V30 949 H 84.3417 4.07563 -3.04581 0
M  V30 950 H 83.7397 5.64999 -0.281517 0
M  V30 951 H 82.2967 6.47947 -0.707662 0
M  V30 952 N 85.7298 1.2412 0.971189 0
M  V30 953 C 86.9768 1.07881 1.71371 0
M  V30 954 C 87.3048 -0.382901 1.90694 0
M  V30 955 O 86.5598 -1.29945 1.46331 0
M  V30 956 C 86.8588 1.75983 3.11071 0
M  V30 957 C 86.5248 3.25909 3.11599 0
M  V30 958 C 85.1868 3.66813 3.11451 0
M  V30 959 C 87.5388 4.21771 3.062 0
M  V30 960 C 84.8668 5.02021 3.03631 0
M  V30 961 C 87.2188 5.56982 2.99923 0
M  V30 962 C 85.8828 5.97237 2.98102 0
M  V30 963 H 85.1528 0.394764 0.62709 0
M  V30 964 H 87.7998 1.54176 1.13587 0
M  V30 965 H 86.1048 1.22072 3.72298 0
M  V30 966 H 87.8018 1.60887 3.6731 0
M  V30 967 H 84.3918 2.93353 3.12477 0
M  V30 968 H 88.5758 3.91172 3.05447 0
M  V30 969 H 83.8318 5.32411 3.0058 0
M  V30 970 H 88.0058 6.30969 2.94704 0
M  V30 971 H 85.6328 7.01967 2.91798 0
M  V30 972 N 87.2079 -1.17134 1.05439 0
M  V30 973 C 88.6189 -1.69084 0.791676 0
M  V30 974 C 88.9699 -1.83822 -0.685839 0
M  V30 975 O 88.0949 -1.52757 -1.53278 0
M  V30 976 C 88.6899 -3.07119 1.4305 0
M  V30 977 C 87.2489 -3.56225 1.21577 0
M  V30 978 C 86.3959 -2.32421 1.51247 0
M  V30 979 H 89.3469 -1.01617 1.219 0
M  V30 980 H 89.3679 -3.71087 0.84112 0
M  V30 981 H 88.8799 -2.9636 2.50584 0
M  V30 982 H 86.9809 -3.72257 0.159787 0
M  V30 983 H 87.0939 -4.38837 1.92246 0
M  V30 984 H 85.4579 -2.3701 0.932653 0
M  V30 985 H 86.2409 -2.24268 2.5992 0
M  V30 986 N 88.686 -0.835752 -1.33615 0
M  V30 987 C 90.102 -0.523139 -1.50783 0
M  V30 988 C 90.302 0.950171 -1.77691 0
M  V30 989 O 89.358 1.73411 -1.83534 0
M  V30 990 C 90.671 -1.39378 -2.66448 0
M  V30 991 C 92.219 -1.39223 -2.80332 0
M  V30 992 C 92.694 -2.24765 -3.99055 0
M  V30 993 N 94.185 -2.22458 -4.06284 0
M  V30 994 C 94.92 -2.85386 -4.97336 0
M  V30 995 N 94.416 -3.57354 -5.93523 0
M  V30 996 N 96.209 -2.74872 -4.90308 0
M  V30 997 H 88.36 -1.78952 -1.14411 0
M  V30 998 H 90.623 -0.763297 -0.562212 0
M  V30 999 H 90.329 -2.44061 -2.53234 0
M  V30 1000 H 90.203 -1.0676 -3.61776 0
M  V30 1001 H 92.59 -0.353136 -2.92979 0
M  V30 1002 H 92.671 -1.75846 -1.85773 0
M  V30 1003 H 92.315 -3.28732 -3.87167 0
M  V30 1004 H 92.245 -1.85485 -4.92852 0
M  V30 1005 H 94.736 -1.70119 -3.37443 0
M  V30 1006 H 95.049 -4.02584 -6.59656 0
M  V30 1007 H 93.394 -3.61461 -5.93608 0
M  V30 1008 H 96.585 -2.18213 -4.14126 0
M  V30 1009 H 96.758 -3.24199 -5.61069 0
M  V30 1010 N 90.1641 1.46063 -0.591896 0
M  V30 1011 C 91.5751 1.85944 -0.167822 0
M  V30 1012 C 91.9261 1.49429 1.27143 0
M  V30 1013 O 91.0511 0.913515 1.96173 0
M  V30 1014 C 91.6461 3.37489 -0.297794 0
M  V30 1015 C 90.2051 3.76332 0.0714732 0
M  V30 1016 C 89.3521 2.7006 -0.629509 0
M  V30 1017 H 92.3031 1.37087 -0.799555 0
M  V30 1018 H 92.3241 3.77532 0.474349 0
M  V30 1019 H 91.8361 3.64034 -1.3454 0
M  V30 1020 H 89.9371 3.55405 1.11886 0
M  V30 1021 H 90.0501 4.78088 -0.311245 0
M  V30 1022 H 88.4141 2.54607 -0.0687867 0
M  V30 1023 H 89.1971 2.99444 -1.67894 0
M  V30 1024 N 91.6422 0.330177 1.54103 0
M  V30 1025 C 92.8882 -0.270806 2.00984 0
M  V30 1026 C 93.2212 -1.51265 1.21789 0
M  V30 1027 O 92.4962 -1.92142 0.301927 0
M  V30 1028 C 92.7792 -0.598339 3.55094 0
M  V30 1029 C 92.6322 0.654674 4.4501 0
M  V30 1030 C 93.9512 -1.41334 4.16789 0
M  V30 1031 H 91.0702 -0.0969531 0.730595 0
M  V30 1032 H 93.7122 0.448066 1.84641 0
M  V30 1033 H 91.8622 -1.21078 3.69151 0
M  V30 1034 H 93.5342 1.29285 4.42813 0
M  V30 1035 H 91.7772 1.28224 4.14416 0
M  V30 1036 H 92.4482 0.380944 5.50684 0
M  V30 1037 H 94.9242 -0.895597 4.06347 0
M  V30 1038 H 93.8002 -1.61127 5.24718 0
M  V30 1039 H 94.0612 -2.41146 3.70541 0
M  V30 1040 N 93.1203 -1.57491 0.0584922 0
M  V30 1041 C 94.0673 -2.11958 -0.913376 0
M  V30 1042 C 95.0373 -1.02875 -1.30407 0
M  V30 1043 O 96.2223 -1.30464 -1.39226 0
M  V30 1044 C 93.3623 -2.67497 -2.18035 0
M  V30 1045 C 92.4753 -3.90691 -1.84349 0
M  V30 1046 C 91.6103 -4.3452 -3.05559 0
M  V30 1047 C 90.6493 -5.50395 -2.67827 0
M  V30 1048 N 89.7863 -5.89244 -3.81754 0
M  V30 1049 H 94.6263 -2.94704 -0.442017 0
M  V30 1050 H 92.1633 -1.45643 -0.206545 0
M  V30 1051 H 94.1213 -2.978 -2.92183 0
M  V30 1052 H 92.7513 -1.87537 -2.62735 0
M  V30 1053 H 91.8033 -3.66934 -1.00319 0
M  V30 1054 H 93.1153 -4.7489 -1.5258 0
M  V30 1055 H 92.2693 -4.66414 -3.87998 0
M  V30 1056 H 91.0083 -3.49147 -3.40511 0
M  V30 1057 H 90.0133 -5.18165 -1.83806 0
M  V30 1058 H 91.2383 -6.3749 -2.34059 0
M  V30 1059 H 89.1843 -5.06823 -4.16493 0
M  V30 1060 H 89.1013 -6.68151 -3.53708 0
M  V30 1061 H 90.3693 -6.25756 -4.64811 0
M  V30 1062 N 94.5984 0.214957 -1.56127 0
M  V30 1063 C 95.5284 1.2695 -1.95974 0
M  V30 1064 C 96.5094 1.48539 -0.828868 0
M  V30 1065 O 97.6944 1.60611 -1.09168 0
M  V30 1066 C 94.8244 2.61794 -2.28214 0
M  V30 1067 C 93.7784 2.54851 -3.43853 0
M  V30 1068 C 93.1044 3.93785 -3.61715 0
M  V30 1069 C 94.4044 2.09065 -4.78632 0
M  V30 1070 H 96.0984 0.93846 -2.84312 0
M  V30 1071 H 93.6444 0.449996 -1.36788 0
M  V30 1072 H 95.5974 3.35731 -2.54682 0
M  V30 1073 H 94.3214 2.96599 -1.36736 0
M  V30 1074 H 92.9804 1.8337 -3.17444 0
M  V30 1075 H 92.6284 4.25908 -2.67602 0
M  V30 1076 H 92.3284 3.90019 -4.39498 0
M  V30 1077 H 93.8524 4.69374 -3.90539 0
M  V30 1078 H 95.2664 2.7275 -5.04262 0
M  V30 1079 H 93.6634 2.16346 -5.59745 0
M  V30 1080 H 94.7334 1.04315 -4.73547 0
M  V30 1081 N 96.0765 1.50051 0.48192 0
M  V30 1082 C 96.9865 1.7089 1.60728 0
M  V30 1083 C 98.0025 0.591788 1.63627 0
M  V30 1084 O 99.1785 0.868817 1.81696 0
M  V30 1085 C 96.2435 1.78855 2.97005 0
M  V30 1086 C 95.3045 3.02537 3.04581 0
M  V30 1087 C 94.5375 3.10112 4.34357 0
M  V30 1088 O 94.7605 2.24765 5.24249 0
M  V30 1089 O 93.6945 4.02747 4.47301 0
M  V30 1090 H 97.5205 2.66264 1.46072 0
M  V30 1091 H 95.1055 1.34018 0.660264 0
M  V30 1092 H 96.9875 1.86336 3.77964 0
M  V30 1093 H 95.6625 0.866628 3.11883 0
M  V30 1094 H 94.5695 3.00563 2.22739 0
M  V30 1095 H 95.9025 3.94272 2.94636 0
M  V30 1096 N 97.5546 -0.734337 1.39446 0
M  V30 1097 C 98.8316 -1.48579 1.27215 0
M  V30 1098 C 99.2116 -2.1077 -0.117968 0
M  V30 1099 O 98.5596 -1.98646 -1.12924 0
M  V30 1100 C 98.7696 -2.53667 2.39696 0
M  V30 1101 C 100.118 -3.20031 2.79044 0
M  V30 1102 O 101.142 -2.6398 2.39151 0
M  V30 1103 O 100.001 -4.21455 3.47905 0
M  V30 1104 H 97.0946 -0.659816 0.49857 0
M  V30 1105 H 99.6406 -0.768106 1.51322 0
M  V30 1106 H 98.4126 -2.06096 3.32626 0
M  V30 1107 H 98.0356 -3.32994 2.17258 0
M  V30 1108 N 99.0327 -1.24633 -0.964593 0
M  V30 1109 C 99.9627 -1.06611 -2.07741 0
M  V30 1110 C 100.944 0.0218666 -1.70086 0
M  V30 1111 O 102.129 -0.145793 -1.93652 0
M  V30 1112 C 99.2587 -0.673444 -3.40708 0
M  V30 1113 C 98.2127 -1.71054 -3.92332 0
M  V30 1114 C 97.5387 -1.17285 -5.21678 0
M  V30 1115 C 98.8387 -3.10718 -4.19824 0
M  V30 1116 H 100.533 -1.99693 -2.23076 0
M  V30 1117 H 98.0787 -0.96152 -1.07195 0
M  V30 1118 H 100.032 -0.534345 -4.17998 0
M  V30 1119 H 98.7557 0.293073 -3.25282 0
M  V30 1120 H 97.4147 -1.83791 -3.17201 0
M  V30 1121 H 97.0627 -0.196847 -5.02615 0
M  V30 1122 H 96.7627 -1.86592 -5.57187 0
M  V30 1123 H 98.2867 -1.04593 -6.01575 0
M  V30 1124 H 99.7007 -3.01192 -4.87808 0
M  V30 1125 H 98.0977 -3.77406 -4.66567 0
M  V30 1126 H 99.1677 -3.58524 -3.26479 0
M  V30 1127 N 100.511 1.16574 -1.06058 0
M  V30 1128 C 101.927 1.3904 -0.783585 0
M  V30 1129 C 102.127 1.91784 0.618145 0
M  V30 1130 O 101.183 2.11511 1.37911 0
M  V30 1131 C 102.496 2.37329 -1.84649 0
M  V30 1132 C 104.044 2.51018 -1.86973 0
M  V30 1133 C 104.519 3.52588 -2.92311 0
M  V30 1134 N 106.01 3.60113 -2.91329 0
M  V30 1135 C 106.745 4.38486 -3.69482 0
M  V30 1136 N 106.241 5.20302 -4.57447 0
M  V30 1137 N 108.034 4.33446 -3.57885 0
M  V30 1138 H 100.185 0.806725 -1.96483 0
M  V30 1139 H 102.448 0.417117 -0.851303 0
M  V30 1140 H 102.154 2.05663 -2.85299 0
M  V30 1141 H 102.028 3.36946 -1.6955 0
M  V30 1142 H 104.415 2.81989 -0.869827 0
M  V30 1143 H 104.496 1.51445 -2.0615 0
M  V30 1144 H 104.14 3.22354 -3.92492 0
M  V30 1145 H 104.07 4.51886 -2.70383 0
M  V30 1146 H 106.561 3.01707 -2.27555 0
M  V30 1147 H 106.874 5.77311 -5.13743 0
M  V30 1148 H 105.219 5.19653 -4.61503 0
M  V30 1149 H 108.41 3.68586 -2.88551 0
M  V30 1150 H 108.583 4.94279 -4.19037 0
M  V30 1151 N 101.989 0.842826 1.3317 0
M  V30 1152 C 103.214 0.453129 2.02389 0
M  V30 1153 C 103.639 -0.939105 1.6298 0
M  V30 1154 O 102.997 -1.61472 0.8244 0
M  V30 1155 C 103.045 0.586094 3.55805 0
M  V30 1156 O 102.149 -0.386029 4.10589 0
M  V30 1157 H 101.49 0.183664 0.638094 0
M  V30 1158 H 104.02 1.13875 1.69981 0
M  V30 1159 H 104.03 0.469209 4.05293 0
M  V30 1160 H 102.705 1.6014 3.83833 0
M  V30 1161 H 101.282 -0.226371 3.72212 0
M  V30 1162 N 103.467 -1.45747 0.599634 0
M  V30 1163 C 104.414 -2.30467 -0.123849 0
M  V30 1164 C 105.384 -1.41632 -0.86774 0
M  V30 1165 O 106.569 -1.70568 -0.855056 0
M  V30 1166 C 103.709 -3.26402 -1.12051 0
M  V30 1167 C 102.822 -4.3034 -0.37832 0
M  V30 1168 C 101.957 -5.13389 -1.364 0
M  V30 1169 C 100.996 -6.09061 -0.609171 0
M  V30 1170 N 100.133 -6.84918 -1.54374 0
M  V30 1171 H 104.973 -2.91802 0.604627 0
M  V30 1172 H 102.51 -1.43797 0.309972 0
M  V30 1173 H 104.468 -3.80482 -1.7114 0
M  V30 1174 H 103.098 -2.66839 -1.8165 0
M  V30 1175 H 102.15 -3.78984 0.327929 0
M  V30 1176 H 103.462 -4.98354 0.210997 0
M  V30 1177 H 102.616 -5.7183 -2.02719 0
M  V30 1178 H 101.355 -4.45376 -1.98725 0
M  V30 1179 H 100.36 -5.49758 0.0676979 0
M  V30 1180 H 101.585 -6.79099 0.00891991 0
M  V30 1181 H 99.531 -6.19601 -2.15478 0
M  V30 1182 H 99.448 -7.49254 -1.00766 0
M  V30 1183 H 100.716 -7.47906 -2.19676 0
M  V30 1184 N 104.945 -0.338344 -1.53925 0
M  V30 1185 C 105.908 0.508299 -2.23493 0
M  V30 1186 C 106.908 1.03175 -1.23335 0
M  V30 1187 O 108.098 0.921826 -1.47811 0
M  V30 1188 C 105.23 1.70754 -2.95052 0
M  V30 1189 H 106.423 -0.100058 -2.99733 0
M  V30 1190 H 103.976 -0.0896198 -1.56043 0
M  V30 1191 H 104.711 2.35474 -2.22986 0
M  V30 1192 H 104.496 1.33946 -3.68512 0
M  V30 1193 H 105.986 2.30818 -3.48013 0
M  V30 1194 N 106.423 1.57458 -0.0668435 0
M  V30 1195 C 107.37 2.12439 0.902122 0
M  V30 1196 C 108.34 1.03565 1.2986 0
M  V30 1197 O 109.525 1.312 1.38532 0
M  V30 1198 C 106.665 2.6865 2.16614 0
M  V30 1199 C 105.778 3.91663 1.82274 0
M  V30 1200 C 104.913 4.36134 3.0325 0
M  V30 1201 C 103.952 5.51808 2.64904 0
M  V30 1202 N 103.089 5.9126 3.78624 0
M  V30 1203 H 107.929 2.94934 0.426382 0
M  V30 1204 H 105.466 1.4575 0.198819 0
M  V30 1205 H 107.424 2.99346 2.90599 0
M  V30 1206 H 106.054 1.88928 2.61737 0
M  V30 1207 H 105.106 3.6746 0.983719 0
M  V30 1208 H 106.418 4.75693 1.50059 0
M  V30 1209 H 105.572 4.68465 3.85519 0
M  V30 1210 H 104.311 3.50948 3.38655 0
M  V30 1211 H 103.316 5.19133 1.81055 0
M  V30 1212 H 104.541 6.38722 2.30675 0
M  V30 1213 H 102.487 5.09024 4.138 0
M  V30 1214 H 102.404 6.70018 3.5016 0
M  V30 1215 H 103.672 6.28212 4.61486 0
M  V30 1216 N 107.901 -0.206675 1.56239 0
M  V30 1217 C 109.15 -0.926964 1.79138 0
M  V30 1218 C 109.463 -1.84901 0.638043 0
M  V30 1219 O 110.669 -2.60906 0.751033 0
M  V30 1220 C 109.125 -1.6986 3.17294 0
M  V30 1221 C 108.733 -0.821956 4.40395 0
M  V30 1222 C 110.477 -2.40922 3.4951 0
M  V30 1223 C 108.384 -1.59179 5.69575 0
M  V30 1224 H 107.314 -0.349864 0.667915 0
M  V30 1225 H 109.965 -0.180487 1.8261 0
M  V30 1226 H 108.347 -2.48853 3.08039 0
M  V30 1227 H 109.521 -0.0715019 4.60745 0
M  V30 1228 H 107.836 -0.222741 4.15804 0
M  V30 1229 H 110.433 -2.99047 4.43255 0
M  V30 1230 H 110.776 -3.14542 2.72707 0
M  V30 1231 H 111.309 -1.68905 3.60161 0
M  V30 1232 H 108.048 -0.898589 6.49312 0
M  V30 1233 H 107.568 -2.31648 5.53262 0
M  V30 1234 H 109.247 -2.14862 6.10281 0
M  V30 1235 N 109.379 -1.50304 -0.473955 0
M  V30 1236 C 110.342 -1.6841 -1.55469 0
M  V30 1237 C 111.342 -0.554905 -1.50922 0
M  V30 1238 O 112.532 -0.821882 -1.53593 0
M  V30 1239 C 109.664 -1.70667 -2.95102 0
M  V30 1240 H 110.857 -2.64828 -1.40733 0
M  V30 1241 H 108.41 -1.39742 -0.700132 0
M  V30 1242 H 109.145 -0.75932 -3.15285 0
M  V30 1243 H 108.93 -2.52698 -2.9981 0
M  V30 1244 H 110.42 -1.8664 -3.73571 0
M  V30 1245 N 110.857 0.726932 -1.39834 0
M  V30 1246 C 112.104 1.48664 -1.37496 0
M  V30 1247 C 112.432 1.94482 0.0264678 0
M  V30 1248 O 111.687 1.67692 1.00886 0
M  V30 1249 C 111.986 2.73495 -2.30077 0
M  V30 1250 C 111.652 2.46502 -3.77555 0
M  V30 1251 C 110.314 2.3885 -4.17737 0
M  V30 1252 C 112.666 2.23604 -4.70798 0
M  V30 1253 C 109.994 2.06352 -5.49214 0
M  V30 1254 C 112.346 1.92622 -6.02561 0
M  V30 1255 C 111.01 1.83444 -6.41798 0
M  V30 1256 H 110.28 0.544001 -0.503135 0
M  V30 1257 H 112.927 0.833657 -1.72402 0
M  V30 1258 H 111.232 3.43575 -1.88317 0
M  V30 1259 H 112.929 3.31549 -2.25558 0
M  V30 1260 H 109.519 2.5334 -3.45712 0
M  V30 1261 H 113.703 2.28479 -4.40581 0
M  V30 1262 H 108.959 1.97776 -5.78528 0
M  V30 1263 H 113.133 1.73914 -6.74334 0
M  V30 1264 H 110.76 1.58029 -7.43593 0
M  V30 1265 N 112.336 1.25143 0.95797 0
M  V30 1266 C 113.584 1.09476 1.69881 0
M  V30 1267 C 113.905 -0.365502 1.91544 0
M  V30 1268 O 113.175 -1.25985 1.50015 0
M  V30 1269 H 111.755 0.402128 0.629525 0
M  V30 1270 H 114.417 1.57214 1.15194 0
M  V30 1271 H 113.513 1.60046 2.6794 0
M  V30 1272 N 113.814 -1.1601 1.06675 0
M  V30 1273 C 114.746 -2.20115 0.638921 0
M  V30 1274 C 115.759 -1.59916 -0.305057 0
M  V30 1275 O 116.948 -1.78245 -0.0954446 0
M  V30 1276 C 114.048 -3.38798 -0.0830083 0
M  V30 1277 C 113.221 -4.2855 0.875426 0
M  V30 1278 C 112.28 -5.25849 0.192042 0
M  V30 1279 O 111.306 -5.63102 0.830921 0
M  V30 1280 N 112.508 -5.70648 -1.06493 0
M  V30 1281 H 115.273 -2.57439 1.53444 0
M  V30 1282 H 112.834 -1.31057 0.950557 0
M  V30 1283 H 114.826 -4.00936 -0.550685 0
M  V30 1284 H 113.396 -2.99947 -0.880386 0
M  V30 1285 H 112.616 -3.63617 1.52238 0
M  V30 1286 H 113.904 -4.85393 1.52548 0
M  V30 1287 H 113.302 -5.42482 -1.60405 0
M  V30 1288 H 111.859 -6.34859 -1.47641 0
M  V30 1289 N 115.292 -0.849877 -1.32721 0
M  V30 1290 C 116.517 -0.463856 -2.02146 0
M  V30 1291 C 116.942 0.930449 -1.63476 0
M  V30 1292 O 116.3 1.61033 -0.832952 0
M  V30 1293 C 116.348 -0.604955 -3.55489 0
M  V30 1294 O 115.452 0.36425 -4.10788 0
M  V30 1295 H 114.793 -0.187046 -0.637111 0
M  V30 1296 H 117.323 -1.14775 -1.69375 0
M  V30 1297 H 117.333 -0.490696 -4.05038 0
M  V30 1298 H 116.008 -1.62174 -3.82978 0
M  V30 1299 H 114.585 0.206628 -3.72327 0
M  V30 1300 N 116.77 1.45427 -0.607355 0
M  V30 1301 C 117.703 2.27635 0.160482 0
M  V30 1302 C 118.681 1.37122 0.873857 0
M  V30 1303 O 119.865 1.66551 0.882775 0
M  V30 1304 C 116.992 3.15486 1.23231 0
M  V30 1305 C 116.038 4.21939 0.622097 0
M  V30 1306 S 116.871 5.32459 -0.569852 0
M  V30 1307 C 118.027 6.23879 0.502577 0
M  V30 1308 H 118.26 2.9241 -0.536983 0
M  V30 1309 H 115.793 1.49265 -0.394868 0
M  V30 1310 H 117.751 3.66659 1.84585 0
M  V30 1311 H 116.412 2.49977 1.90185 0
M  V30 1312 H 115.605 4.8333 1.42856 0
M  V30 1313 H 115.207 3.73906 0.0837063 0
M  V30 1314 H 117.499 6.63261 1.38171 0
M  V30 1315 H 118.442 7.0806 -0.0751759 0
M  V30 1316 H 118.85 5.58545 0.8178 0
M  V30 1317 N 118.248 0.346503 1.53744 0
M  V30 1318 C 119.525 -0.304532 1.93215 0
M  V30 1319 C 119.905 -1.67993 1.27834 0
M  V30 1320 O 119.253 -2.24411 0.430352 0
M  V30 1321 C 119.463 -0.373852 3.46992 0
M  V30 1322 C 120.811 -0.62329 4.2 0
M  V30 1323 O 121.835 -0.455847 3.53271 0
M  V30 1324 O 120.694 -0.947879 5.38217 0
M  V30 1325 H 117.788 -0.178318 0.807547 0
M  V30 1326 H 120.334 0.397895 1.64969 0
M  V30 1327 H 119.106 0.591224 3.86808 0
M  V30 1328 H 118.729 -1.12294 3.81413 0
M  V30 1329 N 119.726 -1.57421 0.075193 0
M  V30 1330 C 120.656 -2.15942 -0.888324 0
M  V30 1331 C 121.637 -1.08737 -1.30806 0
M  V30 1332 O 122.822 -1.36787 -1.37851 0
M  V30 1333 C 119.952 -2.72379 -2.1547 0
M  V30 1334 C 118.906 -3.8478 -1.87425 0
M  V30 1335 C 118.232 -4.27834 -3.20721 0
M  V30 1336 C 119.532 -5.08869 -1.17684 0
M  V30 1337 H 121.226 -2.96705 -0.400799 0
M  V30 1338 H 118.772 -1.42723 -0.191342 0
M  V30 1339 H 120.725 -3.11965 -2.83295 0
M  V30 1340 H 119.449 -1.88841 -2.6647 0
M  V30 1341 H 118.108 -3.45703 -1.22004 0
M  V30 1342 H 117.756 -3.41214 -3.6957 0
M  V30 1343 H 117.456 -5.03605 -3.02746 0
M  V30 1344 H 118.98 -4.70039 -3.89738 0
M  V30 1345 H 120.394 -5.4575 -1.75584 0
M  V30 1346 H 118.791 -5.8994 -1.09956 0
M  V30 1347 H 119.861 -4.84648 -0.156453 0
M  V30 1348 N 121.204 0.198386 -1.56346 0
M  V30 1349 C 122.154 1.2499 -1.90687 0
M  V30 1350 C 123.138 1.41158 -0.772217 0
M  V30 1351 O 124.33 1.43584 -1.03502 0
M  V30 1352 C 121.459 2.59542 -2.24706 0
M  V30 1353 C 120.545 2.47181 -3.44619 0
M  V30 1354 N 120.936 2.04495 -4.62618 0
M  V30 1355 C 119.234 2.78082 -3.48692 0
M  V30 1356 C 119.935 2.03945 -5.44776 0
M  V30 1357 N 118.911 2.45323 -4.85095 0
M  V30 1358 H 122.713 0.911149 -2.7942 0
M  V30 1359 H 120.227 0.40684 -1.57221 0
M  V30 1360 H 122.224 3.3549 -2.47491 0
M  V30 1361 H 120.884 2.94244 -1.37298 0
M  V30 1362 H 121.895 1.75256 -4.87345 0
M  V30 1363 H 118.572 3.17002 -2.71691 0
M  V30 1364 H 119.962 1.72872 -6.4928 0
M  V30 1365 N 122.682 1.50554 0.465978 0
M  V30 1366 C 123.912 1.65323 1.23903 0
M  V30 1367 C 124.32 0.338051 1.86155 0
M  V30 1368 O 123.663 -0.690518 1.70228 0
M  V30 1369 C 123.725 2.69048 2.3844 0
M  V30 1370 C 123.389 4.12462 1.96784 0
M  V30 1371 C 124.386 4.98168 1.48745 0
M  V30 1372 C 122.071 4.58407 2.05349 0
M  V30 1373 C 124.065 6.27868 1.0982 0
M  V30 1374 C 121.752 5.88112 1.66035 0
M  V30 1375 C 122.75 6.72668 1.18349 0
M  V30 1376 O 122.438 7.99951 0.795825 0
M  V30 1377 H 122.17 0.558629 0.38067 0
M  V30 1378 H 124.724 1.97561 0.562022 0
M  V30 1379 H 122.954 2.32062 3.09328 0
M  V30 1380 H 124.643 2.72985 3.0039 0
M  V30 1381 H 125.409 4.63885 1.41546 0
M  V30 1382 H 121.288 3.92735 2.41414 0
M  V30 1383 H 124.832 6.93819 0.725293 0
M  V30 1384 H 120.729 6.21914 1.72895 0
M  V30 1385 H 121.497 8.13265 0.924222 0
M  V30 1386 N 124.16 -0.719506 1.40217 0
M  V30 1387 C 125.388 -1.50864 1.41589 0
M  V30 1388 C 125.803 -1.88794 0.0145275 0
M  V30 1389 O 125.16 -1.55174 -0.960594 0
M  V30 1390 C 125.211 -2.78646 2.30302 0
M  V30 1391 O 124.932 -2.42321 3.64983 0
M  V30 1392 C 126.433 -3.72569 2.40224 0
M  V30 1393 H 123.653 -0.465709 0.48307 0
M  V30 1394 H 126.197 -0.88785 1.84221 0
M  V30 1395 H 124.352 -3.37019 1.91042 0
M  V30 1396 H 124.766 -3.24514 4.12057 0
M  V30 1397 H 126.24 -4.5908 3.06512 0
M  V30 1398 H 126.717 -4.15403 1.42608 0
M  V30 1399 H 127.323 -3.20109 2.80019 0
M  V30 1400 N 125.638 -1.25649 -0.95132 0
M  V30 1401 C 126.586 -1.06118 -2.06982 0
M  V30 1402 C 127.58 0.00889169 -1.69398 0
M  V30 1403 O 128.786 -0.146988 -1.79399 0
M  V30 1404 H 125.161 -0.326248 -0.677544 0
M  V30 1405 H 127.132 -2.00932 -2.2061 0
M  V30 1406 C 125.881 -0.700145 -3.40578 0
M  V30 1407 H 125.204 -1.51537 -3.69968 0
M  V30 1408 H 126.644 -0.603211 -4.19687 0
M  V30 1409 C 125.103 0.59403 -3.31622 0
M  V30 1410 O 125.633 1.63522 -3.66911 0
M  V30 1411 N 123.839 0.58089 -2.84735 0
M  V30 1412 H 123.386 -0.266783 -2.56215 0
M  V30 1413 H 123.344 1.44695 -2.79125 0
M  V30 1414 N 127.117 1.15442 -1.07289 0
M  V30 1415 C 128.065 2.22225 -0.686952 0
M  V30 1416 C 129.059 1.66688 0.30193 0
M  V30 1417 O 130.265 1.79236 0.165712 0
M  V30 1418 H 126.64 0.723783 -0.204064 0
M  V30 1419 H 128.611 2.52056 -1.5972 0
M  V30 1420 C 127.36 3.47556 -0.100149 0
M  V30 1421 H 126.683 3.90612 -0.852211 0
M  V30 1422 H 128.123 4.23794 0.132235 0
M  V30 1423 C 126.582 3.16337 1.159 0
M  V30 1424 O 127.112 3.33074 2.24555 0
M  V30 1425 N 125.318 2.70385 1.06491 0
M  V30 1426 H 124.865 2.56966 0.180668 0
M  V30 1427 H 124.823 2.49871 1.90819 0
M  V30 1428 N 128.595 0.856903 1.32268 0
M  V30 1429 C 129.505 0.306131 2.32594 0
M  V30 1430 C 130.521 -0.577209 1.64147 0
M  V30 1431 O 131.697 -0.477043 1.95669 0
M  V30 1432 C 128.762 -0.494561 3.43154 0
M  V30 1433 C 127.823 0.415186 4.27288 0
M  V30 1434 C 127.056 -0.347387 5.32568 0
M  V30 1435 O 127.279 -1.57708 5.48165 0
M  V30 1436 O 126.213 0.287982 6.01211 0
M  V30 1437 H 130.039 1.13737 2.81598 0
M  V30 1438 H 127.624 0.619902 1.35932 0
M  V30 1439 H 129.506 -0.948944 4.10576 0
M  V30 1440 H 128.181 -1.30257 2.96336 0
M  V30 1441 H 127.088 0.917793 3.62667 0
M  V30 1442 H 128.421 1.18844 4.77637 0
M  V30 1443 N 130.073 -1.45103 0.615059 0
M  V30 1444 C 131.003 -2.33339 -0.0865619 0
M  V30 1445 C 131.984 -1.4727 -0.851209 0
M  V30 1446 O 133.169 -1.76026 -0.820281 0
M  V30 1447 C 130.299 -3.30095 -1.07956 0
M  V30 1448 C 129.253 -4.25858 -0.427628 0
M  V30 1449 C 128.579 -5.12361 -1.5294 0
M  V30 1450 C 129.879 -5.18165 0.655944 0
M  V30 1451 H 131.573 -2.92254 0.650224 0
M  V30 1452 H 129.119 -1.40532 0.314138 0
M  V30 1453 H 131.072 -3.90698 -1.57901 0
M  V30 1454 H 129.796 -2.69355 -1.84703 0
M  V30 1455 H 128.455 -3.66564 0.0510292 0
M  V30 1456 H 128.103 -4.47984 -2.28734 0
M  V30 1457 H 127.803 -5.77238 -1.09865 0
M  V30 1458 H 129.327 -5.75833 -2.03098 0
M  V30 1459 H 130.741 -5.72796 0.240257 0
M  V30 1460 H 129.138 -5.91559 1.00888 0
M  V30 1461 H 130.208 -4.60144 1.52957 0
M  V30 1462 N 131.551 -0.354651 -1.53558 0
M  V30 1463 C 132.797 0.238797 -2.01389 0
M  V30 1464 C 133.13 1.49309 -1.2418 0
M  V30 1465 O 132.405 1.91638 -0.332457 0
M  V30 1466 C 132.688 0.541771 -3.56001 0
M  V30 1467 C 132.541 -0.725388 -4.43912 0
M  V30 1468 C 133.86 1.34685 -4.18984 0
M  V30 1469 H 130.979 0.0853177 -0.732045 0
M  V30 1470 H 133.621 -0.477384 -1.83905 0
M  V30 1471 H 131.771 1.15189 -3.71031 0
M  V30 1472 H 133.443 -1.36313 -4.407 0
M  V30 1473 H 131.686 -1.34801 -4.12324 0
M  V30 1474 H 132.357 -0.468505 -5.50008 0
M  V30 1475 H 134.833 0.830837 -4.07721 0
M  V30 1476 H 133.709 1.52759 -5.27215 0
M  V30 1477 H 133.97 2.35221 -3.74331 0
M  V30 1478 N 133.029 1.57378 -0.0835403 0
M  V30 1479 C 134.278 1.93106 0.582498 0
M  V30 1480 C 134.591 0.96651 1.70053 0
M  V30 1481 O 135.797 1.21705 2.42693 0
M  V30 1482 C 134.253 3.43076 1.08751 0
M  V30 1483 C 133.861 4.48 -0.000146404 0
M  V30 1484 C 135.605 3.87785 1.72694 0
M  V30 1485 C 133.512 5.89113 0.519568 0
M  V30 1486 H 132.442 0.720775 0.221358 0
M  V30 1487 H 135.093 1.82821 -0.157675 0
M  V30 1488 H 133.475 3.48474 1.88101 0
M  V30 1489 H 134.649 4.54233 -0.775199 0
M  V30 1490 H 132.964 4.1283 -0.54406 0
M  V30 1491 H 135.561 4.90604 2.1263 0
M  V30 1492 H 135.904 3.25796 2.59158 0
M  V30 1493 H 136.437 3.8504 0.999457 0
M  V30 1494 H 133.176 6.54775 -0.308186 0
M  V30 1495 H 132.696 5.86376 1.26188 0
M  V30 1496 H 134.375 6.39346 0.992237 0
M  V30 1497 N 134.507 -0.190092 1.56449 0
M  V30 1498 C 135.918 -0.754312 1.70784 0
M  V30 1499 C 136.269 -1.83631 0.690951 0
M  V30 1500 O 135.394 -2.15868 -0.151604 0
M  V30 1501 C 135.989 -1.37503 3.09642 0
M  V30 1502 C 134.548 -1.88628 3.25725 0
M  V30 1503 C 133.695 -0.758098 2.66736 0
M  V30 1504 H 136.646 0.0350524 1.58661 0
M  V30 1505 H 136.667 -2.2445 3.0725 0
M  V30 1506 H 136.179 -0.587302 3.83631 0
M  V30 1507 H 134.28 -2.70103 2.56661 0
M  V30 1508 H 134.393 -2.04462 4.3328 0
M  V30 1509 H 132.757 -1.17369 2.26046 0
M  V30 1510 H 133.54 0.0174705 3.43296 0
M  V30 1511 N 135.985 -1.50799 -0.457987 0
M  V30 1512 C 136.915 -1.73553 -1.5621 0
M  V30 1513 C 137.896 -0.584774 -1.59732 0
M  V30 1514 O 139.081 -0.825314 -1.7579 0
M  V30 1515 C 136.211 -1.84169 -2.94447 0
M  V30 1516 C 135.165 -2.99461 -3.0579 0
M  V30 1517 C 134.491 -2.95235 -4.45803 0
M  V30 1518 C 135.791 -4.39766 -2.81786 0
M  V30 1519 H 137.485 -2.66 -1.37421 0
M  V30 1520 H 135.031 -1.28002 -0.659662 0
M  V30 1521 H 136.984 -1.98672 -3.71628 0
M  V30 1522 H 135.708 -0.883545 -3.14422 0
M  V30 1523 H 134.367 -2.8463 -2.31044 0
M  V30 1524 H 134.015 -1.97239 -4.62715 0
M  V30 1525 H 133.715 -3.72642 -4.54326 0
M  V30 1526 H 135.239 -3.11803 -5.24987 0
M  V30 1527 H 136.653 -4.55054 -3.4871 0
M  V30 1528 H 135.05 -5.18722 -3.0174 0
M  V30 1529 H 136.12 -4.51229 -1.7754 0
M  V30 1530 N 137.463 0.71206 -1.40597 0
M  V30 1531 C 138.691 1.50111 -1.42388 0
M  V30 1532 C 139.106 1.88784 -0.0245395 0
M  V30 1533 O 138.463 1.55681 0.952351 0
M  V30 1534 C 138.514 2.7742 -2.31776 0
M  V30 1535 O 138.235 2.40382 -3.66262 0
M  V30 1536 C 139.736 3.7129 -2.42196 0
M  V30 1537 H 136.956 0.46314 -0.485533 0
M  V30 1538 H 139.5 0.878068 -1.8469 0
M  V30 1539 H 137.655 3.36001 -1.92827 0
M  V30 1540 H 138.069 3.22324 -4.13772 0
M  V30 1541 H 139.543 4.57448 -3.08943 0
M  V30 1542 H 140.02 4.14641 -1.44809 0
M  V30 1543 H 140.626 3.18619 -2.81712 0
M  V30 1544 N 138.941 1.26152 0.944643 0
M  V30 1545 C 140.169 1.14259 1.72489 0
M  V30 1546 C 140.584 -0.302555 1.8636 0
M  V30 1547 O 139.941 -1.20741 1.36849 0
M  V30 1548 C 139.992 1.80266 3.13347 0
M  V30 1549 O 139.713 3.19133 3.00143 0
M  V30 1550 C 141.214 1.74283 4.07603 0
M  V30 1551 H 138.434 0.398051 0.540181 0
M  V30 1552 H 140.978 1.66706 1.18446 0
M  V30 1553 H 139.133 1.31766 3.64303 0
M  V30 1554 H 139.547 3.51744 3.89071 0
M  V30 1555 H 141.021 2.25111 5.04013 0
M  V30 1556 H 141.498 0.708631 4.33446 0
M  V30 1557 H 142.104 2.22319 3.62567 0
M  V30 1558 N 140.419 -1.14872 1.07899 0
M  V30 1559 C 141.351 -2.19425 0.662231 0
M  V30 1560 C 142.364 -1.60231 -0.288079 0
M  V30 1561 O 143.553 -1.78336 -0.076534 0
M  V30 1562 C 140.653 -3.38867 -0.0470695 0
M  V30 1563 C 139.826 -4.27597 0.920831 0
M  V30 1564 C 138.885 -5.25616 0.247805 0
M  V30 1565 O 137.911 -5.62189 0.890599 0
M  V30 1566 N 139.113 -5.71746 -1.00435 0
M  V30 1567 H 141.878 -2.55797 1.56166 0
M  V30 1568 H 139.439 -1.30042 0.964404 0
M  V30 1569 H 141.431 -4.01497 -0.50813 0
M  V30 1570 H 140.001 -3.00864 -0.848523 0
M  V30 1571 H 139.221 -3.61982 1.56087 0
M  V30 1572 H 140.509 -4.83748 1.57688 0
M  V30 1573 H 139.907 -5.44153 -1.54642 0
M  V30 1574 H 138.464 -6.36389 -1.40899 0
M  V30 1575 N 141.898 -0.863906 -1.31812 0
M  V30 1576 C 143.175 -0.39275 -1.91616 0
M  V30 1577 C 143.555 1.12461 -1.7865 0
M  V30 1578 O 142.903 1.95045 -1.19037 0
M  V30 1579 C 143.113 -0.867385 -3.38049 0
M  V30 1580 C 144.461 -0.889966 -4.15168 0
M  V30 1581 O 145.485 -0.812635 -3.46806 0
M  V30 1582 O 144.344 -1.00079 -5.37258 0
M  V30 1583 H 141.438 -0.116358 -0.818773 0
M  V30 1584 H 143.984 -0.951418 -1.40521 0
M  V30 1585 H 142.756 -1.91081 -3.41473 0
M  V30 1586 H 142.379 -0.286687 -3.96565 0
M  V30 1587 N 143.376 1.44774 -0.622745 0
M  V30 1588 C 144.653 1.95522 -0.0551974 0
M  V30 1589 C 145.033 1.5649 1.41683 0
M  V30 1590 O 144.381 0.834848 2.12703 0
M  V30 1591 C 144.591 3.4796 -0.269242 0
M  V30 1592 C 145.939 4.24306 -0.158014 0
M  V30 1593 O 146.963 3.55637 -0.200162 0
M  V30 1594 O 145.822 5.46471 -0.0558693 0
M  V30 1595 H 142.916 0.826556 0.0271015 0
M  V30 1596 H 145.462 1.54866 -0.693864 0
M  V30 1597 H 144.234 3.6939 -1.29099 0
M  V30 1598 H 143.857 3.95543 0.403966 0
M  V30 1599 N 144.854 0.36279 1.53368 0
M  V30 1600 C 145.784 -0.476976 2.28576 0
M  V30 1601 C 146.765 -1.08631 1.30894 0
M  V30 1602 O 147.95 -1.10409 1.59761 0
M  V30 1603 C 145.08 -1.61828 3.07293 0
M  V30 1604 C 144.034 -1.13633 4.1264 0
M  V30 1605 C 143.36 -2.36766 4.79423 0
M  V30 1606 C 144.66 -0.223061 5.21823 0
M  V30 1607 H 146.354 0.150474 2.99022 0
M  V30 1608 H 143.9 0.0738103 1.43811 0
M  V30 1609 H 145.853 -2.21237 3.58653 0
M  V30 1610 H 144.577 -2.27292 2.34533 0
M  V30 1611 H 143.236 -0.564945 3.62221 0
M  V30 1612 H 142.884 -3.0068 4.03238 0
M  V30 1613 H 142.584 -2.05192 5.50609 0
M  V30 1614 H 144.108 -2.96865 5.33576 0
M  V30 1615 H 145.522 -0.724545 5.68703 0
M  V30 1616 H 143.919 0.001678 6.001 0
M  V30 1617 H 144.989 0.735553 4.79289 0
M  V30 1618 N 146.332 -1.57332 0.0918853 0
M  V30 1619 C 147.609 -1.85691 -0.614668 0
M  V30 1620 C 147.989 -0.988146 -1.86545 0
M  V30 1621 O 147.337 -0.0597055 -2.28422 0
M  V30 1622 C 147.547 -3.36294 -0.933126 0
M  V30 1623 C 148.895 -4.04275 -1.29796 0
M  V30 1624 O 149.919 -3.41157 -1.02424 0
M  V30 1625 O 148.778 -5.1564 -1.81047 0
M  V30 1626 H 145.872 -0.767802 -0.307261 0
M  V30 1627 H 148.418 -1.69244 0.12434 0
M  V30 1628 H 147.19 -3.91273 -0.0456404 0
M  V30 1629 H 146.813 -3.58076 -1.72822 0
M  V30 1630 N 147.81 0.181792 -1.56548 0
M  V30 1631 C 148.757 1.22521 -1.95595 0
M  V30 1632 C 149.727 1.4454 -0.818373 0
M  V30 1633 O 150.912 1.57454 -1.07763 0
M  V30 1634 C 148.052 2.56193 -2.31212 0
M  V30 1635 C 147.165 2.41641 -3.58097 0
M  V30 1636 C 146.3 3.68108 -3.82975 0
M  V30 1637 C 145.339 3.48445 -5.03242 0
M  V30 1638 N 144.476 4.66956 -5.24306 0
M  V30 1639 H 149.316 0.885226 -2.84548 0
M  V30 1640 H 146.853 0.425718 -1.40805 0
M  V30 1641 H 148.811 3.34088 -2.49882 0
M  V30 1642 H 147.441 2.88208 -1.45382 0
M  V30 1643 H 146.493 1.54976 -3.474 0
M  V30 1644 H 147.805 2.23052 -4.46149 0
M  V30 1645 H 146.959 4.54441 -4.01956 0
M  V30 1646 H 145.698 3.89666 -2.93278 0
M  V30 1647 H 144.703 2.60499 -4.8417 0
M  V30 1648 H 145.928 3.2832 -5.9446 0
M  V30 1649 H 143.874 4.88752 -4.37559 0
M  V30 1650 H 143.791 4.51242 -6.06561 0
M  V30 1651 H 145.059 5.54602 -5.47756 0
M  V30 1652 N 149.288 1.51039 0.449983 0
M  V30 1653 C 150.251 1.70863 1.5277 0
M  V30 1654 C 151.251 0.578846 1.5002 0
M  V30 1655 O 152.441 0.846213 1.52266 0
M  V30 1656 C 149.573 1.75341 2.9235 0
M  V30 1657 H 150.766 2.67034 1.36502 0
M  V30 1658 H 148.319 1.40838 0.677812 0
M  V30 1659 H 149.054 0.809383 3.14037 0
M  V30 1660 H 148.839 2.57436 2.95752 0
M  V30 1661 H 150.329 1.92559 3.70555 0
M  V30 1662 N 150.766 -0.704594 1.40972 0
M  V30 1663 C 152.012 -1.46675 1.40051 0
M  V30 1664 C 152.345 -1.94199 0.00641102 0
M  V30 1665 O 151.62 -1.68916 -0.964235 0
M  V30 1666 C 151.903 -2.68505 2.39952 0
M  V30 1667 C 151.756 -2.26805 3.88432 0
M  V30 1668 C 153.075 -3.70686 2.37233 0
M  V30 1669 H 150.194 -0.532015 0.510028 0
M  V30 1670 H 152.836 -0.803255 1.72185 0
M  V30 1671 H 150.986 -3.25114 2.1268 0
M  V30 1672 H 152.658 -1.75592 4.26574 0
M  V30 1673 H 150.901 -1.58685 4.03734 0
M  V30 1674 H 151.572 -3.14181 4.53866 0
M  V30 1675 H 154.048 -3.23731 2.61415 0
M  V30 1676 H 152.924 -4.53553 3.09162 0
M  V30 1677 H 153.185 -4.19754 1.38777 0
M  V30 1678 N 152.244 -1.26651 -0.937939 0
M  V30 1679 C 153.154 -1.10276 -2.07066 0
M  V30 1680 C 154.17 -0.0354197 -1.73964 0
M  V30 1681 O 155.346 -0.239816 -1.99967 0
M  V30 1682 C 152.411 -0.740887 -3.38691 0
M  V30 1683 C 151.472 -1.88799 -3.85556 0
M  V30 1684 C 150.705 -1.54329 -5.10899 0
M  V30 1685 O 150.928 -0.446494 -5.6865 0
M  V30 1686 O 149.862 -2.37911 -5.52885 0
M  V30 1687 H 153.688 -2.05309 -2.23789 0
M  V30 1688 H 151.273 -1.05743 -1.0554 0
M  V30 1689 H 153.155 -0.55195 -4.1777 0
M  V30 1690 H 151.83 0.180022 -3.23199 0
M  V30 1691 H 150.737 -2.13191 -3.07409 0
M  V30 1692 H 152.07 -2.78874 -4.05574 0
M  V30 1693 N 153.722 1.14298 -1.08507 0
M  V30 1694 C 154.652 2.21542 -0.737646 0
M  V30 1695 C 155.633 1.67773 0.280377 0
M  V30 1696 O 156.818 1.93616 0.150521 0
M  V30 1697 C 153.948 3.46988 -0.147259 0
M  V30 1698 C 152.902 4.13789 -1.09374 0
M  V30 1699 C 152.228 5.33449 -0.365524 0
M  V30 1700 C 153.528 4.62208 -2.4323 0
M  V30 1701 H 155.222 2.5086 -1.6343 0
M  V30 1702 H 152.768 1.20576 -0.787243 0
M  V30 1703 H 154.721 4.21262 0.107808 0
M  V30 1704 H 153.445 3.17037 0.784538 0
M  V30 1705 H 152.104 3.4147 -1.33393 0
M  V30 1706 H 151.752 4.99759 0.57011 0
M  V30 1707 H 151.452 5.79088 -0.996512 0
M  V30 1708 H 152.976 6.10485 -0.118534 0
M  V30 1709 H 154.39 5.27952 -2.23472 0
M  V30 1710 H 152.787 5.18553 -3.02031 0
M  V30 1711 H 153.857 3.77224 -3.04681 0
M  V30 1712 N 155.201 0.870884 1.31352 0
M  V30 1713 C 156.131 0.343096 2.30966 0
M  V30 1714 C 157.112 -0.566507 1.60389 0
M  V30 1715 O 158.297 -0.483336 1.88089 0
M  V30 1716 C 155.427 -0.455487 3.443 0
M  V30 1717 C 154.381 0.361103 4.26474 0
M  V30 1718 C 153.707 -0.563221 5.31725 0
M  V30 1719 C 155.007 1.59566 4.97329 0
M  V30 1720 H 156.701 1.17548 2.75359 0
M  V30 1721 H 154.247 0.566686 1.32381 0
M  V30 1722 H 156.2 -0.83525 4.13039 0
M  V30 1723 H 154.924 -1.32139 2.98675 0
M  V30 1724 H 153.583 0.722825 3.59403 0
M  V30 1725 H 153.231 -1.42643 4.82351 0
M  V30 1726 H 152.931 -0.0207409 5.87596 0
M  V30 1727 H 154.455 -0.939808 6.03324 0
M  V30 1728 H 155.869 1.28728 5.58661 0
M  V30 1729 H 154.266 2.07728 5.63 0
M  V30 1730 H 155.336 2.34798 4.24262 0
M  V30 1731 N 156.679 -1.44442 0.630414 0
M  V30 1732 C 157.956 -1.9549 0.0655657 0
M  V30 1733 C 158.336 -1.5724 -1.40851 0
M  V30 1734 O 157.684 -0.846116 -2.12257 0
M  V30 1735 C 157.894 -3.47812 0.287691 0
M  V30 1736 C 159.242 -4.24216 0.180513 0
M  V30 1737 O 160.266 -3.55526 0.219019 0
M  V30 1738 O 159.125 -5.46434 0.0848493 0
M  V30 1739 H 156.219 -0.826688 -0.0227177 0
M  V30 1740 H 158.765 -1.54496 0.702068 0
M  V30 1741 H 157.537 -3.687 1.31056 0
M  V30 1742 H 157.16 -3.95751 -0.382984 0
M  V30 1743 N 158.157 -0.370918 -1.53173 0
M  V30 1744 C 159.573 -0.0200818 -1.59587 0
M  V30 1745 C 159.773 1.46279 -1.38581 0
M  V30 1746 O 158.829 2.22506 -1.19363 0
M  V30 1747 C 160.142 -0.4808 -2.96831 0
M  V30 1748 C 161.69 -0.435477 -3.09956 0
M  V30 1749 C 162.165 -0.872092 -4.4962 0
M  V30 1750 N 163.656 -0.827364 -4.55751 0
M  V30 1751 C 164.391 -1.13683 -5.62018 0
M  V30 1752 N 163.887 -1.51584 -6.76014 0
M  V30 1753 N 165.68 -1.05927 -5.52029 0
M  V30 1754 H 157.831 -1.33652 -1.65079 0
M  V30 1755 H 160.094 -0.546634 -0.774529 0
M  V30 1756 H 159.8 -1.51577 -3.1736 0
M  V30 1757 H 159.674 0.129796 -3.76977 0
M  V30 1758 H 162.061 0.590371 -2.89134 0
M  V30 1759 H 162.142 -1.08164 -2.31806 0
M  V30 1760 H 161.786 -1.89608 -4.71181 0
M  V30 1761 H 161.716 -0.203127 -5.26208 0
M  V30 1762 H 164.207 -0.548216 -3.73902 0
M  V30 1763 H 164.52 -1.73609 -7.53047 0
M  V30 1764 H 162.865 -1.55454 -6.77391 0
M  V30 1765 H 166.056 -0.762321 -4.61851 0
M  V30 1766 H 166.229 -1.30378 -6.34749 0
M  V30 1767 N 159.635 1.57281 -0.100228 0
M  V30 1768 C 160.86 1.99302 0.573881 0
M  V30 1769 C 161.285 0.979059 1.60611 0
M  V30 1770 O 160.643 -0.0517803 1.81226 0
M  V30 1771 C 160.691 3.40274 1.19358 0
M  V30 1772 O 159.795 3.41676 2.30935 0
M  V30 1773 H 159.136 0.647944 0.145138 0
M  V30 1774 H 161.666 2.03779 -0.183156 0
M  V30 1775 H 161.676 3.78078 1.53365 0
M  V30 1776 H 160.351 4.13594 0.437385 0
M  V30 1777 H 158.928 3.15672 1.98509 0
M  V30 1778 N 161.113 -0.173488 1.56642 0
M  V30 1779 C 162.362 -0.888758 1.81063 0
M  V30 1780 C 162.675 -1.83506 0.67712 0
M  V30 1781 O 163.881 -2.59254 0.806206 0
M  V30 1782 C 162.337 -1.63091 3.20826 0
M  V30 1783 C 161.945 -0.728357 4.4204 0
M  V30 1784 C 163.689 -2.33454 3.54541 0
M  V30 1785 C 161.596 -1.47062 5.72823 0
M  V30 1786 H 160.526 -0.335618 0.675186 0
M  V30 1787 H 163.177 -0.141712 1.82952 0
M  V30 1788 H 161.559 -2.42263 3.13248 0
M  V30 1789 H 162.733 0.0262449 4.60793 0
M  V30 1790 H 161.048 -0.134492 4.16183 0
M  V30 1791 H 163.645 -2.89578 4.49498 0
M  V30 1792 H 163.988 -3.08687 2.79317 0
M  V30 1793 H 164.521 -1.61227 3.63663 0
M  V30 1794 H 161.26 -0.760658 6.51072 0
M  V30 1795 H 160.78 -2.1986 5.58052 0
M  V30 1796 H 162.459 -2.01868 6.14702 0
M  V30 1797 N 162.591 -1.51276 -0.441967 0
M  V30 1798 C 163.541 -1.6864 -1.53442 0
M  V30 1799 C 164.525 -0.540444 -1.51552 0
M  V30 1800 O 165.717 -0.796157 -1.58083 0
M  V30 1801 C 162.846 -1.8106 -2.91672 0
M  V30 1802 C 161.932 -3.01424 -2.98336 0
M  V30 1803 N 162.323 -4.2467 -2.74752 0
M  V30 1804 C 160.621 -3.00584 -3.29493 0
M  V30 1805 C 161.322 -5.05891 -2.87139 0
M  V30 1806 N 160.298 -4.40442 -3.18609 0
M  V30 1807 H 164.1 -2.61598 -1.33954 0
M  V30 1808 H 161.614 -1.4886 -0.6492 0
M  V30 1809 H 163.611 -1.91609 -3.70259 0
M  V30 1810 H 162.271 -0.892795 -3.12185 0
M  V30 1811 H 163.282 -4.53691 -2.49769 0
M  V30 1812 H 159.959 -2.18417 -3.55809 0
M  V30 1813 H 161.349 -6.13983 -2.72899 0
M  V30 1814 N 164.069 0.697108 -1.41344 0
M  V30 1815 C 165.002 1.82134 -1.37486 0
M  V30 1816 C 165.98 1.60784 -0.242351 0
M  V30 1817 O 167.164 1.83553 -0.429012 0
M  V30 1818 C 164.291 3.18788 -1.14421 0
M  V30 1819 C 163.337 3.58932 -2.3037 0
M  V30 1820 S 164.17 3.63916 -3.92843 0
M  V30 1821 C 165.326 5.03298 -3.72078 0
M  V30 1822 H 165.559 1.85129 -2.32625 0
M  V30 1823 H 163.092 0.865671 -1.2785 0
M  V30 1824 H 165.05 3.97677 -1.018 0
M  V30 1825 H 163.711 3.13404 -0.20905 0
M  V30 1826 H 162.904 4.58202 -2.09922 0
M  V30 1827 H 162.506 2.87347 -2.39391 0
M  V30 1828 H 164.798 5.90753 -3.31688 0
M  V30 1829 H 165.741 5.28788 -4.70945 0
M  V30 1830 H 166.149 4.74764 -3.05384 0
M  V30 1831 N 165.547 1.27147 0.931209 0
M  V30 1832 C 166.494 1.09568 2.03134 0
M  V30 1833 C 167.464 -0.00222433 1.661 0
M  V30 1834 O 168.649 0.159439 1.90133 0
M  V30 1835 C 165.789 0.745231 3.36957 0
M  V30 1836 C 164.902 1.92041 3.86968 0
M  V30 1837 C 164.037 1.51216 5.09222 0
M  V30 1838 C 163.076 2.65504 5.5152 0
M  V30 1839 N 162.213 2.25291 6.64972 0
M  V30 1840 H 167.053 2.03708 2.17502 0
M  V30 1841 H 164.59 1.01411 1.06556 0
M  V30 1842 H 166.548 0.522878 4.1391 0
M  V30 1843 H 165.178 -0.159202 3.22407 0
M  V30 1844 H 164.23 2.25541 3.06326 0
M  V30 1845 H 165.542 2.77787 4.1429 0
M  V30 1846 H 164.696 1.25084 5.93666 0
M  V30 1847 H 163.435 0.625749 4.83669 0
M  V30 1848 H 162.44 2.92354 4.65628 0
M  V30 1849 H 163.665 3.54761 5.7907 0
M  V30 1850 H 161.611 1.39098 6.41083 0
M  V30 1851 H 161.528 3.04577 6.91931 0
M  V30 1852 H 162.796 2.02398 7.52765 0
M  V30 1853 N 167.025 -1.13721 1.09112 0
M  V30 1854 C 168.25 -1.89314 0.847053 0
M  V30 1855 C 168.675 -1.78416 -0.595774 0
M  V30 1856 O 168.033 -1.12942 -1.41823 0
M  V30 1857 C 168.081 -3.3701 1.28284 0
M  V30 1858 O 167.185 -4.10054 0.439267 0
M  V30 1859 H 166.526 -0.588745 0.307044 0
M  V30 1860 H 169.056 -1.43902 1.45442 0
M  V30 1861 H 169.066 -3.87834 1.26683 0
M  V30 1862 H 167.741 -3.4426 2.33363 0
M  V30 1863 H 166.318 -3.69266 0.519312 0
M  V30 1864 N 168.503 -0.877838 -1.30888 0
M  V30 1865 C 169.433 -0.35534 -2.3078 0
M  V30 1866 C 170.414 0.557994 -1.60687 0
M  V30 1867 O 171.599 0.473355 -1.88343 0
M  V30 1868 C 168.729 0.437221 -3.44537 0
M  V30 1869 C 167.683 -0.383715 -4.26276 0
M  V30 1870 C 167.009 0.535014 -5.32017 0
M  V30 1871 C 168.309 -1.62201 -4.96476 0
M  V30 1872 H 170.003 -1.19007 -2.74732 0
M  V30 1873 H 167.549 -0.573698 -1.32078 0
M  V30 1874 H 169.502 0.813334 -4.13477 0
M  V30 1875 H 168.226 1.30553 -2.99372 0
M  V30 1876 H 166.885 -0.741874 -3.59015 0
M  V30 1877 H 166.533 1.40083 -4.831 0
M  V30 1878 H 166.233 -0.0104211 -5.87599 0
M  V30 1879 H 167.757 0.907799 -6.03814 0
M  V30 1880 H 169.171 -1.31689 -5.5797 0
M  V30 1881 H 167.568 -2.10711 -5.61891 0
M  V30 1882 H 168.638 -2.37044 -4.23011 0
M  V30 1883 N 169.982 1.44106 -0.638065 0
M  V30 1884 C 170.929 2.30715 0.062701 0
M  V30 1885 C 171.899 1.43882 0.829883 0
M  V30 1886 O 173.084 1.72775 0.809532 0
M  V30 1887 C 170.224 3.29258 1.03358 0
M  V30 1888 C 169.337 4.31192 0.26409 0
M  V30 1889 C 168.472 5.16825 1.22741 0
M  V30 1890 C 167.511 6.10462 0.447475 0
M  V30 1891 N 166.648 6.8877 1.36161 0
M  V30 1892 H 171.488 2.90096 -0.681781 0
M  V30 1893 H 169.025 1.42925 -0.347988 0
M  V30 1894 H 170.983 3.84886 1.60992 0
M  V30 1895 H 169.613 2.71562 1.74511 0
M  V30 1896 H 168.665 3.77981 -0.428295 0
M  V30 1897 H 169.977 4.97619 -0.343052 0
M  V30 1898 H 169.131 5.77004 1.87487 0
M  V30 1899 H 167.87 4.50488 1.86847 0
M  V30 1900 H 166.875 5.49386 -0.213433 0
M  V30 1901 H 168.1 6.78837 -0.188968 0
M  V30 1902 H 166.046 6.25096 1.98975 0
M  V30 1903 H 165.963 7.51663 0.808656 0
M  V30 1904 H 167.231 7.53467 1.99769 0
M  V30 1905 N 171.46 0.379036 1.52974 0
M  V30 1906 C 172.709 -0.207612 2.00629 0
M  V30 1907 C 173.022 -1.48758 1.27006 0
M  V30 1908 O 174.228 -2.15365 1.65318 0
M  V30 1909 C 172.684 -0.42053 3.57435 0
M  V30 1910 C 172.292 0.845587 4.39948 0
M  V30 1911 C 174.036 -0.964102 4.13407 0
M  V30 1912 C 171.943 0.601513 5.88333 0
M  V30 1913 H 170.873 -0.0813591 0.749598 0
M  V30 1914 H 173.524 0.499853 1.76561 0
M  V30 1915 H 171.906 -1.18959 3.7771 0
M  V30 1916 H 173.08 1.61848 4.31442 0
M  V30 1917 H 171.395 1.31336 3.95145 0
M  V30 1918 H 173.992 -1.16225 5.21916 0
M  V30 1919 H 174.335 -1.93019 3.68849 0
M  V30 1920 H 174.868 -0.25487 3.96983 0
M  V30 1921 H 171.607 1.53831 6.37194 0
M  V30 1922 H 171.127 -0.132628 5.99653 0
M  V30 1923 H 172.806 0.232134 6.46583 0
M  V30 1924 N 172.938 -1.57226 0.108567 0
M  V30 1925 C 173.868 -2.17778 -0.84232 0
M  V30 1926 C 174.849 -1.11487 -1.2847 0
M  V30 1927 O 176.034 -1.39681 -1.34918 0
M  V30 1928 C 173.164 -2.76888 -2.09644 0
M  V30 1929 C 172.118 -3.88669 -1.79221 0
M  V30 1930 C 171.444 -4.34541 -3.11574 0
M  V30 1931 C 172.744 -5.11251 -1.06864 0
M  V30 1932 H 174.438 -2.97489 -0.337774 0
M  V30 1933 H 171.984 -1.43097 -0.161025 0
M  V30 1934 H 173.937 -3.17904 -2.76614 0
M  V30 1935 H 172.661 -1.94451 -2.62405 0
M  V30 1936 H 171.32 -3.48213 -1.14644 0
M  V30 1937 H 170.968 -3.48977 -3.62249 0
M  V30 1938 H 170.668 -5.09914 -2.91996 0
M  V30 1939 H 172.192 -4.782 -3.7968 0
M  V30 1940 H 173.606 -5.49352 -1.63968 0
M  V30 1941 H 172.003 -5.9214 -0.974178 0
M  V30 1942 H 173.073 -4.8487 -0.0536168 0
M  V30 1943 N 174.416 0.165178 -1.56732 0
M  V30 1944 C 175.346 1.20651 -1.99914 0
M  V30 1945 C 176.327 1.45827 -0.875705 0
M  V30 1946 O 177.512 1.57057 -1.14223 0
M  V30 1947 C 174.642 2.54401 -2.36427 0
M  V30 1948 C 173.596 2.43782 -3.51787 0
M  V30 1949 C 172.922 3.82078 -3.7406 0
M  V30 1950 C 174.222 1.93732 -4.85041 0
M  V30 1951 H 175.916 0.847534 -2.87154 0
M  V30 1952 H 173.462 0.40625 -1.38151 0
M  V30 1953 H 175.415 3.27458 -2.65234 0
M  V30 1954 H 174.139 2.92098 -1.46103 0
M  V30 1955 H 172.798 1.73178 -3.23117 0
M  V30 1956 H 172.446 4.17179 -2.81017 0
M  V30 1957 H 172.146 3.7584 -4.51684 0
M  V30 1958 H 173.67 4.56712 -4.05274 0
M  V30 1959 H 175.084 2.56569 -5.12684 0
M  V30 1960 H 173.481 1.98428 -5.66345 0
M  V30 1961 H 174.551 0.891962 -4.76626 0
M  V30 1962 N 175.894 1.51508 0.433938 0
M  V30 1963 C 177.14 1.64588 1.18484 0
M  V30 1964 C 177.473 0.362666 1.90784 0
M  V30 1965 O 176.748 -0.637892 1.83742 0
M  V30 1966 C 177.031 2.85149 2.19913 0
M  V30 1967 C 176.884 4.23456 1.51674 0
M  V30 1968 C 178.203 3.01227 3.20858 0
M  V30 1969 H 175.322 0.598994 0.429389 0
M  V30 1970 H 177.964 1.84002 0.473647 0
M  V30 1971 H 176.114 2.68729 2.80566 0
M  V30 1972 H 177.786 4.51552 0.943322 0
M  V30 1973 H 176.029 4.25998 0.819035 0
M  V30 1974 H 176.7 5.03812 2.2556 0
M  V30 1975 H 179.176 3.16382 2.70263 0
M  V30 1976 H 178.052 3.87141 3.89118 0
M  V30 1977 H 178.313 2.13447 3.8716 0
M  V30 1978 N 177.372 -0.689602 1.41712 0
M  V30 1979 C 178.621 -1.44534 1.40686 0
M  V30 1980 C 178.934 -1.95588 0.0213352 0
M  V30 1981 O 180.14 -2.71271 -0.111534 0
M  V30 1982 C 178.596 -2.61387 2.47396 0
M  V30 1983 C 178.204 -2.17094 3.91885 0
M  V30 1984 C 179.948 -3.38986 2.55517 0
M  V30 1985 C 177.855 -3.3094 4.90135 0
M  V30 1986 H 176.785 -0.542925 0.52321 0
M  V30 1987 H 179.436 -0.748054 1.6756 0
M  V30 1988 H 177.818 -3.33412 2.13664 0
M  V30 1989 H 178.992 -1.52318 4.34897 0
M  V30 1990 H 177.307 -1.52473 3.8748 0
M  V30 1991 H 179.904 -4.23747 3.26102 0
M  V30 1992 H 180.247 -3.84578 1.59391 0
M  V30 1993 H 180.78 -2.74021 2.8837 0
M  V30 1994 H 177.519 -2.90355 5.87685 0
M  V30 1995 H 177.039 -3.94546 4.51767 0
M  V30 1996 H 178.718 -3.9663 5.11169 0
M  V30 1997 N 178.85 -1.27639 -0.924453 0
M  V30 1998 C 179.798 -1.10485 -2.04685 0
M  V30 1999 C 180.792 -0.0270421 -1.69378 0
M  V30 2000 O 181.998 -0.185008 -1.79047 0
M  V30 2001 H 178.373 -0.340546 -0.670472 0
M  V30 2002 H 180.344 -2.05566 -2.16298 0
M  V30 2003 C 179.093 -0.772229 -3.39016 0
M  V30 2004 H 178.416 -1.59351 -3.66671 0
M  V30 2005 H 179.856 -0.692097 -4.18313 0
M  V30 2006 C 178.315 0.523554 -3.32807 0
M  V30 2007 O 178.845 1.55702 -3.70297 0
M  V30 2008 N 177.051 0.520363 -2.85903 0
M  V30 2009 H 176.598 -0.32107 -2.55591 0
M  V30 2010 H 176.556 1.38742 -2.82131 0
M  V30 2011 N 180.328 1.1314 -1.09713 0
M  V30 2012 C 181.576 1.84119 -0.833338 0
M  V30 2013 C 181.897 1.84097 0.642904 0
M  V30 2014 O 181.167 1.29881 1.46655 0
M  V30 2015 H 179.747 0.681766 -0.305293 0
M  V30 2016 H 182.409 1.37038 -1.38588 0
M  V30 2017 H 181.505 2.88543 -1.18951 0
M  V30 2018 N 181.806 0.884767 1.30421 0
M  V30 2019 C 183.031 0.517288 2.00845 0
M  V30 2020 C 183.456 -0.886779 1.65885 0
M  V30 2021 O 182.814 -1.58768 0.875354 0
M  V30 2022 C 182.862 0.698994 3.5376 0
M  V30 2023 O 181.966 -0.255208 4.1161 0
M  V30 2024 H 181.307 0.203872 0.631927 0
M  V30 2025 H 183.837 1.19225 1.66272 0
M  V30 2026 H 183.847 0.597912 4.03595 0
M  V30 2027 H 182.522 1.72271 3.78544 0
M  V30 2028 H 181.099 -0.10784 3.72744 0
M  V30 2029 N 183.284 -1.43765 0.645699 0
M  V30 2030 C 184.512 -2.06253 0.163556 0
M  V30 2031 C 184.927 -1.48352 -1.16778 0
M  V30 2032 O 184.284 -0.611932 -1.71935 0
M  V30 2033 C 184.335 -3.61453 0.0583186 0
M  V30 2034 O 184.056 -4.172 1.33702 0
M  V30 2035 C 185.557 -4.41002 -0.450795 0
M  V30 2036 H 182.777 -0.665413 0.0864077 0
M  V30 2037 H 185.321 -1.84396 0.884222 0
M  V30 2038 H 183.476 -3.82522 -0.612865 0
M  V30 2039 H 183.89 -5.10791 1.19131 0
M  V30 2040 H 185.364 -5.49966 -0.473403 0
M  V30 2041 H 185.841 -4.13488 -1.48068 0
M  V30 2042 H 186.447 -4.24886 0.187637 0
M  V30 2043 N 184.763 -0.387143 -1.52771 0
M  V30 2044 C 185.695 0.484089 -2.2403 0
M  V30 2045 C 186.708 1.02849 -1.26198 0
M  V30 2046 O 187.897 0.931186 -1.52286 0
M  V30 2047 C 184.997 1.68337 -2.94136 0
M  V30 2048 C 184.17 1.26672 -4.18656 0
M  V30 2049 C 183.229 2.33045 -4.7178 0
M  V30 2050 O 182.255 1.94541 -5.34923 0
M  V30 2051 N 183.457 3.64929 -4.5145 0
M  V30 2052 H 186.222 -0.126404 -2.99433 0
M  V30 2053 H 183.783 -0.213392 -1.60488 0
M  V30 2054 H 185.775 2.39019 -3.26577 0
M  V30 2055 H 184.345 2.20025 -2.22053 0
M  V30 2056 H 183.565 0.388878 -3.92277 0
M  V30 2057 H 184.853 0.964964 -4.99566 0
M  V30 2058 H 184.251 3.98974 -4.01044 0
M  V30 2059 H 182.808 4.31651 -4.88386 0
M  V30 2060 N 186.241 1.57166 -0.116904 0
M  V30 2061 C 187.204 2.14039 0.819742 0
M  V30 2062 C 188.204 1.07477 1.19605 0
M  V30 2063 O 189.394 1.33263 1.1219 0
M  V30 2064 C 186.526 2.67891 2.10826 0
M  V30 2065 H 187.719 2.98128 0.325511 0
M  V30 2066 H 185.272 1.55739 0.132312 0
M  V30 2067 H 186.007 1.87384 2.64685 0
M  V30 2068 H 185.792 3.45823 1.84793 0
M  V30 2069 H 187.282 3.11809 2.77785 0
M  V30 2070 N 187.719 -0.156864 1.56817 0
M  V30 2071 C 188.947 -0.886316 1.86955 0
M  V30 2072 C 189.362 -1.75185 0.703975 0
M  V30 2073 O 188.719 -1.79555 -0.326552 0
M  V30 2074 C 188.77 -1.75117 3.16253 0
M  V30 2075 O 188.491 -0.920537 4.2832 0
M  V30 2076 C 189.992 -2.58905 3.59837 0
M  V30 2077 H 187.212 -0.25678 0.619923 0
M  V30 2078 H 189.756 -0.152615 2.0393 0
M  V30 2079 H 187.911 -2.43805 3.01062 0
M  V30 2080 H 188.325 -1.51337 5.02192 0
M  V30 2081 H 189.799 -3.1518 4.53172 0
M  V30 2082 H 190.276 -3.34472 2.84649 0
M  V30 2083 H 190.882 -1.95526 3.7769 0
M  V30 2084 N 189.197 -1.51736 -0.425897 0
M  V30 2085 C 190.145 -1.74464 -1.53834 0
M  V30 2086 C 191.139 -0.611241 -1.57988 0
M  V30 2087 O 192.345 -0.792899 -1.61596 0
M  V30 2088 H 188.72 -0.551437 -0.511293 0
M  V30 2089 H 190.691 -2.67694 -1.31843 0
M  V30 2090 C 189.44 -1.8972 -2.91379 0
M  V30 2091 H 188.763 -2.76344 -2.88919 0
M  V30 2092 H 190.203 -2.09629 -3.68553 0
M  V30 2093 C 188.662 -0.65992 -3.30374 0
M  V30 2094 O 189.192 0.180083 -4.01296 0
M  V30 2095 N 187.398 -0.500677 -2.86254 0
M  V30 2096 H 186.945 -1.18532 -2.28709 0
M  V30 2097 H 186.903 0.325903 -3.12706 0
M  V30 2098 N 190.675 0.682077 -1.42076 0
M  V30 2099 C 191.605 1.80796 -1.47767 0
M  V30 2100 C 192.586 1.6677 -0.334954 0
M  V30 2101 O 193.771 1.863 -0.548264 0
M  V30 2102 C 190.901 3.19038 -1.37229 0
M  V30 2103 C 189.855 3.47789 -2.49453 0
M  V30 2104 C 189.181 4.8553 -2.23975 0
M  V30 2105 C 190.481 3.45411 -3.91776 0
M  V30 2106 H 192.175 1.7629 -2.41997 0
M  V30 2107 H 189.721 0.846721 -1.16476 0
M  V30 2108 H 191.674 3.97528 -1.39821 0
M  V30 2109 H 190.398 3.24204 -0.394907 0
M  V30 2110 H 189.057 2.71657 -2.46166 0
M  V30 2111 H 188.705 4.87337 -1.24547 0
M  V30 2112 H 188.405 5.0573 -2.99184 0
M  V30 2113 H 189.929 5.66312 -2.28304 0
M  V30 2114 H 191.343 4.13882 -3.96705 0
M  V30 2115 H 189.74 3.77145 -4.66778 0
M  V30 2116 H 190.81 2.44122 -4.18966 0
M  V30 2117 N 192.153 1.28127 0.917671 0
M  V30 2118 C 193.063 1.13556 2.05286 0
M  V30 2119 C 194.079 0.0630914 1.73886 0
M  V30 2120 O 195.255 0.271598 1.9956 0
M  V30 2121 C 192.32 0.794676 3.3747 0
M  V30 2122 C 191.381 1.94909 3.82504 0
M  V30 2123 C 190.614 1.62437 5.0838 0
M  V30 2124 O 190.837 0.536905 5.67867 0
M  V30 2125 O 189.771 2.46677 5.4903 0
M  V30 2126 H 193.597 2.08844 2.20495 0
M  V30 2127 H 191.182 1.07409 1.03845 0
M  V30 2128 H 193.064 0.618344 4.16839 0
M  V30 2129 H 191.739 -0.128581 3.23445 0
M  V30 2130 H 190.646 2.18055 3.03978 0
M  V30 2131 H 191.979 2.85291 4.01086 0
M  V30 2132 N 193.631 -1.12557 1.10312 0
M  V30 2133 C 195.042 -1.65574 0.862678 0
M  V30 2134 C 195.393 -1.86566 -0.607256 0
M  V30 2135 O 194.518 -1.59121 -1.46662 0
M  V30 2136 C 195.113 -3.00776 1.55947 0
M  V30 2137 C 193.672 -3.50748 1.36576 0
M  V30 2138 C 192.819 -2.25797 1.60968 0
M  V30 2139 H 195.77 -0.963552 1.26101 0
M  V30 2140 H 195.791 -3.67185 0.997753 0
M  V30 2141 H 195.303 -2.85465 2.62928 0
M  V30 2142 H 193.404 -3.71245 0.317531 0
M  V30 2143 H 193.517 -4.30289 2.10686 0
M  V30 2144 H 191.881 -2.32841 1.03234 0
M  V30 2145 H 192.664 -2.13043 2.69198 0
M  V30 2146 N 195.109 -0.891671 -1.2995 0
M  V30 2147 C 196.039 -0.379797 -2.30391 0
M  V30 2148 C 197.02 0.540919 -1.6127 0
M  V30 2149 O 198.205 0.453352 -1.88834 0
M  V30 2150 C 195.335 0.400654 -3.44981 0
M  V30 2151 C 194.289 -0.428905 -4.25846 0
M  V30 2152 C 193.615 0.478557 -5.32554 0
M  V30 2153 C 194.915 -1.67458 -4.94727 0
M  V30 2154 H 196.609 -1.21914 -2.73454 0
M  V30 2155 H 194.155 -0.587675 -1.31462 0
M  V30 2156 H 196.108 0.769434 -4.14316 0
M  V30 2157 H 194.832 1.27371 -3.0074 0
M  V30 2158 H 193.491 -0.779911 -3.58208 0
M  V30 2159 H 193.139 1.34951 -4.84559 0
M  V30 2160 H 192.839 -0.0727433 -5.87555 0
M  V30 2161 H 194.363 0.843705 -6.04743 0
M  V30 2162 H 195.777 -1.376 -5.56542 0
M  V30 2163 H 194.174 -2.16659 -5.59624 0
M  V30 2164 H 195.244 -2.41518 -4.20473 0
M  V30 2165 N 196.587 1.43421 -0.653314 0
M  V30 2166 C 197.998 1.85065 -0.246537 0
M  V30 2167 C 198.349 1.54688 1.2069 0
M  V30 2168 O 197.474 0.995896 1.92122 0
M  V30 2169 C 198.069 3.35922 -0.440666 0
M  V30 2170 C 196.628 3.76297 -0.0882064 0
M  V30 2171 C 195.775 2.67147 -0.743484 0
M  V30 2172 H 198.726 1.33572 -0.856979 0
M  V30 2173 H 198.747 3.79204 0.313798 0
M  V30 2174 H 198.259 3.58 -1.49858 0
M  V30 2175 H 196.36 3.5983 0.96711 0
M  V30 2176 H 196.473 4.76338 -0.513738 0
M  V30 2177 H 194.837 2.54086 -0.176712 0
M  V30 2178 H 195.62 2.92053 -1.80443 0
M  V30 2179 N 198.065 0.39524 1.52563 0
M  V30 2180 C 199.29 -0.187456 2.06551 0
M  V30 2181 C 199.715 -1.39249 1.26457 0
M  V30 2182 O 199.073 -1.78947 0.291151 0
M  V30 2183 C 199.121 -0.529985 3.56684 0
M  V30 2184 O 198.225 -1.62307 3.79118 0
M  V30 2185 H 197.566 -0.0202537 0.663691 0
M  V30 2186 H 200.096 0.564426 1.96661 0
M  V30 2187 H 200.106 -0.792598 4.00227 0
M  V30 2188 H 198.781 0.350987 4.14416 0
M  V30 2189 H 197.358 -1.3537 3.47461 0
M  V30 2190 N 199.544 -1.57102 0.125237 0
M  V30 2191 C 200.474 -2.18659 -0.819174 0
M  V30 2192 C 201.455 -1.12843 -1.27281 0
M  V30 2193 O 202.64 -1.41104 -1.33429 0
M  V30 2194 C 199.77 -2.79096 -2.06695 0
M  V30 2195 C 198.724 -3.90548 -1.75088 0
M  V30 2196 C 198.05 -4.37821 -3.06948 0
M  V30 2197 C 199.35 -5.12356 -1.01435 0
M  V30 2198 H 201.044 -2.9783 -0.306202 0
M  V30 2199 H 198.59 -1.4326 -0.145839 0
M  V30 2200 H 200.543 -3.2082 -2.73226 0
M  V30 2201 H 199.267 -1.97223 -2.60328 0
M  V30 2202 H 197.926 -3.49409 -1.10944 0
M  V30 2203 H 197.574 -3.52799 -3.58527 0
M  V30 2204 H 197.274 -5.12982 -2.86571 0
M  V30 2205 H 198.798 -4.822 -3.74587 0
M  V30 2206 H 200.212 -5.5106 -1.58132 0
M  V30 2207 H 198.609 -5.9314 -0.911319 0
M  V30 2208 H 199.679 -4.849 -0.00218681 0
M  V30 2209 N 201.022 0.148545 -1.56898 0
M  V30 2210 C 201.932 1.20293 -2.01412 0
M  V30 2211 C 202.948 1.47107 -0.929273 0
M  V30 2212 O 204.124 1.58807 -1.23863 0
M  V30 2213 C 201.189 2.51682 -2.38447 0
M  V30 2214 C 200.25 2.32529 -3.60872 0
M  V30 2215 C 199.483 3.57653 -3.96132 0
M  V30 2216 O 199.706 4.63771 -3.32073 0
M  V30 2217 O 198.64 3.50408 -4.89385 0
M  V30 2218 H 202.466 0.855025 -2.91416 0
M  V30 2219 H 200.051 0.357151 -1.45068 0
M  V30 2220 H 201.933 3.29147 -2.63135 0
M  V30 2221 H 200.608 2.86006 -1.51599 0
M  V30 2222 H 199.515 1.53019 -3.41373 0
M  V30 2223 H 200.848 2.03121 -4.48333 0
M  V30 2224 N 202.5 1.5196 0.417844 0
M  V30 2225 C 203.777 1.56146 1.17803 0
M  V30 2226 C 204.157 0.337275 2.08388 0
M  V30 2227 O 203.505 -0.676447 2.18258 0
M  V30 2228 C 203.715 2.88566 1.96293 0
M  V30 2229 C 205.063 3.41244 2.52662 0
M  V30 2230 O 206.087 2.90247 2.06483 0
M  V30 2231 O 204.946 4.30273 3.36938 0
M  V30 2232 H 202.04 0.628598 0.537395 0
M  V30 2233 H 204.586 1.64283 0.425331 0
M  V30 2234 H 203.358 3.69116 1.2988 0
M  V30 2235 H 202.981 2.83681 2.78587 0
M  V30 2236 N 203.978 -0.674533 1.42435 0
M  V30 2237 C 204.908 -1.80009 1.48724 0
M  V30 2238 C 205.889 -1.6659 0.343793 0
M  V30 2239 O 207.074 -1.86007 0.558137 0
M  V30 2240 C 204.204 -3.18306 1.38919 0
M  V30 2241 C 203.158 -3.46461 2.51294 0
M  V30 2242 C 202.484 -4.84335 2.26547 0
M  V30 2243 C 203.784 -3.43328 3.93603 0
M  V30 2244 H 205.478 -1.75004 2.42928 0
M  V30 2245 H 203.024 -0.840533 1.16923 0
M  V30 2246 H 204.977 -3.9678 1.41927 0
M  V30 2247 H 203.701 -3.2399 0.412094 0
M  V30 2248 H 202.36 -2.70348 2.47604 0
M  V30 2249 H 202.008 -4.86669 1.2713 0
M  V30 2250 H 201.708 -5.04136 3.01861 0
M  V30 2251 H 203.232 -5.65094 2.31304 0
M  V30 2252 H 204.646 -4.11772 3.98894 0
M  V30 2253 H 203.043 -3.74664 4.68771 0
M  V30 2254 H 204.113 -2.41897 4.20255 0
M  V30 2255 N 205.456 -1.28612 -0.910864 0
M  V30 2256 C 206.733 -1.06632 -1.63979 0
M  V30 2257 C 207.113 0.393351 -2.07403 0
M  V30 2258 O 206.461 1.37999 -1.82122 0
M  V30 2259 C 206.671 -2.0436 -2.8291 0
M  V30 2260 C 208.019 -2.34666 -3.5386 0
M  V30 2261 O 209.043 -2.02467 -2.93062 0
M  V30 2262 O 207.902 -2.89631 -4.63439 0
M  V30 2263 H 204.996 -0.407737 -0.7195 0
M  V30 2264 H 207.542 -1.39942 -0.959914 0
M  V30 2265 H 206.314 -3.02727 -2.47936 0
M  V30 2266 H 205.937 -1.71714 -3.58609 0
M  V30 2267 N 206.934 1.1197 -1.10907 0
M  V30 2268 C 207.882 2.19927 -0.757303 0
M  V30 2269 C 208.876 1.67564 0.248747 0
M  V30 2270 O 210.082 1.79672 0.108605 0
M  V30 2271 H 206.457 0.716925 -0.226987 0
M  V30 2272 H 208.428 2.46847 -1.67658 0
M  V30 2273 C 207.177 3.47061 -0.210671 0
M  V30 2274 H 206.5 3.87703 -0.976049 0
M  V30 2275 H 207.94 4.24 -0.0026584 0
M  V30 2276 C 206.399 3.19864 1.05777 0
M  V30 2277 O 206.929 3.40049 2.13845 0
M  V30 2278 N 205.135 2.73636 0.978349 0
M  V30 2279 H 204.682 2.5741 0.0988246 0
M  V30 2280 H 204.64 2.55815 1.82773 0
M  V30 2281 N 208.412 0.89855 1.29475 0
M  V30 2282 C 209.64 0.539261 1.99749 0
M  V30 2283 C 210.055 -0.875716 1.67262 0
M  V30 2284 O 209.412 -1.57786 0.917049 0
M  V30 2285 C 209.463 0.72061 3.54245 0
M  V30 2286 O 209.184 2.07989 3.8558 0
M  V30 2287 C 210.685 0.366118 4.41786 0
M  V30 2288 H 207.905 0.207047 0.638258 0
M  V30 2289 H 210.449 1.20758 1.65039 0
M  V30 2290 H 208.604 0.0994862 3.87272 0
M  V30 2291 H 209.018 2.10841 4.80257 0
M  V30 2292 H 210.492 0.543848 5.49314 0
M  V30 2293 H 210.969 -0.696763 4.33638 0
M  V30 2294 H 211.575 0.964135 4.14228 0
M  V30 2295 N 209.89 -1.43072 0.660911 0
M  V30 2296 C 211.136 -2.0202 0.177708 0
M  V30 2297 C 211.469 -1.52066 -1.20787 0
M  V30 2298 O 210.744 -0.716987 -1.80802 0
M  V30 2299 C 211.027 -3.59561 0.197019 0
M  V30 2300 C 210.88 -4.19727 1.61706 0
M  V30 2301 C 212.199 -4.37664 -0.462396 0
M  V30 2302 H 209.318 -0.734034 0.0660494 0
M  V30 2303 H 211.96 -1.70272 0.843058 0
M  V30 2304 H 210.11 -3.86739 -0.369527 0
M  V30 2305 H 211.782 -4.03553 2.23479 0
M  V30 2306 H 210.025 -3.76084 2.16201 0
M  V30 2307 H 210.696 -5.28834 1.58237 0
M  V30 2308 H 213.172 -4.16095 0.0197215 0
M  V30 2309 H 212.048 -5.47305 -0.418188 0
M  V30 2310 H 212.309 -4.14493 -1.53778 0
M  V30 2311 N 211.368 -0.403325 -1.52352 0
M  V30 2312 C 212.615 0.174347 -2.01748 0
M  V30 2313 C 212.943 1.45636 -1.2892 0
M  V30 2314 O 212.198 1.9193 -0.382258 0
M  V30 2315 C 212.497 0.474665 -3.54234 0
M  V30 2316 C 212.163 -0.717458 -4.45155 0
M  V30 2317 C 210.825 -1.04447 -4.69728 0
M  V30 2318 C 213.177 -1.51432 -4.98716 0
M  V30 2319 C 210.505 -2.16963 -5.45109 0
M  V30 2320 C 212.857 -2.6302 -5.75329 0
M  V30 2321 C 211.521 -2.96213 -5.98175 0
M  V30 2322 H 210.791 0.0637981 -0.738248 0
M  V30 2323 H 213.438 -0.543553 -1.83624 0
M  V30 2324 H 211.743 1.27406 -3.70506 0
M  V30 2325 H 213.44 0.934496 -3.89959 0
M  V30 2326 H 210.03 -0.452596 -4.26204 0
M  V30 2327 H 214.214 -1.27491 -4.79645 0
M  V30 2328 H 209.47 -2.43034 -5.61021 0
M  V30 2329 H 213.644 -3.25158 -6.15829 0
M  V30 2330 H 211.271 -3.83516 -6.56368 0
M  V30 2331 N 212.846 1.57033 -0.133567 0
M  V30 2332 C 214.094 1.953 0.519848 0
M  V30 2333 C 214.415 1.01866 1.66278 0
M  V30 2334 O 213.685 0.0776513 1.95746 0
M  V30 2335 H 212.265 0.721091 0.195032 0
M  V30 2336 H 214.927 1.93809 -0.205921 0
M  V30 2337 H 214.023 2.98695 0.904854 0
M  V30 2338 N 214.325 -0.140222 1.56975 0
M  V30 2339 C 215.288 -1.15689 1.97861 0
M  V30 2340 C 216.288 -1.3549 0.865974 0
M  V30 2341 O 217.478 -1.32367 1.13246 0
M  V30 2342 C 214.61 -2.51582 2.30042 0
M  V30 2343 H 215.803 -0.805971 2.88867 0
M  V30 2344 H 213.356 -0.383801 1.51515 0
M  V30 2345 H 214.091 -2.91632 1.41849 0
M  V30 2346 H 213.876 -2.38569 3.11171 0
M  V30 2347 H 215.366 -3.24792 2.62488 0
M  V30 2348 N 215.803 -1.52179 -0.40978 0
M  V30 2349 C 216.713 -1.78364 -1.52392 0
M  V30 2350 C 217.729 -0.669183 -1.60617 0
M  V30 2351 O 218.905 -0.954518 -1.77344 0
M  V30 2352 C 215.97 -1.92822 -2.88133 0
M  V30 2353 C 215.031 -3.16725 -2.898 0
M  V30 2354 C 214.264 -3.30483 -4.19067 0
M  V30 2355 O 214.487 -2.49522 -5.12928 0
M  V30 2356 O 213.421 -4.2363 -4.27576 0
M  V30 2357 H 217.247 -2.72931 -1.33201 0
M  V30 2358 H 214.832 -1.37016 -0.59557 0
M  V30 2359 H 216.714 -2.04157 -3.68643 0
M  V30 2360 H 215.389 -1.01444 -3.07393 0
M  V30 2361 H 214.296 -3.10848 -2.08146 0
M  V30 2362 H 215.629 -4.07881 -2.75489 0
M  V30 2363 N 217.281 0.66697 -1.42791 0
M  V30 2364 C 218.697 0.981027 -1.25889 0
M  V30 2365 C 218.897 2.00793 -0.168695 0
M  V30 2366 O 217.953 2.48321 0.45747 0
M  V30 2367 C 219.266 1.47838 -2.61848 0
M  V30 2368 C 220.814 1.59575 -2.69267 0
M  V30 2369 C 221.289 2.12704 -4.05612 0
M  V30 2370 N 222.78 2.20026 -4.07606 0
M  V30 2371 C 223.515 2.62227 -5.09926 0
M  V30 2372 N 223.011 3.03824 -6.22626 0
M  V30 2373 N 224.804 2.62045 -4.97281 0
M  V30 2374 H 216.955 -0.0127891 -2.12396 0
M  V30 2375 H 219.218 0.0568258 -0.946295 0
M  V30 2376 H 218.924 0.798299 -3.4252 0
M  V30 2377 H 218.798 2.45579 -2.86305 0
M  V30 2378 H 221.185 2.26687 -1.88936 0
M  V30 2379 H 221.266 0.60302 -2.48591 0
M  V30 2380 H 220.91 1.46198 -4.86404 0
M  V30 2381 H 220.84 3.12782 -4.23645 0
M  V30 2382 H 223.331 1.90708 -3.2625 0
M  V30 2383 H 223.644 3.34734 -6.96544 0
M  V30 2384 H 221.989 3.01662 -6.26119 0
M  V30 2385 H 225.18 2.28916 -4.08308 0
M  V30 2386 H 225.353 2.94613 -5.77154 0
M  V30 2387 N 218.759 1.29093 0.90403 0
M  V30 2388 C 219.706 1.13853 2.00764 0
M  V30 2389 C 220.676 0.0330084 1.66067 0
M  V30 2390 O 221.861 0.199733 1.89752 0
M  V30 2391 C 219.001 0.816537 3.35301 0
M  V30 2392 C 218.114 2.00206 3.82807 0
M  V30 2393 C 217.249 1.61983 5.059 0
M  V30 2394 C 216.288 2.77143 5.45764 0
M  V30 2395 N 215.425 2.39346 6.60044 0
M  V30 2396 H 220.265 2.08276 2.13132 0
M  V30 2397 H 217.802 1.03648 1.04381 0
M  V30 2398 H 219.76 0.610557 4.12708 0
M  V30 2399 H 218.39 -0.090779 3.22672 0
M  V30 2400 H 217.442 2.31988 3.01473 0
M  V30 2401 H 218.754 2.86512 4.08304 0
M  V30 2402 H 217.908 1.37649 5.90879 0
M  V30 2403 H 216.647 0.728202 4.82233 0
M  V30 2404 H 215.652 3.02165 4.59322 0
M  V30 2405 H 216.877 3.66964 5.71414 0
M  V30 2406 H 214.823 1.52665 6.37989 0
M  V30 2407 H 214.74 3.19185 6.85315 0
M  V30 2408 H 216.008 2.1832 7.48303 0
M  V30 2409 N 220.237 -1.11381 1.11499 0
M  V30 2410 C 221.184 -2.17439 0.773887 0
M  V30 2411 C 222.154 -1.64132 -0.254899 0
M  V30 2412 O 223.339 -1.90345 -0.13168 0
M  V30 2413 C 220.479 -3.44373 0.223917 0
M  V30 2414 C 219.592 -4.1168 1.30934 0
M  V30 2415 C 218.727 -5.263 0.71984 0
M  V30 2416 C 217.766 -5.85493 1.78507 0
M  V30 2417 N 216.903 -6.91507 1.21502 0
M  V30 2418 H 221.743 -2.45962 1.68246 0
M  V30 2419 H 219.28 -1.20744 0.840191 0
M  V30 2420 H 221.238 -4.17047 -0.112921 0
M  V30 2421 H 219.868 -3.16232 -0.647851 0
M  V30 2422 H 218.92 -3.37073 1.76312 0
M  V30 2423 H 220.232 -4.51729 2.11524 0
M  V30 2424 H 219.386 -6.05785 0.333094 0
M  V30 2425 H 218.125 -4.87559 -0.117377 0
M  V30 2426 H 217.13 -5.04686 2.18111 0
M  V30 2427 H 218.355 -6.26301 2.62533 0
M  V30 2428 H 216.301 -6.54783 0.399455 0
M  V30 2429 H 216.218 -7.30214 1.95763 0
M  V30 2430 H 217.486 -7.74795 0.855181 0
M  V30 2431 N 221.715 -0.905404 -1.28997 0
M  V30 2432 C 223.131 -0.60233 -1.47798 0
M  V30 2433 C 223.331 0.854645 -1.82478 0
M  V30 2434 O 222.387 1.63439 -1.92468 0
M  V30 2435 C 223.7 -1.53306 -2.58685 0
M  V30 2436 C 225.248 -1.53887 -2.72558 0
M  V30 2437 C 225.723 -2.45602 -3.86579 0
M  V30 2438 N 227.214 -2.43681 -3.93921 0
M  V30 2439 C 227.949 -3.11347 -4.81509 0
M  V30 2440 N 227.445 -3.88313 -5.73746 0
M  V30 2441 N 229.238 -3.00476 -4.75048 0
M  V30 2442 H 221.389 -1.84765 -1.04764 0
M  V30 2443 H 223.652 -0.792025 -0.520961 0
M  V30 2444 H 223.358 -2.57141 -2.39941 0
M  V30 2445 H 223.232 -1.25787 -3.55609 0
M  V30 2446 H 225.619 -0.507941 -2.90696 0
M  V30 2447 H 225.7 -1.85447 -1.76191 0
M  V30 2448 H 225.344 -3.48792 -3.69197 0
M  V30 2449 H 225.274 -2.11349 -4.82327 0
M  V30 2450 H 227.765 -1.87767 -3.27951 0
M  V30 2451 H 228.078 -4.36985 -6.37389 0
M  V30 2452 H 226.423 -3.92419 -5.73614 0
M  V30 2453 H 229.614 -2.39858 -4.01977 0
M  V30 2454 H 229.787 -3.53485 -5.43095 0
M  V30 2455 N 223.193 1.4272 -0.668489 0
M  V30 2456 C 224.123 2.335 -0.000100175 0
M  V30 2457 C 225.104 1.50328 0.795964 0
M  V30 2458 O 226.289 1.78949 0.754385 0
M  V30 2459 C 223.419 3.33874 0.956302 0
M  V30 2460 C 222.373 4.27152 0.269278 0
M  V30 2461 C 221.699 5.17684 1.33818 0
M  V30 2462 C 222.999 5.15373 -0.847805 0
M  V30 2463 H 224.693 2.89639 -0.758244 0
M  V30 2464 H 222.239 1.39269 -0.366079 0
M  V30 2465 H 224.192 3.9629 1.43292 0
M  V30 2466 H 222.916 2.76025 1.74579 0
M  V30 2467 H 221.575 3.66123 -0.187042 0
M  V30 2468 H 221.223 4.56165 2.1195 0
M  V30 2469 H 220.923 5.80918 0.883659 0
M  V30 2470 H 222.447 5.82974 1.81586 0
M  V30 2471 H 223.861 5.7151 -0.452681 0
M  V30 2472 H 222.258 5.87407 -1.22773 0
M  V30 2473 H 223.328 4.5415 -1.69929 0
M  V30 2474 N 224.671 0.411399 1.52136 0
M  V30 2475 C 225.896 -0.165538 2.06738 0
M  V30 2476 C 226.321 -1.379 1.27926 0
M  V30 2477 O 225.679 -1.78628 0.310114 0
M  V30 2478 C 225.727 -0.492124 3.57226 0
M  V30 2479 O 224.831 -1.58276 3.80818 0
M  V30 2480 H 224.172 -0.0132132 0.663869 0
M  V30 2481 H 226.702 0.585253 1.96051 0
M  V30 2482 H 226.712 -0.750104 4.01045 0
M  V30 2483 H 225.387 0.394922 4.14021 0
M  V30 2484 H 223.964 -1.31677 3.48877 0
M  V30 2485 N 226.149 -1.5696 0.141893 0
M  V30 2486 C 227.398 -1.95135 -0.510427 0
M  V30 2487 C 227.711 -1.02896 -1.66348 0
M  V30 2488 O 228.917 -1.30629 -2.38009 0
M  V30 2489 C 227.373 -3.46876 -0.959427 0
M  V30 2490 C 226.981 -4.47691 0.166419 0
M  V30 2491 C 228.725 -3.93927 -1.58183 0
M  V30 2492 C 226.632 -5.90636 -0.300565 0
M  V30 2493 H 225.562 -0.728494 -0.194454 0
M  V30 2494 H 228.213 -1.8211 0.22542 0
M  V30 2495 H 226.595 -3.55215 -1.75038 0
M  V30 2496 H 227.769 -4.51043 0.94325 0
M  V30 2497 H 226.084 -4.10527 0.696905 0
M  V30 2498 H 228.681 -4.98158 -1.94275 0
M  V30 2499 H 229.024 -3.3519 -2.46888 0
M  V30 2500 H 229.557 -3.88484 -0.855863 0
M  V30 2501 H 226.296 -6.5318 0.550989 0
M  V30 2502 H 225.816 -5.90655 -1.04338 0
M  V30 2503 H 227.495 -6.42588 -0.754265 0
M  V30 2504 N 227.627 0.131896 -1.57047 0
M  V30 2505 C 228.876 0.84044 -1.83356 0
M  V30 2506 C 229.189 1.81646 -0.725535 0
M  V30 2507 O 230.395 2.57025 -0.874659 0
M  V30 2508 C 228.851 1.54528 -3.25037 0
M  V30 2509 C 228.459 0.610902 -4.43815 0
M  V30 2510 C 230.203 2.23972 -3.60606 0
M  V30 2511 C 228.11 1.31823 -5.76521 0
M  V30 2512 H 227.04 0.317599 -0.683847 0
M  V30 2513 H 229.691 0.0931561 -1.83263 0
M  V30 2514 H 228.073 2.33873 -3.19561 0
M  V30 2515 H 229.247 -0.148407 -4.60561 0
M  V30 2516 H 227.562 0.0241016 -4.16393 0
M  V30 2517 H 230.159 2.77558 -4.57018 0
M  V30 2518 H 230.502 3.01173 -2.87403 0
M  V30 2519 H 231.035 1.51529 -3.6781 0
M  V30 2520 H 227.774 0.587771 -6.52859 0
M  V30 2521 H 227.294 2.04987 -5.63685 0
M  V30 2522 H 228.973 1.855 -6.19838 0
M  V30 2523 N 229.106 1.52395 0.401703 0
M  V30 2524 C 230.354 1.66488 1.14569 0
M  V30 2525 C 230.675 0.400897 1.90835 0
M  V30 2526 O 229.945 -0.584415 1.8698 0
M  V30 2527 H 228.525 0.613672 0.425929 0
M  V30 2528 H 231.187 1.89464 0.457093 0
M  V30 2529 H 230.283 2.50942 1.85566 0
M  V30 2530 N 230.584 -0.659388 1.43143 0
M  V30 2531 C 231.995 -1.24041 1.39537 0
M  V30 2532 C 232.346 -1.95963 0.0963364 0
M  V30 2533 O 231.471 -2.00892 -0.804438 0
M  V30 2534 C 232.066 -2.25601 2.52764 0
M  V30 2535 C 230.625 -2.79195 2.52443 0
M  V30 2536 C 229.772 -1.53743 2.30778 0
M  V30 2537 H 232.723 -0.451792 1.52133 0
M  V30 2538 H 232.744 -3.07651 2.23899 0
M  V30 2539 H 232.256 -1.73226 3.47296 0
M  V30 2540 H 230.357 -3.35649 1.61773 0
M  V30 2541 H 230.47 -3.2716 3.50004 0
M  V30 2542 H 228.834 -1.80869 1.79328 0
M  V30 2543 H 229.617 -1.03312 3.27386 0
M  V30 2544 N 232.062 -1.29571 -0.897171 0
M  V30 2545 C 233.29 -1.20583 -1.68129 0
M  V30 2546 C 233.705 0.233181 -1.87354 0
M  V30 2547 O 233.062 1.15579 -1.41236 0
M  V30 2548 C 233.113 -1.91772 -3.06441 0
M  V30 2549 O 232.834 -3.30053 -2.88091 0
M  V30 2550 C 234.335 -1.89291 -4.00854 0
M  V30 2551 H 231.555 -0.417826 -0.525036 0
M  V30 2552 H 234.099 -1.70987 -1.12177 0
M  V30 2553 H 232.254 -1.45196 -3.59161 0
M  V30 2554 H 232.668 -3.65942 -3.75748 0
M  V30 2555 H 234.142 -2.43662 -4.95311 0
M  V30 2556 H 234.619 -0.869014 -4.30517 0
M  V30 2557 H 235.225 -2.35622 -3.54066 0
M  V30 2558 N 233.54 1.10788 -1.12088 0
M  V30 2559 C 234.765 1.87002 -0.896949 0
M  V30 2560 C 235.19 1.79933 0.548261 0
M  V30 2561 O 234.548 1.16662 1.38779 0
M  V30 2562 C 234.596 3.3349 -1.37174 0
M  V30 2563 O 233.7 4.08745 -0.547831 0
M  V30 2564 H 233.041 0.580397 -0.322545 0
M  V30 2565 H 235.571 1.39996 -1.49206 0
M  V30 2566 H 235.581 3.84339 -1.36922 0
M  V30 2567 H 234.256 3.37951 -2.42408 0
M  V30 2568 H 232.833 3.6776 -0.617034 0
M  V30 2569 N 235.018 0.912232 1.28515 0
M  V30 2570 C 236.434 0.610159 1.47476 0
M  V30 2571 C 236.634 -0.844955 1.82928 0
M  V30 2572 O 235.69 -1.62416 1.93332 0
M  V30 2573 C 237.003 1.54675 2.57868 0
M  V30 2574 C 238.551 1.55331 2.71738 0
M  V30 2575 C 239.026 2.47649 3.85272 0
M  V30 2576 N 240.517 2.45767 3.92623 0
M  V30 2577 C 241.252 3.13896 4.79851 0
M  V30 2578 N 240.748 3.9135 5.71679 0
M  V30 2579 N 242.541 3.02991 4.73448 0
M  V30 2580 H 234.692 1.85318 1.03783 0
M  V30 2581 H 236.955 0.794777 0.516753 0
M  V30 2582 H 236.661 2.5841 2.38574 0
M  V30 2583 H 236.535 1.27671 3.54937 0
M  V30 2584 H 238.922 0.52335 2.90422 0
M  V30 2585 H 239.003 1.86378 1.75205 0
M  V30 2586 H 238.647 3.50745 3.67342 0
M  V30 2587 H 238.577 2.13904 4.81199 0
M  V30 2588 H 241.068 1.89503 3.26951 0
M  V30 2589 H 241.381 4.40359 6.35062 0
M  V30 2590 H 239.726 3.95455 5.71524 0
M  V30 2591 H 242.917 2.41987 4.007 0
M  V30 2592 H 243.09 3.5636 5.41213 0
M  V30 2593 N 236.496 -1.42363 0.676048 0
M  V30 2594 C 237.773 -1.95183 0.127726 0
M  V30 2595 C 238.153 -1.61641 -1.35777 0
M  V30 2596 O 237.501 -0.913216 -2.09458 0
M  V30 2597 C 237.711 -3.46721 0.398199 0
M  V30 2598 C 239.059 -4.23427 0.315383 0
M  V30 2599 O 240.083 -3.54649 0.332016 0
M  V30 2600 O 238.942 -5.45888 0.25865 0
M  V30 2601 H 236.036 -0.826992 0.00359427 0
M  V30 2602 H 238.582 -1.52184 0.750864 0
M  V30 2603 H 237.354 -3.64344 1.4272 0
M  V30 2604 H 236.977 -3.96769 -0.256885 0
M  V30 2605 N 237.974 -0.419461 -1.51915 0
M  V30 2606 C 239.39 -0.0708431 -1.59443 0
M  V30 2607 C 239.59 1.41796 -1.43164 0
M  V30 2608 O 238.646 2.18596 -1.26381 0
M  V30 2609 C 239.959 -0.574991 -2.95151 0
M  V30 2610 C 241.507 -0.533867 -3.08413 0
M  V30 2611 C 241.982 -1.01469 -4.46618 0
M  V30 2612 N 243.473 -0.971939 -4.52888 0
M  V30 2613 C 244.208 -1.31505 -5.58116 0
M  V30 2614 N 243.704 -1.73014 -6.70849 0
M  V30 2615 N 245.497 -1.23436 -5.48379 0
M  V30 2616 H 237.648 -1.38836 -1.60743 0
M  V30 2617 H 239.911 -0.570998 -0.756747 0
M  V30 2618 H 239.617 -1.61597 -3.12377 0
M  V30 2619 H 239.491 0.00979777 -3.77199 0
M  V30 2620 H 241.878 0.498086 -2.90866 0
M  V30 2621 H 241.959 -1.15484 -2.28248 0
M  V30 2622 H 241.603 -2.04502 -4.6491 0
M  V30 2623 H 241.533 -0.370433 -5.25295 0
M  V30 2624 H 244.024 -0.666893 -3.71969 0
M  V30 2625 H 244.337 -1.97479 -7.47143 0
M  V30 2626 H 242.682 -1.76926 -6.72103 0
M  V30 2627 H 245.873 -0.908869 -4.59192 0
M  V30 2628 H 246.046 -1.50506 -6.30279 0
M  V30 2629 N 239.452 1.56882 -0.150215 0
M  V30 2630 C 240.677 2.01027 0.510184 0
M  V30 2631 C 241.102 1.02966 1.57415 0
M  V30 2632 O 240.46 0.00590158 1.81299 0
M  V30 2633 C 240.508 3.43899 1.08472 0
M  V30 2634 O 239.612 3.4885 2.19948 0
M  V30 2635 H 238.953 0.652233 0.124451 0
M  V30 2636 H 241.483 2.03093 -0.247894 0
M  V30 2637 H 241.493 3.82766 1.41259 0
M  V30 2638 H 240.168 4.14776 0.305582 0
M  V30 2639 H 238.745 3.21827 1.88366 0
M  V30 2640 N 240.93 -0.123565 1.57115 0
M  V30 2641 C 242.155 -0.850398 1.89164 0
M  V30 2642 C 242.58 -1.7286 0.741688 0
M  V30 2643 O 241.938 -1.78665 -0.307958 0
M  V30 2644 C 241.986 -1.66353 3.19936 0
M  V30 2645 O 241.09 -2.77004 3.0552 0
M  V30 2646 H 240.431 -0.235454 0.620852 0
M  V30 2647 H 242.961 -0.107335 2.04318 0
M  V30 2648 H 242.971 -2.05372 3.52543 0
M  V30 2649 H 241.646 -1.01881 4.03228 0
M  V30 2650 H 240.223 -2.41221 2.84371 0
M  V30 2651 N 242.408 -1.52605 -0.393616 0
M  V30 2652 C 243.819 -1.59417 -0.971761 0
M  V30 2653 C 244.17 -0.444173 -1.91106 0
M  V30 2654 O 243.295 0.433382 -2.12016 0
M  V30 2655 C 243.89 -2.88936 -1.76921 0
M  V30 2656 C 242.449 -2.98175 -2.29714 0
M  V30 2657 C 241.596 -2.54491 -1.10135 0
M  V30 2658 H 244.547 -1.57751 -0.173317 0
M  V30 2659 H 244.568 -2.75163 -2.62804 0
M  V30 2660 H 244.08 -3.72616 -1.08532 0
M  V30 2661 H 242.181 -2.19024 -3.01429 0
M  V30 2662 H 242.294 -4.02726 -2.59517 0
M  V30 2663 H 240.658 -2.08702 -1.45999 0
M  V30 2664 H 241.441 -3.4056 -0.432874 0
M  V30 2665 N 243.887 0.651787 -1.4349 0
M  V30 2666 C 245.298 1.233 -1.40193 0
M  V30 2667 C 245.649 1.9591 -0.106727 0
M  V30 2668 O 244.774 2.01316 0.793773 0
M  V30 2669 C 245.369 2.24257 -2.53957 0
M  V30 2670 C 243.928 2.77852 -2.5392 0
M  V30 2671 C 243.075 1.52517 -2.3159 0
M  V30 2672 H 246.026 0.443717 -1.52371 0
M  V30 2673 H 246.047 3.0646 -2.25528 0
M  V30 2674 H 245.559 1.71382 -3.4821 0
M  V30 2675 H 243.66 3.34786 -1.63551 0
M  V30 2676 H 243.773 3.25299 -3.51735 0
M  V30 2677 H 242.137 1.79915 -1.80285 0
M  V30 2678 H 242.92 1.01574 -3.27929 0
M  V30 2679 N 245.365 1.30045 0.890287 0
M  V30 2680 C 246.776 1.16738 1.45702 0
M  V30 2681 C 247.127 -0.233939 1.948 0
M  V30 2682 O 246.252 -1.13021 1.84541 0
M  V30 2683 C 246.847 2.11313 2.64825 0
M  V30 2684 C 245.406 2.02001 3.17604 0
M  V30 2685 C 244.553 2.01699 1.90296 0
M  V30 2686 H 247.504 1.42392 0.700726 0
M  V30 2687 H 247.525 1.69086 3.40867 0
M  V30 2688 H 247.037 3.13294 2.2906 0
M  V30 2689 H 245.138 1.03142 3.5804 0
M  V30 2690 H 245.251 2.90128 3.81264 0
M  V30 2691 H 243.615 1.46427 2.08402 0
M  V30 2692 H 244.398 3.05402 1.56795 0
M  V30 2693 N 246.843 -1.10192 1.12674 0
M  V30 2694 C 248.091 -1.81845 0.881861 0
M  V30 2695 C 248.412 -1.85737 -0.593867 0
M  V30 2696 O 247.682 -1.33724 -1.4316 0
M  V30 2697 H 246.262 -0.673432 0.323261 0
M  V30 2698 H 248.924 -1.33316 1.42172 0
M  V30 2699 H 248.02 -2.85288 1.2656 0
M  V30 2700 N 248.321 -0.919034 -1.28029 0
M  V30 2701 C 249.551 -0.570143 -1.98577 0
M  V30 2702 C 249.959 0.854172 -1.68821 0
M  V30 2703 O 249.302 1.57807 -0.940351 0
M  V30 2704 C 249.364 -0.705734 -3.52505 0
M  V30 2705 C 249.028 -2.10057 -4.05863 0
M  V30 2706 C 250.025 -3.07385 -4.19298 0
M  V30 2707 C 247.71 -2.41517 -4.40426 0
M  V30 2708 C 249.704 -4.34287 -4.66555 0
M  V30 2709 C 247.391 -3.68657 -4.87376 0
M  V30 2710 C 248.389 -4.64856 -5.00398 0
M  V30 2711 O 248.077 -5.89735 -5.46322 0
M  V30 2712 H 247.809 -0.215592 -0.6407 0
M  V30 2713 H 250.363 -1.23583 -1.64062 0
M  V30 2714 H 248.593 0.0170414 -3.86696 0
M  V30 2715 H 250.282 -0.363172 -4.04272 0
M  V30 2716 H 251.048 -2.84398 -3.92865 0
M  V30 2717 H 246.927 -1.67389 -4.29537 0
M  V30 2718 H 250.471 -5.09377 -4.76635 0
M  V30 2719 H 246.368 -3.91466 -5.13249 0
M  V30 2720 H 247.136 -5.92599 -5.64596 0
M  V30 2721 N 249.799 1.42003 -0.683588 0
M  V30 2722 C 251.048 2.00638 -0.206681 0
M  V30 2723 C 251.361 1.5472 1.19671 0
M  V30 2724 O 252.567 2.05833 1.77045 0
M  V30 2725 C 251.023 3.58487 -0.318632 0
M  V30 2726 C 250.631 4.1339 -1.72663 0
M  V30 2727 C 252.375 4.24384 0.0991141 0
M  V30 2728 C 250.282 5.63633 -1.79087 0
M  V30 2729 H 249.212 0.750408 -0.0735107 0
M  V30 2730 H 251.863 1.62624 -0.850048 0
M  V30 2731 H 250.245 3.94047 0.392781 0
M  V30 2732 H 251.419 3.89273 -2.46583 0
M  V30 2733 H 249.734 3.59976 -2.09299 0
M  V30 2734 H 252.331 5.34652 0.0713833 0
M  V30 2735 H 252.674 4.00505 1.13586 0
M  V30 2736 H 253.207 3.93816 -0.561599 0
M  V30 2737 H 249.946 5.92323 -2.80774 0
M  V30 2738 H 249.466 5.89714 -1.09535 0
M  V30 2739 H 251.145 6.28201 -1.5483 0
M  V30 2740 N 251.277 0.427512 1.51691 0
M  V30 2741 C 252.688 -0.0378867 1.86662 0
M  V30 2742 C 253.039 -1.42819 1.34525 0
M  V30 2743 O 252.164 -2.05037 0.692014 0
M  V30 2744 C 252.759 -0.0755266 3.38716 0
M  V30 2745 C 251.318 -0.485309 3.73258 0
M  V30 2746 C 250.465 0.328399 2.75349 0
M  V30 2747 H 253.416 0.64379 1.45055 0
M  V30 2748 H 253.437 -0.887056 3.70016 0
M  V30 2749 H 252.949 0.936487 3.76632 0
M  V30 2750 H 251.05 -1.50329 3.40928 0
M  V30 2751 H 251.163 -0.21693 4.78609 0
M  V30 2752 H 249.527 -0.211905 2.53817 0
M  V30 2753 H 250.31 1.3391 3.16106 0
M  V30 2754 N 252.755 -1.56801 0.158532 0
M  V30 2755 C 254.032 -1.88131 -0.535357 0
M  V30 2756 C 254.412 -1.06638 -1.82186 0
M  V30 2757 O 253.76 -0.156533 -2.27963 0
M  V30 2758 C 253.97 -3.39949 -0.789653 0
M  V30 2759 C 255.318 -4.09416 -1.12533 0
M  V30 2760 O 256.342 -3.45194 -0.878622 0
M  V30 2761 O 255.201 -5.22855 -1.59014 0
M  V30 2762 H 252.295 -0.780143 -0.27442 0
M  V30 2763 H 254.841 -1.68564 0.19601 0
M  V30 2764 H 253.613 -3.91115 0.120353 0
M  V30 2765 H 253.236 -3.65084 -1.57479 0
M  V30 2766 N 254.233 0.115231 -1.57178 0
M  V30 2767 C 255.143 1.15994 -2.03918 0
M  V30 2768 C 256.159 1.45103 -0.960268 0
M  V30 2769 O 257.335 1.56144 -1.27204 0
M  V30 2770 C 254.4 2.46568 -2.43732 0
M  V30 2771 C 253.461 2.24822 -3.65723 0
M  V30 2772 C 252.694 3.4917 -4.03629 0
M  V30 2773 O 252.917 4.56623 -3.41835 0
M  V30 2774 O 251.851 3.39949 -4.96708 0
M  V30 2775 H 255.677 0.793019 -2.93164 0
M  V30 2776 H 253.262 0.3263 -1.45793 0
M  V30 2777 H 255.144 3.23492 -2.70057 0
M  V30 2778 H 253.819 2.82726 -1.57631 0
M  V30 2779 H 252.726 1.45744 -3.44542 0
M  V30 2780 H 254.059 1.93566 -4.52541 0
M  V30 2781 N 255.711 1.52812 0.385517 0
M  V30 2782 C 256.641 1.80808 1.47752 0
M  V30 2783 C 257.622 0.660318 1.5676 0
M  V30 2784 O 258.807 0.908246 1.71652 0
M  V30 2785 C 255.937 1.98008 2.85324 0
M  V30 2786 C 254.891 3.13709 2.91154 0
M  V30 2787 C 254.217 3.16169 4.31209 0
M  V30 2788 C 255.517 4.52709 2.60483 0
M  V30 2789 H 257.211 2.72253 1.24573 0
M  V30 2790 H 254.757 1.31003 0.597839 0
M  V30 2791 H 256.71 2.16176 3.61726 0
M  V30 2792 H 255.434 1.03255 3.09848 0
M  V30 2793 H 254.093 2.95329 2.17201 0
M  V30 2794 H 253.741 2.19092 4.52778 0
M  V30 2795 H 253.441 3.93894 4.36029 0
M  V30 2796 H 254.965 3.36496 5.09512 0
M  V30 2797 H 256.379 4.71173 3.26602 0
M  V30 2798 H 254.776 5.32528 2.76648 0
M  V30 2799 H 255.846 4.59186 1.55809 0
M  V30 2800 N 257.189 -0.644168 1.43834 0
M  V30 2801 C 258.139 -1.7501 1.46135 0
M  V30 2802 C 259.123 -1.57507 0.328685 0
M  V30 2803 O 260.315 -1.67465 0.5731 0
M  V30 2804 C 257.444 -3.13641 1.39585 0
M  V30 2805 C 256.53 -3.3666 2.57916 0
M  V30 2806 N 256.921 -3.30107 3.83227 0
M  V30 2807 C 255.219 -3.67411 2.52834 0
M  V30 2808 C 255.92 -3.53456 4.61999 0
M  V30 2809 N 254.896 -3.75705 3.9287 0
M  V30 2810 H 258.698 -1.68382 2.40883 0
M  V30 2811 H 256.212 -0.846169 1.38614 0
M  V30 2812 H 258.209 -3.92933 1.39317 0
M  V30 2813 H 256.869 -3.21444 0.45865 0
M  V30 2814 H 257.88 -3.09316 4.15384 0
M  V30 2815 H 254.557 -3.82275 1.67845 0
M  V30 2816 H 255.947 -3.54093 5.71024 0
M  V30 2817 N 258.668 -1.30515 -0.883378 0
M  V30 2818 C 259.6 -1.12846 -1.99496 0
M  V30 2819 C 260.613 -0.0712571 -1.62644 0
M  V30 2820 O 261.802 -0.317432 -1.75655 0
M  V30 2821 C 258.902 -0.699123 -3.3161 0
M  V30 2822 C 258.075 -1.83842 -3.96889 0
M  V30 2823 C 257.134 -1.39737 -5.07307 0
M  V30 2824 O 256.16 -2.10485 -5.28852 0
M  V30 2825 N 257.362 -0.277279 -5.79837 0
M  V30 2826 H 260.127 -2.08585 -2.15203 0
M  V30 2827 H 257.688 -1.22672 -1.05656 0
M  V30 2828 H 259.68 -0.387044 -4.02845 0
M  V30 2829 H 258.25 0.166276 -3.12157 0
M  V30 2830 H 257.47 -2.31853 -3.18807 0
M  V30 2831 H 258.758 -2.60187 -4.37241 0
M  V30 2832 H 258.156 0.3122 -5.64838 0
M  V30 2833 H 256.713 -0.0246623 -6.51795 0
M  V30 2834 N 260.146 1.09593 -1.13257 0
M  V30 2835 C 261.392 1.82003 -0.89458 0
M  V30 2836 C 261.725 1.85402 0.577906 0
M  V30 2837 O 261 1.32099 1.42759 0
M  V30 2838 C 261.283 3.28237 -1.48096 0
M  V30 2839 C 261.136 3.3312 -3.02244 0
M  V30 2840 C 262.455 4.24871 -1.14774 0
M  V30 2841 H 259.574 0.66077 -0.326424 0
M  V30 2842 H 262.216 1.28389 -1.40058 0
M  V30 2843 H 260.366 3.74024 -1.05062 0
M  V30 2844 H 262.038 2.95748 -3.54021 0
M  V30 2845 H 260.281 2.72756 -3.37323 0
M  V30 2846 H 260.952 4.3613 -3.38371 0
M  V30 2847 H 263.428 3.87361 -1.51957 0
M  V30 2848 H 262.304 5.25532 -1.58452 0
M  V30 2849 H 262.565 4.42058 -0.0611849 0
M  V30 2850 N 261.624 0.925811 1.2754 0
M  V30 2851 C 262.587 0.428129 2.25166 0
M  V30 2852 C 263.587 -0.452261 1.54309 0
M  V30 2853 O 264.777 -0.253608 1.72344 0
M  V30 2854 C 261.909 -0.384749 3.38722 0
M  V30 2855 H 263.102 1.29066 2.70706 0
M  V30 2856 H 260.655 0.706323 1.3943 0
M  V30 2857 H 261.39 -1.26618 2.98561 0
M  V30 2858 H 261.175 0.246454 3.91325 0
M  V30 2859 H 262.665 -0.723389 4.11287 0
M  V30 2860 N 263.102 -1.41638 0.69111 0
M  V30 2861 C 264.518 -1.55435 0.362224 0
M  V30 2862 C 264.718 -1.66754 -1.13117 0
M  V30 2863 O 263.774 -1.64348 -1.91692 0
M  V30 2864 C 265.087 -2.79588 1.10684 0
M  V30 2865 C 266.635 -2.9338 1.09075 0
M  V30 2866 C 267.11 -4.20414 1.81703 0
M  V30 2867 N 268.601 -4.27362 1.7865 0
M  V30 2868 C 269.336 -5.24507 2.31689 0
M  V30 2869 N 268.832 -6.27708 2.93179 0
M  V30 2870 N 270.625 -5.16416 2.2197 0
M  V30 2871 H 262.776 -1.32536 1.65976 0
M  V30 2872 H 265.039 -0.639115 0.700168 0
M  V30 2873 H 264.745 -2.77419 2.16175 0
M  V30 2874 H 264.619 -3.70973 0.682545 0
M  V30 2875 H 267.006 -2.95067 0.0441238 0
M  V30 2876 H 267.087 -2.0318 1.55407 0
M  V30 2877 H 266.731 -4.19488 2.86343 0
M  V30 2878 H 266.661 -5.09578 1.32808 0
M  V30 2879 H 269.152 -3.53415 1.33815 0
M  V30 2880 H 269.465 -6.98217 3.31229 0
M  V30 2881 H 267.81 -6.28223 2.97255 0
M  V30 2882 H 271.001 -4.34716 1.73607 0
M  V30 2883 H 271.174 -5.91958 2.63609 0
M  V30 2884 N 264.58 -0.43555 -1.51462 0
M  V30 2885 C 265.528 0.391205 -2.29287 0
M  V30 2886 C 266.522 1.02247 -1.35062 0
M  V30 2887 O 267.728 0.957646 -1.52411 0
M  V30 2888 H 264.103 0.144968 -0.737895 0
M  V30 2889 H 266.074 -0.286051 -2.97026 0
M  V30 2890 C 264.823 1.48096 -3.14583 0
M  V30 2891 H 264.146 1.00457 -3.86973 0
M  V30 2892 H 265.586 2.03273 -3.72097 0
M  V30 2893 C 264.045 2.46321 -2.29843 0
M  V30 2894 O 264.575 3.50815 -1.95682 0
M  V30 2895 N 262.781 2.17166 -1.931 0
M  V30 2896 H 262.328 1.32218 -2.21079 0
M  V30 2897 H 262.286 2.83127 -1.36698 0
M  V30 2898 N 266.058 1.56714 -0.166846 0
M  V30 2899 C 267.306 1.96358 0.478305 0
M  V30 2900 C 267.627 1.0537 1.6408 0
M  V30 2901 O 266.897 0.119154 1.95537 0
M  V30 2902 H 265.477 0.725065 0.179692 0
M  V30 2903 H 268.139 1.93329 -0.246985 0
M  V30 2904 H 267.235 3.00547 0.841292 0
M  V30 2905 N 267.536 -0.106894 1.57237 0
M  V30 2906 C 268.761 -0.830287 1.90055 0
M  V30 2907 C 269.186 -1.72064 0.75998 0
M  V30 2908 O 268.544 -1.78982 -0.288991 0
M  V30 2909 C 268.592 -1.6295 3.21683 0
M  V30 2910 O 267.696 -2.73748 3.08441 0
M  V30 2911 H 267.037 -0.228855 0.623315 0
M  V30 2912 H 269.567 -0.085658 2.04421 0
M  V30 2913 H 269.577 -2.01621 3.54701 0
M  V30 2914 H 268.252 -0.975989 4.04286 0
M  V30 2915 H 266.829 -2.38192 2.86913 0
M  V30 2916 N 269.014 -1.53014 -0.377408 0
M  V30 2917 C 270.261 -1.68623 -1.12128 0
M  V30 2918 C 270.589 -0.431997 -1.89642 0
M  V30 2919 O 269.844 0.585855 -1.86725 0
M  V30 2920 C 270.143 -2.87982 -2.11663 0
M  V30 2921 C 269.809 -4.24964 -1.50719 0
M  V30 2922 C 268.471 -4.62217 -1.33825 0
M  V30 2923 C 270.823 -5.10199 -1.06519 0
M  V30 2924 C 268.151 -5.82352 -0.712963 0
M  V30 2925 C 270.503 -6.30969 -0.453955 0
M  V30 2926 C 269.167 -6.66944 -0.272411 0
M  V30 2927 H 268.437 -0.617034 -0.410305 0
M  V30 2928 H 271.084 -1.8718 -0.404484 0
M  V30 2929 H 269.389 -2.63889 -2.89603 0
M  V30 2930 H 271.086 -2.97253 -2.6915 0
M  V30 2931 H 267.676 -3.95626 -1.64858 0
M  V30 2932 H 271.86 -4.81978 -1.18368 0
M  V30 2933 H 267.116 -6.08824 -0.560611 0
M  V30 2934 H 271.29 -6.96324 -0.103217 0
M  V30 2935 H 268.917 -7.59898 0.214181 0
M  V30 2936 N 270.492 0.636531 -1.44174 0
M  V30 2937 C 271.72 1.42353 -1.50144 0
M  V30 2938 C 272.135 1.88389 -0.124575 0
M  V30 2939 O 271.492 1.6051 0.868489 0
M  V30 2940 C 271.543 2.64744 -2.46156 0
M  V30 2941 O 271.264 2.20629 -3.7849 0
M  V30 2942 C 272.765 3.57929 -2.61537 0
M  V30 2943 H 269.985 0.436752 -0.5094 0
M  V30 2944 H 272.529 0.778933 -1.89084 0
M  V30 2945 H 270.684 3.25307 -2.10366 0
M  V30 2946 H 271.098 2.99938 -4.30276 0
M  V30 2947 H 272.572 4.40428 -3.32757 0
M  V30 2948 H 273.049 4.06382 -1.66585 0
M  V30 2949 H 273.655 3.03238 -2.98206 0
M  V30 2950 N 271.97 1.30982 0.876444 0
M  V30 2951 C 273.195 1.23373 1.66715 0
M  V30 2952 C 273.62 -0.19885 1.87046 0
M  V30 2953 O 272.978 -1.1427 1.40756 0
M  V30 2954 C 273.026 1.97644 3.01611 0
M  V30 2955 O 272.13 1.30935 3.91062 0
M  V30 2956 H 271.471 0.426279 0.509099 0
M  V30 2957 H 274.001 1.72944 1.09323 0
M  V30 2958 H 274.011 2.06992 3.51594 0
M  V30 2959 H 272.686 3.01829 2.86133 0
M  V30 2960 H 271.263 1.29996 3.49507 0
M  V30 2961 N 273.449 -1.08991 1.13837 0
M  V30 2962 C 274.698 -1.80631 0.897509 0
M  V30 2963 C 275.011 -1.86872 -0.57777 0
M  V30 2964 O 276.217 -2.54866 -0.935701 0
M  V30 2965 C 274.673 -3.24517 1.55618 0
M  V30 2966 C 274.281 -3.26529 3.0673 0
M  V30 2967 C 276.025 -4.00882 1.3962 0
M  V30 2968 C 273.932 -4.64965 3.65461 0
M  V30 2969 H 272.862 -0.67691 0.332129 0
M  V30 2970 H 275.513 -1.2246 1.3666 0
M  V30 2971 H 273.895 -3.82778 1.01476 0
M  V30 2972 H 275.069 -2.78008 3.67489 0
M  V30 2973 H 273.384 -2.63656 3.22296 0
M  V30 2974 H 275.981 -5.03167 1.80906 0
M  V30 2975 H 276.324 -4.14896 0.341578 0
M  V30 2976 H 276.857 -3.49075 1.90766 0
M  V30 2977 H 273.596 -4.56153 4.70749 0
M  V30 2978 H 273.116 -5.13792 3.09481 0
M  V30 2979 H 274.795 -5.3394 3.654 0
M  V30 2980 N 274.927 -0.932562 -1.27047 0
M  V30 2981 C 275.875 -0.42603 -2.28665 0
M  V30 2982 C 276.869 0.49219 -1.62092 0
M  V30 2983 O 278.075 0.371355 -1.76128 0
M  V30 2984 H 274.45 -0.119213 -0.742491 0
M  V30 2985 H 276.421 -1.29579 -2.68797 0
M  V30 2986 C 275.17 0.301426 -3.46391 0
M  V30 2987 H 274.493 -0.39595 -3.97834 0
M  V30 2988 H 275.933 0.6202 -4.1944 0
M  V30 2989 C 274.392 1.51616 -3.00856 0
M  V30 2990 O 274.922 2.61476 -3.04948 0
M  V30 2991 N 273.128 1.36969 -2.56296 0
M  V30 2992 H 272.675 0.475873 -2.53166 0
M  V30 2993 H 272.633 2.18368 -2.26192 0
M  V30 2994 N 276.405 1.4127 -0.698611 0
M  V30 2995 C 277.63 2.06024 -0.238512 0
M  V30 2996 C 278.055 1.5224 1.10475 0
M  V30 2997 O 277.413 0.650623 1.69223 0
M  V30 2998 C 277.461 3.59988 -0.209952 0
M  V30 2999 O 276.565 4.04282 0.814235 0
M  V30 3000 H 275.906 0.653829 -0.115775 0
M  V30 3001 H 278.436 1.8098 -0.954326 0
M  V30 3002 H 278.446 4.07979 -0.0418436 0
M  V30 3003 H 277.121 3.98503 -1.1903 0
M  V30 3004 H 275.698 3.6779 0.615234 0
M  V30 3005 N 277.883 0.443576 1.51229 0
M  V30 3006 C 278.793 -0.370721 2.31652 0
M  V30 3007 C 279.809 -1.02186 1.40833 0
M  V30 3008 O 280.985 -1.01586 1.73903 0
M  V30 3009 C 278.05 -1.45376 3.14749 0
M  V30 3010 C 277.111 -0.822099 4.21355 0
M  V30 3011 C 276.344 -1.85353 5.0048 0
M  V30 3012 O 276.567 -3.07656 4.80316 0
M  V30 3013 O 275.501 -1.4406 5.84406 0
M  V30 3014 H 279.327 0.286002 3.0235 0
M  V30 3015 H 276.912 0.20598 1.47973 0
M  V30 3016 H 278.794 -2.08173 3.66391 0
M  V30 3017 H 277.469 -2.09445 2.46809 0
M  V30 3018 H 276.376 -0.155909 3.73775 0
M  V30 3019 H 277.709 -0.224797 4.91686 0
M  V30 3020 N 279.361 -1.56624 0.175154 0
M  V30 3021 C 280.609 -1.96609 -0.467885 0
M  V30 3022 C 280.93 -1.06238 -1.63519 0
M  V30 3023 O 280.2 -0.129523 -1.95471 0
M  V30 3024 H 278.78 -0.726008 -0.175845 0
M  V30 3025 H 281.442 -1.93195 0.257234 0
M  V30 3026 H 280.538 -3.00989 -0.825342 0
M  V30 3027 N 280.839 0.0985539 -1.57292 0
M  V30 3028 C 281.749 1.13824 -2.05137 0
M  V30 3029 C 282.765 1.44076 -0.975604 0
M  V30 3030 O 283.941 1.54786 -1.28853 0
M  V30 3031 C 281.006 2.43969 -2.46333 0
M  V30 3032 C 280.067 2.2093 -3.68087 0
M  V30 3033 C 279.3 3.44869 -4.0731 0
M  V30 3034 O 279.523 4.52972 -3.46659 0
M  V30 3035 O 278.457 3.34661 -5.00285 0
M  V30 3036 H 282.283 0.761881 -2.93988 0
M  V30 3037 H 279.868 0.310818 -1.46131 0
M  V30 3038 H 281.75 3.20609 -2.73473 0
M  V30 3039 H 280.425 2.81038 -1.60621 0
M  V30 3040 H 279.332 1.42081 -3.46069 0
M  V30 3041 H 280.665 1.88755 -4.54568 0
M  V30 3042 N 282.317 1.53212 0.369288 0
M  V30 3043 C 283.564 1.69215 1.11232 0
M  V30 3044 C 283.892 0.442048 1.8941 0
M  V30 3045 O 283.147 -0.575944 1.87033 0
M  V30 3046 C 283.446 2.89101 2.10132 0
M  V30 3047 C 283.112 4.25758 1.48463 0
M  V30 3048 C 281.774 4.6292 1.31372 0
M  V30 3049 C 284.126 5.10757 1.03811 0
M  V30 3050 C 281.454 5.82722 0.68207 0
M  V30 3051 C 283.806 6.31201 0.420487 0
M  V30 3052 C 282.47 6.67079 0.237038 0
M  V30 3053 H 281.74 0.619201 0.407027 0
M  V30 3054 H 284.387 1.87391 0.394552 0
M  V30 3055 H 282.692 2.65421 2.88199 0
M  V30 3056 H 284.389 2.98676 2.6757 0
M  V30 3057 H 280.979 3.96494 1.62758 0
M  V30 3058 H 285.163 4.82599 1.1581 0
M  V30 3059 H 280.419 6.09113 0.528316 0
M  V30 3060 H 284.593 6.96368 0.0662874 0
M  V30 3061 H 282.22 7.59774 -0.254477 0
M  V30 3062 N 283.795 -0.628877 1.44509 0
M  V30 3063 C 285.044 -1.38437 1.4669 0
M  V30 3064 C 285.357 -1.95322 0.104272 0
M  V30 3065 O 286.563 -2.715 0.00362163 0
M  V30 3066 C 285.019 -2.50659 2.5826 0
M  V30 3067 C 284.627 -2.00277 4.0074 0
M  V30 3068 C 286.371 -3.27844 2.69664 0
M  V30 3069 C 284.278 -3.09854 5.0373 0
M  V30 3070 H 283.208 -0.520245 0.545766 0
M  V30 3071 H 285.859 -0.676313 1.70582 0
M  V30 3072 H 284.241 -3.2405 2.27612 0
M  V30 3073 H 285.415 -1.33736 4.40966 0
M  V30 3074 H 283.73 -1.35901 3.93599 0
M  V30 3075 H 286.327 -4.09534 3.43781 0
M  V30 3076 H 286.67 -3.77471 1.75559 0
M  V30 3077 H 287.203 -2.61543 2.99733 0
M  V30 3078 H 283.942 -2.65168 5.99472 0
M  V30 3079 H 283.462 -3.7503 4.68095 0
M  V30 3080 H 285.141 -3.74592 5.27532 0
M  V30 3081 N 285.273 -1.31445 -0.869486 0
M  V30 3082 C 286.684 -1.19042 -1.43826 0
M  V30 3083 C 287.035 0.202919 -1.95148 0
M  V30 3084 O 286.16 1.10071 -1.86315 0
M  V30 3085 C 286.755 -2.15499 -2.6143 0
M  V30 3086 C 285.314 -2.07028 -3.14351 0
M  V30 3087 C 284.461 -2.04701 -1.87063 0
M  V30 3088 H 287.412 -1.43489 -0.677984 0
M  V30 3089 H 287.433 -1.74488 -3.38134 0
M  V30 3090 H 286.945 -3.16899 -2.24046 0
M  V30 3091 H 285.046 -1.08825 -3.56354 0
M  V30 3092 H 285.159 -2.96157 -3.766 0
M  V30 3093 H 283.523 -1.49724 -2.06046 0
M  V30 3094 H 284.306 -3.07857 -1.51917 0
M  V30 3095 N 286.751 1.08385 -1.14413 0
M  V30 3096 C 287.661 2.18856 -0.844951 0
M  V30 3097 C 288.677 1.73121 0.174668 0
M  V30 3098 O 289.853 2.014 0.00312857 0
M  V30 3099 C 286.918 3.45155 -0.32696 0
M  V30 3100 C 285.979 4.05513 -1.40916 0
M  V30 3101 C 285.212 5.25784 -0.915793 0
M  V30 3102 O 285.435 5.69884 0.242651 0
M  V30 3103 O 284.369 5.77545 -1.69487 0
M  V30 3104 H 288.195 2.46919 -1.76818 0
M  V30 3105 H 285.78 1.17524 -0.922411 0
M  V30 3106 H 287.662 4.21377 -0.0440211 0
M  V30 3107 H 286.337 3.18668 0.568539 0
M  V30 3108 H 285.244 3.30879 -1.74556 0
M  V30 3109 H 286.577 4.3625 -2.27919 0
M  V30 3110 N 288.23 0.939286 1.26551 0
M  V30 3111 C 289.455 0.602008 1.98471 0
M  V30 3112 C 289.88 -0.815624 1.69497 0
M  V30 3113 O 289.238 -1.54912 0.941905 0
M  V30 3114 C 289.286 0.848407 3.50477 0
M  V30 3115 O 288.39 -0.0804009 4.12322 0
M  V30 3116 H 287.731 0.23049 0.622712 0
M  V30 3117 H 290.261 1.2617 1.61066 0
M  V30 3118 H 290.271 0.768553 4.00696 0
M  V30 3119 H 288.946 1.88171 3.70897 0
M  V30 3120 H 287.523 0.0503508 3.72866 0
M  V30 3121 N 289.708 -1.40897 0.706093 0
M  V30 3122 C 290.641 -2.282 -0.00328781 0
M  V30 3123 C 291.619 -1.42816 -0.77732 0
M  V30 3124 O 292.803 -1.72237 -0.765944 0
M  V30 3125 C 289.93 -3.23226 -1.01205 0
M  V30 3126 C 288.976 -4.25222 -0.329955 0
M  V30 3127 S 289.809 -5.27269 0.935298 0
M  V30 3128 C 290.965 -6.25859 -0.0716061 0
M  V30 3129 H 291.198 -2.88016 0.737143 0
M  V30 3130 H 288.731 -1.46191 0.496756 0
M  V30 3131 H 290.689 -3.78503 -1.58888 0
M  V30 3132 H 289.35 -2.62485 -1.72513 0
M  V30 3133 H 288.543 -4.92023 -1.09221 0
M  V30 3134 H 288.145 -3.73595 0.174069 0
M  V30 3135 H 290.437 -6.71204 -0.921521 0
M  V30 3136 H 291.38 -7.0586 0.562765 0
M  V30 3137 H 291.788 -5.62852 -0.431088 0
M  V30 3138 N 291.186 -0.45159 -1.50991 0
M  V30 3139 C 292.463 0.170707 -1.94854 0
M  V30 3140 C 292.843 1.58788 -1.39103 0
M  V30 3141 O 292.191 2.20913 -0.583921 0
M  V30 3142 C 292.401 0.133929 -3.48743 0
M  V30 3143 C 293.749 0.33248 -4.23296 0
M  V30 3144 O 294.773 0.211403 -3.55572 0
M  V30 3145 O 293.632 0.57486 -5.43468 0
M  V30 3146 H 290.726 0.122264 -0.817912 0
M  V30 3147 H 293.272 -0.510594 -1.61836 0
M  V30 3148 H 292.044 -0.856283 -3.81816 0
M  V30 3149 H 291.667 0.857529 -3.88242 0
M  V30 3150 N 292.664 1.56529 -0.183458 0
M  V30 3151 C 293.596 2.15747 0.773697 0
M  V30 3152 C 294.609 1.1162 1.1851 0
M  V30 3153 O 295.798 1.3876 1.12285 0
M  V30 3154 C 292.898 2.6952 2.05456 0
M  V30 3155 C 292.071 3.98429 1.8048 0
M  V30 3156 C 291.13 4.37145 2.92901 0
M  V30 3157 O 290.156 5.04791 2.6301 0
M  V30 3158 N 291.358 3.99695 4.2098 0
M  V30 3159 H 294.123 2.98505 0.26736 0
M  V30 3160 H 291.684 1.619 -0.0010878 0
M  V30 3161 H 293.676 2.92412 2.79781 0
M  V30 3162 H 292.246 1.91282 2.47245 0
M  V30 3163 H 291.466 3.8379 0.899947 0
M  V30 3164 H 292.754 4.82597 1.61175 0
M  V30 3165 H 292.152 3.4526 4.48121 0
M  V30 3166 H 290.709 4.27562 4.9197 0
M  V30 3167 N 294.142 -0.090211 1.57342 0
M  V30 3168 C 295.075 -1.14035 1.97664 0
M  V30 3169 C 296.053 -1.38576 0.850616 0
M  V30 3170 O 297.237 -1.52255 1.11134 0
M  V30 3171 C 294.364 -2.48854 2.2976 0
M  V30 3172 C 293.41 -2.40564 3.52181 0
M  V30 3173 S 294.243 -1.81745 5.03715 0
M  V30 3174 C 295.399 -3.18178 5.38993 0
M  V30 3175 H 295.632 -0.796636 2.86428 0
M  V30 3176 H 293.165 -0.298072 1.51496 0
M  V30 3177 H 295.123 -3.26413 2.48927 0
M  V30 3178 H 293.784 -2.80393 1.41558 0
M  V30 3179 H 292.977 -3.39942 3.72096 0
M  V30 3180 H 292.579 -1.71135 3.32549 0
M  V30 3181 H 294.871 -4.14461 5.35937 0
M  V30 3182 H 295.814 -3.03062 6.39968 0
M  V30 3183 H 296.222 -3.17935 4.66452 0
M  V30 3184 N 295.62 -1.53406 -0.361157 0
M  V30 3185 C 296.55 -1.83136 -1.44857 0
M  V30 3186 C 297.531 -0.685174 -1.5569 0
M  V30 3187 O 298.716 -0.93544 -1.70186 0
M  V30 3188 C 295.846 -2.02522 -2.82138 0
M  V30 3189 C 294.8 -3.18302 -2.86126 0
M  V30 3190 C 294.126 -3.22989 -4.26125 0
M  V30 3191 C 295.426 -4.56796 -2.53248 0
M  V30 3192 H 297.12 -2.74201 -1.20226 0
M  V30 3193 H 294.666 -1.31938 -0.576922 0
M  V30 3194 H 296.619 -2.21904 -3.58241 0
M  V30 3195 H 295.343 -1.08172 -3.08166 0
M  V30 3196 H 294.002 -2.98747 -2.12475 0
M  V30 3197 H 293.65 -2.26267 -4.49235 0
M  V30 3198 H 293.35 -4.00781 -4.29708 0
M  V30 3199 H 294.874 -3.44559 -5.04094 0
M  V30 3200 H 296.288 -4.7631 -3.19064 0
M  V30 3201 H 294.685 -5.36862 -2.68141 0
M  V30 3202 H 295.755 -4.61606 -1.48484 0
M  V30 3203 N 297.098 0.621204 -1.44841 0
M  V30 3204 C 298.375 1.38 -1.38619 0
M  V30 3205 C 298.755 2.11041 -0.0498935 0
M  V30 3206 O 298.103 2.06992 0.967816 0
M  V30 3207 C 298.313 2.33817 -2.59096 0
M  V30 3208 C 299.661 2.96844 -3.03593 0
M  V30 3209 O 300.685 2.44141 -2.59371 0
M  V30 3210 O 299.544 3.92476 -3.80296 0
M  V30 3211 H 296.638 0.61811 -0.549426 0
M  V30 3212 H 299.184 0.645429 -1.56947 0
M  V30 3213 H 297.956 1.79012 -3.47952 0
M  V30 3214 H 297.579 3.14676 -2.43032 0
M  V30 3215 N 298.576 1.31904 0.862503 0
M  V30 3216 C 299.987 1.19803 1.43193 0
M  V30 3217 C 300.338 -0.192567 1.95253 0
M  V30 3218 O 299.463 -1.09081 1.86896 0
M  V30 3219 C 300.058 2.16883 2.60283 0
M  V30 3220 C 298.617 2.08692 3.13248 0
M  V30 3221 C 297.764 2.05691 1.85975 0
M  V30 3222 H 300.715 1.43846 0.670365 0
M  V30 3223 H 300.736 1.76278 3.37204 0
M  V30 3224 H 300.248 3.18083 2.22363 0
M  V30 3225 H 298.349 1.10713 3.55771 0
M  V30 3226 H 298.462 2.9815 3.75025 0
M  V30 3227 H 296.826 1.50814 2.05249 0
M  V30 3228 H 297.609 3.08659 1.50282 0
M  V30 3229 N 300.054 -1.07777 1.14986 0
M  V30 3230 C 300.984 -2.16865 0.865557 0
M  V30 3231 C 301.965 -1.69123 -0.182083 0
M  V30 3232 O 303.15 -1.94164 -0.0373815 0
M  V30 3233 C 300.28 -3.45539 0.349313 0
M  V30 3234 C 299.234 -4.06708 1.33313 0
M  V30 3235 C 298.56 -5.30411 0.675918 0
M  V30 3236 C 299.86 -4.47241 2.69764 0
M  V30 3237 H 301.554 -2.40905 1.77778 0
M  V30 3238 H 299.1 -1.15781 0.856203 0
M  V30 3239 H 301.053 -4.21174 0.137983 0
M  V30 3240 H 299.777 -3.21072 -0.598362 0
M  V30 3241 H 298.436 -3.33112 1.53075 0
M  V30 3242 H 298.084 -5.02232 -0.277767 0
M  V30 3243 H 297.784 -5.72293 1.33244 0
M  V30 3244 H 299.308 -6.08755 0.474262 0
M  V30 3245 H 300.722 -5.14025 2.53873 0
M  V30 3246 H 299.119 -5.00062 3.3175 0
M  V30 3247 H 300.189 -3.58818 3.26156 0
M  V30 3248 N 301.532 -0.945985 -1.26051 0
M  V30 3249 C 302.757 -0.612525 -1.98149 0
M  V30 3250 C 303.182 0.806623 -1.69927 0
M  V30 3251 O 302.54 1.54411 -0.950108 0
M  V30 3252 C 302.588 -0.866981 -3.50023 0
M  V30 3253 O 301.692 0.0585333 -4.12358 0
M  V30 3254 H 301.033 -0.23379 -0.621481 0
M  V30 3255 H 303.563 -1.27023 -1.60395 0
M  V30 3256 H 303.573 -0.789792 -4.00283 0
M  V30 3257 H 302.248 -1.90135 -3.69894 0
M  V30 3258 H 300.825 -0.0701241 -3.72834 0
M  V30 3259 N 303.011 1.40521 -0.713556 0
M  V30 3260 C 303.941 2.33381 -0.0743864 0
M  V30 3261 C 304.922 1.52784 0.747735 0
M  V30 3262 O 306.107 1.81258 0.697071 0
M  V30 3263 C 303.237 3.36748 0.849598 0
M  V30 3264 C 302.191 4.27793 0.133247 0
M  V30 3265 C 301.517 5.21679 1.17281 0
M  V30 3266 C 302.817 5.12415 -1.01134 0
M  V30 3267 H 304.511 2.87081 -0.850007 0
M  V30 3268 H 302.057 1.38034 -0.410201 0
M  V30 3269 H 304.01 4.00648 1.30612 0
M  V30 3270 H 302.734 2.81439 1.65709 0
M  V30 3271 H 301.393 3.65342 -0.303426 0
M  V30 3272 H 301.041 4.62677 1.9733 0
M  V30 3273 H 300.741 5.83435 0.698397 0
M  V30 3274 H 302.265 5.88456 1.62947 0
M  V30 3275 H 303.679 5.69781 -0.634274 0
M  V30 3276 H 302.076 5.83203 -1.41399 0
M  V30 3277 H 303.146 4.48514 -1.84292 0
M  V30 3278 N 304.489 0.459591 1.5075 0
M  V30 3279 C 305.714 -0.0996819 2.0716 0
M  V30 3280 C 306.139 -1.33761 1.32249 0
M  V30 3281 O 305.497 -1.77551 0.366786 0
M  V30 3282 C 305.545 -0.378226 3.58611 0
M  V30 3283 O 304.649 -1.46081 3.85661 0
M  V30 3284 H 303.99 0.00791392 0.663953 0
M  V30 3285 H 306.52 0.647329 1.9409 0
M  V30 3286 H 306.53 -0.622135 4.03229 0
M  V30 3287 H 305.205 0.526439 4.12555 0
M  V30 3288 H 303.782 -1.20511 3.5289 0
M  V30 3289 N 305.967 -1.56429 0.191757 0
M  V30 3290 C 307.192 -2.02309 -0.456706 0
M  V30 3291 C 307.617 -1.07103 -1.5463 0
M  V30 3292 O 306.975 -0.0539677 -1.8122 0
M  V30 3293 C 307.023 -3.46654 -0.993159 0
M  V30 3294 O 306.127 -3.54559 -2.10622 0
M  V30 3295 H 305.468 -0.655303 -0.107114 0
M  V30 3296 H 307.998 -2.02364 0.301653 0
M  V30 3297 H 308.008 -3.86377 -1.31061 0
M  V30 3298 H 306.683 -4.1544 -0.195504 0
M  V30 3299 H 305.26 -3.26708 -1.79767 0
M  V30 3300 N 307.445 0.0818655 -1.57387 0
M  V30 3301 C 308.856 0.634871 -1.75574 0
M  V30 3302 C 309.207 1.78435 -0.815809 0
M  V30 3303 O 308.332 2.164 0.0025366 0
M  V30 3304 C 308.927 1.15845 -3.18379 0
M  V30 3305 C 307.486 1.65741 -3.37945 0
M  V30 3306 C 306.633 0.572549 -2.71325 0
M  V30 3307 H 309.584 -0.144268 -1.58043 0
M  V30 3308 H 309.605 2.02751 -3.21982 0
M  V30 3309 H 309.117 0.321631 -3.86765 0
M  V30 3310 H 307.218 2.51781 -2.74658 0
M  V30 3311 H 307.331 1.74129 -4.46336 0
M  V30 3312 H 305.695 1.01518 -2.33594 0
M  V30 3313 H 306.478 -0.253918 -3.4236 0
M  V30 3314 N 308.923 1.53595 0.353017 0
M  V30 3315 C 309.833 1.83897 1.45667 0
M  V30 3316 C 310.849 0.728334 1.58023 0
M  V30 3317 O 312.025 1.01968 1.73679 0
M  V30 3318 C 309.09 2.03383 2.80778 0
M  V30 3319 C 308.151 3.27262 2.77845 0
M  V30 3320 C 307.384 3.45809 4.06512 0
M  V30 3321 O 307.607 2.68387 5.03314 0
M  V30 3322 O 306.541 4.39207 4.11559 0
M  V30 3323 H 310.367 2.77686 1.2298 0
M  V30 3324 H 307.952 1.39132 0.544308 0
M  V30 3325 H 309.834 2.17698 3.60812 0
M  V30 3326 H 308.509 1.12783 3.03417 0
M  V30 3327 H 307.416 3.18359 1.96465 0
M  V30 3328 H 308.749 4.17824 2.60161 0
M  V30 3329 N 310.401 -0.613514 1.45168 0
M  V30 3330 C 311.349 -1.74572 1.53712 0
M  V30 3331 C 312.343 -1.64426 0.407505 0
M  V30 3332 O 313.549 -1.70291 0.583176 0
M  V30 3333 H 309.924 -0.576641 0.48269 0
M  V30 3334 H 311.895 -1.64492 2.48968 0
M  V30 3335 C 310.644 -3.12943 1.51532 0
M  V30 3336 H 309.967 -3.21407 2.37776 0
M  V30 3337 H 311.407 -3.9201 1.61569 0
M  V30 3338 C 309.866 -3.36053 0.238798 0
M  V30 3339 O 310.396 -3.95837 -0.6838 0
M  V30 3340 N 308.602 -2.9028 0.136359 0
M  V30 3341 H 308.149 -2.41811 0.887999 0
M  V30 3342 H 308.107 -3.06116 -0.716944 0
M  V30 3343 N 311.879 -1.3236 -0.855495 0
M  V30 3344 C 313.104 -1.2601 -1.64731 0
M  V30 3345 C 313.529 0.169068 -1.87339 0
M  V30 3346 O 312.887 1.12016 -1.42556 0
M  V30 3347 C 312.935 -2.02417 -2.98429 0
M  V30 3348 O 312.039 -1.3714 -3.8893 0
M  V30 3349 H 311.38 -0.434325 -0.502253 0
M  V30 3350 H 313.91 -1.74661 -1.06558 0
M  V30 3351 H 313.92 -2.12559 -3.48257 0
M  V30 3352 H 312.595 -3.06343 -2.81295 0
M  V30 3353 H 311.172 -1.3554 -3.47395 0
M  V30 3354 N 313.357 1.07166 -1.15556 0
M  V30 3355 C 314.605 1.79443 -0.929764 0
M  V30 3356 C 314.926 1.87246 0.544414 0
M  V30 3357 O 314.196 1.37473 1.39564 0
M  V30 3358 H 312.776 0.664625 -0.341003 0
M  V30 3359 H 315.438 1.29499 -1.45657 0
M  V30 3360 H 314.534 2.81832 -1.34079 0
M  V30 3361 N 314.835 0.952656 1.25548 0
M  V30 3362 C 316.06 0.623025 1.97821 0
M  V30 3363 C 316.485 -0.7976 1.70352 0
M  V30 3364 O 315.843 -1.53905 0.958283 0
M  V30 3365 C 315.891 0.885532 3.49558 0
M  V30 3366 O 314.995 -0.0366641 4.12384 0
M  V30 3367 H 314.336 0.237082 0.620232 0
M  V30 3368 H 316.866 1.27871 1.59719 0
M  V30 3369 H 316.876 0.811009 3.99858 0
M  V30 3370 H 315.551 1.92094 3.6888 0
M  V30 3371 H 314.128 0.0898954 3.72792 0
M  V30 3372 N 316.313 -1.40141 0.720998 0
M  V30 3373 C 317.561 -2.0039 0.262323 0
M  V30 3374 C 317.882 -1.57469 -1.15015 0
M  V30 3375 O 317.152 -0.816582 -1.78069 0
M  V30 3376 H 315.732 -0.741063 0.093996 0
M  V30 3377 H 318.394 -1.71398 0.927835 0
M  V30 3378 H 317.49 -3.10658 0.299671 0
M  V30 3379 N 317.792 -0.46758 -1.50504 0
M  V30 3380 C 319.017 0.0886943 -2.0721 0
M  V30 3381 C 319.442 1.33057 -1.32956 0
M  V30 3382 O 318.8 1.77354 -0.376197 0
M  V30 3383 C 318.848 0.359202 -3.58806 0
M  V30 3384 O 317.952 1.44034 -3.8643 0
M  V30 3385 H 317.293 -0.0114349 -0.663902 0
M  V30 3386 H 319.823 -0.657613 -1.93744 0
M  V30 3387 H 319.833 0.600742 -4.03553 0
M  V30 3388 H 318.508 -0.548311 -4.1227 0
M  V30 3389 H 317.085 1.18638 -3.53524 0
M  V30 3390 N 319.27 1.56325 -0.20005 0
M  V30 3391 C 320.51 1.99619 0.439519 0
M  V30 3392 C 320.874 1.08423 1.58456 0
M  V30 3393 O 322.075 1.40973 2.28867 0
M  V30 3394 C 320.346 3.46314 0.883258 0
M  V30 3395 S 321.905 4.11634 1.51997 0
M  V30 3396 H 318.723 0.697007 0.140363 0
M  V30 3397 H 321.325 1.93118 -0.304282 0
M  V30 3398 H 320.029 4.10381 0.0398967 0
M  V30 3399 H 319.56 3.56643 1.6604 0
M  V30 3400 H 321.575 4.09049 2.8088 0
M  V30 3401 N 320.748 -0.0735177 1.57428 0
M  V30 3402 C 322.159 -0.625551 1.75908 0
M  V30 3403 C 322.51 -1.78 0.825261 0
M  V30 3404 O 321.635 -2.16398 0.00893964 0
M  V30 3405 C 322.23 -1.14155 3.18989 0
M  V30 3406 C 320.789 -1.63946 3.38819 0
M  V30 3407 C 319.936 -0.558151 2.71625 0
M  V30 3408 H 322.887 0.152647 1.57964 0
M  V30 3409 H 322.908 -2.0104 3.23053 0
M  V30 3410 H 322.42 -0.301116 3.8693 0
M  V30 3411 H 320.521 -2.50321 2.7599 0
M  V30 3412 H 320.634 -1.71759 4.47253 0
M  V30 3413 H 318.998 -1.00278 2.34129 0
M  V30 3414 H 319.781 0.272071 3.4222 0
M  V30 3415 N 322.226 -1.5378 -0.344866 0
M  V30 3416 C 323.451 -1.75211 -1.10977 0
M  V30 3417 C 323.876 -0.48936 -1.81623 0
M  V30 3418 O 323.234 0.557925 -1.72502 0
M  V30 3419 C 323.282 -2.93147 -2.09993 0
M  V30 3420 O 322.386 -2.63203 -3.17487 0
M  V30 3421 H 321.727 -0.581241 -0.321021 0
M  V30 3422 H 324.257 -2.00738 -0.395661 0
M  V30 3423 H 324.267 -3.19898 -2.53237 0
M  V30 3424 H 322.942 -3.84731 -1.5797 0
M  V30 3425 H 321.519 -2.47336 -2.79069 0
M  V30 3426 N 323.704 0.605807 -1.45491 0
M  V30 3427 C 324.634 1.72709 -1.57143 0
M  V30 3428 C 325.615 1.6476 -0.422884 0
M  V30 3429 O 326.8 1.83132 -0.646247 0
M  V30 3430 C 323.93 3.11316 -1.53948 0
M  V30 3431 C 322.884 3.34077 -2.67537 0
M  V30 3432 C 322.21 4.72975 -2.49397 0
M  V30 3433 C 323.51 3.24158 -4.09535 0
M  V30 3434 H 325.204 1.63214 -2.51001 0
M  V30 3435 H 322.75 0.78379 -1.208 0
M  V30 3436 H 324.703 3.89557 -1.60696 0
M  V30 3437 H 323.427 3.21655 -0.566205 0
M  V30 3438 H 322.086 2.58227 -2.6022 0
M  V30 3439 H 321.734 4.8005 -1.50205 0
M  V30 3440 H 321.434 4.8916 -3.25571 0
M  V30 3441 H 322.958 5.53414 -2.58002 0
M  V30 3442 H 324.372 3.92271 -4.18086 0
M  V30 3443 H 322.769 3.51872 -4.86113 0
M  V30 3444 H 323.839 2.2157 -4.31317 0
M  V30 3445 N 325.182 1.32811 0.848464 0
M  V30 3446 C 326.459 1.14334 1.58704 0
M  V30 3447 C 326.839 -0.293948 2.09043 0
M  V30 3448 O 326.187 -1.29153 1.88499 0
M  V30 3449 C 326.397 2.17626 2.72837 0
M  V30 3450 C 327.745 2.51282 3.42261 0
M  V30 3451 O 328.769 2.16219 2.83068 0
M  V30 3452 O 327.628 3.11413 4.49093 0
M  V30 3453 H 324.722 0.441601 0.699226 0
M  V30 3454 H 327.268 1.44362 0.892053 0
M  V30 3455 H 326.04 3.14211 2.3321 0
M  V30 3456 H 325.663 1.88628 3.50008 0
M  V30 3457 N 326.66 -1.06551 1.16123 0
M  V30 3458 C 327.885 -1.83544 0.965735 0
M  V30 3459 C 328.31 -1.81843 -0.481102 0
M  V30 3460 O 327.668 -1.21732 -1.34354 0
M  V30 3461 C 327.716 -3.28169 1.49457 0
M  V30 3462 O 326.82 -4.0643 0.699157 0
M  V30 3463 H 326.161 -0.568026 0.343864 0
M  V30 3464 H 328.691 -1.34362 1.54299 0
M  V30 3465 H 328.701 -3.78992 1.51092 0
M  V30 3466 H 327.376 -3.28722 2.54784 0
M  V30 3467 H 325.953 -3.65216 0.7531 0
M  V30 3468 N 328.138 -0.959301 -1.25041 0
M  V30 3469 C 329.549 -0.65667 -1.74771 0
M  V30 3470 C 329.9 0.827852 -1.77879 0
M  V30 3471 O 329.025 1.64783 -1.40269 0
M  V30 3472 C 329.62 -1.1853 -3.1739 0
M  V30 3473 C 328.179 -0.932734 -3.6466 0
M  V30 3474 C 327.326 -1.32558 -2.43564 0
M  V30 3475 H 330.277 -1.13558 -1.10862 0
M  V30 3476 H 330.298 -0.547582 -3.76539 0
M  V30 3477 H 329.81 -2.26576 -3.15095 0
M  V30 3478 H 327.911 0.13257 -3.72364 0
M  V30 3479 H 328.024 -1.57248 -4.52559 0
M  V30 3480 H 326.388 -0.743956 -2.43593 0
M  V30 3481 H 327.171 -2.41537 -2.43957 0
M  V30 3482 N 329.616 1.39756 -0.72842 0
M  V30 3483 C 330.546 2.33289 -0.0991354 0
M  V30 3484 C 331.527 1.53568 0.731489 0
M  V30 3485 O 332.712 1.81987 0.677807 0
M  V30 3486 C 329.842 3.3763 0.813834 0
M  V30 3487 C 328.796 4.2791 0.0878663 0
M  V30 3488 C 328.122 5.22894 1.11741 0
M  V30 3489 C 329.422 5.11314 -1.06563 0
M  V30 3490 H 331.116 2.86163 -0.880408 0
M  V30 3491 H 328.662 1.37591 -0.424819 0
M  V30 3492 H 330.615 4.0201 1.26355 0
M  V30 3493 H 329.339 2.83181 1.62715 0
M  V30 3494 H 327.998 3.65 -0.342159 0
M  V30 3495 H 327.646 4.64744 1.92412 0
M  V30 3496 H 327.346 5.84143 0.636477 0
M  V30 3497 H 328.87 5.90151 1.56697 0
M  V30 3498 H 330.284 5.69076 -0.694671 0
M  V30 3499 H 328.681 5.81671 -1.47577 0
M  V30 3500 H 329.751 4.46534 -1.89038 0
M  V30 3501 N 331.094 0.475555 1.50254 0
M  V30 3502 C 332.371 -0.139685 1.95101 0
M  V30 3503 C 332.751 -1.56555 1.41611 0
M  V30 3504 O 332.099 -2.19956 0.618993 0
M  V30 3505 C 332.309 -0.0784298 3.48912 0
M  V30 3506 C 333.657 -0.265095 4.23772 0
M  V30 3507 O 334.681 -0.154808 3.55863 0
M  V30 3508 O 333.54 -0.488327 5.44314 0
M  V30 3509 H 330.634 -0.109236 0.819754 0
M  V30 3510 H 333.18 0.536276 1.61004 0
M  V30 3511 H 331.952 0.916918 3.80405 0
M  V30 3512 H 331.575 -0.795655 3.89558 0
M  V30 3513 N 332.573 -1.56217 0.208337 0
M  V30 3514 C 333.821 -1.97558 -0.426076 0
M  V30 3515 C 334.142 -1.09683 -1.61229 0
M  V30 3516 O 333.412 -0.170956 -1.95153 0
M  V30 3517 H 331.992 -0.729575 -0.160405 0
M  V30 3518 H 334.654 -1.92606 0.298155 0
M  V30 3519 H 333.75 -3.02672 -0.761312 0
M  V30 3520 N 334.051 0.0651679 -1.57465 0
M  V30 3521 C 334.961 1.09448 -2.07505 0
M  V30 3522 C 335.977 1.41974 -1.00595 0
M  V30 3523 O 337.153 1.52018 -1.32107 0
M  V30 3524 C 334.218 2.38689 -2.51453 0
M  V30 3525 C 333.279 2.13073 -3.72691 0
M  V30 3526 C 332.512 3.36152 -4.14533 0
M  V30 3527 O 332.735 4.45517 -3.56189 0
M  V30 3528 O 331.669 3.23974 -5.07272 0
M  V30 3529 H 335.495 0.69935 -2.95538 0
M  V30 3530 H 333.08 0.279752 -1.46757 0
M  V30 3531 H 334.962 3.14736 -2.80212 0
M  V30 3532 H 333.637 2.77568 -1.66546 0
M  V30 3533 H 332.544 1.34709 -3.49005 0
M  V30 3534 H 333.877 1.79071 -4.5847 0
M  V30 3535 N 335.529 1.53961 0.336706 0
M  V30 3536 C 336.754 1.75797 1.10046 0
M  V30 3537 C 337.179 0.498985 1.81361 0
M  V30 3538 O 336.537 -0.548769 1.72795 0
M  V30 3539 C 336.585 2.94257 2.08436 0
M  V30 3540 O 335.689 2.64883 3.16087 0
M  V30 3541 H 335.03 0.582936 0.317934 0
M  V30 3542 H 337.56 2.00945 0.38501 0
M  V30 3543 H 337.57 3.21237 2.51537 0
M  V30 3544 H 336.245 3.85564 1.55927 0
M  V30 3545 H 334.822 2.48812 2.77753 0
M  V30 3546 N 337.007 -0.598083 1.45811 0
M  V30 3547 C 338.237 -1.38121 1.53643 0
M  V30 3548 C 338.645 -1.88425 0.171081 0
M  V30 3549 O 337.988 -1.63409 -0.839237 0
M  V30 3550 C 338.05 -2.61432 2.46766 0
M  V30 3551 C 337.714 -2.32702 3.93318 0
M  V30 3552 C 338.711 -1.92479 4.82957 0
M  V30 3553 C 336.396 -2.45321 4.38318 0
M  V30 3554 C 338.39 -1.65248 6.15607 0
M  V30 3555 C 336.077 -2.17703 5.71007 0
M  V30 3556 C 337.075 -1.7773 6.5947 0
M  V30 3557 O 336.763 -1.50441 7.89698 0
M  V30 3558 H 336.495 -0.428863 0.522544 0
M  V30 3559 H 339.049 -0.73557 1.91777 0
M  V30 3560 H 337.279 -3.28749 2.0362 0
M  V30 3561 H 338.968 -3.23487 2.45175 0
M  V30 3562 H 339.734 -1.82258 4.49452 0
M  V30 3563 H 335.613 -2.75399 3.69697 0
M  V30 3564 H 339.157 -1.33973 6.84614 0
M  V30 3565 H 335.054 -2.27544 6.04065 0
M  V30 3566 H 335.822 -1.64415 8.01817 0
M  V30 3567 N 338.485 -1.33259 -0.841409 0
M  V30 3568 C 339.896 -1.22066 -1.41269 0
M  V30 3569 C 340.247 0.161479 -1.95534 0
M  V30 3570 O 339.372 1.06094 -1.88608 0
M  V30 3571 C 339.967 -2.20996 -2.568 0
M  V30 3572 C 338.526 -2.13649 -3.09888 0
M  V30 3573 C 337.673 -2.08623 -1.82679 0
M  V30 3574 H 340.624 -1.44895 -0.647395 0
M  V30 3575 H 340.645 -1.81621 -3.34356 0
M  V30 3576 H 340.157 -3.2158 -2.17274 0
M  V30 3577 H 338.258 -1.16359 -3.53965 0
M  V30 3578 H 338.371 -3.04079 -3.70234 0
M  V30 3579 H 336.735 -1.54061 -2.02824 0
M  V30 3580 H 337.518 -3.1101 -1.45353 0
M  V30 3581 N 339.963 1.05934 -1.16686 0
M  V30 3582 C 340.91 2.13499 -0.876748 0
M  V30 3583 C 341.88 1.65162 0.176299 0
M  V30 3584 O 343.065 1.90757 0.0407143 0
M  V30 3585 C 340.205 3.42912 -0.387967 0
M  V30 3586 C 339.318 4.04964 -1.50426 0
M  V30 3587 C 338.453 5.22266 -0.970125 0
M  V30 3588 C 337.492 5.76309 -2.06238 0
M  V30 3589 N 336.629 6.84922 -1.54356 0
M  V30 3590 H 341.469 2.37654 -1.7979 0
M  V30 3591 H 339.006 1.16598 -0.896843 0
M  V30 3592 H 340.964 4.17111 -0.086186 0
M  V30 3593 H 339.594 3.18963 0.496235 0
M  V30 3594 H 338.646 3.28277 -1.92193 0
M  V30 3595 H 339.958 4.41122 -2.32836 0
M  V30 3596 H 339.112 6.03506 -0.621743 0
M  V30 3597 H 337.851 4.87564 -0.115377 0
M  V30 3598 H 336.856 4.93704 -2.41942 0
M  V30 3599 H 338.081 6.13062 -2.92115 0
M  V30 3600 H 336.027 6.52131 -0.711406 0
M  V30 3601 H 335.944 7.20043 -2.30379 0
M  V30 3602 H 337.212 7.69832 -1.22387 0
M  V30 3603 N 341.441 0.965919 1.2453 0
M  V30 3604 C 342.666 0.643971 1.97149 0
M  V30 3605 C 343.091 -0.779487 1.71189 0
M  V30 3606 O 342.449 -1.5288 0.974553 0
M  V30 3607 C 342.497 0.922557 3.48599 0
M  V30 3608 O 341.601 0.00707672 4.12399 0
M  V30 3609 H 340.942 0.243647 0.617683 0
M  V30 3610 H 343.472 1.29558 1.58353 0
M  V30 3611 H 343.482 0.853373 3.98976 0
M  V30 3612 H 342.157 1.95996 3.66822 0
M  V30 3613 H 340.734 0.12943 3.72675 0
M  V30 3614 N 342.919 -1.39368 0.735821 0
M  V30 3615 C 344.335 -1.54204 0.411492 0
M  V30 3616 C 344.535 -1.70268 -1.07755 0
M  V30 3617 O 343.591 -1.70364 -1.86366 0
M  V30 3618 C 344.904 -2.75925 1.19523 0
M  V30 3619 C 346.452 -2.89761 1.18354 0
M  V30 3620 C 346.927 -4.14421 1.94986 0
M  V30 3621 N 348.418 -4.21462 1.92156 0
M  V30 3622 C 349.153 -5.16871 2.48258 0
M  V30 3623 N 348.649 -6.18063 3.13001 0
M  V30 3624 N 350.442 -5.09093 2.38287 0
M  V30 3625 H 342.593 -1.27189 1.70108 0
M  V30 3626 H 344.856 -0.616517 0.720147 0
M  V30 3627 H 344.562 -2.70401 2.24892 0
M  V30 3628 H 344.436 -3.68614 0.800222 0
M  V30 3629 H 346.823 -2.94777 0.137975 0
M  V30 3630 H 346.904 -1.98133 1.61793 0
M  V30 3631 H 346.548 -4.10166 2.99543 0
M  V30 3632 H 346.478 -5.05095 1.48953 0
M  V30 3633 H 348.969 -3.48979 1.44991 0
M  V30 3634 H 349.282 -6.87326 3.53275 0
M  V30 3635 H 347.627 -6.18448 3.17091 0
M  V30 3636 H 350.818 -4.28973 1.8735 0
M  V30 3637 H 350.991 -5.83272 2.82308 0
M  V30 3638 N 344.397 -0.483516 -1.5 0
M  V30 3639 C 345.33 0.350427 -2.25493 0
M  V30 3640 C 346.308 0.985549 -1.29328 0
M  V30 3641 O 347.492 1.01906 -1.58579 0
M  V30 3642 C 344.619 1.49202 -3.04066 0
M  V30 3643 C 343.665 0.973036 -4.15252 0
M  V30 3644 S 344.498 -0.122237 -5.3536 0
M  V30 3645 C 345.654 1.02294 -6.17484 0
M  V30 3646 H 345.887 -0.290381 -2.95878 0
M  V30 3647 H 343.42 -0.268562 -1.52046 0
M  V30 3648 H 345.378 2.14623 -3.49925 0
M  V30 3649 H 344.039 2.10438 -2.33183 0
M  V30 3650 H 343.232 1.82804 -4.69679 0
M  V30 3651 H 342.834 0.396335 -3.71894 0
M  V30 3652 H 345.126 1.93195 -6.49371 0
M  V30 3653 H 346.069 0.517664 -7.06205 0
M  V30 3654 H 346.477 1.28238 -5.49741 0
M  V30 3655 N 345.875 1.56104 -0.216619 0
M  V30 3656 C 347.286 1.844 0.292128 0
M  V30 3657 C 347.637 1.13788 1.59833 0
M  V30 3658 O 346.762 0.405888 2.12559 0
M  V30 3659 C 347.357 3.3452 0.53681 0
M  V30 3660 C 345.916 3.63151 0.989876 0
M  V30 3661 C 345.063 2.77255 0.0502302 0
M  V30 3662 H 348.014 1.52481 -0.439926 0
M  V30 3663 H 348.035 3.54459 1.38345 0
M  V30 3664 H 347.547 3.85885 -0.414031 0
M  V30 3665 H 345.648 3.17238 1.95425 0
M  V30 3666 H 345.761 4.71177 0.867698 0
M  V30 3667 H 344.125 2.48555 0.556117 0
M  V30 3668 H 344.908 3.31416 -0.89544 0
M  V30 3669 N 347.353 -0.0568162 1.57498 0
M  V30 3670 C 348.769 -0.411933 1.54192 0
M  V30 3671 C 348.969 -1.78287 0.938942 0
M  V30 3672 O 348.025 -2.46483 0.547919 0
M  V30 3673 C 349.338 -0.339244 2.9878 0
M  V30 3674 C 350.886 -0.418348 3.10192 0
M  V30 3675 C 351.361 -0.375407 4.56459 0
M  V30 3676 N 352.852 -0.435038 4.61153 0
M  V30 3677 C 353.587 -0.424265 5.71828 0
M  V30 3678 N 353.083 -0.367418 6.91825 0
M  V30 3679 N 354.876 -0.471938 5.60115 0
M  V30 3680 H 347.027 0.840684 1.95055 0
M  V30 3681 H 349.29 0.316987 0.893433 0
M  V30 3682 H 348.996 0.601742 3.46514 0
M  V30 3683 H 348.87 -1.14371 3.59443 0
M  V30 3684 H 351.257 -1.34976 2.62422 0
M  V30 3685 H 351.338 0.414962 2.52412 0
M  V30 3686 H 350.982 0.552219 5.04889 0
M  V30 3687 H 350.912 -1.22645 5.12119 0
M  V30 3688 H 353.403 -0.482612 3.74806 0
M  V30 3689 H 353.716 -0.363535 7.71944 0
M  V30 3690 H 352.061 -0.333879 6.94198 0
M  V30 3691 H 355.252 -0.514145 4.65268 0
M  V30 3692 H 355.425 -0.460073 6.46365 0
M  V30 3693 N 348.832 -1.54138 -0.328536 0
M  V30 3694 C 349.795 -1.82462 -1.38709 0
M  V30 3695 C 350.795 -0.696229 -1.44946 0
M  V30 3696 O 351.985 -0.964535 -1.4506 0
M  V30 3697 C 349.117 -1.98018 -2.77492 0
M  V30 3698 H 350.31 -2.77037 -1.14851 0
M  V30 3699 H 347.863 -1.45779 -0.563751 0
M  V30 3700 H 348.598 -1.05637 -3.06613 0
M  V30 3701 H 348.383 -2.80124 -2.74359 0
M  V30 3702 H 349.873 -2.21396 -3.54081 0
M  V30 3703 N 350.31 0.590341 -1.46126 0
M  V30 3704 C 351.242 1.71427 -1.52136 0
M  V30 3705 C 352.255 1.57542 -0.41042 0
M  V30 3706 O 353.444 1.65106 -0.678389 0
M  V30 3707 C 350.544 3.09605 -1.37834 0
M  V30 3708 C 349.717 3.49566 -2.62912 0
M  V30 3709 C 348.776 4.66773 -2.42918 0
M  V30 3710 O 347.802 4.73019 -3.1661 0
M  V30 3711 N 349.004 5.61161 -1.4859 0
M  V30 3712 H 351.769 1.66728 -2.49042 0
M  V30 3713 H 349.33 0.776113 -1.42085 0
M  V30 3714 H 351.322 3.85796 -1.22243 0
M  V30 3715 H 349.892 3.08714 -0.491393 0
M  V30 3716 H 349.112 2.63158 -2.93499 0
M  V30 3717 H 350.4 3.73028 -3.46017 0
M  V30 3718 H 349.798 5.58844 -0.87808 0
M  V30 3719 H 348.355 6.36814 -1.38965 0
M  V30 3720 N 351.788 1.33704 0.83433 0
M  V30 3721 C 353.013 1.28615 1.62705 0
M  V30 3722 C 353.438 -0.139242 1.87584 0
M  V30 3723 O 352.796 -1.09734 1.4432 0
M  V30 3724 C 352.844 2.07139 2.95171 0
M  V30 3725 O 351.948 1.4331 3.86699 0
M  V30 3726 H 351.289 0.44226 0.49528 0
M  V30 3727 H 353.819 1.76335 1.03766 0
M  V30 3728 H 353.829 2.18073 3.44831 0
M  V30 3729 H 352.504 3.10779 2.76386 0
M  V30 3730 H 351.081 1.4105 3.45195 0
M  V30 3731 N 353.266 -1.05314 1.17247 0
M  V30 3732 C 354.496 -1.81707 0.983166 0
M  V30 3733 C 354.904 -1.83222 -0.471822 0
M  V30 3734 O 354.247 -1.25721 -1.3394 0
M  V30 3735 C 354.309 -3.29134 1.44606 0
M  V30 3736 C 353.973 -3.51304 2.92292 0
M  V30 3737 C 354.97 -3.4353 3.90235 0
M  V30 3738 C 352.655 -3.78306 3.30439 0
M  V30 3739 C 354.649 -3.62442 5.24323 0
M  V30 3740 C 352.336 -3.96866 4.64694 0
M  V30 3741 C 353.334 -3.88933 5.61445 0
M  V30 3742 O 353.022 -4.06976 6.93272 0
M  V30 3743 H 352.754 -0.579476 0.348114 0
M  V30 3744 H 355.308 -1.33705 1.55924 0
M  V30 3745 H 353.538 -3.78046 0.813537 0
M  V30 3746 H 355.227 -3.87049 1.22262 0
M  V30 3747 H 355.993 -3.22648 3.62109 0
M  V30 3748 H 351.872 -3.83585 2.55702 0
M  V30 3749 H 355.416 -3.56165 5.99827 0
M  V30 3750 H 351.313 -4.1724 4.92525 0
M  V30 3751 H 352.081 -4.24209 6.99992 0
M  V30 3752 N 354.744 -0.972509 -1.24016 0
M  V30 3753 C 356.155 -0.67517 -1.74064 0
M  V30 3754 C 356.506 0.808939 -1.78747 0
M  V30 3755 O 355.631 1.63286 -1.42009 0
M  V30 3756 C 356.226 -1.21889 -3.16115 0
M  V30 3757 C 354.785 -0.971358 -3.6365 0
M  V30 3758 C 353.932 -1.35134 -2.42145 0
M  V30 3759 H 356.883 -1.14727 -1.09651 0
M  V30 3760 H 356.904 -0.587489 -3.75937 0
M  V30 3761 H 356.416 -2.29906 -3.12674 0
M  V30 3762 H 354.517 0.0930686 -3.72484 0
M  V30 3763 H 354.63 -1.62039 -4.50866 0
M  V30 3764 H 352.994 -0.769751 -2.4279 0
M  V30 3765 H 353.777 -2.4411 -2.41381 0
M  V30 3766 N 356.222 1.38976 -0.743202 0
M  V30 3767 C 357.499 1.94351 -0.220705 0
M  V30 3768 C 357.879 1.67935 1.2791 0
M  V30 3769 O 357.227 1.01211 2.04862 0
M  V30 3770 C 357.437 3.44426 -0.563171 0
M  V30 3771 C 358.785 4.2144 -0.517046 0
M  V30 3772 O 359.809 3.52661 -0.500846 0
M  V30 3773 O 358.668 5.44032 -0.518806 0
M  V30 3774 H 355.762 0.825879 -0.043047 0
M  V30 3775 H 358.308 1.48429 -0.822618 0
M  V30 3776 H 357.08 3.5712 -1.59941 0
M  V30 3777 H 356.703 3.97543 0.0672883 0
M  V30 3778 N 357.7 0.491464 1.49741 0
M  V30 3779 C 358.648 -0.305837 2.30581 0
M  V30 3780 C 359.642 -0.971642 1.38764 0
M  V30 3781 O 360.848 -0.90042 1.5586 0
M  V30 3782 H 357.223 -0.117482 0.742767 0
M  V30 3783 H 359.194 0.396093 2.95759 0
M  V30 3784 C 357.943 -1.36319 3.19863 0
M  V30 3785 H 357.266 -0.860258 3.90435 0
M  V30 3786 H 358.706 -1.89323 3.79385 0
M  V30 3787 C 357.165 -2.37621 2.38826 0
M  V30 3788 O 357.695 -3.43311 2.08567 0
M  V30 3789 N 355.901 -2.09849 2.01026 0
M  V30 3790 H 355.448 -1.23922 2.25834 0
M  V30 3791 H 355.406 -2.77859 1.47112 0
M  V30 3792 N 359.178 -1.55987 0.224894 0
M  V30 3793 C 360.128 -2.17076 -0.697296 0
M  V30 3794 C 361.112 -1.12006 -1.15514 0
M  V30 3795 O 362.304 -1.37985 -1.10857 0
M  V30 3796 C 359.433 -2.85679 -1.90374 0
M  V30 3797 C 358.519 -3.97977 -1.46543 0
M  V30 3798 N 358.91 -5.00359 -0.739909 0
M  V30 3799 C 357.208 -4.10128 -1.75245 0
M  V30 3800 C 357.909 -5.79407 -0.515939 0
M  V30 3801 N 356.885 -5.32892 -1.07364 0
M  V30 3802 H 360.687 -2.93592 -0.134594 0
M  V30 3803 H 358.201 -1.62379 0.0262885 0
M  V30 3804 H 360.198 -3.27857 -2.57518 0
M  V30 3805 H 358.858 -2.1066 -2.47088 0
M  V30 3806 H 359.869 -5.16412 -0.392253 0
M  V30 3807 H 356.546 -3.46263 -2.33255 0
M  V30 3808 H 357.936 -6.71872 0.0617349 0
M  V30 3809 N 360.656 0.0484629 -1.57525 0
M  V30 3810 C 361.588 1.08222 -2.02041 0
M  V30 3811 C 362.601 1.33621 -0.930012 0
M  V30 3812 O 363.79 1.3145 -1.20761 0
M  V30 3813 C 360.89 2.42818 -2.36416 0
M  V30 3814 C 360.063 2.37049 -3.67596 0
M  V30 3815 C 359.122 3.53937 -3.89378 0
M  V30 3816 O 358.148 3.34308 -4.60681 0
M  V30 3817 N 359.35 4.75126 -3.3352 0
M  V30 3818 H 362.115 0.702946 -2.9134 0
M  V30 3819 H 359.676 0.236745 -1.6016 0
M  V30 3820 H 361.668 3.197 -2.48141 0
M  V30 3821 H 360.238 2.72661 -1.52888 0
M  V30 3822 H 359.458 1.45395 -3.66407 0
M  V30 3823 H 360.746 2.30318 -4.53686 0
M  V30 3824 H 360.144 4.93976 -2.75688 0
M  V30 3825 H 358.701 5.49439 -3.50656 0
M  V30 3826 N 362.134 1.5431 0.320358 0
M  V30 3827 C 363.044 1.86946 1.41734 0
M  V30 3828 C 364.06 0.761689 1.56443 0
M  V30 3829 O 365.236 1.05629 1.71477 0
M  V30 3830 C 362.301 2.09293 2.76401 0
M  V30 3831 C 361.362 3.33082 2.70841 0
M  V30 3832 C 360.595 3.54353 3.99086 0
M  V30 3833 O 360.818 2.79002 4.97508 0
M  V30 3834 O 359.752 4.47838 4.0215 0
M  V30 3835 H 363.578 2.80232 1.17062 0
M  V30 3836 H 361.163 1.40255 0.514673 0
M  V30 3837 H 363.045 2.25303 3.56113 0
M  V30 3838 H 361.72 1.19194 3.00956 0
M  V30 3839 H 360.627 3.22454 1.89668 0
M  V30 3840 H 361.96 4.23249 2.5124 0
M  V30 3841 N 363.613 -0.582584 1.46437 0
M  V30 3842 C 364.86 -1.34079 1.51753 0
M  V30 3843 C 365.188 -1.93762 0.169299 0
M  V30 3844 O 364.443 -1.76989 -0.835062 0
M  V30 3845 C 364.742 -2.48964 2.56421 0
M  V30 3846 C 364.408 -2.07273 4.00436 0
M  V30 3847 C 363.07 -1.95618 4.39644 0
M  V30 3848 C 365.422 -1.75111 4.90903 0
M  V30 3849 C 362.75 -1.5006 5.67185 0
M  V30 3850 C 365.102 -1.31032 6.18881 0
M  V30 3851 C 363.766 -1.17954 6.56996 0
M  V30 3852 H 363.036 -0.49063 0.555304 0
M  V30 3853 H 365.683 -0.656007 1.79913 0
M  V30 3854 H 363.988 -3.22889 2.21923 0
M  V30 3855 H 365.685 -3.07178 2.57765 0
M  V30 3856 H 362.275 -2.17279 3.69443 0
M  V30 3857 H 366.459 -1.83001 4.61329 0
M  V30 3858 H 361.715 -1.38577 5.95488 0
M  V30 3859 H 365.889 -1.052 6.88408 0
M  V30 3860 H 363.516 -0.824279 7.55718 0
M  V30 3861 N 365.091 -1.34144 -0.827227 0
M  V30 3862 C 366.316 -1.29476 -1.62021 0
M  V30 3863 C 366.741 0.129292 -1.87655 0
M  V30 3864 O 366.099 1.08967 -1.449 0
M  V30 3865 C 366.147 -2.08702 -2.94068 0
M  V30 3866 O 365.251 -1.45359 -3.85933 0
M  V30 3867 H 364.592 -0.444881 -0.492927 0
M  V30 3868 H 367.122 -1.76882 -1.02829 0
M  V30 3869 H 367.132 -2.19898 -3.43669 0
M  V30 3870 H 365.807 -3.12241 -2.74734 0
M  V30 3871 H 364.384 -1.42879 -3.44442 0
M  V30 3872 N 366.569 1.04691 -1.17803 0
M  V30 3873 C 367.846 1.7472 -0.879328 0
M  V30 3874 C 368.226 2.01812 0.619271 0
M  V30 3875 O 367.574 1.65824 1.57209 0
M  V30 3876 C 367.784 3.03686 -1.71976 0
M  V30 3877 C 369.132 3.77542 -1.94286 0
M  V30 3878 O 370.156 3.13569 -1.68976 0
M  V30 3879 O 369.015 4.92506 -2.36855 0
M  V30 3880 H 366.109 0.760011 -0.326056 0
M  V30 3881 H 368.655 1.10813 -1.28525 0
M  V30 3882 H 367.427 2.79754 -2.73594 0
M  V30 3883 H 367.05 3.75332 -1.31194 0
M  V30 3884 N 368.047 0.979072 1.23499 0
M  V30 3885 C 369.277 0.664237 1.95631 0
M  V30 3886 C 369.685 -0.772653 1.72704 0
M  V30 3887 O 369.028 -1.53141 1.01457 0
M  V30 3888 C 369.09 0.873115 3.48736 0
M  V30 3889 C 368.754 2.29182 3.95379 0
M  V30 3890 C 369.751 3.2704 4.04155 0
M  V30 3891 C 367.436 2.62256 4.28401 0
M  V30 3892 C 369.43 4.56052 4.45304 0
M  V30 3893 C 367.117 3.91491 4.69231 0
M  V30 3894 C 368.115 4.88201 4.77649 0
M  V30 3895 O 367.803 6.15129 5.17563 0
M  V30 3896 H 367.535 0.245915 0.629684 0
M  V30 3897 H 370.089 1.3127 1.57979 0
M  V30 3898 H 368.319 0.167476 3.86337 0
M  V30 3899 H 370.008 0.555642 4.02079 0
M  V30 3900 H 370.774 3.02819 3.78848 0
M  V30 3901 H 366.653 1.87692 4.21061 0
M  V30 3902 H 370.197 5.31538 4.51789 0
M  V30 3903 H 366.094 4.15508 4.93987 0
M  V30 3904 H 366.862 6.18862 5.35679 0
M  V30 3905 N 369.525 -1.3858 0.750561 0
M  V30 3906 C 370.802 -1.94231 0.231009 0
M  V30 3907 C 371.182 -1.68611 -1.27018 0
M  V30 3908 O 370.53 -1.02296 -2.04323 0
M  V30 3909 C 370.74 -3.44123 0.581428 0
M  V30 3910 C 372.088 -4.2116 0.539389 0
M  V30 3911 O 373.112 -3.52391 0.519541 0
M  V30 3912 O 371.971 -5.43749 0.54765 0
M  V30 3913 H 369.065 -0.825639 0.0474263 0
M  V30 3914 H 371.611 -1.4799 0.830478 0
M  V30 3915 H 370.383 -3.56267 1.61833 0
M  V30 3916 H 370.006 -3.97573 -0.0462047 0
M  V30 3917 N 371.003 -0.499398 -1.49478 0
M  V30 3918 C 371.951 0.293604 -2.3074 0
M  V30 3919 C 372.945 0.96427 -1.39277 0
M  V30 3920 O 374.151 0.892141 -1.56336 0
M  V30 3921 H 370.526 0.113541 -0.743379 0
M  V30 3922 H 372.497 -0.411772 -2.95545 0
M  V30 3923 C 371.246 1.3462 -3.20582 0
M  V30 3924 H 370.569 0.83954 -3.90886 0
M  V30 3925 H 372.009 1.87308 -3.80384 0
M  V30 3926 C 370.468 2.36351 -2.40083 0
M  V30 3927 O 370.998 3.422 -2.10385 0
M  V30 3928 N 369.204 2.0878 -2.02137 0
M  V30 3929 H 368.751 1.22723 -2.26488 0
M  V30 3930 H 368.709 2.77075 -1.48583 0
M  V30 3931 N 372.481 1.55866 -0.233164 0
M  V30 3932 C 373.892 1.847 0.272554 0
M  V30 3933 C 374.243 1.15477 1.58617 0
M  V30 3934 O 373.368 0.42841 2.12117 0
M  V30 3935 C 373.963 3.35071 0.501299 0
M  V30 3936 C 372.522 3.6418 0.951304 0
M  V30 3937 C 371.669 2.77292 0.0208209 0
M  V30 3938 H 374.62 1.52005 -0.456074 0
M  V30 3939 H 374.641 3.55906 1.34577 0
M  V30 3940 H 374.153 3.85424 -0.454936 0
M  V30 3941 H 372.254 3.19293 1.92049 0
M  V30 3942 H 372.367 4.72071 0.817675 0
M  V30 3943 H 370.731 2.49131 0.529723 0
M  V30 3944 H 371.514 3.30448 -0.93054 0
M  V30 3945 N 373.959 -0.0401083 1.57549 0
M  V30 3946 C 375.208 -0.732108 1.87944 0
M  V30 3947 C 375.521 -1.77107 0.830206 0
M  V30 3948 O 376.727 -2.51488 1.02302 0
M  V30 3949 C 375.183 -1.35315 3.33494 0
M  V30 3950 C 374.791 -0.351105 4.46622 0
M  V30 3951 C 376.535 -2.02566 3.73051 0
M  V30 3952 C 374.442 -0.979859 5.83226 0
M  V30 3953 H 373.372 -0.277188 0.701201 0
M  V30 3954 H 376.023 0.0138501 1.83495 0
M  V30 3955 H 374.405 -2.14844 3.32653 0
M  V30 3956 H 375.579 0.416674 4.58912 0
M  V30 3957 H 373.894 0.218708 4.15825 0
M  V30 3958 H 376.491 -2.50441 4.72423 0
M  V30 3959 H 376.834 -2.83904 3.04474 0
M  V30 3960 H 377.367 -1.29827 3.76018 0
M  V30 3961 H 374.106 -0.206135 6.55176 0
M  V30 3962 H 373.626 -1.71774 5.74677 0
M  V30 3963 H 375.305 -1.49046 6.29599 0
M  V30 3964 N 375.437 -1.54477 -0.31217 0
M  V30 3965 C 376.684 -1.73227 -1.04875 0
M  V30 3966 C 377.012 -0.512042 -1.87639 0
M  V30 3967 O 376.267 0.506131 -1.89042 0
M  V30 3968 C 376.566 -2.967 -1.99258 0
M  V30 3969 C 376.232 -4.30974 -1.32559 0
M  V30 3970 C 374.894 -4.67477 -1.141 0
M  V30 3971 C 377.246 -5.14258 -0.847835 0
M  V30 3972 C 374.574 -5.84852 -0.465326 0
M  V30 3973 C 376.926 -6.32327 -0.185931 0
M  V30 3974 C 375.59 -6.67499 0.0107077 0
M  V30 3975 H 374.86 -0.633881 -0.383765 0
M  V30 3976 H 377.507 -1.88727 -0.324731 0
M  V30 3977 H 375.812 -2.75935 -2.7815 0
M  V30 3978 H 377.509 -3.08401 -2.563 0
M  V30 3979 H 374.099 -4.02262 -1.4793 0
M  V30 3980 H 378.283 -4.86565 -0.978192 0
M  V30 3981 H 373.539 -6.10654 -0.301883 0
M  V30 3982 H 377.713 -6.96135 0.192211 0
M  V30 3983 H 375.34 -7.58306 0.536287 0
M  V30 3984 N 376.915 0.57481 -1.46744 0
M  V30 3985 C 377.825 1.711 -1.60505 0
M  V30 3986 C 378.841 1.67008 -0.488307 0
M  V30 3987 O 380.017 1.86774 -0.753495 0
M  V30 3988 C 377.082 3.07608 -1.59932 0
M  V30 3989 C 376.143 3.22904 -2.82898 0
M  V30 3990 C 375.376 4.529 -2.82343 0
M  V30 3991 O 375.599 5.37278 -1.91542 0
M  V30 3992 O 374.533 4.71611 -3.73987 0
M  V30 3993 H 378.359 1.62436 -2.56609 0
M  V30 3994 H 375.944 0.742779 -1.29627 0
M  V30 3995 H 377.826 3.88877 -1.62336 0
M  V30 3996 H 376.501 3.16692 -0.669898 0
M  V30 3997 H 375.408 2.41099 -2.86046 0
M  V30 3998 H 376.741 3.18715 -3.75076 0
M  V30 3999 N 378.394 1.34581 0.820102 0
M  V30 4000 C 379.341 1.2639 1.93117 0
M  V30 4001 C 380.311 0.138554 1.65521 0
M  V30 4002 O 381.496 0.320004 1.88097 0
M  V30 4003 C 378.636 1.02812 3.29429 0
M  V30 4004 C 377.749 2.24146 3.693 0
M  V30 4005 C 376.884 1.93829 4.94574 0
M  V30 4006 C 375.923 3.1129 5.27034 0
M  V30 4007 N 375.06 2.80838 6.43486 0
M  V30 4008 H 379.9 2.21408 1.99455 0
M  V30 4009 H 377.437 1.10077 0.975784 0
M  V30 4010 H 379.395 0.871788 4.0799 0
M  V30 4011 H 378.025 0.114612 3.22596 0
M  V30 4012 H 377.077 2.50691 2.86109 0
M  V30 4013 H 378.389 3.11899 3.89257 0
M  V30 4014 H 377.543 1.74948 5.80929 0
M  V30 4015 H 376.282 1.03341 4.76626 0
M  V30 4016 H 375.287 3.30764 4.39175 0
M  V30 4017 H 376.512 4.02561 5.4692 0
M  V30 4018 H 374.458 1.92929 6.26988 0
M  V30 4019 H 374.375 3.62123 6.63629 0
M  V30 4020 H 375.643 2.65467 7.32903 0
M  V30 4021 N 379.872 -1.04064 1.18357 0
M  V30 4022 C 381.119 -1.77265 0.978947 0
M  V30 4023 C 381.447 -1.88189 -0.491428 0
M  V30 4024 O 380.702 -1.38653 -1.38108 0
M  V30 4025 C 381.001 -3.20634 1.57888 0
M  V30 4026 C 380.667 -3.29743 3.07539 0
M  V30 4027 C 379.329 -3.31937 3.48384 0
M  V30 4028 C 381.681 -3.29841 4.03552 0
M  V30 4029 C 379.009 -3.3187 4.83818 0
M  V30 4030 C 381.361 -3.31313 5.38901 0
M  V30 4031 C 380.025 -3.31799 5.79194 0
M  V30 4032 H 379.295 -0.648659 0.358222 0
M  V30 4033 H 381.942 -1.22225 1.47422 0
M  V30 4034 H 380.247 -3.78675 1.00561 0
M  V30 4035 H 381.944 -3.75917 1.39598 0
M  V30 4036 H 378.534 -3.28757 2.74986 0
M  V30 4037 H 382.718 -3.27337 3.73047 0
M  V30 4038 H 377.974 -3.30562 5.14333 0
M  V30 4039 H 382.148 -3.30338 6.13066 0
M  V30 4040 H 379.775 -3.315 6.84114 0
M  V30 4041 N 381.35 -0.985608 -1.22978 0
M  V30 4042 C 382.598 -0.656087 -1.91154 0
M  V30 4043 C 382.919 0.813561 -1.77218 0
M  V30 4044 O 382.189 1.58244 -1.1548 0
M  V30 4045 H 380.769 -0.239674 -0.707506 0
M  V30 4046 H 383.431 -1.25054 -1.49491 0
M  V30 4047 H 382.527 -0.912253 -2.9847 0
M  V30 4048 N 382.828 1.3818 -0.7579 0
M  V30 4049 C 383.775 2.30416 -0.133057 0
M  V30 4050 C 384.745 1.50398 0.704957 0
M  V30 4051 O 385.93 1.79014 0.660192 0
M  V30 4052 C 383.07 3.36834 0.750813 0
M  V30 4053 C 382.183 4.31879 -0.102297 0
M  V30 4054 C 381.318 5.25368 0.784979 0
M  V30 4055 C 380.357 6.12058 -0.0715046 0
M  V30 4056 N 379.494 6.97832 0.772972 0
M  V30 4057 H 384.334 2.83274 -0.925186 0
M  V30 4058 H 381.871 1.39461 -0.467866 0
M  V30 4059 H 383.829 3.97145 1.27794 0
M  V30 4060 H 382.459 2.85374 1.50868 0
M  V30 4061 H 381.511 3.72991 -0.747095 0
M  V30 4062 H 382.823 4.92921 -0.763552 0
M  V30 4063 H 381.977 5.90818 1.37911 0
M  V30 4064 H 380.716 4.64703 1.47996 0
M  V30 4065 H 379.721 5.456 -0.678272 0
M  V30 4066 H 380.946 6.74793 -0.763606 0
M  V30 4067 H 378.892 6.3971 1.45282 0
M  V30 4068 H 378.809 7.55812 0.168709 0
M  V30 4069 H 380.077 7.67687 1.35194 0
M  V30 4070 N 384.306 0.507319 1.49211 0
M  V30 4071 C 385.554 -0.0348839 2.0207 0
M  V30 4072 C 385.875 -1.36898 1.38866 0
M  V30 4073 O 385.145 -1.88133 0.546151 0
M  V30 4074 H 383.725 -0.0158812 0.746831 0
M  V30 4075 H 386.387 0.665998 1.83168 0
M  V30 4076 H 385.483 -0.159917 3.1169 0
M  V30 4077 N 385.784 -1.5574 0.241426 0
M  V30 4078 C 387.032 -1.98417 -0.384075 0
M  V30 4079 C 387.353 -1.13078 -1.58866 0
M  V30 4080 O 386.623 -0.212312 -1.94746 0
M  V30 4081 H 385.203 -0.732813 -0.144894 0
M  V30 4082 H 387.865 -1.9193 0.338943 0
M  V30 4083 H 386.961 -3.04219 -0.696939 0
M  V30 4084 N 387.262 0.0317525 -1.57568 0
M  V30 4085 C 388.49 0.734949 -1.93407 0
M  V30 4086 C 388.905 1.69036 -0.84096 0
M  V30 4087 O 388.262 1.81582 0.182836 0
M  V30 4088 C 388.313 1.49432 -3.29169 0
M  V30 4089 O 388.034 0.577261 -4.3428 0
M  V30 4090 C 389.535 2.29492 -3.79273 0
M  V30 4091 H 386.755 0.206706 -0.638368 0
M  V30 4092 H 389.299 -0.00992046 -2.04498 0
M  V30 4093 H 387.454 2.1911 -3.19483 0
M  V30 4094 H 387.868 1.10952 -5.1263 0
M  V30 4095 H 389.342 2.78172 -4.76785 0
M  V30 4096 H 389.819 3.10794 -3.10328 0
M  V30 4097 H 390.425 1.64894 -3.92033 0
M  V30 4098 N 388.74 1.54641 0.303973 0
M  V30 4099 C 389.97 1.77511 1.05705 0
M  V30 4100 C 390.378 0.533228 1.81531 0
M  V30 4101 O 389.721 -0.506423 1.76582 0
M  V30 4102 C 389.783 2.92779 2.08617 0
M  V30 4103 C 389.447 4.30977 1.52013 0
M  V30 4104 C 390.444 5.11115 0.9517 0
M  V30 4105 C 388.129 4.77571 1.55665 0
M  V30 4106 C 390.123 6.35966 0.427327 0
M  V30 4107 C 387.81 6.02384 1.02841 0
M  V30 4108 C 388.808 6.81417 0.464713 0
M  V30 4109 O 388.496 8.03881 -0.0555283 0
M  V30 4110 H 388.228 0.59579 0.319391 0
M  V30 4111 H 390.782 2.02401 0.349712 0
M  V30 4112 H 389.012 2.63506 2.83022 0
M  V30 4113 H 390.701 3.03252 2.69802 0
M  V30 4114 H 391.467 4.76264 0.916407 0
M  V30 4115 H 387.346 4.16085 1.9848 0
M  V30 4116 H 390.89 6.97599 -0.0133062 0
M  V30 4117 H 386.787 6.36723 1.06084 0
M  V30 4118 H 387.555 8.18479 0.0580522 0
M  V30 4119 N 390.218 -0.567019 1.47046 0
M  V30 4120 C 391.629 -1.14916 1.47143 0
M  V30 4121 C 391.98 -1.94954 0.220767 0
M  V30 4122 O 391.105 -2.05602 -0.67505 0
M  V30 4123 C 391.7 -2.09069 2.666 0
M  V30 4124 C 390.259 -2.62575 2.69687 0
M  V30 4125 C 389.406 -1.38755 2.40088 0
M  V30 4126 H 392.357 -0.354126 1.54699 0
M  V30 4127 H 392.378 -2.92789 2.43011 0
M  V30 4128 H 391.89 -1.50789 3.57609 0
M  V30 4129 H 389.991 -3.24681 1.82792 0
M  V30 4130 H 390.104 -3.04239 3.70102 0
M  V30 4131 H 388.468 -1.69098 1.90468 0
M  V30 4132 H 389.251 -0.822822 3.33293 0
M  V30 4133 N 391.696 -1.35014 -0.812953 0
M  V30 4134 C 393.112 -1.14914 -1.10757 0
M  V30 4135 C 393.312 0.0426818 -2.01455 0
M  V30 4136 O 392.368 0.715212 -2.42159 0
M  V30 4137 C 393.681 -2.44911 -1.74468 0
M  V30 4138 C 395.229 -2.5106 -1.86917 0
M  V30 4139 C 395.704 -3.81085 -2.54044 0
M  V30 4140 N 397.195 -3.82301 -2.61535 0
M  V30 4141 C 397.93 -4.79634 -3.14227 0
M  V30 4142 N 397.426 -5.87353 -3.67407 0
M  V30 4143 N 399.219 -4.67078 -3.12721 0
M  V30 4144 H 391.37 -2.1136 -0.20989 0
M  V30 4145 H 393.633 -0.935128 -0.155692 0
M  V30 4146 H 393.339 -3.32267 -1.15289 0
M  V30 4147 H 393.213 -2.58989 -2.74234 0
M  V30 4148 H 395.6 -1.64137 -2.45241 0
M  V30 4149 H 395.681 -2.40901 -0.860242 0
M  V30 4150 H 395.325 -4.68402 -1.96372 0
M  V30 4151 H 395.255 -3.88529 -3.55461 0
M  V30 4152 H 397.746 -3.04465 -2.23851 0
M  V30 4153 H 398.059 -6.57624 -4.05894 0
M  V30 4154 H 396.404 -5.91054 -3.65623 0
M  V30 4155 H 399.595 -3.82067 -2.70449 0
M  V30 4156 H 399.768 -5.43098 -3.53481 0
M  V30 4157 N 393.175 1.03435 -1.18907 0
M  V30 4158 C 394.591 1.28973 -0.940111 0
M  V30 4159 C 394.791 1.97676 0.390691 0
M  V30 4160 O 393.847 2.26127 1.12352 0
M  V30 4161 C 395.16 2.14221 -2.11021 0
M  V30 4162 C 396.708 2.27547 -2.14922 0
M  V30 4163 C 397.183 3.16164 -3.31367 0
M  V30 4164 N 398.674 3.23752 -3.31269 0
M  V30 4165 C 399.409 3.92495 -4.18014 0
M  V30 4166 N 398.905 4.63515 -5.14904 0
M  V30 4167 N 400.698 3.88838 -4.05908 0
M  V30 4168 H 392.849 0.57252 -2.04538 0
M  V30 4169 H 395.112 0.315184 -0.894071 0
M  V30 4170 H 394.818 1.71054 -3.073 0
M  V30 4171 H 394.692 3.14919 -2.0762 0
M  V30 4172 H 397.079 2.69947 -1.19217 0
M  V30 4173 H 397.16 1.26418 -2.22378 0
M  V30 4174 H 396.804 2.74474 -4.27348 0
M  V30 4175 H 396.734 4.17339 -3.21148 0
M  V30 4176 H 399.225 2.73167 -2.61129 0
M  V30 4177 H 399.538 5.13583 -5.77453 0
M  V30 4178 H 397.883 4.62398 -5.18857 0
M  V30 4179 H 401.074 3.32491 -3.29495 0
M  V30 4180 H 401.247 4.4214 -4.73726 0
M  V30 4181 N 394.653 0.992116 1.22453 0
M  V30 4182 C 395.883 0.684949 1.94915 0
M  V30 4183 C 396.291 -0.754292 1.73514 0
M  V30 4184 O 395.634 -1.52056 1.03076 0
M  V30 4185 C 395.696 0.910054 3.47791 0
M  V30 4186 C 395.36 2.33363 3.92926 0
M  V30 4187 C 396.357 3.31308 4.00663 0
M  V30 4188 C 394.042 2.66785 4.25595 0
M  V30 4189 C 396.036 4.6075 4.40441 0
M  V30 4190 C 393.723 3.96446 4.65053 0
M  V30 4191 C 394.721 4.9324 4.72444 0
M  V30 4192 O 394.409 6.20584 5.1101 0
M  V30 4193 H 394.141 0.25258 0.62704 0
M  V30 4194 H 396.695 1.32939 1.56577 0
M  V30 4195 H 394.925 0.208443 3.86138 0
M  V30 4196 H 396.614 0.598257 4.01467 0
M  V30 4197 H 397.38 3.0682 3.75615 0
M  V30 4198 H 393.259 1.92148 4.19047 0
M  V30 4199 H 396.803 5.363 4.46126 0
M  V30 4200 H 392.7 4.20724 4.89552 0
M  V30 4201 H 393.468 6.24509 5.29085 0
M  V30 4202 N 396.131 -1.37776 0.765217 0
M  V30 4203 C 397.081 -2.2768 0.12075 0
M  V30 4204 C 398.065 -1.45778 -0.680988 0
M  V30 4205 O 399.257 -1.684 -0.545033 0
M  V30 4206 C 396.386 -3.34722 -0.762626 0
M  V30 4207 C 395.472 -4.24074 0.0465881 0
M  V30 4208 N 395.863 -4.93939 1.08892 0
M  V30 4209 C 394.161 -4.45643 -0.178418 0
M  V30 4210 C 394.862 -5.59845 1.57951 0
M  V30 4211 N 393.838 -5.36218 0.892797 0
M  V30 4212 H 397.64 -2.79166 0.918889 0
M  V30 4213 H 395.154 -1.50816 0.602353 0
M  V30 4214 H 397.151 -3.98031 -1.24005 0
M  V30 4215 H 395.811 -2.84793 -1.55959 0
M  V30 4216 H 396.822 -4.96572 1.47095 0
M  V30 4217 H 393.499 -4.06599 -0.9478 0
M  V30 4218 H 394.889 -6.25703 2.44838 0
M  V30 4219 N 397.609 -0.515225 -1.4894 0
M  V30 4220 C 398.855 0.0242508 -2.02785 0
M  V30 4221 C 399.188 1.35323 -1.39289 0
M  V30 4222 O 398.463 1.87041 -0.533469 0
M  V30 4223 C 398.746 0.16184 -3.59736 0
M  V30 4224 C 398.599 -1.19127 -4.33738 0
M  V30 4225 C 399.918 0.895719 -4.30888 0
M  V30 4226 H 397.037 0.00733914 -0.736963 0
M  V30 4227 H 399.679 -0.669395 -1.77818 0
M  V30 4228 H 397.829 0.752624 -3.8114 0
M  V30 4229 H 399.501 -1.82202 -4.23792 0
M  V30 4230 H 397.744 -1.77695 -3.95736 0
M  V30 4231 H 398.415 -1.04815 -5.41957 0
M  V30 4232 H 400.891 0.394528 -4.14225 0
M  V30 4233 H 399.767 0.960859 -5.40425 0
M  V30 4234 H 400.028 1.9427 -3.97129 0
M  V30 4235 N 399.087 1.5561 -0.249682 0
M  V30 4236 C 400.312 2.03865 0.381305 0
M  V30 4237 C 400.737 1.12769 1.50548 0
M  V30 4238 O 400.095 0.121189 1.80895 0
M  V30 4239 C 400.143 3.50101 0.863816 0
M  V30 4240 O 399.247 3.62132 1.97318 0
M  V30 4241 H 398.588 0.658827 0.0827194 0
M  V30 4242 H 401.118 2.01105 -0.376552 0
M  V30 4243 H 401.128 3.90975 1.1663 0
M  V30 4244 H 399.803 4.1588 0.0411816 0
M  V30 4245 H 398.38 3.33155 1.67517 0
M  V30 4246 N 400.565 -0.0233959 1.57583 0
M  V30 4247 C 401.795 -0.723631 1.93513 0
M  V30 4248 C 402.203 -1.69115 0.848333 0
M  V30 4249 O 401.546 -1.82781 -0.183484 0
M  V30 4250 C 401.608 -1.53075 3.25282 0
M  V30 4251 C 401.272 -0.727388 4.51174 0
M  V30 4252 C 402.269 -0.0251924 5.19894 0
M  V30 4253 C 399.954 -0.680256 4.97672 0
M  V30 4254 C 401.948 0.713374 6.33395 0
M  V30 4255 C 399.635 0.0620523 6.11068 0
M  V30 4256 C 400.633 0.757622 6.78785 0
M  V30 4257 O 400.321 1.48787 7.90011 0
M  V30 4258 H 400.053 -0.208051 0.643188 0
M  V30 4259 H 402.607 0.0167489 2.05393 0
M  V30 4260 H 400.837 -2.31508 3.09744 0
M  V30 4261 H 402.526 -2.11413 3.46496 0
M  V30 4262 H 403.292 -0.0526003 4.84971 0
M  V30 4263 H 399.171 -1.21116 4.44805 0
M  V30 4264 H 402.715 1.25683 6.86185 0
M  V30 4265 H 398.612 0.0913634 6.45435 0
M  V30 4266 H 399.38 1.40213 8.06401 0
M  V30 4267 N 402.043 -1.548 -0.295768 0
M  V30 4268 C 402.993 -1.82497 -1.3667 0
M  V30 4269 C 403.977 -0.682434 -1.45711 0
M  V30 4270 O 405.169 -0.943207 -1.49775 0
M  V30 4271 C 402.298 -2.08036 -2.73086 0
M  V30 4272 C 401.384 -3.28488 -2.68247 0
M  V30 4273 N 401.775 -4.48924 -2.33025 0
M  V30 4274 C 400.073 -3.3062 -2.99343 0
M  V30 4275 C 400.774 -5.30956 -2.37613 0
M  V30 4276 N 399.75 -4.68805 -2.75178 0
M  V30 4277 H 403.552 -2.73175 -1.0841 0
M  V30 4278 H 401.066 -1.5437 -0.504361 0
M  V30 4279 H 403.063 -2.26027 -3.5031 0
M  V30 4280 H 401.723 -1.18629 -3.02254 0
M  V30 4281 H 402.734 -4.75432 -2.05389 0
M  V30 4282 H 399.411 -2.51336 -3.33371 0
M  V30 4283 H 400.801 -6.37199 -2.13135 0
M  V30 4284 N 403.521 0.559213 -1.47345 0
M  V30 4285 C 404.471 1.66192 -1.5609 0
M  V30 4286 C 405.455 1.55323 -0.419957 0
M  V30 4287 O 406.647 1.63839 -0.669762 0
M  V30 4288 C 403.776 3.0497 -1.57634 0
M  V30 4289 C 402.862 3.2105 -2.77106 0
M  V30 4290 N 403.253 3.07203 -4.01821 0
M  V30 4291 C 401.551 3.52046 -2.73825 0
M  V30 4292 C 402.252 3.25919 -4.81821 0
M  V30 4293 N 401.228 3.52161 -4.14106 0
M  V30 4294 H 405.03 1.54052 -2.5029 0
M  V30 4295 H 402.544 0.763914 -1.43311 0
M  V30 4296 H 404.541 3.84142 -1.61989 0
M  V30 4297 H 403.201 3.18224 -0.645281 0
M  V30 4298 H 404.212 2.84572 -4.32711 0
M  V30 4299 H 400.889 3.71839 -1.89848 0
M  V30 4300 H 402.279 3.20198 -5.90697 0
M  V30 4301 N 404.999 1.35443 0.805782 0
M  V30 4302 C 405.931 1.24285 1.92577 0
M  V30 4303 C 406.944 0.165962 1.61952 0
M  V30 4304 O 408.133 0.419303 1.73505 0
M  V30 4305 C 405.233 0.891272 3.2697 0
M  V30 4306 C 404.406 2.06669 3.85495 0
M  V30 4307 C 403.465 1.69077 4.98297 0
M  V30 4308 O 402.491 2.4096 5.15681 0
M  V30 4309 N 403.693 0.614869 5.77234 0
M  V30 4310 H 406.458 2.20777 2.02676 0
M  V30 4311 H 404.019 1.28623 0.983243 0
M  V30 4312 H 406.011 0.621256 3.99903 0
M  V30 4313 H 404.581 0.016004 3.12596 0
M  V30 4314 H 403.801 2.50046 3.04747 0
M  V30 4315 H 405.089 2.85237 4.21328 0
M  V30 4316 H 404.487 0.017648 5.65697 0
M  V30 4317 H 403.044 0.404636 6.50543 0
M  V30 4318 N 406.477 -1.02803 1.19454 0
M  V30 4319 C 407.387 -2.14575 0.948408 0
M  V30 4320 C 408.403 -1.73757 -0.091871 0
M  V30 4321 O 409.579 -2.01185 0.0929654 0
M  V30 4322 C 406.644 -3.43202 0.491265 0
M  V30 4323 C 405.705 -3.98328 1.60103 0
M  V30 4324 C 404.938 -5.20816 1.16561 0
M  V30 4325 O 405.161 -5.70392 0.0295238 0
M  V30 4326 O 404.095 -5.68801 1.96849 0
M  V30 4327 H 407.921 -2.38202 1.88397 0
M  V30 4328 H 405.506 -1.12989 0.977433 0
M  V30 4329 H 407.388 -4.20687 0.245015 0
M  V30 4330 H 406.063 -3.21018 -0.415851 0
M  V30 4331 H 404.97 -3.22174 1.90144 0
M  V30 4332 H 406.303 -4.24879 2.48473 0
M  V30 4333 N 407.956 -0.998596 -1.21925 0
M  V30 4334 C 409.186 -0.695276 -1.94549 0
M  V30 4335 C 409.594 0.745079 -1.73911 0
M  V30 4336 O 408.937 1.51507 -1.03881 0
M  V30 4337 C 408.999 -0.928485 -3.47303 0
M  V30 4338 C 408.663 -2.35443 -3.91683 0
M  V30 4339 C 409.66 -3.33428 -3.98901 0
M  V30 4340 C 407.345 -2.69038 -4.24174 0
M  V30 4341 C 409.339 -4.63079 -4.37992 0
M  V30 4342 C 407.026 -3.98906 -4.62944 0
M  V30 4343 C 408.024 -4.95738 -4.69822 0
M  V30 4344 O 407.712 -6.23285 -5.07711 0
M  V30 4345 H 407.444 -0.255902 -0.625692 0
M  V30 4346 H 409.998 -1.33767 -1.5587 0
M  V30 4347 H 408.228 -0.228917 -3.86022 0
M  V30 4348 H 409.917 -0.619539 -4.01144 0
M  V30 4349 H 410.683 -3.08807 -3.73983 0
M  V30 4350 H 406.562 -1.94367 -4.18022 0
M  V30 4351 H 410.106 -5.38658 -4.43275 0
M  V30 4352 H 406.003 -4.23314 -4.87314 0
M  V30 4353 H 406.771 -6.27306 -5.25766 0
M  V30 4354 N 409.434 1.37368 -0.772513 0
M  V30 4355 C 410.382 2.32134 -0.147111 0
M  V30 4356 C 411.376 1.54972 0.684106 0
M  V30 4357 O 412.582 1.70363 0.581083 0
M  V30 4358 H 408.957 0.751449 -0.028786 0
M  V30 4359 H 410.928 2.82464 -0.962112 0
M  V30 4360 C 409.677 3.40226 0.71703 0
M  V30 4361 H 409 3.99706 0.0867951 0
M  V30 4362 H 410.44 4.08897 1.12159 0
M  V30 4363 C 408.899 2.80372 1.86797 0
M  V30 4364 O 409.429 2.71183 2.96349 0
M  V30 4365 N 407.635 2.37904 1.66883 0
M  V30 4366 H 407.182 2.45578 0.777759 0
M  V30 4367 H 407.14 1.98202 2.44056 0
M  V30 4368 N 410.912 0.523116 1.48665 0
M  V30 4369 C 412.189 -0.0775449 1.95446 0
M  V30 4370 C 412.569 -1.5197 1.4652 0
M  V30 4371 O 411.917 -2.17876 0.688657 0
M  V30 4372 C 412.127 0.0326135 3.48985 0
M  V30 4373 C 413.475 -0.130141 4.24401 0
M  V30 4374 O 414.499 -0.0415142 3.56176 0
M  V30 4375 O 413.358 -0.31491 5.45592 0
M  V30 4376 H 410.452 -0.0831012 0.822814 0
M  V30 4377 H 412.998 0.587227 1.59216 0
M  V30 4378 H 411.77 1.03748 3.77296 0
M  V30 4379 H 411.393 -0.671317 3.91892 0
M  V30 4380 N 412.39 -1.55475 0.257931 0
M  V30 4381 C 413.638 -1.98813 -0.363009 0
M  V30 4382 C 413.959 -1.14757 -1.57657 0
M  V30 4383 O 413.229 -0.232956 -1.9451 0
M  V30 4384 H 411.809 -0.734308 -0.137113 0
M  V30 4385 H 414.471 -1.9156 0.359281 0
M  V30 4386 H 413.567 -3.04941 -0.664634 0
M  V30 4387 N 413.868 0.0150385 -1.57593 0
M  V30 4388 C 415.284 0.370907 -1.5523 0
M  V30 4389 C 415.484 1.75735 -0.985882 0
M  V30 4390 O 414.54 2.44944 -0.613077 0
M  V30 4391 C 415.853 0.259908 -2.99575 0
M  V30 4392 C 417.401 0.335959 -3.11192 0
M  V30 4393 C 417.876 0.254253 -4.57294 0
M  V30 4394 N 419.367 0.312618 -4.62144 0
M  V30 4395 C 420.102 0.272505 -5.72752 0
M  V30 4396 N 419.598 0.183864 -6.92556 0
M  V30 4397 N 421.391 0.323267 -5.6117 0
M  V30 4398 H 413.542 -0.892104 -1.92757 0
M  V30 4399 H 415.805 -0.340563 -0.884715 0
M  V30 4400 H 415.511 -0.693403 -3.44797 0
M  V30 4401 H 415.385 1.048 -3.62349 0
M  V30 4402 H 417.772 1.27971 -2.65909 0
M  V30 4403 H 417.853 -0.481739 -2.51223 0
M  V30 4404 H 417.497 -0.685887 -5.03247 0
M  V30 4405 H 417.427 1.09024 -5.15191 0
M  V30 4406 H 419.918 0.38307 -3.75953 0
M  V30 4407 H 420.231 0.15874 -7.72637 0
M  V30 4408 H 418.576 0.149708 -6.94839 0
M  V30 4409 H 421.767 0.390607 -4.66467 0
M  V30 4410 H 421.94 0.288539 -6.47357 0
M  V30 4411 N 415.346 1.54954 0.287554 0
M  V30 4412 C 416.293 1.86834 1.35505 0
M  V30 4413 C 417.263 0.718452 1.49758 0
M  V30 4414 O 418.448 0.968358 1.644 0
M  V30 4415 C 415.588 2.13303 2.71286 0
M  V30 4416 C 414.701 3.40883 2.65373 0
M  V30 4417 C 413.836 3.57125 3.93236 0
M  V30 4418 C 412.875 4.78449 3.81776 0
M  V30 4419 N 412.012 4.91426 5.01443 0
M  V30 4420 H 416.852 2.77889 1.07619 0
M  V30 4421 H 414.389 1.37593 0.520241 0
M  V30 4422 H 416.347 2.26646 3.50267 0
M  V30 4423 H 414.977 1.25499 2.97405 0
M  V30 4424 H 414.029 3.36088 1.78182 0
M  V30 4425 H 415.341 4.29993 2.52799 0
M  V30 4426 H 414.495 3.70207 4.80658 0
M  V30 4427 H 413.234 2.66173 4.0866 0
M  V30 4428 H 412.239 4.65386 2.92738 0
M  V30 4429 H 413.464 5.70822 3.67884 0
M  V30 4430 H 411.41 4.03401 5.17304 0
M  V30 4431 H 411.327 5.74559 4.91343 0
M  V30 4432 H 412.595 5.08879 5.90477 0
M  V30 4433 N 416.824 -0.551391 1.4764 0
M  V30 4434 C 418.052 -1.33357 1.58189 0
M  V30 4435 C 418.467 -1.87342 0.234199 0
M  V30 4436 O 417.824 -1.65301 -0.77343 0
M  V30 4437 C 417.875 -2.49942 2.61173 0
M  V30 4438 O 417.596 -1.98187 3.90709 0
M  V30 4439 C 419.097 -3.42072 2.8196 0
M  V30 4440 H 416.317 -0.40631 0.533998 0
M  V30 4441 H 418.861 -0.667367 1.93304 0
M  V30 4442 H 417.016 -3.12489 2.28975 0
M  V30 4443 H 417.43 -2.74342 4.47031 0
M  V30 4444 H 418.904 -4.20278 3.57869 0
M  V30 4445 H 419.381 -3.95978 1.89995 0
M  V30 4446 H 419.987 -2.85336 3.15378 0
M  V30 4447 N 418.302 -1.35869 -0.798587 0
M  V30 4448 C 419.549 -1.29588 -1.55606 0
M  V30 4449 C 419.877 0.127456 -1.94082 0
M  V30 4450 O 419.132 1.09461 -1.62225 0
M  V30 4451 C 419.431 -2.1556 -2.85077 0
M  V30 4452 C 419.097 -3.6424 -2.65781 0
M  V30 4453 C 417.759 -4.04766 -2.60227 0
M  V30 4454 C 420.111 -4.58547 -2.47758 0
M  V30 4455 C 417.439 -5.37753 -2.34603 0
M  V30 4456 C 419.791 -5.91742 -2.23662 0
M  V30 4457 C 418.455 -6.31402 -2.16534 0
M  V30 4458 H 417.725 -0.474197 -0.569402 0
M  V30 4459 H 420.372 -1.67839 -0.922086 0
M  V30 4460 H 418.677 -1.70216 -3.52893 0
M  V30 4461 H 420.374 -2.08031 -3.42818 0
M  V30 4462 H 416.964 -3.32086 -2.70956 0
M  V30 4463 H 421.148 -4.28117 -2.51056 0
M  V30 4464 H 416.404 -5.67474 -2.2756 0
M  V30 4465 H 420.578 -6.6439 -2.08708 0
M  V30 4466 H 418.205 -7.34381 -1.96441 0
M  V30 4467 N 419.78 1.02168 -1.19998 0
M  V30 4468 C 421.191 1.57135 -1.00825 0
M  V30 4469 C 421.542 1.91276 0.436818 0
M  V30 4470 O 420.667 1.71679 1.3174 0
M  V30 4471 C 421.262 2.85514 -1.82393 0
M  V30 4472 C 419.821 3.37027 -1.67601 0
M  V30 4473 C 418.968 2.10388 -1.80644 0
M  V30 4474 H 421.919 0.846106 -1.34264 0
M  V30 4475 H 421.94 3.56711 -1.32429 0
M  V30 4476 H 421.452 2.60634 -2.87561 0
M  V30 4477 H 419.553 3.66878 -0.650485 0
M  V30 4478 H 419.666 4.09572 -2.4857 0
M  V30 4479 H 418.03 2.22601 -1.23778 0
M  V30 4480 H 418.813 1.8794 -2.87286 0
M  V30 4481 N 421.258 1.00505 1.21394 0
M  V30 4482 C 422.674 0.717873 1.42544 0
M  V30 4483 C 422.874 -0.706936 1.88692 0
M  V30 4484 O 421.93 -1.47627 2.04847 0
M  V30 4485 C 423.243 1.73377 2.45684 0
M  V30 4486 C 424.791 1.75059 2.59467 0
M  V30 4487 C 425.266 2.75545 3.6584 0
M  V30 4488 N 426.757 2.74213 3.73311 0
M  V30 4489 C 427.492 3.48626 4.55245 0
M  V30 4490 N 426.988 4.32678 5.41075 0
M  V30 4491 N 428.781 3.37276 4.49668 0
M  V30 4492 H 420.932 1.92506 0.897503 0
M  V30 4493 H 423.195 0.830919 0.456375 0
M  V30 4494 H 422.901 2.75395 2.18748 0
M  V30 4495 H 422.775 1.53647 3.44489 0
M  V30 4496 H 425.162 0.737337 2.8574 0
M  V30 4497 H 425.243 1.98861 1.60897 0
M  V30 4498 H 424.887 3.77028 3.40313 0
M  V30 4499 H 424.817 2.49009 4.64007 0
M  V30 4500 H 427.308 2.13234 3.11993 0
M  V30 4501 H 427.621 4.86253 6.00648 0
M  V30 4502 H 425.966 4.3676 5.40616 0
M  V30 4503 H 429.157 2.71043 3.81646 0
M  V30 4504 H 429.33 3.95524 5.13288 0
M  V30 4505 N 422.737 -1.36956 0.779787 0
M  V30 4506 C 423.7 -2.2851 0.177662 0
M  V30 4507 C 424.7 -1.48393 -0.619377 0
M  V30 4508 O 425.89 -1.68505 -0.441785 0
M  V30 4509 C 423.022 -3.32428 -0.755279 0
M  V30 4510 H 424.215 -2.83269 0.984823 0
M  V30 4511 H 421.768 -1.46358 0.548544 0
M  V30 4512 H 422.503 -2.82808 -1.58714 0
M  V30 4513 H 422.288 -3.91659 -0.185817 0
M  V30 4514 H 423.778 -4.00824 -1.17174 0
M  V30 4515 N 424.215 -0.530993 -1.48385 0
M  V30 4516 C 425.631 -0.188919 -1.58478 0
M  V30 4517 C 425.831 1.30786 -1.53288 0
M  V30 4518 O 424.887 2.08619 -1.42248 0
M  V30 4519 C 426.2 -0.792343 -2.90073 0
M  V30 4520 C 427.748 -0.76117 -3.03604 0
M  V30 4521 C 428.223 -1.34319 -4.37861 0
M  V30 4522 N 429.714 -1.3052 -4.44431 0
M  V30 4523 C 430.449 -1.72543 -5.46824 0
M  V30 4524 N 429.945 -2.22299 -6.56167 0
M  V30 4525 N 431.738 -1.63773 -5.37712 0
M  V30 4526 H 423.889 -1.50377 -1.50002 0
M  V30 4527 H 426.152 -0.625559 -0.712306 0
M  V30 4528 H 425.858 -1.84323 -2.99529 0
M  V30 4529 H 425.732 -0.270026 -3.76232 0
M  V30 4530 H 428.119 0.280957 -2.93759 0
M  V30 4531 H 428.2 -1.32097 -2.19053 0
M  V30 4532 H 427.844 -2.38425 -4.4846 0
M  V30 4533 H 427.774 -0.759064 -5.21101 0
M  V30 4534 H 430.265 -0.940973 -3.65997 0
M  V30 4535 H 430.578 -2.52356 -7.30436 0
M  V30 4536 H 428.923 -2.26293 -6.57127 0
M  V30 4537 H 432.114 -1.24698 -4.51185 0
M  V30 4538 H 432.287 -1.96844 -6.17379 0
M  V30 4539 N 425.693 1.55336 -0.266172 0
M  V30 4540 C 427.109 1.59356 0.0882065 0
M  V30 4541 C 427.309 1.2834 1.55342 0
M  V30 4542 O 426.365 1.03996 2.30089 0
M  V30 4543 C 427.678 2.99409 -0.278364 0
M  V30 4544 C 429.226 3.12196 -0.224243 0
M  V30 4545 C 429.701 4.545 -0.565123 0
M  V30 4546 N 431.192 4.60313 -0.51634 0
M  V30 4547 C 431.927 5.68434 -0.753013 0
M  V30 4548 N 431.423 6.84738 -1.05383 0
M  V30 4549 N 433.216 5.57942 -0.682414 0
M  V30 4550 H 425.367 1.73764 -1.22147 0
M  V30 4551 H 427.63 0.809822 -0.492841 0
M  V30 4552 H 427.336 3.2691 -1.29703 0
M  V30 4553 H 427.21 3.75228 0.385186 0
M  V30 4554 H 429.597 2.84464 0.78512 0
M  V30 4555 H 429.678 2.38609 -0.921922 0
M  V30 4556 H 429.322 4.82956 -1.57213 0
M  V30 4557 H 429.252 5.26374 0.154248 0
M  V30 4558 H 431.743 3.7676 -0.29335 0
M  V30 4559 H 432.056 7.63088 -1.22133 0
M  V30 4560 H 430.401 6.86375 -1.09151 0
M  V30 4561 H 433.592 4.65958 -0.44731 0
M  V30 4562 H 433.765 6.4213 -0.870248 0
M  V30 4563 N 427.171 -0.0066808 1.57599 0
M  V30 4564 C 428.399 -0.704087 1.94551 0
M  V30 4565 C 428.814 -1.67677 0.867746 0
M  V30 4566 O 428.171 -1.8185 -0.153925 0
M  V30 4567 C 428.222 -1.44177 3.31505 0
M  V30 4568 O 427.943 -0.508097 4.35144 0
M  V30 4569 C 429.444 -2.23429 3.82876 0
M  V30 4570 H 426.664 -0.196523 0.641576 0
M  V30 4571 H 429.208 0.042453 2.04456 0
M  V30 4572 H 427.363 -2.13999 3.22929 0
M  V30 4573 H 427.777 -1.02782 5.14331 0
M  V30 4574 H 429.251 -2.70552 4.8115 0
M  V30 4575 H 429.728 -3.05818 3.15233 0
M  V30 4576 H 430.334 -1.58636 3.94607 0
M  V30 4577 N 428.649 -1.55105 -0.279332 0
M  V30 4578 C 429.581 -1.83952 -1.36727 0
M  V30 4579 C 430.594 -0.723642 -1.45833 0
M  V30 4580 O 431.783 -1.00141 -1.47763 0
M  V30 4581 C 428.883 -1.98183 -2.74912 0
M  V30 4582 C 428.056 -3.28787 -2.88475 0
M  V30 4583 C 427.115 -3.33162 -4.07295 0
M  V30 4584 O 426.141 -4.06576 -3.98353 0
M  V30 4585 N 427.343 -2.60109 -5.18964 0
M  V30 4586 H 430.108 -2.77853 -1.12328 0
M  V30 4587 H 427.669 -1.54945 -0.469442 0
M  V30 4588 H 429.661 -1.98488 -3.52682 0
M  V30 4589 H 428.231 -1.11177 -2.92162 0
M  V30 4590 H 427.451 -3.41075 -1.97641 0
M  V30 4591 H 428.739 -4.14933 -2.94463 0
M  V30 4592 H 428.137 -2.00136 -5.29115 0
M  V30 4593 H 426.694 -2.66143 -5.94988 0
M  V30 4594 N 430.127 0.543554 -1.4793 0
M  V30 4595 C 431.375 1.29752 -1.54948 0
M  V30 4596 C 431.696 1.93764 -0.219242 0
M  V30 4597 O 430.966 1.80639 0.75805 0
M  V30 4598 H 429.546 0.481874 -0.570795 0
M  V30 4599 H 432.208 0.633636 -1.84312 0
M  V30 4600 H 431.304 2.08392 -2.32334 0
M  V30 4601 N 431.605 1.3629 0.791371 0
M  V30 4602 C 432.833 1.33562 1.58016 0
M  V30 4603 C 433.248 -0.0835616 1.88615 0
M  V30 4604 O 432.605 -1.0399 1.49974 0
M  V30 4605 C 432.656 2.15517 2.90232 0
M  V30 4606 O 432.377 3.51902 2.60953 0
M  V30 4607 C 433.878 2.20546 3.84544 0
M  V30 4608 H 431.098 0.458226 0.490173 0
M  V30 4609 H 433.642 1.79361 0.982345 0
M  V30 4610 H 431.797 1.73278 3.46487 0
M  V30 4611 H 432.211 3.94644 3.4548 0
M  V30 4612 H 433.685 2.82252 4.74382 0
M  V30 4613 H 434.162 1.20838 4.2225 0
M  V30 4614 H 434.768 2.63013 3.34222 0
M  V30 4615 N 433.083 -1.0153 1.20538 0
M  V30 4616 C 434.308 -1.79283 1.04271 0
M  V30 4617 C 434.733 -1.8372 -0.403544 0
M  V30 4618 O 434.091 -1.27321 -1.2907 0
M  V30 4619 C 434.139 -3.21535 1.63241 0
M  V30 4620 O 433.243 -4.03099 0.870908 0
M  V30 4621 H 432.584 -0.55293 0.367647 0
M  V30 4622 H 435.114 -1.27696 1.59859 0
M  V30 4623 H 435.124 -3.72243 1.6703 0
M  V30 4624 H 433.799 -3.1762 2.68497 0
M  V30 4625 H 432.376 -3.61693 0.907323 0
M  V30 4626 N 434.561 -1.01147 -1.20859 0
M  V30 4627 C 435.491 -0.597663 -2.25722 0
M  V30 4628 C 436.472 0.384744 -1.65692 0
M  V30 4629 O 437.657 0.271303 -1.92296 0
M  V30 4630 C 434.787 0.0700149 -3.47229 0
M  V30 4631 C 433.741 -0.832843 -4.19819 0
M  V30 4632 C 433.067 -0.0312202 -5.34691 0
M  V30 4633 C 434.367 -2.1385 -4.76514 0
M  V30 4634 H 436.061 -1.47423 -2.60589 0
M  V30 4635 H 433.607 -0.710301 -1.25263 0
M  V30 4636 H 435.56 0.37103 -4.19763 0
M  V30 4637 H 434.284 0.981259 -3.11511 0
M  V30 4638 H 432.943 -1.11778 -3.49144 0
M  V30 4639 H 432.591 0.881515 -4.95215 0
M  V30 4640 H 432.291 -0.632434 -5.84187 0
M  V30 4641 H 433.815 0.26346 -6.10031 0
M  V30 4642 H 435.229 -1.9002 -5.40893 0
M  V30 4643 H 433.626 -2.69012 -5.36426 0
M  V30 4644 H 434.696 -2.80495 -3.95538 0
M  V30 4645 N 436.039 1.36541 -0.78704 0
M  V30 4646 C 437.455 1.52571 -0.46844 0
M  V30 4647 C 437.655 1.7415 1.01361 0
M  V30 4648 O 436.711 1.77163 1.79915 0
M  V30 4649 C 438.024 2.71299 -1.29682 0
M  V30 4650 C 439.572 2.85169 -1.29027 0
M  V30 4651 C 440.047 4.06898 -2.10233 0
M  V30 4652 N 441.538 4.1404 -2.07666 0
M  V30 4653 C 442.273 5.07301 -2.67271 0
M  V30 4654 N 441.769 6.06021 -3.35724 0
M  V30 4655 N 443.562 4.99898 -2.57018 0
M  V30 4656 H 435.713 1.20788 -1.74711 0
M  V30 4657 H 437.976 0.589364 -0.742532 0
M  V30 4658 H 437.682 2.61868 -2.34773 0
M  V30 4659 H 437.556 3.6539 -0.936479 0
M  V30 4660 H 439.943 2.94062 -0.247284 0
M  V30 4661 H 440.024 1.91992 -1.69035 0
M  V30 4662 H 439.668 3.98766 -3.1456 0
M  V30 4663 H 439.598 4.99218 -1.67597 0
M  V30 4664 H 442.089 3.43357 -1.57843 0
M  V30 4665 H 442.402 6.73741 -3.78541 0
M  V30 4666 H 440.747 6.06253 -3.39826 0
M  V30 4667 H 443.938 4.21724 -2.03142 0
M  V30 4668 H 444.111 5.72392 -3.03761 0
M  V30 4669 N 437.518 0.538854 1.48102 0
M  V30 4670 C 438.743 0.0102694 2.07397 0
M  V30 4671 C 439.168 -1.26562 1.39153 0
M  V30 4672 O 438.526 -1.75357 0.460387 0
M  V30 4673 C 438.574 -0.187602 3.60112 0
M  V30 4674 O 437.678 -1.25432 3.92862 0
M  V30 4675 H 437.019 0.0430975 0.6626 0
M  V30 4676 H 439.549 0.749301 1.90385 0
M  V30 4677 H 439.559 -0.407517 4.0596 0
M  V30 4678 H 438.234 0.744386 4.09184 0
M  V30 4679 H 436.811 -1.01636 3.58782 0
M  V30 4680 N 438.996 -1.55193 0.274407 0
M  V30 4681 C 440.407 -1.85358 -0.223488 0
M  V30 4682 C 440.758 -1.19642 -1.555 0
M  V30 4683 O 439.883 -0.484498 -2.10907 0
M  V30 4684 C 440.478 -3.36282 -0.412285 0
M  V30 4685 C 439.037 -3.66574 -0.854413 0
M  V30 4686 C 438.184 -2.7725 0.0527056 0
M  V30 4687 H 441.135 -1.50743 0.496215 0
M  V30 4688 H 441.156 -3.59349 -1.25094 0
M  V30 4689 H 440.668 -3.84083 0.556965 0
M  V30 4690 H 438.769 -3.24273 -1.83516 0
M  V30 4691 H 438.882 -4.74073 -0.692226 0
M  V30 4692 H 437.246 -2.50447 -0.463484 0
M  V30 4693 H 438.029 -3.27865 1.01783 0
M  V30 4694 N 440.474 -0.00167713 -1.576 0
M  V30 4695 C 441.72 0.683832 -1.90923 0
M  V30 4696 C 442.053 1.7333 -0.875799 0
M  V30 4697 O 441.328 1.94215 0.10525 0
M  V30 4698 C 441.611 1.32543 -3.3482 0
M  V30 4699 C 441.464 0.287387 -4.48881 0
M  V30 4700 C 442.783 2.25114 -3.78169 0
M  V30 4701 H 439.902 0.247125 -0.694333 0
M  V30 4702 H 442.544 -0.0533149 -1.89925 0
M  V30 4703 H 440.694 1.95372 -3.35801 0
M  V30 4704 H 442.366 -0.341346 -4.60035 0
M  V30 4705 H 440.609 -0.39017 -4.32042 0
M  V30 4706 H 441.28 0.775393 -5.46527 0
M  V30 4707 H 443.756 1.723 -3.7875 0
M  V30 4708 H 442.632 2.66971 -4.79602 0
M  V30 4709 H 442.893 3.13092 -3.12131 0
M  V30 4710 N 441.952 1.55251 0.271103 0
M  V30 4711 C 443.177 1.80306 1.02491 0
M  V30 4712 C 443.602 0.575457 1.79081 0
M  V30 4713 O 442.96 -0.474987 1.74967 0
M  V30 4714 C 443.008 3.02832 1.95768 0
M  V30 4715 O 442.112 2.78051 3.04568 0
M  V30 4716 H 441.453 0.595896 0.292923 0
M  V30 4717 H 443.983 2.02397 0.299436 0
M  V30 4718 H 443.993 3.31616 2.37686 0
M  V30 4719 H 442.668 3.9183 1.39434 0
M  V30 4720 H 441.245 2.60369 2.66951 0
M  V30 4721 N 443.43 -0.535701 1.48216 0
M  V30 4722 C 444.677 -1.29183 1.55942 0
M  V30 4723 C 445.005 -1.93125 0.230857 0
M  V30 4724 O 444.26 -1.79556 -0.778331 0
M  V30 4725 C 444.559 -2.4068 2.64212 0
M  V30 4726 C 444.225 -1.94428 4.06827 0
M  V30 4727 C 442.887 -1.81532 4.45645 0
M  V30 4728 C 445.239 -1.59405 4.96225 0
M  V30 4729 C 442.567 -1.31939 5.71672 0
M  V30 4730 C 444.919 -1.11276 6.22736 0
M  V30 4731 C 443.583 -0.969924 6.60416 0
M  V30 4732 H 442.853 -0.472715 0.570632 0
M  V30 4733 H 445.5 -0.598437 1.81909 0
M  V30 4734 H 443.805 -3.15666 2.32083 0
M  V30 4735 H 445.502 -2.98822 2.67407 0
M  V30 4736 H 442.092 -2.05415 3.76168 0
M  V30 4737 H 446.276 -1.68231 4.66917 0
M  V30 4738 H 441.532 -1.19562 5.99596 0
M  V30 4739 H 445.706 -0.832453 6.91407 0
M  V30 4740 H 443.333 -0.583436 7.57958 0
M  V30 4741 N 444.908 -1.36708 -0.784132 0
M  V30 4742 C 446.133 -1.34565 -1.5782 0
M  V30 4743 C 446.558 0.0695257 -1.87971 0
M  V30 4744 O 445.916 1.04302 -1.48293 0
M  V30 4745 C 445.964 -2.17952 -2.87279 0
M  V30 4746 O 445.068 -1.57563 -3.81114 0
M  V30 4747 H 444.409 -0.460337 -0.478524 0
M  V30 4748 H 446.939 -1.80064 -0.971495 0
M  V30 4749 H 446.949 -2.30721 -3.365 0
M  V30 4750 H 445.624 -3.20823 -2.64661 0
M  V30 4751 H 444.201 -1.53764 -3.39722 0
M  V30 4752 N 446.386 1.0089 -1.21074 0
M  V30 4753 C 447.797 1.56056 -1.02486 0
M  V30 4754 C 448.148 1.91728 0.416506 0
M  V30 4755 O 447.273 1.73066 1.29912 0
M  V30 4756 C 447.868 2.83563 -1.85411 0
M  V30 4757 C 446.427 3.3523 -1.71166 0
M  V30 4758 C 445.574 2.0846 -1.82865 0
M  V30 4759 H 448.525 0.831818 -1.35154 0
M  V30 4760 H 448.546 3.55286 -1.36205 0
M  V30 4761 H 448.058 2.57569 -2.9031 0
M  V30 4762 H 446.159 3.66167 -0.689361 0
M  V30 4763 H 446.272 4.06913 -2.52901 0
M  V30 4764 H 444.636 2.21275 -1.26132 0
M  V30 4765 H 445.419 1.84883 -2.89263 0
M  V30 4766 N 447.864 1.01787 1.20321 0
M  V30 4767 C 449.092 0.727194 1.937 0
M  V30 4768 C 449.507 -0.712305 1.74848 0
M  V30 4769 O 448.864 -1.48327 1.06327 0
M  V30 4770 C 448.915 1.05497 3.45764 0
M  V30 4771 O 448.636 2.43794 3.64 0
M  V30 4772 C 450.137 0.785534 4.36285 0
M  V30 4773 H 447.357 0.266939 0.615617 0
M  V30 4774 H 449.901 1.35939 1.52777 0
M  V30 4775 H 448.056 0.468158 3.84561 0
M  V30 4776 H 448.47 2.55656 4.57974 0
M  V30 4777 H 449.944 1.06495 5.4163 0
M  V30 4778 H 450.421 -0.280273 4.38305 0
M  V30 4779 H 451.027 1.35456 4.03152 0
M  V30 4780 N 449.342 -1.36122 0.79427 0
M  V30 4781 C 450.619 -1.93398 0.292685 0
M  V30 4782 C 450.999 -1.72567 -1.21589 0
M  V30 4783 O 450.347 -1.08745 -2.00965 0
M  V30 4784 C 450.557 -3.42099 0.690614 0
M  V30 4785 C 451.905 -4.19231 0.673105 0
M  V30 4786 O 452.929 -3.50559 0.631389 0
M  V30 4787 O 451.788 -5.41732 0.720362 0
M  V30 4788 H 448.882 -0.823712 0.0736693 0
M  V30 4789 H 451.428 -1.45273 0.87714 0
M  V30 4790 H 450.2 -3.50938 1.73085 0
M  V30 4791 H 449.823 -3.97519 0.0803036 0
M  V30 4792 N 450.82 -0.546701 -1.47814 0
M  V30 4793 C 451.77 0.227042 -2.26867 0
M  V30 4794 C 452.754 0.894844 -1.33721 0
M  V30 4795 O 453.946 0.794887 -1.58147 0
M  V30 4796 C 451.075 1.26299 -3.19223 0
M  V30 4797 C 450.161 0.59913 -4.19847 0
M  V30 4798 N 450.552 -0.324777 -5.04756 0
M  V30 4799 C 448.85 0.854331 -4.37741 0
M  V30 4800 C 449.551 -0.709386 -5.77358 0
M  V30 4801 N 448.527 -0.0666153 -5.43559 0
M  V30 4802 H 452.329 -0.483476 -2.89896 0
M  V30 4803 H 449.843 -0.365893 -1.58224 0
M  V30 4804 H 451.84 1.83116 -3.74532 0
M  V30 4805 H 450.5 1.97471 -2.57751 0
M  V30 4806 H 451.511 -0.698351 -5.1317 0
M  V30 4807 H 448.188 1.55536 -3.87447 0
M  V30 4808 H 449.578 -1.46796 -6.55668 0
M  V30 4809 N 452.299 1.55045 -0.282633 0
M  V30 4810 C 453.524 2.04628 0.337977 0
M  V30 4811 C 453.949 1.15937 1.48123 0
M  V30 4812 O 453.307 0.159532 1.80597 0
M  V30 4813 C 453.355 3.51854 0.78936 0
M  V30 4814 O 452.459 3.66236 1.89592 0
M  V30 4815 H 451.8 0.660434 0.0687261 0
M  V30 4816 H 454.33 2.00261 -0.419124 0
M  V30 4817 H 454.34 3.93361 1.08311 0
M  V30 4818 H 453.015 4.15873 -0.0470419 0
M  V30 4819 H 451.592 3.36633 1.60413 0
M  V30 4820 N 453.777 0.010035 1.57597 0
M  V30 4821 C 454.707 -0.976857 2.12084 0
M  V30 4822 C 455.688 -1.35191 1.03235 0
M  V30 4823 O 456.873 -1.43389 1.3097 0
M  V30 4824 C 454.003 -2.26548 2.63236 0
M  V30 4825 C 452.957 -2.03175 3.76701 0
M  V30 4826 C 452.283 -3.38138 4.14206 0
M  V30 4827 C 453.583 -1.38625 5.03568 0
M  V30 4828 H 455.277 -0.523145 2.94794 0
M  V30 4829 H 452.823 -0.250195 1.4181 0
M  V30 4830 H 454.776 -2.95952 2.99984 0
M  V30 4831 H 453.5 -2.74051 1.77661 0
M  V30 4832 H 452.159 -1.36195 3.40362 0
M  V30 4833 H 451.807 -3.83363 3.25641 0
M  V30 4834 H 451.507 -3.23312 4.90656 0
M  V30 4835 H 453.031 -4.08841 4.53521 0
M  V30 4836 H 454.445 -1.98 5.38023 0
M  V30 4837 H 452.842 -1.34256 5.84889 0
M  V30 4838 H 453.912 -0.356722 4.83586 0
M  V30 4839 N 455.255 -1.55392 -0.262866 0
M  V30 4840 C 456.48 -1.80847 -1.01533 0
M  V30 4841 C 456.905 -0.584946 -1.78774 0
M  V30 4842 O 456.263 0.465701 -1.75217 0
M  V30 4843 C 456.311 -3.03866 -1.94159 0
M  V30 4844 O 455.415 -2.79662 -3.03089 0
M  V30 4845 H 454.756 -0.597441 -0.289759 0
M  V30 4846 H 457.286 -2.02553 -0.288698 0
M  V30 4847 H 457.296 -3.32872 -2.35924 0
M  V30 4848 H 455.971 -3.92564 -1.37354 0
M  V30 4849 H 454.548 -2.61781 -2.65566 0
M  V30 4850 N 456.733 0.527833 -1.48498 0
M  V30 4851 C 457.961 1.30823 -1.6029 0
M  V30 4852 C 458.376 1.86945 -0.263974 0
M  V30 4853 O 457.733 1.6651 0.747034 0
M  V30 4854 C 457.784 2.45756 -2.65116 0
M  V30 4855 O 457.505 1.91946 -3.93813 0
M  V30 4856 C 459.006 3.37543 -2.87367 0
M  V30 4857 H 456.226 0.397763 -0.540394 0
M  V30 4858 H 458.77 0.636529 -1.94341 0
M  V30 4859 H 456.925 3.08806 -2.33917 0
M  V30 4860 H 457.339 2.67195 -4.51339 0
M  V30 4861 H 458.813 4.14532 -3.6451 0
M  V30 4862 H 459.29 3.92905 -1.9627 0
M  V30 4863 H 459.896 2.80283 -3.19878 0
M  V30 4864 N 458.211 1.37122 0.776871 0
M  V30 4865 C 459.436 1.354 1.57104 0
M  V30 4866 C 459.861 -0.0595562 1.88006 0
M  V30 4867 O 459.219 -1.03514 1.48844 0
M  V30 4868 C 459.267 2.19472 2.8612 0
M  V30 4869 O 458.371 1.59582 3.80273 0
M  V30 4870 H 457.712 0.462869 0.476076 0
M  V30 4871 H 460.242 1.80577 0.961932 0
M  V30 4872 H 460.252 2.32502 3.35271 0
M  V30 4873 H 458.927 3.22222 2.62956 0
M  V30 4874 H 457.504 1.55564 3.38902 0
M  V30 4875 N 459.689 -1.00246 1.21608 0
M  V30 4876 C 460.914 -1.78167 1.06167 0
M  V30 4877 C 461.339 -1.84138 -0.384035 0
M  V30 4878 O 460.697 -1.28683 -1.27712 0
M  V30 4879 C 460.745 -3.19786 1.66642 0
M  V30 4880 O 459.849 -4.02153 0.913613 0
M  V30 4881 H 459.19 -0.549 0.37349 0
M  V30 4882 H 461.72 -1.25994 1.61204 0
M  V30 4883 H 461.73 -3.70451 1.70969 0
M  V30 4884 H 460.405 -3.14754 2.7185 0
M  V30 4885 H 458.982 -3.60711 0.945635 0
M  V30 4886 N 461.167 -1.02423 -1.1978 0
M  V30 4887 C 462.415 -0.716569 -1.8897 0
M  V30 4888 C 462.736 0.756769 -1.79716 0
M  V30 4889 O 462.006 1.5449 -1.20456 0
M  V30 4890 H 460.586 -0.262062 -0.699523 0
M  V30 4891 H 463.248 -1.29747 -1.45436 0
M  V30 4892 H 462.344 -1.00675 -2.95417 0
M  V30 4893 N 462.645 1.35699 -0.801477 0
M  V30 4894 C 463.87 2.03687 -0.390678 0
M  V30 4895 C 464.295 1.60015 0.988778 0
M  V30 4896 O 463.653 0.774357 1.63931 0
M  V30 4897 C 463.701 3.57439 -0.476404 0
M  V30 4898 O 462.805 4.09208 0.512106 0
M  V30 4899 H 462.146 0.64344 -0.163956 0
M  V30 4900 H 464.676 1.73403 -1.08594 0
M  V30 4901 H 464.686 4.06544 -0.344357 0
M  V30 4902 H 463.361 3.88576 -1.48262 0
M  V30 4903 H 461.938 3.7134 0.340721 0
M  V30 4904 N 464.123 0.554532 1.47522 0
M  V30 4905 C 465.348 0.0322661 2.07375 0
M  V30 4906 C 465.773 -1.25079 1.40488 0
M  V30 4907 O 465.131 -1.74859 0.47896 0
M  V30 4908 C 465.179 -0.149397 3.6029 0
M  V30 4909 O 464.283 -1.21259 3.9417 0
M  V30 4910 H 463.624 0.0501228 0.662106 0
M  V30 4911 H 466.154 0.769452 1.8958 0
M  V30 4912 H 466.164 -0.364437 4.06369 0
M  V30 4913 H 464.839 0.787743 4.08372 0
M  V30 4914 H 463.416 -0.97825 3.5984 0
M  V30 4915 N 465.601 -1.54893 0.290851 0
M  V30 4916 C 466.85 -1.99111 -0.322113 0
M  V30 4917 C 467.163 -1.18283 -1.55784 0
M  V30 4918 O 468.369 -1.5272 -2.24475 0
M  V30 4919 C 466.825 -3.54442 -0.624438 0
M  V30 4920 C 466.433 -4.44066 0.592373 0
M  V30 4921 C 468.177 -4.07211 -1.19916 0
M  V30 4922 C 466.084 -5.90812 0.263762 0
M  V30 4923 H 465.014 -0.743712 -0.124133 0
M  V30 4924 H 467.665 -1.79132 0.39797 0
M  V30 4925 H 466.047 -3.70281 -1.40384 0
M  V30 4926 H 467.221 -4.39999 1.36886 0
M  V30 4927 H 465.536 -4.02015 1.08502 0
M  V30 4928 H 468.133 -5.14407 -1.45909 0
M  V30 4929 H 468.476 -3.57196 -2.13815 0
M  V30 4930 H 469.009 -3.94873 -0.481687 0
M  V30 4931 H 465.748 -6.44955 1.17105 0
M  V30 4932 H 465.268 -5.97911 -0.475655 0
M  V30 4933 H 466.947 -6.46852 -0.138354 0
M  V30 4934 N 467.08 -0.0183926 -1.57589 0
M  V30 4935 C 468.327 0.662562 -1.91354 0
M  V30 4936 C 468.655 1.72747 -0.893788 0
M  V30 4937 O 467.91 1.9545 0.0988509 0
M  V30 4938 C 468.209 1.32676 -3.31861 0
M  V30 4939 C 467.875 0.393267 -4.49182 0
M  V30 4940 C 466.537 0.136302 -4.81007 0
M  V30 4941 C 468.889 -0.248366 -5.20608 0
M  V30 4942 C 466.217 -0.770282 -5.81621 0
M  V30 4943 C 468.569 -1.14294 -6.22189 0
M  V30 4944 C 467.233 -1.4089 -6.52462 0
M  V30 4945 H 466.503 0.242448 -0.700214 0
M  V30 4946 H 469.15 -0.0778629 -1.91342 0
M  V30 4947 H 467.455 2.14168 -3.28084 0
M  V30 4948 H 469.152 1.86001 -3.55253 0
M  V30 4949 H 465.742 0.603723 -4.24327 0
M  V30 4950 H 469.926 -0.062883 -4.9626 0
M  V30 4951 H 465.182 -0.984154 -6.03427 0
M  V30 4952 H 469.356 -1.64637 -6.76659 0
M  V30 4953 H 466.983 -2.11306 -7.30242 0
M  V30 4954 N 468.558 1.5553 0.254621 0
M  V30 4955 C 469.786 1.81046 1.00149 0
M  V30 4956 C 470.201 0.593047 1.79244 0
M  V30 4957 O 469.558 -0.438196 1.77161 0
M  V30 4958 C 469.609 3.04684 1.94551 0
M  V30 4959 O 469.33 4.21725 1.18658 0
M  V30 4960 C 470.831 3.42943 2.80901 0
M  V30 4961 H 468.051 0.602653 0.295044 0
M  V30 4962 H 470.595 2.02576 0.279842 0
M  V30 4963 H 468.75 2.85226 2.62154 0
M  V30 4964 H 469.164 4.91746 1.82445 0
M  V30 4965 H 470.638 4.32576 3.42902 0
M  V30 4966 H 471.115 2.63176 3.51617 0
M  V30 4967 H 471.721 3.64724 2.18762 0
M  V30 4968 N 470.036 -0.519951 1.48776 0
M  V30 4969 C 471.447 -1.10177 1.50725 0
M  V30 4970 C 471.798 -1.94153 0.282678 0
M  V30 4971 O 470.923 -2.07645 -0.609298 0
M  V30 4972 C 471.518 -2.00482 2.73116 0
M  V30 4973 C 470.077 -2.53862 2.77905 0
M  V30 4974 C 469.224 -1.31047 2.44381 0
M  V30 4975 H 472.175 -0.30473 1.55747 0
M  V30 4976 H 472.196 -2.8491 2.52203 0
M  V30 4977 H 471.708 -1.39335 3.62225 0
M  V30 4978 H 469.809 -3.18702 1.93029 0
M  V30 4979 H 469.922 -2.9231 3.79594 0
M  V30 4980 H 468.286 -1.62953 1.95751 0
M  V30 4981 H 469.069 -0.71637 3.35743 0
M  V30 4982 N 471.514 -1.37532 -0.769588 0
M  V30 4983 C 472.424 -1.35668 -1.91393 0
M  V30 4984 C 473.44 -0.255954 -1.72107 0
M  V30 4985 O 474.616 -0.491704 -1.95305 0
M  V30 4986 C 471.681 -1.16481 -3.26547 0
M  V30 4987 C 470.742 -2.36212 -3.58472 0
M  V30 4988 C 469.975 -2.17932 -4.87177 0
M  V30 4989 O 470.198 -1.1647 -5.58382 0
M  V30 4990 O 469.132 -3.06167 -5.18214 0
M  V30 4991 H 472.958 -2.32055 -1.95918 0
M  V30 4992 H 470.543 -1.18284 -0.912641 0
M  V30 4993 H 472.425 -1.07778 -4.07384 0
M  V30 4994 H 471.1 -0.231687 -3.2287 0
M  V30 4995 H 470.007 -2.50488 -2.77861 0
M  V30 4996 H 471.34 -3.281 -3.66894 0
M  V30 4997 N 472.992 0.995999 -1.22138 0
M  V30 4998 C 474.222 1.76809 -1.06874 0
M  V30 4999 C 474.63 1.85265 0.383866 0
M  V30 5000 O 473.973 1.31969 1.27789 0
M  V30 5001 C 474.035 3.2186 -1.60144 0
M  V30 5002 C 473.699 3.36958 -3.0872 0
M  V30 5003 C 474.696 3.2452 -4.0618 0
M  V30 5004 C 472.381 3.62109 -3.48112 0
M  V30 5005 C 474.375 3.37013 -5.41019 0
M  V30 5006 C 472.062 3.74243 -4.831 0
M  V30 5007 C 473.06 3.61702 -5.79362 0
M  V30 5008 O 472.748 3.73436 -7.119 0
M  V30 5009 H 472.48 0.562207 -0.375365 0
M  V30 5010 H 475.034 1.26113 -1.62125 0
M  V30 5011 H 473.264 3.73734 -0.992981 0
M  V30 5012 H 474.953 3.80775 -1.40589 0
M  V30 5013 H 475.719 3.05004 -3.77091 0
M  V30 5014 H 471.598 3.70949 -2.73712 0
M  V30 5015 H 475.142 3.27141 -6.16137 0
M  V30 5016 H 471.039 3.93266 -5.11872 0
M  V30 5017 H 471.807 3.90328 -7.19435 0
M  V30 5018 N 474.47 1.03057 1.19235 0
M  V30 5019 C 475.747 0.642608 1.84743 0
M  V30 5020 C 476.127 -0.878577 1.91948 0
M  V30 5021 O 475.475 -1.77597 1.43776 0
M  V30 5022 C 475.685 1.30665 3.23616 0
M  V30 5023 C 477.033 1.43098 3.9976 0
M  V30 5024 O 478.057 1.26396 3.3302 0
M  V30 5025 O 476.916 1.70223 5.19313 0
M  V30 5026 H 474.01 0.223573 0.796206 0
M  V30 5027 H 476.556 1.12883 1.26711 0
M  V30 5028 H 475.328 2.34544 3.13217 0
M  V30 5029 H 474.951 0.808405 3.89295 0
M  V30 5030 N 475.948 -1.35272 0.808662 0
M  V30 5031 C 477.225 -1.93077 0.313181 0
M  V30 5032 C 477.605 -1.73847 -1.19752 0
M  V30 5033 O 476.953 -1.1087 -1.998 0
M  V30 5034 C 477.163 -3.41347 0.726859 0
M  V30 5035 C 478.511 -4.18493 0.717532 0
M  V30 5036 O 479.535 -3.4987 0.668535 0
M  V30 5037 O 478.394 -5.40937 0.777779 0
M  V30 5038 H 475.488 -0.822885 0.0824018 0
M  V30 5039 H 478.034 -1.44335 0.892499 0
M  V30 5040 H 476.806 -3.49082 1.76797 0
M  V30 5041 H 476.429 -3.97411 0.122461 0
M  V30 5042 N 477.426 -0.562348 -1.47226 0
M  V30 5043 C 478.651 -0.0432632 -2.07355 0
M  V30 5044 C 479.076 1.24332 -1.41149 0
M  V30 5045 O 478.434 1.74603 -0.488226 0
M  V30 5046 C 478.482 0.130288 -3.60365 0
M  V30 5047 O 477.586 1.19166 -3.94808 0
M  V30 5048 H 476.927 -0.0536334 -0.66183 0
M  V30 5049 H 479.457 -0.779495 -1.89169 0
M  V30 5050 H 479.467 0.342881 -4.06557 0
M  V30 5051 H 478.142 -0.809389 -4.07948 0
M  V30 5052 H 476.719 0.959153 -3.60354 0
M  V30 5053 N 478.904 1.54736 -0.299062 0
M  V30 5054 C 480.32 1.59507 0.0543849 0
M  V30 5055 C 480.52 1.31606 1.52585 0
M  V30 5056 O 479.576 1.08853 2.27832 0
M  V30 5057 C 480.889 2.98751 -0.34181 0
M  V30 5058 C 482.437 3.1165 -0.290414 0
M  V30 5059 C 482.912 4.53199 -0.661402 0
M  V30 5060 N 484.403 4.59114 -0.613863 0
M  V30 5061 C 485.138 5.66709 -0.873417 0
M  V30 5062 N 484.634 6.82349 -1.19884 0
M  V30 5063 N 486.427 5.56369 -0.800608 0
M  V30 5064 H 478.578 1.71133 -1.25806 0
M  V30 5065 H 480.841 0.799186 -0.509908 0
M  V30 5066 H 480.547 3.24085 -1.36608 0
M  V30 5067 H 480.421 3.75961 0.305508 0
M  V30 5068 H 482.808 2.86066 0.724605 0
M  V30 5069 H 482.889 2.366 -0.972327 0
M  V30 5070 H 482.533 4.79513 -1.67422 0
M  V30 5071 H 482.463 5.26583 0.0425612 0
M  V30 5072 H 484.954 3.76053 -0.3732 0
M  V30 5073 H 485.267 7.60326 -1.38291 0
M  V30 5074 H 483.612 6.83906 -1.23685 0
M  V30 5075 H 486.803 4.64904 -0.546045 0
M  V30 5076 H 486.976 6.40139 -1.00626 0
M  V30 5077 N 480.382 0.0267497 1.57577 0
M  V30 5078 C 481.631 -0.651736 1.9088 0
M  V30 5079 C 481.944 -1.73427 0.904576 0
M  V30 5080 O 483.15 -2.46923 1.12877 0
M  V30 5081 C 481.606 -1.21048 3.38933 0
M  V30 5082 C 481.214 -0.161362 4.47709 0
M  V30 5083 C 482.958 -1.86562 3.81307 0
M  V30 5084 C 480.865 -0.731611 5.86857 0
M  V30 5085 H 479.795 -0.247198 0.712326 0
M  V30 5086 H 482.446 0.0916641 1.83271 0
M  V30 5087 H 480.828 -2.00542 3.41466 0
M  V30 5088 H 482.002 0.61094 4.56732 0
M  V30 5089 H 480.317 0.394877 4.14523 0
M  V30 5090 H 482.914 -2.30178 4.8262 0
M  V30 5091 H 483.257 -2.70735 3.16241 0
M  V30 5092 H 483.79 -1.13762 3.81186 0
M  V30 5093 H 480.529 0.0719329 6.55461 0
M  V30 5094 H 480.049 -1.47245 5.81445 0
M  V30 5095 H 481.728 -1.22208 6.35354 0
M  V30 5096 N 481.861 -1.55662 -0.24637 0
M  V30 5097 C 483.277 -1.48098 -0.594907 0
M  V30 5098 C 483.477 -0.717044 -1.8831 0
M  V30 5099 O 482.533 -0.246618 -2.51293 0
M  V30 5100 C 483.846 -2.92507 -0.697146 0
M  V30 5101 C 485.394 -3.02881 -0.789436 0
M  V30 5102 C 485.869 -4.48598 -0.923232 0
M  V30 5103 N 487.36 -4.52538 -0.988088 0
M  V30 5104 C 488.095 -5.62536 -1.11089 0
M  V30 5105 N 487.591 -6.82342 -1.19919 0
M  V30 5106 N 489.384 -5.50334 -1.14408 0
M  V30 5107 H 481.535 -2.0377 0.599278 0
M  V30 5108 H 483.798 -0.925145 0.20691 0
M  V30 5109 H 483.504 -3.51242 0.179396 0
M  V30 5110 H 483.378 -3.43024 -1.5689 0
M  V30 5111 H 485.765 -2.44226 -1.65643 0
M  V30 5112 H 485.846 -2.55574 0.107482 0
M  V30 5113 H 485.49 -5.07864 -0.0607927 0
M  V30 5114 H 485.42 -4.93587 -1.8352 0
M  V30 5115 H 487.911 -3.66248 -0.931167 0
M  V30 5116 H 488.224 -7.61924 -1.29197 0
M  V30 5117 H 486.569 -6.85102 -1.16876 0
M  V30 5118 H 489.76 -4.5567 -1.07158 0
M  V30 5119 H 489.933 -6.36096 -1.23634 0
M  V30 5120 N 483.339 0.512053 -1.4905 0
M  V30 5121 C 484.755 0.84224 -1.35567 0
M  V30 5122 C 484.955 1.97878 -0.380319 0
M  V30 5123 O 484.011 2.51769 0.19201 0
M  V30 5124 C 485.324 1.19286 -2.76028 0
M  V30 5125 C 486.872 1.30171 -2.84648 0
M  V30 5126 C 487.347 1.68568 -4.25851 0
M  V30 5127 N 488.838 1.75638 -4.28609 0
M  V30 5128 C 489.573 2.06769 -5.34821 0
M  V30 5129 N 489.069 2.36201 -6.51292 0
M  V30 5130 N 490.862 2.07927 -5.22229 0
M  V30 5131 H 483.013 -0.237574 -2.11067 0
M  V30 5132 H 485.276 -0.0436747 -0.946993 0
M  V30 5133 H 484.982 0.431199 -3.49047 0
M  V30 5134 H 484.856 2.13889 -3.10695 0
M  V30 5135 H 487.243 2.05411 -2.11873 0
M  V30 5136 H 487.324 0.336457 -2.53578 0
M  V30 5137 H 486.968 0.938824 -4.99148 0
M  V30 5138 H 486.898 2.66174 -4.54377 0
M  V30 5139 H 489.389 1.55097 -3.44606 0
M  V30 5140 H 489.702 2.59112 -7.28066 0
M  V30 5141 H 488.047 2.33681 -6.54536 0
M  V30 5142 H 491.238 1.84403 -4.30248 0
M  V30 5143 H 491.411 2.31856 -6.05101 0
M  V30 5144 N 484.817 1.37938 0.762283 0
M  V30 5145 C 486.233 1.18945 1.06415 0
M  V30 5146 C 486.433 0.0321163 2.01474 0
M  V30 5147 O 485.489 -0.624844 2.44647 0
M  V30 5148 C 486.802 2.51218 1.65258 0
M  V30 5149 C 488.35 2.57824 1.7747 0
M  V30 5150 C 488.825 3.90251 2.39725 0
M  V30 5151 N 490.316 3.91744 2.47166 0
M  V30 5152 C 491.051 4.90966 2.96209 0
M  V30 5153 N 490.547 6.00585 3.45354 0
M  V30 5154 N 492.34 4.78363 2.9517 0
M  V30 5155 H 484.491 2.11994 0.131301 0
M  V30 5156 H 486.754 0.940262 0.120879 0
M  V30 5157 H 486.46 3.36317 1.02878 0
M  V30 5158 H 486.334 2.68989 2.64433 0
M  V30 5159 H 488.721 1.73126 2.3898 0
M  V30 5160 H 488.802 2.43928 0.770241 0
M  V30 5161 H 488.446 4.75368 1.78852 0
M  V30 5162 H 488.376 4.01454 3.40796 0
M  V30 5163 H 490.867 3.12563 2.12397 0
M  V30 5164 H 491.18 6.72236 3.81207 0
M  V30 5165 H 489.525 6.04217 3.43434 0
M  V30 5166 H 492.716 3.91841 2.56082 0
M  V30 5167 H 492.889 5.55843 3.33081 0
M  V30 5168 N 486.295 -0.989507 1.22664 0
M  V30 5169 C 487.543 -1.72612 1.05117 0
M  V30 5170 C 487.864 -1.90552 -0.414131 0
M  V30 5171 O 487.134 -1.4676 -1.29762 0
M  V30 5172 H 485.714 -0.639555 0.385977 0
M  V30 5173 H 488.376 -1.19158 1.54232 0
M  V30 5174 H 487.472 -2.71926 1.53175 0
M  V30 5175 N 487.773 -1.03688 -1.18687 0
M  V30 5176 C 488.998 -0.757819 -1.93059 0
M  V30 5177 C 489.423 0.678353 -1.75442 0
M  V30 5178 O 488.781 1.46938 -1.06203 0
M  V30 5179 C 488.829 -1.12423 -3.42627 0
M  V30 5180 O 487.933 -0.247505 -4.11657 0
M  V30 5181 H 487.274 -0.279245 -0.602427 0
M  V30 5182 H 489.804 -1.3857 -1.5053 0
M  V30 5183 H 489.814 -1.08454 -3.93322 0
M  V30 5184 H 488.489 -2.17049 -3.54771 0
M  V30 5185 H 487.066 -0.34649 -3.71287 0
M  V30 5186 N 489.251 1.34841 -0.815825 0
M  V30 5187 C 490.528 1.92908 -0.323416 0
M  V30 5188 C 490.908 1.74479 1.18828 0
M  V30 5189 O 490.256 1.11928 1.99209 0
M  V30 5190 C 490.466 3.40957 -0.744952 0
M  V30 5191 C 491.814 4.18107 -0.739716 0
M  V30 5192 O 492.838 3.49511 -0.68708 0
M  V30 5193 O 491.697 5.40517 -0.806456 0
M  V30 5194 H 488.791 0.822436 -0.0867646 0
M  V30 5195 H 491.337 1.4386 -0.90014 0
M  V30 5196 H 490.109 3.4814 -1.78646 0
M  V30 5197 H 489.732 3.97341 -0.143535 0
M  V30 5198 N 490.729 0.570148 1.46925 0
M  V30 5199 C 491.978 0.0487352 2.01641 0
M  V30 5200 C 492.291 -1.31433 1.44861 0
M  V30 5201 O 493.497 -1.92638 1.91318 0
M  V30 5202 C 491.953 0.0365817 3.59881 0
M  V30 5203 C 491.561 1.39719 4.25655 0
M  V30 5204 C 493.305 -0.431545 4.22301 0
M  V30 5205 C 491.212 1.34345 5.75939 0
M  V30 5206 H 490.142 0.0144492 0.753862 0
M  V30 5207 H 492.793 0.719928 1.68788 0
M  V30 5208 H 491.175 -0.700522 3.89755 0
M  V30 5209 H 492.349 2.15303 4.07408 0
M  V30 5210 H 490.664 1.80431 3.75278 0
M  V30 5211 H 493.261 -0.490354 5.32447 0
M  V30 5212 H 493.604 -1.44638 3.90366 0
M  V30 5213 H 494.137 0.251102 3.97007 0
M  V30 5214 H 490.876 2.33469 6.12513 0
M  V30 5215 H 490.396 0.629615 5.96486 0
M  V30 5216 H 492.075 1.051 6.38407 0
M  V30 5217 N 492.207 -1.54576 0.307264 0
M  V30 5218 C 493.484 -1.92377 -0.353605 0
M  V30 5219 C 493.864 -1.23517 -1.71192 0
M  V30 5220 O 493.212 -0.373101 -2.25433 0
M  V30 5221 C 493.422 -3.45928 -0.462039 0
M  V30 5222 C 494.77 -4.18278 -0.729975 0
M  V30 5223 O 495.794 -3.51997 -0.545605 0
M  V30 5224 O 494.653 -5.3563 -1.08454 0
M  V30 5225 H 491.747 -0.802747 -0.198812 0
M  V30 5226 H 494.293 -1.65929 0.355783 0
M  V30 5227 H 493.065 -3.88187 0.492592 0
M  V30 5228 H 492.688 -3.78431 -1.21965 0
M  V30 5229 N 493.685 -0.035106 -1.57561 0
M  V30 5230 C 494.633 0.962707 -2.11742 0
M  V30 5231 C 495.627 1.33296 -1.0454 0
M  V30 5232 O 496.833 1.31449 -1.22968 0
M  V30 5233 H 493.208 0.32826 -0.676572 0
M  V30 5234 H 495.179 0.48048 -2.94506 0
M  V30 5235 C 493.928 2.23388 -2.66445 0
M  V30 5236 H 493.251 1.95774 -3.48587 0
M  V30 5237 H 494.691 2.91402 -3.07995 0
M  V30 5238 C 493.15 2.96769 -1.59467 0
M  V30 5239 O 493.68 3.89105 -0.998 0
M  V30 5240 N 491.886 2.59212 -1.31369 0
M  V30 5241 H 491.433 1.84202 -1.80076 0
M  V30 5242 H 491.391 3.08618 -0.600173 0
M  V30 5243 N 495.163 1.55791 0.238111 0
M  V30 5244 C 496.574 1.68383 0.806472 0
M  V30 5245 C 496.925 0.634157 1.85669 0
M  V30 5246 O 496.05 -0.217913 2.153 0
M  V30 5247 C 496.645 3.05268 1.46959 0
M  V30 5248 C 495.204 3.1977 1.98555 0
M  V30 5249 C 494.351 2.64279 0.839763 0
M  V30 5250 H 497.302 1.58694 0.0137535 0
M  V30 5251 H 497.323 3.00203 2.33792 0
M  V30 5252 H 496.835 3.81643 0.704993 0
M  V30 5253 H 494.936 2.48234 2.77868 0
M  V30 5254 H 495.049 4.26788 2.17689 0
M  V30 5255 H 493.413 2.22329 1.24265 0
M  V30 5256 H 494.196 3.43187 0.0881032 0
M  V30 5257 N 496.642 -0.504142 1.49319 0
M  V30 5258 C 497.87 -1.28256 1.62351 0
M  V30 5259 C 498.285 -1.86502 0.293682 0
M  V30 5260 O 497.642 -1.67678 -0.720449 0
M  V30 5261 C 497.693 -2.41507 2.68992 0
M  V30 5262 O 497.414 -1.85656 3.96817 0
M  V30 5263 C 498.915 -3.32929 2.927 0
M  V30 5264 H 496.135 -0.389115 0.546654 0
M  V30 5265 H 498.679 -0.605531 1.95329 0
M  V30 5266 H 496.834 -3.05046 2.38801 0
M  V30 5267 H 497.248 -2.59981 4.55533 0
M  V30 5268 H 498.722 -4.0868 3.71058 0
M  V30 5269 H 499.199 -3.89733 2.02496 0
M  V30 5270 H 499.805 -2.75158 3.24296 0
M  V30 5271 N 498.12 -1.38341 -0.754957 0
M  V30 5272 C 499.05 -1.38176 -1.88227 0
M  V30 5273 C 500.031 -0.247873 -1.68284 0
M  V30 5274 O 501.216 -0.45075 -1.88896 0
M  V30 5275 C 498.346 -1.20471 -3.25736 0
M  V30 5276 C 497.3 -2.3105 -3.60278 0
M  V30 5277 C 496.626 -1.98452 -4.96509 0
M  V30 5278 C 497.926 -3.73305 -3.65295 0
M  V30 5279 H 499.62 -2.32512 -1.88622 0
M  V30 5280 H 497.166 -1.1192 -0.906082 0
M  V30 5281 H 499.119 -1.18982 -4.04254 0
M  V30 5282 H 497.843 -0.225965 -3.25817 0
M  V30 5283 H 496.502 -2.31723 -2.84078 0
M  V30 5284 H 496.15 -0.990641 -4.93148 0
M  V30 5285 H 495.85 -2.7251 -5.20588 0
M  V30 5286 H 497.374 -1.98578 -5.77407 0
M  V30 5287 H 498.788 -3.7467 -4.3393 0
M  V30 5288 H 497.185 -4.46557 -4.00883 0
M  V30 5289 H 498.255 -4.05719 -2.65556 0
M  V30 5290 N 499.598 0.982988 -1.23187 0
M  V30 5291 C 500.826 1.75921 -1.08901 0
M  V30 5292 C 501.241 1.85341 0.359719 0
M  V30 5293 O 500.598 1.33072 1.24892 0
M  V30 5294 C 500.649 3.18742 -1.70545 0
M  V30 5295 O 500.37 3.09814 -3.09753 0
M  V30 5296 C 501.871 4.1277 -1.61667 0
M  V30 5297 H 499.091 0.552166 -0.381252 0
M  V30 5298 H 501.635 1.23516 -1.62985 0
M  V30 5299 H 499.79 3.68182 -1.20501 0
M  V30 5300 H 500.204 3.99703 -3.39614 0
M  V30 5301 H 501.678 5.10697 -2.09506 0
M  V30 5302 H 502.155 4.3542 -0.575009 0
M  V30 5303 H 502.761 3.69232 -2.11064 0
M  V30 5304 N 501.076 1.04316 1.18135 0
M  V30 5305 C 502.322 0.749128 1.88457 0
M  V30 5306 C 502.655 -0.72149 1.803 0
M  V30 5307 O 501.93 -1.52676 1.205 0
M  V30 5308 C 502.213 1.21905 3.38838 0
M  V30 5309 C 502.066 2.75195 3.55792 0
M  V30 5310 C 503.385 0.811085 4.32561 0
M  V30 5311 H 500.504 0.273611 0.684329 0
M  V30 5312 H 503.146 1.29561 1.38975 0
M  V30 5313 H 501.296 0.754137 3.8111 0
M  V30 5314 H 502.968 3.29743 3.22595 0
M  V30 5315 H 501.211 3.14899 2.98364 0
M  V30 5316 H 501.882 3.03135 4.61317 0
M  V30 5317 H 504.358 1.21118 3.98082 0
M  V30 5318 H 503.234 1.16761 5.36338 0
M  V30 5319 H 503.495 -0.285596 4.41177 0
M  V30 5320 N 502.554 -1.34406 0.822964 0
M  V30 5321 C 503.487 -2.27407 0.190124 0
M  V30 5322 C 504.465 -1.4889 -0.653486 0
M  V30 5323 O 505.649 -1.78109 -0.617216 0
M  V30 5324 C 502.776 -3.3064 -0.734477 0
M  V30 5325 C 501.822 -4.26488 0.0316099 0
M  V30 5326 S 502.655 -5.17445 1.3788 0
M  V30 5327 C 503.811 -6.24214 0.45907 0
M  V30 5328 H 504.044 -2.80733 0.978586 0
M  V30 5329 H 501.577 -1.41455 0.618866 0
M  V30 5330 H 503.535 -3.90607 -1.26238 0
M  V30 5331 H 502.196 -2.76161 -1.49646 0
M  V30 5332 H 501.389 -4.9951 -0.671285 0
M  V30 5333 H 500.991 -3.70775 0.490066 0
M  V30 5334 H 503.283 -6.76599 -0.349357 0
M  V30 5335 H 504.226 -6.98551 1.15896 0
M  V30 5336 H 504.634 -5.6448 0.0474825 0
M  V30 5337 N 504.032 -0.577932 -1.46621 0
M  V30 5338 C 505.309 0.00495287 -1.95599 0
M  V30 5339 C 505.689 1.46428 -1.5206 0
M  V30 5340 O 505.037 2.1517 -0.769046 0
M  V30 5341 C 505.247 -0.162114 -3.48623 0
M  V30 5342 C 506.595 -0.0274623 -4.24591 0
M  V30 5343 O 507.619 -0.0907067 -3.56084 0
M  V30 5344 O 506.478 0.1122 -5.46385 0
M  V30 5345 H 503.572 0.0525057 -0.825332 0
M  V30 5346 H 506.118 -0.645914 -1.56927 0
M  V30 5347 H 504.89 -1.17679 -3.73185 0
M  V30 5348 H 504.513 0.525407 -3.94113 0
M  V30 5349 N 505.51 1.54411 -0.315457 0
M  V30 5350 C 506.759 1.99599 0.290395 0
M  V30 5351 C 507.072 1.20746 1.53882 0
M  V30 5352 O 508.278 1.56272 2.22017 0
M  V30 5353 C 506.734 3.5539 0.56797 0
M  V30 5354 C 506.342 4.43068 -0.662945 0
M  V30 5355 C 508.086 4.09067 1.13422 0
M  V30 5356 C 505.993 5.90317 -0.357722 0
M  V30 5357 H 504.923 0.745592 0.112286 0
M  V30 5358 H 507.574 1.78477 -0.426418 0
M  V30 5359 H 505.956 3.72468 1.34476 0
M  V30 5360 H 507.13 4.37765 -1.43869 0
M  V30 5361 H 505.445 4.00238 -1.14884 0
M  V30 5362 H 508.042 5.16663 1.37707 0
M  V30 5363 H 508.385 3.60552 2.08106 0
M  V30 5364 H 508.918 3.95589 0.418805 0
M  V30 5365 H 505.657 6.4301 -1.27351 0
M  V30 5366 H 505.177 5.98592 0.380472 0
M  V30 5367 H 506.856 6.4699 0.0354284 0
M  V30 5368 N 506.988 0.0434614 1.5754 0
M  V30 5369 C 508.213 -0.645358 1.97104 0
M  V30 5370 C 508.638 -1.64037 0.920521 0
M  V30 5371 O 507.996 -1.80922 -0.11708 0
M  V30 5372 C 508.044 -1.31547 3.35749 0
M  V30 5373 O 507.148 -2.43103 3.33129 0
M  V30 5374 H 506.489 -0.168403 0.64229 0
M  V30 5375 H 509.019 0.109573 2.04306 0
M  V30 5376 H 509.029 -1.66895 3.72304 0
M  V30 5377 H 507.704 -0.586205 4.11748 0
M  V30 5378 H 506.281 -2.0976 3.0831 0
M  V30 5379 N 508.466 -1.55915 -0.229846 0
M  V30 5380 C 509.877 -1.68809 -0.797531 0
M  V30 5381 C 510.228 -0.643995 -1.8533 0
M  V30 5382 O 509.353 0.206492 -2.15413 0
M  V30 5383 C 509.948 -3.06043 -1.45338 0
M  V30 5384 C 508.507 -3.20819 -1.96856 0
M  V30 5385 C 507.654 -2.6472 -0.825736 0
M  V30 5386 H 510.605 -1.58699 -0.00533733 0
M  V30 5387 H 510.626 -3.01438 -2.32196 0
M  V30 5388 H 510.138 -3.82012 -0.684743 0
M  V30 5389 H 508.239 -2.49704 -2.76548 0
M  V30 5390 H 508.352 -4.27937 -2.15423 0
M  V30 5391 H 506.716 -2.22985 -1.23084 0
M  V30 5392 H 507.499 -3.43229 -0.0699019 0
M  V30 5393 N 509.944 0.496216 -1.49584 0
M  V30 5394 C 511.355 1.07765 -1.52459 0
M  V30 5395 C 511.706 1.93679 -0.31353 0
M  V30 5396 O 510.831 2.08588 0.576186 0
M  V30 5397 C 511.426 1.96111 -2.76271 0
M  V30 5398 C 509.985 2.49409 -2.81908 0
M  V30 5399 C 509.132 1.27142 -2.46435 0
M  V30 5400 H 512.083 0.279914 -1.56212 0
M  V30 5401 H 512.104 2.80862 -2.56704 0
M  V30 5402 H 511.616 1.33555 -3.64396 0
M  V30 5403 H 509.717 3.1559 -1.98074 0
M  V30 5404 H 509.83 2.86234 -3.84196 0
M  V30 5405 H 508.194 1.59818 -1.98319 0
M  V30 5406 H 508.977 0.662866 -3.3684 0
M  V30 5407 N 511.423 1.38739 0.74761 0
M  V30 5408 C 512.648 1.38702 1.54197 0
M  V30 5409 C 513.073 -0.019664 1.8809 0
M  V30 5410 O 512.431 -1.00333 1.51006 0
M  V30 5411 C 512.479 2.25492 2.814 0
M  V30 5412 O 511.583 1.67613 3.76802 0
M  V30 5413 H 510.924 0.472863 0.466151 0
M  V30 5414 H 513.454 1.82577 0.923413 0
M  V30 5415 H 513.464 2.39561 3.30264 0
M  V30 5416 H 512.139 3.27727 2.56062 0
M  V30 5417 H 510.716 1.62718 3.35526 0
M  V30 5418 N 512.901 -0.976442 1.23707 0
M  V30 5419 C 514.317 -1.24341 1.00058 0
M  V30 5420 C 514.517 -1.99315 -0.295932 0
M  V30 5421 O 513.573 -2.3123 -1.01435 0
M  V30 5422 C 514.886 -2.03909 2.21001 0
M  V30 5423 C 516.434 -2.17034 2.25534 0
M  V30 5424 C 516.909 -2.99994 3.46075 0
M  V30 5425 N 518.4 -3.07578 3.46338 0
M  V30 5426 C 519.135 -3.72104 4.36264 0
M  V30 5427 N 518.631 -4.3842 5.36432 0
M  V30 5428 N 520.424 -3.69029 4.23998 0
M  V30 5429 H 512.575 -0.47428 2.07037 0
M  V30 5430 H 514.838 -0.272167 0.908091 0
M  V30 5431 H 514.544 -1.56198 3.15111 0
M  V30 5432 H 514.418 -3.04654 2.22409 0
M  V30 5433 H 516.805 -2.63951 1.31961 0
M  V30 5434 H 516.886 -1.15664 2.28156 0
M  V30 5435 H 516.53 -2.53772 4.39957 0
M  V30 5436 H 516.46 -4.01541 3.40694 0
M  V30 5437 H 518.951 -2.60397 2.73865 0
M  V30 5438 H 519.264 -4.85447 6.013 0
M  V30 5439 H 517.609 -4.37116 5.40328 0
M  V30 5440 H 520.8 -3.16392 3.44984 0
M  V30 5441 H 520.973 -4.19034 4.94282 0
M  V30 5442 N 514.379 -1.04941 -1.1758 0
M  V30 5443 C 515.604 -0.778253 -1.92245 0
M  V30 5444 C 516.029 0.659707 -1.76152 0
M  V30 5445 O 515.387 1.45803 -1.07755 0
M  V30 5446 C 515.435 -1.16051 -3.41416 0
M  V30 5447 O 514.539 -0.291153 -4.11371 0
M  V30 5448 H 513.88 -0.285619 -0.599431 0
M  V30 5449 H 516.41 -1.40159 -1.49052 0
M  V30 5450 H 516.42 -1.12619 -3.92149 0
M  V30 5451 H 515.095 -2.208 -3.52449 0
M  V30 5452 H 513.672 -0.385851 -3.70898 0
M  V30 5453 N 515.857 1.33968 -0.830081 0
M  V30 5454 C 517.268 1.80439 -0.479455 0
M  V30 5455 C 517.619 1.68756 1.00079 0
M  V30 5456 O 516.744 1.23171 1.77927 0
M  V30 5457 C 517.339 3.27611 -0.863505 0
M  V30 5458 C 515.898 3.72133 -0.565145 0
M  V30 5459 C 515.045 2.55549 -1.07657 0
M  V30 5460 H 517.996 1.21614 -1.0196 0
M  V30 5461 H 518.017 3.8012 -0.170083 0
M  V30 5462 H 517.529 3.36082 -1.94089 0
M  V30 5463 H 515.63 3.69196 0.502536 0
M  V30 5464 H 515.743 4.65963 -1.11422 0
M  V30 5465 H 514.107 2.49788 -0.497807 0
M  V30 5466 H 514.89 2.66786 -2.16055 0
M  V30 5467 N 517.335 0.585699 1.46312 0
M  V30 5468 C 518.751 0.247607 1.57668 0
M  V30 5469 C 518.951 -1.25007 1.58037 0
M  V30 5470 O 518.007 -2.03196 1.49893 0
M  V30 5471 C 519.32 0.899456 2.86933 0
M  V30 5472 C 520.868 0.873326 3.00569 0
M  V30 5473 C 521.343 1.50477 4.32574 0
M  V30 5474 N 522.834 1.46925 4.3928 0
M  V30 5475 C 523.569 1.92719 5.40044 0
M  V30 5476 N 523.065 2.46499 6.47464 0
M  V30 5477 N 524.858 1.83617 5.31264 0
M  V30 5478 H 517.009 1.55841 1.44317 0
M  V30 5479 H 519.272 0.651564 0.688599 0
M  V30 5480 H 518.978 1.95313 2.92482 0
M  V30 5481 H 518.852 0.409476 3.74971 0
M  V30 5482 H 521.239 -0.171736 2.946 0
M  V30 5483 H 521.32 1.40136 2.13999 0
M  V30 5484 H 520.964 2.54905 4.39302 0
M  V30 5485 H 520.894 0.951944 5.17924 0
M  V30 5486 H 523.385 1.07616 3.62253 0
M  V30 5487 H 523.698 2.79291 7.20567 0
M  V30 5488 H 522.043 2.50526 6.48276 0
M  V30 5489 H 525.234 1.41358 4.46246 0
M  V30 5490 H 525.407 2.19622 6.09648 0
M  V30 5491 N 518.813 -1.54241 0.323641 0
M  V30 5492 C 519.776 -2.22997 -0.529602 0
M  V30 5493 C 520.776 -1.22345 -1.04347 0
M  V30 5494 O 521.966 -1.46924 -0.935889 0
M  V30 5495 C 519.098 -2.93409 -1.73562 0
M  V30 5496 H 520.291 -2.99815 0.0714518 0
M  V30 5497 H 517.844 -1.56121 0.0747258 0
M  V30 5498 H 518.579 -2.20729 -2.37591 0
M  V30 5499 H 518.364 -3.67217 -1.37456 0
M  V30 5500 H 519.854 -3.45794 -2.34128 0
M  V30 5501 N 520.291 -0.0518155 -1.57515 0
M  V30 5502 C 521.702 0.483787 -1.80323 0
M  V30 5503 C 522.053 1.70879 -0.964099 0
M  V30 5504 O 521.178 2.15643 -0.180872 0
M  V30 5505 C 521.773 0.884459 -3.27052 0
M  V30 5506 C 520.332 1.36504 -3.50776 0
M  V30 5507 C 519.479 0.340539 -2.75201 0
M  V30 5508 H 522.43 -0.277691 -1.56252 0
M  V30 5509 H 522.451 1.74733 -3.38007 0
M  V30 5510 H 521.963 -0.00731093 -3.88099 0
M  V30 5511 H 520.064 2.27598 -2.95009 0
M  V30 5512 H 520.177 1.35675 -4.59488 0
M  V30 5513 H 518.541 0.81356 -2.41357 0
M  V30 5514 H 519.324 -0.543156 -3.38976 0
M  V30 5515 N 521.769 1.56035 0.221574 0
M  V30 5516 C 522.997 1.8313 0.962864 0
M  V30 5517 C 523.412 0.630934 1.77946 0
M  V30 5518 O 522.769 -0.400519 1.78051 0
M  V30 5519 C 522.82 3.08742 1.88045 0
M  V30 5520 O 522.541 4.24147 1.09686 0
M  V30 5521 C 524.042 3.48824 2.73563 0
M  V30 5522 H 521.262 0.608775 0.282194 0
M  V30 5523 H 523.806 2.03124 0.23681 0
M  V30 5524 H 521.961 2.90723 2.56045 0
M  V30 5525 H 522.375 4.95505 1.71974 0
M  V30 5526 H 523.849 4.39752 3.3365 0
M  V30 5527 H 524.326 2.70575 3.45956 0
M  V30 5528 H 524.932 3.69282 2.10976 0
M  V30 5529 N 523.247 -0.488276 1.49845 0
M  V30 5530 C 524.195 -1.60917 1.67954 0
M  V30 5531 C 525.189 -1.6038 0.54539 0
M  V30 5532 O 526.395 -1.64736 0.7254 0
M  V30 5533 H 522.77 -0.533658 0.529824 0
M  V30 5534 H 524.741 -1.428 2.62013 0
M  V30 5535 C 523.49 -2.98975 1.77509 0
M  V30 5536 H 522.813 -3.00099 2.6416 0
M  V30 5537 H 524.253 -3.76906 1.9421 0
M  V30 5538 C 522.712 -3.3282 0.522745 0
M  V30 5539 O 523.242 -4.00208 -0.345866 0
M  V30 5540 N 521.448 -2.8808 0.381882 0
M  V30 5541 H 520.995 -2.33415 1.08974 0
M  V30 5542 H 520.953 -3.11091 -0.454929 0
M  V30 5543 N 524.725 -1.39134 -0.740242 0
M  V30 5544 C 525.971 -1.37278 -1.50088 0
M  V30 5545 C 526.326 0.0329967 -1.92372 0
M  V30 5546 O 525.619 0.998447 -1.63529 0
M  V30 5547 C 525.813 -2.27457 -2.75678 0
M  V30 5548 C 525.642 -3.76662 -2.45674 0
M  V30 5549 C 524.412 -4.45617 -2.38229 0
M  V30 5550 C 526.61 -4.6877 -2.11563 0
M  V30 5551 N 524.592 -5.80187 -2.00641 0
M  V30 5552 C 525.963 -5.91951 -1.84376 0
M  V30 5553 C 528.018 -4.56843 -1.97987 0
M  V30 5554 C 526.721 -7.04538 -1.4498 0
M  V30 5555 C 528.747 -5.69347 -1.59994 0
M  V30 5556 C 528.109 -6.91597 -1.33687 0
M  V30 5557 H 524.208 -0.557611 -0.548265 0
M  V30 5558 H 526.792 -1.74638 -0.860784 0
M  V30 5559 H 524.963 -1.92263 -3.37475 0
M  V30 5560 H 526.695 -2.16631 -3.41838 0
M  V30 5561 H 523.45 -3.98993 -2.5515 0
M  V30 5562 H 523.874 -6.51387 -1.84454 0
M  V30 5563 H 528.516 -3.62868 -2.16995 0
M  V30 5564 H 526.234 -7.98419 -1.24712 0
M  V30 5565 H 529.82 -5.62104 -1.50102 0
M  V30 5566 H 528.7 -7.77176 -1.04728 0
M  V30 5567 N 526.204 0.969867 -1.24223 0
M  V30 5568 C 527.62 1.23809 -1.00716 0
M  V30 5569 C 527.82 1.99469 0.285358 0
M  V30 5570 O 526.876 2.31764 1.00207 0
M  V30 5571 C 528.189 2.02734 -2.2208 0
M  V30 5572 C 529.737 2.15834 -2.26681 0
M  V30 5573 C 530.212 2.98154 -3.47661 0
M  V30 5574 N 531.703 3.05737 -3.47964 0
M  V30 5575 C 532.438 3.69785 -4.38231 0
M  V30 5576 N 531.934 4.35569 -5.3875 0
M  V30 5577 N 533.727 3.66775 -4.25949 0
M  V30 5578 H 525.878 0.463294 -2.07286 0
M  V30 5579 H 528.141 0.267348 -0.909521 0
M  V30 5580 H 527.847 1.54524 -3.15935 0
M  V30 5581 H 527.721 3.0347 -2.24021 0
M  V30 5582 H 530.108 2.63248 -1.33359 0
M  V30 5583 H 530.189 1.14453 -2.28767 0
M  V30 5584 H 529.833 2.51435 -4.41297 0
M  V30 5585 H 529.763 3.99729 -3.42818 0
M  V30 5586 H 532.254 2.58941 -2.75242 0
M  V30 5587 H 532.567 4.82251 -6.03866 0
M  V30 5588 H 530.912 4.34244 -5.42639 0
M  V30 5589 H 534.103 3.14558 -3.46657 0
M  V30 5590 H 534.276 4.16407 -4.96497 0
M  V30 5591 N 527.682 1.05563 1.17022 0
M  V30 5592 C 528.612 0.681026 2.23348 0
M  V30 5593 C 529.593 -0.322983 1.67005 0
M  V30 5594 O 530.778 -0.199746 1.9317 0
M  V30 5595 C 527.908 0.0589053 3.4725 0
M  V30 5596 C 526.862 0.988082 4.16438 0
M  V30 5597 C 526.188 0.229646 5.34207 0
M  V30 5598 C 527.488 2.31388 4.68249 0
M  V30 5599 H 529.182 1.56993 2.54938 0
M  V30 5600 H 526.728 0.756302 1.2254 0
M  V30 5601 H 528.681 -0.214982 4.20851 0
M  V30 5602 H 527.405 -0.864968 3.14938 0
M  V30 5603 H 526.064 1.24659 3.44754 0
M  V30 5604 H 525.712 -0.697111 4.98146 0
M  V30 5605 H 525.412 0.848815 5.81437 0
M  V30 5606 H 526.936 -0.0368694 6.10589 0
M  V30 5607 H 528.35 2.09964 5.33468 0
M  V30 5608 H 526.747 2.88736 5.26072 0
M  V30 5609 H 527.817 2.94982 3.84855 0
M  V30 5610 N 529.16 -1.33526 0.837174 0
M  V30 5611 C 530.408 -1.97446 0.431211 0
M  V30 5612 C 530.729 -1.6665 -1.01255 0
M  V30 5613 O 529.999 -0.964559 -1.70508 0
M  V30 5614 H 528.579 -0.73043 0.156463 0
M  V30 5615 H 531.241 -1.62918 1.06976 0
M  V30 5616 H 530.337 -3.07001 0.561877 0
M  V30 5617 N 530.638 -0.59345 -1.46 0
M  V30 5618 C 531.585 0.133618 -2.30413 0
M  V30 5619 C 532.555 0.873736 -1.41262 0
M  V30 5620 O 533.74 0.862279 -1.70204 0
M  V30 5621 C 530.88 1.13434 -3.25924 0
M  V30 5622 C 529.993 0.39656 -4.30176 0
M  V30 5623 C 529.128 1.38575 -5.12806 0
M  V30 5624 C 528.167 0.634984 -6.08797 0
M  V30 5625 N 527.304 1.57276 -6.84258 0
M  V30 5626 H 532.144 -0.592252 -2.92055 0
M  V30 5627 H 529.681 -0.303874 -1.43927 0
M  V30 5628 H 531.639 1.72752 -3.79753 0
M  V30 5629 H 530.269 1.82779 -2.66067 0
M  V30 5630 H 529.321 -0.311861 -3.79119 0
M  V30 5631 H 530.633 -0.189869 -4.98438 0
M  V30 5632 H 529.787 2.05141 -5.70966 0
M  V30 5633 H 528.526 2.00611 -4.44529 0
M  V30 5634 H 527.531 -0.0443925 -5.49782 0
M  V30 5635 H 528.756 0.0198678 -6.79097 0
M  V30 5636 H 526.702 2.18103 -6.18682 0
M  V30 5637 H 526.619 1.03941 -7.48821 0
M  V30 5638 H 527.887 2.22844 -7.46968 0
M  V30 5639 N 532.116 1.54067 -0.331816 0
M  V30 5640 C 533.046 2.27569 0.522932 0
M  V30 5641 C 534.027 1.28679 1.11247 0
M  V30 5642 O 535.212 1.57504 1.13605 0
M  V30 5643 C 532.342 3.0397 1.67987 0
M  V30 5644 C 531.296 4.10267 1.21924 0
M  V30 5645 C 530.622 4.74555 2.46377 0
M  V30 5646 C 531.922 5.21268 0.32815 0
M  V30 5647 H 533.616 2.99264 -0.0901977 0
M  V30 5648 H 531.162 1.4393 -0.044821 0
M  V30 5649 H 533.115 3.54123 2.28418 0
M  V30 5650 H 531.839 2.29906 2.31971 0
M  V30 5651 H 530.498 3.61009 0.637809 0
M  V30 5652 H 530.146 3.97098 3.08743 0
M  V30 5653 H 529.846 5.46363 2.16243 0
M  V30 5654 H 531.37 5.27487 3.07555 0
M  V30 5655 H 532.784 5.67128 0.838978 0
M  V30 5656 H 531.181 5.99982 0.119228 0
M  V30 5657 H 532.251 4.80673 -0.638839 0
M  V30 5658 N 533.594 0.0601682 1.57485 0
M  V30 5659 C 534.524 -0.90889 2.15085 0
M  V30 5660 C 535.505 -1.31838 1.07484 0
M  V30 5661 O 536.69 -1.3915 1.35466 0
M  V30 5662 C 533.82 -2.18059 2.7031 0
M  V30 5663 C 532.774 -1.91088 3.82974 0
M  V30 5664 C 532.1 -3.24789 4.24754 0
M  V30 5665 C 533.4 -1.22535 5.07723 0
M  V30 5666 H 535.094 -0.429093 2.96309 0
M  V30 5667 H 532.64 -0.204952 1.42534 0
M  V30 5668 H 534.593 -2.86258 3.09248 0
M  V30 5669 H 533.317 -2.6826 1.8629 0
M  V30 5670 H 531.976 -1.25297 3.44523 0
M  V30 5671 H 531.624 -3.72809 3.37672 0
M  V30 5672 H 531.324 -3.07538 5.00694 0
M  V30 5673 H 532.848 -3.94205 4.66299 0
M  V30 5674 H 534.262 -1.80783 5.4405 0
M  V30 5675 H 532.659 -1.1558 5.88864 0
M  V30 5676 H 533.729 -0.202692 4.84476 0
M  V30 5677 N 535.072 -1.5615 -0.213296 0
M  V30 5678 C 536.32 -1.79191 -0.934612 0
M  V30 5679 C 536.641 -0.630112 -1.84539 0
M  V30 5680 O 535.911 0.35257 -1.92701 0
M  V30 5681 H 534.491 -0.660937 -0.348097 0
M  V30 5682 H 537.153 -1.93618 -0.22317 0
M  V30 5683 H 536.249 -2.71656 -1.53654 0
M  V30 5684 N 536.55 0.480323 -1.50102 0
M  V30 5685 C 537.482 1.59669 -1.64433 0
M  V30 5686 C 538.495 1.54063 -0.52615 0
M  V30 5687 O 539.684 1.59619 -0.798992 0
M  V30 5688 C 536.784 2.98527 -1.6042 0
M  V30 5689 C 535.957 3.291 -2.88117 0
M  V30 5690 C 535.016 4.47468 -2.76873 0
M  V30 5691 O 534.042 4.4823 -3.50825 0
M  V30 5692 N 535.244 5.48593 -1.89806 0
M  V30 5693 H 538.009 1.47795 -2.60723 0
M  V30 5694 H 535.57 0.66858 -1.4745 0
M  V30 5695 H 537.562 3.75666 -1.50523 0
M  V30 5696 H 536.132 3.04218 -0.719036 0
M  V30 5697 H 535.352 2.40662 -3.12211 0
M  V30 5698 H 536.64 3.46334 -3.72734 0
M  V30 5699 H 536.038 5.50791 -1.2902 0
M  V30 5700 H 534.595 6.24752 -1.85819 0
M  V30 5701 N 538.028 1.39524 0.732853 0
M  V30 5702 C 539.276 1.36594 1.48951 0
M  V30 5703 C 539.597 -0.0367507 1.94965 0
M  V30 5704 O 538.867 -0.988391 1.69138 0
M  V30 5705 H 537.447 0.502673 0.552566 0
M  V30 5706 H 540.109 1.74411 0.869869 0
M  V30 5707 H 539.205 2.03 2.3706 0
M  V30 5708 N 539.506 -0.963266 1.24736 0
M  V30 5709 C 540.469 -2.04013 1.04457 0
M  V30 5710 C 541.469 -1.608 0.000335555 0
M  V30 5711 O 542.659 -1.72515 0.241719 0
M  V30 5712 C 539.791 -3.35858 0.584162 0
M  V30 5713 H 540.984 -2.23436 2.00041 0
M  V30 5714 H 538.537 -1.13914 1.07021 0
M  V30 5715 H 539.272 -3.22128 -0.374673 0
M  V30 5716 H 539.057 -3.68568 1.3379 0
M  V30 5717 H 540.547 -4.1502 0.463451 0
M  V30 5718 N 540.985 -1.06182 -1.16461 0
M  V30 5719 C 542.232 -0.777863 -1.86964 0
M  V30 5720 C 542.56 0.695602 -1.81636 0
M  V30 5721 O 541.815 1.52532 -1.22607 0
M  V30 5722 C 542.114 -1.21633 -3.36066 0
M  V30 5723 C 541.78 -2.69371 -3.61594 0
M  V30 5724 C 540.442 -3.09727 -3.6827 0
M  V30 5725 C 542.794 -3.64791 -3.7226 0
M  V30 5726 C 540.122 -4.44345 -3.83112 0
M  V30 5727 C 542.474 -4.99155 -3.88623 0
M  V30 5728 C 541.138 -5.39149 -3.93541 0
M  V30 5729 H 540.408 -0.28464 -0.68415 0
M  V30 5730 H 543.055 -1.33071 -1.37711 0
M  V30 5731 H 541.36 -0.582651 -3.87443 0
M  V30 5732 H 543.057 -0.973682 -3.88999 0
M  V30 5733 H 539.647 -2.37124 -3.57029 0
M  V30 5734 H 543.831 -3.34746 -3.66413 0
M  V30 5735 H 539.087 -4.74819 -3.85172 0
M  V30 5736 H 543.261 -5.72976 -3.95817 0
M  V30 5737 H 540.888 -6.43464 -4.04794 0
M  V30 5738 N 542.463 1.3308 -0.844243 0
M  V30 5739 C 543.711 1.97215 -0.441676 0
M  V30 5740 C 544.032 1.67185 1.0037 0
M  V30 5741 O 543.302 0.973588 1.69994 0
M  V30 5742 H 541.882 0.72959 -0.160335 0
M  V30 5743 H 544.544 1.62348 -1.07838 0
M  V30 5744 H 543.64 3.06698 -0.57815 0
M  V30 5745 N 543.941 0.601185 1.45683 0
M  V30 5746 C 545.357 0.264315 1.57396 0
M  V30 5747 C 545.557 -1.23324 1.59353 0
M  V30 5748 O 544.613 -2.01594 1.52039 0
M  V30 5749 C 545.926 0.929839 2.85962 0
M  V30 5750 C 547.474 0.905156 2.99626 0
M  V30 5751 C 547.949 1.55057 4.30954 0
M  V30 5752 N 549.44 1.51576 4.37697 0
M  V30 5753 C 550.175 1.98436 5.37969 0
M  V30 5754 N 549.671 2.53352 6.44813 0
M  V30 5755 N 551.464 1.89242 5.29286 0
M  V30 5756 H 543.615 1.57363 1.42656 0
M  V30 5757 H 545.878 0.658831 0.681649 0
M  V30 5758 H 545.584 1.98404 2.90394 0
M  V30 5759 H 545.458 0.449224 3.74515 0
M  V30 5760 H 547.845 -0.14048 2.94765 0
M  V30 5761 H 547.926 1.42397 2.12501 0
M  V30 5762 H 547.57 2.5955 4.36573 0
M  V30 5763 H 547.5 1.00682 5.16886 0
M  V30 5764 H 549.991 1.11452 3.61091 0
M  V30 5765 H 550.304 2.86918 7.17564 0
M  V30 5766 H 548.649 2.57388 6.45582 0
M  V30 5767 H 551.84 1.46083 4.44722 0
M  V30 5768 H 552.013 2.26075 6.07284 0
M  V30 5769 N 545.419 -1.53889 0.339982 0
M  V30 5770 C 546.665 -2.01152 -0.258003 0
M  V30 5771 C 546.998 -1.22749 -1.50487 0
M  V30 5772 O 546.273 -0.314156 -1.91946 0
M  V30 5773 C 546.556 -3.55468 -0.575717 0
M  V30 5774 C 546.409 -4.44584 0.682996 0
M  V30 5775 C 547.728 -4.1768 -1.38677 0
M  V30 5776 H 544.847 -0.731198 -0.0922992 0
M  V30 5777 H 547.489 -1.84352 0.459814 0
M  V30 5778 H 545.639 -3.69914 -1.18725 0
M  V30 5779 H 547.311 -4.41981 1.32102 0
M  V30 5780 H 545.554 -4.13592 1.3086 0
M  V30 5781 H 546.225 -5.5043 0.416001 0
M  V30 5782 H 548.701 -4.0691 -0.869705 0
M  V30 5783 H 547.577 -5.25734 -1.57783 0
M  V30 5784 H 547.838 -3.72069 -2.38782 0
M  V30 5785 N 546.897 -0.0685191 -1.57451 0
M  V30 5786 C 548.127 0.609577 -1.97402 0
M  V30 5787 C 548.535 1.63882 -0.945489 0
M  V30 5788 O 547.878 1.8354 0.0766052 0
M  V30 5789 C 547.94 1.3385 -3.33653 0
M  V30 5790 C 547.604 0.463103 -4.54648 0
M  V30 5791 C 548.601 -0.277964 -5.19156 0
M  V30 5792 C 546.286 0.388941 -5.00792 0
M  V30 5793 C 548.28 -1.08145 -6.28159 0
M  V30 5794 C 545.967 -0.418217 -6.09667 0
M  V30 5795 C 546.965 -1.15208 -6.73213 0
M  V30 5796 O 546.653 -1.94594 -7.79993 0
M  V30 5797 H 546.385 0.170197 -0.654224 0
M  V30 5798 H 548.939 -0.13647 -2.04946 0
M  V30 5799 H 547.169 2.13055 -3.22714 0
M  V30 5800 H 548.858 1.90851 -3.58233 0
M  V30 5801 H 549.624 -0.230241 -4.84453 0
M  V30 5802 H 545.503 0.949769 -4.5111 0
M  V30 5803 H 549.047 -1.65476 -6.7769 0
M  V30 5804 H 544.944 -0.467515 -6.43805 0
M  V30 5805 H 545.712 -1.8699 -7.96854 0
M  V30 5806 N 548.375 1.56261 0.205012 0
M  V30 5807 C 549.305 1.96779 1.257 0
M  V30 5808 C 550.286 0.838309 1.48008 0
M  V30 5809 O 551.471 1.10189 1.59913 0
M  V30 5810 C 548.601 2.29876 2.60335 0
M  V30 5811 C 547.555 3.45469 2.52656 0
M  V30 5812 C 546.881 3.64215 3.91473 0
M  V30 5813 C 548.181 4.79954 2.06014 0
M  V30 5814 H 549.875 2.84904 0.920338 0
M  V30 5815 H 547.421 1.37072 0.441277 0
M  V30 5816 H 549.374 2.56814 3.34102 0
M  V30 5817 H 548.098 1.38622 2.95722 0
M  V30 5818 H 546.757 3.18605 1.81345 0
M  V30 5819 H 546.405 2.70309 4.24196 0
M  V30 5820 H 546.105 4.41973 3.87213 0
M  V30 5821 H 547.629 3.93519 4.66878 0
M  V30 5822 H 549.043 5.05989 2.69533 0
M  V30 5823 H 547.44 5.61111 2.12777 0
M  V30 5824 H 548.51 4.74201 1.01297 0
M  V30 5825 N 549.853 -0.472356 1.50355 0
M  V30 5826 C 551.093 -1.23439 1.62918 0
M  V30 5827 C 551.457 -1.89284 0.321801 0
M  V30 5828 O 552.658 -2.66854 0.322852 0
M  V30 5829 C 550.929 -2.25119 2.7759 0
M  V30 5830 S 552.488 -3.10278 3.10279 0
M  V30 5831 H 549.306 -0.41911 0.574341 0
M  V30 5832 H 551.908 -0.531621 1.88133 0
M  V30 5833 H 550.612 -1.75324 3.71066 0
M  V30 5834 H 550.143 -3.00026 2.54457 0
M  V30 5835 H 552.158 -4.26257 2.54007 0
M  V30 5836 N 551.331 -1.39911 -0.725443 0
M  V30 5837 C 552.561 -1.40744 -1.51244 0
M  V30 5838 C 552.969 -0.00275403 -1.892 0
M  V30 5839 O 552.312 0.981299 -1.55294 0
M  V30 5840 C 552.374 -2.22527 -2.82351 0
M  V30 5841 C 552.038 -3.71053 -2.66774 0
M  V30 5842 C 553.035 -4.63916 -2.34686 0
M  V30 5843 C 550.72 -4.14753 -2.83347 0
M  V30 5844 C 552.714 -5.98463 -2.19366 0
M  V30 5845 C 550.401 -5.49372 -2.67644 0
M  V30 5846 C 551.399 -6.41042 -2.357 0
M  V30 5847 O 551.087 -7.73181 -2.20107 0
M  V30 5848 H 550.819 -0.482314 -0.473655 0
M  V30 5849 H 553.373 -1.84472 -0.903284 0
M  V30 5850 H 551.603 -1.73563 -3.45562 0
M  V30 5851 H 553.292 -2.15421 -3.44018 0
M  V30 5852 H 554.058 -4.31453 -2.21525 0
M  V30 5853 H 549.937 -3.43728 -3.072 0
M  V30 5854 H 553.481 -6.69979 -1.94354 0
M  V30 5855 H 549.378 -5.81424 -2.80387 0
M  V30 5856 H 550.146 -7.84008 -2.35103 0
M  V30 5857 N 552.809 0.956637 -1.25245 0
M  V30 5858 C 554.086 1.67716 -1.00651 0
M  V30 5859 C 554.466 2.0585 0.467866 0
M  V30 5860 O 553.814 1.77029 1.44475 0
M  V30 5861 C 554.024 2.90093 -1.94028 0
M  V30 5862 C 555.372 3.6209 -2.21756 0
M  V30 5863 O 556.396 3.00171 -1.9177 0
M  V30 5864 O 555.255 4.7358 -2.72735 0
M  V30 5865 H 552.349 0.733731 -0.381533 0
M  V30 5866 H 554.895 1.00974 -1.3639 0
M  V30 5867 H 553.667 2.58689 -2.93591 0
M  V30 5868 H 553.29 3.64566 -1.58674 0
M  V30 5869 N 554.287 1.06798 1.15896 0
M  V30 5870 C 555.533 0.788934 1.86825 0
M  V30 5871 C 555.866 -0.683084 1.8179 0
M  V30 5872 O 555.141 -1.50086 1.23711 0
M  V30 5873 C 555.424 1.29065 3.36176 0
M  V30 5874 C 555.277 2.8268 3.49874 0
M  V30 5875 C 556.596 0.902655 4.30744 0
M  V30 5876 H 553.715 0.288066 0.678371 0
M  V30 5877 H 556.357 1.32479 1.36195 0
M  V30 5878 H 554.507 0.834806 3.79425 0
M  V30 5879 H 556.179 3.36511 3.15528 0
M  V30 5880 H 554.422 3.21157 2.91617 0
M  V30 5881 H 555.093 3.12852 4.54783 0
M  V30 5882 H 557.569 1.29535 3.95424 0
M  V30 5883 H 556.445 1.28111 5.3374 0
M  V30 5884 H 556.706 -0.191951 4.41683 0
M  V30 5885 N 555.766 -1.3263 0.851289 0
M  V30 5886 C 557.043 -1.91982 0.374448 0
M  V30 5887 C 557.423 -1.77568 -1.14161 0
M  V30 5888 O 556.771 -1.1717 -1.96172 0
M  V30 5889 C 556.981 -3.38862 0.835088 0
M  V30 5890 C 558.329 -4.15999 0.850309 0
M  V30 5891 O 559.353 -3.47566 0.779505 0
M  V30 5892 O 558.212 -5.38189 0.949481 0
M  V30 5893 H 555.306 -0.819846 0.10854 0
M  V30 5894 H 557.852 -1.41422 0.937966 0
M  V30 5895 H 556.624 -3.43281 1.87814 0
M  V30 5896 H 556.247 -3.96821 0.248833 0
M  V30 5897 N 557.244 -0.608902 -1.45362 0
M  V30 5898 C 558.472 -0.111013 -2.06602 0
M  V30 5899 C 558.887 1.20516 -1.45332 0
M  V30 5900 O 558.244 1.73437 -0.567978 0
M  V30 5901 C 558.295 0.033688 -3.61484 0
M  V30 5902 O 558.016 -1.23041 -4.20467 0
M  V30 5903 C 559.517 0.562882 -4.39712 0
M  V30 5904 H 556.737 -0.0694453 -0.667397 0
M  V30 5905 H 559.281 -0.837008 -1.86586 0
M  V30 5906 H 557.436 0.710016 -3.80838 0
M  V30 5907 H 557.85 -1.06094 -5.13658 0
M  V30 5908 H 559.324 0.613213 -5.48583 0
M  V30 5909 H 559.801 1.58543 -4.09586 0
M  V30 5910 H 560.407 -0.0794454 -4.25226 0
M  V30 5911 N 558.722 1.53707 -0.348139 0
M  V30 5912 C 559.97 2.00591 0.246478 0
M  V30 5913 C 560.291 1.23753 1.50699 0
M  V30 5914 O 559.561 0.345964 1.92821 0
M  V30 5915 H 558.141 0.741053 0.0940679 0
M  V30 5916 H 560.803 1.89139 -0.470354 0
M  V30 5917 H 559.899 3.08297 0.485714 0
M  V30 5918 N 560.2 0.0768682 1.57412 0
M  V30 5919 C 561.616 -0.279772 1.57129 0
M  V30 5920 C 561.816 -1.69688 1.08666 0
M  V30 5921 O 560.872 -2.40953 0.754843 0
M  V30 5922 C 562.185 -0.0848055 3.0058 0
M  V30 5923 C 563.733 -0.153954 3.12621 0
M  V30 5924 C 564.208 0.0127946 4.57998 0
M  V30 5925 N 565.699 -0.0426435 4.6318 0
M  V30 5926 C 566.434 0.0618892 5.73367 0
M  V30 5927 N 565.93 0.220229 6.9245 0
M  V30 5928 N 567.723 0.00446072 5.621 0
M  V30 5929 H 559.874 1.00297 1.87228 0
M  V30 5930 H 562.137 0.391565 0.863354 0
M  V30 5931 H 561.843 0.89325 3.40168 0
M  V30 5932 H 561.717 -0.834961 3.67843 0
M  V30 5933 H 564.104 -1.1225 2.72917 0
M  V30 5934 H 564.185 0.627389 2.47987 0
M  V30 5935 H 563.829 0.978128 4.98392 0
M  V30 5936 H 563.759 -0.788016 5.20671 0
M  V30 5937 H 566.25 -0.163226 3.77547 0
M  V30 5938 H 566.563 0.291999 7.72248 0
M  V30 5939 H 564.908 0.255658 6.9453 0
M  V30 5940 H 568.099 -0.117979 4.67951 0
M  V30 5941 H 568.272 0.0893796 6.47938 0
M  V30 5942 N 561.678 -1.56367 -0.196722 0
M  V30 5943 C 562.588 -1.97617 -1.2643 0
M  V30 5944 C 563.604 -0.883598 -1.49895 0
M  V30 5945 O 564.78 -1.18921 -1.62541 0
M  V30 5946 C 561.845 -2.30595 -2.58895 0
M  V30 5947 C 560.906 -3.53551 -2.43516 0
M  V30 5948 C 560.139 -3.84946 -3.69665 0
M  V30 5949 O 560.362 -3.17655 -4.73763 0
M  V30 5950 O 559.296 -4.78379 -3.65291 0
M  V30 5951 H 563.122 -2.88648 -0.944233 0
M  V30 5952 H 560.707 -1.43901 -0.401592 0
M  V30 5953 H 562.589 -2.52889 -3.37083 0
M  V30 5954 H 561.264 -1.42732 -2.90533 0
M  V30 5955 H 560.171 -3.36507 -1.63445 0
M  V30 5956 H 561.504 -4.41875 -2.16812 0
M  V30 5957 N 563.156 0.464375 -1.50603 0
M  V30 5958 C 564.086 1.56944 -1.72889 0
M  V30 5959 C 565.067 1.59979 -0.577997 0
M  V30 5960 O 566.252 1.76138 -0.817855 0
M  V30 5961 C 563.382 2.95225 -1.8292 0
M  V30 5962 C 562.336 3.07056 -2.98162 0
M  V30 5963 C 561.662 4.47051 -2.93343 0
M  V30 5964 C 562.962 2.83648 -4.38567 0
M  V30 5965 H 564.656 1.38547 -2.65415 0
M  V30 5966 H 562.202 0.665082 -1.27721 0
M  V30 5967 H 564.155 3.72467 -1.97095 0
M  V30 5968 H 562.879 3.14793 -0.870209 0
M  V30 5969 H 561.538 2.32248 -2.83648 0
M  V30 5970 H 561.186 4.63547 -1.95276 0
M  V30 5971 H 560.886 4.55902 -3.70712 0
M  V30 5972 H 562.41 5.26304 -3.09575 0
M  V30 5973 H 563.824 3.50636 -4.53572 0
M  V30 5974 H 562.221 3.03937 -5.17438 0
M  V30 5975 H 563.291 1.79451 -4.50472 0
M  V30 5976 N 564.634 1.40294 0.718013 0
M  V30 5977 C 565.597 1.4012 1.81381 0
M  V30 5978 C 566.597 0.295405 1.58063 0
M  V30 5979 O 567.787 0.554187 1.6515 0
M  V30 5980 C 564.919 1.19056 3.19435 0
M  V30 5981 H 566.112 2.37645 1.82933 0
M  V30 5982 H 563.665 1.26107 0.923405 0
M  V30 5983 H 564.4 0.222809 3.23534 0
M  V30 5984 H 564.185 1.99152 3.37758 0
M  V30 5985 H 565.675 1.21716 3.99468 0
M  V30 5986 N 566.112 -0.949982 1.2575 0
M  V30 5987 C 567.358 -1.69766 1.10938 0
M  V30 5988 C 567.691 -1.91056 -0.348028 0
M  V30 5989 O 566.966 -1.48488 -1.25625 0
M  V30 5990 C 567.249 -3.07779 1.86933 0
M  V30 5991 C 567.102 -2.9387 3.4053 0
M  V30 5992 C 568.421 -4.07749 1.65616 0
M  V30 5993 H 565.54 -0.616144 0.404396 0
M  V30 5994 H 568.182 -1.10394 1.54639 0
M  V30 5995 H 566.332 -3.58462 1.4979 0
M  V30 5996 H 568.004 -2.50476 3.87375 0
M  V30 5997 H 566.247 -2.29686 3.68004 0
M  V30 5998 H 566.918 -3.91719 3.88922 0
M  V30 5999 H 569.394 -3.65994 1.97959 0
M  V30 6000 H 568.27 -5.02348 2.21218 0
M  V30 6001 H 568.531 -4.38029 0.598595 0
M  V30 6002 N 567.59 -1.07411 -1.15328 0
M  V30 6003 C 568.537 -0.694995 -2.20087 0
M  V30 6004 C 569.507 0.313904 -1.63107 0
M  V30 6005 O 570.692 0.200216 -1.89747 0
M  V30 6006 C 567.832 -0.0996218 -3.44956 0
M  V30 6007 C 566.945 -1.16007 -4.16133 0
M  V30 6008 C 566.08 -0.529636 -5.28553 0
M  V30 6009 C 565.119 -1.57283 -5.91548 0
M  V30 6010 N 564.256 -0.964932 -6.95438 0
M  V30 6011 H 569.096 -1.5927 -2.51867 0
M  V30 6012 H 566.633 -0.796115 -1.23695 0
M  V30 6013 H 568.591 0.263197 -4.16369 0
M  V30 6014 H 567.221 0.761435 -3.13691 0
M  V30 6015 H 566.273 -1.64045 -3.4321 0
M  V30 6016 H 567.585 -1.95101 -4.59061 0
M  V30 6017 H 566.739 -0.114487 -6.06592 0
M  V30 6018 H 565.478 0.29307 -4.86819 0
M  V30 6019 H 564.483 -1.99775 -5.12221 0
M  V30 6020 H 565.708 -2.39783 -6.35359 0
M  V30 6021 H 563.654 -0.16314 -6.55797 0
M  V30 6022 H 563.571 -1.69311 -7.36797 0
M  V30 6023 H 564.839 -0.575305 -7.77374 0
M  V30 6024 N 569.068 1.32177 -0.85831 0
M  V30 6025 C 570 2.27688 -0.262835 0
M  V30 6026 C 571.013 1.52588 0.567513 0
M  V30 6027 O 572.202 1.74156 0.391407 0
M  V30 6028 C 569.302 3.32668 0.646937 0
M  V30 6029 C 568.475 4.37148 -0.148372 0
M  V30 6030 C 567.534 5.21686 0.687728 0
M  V30 6031 O 566.56 5.69074 0.119934 0
M  V30 6032 N 567.762 5.44892 2.00182 0
M  V30 6033 H 570.527 2.79426 -1.08356 0
M  V30 6034 H 568.088 1.45076 -0.718647 0
M  V30 6035 H 570.08 3.86134 1.2117 0
M  V30 6036 H 568.65 2.81061 1.36834 0
M  V30 6037 H 567.87 3.83915 -0.894572 0
M  V30 6038 H 569.158 5.04038 -0.694514 0
M  V30 6039 H 568.556 5.08128 2.4864 0
M  V30 6040 H 567.113 6.0134 2.51463 0
M  V30 6041 N 570.547 0.616602 1.45037 0
M  V30 6042 C 571.793 0.115501 2.02471 0
M  V30 6043 C 572.126 -1.25406 1.4828 0
M  V30 6044 O 571.401 -1.82922 0.661051 0
M  V30 6045 C 571.684 0.0863588 3.59996 0
M  V30 6046 C 571.537 1.48723 4.24501 0
M  V30 6047 C 572.856 -0.596762 4.36035 0
M  V30 6048 H 569.975 0.0434461 0.735718 0
M  V30 6049 H 572.617 0.7903 1.72784 0
M  V30 6050 H 570.767 -0.488277 3.85419 0
M  V30 6051 H 572.439 2.10964 4.10234 0
M  V30 6052 H 570.682 2.04534 3.82555 0
M  V30 6053 H 571.353 1.419 5.3345 0
M  V30 6054 H 573.829 -0.10824 4.15959 0
M  V30 6055 H 572.705 -0.586289 5.4576 0
M  V30 6056 H 572.966 -1.66451 4.09569 0
M  V30 6057 N 572.025 -1.5352 0.356285 0
M  V30 6058 C 572.957 -2.23009 -0.529127 0
M  V30 6059 C 573.97 -1.241 -1.05371 0
M  V30 6060 O 575.159 -1.50379 -0.961679 0
M  V30 6061 C 572.259 -2.90685 -1.74229 0
M  V30 6062 C 571.432 -4.16019 -1.35081 0
M  V30 6063 C 570.491 -4.66989 -2.42502 0
M  V30 6064 O 569.517 -5.30895 -2.05279 0
M  V30 6065 N 570.719 -4.44006 -3.7395 0
M  V30 6066 H 573.484 -2.99627 0.0660501 0
M  V30 6067 H 571.045 -1.60885 0.181014 0
M  V30 6068 H 573.037 -3.21695 -2.4555 0
M  V30 6069 H 571.607 -2.17575 -2.24454 0
M  V30 6070 H 570.827 -3.91414 -0.467833 0
M  V30 6071 H 572.115 -4.9752 -1.06542 0
M  V30 6072 H 571.513 -3.92924 -4.06973 0
M  V30 6073 H 570.07 -4.7959 -4.41403 0
M  V30 6074 N 573.503 -0.0852151 -1.57369 0
M  V30 6075 C 574.75 0.580806 -1.93992 0
M  V30 6076 C 575.078 1.68801 -0.966252 0
M  V30 6077 O 574.333 1.95694 0.0158649 0
M  V30 6078 C 574.632 1.18482 -3.3719 0
M  V30 6079 C 574.298 0.2024 -4.50446 0
M  V30 6080 C 572.96 -0.0678318 -4.81152 0
M  V30 6081 C 575.312 -0.46895 -5.19086 0
M  V30 6082 C 572.64 -1.01627 -5.77831 0
M  V30 6083 C 574.992 -1.4058 -6.16782 0
M  V30 6084 C 573.656 -1.68436 -6.45899 0
M  V30 6085 H 572.926 0.212532 -0.709867 0
M  V30 6086 H 575.573 -0.158947 -1.90839 0
M  V30 6087 H 573.878 2.0006 -3.36873 0
M  V30 6088 H 575.575 1.70767 -3.62822 0
M  V30 6089 H 572.165 0.423208 -4.26505 0
M  V30 6090 H 576.349 -0.273307 -4.95547 0
M  V30 6091 H 571.605 -1.2392 -5.9871 0
M  V30 6092 H 575.779 -1.93188 -6.69068 0
M  V30 6093 H 573.406 -2.42088 -7.20623 0
M  V30 6094 N 574.981 1.5647 0.188427 0
M  V30 6095 C 576.258 1.71857 0.934058 0
M  V30 6096 C 576.638 0.641867 2.01105 0
M  V30 6097 O 575.986 -0.346098 2.25864 0
M  V30 6098 C 576.196 3.14431 1.5144 0
M  V30 6099 C 577.544 3.74869 1.99396 0
M  V30 6100 O 578.568 3.17601 1.61269 0
M  V30 6101 O 577.427 4.75387 2.69573 0
M  V30 6102 H 574.521 0.701186 0.438483 0
M  V30 6103 H 577.067 1.68768 0.177599 0
M  V30 6104 H 575.839 3.8427 0.738416 0
M  V30 6105 H 575.462 3.21775 2.33552 0
M  V30 6106 N 576.459 -0.456382 1.50847 0
M  V30 6107 C 577.87 -1.03685 1.55262 0
M  V30 6108 C 578.221 -1.92779 0.364771 0
M  V30 6109 O 577.346 -2.10043 -0.52068 0
M  V30 6110 C 577.941 -1.88718 2.81374 0
M  V30 6111 C 576.5 -2.41847 2.88422 0
M  V30 6112 C 575.647 -1.20564 2.49719 0
M  V30 6113 H 578.598 -0.238399 1.56899 0
M  V30 6114 H 578.619 -2.73957 2.6406 0
M  V30 6115 H 578.131 -1.23847 3.67809 0
M  V30 6116 H 576.232 -3.10228 2.06372 0
M  V30 6117 H 576.345 -2.75947 3.9165 0
M  V30 6118 H 574.709 -1.54504 2.02486 0
M  V30 6119 H 575.492 -0.573326 3.38479 0
M  V30 6120 N 577.937 -1.40673 -0.710563 0
M  V30 6121 C 579.214 -1.29718 -1.46398 0
M  V30 6122 C 579.594 0.082177 -2.1094 0
M  V30 6123 O 578.942 1.09536 -2.00534 0
M  V30 6124 C 579.152 -2.43967 -2.49562 0
M  V30 6125 C 580.5 -2.84436 -3.15248 0
M  V30 6126 O 581.524 -2.43597 -2.59883 0
M  V30 6127 O 580.383 -3.55008 -4.1549 0
M  V30 6128 H 577.477 -0.509697 -0.651258 0
M  V30 6129 H 580.023 -1.52603 -0.742312 0
M  V30 6130 H 578.795 -3.36076 -2.0042 0
M  V30 6131 H 578.418 -2.22879 -3.29258 0
M  V30 6132 N 579.415 0.9433 -1.26252 0
M  V30 6133 C 580.64 1.72898 -1.14547 0
M  V30 6134 C 581.065 1.85761 0.295743 0
M  V30 6135 O 580.423 1.3463 1.21427 0
M  V30 6136 C 580.471 3.11471 -1.8171 0
M  V30 6137 O 579.575 3.97336 -1.10445 0
M  V30 6138 H 578.916 0.530555 -0.399259 0
M  V30 6139 H 581.446 1.18159 -1.67032 0
M  V30 6140 H 581.456 3.61872 -1.88449 0
M  V30 6141 H 580.131 3.01425 -2.86558 0
M  V30 6142 H 578.708 3.55788 -1.11666 0
M  V30 6143 N 580.893 1.08022 1.14757 0
M  V30 6144 C 582.304 0.829144 1.67279 0
M  V30 6145 C 582.655 -0.644721 1.85305 0
M  V30 6146 O 581.78 -1.49838 1.56133 0
M  V30 6147 C 582.375 1.49855 3.03857 0
M  V30 6148 C 580.934 1.29482 3.53428 0
M  V30 6149 C 580.081 1.56386 2.28995 0
M  V30 6150 H 583.032 1.24134 0.988762 0
M  V30 6151 H 583.053 0.923572 3.69121 0
M  V30 6152 H 582.565 2.57123 2.90705 0
M  V30 6153 H 580.666 0.242669 3.71809 0
M  V30 6154 H 580.779 2.01974 4.34446 0
M  V30 6155 H 579.143 0.985217 2.34874 0
M  V30 6156 H 579.926 2.64851 2.18423 0
M  V30 6157 N 582.371 -1.3172 0.865308 0
M  V30 6158 C 583.281 -2.32394 0.320935 0
M  V30 6159 C 584.297 -1.64511 -0.566746 0
M  V30 6160 O 585.473 -1.95969 -0.464575 0
M  V30 6161 C 582.538 -3.43462 -0.472701 0
M  V30 6162 C 581.599 -4.27015 0.442385 0
M  V30 6163 C 580.832 -5.32779 -0.313469 0
M  V30 6164 O 581.055 -5.49158 -1.54214 0
M  V30 6165 O 579.989 -6.01015 0.326257 0
M  V30 6166 H 583.815 -2.80868 1.15528 0
M  V30 6167 H 581.4 -1.35535 0.628545 0
M  V30 6168 H 583.282 -4.11172 -0.922781 0
M  V30 6169 H 581.957 -2.97159 -1.28367 0
M  V30 6170 H 580.864 -3.62075 0.940866 0
M  V30 6171 H 582.197 -4.76871 1.21882 0
M  V30 6172 N 583.85 -0.624285 -1.44708 0
M  V30 6173 C 585.077 -0.132919 -2.06473 0
M  V30 6174 C 585.493 1.18967 -1.46602 0
M  V30 6175 O 584.85 1.72824 -0.586341 0
M  V30 6176 C 584.901 -0.00465418 -3.615 0
M  V30 6177 O 584.622 -1.27494 -4.19138 0
M  V30 6178 C 586.123 0.516213 -4.40284 0
M  V30 6179 H 583.343 -0.0765201 -0.666623 0
M  V30 6180 H 585.887 -0.856751 -1.85688 0
M  V30 6181 H 584.042 0.669583 -3.8157 0
M  V30 6182 H 584.456 -1.11536 -5.12504 0
M  V30 6183 H 585.93 0.554994 -5.49203 0
M  V30 6184 H 586.407 1.5419 -4.11245 0
M  V30 6185 H 587.013 -0.124542 -4.25118 0
M  V30 6186 N 585.328 1.53329 -0.364422 0
M  V30 6187 C 586.553 2.06132 0.229033 0
M  V30 6188 C 586.978 1.23625 1.41769 0
M  V30 6189 O 586.336 0.255038 1.79497 0
M  V30 6190 C 586.384 3.55544 0.60174 0
M  V30 6191 O 585.488 3.75771 1.69912 0
M  V30 6192 H 584.829 0.663148 0.0336213 0
M  V30 6193 H 587.359 1.97758 -0.524689 0
M  V30 6194 H 587.369 3.98549 0.873073 0
M  V30 6195 H 586.044 4.15039 -0.267421 0
M  V30 6196 H 584.621 3.44663 1.42343 0
M  V30 6197 N 586.806 0.0935595 1.57322 0
M  V30 6198 C 587.753 -0.865935 2.1394 0
M  V30 6199 C 588.723 -1.28083 1.05754 0
M  V30 6200 O 589.908 -1.36285 1.33533 0
M  V30 6201 C 587.048 -2.12023 2.72287 0
M  V30 6202 C 586.161 -1.756 3.94701 0
M  V30 6203 C 585.296 -2.95804 4.41218 0
M  V30 6204 C 584.335 -2.555 5.56225 0
M  V30 6205 N 583.472 -3.68534 5.97601 0
M  V30 6206 H 588.312 -0.376261 2.95615 0
M  V30 6207 H 585.849 -0.174052 1.46067 0
M  V30 6208 H 587.807 -2.85477 3.04235 0
M  V30 6209 H 586.437 -2.58492 1.93343 0
M  V30 6210 H 585.489 -0.921208 3.69077 0
M  V30 6211 H 586.801 -1.41964 4.78171 0
M  V30 6212 H 585.955 -3.77513 4.74941 0
M  V30 6213 H 584.694 -3.32649 3.56645 0
M  V30 6214 H 583.699 -1.72218 5.22131 0
M  V30 6215 H 584.924 -2.19801 6.42545 0
M  V30 6216 H 582.87 -4.051 5.15974 0
M  V30 6217 H 582.787 -3.38737 6.75865 0
M  V30 6218 H 584.055 -4.50757 6.35955 0
M  V30 6219 N 588.284 -1.56567 -0.180126 0
M  V30 6220 C 589.194 -1.98947 -1.24327 0
M  V30 6221 C 590.21 -0.899446 -1.4895 0
M  V30 6222 O 591.386 -1.20639 -1.61271 0
M  V30 6223 C 588.451 -2.33328 -2.56435 0
M  V30 6224 C 587.512 -3.56114 -2.39752 0
M  V30 6225 C 586.745 -3.88845 -3.65561 0
M  V30 6226 O 586.968 -3.22662 -4.70368 0
M  V30 6227 O 585.902 -4.82226 -3.60197 0
M  V30 6228 H 589.728 -2.89634 -0.913565 0
M  V30 6229 H 587.313 -1.44319 -0.386306 0
M  V30 6230 H 589.195 -2.5645 -3.34382 0
M  V30 6231 H 587.87 -1.45806 -2.89002 0
M  V30 6232 H 586.777 -3.38221 -1.59866 0
M  V30 6233 H 588.11 -4.4415 -2.12113 0
M  V30 6234 N 589.762 0.448376 -1.51087 0
M  V30 6235 C 591.008 1.20049 -1.6345 0
M  V30 6236 C 591.341 1.91121 -0.344444 0
M  V30 6237 O 590.616 1.83125 0.655396 0
M  V30 6238 C 590.899 2.22624 -2.83038 0
M  V30 6239 C 590.752 1.55708 -4.21989 0
M  V30 6240 C 592.071 3.23718 -2.98152 0
M  V30 6241 H 589.19 0.435085 -0.59487 0
M  V30 6242 H 591.832 0.491183 -1.83541 0
M  V30 6243 H 589.982 2.83117 -2.66039 0
M  V30 6244 H 591.654 0.986367 -4.50631 0
M  V30 6245 H 589.897 0.859647 -4.25197 0
M  V30 6246 H 590.568 2.30357 -5.01637 0
M  V30 6247 H 593.044 2.73269 -3.13788 0
M  V30 6248 H 591.92 3.92795 -3.83411 0
M  V30 6249 H 592.181 3.89179 -2.09743 0
M  V30 6250 N 591.24 1.41047 0.703093 0
M  V30 6251 C 592.188 1.42494 1.83843 0
M  V30 6252 C 593.182 0.303885 1.66652 0
M  V30 6253 O 594.388 0.475544 1.73605 0
M  V30 6254 H 590.763 0.445685 0.605697 0
M  V30 6255 H 592.734 2.38194 1.79739 0
M  V30 6256 C 591.483 1.31666 3.21807 0
M  V30 6257 H 590.806 2.17212 3.35647 0
M  V30 6258 H 592.246 1.36738 4.01346 0
M  V30 6259 C 590.705 0.0281828 3.36888 0
M  V30 6260 O 591.235 -0.929995 3.90786 0
M  V30 6261 N 589.441 -0.0454322 2.90564 0
M  V30 6262 H 588.988 0.735046 2.4689 0
M  V30 6263 H 588.946 -0.906968 3.01034 0
M  V30 6264 N 592.718 -0.936591 1.26751 0
M  V30 6265 C 593.681 -2.01752 1.08761 0
M  V30 6266 C 594.681 -1.60763 0.0344435 0
M  V30 6267 O 595.871 -1.71963 0.278258 0
M  V30 6268 C 593.003 -3.34543 0.655271 0
M  V30 6269 H 594.196 -2.19143 2.04735 0
M  V30 6270 H 591.749 -1.11618 1.09413 0
M  V30 6271 H 592.484 -3.22851 -0.30626 0
M  V30 6272 H 592.269 -3.65647 1.41578 0
M  V30 6273 H 593.759 -4.13944 0.551378 0
M  V30 6274 N 594.196 -1.08629 -1.14182 0
M  V30 6275 C 595.126 -0.740003 -2.21464 0
M  V30 6276 C 596.107 0.278591 -1.67803 0
M  V30 6277 O 597.292 0.148461 -1.93632 0
M  V30 6278 C 594.422 -0.150952 -3.46972 0
M  V30 6279 C 593.376 -1.09815 -4.13672 0
M  V30 6280 C 592.702 -0.3712 -5.3341 0
M  V30 6281 C 594.002 -2.43722 -4.61949 0
M  V30 6282 H 595.696 -1.63697 -2.50686 0
M  V30 6283 H 593.242 -0.788526 -1.20492 0
M  V30 6284 H 595.195 0.103325 -4.21273 0
M  V30 6285 H 593.919 0.781164 -3.1712 0
M  V30 6286 H 592.578 -1.33756 -3.41328 0
M  V30 6287 H 592.226 0.564792 -4.99819 0
M  V30 6288 H 591.926 -1.00267 -5.78982 0
M  V30 6289 H 593.45 -0.12503 -6.10472 0
M  V30 6290 H 594.864 -2.24034 -5.27714 0
M  V30 6291 H 593.261 -3.02582 -5.18232 0
M  V30 6292 H 594.331 -3.05082 -3.76899 0
M  V30 6293 N 595.674 1.31259 -0.872281 0
M  V30 6294 C 596.584 2.32221 -0.333255 0
M  V30 6295 C 597.6 1.6481 0.558013 0
M  V30 6296 O 598.776 1.96212 0.454175 0
M  V30 6297 C 595.841 3.43708 0.454479 0
M  V30 6298 C 594.902 4.26774 -0.465024 0
M  V30 6299 C 594.135 5.32937 0.28521 0
M  V30 6300 O 594.358 5.49968 1.513 0
M  V30 6301 O 593.292 6.00834 -0.358126 0
M  V30 6302 H 597.118 2.80252 -1.17016 0
M  V30 6303 H 594.703 1.352 -0.635724 0
M  V30 6304 H 596.585 4.11656 0.900963 0
M  V30 6305 H 595.26 2.97836 1.26789 0
M  V30 6306 H 594.167 3.61571 -0.960055 0
M  V30 6307 H 595.5 4.76217 -1.2441 0
M  V30 6308 N 597.152 0.631951 1.44375 0
M  V30 6309 C 598.392 0.14009 2.03919 0
M  V30 6310 C 598.756 -1.21534 1.48639 0
M  V30 6311 O 599.957 -1.79936 1.99691 0
M  V30 6312 C 598.228 0.127174 3.57174 0
M  V30 6313 S 599.787 -0.299946 4.37774 0
M  V30 6314 H 596.605 0.0614891 0.708336 0
M  V30 6315 H 599.207 0.835524 1.76746 0
M  V30 6316 H 597.911 1.11676 3.94913 0
M  V30 6317 H 597.442 -0.589482 3.88958 0
M  V30 6318 H 599.457 -1.54396 4.71568 0
M  V30 6319 N 598.631 -1.53133 0.372548 0
M  V30 6320 C 599.541 -2.29671 -0.478379 0
M  V30 6321 C 600.557 -1.35913 -1.08644 0
M  V30 6322 O 601.733 -1.68975 -1.09588 0
M  V30 6323 C 598.798 -3.07625 -1.599 0
M  V30 6324 C 597.859 -4.17061 -1.01776 0
M  V30 6325 C 597.092 -4.91289 -2.08497 0
M  V30 6326 O 597.315 -4.65442 -3.29727 0
M  V30 6327 O 596.249 -5.7705 -1.71164 0
M  V30 6328 H 600.075 -3.03355 0.144649 0
M  V30 6329 H 597.66 -1.48773 0.136729 0
M  V30 6330 H 599.542 -3.56281 -2.25038 0
M  V30 6331 H 598.217 -2.3677 -2.2073 0
M  V30 6332 H 597.124 -3.72641 -0.330098 0
M  V30 6333 H 598.457 -4.90102 -0.453915 0
M  V30 6334 N 600.109 -0.101901 -1.5727 0
M  V30 6335 C 601.358 0.559922 -1.93772 0
M  V30 6336 C 601.671 1.68913 -0.98629 0
M  V30 6337 O 602.877 2.41256 -1.24529 0
M  V30 6338 C 601.333 1.04739 -3.44322 0
M  V30 6339 C 600.941 -0.05243 -4.47969 0
M  V30 6340 C 602.685 1.68157 -3.89774 0
M  V30 6341 C 600.592 0.450781 -5.8968 0
M  V30 6342 H 599.522 0.212931 -0.723309 0
M  V30 6343 H 602.173 -0.179001 -1.82625 0
M  V30 6344 H 600.555 1.84021 -3.50645 0
M  V30 6345 H 601.729 -0.828157 -4.53297 0
M  V30 6346 H 600.044 -0.592202 -4.12167 0
M  V30 6347 H 602.641 2.0689 -4.93052 0
M  V30 6348 H 602.984 2.55338 -3.28798 0
M  V30 6349 H 603.517 0.954453 -3.8618 0
M  V30 6350 H 600.256 -0.38458 -6.54371 0
M  V30 6351 H 599.776 1.19336 -5.87809 0
M  V30 6352 H 601.455 0.917555 -6.40461 0
M  V30 6353 N 601.587 1.56661 0.17182 0
M  V30 6354 C 602.519 1.92934 1.2373 0
M  V30 6355 C 603.532 0.822385 1.40502 0
M  V30 6356 O 604.721 1.10083 1.40514 0
M  V30 6357 C 601.821 2.16651 2.60607 0
M  V30 6358 C 600.994 3.47878 2.6514 0
M  V30 6359 C 600.053 3.60429 3.83377 0
M  V30 6360 O 599.079 4.33051 3.69398 0
M  V30 6361 N 600.281 2.95241 4.99813 0
M  V30 6362 H 603.046 2.84931 0.929205 0
M  V30 6363 H 600.607 1.5781 0.361588 0
M  V30 6364 H 602.599 2.22312 3.38171 0
M  V30 6365 H 601.169 1.3104 2.83809 0
M  V30 6366 H 600.389 3.53879 1.73675 0
M  V30 6367 H 601.677 4.34232 2.6518 0
M  V30 6368 H 601.075 2.3611 5.14071 0
M  V30 6369 H 599.632 3.06499 5.75241 0
M  V30 6370 N 603.065 -0.440357 1.51323 0
M  V30 6371 C 603.995 -1.54174 1.75364 0
M  V30 6372 C 604.976 -1.59039 0.603375 0
M  V30 6373 O 606.161 -1.74815 0.845774 0
M  V30 6374 C 603.291 -2.92277 1.87593 0
M  V30 6375 C 602.245 -3.02274 3.03009 0
M  V30 6376 C 601.571 -4.42327 3.00418 0
M  V30 6377 C 602.871 -2.76634 4.43024 0
M  V30 6378 H 604.565 -1.34307 2.67585 0
M  V30 6379 H 602.111 -0.644678 1.28763 0
M  V30 6380 H 604.064 -3.69284 2.02995 0
M  V30 6381 H 602.788 -3.13369 0.920179 0
M  V30 6382 H 601.447 -2.27706 2.87307 0
M  V30 6383 H 601.095 -4.60382 2.02626 0
M  V30 6384 H 600.795 -4.49946 3.77918 0
M  V30 6385 H 602.319 -5.21312 3.17909 0
M  V30 6386 H 603.733 -3.43376 4.59093 0
M  V30 6387 H 602.13 -2.95666 5.22208 0
M  V30 6388 H 603.2 -1.72262 4.5327 0
M  V30 6389 N 604.543 -1.41418 -0.695603 0
M  V30 6390 C 605.473 -1.46035 -1.82197 0
M  V30 6391 C 606.454 -0.319025 -1.67082 0
M  V30 6392 O 607.639 -0.530462 -1.86815 0
M  V30 6393 C 604.769 -1.34179 -3.20333 0
M  V30 6394 C 603.723 -2.46123 -3.50154 0
M  V30 6395 C 603.049 -2.19332 -4.87645 0
M  V30 6396 C 604.349 -3.88463 -3.49133 0
M  V30 6397 H 606.043 -2.40303 -1.78591 0
M  V30 6398 H 603.589 -1.15663 -0.857797 0
M  V30 6399 H 605.542 -1.36021 -3.98844 0
M  V30 6400 H 604.266 -0.363952 -3.24566 0
M  V30 6401 H 602.925 -2.43563 -2.73994 0
M  V30 6402 H 602.573 -1.19891 -4.88503 0
M  V30 6403 H 602.273 -2.94344 -5.08562 0
M  V30 6404 H 603.797 -2.22889 -5.68465 0
M  V30 6405 H 605.211 -3.92738 -4.17648 0
M  V30 6406 H 603.608 -4.63158 -3.81582 0
M  V30 6407 H 604.678 -4.16617 -2.48109 0
M  V30 6408 N 606.021 0.929856 -1.27246 0
M  V30 6409 C 606.968 2.03017 -1.09785 0
M  V30 6410 C 607.938 1.661 0.000456744 0
M  V30 6411 O 609.123 1.90116 -0.161462 0
M  V30 6412 C 606.263 3.36878 -0.748816 0
M  V30 6413 C 605.376 3.86763 -1.92453 0
M  V30 6414 C 604.511 5.09061 -1.51758 0
M  V30 6415 C 603.55 5.51237 -2.66091 0
M  V30 6416 N 602.687 6.64732 -2.25999 0
M  V30 6417 H 607.527 2.17285 -2.03939 0
M  V30 6418 H 605.064 1.06448 -1.01524 0
M  V30 6419 H 607.022 4.13855 -0.527283 0
M  V30 6420 H 605.652 3.22424 0.155771 0
M  V30 6421 H 604.704 3.06086 -2.25867 0
M  V30 6422 H 606.016 4.13994 -2.78227 0
M  V30 6423 H 605.17 5.93532 -1.25716 0
M  V30 6424 H 603.909 4.83602 -0.630896 0
M  V30 6425 H 602.914 4.65316 -2.92849 0
M  V30 6426 H 604.139 5.78692 -3.55377 0
M  V30 6427 H 602.085 6.40935 -1.3978 0
M  V30 6428 H 602.002 6.91607 -3.05313 0
M  V30 6429 H 603.27 7.52549 -2.03199 0
M  V30 6430 N 607.499 1.09233 1.13605 0
M  V30 6431 C 608.447 0.724572 2.21027 0
M  V30 6432 C 609.441 -0.273595 1.67176 0
M  V30 6433 O 610.647 -0.135266 1.79491 0
M  V30 6434 H 607.022 0.216319 0.720215 0
M  V30 6435 H 608.993 1.63975 2.49309 0
M  V30 6436 C 607.742 0.159126 3.47336 0
M  V30 6437 H 607.065 0.918387 3.89109 0
M  V30 6438 H 608.505 -0.0602851 4.23957 0
M  V30 6439 C 606.964 -1.10514 3.18258 0
M  V30 6440 O 607.494 -2.18869 3.36837 0
M  V30 6441 N 605.7 -1.01886 2.72154 0
M  V30 6442 H 605.247 -0.137027 2.57235 0
M  V30 6443 H 605.205 -1.8655 2.53074 0
M  V30 6444 N 608.977 -1.30795 0.87923 0
M  V30 6445 C 609.907 -2.30742 0.357796 0
M  V30 6446 C 610.888 -1.60747 -0.556283 0
M  V30 6447 O 612.073 -1.88393 -0.47135 0
M  V30 6448 C 609.203 -3.44583 -0.433555 0
M  V30 6449 C 608.157 -4.26235 0.388251 0
M  V30 6450 C 607.483 -5.32073 -0.529352 0
M  V30 6451 C 608.783 -4.96303 1.62729 0
M  V30 6452 H 610.477 -2.74605 1.19299 0
M  V30 6453 H 608.023 -1.32017 0.575104 0
M  V30 6454 H 609.976 -4.13563 -0.808934 0
M  V30 6455 H 608.7 -2.99511 -1.30234 0
M  V30 6456 H 607.359 -3.58936 0.745695 0
M  V30 6457 H 607.007 -4.83249 -1.39569 0
M  V30 6458 H 606.707 -5.87598 0.0166741 0
M  V30 6459 H 608.231 -6.0391 -0.901373 0
M  V30 6460 H 609.645 -5.5783 1.32283 0
M  V30 6461 H 608.042 -5.61666 2.11309 0
M  V30 6462 H 609.112 -4.22758 2.37494 0
M  V30 6463 N 610.455 -0.639598 -1.44038 0
M  V30 6464 C 611.385 0.0469443 -2.33453 0
M  V30 6465 C 612.366 0.82609 -1.48694 0
M  V30 6466 O 613.551 0.790285 -1.77393 0
M  V30 6467 C 610.681 1.02338 -3.3188 0
M  V30 6468 C 609.635 0.355284 -4.26523 0
M  V30 6469 C 608.961 1.44221 -5.14883 0
M  V30 6470 C 610.261 -0.743798 -5.16977 0
M  V30 6471 H 611.955 -0.699735 -2.91108 0
M  V30 6472 H 609.501 -0.337946 -1.39978 0
M  V30 6473 H 611.454 1.51247 -3.93322 0
M  V30 6474 H 610.178 1.80105 -2.72451 0
M  V30 6475 H 608.837 -0.113239 -3.66425 0
M  V30 6476 H 608.485 2.21097 -4.51802 0
M  V30 6477 H 608.185 1.00052 -5.79019 0
M  V30 6478 H 609.709 1.93295 -5.79197 0
M  V30 6479 H 611.123 -0.337444 -5.72306 0
M  V30 6480 H 609.52 -1.10914 -5.89761 0
M  V30 6481 H 610.59 -1.60745 -4.57481 0
M  V30 6482 N 611.933 1.52934 -0.380664 0
M  V30 6483 C 612.883 2.22989 0.475399 0
M  V30 6484 C 613.867 1.23058 1.03661 0
M  V30 6485 O 615.059 1.48436 0.964146 0
M  V30 6486 C 612.188 3.0338 1.60671 0
M  V30 6487 C 611.274 4.107 1.05766 0
M  V30 6488 N 611.665 5.05264 0.232837 0
M  V30 6489 C 609.963 4.25676 1.33101 0
M  V30 6490 C 610.664 5.81658 -0.0695134 0
M  V30 6491 N 609.64 5.40989 0.532144 0
M  V30 6492 H 613.442 2.93456 -0.161418 0
M  V30 6493 H 610.956 1.61291 -0.189495 0
M  V30 6494 H 612.953 3.52098 2.23232 0
M  V30 6495 H 611.613 2.34446 2.24644 0
M  V30 6496 H 612.624 5.17739 -0.129204 0
M  V30 6497 H 609.301 3.6797 1.97241 0
M  V30 6498 H 610.691 6.67843 -0.737269 0
M  V30 6499 N 613.412 0.11024 1.57214 0
M  V30 6500 C 614.322 -0.857077 2.18383 0
M  V30 6501 C 615.338 -1.29915 1.1575 0
M  V30 6502 O 616.514 -1.36394 1.48184 0
M  V30 6503 C 613.579 -2.09264 2.76423 0
M  V30 6504 C 612.64 -1.70333 3.94063 0
M  V30 6505 C 611.873 -2.87999 4.49324 0
M  V30 6506 O 612.096 -4.0317 4.03497 0
M  V30 6507 O 611.03 -2.6559 5.40135 0
M  V30 6508 H 614.856 -0.366561 3.0148 0
M  V30 6509 H 612.441 -0.114914 1.48957 0
M  V30 6510 H 614.323 -2.81644 3.13456 0
M  V30 6511 H 612.998 -2.57339 1.96363 0
M  V30 6512 H 611.905 -0.950864 3.61814 0
M  V30 6513 H 613.238 -1.27007 4.75531 0
M  V30 6514 N 614.89 -1.56749 -0.16351 0
M  V30 6515 C 616.306 -1.51043 -0.515567 0
M  V30 6516 C 616.506 -0.815855 -1.84245 0
M  V30 6517 O 615.562 -0.379477 -2.49632 0
M  V30 6518 C 616.875 -2.95791 -0.541114 0
M  V30 6519 C 618.423 -3.0664 -0.627776 0
M  V30 6520 C 618.898 -4.52861 -0.684141 0
M  V30 6521 N 620.389 -4.5714 -0.746818 0
M  V30 6522 C 621.124 -5.67634 -0.811137 0
M  V30 6523 N 620.62 -6.8774 -0.835811 0
M  V30 6524 N 622.413 -5.55624 -0.850756 0
M  V30 6525 H 614.564 -2.00307 0.70645 0
M  V30 6526 H 616.827 -0.912876 0.255659 0
M  V30 6527 H 616.533 -3.49797 0.365329 0
M  V30 6528 H 616.407 -3.50858 -1.38487 0
M  V30 6529 H 618.794 -2.52663 -1.52464 0
M  V30 6530 H 618.875 -2.54645 0.242805 0
M  V30 6531 H 618.519 -5.07472 0.2085 0
M  V30 6532 H 618.449 -5.02621 -1.57098 0
M  V30 6533 H 620.94 -3.70669 -0.735717 0
M  V30 6534 H 621.253 -7.67701 -0.886279 0
M  V30 6535 H 619.598 -6.90334 -0.803958 0
M  V30 6536 H 622.789 -4.60709 -0.828535 0
M  V30 6537 H 622.962 -6.41756 -0.897418 0
M  V30 6538 N 616.368 0.432326 -1.51554 0
M  V30 6539 C 617.617 1.17831 -1.63703 0
M  V30 6540 C 617.93 1.92229 -0.36156 0
M  V30 6541 O 619.136 2.69069 -0.362495 0
M  V30 6542 C 617.592 2.14318 -2.89129 0
M  V30 6543 C 617.2 1.45544 -4.23699 0
M  V30 6544 C 618.944 2.89319 -3.10636 0
M  V30 6545 C 616.851 2.40545 -5.4027 0
M  V30 6546 H 615.781 0.443533 -0.60975 0
M  V30 6547 H 618.432 0.444878 -1.78026 0
M  V30 6548 H 616.814 2.91117 -2.68452 0
M  V30 6549 H 617.988 0.742693 -4.54775 0
M  V30 6550 H 616.303 0.826772 -4.0811 0
M  V30 6551 H 618.9 3.60495 -3.94902 0
M  V30 6552 H 619.243 3.50951 -2.23918 0
M  V30 6553 H 619.776 2.19625 -3.31677 0
M  V30 6554 H 616.515 1.83594 -6.29264 0
M  V30 6555 H 616.035 3.09859 -5.13563 0
M  V30 6556 H 617.714 3.01569 -5.72421 0
M  V30 6557 N 617.846 1.41785 0.688094 0
M  V30 6558 C 619.092 1.41753 1.4503 0
M  V30 6559 C 619.425 0.0290745 1.94178 0
M  V30 6560 O 618.7 -0.944456 1.7003 0
M  V30 6561 C 618.983 2.43069 2.65686 0
M  V30 6562 C 618.836 3.91053 2.22256 0
M  V30 6563 C 620.155 2.41543 3.67893 0
M  V30 6564 H 617.274 0.516202 0.526027 0
M  V30 6565 H 619.916 1.73111 0.783105 0
M  V30 6566 H 618.066 2.1646 3.2261 0
M  V30 6567 H 619.738 4.28594 1.70602 0
M  V30 6568 H 617.981 4.05559 1.53963 0
M  V30 6569 H 618.652 4.57501 3.08863 0
M  V30 6570 H 621.128 2.65175 3.20658 0
M  V30 6571 H 620.004 3.14434 4.49914 0
M  V30 6572 H 620.265 1.43666 4.18106 0
M  V30 6573 N 619.324 -0.923095 1.27737 0
M  V30 6574 C 620.256 -2.02871 1.06658 0
M  V30 6575 C 621.269 -1.62786 0.0212095 0
M  V30 6576 O 622.458 -1.76548 0.263267 0
M  V30 6577 C 619.558 -3.33603 0.59682 0
M  V30 6578 C 618.731 -4.02354 1.71551 0
M  V30 6579 C 617.79 -5.11364 1.24071 0
M  V30 6580 O 616.816 -5.35075 1.94123 0
M  V30 6581 N 618.018 -5.80416 0.0988444 0
M  V30 6582 H 620.783 -2.21515 2.01869 0
M  V30 6583 H 618.344 -1.09378 1.19365 0
M  V30 6584 H 620.336 -4.03845 0.262984 0
M  V30 6585 H 618.906 -3.11499 -0.262187 0
M  V30 6586 H 618.126 -3.25786 2.2194 0
M  V30 6587 H 619.414 -4.45035 2.46619 0
M  V30 6588 H 618.812 -5.63611 -0.485743 0
M  V30 6589 H 617.369 -6.51563 -0.17578 0
M  V30 6590 N 620.802 -1.09834 -1.13024 0
M  V30 6591 C 622.032 -0.857657 -1.87957 0
M  V30 6592 C 622.44 0.595008 -1.796 0
M  V30 6593 O 621.783 1.42158 -1.16347 0
M  V30 6594 C 621.845 -1.21949 -3.38185 0
M  V30 6595 C 621.509 -2.67791 -3.7032 0
M  V30 6596 C 622.506 -3.66036 -3.69207 0
M  V30 6597 C 620.191 -3.04019 -3.99847 0
M  V30 6598 C 622.185 -4.98533 -3.9717 0
M  V30 6599 C 619.872 -4.36706 -4.27471 0
M  V30 6600 C 620.87 -5.33772 -4.26118 0
M  V30 6601 O 620.558 -6.64072 -4.53061 0
M  V30 6602 H 620.29 -0.308009 -0.601753 0
M  V30 6603 H 622.844 -1.46496 -1.43973 0
M  V30 6604 H 621.074 -0.555249 -3.82693 0
M  V30 6605 H 622.763 -0.957281 -3.9445 0
M  V30 6606 H 623.529 -3.39392 -3.46465 0
M  V30 6607 H 619.408 -2.29096 -4.00045 0
M  V30 6608 H 622.952 -5.74288 -3.96029 0
M  V30 6609 H 618.849 -4.63091 -4.49685 0
M  V30 6610 H 619.617 -6.69608 -4.7071 0
M  V30 6611 N 622.28 1.30327 -0.886154 0
M  V30 6612 C 623.51 1.99964 -0.519421 0
M  V30 6613 C 623.918 1.66593 0.89686 0
M  V30 6614 O 623.261 0.899886 1.60149 0
M  V30 6615 C 623.323 3.54187 -0.615795 0
M  V30 6616 C 622.987 4.11078 -1.9966 0
M  V30 6617 C 623.984 4.26985 -2.96614 0
M  V30 6618 C 621.669 4.46429 -2.30231 0
M  V30 6619 C 623.663 4.77456 -4.22273 0
M  V30 6620 C 621.35 4.966 -3.56135 0
M  V30 6621 C 622.348 5.12066 -4.5197 0
M  V30 6622 O 622.036 5.61154 -5.7564 0
M  V30 6623 H 621.768 0.645979 -0.199217 0
M  V30 6624 H 624.322 1.67154 -1.19368 0
M  V30 6625 H 622.552 3.86528 0.115448 0
M  V30 6626 H 624.241 4.05065 -0.26017 0
M  V30 6627 H 625.007 3.99975 -2.74308 0
M  V30 6628 H 620.886 4.33658 -1.56404 0
M  V30 6629 H 624.43 4.89444 -4.97082 0
M  V30 6630 H 620.327 5.23045 -3.78277 0
M  V30 6631 H 621.095 5.79494 -5.78039 0
M  V30 6632 N 623.758 0.647228 1.43697 0
M  V30 6633 C 625.006 0.157876 2.01482 0
M  V30 6634 C 625.327 -1.23039 1.51282 0
M  V30 6635 O 624.597 -1.82071 0.722982 0
M  V30 6636 H 623.177 0.0553745 0.744945 0
M  V30 6637 H 625.839 0.83755 1.75986 0
M  V30 6638 H 624.935 0.137895 3.11795 0
M  V30 6639 N 625.236 -1.5273 0.388769 0
M  V30 6640 C 626.476 -2.03483 -0.193372 0
M  V30 6641 C 626.84 -1.26897 -1.44087 0
M  V30 6642 O 628.041 -1.67773 -2.10014 0
M  V30 6643 C 626.312 -3.54488 -0.455325 0
M  V30 6644 S 627.871 -4.27069 -1.00783 0
M  V30 6645 H 624.689 -0.708907 -0.0545131 0
M  V30 6646 H 627.291 -1.8798 0.536993 0
M  V30 6647 H 625.995 -4.07817 0.459722 0
M  V30 6648 H 625.526 -3.74196 -1.21413 0
M  V30 6649 H 627.541 -4.40185 -2.29023 0
M  V30 6650 N 626.714 -0.118576 -1.57153 0
M  V30 6651 C 627.644 0.828436 -2.1831 0
M  V30 6652 C 628.625 1.27758 -1.12303 0
M  V30 6653 O 629.81 1.34026 -1.40537 0
M  V30 6654 C 626.94 2.07876 -2.78217 0
M  V30 6655 C 625.894 1.76742 -3.89803 0
M  V30 6656 C 625.22 3.08801 -4.36516 0
M  V30 6657 C 626.52 1.03606 -5.11921 0
M  V30 6658 H 628.214 0.318824 -2.97698 0
M  V30 6659 H 625.76 0.151911 -1.43196 0
M  V30 6660 H 627.713 2.74584 -3.19659 0
M  V30 6661 H 626.437 2.61161 -1.96118 0
M  V30 6662 H 625.096 1.12424 -3.48936 0
M  V30 6663 H 624.744 3.6002 -3.51276 0
M  V30 6664 H 624.444 2.88743 -5.11763 0
M  V30 6665 H 625.968 3.76627 -4.80608 0
M  V30 6666 H 627.382 1.60467 -5.50385 0
M  V30 6667 H 625.779 0.936454 -5.92748 0
M  V30 6668 H 626.849 0.0227421 -4.84895 0
M  V30 6669 N 628.193 1.56834 0.155195 0
M  V30 6670 C 629.609 1.51315 0.50755 0
M  V30 6671 C 629.809 0.825614 1.83809 0
M  V30 6672 O 628.865 0.39271 2.49427 0
M  V30 6673 C 630.178 2.96074 0.52542 0
M  V30 6674 C 631.726 3.06968 0.611505 0
M  V30 6675 C 632.201 4.53218 0.660115 0
M  V30 6676 N 633.692 4.5753 0.722564 0
M  V30 6677 C 634.427 5.68056 0.781023 0
M  V30 6678 N 633.923 6.88173 0.799327 0
M  V30 6679 N 635.716 5.56068 0.821278 0
M  V30 6680 H 627.867 1.9993 -0.717063 0
M  V30 6681 H 630.13 0.911507 -0.260496 0
M  V30 6682 H 629.836 3.49599 -0.383875 0
M  V30 6683 H 629.71 3.51587 1.36624 0
M  V30 6684 H 632.097 2.53468 1.51122 0
M  V30 6685 H 632.178 2.54513 -0.256306 0
M  V30 6686 H 631.822 5.07354 -0.23541 0
M  V30 6687 H 631.752 5.03447 1.5443 0
M  V30 6688 H 634.243 3.71054 0.716049 0
M  V30 6689 H 634.556 7.6816 0.845553 0
M  V30 6690 H 632.901 6.90751 0.767337 0
M  V30 6691 H 636.092 4.61142 0.804091 0
M  V30 6692 H 636.265 6.42223 0.863372 0
M  V30 6693 N 629.671 -0.424282 1.51781 0
M  V30 6694 C 630.948 -1.18464 1.55646 0
M  V30 6695 C 631.328 -2.08529 0.328438 0
M  V30 6696 O 630.676 -2.17969 -0.685693 0
M  V30 6697 C 630.886 -1.97514 2.87731 0
M  V30 6698 C 632.234 -2.54106 3.40169 0
M  V30 6699 O 633.258 -2.07711 2.89369 0
M  V30 6700 O 632.117 -3.38759 4.28841 0
M  V30 6701 H 629.211 -0.540055 0.626314 0
M  V30 6702 H 631.757 -0.432291 1.64102 0
M  V30 6703 H 630.529 -1.31444 3.68562 0
M  V30 6704 H 630.152 -2.79787 2.82498 0
M  V30 6705 N 631.149 -1.42148 -0.680565 0
M  V30 6706 C 632.56 -1.3768 -1.26099 0
M  V30 6707 C 632.911 -0.0672348 -1.96085 0
M  V30 6708 O 632.036 0.834172 -1.99676 0
M  V30 6709 C 632.631 -2.49387 -2.29328 0
M  V30 6710 C 631.19 -2.4827 -2.82911 0
M  V30 6711 C 630.337 -2.2847 -1.57152 0
M  V30 6712 H 633.288 -1.51446 -0.474326 0
M  V30 6713 H 633.309 -2.19307 -3.10941 0
M  V30 6714 H 632.821 -3.44686 -1.78363 0
M  V30 6715 H 630.922 -1.56773 -3.38013 0
M  V30 6716 H 631.035 -3.45109 -3.3232 0
M  V30 6717 H 629.399 -1.76623 -1.83511 0
M  V30 6718 H 630.182 -3.25816 -1.0816 0
M  V30 6719 N 632.627 0.916307 -1.28225 0
M  V30 6720 C 633.559 2.02303 -1.07732 0
M  V30 6721 C 634.572 1.62773 -0.0298421 0
M  V30 6722 O 635.761 1.76406 -0.272626 0
M  V30 6723 C 632.861 3.33282 -0.614504 0
M  V30 6724 C 632.034 4.01439 -1.73682 0
M  V30 6725 C 631.093 5.10698 -1.26781 0
M  V30 6726 O 630.119 5.34038 -1.96958 0
M  V30 6727 N 631.321 5.80355 -0.129624 0
M  V30 6728 H 634.086 2.20442 -2.03041 0
M  V30 6729 H 631.647 1.08744 -1.19943 0
M  V30 6730 H 633.639 4.03699 -0.284397 0
M  V30 6731 H 632.209 3.11633 0.245664 0
M  V30 6732 H 631.429 3.24604 -2.23665 0
M  V30 6733 H 632.717 4.43721 -2.48976 0
M  V30 6734 H 632.115 5.6386 0.455847 0
M  V30 6735 H 630.672 6.51647 0.141224 0
M  V30 6736 N 634.105 1.10431 1.1244 0
M  V30 6737 C 635.015 0.765502 2.21759 0
M  V30 6738 C 636.031 -0.236966 1.72379 0
M  V30 6739 O 637.207 -0.0757329 2.01258 0
M  V30 6740 C 634.272 0.202316 3.46109 0
M  V30 6741 C 633.333 1.26205 4.1033 0
M  V30 6742 C 632.566 0.725648 5.28744 0
M  V30 6743 O 632.789 -0.447942 5.68638 0
M  V30 6744 O 631.723 1.48555 5.83279 0
M  V30 6745 H 635.549 1.67801 2.53133 0
M  V30 6746 H 633.134 0.879443 1.20773 0
M  V30 6747 H 635.016 -0.107918 4.21262 0
M  V30 6748 H 633.691 -0.683052 3.16411 0
M  V30 6749 H 632.598 1.62514 3.36957 0
M  V30 6750 H 633.931 2.12044 4.44183 0
M  V30 6751 N 635.583 -1.29855 0.893053 0
M  V30 6752 C 636.53 -2.27909 0.364161 0
M  V30 6753 C 637.5 -1.56726 -0.550093 0
M  V30 6754 O 638.685 -1.84747 -0.47677 0
M  V30 6755 C 635.825 -3.42678 -0.408178 0
M  V30 6756 C 634.938 -4.28659 0.536212 0
M  V30 6757 C 634.073 -5.30599 -0.252521 0
M  V30 6758 C 633.112 -6.08234 0.686822 0
M  V30 6759 N 632.249 -7.02068 -0.0670902 0
M  V30 6760 H 637.089 -2.72531 1.20544 0
M  V30 6761 H 634.626 -1.34047 0.605779 0
M  V30 6762 H 636.584 -4.07986 -0.871962 0
M  V30 6763 H 635.214 -2.99103 -1.21397 0
M  V30 6764 H 634.266 -3.63584 1.1185 0
M  V30 6765 H 635.578 -4.8274 1.25552 0
M  V30 6766 H 634.732 -6.01694 -0.777801 0
M  V30 6767 H 633.471 -4.77233 -1.005 0
M  V30 6768 H 632.476 -5.3601 1.22366 0
M  V30 6769 H 633.701 -6.63689 1.43852 0
M  V30 6770 H 631.647 -6.5108 -0.801955 0
M  V30 6771 H 631.564 -7.53675 0.59243 0
M  V30 6772 H 632.832 -7.77392 -0.572851 0
M  V30 6773 N 637.061 -0.65484 -1.43351 0
M  V30 6774 C 638.289 -0.176685 -2.06144 0
M  V30 6775 C 638.704 1.15831 -1.49093 0
M  V30 6776 O 638.061 1.71542 -0.622868 0
M  V30 6777 C 638.112 -0.0813326 -3.61408 0
M  V30 6778 O 637.833 -1.36355 -4.1634 0
M  V30 6779 C 639.334 0.422706 -4.4128 0
M  V30 6780 H 636.554 -0.0906429 -0.66485 0
M  V30 6781 H 639.098 -0.895945 -1.83829 0
M  V30 6782 H 637.253 0.588496 -3.82904 0
M  V30 6783 H 637.667 -1.22381 -5.10023 0
M  V30 6784 H 639.141 0.438375 -5.50257 0
M  V30 6785 H 639.618 1.45432 -4.14423 0
M  V30 6786 H 640.224 -0.214687 -4.24758 0
M  V30 6787 N 638.539 1.52521 -0.396863 0
M  V30 6788 C 639.469 2.29582 0.425941 0
M  V30 6789 C 640.45 1.33281 1.05689 0
M  V30 6790 O 641.635 1.62181 1.06823 0
M  V30 6791 C 638.765 3.10821 1.54943 0
M  V30 6792 C 637.719 4.15069 1.04413 0
M  V30 6793 C 637.045 4.84578 2.26028 0
M  V30 6794 C 638.345 5.22191 0.106767 0
M  V30 6795 H 640.039 2.98612 -0.217045 0
M  V30 6796 H 637.585 1.43611 -0.105826 0
M  V30 6797 H 639.538 3.63492 2.13193 0
M  V30 6798 H 638.262 2.39538 2.22011 0
M  V30 6799 H 636.921 3.63389 0.484118 0
M  V30 6800 H 636.569 4.09835 2.91623 0
M  V30 6801 H 636.269 5.55043 1.92876 0
M  V30 6802 H 637.793 5.40056 2.84906 0
M  V30 6803 H 639.207 5.70176 0.597685 0
M  V30 6804 H 637.604 5.99947 -0.135352 0
M  V30 6805 H 638.674 4.77531 -0.842134 0
M  V30 6806 N 640.017 0.126909 1.57088 0
M  V30 6807 C 641.242 -0.53997 2.00248 0
M  V30 6808 C 641.667 -1.58927 1.00618 0
M  V30 6809 O 641.025 -1.81288 -0.0210131 0
M  V30 6810 C 641.073 -1.13565 3.4225 0
M  V30 6811 O 640.177 -2.25103 3.45547 0
M  V30 6812 H 639.518 -0.13412 0.650314 0
M  V30 6813 H 642.048 0.217718 2.03438 0
M  V30 6814 H 642.058 -1.46925 3.80627 0
M  V30 6815 H 640.733 -0.367122 4.14277 0
M  V30 6816 H 639.31 -1.93123 3.18995 0
M  V30 6817 N 641.495 -1.56914 -0.146875 0
M  V30 6818 C 642.744 -1.82546 -0.857898 0
M  V30 6819 C 643.057 -0.708169 -1.8233 0
M  V30 6820 O 644.263 -0.850093 -2.57848 0
M  V30 6821 C 642.719 -3.23548 -1.57623 0
M  V30 6822 C 642.327 -4.43212 -0.653224 0
M  V30 6823 C 644.071 -3.58453 -2.27402 0
M  V30 6824 C 641.978 -5.75237 -1.37318 0
M  V30 6825 H 640.908 -0.680786 -0.32411 0
M  V30 6826 H 643.559 -1.83166 -0.110639 0
M  V30 6827 H 641.941 -3.17315 -2.36912 0
M  V30 6828 H 643.115 -4.60682 0.104452 0
M  V30 6829 H 641.43 -4.16351 -0.0638336 0
M  V30 6830 H 644.027 -4.54349 -2.81907 0
M  V30 6831 H 644.37 -2.84516 -3.03901 0
M  V30 6832 H 644.903 -3.66347 -1.55032 0
M  V30 6833 H 641.642 -6.52269 -0.650041 0
M  V30 6834 H 641.162 -5.61703 -2.10357 0
M  V30 6835 H 642.841 -6.18039 -1.91406 0
M  V30 6836 N 642.974 0.416227 -1.52004 0
M  V30 6837 C 644.221 1.16383 -1.65714 0
M  V30 6838 C 644.549 1.9068 -0.383594 0
M  V30 6839 O 643.804 1.85174 0.633185 0
M  V30 6840 C 644.103 2.18923 -2.82502 0
M  V30 6841 C 643.769 1.61485 -4.20991 0
M  V30 6842 C 642.431 1.45545 -4.58661 0
M  V30 6843 C 644.783 1.19468 -5.07323 0
M  V30 6844 C 642.111 0.860937 -5.80349 0
M  V30 6845 C 644.463 0.614386 -6.29609 0
M  V30 6846 C 643.127 0.442056 -6.66035 0
M  V30 6847 H 642.397 0.425875 -0.606392 0
M  V30 6848 H 645.044 0.45199 -1.8609 0
M  V30 6849 H 643.349 2.96225 -2.56433 0
M  V30 6850 H 645.046 2.76628 -2.90307 0
M  V30 6851 H 641.636 1.74873 -3.91302 0
M  V30 6852 H 645.82 1.30596 -4.78809 0
M  V30 6853 H 641.076 0.715372 -6.072 0
M  V30 6854 H 645.25 0.280393 -6.95835 0
M  V30 6855 H 642.877 -0.0207218 -7.60197 0
M  V30 6856 N 644.452 1.42507 0.673017 0
M  V30 6857 C 645.385 1.40557 1.79774 0
M  V30 6858 C 646.363 0.269606 1.60349 0
M  V30 6859 O 647.547 0.460105 1.82798 0
M  V30 6860 C 644.674 1.19815 3.168 0
M  V30 6861 C 643.72 2.36429 3.5497 0
M  V30 6862 S 644.553 3.98963 3.57196 0
M  V30 6863 C 645.709 3.80567 4.9691 0
M  V30 6864 H 645.942 2.35734 1.81154 0
M  V30 6865 H 643.475 1.293 0.843846 0
M  V30 6866 H 645.433 1.08535 3.95892 0
M  V30 6867 H 644.094 0.262215 3.13004 0
M  V30 6868 H 643.287 2.17669 4.54573 0
M  V30 6869 H 642.889 2.44233 2.83242 0
M  V30 6870 H 645.181 3.41668 5.85038 0
M  V30 6871 H 646.124 4.79852 5.20718 0
M  V30 6872 H 646.532 3.13399 4.69512 0
M  V30 6873 N 645.93 -0.909495 1.28709 0
M  V30 6874 C 646.84 -2.04558 1.14861 0
M  V30 6875 C 647.856 -1.73842 0.0741621 0
M  V30 6876 O 649.032 -1.99383 0.2843 0
M  V30 6877 C 646.097 -3.36957 0.816148 0
M  V30 6878 C 645.158 -3.81255 1.97341 0
M  V30 6879 C 644.391 -5.07335 1.65671 0
M  V30 6880 O 644.614 -5.67514 0.573053 0
M  V30 6881 O 643.548 -5.47449 2.50167 0
M  V30 6882 H 647.374 -2.19161 2.10243 0
M  V30 6883 H 644.959 -1.03159 1.08068 0
M  V30 6884 H 646.841 -4.16436 0.644873 0
M  V30 6885 H 645.516 -3.2352 -0.107983 0
M  V30 6886 H 644.423 -3.02584 2.19986 0
M  V30 6887 H 645.756 -3.99261 2.87839 0
M  V30 6888 N 647.408 -1.11026 -1.11852 0
M  V30 6889 C 648.638 -0.877544 -1.87037 0
M  V30 6890 C 649.046 0.575925 -1.80221 0
M  V30 6891 O 648.389 1.40916 -1.17849 0
M  V30 6892 C 648.451 -1.25529 -3.36872 0
M  V30 6893 C 648.115 -2.71704 -3.67459 0
M  V30 6894 C 649.112 -3.69931 -3.65304 0
M  V30 6895 C 646.797 -3.08243 -3.966 0
M  V30 6896 C 648.791 -5.02717 -3.9186 0
M  V30 6897 C 646.478 -4.41215 -4.22815 0
M  V30 6898 C 647.476 -5.38262 -4.20432 0
M  V30 6899 O 647.164 -6.68839 -4.45992 0
M  V30 6900 H 646.896 -0.314374 -0.598452 0
M  V30 6901 H 649.45 -1.48015 -1.42411 0
M  V30 6902 H 647.68 -0.595808 -3.82082 0
M  V30 6903 H 649.369 -0.999064 -3.93413 0
M  V30 6904 H 650.135 -3.43047 -3.42846 0
M  V30 6905 H 646.014 -2.33326 -3.97593 0
M  V30 6906 H 649.558 -5.78456 -3.89916 0
M  V30 6907 H 645.455 -4.67835 -4.44748 0
M  V30 6908 H 646.223 -6.74563 -4.63581 0
M  V30 6909 N 648.886 1.2938 -0.899927 0
M  V30 6910 C 649.819 2.25911 -0.322386 0
M  V30 6911 C 650.797 1.52447 0.565567 0
M  V30 6912 O 651.981 1.81404 0.512324 0
M  V30 6913 C 649.108 3.3436 0.540455 0
M  V30 6914 C 648.154 4.25579 -0.280211 0
M  V30 6915 S 648.987 5.08526 -1.67814 0
M  V30 6916 C 650.143 6.20476 -0.822224 0
M  V30 6917 H 650.376 2.7455 -1.1406 0
M  V30 6918 H 647.909 1.37606 -0.700285 0
M  V30 6919 H 649.867 3.97303 1.0325 0
M  V30 6920 H 648.528 2.84416 1.33291 0
M  V30 6921 H 647.721 5.02574 0.378915 0
M  V30 6922 H 647.323 3.67287 -0.705405 0
M  V30 6923 H 649.615 6.77485 -0.0457138 0
M  V30 6924 H 650.558 6.90606 -1.56426 0
M  V30 6925 H 650.966 5.63243 -0.37651 0
M  V30 6926 N 650.364 0.662433 1.43002 0
M  V30 6927 C 651.775 0.258315 1.84904 0
M  V30 6928 C 652.126 -1.19703 1.55453 0
M  V30 6929 O 651.251 -1.91484 1.00811 0
M  V30 6930 C 651.846 0.462047 3.35635 0
M  V30 6931 C 650.405 0.112165 3.76233 0
M  V30 6932 C 649.552 0.760479 2.66668 0
M  V30 6933 H 652.503 0.865467 1.33024 0
M  V30 6934 H 652.524 -0.289646 3.79396 0
M  V30 6935 H 652.036 1.52135 3.57039 0
M  V30 6936 H 650.137 -0.944179 3.60439 0
M  V30 6937 H 650.25 0.544058 4.76001 0
M  V30 6938 H 648.614 0.192887 2.53969 0
M  V30 6939 H 649.397 1.82299 2.90898 0
M  V30 6940 N 651.842 -1.52309 0.404946 0
M  V30 6941 C 653.09 -2.01368 -0.17186 0
M  V30 6942 C 653.411 -1.29261 -1.46002 0
M  V30 6943 O 652.681 -0.41729 -1.91404 0
M  V30 6944 H 651.261 -0.744034 -0.0664993 0
M  V30 6945 H 653.923 -1.87263 0.540228 0
M  V30 6946 H 653.019 -3.09888 -0.370957 0
M  V30 6947 N 653.32 -0.135238 -1.57019 0
M  V30 6948 C 654.568 0.51777 -1.95355 0
M  V30 6949 C 654.889 1.6617 -1.02042 0
M  V30 6950 O 654.159 1.95738 -0.0797343 0
M  V30 6951 H 652.739 0.194264 -0.721298 0
M  V30 6952 H 655.401 -0.207983 -1.93787 0
M  V30 6953 H 654.497 0.901675 -2.98791 0
M  V30 6954 N 654.798 1.5699 0.138552 0
M  V30 6955 C 656.023 1.88344 0.86841 0
M  V30 6956 C 656.448 0.725159 1.7356 0
M  V30 6957 O 655.806 -0.324992 1.78363 0
M  V30 6958 C 655.854 3.18334 1.69398 0
M  V30 6959 O 654.958 3.02863 2.79907 0
M  V30 6960 H 654.299 0.618577 0.241367 0
M  V30 6961 H 656.829 2.04207 0.126826 0
M  V30 6962 H 656.839 3.50567 2.08726 0
M  V30 6963 H 655.514 4.02238 1.05725 0
M  V30 6964 H 654.091 2.82056 2.43924 0
M  V30 6965 N 656.276 -0.40816 1.52223 0
M  V30 6966 C 657.525 -1.15212 1.65557 0
M  V30 6967 C 657.838 -1.9163 0.392096 0
M  V30 6968 O 659.044 -2.68458 0.405256 0
M  V30 6969 C 657.5 -2.09691 2.92502 0
M  V30 6970 C 657.108 -1.38785 4.25961 0
M  V30 6971 C 658.852 -2.8434 3.152 0
M  V30 6972 C 656.759 -2.31919 5.44029 0
M  V30 6973 H 655.689 -0.433776 0.616729 0
M  V30 6974 H 658.34 -0.4165 1.78711 0
M  V30 6975 H 656.722 -2.8681 2.7305 0
M  V30 6976 H 657.896 -0.670248 4.55899 0
M  V30 6977 H 656.211 -0.761741 4.09373 0
M  V30 6978 H 658.808 -3.54166 4.00587 0
M  V30 6979 H 659.151 -3.47344 2.29473 0
M  V30 6980 H 659.684 -2.14321 3.35129 0
M  V30 6981 H 656.423 -1.7356 6.32105 0
M  V30 6982 H 655.943 -3.0165 5.18428 0
M  V30 6983 H 657.622 -2.92424 5.77146 0
M  V30 6984 N 657.755 -1.42862 -0.66545 0
M  V30 6985 C 658.702 -1.4707 -1.77874 0
M  V30 6986 C 659.672 -0.321654 -1.62956 0
M  V30 6987 O 660.857 -0.52707 -1.83376 0
M  V30 6988 C 657.997 -1.38788 -3.15962 0
M  V30 6989 C 657.11 -2.63801 -3.42101 0
M  V30 6990 C 656.245 -2.47594 -4.69969 0
M  V30 6991 C 655.284 -3.67936 -4.89172 0
M  V30 6992 N 654.421 -3.50614 -6.08288 0
M  V30 6993 H 659.261 -2.42204 -1.73613 0
M  V30 6994 H 656.798 -1.20239 -0.847401 0
M  V30 6995 H 658.756 -1.31982 -3.95773 0
M  V30 6996 H 657.386 -0.472431 -3.19324 0
M  V30 6997 H 656.438 -2.80935 -2.56475 0
M  V30 6998 H 657.75 -3.53228 -3.52181 0
M  V30 6999 H 656.904 -2.38427 -5.57886 0
M  V30 7000 H 655.643 -1.55672 -4.62188 0
M  V30 7001 H 654.648 -3.77525 -3.99694 0
M  V30 7002 H 655.873 -4.60851 -4.98792 0
M  V30 7003 H 653.819 -2.61417 -6.01662 0
M  V30 7004 H 653.736 -4.33634 -6.19272 0
M  V30 7005 H 655.004 -3.45276 -6.98859 0
M  V30 7006 N 659.233 0.902656 -1.29189 0
M  V30 7007 C 660.51 1.63296 -1.07674 0
M  V30 7008 C 660.89 2.07649 0.380137 0
M  V30 7009 O 660.238 1.82997 1.36837 0
M  V30 7010 C 660.448 2.81603 -2.06158 0
M  V30 7011 C 661.796 3.52359 -2.36914 0
M  V30 7012 O 662.82 2.91767 -2.04329 0
M  V30 7013 O 661.679 4.61586 -2.92576 0
M  V30 7014 H 658.773 0.716889 -0.41231 0
M  V30 7015 H 661.319 0.950984 -1.4055 0
M  V30 7016 H 660.091 2.46004 -3.04299 0
M  V30 7017 H 659.714 3.57508 -1.73993 0
M  V30 7018 N 660.711 1.11618 1.11262 0
M  V30 7019 C 661.643 0.734015 2.17129 0
M  V30 7020 C 662.656 -0.235243 1.61091 0
M  V30 7021 O 663.845 -0.0178597 1.78491 0
M  V30 7022 C 660.945 0.0643682 3.38839 0
M  V30 7023 C 660.118 1.06092 4.24339 0
M  V30 7024 C 659.177 0.420482 5.24517 0
M  V30 7025 O 658.203 1.07495 5.58957 0
M  V30 7026 N 659.405 -0.815828 5.74739 0
M  V30 7027 H 662.17 1.64492 2.50524 0
M  V30 7028 H 659.731 1.00664 1.26801 0
M  V30 7029 H 661.723 -0.375851 4.02951 0
M  V30 7030 H 660.293 -0.749147 3.03491 0
M  V30 7031 H 659.513 1.67903 3.56654 0
M  V30 7032 H 660.801 1.73507 4.78302 0
M  V30 7033 H 660.199 -1.36668 5.48943 0
M  V30 7034 H 658.756 -1.199 6.40677 0
M  V30 7035 N 662.189 -1.289 0.906776 0
M  V30 7036 C 663.119 -2.29932 0.406659 0
M  V30 7037 C 664.1 -1.6189 -0.522061 0
M  V30 7038 O 665.285 -1.8935 -0.431283 0
M  V30 7039 C 662.415 -3.45425 -0.360366 0
M  V30 7040 C 661.369 -4.25316 0.478574 0
M  V30 7041 C 660.695 -5.33076 -0.416373 0
M  V30 7042 C 661.995 -4.92739 1.7322 0
M  V30 7043 H 663.689 -2.72013 1.25097 0
M  V30 7044 H 661.235 -1.30768 0.602977 0
M  V30 7045 H 663.188 -4.15186 -0.721029 0
M  V30 7046 H 661.912 -3.02206 -1.23852 0
M  V30 7047 H 660.571 -3.57273 0.821662 0
M  V30 7048 H 660.219 -4.86101 -1.29287 0
M  V30 7049 H 659.919 -5.8743 0.141309 0
M  V30 7050 H 661.443 -6.05686 -0.773072 0
M  V30 7051 H 662.857 -5.54898 1.44086 0
M  V30 7052 H 661.254 -5.57057 2.23175 0
M  V30 7053 H 662.324 -4.17625 2.46408 0
M  V30 7054 N 663.667 -0.670007 -1.42649 0
M  V30 7055 C 664.614 0.0112928 -2.30797 0
M  V30 7056 C 665.584 0.797627 -1.45695 0
M  V30 7057 O 666.769 0.770845 -1.74535 0
M  V30 7058 C 663.909 0.95998 -3.31479 0
M  V30 7059 C 663.022 0.167975 -4.31673 0
M  V30 7060 C 662.157 1.11198 -5.19431 0
M  V30 7061 C 661.196 0.311381 -6.11307 0
M  V30 7062 N 660.333 1.20784 -6.91633 0
M  V30 7063 H 665.173 -0.746231 -2.88505 0
M  V30 7064 H 662.71 -0.379739 -1.42114 0
M  V30 7065 H 664.668 1.52379 -3.88377 0
M  V30 7066 H 663.298 1.68419 -2.75382 0
M  V30 7067 H 662.35 -0.512385 -3.76933 0
M  V30 7068 H 663.662 -0.453814 -4.96731 0
M  V30 7069 H 662.816 1.74587 -5.81037 0
M  V30 7070 H 661.555 1.76766 -4.54538 0
M  V30 7071 H 660.56 -0.335758 -5.48774 0
M  V30 7072 H 661.785 -0.340135 -6.78248 0
M  V30 7073 H 659.731 1.85001 -6.29373 0
M  V30 7074 H 659.648 0.64102 -7.53277 0
M  V30 7075 H 660.916 1.82936 -7.5773 0
M  V30 7076 N 665.145 1.52092 -0.413018 0
M  V30 7077 C 666.108 2.25706 0.398687 0
M  V30 7078 C 667.108 1.28221 0.970368 0
M  V30 7079 O 668.298 1.52131 0.848635 0
M  V30 7080 C 665.43 3.03029 1.5616 0
M  V30 7081 H 666.623 2.98888 -0.246131 0
M  V30 7082 H 664.176 1.5542 -0.165622 0
M  V30 7083 H 664.911 2.34205 2.24317 0
M  V30 7084 H 664.696 3.74606 1.15812 0
M  V30 7085 H 666.186 3.58857 2.13569 0
M  V30 7086 N 666.623 0.143563 1.56945 0
M  V30 7087 C 667.853 -0.514699 2.00086 0
M  V30 7088 C 668.261 -1.59184 1.0226 0
M  V30 7089 O 667.604 -1.83697 0.0110514 0
M  V30 7090 C 667.666 -1.17778 3.39659 0
M  V30 7091 C 667.33 -0.245657 4.56339 0
M  V30 7092 C 668.327 0.525343 5.17239 0
M  V30 7093 C 666.012 -0.149564 5.02077 0
M  V30 7094 C 668.006 1.37992 6.22284 0
M  V30 7095 C 665.693 0.708621 6.06978 0
M  V30 7096 C 666.691 1.47197 6.6695 0
M  V30 7097 O 666.379 2.31586 7.6982 0
M  V30 7098 H 666.111 -0.138789 0.661599 0
M  V30 7099 H 668.665 0.234098 2.04062 0
M  V30 7100 H 666.895 -1.97415 3.32512 0
M  V30 7101 H 668.584 -1.73542 3.6693 0
M  V30 7102 H 669.35 0.461118 4.82803 0
M  V30 7103 H 665.229 -0.733457 4.55128 0
M  V30 7104 H 668.773 1.97621 6.69023 0
M  V30 7105 H 664.67 0.77415 6.40841 0
M  V30 7106 H 665.438 2.24796 7.87025 0
M  V30 7107 N 668.101 -1.57061 -0.130224 0
M  V30 7108 C 669.349 -1.83893 -0.838313 0
M  V30 7109 C 669.67 -0.727046 -1.80939 0
M  V30 7110 O 668.94 0.249927 -1.94299 0
M  V30 7111 H 667.52 -0.67846 -0.312573 0
M  V30 7112 H 670.182 -1.94529 -0.120224 0
M  V30 7113 H 669.278 -2.79419 -1.39038 0
M  V30 7114 N 669.579 0.400081 -1.52437 0
M  V30 7115 C 670.542 1.4707 -1.75793 0
M  V30 7116 C 671.542 1.48036 -0.627856 0
M  V30 7117 O 672.732 1.49401 -0.895817 0
M  V30 7118 C 669.864 2.86427 -1.84858 0
M  V30 7119 H 671.057 1.27649 -2.71377 0
M  V30 7120 H 668.61 0.631141 -1.42991 0
M  V30 7121 H 669.345 3.11207 -0.912194 0
M  V30 7122 H 669.13 2.87128 -2.6702 0
M  V30 7123 H 670.62 3.64023 -2.04638 0
M  V30 7124 N 671.057 1.43213 0.657864 0
M  V30 7125 C 671.987 1.50815 1.78262 0
M  V30 7126 C 672.968 0.363211 1.66177 0
M  V30 7127 O 674.153 0.579806 1.85343 0
M  V30 7128 C 671.283 1.42625 3.16663 0
M  V30 7129 C 670.237 2.5532 3.43505 0
M  V30 7130 C 669.563 2.32184 4.81658 0
M  V30 7131 C 670.863 3.97583 3.38711 0
M  V30 7132 H 672.557 2.44954 1.72157 0
M  V30 7133 H 670.103 1.17896 0.82683 0
M  V30 7134 H 672.056 1.46548 3.95097 0
M  V30 7135 H 670.78 0.449877 3.23487 0
M  V30 7136 H 669.439 2.50742 2.6744 0
M  V30 7137 H 669.087 1.32801 4.85153 0
M  V30 7138 H 668.787 3.07724 5.00579 0
M  V30 7139 H 670.311 2.37883 5.62356 0
M  V30 7140 H 671.725 4.03673 4.07089 0
M  V30 7141 H 670.122 4.73112 3.69168 0
M  V30 7142 H 671.192 4.23049 2.36976 0
M  V30 7143 N 672.536 -0.895792 1.29666 0
M  V30 7144 C 673.764 -1.68001 1.20761 0
M  V30 7145 C 674.179 -1.87379 -0.231187 0
M  V30 7146 O 673.536 -1.41359 -1.15429 0
M  V30 7147 C 673.587 -3.06236 1.92098 0
M  V30 7148 O 673.308 -2.8774 3.30359 0
M  V30 7149 C 674.809 -4.00652 1.89717 0
M  V30 7150 H 672.029 -0.524591 0.418384 0
M  V30 7151 H 674.573 -1.11995 1.71106 0
M  V30 7152 H 672.728 -3.59007 1.45578 0
M  V30 7153 H 673.142 -3.75359 3.66342 0
M  V30 7154 H 674.616 -4.95051 2.44189 0
M  V30 7155 H 675.093 -4.30424 0.873595 0
M  V30 7156 H 675.699 -3.53815 2.35998 0
M  V30 7157 N 674.014 -1.12206 -1.10668 0
M  V30 7158 C 674.924 -0.800686 -2.20513 0
M  V30 7159 C 675.94 0.209512 -1.72734 0
M  V30 7160 O 677.116 0.043705 -2.01353 0
M  V30 7161 C 674.181 -0.257353 -3.45744 0
M  V30 7162 C 673.242 -1.32718 -4.0827 0
M  V30 7163 C 672.475 -0.809674 -5.27522 0
M  V30 7164 O 672.698 0.35742 -5.69279 0
M  V30 7165 O 671.632 -1.57816 -5.80842 0
M  V30 7166 H 675.458 -1.71807 -2.50432 0
M  V30 7167 H 673.043 -0.898546 -1.19359 0
M  V30 7168 H 674.925 0.0408849 -4.2138 0
M  V30 7169 H 673.6 0.632627 -3.17458 0
M  V30 7170 H 672.507 -1.67855 -3.34329 0
M  V30 7171 H 673.84 -2.19083 -4.40753 0
M  V30 7172 N 675.492 1.28418 -0.913599 0
M  V30 7173 C 676.44 2.29272 -0.392037 0
M  V30 7174 C 677.434 1.61344 0.516198 0
M  V30 7175 O 678.64 1.75557 0.39746 0
M  V30 7176 H 675.015 0.744178 -0.108178 0
M  V30 7177 H 676.986 2.70691 -1.25574 0
M  V30 7178 C 675.735 3.45905 0.352815 0
M  V30 7179 H 675.058 3.98378 -0.336848 0
M  V30 7180 H 676.498 4.18473 0.682398 0
M  V30 7181 C 674.957 2.98572 1.56065 0
M  V30 7182 O 675.487 3.01033 2.65974 0
M  V30 7183 N 673.693 2.54235 1.40759 0
M  V30 7184 H 673.24 2.52432 0.513403 0
M  V30 7185 H 673.198 2.22925 2.21702 0
M  V30 7186 N 676.97 0.677563 1.42291 0
M  V30 7187 C 678.216 0.201272 2.01799 0
M  V30 7188 C 678.549 -1.19004 1.53465 0
M  V30 7189 O 677.824 -1.79953 0.738039 0
M  V30 7190 C 678.107 0.238968 3.59306 0
M  V30 7191 C 677.96 1.66594 4.17812 0
M  V30 7192 C 679.279 -0.411287 4.38174 0
M  V30 7193 H 676.398 0.0746114 0.733214 0
M  V30 7194 H 679.04 0.862872 1.69276 0
M  V30 7195 H 677.19 -0.324368 3.87144 0
M  V30 7196 H 678.862 2.28173 4.00917 0
M  V30 7197 H 677.105 2.20576 3.73536 0
M  V30 7198 H 677.776 1.64398 5.26951 0
M  V30 7199 H 680.252 0.0682804 4.16044 0
M  V30 7200 H 679.128 -0.354286 5.47755 0
M  V30 7201 H 679.389 -1.4893 4.1626 0
M  V30 7202 N 678.448 -1.51871 0.421078 0
M  V30 7203 C 679.676 -2.06356 -0.14994 0
M  V30 7204 C 680.091 -1.29006 -1.37851 0
M  V30 7205 O 679.448 -0.345139 -1.79207 0
M  V30 7206 C 679.499 -3.58185 -0.488454 0
M  V30 7207 O 679.22 -4.32611 0.691341 0
M  V30 7208 C 680.721 -4.29129 -1.11191 0
M  V30 7209 H 677.941 -0.67083 -0.0151186 0
M  V30 7210 H 680.485 -1.95638 0.595476 0
M  V30 7211 H 678.64 -3.68871 -1.18376 0
M  V30 7212 H 679.054 -5.22927 0.405906 0
M  V30 7213 H 680.528 -5.36501 -1.29889 0
M  V30 7214 H 681.005 -3.86371 -2.0884 0
M  V30 7215 H 681.611 -4.22843 -0.456458 0
M  V30 7216 N 679.926 -0.151884 -1.56866 0
M  V30 7217 C 681.342 0.204486 -1.58285 0
M  V30 7218 C 681.542 1.6431 -1.16639 0
M  V30 7219 O 680.598 2.37077 -0.868946 0
M  V30 7220 C 681.911 -0.0587019 -3.00643 0
M  V30 7221 C 683.459 0.00462303 -3.13 0
M  V30 7222 C 683.934 -0.231297 -4.57416 0
M  V30 7223 N 685.425 -0.178394 -4.62856 0
M  V30 7224 C 686.16 -0.335379 -5.72418 0
M  V30 7225 N 685.656 -0.550355 -6.90611 0
M  V30 7226 N 687.449 -0.272641 -5.61438 0
M  V30 7227 H 679.6 -1.09116 -1.82229 0
M  V30 7228 H 681.863 -0.432311 -0.843689 0
M  V30 7229 H 681.569 -1.05453 -3.35518 0
M  V30 7230 H 681.443 0.658508 -3.71407 0
M  V30 7231 H 683.83 0.991009 -2.77962 0
M  V30 7232 H 683.911 -0.744992 -2.44711 0
M  V30 7233 H 683.555 -1.2148 -4.93158 0
M  V30 7234 H 683.485 0.5387 -5.23837 0
M  V30 7235 H 685.976 -0.0170923 -3.77896 0
M  V30 7236 H 686.289 -0.660116 -7.69976 0
M  V30 7237 H 684.634 -0.586736 -6.92519 0
M  V30 7238 H 687.825 -0.105421 -4.67981 0
M  V30 7239 H 687.998 -0.398418 -6.46774 0
M  V30 7240 N 681.404 1.57128 0.121893 0
M  V30 7241 C 682.351 2.0013 1.14964 0
M  V30 7242 C 683.321 0.872959 1.4131 0
M  V30 7243 O 684.506 1.13696 1.53225 0
M  V30 7244 C 681.646 2.40824 2.4718 0
M  V30 7245 C 680.759 3.67061 2.27794 0
M  V30 7246 C 679.894 3.96749 3.53219 0
M  V30 7247 C 678.933 5.16178 3.28978 0
M  V30 7248 N 678.07 5.41751 4.46599 0
M  V30 7249 H 682.91 2.8772 0.775947 0
M  V30 7250 H 680.447 1.42328 0.371652 0
M  V30 7251 H 682.405 2.62454 3.24305 0
M  V30 7252 H 681.035 1.56279 2.82448 0
M  V30 7253 H 680.087 3.53063 1.416 0
M  V30 7254 H 681.399 4.5434 2.05857 0
M  V30 7255 H 680.553 4.19012 4.38764 0
M  V30 7256 H 679.292 3.07941 3.78185 0
M  V30 7257 H 678.297 4.93762 2.41824 0
M  V30 7258 H 679.522 6.06561 3.05386 0
M  V30 7259 H 677.468 4.55899 4.71691 0
M  V30 7260 H 677.385 6.23347 4.27756 0
M  V30 7261 H 678.653 5.68531 5.33285 0
M  V30 7262 N 682.882 -0.391992 1.52647 0
M  V30 7263 C 684.112 -1.15692 1.71169 0
M  V30 7264 C 684.52 -1.84285 0.428444 0
M  V30 7265 O 683.863 -1.73393 -0.606669 0
M  V30 7266 C 683.925 -2.25033 2.80357 0
M  V30 7267 C 683.589 -1.76433 4.21569 0
M  V30 7268 C 684.586 -1.2427 5.0483 0
M  V30 7269 C 682.271 -1.82746 4.67877 0
M  V30 7270 C 684.265 -0.790657 6.32477 0
M  V30 7271 C 681.952 -1.37153 5.9551 0
M  V30 7272 C 682.95 -0.853997 6.7764 0
M  V30 7273 O 682.638 -0.404708 8.02881 0
M  V30 7274 H 682.37 -0.35297 0.576531 0
M  V30 7275 H 684.924 -0.464994 2.00067 0
M  V30 7276 H 683.154 -2.97641 2.46874 0
M  V30 7277 H 684.843 -2.86718 2.87311 0
M  V30 7278 H 685.609 -1.18752 4.70237 0
M  V30 7279 H 681.488 -2.21971 4.04042 0
M  V30 7280 H 685.032 -0.386024 6.96531 0
M  V30 7281 H 680.929 -1.42356 6.29607 0
M  V30 7282 H 681.697 -0.526459 8.16805 0
M  V30 7283 N 684.36 -1.4356 -0.65026 0
M  V30 7284 C 685.588 -1.48779 -1.43779 0
M  V30 7285 C 686.003 -0.106593 -1.88499 0
M  V30 7286 O 685.36 0.883766 -1.59674 0
M  V30 7287 C 685.411 -2.43618 -2.67081 0
M  V30 7288 O 685.132 -3.76367 -2.24231 0
M  V30 7289 C 686.633 -2.5811 -3.60409 0
M  V30 7290 H 683.853 -0.50521 -0.441593 0
M  V30 7291 H 686.397 -1.88332 -0.796941 0
M  V30 7292 H 684.552 -2.07253 -3.273 0
M  V30 7293 H 684.966 -4.27394 -3.0403 0
M  V30 7294 H 686.44 -3.28539 -4.43583 0
M  V30 7295 H 686.917 -1.627 -4.07953 0
M  V30 7296 H 687.523 -2.95298 -3.0607 0
M  V30 7297 N 685.838 0.888903 -1.30139 0
M  V30 7298 C 687.254 1.17153 -1.08385 0
M  V30 7299 C 687.454 2.0088 0.157925 0
M  V30 7300 O 686.51 2.37668 0.852652 0
M  V30 7301 C 687.823 1.882 -2.34523 0
M  V30 7302 C 689.371 2.00981 -2.39949 0
M  V30 7303 C 689.846 2.75441 -3.65918 0
M  V30 7304 N 691.337 2.82989 -3.66704 0
M  V30 7305 C 692.072 3.41167 -4.60861 0
M  V30 7306 N 691.568 4.00425 -5.6536 0
M  V30 7307 N 693.361 3.38944 -4.48412 0
M  V30 7308 H 685.512 0.33053 -2.09812 0
M  V30 7309 H 687.775 0.208964 -0.924683 0
M  V30 7310 H 687.481 1.34119 -3.25123 0
M  V30 7311 H 687.355 2.88609 -2.42868 0
M  V30 7312 H 689.742 2.54234 -1.4983 0
M  V30 7313 H 689.823 0.996725 -2.35582 0
M  V30 7314 H 689.467 2.22861 -4.56394 0
M  V30 7315 H 689.397 3.77118 -3.67546 0
M  V30 7316 H 691.888 2.40912 -2.91153 0
M  V30 7317 H 692.201 4.42871 -6.33313 0
M  V30 7318 H 690.546 3.98856 -5.69157 0
M  V30 7319 H 693.737 2.91875 -3.6596 0
M  V30 7320 H 693.91 3.83989 -5.21974 0
M  V30 7321 N 687.317 1.12792 1.10072 0
M  V30 7322 C 688.249 0.757003 2.16338 0
M  V30 7323 C 689.262 -0.218144 1.61332 0
M  V30 7324 O 690.451 0.0010727 1.785 0
M  V30 7325 C 687.551 0.100303 3.38752 0
M  V30 7326 C 686.724 1.10586 4.2319 0
M  V30 7327 C 685.783 0.47609 5.24042 0
M  V30 7328 O 684.809 1.13418 5.57786 0
M  V30 7329 N 686.011 -0.754823 5.75572 0
M  V30 7330 H 688.776 1.6714 2.48766 0
M  V30 7331 H 686.337 1.02003 1.25726 0
M  V30 7332 H 688.329 -0.333092 4.03327 0
M  V30 7333 H 686.899 -0.716915 3.04268 0
M  V30 7334 H 686.119 1.71677 3.54853 0
M  V30 7335 H 687.407 1.78571 4.76435 0
M  V30 7336 H 686.805 -1.30838 5.50362 0
M  V30 7337 H 685.362 -1.13098 6.41913 0
M  V30 7338 N 688.795 -1.27931 0.920396 0
M  V30 7339 C 690.044 -1.93975 0.552867 0
M  V30 7340 C 690.357 -1.73193 -0.909035 0
M  V30 7341 O 691.563 -2.33515 -1.38502 0
M  V30 7342 C 690.019 -3.47463 0.937947 0
M  V30 7343 C 689.627 -3.77013 2.42003 0
M  V30 7344 C 691.371 -4.19628 0.64132 0
M  V30 7345 C 689.278 -5.23841 2.74489 0
M  V30 7346 H 688.208 -0.726146 0.203046 0
M  V30 7347 H 690.859 -1.45339 1.12022 0
M  V30 7348 H 689.241 -3.94867 0.299317 0
M  V30 7349 H 690.415 -3.40393 3.10595 0
M  V30 7350 H 688.73 -3.18035 2.6878 0
M  V30 7351 H 691.327 -5.27729 0.860622 0
M  V30 7352 H 691.67 -4.14164 -0.421168 0
M  V30 7353 H 692.203 -3.78022 1.23872 0
M  V30 7354 H 688.942 -5.34388 3.79618 0
M  V30 7355 H 688.462 -5.61634 2.1054 0
M  V30 7356 H 690.141 -5.91647 2.61845 0
M  V30 7357 N 690.273 -0.685099 -1.4193 0
M  V30 7358 C 691.203 -0.0273506 -2.33484 0
M  V30 7359 C 692.184 0.778366 -1.51246 0
M  V30 7360 O 693.369 0.733449 -1.79817 0
M  V30 7361 C 690.499 0.917272 -3.34968 0
M  V30 7362 C 689.453 0.21941 -4.27437 0
M  V30 7363 C 688.779 1.27768 -5.1921 0
M  V30 7364 C 690.079 -0.907894 -5.14349 0
M  V30 7365 H 691.773 -0.791994 -2.88735 0
M  V30 7366 H 689.319 -0.382308 -1.38832 0
M  V30 7367 H 691.272 1.38657 -3.97935 0
M  V30 7368 H 689.996 1.71346 -2.78043 0
M  V30 7369 H 688.655 -0.229757 -3.65879 0
M  V30 7370 H 688.303 2.06612 -4.58607 0
M  V30 7371 H 688.003 0.815803 -5.81909 0
M  V30 7372 H 689.527 1.7477 -5.85054 0
M  V30 7373 H 690.941 -0.519348 -5.70943 0
M  V30 7374 H 689.338 -1.2962 -5.85934 0
M  V30 7375 H 690.408 -1.75218 -4.52136 0
M  V30 7376 N 691.751 1.51645 -0.429126 0
M  V30 7377 C 692.661 2.31288 0.392809 0
M  V30 7378 C 693.677 1.39852 1.03525 0
M  V30 7379 O 694.853 1.72926 1.03241 0
M  V30 7380 C 691.918 3.13347 1.48372 0
M  V30 7381 C 690.979 4.20551 0.862268 0
M  V30 7382 C 690.212 4.98688 1.9012 0
M  V30 7383 O 690.435 4.77359 3.12225 0
M  V30 7384 O 689.369 5.83005 1.4963 0
M  V30 7385 H 693.195 3.02609 -0.257138 0
M  V30 7386 H 690.78 1.48163 -0.191851 0
M  V30 7387 H 692.662 3.64387 2.1166 0
M  V30 7388 H 691.337 2.44799 2.1179 0
M  V30 7389 H 690.244 3.73609 0.191568 0
M  V30 7390 H 691.577 4.91449 0.271704 0
M  V30 7391 N 693.229 0.160201 1.56784 0
M  V30 7392 C 694.477 -0.486625 1.96154 0
M  V30 7393 C 694.798 -1.64525 1.04673 0
M  V30 7394 O 694.068 -1.95586 0.110864 0
M  V30 7395 H 692.648 -0.182764 0.724297 0
M  V30 7396 H 695.31 0.238787 1.93432 0
M  V30 7397 H 694.406 -0.854025 3.00188 0
M  V30 7398 N 694.707 -1.5719 -0.113559 0
M  V30 7399 C 695.953 -1.85412 -0.821597 0
M  V30 7400 C 696.286 -0.746722 -1.7927 0
M  V30 7401 O 695.561 0.246971 -1.92926 0
M  V30 7402 C 695.844 -3.24233 -1.56669 0
M  V30 7403 C 695.697 -4.45578 -0.614823 0
M  V30 7404 C 697.016 -3.60697 -2.52161 0
M  V30 7405 H 694.135 -0.674406 -0.29723 0
M  V30 7406 H 696.777 -1.89807 -0.085694 0
M  V30 7407 H 694.927 -3.20617 -2.19401 0
M  V30 7408 H 696.599 -4.613 0.00407137 0
M  V30 7409 H 694.842 -4.33738 0.0732332 0
M  V30 7410 H 695.513 -5.39395 -1.17292 0
M  V30 7411 H 697.989 -3.65139 -1.99532 0
M  V30 7412 H 696.865 -4.58798 -3.01323 0
M  V30 7413 H 697.126 -2.88403 -3.35076 0
M  V30 7414 N 696.185 0.383891 -1.52853 0
M  V30 7415 C 697.135 1.46892 -1.74375 0
M  V30 7416 C 698.119 1.49378 -0.597909 0
M  V30 7417 O 699.311 1.54929 -0.855929 0
M  V30 7418 C 696.44 2.84547 -1.92063 0
M  V30 7419 C 695.526 2.8661 -3.12594 0
M  V30 7420 N 695.917 2.58339 -4.3485 0
M  V30 7421 C 694.215 3.17777 -3.12944 0
M  V30 7422 C 694.916 2.67616 -5.16485 0
M  V30 7423 N 693.892 3.01561 -4.52285 0
M  V30 7424 H 697.694 1.23869 -2.66522 0
M  V30 7425 H 695.208 0.591895 -1.51229 0
M  V30 7426 H 697.205 3.62674 -2.05604 0
M  V30 7427 H 695.865 3.08549 -1.01133 0
M  V30 7428 H 696.876 2.32266 -4.62896 0
M  V30 7429 H 693.553 3.47211 -2.31842 0
M  V30 7430 H 694.943 2.4926 -6.23955 0
M  V30 7431 N 697.663 1.43903 0.642637 0
M  V30 7432 C 698.893 1.49323 1.4278 0
M  V30 7433 C 699.301 0.113058 1.88862 0
M  V30 7434 O 698.644 -0.889089 1.60751 0
M  V30 7435 C 698.706 2.3861 2.68897 0
M  V30 7436 C 698.37 3.85976 2.44687 0
M  V30 7437 C 699.367 4.7681 2.07239 0
M  V30 7438 C 697.052 4.30567 2.58683 0
M  V30 7439 C 699.046 6.10234 1.841 0
M  V30 7440 C 696.733 5.64042 2.35159 0
M  V30 7441 C 697.731 6.53693 1.97925 0
M  V30 7442 O 697.419 7.84698 1.74654 0
M  V30 7443 H 697.151 0.509109 0.444729 0
M  V30 7444 H 699.705 1.89425 0.794195 0
M  V30 7445 H 697.935 1.93415 3.34855 0
M  V30 7446 H 699.624 2.35112 3.30873 0
M  V30 7447 H 700.39 4.43635 1.95993 0
M  V30 7448 H 696.269 3.61054 2.86637 0
M  V30 7449 H 699.813 6.80171 1.54962 0
M  V30 7450 H 695.71 5.96782 2.46011 0
M  V30 7451 H 696.478 7.96382 1.88993 0
M  V30 7452 N 699.141 -0.881989 1.30609 0
M  V30 7453 C 700.071 -2.00413 1.1982 0
M  V30 7454 C 701.052 -1.69871 0.0881538 0
M  V30 7455 O 702.237 -1.92304 0.2707 0
M  V30 7456 C 699.367 -3.35641 0.89233 0
M  V30 7457 C 698.321 -3.80451 1.96064 0
M  V30 7458 C 697.647 -5.13003 1.5077 0
M  V30 7459 C 698.947 -3.98855 3.37213 0
M  V30 7460 H 700.641 -2.09698 2.13699 0
M  V30 7461 H 698.187 -1.00754 1.02882 0
M  V30 7462 H 700.14 -4.13669 0.803497 0
M  V30 7463 H 698.864 -3.26497 -0.0821381 0
M  V30 7464 H 697.523 -3.04654 2.03916 0
M  V30 7465 H 697.171 -5.0029 0.521417 0
M  V30 7466 H 696.871 -5.43956 2.22229 0
M  V30 7467 H 698.395 -5.93554 1.43271 0
M  V30 7468 H 699.809 -4.67312 3.32103 0
M  V30 7469 H 698.206 -4.41188 4.06784 0
M  V30 7470 H 699.276 -3.02614 3.78883 0
M  V30 7471 N 700.619 -1.13374 -1.09472 0
M  V30 7472 C 701.569 -0.77946 -2.14263 0
M  V30 7473 C 702.553 0.226271 -1.59301 0
M  V30 7474 O 703.745 0.0302581 -1.76974 0
M  V30 7475 C 700.874 -0.246635 -3.42413 0
M  V30 7476 C 699.96 -1.28124 -4.04283 0
M  V30 7477 N 700.351 -2.48201 -4.40715 0
M  V30 7478 C 698.649 -1.12892 -4.31476 0
M  V30 7479 C 699.35 -3.14347 -4.8945 0
M  V30 7480 N 698.326 -2.41771 -4.86876 0
M  V30 7481 H 702.128 -1.69305 -2.40235 0
M  V30 7482 H 699.642 -1.01598 -1.26695 0
M  V30 7483 H 701.639 0.0254131 -4.16892 0
M  V30 7484 H 700.299 0.661287 -3.17895 0
M  V30 7485 H 701.31 -2.85511 -4.32093 0
M  V30 7486 H 697.987 -0.279117 -4.16566 0
M  V30 7487 H 699.377 -4.16663 -5.27107 0
M  V30 7488 N 702.098 1.27442 -0.927168 0
M  V30 7489 C 703.323 1.99036 -0.583042 0
M  V30 7490 C 703.748 1.68711 0.83176 0
M  V30 7491 O 703.106 0.927081 1.55804 0
M  V30 7492 C 703.154 3.51271 -0.814925 0
M  V30 7493 O 702.258 4.12226 0.119742 0
M  V30 7494 H 701.599 0.624883 -0.224538 0
M  V30 7495 H 704.129 1.62263 -1.24628 0
M  V30 7496 H 704.139 4.01411 -0.730282 0
M  V30 7497 H 702.814 3.72676 -1.84623 0
M  V30 7498 H 701.391 3.72897 -0.0147688 0
M  V30 7499 N 703.576 0.692616 1.41565 0
M  V30 7500 C 704.524 0.0139952 2.32596 0
M  V30 7501 C 705.518 -0.771691 1.50802 0
M  V30 7502 O 706.724 -0.677646 1.66757 0
M  V30 7503 H 703.099 -0.0142745 0.751865 0
M  V30 7504 H 705.07 0.798851 2.87508 0
M  V30 7505 C 703.819 -0.910602 3.35564 0
M  V30 7506 H 703.142 -0.315446 3.98554 0
M  V30 7507 H 704.582 -1.3538 4.01806 0
M  V30 7508 C 703.041 -2.02539 2.6922 0
M  V30 7509 O 703.571 -3.11386 2.53775 0
M  V30 7510 N 701.777 -1.80227 2.27962 0
M  V30 7511 H 701.324 -0.917054 2.40724 0
M  V30 7512 H 701.282 -2.55001 1.83907 0
M  V30 7513 N 705.054 -1.51416 0.437162 0
M  V30 7514 C 705.987 -2.24309 -0.419602 0
M  V30 7515 C 706.965 -1.26236 -1.02485 0
M  V30 7516 O 708.149 -1.5537 -1.06735 0
M  V30 7517 C 705.276 -2.99335 -1.58482 0
M  V30 7518 C 704.322 -4.12064 -1.10027 0
M  V30 7519 S 705.155 -5.35483 -0.0424476 0
M  V30 7520 C 706.311 -6.14047 -1.21234 0
M  V30 7521 H 706.544 -2.96632 0.199259 0
M  V30 7522 H 704.077 -1.528 0.22168 0
M  V30 7523 H 706.035 -3.43159 -2.25282 0
M  V30 7524 H 704.696 -2.26602 -2.17509 0
M  V30 7525 H 703.889 -4.63836 -1.97161 0
M  V30 7526 H 703.491 -3.70499 -0.510507 0
M  V30 7527 H 705.783 -6.43123 -2.13072 0
M  V30 7528 H 706.726 -7.04279 -0.734582 0
M  V30 7529 H 707.134 -5.45538 -1.45082 0
M  V30 7530 N 706.532 -0.168513 -1.56696 0
M  V30 7531 C 707.781 0.477233 -1.95973 0
M  V30 7532 C 708.094 1.64578 -1.05704 0
M  V30 7533 O 709.3 2.35758 -1.3465 0
M  V30 7534 C 707.756 0.900413 -3.48455 0
M  V30 7535 C 707.364 -0.242382 -4.47344 0
M  V30 7536 C 709.108 1.51474 -3.96555 0
M  V30 7537 C 707.015 0.200272 -5.91061 0
M  V30 7538 H 705.945 0.182061 -0.73169 0
M  V30 7539 H 708.596 -0.256297 -1.81701 0
M  V30 7540 H 706.978 1.68984 -3.58135 0
M  V30 7541 H 708.152 -1.01967 -4.49377 0
M  V30 7542 H 706.467 -0.766484 -4.09285 0
M  V30 7543 H 709.064 1.85792 -5.01384 0
M  V30 7544 H 709.407 2.41163 -3.39332 0
M  V30 7545 H 709.94 0.789802 -3.89881 0
M  V30 7546 H 706.679 -0.661775 -6.52151 0
M  V30 7547 H 706.199 0.942979 -5.92341 0
M  V30 7548 H 707.878 0.645088 -6.43776 0
M  V30 7549 N 708.01 1.57248 0.105221 0
M  V30 7550 C 709.256 1.85845 0.811753 0
M  V30 7551 C 709.589 0.756219 1.78871 0
M  V30 7552 O 708.864 -0.236736 1.93054 0
M  V30 7553 C 709.147 3.25059 1.54947 0
M  V30 7554 C 709 4.45898 0.591185 0
M  V30 7555 C 710.319 3.6203 2.50245 0
M  V30 7556 H 707.438 0.675973 0.293649 0
M  V30 7557 H 710.08 1.89849 0.0756269 0
M  V30 7558 H 708.23 3.21776 2.17698 0
M  V30 7559 H 709.902 4.61291 -0.0285352 0
M  V30 7560 H 708.145 4.33693 -0.0962343 0
M  V30 7561 H 708.816 5.40009 1.1443 0
M  V30 7562 H 711.292 3.66192 1.97593 0
M  V30 7563 H 710.168 4.60389 2.98886 0
M  V30 7564 H 710.429 2.90176 3.33542 0
M  V30 7565 N 709.488 -0.375779 1.53054 0
M  V30 7566 C 710.438 -1.45965 1.75152 0
M  V30 7567 C 711.422 -1.49059 0.605823 0
M  V30 7568 O 712.614 -1.54472 0.864133 0
M  V30 7569 C 709.743 -2.83524 1.93569 0
M  V30 7570 C 708.829 -2.84949 3.1411 0
M  V30 7571 N 709.22 -2.56029 4.36214 0
M  V30 7572 C 707.518 -3.16113 3.14625 0
M  V30 7573 C 708.219 -2.64873 5.17897 0
M  V30 7574 N 707.195 -2.99159 4.53878 0
M  V30 7575 H 710.997 -1.22454 2.67175 0
M  V30 7576 H 708.511 -0.583867 1.51541 0
M  V30 7577 H 710.508 -3.61578 2.07525 0
M  V30 7578 H 709.168 -3.08008 1.02768 0
M  V30 7579 H 710.179 -2.29808 4.64121 0
M  V30 7580 H 706.856 -3.45977 2.3368 0
M  V30 7581 H 708.246 -2.45947 6.25268 0
M  V30 7582 N 710.966 -1.44241 -0.634997 0
M  V30 7583 C 712.382 -1.28043 -0.952742 0
M  V30 7584 C 712.582 -0.21338 -2.00367 0
M  V30 7585 O 711.638 0.402042 -2.49279 0
M  V30 7586 C 712.951 -2.65076 -1.41968 0
M  V30 7587 C 714.499 -2.72755 -1.53537 0
M  V30 7588 C 714.974 -4.10249 -2.03616 0
M  V30 7589 N 716.465 -4.12406 -2.10892 0
M  V30 7590 C 717.2 -5.15641 -2.50803 0
M  V30 7591 N 716.696 -6.29239 -2.89879 0
M  V30 7592 N 718.489 -5.02995 -2.50903 0
M  V30 7593 H 710.64 -2.12315 0.060098 0
M  V30 7594 H 712.903 -0.947326 -0.0357325 0
M  V30 7595 H 712.609 -3.44213 -0.721804 0
M  V30 7596 H 712.483 -2.91704 -2.39141 0
M  V30 7597 H 714.87 -1.93939 -2.22422 0
M  V30 7598 H 714.951 -2.49872 -0.547496 0
M  V30 7599 H 714.595 -4.8954 -1.35327 0
M  V30 7600 H 714.525 -4.30507 -3.03268 0
M  V30 7601 H 717.016 -3.30417 -1.83393 0
M  V30 7602 H 717.329 -7.03827 -3.19135 0
M  V30 7603 H 715.674 -6.32683 -2.8764 0
M  V30 7604 H 718.865 -4.13306 -2.19763 0
M  V30 7605 H 719.038 -5.83574 -2.81683 0
M  V30 7606 N 712.444 0.87505 -1.31075 0
M  V30 7607 C 713.721 1.60976 -1.11113 0
M  V30 7608 C 714.101 2.08409 0.336006 0
M  V30 7609 O 713.449 1.85858 1.32924 0
M  V30 7610 C 713.659 2.77166 -2.12085 0
M  V30 7611 C 715.007 3.47254 -2.44335 0
M  V30 7612 O 716.031 2.87367 -2.10472 0
M  V30 7613 O 714.89 4.55276 -3.02301 0
M  V30 7614 H 711.984 0.707982 -0.427424 0
M  V30 7615 H 714.53 0.920957 -1.42536 0
M  V30 7616 H 713.302 2.39494 -3.09449 0
M  V30 7617 H 712.925 3.53737 -1.81538 0
M  V30 7618 N 713.922 1.13953 1.08869 0
M  V30 7619 C 715.171 0.899431 1.80536 0
M  V30 7620 C 715.484 -0.575781 1.86933 0
M  V30 7621 O 716.69 -0.932988 2.54966 0
M  V30 7622 C 715.146 1.55963 3.24351 0
M  V30 7623 C 714.754 3.07077 3.26202 0
M  V30 7624 C 716.498 1.40046 4.00733 0
M  V30 7625 C 714.405 3.65955 4.64576 0
M  V30 7626 H 713.335 0.332849 0.676556 0
M  V30 7627 H 715.986 1.3679 1.22314 0
M  V30 7628 H 714.368 1.01883 3.82669 0
M  V30 7629 H 715.542 3.67785 2.77617 0
M  V30 7630 H 713.857 3.22576 2.63312 0
M  V30 7631 H 716.454 1.81441 5.02974 0
M  V30 7632 H 716.797 0.345993 4.1486 0
M  V30 7633 H 717.33 1.91137 3.48872 0
M  V30 7634 H 714.069 4.71234 4.55652 0
M  V30 7635 H 713.589 3.10027 5.13462 0
M  V30 7636 H 715.268 3.65968 5.33551 0
M  V30 7637 N 715.4 -1.26948 0.933913 0
M  V30 7638 C 716.347 -2.26635 0.436484 0
M  V30 7639 C 717.317 -1.58397 -0.499953 0
M  V30 7640 O 718.502 -1.86171 -0.417753 0
M  V30 7641 C 715.642 -3.43803 -0.298951 0
M  V30 7642 C 714.755 -4.26736 0.672316 0
M  V30 7643 C 713.89 -5.31134 -0.0835872 0
M  V30 7644 C 712.929 -6.05742 0.879979 0
M  V30 7645 N 712.066 -7.01926 0.156301 0
M  V30 7646 H 716.906 -2.68558 1.29154 0
M  V30 7647 H 714.443 -1.32052 0.648118 0
M  V30 7648 H 716.401 -4.10554 -0.741723 0
M  V30 7649 H 715.031 -3.02814 -1.1182 0
M  V30 7650 H 714.083 -3.59842 1.23361 0
M  V30 7651 H 715.395 -4.78502 1.40846 0
M  V30 7652 H 714.549 -6.03863 -0.585984 0
M  V30 7653 H 713.288 -4.80188 -0.852661 0
M  V30 7654 H 712.293 -5.31846 1.39357 0
M  V30 7655 H 713.518 -6.58777 1.64894 0
M  V30 7656 H 711.464 -6.53301 -0.594413 0
M  V30 7657 H 711.381 -7.51409 0.831906 0
M  V30 7658 H 712.649 -7.78821 -0.325239 0
M  V30 7659 N 716.879 -0.700114 -1.41195 0
M  V30 7660 C 718.127 -0.232546 -2.00758 0
M  V30 7661 C 718.448 1.1734 -1.55745 0
M  V30 7662 O 717.718 1.79262 -0.790058 0
M  V30 7663 H 716.298 -0.0829845 -0.742376 0
M  V30 7664 H 718.96 -0.902289 -1.72756 0
M  V30 7665 H 718.056 -0.253521 -3.11069 0
M  V30 7666 N 718.357 1.51182 -0.445186 0
M  V30 7667 C 719.32 2.26501 0.350722 0
M  V30 7668 C 720.32 1.3025 0.942952 0
M  V30 7669 O 721.51 1.53897 0.816175 0
M  V30 7670 C 718.642 3.06274 1.49697 0
M  V30 7671 H 719.835 2.98299 -0.309474 0
M  V30 7672 H 717.388 1.55034 -0.198551 0
M  V30 7673 H 718.123 2.38911 2.19299 0
M  V30 7674 H 717.908 3.76979 1.0784 0
M  V30 7675 H 719.398 3.63306 2.05909 0
M  V30 7676 N 719.835 0.176821 1.56605 0
M  V30 7677 C 720.783 -0.768159 2.1955 0
M  V30 7678 C 721.777 -1.23343 1.16116 0
M  V30 7679 O 722.983 -1.19844 1.34303 0
M  V30 7680 H 719.358 -0.266013 0.703378 0
M  V30 7681 H 721.329 -0.213374 2.97636 0
M  V30 7682 C 720.078 -1.98492 2.85475 0
M  V30 7683 H 719.401 -1.63595 3.64797 0
M  V30 7684 H 720.841 -2.62489 3.3298 0
M  V30 7685 C 719.3 -2.81207 1.85538 0
M  V30 7686 O 719.83 -3.7854 1.34427 0
M  V30 7687 N 718.036 -2.46331 1.54173 0
M  V30 7688 H 717.583 -1.67241 1.95929 0
M  V30 7689 H 717.541 -3.01961 0.875595 0
M  V30 7690 N 721.313 -1.57302 -0.09688 0
M  V30 7691 C 722.562 -1.85183 -0.799388 0
M  V30 7692 C 722.875 -0.765818 -1.79985 0
M  V30 7693 O 724.081 -0.931696 -2.55013 0
M  V30 7694 C 722.537 -3.28399 -1.47249 0
M  V30 7695 C 722.145 -4.45066 -0.511888 0
M  V30 7696 C 723.889 -3.65506 -2.15883 0
M  V30 7697 C 721.796 -5.79315 -1.18948 0
M  V30 7698 H 720.726 -0.690752 -0.302287 0
M  V30 7699 H 723.377 -1.83425 -0.0523104 0
M  V30 7700 H 721.759 -3.24692 -2.26697 0
M  V30 7701 H 722.933 -4.60116 0.250962 0
M  V30 7702 H 721.248 -4.16343 0.0686576 0
M  V30 7703 H 723.845 -4.63087 -2.67309 0
M  V30 7704 H 724.188 -2.94041 -2.94696 0
M  V30 7705 H 724.721 -3.71094 -1.43298 0
M  V30 7706 H 721.46 -6.54007 -0.442198 0
M  V30 7707 H 720.98 -5.68111 -1.9238 0
M  V30 7708 H 722.659 -6.23816 -1.71646 0
M  V30 7709 N 722.791 0.367657 -1.53252 0
M  V30 7710 C 723.721 1.45632 -1.8252 0
M  V30 7711 C 724.702 1.55979 -0.678568 0
M  V30 7712 O 725.887 1.70581 -0.928217 0
M  V30 7713 C 723.017 2.82994 -2.01325 0
M  V30 7714 C 721.971 2.87473 -3.17086 0
M  V30 7715 C 721.297 4.2749 -3.21179 0
M  V30 7716 C 722.597 2.55182 -4.55719 0
M  V30 7717 H 724.291 1.21387 -2.73689 0
M  V30 7718 H 721.837 0.58251 -1.31692 0
M  V30 7719 H 723.79 3.59179 -2.20383 0
M  V30 7720 H 722.514 3.08622 -1.06864 0
M  V30 7721 H 721.173 2.13739 -2.97844 0
M  V30 7722 H 720.821 4.5019 -2.24361 0
M  V30 7723 H 720.521 4.31403 -3.98955 0
M  V30 7724 H 722.045 5.0555 -3.42419 0
M  V30 7725 H 723.459 3.21081 -4.74953 0
M  V30 7726 H 721.856 2.70414 -5.3572 0
M  V30 7727 H 722.926 1.5044 -4.60973 0
M  V30 7728 N 724.269 1.44576 0.627338 0
M  V30 7729 C 725.685 1.28546 0.945938 0
M  V30 7730 C 725.885 0.224003 2.00251 0
M  V30 7731 O 724.941 -0.388817 2.49488 0
M  V30 7732 C 726.254 2.65825 1.40561 0
M  V30 7733 C 727.802 2.73566 1.52088 0
M  V30 7734 C 728.277 4.11323 2.01438 0
M  V30 7735 N 729.768 4.13519 2.08702 0
M  V30 7736 C 730.503 5.16964 2.48065 0
M  V30 7737 N 729.999 6.30768 2.86538 0
M  V30 7738 N 731.792 5.04319 2.48232 0
M  V30 7739 H 723.943 2.1228 -0.0713567 0
M  V30 7740 H 726.206 0.947503 0.0307081 0
M  V30 7741 H 725.912 3.44591 0.703539 0
M  V30 7742 H 725.786 2.92969 2.37591 0
M  V30 7743 H 728.173 1.95116 2.21391 0
M  V30 7744 H 728.254 2.50159 0.534237 0
M  V30 7745 H 727.898 4.9025 1.32729 0
M  V30 7746 H 727.828 4.32109 3.0098 0
M  V30 7747 H 730.319 3.31385 1.81638 0
M  V30 7748 H 730.632 7.0551 3.15398 0
M  V30 7749 H 728.977 6.342 2.84281 0
M  V30 7750 H 732.168 4.14465 2.17569 0
M  V30 7751 H 732.341 5.85059 2.78585 0
M  V30 7752 N 725.747 -0.868086 1.31537 0
M  V30 7753 C 727.024 -1.60384 1.11965 0
M  V30 7754 C 727.404 -2.08584 -0.324949 0
M  V30 7755 O 726.752 -1.86561 -1.31937 0
M  V30 7756 C 726.962 -2.76038 2.13551 0
M  V30 7757 C 728.31 -3.45954 2.46173 0
M  V30 7758 O 729.334 -2.86247 2.11993 0
M  V30 7759 O 728.193 -4.53666 3.04711 0
M  V30 7760 H 725.287 -0.705705 0.431172 0
M  V30 7761 H 727.833 -0.913385 1.43022 0
M  V30 7762 H 726.605 -2.37849 3.10714 0
M  V30 7763 H 726.228 -3.52769 1.83411 0
M  V30 7764 N 727.225 -1.14528 -1.08264 0
M  V30 7765 C 728.45 -0.938381 -1.84957 0
M  V30 7766 C 728.875 0.508044 -1.81109 0
M  V30 7767 O 728.233 1.36146 -1.19724 0
M  V30 7768 C 728.281 -1.44568 -3.30352 0
M  V30 7769 O 727.385 -0.638745 -4.07423 0
M  V30 7770 H 726.726 -0.335394 -0.573068 0
M  V30 7771 H 729.256 -1.52287 -1.36637 0
M  V30 7772 H 729.266 -1.45449 -3.81194 0
M  V30 7773 H 727.941 -2.49876 -3.32468 0
M  V30 7774 H 726.518 -0.698801 -3.66294 0
M  V30 7775 N 728.703 1.26451 -0.940633 0
M  V30 7776 C 729.931 1.97868 -0.604642 0
M  V30 7777 C 730.346 1.70051 0.820251 0
M  V30 7778 O 729.703 0.96843 1.54686 0
M  V30 7779 C 729.754 3.51684 -0.836689 0
M  V30 7780 O 729.475 3.78533 -2.20554 0
M  V30 7781 C 730.976 4.40343 -0.511169 0
M  V30 7782 H 728.196 0.631105 -0.227919 0
M  V30 7783 H 730.74 1.60979 -1.26119 0
M  V30 7784 H 728.895 3.86736 -0.226759 0
M  V30 7785 H 729.309 4.73065 -2.26517 0
M  V30 7786 H 730.783 5.47229 -0.724157 0
M  V30 7787 H 731.26 4.35694 0.553815 0
M  V30 7788 H 731.866 4.10834 -1.0998 0
M  V30 7789 N 730.181 0.707592 1.40822 0
M  V30 7790 C 731.429 0.243189 2.00632 0
M  V30 7791 C 731.75 -1.16512 1.56365 0
M  V30 7792 O 731.02 -1.78841 0.799553 0
M  V30 7793 H 729.6 0.0869203 0.741926 0
M  V30 7794 H 732.262 0.911438 1.72275 0
M  V30 7795 H 731.358 0.270014 3.1093 0
M  V30 7796 N 731.66 -1.50943 0.453197 0
M  V30 7797 C 732.608 -2.29728 -0.364419 0
M  V30 7798 C 733.602 -1.36246 -1.00664 0
M  V30 7799 O 734.808 -1.53518 -0.939794 0
M  V30 7800 H 731.183 -0.739536 -0.136347 0
M  V30 7801 H 733.154 -2.96672 0.320696 0
M  V30 7802 C 731.903 -3.1629 -1.44415 0
M  V30 7803 H 731.226 -3.88119 -0.959343 0
M  V30 7804 H 732.666 -3.74444 -1.98917 0
M  V30 7805 C 731.125 -2.32702 -2.43622 0
M  V30 7806 O 731.655 -1.99763 -3.48508 0
M  V30 7807 N 729.861 -1.95621 -2.14897 0
M  V30 7808 H 729.408 -2.22607 -1.29629 0
M  V30 7809 H 729.366 -1.39993 -2.81513 0
M  V30 7810 N 733.138 -0.185124 -1.56509 0
M  V30 7811 C 734.384 0.456934 -1.97585 0
M  V30 7812 C 734.717 1.61957 -1.07161 0
M  V30 7813 O 733.992 1.9412 -0.121546 0
M  V30 7814 C 734.275 0.926666 -3.47973 0
M  V30 7815 C 734.128 -0.237097 -4.49175 0
M  V30 7816 C 735.447 1.79561 -4.01803 0
M  V30 7817 H 732.566 0.164619 -0.71838 0
M  V30 7818 H 735.208 -0.274039 -1.88013 0
M  V30 7819 H 733.358 1.54954 -3.56261 0
M  V30 7820 H 735.03 -0.87454 -4.52934 0
M  V30 7821 H 733.273 -0.890446 -4.24563 0
M  V30 7822 H 733.944 0.133924 -5.51838 0
M  V30 7823 H 736.42 1.27039 -3.96232 0
M  V30 7824 H 735.296 2.09327 -5.07418 0
M  V30 7825 H 735.557 2.74629 -3.46455 0
M  V30 7826 N 734.616 1.57351 0.0885366 0
M  V30 7827 C 735.563 2.02523 1.10693 0
M  V30 7828 C 736.533 0.902736 1.39427 0
M  V30 7829 O 737.718 1.16921 1.50779 0
M  V30 7830 C 734.858 2.46013 2.42016 0
M  V30 7831 C 733.971 3.7181 2.19957 0
M  V30 7832 C 733.106 4.04152 3.44724 0
M  V30 7833 C 732.145 5.2304 3.17956 0
M  V30 7834 N 731.282 5.51102 4.35007 0
M  V30 7835 H 736.122 2.89302 0.714742 0
M  V30 7836 H 733.659 1.43084 0.341378 0
M  V30 7837 H 735.617 2.69274 3.18665 0
M  V30 7838 H 734.247 1.62235 2.79069 0
M  V30 7839 H 733.299 3.55987 1.34079 0
M  V30 7840 H 734.611 4.58604 1.96173 0
M  V30 7841 H 733.765 4.28225 4.29777 0
M  V30 7842 H 732.504 3.15893 3.71568 0
M  V30 7843 H 731.509 4.98781 2.31296 0
M  V30 7844 H 732.734 6.12902 2.92451 0
M  V30 7845 H 730.68 4.65802 4.61914 0
M  V30 7846 H 730.597 6.3228 4.14437 0
M  V30 7847 H 731.865 5.79714 5.21106 0
M  V30 7848 N 736.094 -0.359525 1.53444 0
M  V30 7849 C 737.024 -1.44662 1.8329 0
M  V30 7850 C 738.005 -1.55617 0.68683 0
M  V30 7851 O 739.19 -1.70086 0.93725 0
M  V30 7852 C 736.32 -2.81923 2.02822 0
M  V30 7853 C 735.274 -2.85787 3.18606 0
M  V30 7854 C 734.6 -4.25781 3.23442 0
M  V30 7855 C 735.9 -2.52762 4.57065 0
M  V30 7856 H 737.594 -1.19934 2.74329 0
M  V30 7857 H 735.14 -0.575517 1.31999 0
M  V30 7858 H 737.093 -3.58005 2.22285 0
M  V30 7859 H 735.817 -3.08051 1.085 0
M  V30 7860 H 734.476 -2.12157 2.98973 0
M  V30 7861 H 734.124 -4.48994 2.26745 0
M  V30 7862 H 733.824 -4.29281 4.01238 0
M  V30 7863 H 735.348 -5.03727 3.45096 0
M  V30 7864 H 736.762 -3.18557 4.76649 0
M  V30 7865 H 735.159 -2.67569 5.37147 0
M  V30 7866 H 736.229 -1.47993 4.61764 0
M  V30 7867 N 737.572 -1.44907 -0.619662 0
M  V30 7868 C 738.82 -1.47999 -1.37625 0
M  V30 7869 C 739.141 -0.118295 -1.94641 0
M  V30 7870 O 738.411 0.85086 -1.76457 0
M  V30 7871 H 736.991 -0.544993 -0.510873 0
M  V30 7872 H 739.653 -1.80772 -0.728522 0
M  V30 7873 H 738.749 -2.21196 -2.20179 0
M  V30 7874 N 739.05 0.861098 -1.31996 0
M  V30 7875 C 740.327 1.59788 -1.12814 0
M  V30 7876 C 740.707 2.08753 0.313882 0
M  V30 7877 O 740.055 1.87258 1.30946 0
M  V30 7878 C 740.265 2.74901 -2.15012 0
M  V30 7879 C 741.613 3.44643 -2.48004 0
M  V30 7880 O 742.637 2.85119 -2.13508 0
M  V30 7881 O 741.496 4.52044 -3.07113 0
M  V30 7882 H 738.59 0.703408 -0.434909 0
M  V30 7883 H 741.136 0.905788 -1.43505 0
M  V30 7884 H 739.908 2.36198 -3.11971 0
M  V30 7885 H 739.531 3.51792 -1.85279 0
M  V30 7886 N 740.528 1.15101 1.07655 0
M  V30 7887 C 741.775 0.923974 1.80191 0
M  V30 7888 C 742.103 -0.549065 1.86589 0
M  V30 7889 O 741.358 -1.42307 1.3434 0
M  V30 7890 C 741.657 1.47954 3.25337 0
M  V30 7891 C 741.323 2.97253 3.39044 0
M  V30 7892 C 739.985 3.38012 3.42493 0
M  V30 7893 C 742.337 3.93219 3.42094 0
M  V30 7894 C 739.665 4.73384 3.4659 0
M  V30 7895 C 742.017 5.28458 3.47728 0
M  V30 7896 C 740.681 5.68717 3.49453 0
M  V30 7897 H 739.951 0.338106 0.659367 0
M  V30 7898 H 742.598 1.43594 1.26701 0
M  V30 7899 H 740.903 0.888691 3.81588 0
M  V30 7900 H 742.6 1.27972 3.80032 0
M  V30 7901 H 739.19 2.64746 3.37057 0
M  V30 7902 H 743.374 3.62805 3.38654 0
M  V30 7903 H 738.63 5.03925 3.46222 0
M  V30 7904 H 742.804 6.02618 3.49034 0
M  V30 7905 H 740.431 6.73596 3.5238 0
M  V30 7906 N 742.006 -1.2595 0.947325 0
M  V30 7907 C 743.254 -1.93081 0.596996 0
M  V30 7908 C 743.575 -1.74632 -0.867672 0
M  V30 7909 O 742.845 -1.1056 -1.6172 0
M  V30 7910 H 741.425 -0.714542 0.217805 0
M  V30 7911 H 744.087 -1.53265 1.20398 0
M  V30 7912 H 743.183 -3.01134 0.82004 0
M  V30 7913 N 743.484 -0.715051 -1.40445 0
M  V30 7914 C 744.447 -0.0708726 -2.2909 0
M  V30 7915 C 745.447 0.687926 -1.45342 0
M  V30 7916 O 746.637 0.519908 -1.66261 0
M  V30 7917 C 743.769 0.909528 -3.28543 0
M  V30 7918 H 744.962 -0.851611 -2.87555 0
M  V30 7919 H 742.515 -0.479674 -1.48758 0
M  V30 7920 H 743.25 1.71734 -2.75096 0
M  V30 7921 H 743.035 0.368318 -3.90366 0
M  V30 7922 H 744.525 1.35744 -3.94922 0
M  V30 7923 N 744.962 1.50701 -0.461195 0
M  V30 7924 C 746.187 2.07171 0.0974773 0
M  V30 7925 C 746.612 1.32391 1.3362 0
M  V30 7926 O 745.97 0.368676 1.77512 0
M  V30 7927 C 746.018 3.58651 0.374409 0
M  V30 7928 O 745.122 3.85816 1.4567 0
M  V30 7929 H 744.463 0.663944 -0.00862047 0
M  V30 7930 H 746.993 1.94021 -0.649394 0
M  V30 7931 H 747.003 4.03295 0.617843 0
M  V30 7932 H 745.678 4.12498 -0.530829 0
M  V30 7933 H 744.255 3.53018 1.20136 0
M  V30 7934 N 746.441 0.193421 1.56409 0
M  V30 7935 C 747.388 -0.728124 2.19014 0
M  V30 7936 C 748.358 -1.21098 1.13686 0
M  V30 7937 O 749.543 -1.27517 1.4193 0
M  V30 7938 C 746.683 -1.94277 2.8522 0
M  V30 7939 C 745.796 -1.50143 4.05069 0
M  V30 7940 C 744.931 -2.67145 4.59137 0
M  V30 7941 C 743.97 -2.19609 5.71348 0
M  V30 7942 N 743.107 -3.29782 6.19829 0
M  V30 7943 H 747.947 -0.187499 2.9741 0
M  V30 7944 H 745.484 -0.0808064 1.46878 0
M  V30 7945 H 747.442 -2.65551 3.21774 0
M  V30 7946 H 746.072 -2.45673 2.09391 0
M  V30 7947 H 745.124 -0.684624 3.74189 0
M  V30 7948 H 746.436 -1.11266 4.86232 0
M  V30 7949 H 745.59 -3.46544 4.97988 0
M  V30 7950 H 744.329 -3.09295 3.77078 0
M  V30 7951 H 743.334 -1.38664 5.32027 0
M  V30 7952 H 744.559 -1.78492 6.55223 0
M  V30 7953 H 742.505 -3.71466 5.40693 0
M  V30 7954 H 742.422 -2.95069 6.96039 0
M  V30 7955 H 743.69 -4.094 6.63334 0
M  V30 7956 N 747.919 -1.57396 -0.0801906 0
M  V30 7957 C 749.335 -1.53564 -0.434778 0
M  V30 7958 C 749.535 -0.912372 -1.79661 0
M  V30 7959 O 748.591 -0.511268 -2.4727 0
M  V30 7960 C 749.904 -2.98244 -0.383561 0
M  V30 7961 C 751.452 -3.09536 -0.46435 0
M  V30 7962 C 751.927 -4.55851 -0.443128 0
M  V30 7963 N 753.418 -4.60456 -0.503448 0
M  V30 7964 C 754.153 -5.71135 -0.509106 0
M  V30 7965 N 753.649 -6.91203 -0.47008 0
M  V30 7966 N 755.442 -5.59353 -0.555035 0
M  V30 7967 H 747.593 -1.96281 0.811635 0
M  V30 7968 H 749.856 -0.898041 0.303689 0
M  V30 7969 H 749.562 -3.47369 0.550236 0
M  V30 7970 H 749.436 -3.57705 -1.19694 0
M  V30 7971 H 751.823 -2.6039 -1.38857 0
M  V30 7972 H 751.904 -2.53 0.377445 0
M  V30 7973 H 751.548 -5.05653 0.477207 0
M  V30 7974 H 751.478 -5.10242 -1.30234 0
M  V30 7975 H 753.969 -3.74048 -0.538199 0
M  V30 7976 H 754.282 -7.7132 -0.478091 0
M  V30 7977 H 752.627 -6.93625 -0.436897 0
M  V30 7978 H 755.818 -4.64453 -0.583158 0
M  V30 7979 H 755.991 -6.4561 -0.555976 0
M  V30 7980 N 749.397 0.351382 -1.53633 0
M  V30 7981 C 750.327 1.43688 -1.84055 0
M  V30 7982 C 751.308 1.55251 -0.695073 0
M  V30 7983 O 752.493 1.69587 -0.946257 0
M  V30 7984 C 749.623 2.80843 -2.04315 0
M  V30 7985 C 748.577 2.84094 -3.20117 0
M  V30 7986 C 747.903 4.2406 -3.25696 0
M  V30 7987 C 749.203 2.50334 -4.58399 0
M  V30 7988 H 750.897 1.18478 -2.74961 0
M  V30 7989 H 748.443 0.568509 -1.32303 0
M  V30 7990 H 750.396 3.56821 -2.2418 0
M  V30 7991 H 749.12 3.07471 -1.10132 0
M  V30 7992 H 747.779 2.10568 -3.00094 0
M  V30 7993 H 747.427 4.47785 -2.29123 0
M  V30 7994 H 747.127 4.27147 -4.03509 0
M  V30 7995 H 748.651 5.0189 -3.47762 0
M  V30 7996 H 750.065 3.16025 -4.78332 0
M  V30 7997 H 748.462 2.64717 -5.38558 0
M  V30 7998 H 749.532 1.45542 -4.62543 0
M  V30 7999 N 750.875 1.45233 0.611969 0
M  V30 8000 C 751.807 1.49575 1.73666 0
M  V30 8001 C 752.82 0.386987 1.58134 0
M  V30 8002 O 754.009 0.653804 1.66095 0
M  V30 8003 C 751.109 1.33223 3.11617 0
M  V30 8004 C 750.282 2.57694 3.5343 0
M  V30 8005 C 749.341 2.35962 4.70328 0
M  V30 8006 O 748.367 3.09553 4.77667 0
M  V30 8007 N 749.569 1.40243 5.63305 0
M  V30 8008 H 752.334 2.46539 1.70407 0
M  V30 8009 H 749.895 1.40917 0.79712 0
M  V30 8010 H 751.887 1.16502 3.87569 0
M  V30 8011 H 750.457 0.44551 3.09409 0
M  V30 8012 H 749.677 2.8956 2.67486 0
M  V30 8013 H 750.965 3.40441 3.78124 0
M  V30 8014 H 750.363 0.795023 5.60086 0
M  V30 8015 H 748.92 1.29496 6.38807 0
M  V30 8016 N 752.353 -0.854086 1.3245 0
M  V30 8017 C 753.581 -1.64074 1.26045 0
M  V30 8018 C 753.996 -1.8802 -0.171456 0
M  V30 8019 O 753.353 -1.4496 -1.10873 0
M  V30 8020 C 753.404 -2.9997 2.01743 0
M  V30 8021 O 753.125 -2.77084 3.39346 0
M  V30 8022 C 754.626 -3.94414 2.02368 0
M  V30 8023 H 751.846 -0.511015 0.434862 0
M  V30 8024 H 754.39 -1.06494 1.74583 0
M  V30 8025 H 752.545 -3.54193 1.56926 0
M  V30 8026 H 752.959 -3.63514 3.78098 0
M  V30 8027 H 754.433 -4.87032 2.59815 0
M  V30 8028 H 754.91 -4.27427 1.01009 0
M  V30 8029 H 755.516 -3.46127 2.47135 0
M  V30 8030 N 753.831 -1.1567 -1.07043 0
M  V30 8031 C 755.08 -0.928039 -1.79082 0
M  V30 8032 C 755.393 0.545968 -1.87826 0
M  V30 8033 O 756.599 0.892308 -2.56418 0
M  V30 8034 C 755.055 -1.61103 -3.21829 0
M  V30 8035 C 754.663 -3.12228 -3.21275 0
M  V30 8036 C 756.407 -1.46404 -3.98455 0
M  V30 8037 C 754.314 -3.733 -4.58695 0
M  V30 8038 H 753.244 -0.34357 -0.671175 0
M  V30 8039 H 755.895 -1.38718 -1.20123 0
M  V30 8040 H 754.277 -1.07958 -3.81 0
M  V30 8041 H 755.451 -3.72155 -2.71731 0
M  V30 8042 H 753.766 -3.26725 -2.58147 0
M  V30 8043 H 756.363 -1.8942 -5.00024 0
M  V30 8044 H 756.706 -0.41195 -4.14257 0
M  V30 8045 H 757.239 -1.96663 -3.45787 0
M  V30 8046 H 753.978 -4.78423 -4.48098 0
M  V30 8047 H 753.498 -3.18157 -5.08465 0
M  V30 8048 H 755.177 -3.7441 -5.27661 0
M  V30 8049 N 755.309 1.25446 -0.953992 0
M  V30 8050 C 756.549 1.94894 -0.616087 0
M  V30 8051 C 756.913 1.73067 0.831374 0
M  V30 8052 O 758.114 2.3643 1.27884 0
M  V30 8053 C 756.385 3.44147 -0.964225 0
M  V30 8054 S 757.944 4.32536 -0.738798 0
M  V30 8055 H 754.762 0.673967 -0.226472 0
M  V30 8056 H 757.364 1.52117 -1.22803 0
M  V30 8057 H 756.068 3.57537 -2.01484 0
M  V30 8058 H 755.599 3.91906 -0.342507 0
M  V30 8059 H 757.614 4.94659 0.390732 0
M  V30 8060 N 756.787 0.722489 1.40064 0
M  V30 8061 C 757.717 0.0892452 2.33329 0
M  V30 8062 C 758.698 -0.737992 1.53257 0
M  V30 8063 O 759.883 -0.685516 1.81698 0
M  V30 8064 C 757.013 -0.828139 3.37282 0
M  V30 8065 C 755.967 -0.106005 4.27869 0
M  V30 8066 C 755.293 -1.13957 5.22415 0
M  V30 8067 C 756.593 1.04395 5.11761 0
M  V30 8068 H 758.287 0.868269 2.86534 0
M  V30 8069 H 755.833 0.418982 1.3777 0
M  V30 8070 H 757.786 -1.28058 4.01471 0
M  V30 8071 H 756.51 -1.63914 2.82489 0
M  V30 8072 H 755.169 0.326683 3.65142 0
M  V30 8073 H 754.817 -1.9438 4.63924 0
M  V30 8074 H 754.517 -0.661233 5.83868 0
M  V30 8075 H 756.041 -1.59197 5.89482 0
M  V30 8076 H 757.455 0.670541 5.69365 0
M  V30 8077 H 755.852 1.4511 5.82291 0
M  V30 8078 H 756.922 1.87144 4.47331 0
M  V30 8079 N 758.265 -1.50454 0.469181 0
M  V30 8080 C 759.49 -2.0722 -0.0864892 0
M  V30 8081 C 759.915 -1.33098 -1.32916 0
M  V30 8082 O 759.273 -0.378084 -1.77314 0
M  V30 8083 C 759.321 -3.58845 -0.355384 0
M  V30 8084 O 758.425 -3.86583 -1.43622 0
M  V30 8085 H 757.766 -0.663889 0.0121414 0
M  V30 8086 H 760.296 -1.93674 0.659674 0
M  V30 8087 H 760.306 -4.03617 -0.596447 0
M  V30 8088 H 758.981 -4.12211 0.552698 0
M  V30 8089 H 757.558 -3.5365 -1.18262 0
M  V30 8090 N 759.743 -0.201713 -1.56304 0
M  V30 8091 C 760.991 0.434447 -1.97375 0
M  V30 8092 C 761.312 1.61692 -1.08998 0
M  V30 8093 O 760.582 1.95223 -0.162682 0
M  V30 8094 H 759.162 0.163497 -0.728888 0
M  V30 8095 H 761.824 -0.289988 -1.92731 0
M  V30 8096 H 760.92 0.774136 -3.02347 0
M  V30 8097 N 761.222 1.57436 0.0718424 0
M  V30 8098 C 762.45 1.91474 0.783932 0
M  V30 8099 C 762.865 0.797669 1.71122 0
M  V30 8100 O 762.222 -0.228989 1.81058 0
M  V30 8101 C 762.273 3.25259 1.57761 0
M  V30 8102 O 761.994 4.3267 0.687596 0
M  V30 8103 C 763.495 3.7331 2.3907 0
M  V30 8104 H 760.715 0.632901 0.222885 0
M  V30 8105 H 763.259 2.04457 0.0421262 0
M  V30 8106 H 761.414 3.13804 2.27169 0
M  V30 8107 H 761.828 5.09641 1.23962 0
M  V30 8108 H 763.302 4.69551 2.90216 0
M  V30 8109 H 763.779 3.02318 3.18591 0
M  V30 8110 H 764.385 3.8771 1.74818 0
M  V30 8111 N 762.7 -0.34323 1.53817 0
M  V30 8112 C 763.948 -1.0813 1.70741 0
M  V30 8113 C 764.269 -1.89165 0.473461 0
M  V30 8114 O 763.539 -1.89075 -0.512605 0
M  V30 8115 H 762.119 -0.40219 0.629486 0
M  V30 8116 H 764.781 -0.384426 1.91071 0
M  V30 8117 H 763.877 -1.7585 2.57843 0
M  V30 8118 N 764.178 -1.45556 -0.604258 0
M  V30 8119 C 765.111 -1.48975 -1.72863 0
M  V30 8120 C 766.089 -0.345803 -1.5888 0
M  V30 8121 O 767.273 -0.546796 -1.80395 0
M  V30 8122 C 764.4 -1.34794 -3.10722 0
M  V30 8123 C 763.446 -2.53096 -3.43285 0
M  V30 8124 S 764.279 -4.15551 -3.37754 0
M  V30 8125 C 765.435 -4.03842 -4.78187 0
M  V30 8126 H 765.668 -2.44108 -1.69701 0
M  V30 8127 H 763.201 -1.33179 -0.781194 0
M  V30 8128 H 765.159 -1.273 -3.90263 0
M  V30 8129 H 763.82 -0.411254 -3.11396 0
M  V30 8130 H 763.013 -2.39109 -4.4367 0
M  V30 8131 H 762.615 -2.57469 -2.71267 0
M  V30 8132 H 764.907 -3.69191 -5.6807 0
M  V30 8133 H 765.85 -5.0415 -4.97231 0
M  V30 8134 H 766.258 -3.35443 -4.54025 0
M  V30 8135 N 765.656 0.84705 -1.32902 0
M  V30 8136 C 766.603 1.95624 -1.22473 0
M  V30 8137 C 767.573 1.65767 -0.105178 0
M  V30 8138 O 768.758 1.88704 -0.282042 0
M  V30 8139 C 765.898 3.31434 -0.961542 0
M  V30 8140 C 765.011 3.73741 -2.1666 0
M  V30 8141 C 764.146 4.98379 -1.83825 0
M  V30 8142 C 763.185 5.33199 -3.00609 0
M  V30 8143 N 762.322 6.49014 -2.67816 0
M  V30 8144 H 767.162 2.03875 -2.17345 0
M  V30 8145 H 764.699 0.997764 -1.08088 0
M  V30 8146 H 766.657 4.09663 -0.789411 0
M  V30 8147 H 765.287 3.22762 -0.0495938 0
M  V30 8148 H 764.339 2.91102 -2.44875 0
M  V30 8149 H 765.651 3.95462 -3.03993 0
M  V30 8150 H 764.805 5.84336 -1.63208 0
M  V30 8151 H 763.544 4.78611 -0.937172 0
M  V30 8152 H 762.549 4.4575 -3.21849 0
M  V30 8153 H 763.774 5.5492 -3.9146 0
M  V30 8154 H 761.72 6.30748 -1.80258 0
M  V30 8155 H 761.637 6.7079 -3.48679 0
M  V30 8156 H 762.905 7.38103 -2.50647 0
M  V30 8157 N 767.134 1.16236 1.06428 0
M  V30 8158 C 768.359 0.967688 1.83441 0
M  V30 8159 C 768.784 -0.479167 1.81894 0
M  V30 8160 O 768.142 -1.34224 1.21875 0
M  V30 8161 C 768.19 1.49806 3.2801 0
M  V30 8162 O 767.294 0.703481 4.06356 0
M  V30 8163 H 766.635 0.344468 0.56766 0
M  V30 8164 H 769.165 1.54442 1.34197 0
M  V30 8165 H 769.175 1.51495 3.78831 0
M  V30 8166 H 767.85 2.55133 3.2845 0
M  V30 8167 H 766.427 0.756986 3.65136 0
M  V30 8168 N 768.612 -1.24939 0.960631 0
M  V30 8169 C 769.858 -1.93104 0.61958 0
M  V30 8170 C 770.191 -1.74991 -0.84212 0
M  V30 8171 O 769.466 -1.09867 -1.60498 0
M  V30 8172 C 769.749 -3.46326 0.986422 0
M  V30 8173 C 769.602 -3.73638 2.50429 0
M  V30 8174 C 770.921 -4.37067 0.515827 0
M  V30 8175 H 768.04 -0.701311 0.226566 0
M  V30 8176 H 770.682 -1.47442 1.19836 0
M  V30 8177 H 768.832 -3.85348 0.493907 0
M  V30 8178 H 770.504 -3.44217 3.07103 0
M  V30 8179 H 768.747 -3.19035 2.93937 0
M  V30 8180 H 769.418 -4.80815 2.71147 0
M  V30 8181 H 771.894 -4.05381 0.938389 0
M  V30 8182 H 770.77 -5.43022 0.80114 0
M  V30 8183 H 771.031 -4.38224 -0.584171 0
M  V30 8184 N 770.09 -0.729906 -1.39679 0
M  V30 8185 C 771.318 -0.285709 -2.04918 0
M  V30 8186 C 771.733 1.07765 -1.55023 0
M  V30 8187 O 771.09 1.67999 -0.712923 0
M  V30 8188 C 771.141 -0.272793 -3.60469 0
M  V30 8189 O 770.862 -1.58233 -4.08527 0
M  V30 8190 C 772.363 0.188199 -4.429 0
M  V30 8191 H 769.583 -0.125758 -0.65911 0
M  V30 8192 H 772.127 -0.992129 -1.78821 0
M  V30 8193 H 770.282 0.384699 -3.85485 0
M  V30 8194 H 770.696 -1.49245 -5.02818 0
M  V30 8195 H 772.17 0.14608 -5.51807 0
M  V30 8196 H 772.647 1.2326 -4.21549 0
M  V30 8197 H 773.253 -0.439541 -4.23023 0
M  V30 8198 N 771.568 1.50203 -0.477153 0
M  V30 8199 C 772.816 2.01959 0.0755889 0
M  V30 8200 C 773.137 1.3608 1.39668 0
M  V30 8201 O 772.407 0.508136 1.89195 0
M  V30 8202 H 770.987 0.74636 0.0309248 0
M  V30 8203 H 773.649 1.84473 -0.628959 0
M  V30 8204 H 772.745 3.11305 0.222683 0
M  V30 8205 N 773.046 0.209999 1.56195 0
M  V30 8206 C 774.274 -0.429996 2.02382 0
M  V30 8207 C 774.689 -1.54159 1.08998 0
M  V30 8208 O 774.046 -1.82239 0.0974856 0
M  V30 8209 C 774.097 -0.972433 3.48175 0
M  V30 8210 O 773.818 0.0948231 4.37997 0
M  V30 8211 C 775.319 -1.68683 4.09952 0
M  V30 8212 H 772.539 -0.106475 0.662498 0
M  V30 8213 H 775.083 0.323072 2.01932 0
M  V30 8214 H 773.238 -1.67582 3.49278 0
M  V30 8215 H 773.652 -0.31113 5.23576 0
M  V30 8216 H 775.126 -2.01851 5.13771 0
M  V30 8217 H 775.603 -2.59587 3.54276 0
M  V30 8218 H 776.209 -1.02893 4.12666 0
M  V30 8219 N 774.524 -1.57472 -0.0634922 0
M  V30 8220 C 775.935 -1.76303 -0.614337 0
M  V30 8221 C 776.286 -0.836578 -1.77471 0
M  V30 8222 O 775.411 -0.0227184 -2.16388 0
M  V30 8223 C 776.006 -3.19709 -1.12122 0
M  V30 8224 C 774.565 -3.39856 -1.61786 0
M  V30 8225 C 773.712 -2.71975 -0.540845 0
M  V30 8226 H 776.663 -1.57864 0.162702 0
M  V30 8227 H 776.684 -3.24326 -1.98979 0
M  V30 8228 H 776.196 -3.87114 -0.276472 0
M  V30 8229 H 774.297 -2.77578 -2.48558 0
M  V30 8230 H 774.41 -4.48338 -1.68908 0
M  V30 8231 H 772.774 -2.34763 -0.987854 0
M  V30 8232 H 773.557 -3.4204 0.293856 0
M  V30 8233 N 776.003 0.335068 -1.53997 0
M  V30 8234 C 777.233 1.0926 -1.75345 0
M  V30 8235 C 777.641 1.82568 -0.496545 0
M  V30 8236 O 776.984 1.75525 0.541897 0
M  V30 8237 C 777.046 2.14473 -2.88516 0
M  V30 8238 C 776.71 1.60665 -4.27827 0
M  V30 8239 C 777.707 1.05448 -5.09094 0
M  V30 8240 C 775.392 1.65255 -4.74337 0
M  V30 8241 C 777.386 0.555372 -6.34976 0
M  V30 8242 C 775.073 1.14956 -6.0019 0
M  V30 8243 C 776.071 0.601907 -6.80343 0
M  V30 8244 O 775.759 0.106445 -8.0383 0
M  V30 8245 H 775.491 0.331329 -0.589234 0
M  V30 8246 H 778.045 0.39042 -2.01655 0
M  V30 8247 H 776.275 2.88274 -2.5775 0
M  V30 8248 H 777.964 2.75857 -2.97755 0
M  V30 8249 H 778.73 1.01218 -4.74321 0
M  V30 8250 H 774.609 2.06822 -4.12002 0
M  V30 8251 H 778.153 0.127245 -6.97484 0
M  V30 8252 H 774.05 1.18891 -6.34457 0
M  V30 8253 H 774.818 0.222944 -8.18196 0
M  V30 8254 N 777.481 1.45874 0.596531 0
M  V30 8255 C 778.727 1.51679 1.35518 0
M  V30 8256 C 779.082 0.160681 1.91728 0
M  V30 8257 O 778.375 -0.828886 1.72743 0
M  V30 8258 C 778.569 2.54034 2.51399 0
M  V30 8259 C 778.398 3.99465 2.06538 0
M  V30 8260 C 777.168 4.67321 1.92196 0
M  V30 8261 C 779.366 4.87674 1.63336 0
M  V30 8262 N 777.348 5.97427 1.41261 0
M  V30 8263 C 778.719 6.07495 1.23895 0
M  V30 8264 C 780.774 4.74442 1.51028 0
M  V30 8265 C 779.477 7.15548 0.733739 0
M  V30 8266 C 781.503 5.82553 1.0191 0
M  V30 8267 C 780.865 7.01537 0.634403 0
M  V30 8268 H 776.964 0.609933 0.489393 0
M  V30 8269 H 779.548 1.82411 0.680746 0
M  V30 8270 H 777.719 2.25235 3.16424 0
M  V30 8271 H 779.451 2.49918 3.18313 0
M  V30 8272 H 776.206 4.22635 2.1372 0
M  V30 8273 H 776.63 6.66638 1.17995 0
M  V30 8274 H 781.272 3.82855 1.79393 0
M  V30 8275 H 778.99 8.06914 0.437656 0
M  V30 8276 H 782.576 5.74352 0.927977 0
M  V30 8277 H 781.456 7.83768 0.26019 0
M  V30 8278 N 778.959 -0.83999 1.33349 0
M  V30 8279 C 779.892 -1.95415 1.17848 0
M  V30 8280 C 780.87 -1.6243 0.0742296 0
M  V30 8281 O 782.054 -1.87014 0.23626 0
M  V30 8282 C 779.181 -3.28938 0.807295 0
M  V30 8283 C 778.227 -3.80895 1.91888 0
M  V30 8284 S 779.06 -4.02709 3.52967 0
M  V30 8285 C 780.216 -5.39185 3.17853 0
M  V30 8286 H 780.449 -2.08265 2.12162 0
M  V30 8287 H 777.982 -0.993643 1.18178 0
M  V30 8288 H 779.94 -4.06093 0.599914 0
M  V30 8289 H 778.601 -3.13881 -0.117234 0
M  V30 8290 H 777.794 -4.77508 1.6125 0
M  V30 8291 H 777.396 -3.10633 2.08286 0
M  V30 8292 H 779.688 -6.21978 2.68608 0
M  V30 8293 H 780.631 -5.74795 4.13542 0
M  V30 8294 H 781.039 -5.03885 2.5448 0
M  V30 8295 N 780.437 -1.16799 -1.0581 0
M  V30 8296 C 781.662 -0.977402 -1.82925 0
M  V30 8297 C 782.087 0.469514 -1.82146 0
M  V30 8298 O 781.445 1.33576 -1.22585 0
M  V30 8299 C 781.493 -1.51543 -3.27211 0
M  V30 8300 O 780.597 -0.725021 -4.05977 0
M  V30 8301 H 779.938 -0.347474 -0.565825 0
M  V30 8302 H 782.468 -1.55151 -1.33376 0
M  V30 8303 H 782.478 -1.53502 -3.78023 0
M  V30 8304 H 781.153 -2.56872 -3.27093 0
M  V30 8305 H 779.73 -0.77634 -3.64729 0
M  V30 8306 N 781.915 1.24427 -0.967243 0
M  V30 8307 C 783.326 1.74349 -0.667785 0
M  V30 8308 C 783.677 1.78403 0.816509 0
M  V30 8309 O 782.802 1.41315 1.63887 0
M  V30 8310 C 783.397 3.16628 -1.20548 0
M  V30 8311 C 781.956 3.64059 -0.955934 0
M  V30 8312 C 781.103 2.42715 -1.34106 0
M  V30 8313 H 784.054 1.10136 -1.14262 0
M  V30 8314 H 784.075 3.76183 -0.571547 0
M  V30 8315 H 783.587 3.13646 -2.28578 0
M  V30 8316 H 781.688 3.72441 0.108858 0
M  V30 8317 H 781.801 4.51549 -1.60126 0
M  V30 8318 H 780.165 2.43114 -0.759452 0
M  V30 8319 H 780.948 2.42414 -2.43085 0
M  V30 8320 N 783.393 0.737304 1.3929 0
M  V30 8321 C 784.303 0.100464 2.34385 0
M  V30 8322 C 785.319 -0.719282 1.58437 0
M  V30 8323 O 786.495 -0.647216 1.90717 0
M  V30 8324 C 783.56 -0.794325 3.37478 0
M  V30 8325 C 782.621 0.0379345 4.29283 0
M  V30 8326 C 781.854 -0.814241 5.27452 0
M  V30 8327 O 782.077 -2.05288 5.32177 0
M  V30 8328 O 781.011 -0.241679 6.01415 0
M  V30 8329 H 784.837 0.885407 2.90507 0
M  V30 8330 H 782.422 0.497999 1.40856 0
M  V30 8331 H 784.304 -1.30622 4.00644 0
M  V30 8332 H 782.979 -1.55804 2.83737 0
M  V30 8333 H 781.886 0.595405 3.69331 0
M  V30 8334 H 783.219 0.763926 4.86236 0
M  V30 8335 N 784.871 -1.49948 0.485112 0
M  V30 8336 C 786.117 -2.02695 -0.0651022 0
M  V30 8337 C 786.45 -1.36534 -1.38102 0
M  V30 8338 O 785.725 -0.495677 -1.88078 0
M  V30 8339 C 786.008 -3.59337 -0.234285 0
M  V30 8340 C 785.861 -4.3605 1.10364 0
M  V30 8341 C 787.18 -4.28996 -0.982351 0
M  V30 8342 H 784.299 -0.736666 -0.0221856 0
M  V30 8343 H 786.941 -1.7913 0.633433 0
M  V30 8344 H 785.091 -3.79546 -0.829262 0
M  V30 8345 H 786.763 -4.27377 1.73627 0
M  V30 8346 H 785.006 -3.99236 1.69686 0
M  V30 8347 H 785.677 -5.43959 0.938743 0
M  V30 8348 H 788.153 -4.13346 -0.477904 0
M  V30 8349 H 787.029 -5.38379 -1.06955 0
M  V30 8350 H 787.29 -3.93135 -2.02231 0
M  V30 8351 N 786.349 -0.21828 -1.56081 0
M  V30 8352 C 787.598 0.414644 -1.97392 0
M  V30 8353 C 787.911 1.61132 -1.10887 0
M  V30 8354 O 789.117 2.31355 -1.42082 0
M  V30 8355 C 787.573 0.789099 -3.51143 0
M  V30 8356 C 787.181 -0.384578 -4.46346 0
M  V30 8357 C 788.925 1.38781 -4.01173 0
M  V30 8358 C 786.832 0.0121288 -5.91399 0
M  V30 8359 H 785.762 0.158691 -0.737111 0
M  V30 8360 H 788.413 -0.313974 -1.80794 0
M  V30 8361 H 786.795 1.57505 -3.6333 0
M  V30 8362 H 787.969 -1.16212 -4.45905 0
M  V30 8363 H 786.284 -0.896306 -4.06639 0
M  V30 8364 H 788.881 1.69746 -5.07041 0
M  V30 8365 H 789.224 2.30245 -3.46833 0
M  V30 8366 H 789.757 0.665364 -3.92196 0
M  V30 8367 H 786.496 -0.868917 -6.49715 0
M  V30 8368 H 786.016 0.754053 -5.95041 0
M  V30 8369 H 787.695 0.439949 -6.45502 0
M  V30 8370 N 787.827 1.57504 0.0551401 0
M  V30 8371 C 789.052 1.92682 0.767352 0
M  V30 8372 C 789.477 0.81614 1.69472 0
M  V30 8373 O 788.835 -0.229989 1.79835 0
M  V30 8374 C 788.883 3.26866 1.52286 0
M  V30 8375 O 787.987 3.17274 2.63459 0
M  V30 8376 H 787.328 0.630502 0.208238 0
M  V30 8377 H 789.858 2.04592 0.0184026 0
M  V30 8378 H 789.868 3.61138 1.8985 0
M  V30 8379 H 788.543 4.07276 0.842541 0
M  V30 8380 H 787.12 2.94589 2.2863 0
M  V30 8381 N 789.305 -0.326896 1.54172 0
M  V30 8382 C 790.553 -1.06313 1.71878 0
M  V30 8383 C 790.874 -1.88652 0.493498 0
M  V30 8384 O 790.144 -1.89608 -0.492522 0
M  V30 8385 H 788.724 -0.39549 0.633716 0
M  V30 8386 H 791.386 -0.364139 1.91468 0
M  V30 8387 H 790.482 -1.73105 2.59694 0
M  V30 8388 N 790.784 -1.46188 -0.588786 0
M  V30 8389 C 791.694 -1.58865 -1.72624 0
M  V30 8390 C 792.71 -0.472348 -1.67466 0
M  V30 8391 O 793.886 -0.735638 -1.87484 0
M  V30 8392 C 790.951 -1.56989 -3.0912 0
M  V30 8393 C 790.012 -2.79804 -3.25589 0
M  V30 8394 C 789.245 -2.78009 -4.55573 0
M  V30 8395 O 789.468 -1.86406 -5.39082 0
M  V30 8396 O 788.402 -3.6947 -4.75159 0
M  V30 8397 H 792.228 -2.55047 -1.64878 0
M  V30 8398 H 789.813 -1.28912 -0.755115 0
M  V30 8399 H 791.695 -1.58618 -3.90408 0
M  V30 8400 H 790.37 -0.639648 -3.17317 0
M  V30 8401 H 789.277 -2.83732 -2.43818 0
M  V30 8402 H 790.61 -3.72017 -3.22279 0
M  V30 8403 N 792.262 0.832906 -1.33792 0
M  V30 8404 C 793.51 1.58539 -1.25338 0
M  V30 8405 C 793.831 1.94175 0.179204 0
M  V30 8406 O 793.101 1.61458 1.10941 0
M  V30 8407 H 791.681 0.58784 -0.460926 0
M  V30 8408 H 794.343 0.995064 -1.67584 0
M  V30 8409 H 793.439 2.51268 -1.85123 0
M  V30 8410 N 793.74 1.17359 1.05189 0
M  V30 8411 C 794.97 0.985099 1.81602 0
M  V30 8412 C 795.378 -0.469872 1.83273 0
M  V30 8413 O 794.721 -1.33806 1.25864 0
M  V30 8414 C 794.783 1.44956 3.2898 0
M  V30 8415 C 794.447 2.92666 3.50993 0
M  V30 8416 C 795.444 3.906 3.43115 0
M  V30 8417 C 793.129 3.30841 3.77954 0
M  V30 8418 C 795.123 5.24709 3.61883 0
M  V30 8419 C 792.81 4.65116 3.96371 0
M  V30 8420 C 793.808 5.61859 3.88335 0
M  V30 8421 O 793.496 6.93704 4.06238 0
M  V30 8422 H 793.228 0.348731 0.579105 0
M  V30 8423 H 795.782 1.56066 1.33539 0
M  V30 8424 H 794.012 0.817559 3.77959 0
M  V30 8425 H 795.701 1.22674 3.86919 0
M  V30 8426 H 796.467 3.62453 3.22262 0
M  V30 8427 H 792.346 2.5611 3.83313 0
M  V30 8428 H 795.89 6.00205 3.55527 0
M  V30 8429 H 791.787 4.92969 4.16715 0
M  V30 8430 H 792.555 7.00443 4.23463 0
M  V30 8431 N 795.218 -1.23913 0.973828 0
M  V30 8432 C 796.466 -1.91771 0.637817 0
M  V30 8433 C 796.787 -1.76434 -0.830435 0
M  V30 8434 O 796.057 -1.13965 -1.59339 0
M  V30 8435 H 794.637 -0.709761 0.232912 0
M  V30 8436 H 797.299 -1.50677 1.23622 0
M  V30 8437 H 796.395 -2.99327 0.883731 0
M  V30 8438 N 796.696 -0.74468 -1.38897 0
M  V30 8439 C 798.112 -0.421302 -1.53939 0
M  V30 8440 C 798.312 1.06668 -1.70951 0
M  V30 8441 O 797.368 1.85278 -1.71547 0
M  V30 8442 C 798.681 -1.21278 -2.75159 0
M  V30 8443 C 800.229 -1.20196 -2.89001 0
M  V30 8444 C 800.704 -1.97621 -4.13171 0
M  V30 8445 N 802.195 -1.94836 -4.2023 0
M  V30 8446 C 802.93 -2.51545 -5.15279 0
M  V30 8447 N 802.426 -3.1693 -6.16058 0
M  V30 8448 N 804.219 -2.41524 -5.07565 0
M  V30 8449 H 796.37 -1.70914 -1.26103 0
M  V30 8450 H 798.633 -0.724058 -0.611919 0
M  V30 8451 H 798.339 -2.26609 -2.68963 0
M  V30 8452 H 798.213 -0.823677 -3.68097 0
M  V30 8453 H 800.6 -0.156742 -2.94683 0
M  V30 8454 H 800.681 -1.63051 -1.97099 0
M  V30 8455 H 800.325 -3.02149 -4.0825 0
M  V30 8456 H 800.255 -1.52166 -5.04136 0
M  V30 8457 H 802.746 -1.4721 -3.48048 0
M  V30 8458 H 803.059 -3.57644 -6.85062 0
M  V30 8459 H 801.404 -3.21023 -6.16417 0
M  V30 8460 H 804.595 -1.90077 -4.27771 0
M  V30 8461 H 804.768 -2.86016 -5.81462 0
M  V30 8462 N 798.174 1.49689 -0.493057 0
M  V30 8463 C 799.121 2.28976 0.28959 0
M  V30 8464 C 800.091 1.35011 0.967536 0
M  V30 8465 O 801.276 1.63964 0.975736 0
M  V30 8466 C 798.416 3.1748 1.35279 0
M  V30 8467 C 797.529 4.26496 0.687418 0
M  V30 8468 C 796.664 5.02226 1.73038 0
M  V30 8469 C 795.703 6.03089 1.04645 0
M  V30 8470 N 794.84 6.72014 2.03325 0
M  V30 8471 H 799.68 2.954 -0.392798 0
M  V30 8472 H 797.217 1.45657 -0.205554 0
M  V30 8473 H 799.175 3.67162 1.98111 0
M  V30 8474 H 797.805 2.53057 2.00405 0
M  V30 8475 H 796.857 3.80362 -0.0540001 0
M  V30 8476 H 798.169 4.98578 0.14864 0
M  V30 8477 H 797.323 5.55737 2.43395 0
M  V30 8478 H 796.062 4.29899 2.303 0
M  V30 8479 H 795.067 5.48817 0.328606 0
M  V30 8480 H 796.292 6.77398 0.480428 0
M  V30 8481 H 794.238 6.02464 2.59564 0
M  V30 8482 H 794.155 7.40046 1.54492 0
M  V30 8483 H 795.423 7.30133 2.72995 0
M  V30 8484 N 799.652 0.226554 1.55963 0
M  V30 8485 C 800.615 -0.668015 2.19249 0
M  V30 8486 C 801.615 -1.11794 1.1558 0
M  V30 8487 O 802.805 -1.02593 1.40784 0
M  V30 8488 C 799.937 -1.91571 2.81981 0
M  V30 8489 H 801.13 -0.116175 2.99675 0
M  V30 8490 H 798.683 -0.0230497 1.56283 0
M  V30 8491 H 799.418 -2.50929 2.05439 0
M  V30 8492 H 799.203 -1.6015 3.57903 0
M  V30 8493 H 800.693 -2.55294 3.30477 0
M  V30 8494 N 801.13 -1.57531 -0.0467866 0
M  V30 8495 C 802.407 -1.79568 -0.775536 0
M  V30 8496 C 802.787 -0.820322 -1.94509 0
M  V30 8497 O 802.135 0.14134 -2.28062 0
M  V30 8498 C 802.345 -3.26789 -1.22516 0
M  V30 8499 C 803.693 -3.91299 -1.64835 0
M  V30 8500 O 804.717 -3.30831 -1.3202 0
M  V30 8501 O 803.576 -4.97727 -2.25677 0
M  V30 8502 H 800.67 -0.737817 -0.373572 0
M  V30 8503 H 803.216 -1.69682 -0.0249302 0
M  V30 8504 H 801.988 -3.89357 -0.389446 0
M  V30 8505 H 801.611 -3.41496 -2.03633 0
M  V30 8506 N 802.608 0.318715 -1.54344 0
M  V30 8507 C 803.857 1.05363 -1.71993 0
M  V30 8508 C 804.17 1.89018 -0.503155 0
M  V30 8509 O 805.376 2.65639 -0.561085 0
M  V30 8510 C 803.832 1.92281 -3.0423 0
M  V30 8511 C 803.44 1.13715 -4.33328 0
M  V30 8512 C 805.184 2.65479 -3.31242 0
M  V30 8513 C 803.091 1.99806 -5.56625 0
M  V30 8514 H 802.021 0.397081 -0.64097 0
M  V30 8515 H 804.672 0.311598 -1.80835 0
M  V30 8516 H 803.054 2.70402 -2.89307 0
M  V30 8517 H 804.228 0.403305 -4.59032 0
M  V30 8518 H 802.543 0.521769 -4.13118 0
M  V30 8519 H 805.14 3.30209 -4.20555 0
M  V30 8520 H 805.483 3.33374 -2.49334 0
M  V30 8521 H 806.016 1.94417 -3.47054 0
M  V30 8522 H 802.755 1.36411 -6.41149 0
M  V30 8523 H 802.275 2.70911 -5.35133 0
M  V30 8524 H 803.954 2.58277 -5.93213 0
M  V30 8525 N 804.086 1.46499 0.581025 0
M  V30 8526 C 805.332 1.53108 1.33901 0
M  V30 8527 C 805.687 0.181007 1.91547 0
M  V30 8528 O 804.98 -0.810518 1.73612 0
M  V30 8529 C 805.174 2.56686 2.48691 0
M  V30 8530 C 805.003 4.01633 2.0229 0
M  V30 8531 C 803.773 4.69333 1.87228 0
M  V30 8532 C 805.971 4.89379 1.58154 0
M  V30 8533 N 803.953 5.98891 1.34917 0
M  V30 8534 C 805.324 6.08775 1.17445 0
M  V30 8535 C 807.379 4.76017 1.45987 0
M  V30 8536 C 806.082 7.16286 0.657805 0
M  V30 8537 C 808.108 5.83601 0.95726 0
M  V30 8538 C 807.47 7.02171 0.55996 0
M  V30 8539 H 803.569 0.61509 0.482896 0
M  V30 8540 H 806.153 1.83123 0.661361 0
M  V30 8541 H 804.324 2.28578 3.14017 0
M  V30 8542 H 806.056 2.5328 3.15644 0
M  V30 8543 H 802.811 4.24878 2.09226 0
M  V30 8544 H 803.235 6.67852 1.10917 0
M  V30 8545 H 807.877 3.84736 1.75322 0
M  V30 8546 H 805.595 8.07333 0.352047 0
M  V30 8547 H 809.181 5.75304 0.867007 0
M  V30 8548 H 808.061 7.84 0.177046 0
M  V30 8549 N 805.565 -0.825799 1.34232 0
M  V30 8550 C 806.79 -1.61883 1.29648 0
M  V30 8551 C 807.215 -1.87669 -0.127295 0
M  V30 8552 O 806.573 -1.45016 -1.08813 0
M  V30 8553 C 806.621 -2.93846 2.09014 0
M  V30 8554 O 805.725 -3.85778 1.4577 0
M  V30 8555 H 805.066 -0.492454 0.445405 0
M  V30 8556 H 807.596 -1.02641 1.76992 0
M  V30 8557 H 807.606 -3.43435 2.20264 0
M  V30 8558 H 806.281 -2.74401 3.12533 0
M  V30 8559 H 804.858 -3.4429 1.43245 0
M  V30 8560 N 807.043 -1.17915 -1.04565 0
M  V30 8561 C 808.289 -0.972863 -1.77942 0
M  V30 8562 C 808.622 0.496753 -1.87739 0
M  V30 8563 O 807.897 1.3688 -1.38181 0
M  V30 8564 C 808.18 -1.62227 -3.21488 0
M  V30 8565 C 808.033 -3.16441 -3.19664 0
M  V30 8566 C 809.352 -1.33137 -4.19479 0
M  V30 8567 H 806.471 -0.354843 -0.645953 0
M  V30 8568 H 809.113 -1.45508 -1.22178 0
M  V30 8569 H 807.263 -1.21224 -3.69103 0
M  V30 8570 H 808.935 -3.66544 -2.80077 0
M  V30 8571 H 807.178 -3.48863 -2.57832 0
M  V30 8572 H 807.849 -3.57012 -4.21006 0
M  V30 8573 H 810.325 -1.68654 -3.80388 0
M  V30 8574 H 809.201 -1.81151 -5.18146 0
M  V30 8575 H 809.462 -0.253319 -4.41374 0
M  V30 8576 N 808.521 1.23394 -0.980386 0
M  V30 8577 C 809.484 2.23092 -0.525619 0
M  V30 8578 C 810.484 1.56129 0.384745 0
M  V30 8579 O 811.674 1.73284 0.178439 0
M  V30 8580 C 808.806 3.40074 0.23712 0
M  V30 8581 H 809.999 2.64839 -1.40714 0
M  V30 8582 H 807.552 1.36227 -0.766275 0
M  V30 8583 H 808.287 3.03783 1.13518 0
M  V30 8584 H 808.072 3.89883 -0.416356 0
M  V30 8585 H 809.562 4.14043 0.543892 0
M  V30 8586 N 809.999 0.752036 1.385 0
M  V30 8587 C 811.239 0.312408 2.01998 0
M  V30 8588 C 811.603 -1.085 1.58404 0
M  V30 8589 O 812.804 -1.62365 2.14222 0
M  V30 8590 C 811.075 0.429423 3.54811 0
M  V30 8591 S 812.634 0.0721487 4.38741 0
M  V30 8592 H 809.452 0.1213 0.700576 0
M  V30 8593 H 812.054 0.982312 1.69029 0
M  V30 8594 H 810.758 1.44743 3.84028 0
M  V30 8595 H 810.289 -0.257716 3.92555 0
M  V30 8596 H 812.304 -1.13875 4.82957 0
M  V30 8597 N 811.477 -1.49425 0.500989 0
M  V30 8598 C 812.705 -2.06861 -0.0403443 0
M  V30 8599 C 813.12 -1.36132 -1.30819 0
M  V30 8600 O 812.477 -0.439647 -1.77125 0
M  V30 8601 C 812.528 -3.6027 -0.297902 0
M  V30 8602 O 812.249 -4.28338 0.919686 0
M  V30 8603 C 813.75 -4.34419 -0.882876 0
M  V30 8604 H 810.97 -0.670688 0.0204619 0
M  V30 8605 H 813.514 -1.92207 0.698342 0
M  V30 8606 H 811.669 -3.74627 -0.98657 0
M  V30 8607 H 812.083 -5.2004 0.682528 0
M  V30 8608 H 813.557 -5.42631 -1.01268 0
M  V30 8609 H 814.034 -3.96898 -1.88066 0
M  V30 8610 H 814.64 -4.24669 -0.231677 0
M  V30 8611 N 812.955 -0.234822 -1.55841 0
M  V30 8612 C 814.201 0.393843 -1.98939 0
M  V30 8613 C 814.534 1.58466 -1.1226 0
M  V30 8614 O 813.809 1.93635 -0.183242 0
M  V30 8615 C 814.092 0.815492 -3.50745 0
M  V30 8616 C 813.945 -0.379878 -4.48193 0
M  V30 8617 C 815.264 1.66687 -4.07312 0
M  V30 8618 H 812.383 0.141681 -0.723253 0
M  V30 8619 H 815.025 -0.333716 -1.87046 0
M  V30 8620 H 813.175 1.43541 -3.6101 0
M  V30 8621 H 814.847 -1.0182 -4.49923 0
M  V30 8622 H 813.09 -1.02507 -4.21515 0
M  V30 8623 H 813.761 -0.0417069 -5.51984 0
M  V30 8624 H 816.237 1.14369 -4.00074 0
M  V30 8625 H 815.113 1.93078 -5.13821 0
M  V30 8626 H 815.374 2.63468 -3.55017 0
M  V30 8627 N 814.433 1.57553 0.0384317 0
M  V30 8628 C 815.679 1.89121 0.732199 0
M  V30 8629 C 816.012 0.831404 1.75503 0
M  V30 8630 O 815.287 -0.154642 1.93884 0
M  V30 8631 C 815.57 3.31338 1.41021 0
M  V30 8632 C 815.423 4.48004 0.401532 0
M  V30 8633 C 816.742 3.72318 2.34665 0
M  V30 8634 H 813.861 0.687819 0.264715 0
M  V30 8635 H 816.503 1.89999 -0.00496279 0
M  V30 8636 H 814.653 3.3072 2.03854 0
M  V30 8637 H 816.325 4.60755 -0.224159 0
M  V30 8638 H 814.568 4.32895 -0.280092 0
M  V30 8639 H 815.239 5.44377 0.91423 0
M  V30 8640 H 817.715 3.74243 1.81883 0
M  V30 8641 H 816.591 4.72652 2.7909 0
M  V30 8642 H 816.852 3.04062 3.20934 0
M  V30 8643 N 815.911 -0.310526 1.54511 0
M  V30 8644 C 816.821 -1.4054 1.87844 0
M  V30 8645 C 817.837 -1.55954 0.771635 0
M  V30 8646 O 819.013 -1.70801 1.06719 0
M  V30 8647 C 816.078 -2.75063 2.11048 0
M  V30 8648 C 815.139 -2.68715 3.348 0
M  V30 8649 C 814.372 -3.96821 3.56887 0
M  V30 8650 O 814.595 -4.95721 2.82165 0
M  V30 8651 O 813.529 -3.99291 4.50389 0
M  V30 8652 H 817.355 -1.15275 2.80972 0
M  V30 8653 H 814.94 -0.505732 1.4058 0
M  V30 8654 H 816.822 -3.54671 2.27566 0
M  V30 8655 H 815.497 -3.00191 1.21108 0
M  V30 8656 H 814.404 -1.87611 3.23655 0
M  V30 8657 H 815.737 -2.4854 4.2484 0
M  V30 8658 N 817.389 -1.46805 -0.573248 0
M  V30 8659 C 818.322 -1.52608 -1.69665 0
M  V30 8660 C 819.3 -0.379426 -1.58111 0
M  V30 8661 O 820.484 -0.584938 -1.79195 0
M  V30 8662 C 817.611 -1.41355 -3.07793 0
M  V30 8663 C 816.657 -2.60321 -3.37839 0
M  V30 8664 S 817.49 -4.22622 -3.28863 0
M  V30 8665 C 818.646 -4.13894 -4.69513 0
M  V30 8666 H 818.879 -2.47653 -1.64485 0
M  V30 8667 H 816.412 -1.34806 -0.752769 0
M  V30 8668 H 818.37 -1.35549 -3.87475 0
M  V30 8669 H 817.031 -0.477213 -3.10454 0
M  V30 8670 H 816.224 -2.48466 -4.38498 0
M  V30 8671 H 815.826 -2.63165 -2.65745 0
M  V30 8672 H 818.118 -3.81158 -5.60111 0
M  V30 8673 H 819.061 -5.14584 -4.86425 0
M  V30 8674 H 819.469 -3.44998 -4.46807 0
M  V30 8675 N 818.867 0.818669 -1.34668 0
M  V30 8676 C 819.797 1.94468 -1.29245 0
M  V30 8677 C 820.778 1.69257 -0.169101 0
M  V30 8678 O 821.963 1.90794 -0.362143 0
M  V30 8679 C 819.093 3.31001 -1.05145 0
M  V30 8680 C 818.047 3.70663 -2.13992 0
M  V30 8681 C 817.373 5.05226 -1.75074 0
M  V30 8682 C 818.673 3.82312 -3.55858 0
M  V30 8683 H 820.367 1.99263 -2.2346 0
M  V30 8684 H 817.913 0.957304 -1.07572 0
M  V30 8685 H 819.866 4.09364 -0.999949 0
M  V30 8686 H 818.59 3.26517 -0.0737312 0
M  V30 8687 H 817.249 2.94578 -2.18219 0
M  V30 8688 H 816.897 4.97233 -0.759518 0
M  V30 8689 H 816.597 5.32734 -2.47928 0
M  V30 8690 H 818.121 5.86042 -1.71427 0
M  V30 8691 H 819.535 4.50935 -3.5402 0
M  V30 8692 H 817.932 4.21278 -4.2737 0
M  V30 8693 H 819.002 2.84193 -3.9289 0
M  V30 8694 N 820.346 1.18468 1.03938 0
M  V30 8695 C 821.574 1.00576 1.80809 0
M  V30 8696 C 821.989 -0.445786 1.83462 0
M  V30 8697 O 821.346 -1.30964 1.27101 0
M  V30 8698 C 821.397 1.55491 3.26351 0
M  V30 8699 O 821.118 2.94963 3.23926 0
M  V30 8700 C 822.619 1.42236 4.19862 0
M  V30 8701 H 819.839 0.35508 0.56935 0
M  V30 8702 H 822.383 1.57046 1.30984 0
M  V30 8703 H 820.538 1.03195 3.73403 0
M  V30 8704 H 820.952 3.20598 4.15111 0
M  V30 8705 H 822.426 1.85455 5.19914 0
M  V30 8706 H 822.903 0.371267 4.37628 0
M  V30 8707 H 823.509 1.9361 3.78675 0
M  V30 8708 N 821.824 -1.22873 0.986916 0
M  V30 8709 C 822.734 -2.28277 0.540978 0
M  V30 8710 C 823.75 -1.69164 -0.407363 0
M  V30 8711 O 824.926 -1.99504 -0.275674 0
M  V30 8712 C 821.991 -3.46404 -0.143181 0
M  V30 8713 C 821.052 -4.20854 0.847375 0
M  V30 8714 C 820.285 -5.33341 0.19577 0
M  V30 8715 O 820.508 -5.61356 -1.0117 0
M  V30 8716 O 819.442 -5.95169 0.897623 0
M  V30 8717 H 823.268 -2.68578 1.41773 0
M  V30 8718 H 820.853 -1.28927 0.754867 0
M  V30 8719 H 822.735 -4.18096 -0.526676 0
M  V30 8720 H 821.41 -3.08041 -0.994593 0
M  V30 8721 H 820.317 -3.51459 1.28169 0
M  V30 8722 H 821.65 -4.63082 1.6678 0
M  V30 8723 N 823.302 -0.75937 -1.38099 0
M  V30 8724 C 824.249 -0.135508 -2.30402 0
M  V30 8725 C 825.219 0.703356 -1.50473 0
M  V30 8726 O 826.404 0.658287 -1.79084 0
M  V30 8727 C 823.544 0.747228 -3.36913 0
M  V30 8728 C 822.657 -0.106893 -4.31868 0
M  V30 8729 C 821.792 0.779388 -5.25451 0
M  V30 8730 C 820.831 -0.0780179 -6.1205 0
M  V30 8731 N 819.968 0.765545 -6.97914 0
M  V30 8732 H 824.808 -0.9282 -2.83176 0
M  V30 8733 H 822.345 -0.46935 -1.39411 0
M  V30 8734 H 824.303 1.27371 -3.97281 0
M  V30 8735 H 822.933 1.50565 -2.85535 0
M  V30 8736 H 821.985 -0.751063 -3.72912 0
M  V30 8737 H 823.297 -0.768798 -4.9284 0
M  V30 8738 H 822.451 1.37282 -5.90964 0
M  V30 8739 H 821.19 1.47501 -4.6486 0
M  V30 8740 H 820.195 -0.684078 -5.45528 0
M  V30 8741 H 821.42 -0.770786 -6.74712 0
M  V30 8742 H 819.366 1.44601 -6.39864 0
M  V30 8743 H 819.283 0.160666 -7.55829 0
M  V30 8744 H 820.551 1.34377 -7.6783 0
M  V30 8745 N 824.78 1.49157 -0.508906 0
M  V30 8746 C 826.191 1.86593 -0.0630975 0
M  V30 8747 C 826.542 1.42051 1.35337 0
M  V30 8748 O 825.667 0.801866 2.00995 0
M  V30 8749 C 826.262 3.38629 -0.107729 0
M  V30 8750 C 824.821 3.75336 0.282776 0
M  V30 8751 C 823.968 2.7317 -0.4768 0
M  V30 8752 H 826.919 1.41362 -0.72128 0
M  V30 8753 H 826.94 3.74271 0.685689 0
M  V30 8754 H 826.452 3.71017 -1.13876 0
M  V30 8755 H 824.553 3.48558 1.31675 0
M  V30 8756 H 824.666 4.79081 -0.0421728 0
M  V30 8757 H 823.03 2.54591 0.0743552 0
M  V30 8758 H 823.813 3.08403 -1.50807 0
M  V30 8759 N 826.258 0.243083 1.55714 0
M  V30 8760 C 827.669 -0.260788 1.8487 0
M  V30 8761 C 828.02 -1.57879 1.16485 0
M  V30 8762 O 827.145 -2.1184 0.441908 0
M  V30 8763 C 827.74 -0.479954 3.35383 0
M  V30 8764 C 826.299 -0.928096 3.64778 0
M  V30 8765 C 825.446 -0.00316416 2.773 0
M  V30 8766 H 828.397 0.465743 1.51712 0
M  V30 8767 H 828.418 -1.32308 3.56756 0
M  V30 8768 H 827.93 0.479468 3.85127 0
M  V30 8769 H 826.031 -1.90012 3.20509 0
M  V30 8770 H 826.144 -0.7876 4.72582 0
M  V30 8771 H 824.508 -0.513849 2.49463 0
M  V30 8772 H 825.291 0.951562 3.29849 0
M  V30 8773 N 827.736 -1.57571 -0.0300757 0
M  V30 8774 C 828.982 -1.90355 -0.716687 0
M  V30 8775 C 829.337 -0.841568 -1.73018 0
M  V30 8776 O 828.63 0.149847 -1.91013 0
M  V30 8777 C 828.824 -3.27624 -1.42818 0
M  V30 8778 C 828.653 -4.47076 -0.485111 0
M  V30 8779 C 827.423 -5.05188 -0.106533 0
M  V30 8780 C 829.621 -5.13758 0.236059 0
M  V30 8781 N 827.603 -6.08155 0.837899 0
M  V30 8782 C 828.974 -6.1128 1.03619 0
M  V30 8783 C 831.029 -4.96977 0.30311 0
M  V30 8784 C 829.732 -6.93829 1.89721 0
M  V30 8785 C 831.758 -5.80086 1.15125 0
M  V30 8786 C 831.12 -6.77178 1.9393 0
M  V30 8787 H 827.219 -0.745417 -0.236384 0
M  V30 8788 H 829.803 -1.94686 0.0231985 0
M  V30 8789 H 827.974 -3.24224 -2.13854 0
M  V30 8790 H 829.706 -3.47927 -2.0671 0
M  V30 8791 H 826.461 -4.71277 -0.468498 0
M  V30 8792 H 826.885 -6.64311 1.30459 0
M  V30 8793 H 831.527 -4.21791 -0.291858 0
M  V30 8794 H 829.245 -7.6836 2.50298 0
M  V30 8795 H 832.831 -5.6915 1.20665 0
M  V30 8796 H 831.711 -7.4037 2.58499 0
M  V30 8797 N 829.214 0.302327 -1.54673 0
M  V30 8798 C 830.177 1.35592 -1.8479 0
M  V30 8799 C 831.177 1.43743 -0.72073 0
M  V30 8800 O 832.367 1.43402 -0.989017 0
M  V30 8801 C 829.499 2.74091 -2.02699 0
M  V30 8802 H 830.692 1.10132 -2.78946 0
M  V30 8803 H 828.245 0.538926 -1.46715 0
M  V30 8804 H 828.98 3.04775 -1.10826 0
M  V30 8805 H 828.765 2.69565 -2.8474 0
M  V30 8806 H 830.255 3.50272 -2.27374 0
M  V30 8807 N 830.692 1.47107 0.565454 0
M  V30 8808 C 831.602 1.61591 1.70075 0
M  V30 8809 C 832.618 0.498931 1.66693 0
M  V30 8810 O 833.794 0.765372 1.8629 0
M  V30 8811 C 830.859 1.61887 3.06583 0
M  V30 8812 C 829.92 2.84949 3.21096 0
M  V30 8813 C 829.153 2.85221 4.51093 0
M  V30 8814 O 829.376 1.94959 5.36048 0
M  V30 8815 O 828.31 3.76982 4.69221 0
M  V30 8816 H 832.136 2.57638 1.60799 0
M  V30 8817 H 829.721 1.30097 0.73451 0
M  V30 8818 H 831.603 1.64809 3.87835 0
M  V30 8819 H 830.278 0.69005 3.16259 0
M  V30 8820 H 829.185 2.87575 2.39273 0
M  V30 8821 H 830.518 3.77098 3.1632 0
M  V30 8822 N 832.17 -0.811516 1.35101 0
M  V30 8823 C 833.417 -1.56835 1.28098 0
M  V30 8824 C 833.745 -1.93951 -0.14597 0
M  V30 8825 O 833 -1.61173 -1.11004 0
M  V30 8826 C 833.299 -2.87121 2.1283 0
M  V30 8827 C 832.965 -2.69245 3.61688 0
M  V30 8828 C 831.627 -2.64078 4.02264 0
M  V30 8829 C 833.979 -2.52122 4.56162 0
M  V30 8830 C 831.307 -2.39724 5.3549 0
M  V30 8831 C 833.659 -2.29298 5.89581 0
M  V30 8832 C 832.323 -2.2255 6.29307 0
M  V30 8833 H 831.593 -0.5739 0.468742 0
M  V30 8834 H 834.24 -0.93806 1.66951 0
M  V30 8835 H 832.545 -3.54502 1.66841 0
M  V30 8836 H 834.242 -3.44788 2.0475 0
M  V30 8837 H 830.832 -2.74112 3.29485 0
M  V30 8838 H 835.016 -2.5513 4.25702 0
M  V30 8839 H 830.272 -2.32965 5.65276 0
M  V30 8840 H 834.446 -2.15038 6.62368 0
M  V30 8841 H 832.073 -2.0344 7.32473 0
M  V30 8842 N 833.648 -1.19017 -1.03309 0
M  V30 8843 C 834.558 -0.939303 -2.14975 0
M  V30 8844 C 835.574 0.0992359 -1.73717 0
M  V30 8845 O 836.75 -0.0844362 -2.01223 0
M  V30 8846 C 833.815 -0.476712 -3.43407 0
M  V30 8847 C 832.876 -1.58413 -3.99003 0
M  V30 8848 C 832.109 -1.14352 -5.21305 0
M  V30 8849 O 832.332 -0.00534408 -5.704 0
M  V30 8850 O 831.266 -1.94436 -5.6963 0
M  V30 8851 H 835.092 -1.87386 -2.38998 0
M  V30 8852 H 832.677 -0.972635 -1.13403 0
M  V30 8853 H 834.559 -0.22718 -4.20787 0
M  V30 8854 H 833.234 0.429455 -3.20839 0
M  V30 8855 H 832.141 -1.88777 -3.22977 0
M  V30 8856 H 833.474 -2.4667 -4.25928 0
M  V30 8857 N 835.127 1.22348 -0.993418 0
M  V30 8858 C 836.09 2.22522 -0.549251 0
M  V30 8859 C 837.09 1.56529 0.368164 0
M  V30 8860 O 838.28 1.73463 0.16005 0
M  V30 8861 C 835.412 3.40307 0.201037 0
M  V30 8862 H 836.605 2.63332 -1.43515 0
M  V30 8863 H 834.158 1.35407 -0.78068 0
M  V30 8864 H 834.893 3.0497 1.10289 0
M  V30 8865 H 834.678 3.8942 -0.457685 0
M  V30 8866 H 836.168 4.14597 0.499946 0
M  V30 8867 N 836.605 0.766683 1.37694 0
M  V30 8868 C 837.538 0.0959288 2.27998 0
M  V30 8869 C 838.516 -0.714493 1.46061 0
M  V30 8870 O 839.7 -0.690337 1.75404 0
M  V30 8871 C 836.827 -0.87057 3.27321 0
M  V30 8872 C 835.873 -0.144771 4.26254 0
M  V30 8873 S 836.706 1.16365 5.22704 0
M  V30 8874 C 837.862 0.200564 6.25579 0
M  V30 8875 H 838.095 0.861666 2.84539 0
M  V30 8876 H 835.628 0.559845 1.43893 0
M  V30 8877 H 837.586 -1.42282 3.85053 0
M  V30 8878 H 836.247 -1.60938 2.69737 0
M  V30 8879 H 835.44 -0.877259 4.96307 0
M  V30 8880 H 835.042 0.33633 3.72485 0
M  V30 8881 H 837.334 -0.628833 6.74575 0
M  V30 8882 H 838.277 0.869117 7.02746 0
M  V30 8883 H 838.685 -0.185972 5.64194 0
M  V30 8884 N 838.083 -1.48885 0.516809 0
M  V30 8885 C 839.046 -2.27916 -0.242256 0
M  V30 8886 C 840.046 -1.34601 -0.879735 0
M  V30 8887 O 841.236 -1.57616 -0.74182 0
M  V30 8888 C 838.368 -3.13067 -1.34914 0
M  V30 8889 H 839.561 -2.96483 0.451444 0
M  V30 8890 H 837.114 -1.5391 0.272294 0
M  V30 8891 H 837.849 -2.49102 -2.07651 0
M  V30 8892 H 837.634 -3.81695 -0.897313 0
M  V30 8893 H 839.124 -3.72716 -1.88341 0
M  V30 8894 N 839.561 -0.251338 -1.55583 0
M  V30 8895 C 840.524 0.63305 -2.20284 0
M  V30 8896 C 841.524 1.09941 -1.17344 0
M  V30 8897 O 842.714 1.00341 -1.42399 0
M  V30 8898 C 839.846 1.8706 -2.84993 0
M  V30 8899 H 841.039 0.0684846 -2.99822 0
M  V30 8900 H 838.592 -0.00181653 -1.563 0
M  V30 8901 H 839.327 2.47629 -2.09405 0
M  V30 8902 H 839.112 1.54436 -3.60405 0
M  V30 8903 H 840.602 2.50004 -3.34496 0
M  V30 8904 N 841.039 1.57585 0.0217189 0
M  V30 8905 C 842.288 1.88786 0.710125 0
M  V30 8906 C 842.601 0.850819 1.76126 0
M  V30 8907 O 843.807 1.0523 2.50277 0
M  V30 8908 C 842.263 3.3505 1.31413 0
M  V30 8909 C 841.871 4.47001 0.298959 0
M  V30 8910 C 843.615 3.7539 1.98199 0
M  V30 8911 C 841.522 5.8433 0.911727 0
M  V30 8912 H 840.452 0.704388 0.268986 0
M  V30 8913 H 843.103 1.83466 -0.0352638 0
M  V30 8914 H 841.485 3.35138 2.10947 0
M  V30 8915 H 842.659 4.58395 -0.470203 0
M  V30 8916 H 840.974 4.15542 -0.267222 0
M  V30 8917 H 843.571 4.75314 2.4491 0
M  V30 8918 H 843.914 3.07766 2.80331 0
M  V30 8919 H 844.447 3.77508 1.2543 0
M  V30 8920 H 841.186 6.55372 0.129659 0
M  V30 8921 H 840.706 5.76643 1.65056 0
M  V30 8922 H 842.385 6.31295 1.41688 0
M  V30 8923 N 842.517 -0.29412 1.54831 0
M  V30 8924 C 843.764 -1.02846 1.74439 0
M  V30 8925 C 844.092 -1.87029 0.533905 0
M  V30 8926 O 843.347 -1.8962 -0.484035 0
M  V30 8927 C 843.646 -1.95782 2.99006 0
M  V30 8928 C 843.312 -1.2752 4.32492 0
M  V30 8929 C 841.974 -1.08637 4.68777 0
M  V30 8930 C 844.326 -0.787761 5.15212 0
M  V30 8931 C 841.654 -0.39704 5.85355 0
M  V30 8932 C 844.006 -0.112123 6.32501 0
M  V30 8933 C 842.67 0.0886071 6.67441 0
M  V30 8934 H 841.94 -0.376341 0.638317 0
M  V30 8935 H 844.587 -0.302684 1.89093 0
M  V30 8936 H 842.892 -2.74911 2.79162 0
M  V30 8937 H 844.589 -2.52684 3.11371 0
M  V30 8938 H 841.179 -1.43226 4.03961 0
M  V30 8939 H 845.363 -0.921341 4.87673 0
M  V30 8940 H 840.619 -0.230597 6.10965 0
M  V30 8941 H 844.793 0.27344 6.95863 0
M  V30 8942 H 842.42 0.624748 7.57628 0
M  V30 8943 N 843.995 -1.47404 -0.557645 0
M  V30 8944 C 844.942 -1.59859 -1.66475 0
M  V30 8945 C 845.912 -0.441644 -1.60121 0
M  V30 8946 O 847.097 -0.661641 -1.78961 0
M  V30 8947 C 844.237 -1.61843 -3.04797 0
M  V30 8948 C 843.35 -2.8845 -3.2159 0
M  V30 8949 C 842.485 -2.81773 -4.50308 0
M  V30 8950 C 841.524 -4.03208 -4.60532 0
M  V30 8951 N 840.661 -3.94769 -5.80604 0
M  V30 8952 H 845.501 -2.54415 -1.55168 0
M  V30 8953 H 843.038 -1.26194 -0.755876 0
M  V30 8954 H 844.996 -1.60976 -3.84893 0
M  V30 8955 H 843.626 -0.707997 -3.1494 0
M  V30 8956 H 842.678 -2.99186 -2.34929 0
M  V30 8957 H 843.99 -3.78379 -3.25009 0
M  V30 8958 H 843.144 -2.79153 -5.38663 0
M  V30 8959 H 841.883 -1.89527 -4.49367 0
M  V30 8960 H 840.888 -4.06133 -3.70589 0
M  V30 8961 H 842.113 -4.9658 -4.63233 0
M  V30 8962 H 840.059 -3.05326 -5.80613 0
M  V30 8963 H 839.976 -4.78375 -5.854 0
M  V30 8964 H 841.244 -3.96165 -6.71322 0
M  V30 8965 N 845.473 0.80434 -1.35529 0
M  V30 8966 C 846.722 1.55665 -1.28263 0
M  V30 8967 C 847.035 1.95096 0.140352 0
M  V30 8968 O 848.241 2.69422 0.335303 0
M  V30 8969 C 846.697 2.80935 -2.24952 0
M  V30 8970 C 846.305 2.48733 -3.72607 0
M  V30 8971 C 848.049 3.5894 -2.26632 0
M  V30 8972 C 845.956 3.70308 -4.61114 0
M  V30 8973 H 844.886 0.584301 -0.476559 0
M  V30 8974 H 847.537 0.88395 -1.60806 0
M  V30 8975 H 845.919 3.49927 -1.85383 0
M  V30 8976 H 847.093 1.87733 -4.20824 0
M  V30 8977 H 845.408 1.83969 -3.73557 0
M  V30 8978 H 848.005 4.49244 -2.89973 0
M  V30 8979 H 848.348 3.96433 -1.27069 0
M  V30 8980 H 848.881 2.96912 -2.64742 0
M  V30 8981 H 845.62 3.37922 -5.61684 0
M  V30 8982 H 845.14 4.30526 -4.17621 0
M  V30 8983 H 846.819 4.37511 -4.76648 0
M  V30 8984 N 846.951 1.19563 1.02676 0
M  V30 8985 C 847.914 0.937182 2.09164 0
M  V30 8986 C 848.914 -0.0831927 1.60585 0
M  V30 8987 O 850.104 0.15178 1.73538 0
M  V30 8988 C 847.236 0.408912 3.38439 0
M  V30 8989 H 848.429 1.88164 2.33526 0
M  V30 8990 H 845.982 1.00959 1.19319 0
M  V30 8991 H 846.717 -0.541497 3.19747 0
M  V30 8992 H 846.502 1.14464 3.7502 0
M  V30 8993 H 847.992 0.247242 4.16867 0
M  V30 8994 N 848.429 -1.21819 0.999893 0
M  V30 8995 C 849.657 -1.94758 0.698359 0
M  V30 8996 C 850.072 -1.73771 -0.738183 0
M  V30 8997 O 849.429 -1.04113 -1.49889 0
M  V30 8998 C 849.48 -3.47292 1.00353 0
M  V30 8999 O 849.201 -3.67579 2.38363 0
M  V30 9000 C 850.702 -4.37403 0.72068 0
M  V30 9001 H 847.922 -0.619512 0.257771 0
M  V30 9002 H 850.466 -1.54778 1.33656 0
M  V30 9003 H 848.621 -3.85213 0.411018 0
M  V30 9004 H 849.035 -4.61719 2.48829 0
M  V30 9005 H 850.509 -5.43151 0.984422 0
M  V30 9006 H 850.986 -4.3784 -0.345309 0
M  V30 9007 H 851.592 -4.05119 1.29456 0
M  V30 9008 N 849.908 -0.773975 -1.37286 0
M  V30 9009 C 850.84 -0.119938 -2.28886 0
M  V30 9010 C 851.853 0.661822 -1.48741 0
M  V30 9011 O 853.042 0.499548 -1.71367 0
M  V30 9012 C 850.142 0.853703 -3.27971 0
M  V30 9013 C 849.315 0.125286 -4.37221 0
M  V30 9014 C 848.374 1.01261 -5.16365 0
M  V30 9015 O 847.4 0.475565 -5.6721 0
M  V30 9016 N 848.602 2.33864 -5.31308 0
M  V30 9017 H 851.367 -0.906702 -2.85655 0
M  V30 9018 H 848.928 -0.626519 -1.49286 0
M  V30 9019 H 850.92 1.4508 -3.77801 0
M  V30 9020 H 849.49 1.54142 -2.71954 0
M  V30 9021 H 848.71 -0.652742 -3.88758 0
M  V30 9022 H 849.998 -0.377959 -5.07394 0
M  V30 9023 H 849.396 2.79929 -4.91585 0
M  V30 9024 H 847.953 2.88575 -5.84438 0
M  V30 9025 N 851.386 1.48609 -0.524698 0
M  V30 9026 C 852.797 1.86516 -0.0828846 0
M  V30 9027 C 853.148 1.43478 1.33822 0
M  V30 9028 O 852.273 0.823139 2.00133 0
M  V30 9029 C 852.868 3.38495 -0.143639 0
M  V30 9030 C 851.427 3.75615 0.242951 0
M  V30 9031 C 850.574 2.72649 -0.505747 0
M  V30 9032 H 853.525 1.40589 -0.736233 0
M  V30 9033 H 853.546 3.74977 0.645955 0
M  V30 9034 H 853.058 3.69789 -1.17805 0
M  V30 9035 H 851.159 3.49935 1.27971 0
M  V30 9036 H 851.272 4.7901 -0.0929834 0
M  V30 9037 H 849.636 2.54656 0.0473482 0
M  V30 9038 H 850.419 3.06786 -1.54069 0
M  V30 9039 N 852.864 0.259585 1.55447 0
M  V30 9040 C 854.092 -0.365392 2.03648 0
M  V30 9041 C 854.507 -1.50613 1.13847 0
M  V30 9042 O 853.864 -1.81837 0.155414 0
M  V30 9043 C 853.915 -0.861172 3.51093 0
M  V30 9044 O 853.636 0.234121 4.37474 0
M  V30 9045 C 855.137 -1.55555 4.15111 0
M  V30 9046 H 852.357 -0.0853439 0.66555 0
M  V30 9047 H 854.901 0.387151 2.00802 0
M  V30 9048 H 853.056 -1.56385 3.54433 0
M  V30 9049 H 853.47 -0.1444 5.24301 0
M  V30 9050 H 854.944 -1.85403 5.19932 0
M  V30 9051 H 855.421 -2.48185 3.62355 0
M  V30 9052 H 856.027 -0.89712 4.15731 0
M  V30 9053 N 854.342 -1.57594 -0.0133615 0
M  V30 9054 C 855.29 -2.08682 -1.02736 0
M  V30 9055 C 856.284 -1.00391 -1.36448 0
M  V30 9056 O 857.49 -1.18868 -1.35168 0
M  V30 9057 H 853.865 -0.666158 -0.34891 0
M  V30 9058 H 855.836 -2.9289 -0.570815 0
M  V30 9059 C 854.585 -2.5945 -2.31476 0
M  V30 9060 H 853.908 -3.42401 -2.06401 0
M  V30 9061 H 855.348 -2.98888 -3.00735 0
M  V30 9062 C 853.807 -1.50266 -3.01533 0
M  V30 9063 O 854.337 -0.877875 -3.9199 0
M  V30 9064 N 852.543 -1.23336 -2.63129 0
M  V30 9065 H 852.09 -1.74327 -1.89652 0
M  V30 9066 H 852.048 -0.504987 -3.10318 0
M  V30 9067 N 855.82 0.285905 -1.54985 0
M  V30 9068 C 857.231 0.857869 -1.65824 0
M  V30 9069 C 857.582 1.87531 -0.576763 0
M  V30 9070 O 856.707 2.14528 0.284016 0
M  V30 9071 C 857.302 1.56277 -3.00604 0
M  V30 9072 C 855.861 2.08294 -3.13513 0
M  V30 9073 C 855.008 0.920633 -2.61571 0
M  V30 9074 H 857.959 0.0625463 -1.58577 0
M  V30 9075 H 857.98 2.42912 -2.92872 0
M  V30 9076 H 857.492 0.822017 -3.79295 0
M  V30 9077 H 855.593 2.8537 -2.39572 0
M  V30 9078 H 855.706 2.3071 -4.19892 0
M  V30 9079 H 854.07 1.31043 -2.18403 0
M  V30 9080 H 854.853 0.193594 -3.42754 0
M  V30 9081 N 857.298 1.47698 0.54982 0
M  V30 9082 C 858.245 1.60739 1.65625 0
M  V30 9083 C 859.215 0.450129 1.59884 0
M  V30 9084 O 860.4 0.671123 1.78607 0
M  V30 9085 C 857.54 1.63457 3.03934 0
M  V30 9086 C 856.653 2.90152 3.20056 0
M  V30 9087 C 855.788 2.84157 4.48807 0
M  V30 9088 C 854.827 4.05644 4.58387 0
M  V30 9089 N 853.964 3.97843 5.78503 0
M  V30 9090 H 858.804 2.55234 1.53817 0
M  V30 9091 H 856.341 1.26593 0.749173 0
M  V30 9092 H 858.299 1.63015 3.84034 0
M  V30 9093 H 856.929 0.724689 3.1456 0
M  V30 9094 H 855.981 3.00428 2.33339 0
M  V30 9095 H 857.293 3.80097 3.22998 0
M  V30 9096 H 856.447 2.82006 5.37175 0
M  V30 9097 H 855.186 1.91908 4.48356 0
M  V30 9098 H 854.191 4.08092 3.6843 0
M  V30 9099 H 855.416 4.9903 4.60593 0
M  V30 9100 H 853.362 3.08401 5.78986 0
M  V30 9101 H 853.279 4.81473 5.82855 0
M  V30 9102 H 854.547 3.99719 6.69212 0
M  V30 9103 N 858.776 -0.797141 1.35954 0
M  V30 9104 C 859.706 -1.92387 1.32323 0
M  V30 9105 C 860.687 -1.68967 0.196007 0
M  V30 9106 O 861.872 -1.90193 0.39245 0
M  V30 9107 C 859.002 -3.29286 1.10398 0
M  V30 9108 C 857.956 -3.67212 2.19862 0
M  V30 9109 C 857.282 -5.02377 1.8309 0
M  V30 9110 C 858.582 -3.76602 3.61896 0
M  V30 9111 H 860.276 -1.95683 2.26602 0
M  V30 9112 H 857.822 -0.94007 1.09081 0
M  V30 9113 H 859.775 -4.07721 1.06495 0
M  V30 9114 H 858.499 -3.26358 0.125668 0
M  V30 9115 H 857.158 -2.91069 2.22878 0
M  V30 9116 H 856.806 -4.95961 0.838527 0
M  V30 9117 H 856.506 -5.28722 2.56372 0
M  V30 9118 H 858.03 -5.8324 1.80729 0
M  V30 9119 H 859.444 -4.45246 3.6115 0
M  V30 9120 H 857.841 -4.14425 4.34018 0
M  V30 9121 H 858.911 -2.77906 3.97361 0
M  V30 9122 N 860.254 -1.20106 -1.0204 0
M  V30 9123 C 861.665 -1.00992 -1.57027 0
M  V30 9124 C 862.016 0.434782 -1.91322 0
M  V30 9125 O 861.141 1.31557 -1.71819 0
M  V30 9126 C 861.736 -1.82697 -2.85319 0
M  V30 9127 C 860.295 -1.67959 -3.36848 0
M  V30 9128 C 859.442 -1.80868 -2.10195 0
M  V30 9129 H 862.393 -1.34354 -0.844676 0
M  V30 9130 H 862.414 -1.32809 -3.5657 0
M  V30 9131 H 861.926 -2.87839 -2.60328 0
M  V30 9132 H 860.027 -0.654389 -3.66809 0
M  V30 9133 H 860.14 -2.49006 -4.09308 0
M  V30 9134 H 858.504 -1.24015 -2.22469 0
M  V30 9135 H 859.287 -2.87486 -1.87635 0
M  V30 9136 N 861.732 1.21287 -1.00634 0
M  V30 9137 C 863.143 1.72136 -0.722914 0
M  V30 9138 C 863.494 1.8091 0.759338 0
M  V30 9139 O 862.619 1.46458 1.59308 0
M  V30 9140 C 863.214 3.12633 -1.30561 0
M  V30 9141 C 861.773 3.60833 -1.07127 0
M  V30 9142 C 860.92 2.38326 -1.4176 0
M  V30 9143 H 863.871 1.06445 -1.17708 0
M  V30 9144 H 863.892 3.74174 -0.690937 0
M  V30 9145 H 863.404 3.06215 -2.38441 0
M  V30 9146 H 861.505 3.72599 -0.00968671 0
M  V30 9147 H 861.618 4.46226 -1.74411 0
M  V30 9148 H 859.982 2.40575 -0.836412 0
M  V30 9149 H 860.765 2.34558 -2.50674 0
M  V30 9150 N 863.21 0.781244 1.36873 0
M  V30 9151 C 864.16 0.147313 2.27524 0
M  V30 9152 C 865.144 -0.663928 1.46563 0
M  V30 9153 O 866.336 -0.525343 1.69024 0
M  V30 9154 C 863.465 -0.723511 3.35589 0
M  V30 9155 C 862.551 0.0960763 4.23991 0
M  V30 9156 N 862.942 1.14649 4.92635 0
M  V30 9157 C 861.24 -0.126397 4.45821 0
M  V30 9158 C 861.941 1.64474 5.57964 0
M  V30 9159 N 860.917 0.955316 5.3514 0
M  V30 9160 H 864.719 0.951406 2.78075 0
M  V30 9161 H 862.233 0.619913 1.50103 0
M  V30 9162 H 864.23 -1.19351 3.99451 0
M  V30 9163 H 862.89 -1.52624 2.86594 0
M  V30 9164 H 863.901 1.5288 4.94821 0
M  V30 9165 H 860.578 -0.900284 4.07678 0
M  V30 9166 H 861.968 2.52124 6.22803 0
M  V30 9167 N 864.689 -1.48329 0.532571 0
M  V30 9168 C 865.935 -2.028 -0.000583219 0
M  V30 9169 C 866.268 -1.40858 -1.33688 0
M  V30 9170 O 865.543 -0.555261 -1.86406 0
M  V30 9171 C 865.826 -3.59901 -0.119846 0
M  V30 9172 C 865.679 -4.32318 1.2418 0
M  V30 9173 C 866.998 -4.31904 -0.845372 0
M  V30 9174 H 864.117 -0.736999 0.00126205 0
M  V30 9175 H 866.759 -1.77024 0.690102 0
M  V30 9176 H 864.909 -3.81993 -0.708092 0
M  V30 9177 H 866.581 -4.21637 1.87136 0
M  V30 9178 H 864.824 -3.93635 1.82301 0
M  V30 9179 H 865.495 -5.40697 1.11132 0
M  V30 9180 H 867.971 -4.14658 -0.346159 0
M  V30 9181 H 866.847 -5.41509 -0.897723 0
M  V30 9182 H 867.108 -3.99369 -1.89622 0
M  V30 9183 N 866.167 -0.267825 -1.55308 0
M  V30 9184 C 867.392 0.357487 -2.04296 0
M  V30 9185 C 867.817 1.49222 -1.14518 0
M  V30 9186 O 867.175 1.80741 -0.142292 0
M  V30 9187 C 867.223 0.822899 -3.51085 0
M  V30 9188 O 866.327 1.93078 -3.6441 0
M  V30 9189 H 865.668 0.075025 -0.659748 0
M  V30 9190 H 868.198 -0.399996 -2.00652 0
M  V30 9191 H 868.208 1.12059 -3.92309 0
M  V30 9192 H 866.883 -0.0073562 -4.15899 0
M  V30 9193 H 865.46 1.63618 -3.35087 0
M  V30 9194 N 867.645 1.57599 0.00500368 0
M  V30 9195 C 868.922 1.81561 0.727654 0
M  V30 9196 C 869.302 0.871604 1.92266 0
M  V30 9197 O 868.65 -0.0808232 2.28357 0
M  V30 9198 C 868.86 3.29922 1.13809 0
M  V30 9199 C 870.208 3.95531 1.54403 0
M  V30 9200 O 871.232 3.34215 1.23202 0
M  V30 9201 O 870.091 5.03535 2.12402 0
M  V30 9202 H 867.185 0.747462 0.353878 0
M  V30 9203 H 869.731 1.69688 -0.0200667 0
M  V30 9204 H 868.503 3.90253 0.286078 0
M  V30 9205 H 868.126 3.46775 1.94507 0
M  V30 9206 N 869.123 -0.277682 1.55134 0
M  V30 9207 C 870.353 -1.02677 1.79279 0
M  V30 9208 C 870.761 -1.80599 0.563962 0
M  V30 9209 O 870.104 -1.77416 -0.476378 0
M  V30 9210 C 870.166 -2.03617 2.96277 0
M  V30 9211 C 869.83 -1.44676 4.33495 0
M  V30 9212 C 870.827 -0.864811 5.12657 0
M  V30 9213 C 868.512 -1.47537 4.80144 0
M  V30 9214 C 870.506 -0.319322 6.366 0
M  V30 9215 C 868.193 -0.926016 6.04043 0
M  V30 9216 C 869.191 -0.348988 6.82108 0
M  V30 9217 O 868.879 0.191964 8.03671 0
M  V30 9218 H 868.611 -0.309232 0.601125 0
M  V30 9219 H 871.165 -0.315308 2.02965 0
M  V30 9220 H 869.395 -2.78509 2.68272 0
M  V30 9221 H 871.084 -2.64616 3.07788 0
M  V30 9222 H 871.85 -0.835438 4.7775 0
M  V30 9223 H 867.729 -1.91389 4.19394 0
M  V30 9224 H 871.273 0.131709 6.97476 0
M  V30 9225 H 867.17 -0.952613 6.38432 0
M  V30 9226 H 867.938 0.0808779 8.1846 0
M  V30 9227 N 870.601 -1.47988 -0.541979 0
M  V30 9228 C 871.829 -1.59034 -1.32347 0
M  V30 9229 C 872.244 -0.246123 -1.87189 0
M  V30 9230 O 871.601 0.762889 -1.6579 0
M  V30 9231 C 871.652 -2.62759 -2.48274 0
M  V30 9232 O 871.373 -3.91963 -1.95695 0
M  V30 9233 C 872.874 -2.84133 -3.4027 0
M  V30 9234 H 870.094 -0.536574 -0.402901 0
M  V30 9235 H 872.638 -1.93725 -0.655045 0
M  V30 9236 H 870.793 -2.3096 -3.11025 0
M  V30 9237 H 871.207 -4.48769 -2.7149 0
M  V30 9238 H 872.681 -3.60538 -4.17991 0
M  V30 9239 H 873.158 -1.92512 -3.9476 0
M  V30 9240 H 873.764 -3.17188 -2.83322 0
M  V30 9241 N 872.079 0.78992 -1.36375 0
M  V30 9242 C 873.495 1.0879 -1.16777 0
M  V30 9243 C 873.695 2.01498 0.00848236 0
M  V30 9244 O 872.751 2.43338 0.674007 0
M  V30 9245 C 874.064 1.70285 -2.47837 0
M  V30 9246 C 875.612 1.82629 -2.54196 0
M  V30 9247 C 876.087 2.47539 -3.85342 0
M  V30 9248 N 877.578 2.55008 -3.86685 0
M  V30 9249 C 878.313 3.06041 -4.84898 0
M  V30 9250 N 877.809 3.57385 -5.93505 0
M  V30 9251 N 879.602 3.04748 -4.72319 0
M  V30 9252 H 871.753 0.173985 -2.11686 0
M  V30 9253 H 874.016 0.139798 -0.937636 0
M  V30 9254 H 873.722 1.09633 -3.34176 0
M  V30 9255 H 873.596 2.69799 -2.63607 0
M  V30 9256 H 875.983 2.42419 -1.68276 0
M  V30 9257 H 876.064 0.81923 -2.42327 0
M  V30 9258 H 875.708 1.88393 -4.71668 0
M  V30 9259 H 875.638 3.48815 -3.94507 0
M  V30 9260 H 878.129 2.18651 -3.08221 0
M  V30 9261 H 878.442 3.94674 -6.64419 0
M  V30 9262 H 876.787 3.55538 -5.97175 0
M  V30 9263 H 879.978 2.63925 -3.86602 0
M  V30 9264 H 880.151 3.44212 -5.49019 0
M  V30 9265 N 873.557 1.20646 1.01402 0
M  V30 9266 C 874.834 0.927176 1.72229 0
M  V30 9267 C 875.214 -0.563382 2.03443 0
M  V30 9268 O 874.562 -1.52576 1.70096 0
M  V30 9269 C 874.772 1.80285 2.98828 0
M  V30 9270 C 876.12 2.04624 3.72041 0
M  V30 9271 O 877.144 1.77559 3.0879 0
M  V30 9272 O 876.003 2.50347 4.85787 0
M  V30 9273 H 873.097 0.346891 0.75073 0
M  V30 9274 H 875.643 1.31532 1.07227 0
M  V30 9275 H 874.415 2.81204 2.72102 0
M  V30 9276 H 874.038 1.41495 3.71571 0
M  V30 9277 N 875.035 -1.20752 1.01276 0
M  V30 9278 C 876.282 -1.90021 0.699887 0
M  V30 9279 C 876.61 -1.78604 -0.770113 0
M  V30 9280 O 875.865 -1.16195 -1.57471 0
M  V30 9281 C 876.164 -3.40808 1.07633 0
M  V30 9282 C 875.83 -3.72423 2.54189 0
M  V30 9283 C 874.492 -3.80762 2.94234 0
M  V30 9284 C 876.844 -3.87025 3.49086 0
M  V30 9285 C 874.172 -4.01158 4.28123 0
M  V30 9286 C 876.524 -4.0893 4.82658 0
M  V30 9287 C 875.188 -4.15498 5.22415 0
M  V30 9288 H 874.458 -0.695335 0.256107 0
M  V30 9289 H 877.105 -1.43096 1.27263 0
M  V30 9290 H 875.41 -3.89521 0.421944 0
M  V30 9291 H 877.107 -3.92693 0.811997 0
M  V30 9292 H 873.697 -3.66529 2.22158 0
M  V30 9293 H 877.881 -3.79942 3.19309 0
M  V30 9294 H 873.137 -4.04476 4.58486 0
M  V30 9295 H 877.311 -4.19172 5.56119 0
M  V30 9296 H 874.938 -4.31055 6.26176 0
M  V30 9297 N 876.513 -0.788492 -1.36457 0
M  V30 9298 C 877.443 -0.200468 -2.32638 0
M  V30 9299 C 878.424 0.664031 -1.56603 0
M  V30 9300 O 879.609 0.598045 -1.84762 0
M  V30 9301 C 876.739 0.666274 -3.40849 0
M  V30 9302 C 875.693 -0.0982574 -4.27887 0
M  V30 9303 C 875.019 0.889018 -5.27258 0
M  V30 9304 C 876.319 -1.28692 -5.06197 0
M  V30 9305 H 878.013 -1.00399 -2.82065 0
M  V30 9306 H 875.559 -0.484237 -1.35614 0
M  V30 9307 H 877.512 1.08757 -4.07124 0
M  V30 9308 H 876.236 1.50249 -2.89987 0
M  V30 9309 H 874.895 -0.500525 -3.63167 0
M  V30 9310 H 874.543 1.72024 -4.7267 0
M  V30 9311 H 874.243 0.381909 -5.86358 0
M  V30 9312 H 875.767 1.30891 -5.96406 0
M  V30 9313 H 877.181 -0.941429 -5.65517 0
M  V30 9314 H 875.578 -1.72726 -5.74705 0
M  V30 9315 H 876.648 -2.08273 -4.37893 0
M  V30 9316 N 877.991 1.48044 -0.54043 0
M  V30 9317 C 878.938 2.29781 0.216597 0
M  V30 9318 C 879.908 1.38021 0.924094 0
M  V30 9319 O 881.093 1.66985 0.923078 0
M  V30 9320 C 878.233 3.21623 1.2511 0
M  V30 9321 C 877.346 4.28467 0.551384 0
M  V30 9322 C 876.481 5.07477 1.56972 0
M  V30 9323 C 875.52 6.06113 0.854048 0
M  V30 9324 N 874.657 6.78143 1.81842 0
M  V30 9325 H 879.497 2.94001 -0.486578 0
M  V30 9326 H 877.034 1.44929 -0.251789 0
M  V30 9327 H 878.992 3.73279 1.8633 0
M  V30 9328 H 877.622 2.59305 1.92252 0
M  V30 9329 H 876.674 3.79997 -0.174982 0
M  V30 9330 H 877.986 4.98799 -0.0100542 0
M  V30 9331 H 877.14 5.63199 2.25592 0
M  V30 9332 H 875.879 4.37008 2.16507 0
M  V30 9333 H 874.884 5.49585 0.153838 0
M  V30 9334 H 876.109 6.78584 0.264675 0
M  V30 9335 H 874.055 6.10417 2.40265 0
M  V30 9336 H 873.972 7.44587 1.3087 0
M  V30 9337 H 875.24 7.38448 2.49628 0
M  V30 9338 N 879.47 0.276058 1.55163 0
M  V30 9339 C 880.886 -0.0780579 1.59409 0
M  V30 9340 C 881.086 -1.54521 1.29327 0
M  V30 9341 O 880.142 -2.29422 1.05459 0
M  V30 9342 C 881.455 0.297422 2.99225 0
M  V30 9343 C 883.003 0.244117 3.12047 0
M  V30 9344 C 883.478 0.594051 4.54131 0
M  V30 9345 N 884.969 0.54564 4.59975 0
M  V30 9346 C 885.704 0.789192 5.67943 0
M  V30 9347 N 885.2 1.09741 6.84053 0
M  V30 9348 N 886.993 0.717926 5.57496 0
M  V30 9349 H 879.144 1.23251 1.72982 0
M  V30 9350 H 881.407 0.497988 0.806667 0
M  V30 9351 H 881.113 1.31782 3.26077 0
M  V30 9352 H 880.987 -0.361286 3.75466 0
M  V30 9353 H 883.374 -0.766992 2.84958 0
M  V30 9354 H 883.455 0.937097 2.38017 0
M  V30 9355 H 883.099 1.60285 4.81945 0
M  V30 9356 H 883.029 -0.120728 5.26462 0
M  V30 9357 H 885.52 0.317334 3.76565 0
M  V30 9358 H 885.833 1.26989 7.62295 0
M  V30 9359 H 884.178 1.13519 6.85666 0
M  V30 9360 H 887.369 0.47697 4.65664 0
M  V30 9361 H 887.542 0.911118 6.41563 0
M  V30 9362 N 880.948 -1.576 0.00335426 0
M  V30 9363 C 882.197 -1.89892 -0.680001 0
M  V30 9364 C 882.51 -0.878731 -1.7475 0
M  V30 9365 O 883.716 -1.09199 -2.48572 0
M  V30 9366 C 882.172 -3.37098 -1.26066 0
M  V30 9367 C 881.78 -4.4742 -0.227807 0
M  V30 9368 C 883.524 -3.78495 -1.92202 0
M  V30 9369 C 881.431 -5.85706 -0.81865 0
M  V30 9370 H 880.361 -0.708578 -0.257746 0
M  V30 9371 H 883.012 -1.83387 0.0644472 0
M  V30 9372 H 881.394 -3.38451 -2.05589 0
M  V30 9373 H 882.568 -4.57589 0.54307 0
M  V30 9374 H 880.883 -4.15064 0.333297 0
M  V30 9375 H 883.48 -4.7915 -2.37318 0
M  V30 9376 H 883.823 -3.12187 -2.75399 0
M  V30 9377 H 884.356 -3.79456 -1.19408 0
M  V30 9378 H 881.095 -6.55495 -0.0253787 0
M  V30 9379 H 880.615 -5.79196 -1.55861 0
M  V30 9380 H 882.294 -6.33469 -1.31627 0
M  V30 9381 N 882.426 0.269451 -1.5528 0
M  V30 9382 C 883.673 1.00058 -1.76053 0
M  V30 9383 C 884.001 1.86156 -0.563592 0
M  V30 9384 O 883.256 1.90366 0.453806 0
M  V30 9385 C 883.555 1.91 -3.02082 0
M  V30 9386 C 883.221 1.20623 -4.34466 0
M  V30 9387 C 881.883 1.01165 -4.70446 0
M  V30 9388 C 884.235 0.705695 -5.164 0
M  V30 9389 C 881.563 0.303865 -5.85913 0
M  V30 9390 C 883.915 0.0114838 -6.32599 0
M  V30 9391 C 882.579 -0.19478 -6.67216 0
M  V30 9392 H 881.849 0.366138 -0.644223 0
M  V30 9393 H 884.496 0.272563 -1.8955 0
M  V30 9394 H 882.801 2.70435 -2.835 0
M  V30 9395 H 884.498 2.47698 -3.15352 0
M  V30 9396 H 881.088 1.36781 -4.06188 0
M  V30 9397 H 885.272 0.84364 -4.89077 0
M  V30 9398 H 880.528 0.133368 -6.11255 0
M  V30 9399 H 884.702 -0.384111 -6.9534 0
M  V30 9400 H 882.329 -0.745201 -7.56539 0
M  V30 9401 N 883.904 1.48273 0.534124 0
M  V30 9402 C 885.15 1.56311 1.29208 0
M  V30 9403 C 885.483 0.234481 1.92779 0
M  V30 9404 O 884.758 -0.759143 1.79073 0
M  V30 9405 C 885.041 2.69831 2.3846 0
M  V30 9406 C 884.894 4.12385 1.79608 0
M  V30 9407 C 886.213 2.79133 3.40254 0
M  V30 9408 H 883.332 0.56899 0.468422 0
M  V30 9409 H 885.974 1.80429 0.595438 0
M  V30 9410 H 884.124 2.49397 2.97881 0
M  V30 9411 H 885.796 4.44246 1.24269 0
M  V30 9412 H 884.039 4.19579 1.10162 0
M  V30 9413 H 884.71 4.87629 2.58693 0
M  V30 9414 H 887.186 2.97632 2.90783 0
M  V30 9415 H 886.062 3.60298 4.14097 0
M  V30 9416 H 886.323 1.87122 4.00547 0
M  V30 9417 N 885.382 -0.782676 1.36792 0
M  V30 9418 C 886.292 -1.92679 1.33835 0
M  V30 9419 C 887.308 -1.72344 0.23952 0
M  V30 9420 O 888.484 -1.95766 0.473045 0
M  V30 9421 C 885.549 -3.27644 1.1336 0
M  V30 9422 C 884.61 -3.6071 2.32781 0
M  V30 9423 C 883.843 -4.89234 2.13273 0
M  V30 9424 O 884.066 -5.59468 1.11136 0
M  V30 9425 O 883 -5.21112 3.01208 0
M  V30 9426 H 886.826 -1.98124 2.30175 0
M  V30 9427 H 884.411 -0.923887 1.17408 0
M  V30 9428 H 886.293 -4.08394 1.03886 0
M  V30 9429 H 884.968 -3.23076 0.200868 0
M  V30 9430 H 883.875 -2.80238 2.47825 0
M  V30 9431 H 885.208 -3.70008 3.24584 0
M  V30 9432 N 886.86 -1.21182 -1.00761 0
M  V30 9433 C 887.823 -0.970339 -2.07646 0
M  V30 9434 C 888.823 0.0576345 -1.60697 0
M  V30 9435 O 890.013 -0.179369 -1.73274 0
M  V30 9436 C 887.145 -0.462703 -3.37745 0
M  V30 9437 H 888.338 -1.91856 -2.30502 0
M  V30 9438 H 885.891 -1.02844 -1.17698 0
M  V30 9439 H 886.626 0.490559 -3.20568 0
M  V30 9440 H 886.411 -1.20416 -3.73152 0
M  V30 9441 H 887.901 -0.313531 -4.16421 0
M  V30 9442 N 888.338 1.20213 -1.01915 0
M  V30 9443 C 889.285 2.2309 -0.591571 0
M  V30 9444 C 890.255 1.61465 0.389649 0
M  V30 9445 O 891.44 1.88606 0.288511 0
M  V30 9446 C 888.58 3.45045 0.0614028 0
M  V30 9447 C 887.693 4.21091 -0.964688 0
M  V30 9448 C 886.828 5.30448 -0.282499 0
M  V30 9449 C 885.867 5.98241 -1.29517 0
M  V30 9450 N 885.004 6.99182 -0.639472 0
M  V30 9451 H 889.844 2.59023 -1.47347 0
M  V30 9452 H 887.381 1.27274 -0.737547 0
M  V30 9453 H 889.339 4.14688 0.45714 0
M  V30 9454 H 887.969 3.09797 0.906937 0
M  V30 9455 H 887.021 3.50489 -1.47857 0
M  V30 9456 H 888.333 4.67662 -1.73475 0
M  V30 9457 H 887.487 6.06466 0.168603 0
M  V30 9458 H 886.226 4.84922 0.519843 0
M  V30 9459 H 885.231 5.20982 -1.75663 0
M  V30 9460 H 886.456 6.45853 -2.09884 0
M  V30 9461 H 884.402 6.55844 0.142955 0
M  V30 9462 H 884.319 7.43893 -1.34756 0
M  V30 9463 H 885.587 7.79212 -0.212047 0
M  V30 9464 N 889.816 0.795718 1.36037 0
M  V30 9465 C 890.746 0.212803 2.32528 0
M  V30 9466 C 891.727 -0.655716 1.56953 0
M  V30 9467 O 892.912 -0.588238 1.85077 0
M  V30 9468 C 890.042 -0.648189 3.41198 0
M  V30 9469 C 888.996 0.120948 4.27829 0
M  V30 9470 C 888.322 -0.861044 5.27722 0
M  V30 9471 C 889.622 1.31375 5.05508 0
M  V30 9472 H 891.316 1.01893 2.81528 0
M  V30 9473 H 888.862 0.491422 1.35355 0
M  V30 9474 H 890.815 -1.06597 4.07695 0
M  V30 9475 H 889.539 -1.48709 2.9078 0
M  V30 9476 H 888.198 0.519777 3.62897 0
M  V30 9477 H 887.846 -1.69515 4.73575 0
M  V30 9478 H 887.546 -0.350808 5.86552 0
M  V30 9479 H 889.07 -1.27726 5.97092 0
M  V30 9480 H 890.484 0.971406 5.6501 0
M  V30 9481 H 888.881 1.75772 5.73781 0
M  V30 9482 H 889.951 2.10593 4.36782 0
M  V30 9483 N 891.294 -1.47756 0.548274 0
M  V30 9484 C 892.71 -1.58247 0.207401 0
M  V30 9485 C 892.91 -1.54804 -1.28988 0
M  V30 9486 O 891.966 -1.44673 -2.06944 0
M  V30 9487 C 893.279 -2.89129 0.826142 0
M  V30 9488 C 894.827 -3.02695 0.79655 0
M  V30 9489 C 895.302 -4.36264 1.3942 0
M  V30 9490 N 896.793 -4.42877 1.35698 0
M  V30 9491 C 897.528 -5.44773 1.78913 0
M  V30 9492 N 897.024 -6.53528 2.29942 0
M  V30 9493 N 898.817 -5.35765 1.70038 0
M  V30 9494 H 890.968 -1.48236 1.52117 0
M  V30 9495 H 893.231 -0.704957 0.633829 0
M  V30 9496 H 892.937 -2.97358 1.87806 0
M  V30 9497 H 892.811 -3.75891 0.313916 0
M  V30 9498 H 895.198 -2.94067 -0.246655 0
M  V30 9499 H 895.279 -2.17496 1.34644 0
M  V30 9500 H 894.923 -4.45646 2.43642 0
M  V30 9501 H 894.853 -5.20179 0.819827 0
M  V30 9502 H 897.344 -3.64874 0.983623 0
M  V30 9503 H 897.657 -7.27441 2.60863 0
M  V30 9504 H 896.002 -6.54442 2.33947 0
M  V30 9505 H 899.193 -4.49699 1.29955 0
M  V30 9506 H 899.366 -6.1504 2.04035 0
M  V30 9507 N 892.772 -0.284283 -1.55015 0
M  V30 9508 C 894.183 0.211681 -1.85496 0
M  V30 9509 C 894.534 1.54735 -1.2063 0
M  V30 9510 O 893.659 2.10594 -0.497918 0
M  V30 9511 C 894.254 0.390864 -3.36538 0
M  V30 9512 C 892.813 0.831055 -3.67111 0
M  V30 9513 C 891.96 -0.0703581 -2.77211 0
M  V30 9514 H 894.911 -0.505803 -1.50424 0
M  V30 9515 H 894.932 1.22803 -3.60138 0
M  V30 9516 H 894.444 -0.581409 -3.8372 0
M  V30 9517 H 892.545 1.81447 -3.25434 0
M  V30 9518 H 892.658 0.662026 -4.74504 0
M  V30 9519 H 891.022 0.447528 -2.50737 0
M  V30 9520 H 891.805 -1.03868 -3.2721 0
M  V30 9521 N 894.251 1.57596 -0.0117121 0
M  V30 9522 C 895.476 1.95764 0.684938 0
M  V30 9523 C 895.901 0.887285 1.65858 0
M  V30 9524 O 895.259 -0.153508 1.80649 0
M  V30 9525 C 895.307 3.33031 1.38285 0
M  V30 9526 O 894.411 3.28163 2.49765 0
M  V30 9527 H 893.752 0.638767 0.181309 0
M  V30 9528 H 896.282 2.04486 -0.0683883 0
M  V30 9529 H 896.292 3.68866 1.74362 0
M  V30 9530 H 894.967 4.10483 0.669043 0
M  V30 9531 H 893.544 3.04021 2.15929 0
M  V30 9532 N 895.729 -0.261212 1.5542 0
M  V30 9533 C 896.692 -1.30645 1.8832 0
M  V30 9534 C 897.692 -1.41782 0.758588 0
M  V30 9535 O 898.882 -1.40729 1.02669 0
M  V30 9536 C 896.014 -2.6862 2.09895 0
M  V30 9537 H 897.207 -1.02698 2.81768 0
M  V30 9538 H 894.76 -0.499838 1.48092 0
M  V30 9539 H 895.495 -3.0173 1.18868 0
M  V30 9540 H 895.28 -2.61921 2.91787 0
M  V30 9541 H 896.77 -3.44121 2.36581 0
M  V30 9542 N 897.207 -1.48554 -0.526253 0
M  V30 9543 C 898.484 -1.47252 -1.28748 0
M  V30 9544 C 898.864 -0.186245 -2.10277 0
M  V30 9545 O 898.212 0.831954 -2.12816 0
M  V30 9546 C 898.422 -2.73672 -2.16575 0
M  V30 9547 C 899.77 -3.22151 -2.76593 0
M  V30 9548 O 900.794 -2.74614 -2.2686 0
M  V30 9549 O 899.653 -4.04877 -3.67066 0
M  V30 9550 H 896.747 -0.588242 -0.581292 0
M  V30 9551 H 899.293 -1.60792 -0.5426 0
M  V30 9552 H 898.065 -3.58798 -1.56139 0
M  V30 9553 H 897.688 -2.6287 -2.98304 0
M  V30 9554 N 898.685 0.775411 -1.37205 0
M  V30 9555 C 899.595 1.91967 -1.34855 0
M  V30 9556 C 900.611 1.72214 -0.248656 0
M  V30 9557 O 901.787 1.95512 -0.483421 0
M  V30 9558 C 898.852 3.27038 -1.15096 0
M  V30 9559 C 897.913 3.5947 -2.34691 0
M  V30 9560 C 897.146 4.88097 -2.15865 0
M  V30 9561 O 897.369 5.58871 -1.14102 0
M  V30 9562 O 896.303 5.19507 -3.03967 0
M  V30 9563 H 900.129 1.969 -2.31223 0
M  V30 9564 H 897.714 0.917647 -1.17897 0
M  V30 9565 H 899.596 4.07837 -1.0605 0
M  V30 9566 H 898.271 3.22965 -0.217999 0
M  V30 9567 H 897.178 2.7892 -2.49308 0
M  V30 9568 H 898.511 3.68282 -3.26541 0
M  V30 9569 N 900.163 1.21714 1.00117 0
M  V30 9570 C 901.093 1.00397 2.10815 0
M  V30 9571 C 902.074 -0.0723502 1.69946 0
M  V30 9572 O 903.259 0.0882398 1.93999 0
M  V30 9573 C 900.389 0.572001 3.42557 0
M  V30 9574 C 899.343 1.59331 3.97237 0
M  V30 9575 C 898.669 1.01746 5.2493 0
M  V30 9576 C 899.969 2.98117 4.28863 0
M  V30 9577 H 901.663 1.92983 2.28906 0
M  V30 9578 H 899.209 0.929273 1.10002 0
M  V30 9579 H 901.162 0.410018 4.19401 0
M  V30 9580 H 899.886 -0.38951 3.24269 0
M  V30 9581 H 898.545 1.74293 3.22518 0
M  V30 9582 H 898.193 0.0475491 5.02978 0
M  V30 9583 H 897.893 1.69969 5.62481 0
M  V30 9584 H 899.417 0.866881 6.04415 0
M  V30 9585 H 900.831 2.86578 4.96534 0
M  V30 9586 H 899.228 3.63389 4.77565 0
M  V30 9587 H 900.298 3.48674 3.36979 0
M  V30 9588 N 901.641 -1.19671 1.02551 0
M  V30 9589 C 902.571 -2.25009 0.623965 0
M  V30 9590 C 903.552 -1.66129 -0.36538 0
M  V30 9591 O 904.737 -1.92599 -0.248842 0
M  V30 9592 C 901.867 -3.47287 -0.0294869 0
M  V30 9593 C 900.821 -4.18818 0.881781 0
M  V30 9594 C 900.147 -5.34618 0.0936189 0
M  V30 9595 C 901.447 -4.73986 2.19396 0
M  V30 9596 H 903.141 -2.58851 1.50454 0
M  V30 9597 H 900.687 -1.24425 0.724872 0
M  V30 9598 H 902.64 -4.20168 -0.322016 0
M  V30 9599 H 901.364 -3.12635 -0.944838 0
M  V30 9600 H 900.023 -3.47815 1.15845 0
M  V30 9601 H 899.671 -4.9621 -0.823661 0
M  V30 9602 H 899.371 -5.83409 0.700568 0
M  V30 9603 H 900.895 -6.10297 -0.192249 0
M  V30 9604 H 902.309 -5.38639 1.96319 0
M  V30 9605 H 900.706 -5.3325 2.75254 0
M  V30 9606 H 901.776 -3.92238 2.85092 0
M  V30 9607 N 903.119 -0.802921 -1.35613 0
M  V30 9608 C 904.535 -0.486214 -1.52014 0
M  V30 9609 C 904.735 0.993219 -1.75321 0
M  V30 9610 O 903.791 1.77835 -1.79251 0
M  V30 9611 C 905.104 -1.32839 -2.69767 0
M  V30 9612 C 906.652 -1.32346 -2.83643 0
M  V30 9613 C 907.127 -2.14967 -4.04417 0
M  V30 9614 N 908.618 -2.12484 -4.11588 0
M  V30 9615 C 909.353 -2.73173 -5.04147 0
M  V30 9616 N 908.849 -3.42774 -6.02061 0
M  V30 9617 N 910.642 -2.62834 -4.96865 0
M  V30 9618 H 902.793 -1.76109 -1.18741 0
M  V30 9619 H 905.056 -0.74936 -0.580658 0
M  V30 9620 H 904.762 -2.37813 -2.5911 0
M  V30 9621 H 904.636 -0.979058 -3.64272 0
M  V30 9622 H 907.023 -0.281586 -2.93753 0
M  V30 9623 H 907.104 -1.71264 -1.90006 0
M  V30 9624 H 906.748 -3.19193 -3.95068 0
M  V30 9625 H 906.678 -1.73411 -4.97228 0
M  V30 9626 H 909.169 -1.61839 -3.41492 0
M  V30 9627 H 909.482 -3.86378 -6.69277 0
M  V30 9628 H 907.827 -3.46878 -6.02246 0
M  V30 9629 H 911.018 -2.08049 -4.19325 0
M  V30 9630 H 911.191 -3.10421 -5.68808 0
M  V30 9631 N 904.597 1.47463 -0.556102 0
M  V30 9632 C 905.547 2.27007 0.212592 0
M  V30 9633 C 906.531 1.34288 0.886312 0
M  V30 9634 O 907.723 1.5865 0.784801 0
M  V30 9635 C 904.852 3.20021 1.24263 0
M  V30 9636 C 903.938 4.2022 0.572385 0
M  V30 9637 N 904.329 5.04539 -0.35691 0
M  V30 9638 C 902.627 4.38276 0.826441 0
M  V30 9639 C 903.328 5.76895 -0.746134 0
M  V30 9640 N 902.304 5.43506 -0.101225 0
M  V30 9641 H 906.106 2.89582 -0.501925 0
M  V30 9642 H 903.62 1.57988 -0.375961 0
M  V30 9643 H 905.617 3.7569 1.80728 0
M  V30 9644 H 904.277 2.59003 1.95826 0
M  V30 9645 H 905.288 5.12715 -0.731012 0
M  V30 9646 H 901.965 3.88429 1.53066 0
M  V30 9647 H 903.355 6.5472 -1.50967 0
M  V30 9648 N 906.075 0.2925 1.54862 0
M  V30 9649 C 907.008 -0.629155 2.19356 0
M  V30 9650 C 907.986 -1.13927 1.16014 0
M  V30 9651 O 909.17 -1.20904 1.44618 0
M  V30 9652 C 906.297 -1.8599 2.83064 0
M  V30 9653 C 905.343 -1.48376 3.99859 0
M  V30 9654 S 906.176 -0.546976 5.32699 0
M  V30 9655 C 907.332 -1.7857 5.99886 0
M  V30 9656 H 907.565 -0.0812166 2.97189 0
M  V30 9657 H 905.098 0.0766721 1.5421 0
M  V30 9658 H 907.056 -2.56623 3.20398 0
M  V30 9659 H 905.717 -2.37899 2.05092 0
M  V30 9660 H 904.91 -2.40002 4.43187 0
M  V30 9661 H 904.512 -0.857447 3.64038 0
M  V30 9662 H 906.804 -2.7274 6.20177 0
M  V30 9663 H 907.747 -1.39513 6.9422 0
M  V30 9664 H 908.155 -1.95856 5.29434 0
M  V30 9665 N 907.553 -1.57587 0.0200696 0
M  V30 9666 C 908.8 -1.91424 -0.660525 0
M  V30 9667 C 909.128 -0.895626 -1.72652 0
M  V30 9668 O 908.383 0.096771 -1.95461 0
M  V30 9669 C 908.682 -3.32002 -1.32323 0
M  V30 9670 C 908.348 -4.49223 -0.388487 0
M  V30 9671 C 907.01 -4.81021 -0.131184 0
M  V30 9672 C 909.362 -5.20581 0.253906 0
M  V30 9673 C 906.69 -5.81539 0.776471 0
M  V30 9674 C 909.042 -6.22067 1.14956 0
M  V30 9675 C 907.706 -6.52311 1.41584 0
M  V30 9676 H 906.976 -0.700472 -0.241703 0
M  V30 9677 H 909.623 -1.91333 0.0798991 0
M  V30 9678 H 907.928 -3.28312 -2.13819 0
M  V30 9679 H 909.625 -3.5545 -1.85623 0
M  V30 9680 H 906.215 -4.24391 -0.599207 0
M  V30 9681 H 910.399 -4.96253 0.068164 0
M  V30 9682 H 905.655 -6.03322 0.990575 0
M  V30 9683 H 909.829 -6.76484 1.65357 0
M  V30 9684 H 907.456 -7.30017 2.12083 0
M  V30 9685 N 909.032 0.252966 -1.55557 0
M  V30 9686 C 910.278 0.983306 -1.77367 0
M  V30 9687 C 910.611 1.85203 -0.584258 0
M  V30 9688 O 909.886 1.89963 0.417644 0
M  V30 9689 C 910.169 1.84896 -3.09007 0
M  V30 9690 C 910.022 1.00883 -4.38341 0
M  V30 9691 C 911.341 2.83254 -3.36831 0
M  V30 9692 H 908.46 0.356056 -0.645286 0
M  V30 9693 H 911.102 0.254232 -1.88291 0
M  V30 9694 H 909.252 2.47058 -2.99825 0
M  V30 9695 H 910.924 0.40638 -4.59507 0
M  V30 9696 H 909.167 0.31297 -4.3267 0
M  V30 9697 H 909.838 1.64818 -5.2682 0
M  V30 9698 H 912.314 2.31228 -3.45937 0
M  V30 9699 H 911.19 3.40949 -4.30169 0
M  V30 9700 H 911.451 3.59407 -2.57447 0
M  V30 9701 N 910.51 1.48831 0.518367 0
M  V30 9702 C 911.46 1.60614 1.61824 0
M  V30 9703 C 912.444 0.462631 1.54106 0
M  V30 9704 O 913.636 0.714689 1.6193 0
M  V30 9705 C 910.765 1.65984 3.00507 0
M  V30 9706 C 909.851 2.85854 3.13286 0
M  V30 9707 N 910.242 4.1014 2.96005 0
M  V30 9708 C 908.54 2.83429 3.4436 0
M  V30 9709 C 909.241 4.90626 3.12508 0
M  V30 9710 N 908.217 4.2366 3.40607 0
M  V30 9711 H 912.019 2.54443 1.47091 0
M  V30 9712 H 909.533 1.45363 0.724102 0
M  V30 9713 H 911.53 1.72521 3.79529 0
M  V30 9714 H 910.19 0.732792 3.16323 0
M  V30 9715 H 911.201 4.40395 2.72531 0
M  V30 9716 H 907.878 2.0003 3.66462 0
M  V30 9717 H 909.268 5.99302 3.03786 0
M  V30 9718 N 911.988 -0.768124 1.37614 0
M  V30 9719 C 913.218 -1.555 1.36027 0
M  V30 9720 C 913.626 -1.89119 -0.0554273 0
M  V30 9721 O 912.969 -1.52203 -1.02859 0
M  V30 9722 C 913.031 -2.8906 2.13739 0
M  V30 9723 C 912.695 -2.78058 3.62674 0
M  V30 9724 C 913.692 -2.48841 4.5648 0
M  V30 9725 C 911.377 -2.95966 4.05844 0
M  V30 9726 C 913.371 -2.37665 5.91434 0
M  V30 9727 C 911.058 -2.84411 5.40882 0
M  V30 9728 C 912.056 -2.55301 6.33491 0
M  V30 9729 O 911.744 -2.43779 7.66046 0
M  V30 9730 H 911.476 -0.488263 0.467521 0
M  V30 9731 H 914.03 -0.959583 1.81607 0
M  V30 9732 H 912.26 -3.50735 1.62854 0
M  V30 9733 H 913.949 -3.5048 2.04741 0
M  V30 9734 H 914.715 -2.34687 4.24437 0
M  V30 9735 H 910.594 -3.17625 3.34119 0
M  V30 9736 H 914.138 -2.14865 6.63686 0
M  V30 9737 H 910.035 -2.98134 5.72527 0
M  V30 9738 H 910.803 -2.59101 7.76408 0
M  V30 9739 N 913.466 -1.22244 -0.994698 0
M  V30 9740 C 914.416 -0.958244 -2.06886 0
M  V30 9741 C 915.4 0.0904481 -1.60646 0
M  V30 9742 O 916.592 -0.119837 -1.76594 0
M  V30 9743 C 913.721 -0.535944 -3.39091 0
M  V30 9744 C 912.807 -1.61927 -3.9197 0
M  V30 9745 N 913.198 -2.84659 -4.18094 0
M  V30 9746 C 911.496 -1.49053 -4.20356 0
M  V30 9747 C 912.197 -3.54697 -4.61048 0
M  V30 9748 N 911.173 -2.82164 -4.64634 0
M  V30 9749 H 914.975 -1.89056 -2.25022 0
M  V30 9750 H 912.489 -1.1197 -1.17629 0
M  V30 9751 H 914.486 -0.327997 -4.15608 0
M  V30 9752 H 913.146 0.38949 -3.22355 0
M  V30 9753 H 914.157 -3.21104 -4.06341 0
M  V30 9754 H 910.834 -0.631154 -4.12702 0
M  V30 9755 H 912.224 -4.59837 -4.89898 0
M  V30 9756 O 914.983 1.1257 -1.15803 0
M  V30 9757 H 915.674 1.72207 -0.886817 0
M  V30 END ATOM
M  V30 BEGIN BOND
M  V30 END BOND
M  V30 END CTAB
M  END
$$$$
