drugbank_target|Q9Y2I1 Nischarin (DB00697; DB08838; DB09242)
 OpenBabel12092120343D

  0  0  0     0  0            999 V3000
M  V30 BEGIN CTAB
M  V30 COUNTS 23257 23531 0 0 0
M  V30 BEGIN ATOM
M  V30 1 H -0.908 1.98254 -0.117106 0
M  V30 2 N 0 1.576 0 0
M  V30 3 C 0.933 2.03868 1.02534 0
M  V30 4 C 1.911 0.928543 1.3348 0
M  V30 5 O 3.095 1.19667 1.45644 0
M  V30 6 C 0.222 2.43627 2.35294 0
M  V30 7 C -0.732 3.65373 2.2001 0
M  V30 8 S 0.101 5.13292 1.52614 0
M  V30 9 C 1.257 5.56322 2.86805 0
M  V30 10 H 1.49 2.90518 0.631377 0
M  V30 11 H -0.977 1.52953 0.210867 0
M  V30 12 H 0.981 2.67203 3.11629 0
M  V30 13 H -0.358 1.57376 2.7183 0
M  V30 14 H -1.165 3.90944 3.18086 0
M  V30 15 H -1.563 3.418 1.51819 0
M  V30 16 H 0.729 5.58782 3.83104 0
M  V30 17 H 1.672 6.56266 2.65933 0
M  V30 18 H 2.08 4.83886 2.90714 0
M  V30 19 N 1.4781 -0.272755 1.55222 0
M  V30 20 C 2.4411 -1.32041 1.87344 0
M  V30 21 C 3.4411 -1.42342 0.74803 0
M  V30 22 O 4.6311 -1.41488 1.0162 0
M  V30 23 C 1.7631 -2.70173 2.07893 0
M  V30 24 H 2.9561 -1.04789 2.80997 0
M  V30 25 H 0.5091 -0.51083 1.47717 0
M  V30 26 H 1.2441 -3.02605 1.16622 0
M  V30 27 H 1.0291 -2.64082 2.89833 0
M  V30 28 H 2.5191 -3.45869 2.34017 0
M  V30 29 N 2.9562 -1.48159 -0.537278 0
M  V30 30 C 4.1842 -1.59454 -1.31841 0
M  V30 31 C 4.5992 -0.252065 -1.8711 0
M  V30 32 O 3.9562 0.757621 -1.66031 0
M  V30 33 C 4.0072 -2.63546 -2.47439 0
M  V30 34 O 3.7282 -3.92583 -1.94449 0
M  V30 35 C 5.2292 -2.85212 -3.39366 0
M  V30 36 H 2.4492 -0.53785 -0.401196 0
M  V30 37 H 4.9932 -1.93932 -0.648891 0
M  V30 38 H 3.1482 -2.31946 -3.1029 0
M  V30 39 H 3.5622 -4.49629 -2.70063 0
M  V30 40 H 5.0362 -3.61863 -4.16844 0
M  V30 41 H 5.5132 -1.93765 -3.94147 0
M  V30 42 H 6.1192 -3.18086 -2.82314 0
M  V30 43 N 4.4343 0.785586 -1.36625 0
M  V30 44 C 5.3973 1.87999 -1.31107 0
M  V30 45 C 6.3973 1.59316 -0.217959 0
M  V30 46 O 7.5873 1.67656 -0.472977 0
M  V30 47 C 4.7193 3.24861 -1.03334 0
M  V30 48 H 5.9123 1.94307 -2.2844 0
M  V30 49 H 3.4653 0.983813 -1.21453 0
M  V30 50 H 4.2003 3.24235 -0.0647432 0
M  V30 51 H 3.9853 3.4707 -1.82441 0
M  V30 52 H 5.4753 4.04929 -1.02088 0
M  V30 53 N 5.9124 1.20967 1.01018 0
M  V30 54 C 7.3284 0.965905 1.27053 0
M  V30 55 C 7.5284 -0.350785 1.98423 0
M  V30 56 O 6.5844 -1.07773 2.28344 0
M  V30 57 C 7.8974 2.15294 2.09926 0
M  V30 58 C 9.4454 2.19463 2.23171 0
M  V30 59 C 9.9204 3.3767 3.09424 0
M  V30 60 N 11.4114 3.37724 3.17012 0
M  V30 61 C 12.1464 4.25837 3.83993 0
M  V30 62 N 11.6424 5.24138 4.53047 0
M  V30 63 N 13.4354 4.1366 3.80581 0
M  V30 64 H 5.5864 2.0565 0.531194 0
M  V30 65 H 7.8494 0.90024 0.297106 0
M  V30 66 H 7.5554 3.10684 1.64828 0
M  V30 67 H 7.4294 2.13923 3.10672 0
M  V30 68 H 9.8164 1.24632 2.6749 0
M  V30 69 H 9.8974 2.2488 1.21912 0
M  V30 70 H 9.5414 4.32791 2.65808 0
M  V30 71 H 9.4714 3.29491 4.10784 0
M  V30 72 H 11.9624 2.6658 2.6785 0
M  V30 73 H 12.2754 5.87684 5.01844 0
M  V30 74 H 10.6204 5.28068 4.5185 0
M  V30 75 H 13.8114 3.36127 3.25785 0
M  V30 76 H 13.9844 4.82538 4.32505 0
M  V30 77 N 7.3905 -1.2043 1.01659 0
M  V30 78 C 8.6185 -1.93777 0.725132 0
M  V30 79 C 9.0335 -1.74772 -0.714166 0
M  V30 80 O 8.3905 -1.06169 -1.4844 0
M  V30 81 C 8.4415 -3.45876 1.05129 0
M  V30 82 O 8.1625 -3.6426 2.43406 0
M  V30 83 C 9.6635 -4.36368 0.780891 0
M  V30 84 H 6.8835 -0.615901 0.266284 0
M  V30 85 H 9.4275 -1.52922 1.35776 0
M  V30 86 H 7.5825 -3.8461 0.464065 0
M  V30 87 H 7.9965 -4.58246 2.55169 0
M  V30 88 H 9.4705 -5.41743 1.05918 0
M  V30 89 H 9.9475 -4.38275 -0.284937 0
M  V30 90 H 10.5535 -4.03296 1.35027 0
M  V30 91 N 8.8686 -0.792821 -1.36206 0
M  V30 92 C 10.1156 -0.366786 -1.99151 0
M  V30 93 C 10.4436 1.06243 -1.62919 0
M  V30 94 O 9.6986 1.74927 -0.877442 0
M  V30 95 C 9.9976 -0.481501 -3.54142 0
M  V30 96 C 9.6636 -1.87202 -4.10203 0
M  V30 97 C 8.3256 -2.25248 -4.25226 0
M  V30 98 C 10.6776 -2.78237 -4.40719 0
M  V30 99 C 8.0056 -3.53723 -4.68078 0
M  V30 100 C 10.3576 -4.06144 -4.85005 0
M  V30 101 C 9.0216 -4.44207 -4.98234 0
M  V30 102 H 8.2916 -0.134217 -0.728743 0
M  V30 103 H 10.9386 -1.01094 -1.62641 0
M  V30 104 H 9.2436 0.246146 -3.91026 0
M  V30 105 H 10.9406 -0.132844 -4.0078 0
M  V30 106 H 7.5306 -1.56639 -3.98951 0
M  V30 107 H 11.7146 -2.50097 -4.28679 0
M  V30 108 H 6.9706 -3.8308 -4.76508 0
M  V30 109 H 11.1446 -4.76796 -5.07581 0
M  V30 110 H 8.7716 -5.43814 -5.31197 0
M  V30 111 N 10.3467 1.47872 -0.545128 0
M  V30 112 C 11.5947 2.02093 -0.016553 0
M  V30 113 C 11.9157 1.42305 1.3332 0
M  V30 114 O 11.1857 0.593853 1.86682 0
M  V30 115 H 9.7657 0.746993 -0.00313038 0
M  V30 116 H 12.4277 1.81414 -0.712397 0
M  V30 117 H 11.5237 3.11996 0.0805422 0
M  V30 118 N 11.8248 0.280983 1.55075 0
M  V30 119 C 13.2358 -0.215629 1.85451 0
M  V30 120 C 13.5868 -1.54991 1.203 0
M  V30 121 O 12.7118 -2.10699 0.493435 0
M  V30 122 C 13.3068 -0.398026 3.36454 0
M  V30 123 C 11.8658 -0.838866 3.66933 0
M  V30 124 C 11.0128 0.064458 2.77225 0
M  V30 125 H 13.9638 0.502601 1.50531 0
M  V30 126 H 13.9848 -1.23569 3.59876 0
M  V30 127 H 13.4968 0.573241 3.83843 0
M  V30 128 H 11.5978 -1.8214 3.25048 0
M  V30 129 H 11.7108 -0.672123 4.74362 0
M  V30 130 H 10.0748 -0.452863 2.50642 0
M  V30 131 H 10.8578 1.03172 3.2743 0
M  V30 132 N 13.3029 -1.57598 0.00835791 0
M  V30 133 C 14.2129 -2.12385 -0.996487 0
M  V30 134 C 15.2289 -1.07108 -1.37127 0
M  V30 135 O 16.4049 -1.39055 -1.4569 0
M  V30 136 C 13.4699 -2.62314 -2.26699 0
M  V30 137 C 12.5309 -3.82225 -1.95456 0
M  V30 138 C 11.7639 -4.29763 -3.16449 0
M  V30 139 O 11.9869 -3.76584 -4.28416 0
M  V30 140 O 10.9209 -5.21832 -2.99958 0
M  V30 141 H 14.7469 -2.98479 -0.560725 0
M  V30 142 H 12.3319 -1.47903 -0.210987 0
M  V30 143 H 14.2139 -2.94589 -3.01322 0
M  V30 144 H 12.8889 -1.79313 -2.69497 0
M  V30 145 H 11.7959 -3.54909 -1.18282 0
M  V30 146 H 13.1289 -4.66324 -1.57489 0
M  V30 147 N 14.781 0.264519 -1.55364 0
M  V30 148 C 16.197 0.61215 -1.47394 0
M  V30 149 C 16.397 1.89134 -0.695018 0
M  V30 150 O 15.453 2.51563 -0.217275 0
M  V30 151 C 16.766 0.731235 -2.91674 0
M  V30 152 C 18.314 0.82473 -3.01939 0
M  V30 153 C 18.789 0.975522 -4.4749 0
M  V30 154 N 20.28 1.04083 -4.51354 0
M  V30 155 C 21.015 1.17646 -5.61201 0
M  V30 156 N 20.511 1.27874 -6.80896 0
M  V30 157 N 22.304 1.20823 -5.48961 0
M  V30 158 H 14.455 -0.575456 -2.04456 0
M  V30 159 H 16.718 -0.196099 -0.927496 0
M  V30 160 H 16.424 -0.138392 -3.51428 0
M  V30 161 H 16.298 1.60883 -3.41169 0
M  V30 162 H 18.685 1.68482 -2.42276 0
M  V30 163 H 18.766 -0.0776479 -2.55682 0
M  V30 164 H 18.41 0.120058 -5.07758 0
M  V30 165 H 18.34 1.89268 -4.91412 0
M  V30 166 H 20.831 0.973846 -3.65136 0
M  V30 167 H 21.144 1.38081 -7.60364 0
M  V30 168 H 19.489 1.24863 -6.83692 0
M  V30 169 H 22.68 1.12469 -4.54388 0
M  V30 170 H 22.853 1.31049 -6.3461 0
M  V30 171 N 16.2591 1.48442 0.529413 0
M  V30 172 C 17.1691 1.6569 1.66084 0
M  V30 173 C 18.1851 0.539432 1.65427 0
M  V30 174 O 19.3611 0.810572 1.84368 0
M  V30 175 C 16.4261 1.69315 3.02545 0
M  V30 176 C 15.4871 2.92694 3.14052 0
M  V30 177 C 14.7201 2.96137 4.44003 0
M  V30 178 O 14.9431 2.07973 5.31134 0
M  V30 179 O 13.8771 3.88312 4.59888 0
M  V30 180 H 17.7031 2.61483 1.54469 0
M  V30 181 H 15.2881 1.3185 0.702567 0
M  V30 182 H 17.1701 1.74217 3.83701 0
M  V30 183 H 15.8451 0.766966 3.14483 0
M  V30 184 H 14.7521 2.93324 2.32189 0
M  V30 185 H 16.0851 3.84699 3.0703 0
M  V30 186 N 17.7372 -0.778329 1.37039 0
M  V30 187 C 18.7002 -1.87301 1.32102 0
M  V30 188 C 19.7002 -1.59198 0.226405 0
M  V30 189 O 20.8902 -1.67403 0.481861 0
M  V30 190 C 18.0222 -3.24309 1.05055 0
M  V30 191 H 19.2152 -1.93093 2.29467 0
M  V30 192 H 16.7682 -0.977358 1.21973 0
M  V30 193 H 17.5032 -3.24196 0.0819373 0
M  V30 194 H 17.2882 -3.46098 1.84279 0
M  V30 195 H 18.7782 -4.04382 1.04234 0
M  V30 196 N 19.2153 -1.21501 -1.00376 0
M  V30 197 C 20.1253 -0.991447 -2.12621 0
M  V30 198 C 21.1413 0.0568446 -1.73907 0
M  V30 199 O 22.3173 -0.13348 -2.00957 0
M  V30 200 C 19.3823 -0.560312 -3.42142 0
M  V30 201 C 18.4433 -1.68096 -3.95022 0
M  V30 202 C 17.6763 -1.2703 -5.18362 0
M  V30 203 O 17.8993 -0.144438 -5.70217 0
M  V30 204 O 16.8333 -2.08269 -5.64719 0
M  V30 205 H 20.6593 -1.93158 -2.34358 0
M  V30 206 H 18.2443 -0.999999 -1.10997 0
M  V30 207 H 20.1263 -0.329724 -4.20108 0
M  V30 208 H 18.8013 0.351089 -3.2179 0
M  V30 209 H 17.7083 -1.96597 -3.18278 0
M  V30 210 H 19.0413 -2.56983 -4.19786 0
M  V30 211 N 20.6934 1.19889 -1.02296 0
M  V30 212 C 22.1044 1.71124 -0.746568 0
M  V30 213 C 22.4554 1.81939 0.734335 0
M  V30 214 O 21.5804 1.48639 1.57275 0
M  V30 215 C 22.1754 3.10804 -1.34857 0
M  V30 216 C 20.7344 3.59323 -1.1209 0
M  V30 217 C 19.8814 2.3635 -1.45031 0
M  V30 218 H 22.8324 1.04813 -1.19163 0
M  V30 219 H 22.8534 3.73186 -0.742437 0
M  V30 220 H 22.3654 3.029 -2.42638 0
M  V30 221 H 20.4664 3.7255 -0.0610337 0
M  V30 222 H 20.5794 4.4378 -1.80544 0
M  V30 223 H 18.9434 2.39399 -0.869487 0
M  V30 224 H 19.7264 2.31081 -2.53883 0
M  V30 225 N 22.1715 0.800033 1.35784 0
M  V30 226 C 23.1345 0.211565 2.28221 0
M  V30 227 C 24.1345 -0.59728 1.49296 0
M  V30 228 O 25.3245 -0.416721 1.69142 0
M  V30 229 C 22.4565 -0.705846 3.33513 0
M  V30 230 H 23.6495 1.02677 2.81776 0
M  V30 231 H 21.2025 0.570211 1.45528 0
M  V30 232 H 21.9375 -1.54498 2.85133 0
M  V30 233 H 21.7225 -0.127655 3.91892 0
M  V30 234 H 23.2125 -1.11211 4.02519 0
M  V30 235 N 23.6496 -1.47581 0.552962 0
M  V30 236 C 24.5966 -2.29957 -0.197108 0
M  V30 237 C 25.5666 -1.38799 -0.912359 0
M  V30 238 O 26.7516 -1.67761 -0.908888 0
M  V30 239 C 23.8916 -3.22672 -1.22379 0
M  V30 240 C 23.0046 -4.28919 -0.515038 0
M  V30 241 C 22.1396 -5.0879 -1.52664 0
M  V30 242 C 21.1786 -6.06815 -0.802631 0
M  V30 243 N 20.3156 -6.7966 -1.76086 0
M  V30 244 H 25.1556 -2.93578 0.511486 0
M  V30 245 H 22.6926 -1.4471 0.264067 0
M  V30 246 H 24.6506 -3.74845 -1.83159 0
M  V30 247 H 23.2806 -2.60925 -1.90047 0
M  V30 248 H 22.3326 -3.79835 0.207192 0
M  V30 249 H 23.6446 -4.98773 0.0523425 0
M  V30 250 H 22.7986 -5.65091 -2.20809 0
M  V30 251 H 21.5376 -4.38828 -2.12794 0
M  V30 252 H 20.5426 -5.49695 -0.107238 0
M  V30 253 H 21.7676 -6.78784 -0.207135 0
M  V30 254 H 19.7136 -6.12432 -2.35081 0
M  V30 255 H 19.6306 -7.45669 -1.24552 0
M  V30 256 H 20.8986 -7.40538 -2.43359 0
M  V30 257 N 25.1277 -0.289203 -1.54924 0
M  V30 258 C 26.0377 0.601863 -2.26748 0
M  V30 259 C 27.0537 1.15834 -1.2984 0
M  V30 260 O 28.2297 1.18564 -1.62802 0
M  V30 261 C 25.2947 1.76299 -2.98529 0
M  V30 262 C 24.3557 1.24178 -4.10948 0
M  V30 263 C 23.5887 2.34757 -4.79296 0
M  V30 264 O 23.8117 3.54411 -4.46933 0
M  V30 265 O 22.7457 2.02115 -5.66951 0
M  V30 266 H 26.5717 0.0195879 -3.03694 0
M  V30 267 H 24.1567 -0.0560868 -1.49295 0
M  V30 268 H 26.0387 2.43973 -3.43592 0
M  V30 269 H 24.7137 2.33209 -2.24488 0
M  V30 270 H 23.6207 0.531104 -3.70311 0
M  V30 271 H 24.9537 0.718252 -4.86931 0
M  V30 272 N 26.6058 1.57591 -0.0167156 0
M  V30 273 C 27.5688 2.08393 0.954204 0
M  V30 274 C 28.5688 0.996531 1.26198 0
M  V30 275 O 29.7588 1.25858 1.20438 0
M  V30 276 C 26.8908 2.5394 2.27436 0
M  V30 277 H 28.0838 2.95455 0.514451 0
M  V30 278 H 25.6368 1.54582 0.231089 0
M  V30 279 H 26.3718 1.70171 2.76066 0
M  V30 280 H 26.1568 3.33371 2.06412 0
M  V30 281 H 27.6468 2.93512 2.97053 0
M  V30 282 N 28.0839 -0.256276 1.55502 0
M  V30 283 C 29.4999 -0.604325 1.47716 0
M  V30 284 C 29.6999 -1.88763 0.705039 0
M  V30 285 O 28.7559 -2.51445 0.230613 0
M  V30 286 C 30.0689 -0.715756 2.92057 0
M  V30 287 C 31.6169 -0.808706 3.02372 0
M  V30 288 C 32.0919 -0.951777 4.48001 0
M  V30 289 N 33.5829 -1.01688 4.519 0
M  V30 290 C 34.3179 -1.14668 5.61817 0
M  V30 291 N 33.8139 -1.24261 6.81565 0
M  V30 292 N 35.6069 -1.1791 5.49594 0
M  V30 293 H 27.7579 0.586291 2.04148 0
M  V30 294 H 30.0209 0.201015 0.926443 0
M  V30 295 H 29.7269 0.157027 3.51349 0
M  V30 296 H 29.6009 -1.59071 3.42018 0
M  V30 297 H 31.9879 -1.67195 2.43166 0
M  V30 298 H 32.0689 0.0912063 2.55637 0
M  V30 299 H 31.7129 -0.0931291 5.07815 0
M  V30 300 H 31.6429 -1.86659 4.92408 0
M  V30 301 H 34.1339 -0.954468 3.65648 0
M  V30 302 H 34.4469 -1.34046 7.61086 0
M  V30 303 H 32.7919 -1.21236 6.84344 0
M  V30 304 H 35.9829 -1.10057 4.54978 0
M  V30 305 H 36.1559 -1.27681 6.35296 0
M  V30 306 N 29.562 -1.4872 -0.521534 0
M  V30 307 C 30.808 -1.574 -1.27879 0
M  V30 308 C 31.141 -0.250817 -1.92573 0
M  V30 309 O 30.416 0.743934 -1.79711 0
M  V30 310 C 30.699 -2.71843 -2.36164 0
M  V30 311 C 30.552 -4.13893 -1.76105 0
M  V30 312 C 31.871 -2.82008 -3.37875 0
M  V30 313 H 28.99 -0.572941 -0.463581 0
M  V30 314 H 31.632 -1.80927 -0.580119 0
M  V30 315 H 29.782 -2.51914 -2.95756 0
M  V30 316 H 31.454 -4.45284 -1.20499 0
M  V30 317 H 29.697 -4.20498 -1.06601 0
M  V30 318 H 30.368 -4.89804 -2.5455 0
M  V30 319 H 32.844 -3.00086 -2.88249 0
M  V30 320 H 31.72 -3.63796 -4.11028 0
M  V30 321 H 31.981 -1.90511 -3.98946 0
M  V30 322 N 31.0401 0.771051 -1.3745 0
M  V30 323 C 32.2861 1.5319 -1.32894 0
M  V30 324 C 32.6191 1.94008 0.0862511 0
M  V30 325 O 31.8941 1.64124 1.04373 0
M  V30 326 C 32.1771 2.79648 -2.26868 0
M  V30 327 C 32.0301 2.45079 -3.77169 0
M  V30 328 C 33.3491 3.81583 -2.19277 0
M  V30 329 H 30.4681 0.555744 -0.484064 0
M  V30 330 H 33.1101 0.884492 -1.68157 0
M  V30 331 H 31.2601 3.34891 -1.96926 0
M  V30 332 H 32.9321 1.95745 -4.1771 0
M  V30 333 H 31.1751 1.77767 -3.95704 0
M  V30 334 H 31.8461 3.35478 -4.38359 0
M  V30 335 H 34.3221 3.35835 -2.45671 0
M  V30 336 H 33.1981 4.67787 -2.87171 0
M  V30 337 H 33.4591 4.25897 -1.18592 0
M  V30 338 N 32.5182 1.22032 0.997298 0
M  V30 339 C 33.7662 1.04016 1.73278 0
M  V30 340 C 34.0872 -0.426255 1.90284 0
M  V30 341 O 33.3572 -1.30694 1.45931 0
M  V30 342 H 31.9372 0.381897 0.642 0
M  V30 343 H 34.5992 1.5347 1.20137 0
M  V30 344 H 33.6952 1.51441 2.72896 0
M  V30 345 N 33.9963 -1.19345 1.0293 0
M  V30 346 C 35.2213 -1.93538 0.745511 0
M  V30 347 C 35.6463 -1.75007 -0.689511 0
M  V30 348 O 35.0043 -1.05265 -1.47611 0
M  V30 349 C 35.0523 -3.43336 1.10239 0
M  V30 350 O 34.1563 -4.11806 0.221289 0
M  V30 351 H 33.4973 -0.604193 0.275404 0
M  V30 352 H 36.0273 -1.5141 1.37609 0
M  V30 353 H 36.0373 -3.94004 1.05947 0
M  V30 354 H 34.7123 -3.56146 2.14786 0
M  V30 355 H 33.2893 -3.715 0.322842 0
M  V30 356 N 35.4744 -0.807222 -1.35358 0
M  V30 357 C 36.3844 -0.219594 -2.3357 0
M  V30 358 C 37.4004 0.637734 -1.61892 0
M  V30 359 O 38.5764 0.549336 -1.93763 0
M  V30 360 C 35.6414 0.62158 -3.41083 0
M  V30 361 C 34.7024 -0.256315 -4.28534 0
M  V30 362 C 33.9354 0.544807 -5.30912 0
M  V30 363 O 34.1584 1.77944 -5.41934 0
M  V30 364 O 33.0924 -0.0646478 -6.01865 0
M  V30 365 H 36.9184 -1.03208 -2.85625 0
M  V30 366 H 34.5034 -0.569025 -1.38139 0
M  V30 367 H 36.3854 1.10067 -4.06772 0
M  V30 368 H 35.0604 1.41165 -2.91297 0
M  V30 369 H 33.9674 -0.782559 -3.65823 0
M  V30 370 H 35.3004 -1.01034 -4.81719 0
M  V30 371 N 36.9525 1.47285 -0.560781 0
M  V30 372 C 37.8825 2.32857 0.173105 0
M  V30 373 C 38.8635 1.44009 0.905281 0
M  V30 374 O 40.0485 1.7286 0.885046 0
M  V30 375 C 37.1785 3.25861 1.20133 0
M  V30 376 C 36.1325 4.23978 0.585388 0
M  V30 377 C 35.4585 5.06332 1.7185 0
M  V30 378 C 36.7585 5.20242 -0.463178 0
M  V30 379 H 38.4525 2.94466 -0.541307 0
M  V30 380 H 35.9985 1.41601 -0.261764 0
M  V30 381 H 37.9515 3.84569 1.72293 0
M  V30 382 H 36.6755 2.62315 1.94573 0
M  V30 383 H 35.3345 3.66501 0.085054 0
M  V30 384 H 34.9825 4.39186 2.45203 0
M  V30 385 H 34.6825 5.72762 1.31213 0
M  V30 386 H 36.2065 5.67899 2.24329 0
M  V30 387 H 37.6205 5.73293 -0.027502 0
M  V30 388 H 36.0175 5.94896 -0.788627 0
M  V30 389 H 37.0875 4.65504 -1.35773 0
M  V30 390 N 38.4306 0.297415 1.54768 0
M  V30 391 C 39.6766 -0.313376 2.00364 0
M  V30 392 C 40.0096 -1.53815 1.18553 0
M  V30 393 O 39.2846 -1.92739 0.261103 0
M  V30 394 C 39.5676 -0.673525 3.53745 0
M  V30 395 C 39.4206 0.560133 4.46299 0
M  V30 396 C 40.7396 -1.50143 4.13697 0
M  V30 397 H 37.8586 -0.112428 0.728374 0
M  V30 398 H 40.5006 0.4088 1.8555 0
M  V30 399 H 38.6506 -1.28881 3.665 0
M  V30 400 H 40.3226 1.19863 4.45455 0
M  V30 401 H 38.5656 1.19405 4.17043 0
M  V30 402 H 39.2366 0.26405 5.51368 0
M  V30 403 H 41.7126 -0.981588 4.04356 0
M  V30 404 H 40.5886 -1.72221 5.21182 0
M  V30 405 H 40.8496 -2.48952 3.65343 0
M  V30 406 N 39.9087 -1.5758 0.0250728 0
M  V30 407 C 41.1857 -1.82917 -0.692873 0
M  V30 408 C 41.5657 -0.908137 -1.90568 0
M  V30 409 O 40.9137 0.0372298 -2.2847 0
M  V30 410 C 41.1237 -3.32034 -1.07492 0
M  V30 411 C 42.4717 -3.98406 -1.46826 0
M  V30 412 O 43.4957 -3.36505 -1.16801 0
M  V30 413 O 42.3547 -5.07497 -2.02754 0
M  V30 414 H 39.4487 -0.754079 -0.33955 0
M  V30 415 H 41.9947 -1.69619 0.0524456 0
M  V30 416 H 40.7667 -3.90728 -0.211552 0
M  V30 417 H 40.3897 -3.50424 -1.87854 0
M  V30 418 N 41.3868 0.248026 -1.55636 0
M  V30 419 C 42.6148 0.993808 -1.81469 0
M  V30 420 C 43.0298 1.78991 -0.60064 0
M  V30 421 O 42.3868 1.77345 0.430682 0
M  V30 422 C 42.4378 1.93258 -3.05506 0
M  V30 423 O 42.1588 1.16869 -4.22224 0
M  V30 424 C 43.6598 2.79444 -3.4413 0
M  V30 425 H 40.8798 0.292486 -0.603898 0
M  V30 426 H 43.4238 0.271253 -2.02693 0
M  V30 427 H 41.5788 2.60943 -2.86335 0
M  V30 428 H 41.9928 1.80359 -4.92515 0
M  V30 429 H 43.4668 3.41066 -4.34026 0
M  V30 430 H 43.9438 3.50499 -2.64665 0
M  V30 431 H 44.5498 2.17214 -3.65648 0
M  V30 432 N 42.8649 1.48995 0.513639 0
M  V30 433 C 44.0949 1.61297 1.291 0
M  V30 434 C 44.5029 0.278656 1.87137 0
M  V30 435 O 43.8459 -0.744325 1.67945 0
M  V30 436 C 43.9079 2.61326 2.46879 0
M  V30 437 C 43.5719 4.05993 2.09807 0
M  V30 438 C 44.5689 4.93183 1.64519 0
M  V30 439 C 42.2539 4.51642 2.19829 0
M  V30 440 C 44.2479 6.24056 1.2974 0
M  V30 441 C 41.9349 5.82532 1.84662 0
M  V30 442 C 42.9329 6.68562 1.3969 0
M  V30 443 O 42.6209 7.97014 1.04992 0
M  V30 444 H 42.3529 0.546236 0.39825 0
M  V30 445 H 44.9069 1.95673 0.62459 0
M  V30 446 H 43.1369 2.22104 3.16554 0
M  V30 447 H 44.8259 2.6329 3.08923 0
M  V30 448 H 45.5919 4.59147 1.56233 0
M  V30 449 H 41.4709 3.84855 2.53786 0
M  V30 450 H 45.0149 6.91161 0.945659 0
M  V30 451 H 40.9119 6.16099 1.92594 0
M  V30 452 H 41.6799 8.09913 1.18249 0
M  V30 453 N 44.343 -0.763751 1.37857 0
M  V30 454 C 45.571 -1.55293 1.36718 0
M  V30 455 C 45.986 -1.88745 -0.0455434 0
M  V30 456 O 45.343 -1.52039 -1.00947 0
M  V30 457 C 45.394 -2.85831 2.2132 0
M  V30 458 O 45.115 -2.5381 3.57089 0
M  V30 459 C 46.616 -3.80023 2.28249 0
M  V30 460 H 43.836 -0.480841 0.468009 0
M  V30 461 H 46.38 -0.946009 1.81303 0
M  V30 462 H 44.535 -3.42926 1.80223 0
M  V30 463 H 44.949 -3.37459 4.01524 0
M  V30 464 H 46.423 -4.68599 2.91752 0
M  V30 465 H 46.9 -4.1973 1.2932 0
M  V30 466 H 47.506 -3.28855 2.69693 0
M  V30 467 N 45.8211 -1.22559 -0.990812 0
M  V30 468 C 47.0671 -1.05297 -1.73322 0
M  V30 469 C 47.4001 0.410655 -1.89808 0
M  V30 470 O 46.6751 1.30439 -1.44277 0
M  V30 471 C 46.9581 -1.76713 -3.13759 0
M  V30 472 C 46.8111 -3.30684 -3.04907 0
M  V30 473 C 48.1301 -1.52121 -4.12974 0
M  V30 474 H 45.2491 -0.38392 -0.629106 0
M  V30 475 H 47.8911 -1.50926 -1.15418 0
M  V30 476 H 46.0411 -1.37924 -3.63193 0
M  V30 477 H 47.7131 -3.7893 -2.63077 0
M  V30 478 H 45.9561 -3.60253 -2.41661 0
M  V30 479 H 46.6271 -3.75833 -4.04294 0
M  V30 480 H 49.1031 -1.85819 -3.72304 0
M  V30 481 H 47.9791 -2.04582 -5.0935 0
M  V30 482 H 48.2401 -0.454257 -4.3976 0
M  V30 483 N 47.2992 1.18797 -1.03562 0
M  V30 484 C 48.5292 1.92319 -0.754773 0
M  V30 485 C 48.9372 1.7612 0.691248 0
M  V30 486 O 48.2802 1.08491 1.48241 0
M  V30 487 C 48.3422 3.44284 -1.03484 0
M  V30 488 C 48.0062 3.84258 -2.47376 0
M  V30 489 C 49.0032 3.88459 -3.45537 0
M  V30 490 C 46.6882 4.15701 -2.81954 0
M  V30 491 C 48.6822 4.23545 -4.76328 0
M  V30 492 C 46.3692 4.50458 -4.12954 0
M  V30 493 C 47.3672 4.54356 -5.09951 0
M  V30 494 O 47.0552 4.88305 -6.38603 0
M  V30 495 H 46.7872 0.617527 -0.275021 0
M  V30 496 H 49.3412 1.51683 -1.38497 0
M  V30 497 H 47.5712 3.85135 -0.347513 0
M  V30 498 H 49.2602 3.99049 -0.7426 0
M  V30 499 H 50.0262 3.6431 -3.20162 0
M  V30 500 H 45.9052 4.11847 -2.0713 0
M  V30 501 H 49.4492 4.26502 -5.52035 0
M  V30 502 H 45.3462 4.74067 -4.38099 0
M  V30 503 H 46.1142 5.06227 -6.43177 0
M  V30 504 N 48.7773 0.814389 1.34928 0
M  V30 505 C 50.0263 0.394871 1.97797 0
M  V30 506 C 50.3393 -1.04555 1.65311 0
M  V30 507 O 51.5453 -1.56856 2.21604 0
M  V30 508 C 50.0013 0.655103 3.53888 0
M  V30 509 C 49.6093 2.10858 3.95276 0
M  V30 510 C 51.3533 0.301329 4.23429 0
M  V30 511 C 49.2603 2.31415 5.44244 0
M  V30 512 H 48.1903 0.143913 0.740139 0
M  V30 513 H 50.8413 0.999544 1.53888 0
M  V30 514 H 49.2233 -0.0196253 3.95995 0
M  V30 515 H 50.3973 2.82176 3.64298 0
M  V30 516 H 48.7123 2.42297 3.38646 0
M  V30 517 H 51.3093 0.432869 5.32945 0
M  V30 518 H 51.6523 -0.75331 4.09428 0
M  V30 519 H 52.1853 0.930288 3.86769 0
M  V30 520 H 48.9243 3.35353 5.63222 0
M  V30 521 H 48.4443 1.6463 5.76764 0
M  V30 522 H 50.1233 2.13352 6.10811 0
M  V30 523 N 50.2554 -1.46986 0.568584 0
M  V30 524 C 51.5044 -2.01646 0.0465894 0
M  V30 525 C 51.8174 -1.44721 -1.31587 0
M  V30 526 O 53.0234 -1.91113 -1.92842 0
M  V30 527 C 51.4794 -3.59885 0.032752 0
M  V30 528 C 51.0874 -4.25804 1.39266 0
M  V30 529 C 52.8314 -4.22255 -0.436038 0
M  V30 530 C 50.7384 -5.76081 1.33732 0
M  V30 531 H 49.6684 -0.753876 0.013647 0
M  V30 532 H 52.3194 -1.68864 0.718131 0
M  V30 533 H 50.7014 -3.8968 -0.704669 0
M  V30 534 H 51.8754 -4.07637 2.1487 0
M  V30 535 H 50.1904 -3.7547 1.80032 0
M  V30 536 H 52.7874 -5.32394 -0.49602 0
M  V30 537 H 53.1304 -3.90212 -1.45053 0
M  V30 538 H 53.6634 -3.97033 0.246877 0
M  V30 539 H 50.4024 -6.12761 2.32817 0
M  V30 540 H 49.9224 -5.96553 0.623267 0
M  V30 541 H 51.6014 -6.38518 1.0442 0
M  V30 542 N 51.7335 -0.305618 -1.54608 0
M  V30 543 C 52.6655 0.602161 -2.21149 0
M  V30 544 C 53.6785 1.09394 -1.20569 0
M  V30 545 O 54.8675 1.0106 -1.47136 0
M  V30 546 C 51.9675 1.83692 -2.84799 0
M  V30 547 C 51.1405 1.48686 -4.11353 0
M  V30 548 C 50.1995 2.57725 -4.58764 0
M  V30 549 O 49.2255 2.22623 -5.23858 0
M  V30 550 N 50.4275 3.88346 -4.31471 0
M  V30 551 H 53.1925 0.0324966 -2.99682 0
M  V30 552 H 50.7535 -0.128021 -1.61393 0
M  V30 553 H 52.7455 2.55994 -3.13448 0
M  V30 554 H 51.3155 2.31486 -2.10078 0
M  V30 555 H 50.5355 0.596269 -3.89664 0
M  V30 556 H 51.8235 1.22842 -4.93748 0
M  V30 557 H 51.2215 4.19671 -3.79331 0
M  V30 558 H 49.7785 4.56932 -4.64818 0
M  V30 559 N 53.2116 1.57565 -0.0334293 0
M  V30 560 C 54.4576 1.92262 0.645226 0
M  V30 561 C 54.7906 0.910543 1.71531 0
M  V30 562 O 54.0656 -0.066099 1.94388 0
M  V30 563 C 54.3486 3.37422 1.2577 0
M  V30 564 C 54.2016 4.49369 0.196891 0
M  V30 565 C 55.5206 3.82628 2.17449 0
M  V30 566 H 52.6396 0.699171 0.233085 0
M  V30 567 H 55.2816 1.89779 -0.0915694 0
M  V30 568 H 53.4316 3.39669 1.88566 0
M  V30 569 H 55.1036 4.59254 -0.433962 0
M  V30 570 H 53.3466 4.31168 -0.477137 0
M  V30 571 H 54.0176 5.47978 0.665124 0
M  V30 572 H 56.4936 3.82145 1.64634 0
M  V30 573 H 55.3696 4.84883 2.57254 0
M  V30 574 H 55.6306 3.18376 3.0674 0
M  V30 575 N 54.6897 -0.239769 1.55765 0
M  V30 576 C 55.9177 -0.98417 1.81994 0
M  V30 577 C 56.3327 -1.7867 0.610124 0
M  V30 578 O 55.6897 -1.77571 -0.421271 0
M  V30 579 C 55.7407 -1.91635 3.06526 0
M  V30 580 O 55.4617 -1.14629 4.22838 0
M  V30 581 C 56.9627 -2.77616 3.45607 0
M  V30 582 H 54.1827 -0.28928 0.605441 0
M  V30 583 H 56.7267 -0.260499 2.02834 0
M  V30 584 H 54.8817 -2.5942 2.87715 0
M  V30 585 H 55.2957 -1.77745 4.93464 0
M  V30 586 H 56.7697 -3.38759 4.35828 0
M  V30 587 H 57.2467 -3.4909 2.6652 0
M  V30 588 H 57.8527 -2.15271 3.66795 0
M  V30 589 N 56.1678 -1.49265 -0.50573 0
M  V30 590 C 57.4448 -1.49012 -1.26707 0
M  V30 591 C 57.8248 -0.215205 -2.1 0
M  V30 592 O 57.1728 0.802547 -2.13943 0
M  V30 593 C 57.3828 -2.7663 -2.12783 0
M  V30 594 C 58.7308 -3.25932 -2.72127 0
M  V30 595 O 59.7548 -2.77715 -2.23054 0
M  V30 596 O 58.6138 -4.09897 -3.61451 0
M  V30 597 H 55.7078 -0.596197 -0.57313 0
M  V30 598 H 58.2538 -1.61524 -0.52039 0
M  V30 599 H 57.0258 -3.60916 -1.5118 0
M  V30 600 H 56.6488 -2.66956 -2.94653 0
M  V30 601 N 57.6459 0.756429 -1.3826 0
M  V30 602 C 58.8939 1.51248 -1.34047 0
M  V30 603 C 59.2149 1.94875 0.0698372 0
M  V30 604 O 58.4849 1.67436 1.01696 0
M  V30 605 H 57.0649 0.561018 -0.493222 0
M  V30 606 H 59.7269 0.899347 -1.7291 0
M  V30 607 H 58.8229 2.40472 -1.98947 0
M  V30 608 N 59.124 1.23083 0.984299 0
M  V30 609 C 60.349 1.088 1.76571 0
M  V30 610 C 60.774 -0.356657 1.84688 0
M  V30 611 O 60.132 -1.25788 1.30565 0
M  V30 612 C 60.18 1.71371 3.17277 0
M  V30 613 O 59.284 0.973213 4.00752 0
M  V30 614 H 58.625 0.381599 0.543395 0
M  V30 615 H 61.155 1.63057 1.23587 0
M  V30 616 H 61.165 1.76449 3.67872 0
M  V30 617 H 59.84 2.76493 3.10684 0
M  V30 618 H 58.417 0.999078 3.59267 0
M  V30 619 N 60.6021 -1.18246 1.0419 0
M  V30 620 C 61.5521 -2.19843 0.604392 0
M  V30 621 C 62.5361 -1.56962 -0.353814 0
M  V30 622 O 63.7281 -1.76156 -0.17267 0
M  V30 623 C 60.8571 -3.43287 -0.0298975 0
M  V30 624 C 59.9431 -4.13288 0.951531 0
M  V30 625 N 60.3341 -4.59271 2.11906 0
M  V30 626 C 58.6321 -4.39165 0.7778 0
M  V30 627 C 59.3331 -5.13173 2.73912 0
M  V30 628 N 58.3091 -5.04763 2.01779 0
M  V30 629 H 62.1111 -2.53089 1.4941 0
M  V30 630 H 59.6251 -1.34465 0.910658 0
M  V30 631 H 61.6221 -4.15334 -0.361037 0
M  V30 632 H 60.2821 -3.11537 -0.915127 0
M  V30 633 H 61.2931 -4.5368 2.49789 0
M  V30 634 H 57.9701 -4.17461 -0.0572331 0
M  V30 635 H 59.3601 -5.58947 3.72864 0
M  V30 636 N 62.0802 -0.821533 -1.34494 0
M  V30 637 C 62.9902 -0.244355 -2.33324 0
M  V30 638 C 64.0062 0.620527 -1.62559 0
M  V30 639 O 65.1822 0.528754 -1.94335 0
M  V30 640 C 62.2472 0.585368 -3.41723 0
M  V30 641 C 61.3082 -0.301752 -4.28238 0
M  V30 642 C 60.5412 0.488466 -5.3146 0
M  V30 643 O 60.7642 1.72186 -5.4379 0
M  V30 644 O 59.6982 -0.12848 -6.01763 0
M  V30 645 H 63.5242 -1.06231 -2.84515 0
M  V30 646 H 61.1092 -0.583645 -1.37528 0
M  V30 647 H 62.9912 1.05747 -4.07916 0
M  V30 648 H 61.6662 1.38068 -2.92778 0
M  V30 649 H 60.5732 -0.821315 -3.64973 0
M  V30 650 H 61.9062 -1.06138 -4.8062 0
M  V30 651 N 63.5583 1.46682 -0.576371 0
M  V30 652 C 64.8043 2.03287 -0.0679305 0
M  V30 653 C 65.1593 1.44063 1.27529 0
M  V30 654 O 64.4523 0.593973 1.82161 0
M  V30 655 C 64.6463 3.57345 0.062886 0
M  V30 656 C 64.4753 4.31509 -1.26611 0
M  V30 657 C 63.2453 4.70664 -1.83856 0
M  V30 658 C 65.4433 4.65444 -2.18783 0
M  V30 659 N 63.4253 5.29552 -3.10561 0
M  V30 660 C 64.7963 5.24835 -3.30072 0
M  V30 661 C 66.8513 4.47375 -2.18542 0
M  V30 662 C 65.5543 5.68063 -4.41244 0
M  V30 663 C 67.5803 4.91614 -3.28739 0
M  V30 664 C 66.9423 5.51071 -4.38748 0
M  V30 665 H 63.0413 0.779083 -0.0674836 0
M  V30 666 H 65.6253 1.78918 -0.767877 0
M  V30 667 H 63.7963 3.8144 0.731988 0
M  V30 668 H 65.5283 4.00592 0.575134 0
M  V30 669 H 62.2833 4.53224 -1.37424 0
M  V30 670 H 62.7073 5.63523 -3.75195 0
M  V30 671 H 67.3493 4.00747 -1.34765 0
M  V30 672 H 65.0673 6.13672 -5.25768 0
M  V30 673 H 68.6533 4.79389 -3.29662 0
M  V30 674 H 67.5333 5.84678 -5.22611 0
M  V30 675 N 65.0364 0.313813 1.54444 0
M  V30 676 C 66.2644 -0.293918 2.04802 0
M  V30 677 C 66.6794 -1.46537 1.19047 0
M  V30 678 O 66.0364 -1.81182 0.218939 0
M  V30 679 C 66.0874 -0.737806 3.53891 0
M  V30 680 O 65.8084 0.387038 4.36387 0
M  V30 681 C 67.3094 -1.40936 4.203 0
M  V30 682 H 64.5294 -0.0620057 0.668129 0
M  V30 683 H 67.0734 0.457169 1.99324 0
M  V30 684 H 65.2284 -1.43889 3.59687 0
M  V30 685 H 65.6424 0.0391274 5.24485 0
M  V30 686 H 67.1164 -1.67099 5.26101 0
M  V30 687 H 67.5934 -2.35355 3.70816 0
M  V30 688 H 68.1994 -0.751117 4.18615 0
M  V30 689 N 66.5145 -1.57545 0.0417849 0
M  V30 690 C 67.7605 -1.92601 -0.635021 0
M  V30 691 C 68.0935 -0.919627 -1.71045 0
M  V30 692 O 67.3685 0.0557892 -1.9442 0
M  V30 693 C 67.6515 -3.38085 -1.23979 0
M  V30 694 C 67.5045 -4.49467 -0.173057 0
M  V30 695 C 68.8235 -3.83776 -2.15416 0
M  V30 696 H 65.9425 -0.700397 -0.229374 0
M  V30 697 H 68.5845 -1.89728 0.101633 0
M  V30 698 H 66.7345 -3.40664 -1.86762 0
M  V30 699 H 68.4065 -4.59018 0.458312 0
M  V30 700 H 66.6495 -4.30909 0.499996 0
M  V30 701 H 67.3205 -5.48323 -0.636054 0
M  V30 702 H 69.7965 -3.83013 -1.62605 0
M  V30 703 H 68.6725 -4.8624 -2.54679 0
M  V30 704 H 68.9335 -3.19998 -3.05047 0
M  V30 705 N 67.9926 0.231505 -1.5589 0
M  V30 706 C 68.9396 1.28682 -1.91598 0
M  V30 707 C 69.9096 1.47071 -0.771974 0
M  V30 708 O 71.0946 1.60802 -1.027 0
M  V30 709 C 68.2346 2.6342 -2.22944 0
M  V30 710 C 67.3476 2.52912 -3.50228 0
M  V30 711 C 66.4826 3.80106 -3.7107 0
M  V30 712 C 65.5216 3.64279 -4.91902 0
M  V30 713 N 64.6586 4.834 -5.09184 0
M  V30 714 H 69.4986 0.975305 -2.81588 0
M  V30 715 H 67.0356 0.470299 -1.39379 0
M  V30 716 H 68.9936 3.41869 -2.39126 0
M  V30 717 H 67.6236 2.92687 -1.36139 0
M  V30 718 H 66.6756 1.6595 -3.42294 0
M  V30 719 H 67.9876 2.37133 -4.38827 0
M  V30 720 H 67.1416 4.66999 -3.87295 0
M  V30 721 H 65.8806 3.98799 -2.80733 0
M  V30 722 H 64.8856 2.7577 -4.75637 0
M  V30 723 H 66.1106 3.47067 -5.83714 0
M  V30 724 H 64.0566 5.02425 -4.21788 0
M  V30 725 H 63.9736 4.70311 -5.91898 0
M  V30 726 H 65.2416 5.71747 -5.29835 0
M  V30 727 N 69.4707 1.49531 0.497807 0
M  V30 728 C 70.4207 1.62829 1.59596 0
M  V30 729 C 71.4047 0.483824 1.53453 0
M  V30 730 O 72.5967 0.736937 1.60929 0
M  V30 731 C 69.7257 1.7011 2.98191 0
M  V30 732 C 68.8117 2.90144 3.09317 0
M  V30 733 N 69.2027 4.1418 2.90324 0
M  V30 734 C 67.5007 2.88148 3.40422 0
M  V30 735 C 68.2017 4.94886 3.05717 0
M  V30 736 N 67.1777 4.28314 3.34736 0
M  V30 737 H 70.9797 2.56446 1.4357 0
M  V30 738 H 68.4937 1.46347 0.704001 0
M  V30 739 H 70.4907 1.77735 3.77115 0
M  V30 740 H 69.1507 0.776315 3.15283 0
M  V30 741 H 70.1617 4.44109 2.66436 0
M  V30 742 H 66.8387 2.05061 3.63671 0
M  V30 743 H 68.2287 6.03432 2.95499 0
M  V30 744 N 70.9488 -0.749086 1.3866 0
M  V30 745 C 72.3648 -1.05276 1.19955 0
M  V30 746 C 72.5648 -2.01435 0.05134 0
M  V30 747 O 71.6208 -2.45232 -0.60147 0
M  V30 748 C 72.9338 -1.62853 2.52783 0
M  V30 749 C 74.4818 -1.75002 2.59506 0
M  V30 750 C 74.9568 -2.35991 3.92521 0
M  V30 751 N 76.4478 -2.43416 3.94085 0
M  V30 752 C 77.1828 -2.91511 4.9377 0
M  V30 753 N 76.6788 -3.39608 6.03853 0
M  V30 754 N 78.4718 -2.90592 4.81157 0
M  V30 755 H 70.6228 -0.111066 2.12109 0
M  V30 756 H 72.8858 -0.111901 0.941373 0
M  V30 757 H 72.5918 -0.99664 3.37283 0
M  V30 758 H 72.4658 -2.61854 2.715 0
M  V30 759 H 74.8528 -2.37317 1.75398 0
M  V30 760 H 74.9338 -0.74693 2.44652 0
M  V30 761 H 74.5778 -1.74308 4.77053 0
M  V30 762 H 74.5078 -3.3695 4.04688 0
M  V30 763 H 76.9988 -2.09405 3.14576 0
M  V30 764 H 77.3118 -3.74775 6.75843 0
M  V30 765 H 75.6568 -3.37653 6.07466 0
M  V30 766 H 78.8478 -2.52332 3.94267 0
M  V30 767 H 79.0208 -3.27762 5.58996 0
M  V30 768 N 72.4269 -1.23603 -0.977757 0
M  V30 769 C 73.6569 -1.09487 -1.75203 0
M  V30 770 C 74.0649 0.356321 -1.85814 0
M  V30 771 O 73.4079 1.25816 -1.33851 0
M  V30 772 C 73.4699 -1.64905 -3.19447 0
M  V30 773 C 73.1339 -3.13688 -3.32338 0
M  V30 774 C 74.1309 -4.10953 -3.18455 0
M  V30 775 C 71.8159 -3.53449 -3.56902 0
M  V30 776 C 73.8099 -5.45962 -3.28944 0
M  V30 777 C 71.4969 -4.88602 -3.6703 0
M  V30 778 C 72.4949 -5.84668 -3.53062 0
M  V30 779 O 72.1829 -7.17365 -3.62826 0
M  V30 780 H 71.9149 -0.38367 -0.556573 0
M  V30 781 H 74.4689 -1.6398 -1.23693 0
M  V30 782 H 72.6989 -1.04835 -3.72218 0
M  V30 783 H 74.3879 -1.46226 -3.78646 0
M  V30 784 H 75.1539 -3.81577 -2.99372 0
M  V30 785 H 71.0329 -2.79188 -3.66844 0
M  V30 786 H 74.5769 -6.20925 -3.17958 0
M  V30 787 H 70.4739 -5.17653 -3.85623 0
M  V30 788 H 71.2419 -7.2515 -3.79605 0
M  V30 789 N 73.905 1.17692 -1.04816 0
M  V30 790 C 75.13 1.92327 -0.776207 0
M  V30 791 C 75.555 1.76082 0.661581 0
M  V30 792 O 74.913 1.076 1.45917 0
M  V30 793 C 74.961 3.41539 -1.15687 0
M  V30 794 O 74.065 4.11402 -0.286775 0
M  V30 795 H 73.406 0.599735 -0.284981 0
M  V30 796 H 75.936 1.49201 -1.4 0
M  V30 797 H 75.946 3.92269 -1.12202 0
M  V30 798 H 74.621 3.52684 -2.20425 0
M  V30 799 H 73.198 3.70939 -0.381903 0
M  V30 800 N 75.3831 0.828654 1.34056 0
M  V30 801 C 76.6601 0.341809 1.9259 0
M  V30 802 C 77.0401 -1.17158 1.75605 0
M  V30 803 O 76.3881 -1.98132 1.13824 0
M  V30 804 C 76.5981 0.777453 3.4023 0
M  V30 805 C 77.9461 0.779579 4.17382 0
M  V30 806 O 78.9701 0.7204 3.48839 0
M  V30 807 O 77.8291 0.857996 5.39723 0
M  V30 808 H 74.9231 0.0946085 0.821571 0
M  V30 809 H 77.4691 0.913827 1.42994 0
M  V30 810 H 76.2411 1.8196 3.46419 0
M  V30 811 H 75.8641 0.181444 3.97186 0
M  V30 812 N 76.8612 -1.46375 0.584142 0
M  V30 813 C 78.1082 -2.02378 0.0702675 0
M  V30 814 C 78.4362 -1.45545 -1.29023 0
M  V30 815 O 77.6912 -0.610967 -1.85918 0
M  V30 816 C 77.9902 -3.57373 -0.0439342 0
M  V30 817 C 77.6562 -4.33252 1.24915 0
M  V30 818 C 76.3182 -4.53701 1.60341 0
M  V30 819 C 78.6702 -4.7681 2.1048 0
M  V30 820 C 75.9982 -5.1496 2.81128 0
M  V30 821 C 78.3502 -5.39404 3.30494 0
M  V30 822 C 77.0142 -5.5808 3.66201 0
M  V30 823 H 76.2842 -0.740554 0.0257127 0
M  V30 824 H 78.9312 -1.75727 0.761065 0
M  V30 825 H 77.2362 -3.83169 -0.817869 0
M  V30 826 H 78.9332 -3.98384 -0.457318 0
M  V30 827 H 75.5232 -4.17633 0.963364 0
M  V30 828 H 79.7072 -4.60766 1.84414 0
M  V30 829 H 74.9632 -5.27611 3.08928 0
M  V30 830 H 79.1372 -5.72114 3.97063 0
M  V30 831 H 76.7642 -6.05318 4.59885 0
M  V30 832 N 78.3393 -0.321999 -1.54275 0
M  V30 833 C 79.2893 0.560185 -2.21011 0
M  V30 834 C 80.2733 1.08283 -1.19011 0
M  V30 835 O 81.4653 1.02011 -1.44647 0
M  V30 836 C 78.5943 1.72137 -2.97025 0
M  V30 837 C 77.6803 1.21369 -4.06363 0
M  V30 838 N 78.0713 0.425566 -5.04007 0
M  V30 839 C 76.3693 1.49255 -4.20284 0
M  V30 840 C 77.0703 0.152601 -5.815 0
M  V30 841 N 76.0463 0.738294 -5.38563 0
M  V30 842 H 79.8483 -0.049265 -2.93859 0
M  V30 843 H 77.3623 -0.127779 -1.61897 0
M  V30 844 H 79.3593 2.36512 -3.43319 0
M  V30 845 H 78.0193 2.33431 -2.25699 0
M  V30 846 H 79.0303 0.068551 -5.17855 0
M  V30 847 H 75.7073 2.11145 -3.60172 0
M  V30 848 H 77.0973 -0.481764 -6.70171 0
M  V30 849 N 79.8174 1.5752 -0.0501392 0
M  V30 850 C 81.0944 1.83996 0.663685 0
M  V30 851 C 81.4744 0.938339 1.89099 0
M  V30 852 O 80.8224 -0.00087759 2.285 0
M  V30 853 C 81.0324 3.33702 1.02196 0
M  V30 854 C 82.3804 4.00691 1.40469 0
M  V30 855 O 83.4044 3.38321 1.11433 0
M  V30 856 O 82.2634 5.10658 1.94654 0
M  V30 857 H 79.3574 0.759385 0.32751 0
M  V30 858 H 81.9034 1.69514 -0.0794238 0
M  V30 859 H 80.6754 3.91015 0.149364 0
M  V30 860 H 80.2984 3.53368 1.82255 0
M  V30 861 N 81.2955 -0.223234 1.56011 0
M  V30 862 C 82.2255 -1.27988 1.95298 0
M  V30 863 C 83.2065 -1.48976 0.820979 0
M  V30 864 O 84.3915 -1.61188 1.08315 0
M  V30 865 C 81.5215 -2.63 2.26822 0
M  V30 866 C 80.4755 -2.56671 3.42497 0
M  V30 867 C 79.8015 -3.95697 3.59622 0
M  V30 868 C 81.1015 -2.11601 4.77517 0
M  V30 869 H 82.7955 -0.953525 2.8381 0
M  V30 870 H 80.3415 -0.457244 1.36548 0
M  V30 871 H 82.2945 -3.37077 2.52898 0
M  V30 872 H 81.0185 -2.9732 1.35161 0
M  V30 873 H 79.6775 -1.85051 3.16467 0
M  V30 874 H 79.3255 -4.27322 2.6534 0
M  V30 875 H 79.0255 -3.92345 4.37424 0
M  V30 876 H 80.5495 -4.71438 3.88044 0
M  V30 877 H 81.9635 -2.7542 5.02809 0
M  V30 878 H 80.3605 -2.19311 5.5859 0
M  V30 879 H 81.4305 -1.06824 4.72987 0
M  V30 880 N 82.7736 -1.49793 -0.48987 0
M  V30 881 C 83.7236 -1.63673 -1.5873 0
M  V30 882 C 84.7076 -0.491956 -1.53195 0
M  V30 883 O 85.8996 -0.745461 -1.60536 0
M  V30 884 C 83.0286 -1.71689 -2.97284 0
M  V30 885 C 82.1146 -2.91781 -3.07774 0
M  V30 886 N 82.5056 -4.15714 -2.88124 0
M  V30 887 C 80.8036 -2.89949 -3.38889 0
M  V30 888 C 81.5046 -4.965 -3.03088 0
M  V30 889 N 80.4806 -4.30083 -3.3246 0
M  V30 890 H 84.2826 -2.57204 -1.42208 0
M  V30 891 H 81.7966 -1.46719 -0.69623 0
M  V30 892 H 83.7936 -1.79732 -3.76168 0
M  V30 893 H 82.4536 -0.793024 -3.14867 0
M  V30 894 H 83.4646 -4.45515 -2.64077 0
M  V30 895 H 80.1416 -2.06987 -3.62578 0
M  V30 896 H 81.5316 -6.04991 -2.92294 0
M  V30 897 N 84.2517 0.741722 -1.39055 0
M  V30 898 C 85.1617 1.88621 -1.39496 0
M  V30 899 C 86.1777 1.71557 -0.290578 0
M  V30 900 O 87.3537 1.94275 -0.530954 0
M  V30 901 C 84.4187 3.24134 -1.23037 0
M  V30 902 C 83.4797 3.5364 -2.43387 0
M  V30 903 C 82.7127 4.82687 -2.27703 0
M  V30 904 O 82.9357 5.55922 -1.27696 0
M  V30 905 O 81.8697 5.1194 -3.16545 0
M  V30 906 H 85.6957 1.91203 -2.35956 0
M  V30 907 H 83.2807 0.888625 -1.20099 0
M  V30 908 H 85.1627 4.0513 -1.15964 0
M  V30 909 H 83.8377 3.22337 -0.296691 0
M  V30 910 H 82.7447 2.72758 -2.56035 0
M  V30 911 H 84.0777 3.60209 -3.35425 0
M  V30 912 N 85.7298 1.2412 0.971189 0
M  V30 913 C 86.6768 1.0305 2.06517 0
M  V30 914 C 87.6468 -0.0550666 1.66009 0
M  V30 915 O 88.8318 0.0988688 1.90544 0
M  V30 916 C 85.9718 0.637653 3.39158 0
M  V30 917 C 85.0848 1.79633 3.92882 0
M  V30 918 C 84.2198 1.34939 5.13775 0
M  V30 919 C 83.2588 2.47823 5.59687 0
M  V30 920 N 82.3958 2.04022 6.71803 0
M  V30 921 H 87.2358 1.96685 2.23873 0
M  V30 922 H 84.7728 0.979694 1.09729 0
M  V30 923 H 86.7308 0.390931 4.15364 0
M  V30 924 H 85.3608 -0.261693 3.21737 0
M  V30 925 H 84.4128 2.15681 3.13346 0
M  V30 926 H 85.7248 2.64466 4.22918 0
M  V30 927 H 84.8788 1.06134 5.97345 0
M  V30 928 H 83.6178 0.471557 4.85415 0
M  V30 929 H 82.6228 2.77392 4.74693 0
M  V30 930 H 83.8478 3.36158 5.90063 0
M  V30 931 H 81.7938 1.18632 6.45184 0
M  V30 932 H 81.7108 2.82409 7.01271 0
M  V30 933 H 82.9788 1.78347 7.58823 0
M  V30 934 N 87.2079 -1.17134 1.05439 0
M  V30 935 C 88.1379 -2.2342 0.678649 0
M  V30 936 C 89.1189 -1.66971 -0.32476 0
M  V30 937 O 90.3039 -1.93149 -0.201802 0
M  V30 938 C 87.4339 -3.47256 0.0552099 0
M  V30 939 C 86.3879 -4.16543 0.98365 0
M  V30 940 C 85.7139 -5.34231 0.223961 0
M  V30 941 C 87.0139 -4.68495 2.3089 0
M  V30 942 H 88.7079 -2.55105 1.56722 0
M  V30 943 H 86.2539 -1.2262 0.754998 0
M  V30 944 H 88.2069 -4.20828 -0.21946 0
M  V30 945 H 86.9309 -3.14846 -0.868319 0
M  V30 946 H 85.5899 -3.44887 1.24293 0
M  V30 947 H 85.2379 -4.98071 -0.702412 0
M  V30 948 H 84.9379 -5.81527 0.842627 0
M  V30 949 H 86.4619 -6.10585 -0.0433671 0
M  V30 950 H 87.8759 -5.33691 2.09396 0
M  V30 951 H 86.2729 -5.26379 2.88176 0
M  V30 952 H 87.3429 -3.85169 2.94572 0
M  V30 953 N 88.686 -0.835752 -1.33615 0
M  V30 954 C 89.932 -0.430596 -1.98176 0
M  V30 955 C 90.265 1.00684 -1.66061 0
M  V30 956 O 89.54 1.70339 -0.938877 0
M  V30 957 C 89.823 -0.648065 -3.5422 0
M  V30 958 C 89.676 -2.13255 -3.96033 0
M  V30 959 C 90.995 -0.0922113 -4.40003 0
M  V30 960 H 88.114 -0.157924 -0.719881 0
M  V30 961 H 90.756 -1.05069 -1.58305 0
M  V30 962 H 88.906 -0.120237 -3.88314 0
M  V30 963 H 90.578 -2.725 -3.72211 0
M  V30 964 H 88.821 -2.61823 -3.45878 0
M  V30 965 H 89.492 -2.23547 -5.04708 0
M  V30 966 H 91.968 -0.543343 -4.12537 0
M  V30 967 H 90.844 -0.274083 -5.48215 0
M  V30 968 H 91.105 1.00378 -4.30554 0
M  V30 969 N 90.1641 1.46063 -0.591896 0
M  V30 970 C 91.1271 2.28854 0.125973 0
M  V30 971 C 92.1271 1.38903 0.810107 0
M  V30 972 O 93.3171 1.61186 0.66066 0
M  V30 973 C 90.4491 3.19526 1.1881 0
M  V30 974 H 91.6421 2.93802 -0.601717 0
M  V30 975 H 89.1951 1.52325 -0.350254 0
M  V30 976 H 89.9301 2.59345 1.94707 0
M  V30 977 H 89.7151 3.85766 0.701936 0
M  V30 978 H 91.2051 3.81817 1.69132 0
M  V30 979 N 91.6422 0.330177 1.54103 0
M  V30 980 C 92.5522 -0.541534 2.28264 0
M  V30 981 C 93.5682 -1.12351 1.32866 0
M  V30 982 O 94.7442 -1.14206 1.65888 0
M  V30 983 C 91.8092 -1.68322 3.03098 0
M  V30 984 C 90.8702 -1.13238 4.14096 0
M  V30 985 C 90.1032 -2.21966 4.85352 0
M  V30 986 O 90.3262 -3.42437 4.56172 0
M  V30 987 O 89.2602 -1.87013 5.7211 0
M  V30 988 H 93.0862 0.060938 3.03639 0
M  V30 989 H 90.6712 0.09565 1.49093 0
M  V30 990 H 92.5532 -2.34777 3.49939 0
M  V30 991 H 91.2282 -2.27176 2.30593 0
M  V30 992 H 90.1352 -0.432736 3.71589 0
M  V30 993 H 91.4682 -0.588898 4.88664 0
M  V30 994 N 93.1203 -1.57491 0.0584922 0
M  V30 995 C 94.5363 -1.56792 -0.298091 0
M  V30 996 C 94.7363 -1.06679 -1.70944 0
M  V30 997 O 93.7923 -0.726672 -2.41818 0
M  V30 998 C 95.1053 -3.00461 -0.119879 0
M  V30 999 C 96.6533 -3.1242 -0.190428 0
M  V30 1000 C 97.1283 -4.57982 -0.0406567 0
M  V30 1001 N 98.6193 -4.63099 -0.0966958 0
M  V30 1002 C 99.3543 -5.734 -0.00502943 0
M  V30 1003 N 98.8503 -6.9266 0.139402 0
M  V30 1004 N 100.643 -5.62067 -0.0611391 0
M  V30 1005 H 92.7943 -1.88386 0.98105 0
M  V30 1006 H 95.0573 -0.867865 0.381463 0
M  V30 1007 H 94.7633 -3.41187 0.85349 0
M  V30 1008 H 94.6373 -3.66843 -0.877833 0
M  V30 1009 H 97.0243 -2.71589 -1.15427 0
M  V30 1010 H 97.1053 -2.48702 0.598405 0
M  V30 1011 H 96.7493 -4.995 0.919897 0
M  V30 1012 H 96.6793 -5.19715 -0.848727 0
M  V30 1013 H 99.1703 -3.77331 -0.207277 0
M  V30 1014 H 99.4833 -7.72536 0.201855 0
M  V30 1015 H 97.8283 -6.94781 0.174586 0
M  V30 1016 H 101.019 -4.67782 -0.172583 0
M  V30 1017 H 101.192 -6.47999 0.0137562 0
M  V30 1018 N 94.5984 0.214957 -1.56127 0
M  V30 1019 C 95.5454 1.26642 -1.92952 0
M  V30 1020 C 96.5154 1.46244 -0.78753 0
M  V30 1021 O 97.7004 1.59704 -1.04399 0
M  V30 1022 C 94.8404 2.6104 -2.25726 0
M  V30 1023 C 93.9534 2.49183 -3.52891 0
M  V30 1024 C 93.0884 3.76149 -3.7508 0
M  V30 1025 C 92.1274 3.59041 -4.95738 0
M  V30 1026 N 91.2644 4.77972 -5.14283 0
M  V30 1027 H 96.1044 0.945384 -2.82607 0
M  V30 1028 H 93.6414 0.455489 -1.3987 0
M  V30 1029 H 95.5994 3.39313 -2.42739 0
M  V30 1030 H 94.2294 2.91227 -1.39236 0
M  V30 1031 H 93.2814 1.6231 -3.44034 0
M  V30 1032 H 94.5934 2.32466 -4.41318 0
M  V30 1033 H 93.7474 4.62865 -3.92226 0
M  V30 1034 H 92.4864 3.95799 -2.84947 0
M  V30 1035 H 91.4914 2.7071 -4.78535 0
M  V30 1036 H 92.7164 3.40856 -5.87362 0
M  V30 1037 H 90.6624 4.97923 -4.27093 0
M  V30 1038 H 90.5794 4.64006 -5.96853 0
M  V30 1039 H 91.8474 5.66096 -5.35869 0
M  V30 1040 N 96.0765 1.50051 0.48192 0
M  V30 1041 C 97.3255 1.59741 1.23149 0
M  V30 1042 C 97.6385 0.298163 1.93314 0
M  V30 1043 O 98.8445 0.273835 2.70116 0
M  V30 1044 C 97.3005 2.81926 2.23708 0
M  V30 1045 C 96.9085 4.18685 1.59396 0
M  V30 1046 C 98.6525 3.00956 2.99375 0
M  V30 1047 C 96.5595 5.3207 2.58178 0
M  V30 1048 H 95.4895 0.594838 0.46334 0
M  V30 1049 H 98.1405 1.76467 0.503169 0
M  V30 1050 H 96.5225 2.58736 2.99786 0
M  V30 1051 H 97.6965 4.52088 0.891811 0
M  V30 1052 H 96.0115 4.05171 0.960503 0
M  V30 1053 H 98.6085 3.82836 3.73283 0
M  V30 1054 H 98.9515 2.12258 3.58123 0
M  V30 1055 H 99.4845 3.24277 2.30411 0
M  V30 1056 H 96.2235 6.22888 2.04184 0
M  V30 1057 H 95.7435 5.03098 3.26577 0
M  V30 1058 H 97.4225 5.62196 3.20225 0
M  V30 1059 N 97.5546 -0.734337 1.39446 0
M  V30 1060 C 98.8316 -1.48579 1.27215 0
M  V30 1061 C 99.2116 -2.1077 -0.117968 0
M  V30 1062 O 98.5596 -1.98646 -1.12924 0
M  V30 1063 C 98.7696 -2.53667 2.39696 0
M  V30 1064 C 100.118 -3.20031 2.79044 0
M  V30 1065 O 101.142 -2.6398 2.39151 0
M  V30 1066 O 100.001 -4.21455 3.47905 0
M  V30 1067 H 97.0946 -0.659816 0.49857 0
M  V30 1068 H 99.6406 -0.768106 1.51322 0
M  V30 1069 H 98.4126 -2.06096 3.32626 0
M  V30 1070 H 98.0356 -3.32994 2.17258 0
M  V30 1071 N 99.0327 -1.24633 -0.964593 0
M  V30 1072 C 99.9797 -1.04144 -2.05968 0
M  V30 1073 C 100.95 0.046262 -1.66036 0
M  V30 1074 O 102.135 -0.108972 -1.90489 0
M  V30 1075 C 99.2747 -0.65563 -3.38815 0
M  V30 1076 C 98.3877 -1.81714 -3.91923 0
M  V30 1077 C 97.5227 -1.37662 -5.13052 0
M  V30 1078 C 96.5617 -2.50788 -5.58365 0
M  V30 1079 N 95.6987 -2.07582 -6.70712 0
M  V30 1080 H 100.539 -1.9787 -2.22827 0
M  V30 1081 H 98.0757 -0.9855 -1.09208 0
M  V30 1082 H 100.034 -0.412954 -4.15151 0
M  V30 1083 H 98.6637 0.244627 -3.21872 0
M  V30 1084 H 97.7157 -2.1734 -3.12198 0
M  V30 1085 H 99.0277 -2.66705 -4.21509 0
M  V30 1086 H 98.1817 -1.093 -5.96773 0
M  V30 1087 H 96.9207 -0.497293 -4.85158 0
M  V30 1088 H 95.9257 -2.79906 -4.73215 0
M  V30 1089 H 97.1507 -3.39283 -5.88272 0
M  V30 1090 H 95.0967 -1.22051 -6.44546 0
M  V30 1091 H 95.0137 -2.86125 -6.99763 0
M  V30 1092 H 96.2817 -1.82369 -7.57867 0
M  V30 1093 N 100.511 1.16574 -1.06058 0
M  V30 1094 C 101.459 2.22941 -0.663343 0
M  V30 1095 C 102.453 1.66358 0.319593 0
M  V30 1096 O 103.659 1.7905 0.184713 0
M  V30 1097 H 100.034 0.725907 -0.196376 0
M  V30 1098 H 102.005 2.53736 -1.57037 0
M  V30 1099 C 100.754 3.47642 -0.0632808 0
M  V30 1100 H 100.077 3.91493 -0.810733 0
M  V30 1101 H 101.517 4.2363 0.177177 0
M  V30 1102 C 99.9758 3.1509 1.19248 0
M  V30 1103 O 100.506 3.30673 2.28075 0
M  V30 1104 N 98.7118 2.6924 1.09353 0
M  V30 1105 H 98.2588 2.5676 0.207912 0
M  V30 1106 H 98.2168 2.47833 1.93458 0
M  V30 1107 N 101.989 0.842826 1.3317 0
M  V30 1108 C 102.919 0.294028 2.31641 0
M  V30 1109 C 103.9 -0.600401 1.59151 0
M  V30 1110 O 105.085 -0.523124 1.87022 0
M  V30 1111 C 102.215 -0.528416 3.43257 0
M  V30 1112 C 101.169 0.27056 4.27144 0
M  V30 1113 C 100.495 -0.675881 5.30411 0
M  V30 1114 C 101.795 1.48981 5.00602 0
M  V30 1115 H 103.489 1.11681 2.77791 0
M  V30 1116 H 101.035 0.538478 1.33553 0
M  V30 1117 H 102.988 -0.922674 4.11175 0
M  V30 1118 H 101.712 -1.38445 2.95805 0
M  V30 1119 H 100.371 0.646427 3.60856 0
M  V30 1120 H 100.019 -1.52842 4.79216 0
M  V30 1121 H 99.7189 -0.145374 5.8742 0
M  V30 1122 H 101.243 -1.06757 6.01195 0
M  V30 1123 H 102.657 1.16849 5.61266 0
M  V30 1124 H 101.054 1.95739 5.6728 0
M  V30 1125 H 102.124 2.25746 4.29147 0
M  V30 1126 N 103.467 -1.45747 0.599634 0
M  V30 1127 C 104.397 -2.33235 -0.111306 0
M  V30 1128 C 105.378 -1.46359 -0.866781 0
M  V30 1129 O 106.563 -1.75146 -0.838904 0
M  V30 1130 C 103.693 -3.28932 -1.11451 0
M  V30 1131 C 102.647 -4.25381 -0.472772 0
M  V30 1132 C 101.973 -5.1071 -1.58365 0
M  V30 1133 C 103.273 -5.18831 0.600948 0
M  V30 1134 H 104.967 -2.92927 0.61919 0
M  V30 1135 H 102.513 -1.40857 0.299215 0
M  V30 1136 H 104.466 -3.89002 -1.62036 0
M  V30 1137 H 103.19 -2.67381 -1.8755 0
M  V30 1138 H 101.849 -3.66598 0.0121472 0
M  V30 1139 H 101.497 -4.45533 -2.33473 0
M  V30 1140 H 101.197 -5.7604 -1.15982 0
M  V30 1141 H 102.721 -5.73647 -2.09194 0
M  V30 1142 H 104.135 -5.73019 0.179491 0
M  V30 1143 H 102.532 -5.92595 0.946076 0
M  V30 1144 H 103.602 -4.6174 1.48068 0
M  V30 1145 N 104.945 -0.338344 -1.53925 0
M  V30 1146 C 106.356 0.146651 -1.86123 0
M  V30 1147 C 106.707 1.5042 -1.2597 0
M  V30 1148 O 105.832 2.08723 -0.571294 0
M  V30 1149 C 106.427 0.272879 -3.37699 0
M  V30 1150 C 104.986 0.702103 -3.69794 0
M  V30 1151 C 104.133 -0.167304 -2.76795 0
M  V30 1152 H 107.084 -0.558123 -1.48562 0
M  V30 1153 H 107.105 1.10128 -3.64214 0
M  V30 1154 H 106.617 -0.715307 -3.81451 0
M  V30 1155 H 104.718 1.6995 -3.31584 0
M  V30 1156 H 104.831 0.495604 -4.7653 0
M  V30 1157 H 103.195 0.359527 -2.5215 0
M  V30 1158 H 103.978 -1.15253 -3.23375 0
M  V30 1159 N 106.423 1.57458 -0.0668435 0
M  V30 1160 C 107.834 1.80776 0.466558 0
M  V30 1161 C 108.185 0.980361 1.69951 0
M  V30 1162 O 107.31 0.201441 2.1546 0
M  V30 1163 C 107.905 3.27881 0.85321 0
M  V30 1164 C 106.464 3.52062 1.3315 0
M  V30 1165 C 105.611 2.75513 0.314264 0
M  V30 1166 H 108.562 1.5598 -0.292588 0
M  V30 1167 H 108.583 3.39659 1.715 0
M  V30 1168 H 108.095 3.88075 -0.0443439 0
M  V30 1169 H 106.196 2.97167 2.24772 0
M  V30 1170 H 106.309 4.60762 1.31285 0
M  V30 1171 H 104.673 2.42123 0.790492 0
M  V30 1172 H 105.456 3.38442 -0.575477 0
M  V30 1173 N 107.901 -0.206675 1.56239 0
M  V30 1174 C 108.848 -1.25617 1.93621 0
M  V30 1175 C 109.818 -1.45824 0.795274 0
M  V30 1176 O 111.003 -1.59148 1.05245 0
M  V30 1177 C 108.143 -2.59839 2.27107 0
M  V30 1178 C 107.256 -2.47308 3.54207 0
M  V30 1179 C 106.391 -3.74155 3.7707 0
M  V30 1180 C 105.43 -3.56407 4.97635 0
M  V30 1181 N 104.567 -4.75238 5.1681 0
M  V30 1182 H 109.407 -0.930383 2.83104 0
M  V30 1183 H 106.944 -0.448065 1.4011 0
M  V30 1184 H 108.902 -3.38021 2.44535 0
M  V30 1185 H 107.532 -2.90485 1.40778 0
M  V30 1186 H 106.584 -1.60483 3.4489 0
M  V30 1187 H 107.896 -2.30122 4.42544 0
M  V30 1188 H 107.05 -4.60778 3.94675 0
M  V30 1189 H 105.789 -3.94282 2.87042 0
M  V30 1190 H 104.794 -2.68168 4.79964 0
M  V30 1191 H 106.019 -3.37736 5.89161 0
M  V30 1192 H 103.965 -4.95651 4.29728 0
M  V30 1193 H 103.882 -4.60835 5.99306 0
M  V30 1194 H 105.15 -5.63246 5.38864 0
M  V30 1195 N 109.379 -1.50304 -0.473955 0
M  V30 1196 C 110.326 -1.68959 -1.57231 0
M  V30 1197 C 111.296 -0.530899 -1.57387 0
M  V30 1198 O 112.481 -0.761133 -1.74961 0
M  V30 1199 C 109.621 -1.7871 -2.95223 0
M  V30 1200 C 108.734 -3.06061 -3.04878 0
M  V30 1201 C 107.869 -3.06626 -4.33767 0
M  V30 1202 C 106.908 -4.28443 -4.37154 0
M  V30 1203 N 106.045 -4.26763 -5.5751 0
M  V30 1204 H 110.885 -2.6273 -1.40631 0
M  V30 1205 H 108.422 -1.30241 -0.683789 0
M  V30 1206 H 110.38 -1.82344 -3.75242 0
M  V30 1207 H 109.01 -0.883806 -3.10465 0
M  V30 1208 H 108.062 -3.11911 -2.17751 0
M  V30 1209 H 109.374 -3.96039 -3.0324 0
M  V30 1210 H 108.528 -3.08973 -5.22131 0
M  V30 1211 H 107.267 -2.14473 -4.3801 0
M  V30 1212 H 106.272 -4.2631 -3.47188 0
M  V30 1213 H 107.497 -5.2182 -4.34605 0
M  V30 1214 H 105.443 -3.37462 -5.62544 0
M  V30 1215 H 105.36 -5.10507 -5.57601 0
M  V30 1216 H 106.628 -4.33253 -6.48006 0
M  V30 1217 N 110.857 0.726932 -1.39834 0
M  V30 1218 C 112.106 1.48214 -1.36805 0
M  V30 1219 C 112.419 1.95576 0.0305291 0
M  V30 1220 O 113.625 2.7088 0.183417 0
M  V30 1221 C 112.081 2.67854 -2.40379 0
M  V30 1222 C 111.689 2.27408 -3.85992 0
M  V30 1223 C 113.433 3.45641 -2.46439 0
M  V30 1224 C 111.34 3.43819 -4.81189 0
M  V30 1225 H 110.27 0.556606 -0.508631 0
M  V30 1226 H 112.921 0.792216 -1.65518 0
M  V30 1227 H 111.303 3.3896 -2.04749 0
M  V30 1228 H 112.477 1.63795 -4.30706 0
M  V30 1229 H 110.792 1.62692 -3.83302 0
M  V30 1230 H 113.389 4.32244 -3.14753 0
M  V30 1231 H 113.732 3.88669 -1.49139 0
M  V30 1232 H 114.265 2.8157 -2.81004 0
M  V30 1233 H 111.004 3.05834 -5.79781 0
M  V30 1234 H 110.524 4.06385 -4.41148 0
M  V30 1235 H 112.203 4.10043 -5.00474 0
M  V30 1236 N 112.336 1.25143 0.95797 0
M  V30 1237 C 113.585 1.0909 1.69654 0
M  V30 1238 C 113.898 -0.368548 1.92097 0
M  V30 1239 O 115.104 -0.649455 2.63618 0
M  V30 1240 C 113.56 1.90395 3.05414 0
M  V30 1241 C 113.168 3.4081 2.90779 0
M  V30 1242 C 114.912 1.82901 3.83076 0
M  V30 1243 C 112.819 4.14423 4.21909 0
M  V30 1244 H 111.749 0.404625 0.636235 0
M  V30 1245 H 114.4 1.4931 1.06672 0
M  V30 1246 H 112.782 1.42996 3.69281 0
M  V30 1247 H 113.956 3.95859 2.35865 0
M  V30 1248 H 112.271 3.49361 2.26575 0
M  V30 1249 H 114.868 2.35196 4.80195 0
M  V30 1250 H 115.211 0.796224 4.08615 0
M  V30 1251 H 115.744 2.28033 3.25954 0
M  V30 1252 H 112.483 5.18102 4.01561 0
M  V30 1253 H 112.003 3.64159 4.76601 0
M  V30 1254 H 113.682 4.21956 4.90471 0
M  V30 1255 N 113.814 -1.1601 1.06675 0
M  V30 1256 C 115.062 -1.86264 0.784229 0
M  V30 1257 C 115.383 -1.82328 -0.691488 0
M  V30 1258 O 114.653 -1.25947 -1.50047 0
M  V30 1259 H 113.233 -0.689621 0.28711 0
M  V30 1260 H 115.895 -1.40664 1.34906 0
M  V30 1261 H 114.991 -2.91595 1.11259 0
M  V30 1262 N 115.292 -0.849877 -1.32721 0
M  V30 1263 C 116.239 -0.289033 -2.28983 0
M  V30 1264 C 117.209 0.601324 -1.54833 0
M  V30 1265 O 118.394 0.537253 -1.8308 0
M  V30 1266 C 115.534 0.520623 -3.4115 0
M  V30 1267 C 114.647 -0.394989 -4.3019 0
M  V30 1268 C 113.782 0.426834 -5.29482 0
M  V30 1269 C 112.821 -0.486476 -6.10164 0
M  V30 1270 N 111.958 0.297879 -7.01468 0
M  V30 1271 H 116.798 -1.11519 -2.76347 0
M  V30 1272 H 114.335 -0.56138 -1.35967 0
M  V30 1273 H 116.293 1.00563 -4.04899 0
M  V30 1274 H 114.923 1.31165 -2.9495 0
M  V30 1275 H 113.975 -0.99836 -3.67065 0
M  V30 1276 H 115.287 -1.09612 -4.86607 0
M  V30 1277 H 114.441 0.975205 -5.98811 0
M  V30 1278 H 113.18 1.16136 -4.73671 0
M  V30 1279 H 112.185 -1.04677 -5.39743 0
M  V30 1280 H 113.41 -1.21953 -6.6806 0
M  V30 1281 H 111.356 1.01558 -6.48091 0
M  V30 1282 H 111.273 -0.344318 -7.55216 0
M  V30 1283 H 112.541 0.828131 -7.75089 0
M  V30 1284 N 116.77 1.45427 -0.607355 0
M  V30 1285 C 117.718 2.32269 0.12411 0
M  V30 1286 C 118.712 1.45955 0.859854 0
M  V30 1287 O 119.918 1.6244 0.775447 0
M  V30 1288 H 116.293 0.749691 0.0588839 0
M  V30 1289 H 118.264 2.91743 -0.626762 0
M  V30 1290 C 117.013 3.29567 1.1082 0
M  V30 1291 H 116.336 3.95978 0.551492 0
M  V30 1292 H 117.776 3.93061 1.58995 0
M  V30 1293 C 116.235 2.56722 2.18164 0
M  V30 1294 O 116.765 2.34842 3.25902 0
M  V30 1295 N 114.971 2.16861 1.93442 0
M  V30 1296 H 114.518 2.34855 1.05834 0
M  V30 1297 H 114.476 1.68444 2.65469 0
M  V30 1298 N 118.248 0.346503 1.53744 0
M  V30 1299 C 119.473 -0.253074 2.0585 0
M  V30 1300 C 119.898 -1.43202 1.21962 0
M  V30 1301 O 119.256 -1.79783 0.234073 0
M  V30 1302 C 119.304 -0.643193 3.54817 0
M  V30 1303 O 118.408 -1.74286 3.73762 0
M  V30 1304 H 117.749 -0.0413583 0.662711 0
M  V30 1305 H 120.279 0.501574 1.98357 0
M  V30 1306 H 120.289 -0.919526 3.97503 0
M  V30 1307 H 118.964 0.218966 4.15323 0
M  V30 1308 H 117.541 -1.46356 3.42979 0
M  V30 1309 N 119.726 -1.57421 0.075193 0
M  V30 1310 C 121.142 -1.57099 -0.281444 0
M  V30 1311 C 121.342 -1.08486 -1.69803 0
M  V30 1312 O 120.398 -0.752279 -2.41033 0
M  V30 1313 C 121.711 -3.00571 -0.0880041 0
M  V30 1314 C 123.259 -3.12605 -0.157281 0
M  V30 1315 C 123.734 -4.57999 0.0079207 0
M  V30 1316 N 125.225 -4.63176 -0.0475725 0
M  V30 1317 C 125.96 -5.73373 0.0557876 0
M  V30 1318 N 125.456 -6.92473 0.21286 0
M  V30 1319 N 127.249 -5.621 -0.00152098 0
M  V30 1320 H 119.4 -1.87335 1.00098 0
M  V30 1321 H 121.663 -0.86377 0.390646 0
M  V30 1322 H 121.369 -3.40262 0.889629 0
M  V30 1323 H 121.243 -3.67754 -0.838875 0
M  V30 1324 H 123.63 -2.72798 -1.1254 0
M  V30 1325 H 123.711 -2.48053 0.62475 0
M  V30 1326 H 123.355 -4.98496 0.972824 0
M  V30 1327 H 123.285 -5.20586 -0.793556 0
M  V30 1328 H 125.776 -3.7753 -0.167244 0
M  V30 1329 H 126.089 -7.72279 0.283781 0
M  V30 1330 H 124.434 -6.94556 0.248267 0
M  V30 1331 H 127.625 -4.67938 -0.122958 0
M  V30 1332 H 127.798 -6.47948 0.0824844 0
M  V30 1333 N 121.204 0.198386 -1.56346 0
M  V30 1334 C 122.429 0.939682 -1.84891 0
M  V30 1335 C 122.854 1.76202 -0.658369 0
M  V30 1336 O 122.212 1.76993 0.392851 0
M  V30 1337 C 122.26 1.81428 -3.11635 0
M  V30 1338 O 121.364 2.91265 -2.91956 0
M  V30 1339 H 120.705 0.264807 -0.608912 0
M  V30 1340 H 123.235 0.204695 -2.03573 0
M  V30 1341 H 123.245 2.21958 -3.42343 0
M  V30 1342 H 121.92 1.21004 -3.97908 0
M  V30 1343 H 120.497 2.54514 -2.72538 0
M  V30 1344 N 122.682 1.50554 0.465978 0
M  V30 1345 C 123.612 1.72722 1.57128 0
M  V30 1346 C 124.593 0.576294 1.6004 0
M  V30 1347 O 125.778 0.81598 1.76225 0
M  V30 1348 C 122.908 1.82605 2.95419 0
M  V30 1349 C 121.862 2.97835 3.07373 0
M  V30 1350 C 121.188 2.92867 4.47363 0
M  V30 1351 C 122.488 4.38265 2.84114 0
M  V30 1352 H 124.182 2.65267 1.38829 0
M  V30 1353 H 121.728 1.2765 0.666441 0
M  V30 1354 H 123.681 1.96698 3.72677 0
M  V30 1355 H 122.405 0.866858 3.14886 0
M  V30 1356 H 121.064 2.83401 2.3255 0
M  V30 1357 H 120.712 1.94783 4.63755 0
M  V30 1358 H 120.412 3.70227 4.56296 0
M  V30 1359 H 121.936 3.09015 5.26633 0
M  V30 1360 H 123.35 4.53198 3.51118 0
M  V30 1361 H 121.747 5.17115 3.04487 0
M  V30 1362 H 122.817 4.50281 1.7993 0
M  V30 1363 N 124.16 -0.719506 1.40217 0
M  V30 1364 C 125.406 -1.48152 1.38488 0
M  V30 1365 C 125.739 -1.94195 -0.0141867 0
M  V30 1366 O 125.014 -1.67884 -0.982096 0
M  V30 1367 C 125.297 -2.71035 2.37091 0
M  V30 1368 C 125.15 -2.30912 3.86005 0
M  V30 1369 C 126.469 -3.73182 2.33288 0
M  V30 1370 H 123.588 -0.537395 0.504357 0
M  V30 1371 H 126.23 -0.821472 1.71324 0
M  V30 1372 H 124.38 -3.27352 2.0922 0
M  V30 1373 H 126.052 -1.80107 4.24687 0
M  V30 1374 H 124.295 -1.62958 4.02029 0
M  V30 1375 H 124.966 -3.18978 4.50508 0
M  V30 1376 H 127.442 -3.26485 2.57966 0
M  V30 1377 H 126.318 -4.56806 3.04334 0
M  V30 1378 H 126.579 -4.21202 1.34317 0
M  V30 1379 N 125.638 -1.25649 -0.95132 0
M  V30 1380 C 126.548 -1.08073 -2.08224 0
M  V30 1381 C 127.564 -0.0169666 -1.73992 0
M  V30 1382 O 128.74 -0.218593 -2.0021 0
M  V30 1383 C 125.805 -0.704922 -3.39458 0
M  V30 1384 C 124.866 -1.84699 -3.87537 0
M  V30 1385 C 124.099 -1.48902 -5.12508 0
M  V30 1386 O 124.322 -0.386156 -5.69091 0
M  V30 1387 O 123.256 -2.32033 -5.55378 0
M  V30 1388 H 127.082 -2.02924 -2.25954 0
M  V30 1389 H 124.667 -1.04618 -1.06656 0
M  V30 1390 H 126.549 -0.507609 -4.18332 0
M  V30 1391 H 125.224 0.214291 -3.2299 0
M  V30 1392 H 124.131 -2.09919 -3.09653 0
M  V30 1393 H 125.464 -2.74557 -4.08509 0
M  V30 1394 N 127.117 1.15442 -1.07289 0
M  V30 1395 C 128.064 2.20161 -0.692653 0
M  V30 1396 C 129.034 1.63073 0.31564 0
M  V30 1397 O 130.219 1.89725 0.202235 0
M  V30 1398 C 127.359 3.44967 -0.0959509 0
M  V30 1399 C 126.472 4.16256 -1.15564 0
M  V30 1400 C 125.607 5.28609 -0.524011 0
M  V30 1401 C 124.646 5.91715 -1.56653 0
M  V30 1402 N 123.783 6.9554 -0.957531 0
M  V30 1403 H 128.623 2.52037 -1.59002 0
M  V30 1404 H 126.16 1.2378 -0.794798 0
M  V30 1405 H 128.118 4.16341 0.267628 0
M  V30 1406 H 126.748 3.1361 0.764772 0
M  V30 1407 H 125.8 3.43385 -1.6368 0
M  V30 1408 H 127.112 4.59268 -1.94613 0
M  V30 1409 H 126.266 6.06604 -0.108032 0
M  V30 1410 H 125.005 4.86787 0.29825 0
M  V30 1411 H 124.01 5.12433 -1.9923 0
M  V30 1412 H 125.235 6.35614 -2.39107 0
M  V30 1413 H 123.181 6.55814 -0.156162 0
M  V30 1414 H 123.098 7.36977 -1.68526 0
M  V30 1415 H 124.366 7.77435 -0.567032 0
M  V30 1416 N 128.595 0.856903 1.32268 0
M  V30 1417 C 130.011 0.547061 1.49931 0
M  V30 1418 C 130.211 -0.921781 1.7918 0
M  V30 1419 O 129.267 -1.70469 1.8627 0
M  V30 1420 C 130.58 1.43599 2.64196 0
M  V30 1421 C 132.128 1.43665 2.78081 0
M  V30 1422 C 132.603 2.31085 3.95428 0
M  V30 1423 N 134.094 2.28893 4.02694 0
M  V30 1424 C 134.829 2.93262 4.92732 0
M  V30 1425 N 134.325 3.66751 5.87763 0
M  V30 1426 N 136.118 2.82638 4.85873 0
M  V30 1427 H 128.269 1.8075 1.11549 0
M  V30 1428 H 130.532 0.772144 0.549997 0
M  V30 1429 H 130.238 2.48058 2.49319 0
M  V30 1430 H 130.112 1.12502 3.60032 0
M  V30 1431 H 132.499 0.399701 2.92381 0
M  V30 1432 H 132.58 1.7878 1.82952 0
M  V30 1433 H 132.224 3.34849 3.81888 0
M  V30 1434 H 132.154 1.93302 4.89839 0
M  V30 1435 H 134.645 1.75466 3.34694 0
M  V30 1436 H 134.958 4.13027 6.53168 0
M  V30 1437 H 133.303 3.70859 5.87783 0
M  V30 1438 H 136.494 2.24774 4.10602 0
M  V30 1439 H 136.667 3.33084 5.55841 0
M  V30 1440 N 130.073 -1.45103 0.615059 0
M  V30 1441 C 130.983 -2.34382 -0.101034 0
M  V30 1442 C 131.999 -1.51681 -0.852585 0
M  V30 1443 O 133.175 -1.8446 -0.808484 0
M  V30 1444 C 130.24 -3.29417 -1.08099 0
M  V30 1445 C 129.301 -4.28025 -0.330577 0
M  V30 1446 C 128.534 -5.1852 -1.26385 0
M  V30 1447 O 128.757 -5.12598 -2.50198 0
M  V30 1448 O 127.691 -5.97122 -0.756866 0
M  V30 1449 H 131.517 -2.97033 0.632855 0
M  V30 1450 H 129.102 -1.4461 0.375293 0
M  V30 1451 H 130.984 -3.87958 -1.6452 0
M  V30 1452 H 129.659 -2.69321 -1.79577 0
M  V30 1453 H 128.566 -3.73078 0.276283 0
M  V30 1454 H 129.899 -4.90997 0.343866 0
M  V30 1455 N 131.551 -0.354651 -1.53558 0
M  V30 1456 C 132.498 0.496968 -2.25386 0
M  V30 1457 C 133.468 1.0865 -1.25636 0
M  V30 1458 O 134.653 1.12104 -1.54394 0
M  V30 1459 C 131.793 1.63637 -3.03837 0
M  V30 1460 C 130.906 1.07307 -4.18461 0
M  V30 1461 C 130.041 2.18068 -4.84376 0
M  V30 1462 C 129.08 1.59147 -5.91049 0
M  V30 1463 N 128.217 2.63695 -6.50699 0
M  V30 1464 H 133.057 -0.122075 -2.9775 0
M  V30 1465 H 130.594 -0.0720154 -1.46924 0
M  V30 1466 H 132.552 2.30734 -3.47589 0
M  V30 1467 H 131.182 2.22623 -2.33749 0
M  V30 1468 H 130.234 0.292708 -3.79272 0
M  V30 1469 H 131.546 0.602193 -4.95152 0
M  V30 1470 H 130.7 2.93007 -5.31255 0
M  V30 1471 H 129.439 2.68504 -4.07133 0
M  V30 1472 H 128.444 0.827175 -5.43542 0
M  V30 1473 H 129.669 1.09549 -6.70206 0
M  V30 1474 H 127.615 3.13365 -5.76315 0
M  V30 1475 H 127.532 2.21263 -7.22896 0
M  V30 1476 H 128.8 3.3837 -7.02229 0
M  V30 1477 N 133.029 1.57378 -0.0835403 0
M  V30 1478 C 134.306 1.85363 0.624507 0
M  V30 1479 C 134.686 0.978239 1.87066 0
M  V30 1480 O 134.034 0.0475908 2.2845 0
M  V30 1481 C 134.244 3.35795 0.950947 0
M  V30 1482 C 135.592 4.03581 1.31939 0
M  V30 1483 O 136.616 3.40609 1.04232 0
M  V30 1484 O 135.475 5.14672 1.83779 0
M  V30 1485 H 132.569 0.766162 0.311329 0
M  V30 1486 H 135.115 1.69307 -0.115362 0
M  V30 1487 H 133.887 3.91244 0.0663899 0
M  V30 1488 H 133.51 3.57154 1.74719 0
M  V30 1489 N 134.507 -0.190092 1.56449 0
M  V30 1490 C 135.437 -1.23816 1.97969 0
M  V30 1491 C 136.418 -1.47201 0.852395 0
M  V30 1492 O 137.603 -1.58854 1.1171 0
M  V30 1493 C 134.733 -2.5813 2.3235 0
M  V30 1494 C 133.687 -2.49348 3.47864 0
M  V30 1495 C 133.013 -3.8798 3.67934 0
M  V30 1496 C 134.313 -2.01424 4.81898 0
M  V30 1497 H 136.007 -0.89311 2.85769 0
M  V30 1498 H 133.553 -0.428177 1.37487 0
M  V30 1499 H 135.506 -3.31637 2.59991 0
M  V30 1500 H 134.23 -2.94386 1.41438 0
M  V30 1501 H 132.889 -1.78297 3.20321 0
M  V30 1502 H 132.537 -4.21597 2.74344 0
M  V30 1503 H 132.237 -3.82978 4.45648 0
M  V30 1504 H 133.761 -4.63101 3.97957 0
M  V30 1505 H 135.175 -2.64693 5.08538 0
M  V30 1506 H 133.572 -2.07413 5.63116 0
M  V30 1507 H 134.642 -0.967677 4.75146 0
M  V30 1508 N 135.985 -1.50799 -0.457987 0
M  V30 1509 C 136.895 -1.73426 -1.57989 0
M  V30 1510 C 137.911 -0.617745 -1.62665 0
M  V30 1511 O 139.087 -0.897614 -1.80291 0
M  V30 1512 C 136.152 -1.83557 -2.94122 0
M  V30 1513 C 135.213 -3.07345 -2.99729 0
M  V30 1514 C 134.446 -3.16983 -4.29368 0
M  V30 1515 O 134.669 -2.33077 -5.20607 0
M  V30 1516 O 133.603 -4.09812 -4.40837 0
M  V30 1517 H 137.429 -2.68555 -1.41817 0
M  V30 1518 H 135.014 -1.35052 -0.638859 0
M  V30 1519 H 136.896 -1.92326 -3.74952 0
M  V30 1520 H 135.571 -0.916137 -3.10465 0
M  V30 1521 H 134.478 -3.04068 -2.1793 0
M  V30 1522 H 135.811 -3.9891 -2.88326 0
M  V30 1523 N 137.463 0.71206 -1.40597 0
M  V30 1524 C 138.709 1.47416 -1.39271 0
M  V30 1525 C 139.042 1.942 0.00388791 0
M  V30 1526 O 138.317 1.68403 0.973179 0
M  V30 1527 C 138.6 2.69774 -2.38525 0
M  V30 1528 C 138.453 2.28861 -3.87224 0
M  V30 1529 C 139.772 3.71939 -2.35264 0
M  V30 1530 H 136.891 0.534713 -0.5072 0
M  V30 1531 H 139.533 0.812375 -1.71757 0
M  V30 1532 H 137.683 3.26238 -2.10953 0
M  V30 1533 H 139.355 1.77852 -4.25636 0
M  V30 1534 H 137.598 1.60824 -4.02887 0
M  V30 1535 H 138.269 3.16584 -4.52193 0
M  V30 1536 H 140.745 3.25113 -2.59694 0
M  V30 1537 H 139.621 4.55186 -3.06753 0
M  V30 1538 H 139.882 4.20484 -1.36549 0
M  V30 1539 N 138.941 1.26152 0.944643 0
M  V30 1540 C 140.171 1.14094 1.72239 0
M  V30 1541 C 140.579 -0.306931 1.86694 0
M  V30 1542 O 139.922 -1.22222 1.3714 0
M  V30 1543 C 139.984 1.73316 3.14963 0
M  V30 1544 C 139.648 3.2239 3.23904 0
M  V30 1545 C 140.645 4.19252 3.07447 0
M  V30 1546 C 138.33 3.62788 3.47405 0
M  V30 1547 C 140.324 5.54491 3.14353 0
M  V30 1548 C 138.011 4.98162 3.53947 0
M  V30 1549 C 139.009 5.93823 3.37436 0
M  V30 1550 O 138.697 7.26732 3.43679 0
M  V30 1551 H 138.429 0.398292 0.546205 0
M  V30 1552 H 140.983 1.67201 1.19301 0
M  V30 1553 H 139.213 1.14667 3.69308 0
M  V30 1554 H 140.902 1.56214 3.74636 0
M  V30 1555 H 141.668 3.8938 2.8915 0
M  V30 1556 H 137.547 2.88816 3.59313 0
M  V30 1557 H 141.091 6.29137 3.01384 0
M  V30 1558 H 136.988 5.27695 3.71763 0
M  V30 1559 H 137.756 7.3496 3.60245 0
M  V30 1560 N 140.419 -1.14872 1.07899 0
M  V30 1561 C 141.349 -2.2193 0.725887 0
M  V30 1562 C 142.33 -1.67622 -0.28927 0
M  V30 1563 O 143.515 -1.93533 -0.160787 0
M  V30 1564 C 140.645 -3.47061 0.128856 0
M  V30 1565 C 139.599 -4.14363 1.07178 0
M  V30 1566 C 138.925 -5.33636 0.337229 0
M  V30 1567 C 140.225 -4.63492 2.40775 0
M  V30 1568 H 141.919 -2.51724 1.62097 0
M  V30 1569 H 139.465 -1.20991 0.780838 0
M  V30 1570 H 141.418 -4.21199 -0.130147 0
M  V30 1571 H 140.142 -3.16617 -0.80134 0
M  V30 1572 H 138.801 -3.42173 1.3158 0
M  V30 1573 H 138.449 -4.99449 -0.596606 0
M  V30 1574 H 138.149 -5.79609 0.965788 0
M  V30 1575 H 139.673 -6.10539 0.0861567 0
M  V30 1576 H 141.087 -5.2913 2.20669 0
M  V30 1577 H 139.484 -5.20148 2.99276 0
M  V30 1578 H 140.554 -3.78834 3.02676 0
M  V30 1579 N 141.898 -0.863906 -1.31812 0
M  V30 1580 C 142.83 -0.272485 -2.27575 0
M  V30 1581 C 143.843 0.56104 -1.52827 0
M  V30 1582 O 145.032 0.384021 -1.7432 0
M  V30 1583 C 142.132 0.63283 -3.32939 0
M  V30 1584 C 141.305 -0.166902 -4.37081 0
M  V30 1585 C 140.364 0.665608 -5.21973 0
M  V30 1586 O 139.39 0.0958091 -5.69119 0
M  V30 1587 N 140.592 1.9787 -5.45736 0
M  V30 1588 H 143.357 -1.0954 -2.78964 0
M  V30 1589 H 140.918 -0.724791 -1.4477 0
M  V30 1590 H 142.91 1.19532 -3.86645 0
M  V30 1591 H 141.48 1.35642 -2.81638 0
M  V30 1592 H 140.7 -0.910838 -3.83533 0
M  V30 1593 H 141.988 -0.715874 -5.03739 0
M  V30 1594 H 141.386 2.46484 -5.09178 0
M  V30 1595 H 139.943 2.48911 -6.024 0
M  V30 1596 N 143.376 1.44774 -0.622745 0
M  V30 1597 C 144.323 2.30635 0.0871679 0
M  V30 1598 C 145.293 1.42994 0.845097 0
M  V30 1599 O 146.478 1.71907 0.827812 0
M  V30 1600 C 143.618 3.28144 1.06844 0
M  V30 1601 C 142.731 4.30888 0.309809 0
M  V30 1602 C 141.866 5.15494 1.28215 0
M  V30 1603 C 140.905 6.09953 0.512198 0
M  V30 1604 N 140.042 6.87287 1.43458 0
M  V30 1605 H 144.882 2.90803 -0.650974 0
M  V30 1606 H 142.419 1.43286 -0.33281 0
M  V30 1607 H 144.377 3.83157 1.65066 0
M  V30 1608 H 143.007 2.69695 1.77382 0
M  V30 1609 H 142.059 3.78414 -0.388181 0
M  V30 1610 H 143.371 4.97955 -0.290254 0
M  V30 1611 H 142.525 5.74983 1.93596 0
M  V30 1612 H 141.264 4.48481 1.91614 0
M  V30 1613 H 140.269 5.49581 -0.155151 0
M  V30 1614 H 141.494 6.78999 -0.116958 0
M  V30 1615 H 139.44 6.2295 2.05594 0
M  V30 1616 H 139.357 7.50763 0.888335 0
M  V30 1617 H 140.625 7.51306 2.07749 0
M  V30 1618 N 144.854 0.36279 1.53368 0
M  V30 1619 C 145.784 -0.476976 2.28576 0
M  V30 1620 C 146.765 -1.08631 1.30894 0
M  V30 1621 O 147.95 -1.10409 1.59761 0
M  V30 1622 C 145.08 -1.61828 3.07293 0
M  V30 1623 C 144.034 -1.13633 4.1264 0
M  V30 1624 C 143.36 -2.36766 4.79423 0
M  V30 1625 C 144.66 -0.223061 5.21823 0
M  V30 1626 H 146.354 0.150474 2.99022 0
M  V30 1627 H 143.9 0.0738103 1.43811 0
M  V30 1628 H 145.853 -2.21237 3.58653 0
M  V30 1629 H 144.577 -2.27292 2.34533 0
M  V30 1630 H 143.236 -0.564945 3.62221 0
M  V30 1631 H 142.884 -3.0068 4.03238 0
M  V30 1632 H 142.584 -2.05192 5.50609 0
M  V30 1633 H 144.108 -2.96865 5.33576 0
M  V30 1634 H 145.522 -0.724545 5.68703 0
M  V30 1635 H 143.919 0.001678 6.001 0
M  V30 1636 H 144.989 0.735553 4.79289 0
M  V30 1637 N 146.332 -1.57332 0.0918853 0
M  V30 1638 C 147.262 -2.16872 -0.865371 0
M  V30 1639 C 148.243 -1.10118 -1.29646 0
M  V30 1640 O 149.428 -1.38242 -1.36392 0
M  V30 1641 C 146.558 -2.74649 -2.12569 0
M  V30 1642 C 145.512 -3.86747 -1.83333 0
M  V30 1643 C 144.838 -4.31212 -3.16166 0
M  V30 1644 C 146.138 -5.10089 -1.1228 0
M  V30 1645 H 147.832 -2.97114 -0.369307 0
M  V30 1646 H 145.378 -1.42918 -0.176194 0
M  V30 1647 H 147.331 -3.14952 -2.7997 0
M  V30 1648 H 146.055 -1.91657 -2.64452 0
M  V30 1649 H 144.714 -3.46978 -1.18331 0
M  V30 1650 H 144.362 -3.45115 -3.6593 0
M  V30 1651 H 144.062 -5.06788 -2.97388 0
M  V30 1652 H 145.586 -4.74146 -3.84731 0
M  V30 1653 H 147 -5.47582 -1.69785 0
M  V30 1654 H 145.397 -5.91073 -1.03693 0
M  V30 1655 H 146.467 -4.84786 -0.105041 0
M  V30 1656 N 147.81 0.181792 -1.56548 0
M  V30 1657 C 148.773 1.20894 -1.94724 0
M  V30 1658 C 149.773 1.37738 -0.829747 0
M  V30 1659 O 150.963 1.35323 -1.09697 0
M  V30 1660 C 148.095 2.57593 -2.23291 0
M  V30 1661 H 149.288 0.882275 -2.86629 0
M  V30 1662 H 146.841 0.423838 -1.50444 0
M  V30 1663 H 147.576 2.95291 -1.34067 0
M  V30 1664 H 147.361 2.46735 -3.04736 0
M  V30 1665 H 148.851 3.31637 -2.53785 0
M  V30 1666 N 149.288 1.51039 0.449983 0
M  V30 1667 C 150.251 1.70863 1.5277 0
M  V30 1668 C 151.251 0.578846 1.5002 0
M  V30 1669 O 152.441 0.846213 1.52266 0
M  V30 1670 C 149.573 1.75341 2.9235 0
M  V30 1671 H 150.766 2.67034 1.36502 0
M  V30 1672 H 148.319 1.40838 0.677812 0
M  V30 1673 H 149.054 0.809383 3.14037 0
M  V30 1674 H 148.839 2.57436 2.95752 0
M  V30 1675 H 150.329 1.92559 3.70555 0
M  V30 1676 N 150.766 -0.704594 1.40972 0
M  V30 1677 C 152.013 -1.46458 1.39844 0
M  V30 1678 C 152.341 -1.94499 0.00447594 0
M  V30 1679 O 151.596 -1.69275 -0.982057 0
M  V30 1680 C 151.895 -2.698 2.34399 0
M  V30 1681 C 151.561 -2.40464 3.81429 0
M  V30 1682 C 150.223 -2.32174 4.21484 0
M  V30 1683 C 152.575 -2.16086 4.74296 0
M  V30 1684 C 149.903 -1.97589 5.52427 0
M  V30 1685 C 152.255 -1.83011 6.05549 0
M  V30 1686 C 150.919 -1.7321 6.44635 0
M  V30 1687 H 150.189 -0.535927 0.511725 0
M  V30 1688 H 152.836 -0.806124 1.73706 0
M  V30 1689 H 151.141 -3.40536 1.93759 0
M  V30 1690 H 152.838 -3.27919 2.30804 0
M  V30 1691 H 149.428 -2.47808 3.49699 0
M  V30 1692 H 153.612 -2.2144 4.4416 0
M  V30 1693 H 148.868 -1.88547 5.81601 0
M  V30 1694 H 153.042 -1.63164 6.77016 0
M  V30 1695 H 150.669 -1.46179 7.46013 0
M  V30 1696 N 152.244 -1.26651 -0.937939 0
M  V30 1697 C 153.655 -1.1125 -1.49934 0
M  V30 1698 C 154.006 0.306077 -1.93798 0
M  V30 1699 O 153.131 1.19792 -1.80219 0
M  V30 1700 C 153.726 -2.01339 -2.72485 0
M  V30 1701 C 152.285 -1.90074 -3.24883 0
M  V30 1702 C 151.432 -1.94498 -1.97651 0
M  V30 1703 H 154.383 -1.39693 -0.753091 0
M  V30 1704 H 154.404 -1.56319 -3.46907 0
M  V30 1705 H 153.916 -3.04577 -2.40529 0
M  V30 1706 H 152.017 -0.897827 -3.61621 0
M  V30 1707 H 152.13 -2.75778 -3.9177 0
M  V30 1708 H 150.494 -1.38591 -2.13693 0
M  V30 1709 H 151.277 -2.99372 -1.68022 0
M  V30 1710 N 153.722 1.14298 -1.08507 0
M  V30 1711 C 154.97 1.84993 -0.813763 0
M  V30 1712 C 155.291 1.83405 0.662393 0
M  V30 1713 O 154.561 1.28319 1.48024 0
M  V30 1714 H 153.141 0.684966 -0.298045 0
M  V30 1715 H 155.803 1.385 -1.37126 0
M  V30 1716 H 154.899 2.89788 -1.15884 0
M  V30 1717 N 155.201 0.870884 1.31352 0
M  V30 1718 C 156.447 0.482987 1.96965 0
M  V30 1719 C 156.78 -0.962462 1.68672 0
M  V30 1720 O 156.055 -1.6779 0.98371 0
M  V30 1721 C 156.338 0.741752 3.52378 0
M  V30 1722 C 156.191 2.2368 3.9024 0
M  V30 1723 C 157.51 0.208838 4.39604 0
M  V30 1724 H 154.629 0.176955 0.715441 0
M  V30 1725 H 157.271 1.09229 1.55464 0
M  V30 1726 H 155.421 0.223149 3.87859 0
M  V30 1727 H 157.093 2.82273 3.64856 0
M  V30 1728 H 155.336 2.70901 3.38814 0
M  V30 1729 H 156.007 2.3685 4.98604 0
M  V30 1730 H 158.483 0.652529 4.10952 0
M  V30 1731 H 157.359 0.419336 5.47296 0
M  V30 1732 H 157.62 -0.889275 4.33064 0
M  V30 1733 N 156.679 -1.44442 0.630414 0
M  V30 1734 C 157.907 -2.06414 0.141671 0
M  V30 1735 C 158.322 -1.47105 -1.18345 0
M  V30 1736 O 157.679 -0.593662 -1.72574 0
M  V30 1737 C 157.73 -3.61494 0.0199784 0
M  V30 1738 O 157.451 -4.18594 1.29269 0
M  V30 1739 C 158.952 -4.40499 -0.497544 0
M  V30 1740 H 156.172 -0.666292 0.0793452 0
M  V30 1741 H 158.716 -1.85323 0.864614 0
M  V30 1742 H 156.871 -3.8185 -0.653402 0
M  V30 1743 H 157.285 -5.12026 1.13707 0
M  V30 1744 H 158.759 -5.49433 -0.531708 0
M  V30 1745 H 159.236 -4.11895 -1.52445 0
M  V30 1746 H 159.842 -4.25061 0.142562 0
M  V30 1747 N 158.157 -0.370918 -1.53173 0
M  V30 1748 C 159.568 0.107139 -1.86392 0
M  V30 1749 C 159.919 1.47714 -1.29132 0
M  V30 1750 O 159.044 2.07464 -0.615439 0
M  V30 1751 C 159.639 0.201187 -3.38202 0
M  V30 1752 C 158.198 0.623507 -3.712 0
M  V30 1753 C 157.345 -0.225978 -2.76378 0
M  V30 1754 H 160.296 -0.58951 -1.47345 0
M  V30 1755 H 160.317 1.02377 -3.66468 0
M  V30 1756 H 159.829 -0.796058 -3.79848 0
M  V30 1757 H 157.93 1.62879 -3.35114 0
M  V30 1758 H 158.043 0.394414 -4.77474 0
M  V30 1759 H 156.407 0.305962 -2.52856 0
M  V30 1760 H 157.19 -1.22086 -3.20858 0
M  V30 1761 N 159.635 1.57281 -0.100228 0
M  V30 1762 C 161.051 1.57527 0.256416 0
M  V30 1763 C 161.251 1.11173 1.68056 0
M  V30 1764 O 160.307 0.79053 2.39806 0
M  V30 1765 C 161.62 3.00673 0.0401747 0
M  V30 1766 C 163.168 3.12815 0.107528 0
M  V30 1767 C 163.643 4.57929 -0.0807834 0
M  V30 1768 N 165.134 4.63193 -0.0261207 0
M  V30 1769 C 165.869 5.73212 -0.146999 0
M  V30 1770 N 165.365 6.92047 -0.322999 0
M  V30 1771 N 167.158 5.62031 -0.0879044 0
M  V30 1772 H 159.309 1.85718 -1.03065 0
M  V30 1773 H 161.572 0.857446 -0.404339 0
M  V30 1774 H 161.278 3.38804 -0.943649 0
M  V30 1775 H 161.152 3.69042 0.780262 0
M  V30 1776 H 163.539 2.74554 1.08186 0
M  V30 1777 H 163.62 2.47028 -0.664134 0
M  V30 1778 H 163.264 4.96886 -1.05201 0
M  V30 1779 H 163.194 5.21783 0.710635 0
M  V30 1780 H 165.685 3.77748 0.107161 0
M  V30 1781 H 165.998 7.7173 -0.406608 0
M  V30 1782 H 164.343 6.94074 -0.358733 0
M  V30 1783 H 167.534 4.68075 0.048498 0
M  V30 1784 H 167.707 6.47734 -0.185557 0
M  V30 1785 N 161.113 -0.173488 1.56642 0
M  V30 1786 C 162.359 -0.891784 1.8214 0
M  V30 1787 C 162.692 -1.8199 0.677736 0
M  V30 1788 O 161.967 -1.91842 -0.320446 0
M  V30 1789 C 162.25 -1.68933 3.18015 0
M  V30 1790 C 162.103 -0.784487 4.42906 0
M  V30 1791 C 163.422 -2.65748 3.50808 0
M  V30 1792 H 160.541 -0.322761 0.662567 0
M  V30 1793 H 163.183 -0.158095 1.89341 0
M  V30 1794 H 161.333 -2.31482 3.12007 0
M  V30 1795 H 163.005 -0.172046 4.60979 0
M  V30 1796 H 161.248 -0.0924117 4.33702 0
M  V30 1797 H 161.919 -1.37799 5.34524 0
M  V30 1798 H 164.395 -2.13327 3.57255 0
M  V30 1799 H 163.271 -3.18619 4.4696 0
M  V30 1800 H 163.532 -3.45842 2.75401 0
M  V30 1801 N 162.591 -1.51276 -0.441967 0
M  V30 1802 C 163.521 -1.752 -1.54361 0
M  V30 1803 C 164.502 -0.601682 -1.59103 0
M  V30 1804 O 165.687 -0.843913 -1.74905 0
M  V30 1805 C 162.817 -1.87282 -2.92477 0
M  V30 1806 C 161.771 -3.02687 -3.02596 0
M  V30 1807 C 161.097 -2.99947 -4.42647 0
M  V30 1808 C 162.397 -4.4273 -2.77106 0
M  V30 1809 H 164.091 -2.67442 -1.34592 0
M  V30 1810 H 161.637 -1.28694 -0.646048 0
M  V30 1811 H 163.59 -2.02602 -3.695 0
M  V30 1812 H 162.314 -0.916844 -3.13467 0
M  V30 1813 H 160.973 -2.87065 -2.28012 0
M  V30 1814 H 160.621 -2.02136 -4.60597 0
M  V30 1815 H 160.321 -3.77439 -4.50348 0
M  V30 1816 H 161.845 -3.17354 -5.2165 0
M  V30 1817 H 163.259 -4.58727 -3.43864 0
M  V30 1818 H 161.656 -5.21893 -2.96222 0
M  V30 1819 H 162.726 -4.53087 -1.72744 0
M  V30 1820 N 164.069 0.697108 -1.41344 0
M  V30 1821 C 165.032 1.79281 -1.42797 0
M  V30 1822 C 166.032 1.57607 -0.318837 0
M  V30 1823 O 167.222 1.64309 -0.578642 0
M  V30 1824 C 164.354 3.17632 -1.23785 0
M  V30 1825 H 165.547 1.79385 -2.40335 0
M  V30 1826 H 163.1 0.904582 -1.27464 0
M  V30 1827 H 163.835 3.23167 -0.270814 0
M  V30 1828 H 163.62 3.34765 -2.04144 0
M  V30 1829 H 165.11 3.97617 -1.27633 0
M  V30 1830 N 165.547 1.27147 0.931209 0
M  V30 1831 C 166.497 1.06227 2.01742 0
M  V30 1832 C 167.481 -0.00859065 1.60898 0
M  V30 1833 O 168.673 0.209537 1.75755 0
M  V30 1834 C 165.802 0.707787 3.35924 0
M  V30 1835 C 164.888 1.81661 3.83223 0
M  V30 1836 N 165.279 3.05564 4.03069 0
M  V30 1837 C 163.577 1.70249 4.12227 0
M  V30 1838 C 164.278 3.77697 4.42403 0
M  V30 1839 N 163.254 3.0544 4.49675 0
M  V30 1840 H 167.056 2.00261 2.15111 0
M  V30 1841 H 164.57 1.1781 1.11779 0
M  V30 1842 H 166.567 0.539043 4.134 0
M  V30 1843 H 165.227 -0.224964 3.2392 0
M  V30 1844 H 166.238 3.41363 3.89476 0
M  V30 1845 H 162.915 0.840329 4.08956 0
M  V30 1846 H 164.305 4.84168 4.65866 0
M  V30 1847 N 167.025 -1.13721 1.09112 0
M  V30 1848 C 168.272 -1.84924 0.825192 0
M  V30 1849 C 168.6 -1.83347 -0.649151 0
M  V30 1850 O 167.855 -1.26449 -1.49362 0
M  V30 1851 C 168.154 -3.32861 1.30146 0
M  V30 1852 C 167.82 -3.54621 2.78486 0
M  V30 1853 C 166.482 -3.60268 3.18999 0
M  V30 1854 C 168.834 -3.62855 3.74146 0
M  V30 1855 C 166.162 -3.71679 4.53951 0
M  V30 1856 C 168.514 -3.75793 5.08883 0
M  V30 1857 C 167.178 -3.79692 5.4899 0
M  V30 1858 H 166.448 -0.676684 0.301959 0
M  V30 1859 H 169.095 -1.3428 1.36533 0
M  V30 1860 H 167.4 -3.85835 0.681064 0
M  V30 1861 H 169.097 -3.86395 1.07236 0
M  V30 1862 H 165.687 -3.50879 2.46134 0
M  V30 1863 H 169.871 -3.57775 3.43963 0
M  V30 1864 H 165.127 -3.72963 4.84467 0
M  V30 1865 H 169.301 -3.81107 5.82864 0
M  V30 1866 H 166.928 -3.88287 6.53558 0
M  V30 1867 N 168.503 -0.877838 -1.30888 0
M  V30 1868 C 169.433 -0.35534 -2.3078 0
M  V30 1869 C 170.414 0.557994 -1.60687 0
M  V30 1870 O 171.599 0.473355 -1.88343 0
M  V30 1871 C 168.729 0.437221 -3.44537 0
M  V30 1872 C 167.683 -0.383715 -4.26276 0
M  V30 1873 C 167.009 0.535014 -5.32017 0
M  V30 1874 C 168.309 -1.62201 -4.96476 0
M  V30 1875 H 170.003 -1.19007 -2.74732 0
M  V30 1876 H 167.549 -0.573698 -1.32078 0
M  V30 1877 H 169.502 0.813334 -4.13477 0
M  V30 1878 H 168.226 1.30553 -2.99372 0
M  V30 1879 H 166.885 -0.741874 -3.59015 0
M  V30 1880 H 166.533 1.40083 -4.831 0
M  V30 1881 H 166.233 -0.0104211 -5.87599 0
M  V30 1882 H 167.757 0.907799 -6.03814 0
M  V30 1883 H 169.171 -1.31689 -5.5797 0
M  V30 1884 H 167.568 -2.10711 -5.61891 0
M  V30 1885 H 168.638 -2.37044 -4.23011 0
M  V30 1886 N 169.982 1.44106 -0.638065 0
M  V30 1887 C 170.932 2.27843 0.0847285 0
M  V30 1888 C 171.916 1.39055 0.809471 0
M  V30 1889 O 173.108 1.62808 0.694435 0
M  V30 1890 C 170.237 3.26497 1.06089 0
M  V30 1891 C 169.323 4.22772 0.33541 0
M  V30 1892 N 169.714 5.01737 -0.639787 0
M  V30 1893 C 168.012 4.42227 0.578921 0
M  V30 1894 C 168.713 5.71792 -1.06904 0
M  V30 1895 N 167.689 5.42079 -0.406395 0
M  V30 1896 H 171.491 2.86305 -0.663814 0
M  V30 1897 H 169.005 1.55627 -0.464122 0
M  V30 1898 H 171.002 3.8525 1.59337 0
M  V30 1899 H 169.662 2.69595 1.80966 0
M  V30 1900 H 170.673 5.07799 -1.01789 0
M  V30 1901 H 167.35 3.96415 1.31003 0
M  V30 1902 H 168.74 6.45205 -1.8751 0
M  V30 1903 N 171.46 0.379036 1.52974 0
M  V30 1904 C 172.707 -0.206421 2.01445 0
M  V30 1905 C 173.035 -1.47668 1.26587 0
M  V30 1906 O 172.29 -1.92514 0.351675 0
M  V30 1907 C 172.589 -0.53096 3.53434 0
M  V30 1908 C 172.255 0.646546 4.46241 0
M  V30 1909 C 170.917 0.969604 4.7133 0
M  V30 1910 C 173.269 1.43479 5.01062 0
M  V30 1911 C 170.597 2.08263 5.48492 0
M  V30 1912 C 172.949 2.53834 5.7944 0
M  V30 1913 C 171.613 2.86659 6.02812 0
M  V30 1914 H 170.883 -0.0755349 0.73714 0
M  V30 1915 H 173.53 0.514271 1.84465 0
M  V30 1916 H 171.835 -1.33285 3.68432 0
M  V30 1917 H 173.532 -0.996417 3.88423 0
M  V30 1918 H 170.122 0.384734 4.2687 0
M  V30 1919 H 174.306 1.19844 4.81613 0
M  V30 1920 H 169.562 2.34078 5.64816 0
M  V30 1921 H 173.736 3.15319 6.20924 0
M  V30 1922 H 171.363 3.73026 6.62387 0
M  V30 1923 N 172.938 -1.57226 0.108567 0
M  V30 1924 C 173.888 -2.11305 -0.856396 0
M  V30 1925 C 174.872 -1.03129 -1.23504 0
M  V30 1926 O 176.064 -1.29381 -1.20787 0
M  V30 1927 C 173.193 -2.70771 -2.11041 0
M  V30 1928 C 172.279 -3.86011 -1.7566 0
M  V30 1929 N 172.67 -4.93492 -1.10902 0
M  V30 1930 C 170.968 -3.95999 -2.05185 0
M  V30 1931 C 171.669 -5.73984 -0.944308 0
M  V30 1932 N 170.645 -5.2346 -1.46596 0
M  V30 1933 H 174.447 -2.91784 -0.352002 0
M  V30 1934 H 171.961 -1.62126 -0.0942324 0
M  V30 1935 H 173.958 -3.07851 -2.81128 0
M  V30 1936 H 172.618 -1.91751 -2.62034 0
M  V30 1937 H 173.629 -5.1208 -0.774235 0
M  V30 1938 H 170.306 -3.28007 -2.58298 0
M  V30 1939 H 171.696 -6.70479 -0.436813 0
M  V30 1940 N 174.416 0.165178 -1.56732 0
M  V30 1941 C 175.663 0.880807 -1.8234 0
M  V30 1942 C 175.991 1.81977 -0.686621 0
M  V30 1943 O 175.246 1.92971 0.325697 0
M  V30 1944 C 175.545 1.70405 -3.1416 0
M  V30 1945 C 175.211 0.913475 -4.4155 0
M  V30 1946 C 173.873 0.695303 -4.7615 0
M  V30 1947 C 176.225 0.359349 -5.1996 0
M  V30 1948 C 173.553 -0.0879947 -5.86634 0
M  V30 1949 C 175.905 -0.410893 -6.31264 0
M  V30 1950 C 174.569 -0.639808 -6.64427 0
M  V30 1951 H 173.839 0.32231 -0.667231 0
M  V30 1952 H 176.486 0.145402 -1.90947 0
M  V30 1953 H 174.791 2.50903 -3.00923 0
M  V30 1954 H 176.488 2.26091 -3.31186 0
M  V30 1955 H 173.078 1.09357 -4.14414 0
M  V30 1956 H 177.262 0.515228 -4.93618 0
M  V30 1957 H 172.518 -0.27503 -6.10781 0
M  V30 1958 H 176.692 -0.847494 -6.91224 0
M  V30 1959 H 174.319 -1.24864 -7.49875 0
M  V30 1960 N 175.894 1.51508 0.433938 0
M  V30 1961 C 177.124 1.67914 1.20369 0
M  V30 1962 C 177.532 0.377461 1.85397 0
M  V30 1963 O 176.875 -0.654255 1.71654 0
M  V30 1964 C 176.937 2.74045 2.32679 0
M  V30 1965 C 176.601 4.16543 1.87991 0
M  V30 1966 C 177.598 5.01211 1.38145 0
M  V30 1967 C 175.283 4.6266 1.95579 0
M  V30 1968 C 177.277 6.30056 0.964774 0
M  V30 1969 C 174.964 5.91501 1.53523 0
M  V30 1970 C 175.962 6.75027 1.04055 0
M  V30 1971 O 175.65 8.01459 0.625964 0
M  V30 1972 H 175.382 0.566578 0.368735 0
M  V30 1973 H 177.936 1.98709 0.51999 0
M  V30 1974 H 176.166 2.38572 3.04336 0
M  V30 1975 H 177.855 2.79295 2.94532 0
M  V30 1976 H 178.621 4.66783 1.31675 0
M  V30 1977 H 174.5 3.97767 2.33029 0
M  V30 1978 H 178.044 6.95202 0.57796 0
M  V30 1979 H 173.941 6.25442 1.59665 0
M  V30 1980 H 174.709 8.15043 0.751509 0
M  V30 1981 N 177.372 -0.689602 1.41712 0
M  V30 1982 C 178.282 -1.83314 1.46401 0
M  V30 1983 C 179.298 -1.7036 0.35405 0
M  V30 1984 O 180.474 -1.92171 0.602692 0
M  V30 1985 C 177.539 -3.19344 1.34982 0
M  V30 1986 C 176.6 -3.44363 2.56344 0
M  V30 1987 C 175.833 -4.73904 2.45461 0
M  V30 1988 O 176.056 -5.508 1.48241 0
M  V30 1989 O 174.99 -4.99839 3.35328 0
M  V30 1990 H 178.816 -1.82314 2.42889 0
M  V30 1991 H 176.401 -0.843438 1.23315 0
M  V30 1992 H 178.283 -4.00547 1.3092 0
M  V30 1993 H 176.958 -3.21014 0.41612 0
M  V30 1994 H 175.865 -2.63067 2.65982 0
M  V30 1995 H 177.198 -3.47512 3.48563 0
M  V30 1996 N 178.85 -1.27639 -0.924453 0
M  V30 1997 C 180.099 -1.13549 -1.66702 0
M  V30 1998 C 180.412 0.317487 -1.93006 0
M  V30 1999 O 181.618 0.579333 -2.65247 0
M  V30 2000 C 180.074 -1.98426 -3.00259 0
M  V30 2001 C 179.682 -3.484 -2.81641 0
M  V30 2002 C 181.426 -1.92993 -3.78092 0
M  V30 2003 C 179.333 -4.25464 -4.10773 0
M  V30 2004 H 178.263 -0.421351 -0.625283 0
M  V30 2005 H 180.914 -1.52085 -1.02676 0
M  V30 2006 H 179.296 -1.52736 -3.6536 0
M  V30 2007 H 180.47 -4.01973 -2.25287 0
M  V30 2008 H 178.785 -3.55245 -2.17232 0
M  V30 2009 H 181.382 -2.47844 -4.7379 0
M  V30 2010 H 181.725 -0.904281 -4.0636 0
M  V30 2011 H 182.258 -2.36595 -3.19793 0
M  V30 2012 H 178.997 -5.28566 -3.87683 0
M  V30 2013 H 178.517 -3.76667 -4.66779 0
M  V30 2014 H 180.196 -4.34812 -4.79111 0
M  V30 2015 N 180.328 1.1314 -1.09713 0
M  V30 2016 C 181.276 2.20717 -0.733934 0
M  V30 2017 C 182.27 1.6729 0.266506 0
M  V30 2018 O 183.476 1.79547 0.127656 0
M  V30 2019 H 179.851 0.719292 -0.21937 0
M  V30 2020 H 181.822 2.48611 -1.6503 0
M  V30 2021 C 180.571 3.47265 -0.173849 0
M  V30 2022 H 179.894 3.88716 -0.934873 0
M  V30 2023 H 181.334 4.23979 0.0423126 0
M  V30 2024 C 179.793 3.18724 1.09164 0
M  V30 2025 O 180.323 3.37762 2.17439 0
M  V30 2026 N 178.529 2.72583 1.00732 0
M  V30 2027 H 178.076 2.57291 0.126121 0
M  V30 2028 H 178.034 2.53862 1.85476 0
M  V30 2029 N 181.806 0.884767 1.30421 0
M  V30 2030 C 183.054 0.502112 1.95763 0
M  V30 2031 C 183.375 -0.951815 1.70192 0
M  V30 2032 O 182.645 -1.6692 1.0254 0
M  V30 2033 H 181.225 0.182694 0.724315 0
M  V30 2034 H 183.887 1.1278 1.58955 0
M  V30 2035 H 182.983 0.672188 3.04775 0
M  V30 2036 N 183.284 -1.43765 0.645699 0
M  V30 2037 C 184.533 -2.01116 0.153412 0
M  V30 2038 C 184.846 -1.51493 -1.23731 0
M  V30 2039 O 186.052 -2.01067 -1.8244 0
M  V30 2040 C 184.508 -3.59206 0.223473 0
M  V30 2041 C 184.116 -4.17823 1.61642 0
M  V30 2042 C 185.86 -4.23972 -0.211597 0
M  V30 2043 C 183.767 -5.68183 1.64081 0
M  V30 2044 H 182.697 -0.752093 0.0535891 0
M  V30 2045 H 185.348 -1.6482 0.806633 0
M  V30 2046 H 183.73 -3.92867 -0.497118 0
M  V30 2047 H 184.904 -3.95674 2.36176 0
M  V30 2048 H 183.219 -3.65399 1.99681 0
M  V30 2049 H 185.816 -5.34275 -0.213112 0
M  V30 2050 H 186.159 -3.97352 -1.24165 0
M  V30 2051 H 186.692 -3.95166 0.456988 0
M  V30 2052 H 183.431 -5.99559 2.64971 0
M  V30 2053 H 182.951 -5.9241 0.938611 0
M  V30 2054 H 184.63 -6.32085 1.3812 0
M  V30 2055 N 184.763 -0.387143 -1.52771 0
M  V30 2056 C 185.991 0.195869 -2.05971 0
M  V30 2057 C 186.406 1.40691 -1.25903 0
M  V30 2058 O 185.763 1.79931 -0.305134 0
M  V30 2059 C 185.814 0.56812 -3.57008 0
M  V30 2060 O 185.535 -0.594803 -4.34043 0
M  V30 2061 C 187.036 1.20723 -4.26545 0
M  V30 2062 H 184.256 0.0300578 -0.670326 0
M  V30 2063 H 186.8 -0.551749 -1.96916 0
M  V30 2064 H 184.955 1.26564 -3.66143 0
M  V30 2065 H 185.369 -0.289322 -5.23701 0
M  V30 2066 H 186.843 1.41807 -5.33474 0
M  V30 2067 H 187.32 2.17395 -3.81623 0
M  V30 2068 H 187.926 0.550535 -4.21722 0
M  V30 2069 N 186.241 1.57166 -0.116904 0
M  V30 2070 C 187.204 2.14039 0.819742 0
M  V30 2071 C 188.204 1.07477 1.19605 0
M  V30 2072 O 189.394 1.33263 1.1219 0
M  V30 2073 C 186.526 2.67891 2.10826 0
M  V30 2074 H 187.719 2.98128 0.325511 0
M  V30 2075 H 185.272 1.55739 0.132312 0
M  V30 2076 H 186.007 1.87384 2.64685 0
M  V30 2077 H 185.792 3.45823 1.84793 0
M  V30 2078 H 187.282 3.11809 2.77785 0
M  V30 2079 N 187.719 -0.156864 1.56817 0
M  V30 2080 C 188.682 -1.17781 1.96622 0
M  V30 2081 C 189.682 -1.36401 0.851555 0
M  V30 2082 O 190.872 -1.33561 1.11836 0
M  V30 2083 C 188.004 -2.54008 2.27361 0
M  V30 2084 H 189.197 -0.836564 2.87996 0
M  V30 2085 H 186.75 -0.39985 1.51099 0
M  V30 2086 H 187.485 -2.9312 1.38748 0
M  V30 2087 H 187.27 -2.41856 3.08623 0
M  V30 2088 H 188.76 -3.27558 2.59029 0
M  V30 2089 N 189.197 -1.51736 -0.425897 0
M  V30 2090 C 190.127 -1.76827 -1.52494 0
M  V30 2091 C 191.108 -0.618524 -1.58456 0
M  V30 2092 O 192.293 -0.862416 -1.74 0
M  V30 2093 C 189.423 -1.90374 -2.90474 0
M  V30 2094 C 188.377 -3.0588 -2.99369 0
M  V30 2095 C 187.703 -3.04625 -4.3944 0
M  V30 2096 C 189.003 -4.45644 -2.72394 0
M  V30 2097 H 190.697 -2.68855 -1.31748 0
M  V30 2098 H 188.243 -1.29372 -0.632362 0
M  V30 2099 H 190.196 -2.0651 -3.6733 0
M  V30 2100 H 188.92 -0.95004 -3.12477 0
M  V30 2101 H 187.579 -2.89467 -2.24954 0
M  V30 2102 H 187.227 -2.0701 -4.58428 0
M  V30 2103 H 186.927 -3.82195 -4.46319 0
M  V30 2104 H 188.451 -3.22869 -5.18255 0
M  V30 2105 H 189.865 -4.62348 -3.38979 0
M  V30 2106 H 188.262 -5.25006 -2.9067 0
M  V30 2107 H 189.332 -4.54893 -1.67929 0
M  V30 2108 N 190.675 0.682077 -1.42076 0
M  V30 2109 C 191.638 1.77756 -1.44691 0
M  V30 2110 C 192.638 1.5726 -0.335535 0
M  V30 2111 O 193.828 1.63686 -0.596037 0
M  V30 2112 C 190.96 3.16301 -1.27146 0
M  V30 2113 H 192.153 1.76826 -2.42224 0
M  V30 2114 H 189.706 0.891012 -1.28416 0
M  V30 2115 H 190.441 3.22862 -0.305075 0
M  V30 2116 H 190.226 3.32581 -2.07683 0
M  V30 2117 H 191.716 3.96241 -1.31843 0
M  V30 2118 N 192.153 1.28127 0.917671 0
M  V30 2119 C 193.063 1.13556 2.05286 0
M  V30 2120 C 194.079 0.0630914 1.73886 0
M  V30 2121 O 195.255 0.271598 1.9956 0
M  V30 2122 C 192.32 0.794676 3.3747 0
M  V30 2123 C 191.381 1.94909 3.82504 0
M  V30 2124 C 190.614 1.62437 5.0838 0
M  V30 2125 O 190.837 0.536905 5.67867 0
M  V30 2126 O 189.771 2.46677 5.4903 0
M  V30 2127 H 193.597 2.08844 2.20495 0
M  V30 2128 H 191.182 1.07409 1.03845 0
M  V30 2129 H 193.064 0.618344 4.16839 0
M  V30 2130 H 191.739 -0.128581 3.23445 0
M  V30 2131 H 190.646 2.18055 3.03978 0
M  V30 2132 H 191.979 2.85291 4.01086 0
M  V30 2133 N 193.631 -1.12557 1.10312 0
M  V30 2134 C 194.541 -2.21841 0.763142 0
M  V30 2135 C 195.557 -1.72354 -0.238801 0
M  V30 2136 O 196.733 -2.01249 -0.0778746 0
M  V30 2137 C 193.798 -3.46131 0.198632 0
M  V30 2138 C 192.859 -4.10464 1.25769 0
M  V30 2139 C 192.092 -5.28821 0.72002 0
M  V30 2140 O 192.315 -5.6859 -0.453993 0
M  V30 2141 O 191.249 -5.83437 1.47935 0
M  V30 2142 H 195.075 -2.53312 1.67532 0
M  V30 2143 H 192.66 -1.20867 0.878157 0
M  V30 2144 H 194.542 -4.2125 -0.112401 0
M  V30 2145 H 193.217 -3.16338 -0.686419 0
M  V30 2146 H 192.124 -3.3713 1.62156 0
M  V30 2147 H 193.457 -4.44408 2.11571 0
M  V30 2148 N 195.109 -0.891671 -1.2995 0
M  V30 2149 C 196.039 -0.379797 -2.30391 0
M  V30 2150 C 197.02 0.540919 -1.6127 0
M  V30 2151 O 198.205 0.453352 -1.88834 0
M  V30 2152 C 195.335 0.400654 -3.44981 0
M  V30 2153 C 194.289 -0.428905 -4.25846 0
M  V30 2154 C 193.615 0.478557 -5.32554 0
M  V30 2155 C 194.915 -1.67458 -4.94727 0
M  V30 2156 H 196.609 -1.21914 -2.73454 0
M  V30 2157 H 194.155 -0.587675 -1.31462 0
M  V30 2158 H 196.108 0.769434 -4.14316 0
M  V30 2159 H 194.832 1.27371 -3.0074 0
M  V30 2160 H 193.491 -0.779911 -3.58208 0
M  V30 2161 H 193.139 1.34951 -4.84559 0
M  V30 2162 H 192.839 -0.0727433 -5.87555 0
M  V30 2163 H 194.363 0.843705 -6.04743 0
M  V30 2164 H 195.777 -1.376 -5.56542 0
M  V30 2165 H 194.174 -2.16659 -5.59624 0
M  V30 2166 H 195.244 -2.41518 -4.20473 0
M  V30 2167 N 196.587 1.43421 -0.653314 0
M  V30 2168 C 197.834 2.01812 -0.166745 0
M  V30 2169 C 198.162 1.51535 1.21931 0
M  V30 2170 O 197.417 0.698975 1.82792 0
M  V30 2171 C 197.716 3.57176 -0.126623 0
M  V30 2172 C 197.382 4.26798 -1.45444 0
M  V30 2173 C 196.044 4.45534 -1.81805 0
M  V30 2174 C 198.396 4.66225 -2.32989 0
M  V30 2175 C 195.724 5.00961 -3.05377 0
M  V30 2176 C 198.076 5.23021 -3.55853 0
M  V30 2177 C 196.74 5.39973 -3.9241 0
M  V30 2178 H 196.01 0.738484 -0.0610162 0
M  V30 2179 H 198.657 1.71896 -0.84404 0
M  V30 2180 H 196.962 3.86634 0.634123 0
M  V30 2181 H 198.659 4.00112 0.266723 0
M  V30 2182 H 195.249 4.12561 -1.16153 0
M  V30 2183 H 199.433 4.51443 -2.06187 0
M  V30 2184 H 194.689 5.12271 -3.3375 0
M  V30 2185 H 198.863 5.52518 -4.23907 0
M  V30 2186 H 196.49 5.82687 -4.88242 0
M  V30 2187 N 198.065 0.39524 1.52563 0
M  V30 2188 C 198.975 -0.444232 2.30356 0
M  V30 2189 C 199.991 -1.06615 1.37511 0
M  V30 2190 O 201.167 -1.07067 1.70583 0
M  V30 2191 C 198.232 -1.55315 3.09964 0
M  V30 2192 C 197.293 -0.955734 4.18526 0
M  V30 2193 C 196.526 -2.01181 4.9433 0
M  V30 2194 O 196.749 -3.22781 4.70285 0
M  V30 2195 O 195.683 -1.62579 5.79527 0
M  V30 2196 H 199.509 0.189667 3.03107 0
M  V30 2197 H 197.094 0.1588 1.48554 0
M  V30 2198 H 198.976 -2.19724 3.59582 0
M  V30 2199 H 197.651 -2.17191 2.4002 0
M  V30 2200 H 196.558 -0.274743 3.7309 0
M  V30 2201 H 197.891 -0.381109 4.90722 0
M  V30 2202 N 199.544 -1.57102 0.125237 0
M  V30 2203 C 200.491 -2.15641 -0.822655 0
M  V30 2204 C 201.461 -1.08313 -1.25927 0
M  V30 2205 O 202.646 -1.36251 -1.33567 0
M  V30 2206 C 199.786 -2.76504 -2.06494 0
M  V30 2207 C 198.899 -3.98158 -1.67612 0
M  V30 2208 C 198.034 -4.47088 -2.86854 0
M  V30 2209 C 197.073 -5.6126 -2.44242 0
M  V30 2210 N 196.21 -6.04905 -3.56419 0
M  V30 2211 H 201.05 -2.96313 -0.316625 0
M  V30 2212 H 198.587 -1.46388 -0.144588 0
M  V30 2213 H 200.545 -3.09925 -2.79289 0
M  V30 2214 H 199.175 -1.98512 -2.54545 0
M  V30 2215 H 198.227 -3.70858 -0.846661 0
M  V30 2216 H 199.539 -4.80934 -1.32301 0
M  V30 2217 H 198.693 -4.82451 -3.67867 0
M  V30 2218 H 197.432 -3.63275 -3.25396 0
M  V30 2219 H 196.437 -5.25495 -1.61663 0
M  V30 2220 H 197.662 -6.46843 -2.0681 0
M  V30 2221 H 195.608 -5.24032 -3.94623 0
M  V30 2222 H 195.525 -6.82552 -3.25051 0
M  V30 2223 H 196.793 -6.44907 -4.37853 0
M  V30 2224 N 201.022 0.148545 -1.56898 0
M  V30 2225 C 202.27 0.859717 -1.82902 0
M  V30 2226 C 202.591 1.81775 -0.70588 0
M  V30 2227 O 201.861 1.93994 0.272586 0
M  V30 2228 H 200.441 0.320469 -0.674766 0
M  V30 2229 H 203.103 0.142918 -1.94375 0
M  V30 2230 H 202.199 1.4229 -2.77777 0
M  V30 2231 N 202.5 1.5196 0.417844 0
M  V30 2232 C 203.41 1.77554 1.53336 0
M  V30 2233 C 204.426 0.660655 1.6097 0
M  V30 2234 O 205.602 0.945099 1.77848 0
M  V30 2235 C 202.667 1.91291 2.89152 0
M  V30 2236 C 201.728 3.15183 2.91475 0
M  V30 2237 C 200.961 3.28256 4.20813 0
M  V30 2238 O 201.184 2.46798 5.14244 0
M  V30 2239 O 200.118 4.21356 4.29817 0
M  V30 2240 H 203.944 2.7222 1.34647 0
M  V30 2241 H 201.529 1.36698 0.602828 0
M  V30 2242 H 203.411 2.02199 3.69721 0
M  V30 2243 H 202.086 0.998129 3.07927 0
M  V30 2244 H 200.993 3.09739 2.09791 0
M  V30 2245 H 202.326 4.06414 2.77648 0
M  V30 2246 N 203.978 -0.674533 1.42435 0
M  V30 2247 C 204.91 -1.80005 1.41883 0
M  V30 2248 C 205.923 -1.59667 0.31787 0
M  V30 2249 O 207.112 -1.68781 0.580973 0
M  V30 2250 C 204.212 -3.17114 1.19549 0
M  V30 2251 C 203.385 -3.64299 2.42084 0
M  V30 2252 C 202.444 -4.80142 2.15291 0
M  V30 2253 O 201.47 -4.90673 2.88493 0
M  V30 2254 N 202.672 -5.68869 1.1562 0
M  V30 2255 H 205.437 -1.80964 2.38898 0
M  V30 2256 H 202.998 -0.857633 1.37318 0
M  V30 2257 H 204.99 -3.92267 0.995417 0
M  V30 2258 H 203.56 -3.11053 0.310569 0
M  V30 2259 H 202.78 -2.79822 2.77657 0
M  V30 2260 H 204.068 -3.92567 3.23679 0
M  V30 2261 H 203.466 -5.63012 0.550765 0
M  V30 2262 H 202.023 -6.43833 1.016 0
M  V30 2263 N 205.456 -1.28612 -0.910864 0
M  V30 2264 C 206.386 -1.15326 -2.03032 0
M  V30 2265 C 207.367 -0.0502924 -1.70026 0
M  V30 2266 O 208.552 -0.227797 -1.92859 0
M  V30 2267 C 205.682 -0.817343 -3.37545 0
M  V30 2268 C 204.636 -1.8754 -3.84724 0
M  V30 2269 C 203.962 -1.39305 -5.16235 0
M  V30 2270 C 205.262 -3.28244 -4.06267 0
M  V30 2271 H 206.956 -2.08975 -2.14406 0
M  V30 2272 H 204.502 -1.00612 -1.03021 0
M  V30 2273 H 206.455 -0.711151 -4.15356 0
M  V30 2274 H 205.179 0.154846 -3.26233 0
M  V30 2275 H 203.838 -1.97079 -3.09121 0
M  V30 2276 H 203.486 -0.409846 -5.01328 0
M  V30 2277 H 203.186 -2.10057 -5.48771 0
M  V30 2278 H 204.71 -1.30014 -5.96598 0
M  V30 2279 H 206.124 -3.21611 -4.74594 0
M  V30 2280 H 204.521 -3.96855 -4.5014 0
M  V30 2281 H 205.591 -3.72048 -3.10979 0
M  V30 2282 N 206.934 1.1197 -1.10907 0
M  V30 2283 C 207.864 2.19928 -0.784473 0
M  V30 2284 C 208.845 1.6833 0.244726 0
M  V30 2285 O 210.03 1.93892 0.109418 0
M  V30 2286 C 207.16 3.46597 -0.220827 0
M  V30 2287 C 206.114 4.11376 -1.18127 0
M  V30 2288 C 205.44 5.32554 -0.478594 0
M  V30 2289 C 206.74 4.56945 -2.52979 0
M  V30 2290 H 208.434 2.47337 -1.68715 0
M  V30 2291 H 205.98 1.18879 -0.812642 0
M  V30 2292 H 207.933 4.21396 0.0184278 0
M  V30 2293 H 206.657 3.1863 0.717113 0
M  V30 2294 H 205.316 3.38564 -1.40606 0
M  V30 2295 H 204.964 5.00856 0.463976 0
M  V30 2296 H 204.664 5.76844 -1.11912 0
M  V30 2297 H 206.188 6.10096 -0.248 0
M  V30 2298 H 207.602 5.23093 -2.3462 0
M  V30 2299 H 205.999 5.1203 -3.12962 0
M  V30 2300 H 207.069 3.70676 -3.12614 0
M  V30 2301 N 208.412 0.89855 1.29475 0
M  V30 2302 C 209.66 0.522847 1.9522 0
M  V30 2303 C 209.981 -0.93371 1.71192 0
M  V30 2304 O 209.251 -1.65823 1.04305 0
M  V30 2305 H 207.831 0.190366 0.722336 0
M  V30 2306 H 210.493 1.14459 1.5775 0
M  V30 2307 H 209.589 0.704476 3.04045 0
M  V30 2308 N 209.89 -1.43072 0.660911 0
M  V30 2309 C 210.853 -2.29194 -0.0166406 0
M  V30 2310 C 211.853 -1.42609 -0.742912 0
M  V30 2311 O 213.043 -1.64155 -0.583004 0
M  V30 2312 C 210.175 -3.24831 -1.0343 0
M  V30 2313 H 211.368 -2.90596 0.741208 0
M  V30 2314 H 208.921 -1.5048 0.422532 0
M  V30 2315 H 209.656 -2.68339 -1.82111 0
M  V30 2316 H 209.441 -3.88676 -0.517082 0
M  V30 2317 H 210.931 -3.89451 -1.50723 0
M  V30 2318 N 211.368 -0.403325 -1.52352 0
M  V30 2319 C 212.616 0.174003 -2.0135 0
M  V30 2320 C 212.937 1.46139 -1.29106 0
M  V30 2321 O 212.207 1.91448 -0.415253 0
M  V30 2322 H 210.787 0.0672911 -0.743963 0
M  V30 2323 H 213.449 -0.538235 -1.87321 0
M  V30 2324 H 212.545 0.374254 -3.09848 0
M  V30 2325 N 212.846 1.57033 -0.133567 0
M  V30 2326 C 213.756 2.19632 0.824564 0
M  V30 2327 C 214.772 1.17666 1.28182 0
M  V30 2328 O 215.948 1.50193 1.3418 0
M  V30 2329 C 213.013 2.79499 2.05137 0
M  V30 2330 C 212.074 3.96548 1.64464 0
M  V30 2331 C 211.307 4.5355 2.81297 0
M  V30 2332 O 211.53 4.09438 3.97136 0
M  V30 2333 O 210.464 5.44018 2.57542 0
M  V30 2334 H 214.29 3.01991 0.321766 0
M  V30 2335 H 211.875 1.49112 0.0927889 0
M  V30 2336 H 213.757 3.17602 2.7696 0
M  V30 2337 H 212.432 2.00162 2.54395 0
M  V30 2338 H 211.339 3.63186 0.897048 0
M  V30 2339 H 212.672 4.77364 1.19934 0
M  V30 2340 N 214.325 -0.140222 1.56975 0
M  V30 2341 C 215.571 -0.852949 1.83991 0
M  V30 2342 C 215.904 -1.80512 0.716187 0
M  V30 2343 O 215.179 -1.92479 -0.279681 0
M  V30 2344 C 215.462 -1.6215 3.21527 0
M  V30 2345 C 215.315 -0.690363 4.4447 0
M  V30 2346 C 216.634 -2.58247 3.56366 0
M  V30 2347 H 213.753 -0.308634 0.669264 0
M  V30 2348 H 216.395 -0.117898 1.89634 0
M  V30 2349 H 214.545 -2.24812 3.16847 0
M  V30 2350 H 216.217 -0.0742264 4.6124 0
M  V30 2351 H 214.46 -0.000396433 4.338 0
M  V30 2352 H 215.131 -1.2643 5.37326 0
M  V30 2353 H 217.607 -2.05701 3.61699 0
M  V30 2354 H 216.483 -3.09067 4.53617 0
M  V30 2355 H 216.744 -3.39923 2.82674 0
M  V30 2356 N 215.803 -1.52179 -0.40978 0
M  V30 2357 C 217.05 -1.66206 -1.15679 0
M  V30 2358 C 217.378 -0.391674 -1.90516 0
M  V30 2359 O 216.633 0.62533 -1.8544 0
M  V30 2360 C 216.932 -2.83428 -2.17723 0
M  V30 2361 C 216.598 -4.21672 -1.59699 0
M  V30 2362 C 215.26 -4.59274 -1.43599 0
M  V30 2363 C 217.612 -5.07825 -1.17317 0
M  V30 2364 C 214.94 -5.80709 -0.836328 0
M  V30 2365 C 217.292 -6.29864 -0.587691 0
M  V30 2366 C 215.956 -6.66216 -0.413818 0
M  V30 2367 H 215.226 -0.608192 -0.423301 0
M  V30 2368 H 217.873 -1.86279 -0.444097 0
M  V30 2369 H 216.178 -2.57687 -2.95135 0
M  V30 2370 H 217.875 -2.91477 -2.75394 0
M  V30 2371 H 214.465 -3.9204 -1.73213 0
M  V30 2372 H 218.649 -4.79359 -1.28565 0
M  V30 2373 H 213.905 -6.07498 -0.689626 0
M  V30 2374 H 218.079 -6.95948 -0.250894 0
M  V30 2375 H 215.706 -7.60182 0.0529471 0
M  V30 2376 N 217.281 0.66697 -1.42791 0
M  V30 2377 C 218.244 1.76211 -1.46568 0
M  V30 2378 C 219.244 1.56896 -0.352196 0
M  V30 2379 O 220.434 1.63044 -0.613364 0
M  V30 2380 C 217.566 3.14935 -1.30494 0
M  V30 2381 H 218.759 1.74247 -2.44086 0
M  V30 2382 H 216.312 0.877342 -1.29354 0
M  V30 2383 H 217.047 3.2252 -0.339301 0
M  V30 2384 H 216.832 3.30359 -2.11199 0
M  V30 2385 H 218.322 3.94821 -1.36038 0
M  V30 2386 N 218.759 1.29093 0.90403 0
M  V30 2387 C 220.008 1.16187 1.64874 0
M  V30 2388 C 220.321 -0.286742 1.93487 0
M  V30 2389 O 221.527 -0.537062 2.66135 0
M  V30 2390 C 219.983 2.03177 2.97064 0
M  V30 2391 C 219.591 3.52836 2.76062 0
M  V30 2392 C 221.335 1.98984 3.74974 0
M  V30 2393 C 219.242 4.31945 4.03952 0
M  V30 2394 H 218.172 0.431246 0.618501 0
M  V30 2395 H 220.823 1.53699 1.00243 0
M  V30 2396 H 219.205 1.5853 3.62883 0
M  V30 2397 H 220.379 4.05507 2.18863 0
M  V30 2398 H 218.694 3.58656 2.11553 0
M  V30 2399 H 221.291 2.55351 4.69787 0
M  V30 2400 H 221.634 0.968815 4.0487 0
M  V30 2401 H 222.167 2.41652 3.15989 0
M  V30 2402 H 218.906 5.34667 3.79225 0
M  V30 2403 H 218.426 3.84045 4.60727 0
M  V30 2404 H 220.105 4.42379 4.72133 0
M  V30 2405 N 220.237 -1.11381 1.11499 0
M  V30 2406 C 221.485 -1.8277 0.862524 0
M  V30 2407 C 221.806 -1.85097 -0.613534 0
M  V30 2408 O 221.076 -1.32198 -1.4457 0
M  V30 2409 H 219.656 -0.676823 0.316101 0
M  V30 2410 H 222.318 -1.34816 1.4075 0
M  V30 2411 H 221.414 -2.86614 1.23527 0
M  V30 2412 N 221.715 -0.905404 -1.28997 0
M  V30 2413 C 223.126 -0.581953 -1.77398 0
M  V30 2414 C 223.477 0.902552 -1.74208 0
M  V30 2415 O 222.602 1.70584 -1.33154 0
M  V30 2416 C 223.197 -1.04961 -3.22131 0
M  V30 2417 C 221.756 -0.777229 -3.68288 0
M  V30 2418 C 220.903 -1.22109 -2.48967 0
M  V30 2419 H 223.854 -1.08754 -1.15578 0
M  V30 2420 H 223.875 -0.387387 -3.78523 0
M  V30 2421 H 223.387 -2.13008 -3.24421 0
M  V30 2422 H 221.488 0.290383 -3.71467 0
M  V30 2423 H 221.601 -1.37911 -4.58822 0
M  V30 2424 H 219.965 -0.639971 -2.46529 0
M  V30 2425 H 220.748 -2.30972 -2.53982 0
M  V30 2426 N 223.193 1.4272 -0.668489 0
M  V30 2427 C 224.123 2.335 -0.000100175 0
M  V30 2428 C 225.104 1.50328 0.795964 0
M  V30 2429 O 226.289 1.78949 0.754385 0
M  V30 2430 C 223.419 3.33874 0.956302 0
M  V30 2431 C 222.373 4.27152 0.269278 0
M  V30 2432 C 221.699 5.17684 1.33818 0
M  V30 2433 C 222.999 5.15373 -0.847805 0
M  V30 2434 H 224.693 2.89639 -0.758244 0
M  V30 2435 H 222.239 1.39269 -0.366079 0
M  V30 2436 H 224.192 3.9629 1.43292 0
M  V30 2437 H 222.916 2.76025 1.74579 0
M  V30 2438 H 221.575 3.66123 -0.187042 0
M  V30 2439 H 221.223 4.56165 2.1195 0
M  V30 2440 H 220.923 5.80918 0.883659 0
M  V30 2441 H 222.447 5.82974 1.81586 0
M  V30 2442 H 223.861 5.7151 -0.452681 0
M  V30 2443 H 222.258 5.87407 -1.22773 0
M  V30 2444 H 223.328 4.5415 -1.69929 0
M  V30 2445 N 224.671 0.411399 1.52136 0
M  V30 2446 C 225.603 -0.448386 2.24771 0
M  V30 2447 C 226.616 -1.00828 1.27818 0
M  V30 2448 O 227.805 -0.906841 1.53749 0
M  V30 2449 C 224.905 -1.63636 2.96777 0
M  V30 2450 C 224.078 -1.19995 4.20618 0
M  V30 2451 C 223.137 -2.25509 4.75428 0
M  V30 2452 O 222.163 -1.86007 5.3795 0
M  V30 2453 N 223.365 -3.577 4.57199 0
M  V30 2454 H 226.13 0.174025 2.99194 0
M  V30 2455 H 223.691 0.238897 1.60128 0
M  V30 2456 H 225.683 -2.33793 3.30338 0
M  V30 2457 H 224.253 -2.16465 2.25526 0
M  V30 2458 H 223.473 -0.326421 3.92846 0
M  V30 2459 H 224.761 -0.885365 5.01038 0
M  V30 2460 H 224.159 -3.92543 4.07341 0
M  V30 2461 H 222.716 -4.23827 4.95191 0
M  V30 2462 N 226.149 -1.5696 0.141893 0
M  V30 2463 C 227.079 -2.19516 -0.795936 0
M  V30 2464 C 228.06 -1.14187 -1.26077 0
M  V30 2465 O 229.245 -1.42511 -1.31925 0
M  V30 2466 C 226.375 -2.81272 -2.03723 0
M  V30 2467 C 225.329 -3.92384 -1.70936 0
M  V30 2468 C 224.655 -4.41052 -3.02287 0
M  V30 2469 C 225.955 -5.13403 -0.959954 0
M  V30 2470 H 227.649 -2.98138 -0.274596 0
M  V30 2471 H 225.195 -1.43406 -0.130636 0
M  V30 2472 H 227.148 -3.237 -2.69808 0
M  V30 2473 H 225.872 -1.99973 -2.58221 0
M  V30 2474 H 224.531 -3.50566 -1.07232 0
M  V30 2475 H 224.179 -3.56582 -3.54765 0
M  V30 2476 H 223.879 -5.15993 -2.81114 0
M  V30 2477 H 225.403 -4.86146 -3.69451 0
M  V30 2478 H 226.817 -5.52706 -1.52279 0
M  V30 2479 H 225.214 -5.94073 -0.848357 0
M  V30 2480 H 226.284 -4.84875 0.0492434 0
M  V30 2481 N 227.627 0.131896 -1.57047 0
M  V30 2482 C 228.857 0.855219 -1.88068 0
M  V30 2483 C 229.265 1.74557 -0.729817 0
M  V30 2484 O 228.608 1.81083 0.308962 0
M  V30 2485 C 228.67 1.75119 -3.13964 0
M  V30 2486 C 228.334 1.03646 -4.45091 0
M  V30 2487 C 229.331 0.383276 -5.18485 0
M  V30 2488 C 227.016 1.02148 -4.91804 0
M  V30 2489 C 229.01 -0.275347 -6.36805 0
M  V30 2490 C 226.697 0.359047 -6.10044 0
M  V30 2491 C 227.695 -0.288222 -6.82392 0
M  V30 2492 O 227.383 -0.94011 -7.98384 0
M  V30 2493 H 227.115 0.251864 -0.627328 0
M  V30 2494 H 229.669 0.124782 -2.05021 0
M  V30 2495 H 227.899 2.52295 -2.9306 0
M  V30 2496 H 229.588 2.3478 -3.31109 0
M  V30 2497 H 230.354 0.386562 -4.83457 0
M  V30 2498 H 226.233 1.5147 -4.35405 0
M  V30 2499 H 229.777 -0.781148 -6.93213 0
M  V30 2500 H 225.674 0.35348 -6.44531 0
M  V30 2501 H 226.442 -0.84329 -8.14144 0
M  V30 2502 N 229.106 1.52395 0.401703 0
M  V30 2503 C 230.069 1.75636 1.47257 0
M  V30 2504 C 231.069 0.62628 1.48103 0
M  V30 2505 O 232.259 0.894227 1.49497 0
M  V30 2506 C 229.391 1.84553 2.86624 0
M  V30 2507 H 230.584 2.71241 1.27938 0
M  V30 2508 H 228.137 1.42923 0.632662 0
M  V30 2509 H 228.872 0.908882 3.11303 0
M  V30 2510 H 228.657 2.66715 2.87412 0
M  V30 2511 H 230.147 2.04251 3.64241 0
M  V30 2512 N 230.584 -0.659388 1.43143 0
M  V30 2513 C 231.83 -1.42145 1.44647 0
M  V30 2514 C 232.163 -1.9408 0.0681907 0
M  V30 2515 O 231.438 -1.71899 -0.910007 0
M  V30 2516 C 231.721 -2.60735 2.48373 0
M  V30 2517 C 231.574 -2.14332 3.95451 0
M  V30 2518 C 232.893 -3.62951 2.48906 0
M  V30 2519 H 230.012 -0.51552 0.526696 0
M  V30 2520 H 232.654 -0.748069 1.74654 0
M  V30 2521 H 230.804 -3.18184 2.22916 0
M  V30 2522 H 232.476 -1.61932 4.31944 0
M  V30 2523 H 230.719 -1.4576 4.08578 0
M  V30 2524 H 231.39 -2.99583 4.63631 0
M  V30 2525 H 233.866 -3.1525 2.71582 0
M  V30 2526 H 232.742 -4.43487 3.23435 0
M  V30 2527 H 233.003 -4.15126 1.52061 0
M  V30 2528 N 232.062 -1.29571 -0.897171 0
M  V30 2529 C 233.29 -1.20583 -1.68129 0
M  V30 2530 C 233.705 0.233181 -1.87354 0
M  V30 2531 O 233.062 1.15579 -1.41236 0
M  V30 2532 C 233.113 -1.91772 -3.06441 0
M  V30 2533 O 232.834 -3.30053 -2.88091 0
M  V30 2534 C 234.335 -1.89291 -4.00854 0
M  V30 2535 H 231.555 -0.417826 -0.525036 0
M  V30 2536 H 234.099 -1.70987 -1.12177 0
M  V30 2537 H 232.254 -1.45196 -3.59161 0
M  V30 2538 H 232.668 -3.65942 -3.75748 0
M  V30 2539 H 234.142 -2.43662 -4.95311 0
M  V30 2540 H 234.619 -0.869014 -4.30517 0
M  V30 2541 H 235.225 -2.35622 -3.54066 0
M  V30 2542 N 233.54 1.10788 -1.12088 0
M  V30 2543 C 234.45 2.20599 -0.798338 0
M  V30 2544 C 235.466 1.72712 0.21135 0
M  V30 2545 O 236.642 2.01348 0.0458477 0
M  V30 2546 C 233.707 3.45771 -0.253674 0
M  V30 2547 C 232.768 4.08411 -1.32283 0
M  V30 2548 C 232.001 5.27608 -0.80406 0
M  V30 2549 O 232.224 5.69241 0.363478 0
M  V30 2550 O 231.158 5.8101 -1.57198 0
M  V30 2551 H 234.984 2.50614 -1.7154 0
M  V30 2552 H 232.569 1.19454 -0.897275 0
M  V30 2553 H 234.451 4.21376 0.0453691 0
M  V30 2554 H 233.126 3.1739 0.636005 0
M  V30 2555 H 232.033 3.34507 -1.67499 0
M  V30 2556 H 233.366 4.40986 -2.18614 0
M  V30 2557 N 235.018 0.912232 1.28515 0
M  V30 2558 C 235.95 0.35676 2.26406 0
M  V30 2559 C 236.963 -0.503933 1.54804 0
M  V30 2560 O 238.152 -0.319059 1.75625 0
M  V30 2561 C 235.252 -0.508825 3.35058 0
M  V30 2562 C 234.425 0.329007 4.36161 0
M  V30 2563 C 233.484 -0.471422 5.24084 0
M  V30 2564 O 232.51 0.115482 5.69083 0
M  V30 2565 N 233.712 -1.77479 5.52704 0
M  V30 2566 H 236.477 1.19818 2.74707 0
M  V30 2567 H 234.038 0.778022 1.4198 0
M  V30 2568 H 236.03 -1.051 3.90815 0
M  V30 2569 H 234.6 -1.25095 2.86478 0
M  V30 2570 H 233.82 1.05256 3.79888 0
M  V30 2571 H 235.108 0.90234 5.00735 0
M  V30 2572 H 234.506 -2.27417 5.17975 0
M  V30 2573 H 233.063 -2.26382 6.11224 0
M  V30 2574 N 236.496 -1.42363 0.676048 0
M  V30 2575 C 237.426 -2.33497 0.0124832 0
M  V30 2576 C 238.407 -1.50748 -0.787981 0
M  V30 2577 O 239.592 -1.79346 -0.744884 0
M  V30 2578 C 236.722 -3.34377 -0.938582 0
M  V30 2579 C 235.676 -4.27289 -0.246622 0
M  V30 2580 C 235.002 -5.18386 -1.31071 0
M  V30 2581 C 236.302 -5.14916 0.875125 0
M  V30 2582 H 237.996 -2.89233 0.773593 0
M  V30 2583 H 235.542 -1.39073 0.37346 0
M  V30 2584 H 237.495 -3.97044 -1.41188 0
M  V30 2585 H 236.219 -2.76947 -1.73113 0
M  V30 2586 H 234.878 -3.66018 0.206456 0
M  V30 2587 H 234.526 -4.57282 -2.09528 0
M  V30 2588 H 234.226 -5.81378 -0.852839 0
M  V30 2589 H 235.75 -5.83929 -1.78492 0
M  V30 2590 H 237.164 -5.71262 0.482983 0
M  V30 2591 H 235.561 -5.86747 1.25887 0
M  V30 2592 H 236.631 -4.53242 1.72335 0
M  V30 2593 N 237.974 -0.419461 -1.51915 0
M  V30 2594 C 238.906 0.43646 -2.25006 0
M  V30 2595 C 239.919 1.00149 -1.28351 0
M  V30 2596 O 241.108 0.898674 -1.54227 0
M  V30 2597 C 238.208 1.6206 -2.9764 0
M  V30 2598 C 237.381 1.17763 -4.21249 0
M  V30 2599 C 236.44 2.22985 -4.76617 0
M  V30 2600 O 235.466 1.83151 -5.38929 0
M  V30 2601 N 236.668 3.55271 -4.59089 0
M  V30 2602 H 239.433 -0.18989 -2.99098 0
M  V30 2603 H 236.994 -0.247386 -1.59999 0
M  V30 2604 H 238.986 2.32038 -3.31573 0
M  V30 2605 H 237.556 2.15266 -2.2667 0
M  V30 2606 H 236.776 0.305582 -3.93014 0
M  V30 2607 H 238.064 0.858781 -5.015 0
M  V30 2608 H 237.462 3.90377 -4.09417 0
M  V30 2609 H 236.019 4.21195 -4.97432 0
M  V30 2610 N 239.452 1.56882 -0.150215 0
M  V30 2611 C 240.384 2.14057 0.819286 0
M  V30 2612 C 241.397 1.09082 1.20851 0
M  V30 2613 O 242.586 1.36347 1.15203 0
M  V30 2614 C 239.686 2.65102 2.11127 0
M  V30 2615 C 238.859 3.94511 1.88891 0
M  V30 2616 C 237.918 4.30834 3.02107 0
M  V30 2617 O 236.944 4.99099 2.73659 0
M  V30 2618 N 238.146 3.90676 4.29363 0
M  V30 2619 H 240.911 2.97871 0.330618 0
M  V30 2620 H 238.472 1.61866 0.0332538 0
M  V30 2621 H 240.464 2.86411 2.85921 0
M  V30 2622 H 239.034 1.85994 2.51247 0
M  V30 2623 H 238.254 3.81795 0.981152 0
M  V30 2624 H 239.542 4.7907 1.71376 0
M  V30 2625 H 238.94 3.35677 4.55343 0
M  V30 2626 H 237.497 4.1703 5.00928 0
M  V30 2627 N 240.93 -0.123565 1.57115 0
M  V30 2628 C 242.178 -0.83051 1.84247 0
M  V30 2629 C 242.499 -1.80629 0.73471 0
M  V30 2630 O 241.769 -1.94403 -0.241688 0
M  V30 2631 H 240.349 -0.309694 0.679778 0
M  V30 2632 H 243.011 -0.111976 1.94578 0
M  V30 2633 H 242.107 -1.37852 2.80006 0
M  V30 2634 N 242.408 -1.52605 -0.393616 0
M  V30 2635 C 243.355 -1.77055 -1.48054 0
M  V30 2636 C 244.325 -0.61358 -1.54352 0
M  V30 2637 O 245.51 -0.852806 -1.70681 0
M  V30 2638 C 242.65 -1.94108 -2.85335 0
M  V30 2639 C 241.763 -3.21792 -2.88226 0
M  V30 2640 C 240.898 -3.29188 -4.16904 0
M  V30 2641 C 239.937 -4.51013 -4.13828 0
M  V30 2642 N 239.074 -4.55716 -5.34105 0
M  V30 2643 H 243.914 -2.69815 -1.26506 0
M  V30 2644 H 241.451 -1.33683 -0.61379 0
M  V30 2645 H 243.409 -2.01979 -3.65049 0
M  V30 2646 H 242.039 -1.04713 -3.05344 0
M  V30 2647 H 241.091 -3.23015 -2.00911 0
M  V30 2648 H 242.403 -4.11557 -2.8182 0
M  V30 2649 H 241.557 -3.36216 -5.05018 0
M  V30 2650 H 240.296 -2.37389 -4.26026 0
M  V30 2651 H 239.301 -4.44115 -3.24102 0
M  V30 2652 H 240.526 -5.44123 -4.06333 0
M  V30 2653 H 238.472 -3.66807 -5.43865 0
M  V30 2654 H 238.389 -5.39346 -5.29756 0
M  V30 2655 H 239.657 -4.66993 -6.2413 0
M  V30 2656 N 243.887 0.651787 -1.4349 0
M  V30 2657 C 245.298 1.233 -1.40193 0
M  V30 2658 C 245.649 1.9591 -0.106727 0
M  V30 2659 O 244.774 2.01316 0.793773 0
M  V30 2660 C 245.369 2.24257 -2.53957 0
M  V30 2661 C 243.928 2.77852 -2.5392 0
M  V30 2662 C 243.075 1.52517 -2.3159 0
M  V30 2663 H 246.026 0.443717 -1.52371 0
M  V30 2664 H 246.047 3.0646 -2.25528 0
M  V30 2665 H 245.559 1.71382 -3.4821 0
M  V30 2666 H 243.66 3.34786 -1.63551 0
M  V30 2667 H 243.773 3.25299 -3.51735 0
M  V30 2668 H 242.137 1.79915 -1.80285 0
M  V30 2669 H 242.92 1.01574 -3.27929 0
M  V30 2670 N 245.365 1.30045 0.890287 0
M  V30 2671 C 246.593 1.21472 1.67487 0
M  V30 2672 C 247.008 -0.223241 1.87476 0
M  V30 2673 O 246.365 -1.14828 1.41847 0
M  V30 2674 C 246.416 1.93394 3.05419 0
M  V30 2675 O 246.137 3.31576 2.86337 0
M  V30 2676 C 247.638 1.91414 3.99844 0
M  V30 2677 H 244.858 0.420604 0.522813 0
M  V30 2678 H 247.402 1.7158 1.11268 0
M  V30 2679 H 245.557 1.47099 3.58386 0
M  V30 2680 H 245.971 3.67929 3.73802 0
M  V30 2681 H 247.445 2.46285 4.94012 0
M  V30 2682 H 247.922 0.891833 4.3005 0
M  V30 2683 H 248.528 2.37496 3.52811 0
M  V30 2684 N 246.843 -1.10192 1.12674 0
M  V30 2685 C 248.083 -1.83825 0.893736 0
M  V30 2686 C 248.447 -1.83341 -0.570082 0
M  V30 2687 O 249.648 -2.52553 -0.920354 0
M  V30 2688 C 247.919 -3.26405 1.45582 0
M  V30 2689 S 249.478 -4.17136 1.36171 0
M  V30 2690 H 246.296 -0.633732 0.322342 0
M  V30 2691 H 248.898 -1.32581 1.43675 0
M  V30 2692 H 247.602 -3.24329 2.51473 0
M  V30 2693 H 247.133 -3.82721 0.910405 0
M  V30 2694 H 249.148 -4.95069 0.334863 0
M  V30 2695 N 248.321 -0.919034 -1.28029 0
M  V30 2696 C 249.284 -0.416182 -2.2539 0
M  V30 2697 C 250.284 0.460438 -1.54067 0
M  V30 2698 O 251.474 0.262744 -1.72207 0
M  V30 2699 C 248.606 0.402707 -3.38513 0
M  V30 2700 H 249.799 -1.27629 -2.71387 0
M  V30 2701 H 247.352 -0.698919 -1.39803 0
M  V30 2702 H 248.087 1.282 -2.97885 0
M  V30 2703 H 247.872 -0.225698 -3.9145 0
M  V30 2704 H 249.362 0.745191 -4.10897 0
M  V30 2705 N 249.799 1.42003 -0.683588 0
M  V30 2706 C 251.024 2.06265 -0.216647 0
M  V30 2707 C 251.449 1.51059 1.12083 0
M  V30 2708 O 250.807 0.632638 1.69904 0
M  V30 2709 C 250.855 3.60191 -0.171759 0
M  V30 2710 O 249.959 4.03396 0.857069 0
M  V30 2711 H 249.3 0.65502 -0.108834 0
M  V30 2712 H 251.83 1.81982 -0.935077 0
M  V30 2713 H 251.84 4.08 0.0014303 0
M  V30 2714 H 250.515 3.99743 -1.14796 0
M  V30 2715 H 249.092 3.67117 0.654208 0
M  V30 2716 N 251.277 0.427512 1.51691 0
M  V30 2717 C 252.525 -0.141948 2.01601 0
M  V30 2718 C 252.846 -1.44067 1.31414 0
M  V30 2719 O 252.116 -1.90763 0.445658 0
M  V30 2720 H 250.696 -0.0554468 0.744939 0
M  V30 2721 H 253.358 0.567968 1.86441 0
M  V30 2722 H 252.454 -0.324913 3.10404 0
M  V30 2723 N 252.755 -1.56801 0.158532 0
M  V30 2724 C 254.032 -1.88131 -0.535357 0
M  V30 2725 C 254.412 -1.06638 -1.82186 0
M  V30 2726 O 253.76 -0.156533 -2.27963 0
M  V30 2727 C 253.97 -3.39949 -0.789653 0
M  V30 2728 C 255.318 -4.09416 -1.12533 0
M  V30 2729 O 256.342 -3.45194 -0.878622 0
M  V30 2730 O 255.201 -5.22855 -1.59014 0
M  V30 2731 H 252.295 -0.780143 -0.27442 0
M  V30 2732 H 254.841 -1.68564 0.19601 0
M  V30 2733 H 253.613 -3.91115 0.120353 0
M  V30 2734 H 253.236 -3.65084 -1.57479 0
M  V30 2735 N 254.233 0.115231 -1.57178 0
M  V30 2736 C 255.196 1.12526 -1.99676 0
M  V30 2737 C 256.196 1.34095 -0.88742 0
M  V30 2738 O 257.386 1.30548 -1.15337 0
M  V30 2739 C 254.518 2.4789 -2.34015 0
M  V30 2740 H 255.711 0.759912 -2.90113 0
M  V30 2741 H 253.264 0.359648 -1.52106 0
M  V30 2742 H 253.999 2.89339 -1.4647 0
M  V30 2743 H 253.784 2.33588 -3.14927 0
M  V30 2744 H 255.274 3.20575 -2.67622 0
M  V30 2745 N 255.711 1.52812 0.385517 0
M  V30 2746 C 256.658 1.77838 1.47113 0
M  V30 2747 C 257.628 0.621757 1.54024 0
M  V30 2748 O 258.813 0.861846 1.70226 0
M  V30 2749 C 255.953 1.95618 2.84302 0
M  V30 2750 C 255.066 3.23316 2.86515 0
M  V30 2751 C 254.201 3.31394 4.15152 0
M  V30 2752 C 253.24 4.53201 4.1143 0
M  V30 2753 N 252.377 4.58542 5.3168 0
M  V30 2754 H 257.217 2.70482 1.25073 0
M  V30 2755 H 254.754 1.34006 0.606692 0
M  V30 2756 H 256.712 2.03912 3.63972 0
M  V30 2757 H 255.342 1.06331 3.04784 0
M  V30 2758 H 254.394 3.24076 1.99195 0
M  V30 2759 H 255.706 4.13045 2.79634 0
M  V30 2760 H 254.86 3.3889 5.03228 0
M  V30 2761 H 253.599 2.39645 4.24761 0
M  V30 2762 H 252.604 4.45827 3.21742 0
M  V30 2763 H 253.829 5.46271 4.03442 0
M  V30 2764 H 251.775 3.69686 5.41912 0
M  V30 2765 H 251.692 5.42148 5.26889 0
M  V30 2766 H 252.96 4.70296 6.21644 0
M  V30 2767 N 257.189 -0.644168 1.43834 0
M  V30 2768 C 258.417 -1.43147 1.49387 0
M  V30 2769 C 258.832 -1.88452 0.114583 0
M  V30 2770 O 258.189 -1.60047 -0.876989 0
M  V30 2771 C 258.24 -2.66046 2.44748 0
M  V30 2772 O 257.961 -2.22633 3.77314 0
M  V30 2773 C 259.462 -3.59311 2.59635 0
M  V30 2774 H 256.682 -0.439447 0.507077 0
M  V30 2775 H 259.226 -0.78895 1.88669 0
M  V30 2776 H 257.381 -3.26418 2.08638 0
M  V30 2777 H 257.795 -3.02216 4.28679 0
M  V30 2778 H 259.269 -4.42187 3.30416 0
M  V30 2779 H 259.746 -4.07259 1.64427 0
M  V30 2780 H 260.352 -3.04816 2.96593 0
M  V30 2781 N 258.668 -1.30515 -0.883378 0
M  V30 2782 C 259.945 -1.10086 -1.6168 0
M  V30 2783 C 260.325 0.349269 -2.08191 0
M  V30 2784 O 259.673 1.34105 -1.85008 0
M  V30 2785 C 259.883 -2.10315 -2.78511 0
M  V30 2786 C 261.231 -2.42119 -3.48803 0
M  V30 2787 O 262.255 -2.08638 -2.88702 0
M  V30 2788 O 261.114 -2.99396 -4.57192 0
M  V30 2789 H 258.208 -0.422907 -0.710689 0
M  V30 2790 H 260.754 -1.41947 -0.930015 0
M  V30 2791 H 259.526 -3.07917 -2.41459 0
M  V30 2792 H 259.149 -1.79282 -3.54886 0
M  V30 2793 N 260.146 1.09593 -1.13257 0
M  V30 2794 C 261.076 2.18214 -0.830946 0
M  V30 2795 C 262.057 1.68812 0.208966 0
M  V30 2796 O 263.242 1.9408 0.0682666 0
M  V30 2797 C 260.372 3.46051 -0.294296 0
M  V30 2798 C 259.326 4.08778 -1.26826 0
M  V30 2799 C 258.652 5.31419 -0.591449 0
M  V30 2800 C 259.952 4.51476 -2.62615 0
M  V30 2801 H 261.646 2.43703 -1.73923 0
M  V30 2802 H 259.192 1.17128 -0.837675 0
M  V30 2803 H 261.145 4.2134 -0.0709606 0
M  V30 2804 H 259.869 3.20079 0.649366 0
M  V30 2805 H 258.528 3.35505 -1.47756 0
M  V30 2806 H 258.176 5.01727 0.357633 0
M  V30 2807 H 257.876 5.74341 -1.24123 0
M  V30 2808 H 259.4 6.09433 -0.377355 0
M  V30 2809 H 260.814 5.17999 -2.45663 0
M  V30 2810 H 259.211 5.05277 -3.23752 0
M  V30 2811 H 260.281 3.63962 -3.20406 0
M  V30 2812 N 261.624 0.925811 1.2754 0
M  V30 2813 C 262.872 0.564138 1.94067 0
M  V30 2814 C 263.193 -0.897188 1.73134 0
M  V30 2815 O 262.463 -1.63573 1.07799 0
M  V30 2816 H 261.043 0.205645 0.718136 0
M  V30 2817 H 263.705 1.1778 1.55287 0
M  V30 2818 H 262.801 0.76881 3.02483 0
M  V30 2819 N 263.102 -1.41638 0.69111 0
M  V30 2820 C 264.052 -2.28 -0.000107832 0
M  V30 2821 C 265.036 -1.41964 -0.757304 0
M  V30 2822 O 266.228 -1.65274 -0.633532 0
M  V30 2823 C 263.357 -3.30209 -0.938983 0
M  V30 2824 C 262.443 -4.23725 -0.17827 0
M  V30 2825 N 262.834 -4.99017 0.825563 0
M  V30 2826 C 261.132 -4.44071 -0.414392 0
M  V30 2827 C 261.833 -5.67431 1.28052 0
M  V30 2828 N 260.809 -5.40197 0.607304 0
M  V30 2829 H 264.611 -2.83644 0.769617 0
M  V30 2830 H 262.125 -1.53797 0.521562 0
M  V30 2831 H 264.122 -3.90898 -1.44929 0
M  V30 2832 H 262.782 -2.76126 -1.70836 0
M  V30 2833 H 263.793 -5.03671 1.20566 0
M  V30 2834 H 260.47 -4.01004 -1.162 0
M  V30 2835 H 261.86 -6.37801 2.11327 0
M  V30 2836 N 264.58 -0.43555 -1.51462 0
M  V30 2837 C 265.829 0.133007 -2.01261 0
M  V30 2838 C 266.142 1.43942 -1.32439 0
M  V30 2839 O 267.348 2.09081 -1.73198 0
M  V30 2840 C 265.804 0.287581 -3.58749 0
M  V30 2841 C 265.412 -1.00829 -4.36506 0
M  V30 2842 C 267.156 0.810004 -4.167 0
M  V30 2843 C 265.063 -0.819454 -5.85695 0
M  V30 2844 H 263.993 0.0534822 -0.752101 0
M  V30 2845 H 266.644 -0.565038 -1.74584 0
M  V30 2846 H 265.026 1.04859 -3.81865 0
M  V30 2847 H 266.2 -1.77749 -4.25138 0
M  V30 2848 H 264.515 -1.45911 -3.89999 0
M  V30 2849 H 267.112 0.967743 -5.2587 0
M  V30 2850 H 267.455 1.79196 -3.75758 0
M  V30 2851 H 267.988 0.107357 -3.97655 0
M  V30 2852 H 264.727 -1.77374 -6.31046 0
M  V30 2853 H 264.247 -0.0900208 -5.99732 0
M  V30 2854 H 265.926 -0.471949 -6.45276 0
M  V30 2855 N 266.058 1.56714 -0.166846 0
M  V30 2856 C 266.988 2.20754 0.760913 0
M  V30 2857 C 267.969 1.16178 1.24244 0
M  V30 2858 O 269.154 1.44592 1.29641 0
M  V30 2859 C 266.284 2.84478 1.99223 0
M  V30 2860 C 265.238 3.95053 1.64672 0
M  V30 2861 C 264.564 4.45805 2.95232 0
M  V30 2862 C 265.864 5.14865 0.878155 0
M  V30 2863 H 267.558 2.98537 0.22713 0
M  V30 2864 H 265.104 1.43596 0.107805 0
M  V30 2865 H 267.057 3.27951 2.64624 0
M  V30 2866 H 265.781 2.04056 2.55007 0
M  V30 2867 H 264.44 3.52228 1.01641 0
M  V30 2868 H 264.088 3.62181 3.49047 0
M  V30 2869 H 263.788 5.204 2.7287 0
M  V30 2870 H 265.312 4.91962 3.6167 0
M  V30 2871 H 266.726 5.55059 1.43466 0
M  V30 2872 H 265.123 5.95348 0.753738 0
M  V30 2873 H 266.193 4.84735 -0.126377 0
M  V30 2874 N 267.536 -0.106894 1.57237 0
M  V30 2875 C 268.813 -0.843526 1.76477 0
M  V30 2876 C 269.193 -1.97499 0.745464 0
M  V30 2877 O 268.541 -2.27357 -0.228306 0
M  V30 2878 C 268.751 -1.34903 3.21873 0
M  V30 2879 C 270.099 -1.79654 3.8472 0
M  V30 2880 O 271.123 -1.44554 3.2555 0
M  V30 2881 O 269.982 -2.44515 4.88748 0
M  V30 2882 H 267.076 -0.401468 0.723016 0
M  V30 2883 H 269.622 -0.0896927 1.69463 0
M  V30 2884 H 268.394 -0.53781 3.87586 0
M  V30 2885 H 268.017 -2.16522 3.33473 0
M  V30 2886 N 269.014 -1.53014 -0.377408 0
M  V30 2887 C 270.261 -1.68623 -1.12128 0
M  V30 2888 C 270.589 -0.431997 -1.89642 0
M  V30 2889 O 269.844 0.585855 -1.86725 0
M  V30 2890 C 270.143 -2.87982 -2.11663 0
M  V30 2891 C 269.809 -4.24964 -1.50719 0
M  V30 2892 C 268.471 -4.62217 -1.33825 0
M  V30 2893 C 270.823 -5.10199 -1.06519 0
M  V30 2894 C 268.151 -5.82352 -0.712963 0
M  V30 2895 C 270.503 -6.30969 -0.453955 0
M  V30 2896 C 269.167 -6.66944 -0.272411 0
M  V30 2897 H 268.437 -0.617034 -0.410305 0
M  V30 2898 H 271.084 -1.8718 -0.404484 0
M  V30 2899 H 269.389 -2.63889 -2.89603 0
M  V30 2900 H 271.086 -2.97253 -2.6915 0
M  V30 2901 H 267.676 -3.95626 -1.64858 0
M  V30 2902 H 271.86 -4.81978 -1.18368 0
M  V30 2903 H 267.116 -6.08824 -0.560611 0
M  V30 2904 H 271.29 -6.96324 -0.103217 0
M  V30 2905 H 268.917 -7.59898 0.214181 0
M  V30 2906 N 270.492 0.636531 -1.44174 0
M  V30 2907 C 271.72 1.42353 -1.50144 0
M  V30 2908 C 272.135 1.88389 -0.124575 0
M  V30 2909 O 271.492 1.6051 0.868489 0
M  V30 2910 C 271.543 2.64744 -2.46156 0
M  V30 2911 O 271.264 2.20629 -3.7849 0
M  V30 2912 C 272.765 3.57929 -2.61537 0
M  V30 2913 H 269.985 0.436752 -0.5094 0
M  V30 2914 H 272.529 0.778933 -1.89084 0
M  V30 2915 H 270.684 3.25307 -2.10366 0
M  V30 2916 H 271.098 2.99938 -4.30276 0
M  V30 2917 H 272.572 4.40428 -3.32757 0
M  V30 2918 H 273.049 4.06382 -1.66585 0
M  V30 2919 H 273.655 3.03238 -2.98206 0
M  V30 2920 N 271.97 1.30982 0.876444 0
M  V30 2921 C 273.21 1.21589 1.64303 0
M  V30 2922 C 273.574 -0.223962 1.90689 0
M  V30 2923 O 274.775 -0.44128 2.65153 0
M  V30 2924 C 273.046 2.03007 2.94148 0
M  V30 2925 S 274.605 2.10405 3.85065 0
M  V30 2926 H 271.423 0.433161 0.563819 0
M  V30 2927 H 274.025 1.65565 1.03964 0
M  V30 2928 H 272.729 3.06719 2.72675 0
M  V30 2929 H 272.26 1.59725 3.59515 0
M  V30 2930 H 274.275 1.23765 4.80517 0
M  V30 2931 N 273.449 -1.08991 1.13837 0
M  V30 2932 C 274.865 -1.33312 0.877506 0
M  V30 2933 C 275.065 -1.95587 -0.48456 0
M  V30 2934 O 274.121 -2.20509 -1.23013 0
M  V30 2935 C 275.434 -2.24045 2.0056 0
M  V30 2936 C 276.982 -2.37542 2.03821 0
M  V30 2937 C 277.457 -3.31614 3.15905 0
M  V30 2938 N 278.948 -3.39189 3.15445 0
M  V30 2939 C 279.683 -4.11992 3.98811 0
M  V30 2940 N 279.179 -4.87553 4.92203 0
M  V30 2941 N 280.972 -4.07762 3.86894 0
M  V30 2942 H 273.123 -0.669456 2.01574 0
M  V30 2943 H 275.386 -0.357482 0.878015 0
M  V30 2944 H 275.092 -1.85521 2.98789 0
M  V30 2945 H 274.966 -3.24466 1.92359 0
M  V30 2946 H 277.353 -2.75327 1.06202 0
M  V30 2947 H 277.434 -1.36884 2.16093 0
M  V30 2948 H 277.078 -2.94551 4.13766 0
M  V30 2949 H 277.008 -4.32186 3.0087 0
M  V30 2950 H 279.499 -2.85314 2.47799 0
M  V30 2951 H 279.812 -5.40549 5.52292 0
M  V30 2952 H 278.157 -4.86627 4.96205 0
M  V30 2953 H 281.348 -3.47833 3.13257 0
M  V30 2954 H 281.521 -4.64238 4.52092 0
M  V30 2955 N 274.927 -0.932562 -1.27047 0
M  V30 2956 C 275.857 -0.452902 -2.29066 0
M  V30 2957 C 276.838 0.489338 -1.62909 0
M  V30 2958 O 278.023 0.393046 -1.90181 0
M  V30 2959 C 275.153 0.290698 -3.46081 0
M  V30 2960 C 274.107 -0.564168 -4.24265 0
M  V30 2961 C 273.433 0.308886 -5.33807 0
M  V30 2962 C 274.733 -1.83112 -4.89149 0
M  V30 2963 H 276.427 -1.30552 -2.69437 0
M  V30 2964 H 273.973 -0.629201 -1.29526 0
M  V30 2965 H 275.926 0.637233 -4.16554 0
M  V30 2966 H 274.65 1.17738 -3.0464 0
M  V30 2967 H 273.309 -0.893477 -3.55545 0
M  V30 2968 H 272.957 1.19467 -4.88607 0
M  V30 2969 H 272.657 -0.259633 -5.87026 0
M  V30 2970 H 274.181 0.650884 -6.07121 0
M  V30 2971 H 275.595 -1.55236 -5.51883 0
M  V30 2972 H 273.992 -2.34353 -5.52448 0
M  V30 2973 H 275.062 -2.54772 -4.12576 0
M  V30 2974 N 276.405 1.4127 -0.698611 0
M  V30 2975 C 277.352 2.30773 -0.0352094 0
M  V30 2976 C 278.322 1.47273 0.768111 0
M  V30 2977 O 279.507 1.76053 0.735524 0
M  V30 2978 C 276.647 3.33346 0.893 0
M  V30 2979 C 275.76 4.31924 0.0809695 0
M  V30 2980 C 274.895 5.21566 1.0071 0
M  V30 2981 C 273.934 6.11811 0.188155 0
M  V30 2982 N 273.071 6.93926 1.06825 0
M  V30 2983 H 277.911 2.86943 -0.804207 0
M  V30 2984 H 275.448 1.4132 -0.408294 0
M  V30 2985 H 277.406 3.91368 1.44523 0
M  V30 2986 H 276.036 2.78719 1.62836 0
M  V30 2987 H 275.088 3.75825 -0.588224 0
M  V30 2988 H 276.4 4.95716 -0.553801 0
M  V30 2989 H 275.554 5.84437 1.62845 0
M  V30 2990 H 274.293 4.58008 1.67572 0
M  V30 2991 H 273.298 5.47986 -0.446254 0
M  V30 2992 H 274.523 6.77425 -0.476716 0
M  V30 2993 H 272.469 6.32973 1.72283 0
M  V30 2994 H 272.386 7.54416 0.489123 0
M  V30 2995 H 273.654 7.61262 1.67632 0
M  V30 2996 N 277.883 0.443576 1.51229 0
M  V30 2997 C 279.113 -0.119117 2.06256 0
M  V30 2998 C 279.521 -1.36471 1.31043 0
M  V30 2999 O 278.864 -1.80034 0.365151 0
M  V30 3000 C 278.926 -0.500546 3.55998 0
M  V30 3001 C 278.59 0.639125 4.52509 0
M  V30 3002 C 279.587 1.51311 4.97394 0
M  V30 3003 C 277.272 0.821632 4.95535 0
M  V30 3004 C 279.266 2.55425 5.83984 0
M  V30 3005 C 276.953 1.86603 5.81913 0
M  V30 3006 C 277.951 2.73072 6.26036 0
M  V30 3007 O 277.639 3.75718 7.10698 0
M  V30 3008 H 277.371 -0.00857665 0.675946 0
M  V30 3009 H 279.925 0.623288 1.95715 0
M  V30 3010 H 278.155 -1.29575 3.64345 0
M  V30 3011 H 279.844 -0.995116 3.93513 0
M  V30 3012 H 280.61 1.38367 4.64844 0
M  V30 3013 H 276.489 0.158149 4.60729 0
M  V30 3014 H 280.033 3.22949 6.18344 0
M  V30 3015 H 275.93 1.99564 6.13876 0
M  V30 3016 H 276.698 3.72374 7.2889 0
M  V30 3017 N 279.361 -1.56624 0.175154 0
M  V30 3018 C 280.291 -2.21155 -0.749195 0
M  V30 3019 C 281.272 -1.16836 -1.23626 0
M  V30 3020 O 282.457 -1.45277 -1.28873 0
M  V30 3021 C 279.587 -2.8553 -1.97711 0
M  V30 3022 C 278.541 -3.95921 -1.62575 0
M  V30 3023 C 277.867 -4.47365 -2.92864 0
M  V30 3024 C 279.167 -5.15323 -0.850838 0
M  V30 3025 H 280.861 -2.98653 -0.211295 0
M  V30 3026 H 278.407 -1.43651 -0.100188 0
M  V30 3027 H 280.36 -3.2935 -2.62881 0
M  V30 3028 H 279.084 -2.05406 -2.53921 0
M  V30 3029 H 277.743 -3.52762 -0.997719 0
M  V30 3030 H 277.391 -3.64027 -3.47122 0
M  V30 3031 H 277.091 -5.21839 -2.70106 0
M  V30 3032 H 278.615 -4.93873 -3.59056 0
M  V30 3033 H 280.029 -5.55812 -1.40521 0
M  V30 3034 H 278.426 -5.95739 -0.722154 0
M  V30 3035 H 279.496 -4.84661 0.152082 0
M  V30 3036 N 280.839 0.0985539 -1.57292 0
M  V30 3037 C 281.786 1.11981 -2.01814 0
M  V30 3038 C 282.756 1.39999 -0.89384 0
M  V30 3039 O 283.941 1.5152 -1.15958 0
M  V30 3040 C 281.081 2.43577 -2.44467 0
M  V30 3041 C 280.194 2.2232 -3.70402 0
M  V30 3042 C 279.329 3.4729 -4.01949 0
M  V30 3043 C 278.368 3.2128 -5.21005 0
M  V30 3044 N 277.505 4.38507 -5.48321 0
M  V30 3045 H 282.345 0.733149 -2.88841 0
M  V30 3046 H 279.882 0.350482 -1.42864 0
M  V30 3047 H 281.84 3.20373 -2.6724 0
M  V30 3048 H 280.47 2.80097 -1.60455 0
M  V30 3049 H 279.522 1.36343 -3.55126 0
M  V30 3050 H 280.834 1.99089 -4.57345 0
M  V30 3051 H 279.988 4.32495 -4.25479 0
M  V30 3052 H 278.727 3.73572 -3.13521 0
M  V30 3053 H 277.732 2.34468 -4.97298 0
M  V30 3054 H 278.957 2.96348 -6.11028 0
M  V30 3055 H 276.903 4.64871 -4.62851 0
M  V30 3056 H 276.82 4.18455 -6.29628 0
M  V30 3057 H 278.088 5.24787 -5.76385 0
M  V30 3058 N 282.317 1.53212 0.369288 0
M  V30 3059 C 283.563 1.69466 1.11397 0
M  V30 3060 C 283.896 0.443257 1.89074 0
M  V30 3061 O 283.171 -0.559386 1.86282 0
M  V30 3062 C 283.454 2.9422 2.07621 0
M  V30 3063 C 283.307 4.29508 1.33577 0
M  V30 3064 C 284.626 3.14565 3.07794 0
M  V30 3065 H 281.745 0.616667 0.403597 0
M  V30 3066 H 284.387 1.85845 0.395179 0
M  V30 3067 H 282.537 2.80387 2.68916 0
M  V30 3068 H 284.209 4.55147 0.750955 0
M  V30 3069 H 282.452 4.29088 0.637618 0
M  V30 3070 H 283.123 5.12926 2.03989 0
M  V30 3071 H 285.599 3.2756 2.56601 0
M  V30 3072 H 284.475 4.03297 3.72348 0
M  V30 3073 H 284.736 2.29675 3.77759 0
M  V30 3074 N 283.795 -0.628877 1.44509 0
M  V30 3075 C 285.02 -1.42048 1.5112 0
M  V30 3076 C 285.445 -1.87594 0.137818 0
M  V30 3077 O 284.803 -1.58873 -0.873437 0
M  V30 3078 C 284.851 -2.61541 2.48251 0
M  V30 3079 O 283.955 -3.61453 1.98559 0
M  V30 3080 H 283.296 -0.424942 0.510216 0
M  V30 3081 H 285.826 -0.767374 1.89664 0
M  V30 3082 H 285.836 -3.09057 2.66361 0
M  V30 3083 H 284.511 -2.27736 3.48007 0
M  V30 3084 H 283.088 -3.20731 1.90227 0
M  V30 3085 N 285.273 -1.31445 -0.869486 0
M  V30 3086 C 286.521 -1.20918 -1.61936 0
M  V30 3087 C 286.842 0.232683 -1.93607 0
M  V30 3088 O 286.112 1.15352 -1.58338 0
M  V30 3089 H 284.692 -0.44454 -0.600328 0
M  V30 3090 H 287.354 -1.64776 -1.0409 0
M  V30 3091 H 286.45 -1.78124 -2.56278 0
M  V30 3092 N 286.751 1.08385 -1.14413 0
M  V30 3093 C 287.979 1.84517 -0.936001 0
M  V30 3094 C 288.394 1.81626 0.515503 0
M  V30 3095 O 287.751 1.22008 1.35721 0
M  V30 3096 C 287.802 3.32049 -1.42918 0
M  V30 3097 O 287.523 3.34951 -2.82381 0
M  V30 3098 C 289.024 4.24986 -1.26103 0
M  V30 3099 H 286.244 0.582491 -0.333084 0
M  V30 3100 H 288.788 1.36885 -1.5193 0
M  V30 3101 H 286.943 3.7707 -0.888641 0
M  V30 3102 H 287.357 4.27048 -3.04517 0
M  V30 3103 H 288.831 5.26615 -1.6547 0
M  V30 3104 H 289.308 4.38726 -0.20392 0
M  V30 3105 H 289.914 3.85791 -1.79012 0
M  V30 3106 N 288.23 0.939286 1.26551 0
M  V30 3107 C 289.14 0.453432 2.30176 0
M  V30 3108 C 290.156 -0.471649 1.67486 0
M  V30 3109 O 291.332 -0.35164 1.98306 0
M  V30 3110 C 288.397 -0.275326 3.45605 0
M  V30 3111 C 287.458 0.686084 4.23782 0
M  V30 3112 C 286.691 -0.00798994 5.33699 0
M  V30 3113 O 286.914 -1.22528 5.57085 0
M  V30 3114 O 285.848 0.669746 5.98162 0
M  V30 3115 H 289.674 1.31416 2.73795 0
M  V30 3116 H 287.259 0.705095 1.31715 0
M  V30 3117 H 289.141 -0.685911 4.1578 0
M  V30 3118 H 287.816 -1.11147 3.0402 0
M  V30 3119 H 286.723 1.14658 3.56096 0
M  V30 3120 H 288.056 1.48979 4.69112 0
M  V30 3121 N 289.708 -1.40897 0.706093 0
M  V30 3122 C 290.956 -2.00657 0.241054 0
M  V30 3123 C 291.277 -1.56241 -1.16678 0
M  V30 3124 O 290.547 -0.79765 -1.78926 0
M  V30 3125 H 289.127 -0.742018 0.0861308 0
M  V30 3126 H 291.789 -1.72372 0.909604 0
M  V30 3127 H 290.885 -3.10958 0.266705 0
M  V30 3128 N 291.186 -0.45159 -1.50991 0
M  V30 3129 C 292.597 0.00818571 -1.86698 0
M  V30 3130 C 292.948 1.40661 -1.3678 0
M  V30 3131 O 292.073 2.0391 -0.724546 0
M  V30 3132 C 292.668 0.0216303 -3.38793 0
M  V30 3133 C 291.227 0.425865 -3.73983 0
M  V30 3134 C 290.374 -0.372163 -2.74791 0
M  V30 3135 H 293.325 -0.666785 -1.44013 0
M  V30 3136 H 293.346 0.828078 -3.7138 0
M  V30 3137 H 292.858 -0.996288 -3.75094 0
M  V30 3138 H 290.959 1.44886 -3.43277 0
M  V30 3139 H 291.072 0.140761 -4.78893 0
M  V30 3140 H 289.436 0.171498 -2.54122 0
M  V30 3141 H 290.219 -1.38922 -3.13935 0
M  V30 3142 N 292.664 1.56529 -0.183458 0
M  V30 3143 C 293.911 1.97244 0.458357 0
M  V30 3144 C 294.239 1.06992 1.62428 0
M  V30 3145 O 293.494 0.106542 1.9541 0
M  V30 3146 C 293.793 3.43939 0.971637 0
M  V30 3147 C 293.459 4.5083 -0.0796784 0
M  V30 3148 C 292.121 4.79786 -0.368584 0
M  V30 3149 C 294.473 5.15138 -0.792638 0
M  V30 3150 C 291.801 5.70345 -1.37563 0
M  V30 3151 C 294.153 6.06784 -1.78875 0
M  V30 3152 C 292.817 6.34102 -2.08497 0
M  V30 3153 H 292.087 0.721768 0.167725 0
M  V30 3154 H 294.734 1.89472 -0.277976 0
M  V30 3155 H 293.039 3.48724 1.78602 0
M  V30 3156 H 294.736 3.72791 1.47744 0
M  V30 3157 H 291.326 4.28317 0.155668 0
M  V30 3158 H 295.51 4.92868 -0.582659 0
M  V30 3159 H 290.766 5.89789 -1.61118 0
M  V30 3160 H 294.94 6.55677 -2.3465 0
M  V30 3161 H 292.567 7.04074 -2.86678 0
M  V30 3162 N 294.142 -0.090211 1.57342 0
M  V30 3163 C 295.39 -0.791241 1.85967 0
M  V30 3164 C 295.711 -1.7903 0.772859 0
M  V30 3165 O 294.981 -1.94872 -0.200398 0
M  V30 3166 H 293.561 -0.295205 0.686195 0
M  V30 3167 H 296.223 -0.0706782 1.94772 0
M  V30 3168 H 295.319 -1.31882 2.82867 0
M  V30 3169 N 295.62 -1.53406 -0.361157 0
M  V30 3170 C 296.848 -1.73717 -1.12383 0
M  V30 3171 C 297.263 -0.468161 -1.82904 0
M  V30 3172 O 296.62 0.559198 -1.73722 0
M  V30 3173 C 296.671 -2.90558 -2.15078 0
M  V30 3174 O 296.392 -4.12549 -1.47428 0
M  V30 3175 C 297.893 -3.22777 -3.03858 0
M  V30 3176 H 295.113 -0.580896 -0.335858 0
M  V30 3177 H 297.657 -2.00167 -0.418728 0
M  V30 3178 H 295.812 -2.66489 -2.8118 0
M  V30 3179 H 296.226 -4.78009 -2.15887 0
M  V30 3180 H 297.7 -4.07927 -3.71887 0
M  V30 3181 H 298.177 -2.38329 -3.68912 0
M  V30 3182 H 298.783 -3.48787 -2.43367 0
M  V30 3183 N 297.098 0.621204 -1.44841 0
M  V30 3184 C 298.323 1.41244 -1.51871 0
M  V30 3185 C 298.748 1.87519 -0.147764 0
M  V30 3186 O 298.106 1.59334 0.865 0
M  V30 3187 C 298.154 2.60221 -2.49634 0
M  V30 3188 O 297.258 3.60395 -2.00473 0
M  V30 3189 H 296.599 0.42223 -0.512463 0
M  V30 3190 H 299.129 0.757305 -1.90069 0
M  V30 3191 H 299.139 3.0764 -2.67996 0
M  V30 3192 H 297.814 2.25887 -3.4921 0
M  V30 3193 H 296.391 3.19717 -1.91925 0
M  V30 3194 N 298.576 1.31904 0.862503 0
M  V30 3195 C 299.524 1.20125 1.9918 0
M  V30 3196 C 300.518 0.107824 1.69056 0
M  V30 3197 O 301.724 0.270223 1.7796 0
M  V30 3198 H 298.099 0.372148 0.65346 0
M  V30 3199 H 300.07 2.15652 2.06244 0
M  V30 3200 C 298.819 0.933099 3.34946 0
M  V30 3201 H 298.142 1.76664 3.5865 0
M  V30 3202 H 299.582 0.890892 4.14535 0
M  V30 3203 C 298.041 -0.364172 3.34926 0
M  V30 3204 O 298.571 -1.37858 3.77304 0
M  V30 3205 N 296.777 -0.383362 2.8806 0
M  V30 3206 H 296.324 0.442651 2.53768 0
M  V30 3207 H 296.282 -1.25123 2.8843 0
M  V30 3208 N 300.054 -1.07777 1.14986 0
M  V30 3209 C 301.303 -1.79669 0.916617 0
M  V30 3210 C 301.616 -1.87474 -0.557917 0
M  V30 3211 O 302.822 -2.55845 -0.908617 0
M  V30 3212 C 301.278 -3.22848 1.59051 0
M  V30 3213 C 300.886 -3.23257 3.10176 0
M  V30 3214 C 302.63 -3.99379 1.43864 0
M  V30 3215 C 300.537 -4.61063 3.70372 0
M  V30 3216 H 299.467 -0.673349 0.33929 0
M  V30 3217 H 302.118 -1.21003 1.37951 0
M  V30 3218 H 300.5 -3.8168 1.0553 0
M  V30 3219 H 301.674 -2.74095 3.70417 0
M  V30 3220 H 299.989 -2.60222 3.25074 0
M  V30 3221 H 302.586 -5.0122 1.86232 0
M  V30 3222 H 302.929 -4.14511 0.385564 0
M  V30 3223 H 303.462 -3.47032 1.94457 0
M  V30 3224 H 300.201 -4.51135 4.7556 0
M  V30 3225 H 299.721 -5.1048 3.14913 0
M  V30 3226 H 301.4 -5.30034 3.71043 0
M  V30 3227 N 301.532 -0.945985 -1.26051 0
M  V30 3228 C 302.464 -0.416662 -2.25381 0
M  V30 3229 C 303.477 0.462712 -1.56086 0
M  V30 3230 O 304.666 0.272383 -1.7641 0
M  V30 3231 C 301.766 0.419812 -3.3629 0
M  V30 3232 C 300.939 -0.444531 -4.35135 0
M  V30 3233 C 299.998 0.332305 -5.2515 0
M  V30 3234 O 299.024 -0.266324 -5.68577 0
M  V30 3235 N 300.226 1.62763 -5.57215 0
M  V30 3236 H 302.991 -1.27059 -2.71433 0
M  V30 3237 H 300.552 -0.815392 -1.39868 0
M  V30 3238 H 302.544 0.947013 -3.93464 0
M  V30 3239 H 301.114 1.17456 -2.89694 0
M  V30 3240 H 300.334 -1.15291 -3.76964 0
M  V30 3241 H 301.622 -1.03478 -4.98166 0
M  V30 3242 H 301.02 2.13603 -5.23823 0
M  V30 3243 H 299.577 2.10097 -6.17011 0
M  V30 3244 N 303.011 1.40521 -0.713556 0
M  V30 3245 C 303.921 2.34522 -0.0606667 0
M  V30 3246 C 304.937 1.57193 0.74607 0
M  V30 3247 O 306.113 1.89591 0.679493 0
M  V30 3248 C 303.178 3.36081 0.851491 0
M  V30 3249 C 302.239 4.29286 0.0349339 0
M  V30 3250 C 301.472 5.25994 0.903649 0
M  V30 3251 O 301.695 5.28616 2.14292 0
M  V30 3252 O 300.629 6.00918 0.343723 0
M  V30 3253 H 304.455 2.91968 -0.835972 0
M  V30 3254 H 302.04 1.41681 -0.47402 0
M  V30 3255 H 303.922 3.98369 1.37404 0
M  V30 3256 H 302.597 2.81052 1.60598 0
M  V30 3257 H 301.504 3.70289 -0.532633 0
M  V30 3258 H 302.837 4.87462 -0.681287 0
M  V30 3259 N 304.489 0.459591 1.5075 0
M  V30 3260 C 305.421 -0.37665 2.26084 0
M  V30 3261 C 306.434 -0.967109 1.30961 0
M  V30 3262 O 307.623 -0.857468 1.56556 0
M  V30 3263 C 304.723 -1.54112 3.01832 0
M  V30 3264 C 303.896 -1.06553 4.24223 0
M  V30 3265 C 302.955 -2.1027 4.82362 0
M  V30 3266 O 301.981 -1.68798 5.43595 0
M  V30 3267 N 303.183 -3.42974 4.68347 0
M  V30 3268 H 305.948 0.269124 2.98489 0
M  V30 3269 H 303.509 0.28972 1.59287 0
M  V30 3270 H 305.501 -2.23165 3.37608 0
M  V30 3271 H 304.071 -2.0918 2.32298 0
M  V30 3272 H 303.291 -0.201274 3.93686 0
M  V30 3273 H 304.579 -0.725516 5.03601 0
M  V30 3274 H 303.977 -3.79385 4.19623 0
M  V30 3275 H 302.534 -4.07858 5.08424 0
M  V30 3276 N 305.967 -1.56429 0.191757 0
M  V30 3277 C 306.897 -2.21937 -0.725696 0
M  V30 3278 C 307.878 -1.1814 -1.2238 0
M  V30 3279 O 309.063 -1.46636 -1.27325 0
M  V30 3280 C 306.193 -2.87611 -1.94672 0
M  V30 3281 C 305.147 -3.97623 -1.58366 0
M  V30 3282 C 304.473 -4.50446 -2.88102 0
M  V30 3283 C 305.773 -5.16197 -0.796133 0
M  V30 3284 H 307.467 -2.98861 -0.179606 0
M  V30 3285 H 305.013 -1.43749 -0.0849464 0
M  V30 3286 H 306.966 -3.3212 -2.59373 0
M  V30 3287 H 305.69 -2.08087 -2.51728 0
M  V30 3288 H 304.349 -3.53801 -0.960247 0
M  V30 3289 H 303.997 -3.67688 -3.43241 0
M  V30 3290 H 303.697 -5.24675 -2.64556 0
M  V30 3291 H 305.221 -4.97654 -3.53798 0
M  V30 3292 H 306.635 -5.57271 -1.34618 0
M  V30 3293 H 305.032 -5.96471 -0.658928 0
M  V30 3294 H 306.102 -4.84473 0.203478 0
M  V30 3295 N 307.445 0.0818655 -1.57387 0
M  V30 3296 C 308.375 1.09885 -2.06028 0
M  V30 3297 C 309.356 1.4098 -0.951774 0
M  V30 3298 O 310.541 1.50781 -1.22387 0
M  V30 3299 C 307.671 2.4151 -2.4958 0
M  V30 3300 C 306.625 2.24792 -3.64215 0
M  V30 3301 C 305.951 3.61712 -3.93787 0
M  V30 3302 C 307.251 1.67749 -4.94629 0
M  V30 3303 H 308.945 0.694128 -2.91243 0
M  V30 3304 H 306.491 0.332448 -1.4011 0
M  V30 3305 H 308.444 3.12939 -2.82219 0
M  V30 3306 H 307.168 2.83943 -1.61381 0
M  V30 3307 H 305.827 1.55807 -3.31843 0
M  V30 3308 H 305.475 4.01697 -3.02735 0
M  V30 3309 H 305.175 3.51368 -4.70971 0
M  V30 3310 H 306.699 4.34587 -4.28913 0
M  V30 3311 H 308.113 2.29032 -5.25564 0
M  V30 3312 H 306.51 1.68128 -5.76067 0
M  V30 3313 H 307.58 0.638059 -4.80684 0
M  V30 3314 N 308.923 1.53595 0.353017 0
M  V30 3315 C 310.334 1.61937 0.929153 0
M  V30 3316 C 310.685 0.494686 1.89861 0
M  V30 3317 O 309.81 -0.377017 2.1309 0
M  V30 3318 C 310.405 2.93526 1.69199 0
M  V30 3319 C 308.964 3.04161 2.21727 0
M  V30 3320 C 308.111 2.57322 1.03348 0
M  V30 3321 H 311.062 1.58155 0.131431 0
M  V30 3322 H 311.083 2.82034 2.55416 0
M  V30 3323 H 310.595 3.75362 0.986144 0
M  V30 3324 H 308.696 2.26938 2.95516 0
M  V30 3325 H 308.809 4.09465 2.48748 0
M  V30 3326 H 307.173 2.12499 1.40414 0
M  V30 3327 H 307.956 3.41588 0.342428 0
M  V30 3328 N 310.401 -0.613514 1.45168 0
M  V30 3329 C 311.648 -1.37268 1.48875 0
M  V30 3330 C 311.976 -1.94077 0.128161 0
M  V30 3331 O 311.231 -1.75178 -0.872416 0
M  V30 3332 C 311.53 -2.54347 2.51083 0
M  V30 3333 C 311.196 -2.1572 3.95949 0
M  V30 3334 C 309.858 -2.04899 4.35396 0
M  V30 3335 C 312.21 -1.85485 4.87078 0
M  V30 3336 C 309.538 -1.62057 5.63875 0
M  V30 3337 C 311.89 -1.4413 6.15962 0
M  V30 3338 C 310.554 -1.31863 6.54346 0
M  V30 3339 H 309.824 -0.502299 0.544773 0
M  V30 3340 H 312.471 -0.694021 1.78481 0
M  V30 3341 H 310.776 -3.27524 2.15024 0
M  V30 3342 H 312.473 -3.12577 2.51191 0
M  V30 3343 H 309.063 -2.25066 3.64751 0
M  V30 3344 H 313.247 -1.92745 4.57343 0
M  V30 3345 H 308.503 -1.51177 5.92415 0
M  V30 3346 H 312.677 -1.19778 6.86022 0
M  V30 3347 H 310.304 -0.984392 7.538 0
M  V30 3348 N 311.879 -1.3236 -0.855495 0
M  V30 3349 C 313.156 -1.13491 -1.59309 0
M  V30 3350 C 313.536 0.30503 -2.08885 0
M  V30 3351 O 312.884 1.30151 -1.87811 0
M  V30 3352 C 313.094 -2.16176 -2.73987 0
M  V30 3353 C 314.442 -2.49463 -3.43589 0
M  V30 3354 O 315.466 -2.14715 -2.84211 0
M  V30 3355 O 314.325 -3.09027 -4.50738 0
M  V30 3356 H 311.419 -0.437887 -0.701559 0
M  V30 3357 H 313.965 -1.43887 -0.899696 0
M  V30 3358 H 312.737 -3.1297 -2.34873 0
M  V30 3359 H 312.36 -1.86769 -3.51003 0
M  V30 3360 N 313.357 1.07166 -1.15556 0
M  V30 3361 C 314.287 2.16403 -0.877046 0
M  V30 3362 C 315.268 1.69217 0.173111 0
M  V30 3363 O 316.453 1.94181 0.027084 0
M  V30 3364 C 313.583 3.45349 -0.367632 0
M  V30 3365 C 312.537 4.05995 -1.35468 0
M  V30 3366 C 311.863 5.30045 -0.704038 0
M  V30 3367 C 313.163 4.45804 -2.72132 0
M  V30 3368 H 314.857 2.39959 -1.79053 0
M  V30 3369 H 312.403 1.15325 -0.862331 0
M  V30 3370 H 314.356 4.21095 -0.160317 0
M  V30 3371 H 313.08 3.21385 0.581326 0
M  V30 3372 H 311.739 3.32296 -1.54839 0
M  V30 3373 H 311.387 5.02373 0.251128 0
M  V30 3374 H 311.087 5.71579 -1.36277 0
M  V30 3375 H 312.611 6.08495 -0.50654 0
M  V30 3376 H 314.025 5.12671 -2.56595 0
M  V30 3377 H 312.422 4.98296 -3.34397 0
M  V30 3378 H 313.492 3.57083 -3.28054 0
M  V30 3379 N 314.835 0.952656 1.25548 0
M  V30 3380 C 316.06 0.623025 1.97821 0
M  V30 3381 C 316.485 -0.7976 1.70352 0
M  V30 3382 O 315.843 -1.53905 0.958283 0
M  V30 3383 C 315.891 0.885532 3.49558 0
M  V30 3384 O 314.995 -0.0366641 4.12384 0
M  V30 3385 H 314.336 0.237082 0.620232 0
M  V30 3386 H 316.866 1.27871 1.59719 0
M  V30 3387 H 316.876 0.811009 3.99858 0
M  V30 3388 H 315.551 1.92094 3.6888 0
M  V30 3389 H 314.128 0.0898954 3.72792 0
M  V30 3390 N 316.313 -1.40141 0.720998 0
M  V30 3391 C 317.562 -2.0002 0.259804 0
M  V30 3392 C 317.875 -1.57839 -1.15526 0
M  V30 3393 O 319.081 -2.10455 -1.71525 0
M  V30 3394 C 317.537 -3.57516 0.413566 0
M  V30 3395 C 317.145 -4.08667 1.83562 0
M  V30 3396 C 318.889 -4.24498 0.0134387 0
M  V30 3397 C 316.796 -5.58686 1.93968 0
M  V30 3398 H 315.726 -0.748195 0.0933806 0
M  V30 3399 H 318.377 -1.60313 0.892866 0
M  V30 3400 H 316.759 -3.9495 -0.288169 0
M  V30 3401 H 317.933 -3.82598 2.56817 0
M  V30 3402 H 316.248 -3.543 2.1877 0
M  V30 3403 H 318.845 -5.34654 0.0703954 0
M  V30 3404 H 319.188 -4.03375 -1.02927 0
M  V30 3405 H 319.721 -3.92188 0.665815 0
M  V30 3406 H 316.46 -5.8467 2.96379 0
M  V30 3407 H 315.98 -5.86602 1.25131 0
M  V30 3408 H 317.659 -6.23875 1.71431 0
M  V30 3409 N 317.792 -0.46758 -1.50504 0
M  V30 3410 C 319.039 0.0886219 -2.02306 0
M  V30 3411 C 319.367 1.40037 -1.34981 0
M  V30 3412 O 318.622 1.90136 -0.463318 0
M  V30 3413 C 318.921 0.323995 -3.55928 0
M  V30 3414 C 318.587 -0.905618 -4.41712 0
M  V30 3415 C 317.249 -1.24275 -4.64875 0
M  V30 3416 C 319.601 -1.72448 -4.91845 0
M  V30 3417 C 316.929 -2.39888 -5.35417 0
M  V30 3418 C 319.281 -2.87185 -5.63656 0
M  V30 3419 C 317.945 -3.21317 -5.85074 0
M  V30 3420 H 317.215 0.0324291 -0.74029 0
M  V30 3421 H 319.862 -0.620945 -1.81153 0
M  V30 3422 H 318.167 1.11577 -3.75577 0
M  V30 3423 H 319.864 0.76826 -3.93572 0
M  V30 3424 H 316.454 -0.632956 -4.239 0
M  V30 3425 H 320.638 -1.4772 -4.73806 0
M  V30 3426 H 315.894 -2.66611 -5.50208 0
M  V30 3427 H 320.068 -3.50985 -6.01484 0
M  V30 3428 H 317.695 -4.1101 -6.39511 0
M  V30 3429 N 319.27 1.56325 -0.20005 0
M  V30 3430 C 320.217 2.1932 0.718833 0
M  V30 3431 C 321.187 1.14198 1.20615 0
M  V30 3432 O 322.372 1.42469 1.26914 0
M  V30 3433 C 319.512 2.86041 1.93066 0
M  V30 3434 C 318.625 4.05702 1.48425 0
M  V30 3435 C 317.76 4.60266 2.65196 0
M  V30 3436 C 316.799 5.72273 2.17185 0
M  V30 3437 N 315.936 6.21221 3.27152 0
M  V30 3438 H 320.776 2.97486 0.17489 0
M  V30 3439 H 318.313 1.46911 0.0745794 0
M  V30 3440 H 320.271 3.22897 2.64184 0
M  V30 3441 H 318.901 2.1043 2.44783 0
M  V30 3442 H 317.953 3.74475 0.668755 0
M  V30 3443 H 319.265 4.86699 1.09204 0
M  V30 3444 H 318.419 4.99453 3.4443 0
M  V30 3445 H 317.158 3.78386 3.07693 0
M  V30 3446 H 316.163 5.3261 1.36407 0
M  V30 3447 H 317.388 6.55974 1.75713 0
M  V30 3448 H 315.334 5.42263 3.69171 0
M  V30 3449 H 315.251 6.97284 2.92116 0
M  V30 3450 H 316.519 6.65063 4.06585 0
M  V30 3451 N 320.748 -0.0735177 1.57428 0
M  V30 3452 C 321.973 -0.789787 1.91774 0
M  V30 3453 C 322.398 -1.70413 0.796306 0
M  V30 3454 O 321.756 -1.79555 -0.250961 0
M  V30 3455 C 321.804 -1.5609 3.25067 0
M  V30 3456 O 320.908 -2.67144 3.14178 0
M  V30 3457 H 320.249 -0.215582 0.628029 0
M  V30 3458 H 322.779 -0.0422781 2.04556 0
M  V30 3459 H 322.789 -1.94052 3.58898 0
M  V30 3460 H 321.464 -0.890015 4.06265 0
M  V30 3461 H 320.041 -2.32052 2.91901 0
M  V30 3462 N 322.226 -1.5378 -0.344866 0
M  V30 3463 C 323.156 -1.84662 -1.42906 0
M  V30 3464 C 324.137 -0.701648 -1.54955 0
M  V30 3465 O 325.322 -0.953438 -1.69184 0
M  V30 3466 C 322.452 -2.05503 -2.79974 0
M  V30 3467 C 321.406 -3.21318 -2.82734 0
M  V30 3468 C 320.732 -3.2749 -4.22675 0
M  V30 3469 C 322.032 -4.59456 -2.48389 0
M  V30 3470 H 323.726 -2.75461 -1.17311 0
M  V30 3471 H 321.272 -1.32542 -0.562896 0
M  V30 3472 H 323.225 -2.25691 -3.55867 0
M  V30 3473 H 321.949 -1.11434 -3.07002 0
M  V30 3474 H 320.608 -3.00984 -2.09294 0
M  V30 3475 H 320.256 -2.31019 -4.4681 0
M  V30 3476 H 319.956 -4.05316 -4.25433 0
M  V30 3477 H 321.48 -3.49887 -5.00412 0
M  V30 3478 H 322.894 -4.79667 -3.13995 0
M  V30 3479 H 321.291 -5.39675 -2.62432 0
M  V30 3480 H 322.361 -4.63155 -1.4358 0
M  V30 3481 N 323.704 0.605807 -1.45491 0
M  V30 3482 C 324.654 1.71074 -1.50724 0
M  V30 3483 C 325.638 1.5658 -0.37033 0
M  V30 3484 O 326.83 1.65887 -0.617299 0
M  V30 3485 C 323.959 3.0983 -1.47852 0
M  V30 3486 C 323.045 3.29704 -2.66751 0
M  V30 3487 N 323.436 3.19831 -3.91844 0
M  V30 3488 C 321.734 3.60579 -2.62486 0
M  V30 3489 C 322.435 3.41083 -4.71208 0
M  V30 3490 N 321.411 3.65157 -4.02693 0
M  V30 3491 H 325.213 1.61937 -2.45263 0
M  V30 3492 H 322.727 0.80912 -1.40808 0
M  V30 3493 H 324.724 3.89101 -1.49686 0
M  V30 3494 H 323.384 3.20115 -0.543714 0
M  V30 3495 H 324.395 2.98194 -4.23439 0
M  V30 3496 H 321.072 3.7769 -1.77922 0
M  V30 3497 H 322.462 3.38828 -5.80211 0
M  V30 3498 N 325.182 1.32811 0.848464 0
M  V30 3499 C 326.114 1.18095 1.96433 0
M  V30 3500 C 327.127 0.114354 1.62398 0
M  V30 3501 O 328.316 0.363892 1.74751 0
M  V30 3502 C 325.416 0.786798 3.2964 0
M  V30 3503 C 324.589 1.943 3.91875 0
M  V30 3504 C 323.648 1.53138 5.03423 0
M  V30 3505 O 322.674 2.24432 5.23086 0
M  V30 3506 N 323.876 0.430915 5.78898 0
M  V30 3507 H 326.641 2.14218 2.09597 0
M  V30 3508 H 324.202 1.2543 1.02367 0
M  V30 3509 H 326.194 0.493715 4.01677 0
M  V30 3510 H 324.764 -0.0834541 3.12489 0
M  V30 3511 H 323.984 2.40224 3.12547 0
M  V30 3512 H 325.272 2.71689 4.30189 0
M  V30 3513 H 324.67 -0.162333 5.65467 0
M  V30 3514 H 323.227 0.197466 6.51501 0
M  V30 3515 N 326.66 -1.06551 1.16123 0
M  V30 3516 C 327.906 -1.79567 0.94252 0
M  V30 3517 C 328.239 -1.86869 -0.528547 0
M  V30 3518 O 327.514 -1.35838 -1.39206 0
M  V30 3519 C 327.797 -3.24195 1.56747 0
M  V30 3520 C 327.65 -3.24989 3.10969 0
M  V30 3521 C 328.969 -4.21678 1.25998 0
M  V30 3522 H 326.088 -0.651883 0.343828 0
M  V30 3523 H 328.73 -1.2463 1.43413 0
M  V30 3524 H 326.88 -3.71107 1.14942 0
M  V30 3525 H 328.552 -2.86258 3.61737 0
M  V30 3526 H 326.795 -2.63716 3.44436 0
M  V30 3527 H 327.466 -4.27005 3.49815 0
M  V30 3528 H 329.942 -3.83196 1.62174 0
M  V30 3529 H 328.818 -5.21146 1.7233 0
M  V30 3530 H 329.079 -4.4174 0.178367 0
M  V30 3531 N 328.138 -0.959301 -1.25041 0
M  V30 3532 C 329.048 -0.489994 -2.29426 0
M  V30 3533 C 330.064 0.444944 -1.68215 0
M  V30 3534 O 331.24 0.320046 -1.98841 0
M  V30 3535 C 328.305 0.220309 -3.45999 0
M  V30 3536 C 327.366 -0.753418 -4.22637 0
M  V30 3537 C 326.599 -0.076918 -5.33645 0
M  V30 3538 O 326.822 1.13649 -5.58963 0
M  V30 3539 O 325.756 -0.764824 -5.97021 0
M  V30 3540 H 329.582 -1.35755 -2.71669 0
M  V30 3541 H 327.167 -0.725961 -1.30576 0
M  V30 3542 H 329.049 0.619677 -4.16819 0
M  V30 3543 H 327.724 1.06296 -3.0575 0
M  V30 3544 H 326.631 -1.20308 -3.54227 0
M  V30 3545 H 327.964 -1.56423 -4.66683 0
M  V30 3546 N 329.616 1.39756 -0.72842 0
M  V30 3547 C 330.865 1.99879 -0.270407 0
M  V30 3548 C 331.178 1.58449 1.14688 0
M  V30 3549 O 332.384 2.11362 1.70407 0
M  V30 3550 C 330.84 3.57292 -0.43252 0
M  V30 3551 C 330.448 4.07688 -1.85727 0
M  V30 3552 C 332.192 4.24485 -0.0359507 0
M  V30 3553 C 330.099 5.5765 -1.96928 0
M  V30 3554 H 329.029 0.747689 -0.0973472 0
M  V30 3555 H 331.68 1.59837 -0.901355 0
M  V30 3556 H 330.062 3.95097 0.267219 0
M  V30 3557 H 331.236 3.81231 -2.58843 0
M  V30 3558 H 329.551 3.53135 -2.20646 0
M  V30 3559 H 332.148 5.34609 -0.0987484 0
M  V30 3560 H 332.491 4.03915 1.00787 0
M  V30 3561 H 333.024 3.9183 -0.686604 0
M  V30 3562 H 329.763 5.8309 -2.99476 0
M  V30 3563 H 329.283 5.8593 -1.28241 0
M  V30 3564 H 330.962 6.22957 -1.74737 0
M  V30 3565 N 331.094 0.475555 1.50254 0
M  V30 3566 C 332.319 -0.0777042 2.07254 0
M  V30 3567 C 332.744 -1.3235 1.3366 0
M  V30 3568 O 332.102 -1.77152 0.385597 0
M  V30 3569 C 332.15 -0.340169 3.58992 0
M  V30 3570 O 331.254 -1.41982 3.87188 0
M  V30 3571 H 330.595 0.0149556 0.663832 0
M  V30 3572 H 333.125 0.667878 1.93392 0
M  V30 3573 H 333.135 -0.579332 4.03866 0
M  V30 3574 H 331.81 0.570167 4.11973 0
M  V30 3575 H 330.387 -1.16762 3.54148 0
M  V30 3576 N 332.573 -1.56217 0.208337 0
M  V30 3577 C 333.523 -2.16324 -0.720281 0
M  V30 3578 C 334.507 -1.10775 -1.16695 0
M  V30 3579 O 335.699 -1.36801 -1.12314 0
M  V30 3580 C 332.828 -2.83644 -1.93393 0
M  V30 3581 C 331.914 -3.96401 -1.50755 0
M  V30 3582 N 332.305 -4.99546 -0.792937 0
M  V30 3583 C 330.603 -4.08246 -1.79585 0
M  V30 3584 C 331.304 -5.78828 -0.577364 0
M  V30 3585 N 330.28 -5.31723 -1.1301 0
M  V30 3586 H 334.082 -2.93432 -0.165725 0
M  V30 3587 H 331.596 -1.62397 0.00906463 0
M  V30 3588 H 333.593 -3.25107 -2.60981 0
M  V30 3589 H 332.253 -2.08027 -2.49308 0
M  V30 3590 H 333.264 -5.15967 -0.447004 0
M  V30 3591 H 329.941 -3.4377 -2.36915 0
M  V30 3592 H 331.331 -6.71899 -0.00952956 0
M  V30 3593 N 334.051 0.0651679 -1.57465 0
M  V30 3594 C 335.291 0.768329 -1.8941 0
M  V30 3595 C 335.655 1.74406 -0.802894 0
M  V30 3596 O 336.856 2.49281 -1.0056 0
M  V30 3597 C 335.127 1.45199 -3.26576 0
M  V30 3598 S 336.686 2.1893 -3.80283 0
M  V30 3599 H 333.504 0.255359 -0.663561 0
M  V30 3600 H 336.106 0.024167 -1.95485 0
M  V30 3601 H 334.81 0.728123 -4.03889 0
M  V30 3602 H 334.341 2.23545 -3.23715 0
M  V30 3603 H 336.356 3.45551 -3.56102 0
M  V30 3604 N 335.529 1.53961 0.336706 0
M  V30 3605 C 336.806 1.62171 1.09361 0
M  V30 3606 C 337.186 0.447263 2.06307 0
M  V30 3607 O 336.534 -0.559802 2.21537 0
M  V30 3608 C 336.744 2.98565 1.80721 0
M  V30 3609 C 338.092 3.54157 2.34218 0
M  V30 3610 O 339.116 3.00784 1.90807 0
M  V30 3611 O 337.975 4.47528 3.13657 0
M  V30 3612 H 335.069 0.6562 0.503319 0
M  V30 3613 H 337.615 1.66307 0.33765 0
M  V30 3614 H 336.387 3.75482 1.10132 0
M  V30 3615 H 336.01 2.9805 2.63158 0
M  V30 3616 N 337.007 -0.598083 1.45811 0
M  V30 3617 C 337.97 -1.69018 1.54808 0
M  V30 3618 C 338.97 -1.55037 0.426652 0
M  V30 3619 O 340.16 -1.59932 0.690456 0
M  V30 3620 C 337.292 -3.0835 1.45371 0
M  V30 3621 H 338.485 -1.62403 2.52121 0
M  V30 3622 H 336.038 -0.814626 1.33392 0
M  V30 3623 H 336.773 -3.20534 0.492793 0
M  V30 3624 H 336.558 -3.19907 2.26721 0
M  V30 3625 H 338.048 -3.8788 1.54721 0
M  V30 3626 N 338.485 -1.33259 -0.841409 0
M  V30 3627 C 339.432 -1.23302 -1.95103 0
M  V30 3628 C 340.402 -0.112204 -1.65721 0
M  V30 3629 O 341.587 -0.290038 -1.88583 0
M  V30 3630 C 338.727 -0.975583 -3.31023 0
M  V30 3631 C 337.84 -2.18243 -3.72819 0
M  V30 3632 C 336.975 -1.85936 -4.97595 0
M  V30 3633 C 336.014 -3.02866 -5.3192 0
M  V30 3634 N 335.151 -2.70565 -6.47873 0
M  V30 3635 H 339.991 -2.18207 -2.02952 0
M  V30 3636 H 337.528 -1.0851 -0.993173 0
M  V30 3637 H 339.486 -0.80677 -4.09325 0
M  V30 3638 H 338.116 -0.0632755 -3.22738 0
M  V30 3639 H 337.168 -2.46107 -2.90061 0
M  V30 3640 H 338.48 -3.05666 -3.94169 0
M  V30 3641 H 337.634 -1.65684 -5.83638 0
M  V30 3642 H 336.373 -0.957452 -4.78209 0
M  V30 3643 H 335.378 -3.23736 -4.44382 0
M  V30 3644 H 336.603 -3.93809 -5.53255 0
M  V30 3645 H 334.549 -1.8293 -6.29978 0
M  V30 3646 H 334.466 -3.51519 -6.69306 0
M  V30 3647 H 335.734 -2.53774 -7.37034 0
M  V30 3648 N 339.963 1.05934 -1.16686 0
M  V30 3649 C 340.913 2.11764 -0.844978 0
M  V30 3650 C 341.897 1.59922 0.177178 0
M  V30 3651 O 343.089 1.76983 -0.0241768 0
M  V30 3652 C 340.218 3.41493 -0.351812 0
M  V30 3653 C 339.304 4.00152 -1.40496 0
M  V30 3654 N 339.695 4.32874 -2.61636 0
M  V30 3655 C 337.993 4.278 -1.26106 0
M  V30 3656 C 338.694 4.79552 -3.29249 0
M  V30 3657 N 337.67 4.79211 -2.56628 0
M  V30 3658 H 341.472 2.34916 -1.76612 0
M  V30 3659 H 338.986 1.23511 -1.05446 0
M  V30 3660 H 340.983 4.16773 -0.102796 0
M  V30 3661 H 339.643 3.19778 0.56322 0
M  V30 3662 H 340.654 4.23109 -2.98663 0
M  V30 3663 H 337.331 4.15511 -0.407081 0
M  V30 3664 H 338.721 5.14045 -4.32675 0
M  V30 3665 N 341.441 0.965919 1.2453 0
M  V30 3666 C 342.69 0.622437 1.91856 0
M  V30 3667 C 343.003 -0.846006 1.76358 0
M  V30 3668 O 344.209 -1.29993 2.38357 0
M  V30 3669 C 342.665 1.0626 3.43856 0
M  V30 3670 C 342.273 2.55437 3.68043 0
M  V30 3671 C 344.017 0.792183 4.17043 0
M  V30 3672 C 341.924 2.93196 5.13605 0
M  V30 3673 H 340.854 0.229092 0.718354 0
M  V30 3674 H 343.505 1.17189 1.41206 0
M  V30 3675 H 341.887 0.441476 3.93531 0
M  V30 3676 H 343.061 3.22665 3.28974 0
M  V30 3677 H 341.376 2.8007 3.08139 0
M  V30 3678 H 343.973 1.05031 5.24283 0
M  V30 3679 H 344.316 -0.271584 4.15413 0
M  V30 3680 H 344.849 1.37419 3.73311 0
M  V30 3681 H 341.588 3.98636 5.20355 0
M  V30 3682 H 341.108 2.30651 5.53679 0
M  V30 3683 H 342.787 2.83004 5.81823 0
M  V30 3684 N 342.919 -1.39368 0.735821 0
M  V30 3685 C 344.335 -1.54204 0.411492 0
M  V30 3686 C 344.535 -1.70268 -1.07755 0
M  V30 3687 O 343.591 -1.70364 -1.86366 0
M  V30 3688 C 344.904 -2.75925 1.19523 0
M  V30 3689 C 346.452 -2.89761 1.18354 0
M  V30 3690 C 346.927 -4.14421 1.94986 0
M  V30 3691 N 348.418 -4.21462 1.92156 0
M  V30 3692 C 349.153 -5.16871 2.48258 0
M  V30 3693 N 348.649 -6.18063 3.13001 0
M  V30 3694 N 350.442 -5.09093 2.38287 0
M  V30 3695 H 342.593 -1.27189 1.70108 0
M  V30 3696 H 344.856 -0.616517 0.720147 0
M  V30 3697 H 344.562 -2.70401 2.24892 0
M  V30 3698 H 344.436 -3.68614 0.800222 0
M  V30 3699 H 346.823 -2.94777 0.137975 0
M  V30 3700 H 346.904 -1.98133 1.61793 0
M  V30 3701 H 346.548 -4.10166 2.99543 0
M  V30 3702 H 346.478 -5.05095 1.48953 0
M  V30 3703 H 348.969 -3.48979 1.44991 0
M  V30 3704 H 349.282 -6.87326 3.53275 0
M  V30 3705 H 347.627 -6.18448 3.17091 0
M  V30 3706 H 350.818 -4.28973 1.8735 0
M  V30 3707 H 350.991 -5.83272 2.82308 0
M  V30 3708 N 344.397 -0.483516 -1.5 0
M  V30 3709 C 345.645 0.067027 -2.01989 0
M  V30 3710 C 345.966 1.3909 -1.36671 0
M  V30 3711 O 345.236 1.88978 -0.516152 0
M  V30 3712 H 343.816 0.0277606 -0.746484 0
M  V30 3713 H 346.478 -0.636773 -1.84204 0
M  V30 3714 H 345.574 0.209484 -3.11396 0
M  V30 3715 N 345.875 1.56104 -0.216619 0
M  V30 3716 C 346.805 2.23063 0.690296 0
M  V30 3717 C 347.786 1.20072 1.20485 0
M  V30 3718 O 348.971 1.48643 1.24976 0
M  V30 3719 C 346.101 2.90672 1.90072 0
M  V30 3720 C 345.055 4.00092 1.5202 0
M  V30 3721 C 344.381 4.54972 2.80899 0
M  V30 3722 C 345.681 5.17398 0.71391 0
M  V30 3723 H 347.375 2.99109 0.132038 0
M  V30 3724 H 344.921 1.43866 0.0620664 0
M  V30 3725 H 346.874 3.36204 2.54057 0
M  V30 3726 H 345.598 2.12066 2.48386 0
M  V30 3727 H 344.257 3.55283 0.903839 0
M  V30 3728 H 343.905 3.73102 3.37348 0
M  V30 3729 H 343.605 5.28817 2.56176 0
M  V30 3730 H 345.129 5.0322 3.45836 0
M  V30 3731 H 346.543 5.59342 1.25735 0
M  V30 3732 H 344.94 5.97444 0.563951 0
M  V30 3733 H 346.01 4.84088 -0.280527 0
M  V30 3734 N 347.353 -0.0568162 1.57498 0
M  V30 3735 C 348.599 -0.75422 1.88253 0
M  V30 3736 C 348.932 -1.76461 0.810865 0
M  V30 3737 O 348.207 -1.93691 -0.177259 0
M  V30 3738 C 348.49 -1.44878 3.2967 0
M  V30 3739 C 348.343 -0.453789 4.47505 0
M  V30 3740 C 349.662 -2.38994 3.69554 0
M  V30 3741 H 346.781 -0.272724 0.684683 0
M  V30 3742 H 349.423 -0.0172113 1.89992 0
M  V30 3743 H 347.573 -2.077 3.28318 0
M  V30 3744 H 349.245 0.170371 4.60985 0
M  V30 3745 H 347.488 0.229552 4.33192 0
M  V30 3746 H 348.159 -0.977699 5.43273 0
M  V30 3747 H 350.635 -1.86239 3.72095 0
M  V30 3748 H 349.511 -2.84587 4.69363 0
M  V30 3749 H 349.772 -3.24461 3.00296 0
M  V30 3750 N 348.832 -1.54138 -0.328536 0
M  V30 3751 C 349.795 -1.82462 -1.38709 0
M  V30 3752 C 350.795 -0.696229 -1.44946 0
M  V30 3753 O 351.985 -0.964535 -1.4506 0
M  V30 3754 C 349.117 -1.98018 -2.77492 0
M  V30 3755 H 350.31 -2.77037 -1.14851 0
M  V30 3756 H 347.863 -1.45779 -0.563751 0
M  V30 3757 H 348.598 -1.05637 -3.06613 0
M  V30 3758 H 348.383 -2.80124 -2.74359 0
M  V30 3759 H 349.873 -2.21396 -3.54081 0
M  V30 3760 N 350.31 0.590341 -1.46126 0
M  V30 3761 C 351.535 1.37991 -1.54833 0
M  V30 3762 C 351.96 1.87163 -0.187506 0
M  V30 3763 O 351.318 1.61133 0.831008 0
M  V30 3764 C 351.366 2.54867 -2.55098 0
M  V30 3765 O 350.47 3.56061 -2.08073 0
M  V30 3766 H 349.811 0.411265 -0.521303 0
M  V30 3767 H 352.341 0.716819 -1.91632 0
M  V30 3768 H 352.351 3.01886 -2.74461 0
M  V30 3769 H 351.026 2.18429 -3.53923 0
M  V30 3770 H 349.603 3.15574 -1.98664 0
M  V30 3771 N 351.788 1.33704 0.83433 0
M  V30 3772 C 352.735 1.24335 1.94447 0
M  V30 3773 C 353.705 0.120991 1.65659 0
M  V30 3774 O 354.89 0.300035 1.88426 0
M  V30 3775 C 352.03 0.993124 3.30501 0
M  V30 3776 C 351.143 2.20217 3.71657 0
M  V30 3777 C 350.278 1.88572 4.96602 0
M  V30 3778 C 349.317 3.05683 5.30306 0
M  V30 3779 N 348.454 2.73997 6.46429 0
M  V30 3780 H 353.294 2.1928 2.01792 0
M  V30 3781 H 350.831 1.09035 0.987404 0
M  V30 3782 H 352.789 0.828467 4.08892 0
M  V30 3783 H 351.419 0.0803902 3.227 0
M  V30 3784 H 350.471 2.47642 2.88752 0
M  V30 3785 H 351.783 3.07752 3.92543 0
M  V30 3786 H 350.937 1.68776 5.82752 0
M  V30 3787 H 349.676 0.982799 4.77695 0
M  V30 3788 H 348.681 3.26088 4.42659 0
M  V30 3789 H 349.906 3.96737 5.51159 0
M  V30 3790 H 347.852 1.86268 6.28999 0
M  V30 3791 H 347.769 3.55064 6.67432 0
M  V30 3792 H 349.037 2.57679 7.35678 0
M  V30 3793 N 353.266 -1.05314 1.17247 0
M  V30 3794 C 354.677 -1.59753 0.96623 0
M  V30 3795 C 355.028 -1.9005 -0.487378 0
M  V30 3796 O 354.153 -1.68126 -1.36245 0
M  V30 3797 C 354.748 -2.90249 1.74759 0
M  V30 3798 C 353.307 -3.41352 1.58606 0
M  V30 3799 C 352.454 -2.15103 1.75002 0
M  V30 3800 H 355.405 -0.881406 1.31973 0
M  V30 3801 H 355.426 -3.60097 1.22925 0
M  V30 3802 H 354.938 -2.68166 2.8055 0
M  V30 3803 H 353.039 -3.68474 0.552985 0
M  V30 3804 H 353.152 -4.16019 2.37624 0
M  V30 3805 H 351.516 -2.25804 1.17833 0
M  V30 3806 H 352.299 -1.95491 2.82202 0
M  V30 3807 N 354.744 -0.972509 -1.24016 0
M  V30 3808 C 355.972 -0.654803 -1.96265 0
M  V30 3809 C 356.387 0.776708 -1.72083 0
M  V30 3810 O 355.744 1.52171 -1.00748 0
M  V30 3811 C 355.795 -0.92592 -3.49441 0
M  V30 3812 O 355.516 -2.30116 -3.72798 0
M  V30 3813 C 357.017 -0.623068 -4.38899 0
M  V30 3814 H 354.237 -0.243907 -0.6251 0
M  V30 3815 H 356.781 -1.30175 -1.57717 0
M  V30 3816 H 354.936 -0.325108 -3.86033 0
M  V30 3817 H 355.35 -2.38483 -4.67147 0
M  V30 3818 H 356.824 -0.863189 -5.45209 0
M  V30 3819 H 357.301 0.442754 -4.36963 0
M  V30 3820 H 357.907 -1.204 -4.07902 0
M  V30 3821 N 356.222 1.38976 -0.743202 0
M  V30 3822 C 357.152 2.33171 -0.123873 0
M  V30 3823 C 358.133 1.54336 0.71516 0
M  V30 3824 O 359.318 1.82696 0.658467 0
M  V30 3825 C 356.448 3.38474 0.777978 0
M  V30 3826 C 355.402 4.27979 0.0424758 0
M  V30 3827 C 354.728 5.2405 1.06189 0
M  V30 3828 C 356.028 5.10155 -1.1198 0
M  V30 3829 H 357.722 2.85213 -0.910709 0
M  V30 3830 H 355.268 1.37133 -0.439388 0
M  V30 3831 H 357.221 4.03328 1.22084 0
M  V30 3832 H 355.945 2.84891 1.59702 0
M  V30 3833 H 354.604 3.64616 -0.380853 0
M  V30 3834 H 354.252 4.66758 1.87472 0
M  V30 3835 H 353.952 5.84785 0.574485 0
M  V30 3836 H 355.476 5.9178 1.50428 0
M  V30 3837 H 356.89 5.68307 -0.75499 0
M  V30 3838 H 355.287 5.80073 -1.53738 0
M  V30 3839 H 356.357 4.44504 -1.93764 0
M  V30 3840 N 357.7 0.491464 1.49741 0
M  V30 3841 C 358.663 -0.280906 2.27472 0
M  V30 3842 C 359.663 -0.902454 1.33088 0
M  V30 3843 O 360.853 -0.768465 1.56334 0
M  V30 3844 C 357.985 -1.40209 3.10732 0
M  V30 3845 H 359.178 0.401056 2.97206 0
M  V30 3846 H 356.731 0.246131 1.5435 0
M  V30 3847 H 357.466 -2.11849 2.45541 0
M  V30 3848 H 357.251 -0.961969 3.80117 0
M  V30 3849 H 358.741 -1.9464 3.69466 0
M  V30 3850 N 359.178 -1.55987 0.224894 0
M  V30 3851 C 360.406 -2.02784 -0.410665 0
M  V30 3852 C 360.821 -1.10464 -1.53112 0
M  V30 3853 O 360.178 -0.114871 -1.82138 0
M  V30 3854 C 360.229 -3.49087 -0.939165 0
M  V30 3855 O 359.95 -4.37887 0.136614 0
M  V30 3856 C 361.451 -4.11543 -1.64763 0
M  V30 3857 H 358.671 -0.663484 -0.100148 0
M  V30 3858 H 361.215 -2.01614 0.342326 0
M  V30 3859 H 359.37 -3.50861 -1.64242 0
M  V30 3860 H 359.784 -5.23849 -0.261155 0
M  V30 3861 H 361.258 -5.15673 -1.96939 0
M  V30 3862 H 361.735 -3.56736 -2.56195 0
M  V30 3863 H 362.341 -4.13629 -0.989503 0
M  V30 3864 N 360.656 0.0484629 -1.57525 0
M  V30 3865 C 361.586 1.0549 -2.08313 0
M  V30 3866 C 362.567 1.38929 -0.981463 0
M  V30 3867 O 363.752 1.48151 -1.25558 0
M  V30 3868 C 360.882 2.36162 -2.54646 0
M  V30 3869 C 359.836 2.17016 -3.68901 0
M  V30 3870 C 359.162 3.53278 -4.01371 0
M  V30 3871 C 360.462 1.57219 -4.98076 0
M  V30 3872 H 362.156 0.632195 -2.92649 0
M  V30 3873 H 359.702 0.302654 -1.40784 0
M  V30 3874 H 361.655 3.06882 -2.88793 0
M  V30 3875 H 360.379 2.80456 -1.67368 0
M  V30 3876 H 359.038 1.48733 -3.35073 0
M  V30 3877 H 358.686 3.95185 -3.11188 0
M  V30 3878 H 358.386 3.41299 -4.78318 0
M  V30 3879 H 359.91 4.25391 -4.38035 0
M  V30 3880 H 361.324 2.17832 -5.30304 0
M  V30 3881 H 359.721 1.55871 -5.79503 0
M  V30 3882 H 360.791 0.535956 -4.81929 0
M  V30 3883 N 362.134 1.5431 0.320358 0
M  V30 3884 C 363.359 1.76954 1.08175 0
M  V30 3885 C 363.784 0.518193 1.80821 0
M  V30 3886 O 363.142 -0.530411 1.73368 0
M  V30 3887 C 363.19 2.96451 2.05303 0
M  V30 3888 O 362.294 2.68221 3.13259 0
M  V30 3889 H 361.635 0.586275 0.311733 0
M  V30 3890 H 364.165 2.01342 0.363676 0
M  V30 3891 H 364.175 3.23887 2.48116 0
M  V30 3892 H 362.85 3.87196 1.51829 0
M  V30 3893 H 361.427 2.51744 2.75099 0
M  V30 3894 N 363.613 -0.582584 1.46437 0
M  V30 3895 C 364.859 -1.34278 1.51978 0
M  V30 3896 C 365.192 -1.93446 0.170973 0
M  V30 3897 O 364.467 -1.76481 -0.817608 0
M  V30 3898 C 364.75 -2.47203 2.61845 0
M  V30 3899 C 364.603 -1.93069 4.06257 0
M  V30 3900 C 365.922 -3.49247 2.67795 0
M  V30 3901 H 363.041 -0.486876 0.553282 0
M  V30 3902 H 365.683 -0.654437 1.78374 0
M  V30 3903 H 363.833 -3.0592 2.39469 0
M  V30 3904 H 365.505 -1.38808 4.3992 0
M  V30 3905 H 363.748 -1.23898 4.1573 0
M  V30 3906 H 364.419 -2.74586 4.7886 0
M  V30 3907 H 366.895 -3.00411 2.8791 0
M  V30 3908 H 365.771 -4.25719 3.46489 0
M  V30 3909 H 366.032 -4.06482 1.73852 0
M  V30 3910 N 365.091 -1.34144 -0.827227 0
M  V30 3911 C 366.507 -1.13732 -1.11969 0
M  V30 3912 C 366.707 0.0640463 -2.01398 0
M  V30 3913 O 365.763 0.740856 -2.41387 0
M  V30 3914 C 367.076 -2.43047 -1.77055 0
M  V30 3915 C 368.624 -2.49063 -1.89569 0
M  V30 3916 C 369.099 -3.78369 -2.58072 0
M  V30 3917 N 370.59 -3.79505 -2.65575 0
M  V30 3918 C 371.325 -4.76274 -3.19297 0
M  V30 3919 N 370.821 -5.83424 -3.73616 0
M  V30 3920 N 372.614 -4.63735 -3.17658 0
M  V30 3921 H 364.765 -2.11126 -0.232296 0
M  V30 3922 H 367.028 -0.933424 -0.165602 0
M  V30 3923 H 366.734 -3.31025 -1.18807 0
M  V30 3924 H 366.608 -2.56066 -2.76966 0
M  V30 3925 H 368.995 -1.61527 -2.46968 0
M  V30 3926 H 369.076 -2.39975 -0.885745 0
M  V30 3927 H 368.72 -4.66293 -2.01329 0
M  V30 3928 H 368.65 -3.84737 -3.59562 0
M  V30 3929 H 371.141 -3.02074 -2.27068 0
M  V30 3930 H 371.454 -6.53282 -4.12846 0
M  V30 3931 H 369.799 -5.87143 -3.71871 0
M  V30 3932 H 372.99 -3.79177 -2.74486 0
M  V30 3933 H 373.163 -5.39318 -3.59221 0
M  V30 3934 N 366.569 1.04691 -1.17803 0
M  V30 3935 C 367.816 1.77782 -0.969532 0
M  V30 3936 C 368.144 1.87926 0.501401 0
M  V30 3937 O 367.399 1.37918 1.38842 0
M  V30 3938 C 367.698 3.21467 -1.56186 0
M  V30 3939 C 367.364 3.3137 -3.05786 0
M  V30 3940 C 366.026 3.3378 -3.46619 0
M  V30 3941 C 368.378 3.31976 -4.01797 0
M  V30 3942 C 365.706 3.34431 -4.82051 0
M  V30 3943 C 368.058 3.34167 -5.37136 0
M  V30 3944 C 366.722 3.34866 -5.77426 0
M  V30 3945 H 365.992 0.650549 -0.354777 0
M  V30 3946 H 368.639 1.23006 -1.46772 0
M  V30 3947 H 366.944 3.79203 -0.985515 0
M  V30 3948 H 368.641 3.76652 -1.37602 0
M  V30 3949 H 365.231 3.3021 -2.73238 0
M  V30 3950 H 369.415 3.29311 -3.71306 0
M  V30 3951 H 364.671 3.33285 -5.12573 0
M  V30 3952 H 368.845 3.33585 -6.11305 0
M  V30 3953 H 366.472 3.35124 -6.82346 0
M  V30 3954 N 368.047 0.979072 1.23499 0
M  V30 3955 C 369.272 0.664845 1.96455 0
M  V30 3956 C 369.697 -0.761287 1.72006 0
M  V30 3957 O 369.055 -1.51837 0.990713 0
M  V30 3958 C 369.103 0.959479 3.47601 0
M  V30 3959 O 368.207 0.0508168 4.12369 0
M  V30 3960 H 367.548 0.250185 0.615064 0
M  V30 3961 H 370.078 1.31231 1.5697 0
M  V30 3962 H 370.088 0.895642 3.98048 0
M  V30 3963 H 368.763 1.99876 3.64723 0
M  V30 3964 H 367.34 0.16895 3.72517 0
M  V30 3965 N 369.525 -1.3858 0.750561 0
M  V30 3966 C 370.488 -2.28836 0.129152 0
M  V30 3967 C 371.488 -1.47045 -0.650714 0
M  V30 3968 O 372.678 -1.6753 -0.477428 0
M  V30 3969 C 369.81 -3.30751 -0.825622 0
M  V30 3970 H 371.003 -2.85294 0.924516 0
M  V30 3971 H 368.556 -1.47489 0.517376 0
M  V30 3972 H 369.291 -2.79378 -1.64677 0
M  V30 3973 H 369.076 -3.91177 -0.268852 0
M  V30 3974 H 370.566 -3.98249 -1.2565 0
M  V30 3975 N 371.003 -0.499398 -1.49478 0
M  V30 3976 C 372.231 0.0425456 -2.06856 0
M  V30 3977 C 372.646 1.30964 -1.35992 0
M  V30 3978 O 372.003 1.77172 -0.437762 0
M  V30 3979 C 372.054 0.301735 -3.60239 0
M  V30 3980 O 371.775 -0.915127 -4.28436 0
M  V30 3981 C 373.276 0.887499 -4.34325 0
M  V30 3982 H 370.496 -0.0197482 -0.670709 0
M  V30 3983 H 373.04 -0.696297 -1.92281 0
M  V30 3984 H 371.195 0.990556 -3.74522 0
M  V30 3985 H 371.609 -0.676993 -5.20113 0
M  V30 3986 H 373.083 1.01845 -5.42523 0
M  V30 3987 H 373.56 1.88488 -3.96698 0
M  V30 3988 H 374.166 0.236196 -4.24644 0
M  V30 3989 N 372.481 1.55866 -0.233164 0
M  V30 3990 C 373.706 2.03449 0.402906 0
M  V30 3991 C 374.131 1.11166 1.51736 0
M  V30 3992 O 373.489 0.101996 1.81013 0
M  V30 3993 C 373.537 3.49165 0.9009 0
M  V30 3994 O 372.641 3.60019 2.01147 0
M  V30 3995 H 371.982 0.657913 0.0897025 0
M  V30 3996 H 374.512 2.01493 -0.355201 0
M  V30 3997 H 374.522 3.89716 1.2077 0
M  V30 3998 H 373.197 4.15813 0.0852889 0
M  V30 3999 H 371.774 3.3136 1.71042 0
M  V30 4000 N 373.959 -0.0401083 1.57549 0
M  V30 4001 C 374.892 -1.07689 2.01192 0
M  V30 4002 C 375.87 -1.358 0.894273 0
M  V30 4003 O 377.054 -1.48642 1.15921 0
M  V30 4004 C 374.181 -2.41418 2.3756 0
M  V30 4005 C 373.227 -2.29237 3.59656 0
M  V30 4006 S 374.06 -1.65628 5.09242 0
M  V30 4007 C 375.216 -3.0087 5.48843 0
M  V30 4008 H 375.449 -0.705108 2.88817 0
M  V30 4009 H 372.982 -0.249724 1.52367 0
M  V30 4010 H 374.94 -3.18329 2.59186 0
M  V30 4011 H 373.601 -2.75747 1.50407 0
M  V30 4012 H 372.794 -3.27932 3.82722 0
M  V30 4013 H 372.396 -1.60469 3.37825 0
M  V30 4014 H 374.688 -3.97201 5.48851 0
M  V30 4015 H 375.631 -2.82549 6.49286 0
M  V30 4016 H 376.039 -3.02934 4.76331 0
M  V30 4017 N 375.437 -1.54477 -0.31217 0
M  V30 4018 C 376.384 -1.84655 -1.38461 0
M  V30 4019 C 377.354 -0.694536 -1.50882 0
M  V30 4020 O 378.539 -0.942081 -1.6592 0
M  V30 4021 C 375.679 -2.0896 -2.74645 0
M  V30 4022 C 374.792 -3.36618 -2.70763 0
M  V30 4023 C 373.927 -3.50824 -3.98868 0
M  V30 4024 C 372.966 -4.72315 -3.89339 0
M  V30 4025 N 372.103 -4.83387 -5.09197 0
M  V30 4026 H 376.943 -2.76142 -1.12026 0
M  V30 4027 H 374.48 -1.36748 -0.542065 0
M  V30 4028 H 376.438 -2.21045 -3.53829 0
M  V30 4029 H 375.068 -1.20752 -2.99364 0
M  V30 4030 H 374.12 -3.33211 -1.83506 0
M  V30 4031 H 375.432 -4.25917 -2.59608 0
M  V30 4032 H 374.586 -3.62513 -4.86486 0
M  V30 4033 H 373.325 -2.59638 -4.12843 0
M  V30 4034 H 372.33 -4.6067 -3.00105 0
M  V30 4035 H 373.555 -5.64897 -3.76919 0
M  V30 4036 H 371.501 -3.9512 -5.23657 0
M  V30 4037 H 371.418 -5.66669 -5.00422 0
M  V30 4038 H 372.686 -4.9942 -5.98498 0
M  V30 4039 N 376.915 0.57481 -1.46744 0
M  V30 4040 C 377.825 1.711 -1.60505 0
M  V30 4041 C 378.841 1.67008 -0.488307 0
M  V30 4042 O 380.017 1.86774 -0.753495 0
M  V30 4043 C 377.082 3.07608 -1.59932 0
M  V30 4044 C 376.143 3.22904 -2.82898 0
M  V30 4045 C 375.376 4.529 -2.82343 0
M  V30 4046 O 375.599 5.37278 -1.91542 0
M  V30 4047 O 374.533 4.71611 -3.73987 0
M  V30 4048 H 378.359 1.62436 -2.56609 0
M  V30 4049 H 375.944 0.742779 -1.29627 0
M  V30 4050 H 377.826 3.88877 -1.62336 0
M  V30 4051 H 376.501 3.16692 -0.669898 0
M  V30 4052 H 375.408 2.41099 -2.86046 0
M  V30 4053 H 376.741 3.18715 -3.75076 0
M  V30 4054 N 378.394 1.34581 0.820102 0
M  V30 4055 C 379.64 1.27285 1.57881 0
M  V30 4056 C 379.973 -0.156137 1.93571 0
M  V30 4057 O 379.248 -1.10222 1.60254 0
M  V30 4058 C 379.531 2.16639 2.87645 0
M  V30 4059 C 379.384 3.68088 2.58517 0
M  V30 4060 C 380.703 2.05378 3.8924 0
M  V30 4061 H 377.822 0.463714 0.572833 0
M  V30 4062 H 380.464 1.64859 0.944539 0
M  V30 4063 H 378.614 1.84725 3.41773 0
M  V30 4064 H 380.286 4.10382 2.10676 0
M  V30 4065 H 378.529 3.89038 1.91917 0
M  V30 4066 H 379.2 4.2598 3.51063 0
M  V30 4067 H 381.676 2.33404 3.44473 0
M  V30 4068 H 380.552 2.7012 4.77835 0
M  V30 4069 H 380.813 1.0316 4.29896 0
M  V30 4070 N 379.872 -1.04064 1.18357 0
M  V30 4071 C 380.802 -2.14001 0.934113 0
M  V30 4072 C 381.783 -1.69616 -0.128186 0
M  V30 4073 O 382.968 -1.94185 0.0244093 0
M  V30 4074 C 380.098 -3.44253 0.459066 0
M  V30 4075 C 379.052 -4.02261 1.46185 0
M  V30 4076 C 378.378 -5.27992 0.844322 0
M  V30 4077 C 379.678 -4.38432 2.83856 0
M  V30 4078 H 381.372 -2.35127 1.85352 0
M  V30 4079 H 378.918 -1.12998 0.892604 0
M  V30 4080 H 380.871 -4.20522 0.271907 0
M  V30 4081 H 379.595 -3.22813 -0.495912 0
M  V30 4082 H 378.254 -3.28074 1.63595 0
M  V30 4083 H 377.902 -5.02862 -0.117845 0
M  V30 4084 H 377.602 -5.67765 1.51384 0
M  V30 4085 H 379.126 -6.06938 0.667693 0
M  V30 4086 H 380.54 -5.05688 2.70098 0
M  V30 4087 H 378.937 -4.89254 3.47491 0
M  V30 4088 H 380.007 -3.4826 3.37406 0
M  V30 4089 N 381.35 -0.985608 -1.22978 0
M  V30 4090 C 382.596 -0.65836 -1.91816 0
M  V30 4091 C 382.929 0.806692 -1.76653 0
M  V30 4092 O 382.204 1.58252 -1.13078 0
M  V30 4093 C 382.487 -1.056 -3.44268 0
M  V30 4094 C 382.34 -2.57906 -3.68516 0
M  V30 4095 C 383.659 -0.603781 -4.35939 0
M  V30 4096 H 380.778 -0.24065 -0.696604 0
M  V30 4097 H 383.42 -1.22783 -1.44998 0
M  V30 4098 H 381.57 -0.571445 -3.84274 0
M  V30 4099 H 383.242 -3.13976 -3.3796 0
M  V30 4100 H 381.485 -3.00305 -3.13048 0
M  V30 4101 H 382.156 -2.80779 -4.75255 0
M  V30 4102 H 384.632 -1.01987 -4.03408 0
M  V30 4103 H 383.508 -0.910383 -5.41298 0
M  V30 4104 H 383.769 0.495761 -4.39312 0
M  V30 4105 N 382.828 1.3818 -0.7579 0
M  V30 4106 C 384.239 1.82726 -0.383134 0
M  V30 4107 C 384.59 1.63214 1.08884 0
M  V30 4108 O 383.715 1.13566 1.84205 0
M  V30 4109 C 384.31 3.31728 -0.688631 0
M  V30 4110 C 382.869 3.74606 -0.367091 0
M  V30 4111 C 382.016 2.60896 -0.939599 0
M  V30 4112 H 384.967 1.26847 -0.953699 0
M  V30 4113 H 384.988 3.80487 0.0316492 0
M  V30 4114 H 384.5 3.45898 -1.76001 0
M  V30 4115 H 382.601 3.66013 0.697532 0
M  V30 4116 H 382.714 4.71215 -0.865658 0
M  V30 4117 H 381.078 2.52075 -0.3647 0
M  V30 4118 H 381.861 2.77864 -2.0161 0
M  V30 4119 N 384.306 0.507319 1.49211 0
M  V30 4120 C 385.216 -0.272136 2.33016 0
M  V30 4121 C 386.232 -0.961206 1.45041 0
M  V30 4122 O 387.408 -0.941191 1.78055 0
M  V30 4123 C 384.473 -1.31895 3.20631 0
M  V30 4124 C 383.534 -0.642648 4.24463 0
M  V30 4125 C 382.767 -1.63959 5.07891 0
M  V30 4126 O 382.99 -2.87007 4.92933 0
M  V30 4127 O 381.924 -1.19143 5.8999 0
M  V30 4128 H 385.75 0.413982 3.00865 0
M  V30 4129 H 383.335 0.268556 1.46966 0
M  V30 4130 H 385.217 -1.92446 3.7489 0
M  V30 4131 H 383.892 -1.98788 2.5547 0
M  V30 4132 H 382.799 0.00276252 3.741 0
M  V30 4133 H 384.132 -0.0160534 4.92197 0
M  V30 4134 N 385.784 -1.5574 0.241426 0
M  V30 4135 C 386.747 -2.19877 -0.647063 0
M  V30 4136 C 387.747 -1.16642 -1.10686 0
M  V30 4137 O 388.937 -1.41757 -1.01245 0
M  V30 4138 C 386.069 -2.83797 -1.88871 0
M  V30 4139 H 387.262 -2.99772 -0.087574 0
M  V30 4140 H 384.815 -1.56298 -0.00813574 0
M  V30 4141 H 385.55 -2.07824 -2.48957 0
M  V30 4142 H 385.335 -3.59414 -1.56728 0
M  V30 4143 H 386.825 -3.32898 -2.52129 0
M  V30 4144 N 387.262 0.0317525 -1.57568 0
M  V30 4145 C 388.487 0.738664 -1.938 0
M  V30 4146 C 388.912 1.68242 -0.841208 0
M  V30 4147 O 388.27 1.80157 0.203267 0
M  V30 4148 C 388.318 1.47417 -3.29091 0
M  V30 4149 O 387.422 2.5872 -3.2115 0
M  V30 4150 H 386.763 0.198856 -0.633524 0
M  V30 4151 H 389.293 -0.0119713 -2.04596 0
M  V30 4152 H 389.303 1.84468 -3.63917 0
M  V30 4153 H 387.978 0.781988 -4.08482 0
M  V30 4154 H 386.555 2.24231 -2.97951 0
M  V30 4155 N 388.74 1.54641 0.303973 0
M  V30 4156 C 389.65 1.88439 1.39743 0
M  V30 4157 C 390.666 0.778239 1.55626 0
M  V30 4158 O 391.842 1.07442 1.70347 0
M  V30 4159 C 388.907 2.12212 2.74166 0
M  V30 4160 C 387.968 3.35936 2.67293 0
M  V30 4161 C 387.201 3.58566 3.95305 0
M  V30 4162 O 387.424 2.84263 4.9452 0
M  V30 4163 O 386.358 4.52078 3.97378 0
M  V30 4164 H 390.184 2.81458 1.14083 0
M  V30 4165 H 387.769 1.40793 0.499768 0
M  V30 4166 H 389.651 2.29067 3.53704 0
M  V30 4167 H 388.326 1.22379 2.99675 0
M  V30 4168 H 387.233 3.24448 1.86237 0
M  V30 4169 H 388.566 4.2589 2.46736 0
M  V30 4170 N 390.218 -0.567019 1.47046 0
M  V30 4171 C 391.465 -1.32462 1.53167 0
M  V30 4172 C 391.793 -1.93571 0.189841 0
M  V30 4173 O 391.048 -1.77865 -0.816243 0
M  V30 4174 C 391.347 -2.4623 2.59047 0
M  V30 4175 C 391.013 -2.03014 4.02612 0
M  V30 4176 C 389.675 -1.90944 4.41694 0
M  V30 4177 C 392.027 -1.69895 4.92732 0
M  V30 4178 C 389.355 -1.44035 5.68745 0
M  V30 4179 C 391.707 -1.2446 6.20236 0
M  V30 4180 C 390.371 -1.10979 6.5821 0
M  V30 4181 H 389.641 -0.484713 0.560477 0
M  V30 4182 H 392.288 -0.636888 1.80599 0
M  V30 4183 H 390.593 -3.20517 2.25335 0
M  V30 4184 H 392.29 -3.04427 2.61008 0
M  V30 4185 H 388.88 -2.13348 3.71726 0
M  V30 4186 H 393.064 -1.78098 4.63244 0
M  V30 4187 H 388.32 -1.32254 5.96925 0
M  V30 4188 H 392.494 -0.978924 6.89485 0
M  V30 4189 H 390.121 -0.744078 7.5655 0
M  V30 4190 N 391.696 -1.35014 -0.812953 0
M  V30 4191 C 392.973 -1.18502 -1.55617 0
M  V30 4192 C 393.353 0.238421 -2.09749 0
M  V30 4193 O 392.701 1.2411 -1.91857 0
M  V30 4194 C 392.911 -2.24783 -2.66971 0
M  V30 4195 C 394.259 -2.60268 -3.35478 0
M  V30 4196 O 395.283 -2.23648 -2.77236 0
M  V30 4197 O 394.142 -3.2321 -4.40678 0
M  V30 4198 H 391.236 -0.459984 -0.687272 0
M  V30 4199 H 393.782 -1.46677 -0.853464 0
M  V30 4200 H 392.554 -3.20284 -2.24798 0
M  V30 4201 H 392.177 -1.97841 -3.44884 0
M  V30 4202 N 393.175 1.03435 -1.18907 0
M  V30 4203 C 394.085 2.15075 -0.937015 0
M  V30 4204 C 395.101 1.73706 0.101085 0
M  V30 4205 O 396.277 2.01232 -0.0822948 0
M  V30 4206 C 393.342 3.43458 -0.473057 0
M  V30 4207 C 392.403 3.99172 -1.57989 0
M  V30 4208 C 391.636 5.21427 -1.13797 0
M  V30 4209 O 391.859 5.704 0.000725941 0
M  V30 4210 O 390.793 5.69837 -1.9383 0
M  V30 4211 H 394.619 2.39198 -1.87131 0
M  V30 4212 H 392.204 1.13506 -0.971427 0
M  V30 4213 H 394.086 4.20811 -0.222702 0
M  V30 4214 H 392.761 3.20793 0.432869 0
M  V30 4215 H 391.668 3.23178 -1.88433 0
M  V30 4216 H 393.001 4.2619 -2.46217 0
M  V30 4217 N 394.653 0.992116 1.22453 0
M  V30 4218 C 395.899 0.678177 1.91761 0
M  V30 4219 C 396.254 -0.781141 1.75829 0
M  V30 4220 O 395.547 -1.55747 1.11595 0
M  V30 4221 C 395.741 1.01832 3.42586 0
M  V30 4222 C 395.57 2.50916 3.73191 0
M  V30 4223 C 394.34 3.17308 3.93248 0
M  V30 4224 C 396.538 3.49032 3.77732 0
M  V30 4225 N 394.52 4.55876 4.11157 0
M  V30 4226 C 395.891 4.73055 4.00773 0
M  V30 4227 C 397.946 3.43349 3.60577 0
M  V30 4228 C 396.649 5.92089 4.0844 0
M  V30 4229 C 398.675 4.61759 3.69503 0
M  V30 4230 C 398.037 5.84582 3.92993 0
M  V30 4231 H 394.136 0.299425 0.722405 0
M  V30 4232 H 396.72 1.27197 1.47408 0
M  V30 4233 H 394.891 0.453118 3.85748 0
M  V30 4234 H 396.623 0.660454 3.99274 0
M  V30 4235 H 393.378 2.67778 3.9063 0
M  V30 4236 H 393.802 5.27748 4.24042 0
M  V30 4237 H 398.444 2.49408 3.41402 0
M  V30 4238 H 396.162 6.86435 4.26418 0
M  V30 4239 H 399.748 4.58951 3.57569 0
M  V30 4240 H 398.628 6.74676 3.99728 0
M  V30 4241 N 396.131 -1.37776 0.765217 0
M  V30 4242 C 397.041 -2.34135 0.147666 0
M  V30 4243 C 398.057 -1.59854 -0.687215 0
M  V30 4244 O 399.233 -1.91983 -0.608659 0
M  V30 4245 C 396.298 -3.3901 -0.72617 0
M  V30 4246 C 395.359 -4.2912 0.124417 0
M  V30 4247 C 394.592 -5.28986 -0.707807 0
M  V30 4248 O 394.815 -5.36205 -1.94525 0
M  V30 4249 O 393.749 -6.01779 -0.12046 0
M  V30 4250 H 397.575 -2.88664 0.943758 0
M  V30 4251 H 395.16 -1.39824 0.526277 0
M  V30 4252 H 397.042 -4.03195 -1.22524 0
M  V30 4253 H 395.717 -2.86819 -1.50056 0
M  V30 4254 H 394.624 -3.68057 0.669696 0
M  V30 4255 H 395.957 -4.84598 0.861736 0
M  V30 4256 N 397.609 -0.515225 -1.4894 0
M  V30 4257 C 399.02 -0.0710067 -1.86565 0
M  V30 4258 C 399.371 1.34733 -1.42623 0
M  V30 4259 O 398.496 2.00653 -0.810379 0
M  V30 4260 C 399.091 -0.122083 -3.3858 0
M  V30 4261 C 397.65 0.266863 -3.75453 0
M  V30 4262 C 396.797 -0.488376 -2.72966 0
M  V30 4263 H 399.748 -0.727266 -1.41055 0
M  V30 4264 H 399.769 0.669818 -3.74558 0
M  V30 4265 H 399.281 -1.15448 -3.70531 0
M  V30 4266 H 397.382 1.30196 -3.49113 0
M  V30 4267 H 397.495 -0.0624811 -4.79059 0
M  V30 4268 H 395.859 0.0635622 -2.54621 0
M  V30 4269 H 396.642 -1.52113 -3.07761 0
M  V30 4270 N 399.087 1.5561 -0.249682 0
M  V30 4271 C 399.997 2.25143 0.659375 0
M  V30 4272 C 401.013 1.2685 1.19101 0
M  V30 4273 O 402.189 1.59732 1.22669 0
M  V30 4274 C 399.254 2.93945 1.8384 0
M  V30 4275 C 398.315 4.07655 1.34596 0
M  V30 4276 C 397.548 4.73167 2.46878 0
M  V30 4277 O 397.771 4.37768 3.65671 0
M  V30 4278 O 396.705 5.61623 2.16478 0
M  V30 4279 H 400.531 3.03545 0.0968698 0
M  V30 4280 H 398.116 1.49389 -0.018074 0
M  V30 4281 H 399.998 3.37271 2.52638 0
M  V30 4282 H 398.673 2.18481 2.38847 0
M  V30 4283 H 397.58 3.68839 0.625174 0
M  V30 4284 H 398.913 4.84946 0.841941 0
M  V30 4285 N 400.565 -0.0233959 1.57583 0
M  V30 4286 C 401.813 -0.711654 1.89156 0
M  V30 4287 C 402.134 -1.75591 0.848096 0
M  V30 4288 O 401.404 -1.95547 -0.117566 0
M  V30 4289 H 399.984 -0.265835 0.698098 0
M  V30 4290 H 402.646 0.0119948 1.94896 0
M  V30 4291 H 401.742 -1.19766 2.88206 0
M  V30 4292 N 402.043 -1.548 -0.295768 0
M  V30 4293 C 403.271 -1.78327 -1.04914 0
M  V30 4294 C 403.686 -0.545316 -1.80753 0
M  V30 4295 O 403.043 0.485013 -1.75937 0
M  V30 4296 C 403.094 -2.99418 -2.02561 0
M  V30 4297 O 402.815 -4.18431 -1.29798 0
M  V30 4298 C 404.316 -3.35375 -2.89895 0
M  V30 4299 H 401.536 -0.594618 -0.310918 0
M  V30 4300 H 404.08 -2.01763 -0.333454 0
M  V30 4301 H 402.235 -2.78175 -2.69624 0
M  V30 4302 H 402.649 -4.86736 -1.95419 0
M  V30 4303 H 404.123 -4.23332 -3.54251 0
M  V30 4304 H 404.6 -2.53761 -3.58472 0
M  V30 4305 H 405.206 -3.58796 -2.28355 0
M  V30 4306 N 403.521 0.559213 -1.47345 0
M  V30 4307 C 404.749 1.34194 -1.57479 0
M  V30 4308 C 405.164 1.87463 -0.224261 0
M  V30 4309 O 404.521 1.64888 0.782185 0
M  V30 4310 C 404.572 2.51324 -2.59843 0
M  V30 4311 O 404.293 2.00256 -3.89653 0
M  V30 4312 C 405.794 3.43563 -2.80142 0
M  V30 4313 H 403.014 0.409136 -0.531835 0
M  V30 4314 H 405.558 0.677609 -1.92947 0
M  V30 4315 H 403.713 3.13699 -2.27314 0
M  V30 4316 H 404.127 2.76708 -4.4557 0
M  V30 4317 H 405.601 4.2217 -3.55635 0
M  V30 4318 H 406.078 3.9698 -1.87892 0
M  V30 4319 H 406.684 2.87005 -3.1386 0
M  V30 4320 N 404.999 1.35443 0.805782 0
M  V30 4321 C 405.929 1.31095 1.93226 0
M  V30 4322 C 406.91 0.185244 1.69088 0
M  V30 4323 O 408.095 0.380332 1.90439 0
M  V30 4324 C 405.225 1.08299 3.29983 0
M  V30 4325 C 404.179 2.17519 3.68605 0
M  V30 4326 C 403.505 1.79887 5.03532 0
M  V30 4327 C 404.805 3.5949 3.78898 0
M  V30 4328 H 406.499 2.25352 1.97122 0
M  V30 4329 H 404.045 1.0848 0.946996 0
M  V30 4330 H 405.998 1.03897 4.08391 0
M  V30 4331 H 404.722 0.104885 3.26432 0
M  V30 4332 H 403.381 2.2102 2.92482 0
M  V30 4333 H 403.029 0.80693 4.96485 0
M  V30 4334 H 402.729 2.53001 5.30344 0
M  V30 4335 H 404.253 1.77011 5.84379 0
M  V30 4336 H 405.667 3.58307 4.47536 0
M  V30 4337 H 404.064 4.31371 4.1718 0
M  V30 4338 H 405.134 3.95584 2.80431 0
M  V30 4339 N 406.477 -1.02803 1.19454 0
M  V30 4340 C 407.387 -2.14575 0.948408 0
M  V30 4341 C 408.403 -1.73757 -0.091871 0
M  V30 4342 O 409.579 -2.01185 0.0929654 0
M  V30 4343 C 406.644 -3.43202 0.491265 0
M  V30 4344 C 405.705 -3.98328 1.60103 0
M  V30 4345 C 404.938 -5.20816 1.16561 0
M  V30 4346 O 405.161 -5.70392 0.0295238 0
M  V30 4347 O 404.095 -5.68801 1.96849 0
M  V30 4348 H 407.921 -2.38202 1.88397 0
M  V30 4349 H 405.506 -1.12989 0.977433 0
M  V30 4350 H 407.388 -4.20687 0.245015 0
M  V30 4351 H 406.063 -3.21018 -0.415851 0
M  V30 4352 H 404.97 -3.22174 1.90144 0
M  V30 4353 H 406.303 -4.24879 2.48473 0
M  V30 4354 N 407.956 -0.998596 -1.21925 0
M  V30 4355 C 409.204 -0.676325 -1.90448 0
M  V30 4356 C 409.525 0.794719 -1.78071 0
M  V30 4357 O 408.795 1.5701 -1.17152 0
M  V30 4358 H 407.375 -0.247165 -0.704925 0
M  V30 4359 H 410.037 -1.26633 -1.48156 0
M  V30 4360 H 409.133 -0.943858 -2.97486 0
M  V30 4361 N 409.434 1.37368 -0.772513 0
M  V30 4362 C 410.845 1.8231 -0.402493 0
M  V30 4363 C 411.196 1.6436 1.07146 0
M  V30 4364 O 410.321 1.15514 1.82991 0
M  V30 4365 C 410.916 3.30979 -0.723776 0
M  V30 4366 C 409.475 3.74195 -0.406802 0
M  V30 4367 C 408.622 2.59885 -0.967218 0
M  V30 4368 H 411.573 1.25829 -0.967099 0
M  V30 4369 H 411.594 3.80499 -0.00870832 0
M  V30 4370 H 411.106 3.44011 -1.7966 0
M  V30 4371 H 409.207 3.66732 0.658673 0
M  V30 4372 H 409.32 4.7027 -0.915588 0
M  V30 4373 H 407.684 2.51674 -0.391416 0
M  V30 4374 H 408.467 2.7571 -2.04546 0
M  V30 4375 N 410.912 0.523116 1.48665 0
M  V30 4376 C 412.158 -0.0134963 2.02796 0
M  V30 4377 C 412.491 -1.34582 1.40004 0
M  V30 4378 O 411.766 -1.86756 0.543381 0
M  V30 4379 C 412.049 -0.14276 3.59817 0
M  V30 4380 C 411.902 1.21425 4.331 0
M  V30 4381 C 413.221 -0.872856 4.31357 0
M  V30 4382 H 410.34 -0.00343074 0.736992 0
M  V30 4383 H 412.982 0.678816 1.7746 0
M  V30 4384 H 411.132 -0.732401 3.81534 0
M  V30 4385 H 412.804 1.84447 4.2282 0
M  V30 4386 H 411.047 1.79791 3.94788 0
M  V30 4387 H 411.718 1.07687 5.41394 0
M  V30 4388 H 414.194 -0.372555 4.14429 0
M  V30 4389 H 413.07 -0.932185 5.40927 0
M  V30 4390 H 413.331 -1.92161 3.98154 0
M  V30 4391 N 412.39 -1.55475 0.257931 0
M  V30 4392 C 413.618 -2.03609 -0.367559 0
M  V30 4393 C 414.033 -1.13687 -1.50734 0
M  V30 4394 O 413.39 -0.153479 -1.81853 0
M  V30 4395 C 413.441 -3.51001 -0.864908 0
M  V30 4396 O 413.162 -4.37499 0.229465 0
M  V30 4397 C 414.663 -4.14946 -1.55997 0
M  V30 4398 H 411.883 -0.665459 -0.0860521 0
M  V30 4399 H 414.427 -2.00843 0.385014 0
M  V30 4400 H 412.582 -3.54266 -1.56762 0
M  V30 4401 H 412.996 -5.24286 -0.14998 0
M  V30 4402 H 414.47 -5.19735 -1.85956 0
M  V30 4403 H 414.947 -3.6209 -2.4857 0
M  V30 4404 H 415.553 -4.15635 -0.901543 0
M  V30 4405 N 413.868 0.0150385 -1.57593 0
M  V30 4406 C 414.831 0.995996 -2.06428 0
M  V30 4407 C 415.831 1.2818 -0.970903 0
M  V30 4408 O 417.021 1.22949 -1.23406 0
M  V30 4409 C 414.153 2.32506 -2.49307 0
M  V30 4410 H 415.346 0.573873 -2.94358 0
M  V30 4411 H 412.899 0.262186 -1.54085 0
M  V30 4412 H 413.634 2.79438 -1.64575 0
M  V30 4413 H 413.419 2.13087 -3.29145 0
M  V30 4414 H 414.909 3.02906 -2.87468 0
M  V30 4415 N 415.346 1.54954 0.287554 0
M  V30 4416 C 416.592 1.75132 1.02257 0
M  V30 4417 C 416.925 0.542858 1.86458 0
M  V30 4418 O 416.2 -0.459856 1.88986 0
M  V30 4419 C 416.483 3.04812 1.91733 0
M  V30 4420 C 416.336 4.35985 1.10622 0
M  V30 4421 C 417.655 3.30438 2.90687 0
M  V30 4422 H 414.774 0.637194 0.370341 0
M  V30 4423 H 417.416 1.87678 0.296111 0
M  V30 4424 H 415.566 2.94247 2.53675 0
M  V30 4425 H 417.238 4.58487 0.508636 0
M  V30 4426 H 415.481 4.31865 0.409271 0
M  V30 4427 H 416.152 5.23017 1.76513 0
M  V30 4428 H 418.628 3.40701 2.38877 0
M  V30 4429 H 417.504 4.22467 3.50447 0
M  V30 4430 H 417.765 2.49377 3.65053 0
M  V30 4431 N 416.824 -0.551391 1.4764 0
M  V30 4432 C 418.073 -1.30467 1.53822 0
M  V30 4433 C 418.386 -1.94495 0.207661 0
M  V30 4434 O 419.592 -2.71099 0.147533 0
M  V30 4435 C 418.048 -2.36616 2.71184 0
M  V30 4436 C 417.656 -1.78754 4.10793 0
M  V30 4437 C 419.4 -3.13088 2.86663 0
M  V30 4438 C 417.307 -2.82717 5.19447 0
M  V30 4439 H 416.237 -0.490584 0.572576 0
M  V30 4440 H 418.888 -0.58494 1.73927 0
M  V30 4441 H 417.27 -3.11529 2.4447 0
M  V30 4442 H 418.444 -1.10173 4.47435 0
M  V30 4443 H 416.759 -1.14846 4.00249 0
M  V30 4444 H 419.356 -3.90736 3.65007 0
M  V30 4445 H 419.699 -3.67635 1.95321 0
M  V30 4446 H 420.232 -2.45288 3.13175 0
M  V30 4447 H 416.971 -2.33018 6.12685 0
M  V30 4448 H 416.491 -3.4969 4.87316 0
M  V30 4449 H 418.17 -3.46102 5.46646 0
M  V30 4450 N 418.302 -1.35869 -0.798587 0
M  V30 4451 C 419.713 -1.26498 -1.37314 0
M  V30 4452 C 420.064 0.0991899 -1.95949 0
M  V30 4453 O 419.189 1.0004 -1.91888 0
M  V30 4454 C 419.784 -2.29054 -2.49639 0
M  V30 4455 C 418.343 -2.234 -3.02935 0
M  V30 4456 C 417.49 -2.14329 -1.75949 0
M  V30 4457 H 420.441 -1.46881 -0.600971 0
M  V30 4458 H 420.462 -1.92166 -3.28409 0
M  V30 4459 H 419.974 -3.2833 -2.06933 0
M  V30 4460 H 418.075 -1.27562 -3.50084 0
M  V30 4461 H 418.188 -3.15703 -3.60372 0
M  V30 4462 H 416.552 -1.60435 -1.9782 0
M  V30 4463 H 417.335 -3.15477 -1.35384 0
M  V30 4464 N 419.78 1.02168 -1.19998 0
M  V30 4465 C 421.008 1.79296 -1.03249 0
M  V30 4466 C 421.423 1.84103 0.418502 0
M  V30 4467 O 420.78 1.29031 1.29063 0
M  V30 4468 C 420.831 3.24007 -1.60319 0
M  V30 4469 O 420.552 3.19512 -2.99739 0
M  V30 4470 C 422.053 4.17704 -1.48453 0
M  V30 4471 H 419.273 0.564016 -0.363493 0
M  V30 4472 H 421.817 1.28639 -1.58973 0
M  V30 4473 H 419.972 3.7183 -1.08727 0
M  V30 4474 H 420.386 4.10306 -3.26725 0
M  V30 4475 H 421.86 5.17104 -1.93153 0
M  V30 4476 H 422.337 4.37029 -0.436193 0
M  V30 4477 H 422.943 3.7576 -1.99211 0
M  V30 4478 N 421.258 1.00505 1.21394 0
M  V30 4479 C 422.504 0.698477 1.91031 0
M  V30 4480 C 422.859 -0.762448 1.76648 0
M  V30 4481 O 422.152 -1.54554 1.13241 0
M  V30 4482 C 422.346 1.0546 3.41486 0
M  V30 4483 C 422.175 2.5486 3.70508 0
M  V30 4484 C 420.945 3.21461 3.8986 0
M  V30 4485 C 423.143 3.53019 3.74008 0
M  V30 4486 N 421.125 4.60211 4.06299 0
M  V30 4487 C 422.496 4.77279 3.95733 0
M  V30 4488 C 424.551 3.47154 3.56915 0
M  V30 4489 C 423.254 5.96388 4.02137 0
M  V30 4490 C 425.28 4.65652 3.64585 0
M  V30 4491 C 424.642 5.88717 3.86771 0
M  V30 4492 H 420.741 0.30707 0.719189 0
M  V30 4493 H 423.325 1.28753 1.46051 0
M  V30 4494 H 421.496 0.494007 3.85246 0
M  V30 4495 H 423.228 0.702765 3.98552 0
M  V30 4496 H 419.983 2.71906 3.87768 0
M  V30 4497 H 420.407 5.32216 4.1842 0
M  V30 4498 H 425.049 2.53015 3.38738 0
M  V30 4499 H 422.767 6.90919 4.19114 0
M  V30 4500 H 426.353 4.62717 3.52681 0
M  V30 4501 H 425.233 6.78877 3.92549 0
M  V30 4502 N 422.737 -1.36956 0.779787 0
M  V30 4503 C 423.669 -2.28833 0.129639 0
M  V30 4504 C 424.682 -1.4902 -0.655511 0
M  V30 4505 O 425.871 -1.71578 -0.492279 0
M  V30 4506 C 422.971 -3.2833 -0.839792 0
M  V30 4507 C 422.144 -4.3727 -0.10675 0
M  V30 4508 C 421.203 -5.16789 -0.990717 0
M  V30 4509 O 420.229 -5.67406 -0.451516 0
M  V30 4510 N 421.431 -5.32294 -2.3161 0
M  V30 4511 H 424.196 -2.85268 0.918803 0
M  V30 4512 H 421.757 -1.49019 0.632841 0
M  V30 4513 H 423.749 -3.78413 -1.43477 0
M  V30 4514 H 422.319 -2.72605 -1.52988 0
M  V30 4515 H 421.539 -3.88478 0.669216 0
M  V30 4516 H 422.827 -5.07229 0.399464 0
M  V30 4517 H 422.225 -4.92768 -2.77843 0
M  V30 4518 H 420.782 -5.85656 -2.86095 0
M  V30 4519 N 424.215 -0.530993 -1.48385 0
M  V30 4520 C 425.178 0.220497 -2.28137 0
M  V30 4521 C 426.178 0.866851 -1.35434 0
M  V30 4522 O 427.368 0.726746 -1.58316 0
M  V30 4523 C 424.5 1.31921 -3.1434 0
M  V30 4524 H 425.693 -0.479714 -2.96038 0
M  V30 4525 H 423.246 -0.286968 -1.53643 0
M  V30 4526 H 423.981 2.05264 -2.51072 0
M  V30 4527 H 423.766 0.86085 -3.82533 0
M  V30 4528 H 425.256 1.84776 -3.74497 0
M  V30 4529 N 425.693 1.55336 -0.266172 0
M  V30 4530 C 426.623 2.25146 0.618981 0
M  V30 4531 C 427.604 1.23845 1.16604 0
M  V30 4532 O 428.789 1.52544 1.20183 0
M  V30 4533 C 425.919 2.96572 1.80728 0
M  V30 4534 C 424.873 4.04726 1.39215 0
M  V30 4535 C 424.199 4.63678 2.66283 0
M  V30 4536 C 425.499 5.19407 0.548942 0
M  V30 4537 H 427.193 2.99377 0.0368116 0
M  V30 4538 H 424.739 1.43991 0.0162651 0
M  V30 4539 H 426.692 3.44116 2.43232 0
M  V30 4540 H 425.416 2.19861 2.41514 0
M  V30 4541 H 424.075 3.57979 0.790351 0
M  V30 4542 H 423.723 3.83646 3.25308 0
M  V30 4543 H 423.423 5.367 2.39222 0
M  V30 4544 H 424.947 5.13967 3.29651 0
M  V30 4545 H 426.361 5.63059 1.07876 0
M  V30 4546 H 424.758 5.98936 0.373593 0
M  V30 4547 H 425.828 4.8295 -0.434394 0
M  V30 4548 N 427.171 -0.0066808 1.57599 0
M  V30 4549 C 428.399 -0.704087 1.94551 0
M  V30 4550 C 428.814 -1.67677 0.867746 0
M  V30 4551 O 428.171 -1.8185 -0.153925 0
M  V30 4552 C 428.222 -1.44177 3.31505 0
M  V30 4553 O 427.943 -0.508097 4.35144 0
M  V30 4554 C 429.444 -2.23429 3.82876 0
M  V30 4555 H 426.664 -0.196523 0.641576 0
M  V30 4556 H 429.208 0.042453 2.04456 0
M  V30 4557 H 427.363 -2.13999 3.22929 0
M  V30 4558 H 427.777 -1.02782 5.14331 0
M  V30 4559 H 429.251 -2.70552 4.8115 0
M  V30 4560 H 429.728 -3.05818 3.15233 0
M  V30 4561 H 430.334 -1.58636 3.94607 0
M  V30 4562 N 428.649 -1.55105 -0.279332 0
M  V30 4563 C 429.877 -1.7943 -1.03017 0
M  V30 4564 C 430.292 -0.564456 -1.80165 0
M  V30 4565 O 429.649 0.466326 -1.76442 0
M  V30 4566 C 429.7 -3.0155 -1.99374 0
M  V30 4567 O 429.421 -4.19784 -1.25352 0
M  V30 4568 C 430.922 -3.3843 -2.86321 0
M  V30 4569 H 428.142 -0.597882 -0.304594 0
M  V30 4570 H 430.686 -2.02105 -0.312035 0
M  V30 4571 H 428.841 -2.81019 -2.66659 0
M  V30 4572 H 429.255 -4.88781 -1.90246 0
M  V30 4573 H 430.729 -4.27066 -3.49741 0
M  V30 4574 H 431.206 -2.57549 -3.5576 0
M  V30 4575 H 431.812 -3.61197 -2.24536 0
M  V30 4576 N 430.127 0.543554 -1.4793 0
M  V30 4577 C 431.057 1.65888 -1.64327 0
M  V30 4578 C 432.038 1.62818 -0.492383 0
M  V30 4579 O 433.223 1.80226 -0.723338 0
M  V30 4580 C 430.353 3.04506 -1.67013 0
M  V30 4581 C 429.307 3.2243 -2.81466 0
M  V30 4582 C 428.633 4.61972 -2.69233 0
M  V30 4583 C 429.933 3.06496 -4.22915 0
M  V30 4584 H 431.627 1.52421 -2.57698 0
M  V30 4585 H 429.173 0.731849 -1.24016 0
M  V30 4586 H 431.126 3.82391 -1.77074 0
M  V30 4587 H 429.85 3.18964 -0.70212 0
M  V30 4588 H 428.509 2.46957 -2.70938 0
M  V30 4589 H 428.157 4.73247 -1.7043 0
M  V30 4590 H 427.857 4.74911 -3.46025 0
M  V30 4591 H 429.381 5.41974 -2.81242 0
M  V30 4592 H 430.795 3.74186 -4.34348 0
M  V30 4593 H 429.192 3.30938 -5.006 0
M  V30 4594 H 430.262 2.03077 -4.40327 0
M  V30 4595 N 431.605 1.3629 0.791371 0
M  V30 4596 C 432.882 1.20962 1.53712 0
M  V30 4597 C 433.262 -0.205021 2.10102 0
M  V30 4598 O 432.61 -1.21042 1.93807 0
M  V30 4599 C 432.82 2.29002 2.63361 0
M  V30 4600 C 434.168 2.65572 3.31295 0
M  V30 4601 O 435.192 2.2803 2.73643 0
M  V30 4602 O 434.051 3.3018 4.35481 0
M  V30 4603 H 431.145 0.47086 0.679867 0
M  V30 4604 H 433.691 1.48016 0.830021 0
M  V30 4605 H 432.463 3.2382 2.19674 0
M  V30 4606 H 432.086 2.03303 3.41692 0
M  V30 4607 N 433.083 -1.0153 1.20538 0
M  V30 4608 C 434.013 -2.11972 0.979295 0
M  V30 4609 C 434.994 -1.6985 -0.0921787 0
M  V30 4610 O 436.179 -1.94089 0.0655932 0
M  V30 4611 C 433.309 -3.43201 0.531984 0
M  V30 4612 C 432.263 -3.9907 1.54685 0
M  V30 4613 C 431.589 -5.26082 0.956127 0
M  V30 4614 C 432.889 -4.32313 2.93092 0
M  V30 4615 H 434.583 -2.31143 1.90298 0
M  V30 4616 H 432.129 -1.11079 0.916372 0
M  V30 4617 H 434.082 -4.1985 0.361044 0
M  V30 4618 H 432.806 -3.23792 -0.427327 0
M  V30 4619 H 431.465 -3.2453 1.70517 0
M  V30 4620 H 431.113 -5.02999 -0.0111538 0
M  V30 4621 H 430.813 -5.64426 1.63393 0
M  V30 4622 H 432.337 -6.05386 0.796284 0
M  V30 4623 H 433.751 -4.99845 2.80763 0
M  V30 4624 H 432.148 -4.81774 3.57791 0
M  V30 4625 H 433.218 -3.41025 3.44717 0
M  V30 4626 N 434.561 -1.01147 -1.20859 0
M  V30 4627 C 435.786 -0.716698 -1.94623 0
M  V30 4628 C 436.211 0.715415 -1.73964 0
M  V30 4629 O 435.569 1.49157 -1.03062 0
M  V30 4630 C 435.617 -1.0513 -3.44935 0
M  V30 4631 O 434.721 -0.160131 -4.12089 0
M  V30 4632 H 434.062 -0.266404 -0.608214 0
M  V30 4633 H 436.592 -1.35346 -1.53436 0
M  V30 4634 H 436.602 -1.00086 -3.95533 0
M  V30 4635 H 435.277 -2.09475 -3.59295 0
M  V30 4636 H 433.854 -0.267657 -3.71938 0
M  V30 4637 N 436.039 1.36541 -0.78704 0
M  V30 4638 C 436.989 2.27459 -0.156957 0
M  V30 4639 C 437.973 1.46843 0.657709 0
M  V30 4640 O 439.165 1.69245 0.518173 0
M  V30 4641 C 436.294 3.35893 0.709278 0
M  V30 4642 C 435.38 4.23947 -0.114049 0
M  V30 4643 N 435.771 4.92145 -1.16736 0
M  V30 4644 C 434.069 4.4587 0.107497 0
M  V30 4645 C 434.77 5.57261 -1.66837 0
M  V30 4646 N 433.746 5.3473 -0.977992 0
M  V30 4647 H 437.548 2.77669 -0.963185 0
M  V30 4648 H 435.062 1.49839 -0.62627 0
M  V30 4649 H 437.059 3.99953 1.17656 0
M  V30 4650 H 435.719 2.87238 1.51408 0
M  V30 4651 H 436.73 4.94169 -1.54976 0
M  V30 4652 H 433.407 4.08056 0.882994 0
M  V30 4653 H 434.797 6.21728 -2.54762 0
M  V30 4654 N 437.518 0.538854 1.48102 0
M  V30 4655 C 438.466 -0.232325 2.31437 0
M  V30 4656 C 439.46 -0.927004 1.41785 0
M  V30 4657 O 440.666 -0.850378 1.58646 0
M  V30 4658 H 437.041 -0.0937916 0.746128 0
M  V30 4659 H 439.012 0.489986 2.9435 0
M  V30 4660 C 437.761 -1.26074 3.24038 0
M  V30 4661 H 437.084 -0.735609 3.92974 0
M  V30 4662 H 438.524 -1.77157 3.85216 0
M  V30 4663 C 436.983 -2.29902 2.46265 0
M  V30 4664 O 437.513 -3.36502 2.19384 0
M  V30 4665 N 435.719 -2.03348 2.07601 0
M  V30 4666 H 435.266 -1.16675 2.29662 0
M  V30 4667 H 435.224 -2.73038 1.55877 0
M  V30 4668 N 438.996 -1.55193 0.274407 0
M  V30 4669 C 440.221 -2.04446 -0.348824 0
M  V30 4670 C 440.646 -1.15149 -1.48735 0
M  V30 4671 O 440.004 -0.149952 -1.80679 0
M  V30 4672 C 440.052 -3.51431 -0.808009 0
M  V30 4673 O 439.156 -3.65225 -1.91531 0
M  V30 4674 H 438.497 -0.66006 -0.0722276 0
M  V30 4675 H 441.027 -2.00481 0.408498 0
M  V30 4676 H 441.037 -3.92781 -1.10395 0
M  V30 4677 H 439.712 -4.15892 0.0249865 0
M  V30 4678 H 438.289 -3.35778 -1.62196 0
M  V30 4679 N 440.474 -0.00167713 -1.576 0
M  V30 4680 C 441.72 0.683832 -1.90923 0
M  V30 4681 C 442.053 1.7333 -0.875799 0
M  V30 4682 O 441.328 1.94215 0.10525 0
M  V30 4683 C 441.611 1.32543 -3.3482 0
M  V30 4684 C 441.464 0.287387 -4.48881 0
M  V30 4685 C 442.783 2.25114 -3.78169 0
M  V30 4686 H 439.902 0.247125 -0.694333 0
M  V30 4687 H 442.544 -0.0533149 -1.89925 0
M  V30 4688 H 440.694 1.95372 -3.35801 0
M  V30 4689 H 442.366 -0.341346 -4.60035 0
M  V30 4690 H 440.609 -0.39017 -4.32042 0
M  V30 4691 H 441.28 0.775393 -5.46527 0
M  V30 4692 H 443.756 1.723 -3.7875 0
M  V30 4693 H 442.632 2.66971 -4.79602 0
M  V30 4694 H 442.893 3.13092 -3.12131 0
M  V30 4695 N 441.952 1.55251 0.271103 0
M  V30 4696 C 443.177 1.80306 1.02491 0
M  V30 4697 C 443.602 0.575457 1.79081 0
M  V30 4698 O 442.96 -0.474987 1.74967 0
M  V30 4699 C 443.008 3.02832 1.95768 0
M  V30 4700 O 442.112 2.78051 3.04568 0
M  V30 4701 H 441.453 0.595896 0.292923 0
M  V30 4702 H 443.983 2.02397 0.299436 0
M  V30 4703 H 443.993 3.31616 2.37686 0
M  V30 4704 H 442.668 3.9183 1.39434 0
M  V30 4705 H 441.245 2.60369 2.66951 0
M  V30 4706 N 443.43 -0.535701 1.48216 0
M  V30 4707 C 444.34 -1.66785 1.64985 0
M  V30 4708 C 445.356 -1.65654 0.532414 0
M  V30 4709 O 446.532 -1.8471 0.80275 0
M  V30 4710 C 443.597 -3.0326 1.68031 0
M  V30 4711 C 442.658 -3.1529 2.9136 0
M  V30 4712 C 441.891 -4.45255 2.94252 0
M  V30 4713 O 442.114 -5.32011 2.05719 0
M  V30 4714 O 441.048 -4.6153 3.86359 0
M  V30 4715 H 444.874 -1.55576 2.60825 0
M  V30 4716 H 442.459 -0.70815 1.31551 0
M  V30 4717 H 444.341 -3.84436 1.72589 0
M  V30 4718 H 443.016 -3.14805 0.753628 0
M  V30 4719 H 441.923 -2.3343 2.92337 0
M  V30 4720 H 443.256 -3.08658 3.83394 0
M  V30 4721 N 444.908 -1.36708 -0.784132 0
M  V30 4722 C 446.157 -1.30559 -1.53744 0
M  V30 4723 C 446.47 0.111374 -1.95283 0
M  V30 4724 O 447.676 0.29527 -2.6989 0
M  V30 4725 C 446.132 -2.29098 -2.77565 0
M  V30 4726 C 445.74 -3.76258 -2.43174 0
M  V30 4727 C 447.484 -2.31936 -3.55536 0
M  V30 4728 C 445.391 -4.6656 -3.63422 0
M  V30 4729 H 444.321 -0.48518 -0.577162 0
M  V30 4730 H 446.972 -1.62101 -0.859981 0
M  V30 4731 H 445.354 -1.90557 -3.47137 0
M  V30 4732 H 446.528 -4.23565 -1.81465 0
M  V30 4733 H 444.843 -3.76246 -1.78403 0
M  V30 4734 H 447.44 -2.9661 -4.44889 0
M  V30 4735 H 447.783 -1.3294 -3.94503 0
M  V30 4736 H 448.316 -2.6912 -2.92949 0
M  V30 4737 H 445.055 -5.66638 -3.29547 0
M  V30 4738 H 444.575 -4.23966 -4.24279 0
M  V30 4739 H 446.254 -4.8309 -4.30387 0
M  V30 4740 N 446.386 1.0089 -1.21074 0
M  V30 4741 C 447.663 1.71834 -0.934469 0
M  V30 4742 C 448.043 2.0368 0.554753 0
M  V30 4743 O 447.391 1.70742 1.51854 0
M  V30 4744 C 447.601 2.98061 -1.8155 0
M  V30 4745 C 448.949 3.7117 -2.06199 0
M  V30 4746 O 449.973 3.08034 -1.78867 0
M  V30 4747 O 448.832 4.84721 -2.52404 0
M  V30 4748 H 445.926 0.749253 -0.35007 0
M  V30 4749 H 448.472 1.06668 -1.31985 0
M  V30 4750 H 447.244 2.70908 -2.82355 0
M  V30 4751 H 446.867 3.70968 -1.43068 0
M  V30 4752 N 447.864 1.01787 1.20321 0
M  V30 4753 C 448.774 0.598898 2.26827 0
M  V30 4754 C 449.79 -0.36418 1.70146 0
M  V30 4755 O 450.966 -0.224812 2.00141 0
M  V30 4756 C 448.031 -0.0549769 3.46656 0
M  V30 4757 C 447.092 0.954205 4.18561 0
M  V30 4758 C 446.325 0.331439 5.3267 0
M  V30 4759 O 446.548 -0.86851 5.63749 0
M  V30 4760 O 445.482 1.0488 5.92692 0
M  V30 4761 H 449.308 1.48562 2.64883 0
M  V30 4762 H 446.893 0.787434 1.26964 0
M  V30 4763 H 448.775 -0.420102 4.19301 0
M  V30 4764 H 447.45 -0.915876 3.10473 0
M  V30 4765 H 446.357 1.37072 3.48083 0
M  V30 4766 H 447.69 1.78511 4.58688 0
M  V30 4767 N 449.342 -1.36122 0.79427 0
M  V30 4768 C 450.567 -2.03891 0.379871 0
M  V30 4769 C 450.992 -1.59488 -0.997251 0
M  V30 4770 O 450.35 -0.765652 -1.64339 0
M  V30 4771 C 450.398 -3.57687 0.457442 0
M  V30 4772 O 449.502 -4.08931 -0.5338 0
M  V30 4773 H 448.843 -0.6443 0.160541 0
M  V30 4774 H 451.373 -1.73976 1.07673 0
M  V30 4775 H 451.383 -4.06721 0.322792 0
M  V30 4776 H 450.058 -3.89357 1.46199 0
M  V30 4777 H 448.635 -3.71154 -0.360409 0
M  V30 4778 N 450.82 -0.546701 -1.47814 0
M  V30 4779 C 452.066 -0.0187684 -2.02791 0
M  V30 4780 C 452.399 1.32338 -1.42128 0
M  V30 4781 O 451.674 1.85867 -0.573023 0
M  V30 4782 C 451.957 0.0854985 -3.59998 0
M  V30 4783 C 451.81 -1.283 -4.31114 0
M  V30 4784 C 453.129 0.80412 -4.32691 0
M  V30 4785 H 450.248 -0.0082946 -0.736953 0
M  V30 4786 H 452.89 -0.706962 -1.76358 0
M  V30 4787 H 451.04 0.671609 -3.82651 0
M  V30 4788 H 452.712 -1.91151 -4.19832 0
M  V30 4789 H 450.955 -1.86049 -3.91878 0
M  V30 4790 H 451.626 -1.16287 -5.39612 0
M  V30 4791 H 454.102 0.306576 -4.14969 0
M  V30 4792 H 452.978 0.846011 -5.42341 0
M  V30 4793 H 453.239 1.85802 -4.01161 0
M  V30 4794 N 452.299 1.55045 -0.282633 0
M  V30 4795 C 453.246 2.22822 0.601566 0
M  V30 4796 C 454.216 1.20431 1.14392 0
M  V30 4797 O 455.401 1.48996 1.19184 0
M  V30 4798 C 452.541 2.95873 1.77632 0
M  V30 4799 C 451.654 4.12999 1.26711 0
M  V30 4800 C 450.789 4.73676 2.40426 0
M  V30 4801 C 449.828 5.82981 1.86545 0
M  V30 4802 N 448.965 6.3769 2.93762 0
M  V30 4803 H 453.805 2.97995 0.0169528 0
M  V30 4804 H 451.342 1.471 -0.00339964 0
M  V30 4805 H 453.3 3.36447 2.46697 0
M  V30 4806 H 451.93 2.2311 2.33285 0
M  V30 4807 H 450.982 3.77494 0.469314 0
M  V30 4808 H 452.294 4.91803 0.832518 0
M  V30 4809 H 451.448 5.17008 3.17471 0
M  V30 4810 H 450.187 3.94164 2.87203 0
M  V30 4811 H 449.192 5.39092 1.07983 0
M  V30 4812 H 450.417 6.64366 1.40694 0
M  V30 4813 H 448.363 5.61069 3.39908 0
M  V30 4814 H 448.28 7.11788 2.54744 0
M  V30 4815 H 449.548 6.8568 3.7076 0
M  V30 4816 N 453.777 0.010035 1.57597 0
M  V30 4817 C 454.707 -0.976857 2.12084 0
M  V30 4818 C 455.688 -1.35191 1.03235 0
M  V30 4819 O 456.873 -1.43389 1.3097 0
M  V30 4820 C 454.003 -2.26548 2.63236 0
M  V30 4821 C 452.957 -2.03175 3.76701 0
M  V30 4822 C 452.283 -3.38138 4.14206 0
M  V30 4823 C 453.583 -1.38625 5.03568 0
M  V30 4824 H 455.277 -0.523145 2.94794 0
M  V30 4825 H 452.823 -0.250195 1.4181 0
M  V30 4826 H 454.776 -2.95952 2.99984 0
M  V30 4827 H 453.5 -2.74051 1.77661 0
M  V30 4828 H 452.159 -1.36195 3.40362 0
M  V30 4829 H 451.807 -3.83363 3.25641 0
M  V30 4830 H 451.507 -3.23312 4.90656 0
M  V30 4831 H 453.031 -4.08841 4.53521 0
M  V30 4832 H 454.445 -1.98 5.38023 0
M  V30 4833 H 452.842 -1.34256 5.84889 0
M  V30 4834 H 453.912 -0.356722 4.83586 0
M  V30 4835 N 455.255 -1.55392 -0.262866 0
M  V30 4836 C 456.504 -1.75679 -0.990943 0
M  V30 4837 C 456.817 -0.57097 -1.87081 0
M  V30 4838 O 458.023 -0.656486 -2.63444 0
M  V30 4839 C 456.479 -3.10964 -1.81188 0
M  V30 4840 C 456.087 -4.37146 -0.980188 0
M  V30 4841 C 457.831 -3.40597 -2.53365 0
M  V30 4842 C 455.738 -5.63466 -1.7961 0
M  V30 4843 H 454.668 -0.654868 -0.373716 0
M  V30 4844 H 457.319 -1.81841 -0.246203 0
M  V30 4845 H 455.701 -2.98867 -2.59797 0
M  V30 4846 H 456.875 -4.60187 -0.237558 0
M  V30 4847 H 455.19 -4.14731 -0.372497 0
M  V30 4848 H 457.787 -4.32186 -3.14833 0
M  V30 4849 H 458.13 -2.6119 -3.24169 0
M  V30 4850 H 458.663 -3.53838 -1.81779 0
M  V30 4851 H 455.402 -6.4565 -1.13209 0
M  V30 4852 H 454.922 -5.44552 -2.51443 0
M  V30 4853 H 456.601 -6.02139 -2.36723 0
M  V30 4854 N 456.733 0.527833 -1.48498 0
M  V30 4855 C 458.144 1.10975 -1.50138 0
M  V30 4856 C 458.495 1.943 -0.272378 0
M  V30 4857 O 457.62 2.07319 0.620301 0
M  V30 4858 C 458.215 2.01927 -2.72049 0
M  V30 4859 C 456.774 2.55332 -2.76554 0
M  V30 4860 C 455.921 1.32341 -2.43683 0
M  V30 4861 H 458.872 0.312986 -1.55583 0
M  V30 4862 H 458.893 2.86244 -2.50689 0
M  V30 4863 H 458.405 1.41254 -3.61481 0
M  V30 4864 H 456.506 3.19721 -1.91336 0
M  V30 4865 H 456.619 2.94319 -3.78038 0
M  V30 4866 H 454.983 1.63989 -1.94884 0
M  V30 4867 H 455.766 0.734165 -3.35358 0
M  V30 4868 N 458.211 1.37122 0.776871 0
M  V30 4869 C 459.158 1.3247 1.88998 0
M  V30 4870 C 460.128 0.191143 1.64997 0
M  V30 4871 O 461.313 0.379683 1.86984 0
M  V30 4872 C 458.453 1.13241 3.25992 0
M  V30 4873 C 457.566 2.35782 3.61982 0
M  V30 4874 C 456.701 2.09465 4.88158 0
M  V30 4875 C 455.74 3.279 5.16864 0
M  V30 4876 N 454.877 3.01167 6.34226 0
M  V30 4877 H 459.717 2.27642 1.9231 0
M  V30 4878 H 457.254 1.13125 0.94027 0
M  V30 4879 H 459.212 1.00115 4.0501 0
M  V30 4880 H 457.842 0.217186 3.22069 0
M  V30 4881 H 456.894 2.59666 2.77989 0
M  V30 4882 H 458.206 3.24125 3.79137 0
M  V30 4883 H 457.36 1.93341 5.75069 0
M  V30 4884 H 456.099 1.18452 4.73097 0
M  V30 4885 H 455.104 3.44569 4.2843 0
M  V30 4886 H 456.329 4.19757 5.33836 0
M  V30 4887 H 454.275 2.12779 6.20533 0
M  V30 4888 H 454.192 3.83052 6.51772 0
M  V30 4889 H 455.46 2.88649 7.24087 0
M  V30 4890 N 459.689 -1.00246 1.21608 0
M  V30 4891 C 460.938 -1.73476 1.02902 0
M  V30 4892 C 461.251 -1.90643 -0.437561 0
M  V30 4893 O 462.457 -2.61105 -0.74407 0
M  V30 4894 C 460.913 -3.12079 1.79261 0
M  V30 4895 C 460.521 -3.02877 3.30106 0
M  V30 4896 C 462.265 -3.89421 1.68972 0
M  V30 4897 C 460.172 -4.36575 3.98944 0
M  V30 4898 H 459.102 -0.650408 0.381425 0
M  V30 4899 H 461.753 -1.11985 1.45367 0
M  V30 4900 H 460.135 -3.74196 1.2959 0
M  V30 4901 H 461.309 -2.49983 3.87098 0
M  V30 4902 H 459.624 -2.39022 3.40965 0
M  V30 4903 H 462.221 -4.88362 2.17731 0
M  V30 4904 H 462.564 -4.1122 0.648397 0
M  V30 4905 H 463.097 -3.33963 2.16133 0
M  V30 4906 H 459.836 -4.19978 5.03288 0
M  V30 4907 H 459.356 -4.8942 3.4674 0
M  V30 4908 H 461.035 -5.05364 4.04 0
M  V30 4909 N 461.167 -1.02423 -1.1978 0
M  V30 4910 C 462.077 -0.610919 -2.26506 0
M  V30 4911 C 463.093 0.355152 -1.70337 0
M  V30 4912 O 464.269 0.214195 -2.00258 0
M  V30 4913 C 461.334 0.0365921 -3.46681 0
M  V30 4914 C 460.395 -0.976389 -4.18049 0
M  V30 4915 C 459.628 -0.359683 -5.32487 0
M  V30 4916 O 459.851 0.838601 -5.64202 0
M  V30 4917 O 458.785 -1.08022 -5.92127 0
M  V30 4918 H 462.611 -1.49965 -2.64091 0
M  V30 4919 H 460.196 -0.794156 -1.26545 0
M  V30 4920 H 462.078 0.39786 -4.19518 0
M  V30 4921 H 460.753 0.899398 -3.10954 0
M  V30 4922 H 459.66 -1.38916 -3.47352 0
M  V30 4923 H 460.993 -1.80941 -4.57735 0
M  V30 4924 N 462.645 1.35699 -0.801477 0
M  V30 4925 C 463.892 1.98913 -0.379459 0
M  V30 4926 C 464.22 1.63592 1.05204 0
M  V30 4927 O 463.475 0.888563 1.74365 0
M  V30 4928 C 463.774 3.53828 -0.504041 0
M  V30 4929 C 463.44 4.09002 -1.8981 0
M  V30 4930 C 462.102 4.23783 -2.27951 0
M  V30 4931 C 464.454 4.38939 -2.81038 0
M  V30 4932 C 461.782 4.65816 -3.56696 0
M  V30 4933 C 464.134 4.82409 -4.09224 0
M  V30 4934 C 462.798 4.95395 -4.4737 0
M  V30 4935 H 462.068 0.727874 -0.138854 0
M  V30 4936 H 464.715 1.61994 -1.02128 0
M  V30 4937 H 463.02 3.91175 0.221242 0
M  V30 4938 H 464.717 4.00687 -0.158361 0
M  V30 4939 H 461.307 3.97946 -1.59176 0
M  V30 4940 H 465.491 4.27077 -2.52821 0
M  V30 4941 H 460.747 4.74059 -3.86106 0
M  V30 4942 H 464.921 5.04535 -4.80018 0
M  V30 4943 H 462.548 5.27724 -5.47185 0
M  V30 4944 N 464.123 0.554532 1.47522 0
M  V30 4945 C 465.053 -0.182974 2.32782 0
M  V30 4946 C 466.034 -0.911377 1.43624 0
M  V30 4947 O 467.219 -0.892366 1.72483 0
M  V30 4948 C 464.349 -1.21513 3.25349 0
M  V30 4949 C 463.303 -0.603355 4.23726 0
M  V30 4950 C 462.629 -1.73995 5.05598 0
M  V30 4951 C 463.929 0.441121 5.20434 0
M  V30 4952 H 465.623 0.52882 2.94693 0
M  V30 4953 H 463.169 0.255759 1.41711 0
M  V30 4954 H 465.122 -1.73922 3.83835 0
M  V30 4955 H 463.846 -1.95683 2.61487 0
M  V30 4956 H 462.505 -0.10059 3.66462 0
M  V30 4957 H 462.153 -2.47063 4.38143 0
M  V30 4958 H 461.853 -1.3364 5.72201 0
M  V30 4959 H 463.377 -2.26735 5.66942 0
M  V30 4960 H 464.791 0.00319931 5.733 0
M  V30 4961 H 463.188 0.763402 5.95224 0
M  V30 4962 H 464.258 1.33799 4.66075 0
M  V30 4963 N 465.601 -1.54893 0.290851 0
M  V30 4964 C 466.878 -1.91991 -0.373989 0
M  V30 4965 C 467.258 -1.21694 -1.72493 0
M  V30 4966 O 466.606 -0.34917 -2.25816 0
M  V30 4967 C 466.816 -3.45419 -0.498703 0
M  V30 4968 C 468.164 -4.1748 -0.774298 0
M  V30 4969 O 469.188 -3.51398 -0.582908 0
M  V30 4970 O 468.047 -5.3445 -1.14129 0
M  V30 4971 H 465.141 -0.800593 -0.207315 0
M  V30 4972 H 467.687 -1.66297 0.338164 0
M  V30 4973 H 466.459 -3.88688 0.451392 0
M  V30 4974 H 466.082 -3.77117 -1.25972 0
M  V30 4975 N 467.08 -0.0183926 -1.57589 0
M  V30 4976 C 468.01 0.965596 -2.12599 0
M  V30 4977 C 468.991 1.34641 -1.0395 0
M  V30 4978 O 470.176 1.42693 -1.31729 0
M  V30 4979 C 467.306 2.25149 -2.64434 0
M  V30 4980 C 466.26 2.01175 -3.77773 0
M  V30 4981 C 465.586 3.35937 -4.15994 0
M  V30 4982 C 466.886 1.35953 -5.04296 0
M  V30 4983 H 468.58 0.507504 -2.95067 0
M  V30 4984 H 466.126 0.242671 -1.41941 0
M  V30 4985 H 468.079 2.94357 -3.01549 0
M  V30 4986 H 466.803 2.73105 -1.79112 0
M  V30 4987 H 465.462 1.34388 -3.4108 0
M  V30 4988 H 465.11 3.81631 -3.27669 0
M  V30 4989 H 464.81 3.20705 -4.92364 0
M  V30 4990 H 466.334 4.0643 -4.55683 0
M  V30 4991 H 467.748 1.95144 -5.39065 0
M  V30 4992 H 466.145 1.31152 -5.85593 0
M  V30 4993 H 467.215 0.331071 -4.83768 0
M  V30 4994 N 468.558 1.5553 0.254621 0
M  V30 4995 C 469.783 1.81383 1.00573 0
M  V30 4996 C 470.208 0.594419 1.78461 0
M  V30 4997 O 469.566 -0.456403 1.75461 0
M  V30 4998 C 469.614 3.04892 1.92545 0
M  V30 4999 O 468.718 2.81266 3.01601 0
M  V30 5000 H 468.059 0.598969 0.286587 0
M  V30 5001 H 470.589 2.02703 0.277952 0
M  V30 5002 H 470.599 3.34119 2.34155 0
M  V30 5003 H 469.274 3.93287 1.3527 0
M  V30 5004 H 467.851 2.63185 2.64174 0
M  V30 5005 N 470.036 -0.519951 1.48776 0
M  V30 5006 C 470.986 -1.61995 1.60442 0
M  V30 5007 C 471.97 -1.54155 0.460991 0
M  V30 5008 O 473.162 -1.62006 0.712965 0
M  V30 5009 C 470.291 -3.00683 1.65664 0
M  V30 5010 C 469.377 -3.1359 2.8552 0
M  V30 5011 N 469.768 -2.96441 4.09825 0
M  V30 5012 C 468.066 -3.44662 2.83062 0
M  V30 5013 C 468.767 -3.1303 4.90293 0
M  V30 5014 N 467.743 -3.41058 4.23297 0
M  V30 5015 H 471.545 -1.47362 2.54287 0
M  V30 5016 H 469.059 -0.725649 1.45286 0
M  V30 5017 H 471.056 -3.79712 1.72117 0
M  V30 5018 H 469.716 -3.16401 0.729425 0
M  V30 5019 H 470.727 -2.72999 4.40104 0
M  V30 5020 H 467.404 -3.66675 1.9964 0
M  V30 5021 H 468.794 -3.04424 5.98979 0
M  V30 5022 N 471.514 -1.37532 -0.769588 0
M  V30 5023 C 472.462 -1.33561 -1.90432 0
M  V30 5024 C 473.456 -0.224027 -1.67912 0
M  V30 5025 O 474.662 -0.392174 -1.75676 0
M  V30 5026 H 471.037 -0.416279 -0.626271 0
M  V30 5027 H 473.008 -2.29348 -1.90899 0
M  V30 5028 C 471.757 -1.16162 -3.27722 0
M  V30 5029 H 471.08 -2.00951 -3.45628 0
M  V30 5030 H 472.52 -1.17434 -4.07413 0
M  V30 5031 C 470.979 0.132583 -3.36639 0
M  V30 5032 O 471.509 1.11539 -3.85904 0
M  V30 5033 N 469.715 0.184013 -2.90017 0
M  V30 5034 H 469.262 -0.616415 -2.50116 0
M  V30 5035 H 469.22 1.04956 -2.96364 0
M  V30 5036 N 472.992 0.995999 -1.22138 0
M  V30 5037 C 474.24 1.73167 -1.042 0
M  V30 5038 C 474.561 1.90329 0.42423 0
M  V30 5039 O 473.831 1.4607 1.30539 0
M  V30 5040 H 472.411 0.641593 -0.38258 0
M  V30 5041 H 475.073 1.19974 -1.53598 0
M  V30 5042 H 474.169 2.72734 -1.51731 0
M  V30 5043 N 474.47 1.03057 1.19235 0
M  V30 5044 C 475.4 0.633497 2.24742 0
M  V30 5045 C 476.381 -0.358335 1.66283 0
M  V30 5046 O 477.566 -0.240676 1.92703 0
M  V30 5047 C 474.696 -0.0147648 3.47297 0
M  V30 5048 C 473.65 0.899527 4.18441 0
M  V30 5049 C 472.976 0.116281 5.34574 0
M  V30 5050 C 474.276 2.21404 4.73051 0
M  V30 5051 H 475.97 1.5155 2.58211 0
M  V30 5052 H 473.516 0.73014 1.24117 0
M  V30 5053 H 475.469 -0.304202 4.20301 0
M  V30 5054 H 474.193 -0.931577 3.13032 0
M  V30 5055 H 472.852 1.17319 3.47321 0
M  V30 5056 H 472.5 -0.802619 4.96555 0
M  V30 5057 H 472.2 0.725293 5.83107 0
M  V30 5058 H 473.724 -0.166376 6.10373 0
M  V30 5059 H 475.138 1.98601 5.37802 0
M  V30 5060 H 473.535 2.77512 5.32078 0
M  V30 5061 H 474.605 2.86752 3.91026 0
M  V30 5062 N 475.948 -1.35272 0.808662 0
M  V30 5063 C 476.878 -2.32315 0.234981 0
M  V30 5064 C 477.859 -1.57572 -0.64071 0
M  V30 5065 O 479.044 -1.8563 -0.570551 0
M  V30 5066 C 476.174 -3.41801 -0.615601 0
M  V30 5067 C 475.128 -4.27694 0.161767 0
M  V30 5068 C 474.454 -5.28519 -0.810649 0
M  V30 5069 C 475.754 -5.04231 1.36193 0
M  V30 5070 H 477.448 -2.80543 1.04575 0
M  V30 5071 H 474.994 -1.3488 0.504315 0
M  V30 5072 H 476.947 -4.08693 -1.02702 0
M  V30 5073 H 475.671 -2.92186 -1.45928 0
M  V30 5074 H 474.33 -3.62384 0.554382 0
M  V30 5075 H 473.978 -4.75171 -1.64988 0
M  V30 5076 H 473.678 -5.8686 -0.294822 0
M  V30 5077 H 475.202 -5.98283 -1.22023 0
M  V30 5078 H 476.616 -5.64058 1.02528 0
M  V30 5079 H 475.013 -5.72077 1.81239 0
M  V30 5080 H 476.083 -4.34753 2.14751 0
M  V30 5081 N 477.426 -0.562348 -1.47226 0
M  V30 5082 C 478.672 -0.0402761 -2.0276 0
M  V30 5083 C 479.005 1.30823 -1.43523 0
M  V30 5084 O 478.28 1.85249 -0.592705 0
M  V30 5085 C 478.563 0.047311 -3.60069 0
M  V30 5086 C 478.416 -1.32865 -4.29729 0
M  V30 5087 C 479.735 0.758182 -4.3352 0
M  V30 5088 H 476.854 -0.0161105 -0.736824 0
M  V30 5089 H 479.496 -0.725628 -1.75598 0
M  V30 5090 H 477.646 0.630986 -3.83342 0
M  V30 5091 H 479.318 -1.95593 -4.17781 0
M  V30 5092 H 477.561 -1.90195 -3.89882 0
M  V30 5093 H 478.232 -1.22004 -5.38349 0
M  V30 5094 H 480.708 0.262546 -4.15271 0
M  V30 5095 H 479.584 0.78844 -5.43208 0
M  V30 5096 H 479.845 1.81537 -4.03109 0
M  V30 5097 N 478.904 1.54736 -0.299062 0
M  V30 5098 C 480.15 2.00397 0.311244 0
M  V30 5099 C 480.483 1.18716 1.53688 0
M  V30 5100 O 479.758 0.263154 1.92712 0
M  V30 5101 C 480.041 3.53817 0.669761 0
M  V30 5102 C 479.894 4.46239 -0.564882 0
M  V30 5103 C 481.213 4.13856 1.49702 0
M  V30 5104 H 478.332 0.728493 0.111653 0
M  V30 5105 H 480.974 1.85506 -0.410774 0
M  V30 5106 H 479.124 3.66637 1.28491 0
M  V30 5107 H 480.796 4.45328 -1.20337 0
M  V30 5108 H 479.039 4.16916 -1.19849 0
M  V30 5109 H 479.71 5.5134 -0.269918 0
M  V30 5110 H 482.186 4.04461 0.977284 0
M  V30 5111 H 481.062 5.21365 1.71666 0
M  V30 5112 H 481.323 3.65608 2.48563 0
M  V30 5113 N 480.382 0.0267497 1.57577 0
M  V30 5114 C 481.659 -0.690926 1.82991 0
M  V30 5115 C 482.039 -1.90471 0.910164 0
M  V30 5116 O 481.387 -2.28474 -0.0347985 0
M  V30 5117 C 481.597 -1.07139 3.32148 0
M  V30 5118 C 482.945 -1.46402 3.98562 0
M  V30 5119 O 483.969 -1.16443 3.36629 0
M  V30 5120 O 482.828 -2.02214 5.07712 0
M  V30 5121 H 479.922 -0.338747 0.75444 0
M  V30 5122 H 482.468 0.0542506 1.69613 0
M  V30 5123 H 481.24 -0.207394 3.9075 0
M  V30 5124 H 480.863 -1.87481 3.50623 0
M  V30 5125 N 481.861 -1.55662 -0.24637 0
M  V30 5126 C 482.809 -1.91186 -1.3248 0
M  V30 5127 C 483.803 -0.790996 -1.49799 0
M  V30 5128 O 485.009 -0.975617 -1.51267 0
M  V30 5129 H 481.384 -0.607207 -0.443626 0
M  V30 5130 H 483.355 -2.81221 -0.997853 0
M  V30 5131 C 482.104 -2.22349 -2.67313 0
M  V30 5132 H 481.427 -3.08097 -2.54786 0
M  V30 5133 H 482.867 -2.51107 -3.41645 0
M  V30 5134 C 481.326 -1.04001 -3.20446 0
M  V30 5135 O 481.856 -0.28828 -4.00664 0
M  V30 5136 N 480.062 -0.830494 -2.7848 0
M  V30 5137 H 479.609 -1.4435 -2.13356 0
M  V30 5138 H 479.567 -0.0403258 -3.14374 0
M  V30 5139 N 483.339 0.512053 -1.4905 0
M  V30 5140 C 484.269 1.62365 -1.67809 0
M  V30 5141 C 485.25 1.61737 -0.526809 0
M  V30 5142 O 486.435 1.78651 -0.761404 0
M  V30 5143 C 483.565 3.00895 -1.73435 0
M  V30 5144 C 482.519 3.16387 -2.88242 0
M  V30 5145 C 481.845 4.56157 -2.78971 0
M  V30 5146 C 483.145 2.97457 -4.29321 0
M  V30 5147 H 484.839 1.46921 -2.60873 0
M  V30 5148 H 482.385 0.705379 -1.2554 0
M  V30 5149 H 484.338 3.78549 -1.85145 0
M  V30 5150 H 483.062 3.17403 -0.769619 0
M  V30 5151 H 481.721 2.41155 -2.76116 0
M  V30 5152 H 481.369 4.69525 -1.8043 0
M  V30 5153 H 481.069 4.67465 -3.5602 0
M  V30 5154 H 482.593 5.35886 -2.92675 0
M  V30 5155 H 484.007 3.64888 -4.42187 0
M  V30 5156 H 482.404 3.20245 -5.07507 0
M  V30 5157 H 483.474 1.93692 -4.44535 0
M  V30 5158 N 484.817 1.37938 0.762283 0
M  V30 5159 C 485.749 1.30349 1.88525 0
M  V30 5160 C 486.762 0.217402 1.61342 0
M  V30 5161 O 487.951 0.474291 1.72084 0
M  V30 5162 C 485.051 0.994844 3.23969 0
M  V30 5163 C 484.224 2.18829 3.78725 0
M  V30 5164 C 483.283 1.84844 4.92665 0
M  V30 5165 O 482.309 2.57244 5.07754 0
M  V30 5166 N 483.511 0.798201 5.74986 0
M  V30 5167 H 486.276 2.27114 1.95549 0
M  V30 5168 H 483.837 1.31686 0.941825 0
M  V30 5169 H 485.829 0.748168 3.97724 0
M  V30 5170 H 484.399 0.115446 3.12387 0
M  V30 5171 H 483.619 2.59615 2.96637 0
M  V30 5172 H 484.907 2.98497 4.1204 0
M  V30 5173 H 484.305 0.197611 5.65355 0
M  V30 5174 H 482.862 0.611396 6.48926 0
M  V30 5175 N 486.295 -0.989507 1.22664 0
M  V30 5176 C 487.245 -2.06478 0.967005 0
M  V30 5177 C 488.229 -1.60682 -0.0836374 0
M  V30 5178 O 489.421 -1.76541 0.127322 0
M  V30 5179 C 486.55 -3.38861 0.550313 0
M  V30 5180 C 485.636 -3.9128 1.63587 0
M  V30 5181 N 486.027 -4.16884 2.86429 0
M  V30 5182 C 484.325 -4.1972 1.50834 0
M  V30 5183 C 485.026 -4.5954 3.56648 0
M  V30 5184 N 484.002 -4.63434 2.84131 0
M  V30 5185 H 487.804 -2.24219 1.90008 0
M  V30 5186 H 485.318 -1.17153 1.12467 0
M  V30 5187 H 487.315 -4.15465 0.345612 0
M  V30 5188 H 485.975 -3.22518 -0.375822 0
M  V30 5189 H 486.986 -4.04976 3.22823 0
M  V30 5190 H 483.663 -4.1243 0.648643 0
M  V30 5191 H 485.053 -4.87944 4.61909 0
M  V30 5192 N 487.773 -1.03688 -1.18687 0
M  V30 5193 C 488.703 -0.645407 -2.24403 0
M  V30 5194 C 489.684 0.349511 -1.66471 0
M  V30 5195 O 490.869 0.230453 -1.92828 0
M  V30 5196 C 487.999 -0.00365337 -3.473 0
M  V30 5197 C 486.953 -0.921705 -4.17958 0
M  V30 5198 C 486.279 -0.144629 -5.34504 0
M  V30 5199 C 487.579 -2.23909 -4.71871 0
M  V30 5200 H 489.273 -1.52917 -2.57404 0
M  V30 5201 H 486.819 -0.736711 -1.23728 0
M  V30 5202 H 488.772 0.281908 -4.20456 0
M  V30 5203 H 487.496 0.914963 -3.13522 0
M  V30 5204 H 486.155 -1.19159 -3.46694 0
M  V30 5205 H 485.803 0.776274 -4.96974 0
M  V30 5206 H 485.503 -0.756206 -5.82714 0
M  V30 5207 H 487.027 0.134004 -6.10453 0
M  V30 5208 H 488.441 -2.0145 -5.36741 0
M  V30 5209 H 486.838 -2.8033 -5.30599 0
M  V30 5210 H 487.908 -2.88822 -3.895 0
M  V30 5211 N 489.251 1.34841 -0.815825 0
M  V30 5212 C 490.481 2.02436 -0.412695 0
M  V30 5213 C 490.889 1.61604 0.983906 0
M  V30 5214 O 490.232 0.813729 1.64694 0
M  V30 5215 C 490.294 3.56953 -0.427182 0
M  V30 5216 C 489.958 4.21083 -1.77589 0
M  V30 5217 C 490.955 4.42107 -2.73564 0
M  V30 5218 C 488.64 4.58006 -2.06243 0
M  V30 5219 C 490.634 4.99169 -3.9637 0
M  V30 5220 C 488.321 5.1478 -3.2931 0
M  V30 5221 C 489.319 5.35304 -4.24191 0
M  V30 5222 O 489.007 5.90878 -5.45086 0
M  V30 5223 H 488.739 0.655631 -0.164695 0
M  V30 5224 H 491.293 1.73246 -1.1034 0
M  V30 5225 H 489.523 3.85372 0.320175 0
M  V30 5226 H 491.212 4.05875 -0.0450875 0
M  V30 5227 H 491.978 4.13953 -2.52721 0
M  V30 5228 H 487.857 4.41339 -1.33196 0
M  V30 5229 H 491.401 5.15105 -4.70439 0
M  V30 5230 H 487.298 5.42362 -3.5002 0
M  V30 5231 H 488.066 6.0932 -5.46508 0
M  V30 5232 N 490.729 0.570148 1.46925 0
M  V30 5233 C 491.677 -0.183181 2.31878 0
M  V30 5234 C 492.671 -0.896721 1.43719 0
M  V30 5235 O 493.877 -0.816536 1.60414 0
M  V30 5236 H 490.252 -0.077944 0.74795 0
M  V30 5237 H 492.223 0.552312 2.93244 0
M  V30 5238 C 490.972 -1.19172 3.2664 0
M  V30 5239 H 490.295 -0.652088 3.94446 0
M  V30 5240 H 491.735 -1.68946 3.88887 0
M  V30 5241 C 490.194 -2.24627 2.51086 0
M  V30 5242 O 490.724 -3.31773 2.26472 0
M  V30 5243 N 488.93 -1.98898 2.11867 0
M  V30 5244 H 488.477 -1.11777 2.32086 0
M  V30 5245 H 488.435 -2.6967 1.61634 0
M  V30 5246 N 492.207 -1.54576 0.307264 0
M  V30 5247 C 493.137 -2.26708 -0.55907 0
M  V30 5248 C 494.118 -1.26893 -1.1328 0
M  V30 5249 O 495.303 -1.55677 -1.16097 0
M  V30 5250 C 492.433 -3.01259 -1.72801 0
M  V30 5251 C 491.387 -4.08275 -1.28435 0
M  V30 5252 C 490.713 -4.70575 -2.53895 0
M  V30 5253 C 492.013 -5.2068 -0.411038 0
M  V30 5254 H 493.707 -2.9937 0.042576 0
M  V30 5255 H 491.253 -1.43983 0.0219173 0
M  V30 5256 H 493.206 -3.50444 -2.34023 0
M  V30 5257 H 491.93 -2.26187 -2.356 0
M  V30 5258 H 490.589 -3.59949 -0.695161 0
M  V30 5259 H 490.237 -3.92136 -3.15021 0
M  V30 5260 H 489.937 -5.42854 -2.24908 0
M  V30 5261 H 491.461 -5.22527 -3.15908 0
M  V30 5262 H 492.875 -5.65721 -0.929097 0
M  V30 5263 H 491.272 -5.99716 -0.214664 0
M  V30 5264 H 492.342 -4.81629 0.562287 0
M  V30 5265 N 493.685 -0.035106 -1.57561 0
M  V30 5266 C 494.931 0.64318 -1.92331 0
M  V30 5267 C 495.264 1.71434 -0.912368 0
M  V30 5268 O 494.539 1.94395 0.0640303 0
M  V30 5269 C 494.822 1.25411 -3.37556 0
M  V30 5270 C 494.675 0.192109 -4.4939 0
M  V30 5271 C 495.994 2.17041 -3.82859 0
M  V30 5272 H 493.113 0.232341 -0.699419 0
M  V30 5273 H 495.755 -0.0935889 -1.89769 0
M  V30 5274 H 493.905 1.88205 -3.39869 0
M  V30 5275 H 495.577 -0.438849 -4.59208 0
M  V30 5276 H 493.82 -0.481725 -4.31117 0
M  V30 5277 H 494.491 0.659292 -5.48049 0
M  V30 5278 H 496.967 1.64228 -3.8232 0
M  V30 5279 H 495.843 2.56738 -4.85157 0
M  V30 5280 H 496.104 3.06401 -3.18702 0
M  V30 5281 N 495.163 1.55791 0.238111 0
M  V30 5282 C 496.113 1.87444 1.29803 0
M  V30 5283 C 497.097 0.736043 1.43078 0
M  V30 5284 O 498.289 0.998146 1.46171 0
M  V30 5285 C 495.418 2.18028 2.65177 0
M  V30 5286 C 494.504 3.38217 2.55871 0
M  V30 5287 N 494.895 4.57264 2.16202 0
M  V30 5288 C 493.193 3.41502 2.86866 0
M  V30 5289 C 493.894 5.3941 2.17744 0
M  V30 5290 N 492.87 4.78695 2.57589 0
M  V30 5291 H 496.672 2.7701 0.981965 0
M  V30 5292 H 494.186 1.56135 0.44672 0
M  V30 5293 H 496.183 2.38873 3.4168 0
M  V30 5294 H 494.843 1.29765 2.97643 0
M  V30 5295 H 495.854 4.82727 1.87602 0
M  V30 5296 H 492.531 2.63536 3.23813 0
M  V30 5297 H 493.921 6.44671 1.89339 0
M  V30 5298 N 496.642 -0.504142 1.49319 0
M  V30 5299 C 497.572 -1.61473 1.68667 0
M  V30 5300 C 498.553 -1.61455 0.535378 0
M  V30 5301 O 499.738 -1.78245 0.770868 0
M  V30 5302 C 496.868 -2.99971 1.75028 0
M  V30 5303 C 495.822 -3.14854 2.89916 0
M  V30 5304 C 495.148 -4.54671 2.81387 0
M  V30 5305 C 496.448 -2.95176 4.30893 0
M  V30 5306 H 498.142 -1.45535 2.61648 0
M  V30 5307 H 495.688 -0.698711 1.25913 0
M  V30 5308 H 497.641 -3.77562 1.8715 0
M  V30 5309 H 496.365 -3.1699 0.786441 0
M  V30 5310 H 495.024 -2.39687 2.77391 0
M  V30 5311 H 494.672 -4.68562 1.82917 0
M  V30 5312 H 494.372 -4.6557 3.58494 0
M  V30 5313 H 495.896 -5.34327 2.95512 0
M  V30 5314 H 497.31 -3.62538 4.44116 0
M  V30 5315 H 495.707 -3.17549 5.09198 0
M  V30 5316 H 496.777 -1.91332 4.45556 0
M  V30 5317 N 498.12 -1.38341 -0.754957 0
M  V30 5318 C 499.397 -1.24995 -1.50451 0
M  V30 5319 C 499.777 0.149244 -2.10572 0
M  V30 5320 O 499.125 1.15861 -1.96948 0
M  V30 5321 C 499.335 -2.35904 -2.57197 0
M  V30 5322 C 500.683 -2.74262 -3.24138 0
M  V30 5323 O 501.707 -2.35205 -2.67501 0
M  V30 5324 O 500.566 -3.4161 -4.26574 0
M  V30 5325 H 497.66 -0.48872 -0.667144 0
M  V30 5326 H 500.206 -1.50165 -0.790486 0
M  V30 5327 H 498.978 -3.2953 -2.11011 0
M  V30 5328 H 498.601 -2.12291 -3.36182 0
M  V30 5329 N 499.598 0.982988 -1.23187 0
M  V30 5330 C 500.528 2.09301 -1.03515 0
M  V30 5331 C 501.509 1.70035 0.0471136 0
M  V30 5332 O 502.694 1.93847 -0.117029 0
M  V30 5333 C 499.824 3.4167 -0.622791 0
M  V30 5334 C 498.778 3.94828 -1.65211 0
M  V30 5335 C 498.104 5.23362 -1.09527 0
M  V30 5336 C 499.404 4.2439 -3.04451 0
M  V30 5337 H 501.098 2.26016 -1.96359 0
M  V30 5338 H 498.644 1.08611 -0.945501 0
M  V30 5339 H 500.597 4.18746 -0.472233 0
M  V30 5340 H 499.321 3.24811 0.341329 0
M  V30 5341 H 497.98 3.19895 -1.79061 0
M  V30 5342 H 497.628 5.02852 -0.122211 0
M  V30 5343 H 497.328 5.59895 -1.783 0
M  V30 5344 H 498.852 6.03062 -0.956511 0
M  V30 5345 H 500.266 4.92225 -2.93917 0
M  V30 5346 H 498.663 4.72118 -3.70438 0
M  V30 5347 H 499.733 3.31765 -3.53638 0
M  V30 5348 N 501.076 1.04316 1.18135 0
M  V30 5349 C 502.301 0.768047 1.92655 0
M  V30 5350 C 502.726 -0.66904 1.758 0
M  V30 5351 O 502.084 -1.46372 1.06981 0
M  V30 5352 C 502.132 1.14239 3.42026 0
M  V30 5353 O 501.236 0.269333 4.1152 0
M  V30 5354 H 500.577 0.282436 0.600937 0
M  V30 5355 H 503.107 1.39367 1.49793 0
M  V30 5356 H 503.117 1.10538 3.92741 0
M  V30 5357 H 501.792 2.18928 3.53615 0
M  V30 5358 H 500.369 0.366175 3.71098 0
M  V30 5359 N 502.554 -1.34406 0.822964 0
M  V30 5360 C 503.784 -2.02214 0.423424 0
M  V30 5361 C 504.192 -1.62124 -0.975322 0
M  V30 5362 O 503.535 -0.822452 -1.6426 0
M  V30 5363 C 503.597 -3.56721 0.446107 0
M  V30 5364 C 503.261 -4.20136 1.79819 0
M  V30 5365 C 504.258 -4.4065 2.75904 0
M  V30 5366 C 501.943 -4.56906 2.08669 0
M  V30 5367 C 503.937 -4.9706 3.99012 0
M  V30 5368 C 501.624 -5.13026 3.32036 0
M  V30 5369 C 502.622 -5.33047 4.27024 0
M  V30 5370 O 502.31 -5.87979 5.48211 0
M  V30 5371 H 502.042 -0.654748 0.168169 0
M  V30 5372 H 504.596 -1.72659 1.11257 0
M  V30 5373 H 502.826 -3.85537 -0.299734 0
M  V30 5374 H 504.515 -4.05845 0.0666114 0
M  V30 5375 H 505.281 -4.12607 2.54912 0
M  V30 5376 H 501.16 -4.40626 1.35535 0
M  V30 5377 H 504.704 -5.12603 4.73164 0
M  V30 5378 H 500.601 -5.40498 3.52891 0
M  V30 5379 H 501.369 -6.06413 5.49732 0
M  V30 5380 N 504.032 -0.577932 -1.46621 0
M  V30 5381 C 504.98 0.170882 -2.31971 0
M  V30 5382 C 505.974 0.889086 -1.44193 0
M  V30 5383 O 507.18 0.808017 -1.60845 0
M  V30 5384 H 503.555 0.0739763 -0.748353 0
M  V30 5385 H 505.526 -0.567856 -2.92947 0
M  V30 5386 C 504.275 1.17438 -3.27267 0
M  V30 5387 H 503.598 0.63116 -3.94787 0
M  V30 5388 H 505.038 1.66882 -3.89778 0
M  V30 5389 C 503.497 2.23292 -2.52274 0
M  V30 5390 O 504.027 3.30567 -2.28229 0
M  V30 5391 N 502.233 1.97772 -2.12919 0
M  V30 5392 H 501.78 1.10545 -2.32675 0
M  V30 5393 H 501.738 2.68809 -1.63062 0
M  V30 5394 N 505.51 1.54411 -0.315457 0
M  V30 5395 C 506.457 2.24048 0.554166 0
M  V30 5396 C 507.427 1.2283 1.11812 0
M  V30 5397 O 508.612 1.51491 1.15997 0
M  V30 5398 C 505.752 2.99574 1.71316 0
M  V30 5399 C 504.865 4.15594 1.17922 0
M  V30 5400 C 504 4.78669 2.30324 0
M  V30 5401 C 503.039 5.86807 1.74137 0
M  V30 5402 N 502.176 6.43777 2.8017 0
M  V30 5403 H 507.016 2.97964 -0.0462602 0
M  V30 5404 H 504.553 1.47059 -0.0346009 0
M  V30 5405 H 506.511 3.41604 2.39505 0
M  V30 5406 H 505.141 2.28008 2.285 0
M  V30 5407 H 504.193 3.78404 0.389136 0
M  V30 5408 H 505.505 4.93459 0.728012 0
M  V30 5409 H 504.659 5.23626 3.06433 0
M  V30 5410 H 503.398 4.00168 2.78778 0
M  V30 5411 H 502.403 5.41261 0.965236 0
M  V30 5412 H 503.628 6.67201 1.2657 0
M  V30 5413 H 501.574 5.68153 3.2793 0
M  V30 5414 H 501.491 7.17031 2.39588 0
M  V30 5415 H 502.759 6.9339 3.56132 0
M  V30 5416 N 506.988 0.0434614 1.5754 0
M  V30 5417 C 507.918 -0.931651 2.14109 0
M  V30 5418 C 508.899 -1.32971 1.06079 0
M  V30 5419 O 510.084 -1.40579 1.33982 0
M  V30 5420 C 507.214 -2.20914 2.67982 0
M  V30 5421 C 506.168 -1.95139 3.80926 0
M  V30 5422 C 505.494 -3.29276 4.21285 0
M  V30 5423 C 506.794 -1.27913 5.06395 0
M  V30 5424 H 508.488 -0.460497 2.95837 0
M  V30 5425 H 506.034 -0.220058 1.42309 0
M  V30 5426 H 507.987 -2.89522 3.06194 0
M  V30 5427 H 506.711 -2.70221 1.83434 0
M  V30 5428 H 505.37 -1.28945 3.43175 0
M  V30 5429 H 505.018 -3.76369 3.33699 0
M  V30 5430 H 504.718 -3.12831 4.97404 0
M  V30 5431 H 506.242 -3.99129 4.62091 0
M  V30 5432 H 507.656 -1.86544 5.42102 0
M  V30 5433 H 506.053 -1.2182 5.87605 0
M  V30 5434 H 507.123 -0.254066 4.84234 0
M  V30 5435 N 508.466 -1.55915 -0.229846 0
M  V30 5436 C 509.691 -1.8296 -0.976743 0
M  V30 5437 C 510.116 -0.622735 -1.77493 0
M  V30 5438 O 509.474 0.428431 -1.76165 0
M  V30 5439 C 509.522 -3.07916 -1.8767 0
M  V30 5440 O 508.626 -2.86028 -2.97088 0
M  V30 5441 H 507.967 -0.603453 -0.277021 0
M  V30 5442 H 510.497 -2.0312 -0.245669 0
M  V30 5443 H 510.507 -3.37802 -2.2881 0
M  V30 5444 H 509.182 -3.95389 -1.28996 0
M  V30 5445 H 507.759 -2.67355 -2.59954 0
M  V30 5446 N 509.944 0.496216 -1.49584 0
M  V30 5447 C 511.169 1.27865 -1.63295 0
M  V30 5448 C 511.594 1.85592 -0.306156 0
M  V30 5449 O 510.952 1.66092 0.726851 0
M  V30 5450 C 511 2.38128 -2.7079 0
M  V30 5451 O 510.104 3.42108 -2.30296 0
M  V30 5452 H 509.445 0.377279 -0.546403 0
M  V30 5453 H 511.975 0.593497 -1.95803 0
M  V30 5454 H 511.985 2.8382 -2.93104 0
M  V30 5455 H 510.66 1.95479 -3.67098 0
M  V30 5456 H 509.237 3.02301 -2.18331 0
M  V30 5457 N 511.423 1.38739 0.74761 0
M  V30 5458 C 512.353 1.39173 1.87492 0
M  V30 5459 C 513.334 0.256794 1.6815 0
M  V30 5460 O 514.519 0.460762 1.88655 0
M  V30 5461 C 511.649 1.22197 3.25093 0
M  V30 5462 C 510.603 2.32957 3.59047 0
M  V30 5463 C 509.929 2.01082 4.95449 0
M  V30 5464 C 511.229 3.75237 3.6331 0
M  V30 5465 H 512.923 2.3351 1.87386 0
M  V30 5466 H 510.469 1.12399 0.900134 0
M  V30 5467 H 512.422 1.21124 4.03617 0
M  V30 5468 H 511.146 0.243241 3.25693 0
M  V30 5469 H 509.805 2.33226 2.82845 0
M  V30 5470 H 509.453 1.01678 4.92616 0
M  V30 5471 H 509.153 2.75267 5.19136 0
M  V30 5472 H 510.677 2.01638 5.76346 0
M  V30 5473 H 512.091 3.76966 4.31937 0
M  V30 5474 H 510.488 4.48677 3.98509 0
M  V30 5475 H 511.558 4.07122 2.634 0
M  V30 5476 N 512.901 -0.976442 1.23707 0
M  V30 5477 C 513.811 -2.10359 1.03856 0
M  V30 5478 C 514.827 -1.73991 -0.0180919 0
M  V30 5479 O 516.003 -2.0061 0.178211 0
M  V30 5480 C 513.068 -3.40809 0.636387 0
M  V30 5481 C 512.129 -3.91179 1.76854 0
M  V30 5482 C 511.362 -5.15404 1.38546 0
M  V30 5483 O 511.585 -5.69754 0.27142 0
M  V30 5484 O 510.519 -5.5994 2.20797 0
M  V30 5485 H 514.345 -2.29997 1.98331 0
M  V30 5486 H 511.93 -1.08742 1.02448 0
M  V30 5487 H 513.812 -4.19269 0.423223 0
M  V30 5488 H 512.487 -3.22493 -0.279322 0
M  V30 5489 H 511.394 -3.13819 2.03638 0
M  V30 5490 H 512.727 -4.13958 2.6627 0
M  V30 5491 N 514.379 -1.04941 -1.1758 0
M  V30 5492 C 515.627 -0.756492 -1.87408 0
M  V30 5493 C 515.948 0.718478 -1.81281 0
M  V30 5494 O 515.218 1.519 -1.23706 0
M  V30 5495 H 513.798 -0.276841 -0.693807 0
M  V30 5496 H 516.46 -1.32803 -1.42652 0
M  V30 5497 H 515.556 -1.06918 -2.93215 0
M  V30 5498 N 515.857 1.33968 -0.830081 0
M  V30 5499 C 516.787 2.31911 -0.271911 0
M  V30 5500 C 517.768 1.58571 0.61556 0
M  V30 5501 O 518.953 1.86514 0.540946 0
M  V30 5502 C 516.083 3.42737 0.561146 0
M  V30 5503 C 515.037 4.27383 -0.229789 0
M  V30 5504 C 514.363 5.29742 0.726463 0
M  V30 5505 C 515.663 5.02 -1.44197 0
M  V30 5506 H 517.357 2.78844 -1.09025 0
M  V30 5507 H 514.903 1.34061 -0.52571 0
M  V30 5508 H 516.856 4.10276 0.961867 0
M  V30 5509 H 515.58 2.94471 1.41261 0
M  V30 5510 H 514.239 3.61456 -0.611964 0
M  V30 5511 H 513.887 4.77736 1.57408 0
M  V30 5512 H 513.587 5.87255 0.20142 0
M  V30 5513 H 515.111 6.00149 1.12489 0
M  V30 5514 H 516.525 5.62355 -1.11488 0
M  V30 5515 H 514.922 5.69122 -1.90317 0
M  V30 5516 H 515.992 4.31281 -2.2164 0
M  V30 5517 N 517.335 0.585699 1.46312 0
M  V30 5518 C 518.285 -0.166813 2.27389 0
M  V30 5519 C 519.269 -0.859076 1.36047 0
M  V30 5520 O 520.461 -0.752678 1.60199 0
M  V30 5521 C 517.59 -1.17791 3.2246 0
M  V30 5522 C 516.676 -0.487605 4.21288 0
M  V30 5523 N 517.067 0.45849 5.03718 0
M  V30 5524 C 515.365 -0.737971 4.39852 0
M  V30 5525 C 516.066 0.862213 5.75275 0
M  V30 5526 N 515.042 0.210707 5.43191 0
M  V30 5527 H 518.844 0.560167 2.88512 0
M  V30 5528 H 516.358 0.407715 1.57199 0
M  V30 5529 H 518.355 -1.73122 3.79255 0
M  V30 5530 H 517.015 -1.90568 2.62896 0
M  V30 5531 H 518.026 0.834163 5.11138 0
M  V30 5532 H 514.703 -1.45209 3.91434 0
M  V30 5533 H 516.093 1.64128 6.51546 0
M  V30 5534 N 518.813 -1.54241 0.323641 0
M  V30 5535 C 520.041 -2.04985 -0.280871 0
M  V30 5536 C 520.456 -1.19978 -1.45777 0
M  V30 5537 O 519.813 -0.230471 -1.81039 0
M  V30 5538 C 519.864 -3.54353 -0.715258 0
M  V30 5539 O 519.585 -4.36132 0.414817 0
M  V30 5540 C 521.086 -4.21189 -1.38257 0
M  V30 5541 H 518.306 -0.66851 -0.0577502 0
M  V30 5542 H 520.85 -1.99029 0.469852 0
M  V30 5543 H 519.005 -3.60596 -1.41596 0
M  V30 5544 H 519.419 -5.2445 0.0725227 0
M  V30 5545 H 520.893 -5.27154 -1.63745 0
M  V30 5546 H 521.37 -3.72307 -2.32989 0
M  V30 5547 H 521.976 -4.19085 -0.724447 0
M  V30 5548 N 520.291 -0.0518155 -1.57515 0
M  V30 5549 C 521.238 0.922352 -2.11569 0
M  V30 5550 C 522.208 1.30842 -1.02321 0
M  V30 5551 O 523.393 1.39778 -1.29872 0
M  V30 5552 C 520.533 2.19167 -2.6657 0
M  V30 5553 C 519.646 1.86003 -3.89906 0
M  V30 5554 C 518.781 3.07398 -4.33221 0
M  V30 5555 C 517.82 2.70158 -5.49255 0
M  V30 5556 N 516.957 3.84248 -5.8762 0
M  V30 5557 H 521.797 0.454506 -2.94514 0
M  V30 5558 H 519.334 0.212718 -1.45554 0
M  V30 5559 H 521.292 2.93443 -2.96559 0
M  V30 5560 H 519.922 2.63528 -1.86421 0
M  V30 5561 H 518.974 1.01874 -3.66505 0
M  V30 5562 H 520.286 1.54592 -4.74239 0
M  V30 5563 H 519.44 3.89972 -4.64765 0
M  V30 5564 H 518.179 3.41988 -3.477 0
M  V30 5565 H 517.184 1.86001 -5.17382 0
M  V30 5566 H 518.409 2.36759 -6.36492 0
M  V30 5567 H 516.355 4.18638 -5.05053 0
M  V30 5568 H 516.272 3.56538 -6.66646 0
M  V30 5569 H 517.54 4.6746 -6.2378 0
M  V30 5570 N 521.769 1.56035 0.221574 0
M  V30 5571 C 522.699 1.95434 1.2778 0
M  V30 5572 C 523.68 0.822564 1.48889 0
M  V30 5573 O 524.865 1.08486 1.61072 0
M  V30 5574 C 521.995 2.27102 2.62759 0
M  V30 5575 C 520.949 3.4277 2.56306 0
M  V30 5576 C 520.275 3.60043 3.95314 0
M  V30 5577 C 521.575 4.77742 2.11093 0
M  V30 5578 H 523.269 2.83912 0.950504 0
M  V30 5579 H 520.815 1.36596 0.455791 0
M  V30 5580 H 522.768 2.53256 3.36807 0
M  V30 5581 H 521.492 1.35478 2.97176 0
M  V30 5582 H 520.151 3.16664 1.84715 0
M  V30 5583 H 519.799 2.65794 4.27039 0
M  V30 5584 H 519.499 4.37841 3.91879 0
M  V30 5585 H 521.023 3.88545 4.71025 0
M  V30 5586 H 522.437 5.03102 2.74885 0
M  V30 5587 H 520.834 5.58823 2.18716 0
M  V30 5588 H 521.904 4.731 1.06321 0
M  V30 5589 N 523.247 -0.488276 1.49845 0
M  V30 5590 C 524.495 -1.23911 1.59657 0
M  V30 5591 C 524.816 -1.92816 0.291005 0
M  V30 5592 O 524.086 -1.83328 -0.690485 0
M  V30 5593 H 522.666 -0.460357 0.588286 0
M  V30 5594 H 525.328 -0.564794 1.86537 0
M  V30 5595 H 524.424 -1.99625 2.39909 0
M  V30 5596 N 524.725 -1.39134 -0.740242 0
M  V30 5597 C 525.673 -1.3757 -1.87556 0
M  V30 5598 C 526.667 -0.259593 -1.67399 0
M  V30 5599 O 527.873 -0.429349 -1.74804 0
M  V30 5600 H 524.248 -0.42947 -0.6173 0
M  V30 5601 H 526.219 -2.33345 -1.85991 0
M  V30 5602 C 524.968 -1.23087 -3.25184 0
M  V30 5603 H 524.291 -2.08237 -3.41288 0
M  V30 5604 H 525.731 -1.26049 -4.0483 0
M  V30 5605 C 524.19 0.0611471 -3.36845 0
M  V30 5606 O 524.72 1.03328 -3.88183 0
M  V30 5607 N 522.926 0.122454 -2.90342 0
M  V30 5608 H 522.473 -0.669329 -2.48752 0
M  V30 5609 H 522.431 0.986463 -2.98523 0
M  V30 5610 N 526.204 0.969867 -1.24223 0
M  V30 5611 C 527.453 1.70687 -1.07466 0
M  V30 5612 C 527.766 1.91736 0.386861 0
M  V30 5613 O 528.972 2.62986 0.674581 0
M  V30 5614 C 527.428 3.07217 -1.87472 0
M  V30 5615 C 527.036 2.94018 -3.3802 0
M  V30 5616 C 528.78 3.84804 -1.79237 0
M  V30 5617 C 526.687 4.25844 -4.10379 0
M  V30 5618 H 525.617 0.640067 -0.398536 0
M  V30 5619 H 528.268 1.08092 -1.48285 0
M  V30 5620 H 526.65 3.70628 -1.39466 0
M  V30 5621 H 527.824 2.39632 -3.9359 0
M  V30 5622 H 526.139 2.29898 -3.47183 0
M  V30 5623 H 528.736 4.82417 -2.30603 0
M  V30 5624 H 529.079 4.09356 -0.757197 0
M  V30 5625 H 529.612 3.28115 -2.24912 0
M  V30 5626 H 526.351 4.06486 -5.14246 0
M  V30 5627 H 525.871 4.80054 -3.59594 0
M  V30 5628 H 527.55 4.94475 -4.17257 0
M  V30 5629 N 527.682 1.05563 1.17022 0
M  V30 5630 C 528.629 0.659893 2.21165 0
M  V30 5631 C 529.599 -0.339813 1.62587 0
M  V30 5632 O 530.784 -0.230378 1.89404 0
M  V30 5633 C 527.924 0.0447297 3.45071 0
M  V30 5634 C 527.037 1.09372 4.17926 0
M  V30 5635 C 526.172 0.445481 5.29329 0
M  V30 5636 C 525.211 1.47852 5.93975 0
M  V30 5637 N 524.348 0.854172 6.96885 0
M  V30 5638 H 529.188 1.55243 2.54369 0
M  V30 5639 H 526.725 0.776336 1.24946 0
M  V30 5640 H 528.683 -0.329404 4.15898 0
M  V30 5641 H 527.313 -0.811244 3.1244 0
M  V30 5642 H 526.365 1.58564 3.45777 0
M  V30 5643 H 527.677 1.87773 4.62107 0
M  V30 5644 H 526.831 0.0179688 6.06697 0
M  V30 5645 H 525.57 -0.370481 4.86291 0
M  V30 5646 H 524.575 1.91601 5.15334 0
M  V30 5647 H 525.8 2.29645 6.39093 0
M  V30 5648 H 523.746 0.0587882 6.55974 0
M  V30 5649 H 523.663 1.57567 7.39397 0
M  V30 5650 H 524.931 0.451559 7.78191 0
M  V30 5651 N 529.16 -1.33526 0.837174 0
M  V30 5652 C 530.388 -2.02047 0.445494 0
M  V30 5653 C 530.803 -1.62995 -0.952788 0
M  V30 5654 O 530.16 -0.842447 -1.61892 0
M  V30 5655 C 530.211 -3.57221 0.554577 0
M  V30 5656 O 529.932 -3.94863 1.89776 0
M  V30 5657 C 531.433 -4.43012 0.159634 0
M  V30 5658 H 528.653 -0.647221 0.177048 0
M  V30 5659 H 531.197 -1.70492 1.12928 0
M  V30 5660 H 529.352 -3.87315 -0.0812781 0
M  V30 5661 H 529.766 -4.89569 1.88208 0
M  V30 5662 H 531.24 -5.51253 0.28701 0
M  V30 5663 H 531.717 -4.29916 -0.898289 0
M  V30 5664 H 532.323 -4.18274 0.769855 0
M  V30 5665 N 530.638 -0.59345 -1.46 0
M  V30 5666 C 531.568 0.121192 -2.33185 0
M  V30 5667 C 532.549 0.872977 -1.4599 0
M  V30 5668 O 533.734 0.846321 -1.74789 0
M  V30 5669 C 530.864 1.12844 -3.28456 0
M  V30 5670 C 529.818 0.4908 -4.25177 0
M  V30 5671 C 529.144 1.60529 -5.10034 0
M  V30 5672 C 530.444 -0.578949 -5.19081 0
M  V30 5673 H 532.138 -0.606767 -2.93187 0
M  V30 5674 H 529.684 -0.293242 -1.40983 0
M  V30 5675 H 531.637 1.63684 -3.88311 0
M  V30 5676 H 530.361 1.88681 -2.66584 0
M  V30 5677 H 529.02 0.00339328 -3.666 0
M  V30 5678 H 528.668 2.35359 -4.44539 0
M  V30 5679 H 528.368 1.18422 -5.75543 0
M  V30 5680 H 529.892 2.11623 -5.72755 0
M  V30 5681 H 531.306 -0.155199 -5.7309 0
M  V30 5682 H 529.703 -0.920947 -5.92991 0
M  V30 5683 H 530.773 -1.46109 -4.62364 0
M  V30 5684 N 532.116 1.54067 -0.331816 0
M  V30 5685 C 533.064 2.26105 0.54582 0
M  V30 5686 C 534.058 1.27816 1.11173 0
M  V30 5687 O 535.264 1.45565 1.05882 0
M  V30 5688 H 531.639 0.726363 0.194683 0
M  V30 5689 H 533.61 2.98282 -0.083931 0
M  V30 5690 C 532.359 3.03814 1.69092 0
M  V30 5691 H 531.682 3.79269 1.26473 0
M  V30 5692 H 533.122 3.57453 2.28043 0
M  V30 5693 C 531.581 2.12606 2.61343 0
M  V30 5694 O 532.111 1.71437 3.6328 0
M  V30 5695 N 530.317 1.77925 2.29763 0
M  V30 5696 H 529.864 2.11602 1.46909 0
M  V30 5697 H 529.822 1.1718 2.91747 0
M  V30 5698 N 533.594 0.0601682 1.57485 0
M  V30 5699 C 534.524 -0.90889 2.15085 0
M  V30 5700 C 535.505 -1.31838 1.07484 0
M  V30 5701 O 536.69 -1.3915 1.35466 0
M  V30 5702 C 533.82 -2.18059 2.7031 0
M  V30 5703 C 532.774 -1.91088 3.82974 0
M  V30 5704 C 532.1 -3.24789 4.24754 0
M  V30 5705 C 533.4 -1.22535 5.07723 0
M  V30 5706 H 535.094 -0.429093 2.96309 0
M  V30 5707 H 532.64 -0.204952 1.42534 0
M  V30 5708 H 534.593 -2.86258 3.09248 0
M  V30 5709 H 533.317 -2.6826 1.8629 0
M  V30 5710 H 531.976 -1.25297 3.44523 0
M  V30 5711 H 531.624 -3.72809 3.37672 0
M  V30 5712 H 531.324 -3.07538 5.00694 0
M  V30 5713 H 532.848 -3.94205 4.66299 0
M  V30 5714 H 534.262 -1.80783 5.4405 0
M  V30 5715 H 532.659 -1.1558 5.88864 0
M  V30 5716 H 533.729 -0.202692 4.84476 0
M  V30 5717 N 535.072 -1.5615 -0.213296 0
M  V30 5718 C 536.035 -1.92249 -1.24792 0
M  V30 5719 C 537.035 -0.801828 -1.39382 0
M  V30 5720 O 538.225 -1.06948 -1.37506 0
M  V30 5721 C 535.357 -2.18056 -2.62039 0
M  V30 5722 H 536.55 -2.84793 -0.939845 0
M  V30 5723 H 534.103 -1.49559 -0.454062 0
M  V30 5724 H 534.838 -1.2809 -2.97932 0
M  V30 5725 H 534.623 -2.99703 -2.52825 0
M  V30 5726 H 536.113 -2.47051 -3.36683 0
M  V30 5727 N 536.55 0.480323 -1.50102 0
M  V30 5728 C 537.798 1.23063 -1.60312 0
M  V30 5729 C 538.119 1.92659 -0.301226 0
M  V30 5730 O 537.389 1.83691 0.680753 0
M  V30 5731 H 535.969 0.457231 -0.590719 0
M  V30 5732 H 538.631 0.554893 -1.86834 0
M  V30 5733 H 537.727 1.9835 -2.40964 0
M  V30 5734 N 538.028 1.39524 0.732853 0
M  V30 5735 C 538.976 1.38563 1.86824 0
M  V30 5736 C 539.97 0.268467 1.67259 0
M  V30 5737 O 541.176 0.438613 1.74574 0
M  V30 5738 H 537.551 0.432737 0.615014 0
M  V30 5739 H 539.522 2.34328 1.84751 0
M  V30 5740 C 538.271 1.2481 3.24527 0
M  V30 5741 H 537.594 2.10044 3.40179 0
M  V30 5742 H 539.034 1.28194 4.04156 0
M  V30 5743 C 537.493 -0.0432825 3.36872 0
M  V30 5744 O 538.023 -1.01268 3.88726 0
M  V30 5745 N 536.229 -0.107055 2.90403 0
M  V30 5746 H 535.776 0.682512 2.48394 0
M  V30 5747 H 535.734 -0.970618 2.99042 0
M  V30 5748 N 539.506 -0.963266 1.24736 0
M  V30 5749 C 540.436 -2.07628 1.06832 0
M  V30 5750 C 541.417 -1.70088 -0.0200566 0
M  V30 5751 O 542.602 -1.93636 0.147854 0
M  V30 5752 C 539.732 -3.40636 0.677069 0
M  V30 5753 C 538.686 -3.9215 1.71471 0
M  V30 5754 C 538.012 -5.21553 1.1784 0
M  V30 5755 C 539.312 -4.19493 3.11164 0
M  V30 5756 H 541.006 -2.22864 1.9993 0
M  V30 5757 H 538.552 -1.07093 0.96266 0
M  V30 5758 H 540.505 -4.17941 0.538792 0
M  V30 5759 H 539.229 -3.25313 -0.289612 0
M  V30 5760 H 537.888 -3.17005 1.84128 0
M  V30 5761 H 537.536 -5.02593 0.202195 0
M  V30 5762 H 537.236 -5.56988 1.87185 0
M  V30 5763 H 538.76 -6.01463 1.05233 0
M  V30 5764 H 540.174 -4.87487 3.01711 0
M  V30 5765 H 538.571 -4.66165 3.77902 0
M  V30 5766 H 539.641 -3.26097 3.58871 0
M  V30 5767 N 540.985 -1.06182 -1.16461 0
M  V30 5768 C 541.915 -0.692861 -2.22984 0
M  V30 5769 C 542.896 0.314122 -1.67174 0
M  V30 5770 O 544.081 0.189499 -1.93273 0
M  V30 5771 C 541.211 -0.07732 -3.47214 0
M  V30 5772 C 540.165 -1.01015 -4.15909 0
M  V30 5773 C 539.491 -0.257973 -5.34077 0
M  V30 5774 C 540.791 -2.33868 -4.67015 0
M  V30 5775 H 542.485 -1.58343 -2.54102 0
M  V30 5776 H 540.031 -0.76279 -1.22137 0
M  V30 5777 H 541.984 0.19266 -4.20959 0
M  V30 5778 H 540.708 0.848254 -3.15392 0
M  V30 5779 H 539.367 -1.26486 -3.44088 0
M  V30 5780 H 539.015 0.670684 -4.98509 0
M  V30 5781 H 538.715 -0.879638 -5.80979 0
M  V30 5782 H 540.239 0.00448788 -6.106 0
M  V30 5783 H 541.653 -2.1279 -5.32347 0
M  V30 5784 H 540.05 -2.91522 -5.24533 0
M  V30 5785 H 541.12 -2.97019 -3.83286 0
M  V30 5786 N 542.463 1.3308 -0.844243 0
M  V30 5787 C 543.373 2.32876 -0.283922 0
M  V30 5788 C 544.389 1.63589 0.592846 0
M  V30 5789 O 545.565 1.95205 0.495693 0
M  V30 5790 C 542.63 3.42667 0.527283 0
M  V30 5791 C 541.691 4.27664 -0.374394 0
M  V30 5792 C 540.924 5.32212 0.39819 0
M  V30 5793 O 541.147 5.46635 1.62932 0
M  V30 5794 O 540.081 6.01458 -0.2306 0
M  V30 5795 H 543.907 2.82671 -1.11045 0
M  V30 5796 H 541.492 1.36518 -0.606903 0
M  V30 5797 H 543.374 4.09652 0.988078 0
M  V30 5798 H 542.049 2.95079 1.33078 0
M  V30 5799 H 540.956 3.63526 -0.883144 0
M  V30 5800 H 542.289 4.78749 -1.1428 0
M  V30 5801 N 543.941 0.601185 1.45683 0
M  V30 5802 C 545.166 0.0982245 2.07167 0
M  V30 5803 C 545.591 -1.20546 1.44396 0
M  V30 5804 O 544.949 -1.73247 0.534347 0
M  V30 5805 C 544.997 -0.0346976 3.60583 0
M  V30 5806 O 544.101 -1.08657 3.97828 0
M  V30 5807 H 543.442 0.0711618 0.660176 0
M  V30 5808 H 545.972 0.829376 1.87036 0
M  V30 5809 H 545.982 -0.234969 4.07323 0
M  V30 5810 H 544.657 0.917265 4.05659 0
M  V30 5811 H 543.234 -0.863275 3.6277 0
M  V30 5812 N 545.419 -1.53889 0.339982 0
M  V30 5813 C 546.349 -2.27843 -0.510856 0
M  V30 5814 C 547.33 -1.29267 -1.10563 0
M  V30 5815 O 548.515 -1.58104 -1.12768 0
M  V30 5816 C 545.645 -3.04857 -1.66372 0
M  V30 5817 C 544.599 -4.10907 -1.19746 0
M  V30 5818 C 543.925 -4.75855 -2.43857 0
M  V30 5819 C 545.225 -5.21435 -0.300501 0
M  V30 5820 H 546.919 -2.99212 0.106067 0
M  V30 5821 H 544.465 -1.43904 0.0524533 0
M  V30 5822 H 546.418 -3.5533 -2.26537 0
M  V30 5823 H 545.142 -2.31133 -2.30749 0
M  V30 5824 H 543.801 -3.61342 -0.618654 0
M  V30 5825 H 543.449 -3.9873 -3.06633 0
M  V30 5826 H 543.149 -5.47502 -2.13343 0
M  V30 5827 H 544.673 -5.2911 -3.04754 0
M  V30 5828 H 546.087 -5.67565 -0.80889 0
M  V30 5829 H 544.484 -6.00036 -0.0874076 0
M  V30 5830 H 545.554 -4.80328 0.664321 0
M  V30 5831 N 546.897 -0.0685191 -1.57451 0
M  V30 5832 C 548.122 0.613919 -1.98106 0
M  V30 5833 C 548.547 1.62551 -0.946501 0
M  V30 5834 O 547.905 1.81085 0.0882824 0
M  V30 5835 C 547.953 1.26189 -3.378 0
M  V30 5836 O 547.057 2.37773 -3.36954 0
M  V30 5837 H 546.398 0.158163 -0.644888 0
M  V30 5838 H 548.928 -0.142063 -2.04106 0
M  V30 5839 H 548.938 1.60951 -3.74912 0
M  V30 5840 H 547.613 0.520625 -4.12629 0
M  V30 5841 H 546.19 2.04829 -3.11608 0
M  V30 5842 N 548.375 1.56261 0.205012 0
M  V30 5843 C 549.623 1.79684 0.925096 0
M  V30 5844 C 549.944 0.63989 1.84202 0
M  V30 5845 O 549.214 -0.342345 1.92885 0
M  V30 5846 H 547.794 0.662774 0.344587 0
M  V30 5847 H 550.456 1.93734 0.212899 0
M  V30 5848 H 549.552 2.72467 1.52211 0
M  V30 5849 N 549.853 -0.472356 1.50355 0
M  V30 5850 C 550.783 -1.57859 1.72055 0
M  V30 5851 C 551.764 -1.60283 0.569505 0
M  V30 5852 O 552.949 -1.7657 0.808503 0
M  V30 5853 C 550.079 -2.96191 1.81351 0
M  V30 5854 C 549.033 -3.08633 2.96529 0
M  V30 5855 C 548.359 -4.486 2.90968 0
M  V30 5856 C 549.659 -2.85969 4.37057 0
M  V30 5857 H 551.353 -1.39953 2.64676 0
M  V30 5858 H 548.899 -0.671846 1.27367 0
M  V30 5859 H 550.852 -3.73507 1.95117 0
M  V30 5860 H 549.576 -3.15251 0.853502 0
M  V30 5861 H 548.235 -2.33749 2.82413 0
M  V30 5862 H 547.883 -4.64577 1.92815 0
M  V30 5863 H 547.583 -4.57861 3.68289 0
M  V30 5864 H 549.107 -5.27938 3.0678 0
M  V30 5865 H 550.521 -3.53036 4.51706 0
M  V30 5866 H 548.918 -3.06677 5.15819 0
M  V30 5867 H 549.988 -1.81838 4.49514 0
M  V30 5868 N 551.331 -1.39911 -0.725443 0
M  V30 5869 C 552.281 -1.35878 -1.83088 0
M  V30 5870 C 553.265 -0.237989 -1.5913 0
M  V30 5871 O 554.457 -0.476302 -1.70471 0
M  V30 5872 C 551.586 -1.21403 -3.21117 0
M  V30 5873 C 550.672 -2.38223 -3.50871 0
M  V30 5874 N 551.063 -3.63703 -3.51502 0
M  V30 5875 C 549.361 -2.31388 -3.81281 0
M  V30 5876 C 550.062 -4.4101 -3.79322 0
M  V30 5877 N 549.038 -3.7072 -3.97577 0
M  V30 5878 H 552.84 -2.3085 -1.81895 0
M  V30 5879 H 550.354 -1.33543 -0.924125 0
M  V30 5880 H 552.351 -1.16597 -4.00263 0
M  V30 5881 H 551.011 -0.273902 -3.23543 0
M  V30 5882 H 552.022 -3.96998 -3.32586 0
M  V30 5883 H 548.699 -1.45689 -3.91256 0
M  V30 5884 H 550.089 -5.49819 -3.86198 0
M  V30 5885 N 552.809 0.956637 -1.25245 0
M  V30 5886 C 553.756 2.053 -1.05454 0
M  V30 5887 C 554.726 1.66062 0.0356889 0
M  V30 5888 O 555.911 1.90415 -0.121099 0
M  V30 5889 C 553.051 3.38391 -0.677191 0
M  V30 5890 C 552.164 3.90758 -1.84206 0
M  V30 5891 C 551.299 5.12165 -1.40926 0
M  V30 5892 C 550.338 5.56757 -2.54338 0
M  V30 5893 N 549.475 6.69376 -2.11848 0
M  V30 5894 H 554.315 2.21562 -1.99284 0
M  V30 5895 H 551.852 1.08578 -0.992434 0
M  V30 5896 H 553.81 4.1488 -0.43938 0
M  V30 5897 H 552.44 3.22021 0.224127 0
M  V30 5898 H 551.492 3.10808 -2.19323 0
M  V30 5899 H 552.804 4.19802 -2.69383 0
M  V30 5900 H 551.958 5.96065 -1.13098 0
M  V30 5901 H 550.697 4.84832 -0.528175 0
M  V30 5902 H 549.702 4.71423 -2.82913 0
M  V30 5903 H 550.927 5.861 -3.43022 0
M  V30 5904 H 548.873 6.43756 -1.26153 0
M  V30 5905 H 548.79 6.97927 -2.90574 0
M  V30 5906 H 550.058 7.5669 -1.87191 0
M  V30 5907 N 554.287 1.06798 1.15896 0
M  V30 5908 C 555.217 0.704677 2.22613 0
M  V30 5909 C 556.198 -0.305252 1.67339 0
M  V30 5910 O 557.383 -0.179247 1.93371 0
M  V30 5911 C 554.513 0.0957325 3.47168 0
M  V30 5912 C 553.467 1.0322 4.15367 0
M  V30 5913 C 552.793 0.286293 5.33933 0
M  V30 5914 C 554.093 2.36341 4.65768 0
M  V30 5915 H 555.787 1.59688 2.53259 0
M  V30 5916 H 553.333 0.769257 1.21731 0
M  V30 5917 H 555.286 -0.170333 4.21056 0
M  V30 5918 H 554.01 -0.831516 3.15838 0
M  V30 5919 H 552.669 1.28309 3.43413 0
M  V30 5920 H 552.317 -0.644237 4.98857 0
M  V30 5921 H 552.017 0.910436 5.80504 0
M  V30 5922 H 553.541 0.0278938 6.10594 0
M  V30 5923 H 554.955 2.1561 5.31211 0
M  V30 5924 H 553.352 2.94299 5.2298 0
M  V30 5925 H 554.422 2.99047 3.81705 0
M  V30 5926 N 555.766 -1.3263 0.851289 0
M  V30 5927 C 556.996 -2.01271 0.466222 0
M  V30 5928 C 557.404 -1.64156 -0.940714 0
M  V30 5929 O 556.747 -0.857109 -1.62479 0
M  V30 5930 C 556.809 -3.55695 0.521672 0
M  V30 5931 C 556.473 -4.16227 1.88691 0
M  V30 5932 C 557.47 -4.34699 2.85189 0
M  V30 5933 C 555.155 -4.52377 2.18313 0
M  V30 5934 C 557.149 -4.88484 4.09465 0
M  V30 5935 C 554.836 -5.05868 3.42843 0
M  V30 5936 C 555.834 -5.23869 4.38235 0
M  V30 5937 O 555.522 -5.76218 5.6056 0
M  V30 5938 H 555.254 -0.651034 0.18202 0
M  V30 5939 H 557.808 -1.7026 1.14894 0
M  V30 5940 H 556.038 -3.86086 -0.217888 0
M  V30 5941 H 557.727 -4.05613 0.152682 0
M  V30 5942 H 558.493 -4.07107 2.63607 0
M  V30 5943 H 554.372 -4.37652 1.44851 0
M  V30 5944 H 557.916 -5.02451 4.83931 0
M  V30 5945 H 553.813 -5.32891 3.64277 0
M  V30 5946 H 554.581 -5.94616 5.62471 0
M  V30 5947 N 557.244 -0.608902 -1.45362 0
M  V30 5948 C 558.469 -0.10921 -2.07112 0
M  V30 5949 C 558.894 1.19779 -1.45033 0
M  V30 5950 O 558.252 1.72961 -0.543527 0
M  V30 5951 C 558.3 0.0155745 -3.60597 0
M  V30 5952 O 557.404 1.06546 -3.98399 0
M  V30 5953 H 556.745 -0.0746619 -0.659789 0
M  V30 5954 H 559.275 -0.839283 -1.86594 0
M  V30 5955 H 559.285 0.213364 -4.07442 0
M  V30 5956 H 557.96 -0.938765 -4.05167 0
M  V30 5957 H 556.537 0.844024 -3.63223 0
M  V30 5958 N 558.722 1.53707 -0.348139 0
M  V30 5959 C 559.652 2.28111 0.498766 0
M  V30 5960 C 560.633 1.29851 1.09876 0
M  V30 5961 O 561.818 1.587 1.11928 0
M  V30 5962 C 558.948 3.05735 1.64753 0
M  V30 5963 C 557.902 4.11537 1.17565 0
M  V30 5964 C 557.228 4.77142 2.4133 0
M  V30 5965 C 558.528 5.21587 0.272844 0
M  V30 5966 H 560.222 2.99152 -0.121934 0
M  V30 5967 H 557.768 1.43875 -0.0600842 0
M  V30 5968 H 559.721 3.56526 2.24649 0
M  V30 5969 H 558.445 2.32354 2.2952 0
M  V30 5970 H 557.104 3.61665 0.599483 0
M  V30 5971 H 556.752 4.0035 3.04514 0
M  V30 5972 H 556.452 5.48626 2.10436 0
M  V30 5973 H 557.976 5.30719 3.01943 0
M  V30 5974 H 559.39 5.67986 0.778779 0
M  V30 5975 H 557.787 6.00074 0.0555849 0
M  V30 5976 H 558.857 4.79969 -0.689785 0
M  V30 5977 N 560.2 0.0768682 1.57412 0
M  V30 5978 C 561.446 -0.591961 1.93968 0
M  V30 5979 C 561.779 -1.68954 0.9575 0
M  V30 5980 O 561.054 -1.94496 -0.0124675 0
M  V30 5981 C 561.337 -1.16418 3.40762 0
M  V30 5982 C 561.19 -0.0728933 4.49741 0
M  V30 5983 C 562.509 -2.06814 3.88479 0
M  V30 5984 H 559.628 -0.213716 0.705333 0
M  V30 5985 H 562.27 0.14387 1.89455 0
M  V30 5986 H 560.42 -1.79128 3.4474 0
M  V30 5987 H 562.092 0.560446 4.57883 0
M  V30 5988 H 560.335 0.595859 4.29688 0
M  V30 5989 H 561.006 -0.513755 5.49604 0
M  V30 5990 H 563.482 -1.54033 3.8654 0
M  V30 5991 H 562.358 -2.43785 4.91793 0
M  V30 5992 H 562.619 -2.97844 3.26713 0
M  V30 5993 N 561.678 -1.56367 -0.196722 0
M  V30 5994 C 562.626 -1.95304 -1.2633 0
M  V30 5995 C 563.62 -0.838252 -1.47206 0
M  V30 5996 O 564.826 -1.02325 -1.48087 0
M  V30 5997 H 561.201 -0.621013 -0.424083 0
M  V30 5998 H 563.172 -2.84254 -0.907879 0
M  V30 5999 C 561.921 -2.3074 -2.60104 0
M  V30 6000 H 561.244 -3.16047 -2.44856 0
M  V30 6001 H 562.684 -2.61849 -3.33484 0
M  V30 6002 C 561.143 -1.14143 -3.16975 0
M  V30 6003 O 561.673 -0.415602 -3.99544 0
M  V30 6004 N 559.879 -0.91867 -2.75697 0
M  V30 6005 H 559.426 -1.51065 -2.08656 0
M  V30 6006 H 559.384 -0.140321 -3.14087 0
M  V30 6007 N 563.156 0.464375 -1.50603 0
M  V30 6008 C 564.086 1.56944 -1.72889 0
M  V30 6009 C 565.067 1.59979 -0.577997 0
M  V30 6010 O 566.252 1.76138 -0.817855 0
M  V30 6011 C 563.382 2.95225 -1.8292 0
M  V30 6012 C 562.336 3.07056 -2.98162 0
M  V30 6013 C 561.662 4.47051 -2.93343 0
M  V30 6014 C 562.962 2.83648 -4.38567 0
M  V30 6015 H 564.656 1.38547 -2.65415 0
M  V30 6016 H 562.202 0.665082 -1.27721 0
M  V30 6017 H 564.155 3.72467 -1.97095 0
M  V30 6018 H 562.879 3.14793 -0.870209 0
M  V30 6019 H 561.538 2.32248 -2.83648 0
M  V30 6020 H 561.186 4.63547 -1.95276 0
M  V30 6021 H 560.886 4.55902 -3.70712 0
M  V30 6022 H 562.41 5.26304 -3.09575 0
M  V30 6023 H 563.824 3.50636 -4.53572 0
M  V30 6024 H 562.221 3.03937 -5.17438 0
M  V30 6025 H 563.291 1.79451 -4.50472 0
M  V30 6026 N 564.634 1.40294 0.718013 0
M  V30 6027 C 565.911 1.2894 1.47084 0
M  V30 6028 C 566.291 -0.0933625 2.10893 0
M  V30 6029 O 565.639 -1.10598 1.99951 0
M  V30 6030 C 565.849 2.4264 2.50852 0
M  V30 6031 C 567.197 2.8276 3.16752 0
M  V30 6032 O 568.221 2.42215 2.61171 0
M  V30 6033 O 567.08 3.528 4.17366 0
M  V30 6034 H 564.174 0.506236 0.653952 0
M  V30 6035 H 566.72 1.52208 0.750394 0
M  V30 6036 H 565.492 3.35009 2.022 0
M  V30 6037 H 565.115 2.21129 3.30435 0
M  V30 6038 N 566.112 -0.949982 1.2575 0
M  V30 6039 C 567.042 -2.06483 1.09028 0
M  V30 6040 C 568.023 -1.701 -0.00201532 0
M  V30 6041 O 569.208 -1.93469 0.168383 0
M  V30 6042 C 566.338 -3.39899 0.71316 0
M  V30 6043 C 565.292 -3.90309 1.75621 0
M  V30 6044 C 564.618 -5.20274 1.23365 0
M  V30 6045 C 565.918 -4.16169 3.15596 0
M  V30 6046 H 567.612 -2.20731 2.02283 0
M  V30 6047 H 565.158 -1.06066 0.973964 0
M  V30 6048 H 567.111 -4.17346 0.58309 0
M  V30 6049 H 565.835 -3.25602 -0.255091 0
M  V30 6050 H 564.494 -3.15035 1.8748 0
M  V30 6051 H 564.142 -5.02351 0.255491 0
M  V30 6052 H 563.842 -5.54971 1.93082 0
M  V30 6053 H 565.366 -6.00314 1.11607 0
M  V30 6054 H 566.78 -4.84259 3.06864 0
M  V30 6055 H 565.177 -4.62131 3.82825 0
M  V30 6056 H 566.247 -3.22273 3.6231 0
M  V30 6057 N 567.59 -1.07411 -1.15328 0
M  V30 6058 C 569.006 -0.799759 -1.38116 0
M  V30 6059 C 569.206 0.59572 -1.92493 0
M  V30 6060 O 568.262 1.35433 -2.13106 0
M  V30 6061 C 569.575 -1.87407 -2.35158 0
M  V30 6062 C 571.123 -1.89889 -2.48819 0
M  V30 6063 C 571.598 -2.96406 -3.49153 0
M  V30 6064 N 573.089 -2.95512 -3.56689 0
M  V30 6065 C 573.824 -3.74575 -4.34144 0
M  V30 6066 N 573.32 -4.63488 -5.14928 0
M  V30 6067 N 575.113 -3.62919 -4.29239 0
M  V30 6068 H 567.264 -1.97411 -0.78374 0
M  V30 6069 H 569.527 -0.856113 -0.407154 0
M  V30 6070 H 569.233 -2.8768 -2.0232 0
M  V30 6071 H 569.107 -1.73471 -3.34944 0
M  V30 6072 H 571.494 -0.902677 -2.80955 0
M  V30 6073 H 571.575 -2.07904 -1.49029 0
M  V30 6074 H 571.219 -3.96227 -3.17752 0
M  V30 6075 H 571.149 -2.75638 -4.48699 0
M  V30 6076 H 573.64 -2.31061 -2.99031 0
M  V30 6077 H 573.953 -5.20445 -5.71276 0
M  V30 6078 H 572.298 -4.67537 -5.14232 0
M  V30 6079 H 575.489 -2.92833 -3.65194 0
M  V30 6080 H 575.662 -4.24777 -4.89355 0
M  V30 6081 N 569.068 1.32177 -0.85831 0
M  V30 6082 C 570.345 1.91781 -0.384624 0
M  V30 6083 C 570.725 1.78171 1.13217 0
M  V30 6084 O 570.073 1.18209 1.95548 0
M  V30 6085 C 570.283 3.38414 -0.853047 0
M  V30 6086 C 571.631 4.15542 -0.872359 0
M  V30 6087 O 572.655 3.47148 -0.797926 0
M  V30 6088 O 571.514 5.37678 -0.978009 0
M  V30 6089 H 568.608 0.819259 -0.112886 0
M  V30 6090 H 571.154 1.40923 -0.945453 0
M  V30 6091 H 569.926 3.4228 -1.89632 0
M  V30 6092 H 569.549 3.96683 -0.269874 0
M  V30 6093 N 570.547 0.616602 1.45037 0
M  V30 6094 C 571.495 -0.109318 2.32343 0
M  V30 6095 C 572.489 -0.850543 1.465 0
M  V30 6096 O 573.695 -0.765088 1.62931 0
M  V30 6097 H 570.07 -0.0541091 0.750051 0
M  V30 6098 H 572.041 0.645326 2.91338 0
M  V30 6099 C 570.79 -1.0872 3.30266 0
M  V30 6100 H 570.113 -0.526267 3.96321 0
M  V30 6101 H 571.553 -1.56489 3.94065 0
M  V30 6102 C 570.012 -2.16525 2.58105 0
M  V30 6103 O 570.542 -3.244 2.36913 0
M  V30 6104 N 568.748 -1.92057 2.18088 0
M  V30 6105 H 568.295 -1.04337 2.35524 0
M  V30 6106 H 568.253 -2.64391 1.70131 0
M  V30 6107 N 572.025 -1.5352 0.356285 0
M  V30 6108 C 573.441 -1.59599 0.00485267 0
M  V30 6109 C 573.641 -1.37179 -1.47595 0
M  V30 6110 O 572.697 -1.17234 -2.23635 0
M  V30 6111 C 574.01 -2.97277 0.452454 0
M  V30 6112 C 575.558 -3.10357 0.405881 0
M  V30 6113 C 576.033 -4.50432 0.829148 0
M  V30 6114 N 577.524 -4.5652 0.783838 0
M  V30 6115 C 578.259 -5.63077 1.08315 0
M  V30 6116 N 577.755 -6.77429 1.45126 0
M  V30 6117 N 579.548 -5.53014 1.00655 0
M  V30 6118 H 571.699 -1.66346 1.32071 0
M  V30 6119 H 573.962 -0.77971 0.539218 0
M  V30 6120 H 573.668 -3.18792 1.48542 0
M  V30 6121 H 573.542 -3.76836 -0.165762 0
M  V30 6122 H 575.929 -2.88558 -0.617934 0
M  V30 6123 H 576.01 -2.32828 1.05947 0
M  V30 6124 H 575.654 -4.72968 1.85103 0
M  V30 6125 H 575.584 -5.26378 0.152906 0
M  V30 6126 H 578.075 -3.74408 0.512513 0
M  V30 6127 H 578.388 -7.54669 1.66415 0
M  V30 6128 H 576.733 -6.78844 1.48983 0
M  V30 6129 H 579.924 -4.62557 0.718215 0
M  V30 6130 H 580.097 -6.35964 1.24315 0
M  V30 6131 N 573.503 -0.0852151 -1.57369 0
M  V30 6132 C 574.752 0.580443 -1.93168 0
M  V30 6133 C 575.065 1.6995 -0.968319 0
M  V30 6134 O 576.271 2.42564 -1.21963 0
M  V30 6135 C 574.727 1.08386 -3.43192 0
M  V30 6136 C 574.335 -0.00491388 -4.48 0
M  V30 6137 C 576.079 1.72281 -3.87968 0
M  V30 6138 C 573.986 0.513299 -5.89168 0
M  V30 6139 H 572.916 0.22059 -0.72101 0
M  V30 6140 H 575.567 -0.159621 -1.82804 0
M  V30 6141 H 573.949 1.8773 -3.48674 0
M  V30 6142 H 575.123 -0.780032 -4.5415 0
M  V30 6143 H 573.438 -0.548453 -4.12772 0
M  V30 6144 H 576.035 2.12108 -4.9083 0
M  V30 6145 H 576.378 2.58811 -3.26071 0
M  V30 6146 H 576.911 0.995359 -3.85146 0
M  V30 6147 H 573.65 -0.315153 -6.54742 0
M  V30 6148 H 573.17 1.25564 -5.8651 0
M  V30 6149 H 574.849 0.985433 -6.39451 0
M  V30 6150 N 574.981 1.5647 0.188427 0
M  V30 6151 C 575.891 1.98285 1.2538 0
M  V30 6152 C 576.907 0.891535 1.49424 0
M  V30 6153 O 578.083 1.19782 1.61908 0
M  V30 6154 C 575.148 2.31965 2.57669 0
M  V30 6155 C 574.209 3.54838 2.41638 0
M  V30 6156 C 573.442 3.86901 3.67618 0
M  V30 6157 O 573.665 3.20163 4.72072 0
M  V30 6158 O 572.599 4.80309 3.62749 0
M  V30 6159 H 576.425 2.89145 0.928912 0
M  V30 6160 H 574.01 1.44112 0.393955 0
M  V30 6161 H 575.892 2.54673 3.35737 0
M  V30 6162 H 574.567 1.44271 2.89771 0
M  V30 6163 H 573.474 3.37369 1.61658 0
M  V30 6164 H 574.807 4.43019 2.14465 0
M  V30 6165 N 576.459 -0.456382 1.50847 0
M  V30 6166 C 577.391 -1.57033 1.66953 0
M  V30 6167 C 578.404 -1.53207 0.550593 0
M  V30 6168 O 579.593 -1.58328 0.824285 0
M  V30 6169 C 576.693 -2.95937 1.65149 0
M  V30 6170 C 575.866 -3.24475 2.93317 0
M  V30 6171 C 574.925 -4.43007 2.83957 0
M  V30 6172 O 573.951 -4.42592 3.57912 0
M  V30 6173 N 575.153 -5.45503 1.9851 0
M  V30 6174 H 577.918 -1.43629 2.63042 0
M  V30 6175 H 575.479 -0.645037 1.48495 0
M  V30 6176 H 577.471 -3.73224 1.56481 0
M  V30 6177 H 576.041 -3.03036 0.767343 0
M  V30 6178 H 575.261 -2.35664 3.16 0
M  V30 6179 H 576.549 -3.4036 3.78196 0
M  V30 6180 H 575.947 -5.48668 1.37766 0
M  V30 6181 H 574.504 -6.21716 1.95735 0
M  V30 6182 N 577.937 -1.40673 -0.710563 0
M  V30 6183 C 578.87 -1.35742 -1.83438 0
M  V30 6184 C 579.848 -0.226997 -1.61008 0
M  V30 6185 O 581.032 -0.411477 -1.83954 0
M  V30 6186 C 578.159 -1.11374 -3.19865 0
M  V30 6187 C 577.205 -2.26935 -3.61113 0
M  V30 6188 S 578.038 -3.89352 -3.67648 0
M  V30 6189 C 579.194 -3.67258 -5.06826 0
M  V30 6190 H 579.427 -2.30848 -1.87341 0
M  V30 6191 H 576.96 -1.27018 -0.877831 0
M  V30 6192 H 578.918 -0.980004 -3.9863 0
M  V30 6193 H 577.579 -0.179135 -3.13589 0
M  V30 6194 H 576.772 -2.0554 -4.60184 0
M  V30 6195 H 576.374 -2.36638 -2.89618 0
M  V30 6196 H 578.666 -3.26036 -5.93891 0
M  V30 6197 H 579.609 -4.65878 -5.33257 0
M  V30 6198 H 580.017 -3.0084 -4.77656 0
M  V30 6199 N 579.415 0.9433 -1.26252 0
M  V30 6200 C 580.325 2.07532 -1.09397 0
M  V30 6201 C 581.341 1.73977 -0.0280449 0
M  V30 6202 O 582.517 2.00067 -0.231337 0
M  V30 6203 C 579.582 3.39002 -0.726523 0
M  V30 6204 C 578.643 3.86353 -1.87163 0
M  V30 6205 C 577.876 5.11549 -1.52162 0
M  V30 6206 O 578.099 5.68834 -0.422385 0
M  V30 6207 O 577.033 5.53889 -2.35565 0
M  V30 6208 H 580.859 2.24658 -2.04359 0
M  V30 6209 H 578.444 1.05988 -1.05295 0
M  V30 6210 H 580.326 4.18 -0.534236 0
M  V30 6211 H 579.001 3.2312 0.193721 0
M  V30 6212 H 577.908 3.0831 -2.11886 0
M  V30 6213 H 579.241 4.06752 -2.77152 0
M  V30 6214 N 580.893 1.08022 1.14757 0
M  V30 6215 C 581.803 0.718292 2.23333 0
M  V30 6216 C 582.819 -0.273477 1.71837 0
M  V30 6217 O 583.995 -0.118406 2.01052 0
M  V30 6218 C 581.06 0.128855 3.4646 0
M  V30 6219 C 580.121 1.17473 4.12915 0
M  V30 6220 C 579.354 0.61333 5.30164 0
M  V30 6221 O 579.577 -0.568458 5.6756 0
M  V30 6222 O 578.511 1.3615 5.86299 0
M  V30 6223 H 582.337 1.62394 2.56636 0
M  V30 6224 H 579.922 0.853628 1.22611 0
M  V30 6225 H 581.804 -0.197249 4.20938 0
M  V30 6226 H 580.479 -0.750014 3.14891 0
M  V30 6227 H 579.386 1.5533 3.40328 0
M  V30 6228 H 580.719 2.02574 4.48581 0
M  V30 6229 N 582.371 -1.3172 0.865308 0
M  V30 6230 C 583.617 -1.97168 0.474633 0
M  V30 6231 C 583.95 -1.68263 -0.969604 0
M  V30 6232 O 583.225 -0.976588 -1.68205 0
M  V30 6233 C 583.508 -3.52689 0.726808 0
M  V30 6234 C 583.361 -3.91185 2.22024 0
M  V30 6235 C 584.68 -4.39689 0.190201 0
M  V30 6236 H 581.799 -0.716185 0.17392 0
M  V30 6237 H 584.441 -1.55925 1.08569 0
M  V30 6238 H 582.591 -3.8795 0.206705 0
M  V30 6239 H 584.263 -3.66049 2.80724 0
M  V30 6240 H 582.506 -3.3996 2.69462 0
M  V30 6241 H 583.177 -4.99604 2.34735 0
M  V30 6242 H 585.653 -4.11225 0.635103 0
M  V30 6243 H 584.529 -5.47469 0.396132 0
M  V30 6244 H 584.79 -4.32683 -0.907625 0
M  V30 6245 N 583.85 -0.624285 -1.44708 0
M  V30 6246 C 585.266 -0.289322 -1.56956 0
M  V30 6247 C 585.466 1.20773 -1.61295 0
M  V30 6248 O 584.522 1.9915 -1.55227 0
M  V30 6249 C 585.835 -0.975215 -2.84447 0
M  V30 6250 C 587.383 -0.952709 -2.98148 0
M  V30 6251 C 587.858 -1.61893 -4.28433 0
M  V30 6252 N 589.349 -1.5852 -4.35231 0
M  V30 6253 C 590.084 -2.06969 -5.34744 0
M  V30 6254 N 589.58 -2.63579 -6.40701 0
M  V30 6255 N 591.373 -1.97638 -5.26209 0
M  V30 6256 H 583.524 -1.59612 -1.40135 0
M  V30 6257 H 585.787 -0.669592 -0.671081 0
M  V30 6258 H 585.493 -2.02999 -2.87201 0
M  V30 6259 H 585.367 -0.508749 -3.73753 0
M  V30 6260 H 587.754 0.093568 -2.94952 0
M  V30 6261 H 587.835 -1.4576 -2.10209 0
M  V30 6262 H 587.479 -2.66463 -4.32389 0
M  V30 6263 H 587.409 -1.08893 -5.15218 0
M  V30 6264 H 589.899 -1.17183 -3.59272 0
M  V30 6265 H 590.213 -2.98298 -7.12908 0
M  V30 6266 H 588.558 -2.67626 -6.41406 0
M  V30 6267 H 591.749 -1.5314 -4.42341 0
M  V30 6268 H 591.922 -2.35708 -6.03611 0
M  V30 6269 N 585.328 1.53329 -0.364422 0
M  V30 6270 C 586.553 2.06132 0.229033 0
M  V30 6271 C 586.978 1.23625 1.41769 0
M  V30 6272 O 586.336 0.255038 1.79497 0
M  V30 6273 C 586.384 3.55544 0.60174 0
M  V30 6274 O 585.488 3.75771 1.69912 0
M  V30 6275 H 584.829 0.663148 0.0336213 0
M  V30 6276 H 587.359 1.97758 -0.524689 0
M  V30 6277 H 587.369 3.98549 0.873073 0
M  V30 6278 H 586.044 4.15039 -0.267421 0
M  V30 6279 H 584.621 3.44663 1.42343 0
M  V30 6280 N 586.806 0.0935595 1.57322 0
M  V30 6281 C 588.055 -0.570191 1.93473 0
M  V30 6282 C 588.368 -1.69434 0.977318 0
M  V30 6283 O 589.574 -2.41914 1.23248 0
M  V30 6284 C 588.03 -1.06564 3.43762 0
M  V30 6285 C 587.638 0.0286723 4.47991 0
M  V30 6286 C 589.382 -1.70221 3.88877 0
M  V30 6287 C 587.289 -0.482046 5.89432 0
M  V30 6288 H 586.219 -0.216764 0.72217 0
M  V30 6289 H 588.87 0.169313 1.82717 0
M  V30 6290 H 587.252 -1.85878 3.49664 0
M  V30 6291 H 588.426 0.804106 4.5373 0
M  V30 6292 H 586.741 0.570336 4.12476 0
M  V30 6293 H 589.338 -2.09502 4.91948 0
M  V30 6294 H 589.681 -2.57078 3.27439 0
M  V30 6295 H 590.214 -0.974919 3.85668 0
M  V30 6296 H 586.953 0.349871 6.54566 0
M  V30 6297 H 586.473 -1.22452 5.87167 0
M  V30 6298 H 588.152 -0.951508 6.39965 0
M  V30 6299 N 588.284 -1.56567 -0.180126 0
M  V30 6300 C 589.532 -1.81133 -0.896392 0
M  V30 6301 C 589.853 -0.669114 -1.83161 0
M  V30 6302 O 589.123 0.311616 -1.93406 0
M  V30 6303 H 587.703 -0.668172 -0.333999 0
M  V30 6304 H 590.365 -1.94048 -0.182051 0
M  V30 6305 H 589.461 -2.74854 -1.47857 0
M  V30 6306 N 589.762 0.448376 -1.51087 0
M  V30 6307 C 590.987 1.22605 -1.6728 0
M  V30 6308 C 591.412 1.84524 -0.365045 0
M  V30 6309 O 590.77 1.6832 0.673642 0
M  V30 6310 C 590.818 2.29393 -2.78229 0
M  V30 6311 O 589.922 3.34608 -2.41063 0
M  V30 6312 H 589.263 0.359705 -0.558129 0
M  V30 6313 H 591.793 0.530903 -1.97592 0
M  V30 6314 H 591.803 2.74352 -3.01986 0
M  V30 6315 H 590.478 1.83701 -3.73131 0
M  V30 6316 H 589.055 2.95202 -2.27838 0
M  V30 6317 N 591.24 1.41047 0.703093 0
M  V30 6318 C 592.17 1.45067 1.82969 0
M  V30 6319 C 593.151 0.31016 1.67248 0
M  V30 6320 O 594.336 0.520548 1.87093 0
M  V30 6321 C 591.466 1.32478 3.2104 0
M  V30 6322 C 590.42 2.44262 3.51454 0
M  V30 6323 C 589.746 2.16742 4.88801 0
M  V30 6324 C 591.046 3.86606 3.51189 0
M  V30 6325 H 592.74 2.39353 1.79863 0
M  V30 6326 H 590.286 1.15206 0.863919 0
M  V30 6327 H 592.239 1.33904 3.99559 0
M  V30 6328 H 590.963 0.346735 3.24754 0
M  V30 6329 H 589.622 2.42107 2.75282 0
M  V30 6330 H 589.27 1.17299 4.89132 0
M  V30 6331 H 588.97 2.91643 5.10116 0
M  V30 6332 H 590.494 2.19872 5.69639 0
M  V30 6333 H 591.908 3.90517 4.19725 0
M  V30 6334 H 590.305 4.61128 3.84033 0
M  V30 6335 H 591.375 4.15296 2.50315 0
M  V30 6336 N 592.718 -0.936591 1.26751 0
M  V30 6337 C 594.129 -1.49816 1.1141 0
M  V30 6338 C 594.48 -1.9383 -0.304015 0
M  V30 6339 O 593.605 -1.80346 -1.196 0
M  V30 6340 C 594.2 -2.72271 2.01629 0
M  V30 6341 C 592.759 -3.2468 1.9042 0
M  V30 6342 C 591.906 -1.97444 1.94708 0
M  V30 6343 H 594.857 -0.751604 1.39773 0
M  V30 6344 H 594.878 -3.46741 1.56688 0
M  V30 6345 H 594.39 -2.40205 3.04833 0
M  V30 6346 H 592.491 -3.61525 0.901674 0
M  V30 6347 H 592.604 -3.91476 2.76195 0
M  V30 6348 H 590.968 -2.13545 1.38818 0
M  V30 6349 H 591.751 -1.67703 2.9955 0
M  V30 6350 N 594.196 -1.08629 -1.14182 0
M  V30 6351 C 595.436 -0.826884 -1.86928 0
M  V30 6352 C 595.8 0.635808 -1.81167 0
M  V30 6353 O 597.001 1.0108 -2.49071 0
M  V30 6354 C 595.272 -1.33721 -3.31442 0
M  V30 6355 S 596.831 -1.21045 -4.21774 0
M  V30 6356 H 593.649 -0.299286 -0.644941 0
M  V30 6357 H 596.251 -1.38802 -1.37674 0
M  V30 6358 H 594.955 -2.39617 -3.33184 0
M  V30 6359 H 594.486 -0.771839 -3.85754 0
M  V30 6360 H 596.501 -0.156168 -4.95954 0
M  V30 6361 N 595.674 1.31259 -0.872281 0
M  V30 6362 C 596.604 2.30929 -0.345554 0
M  V30 6363 C 597.585 1.60449 0.5648 0
M  V30 6364 O 598.77 1.8814 0.481335 0
M  V30 6365 C 595.9 3.44348 0.451823 0
M  V30 6366 C 594.854 4.26435 -0.365641 0
M  V30 6367 C 594.18 5.31785 0.557562 0
M  V30 6368 C 595.48 4.97159 -1.60095 0
M  V30 6369 H 597.174 2.75234 -1.17841 0
M  V30 6370 H 594.72 1.3232 -0.568094 0
M  V30 6371 H 596.673 4.13128 0.830854 0
M  V30 6372 H 595.397 2.98816 1.31821 0
M  V30 6373 H 594.056 3.59326 -0.726649 0
M  V30 6374 H 593.704 4.82502 1.4213 0
M  V30 6375 H 593.404 5.87598 0.0144878 0
M  V30 6376 H 594.928 6.03424 0.933387 0
M  V30 6377 H 596.342 5.58523 -1.29323 0
M  V30 6378 H 594.739 5.62779 -2.08327 0
M  V30 6379 H 595.809 4.24012 -2.35249 0
M  V30 6380 N 597.152 0.631951 1.44375 0
M  V30 6381 C 598.062 -0.073674 2.34484 0
M  V30 6382 C 599.078 -0.834825 1.52665 0
M  V30 6383 O 600.254 -0.786902 1.85391 0
M  V30 6384 C 597.319 -1.04247 3.30656 0
M  V30 6385 C 596.38 -0.280602 4.28382 0
M  V30 6386 C 595.613 -1.20325 5.19959 0
M  V30 6387 O 595.836 -2.44199 5.15484 0
M  V30 6388 O 594.77 -0.687128 5.97965 0
M  V30 6389 H 598.596 0.667477 2.96274 0
M  V30 6390 H 596.181 0.392144 1.44162 0
M  V30 6391 H 598.063 -1.59981 3.89851 0
M  V30 6392 H 596.738 -1.76422 2.71398 0
M  V30 6393 H 595.645 0.319804 3.72731 0
M  V30 6394 H 596.978 0.401144 4.90563 0
M  V30 6395 N 598.631 -1.53133 0.372548 0
M  V30 6396 C 599.581 -2.22733 -0.487218 0
M  V30 6397 C 600.565 -1.22506 -1.04312 0
M  V30 6398 O 601.757 -1.47923 -0.972005 0
M  V30 6399 C 598.886 -3.02524 -1.62278 0
M  V30 6400 C 597.972 -4.10133 -1.07943 0
M  V30 6401 N 598.363 -5.05133 -0.259629 0
M  V30 6402 C 596.661 -4.24964 -1.35356 0
M  V30 6403 C 597.362 -5.81687 0.0386656 0
M  V30 6404 N 596.338 -5.40699 -0.560827 0
M  V30 6405 H 600.14 -2.93538 0.145853 0
M  V30 6406 H 597.654 -1.61389 0.180938 0
M  V30 6407 H 599.651 -3.50909 -2.25096 0
M  V30 6408 H 598.311 -2.33252 -2.25884 0
M  V30 6409 H 599.322 -5.178 0.101746 0
M  V30 6410 H 595.999 -3.66919 -1.9919 0
M  V30 6411 H 597.389 -6.68224 0.701841 0
M  V30 6412 N 600.109 -0.101901 -1.5727 0
M  V30 6413 C 601.355 0.561027 -1.94885 0
M  V30 6414 C 601.688 1.6741 -0.984258 0
M  V30 6415 O 600.963 1.94491 -0.0184767 0
M  V30 6416 C 601.246 1.10982 -3.42571 0
M  V30 6417 C 601.099 0.00133418 -4.498 0
M  V30 6418 C 602.418 2.00608 -3.9172 0
M  V30 6419 H 599.537 0.202467 -0.708644 0
M  V30 6420 H 602.179 -0.173992 -1.89202 0
M  V30 6421 H 600.329 1.73621 -3.47546 0
M  V30 6422 H 602.001 -0.63322 -4.56933 0
M  V30 6423 H 600.244 -0.664143 -4.28686 0
M  V30 6424 H 600.915 0.426253 -5.50352 0
M  V30 6425 H 603.391 1.47864 -3.88941 0
M  V30 6426 H 602.267 2.3593 -4.95609 0
M  V30 6427 H 602.528 2.92608 -3.3141 0
M  V30 6428 N 601.587 1.56661 0.17182 0
M  V30 6429 C 602.812 1.86459 0.908165 0
M  V30 6430 C 603.237 0.688181 1.75059 0
M  V30 6431 O 602.595 -0.362753 1.77634 0
M  V30 6432 C 602.643 3.14669 1.76112 0
M  V30 6433 O 601.747 2.96858 2.86268 0
M  V30 6434 H 601.088 0.613318 0.254434 0
M  V30 6435 H 603.618 2.03892 0.170113 0
M  V30 6436 H 603.628 3.46061 2.16115 0
M  V30 6437 H 602.303 3.99905 1.14233 0
M  V30 6438 H 600.88 2.76819 2.49852 0
M  V30 6439 N 603.065 -0.440357 1.51323 0
M  V30 6440 C 603.995 -1.54174 1.75364 0
M  V30 6441 C 604.976 -1.59039 0.603375 0
M  V30 6442 O 606.161 -1.74815 0.845774 0
M  V30 6443 C 603.291 -2.92277 1.87593 0
M  V30 6444 C 602.245 -3.02274 3.03009 0
M  V30 6445 C 601.571 -4.42327 3.00418 0
M  V30 6446 C 602.871 -2.76634 4.43024 0
M  V30 6447 H 604.565 -1.34307 2.67585 0
M  V30 6448 H 602.111 -0.644678 1.28763 0
M  V30 6449 H 604.064 -3.69284 2.02995 0
M  V30 6450 H 602.788 -3.13369 0.920179 0
M  V30 6451 H 601.447 -2.27706 2.87307 0
M  V30 6452 H 601.095 -4.60382 2.02626 0
M  V30 6453 H 600.795 -4.49946 3.77918 0
M  V30 6454 H 602.319 -5.21312 3.17909 0
M  V30 6455 H 603.733 -3.43376 4.59093 0
M  V30 6456 H 602.13 -2.95666 5.22208 0
M  V30 6457 H 603.2 -1.72262 4.5327 0
M  V30 6458 N 604.543 -1.41418 -0.695603 0
M  V30 6459 C 605.473 -1.46035 -1.82197 0
M  V30 6460 C 606.454 -0.319025 -1.67082 0
M  V30 6461 O 607.639 -0.530462 -1.86815 0
M  V30 6462 C 604.769 -1.34179 -3.20333 0
M  V30 6463 C 603.723 -2.46123 -3.50154 0
M  V30 6464 C 603.049 -2.19332 -4.87645 0
M  V30 6465 C 604.349 -3.88463 -3.49133 0
M  V30 6466 H 606.043 -2.40303 -1.78591 0
M  V30 6467 H 603.589 -1.15663 -0.857797 0
M  V30 6468 H 605.542 -1.36021 -3.98844 0
M  V30 6469 H 604.266 -0.363952 -3.24566 0
M  V30 6470 H 602.925 -2.43563 -2.73994 0
M  V30 6471 H 602.573 -1.19891 -4.88503 0
M  V30 6472 H 602.273 -2.94344 -5.08562 0
M  V30 6473 H 603.797 -2.22889 -5.68465 0
M  V30 6474 H 605.211 -3.92738 -4.17648 0
M  V30 6475 H 603.608 -4.63158 -3.81582 0
M  V30 6476 H 604.678 -4.16617 -2.48109 0
M  V30 6477 N 606.021 0.929856 -1.27246 0
M  V30 6478 C 606.969 2.05151 -1.09616 0
M  V30 6479 C 607.963 1.69388 -0.0198617 0
M  V30 6480 O 609.169 1.79124 -0.177417 0
M  V30 6481 H 605.544 0.671909 -0.337701 0
M  V30 6482 H 607.515 2.17168 -2.04648 0
M  V30 6483 C 606.264 3.3934 -0.757851 0
M  V30 6484 H 605.587 3.67343 -1.57795 0
M  V30 6485 H 607.027 4.18603 -0.674358 0
M  V30 6486 C 605.486 3.32582 0.537658 0
M  V30 6487 O 606.016 3.69633 1.57271 0
M  V30 6488 N 604.222 2.8568 0.532478 0
M  V30 6489 H 603.769 2.55725 -0.310233 0
M  V30 6490 H 603.727 2.81541 1.39936 0
M  V30 6491 N 607.499 1.09233 1.13605 0
M  V30 6492 C 608.447 0.724572 2.21027 0
M  V30 6493 C 609.441 -0.273595 1.67176 0
M  V30 6494 O 610.647 -0.135266 1.79491 0
M  V30 6495 H 607.022 0.216319 0.720215 0
M  V30 6496 H 608.993 1.63975 2.49309 0
M  V30 6497 C 607.742 0.159126 3.47336 0
M  V30 6498 H 607.065 0.918387 3.89109 0
M  V30 6499 H 608.505 -0.0602851 4.23957 0
M  V30 6500 C 606.964 -1.10514 3.18258 0
M  V30 6501 O 607.494 -2.18869 3.36837 0
M  V30 6502 N 605.7 -1.01886 2.72154 0
M  V30 6503 H 605.247 -0.137027 2.57235 0
M  V30 6504 H 605.205 -1.8655 2.53074 0
M  V30 6505 N 608.977 -1.30795 0.87923 0
M  V30 6506 C 610.388 -1.78535 0.546093 0
M  V30 6507 C 610.739 -1.72354 -0.937467 0
M  V30 6508 O 609.864 -1.2969 -1.73233 0
M  V30 6509 C 610.459 -3.24181 0.9845 0
M  V30 6510 C 609.018 -3.69779 0.702871 0
M  V30 6511 C 608.165 -2.51377 1.17068 0
M  V30 6512 H 611.116 -1.17746 1.06403 0
M  V30 6513 H 611.137 -3.79227 0.311045 0
M  V30 6514 H 610.649 -3.28647 2.06429 0
M  V30 6515 H 608.75 -3.70806 -0.365166 0
M  V30 6516 H 608.863 -4.61507 1.28639 0
M  V30 6517 H 607.227 -2.47768 0.590172 0
M  V30 6518 H 608.01 -2.58584 2.25808 0
M  V30 6519 N 610.455 -0.639598 -1.44038 0
M  V30 6520 C 611.385 0.0469443 -2.33453 0
M  V30 6521 C 612.366 0.82609 -1.48694 0
M  V30 6522 O 613.551 0.790285 -1.77393 0
M  V30 6523 C 610.681 1.02338 -3.3188 0
M  V30 6524 C 609.635 0.355284 -4.26523 0
M  V30 6525 C 608.961 1.44221 -5.14883 0
M  V30 6526 C 610.261 -0.743798 -5.16977 0
M  V30 6527 H 611.955 -0.699735 -2.91108 0
M  V30 6528 H 609.501 -0.337946 -1.39978 0
M  V30 6529 H 611.454 1.51247 -3.93322 0
M  V30 6530 H 610.178 1.80105 -2.72451 0
M  V30 6531 H 608.837 -0.113239 -3.66425 0
M  V30 6532 H 608.485 2.21097 -4.51802 0
M  V30 6533 H 608.185 1.00052 -5.79019 0
M  V30 6534 H 609.709 1.93295 -5.79197 0
M  V30 6535 H 611.123 -0.337444 -5.72306 0
M  V30 6536 H 609.52 -1.10914 -5.89761 0
M  V30 6537 H 610.59 -1.60745 -4.57481 0
M  V30 6538 N 611.933 1.52934 -0.380664 0
M  V30 6539 C 613.158 2.06363 0.207157 0
M  V30 6540 C 613.583 1.25122 1.4045 0
M  V30 6541 O 612.941 0.274062 1.79217 0
M  V30 6542 C 612.989 3.56162 0.563996 0
M  V30 6543 O 612.093 3.77552 1.65917 0
M  V30 6544 H 611.434 0.663468 0.0265859 0
M  V30 6545 H 613.964 1.9719 -0.545635 0
M  V30 6546 H 613.974 3.99453 0.830752 0
M  V30 6547 H 612.649 4.14732 -0.311427 0
M  V30 6548 H 611.226 3.46154 1.3868 0
M  V30 6549 N 613.412 0.11024 1.57214 0
M  V30 6550 C 614.661 -0.549638 1.94067 0
M  V30 6551 C 614.974 -1.68388 0.995234 0
M  V30 6552 O 616.18 -2.40593 1.25807 0
M  V30 6553 C 614.636 -1.02912 3.44873 0
M  V30 6554 C 614.244 0.0761861 4.47935 0
M  V30 6555 C 615.988 -1.66087 3.9066 0
M  V30 6556 C 613.895 -0.419502 5.8991 0
M  V30 6557 H 612.825 -0.209092 0.724428 0
M  V30 6558 H 615.476 0.188683 1.82527 0
M  V30 6559 H 613.858 -1.82159 3.51616 0
M  V30 6560 H 615.032 0.852185 4.52851 0
M  V30 6561 H 613.347 0.614052 4.11847 0
M  V30 6562 H 615.944 -2.04272 4.94143 0
M  V30 6563 H 616.287 -2.53591 3.30148 0
M  V30 6564 H 616.82 -0.933959 3.86681 0
M  V30 6565 H 613.559 0.419277 6.54158 0
M  V30 6566 H 613.079 -1.16217 5.88433 0
M  V30 6567 H 614.758 -0.883577 6.40938 0
M  V30 6568 N 614.89 -1.56749 -0.16351 0
M  V30 6569 C 616.139 -1.81626 -0.877211 0
M  V30 6570 C 616.452 -0.688791 -1.83071 0
M  V30 6571 O 617.658 -0.822697 -2.58735 0
M  V30 6572 C 616.114 -3.21858 -1.61045 0
M  V30 6573 C 615.722 -4.42494 -0.700195 0
M  V30 6574 C 617.466 -3.56021 -2.31192 0
M  V30 6575 C 615.373 -5.73748 -1.43412 0
M  V30 6576 H 614.303 -0.67731 -0.331312 0
M  V30 6577 H 616.954 -1.83039 -0.13006 0
M  V30 6578 H 615.336 -3.14784 -2.40264 0
M  V30 6579 H 616.51 -4.60766 0.0555849 0
M  V30 6580 H 614.825 -4.1626 -0.10799 0
M  V30 6581 H 617.422 -4.51333 -2.8671 0
M  V30 6582 H 617.765 -2.81277 -3.06902 0
M  V30 6583 H 618.298 -3.64682 -1.58909 0
M  V30 6584 H 615.037 -6.51543 -0.719186 0
M  V30 6585 H 614.557 -5.5944 -2.16302 0
M  V30 6586 H 616.236 -6.15975 -1.9795 0
M  V30 6587 N 616.368 0.432326 -1.51554 0
M  V30 6588 C 617.779 1.01202 -1.56892 0
M  V30 6589 C 618.13 1.92175 -0.395394 0
M  V30 6590 O 617.255 2.10844 0.487198 0
M  V30 6591 C 617.85 1.84217 -2.8434 0
M  V30 6592 C 616.409 2.37228 -2.92233 0
M  V30 6593 C 615.556 1.16576 -2.51606 0
M  V30 6594 H 618.507 0.213407 -1.57259 0
M  V30 6595 H 618.528 2.69721 -2.68385 0
M  V30 6596 H 618.04 1.17979 -3.69733 0
M  V30 6597 H 616.141 3.06905 -2.11282 0
M  V30 6598 H 616.254 2.69682 -3.95991 0
M  V30 6599 H 614.618 1.51263 -2.04919 0
M  V30 6600 H 615.401 0.519404 -3.39348 0
M  V30 6601 N 617.846 1.41785 0.688094 0
M  V30 6602 C 619.123 1.32031 1.44316 0
M  V30 6603 C 619.503 -0.0486079 2.11044 0
M  V30 6604 O 618.851 -1.06332 2.02252 0
M  V30 6605 C 619.061 2.47906 2.45649 0
M  V30 6606 C 620.409 2.89415 3.10683 0
M  V30 6607 O 621.433 2.477 2.55975 0
M  V30 6608 O 620.292 3.61573 4.09789 0
M  V30 6609 H 617.386 0.519994 0.643067 0
M  V30 6610 H 619.932 1.53765 0.71794 0
M  V30 6611 H 618.704 3.39222 1.95048 0
M  V30 6612 H 618.327 2.28089 3.25671 0
M  V30 6613 N 619.324 -0.923095 1.27737 0
M  V30 6614 C 620.554 -1.70277 1.17001 0
M  V30 6615 C 620.962 -1.87188 -0.275199 0
M  V30 6616 O 620.305 -1.39195 -1.19877 0
M  V30 6617 C 620.367 -3.11976 1.78637 0
M  V30 6618 C 620.031 -3.18386 3.27841 0
M  V30 6619 C 621.028 -3.00287 4.2441 0
M  V30 6620 C 618.713 -3.41198 3.68632 0
M  V30 6621 C 620.707 -3.04896 5.59747 0
M  V30 6622 C 618.394 -3.4544 5.04097 0
M  V30 6623 C 619.392 -3.27309 5.99465 0
M  V30 6624 O 619.08 -3.31295 7.32461 0
M  V30 6625 H 618.812 -0.539366 0.407505 0
M  V30 6626 H 621.366 -1.16446 1.69202 0
M  V30 6627 H 619.596 -3.67308 1.20919 0
M  V30 6628 H 621.285 -3.7193 1.6255 0
M  V30 6629 H 622.051 -2.825 3.94232 0
M  V30 6630 H 617.93 -3.54359 2.94873 0
M  V30 6631 H 621.474 -2.90662 6.34162 0
M  V30 6632 H 617.371 -3.62753 5.33929 0
M  V30 6633 H 618.139 -3.47719 7.40968 0
M  V30 6634 N 620.802 -1.09834 -1.13024 0
M  V30 6635 C 622.218 -0.828875 -1.36388 0
M  V30 6636 C 622.418 0.554756 -1.93713 0
M  V30 6637 O 621.474 1.30882 -2.15931 0
M  V30 6638 C 622.787 -1.92352 -2.3113 0
M  V30 6639 C 624.335 -1.95124 -2.44735 0
M  V30 6640 C 624.81 -3.03745 -3.42787 0
M  V30 6641 N 626.301 -3.03012 -3.5034 0
M  V30 6642 C 627.036 -3.83699 -4.26101 0
M  V30 6643 N 626.532 -4.74306 -5.04981 0
M  V30 6644 N 628.325 -3.71942 -4.21445 0
M  V30 6645 H 620.476 -1.99029 -0.74169 0
M  V30 6646 H 622.739 -0.864557 -0.388903 0
M  V30 6647 H 622.445 -2.91906 -1.96172 0
M  V30 6648 H 622.319 -1.80536 -3.3119 0
M  V30 6649 H 624.706 -0.962069 -2.78977 0
M  V30 6650 H 624.787 -2.11018 -1.44586 0
M  V30 6651 H 624.431 -4.02878 -3.09276 0
M  V30 6652 H 624.361 -2.85094 -4.42752 0
M  V30 6653 H 626.852 -2.37352 -2.94062 0
M  V30 6654 H 627.165 -5.32446 -5.60108 0
M  V30 6655 H 625.51 -4.78339 -5.04199 0
M  V30 6656 H 628.701 -3.00513 -3.589 0
M  V30 6657 H 628.874 -4.35062 -4.80235 0
M  V30 6658 N 622.28 1.30327 -0.886154 0
M  V30 6659 C 623.508 2.00254 -0.520176 0
M  V30 6660 C 623.923 1.66419 0.891637 0
M  V30 6661 O 623.28 0.901951 1.58654 0
M  V30 6662 C 623.331 3.54916 -0.686775 0
M  V30 6663 O 623.052 3.87547 -2.04301 0
M  V30 6664 C 624.553 4.42115 -0.323945 0
M  V30 6665 H 621.773 0.640204 -0.200947 0
M  V30 6666 H 624.317 1.66183 -1.19178 0
M  V30 6667 H 622.472 3.8735 -0.0625273 0
M  V30 6668 H 622.886 4.82247 -2.06249 0
M  V30 6669 H 624.36 5.49808 -0.491407 0
M  V30 6670 H 624.837 4.32953 0.73811 0
M  V30 6671 H 625.443 4.15129 -0.924565 0
M  V30 6672 N 623.758 0.647228 1.43697 0
M  V30 6673 C 624.705 -0.0480092 2.3075 0
M  V30 6674 C 625.675 -0.820705 1.44408 0
M  V30 6675 O 626.86 -0.798515 1.73287 0
M  V30 6676 C 624 -1.01259 3.2991 0
M  V30 6677 C 623.113 -0.236629 4.31351 0
M  V30 6678 C 622.248 -1.19447 5.17596 0
M  V30 6679 C 621.287 -0.408595 6.10735 0
M  V30 6680 N 620.424 -1.31772 6.89623 0
M  V30 6681 H 625.264 0.700238 2.89656 0
M  V30 6682 H 622.801 0.357082 1.427 0
M  V30 6683 H 624.759 -1.58538 3.85903 0
M  V30 6684 H 623.389 -1.72778 2.72667 0
M  V30 6685 H 622.441 0.452353 3.77701 0
M  V30 6686 H 623.753 0.374731 4.9739 0
M  V30 6687 H 622.907 -1.83809 5.78186 0
M  V30 6688 H 621.646 -1.83975 4.51669 0
M  V30 6689 H 620.651 0.24841 5.49239 0
M  V30 6690 H 621.876 0.232188 6.78703 0
M  V30 6691 H 619.822 -1.94991 6.2635 0
M  V30 6692 H 619.739 -0.760779 7.52162 0
M  V30 6693 H 621.007 -1.94967 7.54724 0
M  V30 6694 N 625.236 -1.5273 0.388769 0
M  V30 6695 C 626.482 -2.01871 -0.193877 0
M  V30 6696 C 626.815 -1.27475 -1.46505 0
M  V30 6697 O 626.09 -0.375063 -1.90849 0
M  V30 6698 C 626.373 -3.5712 -0.462336 0
M  V30 6699 C 626.226 -4.42186 0.824091 0
M  V30 6700 C 627.545 -4.21881 -1.25319 0
M  V30 6701 H 624.664 -0.733764 -0.0689899 0
M  V30 6702 H 627.306 -1.82796 0.518231 0
M  V30 6703 H 625.456 -3.73504 -1.06896 0
M  V30 6704 H 627.128 -4.37554 1.46096 0
M  V30 6705 H 625.371 -4.09219 1.43952 0
M  V30 6706 H 626.042 -5.48828 0.590905 0
M  V30 6707 H 628.518 -4.0947 -0.73981 0
M  V30 6708 H 627.394 -5.30487 -1.40977 0
M  V30 6709 H 627.655 -3.79478 -2.26824 0
M  V30 6710 N 626.714 -0.118576 -1.57153 0
M  V30 6711 C 627.644 0.828436 -2.1831 0
M  V30 6712 C 628.625 1.27758 -1.12303 0
M  V30 6713 O 629.81 1.34026 -1.40537 0
M  V30 6714 C 626.94 2.07876 -2.78217 0
M  V30 6715 C 625.894 1.76742 -3.89803 0
M  V30 6716 C 625.22 3.08801 -4.36516 0
M  V30 6717 C 626.52 1.03606 -5.11921 0
M  V30 6718 H 628.214 0.318824 -2.97698 0
M  V30 6719 H 625.76 0.151911 -1.43196 0
M  V30 6720 H 627.713 2.74584 -3.19659 0
M  V30 6721 H 626.437 2.61161 -1.96118 0
M  V30 6722 H 625.096 1.12424 -3.48936 0
M  V30 6723 H 624.744 3.6002 -3.51276 0
M  V30 6724 H 624.444 2.88743 -5.11763 0
M  V30 6725 H 625.968 3.76627 -4.80608 0
M  V30 6726 H 627.382 1.60467 -5.50385 0
M  V30 6727 H 625.779 0.936454 -5.92748 0
M  V30 6728 H 626.849 0.0227421 -4.84895 0
M  V30 6729 N 628.193 1.56834 0.155195 0
M  V30 6730 C 629.156 1.96748 1.17571 0
M  V30 6731 C 630.156 0.853006 1.3631 0
M  V30 6732 O 631.346 1.11978 1.33441 0
M  V30 6733 C 628.478 2.27631 2.53765 0
M  V30 6734 H 629.671 2.88085 0.833498 0
M  V30 6735 H 627.224 1.51141 0.398242 0
M  V30 6736 H 627.959 1.39059 2.92973 0
M  V30 6737 H 627.744 3.0888 2.41527 0
M  V30 6738 H 629.234 2.59377 3.27282 0
M  V30 6739 N 629.671 -0.424282 1.51781 0
M  V30 6740 C 630.603 -1.53457 1.70246 0
M  V30 6741 C 631.616 -1.52004 0.582967 0
M  V30 6742 O 632.805 -1.56544 0.857683 0
M  V30 6743 C 629.905 -2.92368 1.71389 0
M  V30 6744 C 629.078 -3.1818 3.00133 0
M  V30 6745 C 628.137 -4.36884 2.9329 0
M  V30 6746 O 627.163 -4.34901 3.67219 0
M  V30 6747 N 628.365 -5.4117 2.10036 0
M  V30 6748 H 631.13 -1.38017 2.66029 0
M  V30 6749 H 628.691 -0.613394 1.4983 0
M  V30 6750 H 630.683 -3.6982 1.64362 0
M  V30 6751 H 629.253 -3.0134 0.831449 0
M  V30 6752 H 628.473 -2.28908 3.20928 0
M  V30 6753 H 629.761 -3.32261 3.85331 0
M  V30 6754 H 629.159 -5.45623 1.49373 0
M  V30 6755 H 627.716 -6.17425 2.08878 0
M  V30 6756 N 631.149 -1.42148 -0.680565 0
M  V30 6757 C 632.396 -1.4231 -1.44063 0
M  V30 6758 C 632.724 -0.037488 -1.94464 0
M  V30 6759 O 631.979 0.953184 -1.70918 0
M  V30 6760 C 632.278 -2.38945 -2.65782 0
M  V30 6761 C 631.944 -3.85455 -2.33956 0
M  V30 6762 C 630.606 -4.25364 -2.24987 0
M  V30 6763 C 632.958 -4.77895 -2.08004 0
M  V30 6764 C 630.286 -5.55701 -1.88184 0
M  V30 6765 C 632.638 -6.08568 -1.72706 0
M  V30 6766 C 631.302 -6.47482 -1.62244 0
M  V30 6767 H 630.572 -0.520748 -0.527164 0
M  V30 6768 H 633.219 -1.7505 -0.776524 0
M  V30 6769 H 631.524 -1.99511 -3.37198 0
M  V30 6770 H 633.221 -2.36336 -3.23954 0
M  V30 6771 H 629.811 -3.53855 -2.41836 0
M  V30 6772 H 633.995 -4.47854 -2.1387 0
M  V30 6773 H 629.251 -5.84718 -1.78648 0
M  V30 6774 H 633.425 -6.79688 -1.5165 0
M  V30 6775 H 631.052 -7.48387 -1.33496 0
M  V30 6776 N 632.627 0.916307 -1.28225 0
M  V30 6777 C 633.875 1.6619 -1.15002 0
M  V30 6778 C 634.196 1.92642 0.302329 0
M  V30 6779 O 633.466 1.54076 1.20985 0
M  V30 6780 H 632.046 0.615964 -0.422608 0
M  V30 6781 H 634.708 1.09963 -1.60917 0
M  V30 6782 H 633.804 2.62533 -1.68769 0
M  V30 6783 N 634.105 1.10431 1.1244 0
M  V30 6784 C 635.015 0.765502 2.21759 0
M  V30 6785 C 636.031 -0.236966 1.72379 0
M  V30 6786 O 637.207 -0.0757329 2.01258 0
M  V30 6787 C 634.272 0.202316 3.46109 0
M  V30 6788 C 633.333 1.26205 4.1033 0
M  V30 6789 C 632.566 0.725648 5.28744 0
M  V30 6790 O 632.789 -0.447942 5.68638 0
M  V30 6791 O 631.723 1.48555 5.83279 0
M  V30 6792 H 635.549 1.67801 2.53133 0
M  V30 6793 H 633.134 0.879443 1.20773 0
M  V30 6794 H 635.016 -0.107918 4.21262 0
M  V30 6795 H 633.691 -0.683052 3.16411 0
M  V30 6796 H 632.598 1.62514 3.36957 0
M  V30 6797 H 633.931 2.12044 4.44183 0
M  V30 6798 N 635.583 -1.29855 0.893053 0
M  V30 6799 C 636.999 -1.48366 0.588199 0
M  V30 6800 C 637.199 -1.81654 -0.872018 0
M  V30 6801 O 636.255 -1.909 -1.65268 0
M  V30 6802 C 637.568 -2.60136 1.5083 0
M  V30 6803 C 639.116 -2.74014 1.51279 0
M  V30 6804 C 639.591 -3.88905 2.41902 0
M  V30 6805 N 641.082 -3.96228 2.39911 0
M  V30 6806 C 641.817 -4.84458 3.06738 0
M  V30 6807 N 641.313 -5.77426 3.8282 0
M  V30 6808 N 643.106 -4.77894 2.95929 0
M  V30 6809 H 635.257 -1.06522 1.83757 0
M  V30 6810 H 637.52 -0.528495 0.787018 0
M  V30 6811 H 637.226 -2.42383 2.54839 0
M  V30 6812 H 637.1 -3.56793 1.22388 0
M  V30 6813 H 639.487 -2.91167 0.480179 0
M  V30 6814 H 639.568 -1.77952 1.83757 0
M  V30 6815 H 639.212 -3.72508 3.45253 0
M  V30 6816 H 639.142 -4.84322 2.06737 0
M  V30 6817 H 641.633 -3.29728 1.84629 0
M  V30 6818 H 641.946 -6.41529 4.30883 0
M  V30 6819 H 640.291 -5.77332 3.86927 0
M  V30 6820 H 643.482 -4.04248 2.36012 0
M  V30 6821 H 643.655 -5.46444 3.48286 0
M  V30 6822 N 637.061 -0.65484 -1.43351 0
M  V30 6823 C 638.024 0.0263562 -2.29185 0
M  V30 6824 C 639.024 0.748951 -1.42293 0
M  V30 6825 O 640.214 0.589957 -1.63906 0
M  V30 6826 C 637.346 1.04806 -3.2439 0
M  V30 6827 H 638.539 -0.728883 -2.90908 0
M  V30 6828 H 636.092 -0.416149 -1.50658 0
M  V30 6829 H 636.827 1.83247 -2.67565 0
M  V30 6830 H 636.612 0.533554 -3.88453 0
M  V30 6831 H 638.102 1.52372 -3.88809 0
M  V30 6832 N 638.539 1.52521 -0.396863 0
M  V30 6833 C 639.764 2.06571 0.185258 0
M  V30 6834 C 640.189 1.26605 1.39115 0
M  V30 6835 O 639.547 0.293055 1.78916 0
M  V30 6836 C 639.595 3.5674 0.526189 0
M  V30 6837 O 638.699 3.7929 1.61903 0
M  V30 6838 H 638.04 0.663712 0.0195474 0
M  V30 6839 H 640.57 1.966 -0.566519 0
M  V30 6840 H 640.58 4.00311 0.788338 0
M  V30 6841 H 639.255 4.14379 -0.355397 0
M  V30 6842 H 637.832 3.47605 1.35 0
M  V30 6843 N 640.017 0.126909 1.57088 0
M  V30 6844 C 640.927 -0.833867 2.1928 0
M  V30 6845 C 641.943 -1.2868 1.17122 0
M  V30 6846 O 643.119 -1.34815 1.49622 0
M  V30 6847 C 640.184 -2.0632 2.78627 0
M  V30 6848 C 639.245 -1.66143 3.95847 0
M  V30 6849 C 638.478 -2.83217 4.52354 0
M  V30 6850 O 638.701 -3.98868 4.0775 0
M  V30 6851 O 637.635 -2.59846 5.42922 0
M  V30 6852 H 641.461 -0.334564 3.01852 0
M  V30 6853 H 639.046 -0.0991091 1.49071 0
M  V30 6854 H 640.928 -2.78304 3.16425 0
M  V30 6855 H 639.603 -2.55242 1.99082 0
M  V30 6856 H 638.51 -0.912435 3.62802 0
M  V30 6857 H 639.843 -1.21957 4.76852 0
M  V30 6858 N 641.495 -1.56914 -0.146875 0
M  V30 6859 C 642.741 -1.83628 -0.860741 0
M  V30 6860 C 643.074 -0.708528 -1.80813 0
M  V30 6861 O 642.349 0.287838 -1.92358 0
M  V30 6862 C 642.632 -3.20836 -1.63511 0
M  V30 6863 C 642.485 -4.44174 -0.709199 0
M  V30 6864 C 643.804 -3.55268 -2.59756 0
M  V30 6865 H 640.923 -0.667949 -0.311468 0
M  V30 6866 H 643.565 -1.89582 -0.125936 0
M  V30 6867 H 641.715 -3.15891 -2.26153 0
M  V30 6868 H 643.387 -4.61205 -0.0937781 0
M  V30 6869 H 641.63 -4.33796 -0.0187856 0
M  V30 6870 H 642.301 -5.36785 -1.28707 0
M  V30 6871 H 644.777 -3.60824 -2.07232 0
M  V30 6872 H 643.653 -4.52303 -3.10987 0
M  V30 6873 H 643.914 -2.81231 -3.41118 0
M  V30 6874 N 642.974 0.416227 -1.52004 0
M  V30 6875 C 644.214 1.17307 -1.67387 0
M  V30 6876 C 644.578 1.87959 -0.39183 0
M  V30 6877 O 645.779 2.65472 -0.421671 0
M  V30 6878 C 644.05 2.14661 -2.85754 0
M  V30 6879 S 645.609 2.98549 -3.21581 0
M  V30 6880 H 642.427 0.397505 -0.5895 0
M  V30 6881 H 645.029 0.461431 -1.89976 0
M  V30 6882 H 643.733 1.61431 -3.77317 0
M  V30 6883 H 643.264 2.90375 -2.65417 0
M  V30 6884 H 645.279 4.16536 -2.69652 0
M  V30 6885 N 644.452 1.42507 0.673017 0
M  V30 6886 C 645.382 1.48916 1.79851 0
M  V30 6887 C 646.363 0.345566 1.66553 0
M  V30 6888 O 647.548 0.560116 1.85947 0
M  V30 6889 C 644.678 1.39258 3.18158 0
M  V30 6890 C 643.632 2.51662 3.46194 0
M  V30 6891 C 642.958 2.27062 4.84094 0
M  V30 6892 C 644.258 3.93968 3.42909 0
M  V30 6893 H 645.952 2.43114 1.74745 0
M  V30 6894 H 643.498 1.17013 0.839288 0
M  V30 6895 H 645.451 1.42349 3.96629 0
M  V30 6896 H 644.175 0.415542 3.23946 0
M  V30 6897 H 642.834 2.47891 2.70084 0
M  V30 6898 H 642.482 1.27648 4.86534 0
M  V30 6899 H 642.182 3.02398 5.03815 0
M  V30 6900 H 643.706 2.31905 5.64847 0
M  V30 6901 H 645.12 3.99332 4.11347 0
M  V30 6902 H 643.517 4.6917 3.74165 0
M  V30 6903 H 644.587 4.20512 2.41449 0
M  V30 6904 N 645.93 -0.909495 1.28709 0
M  V30 6905 C 647.207 -1.63865 1.06806 0
M  V30 6906 C 647.587 -2.07445 -0.391143 0
M  V30 6907 O 646.935 -1.82269 -1.37805 0
M  V30 6908 C 647.145 -2.82692 2.04661 0
M  V30 6909 C 648.493 -3.5361 2.35042 0
M  V30 6910 O 649.517 -2.92847 2.02779 0
M  V30 6911 O 648.376 -4.63131 2.90124 0
M  V30 6912 H 645.47 -0.719065 0.408502 0
M  V30 6913 H 648.016 -0.958424 1.40044 0
M  V30 6914 H 646.788 -2.47614 3.0299 0
M  V30 6915 H 646.411 -3.58426 1.72095 0
M  V30 6916 N 647.408 -1.11026 -1.11852 0
M  V30 6917 C 648.685 -0.768347 -1.79877 0
M  V30 6918 C 649.065 0.744261 -1.97545 0
M  V30 6919 O 648.413 1.67271 -1.55669 0
M  V30 6920 C 648.623 -1.52648 -3.13846 0
M  V30 6921 C 649.971 -1.70297 -3.88953 0
M  V30 6922 O 650.995 -1.49037 -3.23522 0
M  V30 6923 O 649.854 -2.05593 -5.06353 0
M  V30 6924 H 646.948 -0.277891 -0.778913 0
M  V30 6925 H 649.494 -1.21343 -1.18633 0
M  V30 6926 H 648.266 -2.55564 -2.96315 0
M  V30 6927 H 647.889 -1.07466 -3.82801 0
M  V30 6928 N 648.886 1.2938 -0.899927 0
M  V30 6929 C 650.114 1.99691 -0.541386 0
M  V30 6930 C 650.529 1.67355 0.873936 0
M  V30 6931 O 649.886 0.918728 1.57688 0
M  V30 6932 C 649.937 3.54168 -0.72438 0
M  V30 6933 O 649.658 3.85359 -2.08399 0
M  V30 6934 C 651.159 4.41746 -0.370819 0
M  V30 6935 H 648.379 0.638037 -0.207726 0
M  V30 6936 H 650.923 1.6491 -1.20934 0
M  V30 6937 H 649.078 3.87261 -0.103607 0
M  V30 6938 H 649.492 4.80032 -2.11352 0
M  V30 6939 H 650.966 5.49256 -0.549693 0
M  V30 6940 H 651.443 4.33712 0.692148 0
M  V30 6941 H 652.049 4.14125 -0.968543 0
M  V30 6942 N 650.364 0.662433 1.43002 0
M  V30 6943 C 651.61 0.179857 2.02001 0
M  V30 6944 C 651.943 -1.20625 1.52195 0
M  V30 6945 O 651.218 -1.80726 0.718911 0
M  V30 6946 C 651.501 0.200845 3.59539 0
M  V30 6947 C 651.354 1.62153 4.19555 0
M  V30 6948 C 652.673 -0.457738 4.37713 0
M  V30 6949 H 649.792 0.0668305 0.733964 0
M  V30 6950 H 652.434 0.84487 1.70182 0
M  V30 6951 H 650.584 -0.365411 3.86778 0
M  V30 6952 H 652.256 2.23908 4.03315 0
M  V30 6953 H 650.499 2.16601 3.75854 0
M  V30 6954 H 651.17 1.58799 5.28665 0
M  V30 6955 H 653.646 0.0241495 4.16093 0
M  V30 6956 H 652.522 -0.412363 5.47349 0
M  V30 6957 H 652.783 -1.53336 4.14657 0
M  V30 6958 N 651.842 -1.52309 0.404946 0
M  V30 6959 C 653.07 -2.06185 -0.171818 0
M  V30 6960 C 653.485 -1.27536 -1.39212 0
M  V30 6961 O 652.842 -0.326112 -1.79563 0
M  V30 6962 C 652.893 -3.57647 -0.526417 0
M  V30 6963 O 652.614 -4.3332 0.645417 0
M  V30 6964 C 654.115 -4.27925 -1.15736 0
M  V30 6965 H 651.335 -0.670632 -0.0222328 0
M  V30 6966 H 653.879 -1.96259 0.574692 0
M  V30 6967 H 652.034 -3.67595 -1.22282 0
M  V30 6968 H 652.448 -5.23328 0.35042 0
M  V30 6969 H 653.922 -5.35093 -1.35572 0
M  V30 6970 H 654.399 -3.84134 -2.12926 0
M  V30 6971 H 655.005 -4.22335 -0.501281 0
M  V30 6972 N 653.32 -0.135238 -1.57019 0
M  V30 6973 C 654.548 0.526066 -2.001 0
M  V30 6974 C 654.963 1.59184 -1.01519 0
M  V30 6975 O 654.32 1.82497 -0.0104258 0
M  V30 6976 C 654.371 1.13744 -3.43139 0
M  V30 6977 O 654.092 0.114259 -4.37951 0
M  V30 6978 C 655.593 1.8805 -4.01438 0
M  V30 6979 H 652.813 0.137962 -0.656664 0
M  V30 6980 H 655.357 -0.226359 -2.03243 0
M  V30 6981 H 653.512 1.84056 -3.40885 0
M  V30 6982 H 653.926 0.56058 -5.21496 0
M  V30 6983 H 655.4 2.26133 -5.03555 0
M  V30 6984 H 655.877 2.76194 -3.41487 0
M  V30 6985 H 656.483 1.22464 -4.07287 0
M  V30 6986 N 654.798 1.5699 0.138552 0
M  V30 6987 C 655.708 2.02174 1.19008 0
M  V30 6988 C 656.724 0.938622 1.46512 0
M  V30 6989 O 657.9 1.24872 1.58016 0
M  V30 6990 C 654.965 2.40045 2.50159 0
M  V30 6991 C 654.026 3.62346 2.30226 0
M  V30 6992 C 653.259 3.98401 3.55123 0
M  V30 6993 O 653.482 3.35019 4.61647 0
M  V30 6994 O 652.416 4.91606 3.47285 0
M  V30 6995 H 656.242 2.91954 0.836452 0
M  V30 6996 H 653.827 1.45293 0.347907 0
M  V30 6997 H 655.709 2.65225 3.27465 0
M  V30 6998 H 654.384 1.53417 2.85035 0
M  V30 6999 H 653.291 3.42341 1.50843 0
M  V30 7000 H 654.624 4.49617 2.00262 0
M  V30 7001 N 656.276 -0.40816 1.52223 0
M  V30 7002 C 657.223 -1.49737 1.75635 0
M  V30 7003 C 658.193 -1.5493 0.598824 0
M  V30 7004 O 659.378 -1.71487 0.83648 0
M  V30 7005 C 656.518 -2.87174 1.91376 0
M  V30 7006 C 655.631 -2.91283 3.19027 0
M  V30 7007 C 654.766 -4.20026 3.25195 0
M  V30 7008 C 653.805 -4.18113 4.47044 0
M  V30 7009 N 652.942 -5.38429 4.50598 0
M  V30 7010 H 657.782 -1.29075 2.68596 0
M  V30 7011 H 655.319 -0.626518 1.33091 0
M  V30 7012 H 657.277 -3.66959 1.98486 0
M  V30 7013 H 655.907 -3.06329 1.01795 0
M  V30 7014 H 654.959 -2.03984 3.21084 0
M  V30 7015 H 656.271 -2.85734 4.08849 0
M  V30 7016 H 655.425 -5.08204 3.31382 0
M  V30 7017 H 654.164 -4.28271 2.33313 0
M  V30 7018 H 653.169 -3.28325 4.41002 0
M  V30 7019 H 654.394 -4.11507 5.40221 0
M  V30 7020 H 652.34 -5.4734 3.616 0
M  V30 7021 H 652.257 -5.34879 5.34266 0
M  V30 7022 H 653.525 -6.28557 4.61016 0
M  V30 7023 N 657.755 -1.42862 -0.66545 0
M  V30 7024 C 658.665 -1.49491 -1.80803 0
M  V30 7025 C 659.681 -0.382914 -1.69734 0
M  V30 7026 O 660.857 -0.635223 -1.9112 0
M  V30 7027 C 657.922 -1.40383 -3.17007 0
M  V30 7028 C 656.983 -2.62152 -3.39963 0
M  V30 7029 C 656.216 -2.53469 -4.69669 0
M  V30 7030 O 656.439 -1.57568 -5.48205 0
M  V30 7031 O 655.373 -3.43763 -4.94075 0
M  V30 7032 H 659.199 -2.45949 -1.78165 0
M  V30 7033 H 656.784 -1.24728 -0.822387 0
M  V30 7034 H 658.666 -1.377 -3.98267 0
M  V30 7035 H 657.341 -0.470546 -3.20262 0
M  V30 7036 H 656.248 -2.70409 -2.58515 0
M  V30 7037 H 657.581 -3.54411 -3.41546 0
M  V30 7038 N 659.233 0.902656 -1.29189 0
M  V30 7039 C 660.163 2.02294 -1.16616 0
M  V30 7040 C 661.144 1.6999 -0.0611175 0
M  V30 7041 O 662.329 1.9271 -0.240072 0
M  V30 7042 C 659.459 3.37018 -0.83882 0
M  V30 7043 C 658.413 3.83522 -1.89986 0
M  V30 7044 C 657.739 5.15337 -1.42589 0
M  V30 7045 C 659.039 4.04169 -3.30824 0
M  V30 7046 H 660.733 2.13071 -2.10336 0
M  V30 7047 H 658.279 1.02378 -1.01266 0
M  V30 7048 H 660.232 4.14895 -0.737584 0
M  V30 7049 H 658.956 3.26325 0.134071 0
M  V30 7050 H 657.615 3.07859 -1.99043 0
M  V30 7051 H 657.263 5.01056 -0.441759 0
M  V30 7052 H 656.963 5.47423 -2.13547 0
M  V30 7053 H 658.487 5.95758 -1.3381 0
M  V30 7054 H 659.901 4.72537 -3.24626 0
M  V30 7055 H 658.298 4.47604 -3.99713 0
M  V30 7056 H 659.368 3.08604 -3.74021 0
M  V30 7057 N 660.711 1.11618 1.11262 0
M  V30 7058 C 661.988 0.777876 1.79467 0
M  V30 7059 C 662.368 -0.733774 1.97937 0
M  V30 7060 O 661.716 -1.66443 1.56554 0
M  V30 7061 C 661.926 1.5431 3.13032 0
M  V30 7062 C 663.274 1.72357 3.88044 0
M  V30 7063 O 664.298 1.5075 3.22727 0
M  V30 7064 O 663.157 2.08276 5.05256 0
M  V30 7065 H 660.251 0.282018 0.777428 0
M  V30 7066 H 662.797 1.21971 1.17988 0
M  V30 7067 H 661.569 2.57132 2.94956 0
M  V30 7068 H 661.192 1.09495 3.82226 0
M  V30 7069 N 662.189 -1.289 0.906776 0
M  V30 7070 C 663.417 -1.99401 0.551969 0
M  V30 7071 C 663.832 -1.67816 -0.865048 0
M  V30 7072 O 663.189 -0.927078 -1.57199 0
M  V30 7073 C 663.24 -3.53779 0.743152 0
M  V30 7074 O 662.961 -3.84248 2.1044 0
M  V30 7075 C 664.462 -4.41543 0.39424 0
M  V30 7076 H 661.682 -0.636926 0.211106 0
M  V30 7077 H 664.226 -1.64266 1.21807 0
M  V30 7078 H 662.381 -3.87201 0.124143 0
M  V30 7079 H 662.795 -4.78904 2.13895 0
M  V30 7080 H 664.269 -5.48957 0.578814 0
M  V30 7081 H 664.746 -4.34073 -0.669137 0
M  V30 7082 H 665.352 -4.13605 0.990491 0
M  V30 7083 N 663.667 -0.670007 -1.42649 0
M  V30 7084 C 664.913 -0.190568 -2.01903 0
M  V30 7085 C 665.246 1.19817 -1.52832 0
M  V30 7086 O 664.521 1.80342 -0.728485 0
M  V30 7087 C 664.804 -0.21991 -3.59428 0
M  V30 7088 C 664.657 -1.64376 -4.18689 0
M  V30 7089 C 665.976 0.434519 -4.3795 0
M  V30 7090 H 663.095 -0.0707219 -0.733599 0
M  V30 7091 H 665.737 -0.853883 -1.69732 0
M  V30 7092 H 663.887 0.344894 -3.86966 0
M  V30 7093 H 665.559 -2.26044 -4.02122 0
M  V30 7094 H 663.802 -2.18591 -3.747 0
M  V30 7095 H 664.473 -1.61601 -5.27815 0
M  V30 7096 H 666.949 -0.0462156 -4.16074 0
M  V30 7097 H 665.825 0.38333 -5.4756 0
M  V30 7098 H 666.086 1.51135 -4.15464 0
M  V30 7099 N 665.145 1.52092 -0.413018 0
M  V30 7100 C 666.055 2.30858 0.417318 0
M  V30 7101 C 667.071 1.38746 1.05003 0
M  V30 7102 O 668.247 1.71821 1.05069 0
M  V30 7103 C 665.312 3.11756 1.51687 0
M  V30 7104 C 664.373 4.19613 0.906825 0
M  V30 7105 C 663.606 4.96644 1.95399 0
M  V30 7106 O 663.829 4.7402 3.17271 0
M  V30 7107 O 662.763 5.81385 1.55805 0
M  V30 7108 H 666.589 3.02865 -0.225028 0
M  V30 7109 H 664.174 1.48358 -0.176126 0
M  V30 7110 H 666.056 3.62122 2.15512 0
M  V30 7111 H 664.731 2.42539 2.14375 0
M  V30 7112 H 663.638 3.73385 0.231183 0
M  V30 7113 H 664.971 4.91134 0.323814 0
M  V30 7114 N 666.623 0.143563 1.56945 0
M  V30 7115 C 667.869 -0.50916 1.96304 0
M  V30 7116 C 668.202 -1.64741 1.0283 0
M  V30 7117 O 667.477 -1.94374 0.0700361 0
M  V30 7118 C 667.76 -1.0186 3.45393 0
M  V30 7119 C 667.613 0.117923 4.49645 0
M  V30 7120 C 668.932 -1.90151 3.96901 0
M  V30 7121 H 666.051 -0.183608 0.713763 0
M  V30 7122 H 668.693 0.224095 1.88674 0
M  V30 7123 H 666.843 -1.64345 3.52027 0
M  V30 7124 H 668.515 0.754145 4.55094 0
M  V30 7125 H 666.758 0.777568 4.26774 0
M  V30 7126 H 667.429 -0.280187 5.51288 0
M  V30 7127 H 669.905 -1.375 3.92725 0
M  V30 7128 H 668.781 -2.22707 5.0169 0
M  V30 7129 H 669.042 -2.83718 3.39052 0
M  V30 7130 N 668.101 -1.57061 -0.130224 0
M  V30 7131 C 669.031 -2.02552 -1.16168 0
M  V30 7132 C 670.012 -0.907971 -1.4384 0
M  V30 7133 O 671.197 -1.17693 -1.54473 0
M  V30 7134 C 668.327 -2.42035 -2.49071 0
M  V30 7135 C 667.281 -3.5713 -2.35886 0
M  V30 7136 C 666.607 -3.82478 -3.7365 0
M  V30 7137 C 667.907 -4.89236 -1.8288 0
M  V30 7138 H 669.601 -2.8897 -0.783359 0
M  V30 7139 H 667.147 -1.39021 -0.375376 0
M  V30 7140 H 669.1 -2.72462 -3.21469 0
M  V30 7141 H 667.824 -1.52573 -2.88771 0
M  V30 7142 H 666.483 -3.26895 -1.65938 0
M  V30 7143 H 666.131 -2.9024 -4.10816 0
M  V30 7144 H 665.831 -4.59944 -3.65685 0
M  V30 7145 H 667.355 -4.15347 -4.47571 0
M  V30 7146 H 668.769 -5.18272 -2.45085 0
M  V30 7147 H 667.166 -5.70624 -1.85763 0
M  V30 7148 H 668.236 -4.78494 -0.785571 0
M  V30 7149 N 669.579 0.400081 -1.52437 0
M  V30 7150 C 670.526 1.48803 -1.76426 0
M  V30 7151 C 671.496 1.5461 -0.607032 0
M  V30 7152 O 672.681 1.71041 -0.845563 0
M  V30 7153 C 669.821 2.86156 -1.92896 0
M  V30 7154 C 668.934 2.89587 -3.20567 0
M  V30 7155 C 668.069 4.18296 -3.27417 0
M  V30 7156 C 667.108 4.15736 -4.49255 0
M  V30 7157 N 666.245 5.36032 -4.53447 0
M  V30 7158 H 671.085 1.27649 -2.69276 0
M  V30 7159 H 668.622 0.619451 -1.33421 0
M  V30 7160 H 670.58 3.65901 -2.00429 0
M  V30 7161 H 669.21 3.05785 -1.03418 0
M  V30 7162 H 668.262 2.02278 -3.22161 0
M  V30 7163 H 669.574 2.83562 -4.10358 0
M  V30 7164 H 668.728 5.06439 -3.34072 0
M  V30 7165 H 667.467 4.27028 -2.35581 0
M  V30 7166 H 666.472 3.25982 -4.42737 0
M  V30 7167 H 667.697 4.08636 -5.42396 0
M  V30 7168 H 665.643 5.45415 -3.64498 0
M  V30 7169 H 665.56 5.32038 -5.37096 0
M  V30 7170 H 666.828 6.26104 -4.64343 0
M  V30 7171 N 671.057 1.43213 0.657864 0
M  V30 7172 C 672.02 1.47687 1.75275 0
M  V30 7173 C 673.02 0.362179 1.56668 0
M  V30 7174 O 674.21 0.623734 1.62651 0
M  V30 7175 C 671.342 1.32497 3.14098 0
M  V30 7176 H 672.535 2.4519 1.7269 0
M  V30 7177 H 670.088 1.2991 0.869087 0
M  V30 7178 H 670.823 0.359831 3.22298 0
M  V30 7179 H 670.608 2.13299 3.29008 0
M  V30 7180 H 672.098 1.38549 3.93946 0
M  V30 7181 N 672.536 -0.895792 1.29666 0
M  V30 7182 C 673.785 -1.64131 1.17234 0
M  V30 7183 C 674.098 -1.93665 -0.274416 0
M  V30 7184 O 675.304 -2.66472 -0.520105 0
M  V30 7185 C 673.76 -2.95764 2.05065 0
M  V30 7186 C 673.368 -2.7381 3.54587 0
M  V30 7187 C 675.112 -3.737 2.01367 0
M  V30 7188 C 673.019 -4.01194 4.34508 0
M  V30 7189 H 671.949 -0.615742 0.435175 0
M  V30 7190 H 674.6 -0.992626 1.54335 0
M  V30 7191 H 672.982 -3.61867 1.60837 0
M  V30 7192 H 674.156 -2.16277 4.06892 0
M  V30 7193 H 672.471 -2.09265 3.59996 0
M  V30 7194 H 675.068 -4.68152 2.58337 0
M  V30 7195 H 675.411 -4.04245 0.994575 0
M  V30 7196 H 675.944 -3.14444 2.43659 0
M  V30 7197 H 672.683 -3.75813 5.37071 0
M  V30 7198 H 672.203 -4.58272 3.86971 0
M  V30 7199 H 673.882 -4.69307 4.45376 0
M  V30 7200 N 674.014 -1.12206 -1.10668 0
M  V30 7201 C 674.946 -0.74552 -2.16736 0
M  V30 7202 C 675.959 0.226696 -1.61214 0
M  V30 7203 O 677.148 0.0083936 -1.78498 0
M  V30 7204 C 674.248 -0.0823368 -3.388 0
M  V30 7205 C 673.421 -1.08341 -4.2377 0
M  V30 7206 C 672.48 -0.448292 -5.24287 0
M  V30 7207 O 671.506 -1.10458 -5.58379 0
M  V30 7208 N 672.708 0.785336 -5.75163 0
M  V30 7209 H 675.473 -1.65818 -2.49649 0
M  V30 7210 H 673.034 -1.01335 -1.26265 0
M  V30 7211 H 675.026 0.354476 -4.03145 0
M  V30 7212 H 673.596 0.733041 -3.03884 0
M  V30 7213 H 672.816 -1.69792 -3.55759 0
M  V30 7214 H 674.104 -1.76042 -4.77375 0
M  V30 7215 H 673.502 1.33755 -5.4966 0
M  V30 7216 H 672.059 1.16501 -6.41304 0
M  V30 7217 N 675.492 1.28418 -0.913599 0
M  V30 7218 C 676.439 2.27301 -0.400373 0
M  V30 7219 C 677.409 1.57582 0.52509 0
M  V30 7220 O 678.594 1.85482 0.447318 0
M  V30 7221 C 675.734 3.43284 0.35361 0
M  V30 7222 C 674.847 4.27752 -0.604341 0
M  V30 7223 C 673.982 5.30934 0.168075 0
M  V30 7224 C 673.021 6.07065 -0.783499 0
M  V30 7225 N 672.158 7.02086 -0.0446112 0
M  V30 7226 H 676.998 2.70579 -1.24865 0
M  V30 7227 H 674.535 1.33067 -0.627028 0
M  V30 7228 H 676.493 4.09322 0.806945 0
M  V30 7229 H 675.123 3.00997 1.16623 0
M  V30 7230 H 674.175 3.61759 -1.17621 0
M  V30 7231 H 675.487 4.80682 -1.33216 0
M  V30 7232 H 674.641 6.02855 0.681979 0
M  V30 7233 H 673.38 4.78771 0.928947 0
M  V30 7234 H 672.385 5.33995 -1.30878 0
M  V30 7235 H 673.61 6.61317 -1.54392 0
M  V30 7236 H 671.556 6.52273 0.698272 0
M  V30 7237 H 671.473 7.52637 -0.712258 0
M  V30 7238 H 672.741 7.78205 0.449102 0
M  V30 7239 N 676.97 0.677563 1.42291 0
M  V30 7240 C 677.933 0.0101085 2.29198 0
M  V30 7241 C 678.933 -0.726219 1.43467 0
M  V30 7242 O 680.123 -0.563807 1.64824 0
M  V30 7243 C 677.255 -0.996316 3.26016 0
M  V30 7244 H 678.448 0.775071 2.89711 0
M  V30 7245 H 676.001 0.440065 1.49977 0
M  V30 7246 H 676.736 -1.78967 2.70446 0
M  V30 7247 H 676.521 -0.471687 3.89253 0
M  V30 7248 H 678.011 -1.46167 3.91184 0
M  V30 7249 N 678.448 -1.51871 0.421078 0
M  V30 7250 C 679.395 -2.27334 -0.398508 0
M  V30 7251 C 680.365 -1.30241 -1.03085 0
M  V30 7252 O 681.55 -1.59121 -1.05285 0
M  V30 7253 C 678.69 -3.10664 -1.50272 0
M  V30 7254 C 677.803 -4.2273 -0.890122 0
M  V30 7255 C 676.938 -4.93399 -1.96803 0
M  V30 7256 C 675.977 -5.97409 -1.333 0
M  V30 7257 N 675.114 -6.61548 -2.35156 0
M  V30 7258 H 679.954 -2.96938 0.251411 0
M  V30 7259 H 677.491 -1.46472 0.135825 0
M  V30 7260 H 679.449 -3.57292 -2.15403 0
M  V30 7261 H 678.079 -2.43207 -2.1225 0
M  V30 7262 H 677.131 -3.80186 -0.127537 0
M  V30 7263 H 678.443 -4.97302 -0.386349 0
M  V30 7264 H 677.597 -5.43491 -2.69633 0
M  V30 7265 H 676.336 -4.18421 -2.50549 0
M  V30 7266 H 675.341 -5.46624 -0.59008 0
M  V30 7267 H 676.566 -6.74335 -0.803076 0
M  V30 7268 H 674.512 -5.89394 -2.88012 0
M  V30 7269 H 674.429 -7.31832 -1.89624 0
M  V30 7270 H 675.697 -7.16276 -3.0752 0
M  V30 7271 N 679.926 -0.151884 -1.56866 0
M  V30 7272 C 680.836 0.798876 -2.20579 0
M  V30 7273 C 681.852 1.268 -1.19154 0
M  V30 7274 O 683.028 1.32418 -1.51748 0
M  V30 7275 C 680.093 2.01861 -2.81874 0
M  V30 7276 C 679.154 1.59825 -3.9844 0
M  V30 7277 C 678.387 2.75984 -4.56802 0
M  V30 7278 O 678.61 3.92331 -4.14044 0
M  V30 7279 O 677.544 2.51175 -5.46987 0
M  V30 7280 H 681.37 0.2865 -3.02346 0
M  V30 7281 H 678.955 0.0753806 -1.4921 0
M  V30 7282 H 680.837 2.73235 -3.20813 0
M  V30 7283 H 679.512 2.52042 -2.03117 0
M  V30 7284 H 678.419 0.854601 -3.64208 0
M  V30 7285 H 679.752 1.14355 -4.78731 0
M  V30 7286 N 681.404 1.57128 0.121893 0
M  V30 7287 C 682.65 1.84974 0.831418 0
M  V30 7288 C 682.983 0.737204 1.79663 0
M  V30 7289 O 682.258 -0.257199 1.92792 0
M  V30 7290 C 682.541 3.23397 1.58386 0
M  V30 7291 C 682.394 4.45246 0.638445 0
M  V30 7292 C 683.713 3.59355 2.54071 0
M  V30 7293 H 680.832 0.67282 0.300803 0
M  V30 7294 H 683.474 1.89759 0.0957587 0
M  V30 7295 H 681.624 3.19449 2.21098 0
M  V30 7296 H 683.296 4.61295 0.0203925 0
M  V30 7297 H 681.539 4.33771 -0.05023 0
M  V30 7298 H 682.21 5.38765 1.20151 0
M  V30 7299 H 684.686 3.64075 2.01465 0
M  V30 7300 H 683.562 4.57193 3.03752 0
M  V30 7301 H 683.823 2.86622 3.36601 0
M  V30 7302 N 682.882 -0.391992 1.52647 0
M  V30 7303 C 683.829 -1.47866 1.77213 0
M  V30 7304 C 684.799 -1.54286 0.615223 0
M  V30 7305 O 685.984 -1.7059 0.854622 0
M  V30 7306 C 683.124 -2.85129 1.94411 0
M  V30 7307 C 682.237 -2.87883 3.22098 0
M  V30 7308 C 681.372 -4.16553 3.29631 0
M  V30 7309 C 680.411 -4.13348 4.51453 0
M  V30 7310 N 679.548 -5.33619 4.56284 0
M  V30 7311 H 684.388 -1.26219 2.6995 0
M  V30 7312 H 681.925 -0.612367 1.33748 0
M  V30 7313 H 683.883 -3.64833 2.02367 0
M  V30 7314 H 682.513 -3.05232 1.05038 0
M  V30 7315 H 681.565 -2.00567 3.23229 0
M  V30 7316 H 682.877 -2.81382 4.11856 0
M  V30 7317 H 682.031 -5.0466 3.36753 0
M  V30 7318 H 680.77 -4.25773 2.37842 0
M  V30 7319 H 679.775 -3.23629 4.44459 0
M  V30 7320 H 681 -4.05754 5.44555 0
M  V30 7321 H 678.946 -5.43474 3.67385 0
M  V30 7322 H 678.863 -5.29182 5.3991 0
M  V30 7323 H 680.131 -6.23632 4.67657 0
M  V30 7324 N 684.36 -1.4356 -0.65026 0
M  V30 7325 C 685.585 -1.48995 -1.44275 0
M  V30 7326 C 686.01 -0.109954 -1.87778 0
M  V30 7327 O 685.368 0.896926 -1.57559 0
M  V30 7328 C 685.416 -2.44341 -2.65198 0
M  V30 7329 O 684.52 -1.93172 -3.6436 0
M  V30 7330 H 683.861 -0.503852 -0.432469 0
M  V30 7331 H 686.391 -1.88504 -0.795446 0
M  V30 7332 H 686.401 -2.61743 -3.12977 0
M  V30 7333 H 685.076 -3.44588 -2.32877 0
M  V30 7334 H 683.653 -1.85445 -3.23519 0
M  V30 7335 N 685.838 0.888903 -1.30139 0
M  V30 7336 C 686.785 1.99422 -1.16188 0
M  V30 7337 C 687.755 1.66017 -0.0523869 0
M  V30 7338 O 688.94 1.89506 -0.221864 0
M  V30 7339 C 686.08 3.34325 -0.855612 0
M  V30 7340 C 685.193 3.80445 -2.0466 0
M  V30 7341 C 684.328 5.03975 -1.67876 0
M  V30 7342 C 683.367 5.42492 -2.83493 0
M  V30 7343 N 682.504 6.57206 -2.47032 0
M  V30 7344 H 687.344 2.10687 -2.10749 0
M  V30 7345 H 684.881 1.03165 -1.04859 0
M  V30 7346 H 686.839 4.11968 -0.658681 0
M  V30 7347 H 685.469 3.22756 0.0531155 0
M  V30 7348 H 684.521 2.98745 -2.3549 0
M  V30 7349 H 685.833 4.04933 -2.91257 0
M  V30 7350 H 684.987 5.89232 -1.44535 0
M  V30 7351 H 683.726 4.8135 -0.784431 0
M  V30 7352 H 682.731 4.55764 -3.07505 0
M  V30 7353 H 683.956 5.67093 -3.73607 0
M  V30 7354 H 681.902 6.36164 -1.601 0
M  V30 7355 H 681.819 6.81543 -3.27161 0
M  V30 7356 H 683.087 7.45704 -2.27038 0
M  V30 7357 N 687.317 1.12792 1.10072 0
M  V30 7358 C 688.247 0.821688 2.18565 0
M  V30 7359 C 689.228 -0.21612 1.68721 0
M  V30 7360 O 690.413 -0.0764932 1.94049 0
M  V30 7361 C 687.543 0.279624 3.46172 0
M  V30 7362 C 686.497 1.25092 4.09312 0
M  V30 7363 C 685.823 0.568916 5.31665 0
M  V30 7364 C 687.123 2.60699 4.52585 0
M  V30 7365 H 688.817 1.72888 2.44438 0
M  V30 7366 H 686.363 0.832702 1.17482 0
M  V30 7367 H 688.316 0.053099 4.21367 0
M  V30 7368 H 687.04 -0.662929 3.19801 0
M  V30 7369 H 685.699 1.46332 3.36129 0
M  V30 7370 H 685.347 -0.378898 5.01571 0
M  V30 7371 H 685.047 1.21687 5.74862 0
M  V30 7372 H 686.571 0.351517 6.09587 0
M  V30 7373 H 687.985 2.43465 5.19035 0
M  V30 7374 H 686.382 3.21608 5.06644 0
M  V30 7375 H 687.452 3.1886 3.65317 0
M  V30 7376 N 688.795 -1.27931 0.920396 0
M  V30 7377 C 690.02 -1.99343 0.572478 0
M  V30 7378 C 690.445 -1.68267 -0.840696 0
M  V30 7379 O 689.803 -0.918805 -1.56294 0
M  V30 7380 C 689.851 -3.51698 0.796284 0
M  V30 7381 O 688.955 -4.12157 -0.141602 0
M  V30 7382 H 688.296 -0.626065 0.221221 0
M  V30 7383 H 690.826 -1.62921 1.23765 0
M  V30 7384 H 690.836 -4.01793 0.708984 0
M  V30 7385 H 689.511 -3.73649 1.82644 0
M  V30 7386 H 688.088 -3.729 -0.005007 0
M  V30 7387 N 690.273 -0.685099 -1.4193 0
M  V30 7388 C 691.221 -0.00165985 -2.326 0
M  V30 7389 C 692.215 0.779678 -1.50391 0
M  V30 7390 O 693.421 0.68648 -1.66395 0
M  V30 7391 H 689.796 0.0182616 -0.751778 0
M  V30 7392 H 691.767 -0.783592 -2.87928 0
M  V30 7393 C 690.516 0.928385 -3.35077 0
M  V30 7394 H 689.839 0.336578 -3.98381 0
M  V30 7395 H 691.279 1.37509 -4.01083 0
M  V30 7396 C 689.738 2.03964 -2.68142 0
M  V30 7397 O 690.268 3.12727 -2.5212 0
M  V30 7398 N 688.474 1.81433 -2.27003 0
M  V30 7399 H 688.021 0.929807 -2.40234 0
M  V30 7400 H 687.979 2.55973 -1.82552 0
M  V30 7401 N 691.751 1.51645 -0.429126 0
M  V30 7402 C 693.162 1.86665 0.0359003 0
M  V30 7403 C 693.513 1.34677 1.42676 0
M  V30 7404 O 692.638 0.694195 2.04963 0
M  V30 7405 C 693.233 3.38724 0.0719221 0
M  V30 7406 C 691.792 3.7331 0.481336 0
M  V30 7407 C 690.939 2.75313 -0.331329 0
M  V30 7408 H 693.89 1.44987 -0.645333 0
M  V30 7409 H 693.911 3.7011 0.883118 0
M  V30 7410 H 693.423 3.76532 -0.940495 0
M  V30 7411 H 691.524 3.41088 1.49966 0
M  V30 7412 H 691.637 4.78631 0.211837 0
M  V30 7413 H 690.001 2.53839 0.209204 0
M  V30 7414 H 690.784 3.15963 -1.34247 0
M  V30 7415 N 693.229 0.160201 1.56784 0
M  V30 7416 C 694.139 -0.787167 2.21 0
M  V30 7417 C 695.155 -1.26167 1.19825 0
M  V30 7418 O 696.331 -1.31611 1.52448 0
M  V30 7419 C 693.396 -2.00364 2.8294 0
M  V30 7420 C 692.457 -1.5771 3.99282 0
M  V30 7421 C 691.69 -2.73558 4.58259 0
M  V30 7422 O 691.913 -3.90129 4.16119 0
M  V30 7423 O 690.847 -2.48271 5.48311 0
M  V30 7424 H 694.673 -0.270462 3.02493 0
M  V30 7425 H 692.258 -0.0674666 1.49248 0
M  V30 7426 H 694.14 -2.71529 3.22257 0
M  V30 7427 H 692.815 -2.50961 2.04451 0
M  V30 7428 H 691.722 -0.835274 3.64656 0
M  V30 7429 H 693.055 -1.11815 4.79331 0
M  V30 7430 N 694.707 -1.5719 -0.113559 0
M  V30 7431 C 695.654 -2.00736 -1.13901 0
M  V30 7432 C 696.624 -0.88044 -1.40846 0
M  V30 7433 O 697.809 -1.14507 -1.5262 0
M  V30 7434 C 694.949 -2.42132 -2.45899 0
M  V30 7435 C 694.062 -3.68264 -2.25844 0
M  V30 7436 C 693.197 -3.98617 -3.5111 0
M  V30 7437 C 692.236 -5.17915 -3.26236 0
M  V30 7438 N 691.373 -5.44111 -4.4372 0
M  V30 7439 H 696.213 -2.88128 -0.760677 0
M  V30 7440 H 693.75 -1.42523 -0.364099 0
M  V30 7441 H 695.708 -2.6417 -3.22908 0
M  V30 7442 H 694.338 -1.57775 -2.81615 0
M  V30 7443 H 693.39 -3.53809 -1.39726 0
M  V30 7444 H 694.702 -4.55425 -2.03444 0
M  V30 7445 H 693.856 -4.21333 -4.36536 0
M  V30 7446 H 692.595 -3.09942 -3.76546 0
M  V30 7447 H 691.6 -4.95038 -2.39202 0
M  V30 7448 H 692.825 -6.08172 -3.02165 0
M  V30 7449 H 690.771 -4.58394 -4.69266 0
M  V30 7450 H 690.688 -6.25606 -4.24444 0
M  V30 7451 H 691.956 -5.71351 -5.30263 0
M  V30 7452 N 696.185 0.383891 -1.52853 0
M  V30 7453 C 697.132 1.46924 -1.77995 0
M  V30 7454 C 698.102 1.53958 -0.623396 0
M  V30 7455 O 699.287 1.70134 -0.863657 0
M  V30 7456 C 696.427 2.84093 -1.95921 0
M  V30 7457 C 695.54 2.86171 -3.23621 0
M  V30 7458 C 694.675 4.14799 -3.31836 0
M  V30 7459 C 693.714 4.10948 -4.53639 0
M  V30 7460 N 692.851 5.31192 -4.59107 0
M  V30 7461 H 697.691 1.24786 -2.70615 0
M  V30 7462 H 695.228 0.605265 -1.34071 0
M  V30 7463 H 697.186 3.63755 -2.04299 0
M  V30 7464 H 695.816 3.04671 -1.06656 0
M  V30 7465 H 694.868 1.9885 -3.24288 0
M  V30 7466 H 696.18 2.79194 -4.13343 0
M  V30 7467 H 695.334 5.02867 -3.39425 0
M  V30 7468 H 694.073 4.24505 -2.40097 0
M  V30 7469 H 693.078 3.21268 -4.46169 0
M  V30 7470 H 694.303 4.0286 -5.467 0
M  V30 7471 H 692.249 5.41518 -3.70262 0
M  V30 7472 H 692.166 5.26311 -5.42708 0
M  V30 7473 H 693.434 6.21143 -4.70958 0
M  V30 7474 N 697.663 1.43903 0.642637 0
M  V30 7475 C 698.911 1.45791 1.39962 0
M  V30 7476 C 699.232 0.0873144 1.94804 0
M  V30 7477 O 698.502 -0.878825 1.75081 0
M  V30 7478 H 697.082 0.536797 0.519479 0
M  V30 7479 H 699.744 1.7959 0.757189 0
M  V30 7480 H 698.84 2.17665 2.2367 0
M  V30 7481 N 699.141 -0.881989 1.30609 0
M  V30 7482 C 700.389 -1.63082 1.19368 0
M  V30 7483 C 700.71 -1.93376 -0.251147 0
M  V30 7484 O 699.98 -1.5723 -1.16857 0
M  V30 7485 H 698.56 -0.604542 0.438791 0
M  V30 7486 H 701.222 -1.05658 1.63776 0
M  V30 7487 H 700.318 -2.57966 1.7567 0
M  V30 7488 N 700.619 -1.13374 -1.09472 0
M  V30 7489 C 701.529 -0.824029 -2.19652 0
M  V30 7490 C 702.545 0.19118 -1.72947 0
M  V30 7491 O 703.721 0.0223464 -2.01388 0
M  V30 7492 C 700.786 -0.294009 -3.45451 0
M  V30 7493 C 699.847 -1.3704 -4.0684 0
M  V30 7494 C 699.08 -0.86558 -5.26634 0
M  V30 7495 O 699.303 0.29702 -5.69626 0
M  V30 7496 O 698.237 -1.63968 -5.79136 0
M  V30 7497 H 702.063 -1.74454 -2.48595 0
M  V30 7498 H 699.648 -0.911155 -1.18399 0
M  V30 7499 H 701.53 -0.00381039 -4.214 0
M  V30 7500 H 700.205 0.598921 -3.18111 0
M  V30 7501 H 699.112 -1.71391 -3.3253 0
M  V30 7502 H 700.445 -2.23746 -4.38405 0
M  V30 7503 N 702.098 1.27442 -0.927168 0
M  V30 7504 C 703.375 1.89473 -0.485742 0
M  V30 7505 C 703.755 1.83922 1.03614 0
M  V30 7506 O 703.103 1.28409 1.89007 0
M  V30 7507 C 703.313 3.33417 -1.03123 0
M  V30 7508 C 704.661 4.10333 -1.0914 0
M  V30 7509 O 705.685 3.4243 -0.98082 0
M  V30 7510 O 704.544 5.31737 -1.26165 0
M  V30 7511 H 701.638 0.812124 -0.156154 0
M  V30 7512 H 704.184 1.35713 -1.01882 0
M  V30 7513 H 702.956 3.31747 -2.07508 0
M  V30 7514 H 702.579 3.94695 -0.479767 0
M  V30 7515 N 703.576 0.692616 1.41565 0
M  V30 7516 C 704.801 0.229776 2.06123 0
M  V30 7517 C 705.226 -1.11119 1.5177 0
M  V30 7518 O 704.584 -1.69498 0.643444 0
M  V30 7519 C 704.632 0.19469 3.60074 0
M  V30 7520 O 703.736 -0.831366 4.03933 0
M  V30 7521 H 703.077 0.113002 0.654314 0
M  V30 7522 H 705.607 0.946645 1.81383 0
M  V30 7523 H 705.617 0.0245487 4.07993 0
M  V30 7524 H 704.292 1.17339 3.99004 0
M  V30 7525 H 702.869 -0.630819 3.67526 0
M  V30 7526 N 705.054 -1.51416 0.437162 0
M  V30 7527 C 706.47 -1.59349 0.0894459 0
M  V30 7528 C 706.67 -1.44809 -1.40116 0
M  V30 7529 O 705.726 -1.28924 -2.17106 0
M  V30 7530 C 707.039 -2.9446 0.609398 0
M  V30 7531 C 708.587 -3.07769 0.569824 0
M  V30 7532 C 709.062 -4.45404 1.06675 0
M  V30 7533 N 710.553 -4.51723 1.02473 0
M  V30 7534 C 711.288 -5.56544 1.3801 0
M  V30 7535 N 710.784 -6.68784 1.80831 0
M  V30 7536 N 712.577 -5.46901 1.29828 0
M  V30 7537 H 704.728 -1.59112 1.40703 0
M  V30 7538 H 706.991 -0.750031 0.579791 0
M  V30 7539 H 706.697 -3.1047 1.65231 0
M  V30 7540 H 706.571 -3.77184 0.0342236 0
M  V30 7541 H 708.958 -2.91428 -0.464107 0
M  V30 7542 H 709.039 -2.26885 1.1814 0
M  V30 7543 H 708.683 -4.62492 2.09914 0
M  V30 7544 H 708.613 -5.24827 0.431712 0
M  V30 7545 H 711.104 -3.71165 0.710258 0
M  V30 7546 H 711.417 -7.44787 2.06185 0
M  V30 7547 H 709.762 -6.69992 1.84757 0
M  V30 7548 H 712.953 -4.581 0.962397 0
M  V30 7549 H 713.126 -6.2848 1.57851 0
M  V30 7550 N 706.532 -0.168513 -1.56696 0
M  V30 7551 C 707.462 0.758563 -2.20835 0
M  V30 7552 C 708.443 1.24121 -1.1631 0
M  V30 7553 O 709.628 1.29487 -1.4473 0
M  V30 7554 C 706.758 1.9892 -2.8469 0
M  V30 7555 C 705.712 1.64252 -3.95228 0
M  V30 7556 C 705.038 2.94757 -4.46119 0
M  V30 7557 C 706.338 0.872675 -5.14958 0
M  V30 7558 H 708.032 0.223953 -2.98561 0
M  V30 7559 H 705.578 0.106277 -1.43607 0
M  V30 7560 H 707.531 2.64275 -3.28233 0
M  V30 7561 H 706.255 2.5479 -2.04327 0
M  V30 7562 H 704.914 1.01266 -3.52336 0
M  V30 7563 H 704.562 3.48662 -3.62552 0
M  V30 7564 H 704.262 2.72316 -5.2069 0
M  V30 7565 H 705.786 3.61147 -4.92347 0
M  V30 7566 H 707.2 1.42875 -5.55211 0
M  V30 7567 H 705.597 0.747402 -5.95428 0
M  V30 7568 H 706.667 -0.131535 -4.84722 0
M  V30 7569 N 708.01 1.57248 0.105221 0
M  V30 7570 C 709.235 1.90143 0.828264 0
M  V30 7571 C 709.66 0.761811 1.71983 0
M  V30 7572 O 709.018 -0.287086 1.79013 0
M  V30 7573 C 709.066 3.21856 1.62608 0
M  V30 7574 O 708.17 3.08732 2.7342 0
M  V30 7575 H 707.511 0.623558 0.228192 0
M  V30 7576 H 710.041 2.0443 0.0834826 0
M  V30 7577 H 710.051 3.54916 2.01243 0
M  V30 7578 H 708.726 4.0439 0.971687 0
M  V30 7579 H 707.303 2.87167 2.37886 0
M  V30 7580 N 709.488 -0.375779 1.53054 0
M  V30 7581 C 710.451 -1.44254 1.7811 0
M  V30 7582 C 711.451 -1.47018 0.651328 0
M  V30 7583 O 712.641 -1.47957 0.919472 0
M  V30 7584 C 709.773 -2.8345 1.89391 0
M  V30 7585 H 710.966 -1.23316 2.73374 0
M  V30 7586 H 708.519 -0.608312 1.43977 0
M  V30 7587 H 709.254 -3.09716 0.961589 0
M  V30 7588 H 709.039 -2.82844 2.71555 0
M  V30 7589 H 710.529 -3.60722 2.10404 0
M  V30 7590 N 710.966 -1.44241 -0.634997 0
M  V30 7591 C 711.929 -1.50457 -1.72903 0
M  V30 7592 C 712.929 -0.387058 -1.56072 0
M  V30 7593 O 714.119 -0.649531 -1.61638 0
M  V30 7594 C 711.251 -1.37477 -3.1195 0
M  V30 7595 H 712.444 -2.47907 -1.68767 0
M  V30 7596 H 709.997 -1.31276 -0.84831 0
M  V30 7597 H 710.732 -0.41106 -3.21684 0
M  V30 7598 H 710.517 -2.18506 -3.25573 0
M  V30 7599 H 712.007 -1.44799 -3.91692 0
M  V30 7600 N 712.444 0.87505 -1.31075 0
M  V30 7601 C 713.855 1.4433 -1.18431 0
M  V30 7602 C 714.206 1.9506 0.211189 0
M  V30 7603 O 713.331 1.85847 1.10859 0
M  V30 7604 C 713.926 2.62341 -2.14389 0
M  V30 7605 C 712.485 3.15225 -2.05694 0
M  V30 7606 C 711.632 1.87929 -2.03907 0
M  V30 7607 H 714.583 0.684061 -1.432 0
M  V30 7608 H 714.604 3.3887 -1.73053 0
M  V30 7609 H 714.116 2.25388 -3.15946 0
M  V30 7610 H 712.217 3.56812 -1.07314 0
M  V30 7611 H 712.33 3.77853 -2.94558 0
M  V30 7612 H 710.694 2.06679 -1.48849 0
M  V30 7613 H 711.477 1.53221 -3.07211 0
M  V30 7614 N 713.922 1.13953 1.08869 0
M  V30 7615 C 715.162 0.915128 1.8277 0
M  V30 7616 C 715.526 -0.548647 1.83994 0
M  V30 7617 O 716.727 -0.890817 2.5361 0
M  V30 7618 C 714.998 1.49382 3.24684 0
M  V30 7619 S 716.557 1.4103 4.15519 0
M  V30 7620 H 713.375 0.329716 0.629927 0
M  V30 7621 H 715.977 1.45213 1.30895 0
M  V30 7622 H 714.681 2.55241 3.21372 0
M  V30 7623 H 714.212 0.955008 3.81632 0
M  V30 7624 H 716.227 0.392617 4.94644 0
M  V30 7625 N 715.4 -1.26948 0.933913 0
M  V30 7626 C 716.649 -1.93378 0.573409 0
M  V30 7627 C 716.962 -1.74148 -0.890614 0
M  V30 7628 O 718.168 -2.34971 -1.36017 0
M  V30 7629 C 716.624 -3.46449 0.974747 0
M  V30 7630 C 716.232 -3.74425 2.45988 0
M  V30 7631 C 717.976 -4.18924 0.685791 0
M  V30 7632 C 715.883 -5.209 2.8003 0
M  V30 7633 H 714.813 -0.723952 0.210736 0
M  V30 7634 H 717.464 -1.44143 1.13557 0
M  V30 7635 H 715.846 -3.94528 0.341181 0
M  V30 7636 H 717.02 -3.37079 3.14188 0
M  V30 7637 H 715.335 -3.15167 2.72138 0
M  V30 7638 H 717.932 -5.26786 0.916546 0
M  V30 7639 H 718.275 -4.14587 -0.377217 0
M  V30 7640 H 718.808 -3.76687 1.27874 0
M  V30 7641 H 715.547 -5.30332 3.85264 0
M  V30 7642 H 715.067 -5.59369 2.16485 0
M  V30 7643 H 716.746 -5.88837 2.68105 0
M  V30 7644 N 716.879 -0.700114 -1.41195 0
M  V30 7645 C 718.295 -0.372114 -1.55201 0
M  V30 7646 C 718.495 1.12053 -1.6747 0
M  V30 7647 O 717.551 1.90642 -1.65566 0
M  V30 7648 C 718.864 -1.12462 -2.78878 0
M  V30 7649 C 720.412 -1.10941 -2.92679 0
M  V30 7650 C 720.887 -1.84376 -4.19249 0
M  V30 7651 N 722.378 -1.81368 -4.26216 0
M  V30 7652 C 723.113 -2.35024 -5.23021 0
M  V30 7653 N 722.609 -2.9717 -6.25829 0
M  V30 7654 N 724.402 -2.25254 -5.14992 0
M  V30 7655 H 716.553 -1.66816 -1.31477 0
M  V30 7656 H 718.816 -0.704223 -0.634644 0
M  V30 7657 H 718.522 -2.17937 -2.76037 0
M  V30 7658 H 718.396 -0.706152 -3.70531 0
M  V30 7659 H 720.783 -0.062911 -2.95033 0
M  V30 7660 H 720.864 -1.56698 -2.02187 0
M  V30 7661 H 720.508 -2.89008 -4.17656 0
M  V30 7662 H 720.438 -1.3605 -5.08722 0
M  V30 7663 H 722.929 -1.36062 -3.52556 0
M  V30 7664 H 723.242 -3.35668 -6.96094 0
M  V30 7665 H 721.587 -3.01249 -6.26318 0
M  V30 7666 H 724.778 -1.76372 -4.33602 0
M  V30 7667 H 724.951 -2.67373 -5.90268 0
M  V30 7668 N 718.357 1.51182 -0.445186 0
M  V30 7669 C 719.768 1.86693 0.0160999 0
M  V30 7670 C 720.119 1.36183 1.4124 0
M  V30 7671 O 719.244 0.715895 2.04215 0
M  V30 7672 C 719.839 3.38781 0.0359918 0
M  V30 7673 C 718.398 3.73799 0.441715 0
M  V30 7674 C 717.545 2.74947 -0.360511 0
M  V30 7675 H 720.496 1.44294 -0.660674 0
M  V30 7676 H 720.517 3.71026 0.843813 0
M  V30 7677 H 720.029 3.75513 -0.980378 0
M  V30 7678 H 718.13 3.42659 1.4634 0
M  V30 7679 H 718.243 4.78829 0.16106 0
M  V30 7680 H 716.607 2.54047 0.182269 0
M  V30 7681 H 717.39 3.14521 -1.3759 0
M  V30 7682 N 719.835 0.176821 1.56605 0
M  V30 7683 C 721.06 -0.47599 2.01864 0
M  V30 7684 C 721.485 -1.55645 1.05623 0
M  V30 7685 O 720.843 -1.81263 0.0366729 0
M  V30 7686 C 720.891 -1.02619 3.4569 0
M  V30 7687 O 719.995 -2.13996 3.52533 0
M  V30 7688 H 719.336 -0.113363 0.654251 0
M  V30 7689 H 721.866 0.28233 2.02643 0
M  V30 7690 H 721.876 -1.34742 3.85109 0
M  V30 7691 H 720.551 -0.235138 4.15235 0
M  V30 7692 H 719.128 -1.82876 3.24978 0
M  V30 7693 N 721.313 -1.57302 -0.09688 0
M  V30 7694 C 722.538 -1.9058 -0.818169 0
M  V30 7695 C 722.963 -0.770921 -1.71576 0
M  V30 7696 O 722.321 0.277588 -1.79162 0
M  V30 7697 C 722.369 -3.22714 -1.60898 0
M  V30 7698 O 721.473 -3.10178 -2.71779 0
M  V30 7699 H 720.814 -0.624759 -0.224882 0
M  V30 7700 H 723.344 -2.04471 -0.07264 0
M  V30 7701 H 723.354 -3.55978 -1.99358 0
M  V30 7702 H 722.029 -4.04899 -0.950227 0
M  V30 7703 H 720.606 -2.88424 -2.3636 0
M  V30 7704 N 722.791 0.367657 -1.53252 0
M  V30 7705 C 724.016 1.13566 -1.73544 0
M  V30 7706 C 724.441 1.82329 -0.462344 0
M  V30 7707 O 723.799 1.71655 0.583472 0
M  V30 7708 C 723.847 2.14322 -2.89997 0
M  V30 7709 O 722.951 3.21359 -2.58461 0
M  V30 7710 H 722.292 0.329614 -0.576412 0
M  V30 7711 H 724.822 0.425417 -2.00128 0
M  V30 7712 H 724.832 2.57958 -3.16104 0
M  V30 7713 H 723.507 1.63664 -3.82344 0
M  V30 7714 H 722.084 2.8271 -2.43165 0
M  V30 7715 N 724.269 1.44576 0.627338 0
M  V30 7716 C 725.68 1.42266 1.20902 0
M  V30 7717 C 726.031 0.139964 1.957 0
M  V30 7718 O 725.156 -0.759489 2.02634 0
M  V30 7719 C 725.751 2.57727 2.19914 0
M  V30 7720 C 724.31 2.58599 2.73502 0
M  V30 7721 C 723.457 2.34145 1.48564 0
M  V30 7722 H 726.408 1.53102 0.417791 0
M  V30 7723 H 726.429 2.30697 3.02588 0
M  V30 7724 H 725.941 3.51068 1.65447 0
M  V30 7725 H 724.042 1.6921 3.31962 0
M  V30 7726 H 724.155 3.57205 3.19282 0
M  V30 7727 H 722.519 1.83313 1.76829 0
M  V30 7728 H 723.302 3.29606 0.959935 0
M  V30 7729 N 725.747 -0.868086 1.31537 0
M  V30 7730 C 727.158 -1.437 1.19195 0
M  V30 7731 C 727.509 -1.95169 -0.200842 0
M  V30 7732 O 726.634 -1.86432 -1.09872 0
M  V30 7733 C 727.229 -2.612 2.15778 0
M  V30 7734 C 725.788 -3.1413 2.07363 0
M  V30 7735 C 724.935 -1.86845 2.049 0
M  V30 7736 H 727.886 -0.676457 1.43561 0
M  V30 7737 H 727.907 -3.37948 1.74847 0
M  V30 7738 H 727.419 -2.23709 3.17137 0
M  V30 7739 H 725.52 -3.56238 1.09204 0
M  V30 7740 H 725.633 -3.76285 2.96557 0
M  V30 7741 H 723.997 -2.05886 1.49943 0
M  V30 7742 H 724.78 -1.51589 3.08019 0
M  V30 7743 N 727.225 -1.14528 -1.08264 0
M  V30 7744 C 728.453 -0.937964 -1.84418 0
M  V30 7745 C 728.868 0.51357 -1.81681 0
M  V30 7746 O 728.225 1.35591 -1.22153 0
M  V30 7747 C 728.276 -1.43272 -3.31897 0
M  V30 7748 O 727.997 -2.82738 -3.34651 0
M  V30 7749 C 729.498 -1.26555 -4.24851 0
M  V30 7750 H 726.718 -0.333704 -0.582136 0
M  V30 7751 H 729.262 -1.52076 -1.36723 0
M  V30 7752 H 727.417 -0.892653 -3.76975 0
M  V30 7753 H 727.831 -3.04971 -4.26724 0
M  V30 7754 H 729.305 -1.66031 -5.26439 0
M  V30 7755 H 729.782 -0.208589 -4.38704 0
M  V30 7756 H 730.388 -1.79423 -3.856 0
M  V30 7757 N 728.703 1.26451 -0.940633 0
M  V30 7758 C 729.949 1.94065 -0.58878 0
M  V30 7759 C 730.282 1.7363 0.869853 0
M  V30 7760 O 729.557 1.073 1.62225 0
M  V30 7761 C 729.84 3.47852 -0.931199 0
M  V30 7762 C 729.693 3.77575 -2.44453 0
M  V30 7763 C 731.012 4.37832 -0.446229 0
M  V30 7764 H 728.131 0.704827 -0.21538 0
M  V30 7765 H 730.773 1.4933 -1.17475 0
M  V30 7766 H 728.923 3.86085 -0.432539 0
M  V30 7767 H 730.595 3.49059 -3.01588 0
M  V30 7768 H 728.838 3.23671 -2.88825 0
M  V30 7769 H 729.509 4.85068 -2.63464 0
M  V30 7770 H 731.985 4.06822 -0.873778 0
M  V30 7771 H 730.861 5.44228 -0.714648 0
M  V30 7772 H 731.122 4.37239 0.653815 0
M  V30 7773 N 730.181 0.707592 1.40822 0
M  V30 7774 C 731.144 0.0587224 2.29125 0
M  V30 7775 C 732.144 -0.695624 1.44975 0
M  V30 7776 O 733.334 -0.528718 1.65983 0
M  V30 7777 C 730.466 -0.926939 3.28056 0
M  V30 7778 H 731.659 0.836349 2.88002 0
M  V30 7779 H 729.212 0.471778 1.4901 0
M  V30 7780 H 729.947 -1.7319 2.74182 0
M  V30 7781 H 729.732 -0.389015 3.90165 0
M  V30 7782 H 731.222 -1.37837 3.94196 0
M  V30 7783 N 731.66 -1.50943 0.453197 0
M  V30 7784 C 733.071 -1.86699 -0.00619892 0
M  V30 7785 C 733.422 -1.3693 -1.40515 0
M  V30 7786 O 732.547 -0.726715 -2.03833 0
M  V30 7787 C 733.142 -3.38795 -0.018025 0
M  V30 7788 C 731.701 -3.74028 -0.421885 0
M  V30 7789 C 730.848 -2.74752 0.375087 0
M  V30 7790 H 733.799 -1.43942 0.668317 0
M  V30 7791 H 733.82 -3.71468 -0.824125 0
M  V30 7792 H 733.332 -3.74988 1.00028 0
M  V30 7793 H 731.433 -3.43431 -1.44521 0
M  V30 7794 H 731.546 -4.78908 -0.135664 0
M  V30 7795 H 729.91 -2.5414 -0.168794 0
M  V30 7796 H 730.693 -3.13787 1.39256 0
M  V30 7797 N 733.138 -0.185124 -1.56509 0
M  V30 7798 C 734.101 0.72591 -2.17401 0
M  V30 7799 C 735.101 1.14819 -1.12575 0
M  V30 7800 O 736.291 1.0629 -1.38015 0
M  V30 7801 C 733.423 1.98979 -2.76803 0
M  V30 7802 H 734.616 0.195588 -2.99262 0
M  V30 7803 H 732.169 0.0644772 -1.56167 0
M  V30 7804 H 732.904 2.56287 -1.98714 0
M  V30 7805 H 732.689 1.69583 -3.53531 0
M  V30 7806 H 734.179 2.63966 -3.23592 0
M  V30 7807 N 734.616 1.57351 0.0885366 0
M  V30 7808 C 735.841 1.91011 0.80805 0
M  V30 7809 C 736.266 0.780009 1.71165 0
M  V30 7810 O 735.624 -0.268083 1.79307 0
M  V30 7811 C 735.672 3.23562 1.59185 0
M  V30 7812 O 734.776 3.11615 2.7013 0
M  V30 7813 H 734.117 0.625943 0.221565 0
M  V30 7814 H 736.647 2.04507 0.0617954 0
M  V30 7815 H 736.657 3.5703 1.97468 0
M  V30 7816 H 735.332 4.05398 0.928741 0
M  V30 7817 H 733.909 2.89673 2.34827 0
M  V30 7818 N 736.094 -0.359525 1.53444 0
M  V30 7819 C 737.057 -1.42357 1.7963 0
M  V30 7820 C 738.057 -1.46319 0.666884 0
M  V30 7821 O 739.247 -1.46974 0.935113 0
M  V30 7822 C 736.379 -2.81425 1.92387 0
M  V30 7823 H 737.572 -1.20409 2.74666 0
M  V30 7824 H 735.125 -0.593007 1.44614 0
M  V30 7825 H 735.86 -3.08679 0.994384 0
M  V30 7826 H 735.645 -2.79947 2.74539 0
M  V30 7827 H 737.135 -3.5847 2.14218 0
M  V30 7828 N 737.572 -1.44907 -0.619662 0
M  V30 7829 C 738.797 -1.52021 -1.41083 0
M  V30 7830 C 739.222 -0.14976 -1.87503 0
M  V30 7831 O 738.58 0.863303 -1.59426 0
M  V30 7832 C 738.628 -2.49911 -2.59955 0
M  V30 7833 O 737.732 -2.00857 -3.60181 0
M  V30 7834 H 737.073 -0.512912 -0.421684 0
M  V30 7835 H 739.603 -1.90149 -0.755282 0
M  V30 7836 H 739.613 -2.68323 -3.07354 0
M  V30 7837 H 738.288 -3.4945 -2.25516 0
M  V30 7838 H 736.865 -1.92265 -3.19513 0
M  V30 7839 N 739.05 0.861098 -1.31996 0
M  V30 7840 C 739.98 1.98482 -1.22993 0
M  V30 7841 C 740.961 1.6971 -0.115168 0
M  V30 7842 O 742.146 1.91849 -0.30126 0
M  V30 7843 C 739.276 3.34179 -0.945615 0
M  V30 7844 C 738.23 3.77284 -2.02091 0
M  V30 7845 C 737.556 5.1054 -1.58912 0
M  V30 7846 C 738.856 3.93439 -3.43515 0
M  V30 7847 H 740.55 2.06271 -2.17008 0
M  V30 7848 H 738.096 0.991043 -1.04472 0
M  V30 7849 H 740.049 4.12338 -0.869206 0
M  V30 7850 H 738.773 3.26586 0.0301849 0
M  V30 7851 H 737.432 3.01371 -2.08737 0
M  V30 7852 H 737.08 4.99397 -0.600942 0
M  V30 7853 H 736.78 5.40352 -2.30854 0
M  V30 7854 H 738.304 5.91199 -1.52696 0
M  V30 7855 H 739.718 4.6197 -3.39495 0
M  V30 7856 H 738.115 4.34661 -4.13751 0
M  V30 7857 H 739.185 2.96548 -3.8365 0
M  V30 7858 N 740.528 1.15101 1.07655 0
M  V30 7859 C 741.939 0.933848 1.61667 0
M  V30 7860 C 742.29 -0.525569 1.8903 0
M  V30 7861 O 741.415 -1.39605 1.65346 0
M  V30 7862 C 742.01 1.68876 2.93711 0
M  V30 7863 C 740.569 1.51697 3.44478 0
M  V30 7864 C 739.716 1.70633 2.18586 0
M  V30 7865 H 742.667 1.30171 0.907816 0
M  V30 7866 H 742.688 1.15645 3.625 0
M  V30 7867 H 742.2 2.7509 2.73764 0
M  V30 7868 H 740.301 0.478635 3.69513 0
M  V30 7869 H 740.414 2.29194 4.20722 0
M  V30 7870 H 738.778 1.13259 2.28132 0
M  V30 7871 H 739.561 2.78206 2.01137 0
M  V30 7872 N 742.006 -1.2595 0.947325 0
M  V30 7873 C 742.938 -2.25336 0.41906 0
M  V30 7874 C 743.951 -1.56135 -0.461051 0
M  V30 7875 O 745.14 -1.76438 -0.270505 0
M  V30 7876 C 742.24 -3.36334 -0.416233 0
M  V30 7877 C 741.413 -4.35088 0.449162 0
M  V30 7878 C 740.472 -5.25185 -0.326716 0
M  V30 7879 O 739.498 -5.68548 0.272374 0
M  V30 7880 N 740.7 -5.57388 -1.6217 0
M  V30 7881 H 743.465 -2.71298 1.27348 0
M  V30 7882 H 741.026 -1.39781 0.81688 0
M  V30 7883 H 743.018 -3.93564 -0.942826 0
M  V30 7884 H 741.588 -2.89819 -1.17148 0
M  V30 7885 H 740.808 -3.76841 1.15692 0
M  V30 7886 H 742.096 -4.98056 1.04008 0
M  V30 7887 H 741.494 -5.2405 -2.13046 0
M  V30 7888 H 740.051 -6.17234 -2.0944 0
M  V30 7889 N 743.484 -0.715051 -1.40445 0
M  V30 7890 C 744.895 -0.326763 -1.83818 0
M  V30 7891 C 745.246 1.13851 -1.59789 0
M  V30 7892 O 744.371 1.87611 -1.07848 0
M  V30 7893 C 744.966 -0.586297 -3.33688 0
M  V30 7894 C 743.525 -0.251724 -3.75557 0
M  V30 7895 C 742.672 -0.858928 -2.63662 0
M  V30 7896 H 745.623 -0.914241 -1.2972 0
M  V30 7897 H 745.644 0.148636 -3.8021 0
M  V30 7898 H 745.156 -1.65281 -3.51146 0
M  V30 7899 H 743.257 0.809754 -3.63695 0
M  V30 7900 H 743.37 -0.720348 -4.73654 0
M  V30 7901 H 741.734 -0.287013 -2.53078 0
M  V30 7902 H 742.517 -1.9297 -2.83932 0
M  V30 7903 N 744.962 1.50701 -0.461195 0
M  V30 7904 C 746.211 2.01458 0.0988277 0
M  V30 7905 C 746.524 1.34863 1.41673 0
M  V30 7906 O 747.73 1.76721 2.06111 0
M  V30 7907 C 746.186 3.59186 0.226648 0
M  V30 7908 C 745.794 4.34732 -1.08223 0
M  V30 7909 C 747.538 4.18015 0.73916 0
M  V30 7910 C 745.445 5.8422 -0.918747 0
M  V30 7911 H 744.375 0.7529 0.040709 0
M  V30 7912 H 747.026 1.736 -0.594589 0
M  V30 7913 H 745.408 3.83589 0.983621 0
M  V30 7914 H 746.582 4.22059 -1.84939 0
M  V30 7915 H 744.897 3.87466 -1.52509 0
M  V30 7916 H 747.494 5.27436 0.878347 0
M  V30 7917 H 747.837 3.78746 1.72793 0
M  V30 7918 H 748.37 3.9778 0.0398469 0
M  V30 7919 H 745.109 6.27944 -1.88059 0
M  V30 7920 H 744.629 5.99493 -0.191801 0
M  V30 7921 H 746.308 6.44382 -0.581405 0
M  V30 7922 N 746.441 0.193421 1.56409 0
M  V30 7923 C 747.371 -0.723334 2.22014 0
M  V30 7924 C 748.352 -1.22254 1.1827 0
M  V30 7925 O 749.537 -1.27168 1.46771 0
M  V30 7926 C 746.667 -1.94366 2.87818 0
M  V30 7927 C 745.621 -1.57943 3.97791 0
M  V30 7928 C 744.947 -2.87623 4.50752 0
M  V30 7929 C 746.247 -0.790639 5.16281 0
M  V30 7930 H 747.941 -0.176426 2.9888 0
M  V30 7931 H 745.487 -0.0834166 1.43758 0
M  V30 7932 H 747.44 -2.5902 3.32396 0
M  V30 7933 H 746.164 -2.51507 2.08355 0
M  V30 7934 H 744.823 -0.956482 3.53903 0
M  V30 7935 H 744.471 -3.4285 3.68053 0
M  V30 7936 H 744.171 -2.63998 5.24956 0
M  V30 7937 H 745.695 -3.53268 4.9803 0
M  V30 7938 H 747.109 -1.34024 5.57414 0
M  V30 7939 H 745.506 -0.65258 5.96541 0
M  V30 7940 H 746.576 0.208633 4.84451 0
M  V30 7941 N 747.919 -1.57396 -0.0801906 0
M  V30 7942 C 749.144 -1.91437 -0.797909 0
M  V30 7943 C 749.569 -0.789075 -1.70749 0
M  V30 7944 O 748.927 0.25857 -1.79447 0
M  V30 7945 C 748.975 -3.24402 -1.57467 0
M  V30 7946 O 748.079 -3.13043 -2.68473 0
M  V30 7947 H 747.42 -0.627109 -0.218243 0
M  V30 7948 H 749.95 -2.04537 -0.050949 0
M  V30 7949 H 749.96 -3.58072 -1.95571 0
M  V30 7950 H 748.635 -4.05884 -0.907229 0
M  V30 7951 H 747.212 -2.90915 -2.33287 0
M  V30 7952 N 749.397 0.351382 -1.53633 0
M  V30 7953 C 750.345 1.45142 -1.8176 0
M  V30 7954 C 751.339 1.54819 -0.687571 0
M  V30 7955 O 752.545 1.57536 -0.870772 0
M  V30 7956 H 748.92 0.483789 -0.575719 0
M  V30 7957 H 750.891 1.1863 -2.73806 0
M  V30 7958 C 749.64 2.81779 -2.03706 0
M  V30 7959 H 748.963 2.75097 -2.90107 0
M  V30 7960 H 750.403 3.5789 -2.27356 0
M  V30 7961 C 748.862 3.26762 -0.820271 0
M  V30 7962 O 749.392 4.01697 -0.0158603 0
M  V30 7963 N 747.598 2.83472 -0.639699 0
M  V30 7964 H 747.145 2.22655 -1.29547 0
M  V30 7965 H 747.103 3.13924 0.172995 0
M  V30 7966 N 750.875 1.45233 0.611969 0
M  V30 7967 C 751.807 1.49575 1.73666 0
M  V30 7968 C 752.82 0.386987 1.58134 0
M  V30 7969 O 754.009 0.653804 1.66095 0
M  V30 7970 C 751.109 1.33223 3.11617 0
M  V30 7971 C 750.282 2.57694 3.5343 0
M  V30 7972 C 749.341 2.35962 4.70328 0
M  V30 7973 O 748.367 3.09553 4.77667 0
M  V30 7974 N 749.569 1.40243 5.63305 0
M  V30 7975 H 752.334 2.46539 1.70407 0
M  V30 7976 H 749.895 1.40917 0.79712 0
M  V30 7977 H 751.887 1.16502 3.87569 0
M  V30 7978 H 750.457 0.44551 3.09409 0
M  V30 7979 H 749.677 2.8956 2.67486 0
M  V30 7980 H 750.965 3.40441 3.78124 0
M  V30 7981 H 750.363 0.795023 5.60086 0
M  V30 7982 H 748.92 1.29496 6.38807 0
M  V30 7983 N 752.353 -0.854086 1.3245 0
M  V30 7984 C 753.601 -1.60513 1.228 0
M  V30 7985 C 753.922 -1.93865 -0.210073 0
M  V30 7986 O 753.192 -1.59673 -1.13496 0
M  V30 7987 H 751.772 -0.595099 0.451516 0
M  V30 7988 H 754.434 -1.0216 1.6598 0
M  V30 7989 H 753.53 -2.54182 1.81102 0
M  V30 7990 N 753.831 -1.1567 -1.07043 0
M  V30 7991 C 755.08 -0.928039 -1.79082 0
M  V30 7992 C 755.393 0.545968 -1.87826 0
M  V30 7993 O 756.599 0.892308 -2.56418 0
M  V30 7994 C 755.055 -1.61103 -3.21829 0
M  V30 7995 C 754.663 -3.12228 -3.21275 0
M  V30 7996 C 756.407 -1.46404 -3.98455 0
M  V30 7997 C 754.314 -3.733 -4.58695 0
M  V30 7998 H 753.244 -0.34357 -0.671175 0
M  V30 7999 H 755.895 -1.38718 -1.20123 0
M  V30 8000 H 754.277 -1.07958 -3.81 0
M  V30 8001 H 755.451 -3.72155 -2.71731 0
M  V30 8002 H 753.766 -3.26725 -2.58147 0
M  V30 8003 H 756.363 -1.8942 -5.00024 0
M  V30 8004 H 756.706 -0.41195 -4.14257 0
M  V30 8005 H 757.239 -1.96663 -3.45787 0
M  V30 8006 H 753.978 -4.78423 -4.48098 0
M  V30 8007 H 753.498 -3.18157 -5.08465 0
M  V30 8008 H 755.177 -3.7441 -5.27661 0
M  V30 8009 N 755.309 1.25446 -0.953992 0
M  V30 8010 C 756.242 2.24341 -0.417912 0
M  V30 8011 C 757.22 1.54709 0.5004 0
M  V30 8012 O 758.404 1.83414 0.434923 0
M  V30 8013 C 755.531 3.36352 0.398155 0
M  V30 8014 C 754.577 4.24007 -0.460461 0
M  V30 8015 S 755.41 5.00951 -1.89231 0
M  V30 8016 C 756.566 6.1643 -1.08465 0
M  V30 8017 H 756.799 2.69465 -1.25602 0
M  V30 8018 H 754.332 1.34512 -0.758018 0
M  V30 8019 H 756.29 4.01325 0.863059 0
M  V30 8020 H 754.951 2.89813 1.21108 0
M  V30 8021 H 754.144 5.03728 0.165415 0
M  V30 8022 H 753.746 3.63965 -0.860549 0
M  V30 8023 H 756.038 6.76681 -0.333017 0
M  V30 8024 H 756.981 6.8335 -1.85577 0
M  V30 8025 H 757.389 5.61139 -0.615062 0
M  V30 8026 N 756.787 0.722489 1.40064 0
M  V30 8027 C 758.034 0.264979 2.00759 0
M  V30 8028 C 758.362 -1.14395 1.57302 0
M  V30 8029 O 757.617 -1.79165 0.787298 0
M  V30 8030 C 757.916 0.300682 3.56133 0
M  V30 8031 C 757.582 1.66087 4.19197 0
M  V30 8032 C 756.244 2.03319 4.36136 0
M  V30 8033 C 758.596 2.55452 4.54306 0
M  V30 8034 C 755.924 3.29448 4.8547 0
M  V30 8035 C 758.276 3.8094 5.05042 0
M  V30 8036 C 756.94 4.1828 5.2019 0
M  V30 8037 H 756.21 0.0969625 0.734629 0
M  V30 8038 H 758.857 0.926877 1.67575 0
M  V30 8039 H 757.162 -0.44479 3.89267 0
M  V30 8040 H 758.859 -0.0712542 4.00937 0
M  V30 8041 H 755.449 1.36137 4.06405 0
M  V30 8042 H 759.633 2.27961 4.40849 0
M  V30 8043 H 754.889 3.58338 4.95382 0
M  V30 8044 H 759.063 4.50351 5.31184 0
M  V30 8045 H 756.69 5.16081 5.58179 0
M  V30 8046 N 758.265 -1.50454 0.469181 0
M  V30 8047 C 759.511 -2.02615 -0.0865971 0
M  V30 8048 C 759.844 -1.35062 -1.39542 0
M  V30 8049 O 759.119 -0.475701 -1.88593 0
M  V30 8050 C 759.402 -3.59068 -0.272385 0
M  V30 8051 C 759.255 -4.37196 1.05733 0
M  V30 8052 C 760.574 -4.2793 -1.0278 0
M  V30 8053 H 757.693 -0.736389 -0.0299977 0
M  V30 8054 H 760.335 -1.79792 0.614399 0
M  V30 8055 H 758.485 -3.78646 -0.869471 0
M  V30 8056 H 760.157 -4.29195 1.69084 0
M  V30 8057 H 758.4 -4.01013 1.65442 0
M  V30 8058 H 759.071 -5.44924 0.880997 0
M  V30 8059 H 761.547 -4.12816 -0.521718 0
M  V30 8060 H 760.423 -5.37214 -1.12659 0
M  V30 8061 H 760.684 -3.90968 -2.0639 0
M  V30 8062 N 759.743 -0.201713 -1.56304 0
M  V30 8063 C 760.675 0.748466 -2.16635 0
M  V30 8064 C 761.688 1.172 -1.12996 0
M  V30 8065 O 762.877 1.10658 -1.40061 0
M  V30 8066 C 759.977 2.02296 -2.719 0
M  V30 8067 C 759.15 1.75818 -4.00508 0
M  V30 8068 C 758.209 2.87779 -4.40533 0
M  V30 8069 O 757.235 2.57101 -5.07826 0
M  V30 8070 N 758.437 4.16287 -4.04581 0
M  V30 8071 H 761.202 0.232505 -2.98797 0
M  V30 8072 H 758.763 -0.0199822 -1.61888 0
M  V30 8073 H 760.755 2.7635 -2.95657 0
M  V30 8074 H 759.325 2.44996 -1.94154 0
M  V30 8075 H 758.545 0.855095 -3.84814 0
M  V30 8076 H 759.833 1.55532 -4.84445 0
M  V30 8077 H 759.231 4.44061 -3.50466 0
M  V30 8078 H 757.788 4.86946 -4.33274 0
M  V30 8079 N 761.222 1.57436 0.0718424 0
M  V30 8080 C 762.132 2.07039 1.10326 0
M  V30 8081 C 763.148 0.999918 1.424 0
M  V30 8082 O 764.324 1.31462 1.52577 0
M  V30 8083 C 761.389 2.50439 2.39752 0
M  V30 8084 C 760.45 3.71784 2.14651 0
M  V30 8085 C 759.683 4.13104 3.37906 0
M  V30 8086 O 759.906 3.54298 4.47023 0
M  V30 8087 O 758.84 5.05894 3.26121 0
M  V30 8088 H 762.666 2.95239 0.711872 0
M  V30 8089 H 760.251 1.46638 0.28597 0
M  V30 8090 H 762.133 2.78876 3.15921 0
M  V30 8091 H 760.808 1.65368 2.78271 0
M  V30 8092 H 759.715 3.48431 1.36187 0
M  V30 8093 H 761.048 4.57707 1.81012 0
M  V30 8094 N 762.7 -0.34323 1.53817 0
M  V30 8095 C 763.61 -1.44493 1.84821 0
M  V30 8096 C 764.626 -1.57556 0.738381 0
M  V30 8097 O 765.802 -1.73026 1.03072 0
M  V30 8098 C 762.867 -2.79478 2.05166 0
M  V30 8099 C 761.928 -2.75756 3.29025 0
M  V30 8100 C 761.161 -4.04302 3.4839 0
M  V30 8101 O 761.384 -5.01595 2.71586 0
M  V30 8102 O 760.318 -4.08754 4.41819 0
M  V30 8103 H 764.144 -1.21209 2.78464 0
M  V30 8104 H 761.729 -0.535437 1.39476 0
M  V30 8105 H 763.611 -3.59419 2.19991 0
M  V30 8106 H 762.286 -3.02692 1.14713 0
M  V30 8107 H 761.193 -1.94434 3.19603 0
M  V30 8108 H 762.526 -2.57495 4.19472 0
M  V30 8109 N 764.178 -1.45556 -0.604258 0
M  V30 8110 C 765.141 -1.54091 -1.69672 0
M  V30 8111 C 766.141 -0.420076 -1.55216 0
M  V30 8112 O 767.331 -0.683671 -1.60224 0
M  V30 8113 C 764.463 -1.44063 -3.08964 0
M  V30 8114 H 765.656 -2.51431 -1.6347 0
M  V30 8115 H 763.209 -1.33046 -0.820273 0
M  V30 8116 H 763.944 -0.479201 -3.2074 0
M  V30 8117 H 763.729 -2.25362 -3.20865 0
M  V30 8118 H 765.219 -1.53075 -3.88533 0
M  V30 8119 N 765.656 0.84705 -1.32902 0
M  V30 8120 C 766.586 1.97166 -1.25091 0
M  V30 8121 C 767.567 1.69578 -0.133161 0
M  V30 8122 O 768.752 1.91519 -0.321591 0
M  V30 8123 C 765.882 3.33157 -0.981006 0
M  V30 8124 C 764.836 3.75119 -2.06082 0
M  V30 8125 C 764.162 5.08826 -1.64318 0
M  V30 8126 C 765.462 3.89774 -3.47669 0
M  V30 8127 H 767.156 2.03958 -2.19184 0
M  V30 8128 H 764.702 0.979907 -1.05517 0
M  V30 8129 H 766.655 4.11393 -0.912891 0
M  V30 8130 H 765.379 3.266 -0.00445559 0
M  V30 8131 H 764.038 2.9914 -2.11921 0
M  V30 8132 H 763.686 4.98732 -0.653876 0
M  V30 8133 H 763.386 5.37873 -2.36572 0
M  V30 8134 H 764.91 5.89546 -1.58958 0
M  V30 8135 H 766.324 4.58343 -3.44376 0
M  V30 8136 H 764.721 4.30248 -4.18338 0
M  V30 8137 H 765.791 2.92463 -3.86773 0
M  V30 8138 N 767.134 1.16236 1.06428 0
M  V30 8139 C 768.097 0.870163 2.1204 0
M  V30 8140 C 769.097 -0.134239 1.60239 0
M  V30 8141 O 770.287 0.0964932 1.73933 0
M  V30 8142 C 767.419 0.301033 3.39568 0
M  V30 8143 H 768.612 1.8064 2.39394 0
M  V30 8144 H 766.165 0.971116 1.2247 0
M  V30 8145 H 766.9 -0.642948 3.17863 0
M  V30 8146 H 766.685 1.02475 3.78472 0
M  V30 8147 H 768.175 0.114494 4.17443 0
M  V30 8148 N 768.612 -1.24939 0.960631 0
M  V30 8149 C 769.837 -1.9742 0.635608 0
M  V30 8150 C 770.262 -1.70857 -0.786737 0
M  V30 8151 O 769.62 -0.968063 -1.53291 0
M  V30 8152 C 769.668 -3.48987 0.907771 0
M  V30 8153 O 768.772 -4.12399 -0.0104053 0
M  V30 8154 H 768.113 -0.61871 0.241027 0
M  V30 8155 H 770.643 -1.58901 1.28886 0
M  V30 8156 H 770.653 -3.99334 0.836453 0
M  V30 8157 H 769.328 -3.6765 1.94439 0
M  V30 8158 H 767.905 -3.72727 0.113631 0
M  V30 8159 N 770.09 -0.729906 -1.39679 0
M  V30 8160 C 771.315 -0.284345 -2.05442 0
M  V30 8161 C 771.74 1.07056 -1.54663 0
M  V30 8162 O 771.098 1.67732 -0.688157 0
M  V30 8163 C 771.146 -0.290089 -3.59431 0
M  V30 8164 O 770.25 0.723978 -4.05995 0
M  V30 8165 H 769.591 -0.130311 -0.651088 0
M  V30 8166 H 772.121 -0.994403 -1.78809 0
M  V30 8167 H 772.131 -0.132712 -4.07784 0
M  V30 8168 H 770.806 -1.27877 -3.95753 0
M  V30 8169 H 769.383 0.533154 -3.69069 0
M  V30 8170 N 771.568 1.50203 -0.477153 0
M  V30 8171 C 772.498 2.31517 0.303646 0
M  V30 8172 C 773.479 1.38696 0.984753 0
M  V30 8173 O 774.664 1.67615 0.980758 0
M  V30 8174 C 771.794 3.18598 1.38249 0
M  V30 8175 C 770.748 4.2002 0.822645 0
M  V30 8176 C 770.074 4.95878 2.00024 0
M  V30 8177 C 771.374 5.22023 -0.170185 0
M  V30 8178 H 773.068 2.97042 -0.375027 0
M  V30 8179 H 770.614 1.42848 -0.181802 0
M  V30 8180 H 772.567 3.74282 1.93625 0
M  V30 8181 H 771.291 2.5097 2.09002 0
M  V30 8182 H 769.95 3.65445 0.290813 0
M  V30 8183 H 769.598 4.24717 2.69489 0
M  V30 8184 H 769.298 5.64487 1.63183 0
M  V30 8185 H 770.822 5.54399 2.55878 0
M  V30 8186 H 772.236 5.72543 0.294606 0
M  V30 8187 H 770.633 5.98386 -0.453181 0
M  V30 8188 H 771.703 4.72396 -1.09408 0
M  V30 8189 N 773.046 0.209999 1.56195 0
M  V30 8190 C 774.271 -0.433064 2.02828 0
M  V30 8191 C 774.696 -1.5337 1.08901 0
M  V30 8192 O 774.054 -1.81144 0.0751132 0
M  V30 8193 C 774.102 -0.952635 3.47789 0
M  V30 8194 O 773.206 -2.0647 3.56993 0
M  V30 8195 H 772.547 -0.0994594 0.656509 0
M  V30 8196 H 775.077 0.32525 2.01998 0
M  V30 8197 H 775.087 -1.26542 3.8788 0
M  V30 8198 H 773.762 -0.147007 4.1564 0
M  V30 8199 H 772.339 -1.75942 3.28784 0
M  V30 8200 N 774.524 -1.57472 -0.0634922 0
M  V30 8201 C 775.749 -1.92273 -0.77756 0
M  V30 8202 C 776.174 -0.807141 -1.69902 0
M  V30 8203 O 775.532 0.239523 -1.79711 0
M  V30 8204 C 775.58 -3.26054 -1.54017 0
M  V30 8205 O 774.684 -3.15873 -2.65138 0
M  V30 8206 H 774.025 -0.629389 -0.211579 0
M  V30 8207 H 776.555 -2.04579 -0.0292523 0
M  V30 8208 H 776.565 -3.60127 -1.91763 0
M  V30 8209 H 775.24 -4.06824 -0.864128 0
M  V30 8210 H 773.817 -2.93373 -2.30189 0
M  V30 8211 N 776.003 0.335068 -1.53997 0
M  V30 8212 C 777.231 1.09418 -1.756 0
M  V30 8213 C 777.646 1.82083 -0.499138 0
M  V30 8214 O 777.003 1.74646 0.529631 0
M  V30 8215 C 777.054 2.10115 -2.94166 0
M  V30 8216 O 776.775 1.40404 -4.14992 0
M  V30 8217 C 778.276 2.98336 -3.27888 0
M  V30 8218 H 775.496 0.32595 -0.586513 0
M  V30 8219 H 778.04 0.384693 -2.00849 0
M  V30 8220 H 776.195 2.76616 -2.71224 0
M  V30 8221 H 776.609 2.07743 -4.81605 0
M  V30 8222 H 778.083 3.6491 -4.1418 0
M  V30 8223 H 778.56 3.64814 -2.44556 0
M  V30 8224 H 779.166 2.37412 -3.52868 0
M  V30 8225 N 777.481 1.45874 0.596531 0
M  V30 8226 C 778.758 1.40942 1.35627 0
M  V30 8227 C 779.138 0.0857066 2.10926 0
M  V30 8228 O 778.486 -0.932544 2.08605 0
M  V30 8229 C 778.696 2.63027 2.29386 0
M  V30 8230 C 780.044 3.08588 2.91649 0
M  V30 8231 O 781.068 2.63478 2.39704 0
M  V30 8232 O 779.927 3.86902 3.85965 0
M  V30 8233 H 777.021 0.559838 0.608696 0
M  V30 8234 H 779.567 1.5802 0.618698 0
M  V30 8235 H 778.339 3.5094 1.7308 0
M  V30 8236 H 777.962 2.48338 3.10506 0
M  V30 8237 N 778.959 -0.83999 1.33349 0
M  V30 8238 C 780.184 -1.63249 1.27924 0
M  V30 8239 C 780.609 -1.87523 -0.147193 0
M  V30 8240 O 779.967 -1.43853 -1.10345 0
M  V30 8241 C 780.015 -2.96046 2.05886 0
M  V30 8242 O 779.119 -3.87303 1.4167 0
M  V30 8243 H 778.46 -0.49715 0.440157 0
M  V30 8244 H 780.99 -1.04512 1.75893 0
M  V30 8245 H 781 -3.45752 2.16609 0
M  V30 8246 H 779.675 -2.77701 3.09605 0
M  V30 8247 H 778.252 -3.45789 1.39585 0
M  V30 8248 N 780.437 -1.16799 -1.0581 0
M  V30 8249 C 781.367 -0.902241 -2.15364 0
M  V30 8250 C 782.348 0.153351 -1.69407 0
M  V30 8251 O 783.533 0.00442032 -1.94199 0
M  V30 8252 C 780.663 -0.407911 -3.44896 0
M  V30 8253 C 779.617 -1.40197 -4.04387 0
M  V30 8254 C 778.943 -0.765848 -5.29187 0
M  V30 8255 C 780.243 -2.77316 -4.42598 0
M  V30 8256 H 781.937 -1.81841 -2.37853 0
M  V30 8257 H 779.483 -0.875731 -1.14311 0
M  V30 8258 H 781.436 -0.20945 -4.20879 0
M  V30 8259 H 780.16 0.54378 -3.22041 0
M  V30 8260 H 778.819 -1.58707 -3.30466 0
M  V30 8261 H 778.467 0.192482 -5.02632 0
M  V30 8262 H 778.167 -1.42939 -5.69949 0
M  V30 8263 H 779.691 -0.577519 -6.07863 0
M  V30 8264 H 781.105 -2.62561 -5.09642 0
M  V30 8265 H 779.502 -3.4019 -4.94359 0
M  V30 8266 H 780.572 -3.32199 -3.53231 0
M  V30 8267 N 781.915 1.24427 -0.967243 0
M  V30 8268 C 783.143 1.96541 -0.646477 0
M  V30 8269 C 783.558 1.71753 0.783996 0
M  V30 8270 O 782.915 1.00102 1.52597 0
M  V30 8271 C 782.966 3.4983 -0.911098 0
M  V30 8272 O 782.687 3.7377 -2.28534 0
M  V30 8273 C 784.188 4.3916 -0.604458 0
M  V30 8274 H 781.408 0.626129 -0.241255 0
M  V30 8275 H 783.952 1.58268 -1.29505 0
M  V30 8276 H 782.107 3.86168 -0.308741 0
M  V30 8277 H 782.521 4.68154 -2.365 0
M  V30 8278 H 783.995 5.4557 -0.840069 0
M  V30 8279 H 784.472 4.36771 0.461273 0
M  V30 8280 H 785.078 4.08409 -1.1867 0
M  V30 8281 N 783.393 0.737304 1.3929 0
M  V30 8282 C 784.804 0.355966 1.83275 0
M  V30 8283 C 785.155 -1.11295 1.6158 0
M  V30 8284 O 784.28 -1.85871 1.10819 0
M  V30 8285 C 784.875 0.63931 3.32713 0
M  V30 8286 C 783.434 0.31144 3.75109 0
M  V30 8287 C 782.581 0.900765 2.62262 0
M  V30 8288 H 785.532 0.934763 1.28249 0
M  V30 8289 H 785.553 -0.0881293 3.80398 0
M  V30 8290 H 785.065 1.70847 3.48472 0
M  V30 8291 H 783.166 -0.751791 3.64937 0
M  V30 8292 H 783.279 0.795611 4.72448 0
M  V30 8293 H 781.643 0.327239 2.52589 0
M  V30 8294 H 782.426 1.97463 2.80826 0
M  V30 8295 N 784.871 -1.49948 0.485112 0
M  V30 8296 C 785.781 -2.32587 -0.306697 0
M  V30 8297 C 786.797 -1.43598 -0.982632 0
M  V30 8298 O 787.973 -1.76638 -0.967519 0
M  V30 8299 C 785.038 -3.18638 -1.3664 0
M  V30 8300 C 784.099 -4.23462 -0.705589 0
M  V30 8301 C 783.332 -5.05401 -1.7148 0
M  V30 8302 O 783.555 -4.88618 -2.94293 0
M  V30 8303 O 782.489 -5.88157 -1.27889 0
M  V30 8304 H 786.315 -3.01447 0.369272 0
M  V30 8305 H 783.9 -1.47349 0.246709 0
M  V30 8306 H 785.782 -3.71992 -1.9799 0
M  V30 8307 H 784.457 -2.52491 -2.02559 0
M  V30 8308 H 783.364 -3.74063 -0.0527733 0
M  V30 8309 H 784.697 -4.92119 -0.0891187 0
M  V30 8310 N 786.349 -0.21828 -1.56081 0
M  V30 8311 C 787.299 0.706492 -2.16778 0
M  V30 8312 C 788.283 1.15987 -1.11516 0
M  V30 8313 O 789.475 1.11441 -1.37513 0
M  V30 8314 C 786.604 1.91583 -2.8487 0
M  V30 8315 C 785.69 1.48228 -3.97353 0
M  V30 8316 N 786.081 0.761113 -5.00041 0
M  V30 8317 C 784.379 1.76982 -4.09382 0
M  V30 8318 C 785.08 0.540496 -5.79184 0
M  V30 8319 N 784.056 1.09622 -5.32432 0
M  V30 8320 H 787.858 0.147038 -2.93532 0
M  V30 8321 H 785.372 -0.0194049 -1.62388 0
M  V30 8322 H 787.369 2.58906 -3.26762 0
M  V30 8323 H 786.029 2.47979 -2.09611 0
M  V30 8324 H 787.04 0.414141 -5.16241 0
M  V30 8325 H 783.717 2.34721 -3.45271 0
M  V30 8326 H 785.107 -0.0332531 -6.71892 0
M  V30 8327 N 787.827 1.57504 0.0551401 0
M  V30 8328 C 788.759 2.0158 1.09078 0
M  V30 8329 C 789.772 0.92434 1.34014 0
M  V30 8330 O 790.961 1.20202 1.31961 0
M  V30 8331 C 788.061 2.35385 2.43818 0
M  V30 8332 C 787.234 3.66588 2.38605 0
M  V30 8333 C 786.293 3.87874 3.55585 0
M  V30 8334 O 785.319 4.59259 3.36258 0
M  V30 8335 N 786.521 3.31503 4.76536 0
M  V30 8336 H 789.286 2.91039 0.71529 0
M  V30 8337 H 786.847 1.60058 0.243532 0
M  V30 8338 H 788.839 2.46784 3.20749 0
M  V30 8339 H 787.409 1.51731 2.73307 0
M  V30 8340 H 786.629 3.65787 1.46947 0
M  V30 8341 H 787.917 4.52706 2.32239 0
M  V30 8342 H 787.315 2.73592 4.9514 0
M  V30 8343 H 785.872 3.48324 5.50921 0
M  V30 8344 N 789.305 -0.326896 1.54172 0
M  V30 8345 C 790.716 -0.901533 1.63491 0
M  V30 8346 C 791.067 -1.88994 0.52684 0
M  V30 8347 O 790.192 -2.137 -0.340794 0
M  V30 8348 C 790.787 -1.64192 2.96355 0
M  V30 8349 C 789.346 -2.16533 3.07881 0
M  V30 8350 C 788.493 -0.98966 2.59039 0
M  V30 8351 H 791.444 -0.104568 1.58355 0
M  V30 8352 H 791.465 -2.50592 2.86328 0
M  V30 8353 H 790.977 -0.922291 3.76982 0
M  V30 8354 H 789.078 -2.91622 2.31922 0
M  V30 8355 H 789.191 -2.41762 4.13628 0
M  V30 8356 H 787.555 -1.36787 2.14852 0
M  V30 8357 H 788.338 -0.284401 3.4212 0
M  V30 8358 N 790.784 -1.46188 -0.588786 0
M  V30 8359 C 792.033 -1.50452 -1.34339 0
M  V30 8360 C 792.346 -0.158096 -1.9496 0
M  V30 8361 O 793.552 -0.0784918 -2.71387 0
M  V30 8362 C 792.008 -2.65074 -2.43441 0
M  V30 8363 C 791.616 -4.06111 -1.8915 0
M  V30 8364 C 793.36 -2.78603 -3.20282 0
M  V30 8365 C 791.267 -5.12084 -2.95845 0
M  V30 8366 H 790.197 -0.559905 -0.504997 0
M  V30 8367 H 792.848 -1.72382 -0.629014 0
M  V30 8368 H 791.23 -2.36462 -3.1765 0
M  V30 8369 H 792.404 -4.44487 -1.21524 0
M  V30 8370 H 790.719 -3.97197 -1.24995 0
M  V30 8371 H 793.316 -3.54944 -3.99898 0
M  V30 8372 H 793.659 -1.85902 -3.72486 0
M  V30 8373 H 794.192 -3.06832 -2.53178 0
M  V30 8374 H 790.931 -6.06556 -2.48535 0
M  V30 8375 H 790.451 -4.78259 -3.61979 0
M  V30 8376 H 792.13 -5.37661 -3.59902 0
M  V30 8377 N 792.262 0.832906 -1.33792 0
M  V30 8378 C 793.225 1.92471 -1.24449 0
M  V30 8379 C 794.225 1.59981 -0.162085 0
M  V30 8380 O 795.415 1.69208 -0.414029 0
M  V30 8381 C 792.547 3.28278 -0.919044 0
M  V30 8382 H 793.74 2.0218 -2.21502 0
M  V30 8383 H 791.293 1.0257 -1.17936 0
M  V30 8384 H 792.028 3.24263 0.048738 0
M  V30 8385 H 791.813 3.53241 -1.70187 0
M  V30 8386 H 793.303 4.08253 -0.878576 0
M  V30 8387 N 793.74 1.17359 1.05189 0
M  V30 8388 C 794.672 0.848078 2.12933 0
M  V30 8389 C 795.685 -0.149521 1.62112 0
M  V30 8390 O 796.874 0.0767797 1.78335 0
M  V30 8391 C 793.974 0.243889 3.38021 0
M  V30 8392 C 793.147 1.28436 4.18118 0
M  V30 8393 C 792.206 0.697926 5.21551 0
M  V30 8394 O 791.232 1.36973 5.52473 0
M  V30 8395 N 792.434 -0.510024 5.78255 0
M  V30 8396 H 795.199 1.7754 2.41453 0
M  V30 8397 H 792.76 1.07244 1.21286 0
M  V30 8398 H 794.752 -0.161727 4.04377 0
M  V30 8399 H 793.322 -0.58722 3.07035 0
M  V30 8400 H 792.542 1.86573 3.47252 0
M  V30 8401 H 793.83 1.98617 4.68432 0
M  V30 8402 H 793.228 -1.07378 5.55416 0
M  V30 8403 H 791.785 -0.857705 6.46132 0
M  V30 8404 N 795.218 -1.23913 0.973828 0
M  V30 8405 C 796.466 -1.91771 0.637817 0
M  V30 8406 C 796.787 -1.76434 -0.830435 0
M  V30 8407 O 796.057 -1.13965 -1.59339 0
M  V30 8408 H 794.637 -0.709761 0.232912 0
M  V30 8409 H 797.299 -1.50677 1.23622 0
M  V30 8410 H 796.395 -2.99327 0.883731 0
M  V30 8411 N 796.696 -0.74468 -1.38897 0
M  V30 8412 C 797.936 -0.301691 -2.02161 0
M  V30 8413 C 798.3 1.09338 -1.57826 0
M  V30 8414 O 799.501 1.63499 -2.13358 0
M  V30 8415 C 797.772 -0.410601 -3.55034 0
M  V30 8416 S 799.331 -0.0488802 -4.38773 0
M  V30 8417 H 796.149 -0.117583 -0.70121 0
M  V30 8418 H 798.751 -0.973334 -1.69548 0
M  V30 8419 H 797.455 -1.42705 -3.8479 0
M  V30 8420 H 796.986 0.278531 -3.92413 0
M  V30 8421 H 799.001 1.16434 -4.82346 0
M  V30 8422 N 798.174 1.49689 -0.493057 0
M  V30 8423 C 799.399 2.07331 0.0535114 0
M  V30 8424 C 799.824 1.35196 1.30781 0
M  V30 8425 O 799.182 0.406246 1.7669 0
M  V30 8426 C 799.23 3.59364 0.29825 0
M  V30 8427 O 798.334 3.88819 1.37454 0
M  V30 8428 H 797.675 0.663612 -0.0227018 0
M  V30 8429 H 800.205 1.926 -0.690402 0
M  V30 8430 H 800.215 4.04515 0.532159 0
M  V30 8431 H 798.89 4.1128 -0.618207 0
M  V30 8432 H 797.467 3.55487 1.12621 0
M  V30 8433 N 799.652 0.226554 1.55963 0
M  V30 8434 C 800.929 -0.453058 1.90281 0
M  V30 8435 C 801.309 -1.77377 1.14458 0
M  V30 8436 O 800.657 -2.27067 0.255496 0
M  V30 8437 C 800.867 -0.641108 3.43061 0
M  V30 8438 C 802.215 -0.946265 4.13921 0
M  V30 8439 O 803.239 -0.727713 3.48687 0
M  V30 8440 O 802.098 -1.36131 5.29274 0
M  V30 8441 H 799.192 -0.240242 0.791336 0
M  V30 8442 H 801.738 0.26911 1.67553 0
M  V30 8443 H 800.51 0.290283 3.90222 0
M  V30 8444 H 800.133 -1.41458 3.71585 0
M  V30 8445 N 801.13 -1.57531 -0.0467866 0
M  V30 8446 C 802.355 -1.93087 -0.757123 0
M  V30 8447 C 802.78 -0.825116 -1.69037 0
M  V30 8448 O 802.138 0.220449 -1.79955 0
M  V30 8449 C 802.186 -3.27669 -1.5055 0
M  V30 8450 O 801.29 -3.18667 -2.61773 0
M  V30 8451 H 800.631 -0.631597 -0.204892 0
M  V30 8452 H 803.161 -2.04599 -0.00755232 0
M  V30 8453 H 803.171 -3.6214 -1.87932 0
M  V30 8454 H 801.846 -4.07717 -0.820931 0
M  V30 8455 H 800.423 -2.95798 -2.27064 0
M  V30 8456 N 802.608 0.318715 -1.54344 0
M  V30 8457 C 803.538 1.39751 -1.87061 0
M  V30 8458 C 804.519 1.53741 -0.727848 0
M  V30 8459 O 805.704 1.67541 -0.982016 0
M  V30 8460 C 802.834 2.76446 -2.10226 0
M  V30 8461 C 801.788 2.77239 -3.26071 0
M  V30 8462 C 801.114 4.17056 -3.34617 0
M  V30 8463 C 802.414 2.40555 -4.63606 0
M  V30 8464 H 804.108 1.12619 -2.77412 0
M  V30 8465 H 801.654 0.540318 -1.33479 0
M  V30 8466 H 803.607 3.51985 -2.31699 0
M  V30 8467 H 802.331 3.05066 -1.16629 0
M  V30 8468 H 800.99 2.04155 -3.04493 0
M  V30 8469 H 800.638 4.42824 -2.3857 0
M  V30 8470 H 800.338 4.18492 -4.12478 0
M  V30 8471 H 801.862 4.94401 -3.5833 0
M  V30 8472 H 803.276 3.05808 -4.84927 0
M  V30 8473 H 801.673 2.53234 -5.44052 0
M  V30 8474 H 802.743 1.35698 -4.65526 0
M  V30 8475 N 804.086 1.46499 0.581025 0
M  V30 8476 C 804.996 1.59778 1.71779 0
M  V30 8477 C 806.012 0.481223 1.67213 0
M  V30 8478 O 807.188 0.74557 1.87091 0
M  V30 8479 C 804.253 1.58626 3.08283 0
M  V30 8480 C 803.314 2.81527 3.241 0
M  V30 8481 C 802.547 2.80421 4.54092 0
M  V30 8482 O 802.77 1.89262 5.38085 0
M  V30 8483 O 801.704 3.71984 4.73193 0
M  V30 8484 H 805.53 2.55918 1.63523 0
M  V30 8485 H 803.115 1.29311 0.748267 0
M  V30 8486 H 804.997 1.60686 3.89561 0
M  V30 8487 H 803.672 0.656467 3.16973 0
M  V30 8488 H 802.579 2.85021 2.42309 0
M  V30 8489 H 803.912 3.73721 3.20302 0
M  V30 8490 N 805.565 -0.825799 1.34232 0
M  V30 8491 C 806.79 -1.61883 1.29648 0
M  V30 8492 C 807.215 -1.87669 -0.127295 0
M  V30 8493 O 806.573 -1.45016 -1.08813 0
M  V30 8494 C 806.621 -2.93846 2.09014 0
M  V30 8495 O 805.725 -3.85778 1.4577 0
M  V30 8496 H 805.066 -0.492454 0.445405 0
M  V30 8497 H 807.596 -1.02641 1.76992 0
M  V30 8498 H 807.606 -3.43435 2.20264 0
M  V30 8499 H 806.281 -2.74401 3.12533 0
M  V30 8500 H 804.858 -3.4429 1.43245 0
M  V30 8501 N 807.043 -1.17915 -1.04565 0
M  V30 8502 C 808.292 -0.965816 -1.77073 0
M  V30 8503 C 808.605 0.506005 -1.88942 0
M  V30 8504 O 809.811 0.837717 -2.58253 0
M  V30 8505 C 808.267 -1.67894 -3.18339 0
M  V30 8506 C 807.875 -3.18972 -3.1458 0
M  V30 8507 C 809.619 -1.54823 -3.9526 0
M  V30 8508 C 807.526 -3.82946 -4.50674 0
M  V30 8509 H 806.456 -0.357729 -0.663736 0
M  V30 8510 H 809.107 -1.41235 -1.17153 0
M  V30 8511 H 807.489 -1.16016 -3.78624 0
M  V30 8512 H 808.663 -3.77835 -2.63776 0
M  V30 8513 H 806.978 -3.32127 -2.51159 0
M  V30 8514 H 809.575 -1.99984 -4.95894 0
M  V30 8515 H 809.918 -0.499727 -4.1329 0
M  V30 8516 H 810.451 -2.03953 -3.41538 0
M  V30 8517 H 807.19 -4.8782 -4.37849 0
M  V30 8518 H 806.71 -3.2887 -5.01602 0
M  V30 8519 H 808.389 -3.85518 -5.196 0
M  V30 8520 N 808.521 1.23394 -0.980386 0
M  V30 8521 C 809.932 1.73631 -0.686239 0
M  V30 8522 C 810.283 1.79259 0.797541 0
M  V30 8523 O 809.408 1.43046 1.62379 0
M  V30 8524 C 810.003 3.15332 -1.239 0
M  V30 8525 C 808.562 3.63024 -0.994494 0
M  V30 8526 C 807.709 2.41279 -1.36673 0
M  V30 8527 H 810.66 1.08918 -1.15423 0
M  V30 8528 H 810.681 3.75556 -0.611414 0
M  V30 8529 H 810.193 3.11204 -2.31892 0
M  V30 8530 H 808.294 3.72535 0.0693492 0
M  V30 8531 H 808.407 4.49825 -1.64906 0
M  V30 8532 H 806.771 2.42295 -0.785195 0
M  V30 8533 H 807.554 2.39822 -2.45642 0
M  V30 8534 N 809.999 0.752036 1.385 0
M  V30 8535 C 810.962 0.131587 2.28822 0
M  V30 8536 C 811.962 -0.649149 1.47115 0
M  V30 8537 O 813.152 -0.475645 1.67581 0
M  V30 8538 C 810.284 -0.822101 3.30839 0
M  V30 8539 H 811.477 0.927551 2.85196 0
M  V30 8540 H 809.03 0.518945 1.47434 0
M  V30 8541 H 809.765 -1.6438 2.79553 0
M  V30 8542 H 809.55 -0.264689 3.91206 0
M  V30 8543 H 811.04 -1.25226 3.98382 0
M  V30 8544 N 811.477 -1.49425 0.500989 0
M  V30 8545 C 812.725 -2.02053 -0.0434495 0
M  V30 8546 C 813.046 -1.38285 -1.37486 0
M  V30 8547 O 812.316 -0.538171 -1.88363 0
M  V30 8548 H 810.896 -0.746757 -0.0190469 0
M  V30 8549 H 813.558 -1.83449 0.658227 0
M  V30 8550 H 812.654 -3.11619 -0.173129 0
M  V30 8551 N 812.955 -0.234822 -1.55841 0
M  V30 8552 C 813.887 0.702346 -2.18174 0
M  V30 8553 C 814.9 1.14776 -1.15457 0
M  V30 8554 O 816.089 1.07662 -1.42377 0
M  V30 8555 C 813.189 1.96483 -2.76129 0
M  V30 8556 C 812.362 1.67283 -4.04148 0
M  V30 8557 C 811.421 2.7837 -4.46539 0
M  V30 8558 O 810.447 2.46272 -5.13166 0
M  V30 8559 N 811.649 4.07611 -4.1332 0
M  V30 8560 H 814.414 0.169074 -2.99223 0
M  V30 8561 H 811.975 -0.0543164 -1.61809 0
M  V30 8562 H 813.967 2.70016 -3.01452 0
M  V30 8563 H 812.537 2.40822 -1.99307 0
M  V30 8564 H 811.757 0.773278 -3.86541 0
M  V30 8565 H 813.045 1.45222 -4.87635 0
M  V30 8566 H 812.443 4.36527 -3.59806 0
M  V30 8567 H 811 4.77646 -4.43506 0
M  V30 8568 N 814.433 1.57553 0.0384317 0
M  V30 8569 C 815.396 2.04927 1.02653 0
M  V30 8570 C 816.396 0.951768 1.29607 0
M  V30 8571 O 817.586 1.21568 1.24768 0
M  V30 8572 C 814.718 2.45828 2.36181 0
M  V30 8573 H 815.911 2.93474 0.617508 0
M  V30 8574 H 813.464 1.53679 0.285031 0
M  V30 8575 H 814.199 1.60408 2.8185 0
M  V30 8576 H 813.984 3.25945 2.1795 0
M  V30 8577 H 815.474 2.82939 3.0714 0
M  V30 8578 N 815.911 -0.310526 1.54511 0
M  V30 8579 C 816.874 -1.3657 1.84068 0
M  V30 8580 C 817.874 -1.44123 0.713097 0
M  V30 8581 O 819.064 -1.43924 0.981399 0
M  V30 8582 C 816.196 -2.75162 2.01243 0
M  V30 8583 H 817.389 -1.1161 2.78358 0
M  V30 8584 H 814.942 -0.546699 1.46427 0
M  V30 8585 H 815.677 -3.05359 1.09208 0
M  V30 8586 H 815.462 -2.71071 2.83307 0
M  V30 8587 H 816.952 -3.51473 2.25514 0
M  V30 8588 N 817.389 -1.46805 -0.573248 0
M  V30 8589 C 818.614 -1.56433 -1.36175 0
M  V30 8590 C 819.039 -0.209336 -1.86932 0
M  V30 8591 O 818.397 0.812146 -1.62092 0
M  V30 8592 C 818.445 -2.58055 -2.51873 0
M  V30 8593 O 817.549 -2.12214 -3.53609 0
M  V30 8594 H 816.89 -0.526068 -0.405153 0
M  V30 8595 H 819.42 -1.92456 -0.694405 0
M  V30 8596 H 819.43 -2.77966 -2.98662 0
M  V30 8597 H 818.105 -3.56448 -2.14284 0
M  V30 8598 H 816.682 -2.02333 -3.13234 0
M  V30 8599 N 818.867 0.818669 -1.34668 0
M  V30 8600 C 820.144 1.56118 -1.17841 0
M  V30 8601 C 820.524 2.09646 0.24731 0
M  V30 8602 O 819.872 1.91329 1.24922 0
M  V30 8603 C 820.082 2.67922 -2.23649 0
M  V30 8604 C 821.43 3.36579 -2.58843 0
M  V30 8605 O 822.454 2.78182 -2.22471 0
M  V30 8606 O 821.313 4.42045 -3.21339 0
M  V30 8607 H 818.407 0.689216 -0.457067 0
M  V30 8608 H 820.953 0.859674 -1.46314 0
M  V30 8609 H 819.725 2.26153 -3.19328 0
M  V30 8610 H 819.348 3.45719 -1.96377 0
M  V30 8611 N 820.346 1.18468 1.03938 0
M  V30 8612 C 821.623 0.890435 1.74157 0
M  V30 8613 C 822.003 -0.606409 2.02203 0
M  V30 8614 O 821.351 -1.5615 1.66822 0
M  V30 8615 C 821.561 1.73906 3.02585 0
M  V30 8616 C 822.909 1.96686 3.76297 0
M  V30 8617 O 823.933 1.70969 3.12487 0
M  V30 8618 O 822.792 2.39986 4.90988 0
M  V30 8619 H 819.886 0.330889 0.757919 0
M  V30 8620 H 822.432 1.29228 1.09992 0
M  V30 8621 H 821.204 2.75369 2.78006 0
M  V30 8622 H 820.827 1.33581 3.74489 0
M  V30 8623 N 821.824 -1.22873 0.986916 0
M  V30 8624 C 822.754 -2.2688 0.552064 0
M  V30 8625 C 823.735 -1.64883 -0.418048 0
M  V30 8626 O 824.92 -1.9171 -0.30999 0
M  V30 8627 C 822.05 -3.47018 -0.139959 0
M  V30 8628 C 821.004 -4.21411 0.748091 0
M  V30 8629 C 820.33 -5.34645 -0.0765132 0
M  V30 8630 C 821.63 -4.80726 2.04206 0
M  V30 8631 H 823.324 -2.63507 1.42143 0
M  V30 8632 H 820.87 -1.26668 0.68492 0
M  V30 8633 H 822.823 -4.18931 -0.455527 0
M  V30 8634 H 821.547 -3.0947 -1.04382 0
M  V30 8635 H 820.206 -3.51325 1.04721 0
M  V30 8636 H 819.854 -4.93339 -0.981109 0
M  V30 8637 H 819.554 -5.85342 0.514606 0
M  V30 8638 H 821.078 -6.09377 -0.386313 0
M  V30 8639 H 822.492 -5.44612 1.79083 0
M  V30 8640 H 820.889 -5.41737 2.5815 0
M  V30 8641 H 821.959 -4.01109 2.72469 0
M  V30 8642 N 823.302 -0.75937 -1.38099 0
M  V30 8643 C 824.718 -0.437606 -1.53483 0
M  V30 8644 C 824.918 1.04849 -1.72072 0
M  V30 8645 O 823.974 1.83448 -1.73502 0
M  V30 8646 C 825.287 -1.24189 -2.73857 0
M  V30 8647 C 826.835 -1.23255 -2.8771 0
M  V30 8648 C 827.31 -2.01992 -4.11051 0
M  V30 8649 N 828.801 -1.99282 -4.1814 0
M  V30 8650 C 829.536 -2.56996 -5.12583 0
M  V30 8651 N 829.032 -3.23446 -6.12662 0
M  V30 8652 N 830.825 -2.46894 -5.04975 0
M  V30 8653 H 822.976 -1.72242 -1.24283 0
M  V30 8654 H 825.239 -0.730507 -0.604205 0
M  V30 8655 H 824.945 -2.29449 -2.66545 0
M  V30 8656 H 824.819 -0.862672 -3.67203 0
M  V30 8657 H 827.206 -0.187988 -2.94501 0
M  V30 8658 H 827.287 -1.65132 -1.95359 0
M  V30 8659 H 826.931 -3.06462 -4.05023 0
M  V30 8660 H 826.861 -1.57505 -5.02494 0
M  V30 8661 H 829.352 -1.50893 -3.46467 0
M  V30 8662 H 829.665 -3.6489 -6.81231 0
M  V30 8663 H 828.01 -3.27543 -6.12977 0
M  V30 8664 H 831.201 -1.94604 -4.25731 0
M  V30 8665 H 831.374 -2.92168 -5.78396 0
M  V30 8666 N 824.78 1.49157 -0.508906 0
M  V30 8667 C 826.057 1.95363 0.0961913 0
M  V30 8668 C 826.437 1.45064 1.53362 0
M  V30 8669 O 825.785 0.667835 2.18523 0
M  V30 8670 C 825.995 3.49 0.000688881 0
M  V30 8671 C 827.343 4.24257 0.170632 0
M  V30 8672 O 828.367 3.5612 0.0754994 0
M  V30 8673 O 827.226 5.45267 0.366957 0
M  V30 8674 H 824.32 0.821984 0.0909489 0
M  V30 8675 H 826.866 1.59769 -0.572007 0
M  V30 8676 H 825.638 3.78269 -1.00143 0
M  V30 8677 H 825.261 3.91233 0.708682 0
M  V30 8678 N 826.258 0.243083 1.55714 0
M  V30 8679 C 827.504 -0.383287 1.99145 0
M  V30 8680 C 827.837 -1.57868 1.13098 0
M  V30 8681 O 827.112 -1.93535 0.193509 0
M  V30 8682 C 827.395 -0.796879 3.51172 0
M  V30 8683 C 827.248 0.403642 4.47985 0
M  V30 8684 C 828.567 -1.64525 4.08191 0
M  V30 8685 H 825.686 -0.137843 0.723995 0
M  V30 8686 H 828.328 0.343631 1.86867 0
M  V30 8687 H 826.478 -1.41625 3.61766 0
M  V30 8688 H 828.15 1.04204 4.49376 0
M  V30 8689 H 826.393 1.04741 4.20965 0
M  V30 8690 H 827.064 0.0709794 5.51954 0
M  V30 8691 H 829.54 -1.12246 4.00674 0
M  V30 8692 H 828.416 -1.9035 5.14838 0
M  V30 8693 H 828.677 -2.61582 3.56409 0
M  V30 8694 N 827.736 -1.57571 -0.0300757 0
M  V30 8695 C 829.147 -1.77567 -0.576802 0
M  V30 8696 C 829.498 -0.874034 -1.75656 0
M  V30 8697 O 828.623 -0.0686124 -2.16291 0
M  V30 8698 C 829.218 -3.22016 -1.05315 0
M  V30 8699 C 827.777 -3.43212 -1.5454 0
M  V30 8700 C 826.924 -2.73061 -0.483033 0
M  V30 8701 H 829.875 -1.57483 0.196151 0
M  V30 8702 H 829.896 -3.28474 -1.92055 0
M  V30 8703 H 829.408 -3.87613 -0.194298 0
M  V30 8704 H 827.509 -2.82788 -2.42615 0
M  V30 8705 H 827.622 -4.5182 -1.5936 0
M  V30 8706 H 825.986 -2.36805 -0.937835 0
M  V30 8707 H 826.769 -3.4134 0.366341 0
M  V30 8708 N 829.214 0.302327 -1.54673 0
M  V30 8709 C 830.462 1.03565 -1.73547 0
M  V30 8710 C 830.783 1.87843 -0.523448 0
M  V30 8711 O 830.053 1.90367 0.462295 0
M  V30 8712 H 828.633 0.385358 -0.639928 0
M  V30 8713 H 831.295 0.333632 -1.92023 0
M  V30 8714 H 830.391 1.68952 -2.62415 0
M  V30 8715 N 830.692 1.47107 0.565454 0
M  V30 8716 C 831.655 1.58535 1.65527 0
M  V30 8717 C 832.655 0.461081 1.54048 0
M  V30 8718 O 833.845 0.725911 1.58355 0
M  V30 8719 C 830.977 1.52204 3.05036 0
M  V30 8720 H 832.17 2.55676 1.56747 0
M  V30 8721 H 829.723 1.35174 0.78471 0
M  V30 8722 H 830.458 0.564071 3.19357 0
M  V30 8723 H 830.243 2.3379 3.14777 0
M  V30 8724 H 831.733 1.63322 3.84338 0
M  V30 8725 N 832.17 -0.811516 1.35101 0
M  V30 8726 C 833.416 -1.57068 1.28287 0
M  V30 8727 C 833.749 -1.93667 -0.143808 0
M  V30 8728 O 833.024 -1.60953 -1.09199 0
M  V30 8729 C 833.307 -2.86259 2.18466 0
M  V30 8730 C 833.16 -2.56168 3.69727 0
M  V30 8731 C 834.479 -3.87924 2.07852 0
M  V30 8732 H 831.598 -0.569869 0.467353 0
M  V30 8733 H 834.24 -0.934023 1.65457 0
M  V30 8734 H 832.39 -3.4059 1.86898 0
M  V30 8735 H 834.062 -2.08059 4.11715 0
M  V30 8736 H 832.305 -1.89436 3.90252 0
M  V30 8737 H 832.976 -3.48344 4.28206 0
M  V30 8738 H 835.452 -3.4298 2.35593 0
M  V30 8739 H 834.328 -4.76106 2.73157 0
M  V30 8740 H 834.589 -4.2923 1.05896 0
M  V30 8741 N 833.648 -1.19017 -1.03309 0
M  V30 8742 C 834.896 -0.988258 -1.76289 0
M  V30 8743 C 835.217 0.482557 -1.88935 0
M  V30 8744 O 834.487 1.34969 -1.41987 0
M  V30 8745 H 833.067 -0.36267 -0.653054 0
M  V30 8746 H 835.729 -1.49836 -1.2464 0
M  V30 8747 H 834.825 -1.43273 -2.77271 0
M  V30 8748 N 835.127 1.22348 -0.993418 0
M  V30 8749 C 836.375 1.90733 -0.668246 0
M  V30 8750 C 836.696 1.77732 0.802261 0
M  V30 8751 O 835.966 1.16486 1.57505 0
M  V30 8752 H 834.546 0.705966 -0.244174 0
M  V30 8753 H 837.208 1.48691 -1.26004 0
M  V30 8754 H 836.304 2.97883 -0.931239 0
M  V30 8755 N 836.605 0.766683 1.37694 0
M  V30 8756 C 837.568 0.155849 2.2867 0
M  V30 8757 C 838.568 -0.633509 1.47795 0
M  V30 8758 O 839.758 -0.457844 1.68076 0
M  V30 8759 C 836.89 -0.786965 3.31692 0
M  V30 8760 H 838.083 0.957748 2.84196 0
M  V30 8761 H 835.636 0.534554 1.46875 0
M  V30 8762 H 836.371 -1.61406 2.8128 0
M  V30 8763 H 836.156 -0.223182 3.91464 0
M  V30 8764 H 837.646 -1.20994 3.99688 0
M  V30 8765 N 838.083 -1.48885 0.516809 0
M  V30 8766 C 839.308 -2.0739 -0.0205201 0
M  V30 8767 C 839.733 -1.37259 -1.28614 0
M  V30 8768 O 839.091 -0.434304 -1.76021 0
M  V30 8769 C 839.139 -3.59793 -0.24104 0
M  V30 8770 O 838.243 -3.90957 -1.31251 0
M  V30 8771 H 837.584 -0.663167 0.0332564 0
M  V30 8772 H 840.114 -1.91477 0.720956 0
M  V30 8773 H 840.124 -4.0531 -0.467737 0
M  V30 8774 H 838.799 -4.10244 0.68356 0
M  V30 8775 H 837.376 -3.57234 -1.06951 0
M  V30 8776 N 839.561 -0.251338 -1.55583 0
M  V30 8777 C 840.972 0.25098 -1.85005 0
M  V30 8778 C 841.323 1.57259 -1.17321 0
M  V30 8779 O 840.448 2.11603 -0.453136 0
M  V30 8780 C 841.043 0.462161 -3.35633 0
M  V30 8781 C 839.602 0.908737 -3.65266 0
M  V30 8782 C 838.749 -0.0115418 -2.77298 0
M  V30 8783 H 841.7 -0.473782 -1.51463 0
M  V30 8784 H 841.721 1.30415 -3.57452 0
M  V30 8785 H 841.233 -0.499886 -3.84867 0
M  V30 8786 H 839.334 1.8831 -3.21512 0
M  V30 8787 H 839.447 0.762526 -4.72993 0
M  V30 8788 H 837.811 0.500612 -2.49732 0
M  V30 8789 H 838.594 -0.969042 -3.29339 0
M  V30 8790 N 841.039 1.57585 0.0217189 0
M  V30 8791 C 841.949 2.10444 1.03684 0
M  V30 8792 C 842.965 1.04472 1.39146 0
M  V30 8793 O 844.141 1.36249 1.48317 0
M  V30 8794 C 841.206 2.5794 2.31664 0
M  V30 8795 C 840.267 3.78425 2.02714 0
M  V30 8796 C 839.5 4.23646 3.24592 0
M  V30 8797 O 839.723 3.6834 4.35525 0
M  V30 8798 O 838.657 5.16013 3.09862 0
M  V30 8799 H 842.483 2.97354 0.617584 0
M  V30 8800 H 840.068 1.47473 0.239174 0
M  V30 8801 H 841.95 2.88785 3.06889 0
M  V30 8802 H 840.625 1.74138 2.7287 0
M  V30 8803 H 839.532 3.52587 1.25033 0
M  V30 8804 H 840.865 4.63234 1.66359 0
M  V30 8805 N 842.517 -0.29412 1.54831 0
M  V30 8806 C 843.467 -1.36476 1.82643 0
M  V30 8807 C 844.451 -1.45638 0.683984 0
M  V30 8808 O 845.643 -1.49675 0.944801 0
M  V30 8809 C 842.772 -2.72865 2.08326 0
M  V30 8810 C 841.858 -2.67898 3.28773 0
M  V30 8811 N 842.249 -2.32547 4.49172 0
M  V30 8812 C 840.547 -2.98991 3.30939 0
M  V30 8813 C 841.248 -2.37048 5.31209 0
M  V30 8814 N 840.224 -2.74679 4.69097 0
M  V30 8815 H 844.026 -1.08119 2.7329 0
M  V30 8816 H 841.54 -0.502718 1.54423 0
M  V30 8817 H 843.537 -3.5007 2.264 0
M  V30 8818 H 842.197 -3.02127 1.1895 0
M  V30 8819 H 843.208 -2.04883 4.7565 0
M  V30 8820 H 839.885 -3.33104 2.51691 0
M  V30 8821 H 841.275 -2.12457 6.37426 0
M  V30 8822 N 843.995 -1.47404 -0.557645 0
M  V30 8823 C 844.958 -1.59411 -1.64684 0
M  V30 8824 C 845.958 -0.469244 -1.53801 0
M  V30 8825 O 847.148 -0.734298 -1.57967 0
M  V30 8826 C 844.28 -1.5382 -3.04224 0
M  V30 8827 H 845.473 -2.56504 -1.55389 0
M  V30 8828 H 843.026 -1.35588 -0.777531 0
M  V30 8829 H 843.761 -0.581 -3.19053 0
M  V30 8830 H 843.546 -2.35456 -3.13533 0
M  V30 8831 H 845.036 -1.65358 -3.83466 0
M  V30 8832 N 845.473 0.80434 -1.35529 0
M  V30 8833 C 846.383 1.94784 -1.30753 0
M  V30 8834 C 847.399 1.72703 -0.212071 0
M  V30 8835 O 848.575 1.96494 -0.441841 0
M  V30 8836 C 845.64 3.29406 -1.08133 0
M  V30 8837 C 844.701 3.64367 -2.27013 0
M  V30 8838 C 843.934 4.92566 -2.05463 0
M  V30 8839 O 844.157 5.61166 -1.02222 0
M  V30 8840 O 843.091 5.25838 -2.92879 0
M  V30 8841 H 846.917 2.01761 -2.26994 0
M  V30 8842 H 844.502 0.942448 -1.15924 0
M  V30 8843 H 846.384 4.09995 -0.973756 0
M  V30 8844 H 845.059 3.23355 -0.149444 0
M  V30 8845 H 843.966 2.84146 -2.43335 0
M  V30 8846 H 845.299 3.75125 -3.18656 0
M  V30 8847 N 846.951 1.19563 1.02676 0
M  V30 8848 C 848.362 1.00158 1.57561 0
M  V30 8849 C 848.713 -0.444922 1.91089 0
M  V30 8850 O 847.838 -1.32466 1.71119 0
M  V30 8851 C 848.433 1.81181 2.86284 0
M  V30 8852 C 846.992 1.66171 3.37734 0
M  V30 8853 C 846.139 1.7975 2.11152 0
M  V30 8854 H 849.09 1.33904 0.85179 0
M  V30 8855 H 849.111 1.30916 3.57269 0
M  V30 8856 H 848.623 2.86454 2.6185 0
M  V30 8857 H 846.724 0.634927 3.6715 0
M  V30 8858 H 846.837 2.46832 4.10622 0
M  V30 8859 H 845.201 1.22833 2.23123 0
M  V30 8860 H 845.984 2.86487 1.89157 0
M  V30 8861 N 848.429 -1.21819 0.999893 0
M  V30 8862 C 849.339 -2.27691 0.565159 0
M  V30 8863 C 850.355 -1.69587 -0.389398 0
M  V30 8864 O 851.531 -1.99786 -0.254499 0
M  V30 8865 C 848.596 -3.46537 -0.106432 0
M  V30 8866 C 847.657 -4.19932 0.891964 0
M  V30 8867 C 846.89 -5.33103 0.252327 0
M  V30 8868 O 847.113 -5.62398 -0.952103 0
M  V30 8869 O 846.047 -5.94184 0.960698 0
M  V30 8870 H 849.873 -2.67059 1.44613 0
M  V30 8871 H 847.458 -1.28119 0.768499 0
M  V30 8872 H 849.34 -4.18631 -0.482301 0
M  V30 8873 H 848.015 -3.09079 -0.961865 0
M  V30 8874 H 846.922 -3.5008 1.3189 0
M  V30 8875 H 848.255 -4.61287 1.71682 0
M  V30 8876 N 849.908 -0.773975 -1.37286 0
M  V30 8877 C 851.154 -0.339809 -1.99933 0
M  V30 8878 C 851.487 1.0815 -1.61299 0
M  V30 8879 O 850.762 1.74442 -0.860252 0
M  V30 8880 C 851.045 -0.485919 -3.56806 0
M  V30 8881 C 850.898 -1.9498 -4.05343 0
M  V30 8882 C 852.217 0.108461 -4.39966 0
M  V30 8883 H 849.336 -0.124944 -0.726332 0
M  V30 8884 H 851.978 -0.977433 -1.6293 0
M  V30 8885 H 850.128 0.0569023 -3.88458 0
M  V30 8886 H 851.8 -2.5525 -3.84246 0
M  V30 8887 H 850.043 -2.45784 -3.57453 0
M  V30 8888 H 850.714 -2.00308 -5.14374 0
M  V30 8889 H 853.19 -0.354722 -4.14585 0
M  V30 8890 H 852.066 -0.0238926 -5.48895 0
M  V30 8891 H 852.327 1.19901 -4.25531 0
M  V30 8892 N 851.386 1.48609 -0.524698 0
M  V30 8893 C 852.318 2.27508 0.278 0
M  V30 8894 C 853.331 1.35042 0.909258 0
M  V30 8895 O 854.52 1.60136 0.788592 0
M  V30 8896 C 851.62 3.08247 1.40843 0
M  V30 8897 C 850.793 4.28455 0.880083 0
M  V30 8898 C 849.852 4.91048 1.891 0
M  V30 8899 O 848.878 5.5042 1.45005 0
M  V30 8900 N 850.08 4.82816 3.22288 0
M  V30 8901 H 852.845 2.97037 -0.398642 0
M  V30 8902 H 850.406 1.57876 -0.358698 0
M  V30 8903 H 852.398 3.46992 2.08276 0
M  V30 8904 H 850.968 2.41173 1.98883 0
M  V30 8905 H 850.188 3.94189 0.0299228 0
M  V30 8906 H 851.476 5.06279 0.505881 0
M  V30 8907 H 850.874 4.3572 3.60783 0
M  V30 8908 H 849.431 5.25676 3.85368 0
M  V30 8909 N 852.864 0.259585 1.55447 0
M  V30 8910 C 854.11 -0.362143 1.9954 0
M  V30 8911 C 854.443 -1.5666 1.14767 0
M  V30 8912 O 853.718 -1.93319 0.214025 0
M  V30 8913 C 854.001 -0.759588 3.51998 0
M  V30 8914 C 853.854 0.451134 4.47532 0
M  V30 8915 C 855.173 -1.60186 4.09913 0
M  V30 8916 H 852.292 -0.130157 0.725416 0
M  V30 8917 H 854.934 0.363431 1.86492 0
M  V30 8918 H 853.084 -1.3778 3.63248 0
M  V30 8919 H 854.756 1.08965 4.48246 0
M  V30 8920 H 852.999 1.092 4.19831 0
M  V30 8921 H 853.67 0.129518 5.51848 0
M  V30 8922 H 856.146 -1.0799 4.01842 0
M  V30 8923 H 855.022 -1.84879 5.16828 0
M  V30 8924 H 855.283 -2.57787 3.59163 0
M  V30 8925 N 854.342 -1.57594 -0.0133615 0
M  V30 8926 C 855.588 -1.90262 -0.702019 0
M  V30 8927 C 855.921 -0.859219 -1.74158 0
M  V30 8928 O 855.196 0.123778 -1.94106 0
M  V30 8929 C 855.479 -3.3354 -1.35732 0
M  V30 8930 C 855.332 -4.48586 -0.330208 0
M  V30 8931 C 856.651 -3.76004 -2.28712 0
M  V30 8932 H 853.77 -0.691943 -0.253739 0
M  V30 8933 H 856.412 -1.89967 0.0351894 0
M  V30 8934 H 854.562 -3.33921 -1.98567 0
M  V30 8935 H 856.234 -4.6034 0.297433 0
M  V30 8936 H 854.477 -4.32394 0.348926 0
M  V30 8937 H 855.148 -5.45762 -0.827508 0
M  V30 8938 H 857.624 -3.77089 -1.75906 0
M  V30 8939 H 856.5 -4.77032 -2.71535 0
M  V30 8940 H 856.761 -3.09129 -3.16056 0
M  V30 8941 N 855.82 0.285905 -1.54985 0
M  V30 8942 C 857.231 0.857869 -1.65824 0
M  V30 8943 C 857.582 1.87531 -0.576763 0
M  V30 8944 O 856.707 2.14528 0.284016 0
M  V30 8945 C 857.302 1.56277 -3.00604 0
M  V30 8946 C 855.861 2.08294 -3.13513 0
M  V30 8947 C 855.008 0.920633 -2.61571 0
M  V30 8948 H 857.959 0.0625463 -1.58577 0
M  V30 8949 H 857.98 2.42912 -2.92872 0
M  V30 8950 H 857.492 0.822017 -3.79295 0
M  V30 8951 H 855.593 2.8537 -2.39572 0
M  V30 8952 H 855.706 2.3071 -4.19892 0
M  V30 8953 H 854.07 1.31043 -2.18403 0
M  V30 8954 H 854.853 0.193594 -3.42754 0
M  V30 8955 N 857.298 1.47698 0.54982 0
M  V30 8956 C 858.546 1.54397 1.30407 0
M  V30 8957 C 858.867 0.211026 1.93855 0
M  V30 8958 O 858.137 -0.765701 1.80316 0
M  V30 8959 H 856.717 0.568747 0.484289 0
M  V30 8960 H 859.379 1.84042 0.641444 0
M  V30 8961 H 858.475 2.31449 2.09375 0
M  V30 8962 N 858.776 -0.797141 1.35954 0
M  V30 8963 C 860.001 -1.59097 1.33053 0
M  V30 8964 C 860.426 -1.87897 -0.0874592 0
M  V30 8965 O 859.784 -1.47291 -1.05712 0
M  V30 8966 C 859.832 -2.89346 2.152 0
M  V30 8967 O 858.936 -3.826 1.5392 0
M  V30 8968 H 858.277 -0.482895 0.45575 0
M  V30 8969 H 860.807 -0.988633 1.79129 0
M  V30 8970 H 860.817 -3.38686 2.27499 0
M  V30 8971 H 859.492 -2.6771 3.18283 0
M  V30 8972 H 858.069 -3.41174 1.50516 0
M  V30 8973 N 860.254 -1.20106 -1.0204 0
M  V30 8974 C 861.502 -1.0069 -1.75231 0
M  V30 8975 C 861.823 0.462491 -1.89436 0
M  V30 8976 O 861.093 1.33455 -1.4341 0
M  V30 8977 H 859.673 -0.369576 -0.649171 0
M  V30 8978 H 862.335 -1.51149 -1.23044 0
M  V30 8979 H 861.431 -1.46205 -2.75736 0
M  V30 8980 N 861.732 1.21287 -1.00634 0
M  V30 8981 C 862.664 2.2308 -0.526094 0
M  V30 8982 C 863.677 1.58157 0.386031 0
M  V30 8983 O 864.866 1.77528 0.186016 0
M  V30 8984 C 861.966 3.37937 0.255289 0
M  V30 8985 C 861.139 4.32449 -0.656236 0
M  V30 8986 C 860.198 5.26145 0.0757714 0
M  V30 8987 O 859.224 5.66601 -0.543325 0
M  V30 8988 N 860.426 5.6449 1.35391 0
M  V30 8989 H 863.191 2.64913 -1.40147 0
M  V30 8990 H 860.752 1.35724 -0.882641 0
M  V30 8991 H 862.744 3.97614 0.753977 0
M  V30 8992 H 861.314 2.95078 1.03187 0
M  V30 8993 H 860.534 3.70892 -1.3354 0
M  V30 8994 H 861.822 4.92526 -1.27653 0
M  V30 8995 H 861.22 5.33617 1.878 0
M  V30 8996 H 859.777 6.26524 1.79753 0
M  V30 8997 N 863.21 0.781244 1.36873 0
M  V30 8998 C 864.459 0.34652 1.98701 0
M  V30 8999 C 864.772 -1.08555 1.62712 0
M  V30 9000 O 865.978 -1.62213 2.17713 0
M  V30 9001 C 864.434 0.568611 3.5538 0
M  V30 9002 C 864.042 2.01156 4.003 0
M  V30 9003 C 865.786 0.197983 4.24038 0
M  V30 9004 C 863.693 2.18074 5.49725 0
M  V30 9005 H 862.623 0.125821 0.743428 0
M  V30 9006 H 865.274 0.961721 1.56279 0
M  V30 9007 H 863.656 -0.116185 3.9583 0
M  V30 9008 H 864.83 2.73209 3.71071 0
M  V30 9009 H 863.145 2.33967 3.44454 0
M  V30 9010 H 865.742 0.302778 5.33842 0
M  V30 9011 H 866.085 -0.852927 4.07469 0
M  V30 9012 H 866.618 0.835696 3.88923 0
M  V30 9013 H 863.357 3.21519 5.71232 0
M  V30 9014 H 862.877 1.50517 5.80607 0
M  V30 9015 H 864.556 1.98393 6.15832 0
M  V30 9016 N 864.689 -1.48329 0.532571 0
M  V30 9017 C 865.938 -2.017 -0.00259705 0
M  V30 9018 C 866.251 -1.41469 -1.35077 0
M  V30 9019 O 867.457 -1.86354 -1.97445 0
M  V30 9020 C 865.913 -3.59858 -0.0550179 0
M  V30 9021 C 865.521 -4.29073 1.28842 0
M  V30 9022 C 867.265 -4.21066 -0.538878 0
M  V30 9023 C 865.172 -5.79171 1.19644 0
M  V30 9024 H 864.102 -0.753985 -0.00474081 0
M  V30 9025 H 866.753 -1.70565 0.676739 0
M  V30 9026 H 865.135 -3.87846 -0.799486 0
M  V30 9027 H 866.309 -4.12755 2.04865 0
M  V30 9028 H 864.624 -3.79748 1.70822 0
M  V30 9029 H 867.221 -5.31026 -0.6257 0
M  V30 9030 H 867.564 -3.86559 -1.54525 0
M  V30 9031 H 868.097 -3.97517 0.149984 0
M  V30 9032 H 864.836 -6.18257 2.17805 0
M  V30 9033 H 864.356 -5.97895 0.477609 0
M  V30 9034 H 866.035 -6.40875 0.888186 0
M  V30 9035 N 866.167 -0.267825 -1.55308 0
M  V30 9036 C 867.414 0.351036 -1.99434 0
M  V30 9037 C 867.742 1.56406 -1.15618 0
M  V30 9038 O 866.997 1.94548 -0.212045 0
M  V30 9039 C 867.296 0.784247 -3.48689 0
M  V30 9040 C 866.962 -0.323328 -4.49739 0
M  V30 9041 C 865.624 -0.627467 -4.77091 0
M  V30 9042 C 867.976 -1.07002 -5.10098 0
M  V30 9043 C 865.304 -1.682 -5.62073 0
M  V30 9044 C 867.656 -2.11422 -5.96224 0
M  V30 9045 C 866.32 -2.42479 -6.21901 0
M  V30 9046 H 865.59 0.128453 -0.729781 0
M  V30 9047 H 868.237 -0.380018 -1.87692 0
M  V30 9048 H 866.542 1.59485 -3.57871 0
M  V30 9049 H 868.239 1.2737 -3.80234 0
M  V30 9050 H 864.829 -0.0761528 -4.28532 0
M  V30 9051 H 869.013 -0.848302 -4.88996 0
M  V30 9052 H 864.269 -1.92772 -5.80215 0
M  V30 9053 H 868.443 -2.69759 -6.4203 0
M  V30 9054 H 866.07 -3.24328 -6.87543 0
M  V30 9055 N 867.645 1.57599 0.00500368 0
M  V30 9056 C 868.575 2.11143 0.99705 0
M  V30 9057 C 869.556 1.0194 1.3617 0
M  V30 9058 O 870.741 1.29596 1.44632 0
M  V30 9059 C 867.871 2.61062 2.2905 0
M  V30 9060 C 866.825 3.74745 2.0676 0
M  V30 9061 C 866.151 4.10961 3.42075 0
M  V30 9062 C 867.451 5.02222 1.43424 0
M  V30 9063 H 869.145 2.94281 0.551251 0
M  V30 9064 H 866.691 1.41565 0.263715 0
M  V30 9065 H 868.644 2.97146 2.98801 0
M  V30 9066 H 867.368 1.75038 2.75734 0
M  V30 9067 H 866.027 3.39047 1.39436 0
M  V30 9068 H 865.675 3.21968 3.86453 0
M  V30 9069 H 865.375 4.87549 3.27979 0
M  V30 9070 H 866.899 4.49599 4.1315 0
M  V30 9071 H 868.313 5.36109 2.03125 0
M  V30 9072 H 866.71 5.83581 1.39831 0
M  V30 9073 H 867.78 4.83224 0.40285 0
M  V30 9074 N 869.123 -0.277682 1.55134 0
M  V30 9075 C 870.534 -0.849063 1.66276 0
M  V30 9076 C 870.885 -1.87223 0.5867 0
M  V30 9077 O 870.01 -2.14676 -0.272635 0
M  V30 9078 C 870.605 -1.54681 3.01429 0
M  V30 9079 C 869.164 -2.06628 3.14614 0
M  V30 9080 C 868.311 -0.906748 2.62056 0
M  V30 9081 H 871.262 -0.0541357 1.58608 0
M  V30 9082 H 871.283 -2.41356 2.94156 0
M  V30 9083 H 870.795 -0.80189 3.79725 0
M  V30 9084 H 868.896 -2.84095 2.41082 0
M  V30 9085 H 869.009 -2.2848 4.2111 0
M  V30 9086 H 867.373 -1.29882 2.19095 0
M  V30 9087 H 868.156 -0.175414 3.42852 0
M  V30 9088 N 870.601 -1.47988 -0.541979 0
M  V30 9089 C 871.848 -1.55393 -1.29843 0
M  V30 9090 C 872.176 -0.222668 -1.93221 0
M  V30 9091 O 871.431 0.785936 -1.79225 0
M  V30 9092 C 871.73 -2.63189 -2.41798 0
M  V30 9093 C 871.396 -4.05999 -1.96151 0
M  V30 9094 C 870.058 -4.44872 -1.83419 0
M  V30 9095 C 872.41 -4.95545 -1.61507 0
M  V30 9096 C 869.738 -5.71108 -1.34361 0
M  V30 9097 C 872.09 -6.22259 -1.13915 0
M  V30 9098 C 870.754 -6.59998 -0.997911 0
M  V30 9099 H 870.024 -0.568623 -0.47513 0
M  V30 9100 H 872.671 -1.81654 -0.606142 0
M  V30 9101 H 870.976 -2.30743 -3.16647 0
M  V30 9102 H 872.673 -2.66138 -2.99953 0
M  V30 9103 H 869.263 -3.75294 -2.07008 0
M  V30 9104 H 873.447 -4.662 -1.70209 0
M  V30 9105 H 868.703 -5.99083 -1.22103 0
M  V30 9106 H 872.877 -6.91048 -0.861755 0
M  V30 9107 H 870.504 -7.57704 -0.615561 0
M  V30 9108 N 872.079 0.78992 -1.36375 0
M  V30 9109 C 873.307 1.57873 -1.3373 0
M  V30 9110 C 873.722 1.88624 0.0815544 0
M  V30 9111 O 873.079 1.50085 1.03831 0
M  V30 9112 C 873.13 2.90003 -2.15825 0
M  V30 9113 O 872.851 2.60578 -3.5218 0
M  V30 9114 C 874.352 3.84309 -2.20955 0
M  V30 9115 H 871.572 0.489685 -0.458748 0
M  V30 9116 H 874.116 0.980436 -1.79465 0
M  V30 9117 H 872.271 3.46303 -1.73646 0
M  V30 9118 H 872.685 3.4506 -3.95011 0
M  V30 9119 H 874.159 4.74081 -2.82756 0
M  V30 9120 H 874.636 4.22121 -1.21287 0
M  V30 9121 H 875.242 3.33942 -2.63368 0
M  V30 9122 N 873.557 1.20646 1.01402 0
M  V30 9123 C 874.797 1.02951 1.7658 0
M  V30 9124 C 875.161 -0.430522 1.87111 0
M  V30 9125 O 876.362 -0.727727 2.58762 0
M  V30 9126 C 874.633 1.69728 3.14527 0
M  V30 9127 S 876.192 1.6717 4.05709 0
M  V30 9128 H 873.01 0.36911 0.607683 0
M  V30 9129 H 875.612 1.53243 1.21395 0
M  V30 9130 H 874.316 2.75162 3.0449 0
M  V30 9131 H 873.847 1.19578 3.74786 0
M  V30 9132 H 875.862 0.706397 4.91146 0
M  V30 9133 N 875.035 -1.20752 1.01276 0
M  V30 9134 C 876.284 -1.8934 0.695229 0
M  V30 9135 C 876.597 -1.79459 -0.77806 0
M  V30 9136 O 877.803 -2.43146 -1.20799 0
M  V30 9137 C 876.259 -3.39548 1.1931 0
M  V30 9138 C 875.867 -3.58023 2.69302 0
M  V30 9139 C 877.611 -4.13714 0.950823 0
M  V30 9140 C 875.518 -5.02037 3.1259 0
M  V30 9141 H 874.448 -0.709084 0.25635 0
M  V30 9142 H 877.099 -1.36629 1.22494 0
M  V30 9143 H 875.481 -3.91559 0.591395 0
M  V30 9144 H 876.655 -3.16416 3.34989 0
M  V30 9145 H 874.97 -2.97222 2.9163 0
M  V30 9146 H 877.567 -5.19891 1.24971 0
M  V30 9147 H 877.91 -4.16147 -0.112791 0
M  V30 9148 H 878.443 -3.67792 1.51571 0
M  V30 9149 H 875.182 -5.04757 4.18211 0
M  V30 9150 H 874.702 -5.44469 2.51621 0
M  V30 9151 H 876.381 -5.70594 3.0501 0
M  V30 9152 N 876.513 -0.788492 -1.36457 0
M  V30 9153 C 877.761 -0.359749 -1.98872 0
M  V30 9154 C 878.082 1.07197 -1.62892 0
M  V30 9155 O 877.352 1.73875 -0.902463 0
M  V30 9156 H 875.932 -0.130029 -0.735596 0
M  V30 9157 H 878.594 -1.01033 -1.66668 0
M  V30 9158 H 877.69 -0.450835 -3.08827 0
M  V30 9159 N 877.991 1.48044 -0.54043 0
M  V30 9160 C 879.221 2.06595 -0.0144943 0
M  V30 9161 C 879.629 1.39593 1.27713 0
M  V30 9162 O 878.972 0.480794 1.77297 0
M  V30 9163 C 879.034 3.5849 0.269316 0
M  V30 9164 C 878.698 4.47429 -0.930372 0
M  V30 9165 C 879.695 4.8657 -1.83155 0
M  V30 9166 C 877.38 4.89185 -1.14032 0
M  V30 9167 C 879.374 5.66246 -2.92649 0
M  V30 9168 C 877.061 5.6863 -2.23838 0
M  V30 9169 C 878.059 6.07069 -3.12979 0
M  V30 9170 O 877.747 6.84917 -4.20884 0
M  V30 9171 H 877.479 0.675086 -0.0351467 0
M  V30 9172 H 880.033 1.91275 -0.74853 0
M  V30 9173 H 878.263 3.71961 1.05745 0
M  V30 9174 H 879.952 3.99124 0.738595 0
M  V30 9175 H 880.718 4.54924 -1.68134 0
M  V30 9176 H 876.597 4.58742 -0.455717 0
M  V30 9177 H 880.141 5.96169 -3.62254 0
M  V30 9178 H 876.038 5.99688 -2.38839 0
M  V30 9179 H 876.806 7.03287 -4.18723 0
M  V30 9180 N 879.47 0.276058 1.55163 0
M  V30 9181 C 880.698 -0.343772 2.04024 0
M  V30 9182 C 881.113 -1.49397 1.15438 0
M  V30 9183 O 880.47 -1.81662 0.174692 0
M  V30 9184 C 880.521 -0.823885 3.51986 0
M  V30 9185 O 880.242 0.280507 4.37201 0
M  V30 9186 C 881.743 -1.51143 4.16738 0
M  V30 9187 H 878.963 -0.07828 0.666418 0
M  V30 9188 H 881.507 0.408427 2.0038 0
M  V30 9189 H 879.662 -1.52617 3.56071 0
M  V30 9190 H 880.076 -0.0887831 5.24425 0
M  V30 9191 H 881.55 -1.79878 5.2187 0
M  V30 9192 H 882.027 -2.44327 3.64967 0
M  V30 9193 H 882.633 -0.852975 4.16659 0
M  V30 9194 N 880.948 -1.576 0.00335426 0
M  V30 9195 C 881.911 -2.07576 -0.971838 0
M  V30 9196 C 882.911 -0.985796 -1.27038 0
M  V30 9197 O 884.101 -1.24833 -1.21501 0
M  V30 9198 C 881.233 -2.52003 -2.29581 0
M  V30 9199 H 882.426 -2.95008 -0.539481 0
M  V30 9200 H 879.979 -1.54381 -0.244186 0
M  V30 9201 H 880.714 -1.67825 -2.77498 0
M  V30 9202 H 880.499 -3.31609 -2.09231 0
M  V30 9203 H 881.989 -2.90983 -2.99531 0
M  V30 9204 N 882.426 0.269451 -1.5528 0
M  V30 9205 C 883.654 1.01872 -1.80082 0
M  V30 9206 C 884.069 1.79802 -0.575917 0
M  V30 9207 O 883.426 1.76735 0.455081 0
M  V30 9208 C 883.477 1.9745 -3.02813 0
M  V30 9209 O 883.198 1.22677 -4.20573 0
M  V30 9210 C 884.699 2.8416 -3.40247 0
M  V30 9211 H 881.919 0.300781 -0.59981 0
M  V30 9212 H 884.463 0.29916 -2.023 0
M  V30 9213 H 882.618 2.64864 -2.82712 0
M  V30 9214 H 883.032 1.87129 -4.89982 0
M  V30 9215 H 884.506 3.47014 -4.29284 0
M  V30 9216 H 884.983 3.54113 -2.59809 0
M  V30 9217 H 885.589 2.22232 -3.6262 0
M  V30 9218 N 883.904 1.48273 0.534124 0
M  V30 9219 C 884.852 1.62926 1.66005 0
M  V30 9220 C 885.846 0.495814 1.61982 0
M  V30 9221 O 887.052 0.6744 1.66889 0
M  V30 9222 H 883.427 0.513163 0.549698 0
M  V30 9223 H 885.398 2.57498 1.50789 0
M  V30 9224 C 884.147 1.68231 3.04292 0
M  V30 9225 H 883.47 2.54807 3.0808 0
M  V30 9226 H 884.91 1.82528 3.827 0
M  V30 9227 C 883.369 0.420154 3.3427 0
M  V30 9228 O 883.899 -0.468769 3.98955 0
M  V30 9229 N 882.105 0.293115 2.89118 0
M  V30 9230 H 881.652 1.01745 2.36655 0
M  V30 9231 H 881.61 -0.550376 3.09545 0
M  V30 9232 N 885.382 -0.782676 1.36792 0
M  V30 9233 C 886.314 -1.9044 1.27536 0
M  V30 9234 C 887.327 -1.61647 0.193426 0
M  V30 9235 O 888.516 -1.72769 0.448692 0
M  V30 9236 C 885.616 -3.2541 0.946641 0
M  V30 9237 C 884.789 -3.81932 2.13183 0
M  V30 9238 C 883.848 -4.95355 1.7751 0
M  V30 9239 O 882.874 -5.11517 2.49678 0
M  V30 9240 N 884.076 -5.76108 0.712755 0
M  V30 9241 H 886.841 -1.98899 2.24186 0
M  V30 9242 H 884.402 -0.96127 1.30274 0
M  V30 9243 H 886.394 -3.98791 0.689043 0
M  V30 9244 H 884.964 -3.12524 0.0690591 0
M  V30 9245 H 884.184 -3.00459 2.55183 0
M  V30 9246 H 885.472 -4.16426 2.92347 0
M  V30 9247 H 884.87 -5.65586 0.113662 0
M  V30 9248 H 883.427 -6.49762 0.514995 0
M  V30 9249 N 886.86 -1.21182 -1.00761 0
M  V30 9250 C 888.137 -0.936297 -1.71735 0
M  V30 9251 C 888.517 0.552585 -2.03739 0
M  V30 9252 O 887.865 1.51672 -1.70903 0
M  V30 9253 C 888.075 -1.81867 -2.97868 0
M  V30 9254 C 889.423 -2.06594 -3.7095 0
M  V30 9255 O 890.447 -1.79194 -3.07844 0
M  V30 9256 O 889.306 -2.5292 -4.84452 0
M  V30 9257 H 886.4 -0.350867 -0.74888 0
M  V30 9258 H 888.946 -1.32098 -1.06527 0
M  V30 9259 H 887.718 -2.82643 -2.70607 0
M  V30 9260 H 887.341 -1.43463 -3.70815 0
M  V30 9261 N 888.338 1.20213 -1.01915 0
M  V30 9262 C 889.585 1.89647 -0.709955 0
M  V30 9263 C 889.913 1.7901 0.760631 0
M  V30 9264 O 889.168 1.17028 1.56853 0
M  V30 9265 C 889.467 3.40232 -1.09438 0
M  V30 9266 C 889.133 3.7107 -2.5616 0
M  V30 9267 C 887.795 3.79196 -2.96249 0
M  V30 9268 C 890.147 3.85169 -3.51133 0
M  V30 9269 C 887.475 3.98882 -4.30244 0
M  V30 9270 C 889.827 4.06365 -4.8482 0
M  V30 9271 C 888.491 4.12722 -5.24611 0
M  V30 9272 H 887.761 0.693967 -0.259791 0
M  V30 9273 H 890.408 1.42419 -1.2802 0
M  V30 9274 H 888.713 3.89292 -0.442596 0
M  V30 9275 H 890.41 3.92257 -0.832811 0
M  V30 9276 H 887 3.65346 -2.24099 0
M  V30 9277 H 891.184 3.78243 -3.21319 0
M  V30 9278 H 886.44 4.02039 -4.60624 0
M  V30 9279 H 890.614 4.16216 -5.58334 0
M  V30 9280 H 888.241 4.27728 -6.28453 0
M  V30 9281 N 889.816 0.795718 1.36037 0
M  V30 9282 C 891.065 0.367575 1.98322 0
M  V30 9283 C 891.378 -1.06823 1.63854 0
M  V30 9284 O 892.584 -1.59895 2.19421 0
M  V30 9285 C 891.04 0.606272 3.54757 0
M  V30 9286 C 890.648 2.0539 3.98144 0
M  V30 9287 C 892.392 0.242947 4.23804 0
M  V30 9288 C 890.299 2.23893 5.47381 0
M  V30 9289 H 889.229 0.133699 0.742052 0
M  V30 9290 H 891.88 0.978242 1.5525 0
M  V30 9291 H 890.262 -0.0741957 3.9593 0
M  V30 9292 H 891.436 2.77129 3.68152 0
M  V30 9293 H 889.751 2.37607 3.41953 0
M  V30 9294 H 892.348 0.359382 5.33491 0
M  V30 9295 H 892.691 -0.809661 4.08351 0
M  V30 9296 H 893.224 0.876899 3.88015 0
M  V30 9297 H 889.963 3.27559 5.6779 0
M  V30 9298 H 889.483 1.56666 5.78978 0
M  V30 9299 H 891.162 2.04914 6.13693 0
M  V30 9300 N 891.294 -1.47756 0.548274 0
M  V30 9301 C 892.226 -2.27921 -0.24177 0
M  V30 9302 C 893.239 -1.36471 -0.887658 0
M  V30 9303 O 894.428 -1.6137 -0.763016 0
M  V30 9304 C 891.528 -3.10449 -1.35922 0
M  V30 9305 C 890.701 -4.298 -0.811808 0
M  V30 9306 C 889.76 -4.93994 -1.81264 0
M  V30 9307 O 888.786 -5.52657 -1.3623 0
M  V30 9308 N 889.988 -4.87882 -3.14566 0
M  V30 9309 H 892.753 -2.96365 0.445848 0
M  V30 9310 H 890.314 -1.57286 0.383769 0
M  V30 9311 H 892.306 -3.50261 -2.02729 0
M  V30 9312 H 890.876 -2.44306 -1.95021 0
M  V30 9313 H 890.096 -3.94186 0.0327929 0
M  V30 9314 H 891.384 -5.0702 -0.425272 0
M  V30 9315 H 890.782 -4.41405 -3.53805 0
M  V30 9316 H 889.339 -5.3174 -3.76956 0
M  V30 9317 N 892.772 -0.284283 -1.55015 0
M  V30 9318 C 894.188 0.069603 -1.59448 0
M  V30 9319 C 894.388 1.53833 -1.30144 0
M  V30 9320 O 893.444 2.2886 -1.06674 0
M  V30 9321 C 894.757 -0.313287 -2.99064 0
M  V30 9322 C 896.305 -0.260662 -3.11913 0
M  V30 9323 C 896.78 -0.618127 -4.5381 0
M  V30 9324 N 898.271 -0.570026 -4.59679 0
M  V30 9325 C 899.006 -0.8193 -5.67517 0
M  V30 9326 N 898.502 -1.13367 -6.83462 0
M  V30 9327 N 900.295 -0.747482 -5.57108 0
M  V30 9328 H 892.446 -1.24167 -1.72326 0
M  V30 9329 H 894.709 -0.502259 -0.804015 0
M  V30 9330 H 894.415 -1.33509 -3.25374 0
M  V30 9331 H 894.289 0.341369 -3.75652 0
M  V30 9332 H 896.676 0.751869 -2.85361 0
M  V30 9333 H 896.757 -0.949706 -2.37517 0
M  V30 9334 H 896.401 -1.62839 -4.81088 0
M  V30 9335 H 896.331 0.092807 -5.26518 0
M  V30 9336 H 898.822 -0.3373 -3.76392 0
M  V30 9337 H 899.135 -1.3103 -7.61611 0
M  V30 9338 H 897.48 -1.17154 -6.85055 0
M  V30 9339 H 900.671 -0.501658 -4.65404 0
M  V30 9340 H 900.844 -0.945128 -6.4107 0
M  V30 9341 N 894.251 1.57596 -0.0117121 0
M  V30 9342 C 895.181 2.12188 0.9746 0
M  V30 9343 C 896.162 1.03379 1.35081 0
M  V30 9344 O 897.347 1.31123 1.4325 0
M  V30 9345 C 894.477 2.63477 2.26268 0
M  V30 9346 C 893.431 3.76917 2.02774 0
M  V30 9347 C 892.757 4.14566 3.37697 0
M  V30 9348 C 894.057 5.03715 1.38089 0
M  V30 9349 H 895.751 2.9485 0.520007 0
M  V30 9350 H 893.297 1.41836 0.248685 0
M  V30 9351 H 895.25 3.00299 2.95633 0
M  V30 9352 H 893.974 1.77953 2.73862 0
M  V30 9353 H 892.633 3.40507 1.35832 0
M  V30 9354 H 892.281 3.26048 3.83016 0
M  V30 9355 H 891.981 4.91 3.22789 0
M  V30 9356 H 893.505 4.53956 4.08358 0
M  V30 9357 H 894.919 5.38233 1.97428 0
M  V30 9358 H 893.316 5.85032 1.33634 0
M  V30 9359 H 894.386 4.83624 0.351575 0
M  V30 9360 N 895.729 -0.261212 1.5542 0
M  V30 9361 C 896.954 -1.01341 1.80955 0
M  V30 9362 C 897.379 -1.78711 0.586849 0
M  V30 9363 O 896.737 -1.75266 -0.463837 0
M  V30 9364 C 896.785 -1.93835 3.04073 0
M  V30 9365 O 895.889 -3.02791 2.79985 0
M  V30 9366 H 895.23 -0.289123 0.597749 0
M  V30 9367 H 897.76 -0.286543 2.02584 0
M  V30 9368 H 897.77 -2.3557 3.33123 0
M  V30 9369 H 896.445 -1.36936 3.9271 0
M  V30 9370 H 895.022 -2.65287 2.62063 0
M  V30 9371 N 897.207 -1.48554 -0.526253 0
M  V30 9372 C 898.435 -1.60429 -1.30652 0
M  V30 9373 C 898.85 -0.265963 -1.86917 0
M  V30 9374 O 898.207 0.745262 -1.6659 0
M  V30 9375 C 898.258 -2.65377 -2.45473 0
M  V30 9376 O 897.979 -3.94017 -1.91527 0
M  V30 9377 C 899.48 -2.87726 -3.37237 0
M  V30 9378 H 896.7 -0.540817 -0.397187 0
M  V30 9379 H 899.244 -1.94409 -0.634461 0
M  V30 9380 H 897.399 -2.34246 -3.08557 0
M  V30 9381 H 897.813 -4.51623 -2.66715 0
M  V30 9382 H 899.287 -3.64951 -4.14144 0
M  V30 9383 H 899.764 -1.96688 -3.92696 0
M  V30 9384 H 900.37 -3.20176 -2.79942 0
M  V30 9385 N 898.685 0.775411 -1.37205 0
M  V30 9386 C 899.615 1.90258 -1.35367 0
M  V30 9387 C 900.596 1.68634 -0.222864 0
M  V30 9388 O 901.781 1.89545 -0.422659 0
M  V30 9389 C 898.911 3.27488 -1.15623 0
M  V30 9390 C 897.865 3.63668 -2.25676 0
M  V30 9391 C 897.191 4.994 -1.91059 0
M  V30 9392 C 898.491 3.70797 -3.67841 0
M  V30 9393 H 900.185 1.92053 -2.29687 0
M  V30 9394 H 897.731 0.922597 -1.10563 0
M  V30 9395 H 899.684 4.05976 -1.12968 0
M  V30 9396 H 898.408 3.26117 -0.177573 0
M  V30 9397 H 897.067 2.87486 -2.2748 0
M  V30 9398 H 896.715 4.94565 -0.917324 0
M  V30 9399 H 896.415 5.24576 -2.64751 0
M  V30 9400 H 897.939 5.80291 -1.89985 0
M  V30 9401 H 899.353 4.39444 -3.68187 0
M  V30 9402 H 897.75 4.07468 -4.40556 0
M  V30 9403 H 898.82 2.71549 -4.01732 0
M  V30 9404 N 900.163 1.21714 1.00117 0
M  V30 9405 C 901.412 1.03087 1.73367 0
M  V30 9406 C 901.725 -0.435532 1.90689 0
M  V30 9407 O 902.931 -0.741291 2.61184 0
M  V30 9408 C 901.387 1.79593 3.11888 0
M  V30 9409 C 900.995 3.30428 3.02525 0
M  V30 9410 C 902.739 1.69386 3.89241 0
M  V30 9411 C 900.646 3.99408 4.3615 0
M  V30 9412 H 899.576 0.382117 0.650002 0
M  V30 9413 H 902.227 1.45486 1.11831 0
M  V30 9414 H 900.609 1.29988 3.74058 0
M  V30 9415 H 901.783 3.87364 2.49571 0
M  V30 9416 H 900.098 3.4122 2.38659 0
M  V30 9417 H 902.695 2.18251 4.8813 0
M  V30 9418 H 903.038 0.652773 4.1115 0
M  V30 9419 H 903.571 2.16489 3.33733 0
M  V30 9420 H 900.31 5.03735 4.19442 0
M  V30 9421 H 899.83 3.47261 4.8905 0
M  V30 9422 H 901.509 4.04537 5.04934 0
M  V30 9423 N 901.641 -1.19671 1.02551 0
M  V30 9424 C 903.057 -1.41305 0.741963 0
M  V30 9425 C 903.257 -1.89865 -0.674807 0
M  V30 9426 O 902.313 -2.07323 -1.44129 0
M  V30 9427 C 903.626 -2.42706 1.77522 0
M  V30 9428 C 905.174 -2.56458 1.79438 0
M  V30 9429 C 905.649 -3.61111 2.81715 0
M  V30 9430 N 907.14 -3.68603 2.8051 0
M  V30 9431 C 907.875 -4.49262 3.56302 0
M  V30 9432 N 907.371 -5.33653 4.41799 0
M  V30 9433 N 909.164 -4.43879 3.44859 0
M  V30 9434 H 901.315 -0.8647 1.94002 0
M  V30 9435 H 903.578 -0.442206 0.838545 0
M  V30 9436 H 903.284 -2.14042 2.79068 0
M  V30 9437 H 903.158 -3.41831 1.59472 0
M  V30 9438 H 905.545 -2.84447 0.78573 0
M  V30 9439 H 905.626 -1.57499 2.01563 0
M  V30 9440 H 905.27 -3.33864 3.82749 0
M  V30 9441 H 905.2 -4.59713 2.56849 0
M  V30 9442 H 907.691 -3.08329 2.18498 0
M  V30 9443 H 908.004 -5.92308 4.96378 0
M  V30 9444 H 906.349 -5.33125 4.45873 0
M  V30 9445 H 909.54 -3.7699 2.77482 0
M  V30 9446 H 909.713 -5.06501 4.04179 0
M  V30 9447 N 903.119 -0.802921 -1.35613 0
M  V30 9448 C 904.051 -0.168461 -2.2858 0
M  V30 9449 C 905.064 0.630123 -1.50111 0
M  V30 9450 O 906.253 0.463086 -1.72388 0
M  V30 9451 C 903.353 0.783943 -3.29708 0
M  V30 9452 C 902.526 0.0325165 -4.37388 0
M  V30 9453 C 901.585 0.902859 -5.18396 0
M  V30 9454 O 900.611 0.355144 -5.68091 0
M  V30 9455 N 901.813 2.22542 -5.36149 0
M  V30 9456 H 904.578 -0.96709 -2.83668 0
M  V30 9457 H 902.139 -0.658043 -1.47924 0
M  V30 9458 H 904.131 1.37034 -3.80794 0
M  V30 9459 H 902.701 1.48339 -2.75162 0
M  V30 9460 H 901.921 -0.735057 -3.87286 0
M  V30 9461 H 903.209 -0.485499 -5.06478 0
M  V30 9462 H 902.607 2.69439 -4.97412 0
M  V30 9463 H 901.164 2.76113 -5.90428 0
M  V30 9464 N 904.597 1.47463 -0.556102 0
M  V30 9465 C 905.56 2.28478 0.181743 0
M  V30 9466 C 906.56 1.36886 0.843738 0
M  V30 9467 O 907.75 1.59527 0.69977 0
M  V30 9468 C 904.882 3.16534 1.26566 0
M  V30 9469 H 906.075 2.95182 -0.529892 0
M  V30 9470 H 903.628 1.53134 -0.313005 0
M  V30 9471 H 904.363 2.5452 2.00973 0
M  V30 9472 H 904.148 3.83939 0.795798 0
M  V30 9473 H 905.638 3.77579 1.78393 0
M  V30 9474 N 906.075 0.2925 1.54862 0
M  V30 9475 C 907.324 -0.319994 1.99146 0
M  V30 9476 C 907.637 -1.55658 1.18448 0
M  V30 9477 O 908.843 -2.24312 1.52959 0
M  V30 9478 C 907.299 -0.620665 3.54508 0
M  V30 9479 C 906.907 0.597098 4.44003 0
M  V30 9480 C 908.651 -1.19482 4.07338 0
M  V30 9481 C 906.558 0.270049 5.90783 0
M  V30 9482 H 905.488 -0.123342 0.743843 0
M  V30 9483 H 908.139 0.399876 1.7909 0
M  V30 9484 H 906.521 -1.3999 3.7043 0
M  V30 9485 H 907.695 1.37354 4.39853 0
M  V30 9486 H 906.01 1.0893 4.019 0
M  V30 9487 H 908.607 -1.45362 5.14562 0
M  V30 9488 H 908.95 -2.13435 3.57423 0
M  V30 9489 H 909.483 -0.477485 3.94924 0
M  V30 9490 H 906.222 1.17791 6.4483 0
M  V30 9491 H 905.742 -0.469292 5.97961 0
M  V30 9492 H 907.421 -0.131471 6.46866 0
M  V30 9493 N 907.553 -1.57587 0.0200696 0
M  V30 9494 C 908.463 -2.13119 -0.980676 0
M  V30 9495 C 909.479 -1.08124 -1.36328 0
M  V30 9496 O 910.655 -1.40134 -1.44653 0
M  V30 9497 C 907.72 -2.63991 -2.24743 0
M  V30 9498 C 906.781 -3.83667 -1.9261 0
M  V30 9499 C 906.014 -4.32103 -3.13246 0
M  V30 9500 O 906.237 -3.79758 -4.25606 0
M  V30 9501 O 905.171 -5.24047 -2.96072 0
M  V30 9502 H 908.997 -2.98887 -0.538528 0
M  V30 9503 H 906.582 -1.48055 -0.19999 0
M  V30 9504 H 908.464 -2.9682 -2.99125 0
M  V30 9505 H 907.139 -1.81311 -2.68157 0
M  V30 9506 H 906.046 -3.55778 -1.15641 0
M  V30 9507 H 907.379 -4.67482 -1.54019 0
M  V30 9508 N 909.032 0.252966 -1.55557 0
M  V30 9509 C 910.448 0.60118 -1.47844 0
M  V30 9510 C 910.648 1.88612 -0.709055 0
M  V30 9511 O 909.704 2.51395 -0.235964 0
M  V30 9512 C 911.017 0.709539 -2.92209 0
M  V30 9513 C 912.565 0.802269 -3.02544 0
M  V30 9514 C 913.04 0.94224 -4.48203 0
M  V30 9515 N 914.531 1.00726 -4.52116 0
M  V30 9516 C 915.266 1.13472 -5.6206 0
M  V30 9517 N 914.762 1.22811 -6.81828 0
M  V30 9518 N 916.555 1.1674 -5.49844 0
M  V30 9519 H 908.706 -0.590635 -2.04023 0
M  V30 9520 H 910.969 -0.202986 -0.926013 0
M  V30 9521 H 910.675 -0.164505 -3.51315 0
M  V30 9522 H 910.549 1.58343 -3.42356 0
M  V30 9523 H 912.936 1.66677 -2.43522 0
M  V30 9524 H 913.017 -0.0966469 -2.55617 0
M  V30 9525 H 912.661 0.0823209 -5.07833 0
M  V30 9526 H 912.591 1.85611 -4.92805 0
M  V30 9527 H 915.082 0.946684 -3.6585 0
M  V30 9528 H 915.395 1.32426 -7.61369 0
M  V30 9529 H 913.74 1.19779 -6.84601 0
M  V30 9530 H 916.931 1.09089 -4.55211 0
M  V30 9531 H 917.104 1.26329 -6.35567 0
M  V30 9532 N 910.51 1.48831 0.518367 0
M  V30 9533 C 911.442 1.60317 1.63802 0
M  V30 9534 C 912.455 0.486771 1.55352 0
M  V30 9535 O 913.644 0.758111 1.61601 0
M  V30 9536 C 910.744 1.52771 3.02513 0
M  V30 9537 C 909.917 2.79649 3.36326 0
M  V30 9538 C 908.976 2.65396 4.54369 0
M  V30 9539 O 908.002 3.39304 4.57013 0
M  V30 9540 N 909.204 1.75784 5.53245 0
M  V30 9541 H 911.969 2.56878 1.54383 0
M  V30 9542 H 909.53 1.45701 0.705889 0
M  V30 9543 H 911.522 1.40914 3.79375 0
M  V30 9544 H 910.092 0.641381 3.05949 0
M  V30 9545 H 909.312 3.05985 2.48529 0
M  V30 9546 H 910.6 3.63799 3.55707 0
M  V30 9547 H 909.998 1.14961 5.53896 0
M  V30 9548 H 908.555 1.69859 6.29278 0
M  V30 9549 N 911.988 -0.768124 1.37614 0
M  V30 9550 C 912.918 -1.89537 1.36374 0
M  V30 9551 C 913.899 -1.68513 0.231803 0
M  V30 9552 O 915.084 -1.89318 0.432705 0
M  V30 9553 C 912.214 -3.26871 1.17358 0
M  V30 9554 C 911.168 -3.62466 2.27602 0
M  V30 9555 C 910.494 -4.9838 1.93705 0
M  V30 9556 C 911.794 -3.68841 3.69802 0
M  V30 9557 H 913.488 -1.90832 2.30702 0
M  V30 9558 H 911.034 -0.91672 1.11051 0
M  V30 9559 H 912.987 -4.05371 1.15119 0
M  V30 9560 H 911.711 -3.26018 0.194865 0
M  V30 9561 H 910.37 -2.86276 2.29002 0
M  V30 9562 H 910.018 -4.94071 0.943539 0
M  V30 9563 H 909.718 -5.23165 2.6753 0
M  V30 9564 H 911.242 -5.79276 1.93059 0
M  V30 9565 H 912.656 -4.37485 3.70513 0
M  V30 9566 H 911.053 -4.05126 4.42711 0
M  V30 9567 H 912.123 -2.69415 4.03167 0
M  V30 9568 N 913.466 -1.22244 -0.994698 0
M  V30 9569 C 914.877 -1.043 -1.5485 0
M  V30 9570 C 915.228 0.394102 -1.92201 0
M  V30 9571 O 914.353 1.27883 -1.74571 0
M  V30 9572 C 914.948 -1.88708 -2.8138 0
M  V30 9573 C 913.507 -1.75067 -3.3321 0
M  V30 9574 C 912.654 -1.85286 -2.06312 0
M  V30 9575 H 915.605 -1.36115 -0.815988 0
M  V30 9576 H 915.626 -1.40342 -3.53673 0
M  V30 9577 H 915.138 -2.93296 -2.54164 0
M  V30 9578 H 913.239 -0.732047 -3.65338 0
M  V30 9579 H 913.352 -2.57632 -4.03934 0
M  V30 9580 H 911.716 -1.28706 -2.19788 0
M  V30 9581 H 912.499 -2.91401 -1.81494 0
M  V30 9582 N 914.944 1.19125 -1.03184 0
M  V30 9583 C 915.907 2.20662 -0.619766 0
M  V30 9584 C 916.907 1.57621 0.318179 0
M  V30 9585 O 918.097 1.73885 0.104783 0
M  V30 9586 C 915.229 3.40774 0.0926696 0
M  V30 9587 H 916.422 2.58633 -1.5182 0
M  V30 9588 H 913.975 1.32855 -0.823364 0
M  V30 9589 H 914.71 3.08324 1.00531 0
M  V30 9590 H 914.495 3.87766 -0.581344 0
M  V30 9591 H 915.985 4.15977 0.367792 0
M  V30 9592 N 916.422 0.810101 1.35185 0
M  V30 9593 C 917.668 0.401839 1.99391 0
M  V30 9594 C 918.023 -1.02059 1.63101 0
M  V30 9595 O 917.316 -1.69889 0.8859 0
M  V30 9596 C 917.51 0.526561 3.535 0
M  V30 9597 C 917.339 1.95956 4.04761 0
M  V30 9598 C 916.109 2.58869 4.33953 0
M  V30 9599 C 918.307 2.92459 4.23051 0
M  V30 9600 N 916.289 3.93542 4.71166 0
M  V30 9601 C 917.66 4.12011 4.633 0
M  V30 9602 C 919.715 2.89244 4.05268 0
M  V30 9603 C 918.418 5.28784 4.87627 0
M  V30 9604 C 920.444 4.05223 4.30753 0
M  V30 9605 C 919.806 5.23524 4.71277 0
M  V30 9606 H 915.905 0.194886 0.757327 0
M  V30 9607 H 918.489 1.05209 1.63827 0
M  V30 9608 H 916.66 -0.0937151 3.88287 0
M  V30 9609 H 918.392 0.0925434 4.04594 0
M  V30 9610 H 915.147 2.10198 4.24398 0
M  V30 9611 H 915.571 4.62889 4.94027 0
M  V30 9612 H 920.213 1.98932 3.73076 0
M  V30 9613 H 917.931 6.19666 5.18691 0
M  V30 9614 H 921.517 4.04121 4.18542 0
M  V30 9615 H 920.397 6.11776 4.90612 0
M  V30 9616 N 917.9 -1.47166 0.563914 0
M  V30 9617 C 919.149 -2.0166 0.0401871 0
M  V30 9618 C 919.462 -1.44303 -1.32046 0
M  V30 9619 O 920.668 -1.905 -1.93448 0
M  V30 9620 C 919.124 -3.59894 0.0213257 0
M  V30 9621 C 918.732 -4.26244 1.37914 0
M  V30 9622 C 920.476 -4.22114 -0.449442 0
M  V30 9623 C 918.383 -5.76503 1.31902 0
M  V30 9624 H 917.313 -0.753916 0.0112534 0
M  V30 9625 H 919.964 -1.69091 0.712766 0
M  V30 9626 H 918.346 -3.89454 -0.717038 0
M  V30 9627 H 919.52 -4.08317 2.13574 0
M  V30 9628 H 917.835 -3.76039 1.78839 0
M  V30 9629 H 920.432 -5.32234 -0.51292 0
M  V30 9630 H 920.775 -3.89749 -1.46291 0
M  V30 9631 H 921.308 -3.9711 0.23427 0
M  V30 9632 H 918.047 -6.13498 2.3087 0
M  V30 9633 H 917.567 -5.96748 0.604324 0
M  V30 9634 H 919.246 -6.38846 1.02392 0
M  V30 9635 N 919.378 -0.300708 -1.54705 0
M  V30 9636 C 920.288 0.584996 -2.27189 0
M  V30 9637 C 921.304 1.14866 -1.30697 0
M  V30 9638 O 922.48 1.17351 -1.63679 0
M  V30 9639 C 919.545 1.74076 -2.99831 0
M  V30 9640 C 918.606 1.2112 -4.1186 0
M  V30 9641 C 917.839 2.31188 -4.81028 0
M  V30 9642 O 918.062 3.5108 -4.49554 0
M  V30 9643 O 916.996 1.97897 -5.68437 0
M  V30 9644 H 920.822 -0.00298177 -3.037 0
M  V30 9645 H 918.407 -0.0671802 -1.49249 0
M  V30 9646 H 920.289 2.41413 -3.45395 0
M  V30 9647 H 918.964 2.31535 -2.26215 0
M  V30 9648 H 917.871 0.50357 -3.70695 0
M  V30 9649 H 919.204 0.682046 -4.87452 0
M  V30 9650 N 920.856 1.57574 -0.0284266 0
M  V30 9651 C 921.819 2.09096 0.938691 0
M  V30 9652 C 922.819 1.00588 1.25454 0
M  V30 9653 O 924.009 1.2675 1.19499 0
M  V30 9654 C 921.141 2.55624 2.25542 0
M  V30 9655 H 922.334 2.95829 0.49248 0
M  V30 9656 H 919.887 1.5475 0.219594 0
M  V30 9657 H 920.622 1.72218 2.74793 0
M  V30 9658 H 920.407 3.34896 2.03929 0
M  V30 9659 H 921.897 2.95712 2.94863 0
M  V30 9660 N 922.334 -0.244713 1.55689 0
M  V30 9661 C 923.297 -1.2864 1.89695 0
M  V30 9662 C 924.297 -1.40969 0.773583 0
M  V30 9663 O 925.487 -1.39632 1.04156 0
M  V30 9664 C 922.619 -2.66379 2.12732 0
M  V30 9665 H 923.812 -0.997033 2.82841 0
M  V30 9666 H 921.365 -0.484103 1.48614 0
M  V30 9667 H 922.1 -3.00452 1.22062 0
M  V30 9668 H 921.885 -2.58812 2.94549 0
M  V30 9669 H 923.375 -3.41592 2.40218 0
M  V30 9670 N 923.813 -1.49104 -0.510467 0
M  V30 9671 C 924.761 -1.65547 -1.63392 0
M  V30 9672 C 925.755 -0.521522 -1.61172 0
M  V30 9673 O 926.961 -0.700865 -1.65795 0
M  V30 9674 H 923.336 -0.521843 -0.541464 0
M  V30 9675 H 925.307 -2.59864 -1.46673 0
M  V30 9676 C 924.056 -1.73051 -3.01577 0
M  V30 9677 H 923.379 -2.59676 -3.03987 0
M  V30 9678 H 924.819 -1.88594 -3.79748 0
M  V30 9679 C 923.278 -0.47328 -3.33559 0
M  V30 9680 O 923.808 0.405239 -3.99651 0
M  V30 9681 N 922.014 -0.339074 -2.88615 0
M  V30 9682 H 921.561 -1.05497 -2.35007 0
M  V30 9683 H 921.519 0.501061 -3.10382 0
M  V30 9684 N 925.291 0.760815 -1.38019 0
M  V30 9685 C 926.223 1.88387 -1.30549 0
M  V30 9686 C 927.236 1.61319 -0.219119 0
M  V30 9687 O 928.425 1.72033 -0.476122 0
M  V30 9688 C 925.525 3.23863 -0.998291 0
M  V30 9689 C 924.698 3.78492 -2.19232 0
M  V30 9690 C 923.757 4.92468 -1.85368 0
M  V30 9691 O 922.783 5.0748 -2.57785 0
M  V30 9692 N 923.985 5.74901 -0.804319 0
M  V30 9693 H 926.75 1.95308 -2.27322 0
M  V30 9694 H 924.311 0.940423 -1.31786 0
M  V30 9695 H 926.303 3.97644 -0.7524 0
M  V30 9696 H 924.873 3.12374 -0.11877 0
M  V30 9697 H 924.093 2.96361 -2.5993 0
M  V30 9698 H 925.381 4.11722 -2.98935 0
M  V30 9699 H 924.779 5.65333 -0.203628 0
M  V30 9700 H 923.336 6.48861 -0.618301 0
M  V30 9701 N 926.769 1.22769 0.988202 0
M  V30 9702 C 928.185 0.988665 1.2529 0
M  V30 9703 C 928.385 -0.314938 1.99024 0
M  V30 9704 O 927.441 -1.03637 2.30251 0
M  V30 9705 C 928.754 2.19046 2.06009 0
M  V30 9706 C 930.302 2.23452 2.19176 0
M  V30 9707 C 930.777 3.43196 3.03283 0
M  V30 9708 N 932.268 3.43387 3.10869 0
M  V30 9709 C 933.003 4.32693 3.7625 0
M  V30 9710 N 932.499 5.32224 4.43519 0
M  V30 9711 N 934.292 4.20457 3.73058 0
M  V30 9712 H 926.443 2.06575 0.494014 0
M  V30 9713 H 928.706 0.905452 0.28082 0
M  V30 9714 H 928.412 3.13607 1.59197 0
M  V30 9715 H 928.286 2.19492 3.06763 0
M  V30 9716 H 930.673 1.29436 2.65199 0
M  V30 9717 H 930.754 2.27042 1.17836 0
M  V30 9718 H 930.398 4.37515 2.57959 0
M  V30 9719 H 930.328 3.36847 4.04774 0
M  V30 9720 H 932.819 2.71368 2.62998 0
M  V30 9721 H 933.132 5.9664 4.91163 0
M  V30 9722 H 931.477 5.36133 4.42252 0
M  V30 9723 H 934.668 3.41949 3.19669 0
M  V30 9724 H 934.841 4.90261 4.23731 0
M  V30 9725 N 928.247 -1.18576 1.03814 0
M  V30 9726 C 929.157 -2.25778 0.637311 0
M  V30 9727 C 930.173 -1.7074 -0.335248 0
M  V30 9728 O 931.349 -2.00494 -0.19081 0
M  V30 9729 C 928.414 -3.467 0.00386953 0
M  V30 9730 C 927.475 -4.16881 1.02511 0
M  V30 9731 C 926.708 -5.32031 0.421802 0
M  V30 9732 O 926.931 -5.65142 -0.772699 0
M  V30 9733 O 925.865 -5.90826 1.14925 0
M  V30 9734 H 929.691 -2.62323 1.53037 0
M  V30 9735 H 927.276 -1.25609 0.80887 0
M  V30 9736 H 929.158 -4.19953 -0.348873 0
M  V30 9737 H 927.833 -3.11983 -0.863047 0
M  V30 9738 H 926.74 -3.45707 1.4296 0
M  V30 9739 H 928.073 -4.55592 1.86271 0
M  V30 9740 N 929.725 -0.817259 -1.34754 0
M  V30 9741 C 930.635 -0.236946 -2.334 0
M  V30 9742 C 931.651 0.625685 -1.62361 0
M  V30 9743 O 932.827 0.534921 -1.94166 0
M  V30 9744 C 929.892 0.596215 -3.41535 0
M  V30 9745 C 928.953 -0.288154 -4.28332 0
M  V30 9746 C 928.186 0.505337 -5.31302 0
M  V30 9747 O 928.409 1.73912 -5.43241 0
M  V30 9748 O 927.343 -0.109374 -6.01801 0
M  V30 9749 H 931.169 -1.05327 -2.84851 0
M  V30 9750 H 928.754 -0.579275 -1.37713 0
M  V30 9751 H 930.636 1.07041 -4.07578 0
M  V30 9752 H 929.311 1.38997 -2.92338 0
M  V30 9753 H 928.218 -0.809724 -3.65232 0
M  V30 9754 H 929.551 -1.04612 -4.80955 0
M  V30 9755 N 931.203 1.46865 -0.571711 0
M  V30 9756 C 932.451 2.0203 -0.0530022 0
M  V30 9757 C 932.772 1.44687 1.30731 0
M  V30 9758 O 932.042 0.627429 1.85581 0
M  V30 9759 H 930.622 0.746815 -0.0166035 0
M  V30 9760 H 933.284 1.80099 -0.745003 0
M  V30 9761 H 932.38 3.12091 0.0242538 0
M  V30 9762 N 932.681 0.308908 1.54543 0
M  V30 9763 C 933.613 -0.597453 2.21276 0
M  V30 9764 C 934.626 -1.09137 1.20801 0
M  V30 9765 O 935.815 -1.00747 1.47351 0
M  V30 9766 C 932.915 -1.83085 2.85189 0
M  V30 9767 C 932.088 -1.4781 4.11669 0
M  V30 9768 C 931.147 -2.56748 4.59311 0
M  V30 9769 O 930.173 -2.21507 5.24331 0
M  V30 9770 N 931.375 -3.87427 4.32297 0
M  V30 9771 H 934.14 -0.0261183 2.99689 0
M  V30 9772 H 931.701 0.131456 1.61365 0
M  V30 9773 H 933.693 -2.55326 3.13992 0
M  V30 9774 H 932.263 -2.31039 2.1057 0
M  V30 9775 H 931.483 -0.587974 3.8979 0
M  V30 9776 H 932.771 -1.2179 4.94009 0
M  V30 9777 H 932.169 -4.18863 3.80224 0
M  V30 9778 H 930.726 -4.55942 4.6579 0
M  V30 9779 N 934.159 -1.57557 0.0367827 0
M  V30 9780 C 935.407 -1.91735 -0.63892 0
M  V30 9781 C 935.728 -0.914515 -1.72226 0
M  V30 9782 O 934.998 0.0428248 -1.95853 0
M  V30 9783 H 933.578 -0.707738 -0.23899 0
M  V30 9784 H 936.24 -1.94708 0.0863931 0
M  V30 9785 H 935.336 -2.92568 -1.08676 0
M  V30 9786 N 935.637 0.236453 -1.55816 0
M  V30 9787 C 936.547 1.31418 -1.94336 0
M  V30 9788 C 937.563 1.52095 -0.845164 0
M  V30 9789 O 938.739 1.65515 -1.14746 0
M  V30 9790 C 935.804 2.6468 -2.23932 0
M  V30 9791 C 934.865 2.52435 -3.47239 0
M  V30 9792 C 934.098 3.79342 -3.75414 0
M  V30 9793 O 934.321 4.81694 -3.05495 0
M  V30 9794 O 933.255 3.77347 -4.68927 0
M  V30 9795 H 937.081 1.01739 -2.86152 0
M  V30 9796 H 934.666 0.438084 -1.42833 0
M  V30 9797 H 936.548 3.4341 -2.44228 0
M  V30 9798 H 935.223 2.94071 -1.35292 0
M  V30 9799 H 934.13 1.71955 -3.32238 0
M  V30 9800 H 935.463 2.27987 -4.36214 0
M  V30 9801 N 937.115 1.49373 0.502552 0
M  V30 9802 C 938.047 1.62045 1.62093 0
M  V30 9803 C 939.06 0.503221 1.54827 0
M  V30 9804 O 940.249 0.775208 1.60788 0
M  V30 9805 C 937.349 1.55971 3.00876 0
M  V30 9806 C 936.522 2.832 3.33341 0
M  V30 9807 C 935.581 2.702 4.51529 0
M  V30 9808 O 934.607 3.44132 4.53389 0
M  V30 9809 N 935.809 1.81642 5.5135 0
M  V30 9810 H 938.574 2.58501 1.51649 0
M  V30 9811 H 936.135 1.46442 0.690396 0
M  V30 9812 H 938.127 1.4493 3.77859 0
M  V30 9813 H 936.697 0.673795 3.05252 0
M  V30 9814 H 935.917 3.08604 2.4527 0
M  V30 9815 H 937.205 3.67551 3.51829 0
M  V30 9816 H 936.603 1.20829 5.52645 0
M  V30 9817 H 935.16 1.76524 6.27441 0
M  V30 9818 N 938.594 -0.753485 1.38421 0
M  V30 9819 C 939.842 -1.50962 1.34368 0
M  V30 9820 C 940.163 -1.94889 -0.0656895 0
M  V30 9821 O 939.433 -1.67652 -1.01339 0
M  V30 9822 H 938.013 -0.559967 0.494415 0
M  V30 9823 H 940.675 -0.895665 1.73101 0
M  V30 9824 H 939.771 -2.40048 1.99458 0
M  V30 9825 N 940.072 -1.23292 -0.981677 0
M  V30 9826 C 940.982 -1.02964 -2.10798 0
M  V30 9827 C 941.998 0.0254674 -1.73981 0
M  V30 9828 O 943.174 -0.169706 -2.00684 0
M  V30 9829 C 940.239 -0.621934 -3.41076 0
M  V30 9830 C 939.3 -1.75194 -3.91926 0
M  V30 9831 C 938.533 -1.36359 -5.15986 0
M  V30 9832 O 938.756 -0.247265 -5.69864 0
M  V30 9833 O 937.69 -2.18421 -5.60871 0
M  V30 9834 H 941.516 -1.97354 -2.30836 0
M  V30 9835 H 939.101 -1.01986 -1.09175 0
M  V30 9836 H 940.983 -0.405446 -4.19445 0
M  V30 9837 H 939.658 0.29299 -3.22371 0
M  V30 9838 H 938.565 -2.02305 -3.1468 0
M  V30 9839 H 939.898 -2.64513 -4.15083 0
M  V30 9840 N 941.55 1.18024 -1.04442 0
M  V30 9841 C 942.46 2.25436 -0.649276 0
M  V30 9842 C 943.476 1.70915 0.326189 0
M  V30 9843 O 944.652 2.00592 0.180174 0
M  V30 9844 C 941.717 3.46693 -0.0222558 0
M  V30 9845 C 940.778 4.16332 -1.0472 0
M  V30 9846 C 940.011 5.31799 -0.450011 0
M  V30 9847 O 940.234 5.65544 0.742717 0
M  V30 9848 O 939.168 5.90209 -1.18056 0
M  V30 9849 H 942.994 2.61508 -1.54426 0
M  V30 9850 H 940.579 1.25178 -0.81552 0
M  V30 9851 H 942.461 4.20132 0.326597 0
M  V30 9852 H 941.136 3.12436 0.84649 0
M  V30 9853 H 940.043 3.44944 -1.44792 0
M  V30 9854 H 941.376 4.54598 -1.88684 0
M  V30 9855 N 943.028 0.824394 1.34319 0
M  V30 9856 C 943.938 0.24932 2.33271 0
M  V30 9857 C 944.954 -0.617066 1.62691 0
M  V30 9858 O 946.13 -0.524616 1.94447 0
M  V30 9859 C 943.195 -0.578094 3.41846 0
M  V30 9860 C 942.256 0.310866 4.28173 0
M  V30 9861 C 941.489 -0.477153 5.31563 0
M  V30 9862 O 941.712 -1.71028 5.44156 0
M  V30 9863 O 940.646 0.141287 6.01734 0
M  V30 9864 H 944.472 1.06837 2.84288 0
M  V30 9865 H 942.057 0.58657 1.37403 0
M  V30 9866 H 943.939 -1.04878 4.0814 0
M  V30 9867 H 942.614 -1.37444 2.93071 0
M  V30 9868 H 941.521 0.829081 3.64797 0
M  V30 9869 H 942.854 1.07161 4.80393 0
M  V30 9870 N 944.506 -1.46559 0.579492 0
M  V30 9871 C 945.783 -1.956 -0.00287136 0
M  V30 9872 C 946.163 -1.52215 -1.46266 0
M  V30 9873 O 945.511 -0.771335 -2.15088 0
M  V30 9874 C 945.721 -3.48606 0.165824 0
M  V30 9875 C 947.069 -4.24588 0.0319807 0
M  V30 9876 O 948.093 -3.56075 0.094496 0
M  V30 9877 O 946.952 -5.46396 -0.106386 0
M  V30 9878 H 944.046 -0.825387 -0.0516274 0
M  V30 9879 H 946.592 -1.56858 0.647584 0
M  V30 9880 H 945.364 -3.7306 1.18076 0
M  V30 9881 H 944.987 -3.94169 -0.521212 0
M  V30 9882 N 945.984 -0.3171 -1.54377 0
M  V30 9883 C 946.894 0.560867 -2.27797 0
M  V30 9884 C 947.91 1.13473 -1.31908 0
M  V30 9885 O 949.086 1.15608 -1.64914 0
M  V30 9886 C 946.151 1.70886 -3.0166 0
M  V30 9887 C 945.212 1.16745 -4.13121 0
M  V30 9888 C 944.445 2.26073 -4.83453 0
M  V30 9889 O 944.668 3.46292 -4.53252 0
M  V30 9890 O 943.602 1.91856 -5.70504 0
M  V30 9891 H 947.428 -0.035193 -3.0368 0
M  V30 9892 H 945.013 -0.0830062 -1.49169 0
M  V30 9893 H 946.895 2.37736 -3.47936 0
M  V30 9894 H 945.57 2.29122 -2.28658 0
M  V30 9895 H 944.477 0.464224 -3.71209 0
M  V30 9896 H 945.81 0.630307 -4.88147 0
M  V30 9897 N 947.462 1.57535 -0.0451378 0
M  V30 9898 C 948.372 2.14653 0.946646 0
M  V30 9899 C 949.388 1.10279 1.3459 0
M  V30 9900 O 950.564 1.42417 1.42405 0
M  V30 9901 C 947.629 2.67533 2.20515 0
M  V30 9902 C 946.69 3.86682 1.86481 0
M  V30 9903 C 945.923 4.37031 3.06332 0
M  V30 9904 O 946.146 3.86481 4.1951 0
M  V30 9905 O 945.08 5.28691 2.87697 0
M  V30 9906 H 948.906 2.99706 0.49091 0
M  V30 9907 H 946.491 1.48355 0.17641 0
M  V30 9908 H 948.373 3.01542 2.94365 0
M  V30 9909 H 947.048 1.85554 2.65238 0
M  V30 9910 H 945.955 3.57573 1.09966 0
M  V30 9911 H 947.288 4.69873 1.46562 0
M  V30 9912 N 948.94 -0.228186 1.55939 0
M  V30 9913 C 949.85 -1.30386 1.9503 0
M  V30 9914 C 950.866 -1.51645 0.853218 0
M  V30 9915 O 952.042 -1.64904 1.15623 0
M  V30 9916 C 949.107 -2.63489 2.25332 0
M  V30 9917 C 948.168 -2.5059 3.48573 0
M  V30 9918 C 947.401 -3.77345 3.7742 0
M  V30 9919 O 947.624 -4.80067 3.08045 0
M  V30 9920 O 946.558 -3.74855 4.70922 0
M  V30 9921 H 950.384 -1.0022 2.86687 0
M  V30 9922 H 947.969 -0.430503 1.43063 0
M  V30 9923 H 949.851 -3.4211 2.46046 0
M  V30 9924 H 948.526 -2.93349 1.3685 0
M  V30 9925 H 947.433 -1.70191 3.33145 0
M  V30 9926 H 948.766 -2.2567 4.37417 0
M  V30 9927 N 950.418 -1.49637 -0.494624 0
M  V30 9928 C 951.328 -1.69522 -1.62172 0
M  V30 9929 C 952.344 -0.577894 -1.64123 0
M  V30 9930 O 953.52 -0.853382 -1.82426 0
M  V30 9931 C 950.585 -1.7633 -2.9851 0
M  V30 9932 C 949.646 -2.99944 -3.07135 0
M  V30 9933 C 948.879 -3.06419 -4.36971 0
M  V30 9934 O 949.102 -2.20312 -5.26136 0
M  V30 9935 O 948.036 -3.9894 -4.507 0
M  V30 9936 H 951.862 -2.65017 -1.48324 0
M  V30 9937 H 949.447 -1.33454 -0.671603 0
M  V30 9938 H 951.329 -1.83125 -3.7953 0
M  V30 9939 H 950.004 -0.840155 -3.12607 0
M  V30 9940 H 948.911 -2.98664 -2.2528 0
M  V30 9941 H 950.244 -3.9176 -2.97968 0
M  V30 9942 N 951.896 0.746133 -1.38819 0
M  V30 9943 C 952.806 1.89063 -1.38897 0
M  V30 9944 C 953.822 1.71648 -0.28513 0
M  V30 9945 O 954.998 1.94443 -0.524783 0
M  V30 9946 C 952.063 3.24523 -1.22007 0
M  V30 9947 C 951.124 3.54411 -2.42263 0
M  V30 9948 C 950.357 4.83408 -2.26169 0
M  V30 9949 O 950.58 5.56325 -1.25931 0
M  V30 9950 O 949.514 5.12943 -3.14918 0
M  V30 9951 H 953.34 1.91951 -2.35347 0
M  V30 9952 H 950.925 0.892433 -1.19816 0
M  V30 9953 H 952.807 4.05496 -1.14677 0
M  V30 9954 H 951.482 3.2243 -0.286455 0
M  V30 9955 H 950.389 2.73569 -2.55168 0
M  V30 9956 H 951.722 3.61273 -3.3428 0
M  V30 9957 N 953.375 1.23811 0.975125 0
M  V30 9958 C 954.285 1.0408 2.10249 0
M  V30 9959 C 955.301 -0.0162404 1.73992 0
M  V30 9960 O 956.477 0.180346 2.00591 0
M  V30 9961 C 953.542 0.640013 3.40741 0
M  V30 9962 C 952.603 1.7727 3.90991 0
M  V30 9963 C 951.836 1.39094 5.15256 0
M  V30 9964 O 952.059 0.277483 5.69725 0
M  V30 9965 O 950.993 2.21392 5.59704 0
M  V30 9966 H 954.819 1.98575 2.29786 0
M  V30 9967 H 952.404 1.02563 1.08633 0
M  V30 9968 H 954.286 0.427684 4.19224 0
M  V30 9969 H 952.961 -0.27589 3.22522 0
M  V30 9970 H 951.868 2.03971 3.13602 0
M  V30 9971 H 953.201 2.66711 4.13674 0
M  V30 9972 N 954.853 -1.17469 1.05066 0
M  V30 9973 C 955.763 -2.25089 0.661222 0
M  V30 9974 C 956.779 -1.71086 -0.31712 0
M  V30 9975 O 957.955 -2.00685 -0.169534 0
M  V30 9976 C 955.02 -3.46676 0.0406415 0
M  V30 9977 C 954.081 -4.15771 1.06927 0
M  V30 9978 C 953.314 -5.31553 0.478208 0
M  V30 9979 O 953.537 -5.6593 -0.712714 0
M  V30 9980 O 952.471 -5.89574 1.21185 0
M  V30 9981 H 956.297 -2.60685 1.5581 0
M  V30 9982 H 953.882 -1.24744 0.822147 0
M  V30 9983 H 955.764 -4.203 -0.304312 0
M  V30 9984 H 954.439 -3.1288 -0.829909 0
M  V30 9985 H 953.346 -3.44171 1.46619 0
M  V30 9986 H 954.679 -4.53591 1.91092 0
M  V30 9987 N 956.331 -0.831506 -1.3388 0
M  V30 9988 C 957.608 -0.345907 -1.92517 0
M  V30 9989 C 957.988 1.16784 -1.75854 0
M  V30 9990 O 957.336 1.97889 -1.14245 0
M  V30 9991 C 957.546 -0.784692 -3.40064 0
M  V30 9992 C 958.894 -0.78846 -4.17215 0
M  V30 9993 O 959.918 -0.727823 -3.48685 0
M  V30 9994 O 958.777 -0.869481 -5.39539 0
M  V30 9995 H 955.871 -0.0963568 -0.821367 0
M  V30 9996 H 958.417 -0.916868 -1.42799 0
M  V30 9997 H 957.189 -1.82697 -3.46031 0
M  V30 9998 H 956.812 -0.189897 -3.97146 0
M  V30 9999 N 957.809 1.4625 -0.587256 0
M  V30 10000 C 959.055 2.02662 -0.0746851 0
M  V30 10001 C 959.388 1.45723 1.28368 0
M  V30 10002 O 958.663 0.624062 1.84216 0
M  V30 10003 C 958.946 3.60097 -0.0138109 0
M  V30 10004 C 958.799 4.27412 -1.4014 0
M  V30 10005 C 960.118 4.34744 0.684491 0
M  V30 10006 H 957.237 0.736444 -0.0286144 0
M  V30 10007 H 959.879 1.74341 -0.755328 0
M  V30 10008 H 958.029 3.84357 0.56583 0
M  V30 10009 H 959.701 4.14401 -2.02656 0
M  V30 10010 H 957.944 3.86598 -1.96785 0
M  V30 10011 H 958.615 5.362 -1.31124 0
M  V30 10012 H 961.091 4.15657 0.192023 0
M  V30 10013 H 959.967 5.44468 0.696127 0
M  V30 10014 H 960.228 4.06132 1.74669 0
M  V30 10015 N 959.287 0.325282 1.54207 0
M  V30 10016 C 960.25 -0.527228 2.23054 0
M  V30 10017 C 961.25 -1.04217 1.22456 0
M  V30 10018 O 962.44 -0.934325 1.47024 0
M  V30 10019 C 959.572 -1.7325 2.93594 0
M  V30 10020 H 960.765 0.0746423 2.99807 0
M  V30 10021 H 958.318 0.0763872 1.56113 0
M  V30 10022 H 959.053 -2.37356 2.20981 0
M  V30 10023 H 958.838 -1.37065 3.67363 0
M  V30 10024 H 960.328 -2.3376 3.46043 0
M  V30 10025 N 960.765 -1.57509 0.0534917 0
M  V30 10026 C 961.675 -2.15152 -0.935249 0
M  V30 10027 C 962.691 -1.10991 -1.34003 0
M  V30 10028 O 963.867 -1.43171 -1.41648 0
M  V30 10029 C 960.932 -2.68699 -2.19093 0
M  V30 10030 C 959.993 -3.87666 -1.84428 0
M  V30 10031 C 959.226 -4.3865 -3.0401 0
M  V30 10032 O 959.449 -3.887 -4.17455 0
M  V30 10033 O 958.383 -5.30209 -2.84889 0
M  V30 10034 H 962.209 -2.99962 -0.475009 0
M  V30 10035 H 959.794 -1.48446 -0.16854 0
M  V30 10036 H 961.676 -3.03098 -2.92762 0
M  V30 10037 H 960.351 -1.86958 -2.6425 0
M  V30 10038 H 959.258 -3.58151 -1.08068 0
M  V30 10039 H 960.591 -4.70643 -1.44068 0
M  V30 10040 N 962.243 0.219913 -1.56058 0
M  V30 10041 C 963.191 1.29215 -1.93407 0
M  V30 10042 C 964.185 1.48434 -0.816307 0
M  V30 10043 O 965.391 1.49589 -1.00115 0
M  V30 10044 H 961.766 0.433256 -0.614649 0
M  V30 10045 H 963.737 0.949977 -2.82875 0
M  V30 10046 C 962.486 2.63501 -2.26854 0
M  V30 10047 H 961.809 2.4952 -3.12377 0
M  V30 10048 H 963.249 3.37334 -2.56869 0
M  V30 10049 C 961.708 3.18634 -1.09425 0
M  V30 10050 O 962.238 4.00117 -0.356243 0
M  V30 10051 N 960.444 2.7703 -0.877642 0
M  V30 10052 H 959.991 2.10875 -1.47951 0
M  V30 10053 H 959.949 3.1426 -0.0936792 0
M  V30 10054 N 963.721 1.49897 0.486681 0
M  V30 10055 C 965.137 1.36977 0.819109 0
M  V30 10056 C 965.337 0.41385 1.97204 0
M  V30 10057 O 964.393 -0.149249 2.52059 0
M  V30 10058 C 965.706 2.78013 1.14584 0
M  V30 10059 C 967.254 2.86816 1.25321 0
M  V30 10060 C 967.729 4.28651 1.61316 0
M  V30 10061 N 969.22 4.31528 1.68337 0
M  V30 10062 C 969.955 5.38254 1.97662 0
M  V30 10063 N 969.451 6.55207 2.25113 0
M  V30 10064 N 971.244 5.25683 1.99033 0
M  V30 10065 H 963.395 2.10634 -0.273364 0
M  V30 10066 H 965.658 0.946116 -0.0597418 0
M  V30 10067 H 965.364 3.49728 0.371892 0
M  V30 10068 H 965.238 3.1428 2.08585 0
M  V30 10069 H 967.625 2.15329 2.01785 0
M  V30 10070 H 967.706 2.54112 0.293368 0
M  V30 10071 H 967.35 5.00669 0.853968 0
M  V30 10072 H 967.28 4.5883 2.58424 0
M  V30 10073 H 969.771 3.47189 1.49226 0
M  V30 10074 H 970.084 7.32359 2.46717 0
M  V30 10075 H 968.429 6.58408 2.22538 0
M  V30 10076 H 971.62 4.33316 1.77074 0
M  V30 10077 H 971.793 6.08949 2.21552 0
M  V30 10078 N 965.199 -0.738761 1.39212 0
M  V30 10079 C 966.429 -1.5258 1.39295 0
M  V30 10080 C 966.837 -1.89194 -0.0153 0
M  V30 10081 O 966.18 -1.5435 -0.996073 0
M  V30 10082 C 966.242 -2.84462 2.19822 0
M  V30 10083 C 965.906 -2.70303 3.68491 0
M  V30 10084 C 966.903 -2.39102 4.61656 0
M  V30 10085 C 964.588 -2.87291 4.1203 0
M  V30 10086 C 966.582 -2.25066 5.96342 0
M  V30 10087 C 964.269 -2.72874 5.46793 0
M  V30 10088 C 965.267 -2.41807 6.38763 0
M  V30 10089 O 964.955 -2.27475 7.71045 0
M  V30 10090 H 964.687 -0.478236 0.477772 0
M  V30 10091 H 967.241 -0.920846 1.83602 0
M  V30 10092 H 965.471 -3.47202 1.70257 0
M  V30 10093 H 967.16 -3.46058 2.12129 0
M  V30 10094 H 967.926 -2.25632 4.2932 0
M  V30 10095 H 963.805 -3.10466 3.40781 0
M  V30 10096 H 967.349 -2.00739 6.68094 0
M  V30 10097 H 963.246 -2.85922 5.78722 0
M  V30 10098 H 964.014 -2.42574 7.81729 0
M  V30 10099 N 966.677 -1.24326 -0.968545 0
M  V30 10100 C 967.924 -1.08245 -1.71141 0
M  V30 10101 C 968.252 0.378842 -1.90775 0
M  V30 10102 O 967.507 1.29634 -1.46607 0
M  V30 10103 C 967.806 -1.76644 -3.10695 0
M  V30 10104 C 967.472 -3.26572 -3.10905 0
M  V30 10105 C 966.134 -3.67475 -3.10669 0
M  V30 10106 C 968.486 -4.22422 -3.05302 0
M  V30 10107 C 965.814 -5.02666 -3.02562 0
M  V30 10108 C 968.166 -5.57619 -2.98737 0
M  V30 10109 C 966.83 -5.9787 -2.9683 0
M  V30 10110 H 966.1 -0.396098 -0.626249 0
M  V30 10111 H 968.747 -1.54418 -1.13258 0
M  V30 10112 H 967.052 -1.22864 -3.72037 0
M  V30 10113 H 968.749 -1.61668 -3.66967 0
M  V30 10114 H 965.339 -2.94017 -3.11852 0
M  V30 10115 H 969.523 -3.91821 -3.04614 0
M  V30 10116 H 964.779 -5.3305 -2.99446 0
M  V30 10117 H 968.953 -6.31595 -2.93361 0
M  V30 10118 H 966.58 -7.02587 -2.90303 0
M  V30 10119 N 968.156 1.1691 -1.05688 0
M  V30 10120 C 969.066 2.24735 -0.67315 0
M  V30 10121 C 970.082 1.71252 0.308043 0
M  V30 10122 O 971.258 2.00772 0.158889 0
M  V30 10123 C 968.323 3.4665 -0.059026 0
M  V30 10124 C 967.384 4.15198 -1.0913 0
M  V30 10125 C 966.617 5.31292 -0.50639 0
M  V30 10126 O 966.84 5.663 0.682692 0
M  V30 10127 O 965.774 5.88923 -1.2431 0
M  V30 10128 H 969.6 2.59855 -1.57191 0
M  V30 10129 H 967.185 1.24306 -0.828751 0
M  V30 10130 H 969.067 4.20455 0.282018 0
M  V30 10131 H 967.742 3.13316 0.813304 0
M  V30 10132 H 966.649 3.43389 -1.48442 0
M  V30 10133 H 967.982 4.52571 -1.93495 0
M  V30 10134 N 969.634 0.838594 1.33437 0
M  V30 10135 C 970.567 0.216651 2.27169 0
M  V30 10136 C 971.545 -0.636065 1.49643 0
M  V30 10137 O 972.729 -0.596388 1.78817 0
M  V30 10138 C 969.856 -0.69584 3.31475 0
M  V30 10139 C 968.902 0.0813808 4.26422 0
M  V30 10140 S 969.735 1.43909 5.15801 0
M  V30 10141 C 970.891 0.531887 6.23636 0
M  V30 10142 H 971.124 1.01128 2.79572 0
M  V30 10143 H 968.657 0.635332 1.40723 0
M  V30 10144 H 970.615 -1.21671 3.92054 0
M  V30 10145 H 969.276 -1.46413 2.77888 0
M  V30 10146 H 968.469 -0.612944 5.00259 0
M  V30 10147 H 968.071 0.533304 3.70178 0
M  V30 10148 H 970.363 -0.270371 6.7696 0
M  V30 10149 H 971.306 1.24041 6.97151 0
M  V30 10150 H 971.714 0.113357 5.64386 0
M  V30 10151 N 971.112 -1.45937 0.595003 0
M  V30 10152 C 972.36 -2.01921 0.0851368 0
M  V30 10153 C 972.681 -1.46748 -1.28413 0
M  V30 10154 O 971.951 -0.656873 -1.84559 0
M  V30 10155 H 970.531 -0.746457 0.0284826 0
M  V30 10156 H 973.193 -1.78891 0.773561 0
M  V30 10157 H 972.289 -3.1209 0.0254002 0
M  V30 10158 N 972.59 -0.333456 -1.54032 0
M  V30 10159 C 974.001 0.15256 -1.86076 0
M  V30 10160 C 974.352 1.50819 -1.25492 0
M  V30 10161 O 973.477 2.08903 -0.564665 0
M  V30 10162 C 974.072 0.283599 -3.37611 0
M  V30 10163 C 972.631 0.713841 -3.69569 0
M  V30 10164 C 971.778 -0.158515 -2.76847 0
M  V30 10165 H 974.729 -0.553404 -1.48738 0
M  V30 10166 H 974.75 1.11284 -3.63863 0
M  V30 10167 H 974.262 -0.703193 -3.81676 0
M  V30 10168 H 972.363 1.71002 -3.31042 0
M  V30 10169 H 972.476 0.510731 -4.7637 0
M  V30 10170 H 970.84 0.367531 -2.52034 0
M  V30 10171 H 971.623 -1.14226 -3.2374 0
M  V30 10172 N 974.068 1.57479 -0.061844 0
M  V30 10173 C 975.479 1.80627 0.472295 0
M  V30 10174 C 975.83 0.97496 1.70261 0
M  V30 10175 O 974.955 0.1946 2.15523 0
M  V30 10176 C 975.55 3.27608 0.863616 0
M  V30 10177 C 974.109 3.51638 1.34267 0
M  V30 10178 C 973.256 2.75412 0.323009 0
M  V30 10179 H 976.207 1.56072 -0.287634 0
M  V30 10180 H 976.228 3.39113 1.72577 0
M  V30 10181 H 975.74 3.88087 -0.0320226 0
M  V30 10182 H 973.841 2.96452 2.25714 0
M  V30 10183 H 973.954 4.60342 1.32747 0
M  V30 10184 H 972.318 2.4187 0.798175 0
M  V30 10185 H 973.101 3.38623 -0.564729 0
M  V30 10186 N 975.546 -0.211634 1.56173 0
M  V30 10187 C 976.823 -0.959467 1.70451 0
M  V30 10188 C 977.203 -2.02036 0.611942 0
M  V30 10189 O 976.551 -2.25325 -0.37959 0
M  V30 10190 C 976.761 -1.56092 3.12148 0
M  V30 10191 C 978.109 -2.04939 3.71867 0
M  V30 10192 O 979.133 -1.65966 3.15172 0
M  V30 10193 O 977.992 -2.766 4.71333 0
M  V30 10194 H 975.086 -0.448844 0.6946 0
M  V30 10195 H 977.632 -0.202633 1.68486 0
M  V30 10196 H 976.404 -0.79538 3.83131 0
M  V30 10197 H 976.027 -2.38303 3.18273 0
M  V30 10198 N 977.024 -1.50153 -0.478725 0
M  V30 10199 C 978.27 -1.60998 -1.23318 0
M  V30 10200 C 978.603 -0.305868 -1.91776 0
M  V30 10201 O 977.878 0.692158 -1.81767 0
M  V30 10202 C 978.161 -2.78495 -2.28282 0
M  V30 10203 C 978.014 -4.18767 -1.64178 0
M  V30 10204 C 979.333 -2.91569 -3.2966 0
M  V30 10205 H 976.452 -0.585983 -0.446982 0
M  V30 10206 H 979.094 -1.82514 -0.528063 0
M  V30 10207 H 977.244 -2.60281 -2.8842 0
M  V30 10208 H 978.916 -4.48552 -1.07696 0
M  V30 10209 H 977.159 -4.23379 -0.94514 0
M  V30 10210 H 977.83 -4.96894 -2.40417 0
M  V30 10211 H 980.306 -3.08219 -2.79536 0
M  V30 10212 H 979.182 -3.75419 -4.0044 0
M  V30 10213 H 979.443 -2.01859 -3.93326 0
M  V30 10214 N 978.502 0.731368 -1.39602 0
M  V30 10215 C 979.412 1.87579 -1.40894 0
M  V30 10216 C 980.428 1.71336 -0.303319 0
M  V30 10217 O 981.604 1.93875 -0.545377 0
M  V30 10218 C 978.669 3.23211 -1.25442 0
M  V30 10219 C 977.73 3.51822 -2.46008 0
M  V30 10220 C 976.963 4.80982 -2.31284 0
M  V30 10221 O 977.186 5.54958 -1.31824 0
M  V30 10222 O 976.12 5.09574 -3.20341 0
M  V30 10223 H 979.946 1.89444 -2.3737 0
M  V30 10224 H 977.531 0.879675 -1.20756 0
M  V30 10225 H 979.413 4.04257 -1.18972 0
M  V30 10226 H 978.088 3.22108 -0.320637 0
M  V30 10227 H 976.995 2.70847 -2.58055 0
M  V30 10228 H 978.328 3.57707 -3.38093 0
M  V30 10229 N 979.98 1.24838 0.961938 0
M  V30 10230 C 980.89 1.06304 2.09133 0
M  V30 10231 C 981.906 0.00221475 1.74 0
M  V30 10232 O 983.082 0.201611 2.00388 0
M  V30 10233 C 980.147 0.676117 3.40043 0
M  V30 10234 C 979.208 1.81407 3.89089 0
M  V30 10235 C 978.441 1.44551 5.13752 0
M  V30 10236 O 978.664 0.337894 5.69398 0
M  V30 10237 O 977.598 2.27316 5.57325 0
M  V30 10238 H 981.424 2.01001 2.27667 0
M  V30 10239 H 979.009 1.0371 1.07539 0
M  V30 10240 H 980.891 0.472124 4.18747 0
M  V30 10241 H 979.566 -0.241667 3.22797 0
M  V30 10242 H 978.473 2.07286 3.11421 0
M  V30 10243 H 979.806 2.71083 4.10822 0
M  V30 10244 N 981.458 -1.16348 1.06306 0
M  V30 10245 C 982.368 -2.24375 0.685059 0
M  V30 10246 C 983.384 -1.71413 -0.298956 0
M  V30 10247 O 984.56 -2.00854 -0.148239 0
M  V30 10248 C 981.625 -3.46614 0.0774088 0
M  V30 10249 C 980.686 -4.14613 1.11331 0
M  V30 10250 C 979.919 -5.31016 0.534559 0
M  V30 10251 O 980.142 -5.66654 -0.65265 0
M  V30 10252 O 979.076 -5.88256 1.27431 0
M  V30 10253 H 982.902 -2.59018 1.58566 0
M  V30 10254 H 980.487 -1.23865 0.835332 0
M  V30 10255 H 982.369 -4.20599 -0.259716 0
M  V30 10256 H 981.044 -3.13743 -0.796677 0
M  V30 10257 H 979.951 -3.42597 1.50261 0
M  V30 10258 H 981.284 -4.51538 1.95893 0
M  V30 10259 N 982.937 -0.845659 -1.3299 0
M  V30 10260 C 983.847 -0.2864 -2.32845 0
M  V30 10261 C 984.863 0.591105 -1.63652 0
M  V30 10262 O 986.039 0.493615 -1.95257 0
M  V30 10263 C 983.104 0.523636 -3.42723 0
M  V30 10264 C 982.165 -0.378945 -4.27624 0
M  V30 10265 C 981.398 0.392526 -5.32255 0
M  V30 10266 O 981.621 1.6235 -5.46808 0
M  V30 10267 O 980.555 -0.237 -6.01433 0
M  V30 10268 H 984.381 -1.11346 -2.82552 0
M  V30 10269 H 981.966 -0.608356 -1.36453 0
M  V30 10270 H 983.848 0.983718 -4.09757 0
M  V30 10271 H 982.523 1.32764 -2.95221 0
M  V30 10272 H 981.43 -0.887012 -3.63432 0
M  V30 10273 H 982.763 -1.1479 -4.78627 0
M  V30 10274 N 984.415 1.45619 -0.602734 0
M  V30 10275 C 985.663 2.01873 -0.095844 0
M  V30 10276 C 985.984 1.47427 1.27633 0
M  V30 10277 O 985.254 0.666652 1.84208 0
M  V30 10278 H 983.834 0.746295 -0.0324408 0
M  V30 10279 H 986.496 1.78478 -0.783037 0
M  V30 10280 H 985.592 3.12072 -0.0419507 0
M  V30 10281 N 985.893 0.34162 1.53853 0
M  V30 10282 C 987.141 -0.254979 2.00485 0
M  V30 10283 C 987.462 -1.51222 1.23114 0
M  V30 10284 O 986.732 -1.92966 0.337787 0
M  V30 10285 H 985.312 -0.0972084 0.740648 0
M  V30 10286 H 987.974 0.462332 1.89337 0
M  V30 10287 H 987.07 -0.498778 3.08089 0
M  V30 10288 N 987.371 -1.57444 0.0701946 0
M  V30 10289 C 988.619 -1.93047 -0.598106 0
M  V30 10290 C 988.94 -0.950841 -1.70247 0
M  V30 10291 O 988.21 0.00127177 -1.959 0
M  V30 10292 H 986.79 -0.712648 -0.223924 0
M  V30 10293 H 989.452 -1.94481 0.127674 0
M  V30 10294 H 988.548 -2.94807 -1.02445 0
M  V30 10295 N 988.849 0.203349 -1.56283 0
M  V30 10296 C 989.781 1.27592 -1.90402 0
M  V30 10297 C 990.794 1.4213 -0.79391 0
M  V30 10298 O 991.983 1.42703 -1.07229 0
M  V30 10299 C 989.083 2.64919 -2.11356 0
M  V30 10300 C 988.256 2.72095 -3.42466 0
M  V30 10301 C 987.315 3.9056 -3.52631 0
M  V30 10302 O 986.341 3.78048 -4.25521 0
M  V30 10303 N 987.543 5.0566 -2.85111 0
M  V30 10304 H 990.308 0.986423 -2.83001 0
M  V30 10305 H 987.869 0.39331 -1.5705 0
M  V30 10306 H 989.861 3.42581 -2.15453 0
M  V30 10307 H 988.431 2.86391 -1.25295 0
M  V30 10308 H 987.651 1.8077 -3.50308 0
M  V30 10309 H 988.939 2.73874 -4.28801 0
M  V30 10310 H 988.337 5.18723 -2.25705 0
M  V30 10311 H 986.894 5.81299 -2.94847 0
M  V30 10312 N 990.327 1.50405 0.470755 0
M  V30 10313 C 991.575 1.61092 1.2204 0
M  V30 10314 C 991.896 0.313487 1.92464 0
M  V30 10315 O 991.166 -0.669043 1.84121 0
M  V30 10316 H 989.746 0.593618 0.45346 0
M  V30 10317 H 992.408 1.87184 0.542985 0
M  V30 10318 H 991.504 2.42222 1.96812 0
M  V30 10319 N 991.805 -0.723954 1.39988 0
M  V30 10320 C 992.715 -1.86829 1.41887 0
M  V30 10321 C 993.731 -1.71173 0.312401 0
M  V30 10322 O 994.907 -1.93583 0.555651 0
M  V30 10323 C 991.972 -3.22541 1.27154 0
M  V30 10324 C 991.033 -3.50512 2.47871 0
M  V30 10325 C 990.266 -4.79749 2.33831 0
M  V30 10326 O 990.489 -5.54251 1.34765 0
M  V30 10327 O 989.423 -5.07868 3.23039 0
M  V30 10328 H 993.249 -1.88183 2.38371 0
M  V30 10329 H 990.834 -0.873259 1.21221 0
M  V30 10330 H 992.716 -4.0362 1.21114 0
M  V30 10331 H 991.391 -3.21933 0.337715 0
M  V30 10332 H 990.298 -2.69475 2.59488 0
M  V30 10333 H 991.631 -3.55909 3.39985 0
M  V30 10334 N 993.283 -1.25346 -0.955304 0
M  V30 10335 C 994.193 -1.07412 -2.08566 0
M  V30 10336 C 995.209 -0.0114424 -1.73996 0
M  V30 10337 O 996.385 -0.212236 -2.00279 0
M  V30 10338 C 993.45 -0.694141 -3.3968 0
M  V30 10339 C 992.511 -1.83468 -3.88121 0
M  V30 10340 C 991.744 -1.47274 -5.12978 0
M  V30 10341 O 991.967 -0.368086 -5.69211 0
M  V30 10342 O 990.901 -2.30269 -5.56111 0
M  V30 10343 H 994.727 -2.02206 -2.26598 0
M  V30 10344 H 992.312 -1.04279 -1.06988 0
M  V30 10345 H 994.194 -0.494325 -4.18491 0
M  V30 10346 H 992.869 0.224545 -3.2292 0
M  V30 10347 H 991.776 -2.08935 -3.10318 0
M  V30 10348 H 993.109 -2.73258 -4.09379 0
M  V30 10349 N 994.761 1.15782 -1.06922 0
M  V30 10350 C 995.671 2.24008 -0.696948 0
M  V30 10351 C 996.687 1.71569 0.289862 0
M  V30 10352 O 997.863 2.00929 0.137585 0
M  V30 10353 C 994.928 3.46568 -0.0957895 0
M  V30 10354 C 993.989 4.14017 -1.13528 0
M  V30 10355 C 993.222 5.30725 -0.562713 0
M  V30 10356 O 993.445 5.66992 0.62259 0
M  V30 10357 O 992.379 5.87572 -1.30549 0
M  V30 10358 H 996.205 2.58174 -1.59938 0
M  V30 10359 H 993.79 1.2342 -0.841889 0
M  V30 10360 H 995.672 4.20731 0.237407 0
M  V30 10361 H 994.347 3.14161 0.780027 0
M  V30 10362 H 993.254 3.41795 -1.52076 0
M  V30 10363 H 994.587 4.50493 -1.98285 0
M  V30 10364 N 996.239 0.8527 1.3254 0
M  V30 10365 C 997.149 0.298744 2.3269 0
M  V30 10366 C 998.165 -0.582418 1.63963 0
M  V30 10367 O 999.341 -0.483253 1.95516 0
M  V30 10368 C 996.406 -0.505453 3.42996 0
M  V30 10369 C 995.467 0.401618 4.27417 0
M  V30 10370 C 994.7 -0.364294 5.32455 0
M  V30 10371 O 994.923 -1.59448 5.47661 0
M  V30 10372 O 993.857 0.268892 6.01299 0
M  V30 10373 H 997.683 1.12843 2.81958 0
M  V30 10374 H 995.268 0.615584 1.36128 0
M  V30 10375 H 997.15 -0.961974 4.10273 0
M  V30 10376 H 995.825 -1.31197 2.95921 0
M  V30 10377 H 994.732 0.906274 3.62957 0
M  V30 10378 H 996.065 1.17327 4.78012 0
M  V30 10379 N 997.718 -1.45297 0.610449 0
M  V30 10380 C 998.628 -2.34349 -0.108475 0
M  V30 10381 C 999.644 -1.51409 -0.857397 0
M  V30 10382 O 1000.82 -1.84202 -0.814337 0
M  V30 10383 C 997.885 -3.29072 -1.09144 0
M  V30 10384 C 996.946 -4.27918 -0.344165 0
M  V30 10385 C 996.179 -5.18116 -1.28031 0
M  V30 10386 O 996.402 -5.11802 -2.51824 0
M  V30 10387 O 995.336 -5.96879 -0.775821 0
M  V30 10388 H 999.162 -2.97232 0.623421 0
M  V30 10389 H 996.747 -1.44728 0.3707 0
M  V30 10390 H 998.629 -3.87433 -1.65751 0
M  V30 10391 H 997.304 -2.68749 -1.80431 0
M  V30 10392 H 996.211 -3.73164 0.264437 0
M  V30 10393 H 997.544 -4.91104 0.328275 0
M  V30 10394 N 999.196 -0.349774 -1.5367 0
M  V30 10395 C 1000.11 0.512421 -2.28935 0
M  V30 10396 C 1001.12 1.1065 -1.34286 0
M  V30 10397 O 1002.3 1.12084 -1.67329 0
M  V30 10398 C 999.363 1.64449 -3.05217 0
M  V30 10399 C 998.424 1.07956 -4.15505 0
M  V30 10400 C 997.657 2.15768 -4.88139 0
M  V30 10401 O 997.88 3.366 -4.60496 0
M  V30 10402 O 996.814 1.79712 -5.74445 0
M  V30 10403 H 1000.64 -0.0996001 -3.03537 0
M  V30 10404 H 998.225 -0.114629 -1.4896 0
M  V30 10405 H 1000.11 2.30302 -3.52901 0
M  V30 10406 H 998.782 2.24221 -2.33467 0
M  V30 10407 H 997.689 0.385381 -3.7211 0
M  V30 10408 H 999.022 0.526621 -4.89375 0
M  V30 10409 N 1000.67 1.57404 -0.0785433 0
M  V30 10410 C 1001.58 2.16612 0.900902 0
M  V30 10411 C 1002.6 1.13109 1.32221 0
M  V30 10412 O 1003.78 1.45406 1.39352 0
M  V30 10413 C 1000.84 2.7215 2.14791 0
M  V30 10414 C 999.902 3.90551 1.78237 0
M  V30 10415 C 999.135 4.43431 2.96993 0
M  V30 10416 O 999.358 3.95292 4.11218 0
M  V30 10417 O 998.292 5.34674 2.76418 0
M  V30 10418 H 1002.12 3.0068 0.427227 0
M  V30 10419 H 999.703 1.48696 0.144902 0
M  V30 10420 H 1001.58 3.07718 2.87902 0
M  V30 10421 H 1000.26 1.91139 2.61243 0
M  V30 10422 H 999.167 3.59825 1.02357 0
M  V30 10423 H 1000.5 4.72876 1.36562 0
M  V30 10424 N 1002.15 -0.195058 1.56388 0
M  V30 10425 C 1003.06 -1.26219 1.97752 0
M  V30 10426 C 1004.08 -1.49801 0.885192 0
M  V30 10427 O 1005.25 -1.62415 1.19094 0
M  V30 10428 C 1002.32 -2.5865 2.3087 0
M  V30 10429 C 1001.38 -2.4314 3.5381 0
M  V30 10430 C 1000.61 -3.69255 3.85339 0
M  V30 10431 O 1000.84 -4.73425 3.18159 0
M  V30 10432 O 999.77 -3.64782 4.78767 0
M  V30 10433 H 1003.6 -0.941161 2.88749 0
M  V30 10434 H 1001.18 -0.40006 1.43944 0
M  V30 10435 H 1003.06 -3.36814 2.53247 0
M  V30 10436 H 1001.74 -2.9038 1.43042 0
M  V30 10437 H 1000.64 -1.63086 3.3668 0
M  V30 10438 H 1001.98 -2.16341 4.42105 0
M  V30 10439 N 1003.63 -1.50653 -0.462772 0
M  V30 10440 C 1004.91 -1.5258 -1.22387 0
M  V30 10441 C 1005.29 -0.275263 -2.09298 0
M  V30 10442 O 1004.63 0.740943 -2.16153 0
M  V30 10443 C 1004.84 -2.82611 -2.04773 0
M  V30 10444 C 1006.19 -3.33592 -2.62681 0
M  V30 10445 O 1007.22 -2.83989 -2.15008 0
M  V30 10446 O 1006.08 -4.20081 -3.49563 0
M  V30 10447 H 1003.17 -0.612367 -0.55582 0
M  V30 10448 H 1005.72 -1.62948 -0.473914 0
M  V30 10449 H 1004.49 -3.65098 -1.40781 0
M  V30 10450 H 1004.11 -2.75286 -2.86886 0
M  V30 10451 N 1005.11 0.71652 -1.4037 0
M  V30 10452 C 1006.02 1.86074 -1.42876 0
M  V30 10453 C 1007.03 1.71005 -0.321475 0
M  V30 10454 O 1008.21 1.93286 -0.565909 0
M  V30 10455 C 1005.28 3.21862 -1.28863 0
M  V30 10456 C 1004.34 3.49193 -2.49726 0
M  V30 10457 C 1003.57 4.78502 -2.36372 0
M  V30 10458 O 1003.79 5.53529 -1.37703 0
M  V30 10459 O 1002.73 5.06147 -3.25728 0
M  V30 10460 H 1006.55 1.86916 -2.39366 0
M  V30 10461 H 1004.14 0.866818 -1.21683 0
M  V30 10462 H 1006.02 4.02972 -1.23253 0
M  V30 10463 H 1004.69 3.2175 -0.354783 0
M  V30 10464 H 1003.6 2.68095 -2.60913 0
M  V30 10465 H 1004.93 3.54101 -3.41868 0
M  V30 10466 N 1006.59 1.25851 0.948643 0
M  V30 10467 C 1007.5 1.08516 2.07994 0
M  V30 10468 C 1008.51 0.0206696 1.73988 0
M  V30 10469 O 1009.69 0.222854 2.00163 0
M  V30 10470 C 1006.75 0.712145 3.39307 0
M  V30 10471 C 1005.81 1.85523 3.87143 0
M  V30 10472 C 1005.05 1.49992 5.1219 0
M  V30 10473 O 1005.27 0.398268 5.69008 0
M  V30 10474 O 1004.2 2.33215 5.54882 0
M  V30 10475 H 1008.03 2.03405 2.25522 0
M  V30 10476 H 1005.62 1.04844 1.06433 0
M  V30 10477 H 1007.5 0.516512 4.18223 0
M  V30 10478 H 1006.17 -0.207416 3.23035 0
M  V30 10479 H 1005.08 2.10578 3.09205 0
M  V30 10480 H 1006.41 2.75425 4.07924 0
M  V30 10481 N 1008.06 -1.15214 1.07534 0
M  V30 10482 C 1009.03 -2.18209 0.701237 0
M  V30 10483 C 1010.03 -1.58693 -0.25946 0
M  V30 10484 O 1011.22 -1.74154 -0.0401744 0
M  V30 10485 C 1008.35 -3.40883 0.0338703 0
M  V30 10486 H 1009.54 -2.5282 1.61314 0
M  V30 10487 H 1007.1 -1.29707 0.872105 0
M  V30 10488 H 1007.83 -3.11843 -0.890187 0
M  V30 10489 H 1007.62 -3.85342 0.72486 0
M  V30 10490 H 1009.11 -4.17056 -0.213152 0
M  V30 10491 N 1009.54 -0.859717 -1.32086 0
M  V30 10492 C 1010.45 -0.31108 -2.32528 0
M  V30 10493 C 1011.47 0.573714 -1.6427 0
M  V30 10494 O 1012.64 0.472878 -1.9577 0
M  V30 10495 C 1009.71 0.487256 -3.43259 0
M  V30 10496 C 1008.77 -0.424279 -4.27198 0
M  V30 10497 C 1008 0.336051 -5.32641 0
M  V30 10498 O 1008.23 1.56541 -5.48499 0
M  V30 10499 O 1007.16 -0.300777 -6.01148 0
M  V30 10500 H 1010.99 -1.14336 -2.81355 0
M  V30 10501 H 1008.57 -0.622794 -1.358 0
M  V30 10502 H 1010.45 0.940203 -4.10777 0
M  V30 10503 H 1009.13 1.29626 -2.96612 0
M  V30 10504 H 1008.04 -0.925509 -3.62471 0
M  V30 10505 H 1009.37 -1.1986 -4.77383 0
M  V30 10506 N 1011.02 1.44971 -0.618145 0
M  V30 10507 C 1011.93 2.34403 0.0960457 0
M  V30 10508 C 1012.95 1.51862 0.849355 0
M  V30 10509 O 1014.12 1.84632 0.804557 0
M  V30 10510 C 1011.19 3.29646 1.07397 0
M  V30 10511 C 1010.25 4.28095 0.321466 0
M  V30 10512 C 1009.48 5.18787 1.25281 0
M  V30 10513 O 1009.7 5.1313 2.49106 0
M  V30 10514 O 1008.64 5.97282 0.744156 0
M  V30 10515 H 1012.46 2.96898 -0.639176 0
M  V30 10516 H 1010.05 1.44529 -0.37837 0
M  V30 10517 H 1011.93 3.88307 1.63694 0
M  V30 10518 H 1010.61 2.69702 1.79004 0
M  V30 10519 H 1009.51 3.73019 -0.284223 0
M  V30 10520 H 1010.85 4.90923 -0.354315 0
M  V30 10521 N 1012.5 0.357919 1.53482 0
M  V30 10522 C 1013.41 -0.500273 2.29204 0
M  V30 10523 C 1014.42 -1.09936 1.3487 0
M  V30 10524 O 1015.6 -1.11195 1.67921 0
M  V30 10525 C 1012.67 -1.62828 3.06085 0
M  V30 10526 C 1011.73 -1.05751 4.16071 0
M  V30 10527 C 1010.96 -2.13176 4.89277 0
M  V30 10528 O 1011.18 -3.34153 4.62274 0
M  V30 10529 O 1010.12 -1.76663 5.7539 0
M  V30 10530 H 1013.94 0.115696 3.0348 0
M  V30 10531 H 1011.53 0.122527 1.48897 0
M  V30 10532 H 1013.41 -2.28427 3.54117 0
M  V30 10533 H 1012.08 -2.22979 2.34653 0
M  V30 10534 H 1010.99 -0.365642 3.72309 0
M  V30 10535 H 1012.32 -0.500661 4.89647 0
M  V30 10536 N 1013.98 -1.5736 0.0868897 0
M  V30 10537 C 1015.39 -1.57304 -0.269762 0
M  V30 10538 C 1015.59 -1.09745 -1.68992 0
M  V30 10539 O 1014.65 -0.77017 -2.40468 0
M  V30 10540 C 1015.96 -3.00628 -0.0656646 0
M  V30 10541 C 1017.51 -3.12713 -0.134045 0
M  V30 10542 C 1017.98 -4.57981 0.0419569 0
M  V30 10543 N 1019.48 -4.63198 -0.0131501 0
M  V30 10544 C 1020.21 -5.73316 0.0983964 0
M  V30 10545 N 1019.71 -6.92296 0.264315 0
M  V30 10546 N 1021.5 -5.62086 0.0402517 0
M  V30 10547 H 1013.65 -1.86585 1.01487 0
M  V30 10548 H 1015.91 -0.860843 0.397055 0
M  V30 10549 H 1015.62 -3.39592 0.914891 0
M  V30 10550 H 1015.49 -3.68367 -0.811522 0
M  V30 10551 H 1017.88 -2.73627 -1.1051 0
M  V30 10552 H 1017.96 -2.47582 0.643167 0
M  V30 10553 H 1017.61 -4.9776 1.00984 0
M  V30 10554 H 1017.54 -5.21162 -0.754847 0
M  V30 10555 H 1020.03 -3.77644 -0.139183 0
M  V30 10556 H 1020.34 -7.72047 0.341165 0
M  V30 10557 H 1018.68 -6.94353 0.299876 0
M  V30 10558 H 1021.88 -4.68017 -0.0881801 0
M  V30 10559 H 1022.05 -6.47868 0.130635 0
M  V30 10560 N 1015.45 0.186762 -1.56489 0
M  V30 10561 C 1016.38 1.23395 -1.98232 0
M  V30 10562 C 1017.37 1.4702 -0.855526 0
M  V30 10563 O 1018.55 1.58616 -1.12048 0
M  V30 10564 C 1015.68 2.57635 -2.32898 0
M  V30 10565 C 1014.63 2.48607 -3.48394 0
M  V30 10566 C 1013.96 3.87196 -3.68759 0
M  V30 10567 C 1015.26 2.00398 -4.82325 0
M  V30 10568 H 1016.95 0.887026 -2.85958 0
M  V30 10569 H 1014.5 0.42525 -1.37578 0
M  V30 10570 H 1016.45 3.31082 -2.60696 0
M  V30 10571 H 1015.18 2.94084 -1.42064 0
M  V30 10572 H 1013.84 1.77615 -3.207 0
M  V30 10573 H 1013.48 4.21012 -2.75241 0
M  V30 10574 H 1013.18 3.82029 -4.46462 0
M  V30 10575 H 1014.71 4.62253 -3.98941 0
M  V30 10576 H 1016.12 2.6361 -5.091 0
M  V30 10577 H 1014.52 2.06214 -5.63556 0
M  V30 10578 H 1015.59 0.957562 -4.75351 0
M  V30 10579 N 1016.93 1.50896 0.454776 0
M  V30 10580 C 1017.9 1.70377 1.53312 0
M  V30 10581 C 1018.9 0.57408 1.50203 0
M  V30 10582 O 1020.09 0.841374 1.52534 0
M  V30 10583 C 1017.22 1.74411 2.92905 0
M  V30 10584 H 1018.41 2.66599 1.37349 0
M  V30 10585 H 1015.96 1.40622 0.68228 0
M  V30 10586 H 1016.7 0.799408 3.14293 0
M  V30 10587 H 1016.48 2.56496 2.96568 0
M  V30 10588 H 1017.97 1.91382 3.71164 0
M  V30 10589 N 1018.41 -0.709066 1.40748 0
M  V30 10590 C 1019.34 -1.83583 1.4429 0
M  V30 10591 C 1020.32 -1.67378 0.303067 0
M  V30 10592 O 1021.51 -1.87312 0.512612 0
M  V30 10593 C 1018.64 -3.21599 1.31116 0
M  V30 10594 C 1017.59 -3.52486 2.4277 0
M  V30 10595 C 1016.92 -4.89716 2.14668 0
M  V30 10596 C 1018.22 -3.52824 3.85113 0
M  V30 10597 H 1019.91 -1.80876 2.38588 0
M  V30 10598 H 1017.46 -0.868795 1.14839 0
M  V30 10599 H 1019.41 -4.00123 1.32209 0
M  V30 10600 H 1018.13 -3.24898 0.332965 0
M  V30 10601 H 1016.79 -2.76305 2.40937 0
M  V30 10602 H 1016.44 -4.89625 1.15224 0
M  V30 10603 H 1016.14 -5.11347 2.89478 0
M  V30 10604 H 1017.66 -5.70566 2.17455 0
M  V30 10605 H 1019.08 -4.21377 3.88734 0
M  V30 10606 H 1017.48 -3.85984 4.59496 0
M  V30 10607 H 1018.55 -2.52073 4.14231 0
M  V30 10608 N 1019.89 -1.26353 -0.941956 0
M  V30 10609 C 1020.8 -1.09618 -2.07415 0
M  V30 10610 C 1021.82 -0.0298963 -1.73974 0
M  V30 10611 O 1022.99 -0.233466 -2.00042 0
M  V30 10612 C 1020.06 -0.73013 -3.38925 0
M  V30 10613 C 1019.12 -1.87574 -3.86153 0
M  V30 10614 C 1018.35 -1.52706 -5.11387 0
M  V30 10615 O 1018.57 -0.428438 -5.68789 0
M  V30 10616 O 1017.51 -2.36154 -5.53638 0
M  V30 10617 H 1021.33 -2.04598 -2.2444 0
M  V30 10618 H 1018.92 -1.05407 -1.05876 0
M  V30 10619 H 1020.8 -0.538684 -4.17943 0
M  V30 10620 H 1019.48 0.190282 -3.2314 0
M  V30 10621 H 1018.38 -2.12214 -3.08084 0
M  V30 10622 H 1019.72 -2.77585 -4.06457 0
M  V30 10623 N 1021.37 1.14642 -1.08144 0
M  V30 10624 C 1022.61 1.86115 -0.820533 0
M  V30 10625 C 1022.97 1.81208 0.646635 0
M  V30 10626 O 1022.26 1.22997 1.46909 0
M  V30 10627 C 1022.46 3.33953 -1.2732 0
M  V30 10628 C 1022.28 3.53254 -2.78283 0
M  V30 10629 C 1021.05 3.68259 -3.45996 0
M  V30 10630 C 1023.25 3.504 -3.76463 0
M  V30 10631 N 1021.23 3.75692 -4.85519 0
M  V30 10632 C 1022.61 3.64045 -5.01868 0
M  V30 10633 C 1024.66 3.33722 -3.69505 0
M  V30 10634 C 1023.36 3.62734 -6.21141 0
M  V30 10635 C 1025.39 3.33713 -4.88251 0
M  V30 10636 C 1024.75 3.47896 -6.12493 0
M  V30 10637 H 1020.85 0.697829 -0.352929 0
M  V30 10638 H 1023.43 1.3742 -1.37927 0
M  V30 10639 H 1021.61 3.81245 -0.742066 0
M  V30 10640 H 1023.34 3.93174 -0.958991 0
M  V30 10641 H 1020.09 3.69376 -2.96409 0
M  V30 10642 H 1020.52 3.83133 -5.58156 0
M  V30 10643 H 1025.16 3.2167 -2.74387 0
M  V30 10644 H 1022.88 3.73563 -7.16573 0
M  V30 10645 H 1026.46 3.22025 -4.84553 0
M  V30 10646 H 1025.34 3.47833 -7.02838 0
M  V30 10647 N 1022.85 0.866709 1.31628 0
M  V30 10648 C 1023.81 0.325041 2.26883 0
M  V30 10649 C 1024.81 -0.522133 1.52087 0
M  V30 10650 O 1026 -0.331908 1.71009 0
M  V30 10651 C 1023.13 -0.538756 3.36616 0
M  V30 10652 H 1024.32 1.16592 2.76308 0
M  V30 10653 H 1021.88 0.642029 1.42505 0
M  V30 10654 H 1022.61 -1.40096 2.92478 0
M  V30 10655 H 1022.4 0.0678115 3.92041 0
M  V30 10656 H 1023.89 -0.910123 4.07562 0
M  V30 10657 N 1024.32 -1.44642 0.625825 0
M  V30 10658 C 1025.25 -2.33397 -0.0692188 0
M  V30 10659 C 1026.23 -1.47898 -0.840241 0
M  V30 10660 O 1027.42 -1.7663 -0.807176 0
M  V30 10661 C 1024.55 -3.30888 -1.055 0
M  V30 10662 C 1023.5 -4.26164 -0.395968 0
M  V30 10663 C 1022.83 -5.13483 -1.49128 0
M  V30 10664 C 1024.13 -5.17663 0.694433 0
M  V30 10665 H 1025.82 -2.91763 0.671925 0
M  V30 10666 H 1023.37 -1.40294 0.324573 0
M  V30 10667 H 1025.32 -3.91861 -1.54993 0
M  V30 10668 H 1024.05 -2.7072 -1.82696 0
M  V30 10669 H 1022.71 -3.66516 0.0782691 0
M  V30 10670 H 1022.35 -4.49672 -2.25399 0
M  V30 10671 H 1022.05 -5.78038 -1.05573 0
M  V30 10672 H 1023.58 -5.77327 -1.98813 0
M  V30 10673 H 1024.99 -5.72602 0.282818 0
M  V30 10674 H 1023.39 -5.90793 1.05281 0
M  V30 10675 H 1024.46 -4.58994 1.56372 0
M  V30 10676 N 1025.8 -0.366053 -1.5329 0
M  V30 10677 C 1027.05 0.223051 -2.00865 0
M  V30 10678 C 1027.37 1.49244 -1.25504 0
M  V30 10679 O 1026.64 1.92404 -0.368444 0
M  V30 10680 H 1025.22 0.085413 -0.742101 0
M  V30 10681 H 1027.88 -0.492396 -1.88578 0
M  V30 10682 H 1026.98 0.449701 -3.08843 0
M  V30 10683 N 1027.28 1.57312 -0.0952337 0
M  V30 10684 C 1028.24 2.12889 0.849161 0
M  V30 10685 C 1029.24 1.05819 1.21075 0
M  V30 10686 O 1030.43 1.31704 1.14016 0
M  V30 10687 C 1027.56 2.6496 2.14498 0
M  V30 10688 H 1028.76 2.97651 0.366566 0
M  V30 10689 H 1026.31 1.55542 0.153762 0
M  V30 10690 H 1027.05 1.83718 2.67242 0
M  V30 10691 H 1026.83 3.43244 1.89542 0
M  V30 10692 H 1028.32 3.07952 2.82056 0
M  V30 10693 N 1028.76 -0.17846 1.56586 0
M  V30 10694 C 1030.03 -0.923096 1.72448 0
M  V30 10695 C 1030.41 -2.00692 0.654659 0
M  V30 10696 O 1029.76 -2.26079 -0.33171 0
M  V30 10697 C 1029.97 -1.49435 3.15389 0
M  V30 10698 C 1031.32 -1.97005 3.76131 0
M  V30 10699 O 1032.34 -1.59244 3.18622 0
M  V30 10700 O 1031.2 -2.66541 4.77094 0
M  V30 10701 H 1028.3 -0.434009 0.703964 0
M  V30 10702 H 1030.84 -0.16685 1.68878 0
M  V30 10703 H 1029.62 -0.713933 3.84732 0
M  V30 10704 H 1029.24 -2.31498 3.23256 0
M  V30 10705 N 1030.24 -1.51135 -0.446768 0
M  V30 10706 C 1031.15 -1.74595 -1.56696 0
M  V30 10707 C 1032.16 -0.629816 -1.62201 0
M  V30 10708 O 1033.34 -0.910987 -1.79619 0
M  V30 10709 C 1030.4 -1.85738 -2.9275 0
M  V30 10710 C 1029.46 -3.09564 -2.97437 0
M  V30 10711 C 1028.7 -3.20165 -4.27001 0
M  V30 10712 O 1028.92 -2.36939 -5.1886 0
M  V30 10713 O 1027.85 -4.13077 -4.3778 0
M  V30 10714 H 1031.68 -2.69601 -1.39817 0
M  V30 10715 H 1029.26 -1.35523 -0.628805 0
M  V30 10716 H 1031.15 -1.95107 -3.73512 0
M  V30 10717 H 1029.82 -0.939184 -3.09776 0
M  V30 10718 H 1028.73 -3.05679 -2.15664 0
M  V30 10719 H 1030.06 -4.01041 -2.85353 0
M  V30 10720 N 1031.71 0.701592 -1.41122 0
M  V30 10721 C 1032.99 1.45569 -1.30648 0
M  V30 10722 C 1033.37 2.10988 0.068744 0
M  V30 10723 O 1032.72 2.01228 1.08257 0
M  V30 10724 C 1032.93 2.48003 -2.45551 0
M  V30 10725 C 1034.28 3.13431 -2.86437 0
M  V30 10726 O 1035.3 2.58327 -2.45247 0
M  V30 10727 O 1034.16 4.13221 -3.57646 0
M  V30 10728 H 1031.25 0.648 -0.513834 0
M  V30 10729 H 1033.8 0.73258 -1.53073 0
M  V30 10730 H 1032.57 1.98276 -3.37346 0
M  V30 10731 H 1032.19 3.27832 -2.24971 0
M  V30 10732 N 1033.19 1.2685 0.935242 0
M  V30 10733 C 1034.44 1.12745 1.68211 0
M  V30 10734 C 1034.77 -0.328128 1.91712 0
M  V30 10735 O 1034.02 -1.25701 1.49993 0
M  V30 10736 C 1034.32 1.8482 3.05903 0
M  V30 10737 C 1033.99 3.347 3.02137 0
M  V30 10738 C 1032.65 3.75583 3.00817 0
M  V30 10739 C 1035 4.30368 2.93995 0
M  V30 10740 C 1032.33 5.10511 2.89129 0
M  V30 10741 C 1034.68 5.65343 2.83848 0
M  V30 10742 C 1033.34 6.0553 2.80874 0
M  V30 10743 H 1032.61 0.412563 0.615527 0
M  V30 10744 H 1035.26 1.57366 1.09124 0
M  V30 10745 H 1033.57 1.32685 3.68649 0
M  V30 10746 H 1035.26 1.71341 3.62551 0
M  V30 10747 H 1031.85 3.02182 3.03947 0
M  V30 10748 H 1036.04 3.9976 2.94118 0
M  V30 10749 H 1031.29 5.40802 2.85208 0
M  V30 10750 H 1035.47 6.39151 2.76512 0
M  V30 10751 H 1033.09 7.10037 2.71573 0
M  V30 10752 N 1034.67 -1.14067 1.0875 0
M  V30 10753 C 1035.6 -2.21385 0.74236 0
M  V30 10754 C 1036.58 -1.67833 -0.276805 0
M  V30 10755 O 1037.77 -1.93647 -0.1464 0
M  V30 10756 C 1034.9 -3.46956 0.154644 0
M  V30 10757 C 1033.85 -4.13555 1.10255 0
M  V30 10758 C 1033.18 -5.3337 0.376877 0
M  V30 10759 C 1034.48 -4.6169 2.44213 0
M  V30 10760 H 1036.17 -2.50512 1.63964 0
M  V30 10761 H 1033.72 -1.20408 0.789807 0
M  V30 10762 H 1035.67 -4.21284 -0.0988419 0
M  V30 10763 H 1034.39 -3.17203 -0.777789 0
M  V30 10764 H 1033.05 -3.41186 1.34119 0
M  V30 10765 H 1032.7 -4.99879 -0.559472 0
M  V30 10766 H 1032.4 -5.78875 1.00884 0
M  V30 10767 H 1033.92 -6.10458 0.131527 0
M  V30 10768 H 1035.34 -5.27475 2.24595 0
M  V30 10769 H 1033.74 -5.17909 3.03134 0
M  V30 10770 H 1034.81 -3.76574 3.05483 0
M  V30 10771 N 1036.15 -0.873678 -1.31166 0
M  V30 10772 C 1037.08 -0.348011 -2.30892 0
M  V30 10773 C 1038.06 0.563092 -1.60509 0
M  V30 10774 O 1039.24 0.479332 -1.88192 0
M  V30 10775 C 1036.37 0.448158 -3.44396 0
M  V30 10776 C 1035.33 -0.370179 -4.26396 0
M  V30 10777 C 1034.65 0.551903 -5.31844 0
M  V30 10778 C 1035.95 -1.60624 -4.96988 0
M  V30 10779 H 1037.65 -1.18134 -2.75109 0
M  V30 10780 H 1035.19 -0.569502 -1.3226 0
M  V30 10781 H 1037.15 0.826458 -4.13216 0
M  V30 10782 H 1035.87 1.31503 -2.98956 0
M  V30 10783 H 1034.53 -0.730472 -3.59249 0
M  V30 10784 H 1034.18 1.41616 -4.82653 0
M  V30 10785 H 1033.88 0.00823478 -5.87599 0
M  V30 10786 H 1035.4 0.926965 -6.03523 0
M  V30 10787 H 1036.82 -1.29917 -5.58386 0
M  V30 10788 H 1035.21 -2.08926 -5.62557 0
M  V30 10789 H 1036.28 -2.357 -4.23761 0
M  V30 10790 N 1037.63 1.44308 -0.633487 0
M  V30 10791 C 1038.54 2.34492 0.0711787 0
M  V30 10792 C 1039.55 1.52754 0.8332 0
M  V30 10793 O 1040.73 1.85475 0.784929 0
M  V30 10794 C 1037.79 3.30767 1.03895 0
M  V30 10795 C 1036.85 4.28412 0.276043 0
M  V30 10796 C 1036.09 5.20087 1.19772 0
M  V30 10797 O 1036.31 5.15743 2.4365 0
M  V30 10798 O 1035.24 5.98038 0.680764 0
M  V30 10799 H 1039.07 2.96203 -0.67063 0
M  V30 10800 H 1036.66 1.4412 -0.393678 0
M  V30 10801 H 1038.54 3.90021 1.59566 0
M  V30 10802 H 1037.21 2.71586 1.76133 0
M  V30 10803 H 1036.12 3.72696 -0.32377 0
M  V30 10804 H 1037.45 4.9052 -0.406364 0
M  V30 10805 N 1039.1 0.374177 1.53094 0
M  V30 10806 C 1040.05 -0.484848 2.22785 0
M  V30 10807 C 1041.04 -1.04181 1.22617 0
M  V30 10808 O 1042.23 -0.97043 1.48026 0
M  V30 10809 C 1039.36 -1.61956 3.02696 0
M  V30 10810 C 1038.45 -1.07506 4.10248 0
M  V30 10811 N 1038.84 -0.254253 5.05161 0
M  V30 10812 C 1037.13 -1.34904 4.25108 0
M  V30 10813 C 1037.84 0.0448558 5.81683 0
M  V30 10814 N 1036.81 -0.555073 5.40759 0
M  V30 10815 H 1040.61 0.148976 2.93522 0
M  V30 10816 H 1038.13 0.182656 1.6137 0
M  V30 10817 H 1040.12 -2.24723 3.51148 0
M  V30 10818 H 1038.78 -2.25636 2.33492 0
M  V30 10819 H 1039.8 0.107256 5.17789 0
M  V30 10820 H 1036.47 -1.98799 3.67131 0
M  V30 10821 H 1037.86 0.708952 6.68149 0
M  V30 10822 N 1040.58 -1.57259 0.103575 0
M  V30 10823 C 1041.83 -1.93832 -0.55786 0
M  V30 10824 C 1042.14 -0.988087 -1.68808 0
M  V30 10825 O 1043.35 -1.24786 -2.41124 0
M  V30 10826 C 1041.81 -3.44433 -1.04373 0
M  V30 10827 C 1041.41 -4.47963 0.0571971 0
M  V30 10828 C 1043.16 -3.89953 -1.67742 0
M  V30 10829 C 1041.07 -5.89727 -0.444505 0
M  V30 10830 H 1040 -0.723536 -0.212161 0
M  V30 10831 H 1042.65 -1.82606 0.180944 0
M  V30 10832 H 1041.03 -3.50841 -1.83648 0
M  V30 10833 H 1042.2 -4.53209 0.83298 0
M  V30 10834 H 1040.52 -4.12104 0.596588 0
M  V30 10835 H 1043.11 -4.93272 -2.06365 0
M  V30 10836 H 1043.46 -3.2907 -2.54988 0
M  V30 10837 H 1043.99 -3.86281 -0.950342 0
M  V30 10838 H 1040.73 -6.5433 0.391543 0
M  V30 10839 H 1040.25 -5.87935 -1.18711 0
M  V30 10840 H 1041.93 -6.40558 -0.910739 0
M  V30 10841 N 1042.06 0.170153 -1.56679 0
M  V30 10842 C 1043.48 0.521966 -1.50823 0
M  V30 10843 C 1043.68 1.84589 -0.808037 0
M  V30 10844 O 1042.73 2.49791 -0.368891 0
M  V30 10845 C 1044.05 0.553648 -2.95559 0
M  V30 10846 C 1045.59 0.640769 -3.06371 0
M  V30 10847 C 1046.07 0.703332 -4.52567 0
M  V30 10848 N 1047.56 0.76619 -4.56819 0
M  V30 10849 C 1048.29 0.835192 -5.67285 0
M  V30 10850 N 1047.79 0.864957 -6.87379 0
M  V30 10851 N 1049.58 0.874302 -5.55259 0
M  V30 10852 H 1041.73 -0.697952 -2.00605 0
M  V30 10853 H 1044 -0.251787 -0.913952 0
M  V30 10854 H 1043.7 -0.350498 -3.49949 0
M  V30 10855 H 1043.58 1.39973 -3.50268 0
M  V30 10856 H 1045.96 1.53534 -2.52015 0
M  V30 10857 H 1046.05 -0.232008 -2.54746 0
M  V30 10858 H 1045.69 -0.186986 -5.07556 0
M  V30 10859 H 1045.62 1.59227 -5.0195 0
M  V30 10860 H 1048.11 0.751424 -3.70354 0
M  V30 10861 H 1048.42 0.918814 -7.67318 0
M  V30 10862 H 1046.77 0.833215 -6.89987 0
M  V30 10863 H 1049.96 0.848057 -4.60354 0
M  V30 10864 H 1050.13 0.924615 -6.4137 0
M  V30 10865 N 1043.54 1.5137 0.438746 0
M  V30 10866 C 1044.79 1.63202 1.18524 0
M  V30 10867 C 1045.1 0.353408 1.92381 0
M  V30 10868 O 1046.31 0.351086 2.6922 0
M  V30 10869 C 1044.76 2.88218 2.15542 0
M  V30 10870 C 1044.37 4.23078 1.47339 0
M  V30 10871 C 1046.11 3.09407 2.90633 0
M  V30 10872 C 1044.02 5.39246 2.42833 0
M  V30 10873 H 1042.95 0.607864 0.446114 0
M  V30 10874 H 1045.6 1.77835 0.452421 0
M  V30 10875 H 1043.98 2.67216 2.92253 0
M  V30 10876 H 1045.16 4.54457 0.761964 0
M  V30 10877 H 1043.47 4.07755 0.844065 0
M  V30 10878 H 1046.07 3.9337 3.62165 0
M  V30 10879 H 1046.41 2.22428 3.51897 0
M  V30 10880 H 1046.95 3.30743 2.21029 0
M  V30 10881 H 1043.69 6.2848 1.8626 0
M  V30 10882 H 1043.21 5.12245 3.12034 0
M  V30 10883 H 1044.88 5.71137 3.03992 0
M  V30 10884 N 1045.02 -0.694098 1.41492 0
M  V30 10885 C 1045.95 -1.82042 1.46229 0
M  V30 10886 C 1046.93 -1.67047 0.320803 0
M  V30 10887 O 1048.11 -1.86758 0.53245 0
M  V30 10888 C 1045.24 -3.2019 1.34519 0
M  V30 10889 C 1044.2 -3.49892 2.46495 0
M  V30 10890 C 1043.52 -4.87411 2.1985 0
M  V30 10891 C 1044.82 -3.4872 3.88834 0
M  V30 10892 H 1046.52 -1.78335 2.40493 0
M  V30 10893 H 1044.06 -0.856566 1.15754 0
M  V30 10894 H 1046.02 -3.98699 1.36445 0
M  V30 10895 H 1044.74 -3.24527 0.367406 0
M  V30 10896 H 1043.4 -2.73734 2.43854 0
M  V30 10897 H 1043.05 -4.88375 1.20411 0
M  V30 10898 H 1042.75 -5.08248 2.94885 0
M  V30 10899 H 1044.27 -5.68228 2.23494 0
M  V30 10900 H 1045.68 -4.1723 3.93182 0
M  V30 10901 H 1044.08 -3.81089 4.63564 0
M  V30 10902 H 1045.15 -2.47665 4.16881 0
M  V30 10903 N 1046.49 -1.27344 -0.928501 0
M  V30 10904 C 1047.44 -1.10001 -2.029 0
M  V30 10905 C 1048.41 -0.00131084 -1.661 0
M  V30 10906 O 1049.6 -0.163485 -1.90098 0
M  V30 10907 C 1046.74 -0.7524 -3.36798 0
M  V30 10908 C 1045.85 -1.92865 -3.86558 0
M  V30 10909 C 1044.98 -1.52299 -5.08899 0
M  V30 10910 C 1044.02 -2.66677 -5.50953 0
M  V30 10911 N 1043.16 -2.26706 -6.64491 0
M  V30 10912 H 1048 -2.0417 -2.17068 0
M  V30 10913 H 1045.54 -1.01637 -1.0634 0
M  V30 10914 H 1047.5 -0.531687 -4.13798 0
M  V30 10915 H 1046.13 0.15234 -3.2244 0
M  V30 10916 H 1045.18 -2.26192 -3.05845 0
M  V30 10917 H 1046.49 -2.78668 -4.13698 0
M  V30 10918 H 1045.64 -1.26348 -5.93398 0
M  V30 10919 H 1044.38 -0.636042 -4.83535 0
M  V30 10920 H 1043.39 -2.93344 -4.65004 0
M  V30 10921 H 1044.61 -3.55992 -5.78313 0
M  V30 10922 H 1042.56 -1.40462 -6.40786 0
M  V30 10923 H 1042.48 -3.06049 -6.91281 0
M  V30 10924 H 1043.74 -2.04 -7.52333 0
M  V30 10925 N 1047.97 1.13488 -1.09353 0
M  V30 10926 C 1049.22 1.85022 -0.830354 0
M  V30 10927 C 1049.55 1.83266 0.64242 0
M  V30 10928 O 1048.83 1.27024 1.47293 0
M  V30 10929 C 1049.11 3.33218 -1.36521 0
M  V30 10930 C 1048.96 3.43491 -2.90404 0
M  V30 10931 C 1050.28 4.28626 -0.998381 0
M  V30 10932 H 1047.4 0.671786 -0.303105 0
M  V30 10933 H 1050.04 1.33211 -1.3548 0
M  V30 10934 H 1048.19 3.77471 -0.919117 0
M  V30 10935 H 1049.86 3.07954 -3.43456 0
M  V30 10936 H 1048.11 2.84391 -3.27573 0
M  V30 10937 H 1048.78 4.47702 -3.22905 0
M  V30 10938 H 1051.25 3.9244 -1.38311 0
M  V30 10939 H 1050.13 5.30754 -1.39968 0
M  V30 10940 H 1050.39 4.42001 0.093517 0
M  V30 10941 N 1049.45 0.880621 1.30701 0
M  V30 10942 C 1050.38 0.360251 2.30704 0
M  V30 10943 C 1051.36 -0.554572 1.60806 0
M  V30 10944 O 1052.55 -0.469345 1.88443 0
M  V30 10945 C 1049.68 -0.429888 3.44629 0
M  V30 10946 C 1048.63 0.392786 4.26194 0
M  V30 10947 C 1047.96 -0.52369 5.32129 0
M  V30 10948 C 1049.26 1.63258 4.96129 0
M  V30 10949 H 1050.95 1.19591 2.74478 0
M  V30 10950 H 1048.5 0.576508 1.31956 0
M  V30 10951 H 1050.45 -0.804532 4.13649 0
M  V30 10952 H 1049.17 -1.29916 2.99649 0
M  V30 10953 H 1047.83 0.749514 3.58856 0
M  V30 10954 H 1047.48 -1.39054 4.83397 0
M  V30 10955 H 1047.18 0.0229272 5.87596 0
M  V30 10956 H 1048.71 -0.894946 6.04006 0
M  V30 10957 H 1050.12 1.32877 5.57689 0
M  V30 10958 H 1048.52 2.11906 5.61441 0
M  V30 10959 H 1049.59 2.37944 4.22505 0
M  V30 10960 N 1050.93 -1.4397 0.641131 0
M  V30 10961 C 1052.18 -2.02782 0.158406 0
M  V30 10962 C 1052.53 -1.496 -1.20986 0
M  V30 10963 O 1051.82 -0.674517 -1.79334 0
M  V30 10964 C 1052.02 -3.5727 0.0963368 0
M  V30 10965 C 1051.85 -4.25441 1.45704 0
M  V30 10966 C 1050.62 -4.62008 2.04637 0
M  V30 10967 C 1052.81 -4.55238 2.39297 0
M  V30 10968 N 1050.8 -5.15194 3.33839 0
M  V30 10969 C 1052.17 -5.09613 3.53121 0
M  V30 10970 C 1054.22 -4.37197 2.38251 0
M  V30 10971 C 1052.93 -5.47847 4.66108 0
M  V30 10972 C 1054.95 -4.76485 3.50309 0
M  V30 10973 C 1054.31 -5.30982 4.62858 0
M  V30 10974 H 1050.41 -0.775304 0.102117 0
M  V30 10975 H 1053 -1.75321 0.846805 0
M  V30 10976 H 1051.17 -3.84322 -0.561369 0
M  V30 10977 H 1052.9 -4.02757 -0.39614 0
M  V30 10978 H 1049.65 -4.46653 1.57474 0
M  V30 10979 H 1050.08 -5.46253 3.99921 0
M  V30 10980 H 1054.72 -3.94347 1.5248 0
M  V30 10981 H 1052.44 -5.89646 5.52579 0
M  V30 10982 H 1056.02 -4.6423 3.50687 0
M  V30 10983 H 1054.9 -5.6082 5.48133 0
M  V30 10984 N 1052.41 -0.382291 -1.52893 0
M  V30 10985 C 1053.65 0.201996 -2.03399 0
M  V30 10986 C 1054.01 1.44624 -1.26286 0
M  V30 10987 O 1055.21 2.10723 -1.66881 0
M  V30 10988 C 1053.48 0.470348 -3.54292 0
M  V30 10989 S 1055.04 1.02592 -4.26638 0
M  V30 10990 H 1051.86 0.0575178 -0.70867 0
M  V30 10991 H 1054.46 -0.52902 -1.88206 0
M  V30 10992 H 1053.17 -0.44243 -4.08008 0
M  V30 10993 H 1052.7 1.22998 -3.73678 0
M  V30 10994 H 1054.71 2.30887 -4.3921 0
M  V30 10995 N 1053.89 1.57202 -0.111913 0
M  V30 10996 C 1055.13 1.9495 0.547795 0
M  V30 10997 C 1055.46 0.994763 1.67137 0
M  V30 10998 O 1054.72 0.0173528 1.95692 0
M  V30 10999 C 1055.01 3.39152 1.12741 0
M  V30 11000 C 1054.68 4.50724 0.125916 0
M  V30 11001 C 1053.34 4.80968 -0.149489 0
M  V30 11002 C 1055.69 5.18215 -0.556987 0
M  V30 11003 C 1053.02 5.76023 -1.1142 0
M  V30 11004 C 1055.37 6.14307 -1.51029 0
M  V30 11005 C 1054.04 6.42947 -1.79375 0
M  V30 11006 H 1053.31 0.713372 0.200453 0
M  V30 11007 H 1055.96 1.90542 -0.191316 0
M  V30 11008 H 1054.26 3.4022 1.94313 0
M  V30 11009 H 1055.96 3.65668 1.64584 0
M  V30 11010 H 1052.55 4.27162 0.350756 0
M  V30 11011 H 1056.73 4.95012 -0.357378 0
M  V30 11012 H 1051.99 5.9652 -1.34064 0
M  V30 11013 H 1056.16 6.65692 -2.04516 0
M  V30 11014 H 1053.79 7.1641 -2.54284 0
M  V30 11015 N 1055.36 -0.161842 1.56767 0
M  V30 11016 C 1056.29 -1.20226 2.0017 0
M  V30 11017 C 1057.27 -1.4564 0.878807 0
M  V30 11018 O 1058.46 -1.56813 1.14557 0
M  V30 11019 C 1055.59 -2.53897 2.36968 0
M  V30 11020 C 1054.54 -2.43033 3.52305 0
M  V30 11021 C 1053.87 -3.81281 3.74872 0
M  V30 11022 C 1055.17 -1.927 4.85453 0
M  V30 11023 H 1056.86 -0.84142 2.87333 0
M  V30 11024 H 1054.41 -0.403309 1.38237 0
M  V30 11025 H 1056.36 -3.26893 2.6593 0
M  V30 11026 H 1055.09 -2.91787 1.46724 0
M  V30 11027 H 1053.75 -1.7249 3.23485 0
M  V30 11028 H 1053.39 -4.1658 2.81904 0
M  V30 11029 H 1053.09 -3.74877 4.52483 0
M  V30 11030 H 1054.62 -4.55848 4.06245 0
M  V30 11031 H 1056.03 -2.55477 5.13229 0
M  V30 11032 H 1054.43 -1.97222 5.66766 0
M  V30 11033 H 1055.5 -0.881816 4.76814 0
M  V30 11034 N 1056.84 -1.516 -0.430713 0
M  V30 11035 C 1058.09 -1.63829 -1.17657 0
M  V30 11036 C 1058.4 -0.363605 -1.92191 0
M  V30 11037 O 1059.61 -0.365358 -2.6903 0
M  V30 11038 C 1058.07 -2.89357 -2.14011 0
M  V30 11039 C 1057.67 -4.23854 -1.45094 0
M  V30 11040 C 1059.42 -3.10944 -2.88988 0
M  V30 11041 C 1057.32 -5.40526 -2.3997 0
M  V30 11042 H 1056.25 -0.610221 -0.442884 0
M  V30 11043 H 1058.91 -1.78073 -0.442984 0
M  V30 11044 H 1057.29 -2.68762 -2.90832 0
M  V30 11045 H 1058.46 -4.54854 -0.737853 0
M  V30 11046 H 1056.78 -4.08197 -0.822429 0
M  V30 11047 H 1059.37 -3.95286 -3.60074 0
M  V30 11048 H 1059.72 -2.24291 -3.50712 0
M  V30 11049 H 1060.25 -3.3191 -2.19272 0
M  V30 11050 H 1056.99 -6.29459 -1.82925 0
M  V30 11051 H 1056.51 -5.13893 -3.09313 0
M  V30 11052 H 1058.19 -5.72741 -3.00959 0
M  V30 11053 N 1058.32 0.686584 -1.41858 0
M  V30 11054 C 1059.27 1.79271 -1.40875 0
M  V30 11055 C 1060.25 1.58413 -0.281782 0
M  V30 11056 O 1061.45 1.69093 -0.523132 0
M  V30 11057 C 1058.57 3.17647 -1.30213 0
M  V30 11058 C 1057.66 3.44168 -2.47808 0
M  V30 11059 N 1058.05 3.41339 -3.73258 0
M  V30 11060 C 1056.35 3.74755 -2.41815 0
M  V30 11061 C 1057.05 3.67016 -4.51303 0
M  V30 11062 N 1056.03 3.87203 -3.81543 0
M  V30 11063 H 1059.83 1.75459 -2.35778 0
M  V30 11064 H 1057.34 0.886946 -1.36041 0
M  V30 11065 H 1059.34 3.96896 -1.2759 0
M  V30 11066 H 1058 3.22664 -0.363021 0
M  V30 11067 H 1059.01 3.21511 -4.06018 0
M  V30 11068 H 1055.69 3.87089 -1.56423 0
M  V30 11069 H 1057.08 3.70888 -5.6026 0
M  V30 11070 N 1059.8 1.27835 0.921735 0
M  V30 11071 C 1061.04 1.14692 1.67253 0
M  V30 11072 C 1061.38 -0.305384 1.91784 0
M  V30 11073 O 1060.65 -1.22286 1.51249 0
M  V30 11074 C 1060.93 1.93743 3.03539 0
M  V30 11075 C 1060.79 3.46991 2.86212 0
M  V30 11076 C 1062.11 1.74658 4.03959 0
M  V30 11077 H 1059.23 0.418021 0.606983 0
M  V30 11078 H 1061.87 1.5706 1.06922 0
M  V30 11079 H 1060.02 1.57738 3.55037 0
M  V30 11080 H 1061.69 3.92858 2.41785 0
M  V30 11081 H 1059.93 3.73029 2.21432 0
M  V30 11082 H 1060.6 3.97551 3.82958 0
M  V30 11083 H 1063.08 2.06063 3.61493 0
M  V30 11084 H 1061.96 2.32353 4.97296 0
M  V30 11085 H 1062.22 0.696019 4.36587 0
M  V30 11086 N 1061.28 -1.12907 1.09954 0
M  V30 11087 C 1062.21 -2.18194 0.701701 0
M  V30 11088 C 1063.22 -1.60724 -0.259131 0
M  V30 11089 O 1064.41 -1.78445 -0.0443549 0
M  V30 11090 C 1061.51 -3.38897 0.0140602 0
M  V30 11091 C 1060.68 -4.25867 0.997807 0
M  V30 11092 C 1059.74 -5.25084 0.34257 0
M  V30 11093 O 1058.77 -5.60492 0.991857 0
M  V30 11094 N 1059.97 -5.73464 -0.901058 0
M  V30 11095 H 1062.73 -2.52939 1.60755 0
M  V30 11096 H 1060.3 -1.28281 0.987703 0
M  V30 11097 H 1062.29 -4.02349 -0.435628 0
M  V30 11098 H 1060.86 -3.02345 -0.794118 0
M  V30 11099 H 1060.08 -3.59107 1.6259 0
M  V30 11100 H 1061.37 -4.80825 1.66388 0
M  V30 11101 H 1060.76 -5.46854 -1.44802 0
M  V30 11102 H 1059.32 -6.38827 -1.29398 0
M  V30 11103 N 1062.75 -0.88754 -1.30232 0
M  V30 11104 C 1064 -0.506277 -1.95656 0
M  V30 11105 C 1064.32 0.948191 -1.70395 0
M  V30 11106 O 1063.59 1.66701 -1.02895 0
M  V30 11107 H 1062.17 -0.184235 -0.723924 0
M  V30 11108 H 1064.83 -1.13118 -1.58715 0
M  V30 11109 H 1063.93 -0.678673 -3.04632 0
M  V30 11110 N 1064.23 1.43628 -0.648757 0
M  V30 11111 C 1065.46 2.06732 -0.166284 0
M  V30 11112 C 1065.88 1.48281 1.15734 0
M  V30 11113 O 1065.24 0.591018 1.71396 0
M  V30 11114 C 1065.29 3.60502 -0.0838732 0
M  V30 11115 O 1064.39 4.01186 0.955185 0
M  V30 11116 H 1063.73 0.657479 -0.0928285 0
M  V30 11117 H 1066.26 1.84208 -0.890421 0
M  V30 11118 H 1066.27 4.07875 0.100923 0
M  V30 11119 H 1064.95 4.02424 -1.05014 0
M  V30 11120 H 1063.53 3.65412 0.743537 0
M  V30 11121 N 1065.71 0.390394 1.52688 0
M  V30 11122 C 1066.96 -0.192697 2.00777 0
M  V30 11123 C 1067.27 -1.4781 1.28108 0
M  V30 11124 O 1068.48 -2.1413 1.66914 0
M  V30 11125 C 1066.93 -0.393955 3.57737 0
M  V30 11126 C 1066.54 0.878259 4.39307 0
M  V30 11127 C 1068.29 -0.933352 4.14112 0
M  V30 11128 C 1066.19 0.645218 5.8787 0
M  V30 11129 H 1065.12 -0.0757862 0.750182 0
M  V30 11130 H 1067.77 0.512961 1.76184 0
M  V30 11131 H 1066.16 -1.16149 3.78583 0
M  V30 11132 H 1067.33 1.65049 4.30227 0
M  V30 11133 H 1065.65 1.34269 3.94158 0
M  V30 11134 H 1068.24 -1.12343 5.22765 0
M  V30 11135 H 1068.59 -1.90272 3.70273 0
M  V30 11136 H 1069.12 -0.225361 3.97161 0
M  V30 11137 H 1065.86 1.58562 6.36033 0
M  V30 11138 H 1065.38 -0.0880609 5.99735 0
M  V30 11139 H 1067.06 0.280178 6.46393 0
M  V30 11140 N 1067.19 -1.57141 0.120249 0
M  V30 11141 C 1068.6 -1.5784 -0.236335 0
M  V30 11142 C 1068.8 -1.13304 -1.66626 0
M  V30 11143 O 1067.86 -0.821004 -2.3878 0
M  V30 11144 C 1069.17 -3.007 -0.00188211 0
M  V30 11145 C 1070.72 -3.12927 -0.0676838 0
M  V30 11146 C 1071.2 -4.57789 0.139092 0
M  V30 11147 N 1072.69 -4.63122 0.085104 0
M  V30 11148 C 1073.42 -5.72978 0.219983 0
M  V30 11149 N 1072.92 -6.91579 0.411102 0
M  V30 11150 N 1074.71 -5.61874 0.159469 0
M  V30 11151 H 1066.86 -1.84391 1.05422 0
M  V30 11152 H 1069.13 -0.852228 0.415225 0
M  V30 11153 H 1068.83 -3.37575 0.986718 0
M  V30 11154 H 1068.71 -3.70005 -0.733203 0
M  V30 11155 H 1071.09 -2.75909 -1.04681 0
M  V30 11156 H 1071.17 -2.46162 0.695538 0
M  V30 11157 H 1070.82 -4.95506 1.1152 0
M  V30 11158 H 1070.75 -5.22646 -0.644131 0
M  V30 11159 H 1073.24 -3.77854 -0.0590479 0
M  V30 11160 H 1073.55 -7.71149 0.504851 0
M  V30 11161 H 1071.9 -6.9356 0.447091 0
M  V30 11162 H 1075.09 -4.68099 0.0111131 0
M  V30 11163 H 1075.26 -6.47445 0.268028 0
M  V30 11164 N 1068.67 0.153526 -1.5685 0
M  V30 11165 C 1069.6 1.2147 -1.94365 0
M  V30 11166 C 1070.61 1.39532 -0.838726 0
M  V30 11167 O 1071.8 1.39219 -1.11715 0
M  V30 11168 C 1068.9 2.5806 -2.19677 0
M  V30 11169 C 1068.07 2.61062 -3.50949 0
M  V30 11170 C 1067.13 3.79144 -3.64878 0
M  V30 11171 O 1066.16 3.64319 -4.37333 0
M  V30 11172 N 1067.36 4.96333 -3.01054 0
M  V30 11173 H 1070.13 0.895889 -2.85996 0
M  V30 11174 H 1067.69 0.343147 -1.58222 0
M  V30 11175 H 1069.68 3.35553 -2.26243 0
M  V30 11176 H 1068.25 2.8226 -1.34343 0
M  V30 11177 H 1067.47 1.69533 -3.55882 0
M  V30 11178 H 1068.76 2.60094 -4.37297 0
M  V30 11179 H 1068.15 5.1128 -2.42093 0
M  V30 11180 H 1066.71 5.71625 -3.13191 0
M  V30 11181 N 1070.14 1.51827 0.422667 0
M  V30 11182 C 1071.39 1.6522 1.17084 0
M  V30 11183 C 1071.72 0.375508 1.90841 0
M  V30 11184 O 1070.97 -0.641029 1.84903 0
M  V30 11185 C 1071.27 2.81572 2.20119 0
M  V30 11186 C 1070.94 4.20303 1.63268 0
M  V30 11187 C 1069.6 4.5804 1.47488 0
M  V30 11188 C 1071.95 5.06812 1.21618 0
M  V30 11189 C 1069.28 5.79979 0.885531 0
M  V30 11190 C 1071.63 6.29343 0.641071 0
M  V30 11191 C 1070.3 6.65841 0.470286 0
M  V30 11192 H 1069.57 0.604581 0.428442 0
M  V30 11193 H 1072.21 1.85896 0.459874 0
M  V30 11194 H 1070.52 2.55175 2.97309 0
M  V30 11195 H 1072.22 2.89132 2.77856 0
M  V30 11196 H 1068.81 3.90557 1.76531 0
M  V30 11197 H 1072.99 4.78251 1.32624 0
M  V30 11198 H 1068.25 6.06892 0.741105 0
M  V30 11199 H 1072.42 6.9571 0.309888 0
M  V30 11200 H 1070.05 7.60199 0.0115038 0
M  V30 11201 N 1071.62 -0.679052 1.4222 0
M  V30 11202 C 1072.59 -1.77448 1.45069 0
M  V30 11203 C 1073.59 -1.57189 0.338882 0
M  V30 11204 O 1074.78 -1.63559 0.599519 0
M  V30 11205 C 1071.91 -3.1603 1.27819 0
M  V30 11206 H 1073.1 -1.7631 2.426 0
M  V30 11207 H 1070.65 -0.888277 1.28605 0
M  V30 11208 H 1071.39 -3.22796 0.311946 0
M  V30 11209 H 1071.17 -3.32138 2.08391 0
M  V30 11210 H 1072.66 -3.9596 1.32686 0
M  V30 11211 N 1073.1 -1.28322 -0.914942 0
M  V30 11212 C 1074.06 -1.12169 -1.99877 0
M  V30 11213 C 1075.06 -0.0617252 -1.60681 0
M  V30 11214 O 1076.25 -0.307405 -1.71466 0
M  V30 11215 C 1073.39 -0.711959 -3.33383 0
M  V30 11216 H 1074.58 -2.08425 -2.15636 0
M  V30 11217 H 1072.13 -1.11291 -1.09745 0
M  V30 11218 H 1072.87 0.251418 -3.23324 0
M  V30 11219 H 1072.65 -1.47764 -3.63192 0
M  V30 11220 H 1074.14 -0.621558 -4.12948 0
M  V30 11221 N 1074.58 1.12322 -1.10551 0
M  V30 11222 C 1075.82 1.85497 -0.858492 0
M  V30 11223 C 1076.18 1.8222 0.604966 0
M  V30 11224 O 1077.38 2.5075 0.968382 0
M  V30 11225 C 1075.65 3.29124 -1.39327 0
M  V30 11226 S 1077.21 4.19659 -1.28186 0
M  V30 11227 H 1074.03 0.639768 -0.31019 0
M  V30 11228 H 1076.63 1.35298 -1.41119 0
M  V30 11229 H 1075.34 3.29069 -2.45238 0
M  V30 11230 H 1074.87 3.84388 -0.837203 0
M  V30 11231 H 1076.88 4.95618 -0.240325 0
M  V30 11232 N 1076.06 0.894434 1.2976 0
M  V30 11233 C 1076.99 0.3847 2.30309 0
M  V30 11234 C 1077.97 -0.537486 1.61385 0
M  V30 11235 O 1079.15 -0.449332 1.8893 0
M  V30 11236 C 1076.28 -0.393311 3.45066 0
M  V30 11237 C 1075.24 0.437968 4.25753 0
M  V30 11238 C 1074.56 -0.467221 5.32655 0
M  V30 11239 C 1075.86 1.6851 4.9437 0
M  V30 11240 H 1077.56 1.22496 2.73194 0
M  V30 11241 H 1075.1 0.590471 1.31337 0
M  V30 11242 H 1077.06 -0.760614 4.14479 0
M  V30 11243 H 1075.78 -1.2673 3.0101 0
M  V30 11244 H 1074.44 0.787533 3.58041 0
M  V30 11245 H 1074.09 -1.33919 4.84845 0
M  V30 11246 H 1073.79 0.0852482 5.87538 0
M  V30 11247 H 1075.31 -0.830833 6.04921 0
M  V30 11248 H 1076.72 1.38784 5.56248 0
M  V30 11249 H 1075.12 2.17849 5.59162 0
M  V30 11250 H 1076.19 2.42412 4.19958 0
M  V30 11251 N 1077.53 -1.43282 0.656365 0
M  V30 11252 C 1078.78 -2.02075 0.171293 0
M  V30 11253 C 1079.11 -1.51682 -1.21269 0
M  V30 11254 O 1078.39 -0.711243 -1.81029 0
M  V30 11255 C 1078.67 -3.59621 0.185602 0
M  V30 11256 C 1078.52 -4.20239 1.60373 0
M  V30 11257 C 1079.84 -4.37515 -0.476289 0
M  V30 11258 H 1076.96 -0.73424 0.0637185 0
M  V30 11259 H 1079.6 -1.70539 0.837648 0
M  V30 11260 H 1077.75 -3.86619 -0.381804 0
M  V30 11261 H 1079.43 -4.0426 2.22197 0
M  V30 11262 H 1077.67 -3.76769 2.15006 0
M  V30 11263 H 1078.34 -5.29333 1.56557 0
M  V30 11264 H 1080.82 -4.16099 0.00651073 0
M  V30 11265 H 1079.69 -5.47169 -0.435562 0
M  V30 11266 H 1079.95 -4.14003 -1.55093 0
M  V30 11267 N 1079.01 -0.398486 -1.52479 0
M  V30 11268 C 1079.94 0.423498 -2.29627 0
M  V30 11269 C 1080.92 1.05547 -1.33394 0
M  V30 11270 O 1082.11 1.0665 -1.62294 0
M  V30 11271 C 1079.24 1.54612 -3.10986 0
M  V30 11272 C 1078.19 1.03971 -4.15179 0
M  V30 11273 C 1077.52 2.25512 -4.84818 0
M  V30 11274 C 1078.82 0.10121 -5.22202 0
M  V30 11275 H 1080.51 -0.220222 -2.98589 0
M  V30 11276 H 1078.06 -0.107355 -1.43599 0
M  V30 11277 H 1080.01 2.12806 -3.63719 0
M  V30 11278 H 1078.74 2.21756 -2.39774 0
M  V30 11279 H 1077.4 0.480251 -3.63441 0
M  V30 11280 H 1077.04 2.91187 -4.10145 0
M  V30 11281 H 1076.74 1.92285 -5.55248 0
M  V30 11282 H 1078.27 2.84331 -5.40359 0
M  V30 11283 H 1079.68 0.591617 -5.70239 0
M  V30 11284 H 1078.08 -0.141737 -5.99933 0
M  V30 11285 H 1079.15 -0.847216 -4.77441 0
M  V30 11286 N 1080.49 1.57075 -0.12858 0
M  V30 11287 C 1081.72 1.99876 0.534544 0
M  V30 11288 C 1082.13 1.00843 1.59612 0
M  V30 11289 O 1081.49 0.00268947 1.825 0
M  V30 11290 C 1081.54 3.42654 1.15198 0
M  V30 11291 O 1081.26 4.37899 0.132823 0
M  V30 11292 C 1082.76 4.00637 1.8975 0
M  V30 11293 H 1079.98 0.656073 0.140744 0
M  V30 11294 H 1082.53 2.03337 -0.217742 0
M  V30 11295 H 1080.68 3.40101 1.85499 0
M  V30 11296 H 1081.1 5.21253 0.582682 0
M  V30 11297 H 1082.57 5.02592 2.28266 0
M  V30 11298 H 1083.05 3.40313 2.7764 0
M  V30 11299 H 1083.65 4.06764 1.2419 0
M  V30 11300 N 1081.97 -0.145205 1.5693 0
M  V30 11301 C 1083.25 -0.88631 1.74367 0
M  V30 11302 C 1083.63 -1.99259 0.697081 0
M  V30 11303 O 1082.97 -2.26732 -0.28368 0
M  V30 11304 C 1083.18 -1.42712 3.18488 0
M  V30 11305 C 1084.53 -1.88982 3.80225 0
M  V30 11306 O 1085.56 -1.5245 3.21928 0
M  V30 11307 O 1084.42 -2.56361 4.8264 0
M  V30 11308 H 1081.51 -0.418979 0.713011 0
M  V30 11309 H 1084.06 -0.130991 1.69194 0
M  V30 11310 H 1082.83 -0.632165 3.8616 0
M  V30 11311 H 1082.45 -2.24589 3.28094 0
M  V30 11312 N 1083.45 -1.52049 -0.414609 0
M  V30 11313 C 1084.69 -1.65838 -1.16206 0
M  V30 11314 C 1085.02 -0.385623 -1.90639 0
M  V30 11315 O 1084.28 0.631214 -1.85241 0
M  V30 11316 C 1084.58 -2.82735 -2.18622 0
M  V30 11317 C 1084.24 -4.21163 -1.61037 0
M  V30 11318 C 1082.9 -4.58816 -1.45056 0
M  V30 11319 C 1085.26 -5.0745 -1.18928 0
M  V30 11320 C 1082.58 -5.8044 -0.854761 0
M  V30 11321 C 1084.94 -6.29674 -0.607686 0
M  V30 11322 C 1083.6 -6.66081 -0.434968 0
M  V30 11323 H 1082.87 -0.606845 -0.425229 0
M  V30 11324 H 1085.52 -1.86137 -0.450009 0
M  V30 11325 H 1083.82 -2.56749 -2.95952 0
M  V30 11326 H 1085.52 -2.90601 -2.76319 0
M  V30 11327 H 1082.11 -3.91488 -1.74457 0
M  V30 11328 H 1086.29 -4.78948 -1.30086 0
M  V30 11329 H 1081.55 -6.07276 -0.70891 0
M  V30 11330 H 1085.72 -6.95865 -0.272988 0
M  V30 11331 H 1083.35 -7.60195 0.0288116 0
M  V30 11332 N 1084.93 0.6715 -1.42579 0
M  V30 11333 C 1086.17 1.42871 -1.42941 0
M  V30 11334 C 1086.49 1.94941 -0.0480483 0
M  V30 11335 O 1085.76 1.73275 0.913921 0
M  V30 11336 H 1084.34 0.530189 -0.526221 0
M  V30 11337 H 1087.01 0.793219 -1.78028 0
M  V30 11338 H 1086.1 2.2801 -2.13114 0
M  V30 11339 N 1086.4 1.28806 0.908124 0
M  V30 11340 C 1087.65 1.15663 1.65242 0
M  V30 11341 C 1087.97 -0.292883 1.93395 0
M  V30 11342 O 1089.17 -0.545509 2.65963 0
M  V30 11343 C 1087.63 2.02233 2.97707 0
M  V30 11344 C 1087.24 3.51958 2.77181 0
M  V30 11345 C 1088.98 1.97792 3.75604 0
M  V30 11346 C 1086.89 4.3066 4.05322 0
M  V30 11347 H 1085.82 0.42928 0.619867 0
M  V30 11348 H 1088.47 1.5338 1.00731 0
M  V30 11349 H 1086.85 1.57377 3.63385 0
M  V30 11350 H 1088.02 4.0481 2.20149 0
M  V30 11351 H 1086.34 3.57983 2.12691 0
M  V30 11352 H 1088.94 2.53858 4.70596 0
M  V30 11353 H 1089.28 0.955956 4.05175 0
M  V30 11354 H 1089.81 2.40648 3.16755 0
M  V30 11355 H 1086.55 5.3346 3.8092 0
M  V30 11356 H 1086.07 3.8258 4.61944 0
M  V30 11357 H 1087.75 4.40878 4.73535 0
M  V30 11358 N 1087.88 -1.11734 1.11145 0
M  V30 11359 C 1088.84 -2.15868 0.770303 0
M  V30 11360 C 1089.84 -1.59438 -0.208842 0
M  V30 11361 O 1091.03 -1.74193 0.0152516 0
M  V30 11362 C 1088.17 -3.40603 0.142303 0
M  V30 11363 H 1089.36 -2.4756 1.69276 0
M  V30 11364 H 1086.91 -1.26867 0.912929 0
M  V30 11365 H 1087.65 -3.14517 -0.790526 0
M  V30 11366 H 1087.43 -3.8284 0.847087 0
M  V30 11367 H 1088.92 -4.17523 -0.0803608 0
M  V30 11368 N 1089.36 -0.901303 -1.29284 0
M  V30 11369 C 1090.61 -0.528826 -1.95784 0
M  V30 11370 C 1090.94 0.922833 -1.70873 0
M  V30 11371 O 1090.21 1.65448 -1.0226 0
M  V30 11372 C 1090.5 -0.823793 -3.50551 0
M  V30 11373 C 1090.35 -2.32727 -3.84913 0
M  V30 11374 C 1091.67 -0.311382 -4.38997 0
M  V30 11375 H 1088.79 -0.193604 -0.711116 0
M  V30 11376 H 1091.43 -1.12828 -1.52872 0
M  V30 11377 H 1089.58 -0.313612 -3.87232 0
M  V30 11378 H 1091.25 -2.90712 -3.58168 0
M  V30 11379 H 1089.49 -2.78735 -3.32399 0
M  V30 11380 H 1090.17 -2.48423 -4.9294 0
M  V30 11381 H 1092.64 -0.748265 -4.09317 0
M  V30 11382 H 1091.52 -0.546957 -5.46168 0
M  V30 11383 H 1091.78 0.787959 -4.35021 0
M  V30 11384 N 1090.84 1.42931 -0.663954 0
M  V30 11385 C 1092.08 2.01683 -0.181738 0
M  V30 11386 C 1092.41 1.52437 1.20802 0
M  V30 11387 O 1091.67 0.71254 1.82267 0
M  V30 11388 C 1091.97 3.57072 -0.153163 0
M  V30 11389 C 1091.63 4.25706 -1.48612 0
M  V30 11390 C 1090.29 4.4417 -1.85111 0
M  V30 11391 C 1092.65 4.6448 -2.36448 0
M  V30 11392 C 1089.97 4.98677 -3.09092 0
M  V30 11393 C 1092.33 5.20362 -3.5973 0
M  V30 11394 C 1090.99 5.37041 -3.96412 0
M  V30 11395 H 1090.26 0.73801 -0.0665026 0
M  V30 11396 H 1092.91 1.71264 -0.856791 0
M  V30 11397 H 1091.21 3.87095 0.605372 0
M  V30 11398 H 1092.91 4.00299 0.236981 0
M  V30 11399 H 1089.5 4.11686 -1.19215 0
M  V30 11400 H 1093.68 4.49898 -2.09537 0
M  V30 11401 H 1088.94 5.09776 -3.37547 0
M  V30 11402 H 1093.11 5.49352 -4.28001 0
M  V30 11403 H 1090.74 5.79042 -4.92559 0
M  V30 11404 N 1092.32 0.406567 1.52266 0
M  V30 11405 C 1093.23 -0.4271 2.30679 0
M  V30 11406 C 1094.24 -1.0559 1.383 0
M  V30 11407 O 1095.42 -1.05797 1.71374 0
M  V30 11408 C 1092.48 -1.53008 3.1111 0
M  V30 11409 C 1091.54 -0.924604 4.19225 0
M  V30 11410 C 1090.78 -1.97502 4.95811 0
M  V30 11411 O 1091 -3.19277 4.72671 0
M  V30 11412 O 1089.93 -1.58268 5.80719 0
M  V30 11413 H 1093.76 0.212187 3.02958 0
M  V30 11414 H 1091.34 0.169835 1.48432 0
M  V30 11415 H 1093.23 -2.17046 3.61205 0
M  V30 11416 H 1091.9 -2.15401 2.41628 0
M  V30 11417 H 1090.81 -0.247009 3.73284 0
M  V30 11418 H 1092.14 -0.34463 4.90992 0
M  V30 11419 N 1093.79 -1.57004 0.136909 0
M  V30 11420 C 1095.04 -1.94972 -0.51662 0
M  V30 11421 C 1095.36 -1.02367 -1.66674 0
M  V30 11422 O 1096.56 -1.29873 -2.38423 0
M  V30 11423 C 1095.02 -3.4657 -0.970435 0
M  V30 11424 C 1094.63 -4.47741 0.152204 0
M  V30 11425 C 1096.37 -3.93423 -1.59432 0
M  V30 11426 C 1094.28 -5.90537 -0.319315 0
M  V30 11427 H 1093.21 -0.727873 -0.196766 0
M  V30 11428 H 1095.86 -1.82181 0.219637 0
M  V30 11429 H 1094.24 -3.54657 -1.76165 0
M  V30 11430 H 1095.41 -4.5134 0.928925 0
M  V30 11431 H 1093.73 -4.10746 0.683867 0
M  V30 11432 H 1096.33 -4.97539 -1.95856 0
M  V30 11433 H 1096.67 -3.34404 -2.47951 0
M  V30 11434 H 1097.2 -3.8821 -0.868193 0
M  V30 11435 H 1093.94 -6.53352 0.530248 0
M  V30 11436 H 1093.46 -5.90321 -1.06213 0
M  V30 11437 H 1095.14 -6.42346 -0.774662 0
M  V30 11438 N 1095.27 0.136881 -1.57004 0
M  V30 11439 C 1096.68 0.695911 -1.73245 0
M  V30 11440 C 1097.03 1.8118 -0.75288 0
M  V30 11441 O 1096.16 2.16258 0.0782477 0
M  V30 11442 C 1096.75 1.26914 -3.14131 0
M  V30 11443 C 1095.31 1.77463 -3.31939 0
M  V30 11444 C 1094.46 0.667128 -2.69156 0
M  V30 11445 H 1097.41 -0.0888841 -1.58451 0
M  V30 11446 H 1097.43 2.13892 -3.14691 0
M  V30 11447 H 1096.94 0.456754 -3.85403 0
M  V30 11448 H 1095.05 2.61236 -2.65681 0
M  V30 11449 H 1095.16 1.89638 -4.39971 0
M  V30 11450 H 1093.52 1.09629 -2.29899 0
M  V30 11451 H 1094.31 -0.13398 -3.43038 0
M  V30 11452 N 1096.75 1.52266 0.40654 0
M  V30 11453 C 1097.7 1.72175 1.49465 0
M  V30 11454 C 1098.68 0.575668 1.50249 0
M  V30 11455 O 1099.88 0.832835 1.56182 0
M  V30 11456 C 1097.01 1.87818 2.87366 0
M  V30 11457 C 1096.09 3.08305 2.91219 0
M  V30 11458 N 1096.48 4.30967 2.64766 0
M  V30 11459 C 1094.78 3.08192 3.22388 0
M  V30 11460 C 1095.48 5.12455 2.75254 0
M  V30 11461 N 1094.46 4.47758 3.08242 0
M  V30 11462 H 1098.26 2.64653 1.27812 0
M  V30 11463 H 1095.77 1.50334 0.61428 0
M  V30 11464 H 1097.77 2.00198 3.65686 0
M  V30 11465 H 1096.43 0.965414 3.10016 0
M  V30 11466 H 1097.44 4.59397 2.39113 0
M  V30 11467 H 1094.12 2.26662 3.50615 0
M  V30 11468 H 1095.51 6.20186 2.58495 0
M  V30 11469 N 1098.23 -0.663929 1.42933 0
M  V30 11470 C 1099.16 -1.78946 1.43217 0
M  V30 11471 C 1100.17 -1.59426 0.329727 0
M  V30 11472 O 1101.36 -1.68344 0.5935 0
M  V30 11473 C 1098.46 -3.16217 1.21902 0
M  V30 11474 C 1097.64 -3.6249 2.44785 0
M  V30 11475 C 1096.69 -4.78529 2.18853 0
M  V30 11476 O 1095.72 -4.88516 2.92131 0
M  V30 11477 N 1096.92 -5.67994 1.19845 0
M  V30 11478 H 1099.69 -1.79184 2.40236 0
M  V30 11479 H 1097.25 -0.847404 1.37952 0
M  V30 11480 H 1099.24 -3.91517 1.02454 0
M  V30 11481 H 1097.81 -3.10814 0.333676 0
M  V30 11482 H 1097.03 -2.77751 2.79729 0
M  V30 11483 H 1098.32 -3.90151 3.26588 0
M  V30 11484 H 1097.72 -5.62588 0.59259 0
M  V30 11485 H 1096.27 -6.4306 1.06382 0
M  V30 11486 N 1099.71 -1.29285 -0.901281 0
M  V30 11487 C 1100.62 -1.16161 -2.03823 0
M  V30 11488 C 1101.63 -0.0852298 -1.73791 0
M  V30 11489 O 1102.81 -0.29699 -1.99198 0
M  V30 11490 C 1099.87 -0.837586 -3.3643 0
M  V30 11491 C 1098.93 -1.99764 -3.7999 0
M  V30 11492 C 1098.17 -1.68898 -5.0627 0
M  V30 11493 O 1098.39 -0.609177 -5.67138 0
M  V30 11494 O 1097.32 -2.53648 -5.45845 0
M  V30 11495 H 1101.15 -2.11635 -2.17817 0
M  V30 11496 H 1098.74 -1.08722 -1.02468 0
M  V30 11497 H 1100.62 -0.671376 -4.16017 0
M  V30 11498 H 1099.29 0.0873811 -3.23582 0
M  V30 11499 H 1098.2 -2.21908 -3.01177 0
M  V30 11500 H 1099.53 -2.90376 -3.9742 0
M  V30 11501 N 1101.18 1.11143 -1.11736 0
M  V30 11502 C 1102.41 1.87285 -0.891007 0
M  V30 11503 C 1102.83 1.79758 0.553971 0
M  V30 11504 O 1102.19 1.16221 1.39149 0
M  V30 11505 C 1102.24 3.33924 -1.36114 0
M  V30 11506 O 1101.34 4.08917 -0.534851 0
M  V30 11507 H 1100.69 0.581418 -0.320701 0
M  V30 11508 H 1103.22 1.40469 -1.4876 0
M  V30 11509 H 1103.23 3.84772 -1.35701 0
M  V30 11510 H 1101.9 3.38719 -2.41334 0
M  V30 11511 H 1100.48 3.67954 -0.605355 0
M  V30 11512 N 1102.66 0.908147 1.28804 0
M  V30 11513 C 1104.08 0.605474 1.47669 0
M  V30 11514 C 1104.28 -0.850759 1.82659 0
M  V30 11515 O 1103.33 -1.63029 1.92816 0
M  V30 11516 C 1104.65 1.53856 2.58358 0
M  V30 11517 C 1106.2 1.54467 2.7223 0
M  V30 11518 C 1106.67 2.46424 3.86056 0
M  V30 11519 N 1108.16 2.44519 3.93402 0
M  V30 11520 C 1108.9 3.12371 4.80845 0
M  V30 11521 N 1108.39 3.89533 5.72919 0
M  V30 11522 N 1110.19 3.01486 4.74407 0
M  V30 11523 H 1102.34 1.84988 1.04371 0
M  V30 11524 H 1104.6 0.793132 0.519274 0
M  V30 11525 H 1104.31 2.57651 2.39393 0
M  V30 11526 H 1104.18 1.26543 3.5534 0
M  V30 11527 H 1106.57 0.514127 2.90587 0
M  V30 11528 H 1106.65 1.85821 1.75796 0
M  V30 11529 H 1106.29 3.49577 3.68454 0
M  V30 11530 H 1106.22 2.12375 4.81876 0
M  V30 11531 H 1108.71 1.88464 3.27551 0
M  V30 11532 H 1109.03 4.3834 6.36457 0
M  V30 11533 H 1107.37 3.93639 5.72777 0
M  V30 11534 H 1110.56 2.40713 4.01466 0
M  V30 11535 H 1110.73 3.5464 5.42342 0
M  V30 11536 N 1104.14 -1.42577 0.671525 0
M  V30 11537 C 1105.39 -2.01185 0.192051 0
M  V30 11538 C 1105.71 -1.53349 -1.20454 0
M  V30 11539 O 1104.98 -0.753781 -1.80817 0
M  V30 11540 H 1103.56 -0.743898 0.0680106 0
M  V30 11541 H 1106.22 -1.74539 0.8673 0
M  V30 11542 H 1105.32 -3.11516 0.190796 0
M  V30 11543 N 1105.62 -0.414636 -1.52048 0
M  V30 11544 C 1106.84 0.161137 -2.06773 0
M  V30 11545 C 1107.27 1.37628 -1.2822 0
M  V30 11546 O 1106.63 1.78562 -0.313915 0
M  V30 11547 C 1106.67 0.48452 -3.5733 0
M  V30 11548 O 1105.78 1.57466 -3.81154 0
M  V30 11549 H 1105.12 0.0118003 -0.663895 0
M  V30 11550 H 1107.65 -0.589424 -1.95926 0
M  V30 11551 H 1107.66 0.741567 -4.01204 0
M  V30 11552 H 1106.33 -0.403733 -4.13936 0
M  V30 11553 H 1104.91 1.30935 -3.49157 0
M  V30 11554 N 1107.1 1.56929 -0.145233 0
M  V30 11555 C 1108.32 2.00864 0.516564 0
M  V30 11556 C 1108.75 1.02466 1.57741 0
M  V30 11557 O 1108.1 0.000145439 1.813 0
M  V30 11558 C 1108.15 3.43552 1.09563 0
M  V30 11559 O 1107.26 3.4815 2.21055 0
M  V30 11560 H 1106.6 0.651835 0.126521 0
M  V30 11561 H 1109.13 2.0317 -0.241445 0
M  V30 11562 H 1109.14 3.82316 1.42473 0
M  V30 11563 H 1107.81 4.14677 0.318749 0
M  V30 11564 H 1106.39 3.21228 1.89387 0
M  V30 11565 N 1108.58 -0.128553 1.57075 0
M  V30 11566 C 1109.51 -1.18362 1.96273 0
M  V30 11567 C 1110.52 -1.3818 0.860818 0
M  V30 11568 O 1111.71 -1.37424 1.13916 0
M  V30 11569 C 1108.81 -2.54533 2.23755 0
M  V30 11570 C 1107.98 -2.55446 3.55058 0
M  V30 11571 C 1107.04 -3.73291 3.70864 0
M  V30 11572 O 1106.07 -3.57315 4.43074 0
M  V30 11573 N 1107.27 -4.91481 3.08912 0
M  V30 11574 H 1110.03 -0.850276 2.87385 0
M  V30 11575 H 1107.6 -0.317931 1.58748 0
M  V30 11576 H 1109.59 -3.31912 2.31553 0
M  V30 11577 H 1108.16 -2.80087 1.38816 0
M  V30 11578 H 1107.38 -1.6385 3.58534 0
M  V30 11579 H 1108.67 -2.53104 4.4138 0
M  V30 11580 H 1108.06 -5.07364 2.50196 0
M  V30 11581 H 1106.62 -5.6657 3.22245 0
M  V30 11582 N 1110.05 -1.5248 -0.398459 0
M  V30 11583 C 1111 -1.72965 -1.4855 0
M  V30 11584 C 1111.99 -0.583628 -1.49942 0
M  V30 11585 O 1113.18 -0.841106 -1.55738 0
M  V30 11586 C 1110.31 -1.89339 -2.86366 0
M  V30 11587 C 1109.39 -3.09845 -2.8958 0
M  V30 11588 N 1109.79 -4.32365 -2.62477 0
M  V30 11589 C 1108.08 -3.09897 -3.20749 0
M  V30 11590 C 1108.78 -5.13908 -2.72532 0
M  V30 11591 N 1107.76 -4.49387 -3.05864 0
M  V30 11592 H 1111.56 -2.65327 -1.26406 0
M  V30 11593 H 1109.08 -1.50658 -0.606299 0
M  V30 11594 H 1111.07 -2.02134 -3.64619 0
M  V30 11595 H 1109.73 -0.981841 -3.095 0
M  V30 11596 H 1110.74 -4.60659 -2.36673 0
M  V30 11597 H 1107.42 -2.28518 -3.49408 0
M  V30 11598 H 1108.81 -6.21548 -2.55202 0
M  V30 11599 N 1111.53 0.65634 -1.43283 0
M  V30 11600 C 1112.78 1.41212 -1.44021 0
M  V30 11601 C 1113.09 1.95485 -0.0669783 0
M  V30 11602 O 1114.3 2.71457 0.0481909 0
M  V30 11603 C 1112.76 2.55541 -2.5343 0
M  V30 11604 C 1112.36 2.07889 -3.96845 0
M  V30 11605 C 1114.11 3.3293 -2.63359 0
M  V30 11606 C 1112.01 3.19411 -4.97726 0
M  V30 11607 H 1110.94 0.530566 -0.535739 0
M  V30 11608 H 1113.6 0.708743 -1.6926 0
M  V30 11609 H 1111.98 3.28335 -2.21387 0
M  V30 11610 H 1113.15 1.42127 -4.38334 0
M  V30 11611 H 1111.47 1.43388 -3.90933 0
M  V30 11612 H 1114.06 4.1602 -3.35903 0
M  V30 11613 H 1114.41 3.80753 -1.68324 0
M  V30 11614 H 1114.94 2.67216 -2.94687 0
M  V30 11615 H 1111.68 2.7656 -5.94302 0
M  V30 11616 H 1111.2 3.83895 -4.60853 0
M  V30 11617 H 1112.88 3.84591 -5.20287 0
M  V30 11618 N 1113.01 1.29761 0.894412 0
M  V30 11619 C 1113.94 1.17902 2.01547 0
M  V30 11620 C 1114.92 0.0719402 1.69948 0
M  V30 11621 O 1116.11 0.252338 1.92554 0
M  V30 11622 C 1113.24 0.860262 3.36477 0
M  V30 11623 C 1112.19 1.92424 3.82305 0
M  V30 11624 C 1111.52 1.45868 5.14419 0
M  V30 11625 C 1112.82 3.33391 4.02054 0
M  V30 11626 H 1114.51 2.11688 2.11727 0
M  V30 11627 H 1112.06 1.01916 1.01731 0
M  V30 11628 H 1114.01 0.763987 4.14417 0
M  V30 11629 H 1112.73 -0.113289 3.26403 0
M  V30 11630 H 1111.39 2.00999 3.06586 0
M  V30 11631 H 1111.04 0.473654 5.00765 0
M  V30 11632 H 1110.74 2.17028 5.46052 0
M  V30 11633 H 1112.26 1.37601 5.94894 0
M  V30 11634 H 1113.68 3.27628 4.7046 0
M  V30 11635 H 1112.07 4.02555 4.4505 0
M  V30 11636 H 1113.14 3.75978 3.06216 0
M  V30 11637 N 1114.49 -1.10549 1.12324 0
M  V30 11638 C 1115.71 -1.8681 0.900927 0
M  V30 11639 C 1116.14 -1.80049 -0.54443 0
M  V30 11640 O 1115.5 -1.16957 -1.38531 0
M  V30 11641 C 1115.54 -3.33197 1.37883 0
M  V30 11642 O 1114.65 -4.08628 0.556529 0
M  V30 11643 H 1113.99 -0.579709 0.32378 0
M  V30 11644 H 1116.52 -1.39678 1.49503 0
M  V30 11645 H 1116.53 -3.84047 1.37739 0
M  V30 11646 H 1115.2 -3.37435 2.43127 0
M  V30 11647 H 1113.78 -3.67627 0.62486 0
M  V30 11648 N 1115.97 -0.914965 -1.28321 0
M  V30 11649 C 1117.19 -0.564023 -1.99583 0
M  V30 11650 C 1117.62 0.847821 -1.6791 0
M  V30 11651 O 1116.97 1.56682 -0.912171 0
M  V30 11652 C 1117.02 -0.781368 -3.52033 0
M  V30 11653 O 1116.13 0.159072 -4.12093 0
M  V30 11654 H 1115.47 -0.218565 -0.626997 0
M  V30 11655 H 1118 -1.23074 -1.63444 0
M  V30 11656 H 1118.01 -0.691946 -4.0209 0
M  V30 11657 H 1116.68 -1.81059 -3.7442 0
M  V30 11658 H 1115.26 0.0208145 -3.72894 0
M  V30 11659 N 1117.44 1.42219 -0.679077 0
M  V30 11660 C 1118.37 2.33493 -0.0174528 0
M  V30 11661 C 1119.35 1.50915 0.78477 0
M  V30 11662 O 1120.54 1.79504 0.741065 0
M  V30 11663 C 1117.67 3.34576 0.931463 0
M  V30 11664 C 1116.62 4.2734 0.237527 0
M  V30 11665 C 1115.95 5.18664 1.29967 0
M  V30 11666 C 1117.25 5.14729 -0.886082 0
M  V30 11667 H 1118.94 2.89068 -0.779748 0
M  V30 11668 H 1116.49 1.38993 -0.376419 0
M  V30 11669 H 1118.44 3.97343 1.40343 0
M  V30 11670 H 1117.17 2.77315 1.72523 0
M  V30 11671 H 1115.83 3.65973 -0.214245 0
M  V30 11672 H 1115.47 4.57727 2.08554 0
M  V30 11673 H 1115.17 5.81558 0.840463 0
M  V30 11674 H 1116.7 5.84308 1.77249 0
M  V30 11675 H 1118.11 5.71158 -0.495141 0
M  V30 11676 H 1116.51 5.86478 -1.27135 0
M  V30 11677 H 1117.58 4.52874 -1.733 0
M  V30 11678 N 1118.92 0.422693 1.51826 0
M  V30 11679 C 1120.34 0.0742364 1.59427 0
M  V30 11680 C 1120.54 -1.41491 1.43466 0
M  V30 11681 O 1119.59 -2.18326 1.26846 0
M  V30 11682 C 1120.91 0.581272 2.95028 0
M  V30 11683 C 1122.45 0.54043 3.08299 0
M  V30 11684 C 1122.93 1.0242 4.46401 0
M  V30 11685 N 1124.42 0.981576 4.5268 0
M  V30 11686 C 1125.16 1.32693 5.57835 0
M  V30 11687 N 1124.65 1.74441 6.70479 0
M  V30 11688 N 1126.44 1.24603 5.48115 0
M  V30 11689 H 1118.6 1.39178 1.60447 0
M  V30 11690 H 1120.86 0.572607 0.75553 0
M  V30 11691 H 1120.56 1.62261 3.12032 0
M  V30 11692 H 1120.44 -0.00176969 3.772 0
M  V30 11693 H 1122.83 -0.491895 2.90971 0
M  V30 11694 H 1122.91 1.15969 2.28002 0
M  V30 11695 H 1122.55 2.05491 4.64474 0
M  V30 11696 H 1122.48 0.381613 5.25215 0
M  V30 11697 H 1124.97 0.674808 3.71826 0
M  V30 11698 H 1125.28 1.99068 7.46721 0
M  V30 11699 H 1123.63 1.78356 6.71725 0
M  V30 11700 H 1126.82 0.918641 4.58997 0
M  V30 11701 H 1126.99 1.51847 6.29958 0
M  V30 11702 N 1120.4 -1.5685 0.153553 0
M  V30 11703 C 1121.65 -1.96334 -0.495915 0
M  V30 11704 C 1121.97 -1.03873 -1.64441 0
M  V30 11705 O 1121.23 -0.069231 -1.95578 0
M  V30 11706 C 1121.53 -3.42022 -1.0371 0
M  V30 11707 C 1121.19 -4.509 -0.00637049 0
M  V30 11708 C 1119.86 -4.80402 0.276956 0
M  V30 11709 C 1122.21 -5.16556 0.694187 0
M  V30 11710 C 1119.54 -5.72866 1.26653 0
M  V30 11711 C 1121.89 -6.10087 1.67263 0
M  V30 11712 C 1120.55 -6.37965 1.96359 0
M  V30 11713 H 1119.82 -0.718436 -0.181468 0
M  V30 11714 H 1122.47 -1.89968 0.241768 0
M  V30 11715 H 1120.77 -3.45252 -1.85225 0
M  V30 11716 H 1122.47 -3.69903 -1.54831 0
M  V30 11717 H 1119.06 -4.27942 -0.237378 0
M  V30 11718 H 1123.25 -4.9389 0.488496 0
M  V30 11719 H 1118.5 -5.92756 1.49833 0
M  V30 11720 H 1122.68 -6.60036 2.22094 0
M  V30 11721 H 1120.3 -7.09416 2.73189 0
M  V30 11722 N 1121.88 0.120221 -1.57141 0
M  V30 11723 C 1123.12 0.829449 -1.85062 0
M  V30 11724 C 1123.46 1.79585 -0.739116 0
M  V30 11725 O 1122.73 1.92819 0.255147 0
M  V30 11726 C 1123.01 1.58042 -3.23566 0
M  V30 11727 C 1122.87 0.633706 -4.45314 0
M  V30 11728 C 1124.19 2.53688 -3.59625 0
M  V30 11729 H 1121.31 0.300086 -0.67314 0
M  V30 11730 H 1123.95 0.0937393 -1.89769 0
M  V30 11731 H 1122.1 2.20758 -3.19684 0
M  V30 11732 H 1123.77 0.0154836 -4.61297 0
M  V30 11733 H 1122.01 -0.054846 -4.33765 0
M  V30 11734 H 1122.68 1.19577 -5.38893 0
M  V30 11735 H 1125.16 2.01078 -3.6429 0
M  V30 11736 H 1124.04 3.03265 -4.57516 0
M  V30 11737 H 1124.3 3.36296 -2.8698 0
M  V30 11738 N 1123.36 1.52689 0.390367 0
M  V30 11739 C 1124.6 1.67666 1.13553 0
M  V30 11740 C 1124.93 0.415903 1.90001 0
M  V30 11741 O 1124.19 -0.601664 1.86222 0
M  V30 11742 C 1124.49 2.86177 2.14096 0
M  V30 11743 C 1124.15 4.23671 1.54316 0
M  V30 11744 C 1122.81 4.61066 1.37739 0
M  V30 11745 C 1125.17 5.09278 1.1084 0
M  V30 11746 C 1122.49 5.81727 0.76231 0
M  V30 11747 C 1124.85 6.30562 0.507433 0
M  V30 11748 C 1123.51 6.66689 0.328945 0
M  V30 11749 H 1122.78 0.613533 0.415521 0
M  V30 11750 H 1125.43 1.8683 0.420339 0
M  V30 11751 H 1123.73 2.61424 2.9183 0
M  V30 11752 H 1125.43 2.9496 2.7166 0
M  V30 11753 H 1122.02 3.94214 1.68207 0
M  V30 11754 H 1126.2 4.80957 1.2245 0
M  V30 11755 H 1121.46 6.08327 0.612208 0
M  V30 11756 H 1125.63 6.96211 0.162248 0
M  V30 11757 H 1123.26 7.60052 -0.149748 0
M  V30 11758 N 1124.83 -0.648732 1.43629 0
M  V30 11759 C 1126.07 -1.42032 1.46991 0
M  V30 11760 C 1126.44 -1.91774 0.0931841 0
M  V30 11761 O 1127.64 -2.688 0.00148504 0
M  V30 11762 C 1125.91 -2.56693 2.48684 0
M  V30 11763 S 1127.47 -3.45149 2.70956 0
M  V30 11764 H 1124.29 -0.484772 0.520113 0
M  V30 11765 H 1126.89 -0.75274 1.80427 0
M  V30 11766 H 1125.59 -2.18431 3.47442 0
M  V30 11767 H 1125.12 -3.28296 2.1676 0
M  V30 11768 H 1127.14 -4.53569 2.01221 0
M  V30 11769 N 1126.31 -1.30234 -0.887518 0
M  V30 11770 C 1127.56 -1.1891 -1.6391 0
M  V30 11771 C 1127.89 0.256749 -1.92798 0
M  V30 11772 O 1127.14 1.20047 -1.54555 0
M  V30 11773 C 1127.44 -1.96046 -2.98832 0
M  V30 11774 C 1127.11 -3.45683 -2.89507 0
M  V30 11775 C 1125.77 -3.86489 -2.8667 0
M  V30 11776 C 1128.12 -4.40983 -2.7782 0
M  V30 11777 C 1125.45 -5.2089 -2.69982 0
M  V30 11778 C 1127.8 -5.75489 -2.6267 0
M  V30 11779 C 1126.47 -6.15537 -2.58207 0
M  V30 11780 H 1125.74 -0.435123 -0.599791 0
M  V30 11781 H 1128.38 -1.61308 -1.03209 0
M  V30 11782 H 1126.69 -1.46275 -3.6347 0
M  V30 11783 H 1128.38 -1.84678 -3.55942 0
M  V30 11784 H 1124.97 -3.13255 -2.92523 0
M  V30 11785 H 1129.16 -4.10401 -2.79079 0
M  V30 11786 H 1124.41 -5.51014 -2.6494 0
M  V30 11787 H 1128.59 -6.48973 -2.526 0
M  V30 11788 H 1126.22 -7.19627 -2.45034 0
M  V30 11789 N 1127.79 1.09952 -1.12909 0
M  V30 11790 C 1129.2 1.63516 -0.901087 0
M  V30 11791 C 1129.55 1.87932 0.563547 0
M  V30 11792 O 1128.68 1.625 1.42908 0
M  V30 11793 C 1129.27 2.97054 -1.62924 0
M  V30 11794 C 1127.83 3.47464 -1.44725 0
M  V30 11795 C 1126.98 2.21979 -1.66194 0
M  V30 11796 H 1129.93 0.933858 -1.28315 0
M  V30 11797 H 1129.95 3.64757 -1.08318 0
M  V30 11798 H 1129.46 2.79251 -2.69519 0
M  V30 11799 H 1127.56 3.70402 -0.40409 0
M  V30 11800 H 1127.68 4.25254 -2.20671 0
M  V30 11801 H 1126.04 2.30368 -1.0864 0
M  V30 11802 H 1126.82 2.06702 -2.74097 0
M  V30 11803 N 1129.27 0.921757 1.27833 0
M  V30 11804 C 1130.22 0.387357 2.24685 0
M  V30 11805 C 1131.2 -0.505036 1.52768 0
M  V30 11806 O 1132.39 -0.34345 1.73636 0
M  V30 11807 C 1129.52 -0.364168 3.41363 0
M  V30 11808 C 1128.61 0.544401 4.20591 0
M  V30 11809 N 1129 1.66158 4.77729 0
M  V30 11810 C 1127.3 0.346289 4.44654 0
M  V30 11811 C 1128 2.22619 5.37416 0
M  V30 11812 N 1126.98 1.51648 5.22019 0
M  V30 11813 H 1130.78 1.24045 2.6644 0
M  V30 11814 H 1128.29 0.775338 1.42696 0
M  V30 11815 H 1130.29 -0.763917 4.09841 0
M  V30 11816 H 1128.95 -1.21426 3.01141 0
M  V30 11817 H 1129.96 2.04406 4.75856 0
M  V30 11818 H 1126.64 -0.46363 4.14918 0
M  V30 11819 H 1128.03 3.16641 5.92611 0
M  V30 11820 N 1130.75 -1.41857 0.686609 0
M  V30 11821 C 1131.99 -2.0097 0.213378 0
M  V30 11822 C 1132.32 -1.54618 -1.1882 0
M  V30 11823 O 1131.59 -0.772916 -1.80008 0
M  V30 11824 H 1130.17 -0.743134 0.0758968 0
M  V30 11825 H 1132.83 -1.73609 0.885763 0
M  V30 11826 H 1131.92 -3.11296 0.223826 0
M  V30 11827 N 1132.22 -0.430739 -1.51599 0
M  V30 11828 C 1133.5 0.197543 -1.946 0
M  V30 11829 C 1133.88 1.6069 -1.36901 0
M  V30 11830 O 1133.23 2.21697 -0.553422 0
M  V30 11831 C 1133.44 0.181976 -3.48525 0
M  V30 11832 C 1134.79 0.390783 -4.22798 0
M  V30 11833 O 1135.81 0.260384 -3.55247 0
M  V30 11834 O 1134.67 0.649701 -5.42624 0
M  V30 11835 H 1131.76 0.133524 -0.81615 0
M  V30 11836 H 1134.31 -0.488243 -1.62525 0
M  V30 11837 H 1133.08 -0.803584 -3.8296 0
M  V30 11838 H 1132.71 0.910952 -3.87024 0
M  V30 11839 N 1133.7 1.56767 -0.161869 0
M  V30 11840 C 1134.63 2.20511 0.767918 0
M  V30 11841 C 1135.61 1.15783 1.24612 0
M  V30 11842 O 1136.8 1.44179 1.301 0
M  V30 11843 C 1133.93 2.83844 2.00125 0
M  V30 11844 C 1132.88 3.94528 1.65926 0
M  V30 11845 C 1132.21 4.44866 2.96646 0
M  V30 11846 C 1133.51 5.14583 0.894497 0
M  V30 11847 H 1135.2 2.98464 0.236607 0
M  V30 11848 H 1132.75 1.43561 0.112363 0
M  V30 11849 H 1134.7 3.27109 2.65664 0
M  V30 11850 H 1133.43 2.03246 2.55654 0
M  V30 11851 H 1132.08 3.51904 1.02759 0
M  V30 11852 H 1131.73 3.61071 3.50196 0
M  V30 11853 H 1131.43 5.19531 2.74521 0
M  V30 11854 H 1132.96 4.90812 3.6323 0
M  V30 11855 H 1134.37 5.54601 1.45228 0
M  V30 11856 H 1132.77 5.95105 0.772636 0
M  V30 11857 H 1133.84 4.84773 -0.110986 0
M  V30 11858 N 1135.18 -0.111886 1.57202 0
M  V30 11859 C 1136.41 -0.832407 1.89416 0
M  V30 11860 C 1136.82 -1.73096 0.753861 0
M  V30 11861 O 1136.18 -1.80416 -0.274992 0
M  V30 11862 C 1136.23 -1.65988 3.21139 0
M  V30 11863 O 1135.95 -0.797485 4.3078 0
M  V30 11864 C 1137.45 -2.48493 3.67105 0
M  V30 11865 H 1134.67 -0.238919 0.627024 0
M  V30 11866 H 1137.22 -0.0941456 2.04283 0
M  V30 11867 H 1135.37 -2.35082 3.07921 0
M  V30 11868 H 1135.79 -1.36892 5.06321 0
M  V30 11869 H 1137.26 -3.02072 4.62014 0
M  V30 11870 H 1137.74 -3.26182 2.94112 0
M  V30 11871 H 1138.34 -1.84628 3.83135 0
M  V30 11872 N 1136.66 -1.52894 -0.382264 0
M  V30 11873 C 1137.57 -1.81084 -1.4915 0
M  V30 11874 C 1138.58 -0.698045 -1.59384 0
M  V30 11875 O 1139.76 -0.98635 -1.75594 0
M  V30 11876 C 1136.83 -1.97987 -2.84608 0
M  V30 11877 C 1135.89 -3.219 -2.8404 0
M  V30 11878 C 1135.12 -3.37988 -4.13037 0
M  V30 11879 O 1135.34 -2.58733 -5.08344 0
M  V30 11880 O 1134.28 -4.31273 -4.19866 0
M  V30 11881 H 1138.1 -2.75289 -1.28257 0
M  V30 11882 H 1135.69 -1.38068 -0.57076 0
M  V30 11883 H 1137.57 -2.10773 -3.64901 0
M  V30 11884 H 1136.24 -1.06972 -3.05514 0
M  V30 11885 H 1135.15 -3.14551 -2.02505 0
M  V30 11886 H 1136.48 -4.12783 -2.68087 0
M  V30 11887 N 1138.14 0.641106 -1.43971 0
M  V30 11888 C 1139.38 1.40084 -1.46228 0
M  V30 11889 C 1139.71 1.94287 -0.0911011 0
M  V30 11890 O 1138.97 1.73481 0.905688 0
M  V30 11891 C 1139.27 2.59092 -2.46183 0
M  V30 11892 C 1138.93 2.23237 -3.9176 0
M  V30 11893 C 1137.59 2.13171 -4.31407 0
M  V30 11894 C 1139.95 1.94746 -4.83449 0
M  V30 11895 C 1137.27 1.72788 -5.60679 0
M  V30 11896 C 1139.63 1.55858 -6.13099 0
M  V30 11897 C 1138.29 1.44326 -6.5171 0
M  V30 11898 H 1137.56 0.512603 -0.535088 0
M  V30 11899 H 1140.21 0.727956 -1.77124 0
M  V30 11900 H 1138.51 3.31568 -2.08734 0
M  V30 11901 H 1140.21 3.17313 -2.4518 0
M  V30 11902 H 1136.8 2.31986 -3.60389 0
M  V30 11903 H 1140.98 2.01438 -4.53582 0
M  V30 11904 H 1136.24 1.62455 -5.89422 0
M  V30 11905 H 1140.41 1.32848 -6.83611 0
M  V30 11906 H 1138.04 1.12806 -7.51784 0
M  V30 11907 N 1139.62 1.30703 0.880598 0
M  V30 11908 C 1140.86 1.19541 1.62955 0
M  V30 11909 C 1141.18 -0.249089 1.93403 0
M  V30 11910 O 1140.45 -1.1669 1.57354 0
M  V30 11911 H 1139.03 0.439434 0.604075 0
M  V30 11912 H 1141.7 1.63888 1.05483 0
M  V30 11913 H 1140.79 1.75945 2.57779 0
M  V30 11914 N 1141.09 -1.09351 1.1349 0
M  V30 11915 C 1142.34 -1.81543 0.897123 0
M  V30 11916 C 1142.67 -1.85754 -0.576703 0
M  V30 11917 O 1141.92 -1.32213 -1.44285 0
M  V30 11918 C 1142.22 -3.27498 1.43108 0
M  V30 11919 C 1141.89 -3.4342 2.92188 0
M  V30 11920 C 1140.55 -3.47473 3.32891 0
M  V30 11921 C 1142.9 -3.47894 3.88097 0
M  V30 11922 C 1140.23 -3.5358 4.68186 0
M  V30 11923 C 1142.58 -3.55535 5.23238 0
M  V30 11924 C 1141.25 -3.57857 5.63467 0
M  V30 11925 H 1140.52 -0.664314 0.32828 0
M  V30 11926 H 1143.16 -1.28819 1.41697 0
M  V30 11927 H 1141.47 -3.82865 0.831946 0
M  V30 11928 H 1143.17 -3.8189 1.22316 0
M  V30 11929 H 1139.76 -3.4095 2.59713 0
M  V30 11930 H 1143.94 -3.44002 3.57737 0
M  V30 11931 H 1139.2 -3.53665 4.9873 0
M  V30 11932 H 1143.37 -3.57942 5.9737 0
M  V30 11933 H 1141 -3.62341 6.68291 0
M  V30 11934 N 1142.57 -0.928524 -1.27343 0
M  V30 11935 C 1143.5 -0.445627 -2.29208 0
M  V30 11936 C 1144.48 0.494508 -1.62753 0
M  V30 11937 O 1145.67 0.399082 -1.90055 0
M  V30 11938 C 1142.8 0.301684 -3.45987 0
M  V30 11939 C 1141.75 -0.550695 -4.24442 0
M  V30 11940 C 1141.08 0.325833 -5.33706 0
M  V30 11941 C 1142.38 -1.81559 -4.89728 0
M  V30 11942 H 1144.07 -1.29696 -2.69851 0
M  V30 11943 H 1141.62 -0.625085 -1.29725 0
M  V30 11944 H 1143.57 0.650455 -4.1635 0
M  V30 11945 H 1142.29 1.18705 -3.04264 0
M  V30 11946 H 1140.95 -0.882185 -3.55827 0
M  V30 11947 H 1140.6 1.21018 -4.88225 0
M  V30 11948 H 1140.3 -0.240994 -5.87106 0
M  V30 11949 H 1141.83 0.670156 -6.06911 0
M  V30 11950 H 1143.24 -1.53483 -5.52373 0
M  V30 11951 H 1141.64 -2.32598 -5.53189 0
M  V30 11952 H 1142.71 -2.53461 -4.13383 0
M  V30 11953 N 1144.05 1.41491 -0.694123 0
M  V30 11954 C 1144.98 2.28189 0.0226347 0
M  V30 11955 C 1145.96 1.42152 0.7894 0
M  V30 11956 O 1147.14 1.71581 0.780519 0
M  V30 11957 C 1144.27 3.22357 1.03942 0
M  V30 11958 C 1143.32 4.24927 0.365994 0
M  V30 11959 S 1144.15 5.28043 -0.890562 0
M  V30 11960 C 1145.31 6.25776 0.124665 0
M  V30 11961 H 1145.54 2.88631 -0.712698 0
M  V30 11962 H 1143.07 1.46607 -0.484344 0
M  V30 11963 H 1145.03 3.77143 1.62091 0
M  V30 11964 H 1143.69 2.61013 1.74732 0
M  V30 11965 H 1142.88 4.9108 1.13388 0
M  V30 11966 H 1142.49 3.73729 -0.142389 0
M  V30 11967 H 1144.78 6.70398 0.978393 0
M  V30 11968 H 1145.72 7.06312 -0.502901 0
M  V30 11969 H 1146.13 5.62466 0.478792 0
M  V30 11970 N 1145.53 0.438773 1.51369 0
M  V30 11971 C 1146.94 -0.0240139 1.86685 0
M  V30 11972 C 1147.29 -1.41816 1.35583 0
M  V30 11973 O 1146.41 -2.04517 0.707232 0
M  V30 11974 C 1147.01 -0.0503527 3.38763 0
M  V30 11975 C 1145.57 -0.457556 3.73609 0
M  V30 11976 C 1144.72 0.348852 2.75097 0
M  V30 11977 H 1147.67 0.654552 1.44573 0
M  V30 11978 H 1147.69 -0.859534 3.70665 0
M  V30 11979 H 1147.2 0.964451 3.75925 0
M  V30 11980 H 1145.3 -1.47791 3.42036 0
M  V30 11981 H 1145.41 -0.181357 4.78757 0
M  V30 11982 H 1143.78 -0.193037 2.53967 0
M  V30 11983 H 1144.56 1.36256 3.15102 0
M  V30 11984 N 1147.01 -1.56678 0.170181 0
M  V30 11985 C 1147.92 -2.21496 -0.773079 0
M  V30 11986 C 1148.93 -1.20626 -1.25401 0
M  V30 11987 O 1150.11 -1.53283 -1.30638 0
M  V30 11988 C 1147.17 -2.8421 -1.98558 0
M  V30 11989 C 1146.23 -4.00278 -1.55164 0
M  V30 11990 C 1145.47 -4.59992 -2.70634 0
M  V30 11991 O 1145.69 -4.18595 -3.87472 0
M  V30 11992 O 1144.62 -5.49881 -2.44775 0
M  V30 11993 H 1148.45 -3.02659 -0.251195 0
M  V30 11994 H 1146.03 -1.49288 -0.0579621 0
M  V30 11995 H 1147.92 -3.2398 -2.69472 0
M  V30 11996 H 1146.59 -2.06045 -2.49654 0
M  V30 11997 H 1145.5 -3.6518 -0.812038 0
M  V30 11998 H 1146.83 -4.80033 -1.0876 0
M  V30 11999 N 1148.48 0.103547 -1.57259 0
M  V30 12000 C 1149.41 1.12714 -2.04494 0
M  V30 12001 C 1150.39 1.42278 -0.932255 0
M  V30 12002 O 1151.58 1.52453 -1.20298 0
M  V30 12003 C 1148.71 2.44927 -2.46228 0
M  V30 12004 C 1147.66 2.2979 -3.61082 0
M  V30 12005 C 1146.99 3.67105 -3.88765 0
M  V30 12006 C 1148.29 1.7455 -4.9227 0
M  V30 12007 H 1149.98 0.734198 -2.90258 0
M  V30 12008 H 1147.53 0.351725 -1.39638 0
M  V30 12009 H 1149.48 3.16798 -2.77879 0
M  V30 12010 H 1148.21 2.8614 -1.57453 0
M  V30 12011 H 1146.87 1.60366 -3.29664 0
M  V30 12012 H 1146.51 4.05831 -2.97171 0
M  V30 12013 H 1146.21 3.57825 -4.66084 0
M  V30 12014 H 1147.74 4.40456 -4.22884 0
M  V30 12015 H 1149.15 2.36253 -5.22358 0
M  V30 12016 H 1147.55 1.76051 -5.73695 0
M  V30 12017 H 1148.62 0.704242 -4.79759 0
M  V30 12018 N 1149.96 1.53094 0.37415 0
M  V30 12019 C 1151.2 1.70558 1.12647 0
M  V30 12020 C 1151.57 0.443515 1.86807 0
M  V30 12021 O 1152.77 0.49472 2.64208 0
M  V30 12022 C 1151.04 2.91565 2.06699 0
M  V30 12023 S 1152.6 3.29692 2.89567 0
M  V30 12024 H 1149.41 0.600238 0.381097 0
M  V30 12025 H 1152.02 1.91177 0.408865 0
M  V30 12026 H 1150.72 3.81625 1.50965 0
M  V30 12027 H 1150.25 2.73323 2.82945 0
M  V30 12028 H 1152.27 2.81036 4.08942 0
M  V30 12029 N 1151.44 -0.633461 1.44309 0
M  V30 12030 C 1152.37 -1.75676 1.53819 0
M  V30 12031 C 1153.35 -1.65537 0.391365 0
M  V30 12032 O 1154.54 -1.84332 0.611181 0
M  V30 12033 C 1151.67 -3.14197 1.47979 0
M  V30 12034 C 1150.62 -3.39122 2.61113 0
M  V30 12035 C 1149.95 -4.77648 2.40325 0
M  V30 12036 C 1151.25 -3.31914 4.03274 0
M  V30 12037 H 1152.94 -1.67974 2.47841 0
M  V30 12038 H 1150.49 -0.8067 1.19283 0
M  V30 12039 H 1152.44 -3.92553 1.53233 0
M  V30 12040 H 1151.16 -3.22677 0.504718 0
M  V30 12041 H 1149.82 -2.63145 2.55245 0
M  V30 12042 H 1149.47 -4.82829 1.41016 0
M  V30 12043 H 1149.17 -4.95284 3.16177 0
M  V30 12044 H 1150.69 -5.58237 2.47394 0
M  V30 12045 H 1152.11 -4.00178 4.10524 0
M  V30 12046 H 1150.5 -3.61085 4.7931 0
M  V30 12047 H 1151.57 -2.29761 4.2701 0
M  V30 12048 N 1152.92 -1.31168 -0.873655 0
M  V30 12049 C 1154.16 -1.20821 -1.62881 0
M  V30 12050 C 1154.5 0.233994 -1.92785 0
M  V30 12051 O 1153.77 1.16588 -1.55684 0
M  V30 12052 C 1154.06 -2.04875 -2.96139 0
M  V30 12053 C 1153.91 -3.57375 -2.73136 0
M  V30 12054 C 1155.23 -1.8953 -3.97198 0
M  V30 12055 H 1152.35 -0.44026 -0.59105 0
M  V30 12056 H 1154.99 -1.6092 -1.01019 0
M  V30 12057 H 1153.14 -1.70806 -3.48938 0
M  V30 12058 H 1154.81 -4.01561 -2.27038 0
M  V30 12059 H 1153.05 -3.8099 -2.07434 0
M  V30 12060 H 1153.72 -4.1149 -3.6794 0
M  V30 12061 H 1156.2 -2.19337 -3.53596 0
M  V30 12062 H 1155.08 -2.5065 -4.8833 0
M  V30 12063 H 1155.34 -0.857576 -4.33703 0
M  V30 12064 N 1154.4 1.08748 -1.14068 0
M  V30 12065 C 1155.33 2.17591 -0.84714 0
M  V30 12066 C 1156.31 1.68962 0.196415 0
M  V30 12067 O 1157.49 1.94125 0.0538415 0
M  V30 12068 C 1154.62 3.45823 -0.320005 0
M  V30 12069 C 1153.58 4.07824 -1.2986 0
M  V30 12070 C 1152.9 5.30965 -0.630925 0
M  V30 12071 C 1154.2 4.49512 -2.65963 0
M  V30 12072 H 1155.9 2.42404 -1.75729 0
M  V30 12073 H 1153.44 1.16502 -0.846356 0
M  V30 12074 H 1155.4 4.21276 -0.102271 0
M  V30 12075 H 1154.12 3.20553 0.625561 0
M  V30 12076 H 1152.78 3.34398 -1.50245 0
M  V30 12077 H 1152.43 5.01979 0.320337 0
M  V30 12078 H 1152.13 5.73402 -1.28388 0
M  V30 12079 H 1153.65 6.09136 -0.422635 0
M  V30 12080 H 1155.06 5.16159 -2.49506 0
M  V30 12081 H 1153.46 5.02857 -3.27498 0
M  V30 12082 H 1154.53 3.6157 -3.23102 0
M  V30 12083 N 1155.87 0.935264 1.26849 0
M  V30 12084 C 1156.82 0.438896 2.26588 0
M  V30 12085 C 1157.79 -0.498267 1.5845 0
M  V30 12086 O 1158.98 -0.415771 1.86215 0
M  V30 12087 C 1156.12 -0.295293 3.43834 0
M  V30 12088 C 1155.23 0.676857 4.26665 0
M  V30 12089 C 1154.36 -0.0779349 5.31143 0
M  V30 12090 C 1153.4 0.886425 6.05648 0
M  V30 12091 N 1152.54 0.163771 7.01909 0
M  V30 12092 H 1157.38 1.29439 2.6842 0
M  V30 12093 H 1154.92 0.649523 1.31983 0
M  V30 12094 H 1156.88 -0.737354 4.10632 0
M  V30 12095 H 1155.51 -1.11497 3.02933 0
M  V30 12096 H 1154.56 1.23744 3.5971 0
M  V30 12097 H 1155.87 1.41355 4.78351 0
M  V30 12098 H 1155.02 -0.579557 6.03926 0
M  V30 12099 H 1153.76 -0.84755 4.80279 0
M  V30 12100 H 1152.77 1.39923 5.31697 0
M  V30 12101 H 1153.99 1.65595 6.58601 0
M  V30 12102 H 1151.94 -0.58746 6.53364 0
M  V30 12103 H 1151.86 0.839902 7.5132 0
M  V30 12104 H 1153.12 -0.316951 7.78855 0
M  V30 12105 N 1157.35 -1.41121 0.701616 0
M  V30 12106 C 1158.6 -2.01428 0.235495 0
M  V30 12107 C 1158.93 -1.55463 -1.16382 0
M  V30 12108 O 1158.21 -0.768477 -1.78675 0
M  V30 12109 C 1158.49 -3.58849 0.299919 0
M  V30 12110 C 1158.34 -4.14924 1.73661 0
M  V30 12111 C 1159.66 -4.38809 -0.336856 0
M  V30 12112 H 1156.78 -0.731842 0.0870456 0
M  V30 12113 H 1159.42 -1.67787 0.891479 0
M  V30 12114 H 1157.57 -3.87638 -0.258611 0
M  V30 12115 H 1159.24 -3.96987 2.34945 0
M  V30 12116 H 1157.49 -3.69738 2.26884 0
M  V30 12117 H 1158.16 -5.24085 1.73318 0
M  V30 12118 H 1160.63 -4.15868 0.138886 0
M  V30 12119 H 1159.51 -5.48278 -0.261264 0
M  V30 12120 H 1159.77 -4.18728 -1.41843 0
M  V30 12121 N 1158.83 -0.446794 -1.51134 0
M  V30 12122 C 1160.25 -0.0995905 -1.59289 0
M  V30 12123 C 1160.45 1.39191 -1.45699 0
M  V30 12124 O 1159.5 2.1628 -1.30303 0
M  V30 12125 C 1160.82 -0.628135 -2.94066 0
M  V30 12126 C 1162.36 -0.589409 -3.074 0
M  V30 12127 C 1162.84 -1.09509 -4.44715 0
M  V30 12128 N 1164.33 -1.05347 -4.51061 0
M  V30 12129 C 1165.06 -1.41551 -5.55654 0
M  V30 12130 N 1164.56 -1.85086 -6.67619 0
M  V30 12131 N 1166.35 -1.33307 -5.46064 0
M  V30 12132 H 1158.5 -1.41713 -1.58213 0
M  V30 12133 H 1160.77 -0.584555 -0.746324 0
M  V30 12134 H 1160.47 -1.67205 -3.09411 0
M  V30 12135 H 1160.35 -0.0582398 -3.77155 0
M  V30 12136 H 1162.73 0.445541 -2.91717 0
M  V30 12137 H 1162.82 -1.19582 -2.26128 0
M  V30 12138 H 1162.46 -2.12855 -4.61146 0
M  V30 12139 H 1162.39 -0.465122 -5.24542 0
M  V30 12140 H 1164.88 -0.733877 -3.70706 0
M  V30 12141 H 1165.19 -2.10923 -7.43459 0
M  V30 12142 H 1163.54 -1.8902 -6.68802 0
M  V30 12143 H 1166.73 -0.991547 -4.57478 0
M  V30 12144 H 1166.9 -1.6185 -6.27462 0
M  V30 12145 N 1160.31 1.56586 -0.178487 0
M  V30 12146 C 1161.26 2.1491 0.761432 0
M  V30 12147 C 1162.24 1.08528 1.18788 0
M  V30 12148 O 1163.43 1.34633 1.14904 0
M  V30 12149 C 1160.56 2.79902 1.98771 0
M  V30 12150 C 1159.65 3.93452 1.58293 0
M  V30 12151 N 1160.04 4.97942 0.888124 0
M  V30 12152 C 1158.34 4.04745 1.87343 0
M  V30 12153 C 1159.04 5.7762 0.68772 0
M  V30 12154 N 1158.02 5.2947 1.23136 0
M  V30 12155 H 1161.82 2.93063 0.221693 0
M  V30 12156 H 1159.33 1.62385 0.0219283 0
M  V30 12157 H 1161.33 3.20067 2.67138 0
M  V30 12158 H 1159.99 2.03232 2.53233 0
M  V30 12159 H 1161 5.1502 0.545387 0
M  V30 12160 H 1157.68 3.39186 2.43432 0
M  V30 12161 H 1159.07 6.71759 0.13775 0
M  V30 12162 N 1161.79 -0.095206 1.57312 0
M  V30 12163 C 1163.01 -0.81614 1.90667 0
M  V30 12164 C 1163.44 -1.71494 0.772746 0
M  V30 12165 O 1162.79 -1.79192 -0.275682 0
M  V30 12166 C 1162.84 -1.60555 3.22885 0
M  V30 12167 O 1161.95 -2.71448 3.10467 0
M  V30 12168 H 1161.29 -0.224217 0.624998 0
M  V30 12169 H 1163.82 -0.070464 2.04479 0
M  V30 12170 H 1163.83 -1.98979 3.5619 0
M  V30 12171 H 1162.5 -0.945918 4.05 0
M  V30 12172 H 1161.08 -2.36053 2.88675 0
M  V30 12173 N 1163.26 -1.53291 -0.366026 0
M  V30 12174 C 1164.17 -1.82656 -1.47221 0
M  V30 12175 C 1165.19 -0.71491 -1.58635 0
M  V30 12176 O 1166.37 -1.00492 -1.74538 0
M  V30 12177 C 1163.43 -2.00995 -2.82492 0
M  V30 12178 C 1162.49 -3.24895 -2.8061 0
M  V30 12179 C 1161.73 -3.4235 -4.09429 0
M  V30 12180 O 1161.95 -2.6411 -5.05571 0
M  V30 12181 O 1160.88 -4.35702 -4.15268 0
M  V30 12182 H 1164.71 -2.76634 -1.2533 0
M  V30 12183 H 1162.29 -1.38665 -0.556084 0
M  V30 12184 H 1164.18 -2.14632 -3.62645 0
M  V30 12185 H 1162.85 -1.10207 -3.04362 0
M  V30 12186 H 1161.76 -3.16682 -1.99157 0
M  V30 12187 H 1163.09 -4.15604 -2.63694 0
M  V30 12188 N 1164.74 0.6258 -1.44643 0
M  V30 12189 C 1165.69 1.75869 -1.52226 0
M  V30 12190 C 1166.68 1.64765 -0.39355 0
M  V30 12191 O 1167.89 1.70779 -0.568718 0
M  V30 12192 H 1164.27 0.580712 -0.477784 0
M  V30 12193 H 1166.24 1.66596 -2.47565 0
M  V30 12194 C 1164.99 3.14217 -1.48873 0
M  V30 12195 H 1164.31 3.23411 -2.35043 0
M  V30 12196 H 1165.75 3.93365 -1.58239 0
M  V30 12197 C 1164.21 3.36243 -0.210299 0
M  V30 12198 O 1164.74 3.95243 0.717335 0
M  V30 12199 N 1162.94 2.90385 -0.111744 0
M  V30 12200 H 1162.49 2.42555 -0.867466 0
M  V30 12201 H 1162.45 3.05498 0.742871 0
M  V30 12202 N 1166.22 1.31629 0.866686 0
M  V30 12203 C 1167.45 1.24474 1.65269 0
M  V30 12204 C 1167.86 -0.18939 1.87848 0
M  V30 12205 O 1167.22 -1.12251 1.43895 0
M  V30 12206 C 1167.27 1.98872 3.01881 0
M  V30 12207 O 1166.99 3.36687 2.8031 0
M  V30 12208 C 1168.49 1.98595 3.96327 0
M  V30 12209 H 1165.71 0.429966 0.515141 0
M  V30 12210 H 1168.26 1.73559 1.08156 0
M  V30 12211 H 1166.41 1.53539 3.55675 0
M  V30 12212 H 1166.83 3.74612 3.67105 0
M  V30 12213 H 1168.3 2.55156 4.89489 0
M  V30 12214 H 1168.78 0.969257 4.28371 0
M  V30 12215 H 1169.38 2.43821 3.4847 0
M  V30 12216 N 1167.7 -1.08142 1.14644 0
M  V30 12217 C 1168.63 -2.17139 0.858667 0
M  V30 12218 C 1169.61 -1.69064 -0.187452 0
M  V30 12219 O 1170.8 -1.94151 -0.0435458 0
M  V30 12220 C 1167.93 -3.45648 0.33834 0
M  V30 12221 C 1166.88 -4.07129 1.32021 0
M  V30 12222 C 1166.21 -5.30623 0.659075 0
M  V30 12223 C 1167.51 -4.48095 2.68343 0
M  V30 12224 H 1169.2 -2.41468 1.77012 0
M  V30 12225 H 1166.75 -1.16052 0.852523 0
M  V30 12226 H 1168.7 -4.21216 0.124611 0
M  V30 12227 H 1167.42 -3.2088 -0.608553 0
M  V30 12228 H 1166.08 -3.33596 1.52016 0
M  V30 12229 H 1165.73 -5.02142 -0.293711 0
M  V30 12230 H 1165.43 -5.72714 1.31427 0
M  V30 12231 H 1166.95 -6.08903 0.454933 0
M  V30 12232 H 1168.37 -5.14828 2.5224 0
M  V30 12233 H 1166.76 -5.01113 3.30161 0
M  V30 12234 H 1167.83 -3.59852 3.25015 0
M  V30 12235 N 1169.18 -0.941978 -1.26351 0
M  V30 12236 C 1170.42 -0.589971 -1.93715 0
M  V30 12237 C 1170.75 0.871085 -1.73903 0
M  V30 12238 O 1170.01 1.63864 -1.06991 0
M  V30 12239 C 1170.31 -0.879481 -3.4641 0
M  V30 12240 C 1169.97 -2.32454 -3.86362 0
M  V30 12241 C 1168.63 -2.71957 -3.9698 0
M  V30 12242 C 1170.99 -3.2636 -4.06373 0
M  V30 12243 C 1168.31 -4.04459 -4.25006 0
M  V30 12244 C 1170.67 -4.58459 -4.35887 0
M  V30 12245 C 1169.33 -4.97775 -4.4472 0
M  V30 12246 H 1168.6 -0.215886 -0.708854 0
M  V30 12247 H 1171.25 -1.18863 -1.50146 0
M  V30 12248 H 1169.55 -0.198289 -3.91298 0
M  V30 12249 H 1171.25 -0.585887 -3.96697 0
M  V30 12250 H 1167.84 -2.00814 -3.78645 0
M  V30 12251 H 1172.02 -2.97037 -3.97596 0
M  V30 12252 H 1167.28 -4.34582 -4.30057 0
M  V30 12253 H 1171.45 -5.31213 -4.50317 0
M  V30 12254 H 1169.08 -6.00475 -4.66191 0
M  V30 12255 N 1170.66 1.40747 -0.709091 0
M  V30 12256 C 1171.9 2.00233 -0.242836 0
M  V30 12257 C 1172.22 1.56853 1.1686 0
M  V30 12258 O 1173.42 2.08993 1.73304 0
M  V30 12259 C 1171.88 3.57854 -0.383241 0
M  V30 12260 C 1171.49 4.10209 -1.80091 0
M  V30 12261 C 1173.23 4.24494 0.0225511 0
M  V30 12262 C 1171.14 5.60311 -1.89225 0
M  V30 12263 H 1170.07 0.74896 -0.087034 0
M  V30 12264 H 1172.72 1.61064 -0.879243 0
M  V30 12265 H 1171.1 3.94692 0.321642 0
M  V30 12266 H 1172.28 3.84762 -2.53564 0
M  V30 12267 H 1170.59 3.56142 -2.15758 0
M  V30 12268 H 1173.19 5.34694 -0.0250644 0
M  V30 12269 H 1173.53 4.02488 1.06344 0
M  V30 12270 H 1174.06 3.92739 -0.632541 0
M  V30 12271 H 1170.8 5.87162 -2.91412 0
M  V30 12272 H 1170.32 5.87642 -1.20154 0
M  V30 12273 H 1172 6.25306 -1.66136 0
M  V30 12274 N 1172.13 0.454803 1.50895 0
M  V30 12275 C 1173.38 -0.107367 2.01414 0
M  V30 12276 C 1173.7 -1.42243 1.34262 0
M  V30 12277 O 1174.9 -2.06858 1.75846 0
M  V30 12278 C 1173.36 -0.241872 3.59086 0
M  V30 12279 C 1172.97 1.06379 4.35187 0
M  V30 12280 C 1174.71 -0.756873 4.17698 0
M  V30 12281 C 1172.62 0.893973 5.84604 0
M  V30 12282 H 1171.55 -0.0439003 0.752721 0
M  V30 12283 H 1174.2 0.587225 1.7385 0
M  V30 12284 H 1172.58 -0.999873 3.83169 0
M  V30 12285 H 1173.75 1.83148 4.2284 0
M  V30 12286 H 1172.07 1.50865 3.88109 0
M  V30 12287 H 1174.67 -0.900697 5.27059 0
M  V30 12288 H 1175.01 -1.74397 3.7801 0
M  V30 12289 H 1175.54 -0.0567088 3.9776 0
M  V30 12290 H 1172.28 1.85395 6.28736 0
M  V30 12291 H 1171.8 0.166387 5.99569 0
M  V30 12292 H 1173.48 0.554084 6.44623 0
M  V30 12293 N 1173.61 -1.56489 0.186789 0
M  V30 12294 C 1174.84 -2.02163 -0.463126 0
M  V30 12295 C 1175.26 -1.06612 -1.54969 0
M  V30 12296 O 1174.62 -0.0482139 -1.81236 0
M  V30 12297 C 1174.67 -3.46337 -1.00416 0
M  V30 12298 O 1173.77 -3.53889 -2.11747 0
M  V30 12299 H 1173.11 -0.65496 -0.109194 0
M  V30 12300 H 1175.64 -2.02459 0.295227 0
M  V30 12301 H 1175.65 -3.85959 -1.32287 0
M  V30 12302 H 1174.33 -4.15376 -0.208693 0
M  V30 12303 H 1172.9 -3.26136 -1.80803 0
M  V30 12304 N 1175.09 0.086862 -1.5736 0
M  V30 12305 C 1176.37 0.820984 -1.77537 0
M  V30 12306 C 1176.75 1.96534 -0.770554 0
M  V30 12307 O 1176.09 2.27629 0.199334 0
M  V30 12308 C 1176.3 1.30793 -3.23565 0
M  V30 12309 C 1177.65 1.7474 -3.86977 0
M  V30 12310 O 1178.68 1.40396 -3.27364 0
M  V30 12311 O 1177.54 2.38271 -4.91822 0
M  V30 12312 H 1174.63 0.392228 -0.72807 0
M  V30 12313 H 1177.18 0.0681051 -1.69563 0
M  V30 12314 H 1175.95 0.488409 -3.8824 0
M  V30 12315 H 1175.57 2.12258 -3.36203 0
M  V30 12316 N 1176.57 1.53483 0.357892 0
M  V30 12317 C 1177.53 1.79782 1.42166 0
M  V30 12318 C 1178.53 0.668441 1.46248 0
M  V30 12319 O 1179.72 0.936677 1.46874 0
M  V30 12320 C 1176.85 1.92686 2.8122 0
M  V30 12321 H 1178.05 2.74794 1.20117 0
M  V30 12322 H 1175.6 1.44677 0.591468 0
M  V30 12323 H 1176.33 0.997669 3.08573 0
M  V30 12324 H 1176.12 2.74837 2.79655 0
M  V30 12325 H 1177.61 2.14599 3.58242 0
M  V30 12326 N 1178.05 -0.61812 1.44973 0
M  V30 12327 C 1179.01 -1.71135 1.52465 0
M  V30 12328 C 1180.01 -1.5561 0.405246 0
M  V30 12329 O 1181.2 -1.60869 0.668351 0
M  V30 12330 C 1178.33 -3.10324 1.41108 0
M  V30 12331 H 1179.52 -1.65862 2.49859 0
M  V30 12332 H 1177.08 -0.832932 1.32257 0
M  V30 12333 H 1177.81 -3.21183 0.448574 0
M  V30 12334 H 1177.6 -3.23001 2.2229 0
M  V30 12335 H 1179.09 -3.89976 1.49361 0
M  V30 12336 N 1179.52 -1.32087 -0.859693 0
M  V30 12337 C 1180.47 -1.20549 -1.98924 0
M  V30 12338 C 1181.47 -0.111422 -1.69033 0
M  V30 12339 O 1182.67 -0.27401 -1.77902 0
M  V30 12340 H 1179.05 -0.373538 -0.652667 0
M  V30 12341 H 1181.02 -2.16091 -2.05785 0
M  V30 12342 C 1179.77 -0.940226 -3.34746 0
M  V30 12343 H 1179.09 -1.77427 -3.58273 0
M  V30 12344 H 1180.53 -0.899712 -4.14344 0
M  V30 12345 C 1178.99 0.357042 -3.35003 0
M  V30 12346 O 1179.52 1.37054 -3.77596 0
M  V30 12347 N 1177.72 0.37723 -2.88141 0
M  V30 12348 H 1177.27 -0.448051 -2.53674 0
M  V30 12349 H 1177.23 1.24509 -2.88695 0
M  V30 12350 N 1181 1.07532 -1.15215 0
M  V30 12351 C 1181.93 2.1668 -0.870171 0
M  V30 12352 C 1182.91 1.69161 0.178483 0
M  V30 12353 O 1184.1 1.94172 0.0332489 0
M  V30 12354 C 1181.23 3.45464 -0.356666 0
M  V30 12355 C 1180.18 4.06424 -1.34179 0
M  V30 12356 C 1179.51 5.30266 -0.687206 0
M  V30 12357 C 1180.81 4.46666 -2.70715 0
M  V30 12358 H 1182.5 2.40526 -1.7829 0
M  V30 12359 H 1180.05 1.15598 -0.858665 0
M  V30 12360 H 1182 4.21144 -0.146947 0
M  V30 12361 H 1180.72 3.21199 0.591527 0
M  V30 12362 H 1179.38 3.32786 -1.53783 0
M  V30 12363 H 1179.03 5.0229 0.267077 0
M  V30 12364 H 1178.73 5.72009 -1.34462 0
M  V30 12365 H 1180.26 6.08653 -0.487218 0
M  V30 12366 H 1181.67 5.13483 -2.54966 0
M  V30 12367 H 1180.07 4.99355 -3.32813 0
M  V30 12368 H 1181.14 3.58123 -3.26919 0
M  V30 12369 N 1182.48 0.948665 1.2585 0
M  V30 12370 C 1183.43 0.434929 2.23813 0
M  V30 12371 C 1184.41 -0.472518 1.53805 0
M  V30 12372 O 1185.61 -0.306542 1.74325 0
M  V30 12373 C 1182.74 -0.291678 3.42059 0
M  V30 12374 C 1181.82 0.633493 4.19342 0
M  V30 12375 N 1182.21 1.76254 4.74097 0
M  V30 12376 C 1180.51 0.440528 4.43819 0
M  V30 12377 C 1181.21 2.33968 5.32573 0
M  V30 12378 N 1180.19 1.62687 5.18685 0
M  V30 12379 H 1183.99 1.29668 2.63749 0
M  V30 12380 H 1181.5 0.805431 1.4102 0
M  V30 12381 H 1183.5 -0.676811 4.1137 0
M  V30 12382 H 1182.16 -1.15011 3.03649 0
M  V30 12383 H 1183.17 2.14453 4.71413 0
M  V30 12384 H 1179.85 -0.375515 4.15808 0
M  V30 12385 H 1181.24 3.2914 5.85761 0
M  V30 12386 N 1183.96 -1.40369 0.716545 0
M  V30 12387 C 1184.87 -2.34508 0.065658 0
M  V30 12388 C 1185.88 -1.57352 -0.742723 0
M  V30 12389 O 1187.06 -1.89735 -0.675456 0
M  V30 12390 C 1184.13 -3.36262 -0.844337 0
M  V30 12391 C 1183.19 -4.29292 -0.0257971 0
M  V30 12392 C 1182.42 -5.26185 -0.892452 0
M  V30 12393 O 1182.64 -5.29071 -2.13166 0
M  V30 12394 O 1181.58 -6.0099 -0.330933 0
M  V30 12395 H 1185.4 -2.91789 0.842184 0
M  V30 12396 H 1182.99 -1.41579 0.477034 0
M  V30 12397 H 1184.87 -3.98661 -1.36555 0
M  V30 12398 H 1183.54 -2.81393 -1.59999 0
M  V30 12399 H 1182.45 -3.70175 0.540512 0
M  V30 12400 H 1183.78 -4.87316 0.69166 0
M  V30 12401 N 1185.44 -0.462799 -1.50652 0
M  V30 12402 C 1186.68 0.0950445 -2.02277 0
M  V30 12403 C 1187.01 1.40465 -1.34536 0
M  V30 12404 O 1186.27 1.90283 -0.457279 0
M  V30 12405 C 1186.57 0.335294 -3.55824 0
M  V30 12406 C 1186.23 -0.891589 -4.41997 0
M  V30 12407 C 1184.89 -1.22799 -4.65268 0
M  V30 12408 C 1187.25 -1.70885 -4.9239 0
M  V30 12409 C 1184.57 -2.38186 -5.36175 0
M  V30 12410 C 1186.93 -2.85394 -5.64564 0
M  V30 12411 C 1185.59 -3.19458 -5.86091 0
M  V30 12412 H 1184.86 0.0347793 -0.740183 0
M  V30 12413 H 1187.51 -0.61519 -1.8135 0
M  V30 12414 H 1185.81 1.12769 -3.7522 0
M  V30 12415 H 1187.51 0.780752 -3.93326 0
M  V30 12416 H 1184.1 -0.619495 -4.24099 0
M  V30 12417 H 1188.28 -1.46215 -4.74273 0
M  V30 12418 H 1183.54 -2.64862 -5.51052 0
M  V30 12419 H 1187.71 -3.49073 -6.02595 0
M  V30 12420 H 1185.34 -4.08978 -6.40813 0
M  V30 12421 N 1186.91 1.56388 -0.195085 0
M  V30 12422 C 1187.86 2.15705 0.738595 0
M  V30 12423 C 1188.85 1.09782 1.1763 0
M  V30 12424 O 1190.04 1.35844 1.1347 0
M  V30 12425 C 1187.17 2.81994 1.95791 0
M  V30 12426 C 1186.26 3.95108 1.54111 0
M  V30 12427 N 1186.65 4.98856 0.835261 0
M  V30 12428 C 1184.94 4.06709 1.8304 0
M  V30 12429 C 1185.65 5.78317 0.626417 0
M  V30 12430 N 1184.62 5.30746 1.17513 0
M  V30 12431 H 1188.42 2.93281 0.190597 0
M  V30 12432 H 1185.94 1.62399 0.00470391 0
M  V30 12433 H 1187.93 3.22883 2.63728 0
M  V30 12434 H 1186.59 2.05906 2.51063 0
M  V30 12435 H 1187.61 5.1557 0.490732 0
M  V30 12436 H 1184.28 3.41749 2.39821 0
M  V30 12437 H 1185.67 6.71867 0.0664935 0
M  V30 12438 N 1188.39 -0.0785156 1.57404 0
M  V30 12439 C 1189.36 -1.07835 2.02248 0
M  V30 12440 C 1190.36 -1.31987 0.918475 0
M  V30 12441 O 1191.55 -1.27821 1.18353 0
M  V30 12442 C 1188.68 -2.42361 2.39737 0
M  V30 12443 H 1189.87 -0.691995 2.91807 0
M  V30 12444 H 1187.42 -0.32405 1.52904 0
M  V30 12445 H 1188.16 -2.85841 1.53183 0
M  V30 12446 H 1187.94 -2.26174 3.20293 0
M  V30 12447 H 1189.43 -3.14241 2.75031 0
M  V30 12448 N 1189.87 -1.5367 -0.349747 0
M  V30 12449 C 1191.15 -1.61238 -1.10732 0
M  V30 12450 C 1191.53 -0.429756 -2.06679 0
M  V30 12451 O 1190.88 0.578564 -2.21054 0
M  V30 12452 C 1191.09 -2.97022 -1.83245 0
M  V30 12453 C 1192.43 -3.52158 -2.37212 0
M  V30 12454 O 1193.46 -2.99156 -1.9335 0
M  V30 12455 O 1192.32 -4.44853 -3.1744 0
M  V30 12456 H 1189.41 -0.65191 -0.508864 0
M  V30 12457 H 1191.96 -1.66015 -0.351738 0
M  V30 12458 H 1190.73 -3.74535 -1.13311 0
M  V30 12459 H 1190.35 -2.95808 -2.65675 0
M  V30 12460 N 1191.35 0.610423 -1.45298 0
M  V30 12461 C 1192.28 1.73207 -1.56594 0
M  V30 12462 C 1193.26 1.64893 -0.417651 0
M  V30 12463 O 1194.44 1.83336 -0.64043 0
M  V30 12464 C 1191.57 3.11803 -1.52959 0
M  V30 12465 C 1190.53 3.34925 -2.66475 0
M  V30 12466 C 1189.85 4.73764 -2.47894 0
M  V30 12467 C 1191.15 3.25456 -4.08504 0
M  V30 12468 H 1192.85 1.6401 -2.50482 0
M  V30 12469 H 1190.39 0.787621 -1.20551 0
M  V30 12470 H 1192.35 3.90065 -1.59458 0
M  V30 12471 H 1191.07 3.21833 -0.55599 0
M  V30 12472 H 1189.73 2.59051 -2.59399 0
M  V30 12473 H 1189.38 4.80524 -1.4868 0
M  V30 12474 H 1189.08 4.90191 -3.24016 0
M  V30 12475 H 1190.6 5.54231 -2.56243 0
M  V30 12476 H 1192.02 3.93597 -4.16839 0
M  V30 12477 H 1190.41 3.53414 -4.84994 0
M  V30 12478 H 1191.48 2.22939 -4.30612 0
M  V30 12479 N 1192.83 1.32541 0.852676 0
M  V30 12480 C 1194.24 1.11575 1.14119 0
M  V30 12481 C 1194.44 -0.102469 2.01239 0
M  V30 12482 O 1193.5 -0.786786 2.39929 0
M  V30 12483 C 1194.81 2.39624 1.81661 0
M  V30 12484 C 1196.36 2.454 1.94288 0
M  V30 12485 C 1196.83 3.73375 2.65245 0
M  V30 12486 N 1198.33 3.74368 2.72769 0
M  V30 12487 C 1199.06 4.70094 3.28328 0
M  V30 12488 N 1198.56 5.76187 3.84682 0
M  V30 12489 N 1200.35 4.57588 3.26449 0
M  V30 12490 H 1192.5 2.10644 0.272544 0
M  V30 12491 H 1194.76 0.930094 0.183385 0
M  V30 12492 H 1194.47 3.28698 1.25102 0
M  V30 12493 H 1194.34 2.50734 2.81802 0
M  V30 12494 H 1196.73 1.56784 2.50005 0
M  V30 12495 H 1196.81 2.38241 0.931379 0
M  V30 12496 H 1196.46 4.62366 2.10191 0
M  V30 12497 H 1196.39 3.77806 3.66838 0
M  V30 12498 H 1198.88 2.97685 2.32791 0
M  V30 12499 H 1199.19 6.45285 4.25238 0
M  V30 12500 H 1197.53 5.79939 3.83008 0
M  V30 12501 H 1200.73 3.7387 2.81672 0
M  V30 12502 H 1200.9 5.32365 3.69448 0
M  V30 12503 N 1194.3 -1.0692 1.15784 0
M  V30 12504 C 1195.53 -1.83849 0.959903 0
M  V30 12505 C 1195.95 -1.8169 -0.486873 0
M  V30 12506 O 1195.31 -1.21305 -1.34739 0
M  V30 12507 C 1195.36 -3.28642 1.48414 0
M  V30 12508 O 1194.46 -4.0665 0.686249 0
M  V30 12509 H 1193.81 -0.569115 0.342059 0
M  V30 12510 H 1196.34 -1.34851 1.53871 0
M  V30 12511 H 1196.35 -3.7947 1.49888 0
M  V30 12512 H 1195.02 -3.29529 2.53739 0
M  V30 12513 H 1193.6 -3.65453 0.741501 0
M  V30 12514 N 1195.78 -0.955326 -1.25345 0
M  V30 12515 C 1197.02 -0.618161 -1.94828 0
M  V30 12516 C 1197.39 0.829532 -1.73155 0
M  V30 12517 O 1198.59 1.27632 -2.36566 0
M  V30 12518 C 1196.86 -0.967887 -3.44045 0
M  V30 12519 S 1198.42 -0.743401 -4.32457 0
M  V30 12520 H 1195.24 -0.227189 -0.673726 0
M  V30 12521 H 1197.84 -1.22965 -1.51986 0
M  V30 12522 H 1196.54 -2.01864 -3.57322 0
M  V30 12523 H 1196.07 -0.346677 -3.9187 0
M  V30 12524 H 1198.09 0.385467 -4.94701 0
M  V30 12525 N 1197.26 1.39987 -0.723979 0
M  V30 12526 C 1198.51 2.00731 -0.267115 0
M  V30 12527 C 1198.84 1.57424 1.14228 0
M  V30 12528 O 1198.09 0.789205 1.79081 0
M  V30 12529 C 1198.39 3.56101 -0.304472 0
M  V30 12530 C 1198.06 4.1902 -1.66533 0
M  V30 12531 C 1196.72 4.3592 -2.03783 0
M  V30 12532 C 1199.07 4.54034 -2.55935 0
M  V30 12533 C 1196.4 4.85119 -3.29964 0
M  V30 12534 C 1198.75 5.04637 -3.81477 0
M  V30 12535 C 1197.41 5.19745 -4.18833 0
M  V30 12536 H 1196.68 0.734525 -0.0977442 0
M  V30 12537 H 1199.33 1.67476 -0.928659 0
M  V30 12538 H 1197.64 3.89314 0.440647 0
M  V30 12539 H 1199.33 4.00944 0.0669875 0
M  V30 12540 H 1195.92 4.0626 -1.36569 0
M  V30 12541 H 1200.11 4.40606 -2.2843 0
M  V30 12542 H 1195.36 4.95001 -3.58865 0
M  V30 12543 H 1199.54 5.30705 -4.50916 0
M  V30 12544 H 1197.16 5.5763 -5.16675 0
M  V30 12545 N 1198.74 0.470782 1.50404 0
M  V30 12546 C 1199.7 -0.312227 2.27063 0
M  V30 12547 C 1200.7 -0.920709 1.31832 0
M  V30 12548 O 1201.89 -0.789937 1.5526 0
M  V30 12549 C 1199.02 -1.44477 3.0877 0
M  V30 12550 H 1200.22 0.36006 2.97731 0
M  V30 12551 H 1197.77 0.224837 1.54674 0
M  V30 12552 H 1198.51 -2.15212 2.42599 0
M  V30 12553 H 1198.29 -1.01426 3.78755 0
M  V30 12554 H 1199.78 -1.99713 3.66749 0
M  V30 12555 N 1200.22 -1.56282 0.203376 0
M  V30 12556 C 1201.63 -1.84146 -0.307752 0
M  V30 12557 C 1201.98 -1.12429 -1.60792 0
M  V30 12558 O 1201.1 -0.387852 -2.12896 0
M  V30 12559 C 1201.7 -3.34053 -0.565152 0
M  V30 12560 C 1200.26 -3.62298 -1.02063 0
M  V30 12561 C 1199.41 -2.77202 -0.0737343 0
M  V30 12562 H 1202.36 -1.52848 0.426983 0
M  V30 12563 H 1202.38 -3.53273 -1.41345 0
M  V30 12564 H 1201.89 -3.86222 0.381301 0
M  V30 12565 H 1199.99 -3.1557 -1.98107 0
M  V30 12566 H 1200.1 -4.70424 -0.907614 0
M  V30 12567 H 1198.47 -2.48074 -0.577169 0
M  V30 12568 H 1199.25 -3.32164 0.86731 0
M  V30 12569 N 1201.7 0.070167 -1.57444 0
M  V30 12570 C 1202.63 1.10996 -2.0053 0
M  V30 12571 C 1203.64 1.3489 -0.91151 0
M  V30 12572 O 1204.83 1.33102 -1.18938 0
M  V30 12573 C 1201.93 2.46053 -2.33048 0
M  V30 12574 C 1201.1 2.42092 -3.64294 0
M  V30 12575 C 1200.16 3.5927 -3.84463 0
M  V30 12576 O 1199.19 3.40625 -4.5603 0
M  V30 12577 N 1200.39 4.79677 -3.26941 0
M  V30 12578 H 1203.15 0.743029 -2.90343 0
M  V30 12579 H 1200.72 0.258794 -1.59818 0
M  V30 12580 H 1202.71 3.23089 -2.43712 0
M  V30 12581 H 1201.28 2.74742 -1.49116 0
M  V30 12582 H 1200.5 1.5043 -3.64368 0
M  V30 12583 H 1201.79 2.36548 -4.50469 0
M  V30 12584 H 1201.18 4.97729 -2.68855 0
M  V30 12585 H 1199.74 5.54219 -3.43051 0
M  V30 12586 N 1203.17 1.53854 0.341593 0
M  V30 12587 C 1204.12 1.7836 1.42028 0
M  V30 12588 C 1205.11 0.638876 1.47673 0
M  V30 12589 O 1206.3 0.898328 1.52509 0
M  V30 12590 C 1203.43 1.99837 2.79142 0
M  V30 12591 C 1202.51 3.20379 2.77881 0
M  V30 12592 N 1202.91 4.41809 2.46249 0
M  V30 12593 C 1201.2 3.21588 3.09026 0
M  V30 12594 C 1201.9 5.23668 2.53271 0
M  V30 12595 N 1200.88 4.60429 2.88974 0
M  V30 12596 H 1204.68 2.69836 1.16472 0
M  V30 12597 H 1202.2 1.52804 0.549966 0
M  V30 12598 H 1204.19 2.15528 3.56866 0
M  V30 12599 H 1202.85 1.09603 3.05642 0
M  V30 12600 H 1203.86 4.69125 2.19413 0
M  V30 12601 H 1200.54 2.41329 3.40686 0
M  V30 12602 H 1201.93 6.30591 2.31958 0
M  V30 12603 N 1204.65 -0.602709 1.4562 0
M  V30 12604 C 1205.58 -1.72705 1.49159 0
M  V30 12605 C 1206.56 -1.58843 0.347494 0
M  V30 12606 O 1207.75 -1.80337 0.548716 0
M  V30 12607 C 1204.87 -3.10579 1.35125 0
M  V30 12608 C 1203.92 -3.43016 2.53461 0
M  V30 12609 S 1204.75 -3.37311 4.1591 0
M  V30 12610 C 1205.91 -4.77757 4.0435 0
M  V30 12611 H 1206.14 -1.69441 2.44289 0
M  V30 12612 H 1203.67 -0.779776 1.33262 0
M  V30 12613 H 1205.63 -3.90127 1.27715 0
M  V30 12614 H 1204.29 -3.11352 0.414568 0
M  V30 12615 H 1203.49 -4.43415 2.39581 0
M  V30 12616 H 1203.09 -2.70993 2.57757 0
M  V30 12617 H 1205.38 -5.67677 3.69796 0
M  V30 12618 H 1206.32 -4.96694 5.04679 0
M  V30 12619 H 1206.73 -4.53667 3.35926 0
M  V30 12620 N 1206.13 -1.32992 -0.845635 0
M  V30 12621 C 1207.09 -1.22607 -1.9365 0
M  V30 12622 C 1208.09 -0.146812 -1.60128 0
M  V30 12623 O 1209.28 -0.397863 -1.69596 0
M  V30 12624 C 1206.41 -0.887677 -3.2914 0
M  V30 12625 H 1207.61 -2.19563 -2.04285 0
M  V30 12626 H 1205.16 -1.16952 -1.03691 0
M  V30 12627 H 1205.9 0.0796777 -3.24202 0
M  V30 12628 H 1205.68 -1.66808 -3.54849 0
M  V30 12629 H 1207.17 -0.83958 -4.09073 0
M  V30 12630 N 1207.61 1.06304 -1.1635 0
M  V30 12631 C 1208.54 2.13209 -0.81346 0
M  V30 12632 C 1209.52 1.61174 0.21484 0
M  V30 12633 O 1210.7 1.8824 0.0989458 0
M  V30 12634 C 1207.83 3.38039 -0.211498 0
M  V30 12635 C 1206.88 4.08875 -1.21339 0
M  V30 12636 S 1207.71 4.58894 -2.76001 0
M  V30 12637 C 1208.86 5.86985 -2.17254 0
M  V30 12638 H 1209.1 2.42572 -1.7189 0
M  V30 12639 H 1206.63 1.18737 -0.986957 0
M  V30 12640 H 1208.59 4.10296 0.129349 0
M  V30 12641 H 1207.25 3.06834 0.671705 0
M  V30 12642 H 1206.44 4.98528 -0.740631 0
M  V30 12643 H 1206.04 3.42632 -1.49932 0
M  V30 12644 H 1208.34 6.59738 -1.54115 0
M  V30 12645 H 1209.28 6.38991 -3.05117 0
M  V30 12646 H 1209.69 5.41012 -1.61141 0
M  V30 12647 N 1209.09 0.96196 1.24836 0
M  V30 12648 C 1210.02 0.506241 2.27946 0
M  V30 12649 C 1211 -0.451183 1.64007 0
M  V30 12650 O 1212.18 -0.348552 1.91046 0
M  V30 12651 C 1209.31 -0.209846 3.46665 0
M  V30 12652 C 1208.27 0.663035 4.22833 0
M  V30 12653 C 1207.59 -0.184216 5.34383 0
M  V30 12654 C 1208.89 1.94479 4.84742 0
M  V30 12655 H 1210.59 1.36805 2.66317 0
M  V30 12656 H 1208.13 0.65926 1.28023 0
M  V30 12657 H 1210.08 -0.539838 4.17928 0
M  V30 12658 H 1208.81 -1.10596 3.07305 0
M  V30 12659 H 1207.47 0.976216 3.53363 0
M  V30 12660 H 1207.12 -1.08031 4.91262 0
M  V30 12661 H 1206.82 0.39657 5.8626 0
M  V30 12662 H 1208.34 -0.509009 6.08475 0
M  V30 12663 H 1209.75 1.68074 5.48109 0
M  V30 12664 H 1208.15 2.47183 5.46828 0
M  V30 12665 H 1209.22 2.64332 4.06517 0
M  V30 12666 N 1210.56 -1.39601 0.731392 0
M  V30 12667 C 1211.8 -2.0244 0.282387 0
M  V30 12668 C 1212.17 -1.56776 -1.10839 0
M  V30 12669 O 1213.37 -2.11788 -1.65527 0
M  V30 12670 C 1211.64 -3.55409 0.376704 0
M  V30 12671 S 1213.2 -4.38799 0.00700932 0
M  V30 12672 H 1210.02 -0.7023 0.110886 0
M  V30 12673 H 1212.62 -1.70469 0.957111 0
M  V30 12674 H 1211.32 -3.86134 1.39027 0
M  V30 12675 H 1210.85 -3.92129 -0.315963 0
M  V30 12676 H 1212.87 -4.81213 -1.21032 0
M  V30 12677 N 1212.04 -0.478751 -1.50152 0
M  V30 12678 C 1213.27 0.0732929 -2.0727 0
M  V30 12679 C 1213.69 1.32066 -1.33941 0
M  V30 12680 O 1213.05 1.7707 -0.389367 0
M  V30 12681 C 1213.1 0.332528 -3.59064 0
M  V30 12682 O 1212.2 1.41158 -3.8749 0
M  V30 12683 H 1211.54 -0.0163684 -0.663798 0
M  V30 12684 H 1214.07 -0.671993 -1.9325 0
M  V30 12685 H 1214.08 0.570735 -4.03988 0
M  V30 12686 H 1212.76 -0.578934 -4.11851 0
M  V30 12687 H 1211.34 1.16008 -3.54396 0
M  V30 12688 N 1213.52 1.56172 -0.211661 0
M  V30 12689 C 1214.93 1.84307 0.297982 0
M  V30 12690 C 1215.28 1.1328 1.60194 0
M  V30 12691 O 1214.41 0.399137 2.12687 0
M  V30 12692 C 1215 3.34348 0.547428 0
M  V30 12693 C 1213.56 3.62835 1.0014 0
M  V30 12694 C 1212.71 2.77237 0.0590326 0
M  V30 12695 H 1215.66 1.5262 -0.435083 0
M  V30 12696 H 1215.68 3.54018 1.39469 0
M  V30 12697 H 1215.19 3.86015 -0.401778 0
M  V30 12698 H 1213.29 3.16616 1.96431 0
M  V30 12699 H 1213.41 4.70899 0.882653 0
M  V30 12700 H 1211.77 2.48377 0.564005 0
M  V30 12701 H 1212.55 3.31699 -0.884913 0
M  V30 12702 N 1215 -0.0618163 1.57479 0
M  V30 12703 C 1216.25 -0.75794 1.86918 0
M  V30 12704 C 1216.56 -1.78234 0.80572 0
M  V30 12705 O 1217.77 -2.52874 0.98827 0
M  V30 12706 C 1216.22 -1.39898 3.31597 0
M  V30 12707 C 1215.83 -0.412621 4.46096 0
M  V30 12708 C 1217.57 -2.07688 3.70224 0
M  V30 12709 C 1215.48 -1.06014 5.8182 0
M  V30 12710 H 1214.41 -0.286825 0.697314 0
M  V30 12711 H 1217.06 -0.0114386 1.83496 0
M  V30 12712 H 1215.44 -2.19408 3.29661 0
M  V30 12713 H 1216.62 0.353392 4.59443 0
M  V30 12714 H 1214.93 0.161383 4.16087 0
M  V30 12715 H 1217.53 -2.56928 4.68927 0
M  V30 12716 H 1217.87 -2.88073 3.00532 0
M  V30 12717 H 1218.41 -1.34996 3.74194 0
M  V30 12718 H 1215.15 -0.296405 6.5483 0
M  V30 12719 H 1214.67 -1.79677 5.72255 0
M  V30 12720 H 1216.34 -1.57708 6.27485 0
M  V30 12721 N 1216.48 -1.54033 -0.333429 0
M  V30 12722 C 1217.41 -1.85719 -1.4153 0
M  V30 12723 C 1218.39 -0.713144 -1.54429 0
M  V30 12724 O 1219.57 -0.965984 -1.68471 0
M  V30 12725 C 1216.7 -2.07578 -2.78439 0
M  V30 12726 C 1215.66 -3.23411 -2.80338 0
M  V30 12727 C 1214.98 -3.30622 -4.2023 0
M  V30 12728 C 1216.28 -4.6129 -2.44968 0
M  V30 12729 H 1217.98 -2.76325 -1.15261 0
M  V30 12730 H 1215.52 -1.32957 -0.55303 0
M  V30 12731 H 1217.48 -2.28329 -3.5418 0
M  V30 12732 H 1216.2 -1.13713 -3.06165 0
M  V30 12733 H 1214.86 -3.02531 -2.07052 0
M  V30 12734 H 1214.51 -2.34333 -4.45081 0
M  V30 12735 H 1214.21 -4.08466 -4.22409 0
M  V30 12736 H 1215.73 -3.53596 -4.97798 0
M  V30 12737 H 1217.14 -4.81987 -3.10421 0
M  V30 12738 H 1215.54 -5.41611 -2.58414 0
M  V30 12739 H 1216.61 -4.6421 -1.40134 0
M  V30 12740 N 1217.95 0.594978 -1.45938 0
M  V30 12741 C 1219.18 1.37794 -1.53936 0
M  V30 12742 C 1219.59 1.88388 -0.175091 0
M  V30 12743 O 1218.94 1.63587 0.835757 0
M  V30 12744 C 1219 2.60906 -2.47322 0
M  V30 12745 C 1218.66 2.31865 -3.93812 0
M  V30 12746 C 1219.66 1.91451 -4.83366 0
M  V30 12747 C 1217.34 2.44387 -4.3884 0
M  V30 12748 C 1219.34 1.63938 -6.15957 0
M  V30 12749 C 1217.02 2.16487 -5.71469 0
M  V30 12750 C 1218.02 1.76326 -6.59847 0
M  V30 12751 O 1217.71 1.4876 -7.90016 0
M  V30 12752 H 1217.44 0.42775 -0.523456 0
M  V30 12753 H 1220 0.731487 -1.91933 0
M  V30 12754 H 1218.23 3.28315 -2.04319 0
M  V30 12755 H 1219.92 3.22964 -2.45863 0
M  V30 12756 H 1220.68 1.81301 -4.49839 0
M  V30 12757 H 1216.56 2.74612 -3.70283 0
M  V30 12758 H 1220.1 1.32516 -6.84898 0
M  V30 12759 H 1216 2.26257 -6.04548 0
M  V30 12760 H 1216.77 1.62708 -8.02165 0
M  V30 12761 N 1219.43 1.33438 0.838571 0
M  V30 12762 C 1220.68 1.24665 1.59069 0
M  V30 12763 C 1221 -0.187433 1.94097 0
M  V30 12764 O 1220.27 -1.11625 1.60987 0
M  V30 12765 H 1218.85 0.45843 0.589789 0
M  V30 12766 H 1221.51 1.67161 1.00216 0
M  V30 12767 H 1220.61 1.84057 2.52051 0
M  V30 12768 N 1220.91 -1.05686 1.16912 0
M  V30 12769 C 1222.14 -1.82821 0.979348 0
M  V30 12770 C 1222.56 -1.82196 -0.467575 0
M  V30 12771 O 1221.92 -1.22727 -1.33445 0
M  V30 12772 C 1221.97 -3.2705 1.51891 0
M  V30 12773 O 1221.07 -4.05899 0.729341 0
M  V30 12774 H 1220.41 -0.565455 0.348076 0
M  V30 12775 H 1222.94 -1.33211 1.55293 0
M  V30 12776 H 1222.95 -3.77859 1.53904 0
M  V30 12777 H 1221.63 -3.26819 2.5722 0
M  V30 12778 H 1220.2 -3.64646 0.780221 0
M  V30 12779 N 1222.39 -0.968567 -1.24324 0
M  V30 12780 C 1223.34 -0.470481 -2.23093 0
M  V30 12781 C 1224.32 0.447989 -1.54538 0
M  V30 12782 O 1225.51 0.27877 -1.74791 0
M  V30 12783 C 1222.64 0.237222 -3.42479 0
M  V30 12784 C 1221.73 -0.700126 -4.18281 0
M  V30 12785 N 1222.12 -1.83775 -4.71233 0
M  V30 12786 C 1220.42 -0.51108 -4.43062 0
M  V30 12787 C 1221.12 -2.42411 -5.28783 0
M  V30 12788 N 1220.1 -1.70918 -5.16031 0
M  V30 12789 H 1223.9 -1.33848 -2.61652 0
M  V30 12790 H 1221.41 -0.827764 -1.39721 0
M  V30 12791 H 1223.41 0.61128 -4.12394 0
M  V30 12792 H 1222.07 1.10166 -3.0544 0
M  V30 12793 H 1223.08 -2.21926 -4.67942 0
M  V30 12794 H 1219.76 0.309316 -4.16353 0
M  V30 12795 H 1221.15 -3.38417 -5.80451 0
M  V30 12796 N 1223.87 1.39211 -0.738786 0
M  V30 12797 C 1225.09 2.04732 -0.298751 0
M  V30 12798 C 1225.51 1.55706 1.06776 0
M  V30 12799 O 1224.87 0.723605 1.67542 0
M  V30 12800 C 1224.92 3.60288 -0.29574 0
M  V30 12801 O 1224.64 4.07511 -1.60831 0
M  V30 12802 C 1226.14 4.43011 0.159994 0
M  V30 12803 H 1223.36 0.658296 -0.129952 0
M  V30 12804 H 1225.9 1.78186 -1.0035 0
M  V30 12805 H 1224.06 3.85722 0.360146 0
M  V30 12806 H 1224.47 5.01858 -1.52443 0
M  V30 12807 H 1225.95 5.51889 0.110941 0
M  V30 12808 H 1226.42 4.22325 1.20573 0
M  V30 12809 H 1227.03 4.22734 -0.466467 0
M  V30 12810 N 1225.34 0.486708 1.49896 0
M  V30 12811 C 1226.57 -0.0622999 2.07306 0
M  V30 12812 C 1226.99 -1.31353 1.3464 0
M  V30 12813 O 1226.35 -1.76861 0.398752 0
M  V30 12814 C 1226.4 -0.313481 3.59235 0
M  V30 12815 O 1225.5 -1.39101 3.88233 0
M  V30 12816 H 1224.85 0.0198885 0.663702 0
M  V30 12817 H 1227.38 0.682232 1.92891 0
M  V30 12818 H 1227.39 -0.549302 4.04285 0
M  V30 12819 H 1226.06 0.600767 4.11538 0
M  V30 12820 H 1224.64 -1.14127 3.55006 0
M  V30 12821 N 1226.82 -1.56058 0.219941 0
M  V30 12822 C 1227.75 -2.2321 -0.685547 0
M  V30 12823 C 1228.73 -1.20328 -1.20229 0
M  V30 12824 O 1229.92 -1.48909 -1.24659 0
M  V30 12825 C 1227.05 -2.91076 -1.89452 0
M  V30 12826 C 1226 -4.00415 -1.51169 0
M  V30 12827 C 1225.33 -4.55569 -2.79931 0
M  V30 12828 C 1226.63 -5.17549 -0.702896 0
M  V30 12829 H 1228.32 -2.99136 -0.125671 0
M  V30 12830 H 1225.87 -1.43879 -0.0590043 0
M  V30 12831 H 1227.82 -3.36744 -2.53341 0
M  V30 12832 H 1226.55 -2.12594 -2.47934 0
M  V30 12833 H 1225.21 -3.55475 -0.896275 0
M  V30 12834 H 1224.85 -3.73819 -3.36553 0
M  V30 12835 H 1224.55 -5.29361 -2.55049 0
M  V30 12836 H 1226.08 -5.03955 -3.44764 0
M  V30 12837 H 1227.49 -5.59608 -1.24544 0
M  V30 12838 H 1225.89 -5.97563 -0.551234 0
M  V30 12839 H 1226.96 -4.84027 0.29083 0
M  V30 12840 N 1228.3 0.053464 -1.57509 0
M  V30 12841 C 1229.23 1.08863 -2.01696 0
M  V30 12842 C 1230.25 1.33916 -0.925765 0
M  V30 12843 O 1231.44 1.31833 -1.20343 0
M  V30 12844 C 1228.54 2.43567 -2.35644 0
M  V30 12845 C 1227.71 2.38215 -3.66841 0
M  V30 12846 C 1226.77 3.55172 -3.88252 0
M  V30 12847 O 1225.79 3.35769 -4.59617 0
M  V30 12848 N 1227 4.76182 -3.3201 0
M  V30 12849 H 1229.76 0.712192 -2.91115 0
M  V30 12850 H 1227.32 0.241829 -1.60084 0
M  V30 12851 H 1229.31 3.20486 -2.47125 0
M  V30 12852 H 1227.88 2.73145 -1.52022 0
M  V30 12853 H 1227.1 1.46557 -3.65943 0
M  V30 12854 H 1228.39 2.31757 -4.52953 0
M  V30 12855 H 1227.79 4.94849 -2.74118 0
M  V30 12856 H 1226.35 5.5055 -3.4891 0
M  V30 12857 N 1229.78 1.54207 0.325255 0
M  V30 12858 C 1230.69 1.86495 1.42326 0
M  V30 12859 C 1231.71 0.756718 1.56684 0
M  V30 12860 O 1232.88 1.05084 1.71812 0
M  V30 12861 C 1229.95 2.08414 2.77064 0
M  V30 12862 C 1229.01 3.32221 2.71897 0
M  V30 12863 C 1228.24 3.53085 4.00209 0
M  V30 12864 O 1228.46 2.77421 4.98391 0
M  V30 12865 O 1227.4 4.46559 4.0357 0
M  V30 12866 H 1231.22 2.79859 1.17951 0
M  V30 12867 H 1228.81 1.40091 0.519124 0
M  V30 12868 H 1230.69 2.24171 3.56827 0
M  V30 12869 H 1229.37 1.18238 3.01333 0
M  V30 12870 H 1228.27 3.21851 1.90691 0
M  V30 12871 H 1229.61 4.22449 2.52582 0
M  V30 12872 N 1231.26 -0.58723 1.46251 0
M  V30 12873 C 1232.5 -1.3456 1.51327 0
M  V30 12874 C 1232.83 -1.93815 0.163146 0
M  V30 12875 O 1232.09 -1.76723 -0.840677 0
M  V30 12876 C 1232.39 -2.49776 2.5563 0
M  V30 12877 C 1232.05 -2.08543 3.99776 0
M  V30 12878 C 1230.71 -1.97013 4.39021 0
M  V30 12879 C 1233.07 -1.76669 4.90344 0
M  V30 12880 C 1230.39 -1.5186 5.66706 0
M  V30 12881 C 1232.75 -1.32996 6.18462 0
M  V30 12882 C 1231.41 -1.20039 6.56618 0
M  V30 12883 H 1230.68 -0.492391 0.553744 0
M  V30 12884 H 1233.33 -0.661715 1.79704 0
M  V30 12885 H 1231.63 -3.23592 2.20897 0
M  V30 12886 H 1233.33 -3.07995 2.56788 0
M  V30 12887 H 1229.92 -2.18451 3.68751 0
M  V30 12888 H 1234.1 -1.84465 4.60746 0
M  V30 12889 H 1229.36 -1.40467 5.95045 0
M  V30 12890 H 1233.53 -1.07385 6.88071 0
M  V30 12891 H 1231.16 -0.848268 7.55452 0
M  V30 12892 N 1232.74 -1.33881 -0.831482 0
M  V30 12893 C 1233.67 -1.27384 -1.95693 0
M  V30 12894 C 1234.65 -0.152943 -1.69411 0
M  V30 12895 O 1235.83 -0.34392 -1.9113 0
M  V30 12896 C 1232.96 -1.01982 -3.31989 0
M  V30 12897 C 1231.92 -2.10445 -3.72689 0
M  V30 12898 C 1231.24 -1.70245 -5.06873 0
M  V30 12899 C 1232.54 -3.52194 -3.8569 0
M  V30 12900 H 1234.24 -2.21549 -2.01386 0
M  V30 12901 H 1231.78 -1.06653 -0.967526 0
M  V30 12902 H 1233.73 -0.960841 -4.103 0
M  V30 12903 H 1232.46 -0.0425709 -3.26572 0
M  V30 12904 H 1231.12 -2.15398 -2.96647 0
M  V30 12905 H 1230.77 -0.712036 -4.97935 0
M  V30 12906 H 1230.47 -2.42834 -5.35075 0
M  V30 12907 H 1231.99 -1.65827 -5.87651 0
M  V30 12908 H 1233.4 -3.49701 -4.54293 0
M  V30 12909 H 1231.8 -4.23331 -4.25336 0
M  V30 12910 H 1232.87 -3.9016 -2.87929 0
M  V30 12911 N 1234.21 1.05064 -1.1747 0
M  V30 12912 C 1235.63 1.30256 -0.922248 0
M  V30 12913 C 1235.83 1.97119 0.417896 0
M  V30 12914 O 1234.89 2.24557 1.15457 0
M  V30 12915 C 1236.2 2.17109 -2.08049 0
M  V30 12916 C 1237.75 2.30487 -2.11766 0
M  V30 12917 C 1238.22 3.20701 -3.26979 0
M  V30 12918 N 1239.71 3.28287 -3.26775 0
M  V30 12919 C 1240.45 3.98218 -4.12565 0
M  V30 12920 N 1239.94 4.70567 -5.08467 0
M  V30 12921 N 1241.74 3.94395 -4.00511 0
M  V30 12922 H 1233.89 0.600653 -2.0373 0
M  V30 12923 H 1236.15 0.327475 -0.889643 0
M  V30 12924 H 1235.86 1.75273 -3.04914 0
M  V30 12925 H 1235.73 3.1775 -2.03261 0
M  V30 12926 H 1238.12 2.71564 -1.15486 0
M  V30 12927 H 1238.2 1.29471 -2.20615 0
M  V30 12928 H 1237.84 2.80337 -4.23525 0
M  V30 12929 H 1237.77 4.21725 -3.15366 0
M  V30 12930 H 1240.26 2.76739 -2.5734 0
M  V30 12931 H 1240.58 5.21492 -5.70321 0
M  V30 12932 H 1238.92 4.69505 -5.12436 0
M  V30 12933 H 1242.11 3.37 -3.24882 0
M  V30 12934 H 1242.29 4.48626 -4.67588 0
M  V30 12935 N 1235.69 0.975146 1.23809 0
M  V30 12936 C 1236.62 0.469151 2.24347 0
M  V30 12937 C 1237.64 -0.426156 1.57123 0
M  V30 12938 O 1238.83 -0.231136 1.76997 0
M  V30 12939 C 1235.93 -0.34121 3.37178 0
M  V30 12940 C 1235.1 0.545968 4.33979 0
M  V30 12941 C 1234.16 -0.209648 5.25782 0
M  V30 12942 O 1233.18 0.398953 5.678 0
M  V30 12943 N 1234.39 -1.49713 5.60862 0
M  V30 12944 H 1237.15 1.33359 2.68394 0
M  V30 12945 H 1234.71 0.847814 1.37927 0
M  V30 12946 H 1236.7 -0.854924 3.95567 0
M  V30 12947 H 1235.27 -1.10663 2.92357 0
M  V30 12948 H 1234.49 1.24057 3.7417 0
M  V30 12949 H 1235.78 1.15077 4.95615 0
M  V30 12950 H 1235.18 -2.0132 5.28665 0
M  V30 12951 H 1233.74 -1.95639 6.21746 0
M  V30 12952 N 1237.17 -1.38817 0.746158 0
M  V30 12953 C 1238.1 -2.33144 0.128836 0
M  V30 12954 C 1239.08 -1.54487 -0.711873 0
M  V30 12955 O 1240.27 -1.82836 -0.654577 0
M  V30 12956 C 1237.4 -3.38639 -0.770772 0
M  V30 12957 C 1236.35 -4.27987 -0.0333669 0
M  V30 12958 C 1235.68 -5.24274 -1.05073 0
M  V30 12959 C 1236.98 -5.09915 1.13066 0
M  V30 12960 H 1238.67 -2.85019 0.916778 0
M  V30 12961 H 1236.22 -1.37039 0.442306 0
M  V30 12962 H 1238.17 -4.03587 -1.21225 0
M  V30 12963 H 1236.89 -2.8523 -1.59095 0
M  V30 12964 H 1235.55 -3.64534 0.388612 0
M  V30 12965 H 1235.2 -4.67156 -1.86478 0
M  V30 12966 H 1234.9 -5.84906 -0.562037 0
M  V30 12967 H 1236.42 -5.92099 -1.49169 0
M  V30 12968 H 1237.84 -5.68145 0.767084 0
M  V30 12969 H 1236.23 -5.79744 1.54972 0
M  V30 12970 H 1237.3 -4.4409 1.94709 0
M  V30 12971 N 1238.65 -0.49465 -1.49636 0
M  V30 12972 C 1239.58 0.276606 -2.31856 0
M  V30 12973 C 1240.56 0.968499 -1.39836 0
M  V30 12974 O 1241.74 0.96113 -1.68748 0
M  V30 12975 C 1238.87 1.34522 -3.20189 0
M  V30 12976 C 1237.83 0.773571 -4.20951 0
M  V30 12977 C 1237.15 1.94223 -4.98178 0
M  V30 12978 C 1238.45 -0.231096 -5.21788 0
M  V30 12979 H 1240.15 -0.409668 -2.96584 0
M  V30 12980 H 1237.69 -0.198461 -1.42626 0
M  V30 12981 H 1239.65 1.89244 -3.76517 0
M  V30 12982 H 1238.37 2.06059 -2.53392 0
M  V30 12983 H 1237.03 0.248144 -3.65759 0
M  V30 12984 H 1236.68 2.64514 -4.27834 0
M  V30 12985 H 1236.38 1.56584 -5.66353 0
M  V30 12986 H 1237.9 2.49391 -5.57348 0
M  V30 12987 H 1239.32 0.227768 -5.72847 0
M  V30 12988 H 1237.71 -0.522984 -5.97817 0
M  V30 12989 H 1238.78 -1.14914 -4.71087 0
M  V30 12990 N 1240.13 1.55939 -0.228214 0
M  V30 12991 C 1241.35 2.0287 0.406348 0
M  V30 12992 C 1241.77 1.1079 1.52876 0
M  V30 12993 O 1241.13 0.118747 1.82113 0
M  V30 12994 C 1241.18 3.49286 0.931734 0
M  V30 12995 O 1240.9 4.37857 -0.145933 0
M  V30 12996 C 1242.4 4.11893 1.63887 0
M  V30 12997 H 1239.62 0.663696 0.0987358 0
M  V30 12998 H 1242.16 2.01541 -0.346616 0
M  V30 12999 H 1240.32 3.5121 1.63494 0
M  V30 13000 H 1240.73 5.23904 0.250005 0
M  V30 13001 H 1242.21 5.16091 1.95841 0
M  V30 13002 H 1242.68 3.57281 2.55435 0
M  V30 13003 H 1243.29 4.13839 0.980697 0
M  V30 13004 N 1241.6 -0.0451101 1.57535 0
M  V30 13005 C 1242.85 -0.739114 1.88529 0
M  V30 13006 C 1243.18 -1.76208 0.823468 0
M  V30 13007 O 1242.43 -1.94893 -0.177512 0
M  V30 13008 C 1242.73 -1.45938 3.26247 0
M  V30 13009 C 1242.4 -0.57391 4.47233 0
M  V30 13010 C 1241.06 -0.329974 4.80067 0
M  V30 13011 C 1243.41 0.0384272 5.21186 0
M  V30 13012 C 1240.74 0.535339 5.84253 0
M  V30 13013 C 1243.09 0.891349 6.26289 0
M  V30 13014 C 1241.76 1.1449 6.57608 0
M  V30 13015 H 1241.03 -0.270461 0.689878 0
M  V30 13016 H 1243.67 0.000714103 1.915 0
M  V30 13017 H 1241.98 -2.27212 3.1919 0
M  V30 13018 H 1243.68 -2.00162 3.47471 0
M  V30 13019 H 1240.27 -0.774181 4.2155 0
M  V30 13020 H 1244.45 -0.137096 4.96111 0
M  V30 13021 H 1239.71 0.740253 6.06902 0
M  V30 13022 H 1243.88 1.37243 6.82743 0
M  V30 13023 H 1241.51 1.81715 7.38162 0
M  V30 13024 N 1243.08 -1.54377 -0.317073 0
M  V30 13025 C 1244.31 -1.76608 -1.07206 0
M  V30 13026 C 1244.72 -0.517818 -1.81976 0
M  V30 13027 O 1244.06 0.521375 -1.76146 0
M  V30 13028 C 1244.13 -2.91 -2.11091 0
M  V30 13029 C 1243.79 -4.29673 -1.55661 0
M  V30 13030 C 1244.79 -5.1029 -0.994999 0
M  V30 13031 C 1242.47 -4.76234 -1.59708 0
M  V30 13032 C 1244.47 -6.35581 -0.48123 0
M  V30 13033 C 1242.15 -6.01491 -1.07944 0
M  V30 13034 C 1243.15 -6.80999 -0.522467 0
M  V30 13035 O 1242.84 -8.03899 -0.0126274 0
M  V30 13036 H 1242.57 -0.593061 -0.32443 0
M  V30 13037 H 1245.12 -2.02097 -0.366859 0
M  V30 13038 H 1243.35 -2.61097 -2.85246 0
M  V30 13039 H 1245.04 -3.00954 -2.72363 0
M  V30 13040 H 1245.81 -4.7547 -0.956752 0
M  V30 13041 H 1241.69 -4.14387 -2.02 0
M  V30 13042 H 1245.23 -6.97585 -0.0458374 0
M  V30 13043 H 1241.13 -6.35801 -1.11478 0
M  V30 13044 H 1241.9 -8.18401 -0.127442 0
M  V30 13045 N 1244.56 0.579466 -1.4656 0
M  V30 13046 C 1245.51 1.68829 -1.5737 0
M  V30 13047 C 1246.48 1.60759 -0.417825 0
M  V30 13048 O 1247.66 1.79923 -0.635001 0
M  V30 13049 C 1244.8 3.07166 -1.573 0
M  V30 13050 C 1243.92 3.25837 -2.83645 0
M  V30 13051 C 1243.05 4.54441 -2.75057 0
M  V30 13052 C 1242.09 4.66467 -3.96327 0
M  V30 13053 N 1241.23 5.86401 -3.86107 0
M  V30 13054 H 1246.07 1.58928 -2.52083 0
M  V30 13055 H 1243.6 0.774526 -1.25058 0
M  V30 13056 H 1245.56 3.8724 -1.55245 0
M  V30 13057 H 1244.19 3.15956 -0.661166 0
M  V30 13058 H 1243.24 2.39345 -2.95666 0
M  V30 13059 H 1244.56 3.30591 -3.73512 0
M  V30 13060 H 1243.71 5.42748 -2.71126 0
M  V30 13061 H 1242.45 4.52131 -1.82836 0
M  V30 13062 H 1241.45 3.76577 -4.00587 0
M  V30 13063 H 1242.68 4.70554 -4.89649 0
M  V30 13064 H 1240.62 5.85082 -2.96673 0
M  V30 13065 H 1240.54 5.92437 -4.69632 0
M  V30 13066 H 1241.81 6.7713 -3.86155 0
M  V30 13067 N 1246.04 1.3432 0.824371 0
M  V30 13068 C 1247.28 1.26783 1.58284 0
M  V30 13069 C 1247.62 -0.162282 1.93521 0
M  V30 13070 O 1246.89 -1.1073 1.59903 0
M  V30 13071 C 1247.18 2.15725 2.88331 0
M  V30 13072 C 1247.03 3.67266 2.59684 0
M  V30 13073 C 1248.35 2.04141 3.8989 0
M  V30 13074 H 1245.47 0.461893 0.574303 0
M  V30 13075 H 1248.11 1.64558 0.949769 0
M  V30 13076 H 1246.26 1.83639 3.42358 0
M  V30 13077 H 1247.93 4.09711 2.11978 0
M  V30 13078 H 1246.17 3.88426 1.93151 0
M  V30 13079 H 1246.84 4.24863 3.52414 0
M  V30 13080 H 1249.32 2.3231 3.45212 0
M  V30 13081 H 1248.2 2.68601 4.7869 0
M  V30 13082 H 1248.46 1.01795 4.30221 0
M  V30 13083 N 1247.52 -1.0444 1.18026 0
M  V30 13084 C 1248.48 -2.10532 0.906028 0
M  V30 13085 C 1249.48 -1.60443 -0.107022 0
M  V30 13086 O 1250.67 -1.73744 0.126001 0
M  V30 13087 C 1247.8 -3.39008 0.358625 0
M  V30 13088 H 1248.99 -2.36293 1.84677 0
M  V30 13089 H 1246.55 -1.20805 0.991763 0
M  V30 13090 H 1247.28 -3.18908 -0.588904 0
M  V30 13091 H 1247.07 -3.76678 1.08884 0
M  V30 13092 H 1248.56 -4.17189 0.185331 0
M  V30 13093 N 1248.99 -0.981699 -1.2329 0
M  V30 13094 C 1250.24 -0.650015 -1.91361 0
M  V30 13095 C 1250.56 0.819184 -1.76959 0
M  V30 13096 O 1249.83 1.5861 -1.14977 0
M  V30 13097 H 1248.41 -0.237427 -0.708264 0
M  V30 13098 H 1251.08 -1.24579 -1.49887 0
M  V30 13099 H 1250.17 -0.902772 -2.98758 0
M  V30 13100 N 1250.47 1.3842 -0.753509 0
M  V30 13101 C 1251.72 1.99723 -0.309021 0
M  V30 13102 C 1252.04 1.60111 1.11308 0
M  V30 13103 O 1251.31 0.85792 1.76115 0
M  V30 13104 H 1249.89 0.738667 -0.111266 0
M  V30 13105 H 1252.55 1.69186 -0.967586 0
M  V30 13106 H 1251.65 3.09874 -0.372095 0
M  V30 13107 N 1251.95 0.502579 1.49372 0
M  V30 13108 C 1253.19 -0.0397257 2.04361 0
M  V30 13109 C 1253.55 -1.34131 1.37379 0
M  V30 13110 O 1254.76 -1.96795 1.83099 0
M  V30 13111 C 1253.03 -0.187322 3.56909 0
M  V30 13112 S 1254.59 -0.683647 4.33442 0
M  V30 13113 H 1251.4 -0.00102134 0.710999 0
M  V30 13114 H 1254.01 0.676905 1.83407 0
M  V30 13115 H 1252.71 0.765255 4.03202 0
M  V30 13116 H 1252.24 -0.929146 3.8227 0
M  V30 13117 H 1254.26 -1.95255 4.56169 0
M  V30 13118 N 1253.43 -1.55816 0.23648 0
M  V30 13119 C 1254.36 -2.18248 -0.700024 0
M  V30 13120 C 1255.37 -1.15579 -1.14654 0
M  V30 13121 O 1256.56 -1.42491 -1.07511 0
M  V30 13122 C 1253.66 -2.76338 -1.9619 0
M  V30 13123 C 1252.84 -4.04325 -1.66853 0
M  V30 13124 C 1251.89 -4.46834 -2.77895 0
M  V30 13125 O 1250.92 -5.13427 -2.45725 0
M  V30 13126 N 1252.12 -4.13753 -4.07171 0
M  V30 13127 H 1254.89 -2.99241 -0.16589 0
M  V30 13128 H 1252.45 -1.61803 0.0560383 0
M  V30 13129 H 1254.44 -3.01739 -2.69695 0
M  V30 13130 H 1253.01 -1.99563 -2.4061 0
M  V30 13131 H 1252.23 -3.86623 -0.769164 0
M  V30 13132 H 1253.52 -4.8779 -1.44703 0
M  V30 13133 H 1252.92 -3.60271 -4.36144 0
M  V30 13134 H 1251.47 -4.44014 -4.77174 0
M  V30 13135 N 1254.91 0.036755 -1.57557 0
M  V30 13136 C 1255.82 1.05687 -2.09446 0
M  V30 13137 C 1256.83 1.40137 -1.03139 0
M  V30 13138 O 1258.01 1.49611 -1.34828 0
M  V30 13139 C 1255.07 2.34114 -2.55717 0
M  V30 13140 C 1254.13 2.06316 -3.76473 0
M  V30 13141 C 1253.37 3.2862 -4.20529 0
M  V30 13142 O 1253.59 4.3902 -3.64167 0
M  V30 13143 O 1252.52 3.14772 -5.13033 0
M  V30 13144 H 1256.35 0.64593 -2.96751 0
M  V30 13145 H 1253.94 0.253235 -1.47238 0
M  V30 13146 H 1255.82 3.09631 -2.85844 0
M  V30 13147 H 1254.49 2.74519 -1.71526 0
M  V30 13148 H 1253.4 1.28392 -3.51378 0
M  V30 13149 H 1254.73 1.70772 -4.61625 0
M  V30 13150 N 1256.39 1.54543 0.308881 0
M  V30 13151 C 1257.8 1.45581 0.654088 0
M  V30 13152 C 1258 0.640597 1.91046 0
M  V30 13153 O 1257.06 0.14518 2.52082 0
M  V30 13154 C 1258.37 2.89461 0.814422 0
M  V30 13155 C 1259.92 2.99455 0.910817 0
M  V30 13156 C 1260.39 4.44515 1.10321 0
M  V30 13157 N 1261.88 4.4819 1.1696 0
M  V30 13158 C 1262.62 5.57604 1.33661 0
M  V30 13159 N 1262.12 6.76957 1.47311 0
M  V30 13160 N 1263.91 5.45278 1.36487 0
M  V30 13161 H 1256.06 2.06019 -0.516699 0
M  V30 13162 H 1258.32 0.932729 -0.169471 0
M  V30 13163 H 1258.03 3.5168 -0.0377455 0
M  V30 13164 H 1257.9 3.36425 1.70582 0
M  V30 13165 H 1260.29 2.37355 1.75348 0
M  V30 13166 H 1260.37 2.558 -0.00443172 0
M  V30 13167 H 1260.01 5.07206 0.265346 0
M  V30 13168 H 1259.94 4.85793 2.03256 0
M  V30 13169 H 1262.44 3.62199 1.07796 0
M  V30 13170 H 1262.75 7.561 1.59788 0
M  V30 13171 H 1261.09 6.79837 1.44382 0
M  V30 13172 H 1264.28 4.50983 1.25429 0
M  V30 13173 H 1264.46 6.30599 1.4916 0
M  V30 13174 N 1257.86 -0.571685 1.46866 0
M  V30 13175 C 1259.09 -1.36008 1.56578 0
M  V30 13176 C 1259.51 -1.86909 0.211326 0
M  V30 13177 O 1258.87 -1.62179 -0.810421 0
M  V30 13178 C 1258.92 -2.51598 2.58323 0
M  V30 13179 O 1258.02 -3.53383 2.1259 0
M  V30 13180 H 1257.36 -0.404593 0.526498 0
M  V30 13181 H 1259.89 -0.692357 1.92529 0
M  V30 13182 H 1259.9 -2.98366 2.78283 0
M  V30 13183 H 1258.58 -2.13904 3.56676 0
M  V30 13184 H 1257.16 -3.13019 2.02666 0
M  V30 13185 N 1259.34 -1.34755 -0.817236 0
M  V30 13186 C 1260.27 -1.22648 -1.93624 0
M  V30 13187 C 1261.29 -0.152226 -1.62087 0
M  V30 13188 O 1262.48 -0.404578 -1.73855 0
M  V30 13189 C 1259.58 -0.863519 -3.27714 0
M  V30 13190 C 1258.75 -2.03394 -3.87233 0
M  V30 13191 C 1257.81 -1.64846 -4.99712 0
M  V30 13192 O 1256.83 -2.3658 -5.17705 0
M  V30 13193 N 1258.04 -0.565909 -5.77735 0
M  V30 13194 H 1260.8 -2.19051 -2.0454 0
M  V30 13195 H 1258.36 -1.27785 -0.994113 0
M  V30 13196 H 1260.35 -0.58733 -4.00415 0
M  V30 13197 H 1258.92 0.0104987 -3.12598 0
M  V30 13198 H 1258.14 -2.47454 -3.06856 0
M  V30 13199 H 1259.43 -2.81655 -4.23731 0
M  V30 13200 H 1258.83 0.030313 -5.65692 0
M  V30 13201 H 1257.39 -0.349467 -6.50862 0
M  V30 13202 N 1260.82 1.03812 -1.18578 0
M  V30 13203 C 1262.07 1.76706 -0.980776 0
M  V30 13204 C 1262.39 1.88729 0.490562 0
M  V30 13205 O 1261.66 1.41413 1.35569 0
M  V30 13206 H 1260.24 0.654586 -0.359898 0
M  V30 13207 H 1262.9 1.25274 -1.49306 0
M  V30 13208 H 1262 2.77876 -1.42096 0
M  V30 13209 N 1262.3 0.988223 1.22768 0
M  V30 13210 C 1263.54 0.669599 1.93121 0
M  V30 13211 C 1263.9 -0.783331 1.75294 0
M  V30 13212 O 1265.1 -1.21315 2.39867 0
M  V30 13213 C 1263.37 1.05876 3.41358 0
M  V30 13214 S 1264.93 0.857797 4.30334 0
M  V30 13215 H 1261.75 0.244972 0.667465 0
M  V30 13216 H 1264.35 1.26952 1.48673 0
M  V30 13217 H 1263.06 2.11267 3.51844 0
M  V30 13218 H 1262.59 0.450453 3.90813 0
M  V30 13219 H 1264.6 -0.254171 4.95549 0
M  V30 13220 N 1263.78 -1.38018 0.760839 0
M  V30 13221 C 1265.02 -1.99952 0.320241 0
M  V30 13222 C 1265.35 -1.60397 -1.10014 0
M  V30 13223 O 1264.61 -0.836407 -1.76926 0
M  V30 13224 C 1264.9 -3.55168 0.398778 0
M  V30 13225 C 1264.57 -4.14457 1.77585 0
M  V30 13226 C 1263.23 -4.30363 2.15269 0
M  V30 13227 C 1265.58 -4.47089 2.67883 0
M  V30 13228 C 1262.91 -4.762 3.4271 0
M  V30 13229 C 1265.26 -4.94345 3.94722 0
M  V30 13230 C 1263.93 -5.08458 4.32466 0
M  V30 13231 H 1263.2 -0.731675 0.117185 0
M  V30 13232 H 1265.85 -1.64955 0.972736 0
M  V30 13233 H 1264.15 -3.90346 -0.337273 0
M  V30 13234 H 1265.85 -4.00981 0.0393393 0
M  V30 13235 H 1262.44 -4.02496 1.47292 0
M  V30 13236 H 1266.62 -4.34395 2.40031 0
M  V30 13237 H 1261.88 -4.85312 3.71863 0
M  V30 13238 H 1266.05 -5.18563 4.64828 0
M  V30 13239 H 1263.68 -5.43735 5.31278 0
M  V30 13240 N 1265.25 -0.510493 -1.49103 0
M  V30 13241 C 1266.66 -0.0650831 -1.86587 0
M  V30 13242 C 1267.02 1.35185 -1.42195 0
M  V30 13243 O 1266.14 2.0091 -0.804004 0
M  V30 13244 C 1266.74 -0.111333 -3.38617 0
M  V30 13245 C 1265.29 0.278782 -3.75366 0
M  V30 13246 C 1264.44 -0.479707 -2.73119 0
M  V30 13247 H 1267.39 -0.722784 -1.41285 0
M  V30 13248 H 1267.41 0.681706 -3.74343 0
M  V30 13249 H 1266.93 -1.14271 -3.70896 0
M  V30 13250 H 1265.03 1.31304 -3.48698 0
M  V30 13251 H 1265.14 -0.047271 -4.79077 0
M  V30 13252 H 1263.5 0.0716459 -2.54599 0
M  V30 13253 H 1264.29 -1.51135 -3.08242 0
M  V30 13254 N 1266.73 1.55688 -0.24474 0
M  V30 13255 C 1267.98 1.99186 0.381167 0
M  V30 13256 C 1268.31 1.13266 1.57748 0
M  V30 13257 O 1267.59 0.195568 1.93514 0
M  V30 13258 C 1267.87 3.51257 0.793142 0
M  V30 13259 C 1267.72 4.47942 -0.408409 0
M  V30 13260 C 1269.04 4.08365 1.64091 0
M  V30 13261 H 1266.16 0.724141 0.137073 0
M  V30 13262 H 1268.8 1.8683 -0.345619 0
M  V30 13263 H 1266.95 3.61917 1.4124 0
M  V30 13264 H 1268.62 4.49265 -1.04682 0
M  V30 13265 H 1266.87 4.20854 -1.05189 0
M  V30 13266 H 1267.54 5.51946 -0.0768531 0
M  V30 13267 H 1270.01 4.00794 1.1182 0
M  V30 13268 H 1268.89 5.1504 1.89802 0
M  V30 13269 H 1269.15 3.56687 2.61202 0
M  V30 13270 N 1268.21 -0.0283989 1.57574 0
M  V30 13271 C 1269.44 -0.729772 1.93282 0
M  V30 13272 C 1269.85 -1.69384 0.842959 0
M  V30 13273 O 1269.19 -1.82722 -0.189286 0
M  V30 13274 C 1269.25 -1.54107 3.24794 0
M  V30 13275 C 1268.92 -0.741709 4.50941 0
M  V30 13276 C 1269.91 -0.0416985 5.19883 0
M  V30 13277 C 1267.6 -0.696053 4.97454 0
M  V30 13278 C 1269.59 0.693261 6.33619 0
M  V30 13279 C 1267.28 0.042651 6.11085 0
M  V30 13280 C 1268.28 0.736067 6.79022 0
M  V30 13281 O 1267.97 1.46278 7.9048 0
M  V30 13282 H 1267.7 -0.210092 0.642524 0
M  V30 13283 H 1270.25 0.0102277 2.05397 0
M  V30 13284 H 1268.48 -2.3249 3.09007 0
M  V30 13285 H 1270.17 -2.12512 3.45823 0
M  V30 13286 H 1270.94 -0.0679975 4.84952 0
M  V30 13287 H 1266.82 -1.22528 4.44419 0
M  V30 13288 H 1270.36 1.23504 6.8658 0
M  V30 13289 H 1266.26 0.0708708 6.45461 0
M  V30 13290 H 1267.02 1.37652 8.06842 0
M  V30 13291 N 1269.69 -1.54705 -0.300681 0
M  V30 13292 C 1270.62 -1.88679 -1.37559 0
M  V30 13293 C 1271.6 -0.74574 -1.52881 0
M  V30 13294 O 1272.78 -1.0015 -1.66384 0
M  V30 13295 C 1269.91 -2.13438 -2.73974 0
M  V30 13296 C 1268.87 -3.29284 -2.73415 0
M  V30 13297 C 1268.19 -3.39462 -4.13122 0
M  V30 13298 C 1269.49 -4.66382 -2.35128 0
M  V30 13299 H 1271.19 -2.78707 -1.09373 0
M  V30 13300 H 1268.73 -1.341 -0.524704 0
M  V30 13301 H 1270.69 -2.35791 -3.49257 0
M  V30 13302 H 1269.41 -1.20181 -3.03684 0
M  V30 13303 H 1268.07 -3.06855 -2.00588 0
M  V30 13304 H 1267.72 -2.43721 -4.4001 0
M  V30 13305 H 1267.42 -4.17334 -4.1365 0
M  V30 13306 H 1268.94 -3.64075 -4.90185 0
M  V30 13307 H 1270.36 -4.88463 -3.00128 0
M  V30 13308 H 1268.75 -5.4697 -2.46867 0
M  V30 13309 H 1269.82 -4.67078 -1.30256 0
M  V30 13310 N 1271.17 0.563888 -1.47167 0
M  V30 13311 C 1272.41 1.32331 -1.53676 0
M  V30 13312 C 1272.75 1.93213 -0.195593 0
M  V30 13313 O 1272.02 1.77508 0.795068 0
M  V30 13314 C 1272.3 2.43848 -2.64972 0
M  V30 13315 C 1272.16 1.8788 -4.08682 0
M  V30 13316 C 1273.48 3.45809 -2.72221 0
M  V30 13317 H 1270.59 0.479791 -0.559437 0
M  V30 13318 H 1273.24 0.631669 -1.79192 0
M  V30 13319 H 1271.39 3.02846 -2.43345 0
M  V30 13320 H 1273.06 1.33195 -4.41652 0
M  V30 13321 H 1271.3 1.18593 -4.17275 0
M  V30 13322 H 1271.97 2.68465 -4.82318 0
M  V30 13323 H 1274.45 2.9672 -2.91713 0
M  V30 13324 H 1273.32 4.21272 -3.51882 0
M  V30 13325 H 1273.59 4.04236 -1.79014 0
M  V30 13326 N 1272.64 1.35187 0.810078 0
M  V30 13327 C 1273.87 1.31181 1.59609 0
M  V30 13328 C 1274.28 -0.113556 1.88859 0
M  V30 13329 O 1273.63 -1.07491 1.48968 0
M  V30 13330 C 1273.69 2.04749 2.95496 0
M  V30 13331 C 1273.35 3.53952 2.89079 0
M  V30 13332 C 1274.35 4.48612 2.6276 0
M  V30 13333 C 1272.03 3.96551 3.08306 0
M  V30 13334 C 1274.03 5.83846 2.5574 0
M  V30 13335 C 1271.71 5.31881 3.00909 0
M  V30 13336 C 1272.71 6.2534 2.74661 0
M  V30 13337 O 1272.4 7.58188 2.6722 0
M  V30 13338 H 1272.13 0.452285 0.502408 0
M  V30 13339 H 1274.69 1.78571 1.01497 0
M  V30 13340 H 1272.92 1.51992 3.55577 0
M  V30 13341 H 1274.61 1.93866 3.5661 0
M  V30 13342 H 1275.37 4.1702 2.47628 0
M  V30 13343 H 1271.25 3.24194 3.27749 0
M  V30 13344 H 1274.79 6.56765 2.35172 0
M  V30 13345 H 1270.69 5.63088 3.15598 0
M  V30 13346 H 1271.46 7.68073 2.82853 0
M  V30 13347 N 1274.12 -1.03182 1.19127 0
M  V30 13348 C 1275.35 -1.80703 1.01791 0
M  V30 13349 C 1275.77 -1.83147 -0.428824 0
M  V30 13350 O 1275.13 -1.2553 -1.30812 0
M  V30 13351 C 1275.18 -3.23754 1.58794 0
M  V30 13352 O 1274.28 -4.04261 0.815274 0
M  V30 13353 H 1273.62 -0.557944 0.359992 0
M  V30 13354 H 1276.15 -1.29887 1.58084 0
M  V30 13355 H 1276.16 -3.7451 1.61884 0
M  V30 13356 H 1274.84 -3.2129 2.64094 0
M  V30 13357 H 1273.42 -3.62909 0.857392 0
M  V30 13358 N 1275.6 -0.99472 -1.22242 0
M  V30 13359 C 1276.88 -0.587481 -1.86569 0
M  V30 13360 C 1277.26 0.935174 -1.89256 0
M  V30 13361 O 1276.61 1.81787 -1.3844 0
M  V30 13362 C 1276.82 -1.21001 -3.27353 0
M  V30 13363 C 1278.16 -1.31167 -4.03832 0
M  V30 13364 O 1279.19 -1.16454 -3.36626 0
M  V30 13365 O 1278.05 -1.54731 -5.24138 0
M  V30 13366 H 1275.14 -0.199838 -0.802492 0
M  V30 13367 H 1277.69 -1.09071 -1.30006 0
M  V30 13368 H 1276.46 -2.25143 -3.20041 0
M  V30 13369 H 1276.08 -0.692479 -3.91523 0
M  V30 13370 N 1277.08 1.37613 -0.768148 0
M  V30 13371 C 1278.03 2.30311 -0.150176 0
M  V30 13372 C 1279 1.50918 0.69376 0
M  V30 13373 O 1280.18 1.795 0.64687 0
M  V30 13374 C 1277.32 3.37382 0.72576 0
M  V30 13375 C 1276.43 4.31791 -0.13439 0
M  V30 13376 C 1275.57 5.25937 0.745915 0
M  V30 13377 C 1274.61 6.11988 -0.116988 0
M  V30 13378 N 1273.74 6.98387 0.721091 0
M  V30 13379 H 1278.58 2.82579 -0.946212 0
M  V30 13380 H 1276.12 1.3911 -0.478217 0
M  V30 13381 H 1278.08 3.98084 1.24839 0
M  V30 13382 H 1276.71 2.86488 1.48743 0
M  V30 13383 H 1275.76 3.72426 -0.774793 0
M  V30 13384 H 1277.07 4.9234 -0.800163 0
M  V30 13385 H 1276.23 5.91826 1.33516 0
M  V30 13386 H 1274.97 4.6579 1.44538 0
M  V30 13387 H 1273.97 5.45081 -0.7188 0
M  V30 13388 H 1275.2 6.74207 -0.813732 0
M  V30 13389 H 1273.14 6.40772 1.40524 0
M  V30 13390 H 1273.06 7.55916 0.112536 0
M  V30 13391 H 1274.33 7.6867 1.29485 0
M  V30 13392 N 1278.56 0.518393 1.4883 0
M  V30 13393 C 1279.97 0.175476 1.58632 0
M  V30 13394 C 1280.17 -1.32081 1.52174 0
M  V30 13395 O 1279.23 -2.09817 1.40474 0
M  V30 13396 C 1280.54 0.767722 2.90734 0
M  V30 13397 C 1282.09 0.735402 3.04238 0
M  V30 13398 C 1282.56 1.30602 4.38984 0
M  V30 13399 N 1284.06 1.26748 4.45521 0
M  V30 13400 C 1284.79 1.679 5.48267 0
M  V30 13401 N 1284.29 2.16728 6.58028 0
M  V30 13402 N 1286.08 1.59209 5.39082 0
M  V30 13403 H 1278.23 1.491 1.51271 0
M  V30 13404 H 1280.49 0.619497 0.717584 0
M  V30 13405 H 1280.2 1.81777 3.01081 0
M  V30 13406 H 1280.07 0.238119 3.76448 0
M  V30 13407 H 1282.46 -0.305852 2.93511 0
M  V30 13408 H 1282.54 1.30235 2.20165 0
M  V30 13409 H 1282.19 2.34614 4.50465 0
M  V30 13410 H 1282.12 0.714858 5.21725 0
M  V30 13411 H 1284.61 0.90991 3.66782 0
M  V30 13412 H 1284.92 2.46154 7.32549 0
M  V30 13413 H 1283.26 2.20714 6.59022 0
M  V30 13414 H 1286.46 1.20869 4.52226 0
M  V30 13415 H 1286.63 1.91602 6.19025 0
M  V30 13416 N 1280.03 -1.55556 0.252993 0
M  V30 13417 C 1280.97 -2.17683 -0.684776 0
M  V30 13418 C 1281.95 -1.13077 -1.16843 0
M  V30 13419 O 1283.13 -1.41495 -1.24545 0
M  V30 13420 C 1280.26 -2.78239 -1.93134 0
M  V30 13421 C 1279.3 -3.95953 -1.58504 0
M  V30 13422 S 1280.14 -5.31135 -0.682367 0
M  V30 13423 C 1281.29 -5.95147 -1.93779 0
M  V30 13424 H 1281.52 -2.96886 -0.156823 0
M  V30 13425 H 1279.06 -1.54355 0.0374019 0
M  V30 13426 H 1281.02 -3.13763 -2.64694 0
M  V30 13427 H 1279.68 -1.98971 -2.43042 0
M  V30 13428 H 1278.87 -4.36936 -2.51203 0
M  V30 13429 H 1278.47 -3.61738 -0.949815 0
M  V30 13430 H 1280.76 -6.13035 -2.88435 0
M  V30 13431 H 1281.71 -6.90445 -1.57135 0
M  V30 13432 H 1282.11 -5.24279 -2.09266 0
M  V30 13433 N 1281.51 0.0200419 -1.57587 0
M  V30 13434 C 1282.76 0.710078 -1.89962 0
M  V30 13435 C 1283.09 1.74521 -0.851829 0
M  V30 13436 O 1282.37 1.94052 0.132005 0
M  V30 13437 C 1282.65 1.37145 -3.32961 0
M  V30 13438 C 1282.5 0.349221 -4.48442 0
M  V30 13439 C 1283.82 2.30304 -3.75031 0
M  V30 13440 H 1280.94 0.25667 -0.690862 0
M  V30 13441 H 1283.58 -0.0271362 -1.89981 0
M  V30 13442 H 1281.73 1.99981 -3.33076 0
M  V30 13443 H 1283.4 -0.277916 -4.60462 0
M  V30 13444 H 1281.65 -0.330594 -4.32538 0
M  V30 13445 H 1282.32 0.850636 -5.45406 0
M  V30 13446 H 1284.79 1.77503 -3.7634 0
M  V30 13447 H 1283.67 2.73555 -4.75877 0
M  V30 13448 H 1283.93 3.17364 -3.07786 0
M  V30 13449 N 1282.99 1.54862 0.292472 0
M  V30 13450 C 1283.92 1.82786 1.38282 0
M  V30 13451 C 1284.94 0.711253 1.46441 0
M  V30 13452 O 1286.12 0.988851 1.48607 0
M  V30 13453 C 1283.22 1.95845 2.76582 0
M  V30 13454 C 1282.4 3.2633 2.91252 0
M  V30 13455 C 1281.46 3.29697 4.10105 0
M  V30 13456 O 1280.48 4.03184 4.01785 0
M  V30 13457 N 1281.68 2.557 5.21151 0
M  V30 13458 H 1284.45 2.76891 1.1468 0
M  V30 13459 H 1282.01 1.54541 0.482561 0
M  V30 13460 H 1284 1.95491 3.54352 0
M  V30 13461 H 1282.57 1.08696 2.93094 0
M  V30 13462 H 1281.79 3.39387 2.00525 0
M  V30 13463 H 1283.08 4.12421 2.9797 0
M  V30 13464 H 1282.48 1.95642 5.30792 0
M  V30 13465 H 1281.04 2.61089 5.97223 0
M  V30 13466 N 1284.47 -0.556076 1.47464 0
M  V30 13467 C 1285.7 -1.33858 1.57764 0
M  V30 13468 C 1286.11 -1.87415 0.22825 0
M  V30 13469 O 1285.47 -1.65054 -0.778674 0
M  V30 13470 C 1285.52 -2.5077 2.60378 0
M  V30 13471 O 1285.24 -1.99426 3.90078 0
M  V30 13472 C 1286.74 -3.42965 2.80873 0
M  V30 13473 H 1283.96 -0.408003 0.532705 0
M  V30 13474 H 1286.51 -0.673501 1.93091 0
M  V30 13475 H 1284.66 -3.13214 2.27982 0
M  V30 13476 H 1285.07 -2.75759 4.46158 0
M  V30 13477 H 1286.55 -4.21412 3.56533 0
M  V30 13478 H 1287.03 -3.96579 1.88737 0
M  V30 13479 H 1287.63 -2.86336 3.14471 0
M  V30 13480 N 1285.95 -1.35615 -0.802897 0
M  V30 13481 C 1286.91 -1.28705 -1.89651 0
M  V30 13482 C 1287.91 -0.197681 -1.5958 0
M  V30 13483 O 1289.1 -0.451618 -1.68244 0
M  V30 13484 C 1286.23 -0.991941 -3.26149 0
M  V30 13485 H 1287.43 -2.25951 -1.97196 0
M  V30 13486 H 1284.98 -1.20192 -0.999179 0
M  V30 13487 H 1285.71 -0.0235051 -3.24291 0
M  V30 13488 H 1285.5 -1.78013 -3.49362 0
M  V30 13489 H 1286.99 -0.969298 -4.06195 0
M  V30 13490 N 1287.43 1.02549 -1.19673 0
M  V30 13491 C 1288.39 2.09064 -0.939407 0
M  V30 13492 C 1289.39 1.60593 0.0814837 0
M  V30 13493 O 1290.58 1.73521 -0.153626 0
M  V30 13494 C 1287.71 3.38395 -0.412513 0
M  V30 13495 H 1288.9 2.33325 -1.88413 0
M  V30 13496 H 1286.46 1.19211 -1.01086 0
M  V30 13497 H 1287.19 3.19805 0.538094 0
M  V30 13498 H 1286.98 3.74898 -1.14863 0
M  V30 13499 H 1288.47 4.16841 -0.251678 0
M  V30 13500 N 1288.9 1.00119 1.21713 0
M  V30 13501 C 1290.15 0.680377 1.90303 0
M  V30 13502 C 1290.47 -0.790927 1.7824 0
M  V30 13503 O 1289.74 -1.5676 1.17486 0
M  V30 13504 H 1288.32 0.248665 0.704397 0
M  V30 13505 H 1290.98 1.26948 1.47886 0
M  V30 13506 H 1290.08 0.950188 2.97284 0
M  V30 13507 N 1290.38 -1.37203 0.775435 0
M  V30 13508 C 1291.66 -1.93783 0.266005 0
M  V30 13509 C 1292.04 -1.70875 -1.23956 0
M  V30 13510 O 1291.39 -1.05965 -2.02444 0
M  V30 13511 C 1291.6 -3.43018 0.643404 0
M  V30 13512 C 1292.94 -4.20119 0.615267 0
M  V30 13513 O 1293.97 -3.51396 0.583018 0
M  V30 13514 O 1292.83 -5.42673 0.645637 0
M  V30 13515 H 1289.92 -0.824649 0.0623107 0
M  V30 13516 H 1292.47 -1.46468 0.857036 0
M  V30 13517 H 1291.24 -3.5329 1.68232 0
M  V30 13518 H 1290.86 -3.97592 0.0255138 0
M  V30 13519 N 1291.86 -0.526279 -1.48553 0
M  V30 13520 C 1293.09 0.00522012 -2.06599 0
M  V30 13521 C 1293.5 1.29039 -1.38368 0
M  V30 13522 O 1292.84 1.77747 -0.463854 0
M  V30 13523 C 1292.9 0.303512 -3.58216 0
M  V30 13524 C 1292.57 -0.887635 -4.48297 0
M  V30 13525 C 1293.56 -1.78504 -4.88295 0
M  V30 13526 C 1291.25 -1.09359 -4.90251 0
M  V30 13527 C 1293.24 -2.87233 -5.69013 0
M  V30 13528 C 1290.93 -2.18402 -5.7074 0
M  V30 13529 C 1291.93 -3.07172 -6.10028 0
M  V30 13530 O 1291.62 -4.14329 -6.88902 0
M  V30 13531 H 1291.35 -0.0287033 -0.67539 0
M  V30 13532 H 1293.9 -0.730244 -1.91981 0
M  V30 13533 H 1292.13 1.0929 -3.70935 0
M  V30 13534 H 1293.82 0.776647 -3.98401 0
M  V30 13535 H 1294.59 -1.63785 -4.56508 0
M  V30 13536 H 1290.47 -0.411922 -4.59156 0
M  V30 13537 H 1294.01 -3.56549 -5.99599 0
M  V30 13538 H 1289.91 -2.33106 -6.0194 0
M  V30 13539 H 1290.67 -4.11993 -7.07251 0
M  V30 13540 N 1293.34 1.5542 -0.261239 0
M  V30 13541 C 1294.56 2.04142 0.366144 0
M  V30 13542 C 1294.99 1.13884 1.49706 0
M  V30 13543 O 1294.35 0.134629 1.80799 0
M  V30 13544 C 1294.39 3.50733 0.837774 0
M  V30 13545 O 1293.5 3.63588 1.94621 0
M  V30 13546 H 1292.84 0.659424 0.077821 0
M  V30 13547 H 1295.37 2.0082 -0.391487 0
M  V30 13548 H 1295.38 3.91831 1.13721 0
M  V30 13549 H 1294.05 4.15899 0.0102742 0
M  V30 13550 H 1292.63 3.34391 1.65037 0
M  V30 13551 N 1294.82 -0.0116844 1.57596 0
M  V30 13552 C 1296.06 -0.697577 1.89679 0
M  V30 13553 C 1296.38 -1.74956 0.861122 0
M  V30 13554 O 1295.65 -1.95629 -0.103031 0
M  V30 13555 H 1294.23 -0.26064 0.700054 0
M  V30 13556 H 1296.9 0.0264782 1.94882 0
M  V30 13557 H 1295.99 -1.17621 2.89088 0
M  V30 13558 N 1296.29 -1.55015 -0.284256 0
M  V30 13559 C 1297.24 -1.87898 -1.37102 0
M  V30 13560 C 1298.24 -0.754231 -1.51683 0
M  V30 13561 O 1299.44 -0.93844 -1.53601 0
M  V30 13562 H 1295.82 -0.596208 -0.458301 0
M  V30 13563 H 1297.79 -2.78704 -1.06613 0
M  V30 13564 C 1296.54 -2.15764 -2.72656 0
M  V30 13565 H 1295.86 -3.01792 -2.62224 0
M  V30 13566 H 1297.3 -2.42701 -3.47667 0
M  V30 13567 C 1295.76 -0.961561 -3.22886 0
M  V30 13568 O 1296.29 -0.190489 -4.01248 0
M  V30 13569 N 1294.49 -0.762338 -2.80422 0
M  V30 13570 H 1294.04 -1.39104 -2.16813 0
M  V30 13571 H 1294 0.0363482 -3.14379 0
M  V30 13572 N 1297.77 0.548248 -1.47757 0
M  V30 13573 C 1299.02 1.30139 -1.54099 0
M  V30 13574 C 1299.33 1.9445 -0.2118 0
M  V30 13575 O 1300.54 2.71067 -0.153302 0
M  V30 13576 C 1299 2.36039 -2.71687 0
M  V30 13577 C 1298.6 1.77879 -4.11173 0
M  V30 13578 C 1300.35 3.12478 -2.87329 0
M  V30 13579 C 1298.25 2.81611 -5.20047 0
M  V30 13580 H 1297.18 0.489364 -0.573619 0
M  V30 13581 H 1299.84 0.581237 -1.74051 0
M  V30 13582 H 1298.22 3.11008 -2.45132 0
M  V30 13583 H 1299.39 1.09221 -4.47669 0
M  V30 13584 H 1297.71 1.13994 -4.00493 0
M  V30 13585 H 1300.3 3.89958 -3.65837 0
M  V30 13586 H 1300.65 3.67218 -1.96103 0
M  V30 13587 H 1301.18 2.4462 -3.13697 0
M  V30 13588 H 1297.92 2.31714 -6.13179 0
M  V30 13589 H 1297.44 3.48652 -4.88059 0
M  V30 13590 H 1299.12 3.44938 -5.47382 0
M  V30 13591 N 1299.25 1.36039 0.795694 0
M  V30 13592 C 1300.16 1.31991 1.93948 0
M  V30 13593 C 1301.18 0.223064 1.72564 0
M  V30 13594 O 1302.35 0.454344 1.96208 0
M  V30 13595 C 1299.42 1.10228 3.28711 0
M  V30 13596 C 1298.48 2.29328 3.62914 0
M  V30 13597 C 1297.71 2.08595 4.91247 0
M  V30 13598 O 1297.93 1.05793 5.60503 0
M  V30 13599 O 1296.87 2.96222 5.23962 0
M  V30 13600 H 1300.69 2.28274 2.00311 0
M  V30 13601 H 1298.28 1.16521 0.935048 0
M  V30 13602 H 1300.16 0.999842 4.09367 0
M  V30 13603 H 1298.84 0.17003 3.23253 0
M  V30 13604 H 1297.74 2.4514 2.8259 0
M  V30 13605 H 1299.08 3.21038 3.73089 0
M  V30 13606 N 1300.73 -1.01913 1.20215 0
M  V30 13607 C 1301.97 -1.75843 1.0223 0
M  V30 13608 C 1302.33 -1.87272 -0.441237 0
M  V30 13609 O 1301.62 -1.38562 -1.32329 0
M  V30 13610 C 1301.82 -3.17734 1.63646 0
M  V30 13611 C 1301.65 -3.20138 3.15819 0
M  V30 13612 C 1300.42 -3.27524 3.84781 0
M  V30 13613 C 1302.61 -3.0639 4.13073 0
M  V30 13614 N 1300.6 -3.19405 5.24265 0
M  V30 13615 C 1301.97 -3.06013 5.39218 0
M  V30 13616 C 1304.02 -2.90588 4.04306 0
M  V30 13617 C 1302.72 -2.91455 6.57607 0
M  V30 13618 C 1304.75 -2.77383 5.22315 0
M  V30 13619 C 1304.11 -2.77669 6.47363 0
M  V30 13620 H 1300.21 -0.654282 0.428298 0
M  V30 13621 H 1302.8 -1.2124 1.52345 0
M  V30 13622 H 1300.97 -3.70636 1.16118 0
M  V30 13623 H 1302.7 -3.8008 1.39002 0
M  V30 13624 H 1299.45 -3.34145 3.35625 0
M  V30 13625 H 1299.88 -3.18726 5.97279 0
M  V30 13626 H 1304.52 -2.89182 3.08438 0
M  V30 13627 H 1302.24 -2.9161 7.53651 0
M  V30 13628 H 1305.82 -2.66177 5.1734 0
M  V30 13629 H 1304.7 -2.67566 7.37142 0
M  V30 13630 N 1302.21 -1.00763 -1.2118 0
M  V30 13631 C 1303.17 -0.575183 -2.21865 0
M  V30 13632 C 1304.17 0.349871 -1.56948 0
M  V30 13633 O 1305.36 0.139795 -1.73638 0
M  V30 13634 C 1302.49 0.161308 -3.40518 0
M  V30 13635 H 1303.68 -1.46578 -2.61639 0
M  V30 13636 H 1301.24 -0.79643 -1.34487 0
M  V30 13637 H 1301.97 1.06723 -3.06236 0
M  V30 13638 H 1301.76 -0.503101 -3.88859 0
M  V30 13639 H 1303.25 0.451527 -4.15152 0
M  V30 13640 N 1303.68 1.3679 -0.7827 0
M  V30 13641 C 1304.91 2.04206 -0.362571 0
M  V30 13642 C 1305.33 1.58637 1.01074 0
M  V30 13643 O 1304.69 0.751692 1.64983 0
M  V30 13644 C 1304.74 3.58062 -0.4271 0
M  V30 13645 O 1303.84 4.08463 0.56845 0
M  V30 13646 H 1303.19 0.645638 -0.155073 0
M  V30 13647 H 1305.72 1.74883 -1.06194 0
M  V30 13648 H 1305.73 4.0698 -0.288298 0
M  V30 13649 H 1304.4 3.90582 -1.42893 0
M  V30 13650 H 1302.98 3.70835 0.391863 0
M  V30 13651 N 1305.16 0.53415 1.48272 0
M  V30 13652 C 1306.4 0.00363134 2.044 0
M  V30 13653 C 1306.77 -1.31187 1.40193 0
M  V30 13654 O 1307.97 -1.92867 1.87232 0
M  V30 13655 C 1306.24 -0.111574 3.57226 0
M  V30 13656 S 1307.8 -0.591554 4.34794 0
M  V30 13657 H 1304.62 0.0140602 0.710861 0
M  V30 13658 H 1307.22 0.715656 1.8193 0
M  V30 13659 H 1305.92 0.850608 4.01488 0
M  V30 13660 H 1305.45 -0.847852 3.84155 0
M  V30 13661 H 1307.47 -1.85535 4.60208 0
M  V30 13662 N 1306.64 -1.55279 0.269478 0
M  V30 13663 C 1307.87 -2.03876 -0.352418 0
M  V30 13664 C 1308.28 -1.14804 -1.49885 0
M  V30 13665 O 1307.64 -0.166989 -1.81734 0
M  V30 13666 C 1307.69 -3.51634 -0.838799 0
M  V30 13667 O 1307.41 -4.37316 0.261972 0
M  V30 13668 C 1308.91 -4.16094 -1.52909 0
M  V30 13669 H 1306.13 -0.66608 -0.0811043 0
M  V30 13670 H 1308.68 -2.00551 0.399929 0
M  V30 13671 H 1306.83 -3.55421 -1.54125 0
M  V30 13672 H 1307.25 -5.24383 -0.111013 0
M  V30 13673 H 1308.72 -5.21102 -1.82089 0
M  V30 13674 H 1309.2 -3.63928 -2.45872 0
M  V30 13675 H 1309.8 -4.16293 -0.87063 0
M  V30 13676 N 1308.12 0.00332656 -1.576 0
M  V30 13677 C 1309.05 0.994803 -2.11248 0
M  V30 13678 C 1310.03 1.36061 -1.02085 0
M  V30 13679 O 1311.21 1.44494 -1.2975 0
M  V30 13680 C 1308.34 2.28772 -2.61306 0
M  V30 13681 C 1307.3 2.06362 -3.74965 0
M  V30 13682 C 1306.62 3.41638 -4.11324 0
M  V30 13683 C 1307.92 1.4289 -5.02374 0
M  V30 13684 H 1309.62 0.548119 -2.9434 0
M  V30 13685 H 1307.16 0.262208 -1.41593 0
M  V30 13686 H 1309.12 2.98485 -2.97464 0
M  V30 13687 H 1307.84 2.75547 -1.75332 0
M  V30 13688 H 1306.5 1.39076 -3.39195 0
M  V30 13689 H 1306.15 3.8611 -3.22379 0
M  V30 13690 H 1305.85 3.2746 -4.87897 0
M  V30 13691 H 1307.37 4.12671 -4.50039 0
M  V30 13692 H 1308.79 2.02555 -5.36325 0
M  V30 13693 H 1307.18 1.3921 -5.8373 0
M  V30 13694 H 1308.25 0.397708 -4.83266 0
M  V30 13695 N 1309.6 1.55164 0.276031 0
M  V30 13696 C 1310.84 1.77377 1.01572 0
M  V30 13697 C 1311.2 0.56142 1.83608 0
M  V30 13698 O 1312.4 0.661745 2.60527 0
M  V30 13699 C 1310.67 3.0412 1.87738 0
M  V30 13700 S 1312.23 3.4744 2.68013 0
M  V30 13701 H 1309.05 0.62326 0.342153 0
M  V30 13702 H 1311.65 1.9339 0.286456 0
M  V30 13703 H 1310.36 3.90453 1.26389 0
M  V30 13704 H 1309.89 2.90764 2.6499 0
M  V30 13705 H 1311.9 3.06474 3.90241 0
M  V30 13706 N 1311.07 -0.540404 1.48045 0
M  V30 13707 C 1312.3 -1.32656 1.59427 0
M  V30 13708 C 1312.72 -1.86419 0.250924 0
M  V30 13709 O 1312.08 -1.63861 -0.775838 0
M  V30 13710 C 1312.13 -2.46062 2.63602 0
M  V30 13711 O 1311.23 -3.48794 2.20038 0
M  V30 13712 H 1310.58 -0.393334 0.534962 0
M  V30 13713 H 1313.11 -0.651363 1.93955 0
M  V30 13714 H 1313.12 -2.92396 2.84549 0
M  V30 13715 H 1311.79 -2.06291 3.61133 0
M  V30 13716 H 1310.37 -3.0865 2.0926 0
M  V30 13717 N 1312.55 -1.36459 -0.788468 0
M  V30 13718 C 1313.52 -1.3071 -1.88275 0
M  V30 13719 C 1314.52 -0.214596 -1.59362 0
M  V30 13720 O 1315.71 -0.469437 -1.67756 0
M  V30 13721 C 1312.84 -1.02648 -3.25079 0
M  V30 13722 H 1314.03 -2.28029 -1.94788 0
M  V30 13723 H 1311.58 -1.21245 -0.986375 0
M  V30 13724 H 1312.32 -0.0578992 -3.24248 0
M  V30 13725 H 1312.1 -1.81708 -3.47454 0
M  V30 13726 H 1313.59 -1.01233 -4.05144 0
M  V30 13727 N 1314.03 1.01274 -1.20754 0
M  V30 13728 C 1315.28 1.75191 -1.02156 0
M  V30 13729 C 1315.61 1.89038 0.444791 0
M  V30 13730 O 1314.88 1.41903 1.33018 0
M  V30 13731 C 1315.17 3.16892 -1.71031 0
M  V30 13732 C 1315.02 3.10816 -3.25136 0
M  V30 13733 C 1316.34 4.15648 -1.44654 0
M  V30 13734 H 1313.46 0.635922 -0.372521 0
M  V30 13735 H 1316.1 1.18119 -1.48822 0
M  V30 13736 H 1314.25 3.6562 -1.31357 0
M  V30 13737 H 1315.92 2.69863 -3.74128 0
M  V30 13738 H 1314.17 2.48113 -3.5584 0
M  V30 13739 H 1314.84 4.11001 -3.68487 0
M  V30 13740 H 1317.31 3.75592 -1.7908 0
M  V30 13741 H 1316.19 5.12954 -1.95371 0
M  V30 13742 H 1316.45 4.40507 -0.37494 0
M  V30 13743 N 1315.51 1.01404 1.20644 0
M  V30 13744 C 1316.93 0.728446 1.42006 0
M  V30 13745 C 1317.13 -0.692894 1.89212 0
M  V30 13746 O 1316.18 -1.46101 2.05939 0
M  V30 13747 C 1317.49 1.75198 2.44389 0
M  V30 13748 C 1319.04 1.76983 2.58159 0
M  V30 13749 C 1319.52 2.78256 3.63782 0
M  V30 13750 N 1321.01 2.7698 3.71263 0
M  V30 13751 C 1321.74 3.51999 4.52641 0
M  V30 13752 N 1321.24 4.36687 5.37844 0
M  V30 13753 N 1323.03 3.40608 4.47149 0
M  V30 13754 H 1315.18 1.93168 0.883172 0
M  V30 13755 H 1317.45 0.834287 0.450187 0
M  V30 13756 H 1317.15 2.77013 2.16695 0
M  V30 13757 H 1317.03 1.56203 3.43337 0
M  V30 13758 H 1319.41 0.758551 2.85184 0
M  V30 13759 H 1319.49 2.00051 1.59415 0
M  V30 13760 H 1319.14 3.79546 3.37501 0
M  V30 13761 H 1319.07 2.5245 4.62143 0
M  V30 13762 H 1321.56 2.15546 3.104 0
M  V30 13763 H 1321.87 4.90703 5.97018 0
M  V30 13764 H 1320.22 4.40766 5.37355 0
M  V30 13765 H 1323.41 2.73872 3.79621 0
M  V30 13766 H 1323.58 3.99327 5.10335 0
M  V30 13767 N 1316.99 -1.36373 0.789944 0
M  V30 13768 C 1318.4 -1.52471 0.471686 0
M  V30 13769 C 1318.6 -1.74365 -1.0099 0
M  V30 13770 O 1317.66 -1.77546 -1.79538 0
M  V30 13771 C 1318.97 -2.71022 1.30259 0
M  V30 13772 C 1320.52 -2.84893 1.29633 0
M  V30 13773 C 1321 -4.0645 2.11098 0
M  V30 13774 N 1322.49 -4.13597 2.08547 0
M  V30 13775 C 1323.22 -5.06731 2.6835 0
M  V30 13776 N 1322.72 -6.05305 3.37013 0
M  V30 13777 N 1324.51 -4.9935 2.58081 0
M  V30 13778 H 1316.66 -1.20416 1.74968 0
M  V30 13779 H 1318.92 -0.587782 0.743785 0
M  V30 13780 H 1318.63 -2.61368 2.35329 0
M  V30 13781 H 1318.5 -3.6519 0.944254 0
M  V30 13782 H 1320.89 -2.94009 0.253542 0
M  V30 13783 H 1320.97 -1.91632 1.69443 0
M  V30 13784 H 1320.62 -3.98096 3.15408 0
M  V30 13785 H 1320.55 -4.98861 1.68659 0
M  V30 13786 H 1323.04 -3.4302 1.58573 0
M  V30 13787 H 1323.35 -6.72934 3.79974 0
M  V30 13788 H 1321.7 -6.05529 3.41116 0
M  V30 13789 H 1324.89 -4.21291 2.04039 0
M  V30 13790 H 1325.06 -5.71745 3.04979 0
M  V30 13791 N 1318.47 -0.542005 -1.47987 0
M  V30 13792 C 1319.69 -0.0146835 -2.07395 0
M  V30 13793 C 1320.12 1.26266 -1.39422 0
M  V30 13794 O 1319.47 1.75259 -0.464118 0
M  V30 13795 C 1319.52 0.179937 -3.60151 0
M  V30 13796 O 1318.63 1.24596 -3.93128 0
M  V30 13797 H 1317.97 -0.0445076 -0.662507 0
M  V30 13798 H 1320.5 -0.753352 -1.90226 0
M  V30 13799 H 1320.51 0.398876 -4.06046 0
M  V30 13800 H 1319.18 -0.753093 -4.09025 0
M  V30 13801 H 1317.76 1.00872 -3.58997 0
M  V30 13802 N 1319.94 1.55134 -0.277709 0
M  V30 13803 C 1321.18 2.01561 0.339489 0
M  V30 13804 C 1321.55 1.16185 1.52856 0
M  V30 13805 O 1322.75 1.52204 2.21556 0
M  V30 13806 C 1321.02 3.50285 0.709567 0
M  V30 13807 S 1322.58 4.18697 1.31293 0
M  V30 13808 H 1319.4 0.703137 0.105452 0
M  V30 13809 H 1322 1.91361 -0.400148 0
M  V30 13810 H 1320.7 4.10069 -0.164675 0
M  V30 13811 H 1320.23 3.64475 1.4806 0
M  V30 13812 H 1322.25 4.22539 2.60145 0
M  V30 13813 N 1321.42 0.00503138 1.57599 0
M  V30 13814 C 1322.66 -0.683203 1.92644 0
M  V30 13815 C 1323.03 -1.70657 0.879778 0
M  V30 13816 O 1324.23 -2.44555 1.11563 0
M  V30 13817 C 1322.5 -1.30509 3.32719 0
M  V30 13818 S 1324.06 -2.01775 3.89657 0
M  V30 13819 H 1320.87 -0.225551 0.674276 0
M  V30 13820 H 1323.48 0.0629255 1.95399 0
M  V30 13821 H 1322.18 -0.547509 4.06731 0
M  V30 13822 H 1321.71 -2.08904 3.3335 0
M  V30 13823 H 1323.73 -3.29348 3.7114 0
M  V30 13824 N 1322.9 -1.55308 -0.267798 0
M  V30 13825 C 1323.86 -1.87765 -1.31442 0
M  V30 13826 C 1324.86 -0.752571 -1.42102 0
M  V30 13827 O 1326.05 -1.02072 -1.41163 0
M  V30 13828 C 1323.18 -2.08754 -2.69508 0
M  V30 13829 H 1324.38 -2.8133 -1.03891 0
M  V30 13830 H 1321.93 -1.47879 -0.506111 0
M  V30 13831 H 1322.67 -1.17588 -3.02231 0
M  V30 13832 H 1322.45 -2.90674 -2.63156 0
M  V30 13833 H 1323.94 -2.3512 -3.4512 0
M  V30 13834 N 1324.38 0.532545 -1.4833 0
M  V30 13835 C 1325.79 1.11451 -1.49785 0
M  V30 13836 C 1326.14 1.94386 -0.266207 0
M  V30 13837 O 1325.26 2.07121 0.62688 0
M  V30 13838 C 1325.86 2.0279 -2.71407 0
M  V30 13839 C 1324.42 2.56209 -2.75742 0
M  V30 13840 C 1323.57 1.33114 -2.43261 0
M  V30 13841 H 1326.52 0.317924 -1.55483 0
M  V30 13842 H 1326.54 2.87038 -2.49779 0
M  V30 13843 H 1326.05 1.42401 -3.61031 0
M  V30 13844 H 1324.15 3.20327 -1.9032 0
M  V30 13845 H 1324.26 2.95518 -3.77102 0
M  V30 13846 H 1322.63 1.64607 -1.94362 0
M  V30 13847 H 1323.41 0.744809 -3.35123 0
M  V30 13848 N 1325.86 1.36875 0.78122 0
M  V30 13849 C 1327.08 1.349 1.57533 0
M  V30 13850 C 1327.51 -0.0655249 1.87986 0
M  V30 13851 O 1326.86 -1.03986 1.48515 0
M  V30 13852 C 1326.91 2.18562 2.86815 0
M  V30 13853 O 1326.02 1.58374 3.80777 0
M  V30 13854 H 1325.36 0.461355 0.477543 0
M  V30 13855 H 1327.89 1.80271 0.96766 0
M  V30 13856 H 1327.9 2.31436 3.36008 0
M  V30 13857 H 1326.57 3.21385 2.63978 0
M  V30 13858 H 1325.15 1.54487 3.39394 0
M  V30 13859 N 1327.33 -1.00632 1.21289 0
M  V30 13860 C 1328.24 -2.12829 0.986957 0
M  V30 13861 C 1329.26 -1.73895 -0.0605152 0
M  V30 13862 O 1330.44 -2.00985 0.129238 0
M  V30 13863 C 1327.5 -3.4226 0.553089 0
M  V30 13864 C 1326.56 -3.95376 1.67262 0
M  V30 13865 C 1325.79 -5.18629 1.25936 0
M  V30 13866 O 1326.02 -5.70246 0.132402 0
M  V30 13867 O 1324.95 -5.65157 2.07077 0
M  V30 13868 H 1328.78 -2.34765 1.92663 0
M  V30 13869 H 1326.36 -1.11208 0.997654 0
M  V30 13870 H 1328.24 -4.20177 0.320856 0
M  V30 13871 H 1326.92 -3.21716 -0.357881 0
M  V30 13872 H 1325.83 -3.18692 1.95924 0
M  V30 13873 H 1327.16 -4.20328 2.56097 0
M  V30 13874 N 1328.81 -1.02043 -1.20104 0
M  V30 13875 C 1329.77 -0.598682 -2.21243 0
M  V30 13876 C 1330.77 0.333205 -1.5731 0
M  V30 13877 O 1331.96 0.12137 -1.73777 0
M  V30 13878 C 1329.1 0.125183 -3.4067 0
M  V30 13879 H 1330.29 -1.49345 -2.60069 0
M  V30 13880 H 1327.84 -0.810649 -1.33634 0
M  V30 13881 H 1328.58 1.03469 -3.07351 0
M  V30 13882 H 1328.36 -0.544316 -3.88304 0
M  V30 13883 H 1329.85 0.407469 -4.15607 0
M  V30 13884 N 1330.29 1.35952 -0.797165 0
M  V30 13885 C 1331.54 1.99327 -0.373695 0
M  V30 13886 C 1331.87 1.63111 1.05396 0
M  V30 13887 O 1331.14 0.889736 1.72956 0
M  V30 13888 C 1331.43 3.5593 -0.54641 0
M  V30 13889 C 1331.28 4.01975 -2.01832 0
M  V30 13890 C 1332.6 4.40087 0.0337694 0
M  V30 13891 H 1329.72 0.724107 -0.137254 0
M  V30 13892 H 1332.36 1.61248 -1.00495 0
M  V30 13893 H 1330.51 3.88499 -0.00903959 0
M  V30 13894 H 1332.18 3.79859 -2.61735 0
M  V30 13895 H 1330.43 3.5323 -2.51815 0
M  V30 13896 H 1331.1 5.109 -2.09009 0
M  V30 13897 H 1333.57 4.13923 -0.425039 0
M  V30 13898 H 1332.45 5.48775 -0.117054 0
M  V30 13899 H 1332.71 4.27504 1.12661 0
M  V30 13900 N 1331.77 0.549846 1.47697 0
M  V30 13901 C 1332.72 -0.201961 2.29915 0
M  V30 13902 C 1333.69 -0.915287 1.38606 0
M  V30 13903 O 1334.87 -0.912427 1.67569 0
M  V30 13904 C 1332.01 -1.2306 3.22413 0
M  V30 13905 C 1331.12 -0.524091 4.28809 0
M  V30 13906 C 1330.26 -1.53738 5.08466 0
M  V30 13907 C 1329.3 -0.815437 6.06644 0
M  V30 13908 N 1328.43 -1.77521 6.79287 0
M  V30 13909 H 1333.27 0.505289 2.93685 0
M  V30 13910 H 1330.81 0.261012 1.44766 0
M  V30 13911 H 1332.77 -1.83949 3.74458 0
M  V30 13912 H 1331.4 -1.90597 2.60523 0
M  V30 13913 H 1330.45 0.199174 3.79878 0
M  V30 13914 H 1331.76 0.0418145 4.98782 0
M  V30 13915 H 1330.92 -2.22001 5.64624 0
M  V30 13916 H 1329.66 -2.1372 4.38378 0
M  V30 13917 H 1328.66 -0.11884 5.49672 0
M  V30 13918 H 1329.89 -0.221462 6.78739 0
M  V30 13919 H 1327.83 -2.36374 6.11934 0
M  V30 13920 H 1327.75 -1.26126 7.45405 0
M  V30 13921 H 1329.02 -2.44921 7.40023 0
M  V30 13922 N 1333.25 -1.54984 0.285932 0
M  V30 13923 C 1334.47 -2.04699 -0.333621 0
M  V30 13924 C 1334.9 -1.16252 -1.47875 0
M  V30 13925 O 1334.25 -0.163376 -1.80562 0
M  V30 13926 C 1334.3 -3.52022 -0.78187 0
M  V30 13927 O 1333.41 -3.66639 -1.88812 0
M  V30 13928 H 1332.75 -0.660579 -0.0673203 0
M  V30 13929 H 1335.28 -2.00171 0.423386 0
M  V30 13930 H 1335.29 -3.93591 -1.07473 0
M  V30 13931 H 1333.96 -4.15862 0.055893 0
M  V30 13932 H 1332.54 -3.36974 -1.59696 0
M  V30 13933 N 1334.72 -0.0133892 -1.57594 0
M  V30 13934 C 1335.69 0.958601 -2.08191 0
M  V30 13935 C 1336.69 1.26408 -0.993865 0
M  V30 13936 O 1337.88 1.20703 -1.25604 0
M  V30 13937 C 1335.01 2.27971 -2.5346 0
M  V30 13938 H 1336.2 0.520686 -2.95345 0
M  V30 13939 H 1333.76 0.234351 -1.54533 0
M  V30 13940 H 1334.49 2.76424 -1.69588 0
M  V30 13941 H 1334.28 2.07116 -3.32935 0
M  V30 13942 H 1335.77 2.97672 -2.92884 0
M  V30 13943 N 1336.2 1.55448 0.259558 0
M  V30 13944 C 1337.17 1.88459 1.30445 0
M  V30 13945 C 1338.17 0.760096 1.41701 0
M  V30 13946 O 1339.36 1.02819 1.4062 0
M  V30 13947 C 1336.49 2.10181 2.68397 0
M  V30 13948 H 1337.68 2.81877 1.02398 0
M  V30 13949 H 1335.23 1.48145 0.498262 0
M  V30 13950 H 1335.97 1.19189 3.01603 0
M  V30 13951 H 1335.75 2.92066 2.6161 0
M  V30 13952 H 1337.24 2.36947 3.43869 0
M  V30 13953 N 1337.68 -0.524672 1.4861 0
M  V30 13954 C 1338.93 -1.27671 1.5615 0
M  V30 13955 C 1339.24 -1.94088 0.242709 0
M  V30 13956 O 1340.45 -2.70789 0.196407 0
M  V30 13957 C 1338.9 -2.31686 2.75408 0
M  V30 13958 C 1338.51 -1.71315 4.13951 0
M  V30 13959 C 1340.26 -3.07867 2.92264 0
M  V30 13960 C 1338.16 -2.73302 5.24462 0
M  V30 13961 H 1337.09 -0.480177 0.581332 0
M  V30 13962 H 1339.74 -0.553473 1.74954 0
M  V30 13963 H 1338.13 -3.07069 2.50049 0
M  V30 13964 H 1339.3 -1.02085 4.4935 0
M  V30 13965 H 1337.62 -1.07608 4.02255 0
M  V30 13966 H 1340.21 -3.84088 3.71995 0
M  V30 13967 H 1340.56 -3.64052 2.01921 0
M  V30 13968 H 1341.09 -2.39599 3.17549 0
M  V30 13969 H 1337.83 -2.21929 6.16788 0
M  V30 13970 H 1337.35 -3.40843 4.93544 0
M  V30 13971 H 1339.03 -3.36186 5.528 0
M  V30 13972 N 1339.16 -1.37287 -0.77395 0
M  V30 13973 C 1340.57 -1.28954 -1.3501 0
M  V30 13974 C 1340.92 0.0638301 -1.96096 0
M  V30 13975 O 1340.05 0.965624 -1.93661 0
M  V30 13976 C 1340.64 -2.3352 -2.45467 0
M  V30 13977 C 1339.2 -2.28828 -2.98856 0
M  V30 13978 C 1338.35 -2.17468 -1.72055 0
M  V30 13979 H 1341.3 -1.47941 -0.57438 0
M  V30 13980 H 1341.32 -1.98058 -3.24889 0
M  V30 13981 H 1340.83 -3.32009 -2.00977 0
M  V30 13982 H 1338.93 -1.33855 -3.47726 0
M  V30 13983 H 1339.04 -3.22152 -3.54619 0
M  V30 13984 H 1337.41 -1.63977 -1.94894 0
M  V30 13985 H 1338.19 -3.17868 -1.29672 0
M  V30 13986 N 1340.64 0.999871 -1.21821 0
M  V30 13987 C 1341.87 1.77148 -1.06312 0
M  V30 13988 C 1342.27 1.85142 0.389747 0
M  V30 13989 O 1341.62 1.31562 1.28207 0
M  V30 13990 C 1341.68 3.22367 -1.59122 0
M  V30 13991 C 1341.34 3.37937 -3.07649 0
M  V30 13992 C 1342.34 3.25808 -4.05148 0
M  V30 13993 C 1340.03 3.63213 -3.46961 0
M  V30 13994 C 1342.02 3.38729 -5.39946 0
M  V30 13995 C 1339.71 3.75775 -4.81909 0
M  V30 13996 C 1340.7 3.6354 -5.78211 0
M  V30 13997 O 1340.39 3.75694 -7.1071 0
M  V30 13998 H 1340.12 0.563396 -0.373578 0
M  V30 13999 H 1342.68 1.26627 -1.61724 0
M  V30 14000 H 1340.91 3.74047 -0.98111 0
M  V30 14001 H 1342.6 3.81219 -1.39379 0
M  V30 14002 H 1343.36 3.062 -3.76121 0
M  V30 14003 H 1339.24 3.71816 -2.72533 0
M  V30 14004 H 1342.79 3.29096 -6.15095 0
M  V30 14005 H 1338.68 3.94889 -5.1062 0
M  V30 14006 H 1339.45 3.9261 -7.18192 0
M  V30 14007 N 1342.11 1.02678 1.19562 0
M  V30 14008 C 1343.36 0.73282 1.8974 0
M  V30 14009 C 1343.72 -0.730461 1.77994 0
M  V30 14010 O 1343.01 -1.52487 1.1601 0
M  V30 14011 C 1343.2 1.11603 3.39529 0
M  V30 14012 C 1343.03 2.61501 3.65851 0
M  V30 14013 C 1341.8 3.28441 3.83998 0
M  V30 14014 C 1344 3.59707 3.6758 0
M  V30 14015 N 1341.98 4.67465 3.97932 0
M  V30 14016 C 1343.35 4.84339 3.8706 0
M  V30 14017 C 1345.41 3.53535 3.50595 0
M  V30 14018 C 1344.11 6.03544 3.91315 0
M  V30 14019 C 1346.14 4.72153 3.56126 0
M  V30 14020 C 1345.5 5.95598 3.76089 0
M  V30 14021 H 1341.6 0.319992 0.713533 0
M  V30 14022 H 1344.18 1.31366 1.43704 0
M  V30 14023 H 1342.35 0.563414 3.84292 0
M  V30 14024 H 1344.08 0.774538 3.97219 0
M  V30 14025 H 1340.84 2.78856 3.82801 0
M  V30 14026 H 1341.26 5.39676 4.08753 0
M  V30 14027 H 1345.91 2.59083 3.34119 0
M  V30 14028 H 1343.62 6.98366 4.06583 0
M  V30 14029 H 1347.21 4.69003 3.44278 0
M  V30 14030 H 1346.09 6.85847 3.80241 0
M  V30 14031 N 1343.59 -1.35528 0.804364 0
M  V30 14032 C 1344.52 -2.32388 0.227604 0
M  V30 14033 C 1345.5 -1.57368 -0.645709 0
M  V30 14034 O 1346.69 -1.85448 -0.576441 0
M  V30 14035 C 1343.82 -3.41603 -0.62645 0
M  V30 14036 C 1342.77 -4.27743 0.148187 0
M  V30 14037 C 1342.1 -5.28259 -0.827425 0
M  V30 14038 C 1343.4 -5.04661 1.34591 0
M  V30 14039 H 1345.09 -2.80874 1.03684 0
M  V30 14040 H 1342.64 -1.3504 0.500031 0
M  V30 14041 H 1344.59 -4.08365 -1.03999 0
M  V30 14042 H 1343.32 -2.91721 -1.46855 0
M  V30 14043 H 1341.97 -3.62558 0.542874 0
M  V30 14044 H 1341.62 -4.74645 -1.66496 0
M  V30 14045 H 1341.32 -5.86763 -0.313453 0
M  V30 14046 H 1342.85 -5.97893 -1.23921 0
M  V30 14047 H 1344.26 -5.6438 1.00736 0
M  V30 14048 H 1342.66 -5.7265 1.79422 0
M  V30 14049 H 1343.73 -4.35432 2.1337 0
M  V30 14050 N 1345.07 -0.557671 -1.47404 0
M  V30 14051 C 1346 0.178019 -2.3282 0
M  V30 14052 C 1346.98 0.908318 -1.43818 0
M  V30 14053 O 1348.17 0.888693 -1.72673 0
M  V30 14054 C 1345.3 1.2082 -3.25607 0
M  V30 14055 C 1344.25 0.594335 -4.23853 0
M  V30 14056 C 1343.58 1.72919 -5.05968 0
M  V30 14057 C 1344.88 -0.452196 -5.20339 0
M  V30 14058 H 1346.57 -0.535091 -2.9458 0
M  V30 14059 H 1344.12 -0.258775 -1.41656 0
M  V30 14060 H 1346.07 1.73104 -3.84204 0
M  V30 14061 H 1344.79 1.95126 -2.61903 0
M  V30 14062 H 1343.45 0.0927898 -3.66483 0
M  V30 14063 H 1343.1 2.4613 -4.38668 0
M  V30 14064 H 1342.8 1.32422 -5.72484 0
M  V30 14065 H 1344.33 2.25527 -5.67424 0
M  V30 14066 H 1345.74 -0.0154011 -5.73298 0
M  V30 14067 H 1344.14 -0.776068 -5.95061 0
M  V30 14068 H 1345.21 -1.34791 -4.65789 0
M  V30 14069 N 1346.55 1.54831 -0.294147 0
M  V30 14070 C 1347.48 2.26226 0.57827 0
M  V30 14071 C 1348.46 1.25928 1.14351 0
M  V30 14072 O 1349.65 1.54687 1.17412 0
M  V30 14073 C 1346.78 2.99783 1.75349 0
M  V30 14074 C 1345.73 4.07171 1.31892 0
M  V30 14075 C 1345.06 4.68406 2.57876 0
M  V30 14076 C 1346.36 5.20313 0.455167 0
M  V30 14077 H 1348.05 2.99395 -0.0171936 0
M  V30 14078 H 1345.6 1.43997 -0.00970944 0
M  V30 14079 H 1347.55 3.48448 2.36986 0
M  V30 14080 H 1346.27 2.24181 2.37509 0
M  V30 14081 H 1344.93 3.59346 0.725653 0
M  V30 14082 H 1344.58 3.89451 3.18335 0
M  V30 14083 H 1344.28 5.40927 2.29502 0
M  V30 14084 H 1345.8 5.1983 3.20327 0
M  V30 14085 H 1347.22 5.64913 0.977026 0
M  V30 14086 H 1345.61 5.99512 0.265501 0
M  V30 14087 H 1346.68 4.82088 -0.521434 0
M  V30 14088 N 1348.03 0.0217466 1.57585 0
M  V30 14089 C 1349.26 -0.668881 1.9579 0
M  V30 14090 C 1349.67 -1.66085 0.897849 0
M  V30 14091 O 1349.03 -1.82098 -0.121099 0
M  V30 14092 C 1349.08 -1.38174 3.34051 0
M  V30 14093 O 1348.8 -0.429527 4.35989 0
M  V30 14094 C 1350.3 -2.16487 3.86844 0
M  V30 14095 H 1347.52 -0.184919 0.645016 0
M  V30 14096 H 1350.06 0.0793241 2.04346 0
M  V30 14097 H 1348.22 -2.0814 3.26736 0
M  V30 14098 H 1348.63 -0.934887 5.16101 0
M  V30 14099 H 1350.11 -2.61829 4.85952 0
M  V30 14100 H 1350.58 -3.00082 3.20698 0
M  V30 14101 H 1351.19 -1.51493 3.97404 0
M  V30 14102 N 1349.51 -1.55583 -0.251311 0
M  V30 14103 C 1350.92 -1.67693 -0.820719 0
M  V30 14104 C 1351.27 -0.618393 -1.862 0
M  V30 14105 O 1350.39 0.236158 -2.15108 0
M  V30 14106 C 1350.99 -3.04011 -1.49542 0
M  V30 14107 C 1349.55 -3.18075 -2.01259 0
M  V30 14108 C 1348.69 -2.63557 -0.862138 0
M  V30 14109 H 1351.64 -1.58677 -0.0272072 0
M  V30 14110 H 1351.67 -2.9821 -2.36328 0
M  V30 14111 H 1351.18 -3.81032 -0.737323 0
M  V30 14112 H 1349.28 -2.45869 -2.79963 0
M  V30 14113 H 1349.39 -4.24927 -2.213 0
M  V30 14114 H 1347.76 -2.21268 -1.26145 0
M  V30 14115 H 1348.54 -3.431 -0.117196 0
M  V30 14116 N 1350.98 0.516783 -1.48886 0
M  V30 14117 C 1351.92 1.63632 -1.60491 0
M  V30 14118 C 1352.93 1.55301 -0.488424 0
M  V30 14119 O 1354.12 1.6152 -0.75983 0
M  V30 14120 C 1351.22 3.02351 -1.53093 0
M  V30 14121 C 1350.39 3.36028 -2.80006 0
M  V30 14122 C 1349.45 4.54087 -2.65879 0
M  V30 14123 O 1348.48 4.56652 -3.3979 0
M  V30 14124 N 1349.68 5.53058 -1.76372 0
M  V30 14125 H 1352.44 1.54109 -2.57042 0
M  V30 14126 H 1350 0.704338 -1.45776 0
M  V30 14127 H 1352 3.79225 -1.41318 0
M  V30 14128 H 1350.57 3.05881 -0.644637 0
M  V30 14129 H 1349.79 2.48204 -3.06249 0
M  V30 14130 H 1351.07 3.5532 -3.64177 0
M  V30 14131 H 1350.47 5.53773 -1.1555 0
M  V30 14132 H 1349.03 6.29097 -1.70529 0
M  V30 14133 N 1352.46 1.37696 0.766659 0
M  V30 14134 C 1353.41 1.30383 1.87041 0
M  V30 14135 C 1354.4 0.190643 1.59767 0
M  V30 14136 O 1355.59 0.425485 1.7181 0
M  V30 14137 C 1352.72 1.11817 3.2458 0
M  V30 14138 C 1351.8 2.27701 3.57789 0
M  V30 14139 N 1352.19 3.53108 3.62144 0
M  V30 14140 C 1350.49 2.19967 3.87983 0
M  V30 14141 C 1351.19 4.29555 3.92247 0
M  V30 14142 N 1350.17 3.58754 4.08408 0
M  V30 14143 H 1353.97 2.25348 1.88668 0
M  V30 14144 H 1351.48 1.30741 0.963362 0
M  V30 14145 H 1353.48 1.04663 4.03548 0
M  V30 14146 H 1352.14 0.177731 3.24213 0
M  V30 14147 H 1353.15 3.86949 3.44225 0
M  V30 14148 H 1349.83 1.34009 3.95408 0
M  V30 14149 H 1351.22 5.38112 4.0235 0
M  V30 14150 N 1353.94 -0.993397 1.22349 0
M  V30 14151 C 1354.87 -2.10171 1.01737 0
M  V30 14152 C 1355.85 -1.69989 -0.0615276 0
M  V30 14153 O 1357.04 -1.93939 0.100591 0
M  V30 14154 C 1354.17 -3.42186 0.593801 0
M  V30 14155 C 1353.12 -3.96215 1.61858 0
M  V30 14156 C 1352.45 -5.24272 1.05086 0
M  V30 14157 C 1353.75 -4.26956 3.00842 0
M  V30 14158 H 1355.44 -2.27673 1.94436 0
M  V30 14159 H 1352.99 -1.09408 0.936258 0
M  V30 14160 H 1354.94 -4.19131 0.436715 0
M  V30 14161 H 1353.66 -3.2451 -0.368855 0
M  V30 14162 H 1352.32 -3.21401 1.76343 0
M  V30 14163 H 1351.97 -5.02937 0.0795747 0
M  V30 14164 H 1351.67 -5.61387 1.73547 0
M  V30 14165 H 1353.19 -6.03851 0.905349 0
M  V30 14166 H 1354.61 -4.94699 2.89734 0
M  V30 14167 H 1353 -4.75242 3.66422 0
M  V30 14168 H 1354.07 -3.34752 3.50812 0
M  V30 14169 N 1355.42 -1.03311 -1.19015 0
M  V30 14170 C 1356.37 -0.611169 -2.24427 0
M  V30 14171 C 1357.36 0.358303 -1.65567 0
M  V30 14172 O 1358.57 0.22642 -1.7857 0
M  V30 14173 H 1354.94 -0.179393 -0.730289 0
M  V30 14174 H 1356.91 -1.51077 -2.57329 0
M  V30 14175 C 1355.66 0.0178126 -3.47695 0
M  V30 14176 H 1354.98 -0.71921 -3.93278 0
M  V30 14177 H 1356.42 0.275926 -4.23101 0
M  V30 14178 C 1354.88 1.26564 -3.12223 0
M  V30 14179 O 1355.41 2.35725 -3.25264 0
M  V30 14180 N 1353.62 1.15602 -2.66617 0
M  V30 14181 H 1353.17 0.267736 -2.56205 0
M  V30 14182 H 1353.12 1.99186 -2.43254 0
M  V30 14183 N 1356.9 1.35099 -0.81154 0
M  V30 14184 C 1358.14 1.9892 -0.394815 0
M  V30 14185 C 1358.47 1.6422 1.0366 0
M  V30 14186 O 1357.75 0.908031 1.72003 0
M  V30 14187 C 1358.03 3.55331 -0.58413 0
M  V30 14188 C 1357.89 3.99812 -2.06084 0
M  V30 14189 C 1359.2 4.40098 -0.0129096 0
M  V30 14190 H 1356.32 0.72261 -0.144926 0
M  V30 14191 H 1358.97 1.60173 -1.02199 0
M  V30 14192 H 1357.12 3.88468 -0.0502446 0
M  V30 14193 H 1358.79 3.77061 -2.65749 0
M  V30 14194 H 1357.03 3.50539 -2.55548 0
M  V30 14195 H 1357.7 5.08655 -2.14416 0
M  V30 14196 H 1360.18 4.13449 -0.468917 0
M  V30 14197 H 1359.05 5.4862 -0.175252 0
M  V30 14198 H 1359.31 4.28675 1.0812 0
M  V30 14199 N 1358.37 0.56548 1.47106 0
M  V30 14200 C 1359.62 0.042333 2.01656 0
M  V30 14201 C 1359.94 -1.31892 1.44443 0
M  V30 14202 O 1361.14 -1.93245 1.90706 0
M  V30 14203 C 1359.6 0.0251556 3.59891 0
M  V30 14204 C 1359.21 1.38367 4.26097 0
M  V30 14205 C 1360.95 -0.44495 4.22162 0
M  V30 14206 C 1358.86 1.32516 5.76362 0
M  V30 14207 H 1357.79 0.0120557 0.753904 0
M  V30 14208 H 1360.44 0.714565 1.69015 0
M  V30 14209 H 1358.82 -0.712893 3.8953 0
M  V30 14210 H 1359.99 2.14009 4.08089 0
M  V30 14211 H 1358.31 1.79239 3.75849 0
M  V30 14212 H 1360.91 -0.507256 5.32288 0
M  V30 14213 H 1361.25 -1.45876 3.89905 0
M  V30 14214 H 1361.78 0.238496 3.97084 0
M  V30 14215 H 1358.52 2.31523 6.13252 0
M  V30 14216 H 1358.04 0.610674 5.96683 0
M  V30 14217 H 1359.72 1.03072 6.38737 0
M  V30 14218 N 1359.85 -1.54672 0.302354 0
M  V30 14219 C 1360.8 -2.2357 -0.573141 0
M  V30 14220 C 1361.77 -1.21878 -1.12849 0
M  V30 14221 O 1362.95 -1.50502 -1.17277 0
M  V30 14222 C 1360.09 -2.98111 -1.7385 0
M  V30 14223 C 1359.21 -4.14579 -1.21441 0
M  V30 14224 C 1358.34 -4.76699 -2.34374 0
M  V30 14225 C 1357.38 -5.8531 -1.79106 0
M  V30 14226 N 1356.52 -6.41379 -2.85618 0
M  V30 14227 H 1361.36 -2.97993 0.0209969 0
M  V30 14228 H 1358.9 -1.47083 0.0221318 0
M  V30 14229 H 1360.85 -3.39561 -2.42392 0
M  V30 14230 H 1359.48 -2.26063 -2.30425 0
M  V30 14231 H 1358.54 -3.78061 -0.421204 0
M  V30 14232 H 1359.85 -4.92824 -0.769821 0
M  V30 14233 H 1359 -5.21009 -3.10861 0
M  V30 14234 H 1357.74 -3.9779 -2.8216 0
M  V30 14235 H 1356.75 -5.40423 -1.01109 0
M  V30 14236 H 1357.97 -6.66104 -1.32222 0
M  V30 14237 H 1355.92 -5.65352 -3.32735 0
M  V30 14238 H 1355.83 -7.14974 -2.45659 0
M  V30 14239 H 1357.1 -6.90346 -3.61998 0
M  V30 14240 N 1361.33 -0.0301034 -1.57571 0
M  V30 14241 C 1362.29 0.936465 -2.09196 0
M  V30 14242 C 1363.29 1.25347 -1.00722 0
M  V30 14243 O 1364.48 1.19364 -1.26877 0
M  V30 14244 C 1361.62 2.2527 -2.55864 0
M  V30 14245 H 1362.81 0.489332 -2.95881 0
M  V30 14246 H 1360.36 0.217948 -1.54773 0
M  V30 14247 H 1361.1 2.7461 -1.72511 0
M  V30 14248 H 1360.88 2.03573 -3.35113 0
M  V30 14249 H 1362.37 2.94549 -2.96025 0
M  V30 14250 N 1362.81 1.55714 0.243056 0
M  V30 14251 C 1364.09 1.68483 0.993614 0
M  V30 14252 C 1364.47 0.571112 2.03228 0
M  V30 14253 O 1363.81 -0.42491 2.24515 0
M  V30 14254 C 1364.02 3.0894 1.62349 0
M  V30 14255 C 1365.37 3.67663 2.12389 0
M  V30 14256 O 1366.4 3.11764 1.72283 0
M  V30 14257 O 1365.25 4.65664 2.8604 0
M  V30 14258 H 1362.35 0.685415 0.462747 0
M  V30 14259 H 1364.89 1.68043 0.236538 0
M  V30 14260 H 1363.67 3.81451 0.87241 0
M  V30 14261 H 1363.29 3.13407 2.44667 0
M  V30 14262 N 1364.29 -0.50888 1.49158 0
M  V30 14263 C 1365.53 -1.2635 1.58247 0
M  V30 14264 C 1365.86 -1.92677 0.265654 0
M  V30 14265 O 1365.12 -1.80931 -0.745818 0
M  V30 14266 C 1365.42 -2.35875 2.6851 0
M  V30 14267 C 1365.08 -1.87059 4.10268 0
M  V30 14268 C 1363.74 -1.73464 4.48847 0
M  V30 14269 C 1366.1 -1.50429 4.9902 0
M  V30 14270 C 1363.42 -1.21606 5.73959 0
M  V30 14271 C 1365.78 -1.00026 6.24642 0
M  V30 14272 C 1364.44 -0.850646 6.62058 0
M  V30 14273 H 1363.71 -0.462346 0.579066 0
M  V30 14274 H 1366.36 -0.565528 1.82959 0
M  V30 14275 H 1364.66 -3.11428 2.37739 0
M  V30 14276 H 1366.36 -2.9395 2.72753 0
M  V30 14277 H 1362.95 -1.98597 3.79812 0
M  V30 14278 H 1367.13 -1.59782 4.69876 0
M  V30 14279 H 1362.39 -1.08728 6.01655 0
M  V30 14280 H 1366.56 -0.707608 6.92796 0
M  V30 14281 H 1364.19 -0.446627 7.58887 0
M  V30 14282 N 1365.76 -1.381 -0.759346 0
M  V30 14283 C 1366.71 -1.34972 -1.89434 0
M  V30 14284 C 1367.71 -0.236499 -1.67741 0
M  V30 14285 O 1368.91 -0.405218 -1.7538 0
M  V30 14286 H 1365.29 -0.420922 -0.62316 0
M  V30 14287 H 1367.26 -2.3076 -1.89189 0
M  V30 14288 C 1366.01 -1.18594 -3.2685 0
M  V30 14289 H 1365.33 -2.03514 -3.44125 0
M  V30 14290 H 1366.77 -1.20458 -4.06529 0
M  V30 14291 C 1365.23 0.107562 -3.36728 0
M  V30 14292 O 1365.76 1.08668 -3.86722 0
M  V30 14293 N 1363.97 0.162455 -2.90146 0
M  V30 14294 H 1363.51 -0.634985 -2.49651 0
M  V30 14295 H 1363.47 1.02751 -2.97136 0
M  V30 14296 N 1367.24 0.986894 -1.22875 0
M  V30 14297 C 1368.65 1.54182 -1.05284 0
M  V30 14298 C 1369 1.92448 0.381856 0
M  V30 14299 O 1368.13 1.75381 1.26769 0
M  V30 14300 C 1368.72 2.80173 -1.90496 0
M  V30 14301 C 1367.28 3.32088 -1.77185 0
M  V30 14302 C 1366.43 2.05128 -1.86596 0
M  V30 14303 H 1369.38 0.807304 -1.36632 0
M  V30 14304 H 1369.4 3.52772 -1.42591 0
M  V30 14305 H 1368.91 2.52291 -2.94908 0
M  V30 14306 H 1367.02 3.64864 -0.755295 0
M  V30 14307 H 1367.13 4.02285 -2.60199 0
M  V30 14308 H 1365.49 2.18964 -1.30103 0
M  V30 14309 H 1366.28 1.79635 -2.92551 0
M  V30 14310 N 1368.72 1.0394 1.18466 0
M  V30 14311 C 1369.65 0.573814 2.20868 0
M  V30 14312 C 1370.63 -0.390956 1.5783 0
M  V30 14313 O 1371.82 -0.305561 1.86007 0
M  V30 14314 C 1368.94 -0.161904 3.38313 0
M  V30 14315 C 1367.99 0.755924 4.19748 0
M  V30 14316 S 1368.82 2.23809 4.86487 0
M  V30 14317 C 1369.98 1.51318 6.07333 0
M  V30 14318 H 1370.21 1.44143 2.60019 0
M  V30 14319 H 1367.74 0.850252 1.2888 0
M  V30 14320 H 1369.7 -0.58022 4.06379 0
M  V30 14321 H 1368.36 -1.00539 2.97575 0
M  V30 14322 H 1367.56 0.187345 5.03652 0
M  V30 14323 H 1367.16 1.11303 3.57054 0
M  V30 14324 H 1369.45 0.805536 6.72694 0
M  V30 14325 H 1370.39 2.32922 6.68695 0
M  V30 14326 H 1370.8 1.00607 5.55462 0
M  V30 14327 N 1370.2 -1.34667 0.818693 0
M  V30 14328 C 1371.61 -1.80839 0.46414 0
M  V30 14329 C 1371.96 -1.67902 -1.01506 0
M  V30 14330 O 1371.09 -1.21658 -1.78964 0
M  V30 14331 C 1371.68 -3.28331 0.835698 0
M  V30 14332 C 1370.24 -3.72599 0.533575 0
M  V30 14333 C 1369.39 -2.56452 1.05487 0
M  V30 14334 H 1372.34 -1.22474 1.00925 0
M  V30 14335 H 1372.36 -3.8025 0.13785 0
M  V30 14336 H 1371.87 -3.37715 1.91233 0
M  V30 14337 H 1369.97 -3.68756 -0.533819 0
M  V30 14338 H 1370.08 -4.66891 1.07468 0
M  V30 14339 H 1368.45 -2.50201 0.476612 0
M  V30 14340 H 1369.23 -2.68608 2.13786 0
M  V30 14341 N 1371.68 -0.573274 -1.46804 0
M  V30 14342 C 1372.62 0.178246 -2.31916 0
M  V30 14343 C 1373.62 0.89366 -1.4391 0
M  V30 14344 O 1374.82 0.81312 -1.60588 0
M  V30 14345 H 1371.2 0.0763519 -0.748114 0
M  V30 14346 H 1373.17 -0.558552 -2.93126 0
M  V30 14347 C 1371.92 1.18476 -3.26892 0
M  V30 14348 H 1371.24 0.643691 -3.94584 0
M  V30 14349 H 1372.68 1.68118 -3.89246 0
M  V30 14350 C 1371.14 2.24092 -2.51564 0
M  V30 14351 O 1371.67 3.3129 -2.27178 0
M  V30 14352 N 1369.88 1.98447 -2.1229 0
M  V30 14353 H 1369.42 1.11283 -2.32323 0
M  V30 14354 H 1369.38 2.69325 -1.62207 0
M  V30 14355 N 1373.15 1.5451 -0.310553 0
M  V30 14356 C 1374.57 1.59543 0.0425296 0
M  V30 14357 C 1374.77 1.32737 1.51602 0
M  V30 14358 O 1373.83 1.10543 2.27016 0
M  V30 14359 C 1375.14 2.98489 -0.364002 0
M  V30 14360 C 1376.69 3.11425 -0.313566 0
M  V30 14361 C 1377.16 4.52695 -0.695064 0
M  V30 14362 N 1378.65 4.58645 -0.647966 0
M  V30 14363 C 1379.39 5.66044 -0.915508 0
M  V30 14364 N 1378.88 6.81439 -1.24951 0
M  V30 14365 N 1380.68 5.55759 -0.841933 0
M  V30 14366 H 1372.83 1.70194 -1.27074 0
M  V30 14367 H 1375.09 0.795374 -0.515833 0
M  V30 14368 H 1374.8 3.23061 -1.39012 0
M  V30 14369 H 1374.67 3.76177 0.27756 0
M  V30 14370 H 1377.06 2.86596 0.703326 0
M  V30 14371 H 1377.14 2.35871 -0.989883 0
M  V30 14372 H 1376.78 4.78255 -1.70981 0
M  V30 14373 H 1376.71 5.266 0.00342684 0
M  V30 14374 H 1379.2 3.75765 -0.401137 0
M  V30 14375 H 1379.52 7.59277 -1.43938 0
M  V30 14376 H 1377.86 6.82968 -1.28764 0
M  V30 14377 H 1381.05 4.64486 -0.58058 0
M  V30 14378 H 1381.23 6.39374 -1.0538 0
M  V30 14379 N 1374.63 0.0384594 1.57553 0
M  V30 14380 C 1375.88 -0.636879 1.91803 0
M  V30 14381 C 1376.2 -1.72128 0.916347 0
M  V30 14382 O 1375.47 -1.95858 -0.0407405 0
M  V30 14383 H 1374.05 -0.238237 0.707992 0
M  V30 14384 H 1376.71 0.0884651 1.94699 0
M  V30 14385 H 1375.81 -1.08364 2.92683 0
M  V30 14386 N 1376.11 -1.55841 -0.234795 0
M  V30 14387 C 1377.34 -1.82307 -0.978355 0
M  V30 14388 C 1377.75 -0.615825 -1.78474 0
M  V30 14389 O 1377.11 0.4156 -1.77705 0
M  V30 14390 C 1377.16 -3.07136 -1.90655 0
M  V30 14391 O 1376.88 -4.23202 -1.13278 0
M  V30 14392 C 1378.38 -3.46492 -2.76511 0
M  V30 14393 H 1375.6 -0.606361 -0.287345 0
M  V30 14394 H 1378.15 -2.02916 -0.254023 0
M  V30 14395 H 1376.3 -2.88542 -2.58501 0
M  V30 14396 H 1376.72 -4.94029 -1.76168 0
M  V30 14397 H 1378.19 -4.36908 -3.37366 0
M  V30 14398 H 1378.67 -2.67633 -3.48238 0
M  V30 14399 H 1379.27 -3.6748 -2.14099 0
M  V30 14400 N 1377.59 0.500963 -1.49426 0
M  V30 14401 C 1378.54 1.59939 -1.62492 0
M  V30 14402 C 1379.52 1.53555 -0.480584 0
M  V30 14403 O 1380.72 1.61085 -0.733538 0
M  V30 14404 C 1377.84 2.98549 -1.6948 0
M  V30 14405 C 1376.93 3.09929 -2.89491 0
M  V30 14406 N 1377.32 2.91198 -4.13567 0
M  V30 14407 C 1375.62 3.41029 -2.87428 0
M  V30 14408 C 1376.32 3.06761 -4.94239 0
M  V30 14409 N 1375.3 3.35639 -4.27606 0
M  V30 14410 H 1379.1 1.44111 -2.56143 0
M  V30 14411 H 1376.61 0.707088 -1.46199 0
M  V30 14412 H 1378.61 3.7749 -1.76938 0
M  V30 14413 H 1377.27 3.15446 -0.769658 0
M  V30 14414 H 1378.28 2.67373 -4.43545 0
M  V30 14415 H 1374.96 3.64103 -2.04293 0
M  V30 14416 H 1376.35 2.96772 -6.02807 0
M  V30 14417 N 1379.07 1.38501 0.752011 0
M  V30 14418 C 1380.02 1.35975 1.88716 0
M  V30 14419 C 1381.01 0.245392 1.67613 0
M  V30 14420 O 1382.22 0.414514 1.75162 0
M  V30 14421 H 1378.59 0.424221 0.620919 0
M  V30 14422 H 1380.56 2.3176 1.87962 0
M  V30 14423 C 1379.31 1.20326 3.26216 0
M  V30 14424 H 1378.63 2.05336 3.43041 0
M  V30 14425 H 1380.07 1.22613 4.05884 0
M  V30 14426 C 1378.53 -0.0897029 3.36781 0
M  V30 14427 O 1379.06 -1.06615 3.87293 0
M  V30 14428 N 1377.27 -0.147065 2.90228 0
M  V30 14429 H 1376.82 0.648216 2.49311 0
M  V30 14430 H 1376.77 -1.01174 2.97676 0
M  V30 14431 N 1380.55 -0.980364 1.23396 0
M  V30 14432 C 1381.79 -1.73674 1.07781 0
M  V30 14433 C 1382.15 -1.88227 -0.378759 0
M  V30 14434 O 1383.35 -2.6067 -0.656092 0
M  V30 14435 C 1381.62 -3.09727 1.78337 0
M  V30 14436 S 1383.18 -4.00944 1.78295 0
M  V30 14437 H 1380 -0.597273 0.385728 0
M  V30 14438 H 1382.6 -1.17123 1.56533 0
M  V30 14439 H 1381.3 -2.96786 2.83455 0
M  V30 14440 H 1380.84 -3.71346 1.29868 0
M  V30 14441 H 1382.85 -4.89011 0.841572 0
M  V30 14442 N 1382.02 -1.04567 -1.17913 0
M  V30 14443 C 1383.44 -0.76584 -1.40025 0
M  V30 14444 C 1383.64 0.642484 -1.90983 0
M  V30 14445 O 1382.7 1.40589 -2.0974 0
M  V30 14446 C 1384.01 -1.81616 -2.39658 0
M  V30 14447 C 1385.56 -1.83765 -2.53376 0
M  V30 14448 C 1386.03 -2.87803 -3.56277 0
M  V30 14449 N 1387.52 -2.86726 -3.63789 0
M  V30 14450 C 1388.26 -3.63876 -4.4315 0
M  V30 14451 N 1387.75 -4.50793 -5.26077 0
M  V30 14452 N 1389.55 -3.52344 -4.37962 0
M  V30 14453 H 1381.7 -1.95442 -0.831647 0
M  V30 14454 H 1383.96 -0.84593 -0.42791 0
M  V30 14455 H 1383.67 -2.8266 -2.09275 0
M  V30 14456 H 1383.54 -1.65251 -3.39075 0
M  V30 14457 H 1385.93 -0.833896 -2.83073 0
M  V30 14458 H 1386.01 -2.04208 -1.54055 0
M  V30 14459 H 1385.65 -3.88361 -3.2732 0
M  V30 14460 H 1385.58 -2.64614 -4.55288 0
M  V30 14461 H 1388.07 -2.237 -3.04576 0
M  V30 14462 H 1388.39 -5.0636 -5.83798 0
M  V30 14463 H 1386.73 -4.54858 -5.2548 0
M  V30 14464 H 1389.92 -2.8384 -3.72226 0
M  V30 14465 H 1390.1 -4.12718 -4.99568 0
M  V30 14466 N 1383.5 1.34231 -0.825823 0
M  V30 14467 C 1384.45 2.31378 -0.23809 0
M  V30 14468 C 1385.44 1.57537 0.622767 0
M  V30 14469 O 1386.65 1.72512 0.513783 0
M  V30 14470 H 1383.02 0.74974 -0.0582516 0
M  V30 14471 H 1385 2.78471 -1.07221 0
M  V30 14472 C 1383.74 3.42778 0.582969 0
M  V30 14473 H 1383.07 3.99739 -0.0701208 0
M  V30 14474 H 1384.51 4.12983 0.960266 0
M  V30 14475 C 1382.97 2.87486 1.75651 0
M  V30 14476 O 1383.5 2.82603 2.85479 0
M  V30 14477 N 1381.7 2.4427 1.57418 0
M  V30 14478 H 1381.25 2.48441 0.680792 0
M  V30 14479 H 1381.21 2.07626 2.36091 0
M  V30 14480 N 1384.98 0.581051 1.46498 0
M  V30 14481 C 1386.4 0.242599 1.57745 0
M  V30 14482 C 1386.6 -1.25508 1.57639 0
M  V30 14483 O 1385.65 -2.0367 1.49247 0
M  V30 14484 C 1386.96 0.890342 2.87217 0
M  V30 14485 C 1388.51 0.863778 3.00845 0
M  V30 14486 C 1388.99 1.49103 4.3305 0
M  V30 14487 N 1390.48 1.4553 4.39745 0
M  V30 14488 C 1391.21 1.91003 5.40653 0
M  V30 14489 N 1390.71 2.44442 6.48244 0
M  V30 14490 N 1392.5 1.8193 5.31844 0
M  V30 14491 H 1384.65 1.55382 1.44811 0
M  V30 14492 H 1386.92 0.649375 0.690664 0
M  V30 14493 H 1386.62 1.94383 2.93101 0
M  V30 14494 H 1386.5 0.397569 3.75099 0
M  V30 14495 H 1388.88 -0.181089 2.94544 0
M  V30 14496 H 1388.96 1.39455 2.14443 0
M  V30 14497 H 1388.61 2.53509 4.40109 0
M  V30 14498 H 1388.54 0.935496 5.18224 0
M  V30 14499 H 1391.03 1.06466 3.62593 0
M  V30 14500 H 1391.34 2.77002 7.2145 0
M  V30 14501 H 1389.69 2.48467 6.49068 0
M  V30 14502 H 1392.88 1.3994 4.46693 0
M  V30 14503 H 1393.05 2.17685 6.10342 0
M  V30 14504 N 1386.46 -1.54343 0.318742 0
M  V30 14505 C 1387.41 -2.25634 -0.56497 0
M  V30 14506 C 1388.4 -1.26869 -1.12252 0
M  V30 14507 O 1389.61 -1.44662 -1.07112 0
M  V30 14508 H 1385.98 -0.724686 -0.200834 0
M  V30 14509 H 1387.95 -2.98342 0.0586393 0
M  V30 14510 C 1386.7 -3.0237 -1.71662 0
M  V30 14511 H 1386.02 -3.78183 -1.29684 0
M  V30 14512 H 1387.46 -3.55507 -2.31065 0
M  V30 14513 C 1385.92 -2.10383 -2.63136 0
M  V30 14514 O 1386.45 -1.68351 -3.6472 0
M  V30 14515 N 1384.66 -1.75971 -2.31263 0
M  V30 14516 H 1384.21 -2.10349 -1.48698 0
M  V30 14517 H 1384.16 -1.14702 -2.9273 0
M  V30 14518 N 1387.94 -0.0468143 -1.5753 0
M  V30 14519 C 1389.16 0.641161 -1.97241 0
M  V30 14520 C 1389.59 1.6384 -0.92401 0
M  V30 14521 O 1388.94 1.80946 0.113229 0
M  V30 14522 C 1388.99 1.30832 -3.36029 0
M  V30 14523 O 1388.1 2.42394 -3.33645 0
M  V30 14524 H 1387.44 0.167035 -0.642647 0
M  V30 14525 H 1389.97 -0.113921 -2.04283 0
M  V30 14526 H 1389.98 1.66102 -3.72658 0
M  V30 14527 H 1388.65 0.57744 -4.11872 0
M  V30 14528 H 1387.23 2.09104 -3.08756 0
M  V30 14529 N 1389.41 1.55964 0.226527 0
M  V30 14530 C 1390.66 1.78745 0.95165 0
M  V30 14531 C 1390.99 0.614714 1.84531 0
M  V30 14532 O 1390.24 -0.401137 1.91545 0
M  V30 14533 C 1390.54 3.07235 1.82597 0
M  V30 14534 C 1390.21 4.37627 1.08596 0
M  V30 14535 C 1388.87 4.73057 0.881531 0
M  V30 14536 C 1391.22 5.1815 0.563019 0
M  V30 14537 C 1388.55 5.86528 0.142172 0
M  V30 14538 C 1390.9 6.3239 -0.162972 0
M  V30 14539 C 1389.57 6.66425 -0.378704 0
M  V30 14540 H 1388.84 0.654075 0.348233 0
M  V30 14541 H 1391.48 1.9023 0.220187 0
M  V30 14542 H 1389.79 2.9085 2.62514 0
M  V30 14543 H 1391.49 3.22063 2.38907 0
M  V30 14544 H 1388.08 4.09806 1.25527 0
M  V30 14545 H 1392.26 4.91218 0.708446 0
M  V30 14546 H 1387.52 6.1139 -0.0352481 0
M  V30 14547 H 1391.69 6.94016 -0.575719 0
M  V30 14548 H 1389.32 7.54196 -0.953549 0
M  V30 14549 N 1390.89 -0.493031 1.4969 0
M  V30 14550 C 1391.84 -1.59367 1.66945 0
M  V30 14551 C 1392.81 -1.58049 0.510842 0
M  V30 14552 O 1393.99 -1.75915 0.738822 0
M  V30 14553 C 1391.13 -2.97472 1.74941 0
M  V30 14554 C 1390.25 -3.08745 3.02159 0
M  V30 14555 C 1389.38 -4.37632 3.01085 0
M  V30 14556 C 1388.42 -4.42567 4.22849 0
M  V30 14557 N 1387.56 -5.62892 4.19639 0
M  V30 14558 H 1392.4 -1.4396 2.6092 0
M  V30 14559 H 1389.94 -0.700297 1.29361 0
M  V30 14560 H 1391.89 -3.7753 1.77558 0
M  V30 14561 H 1390.52 -3.11564 0.844252 0
M  V30 14562 H 1389.58 -2.217 3.09117 0
M  V30 14563 H 1390.89 -3.08251 3.92151 0
M  V30 14564 H 1390.04 -5.26018 3.02309 0
M  V30 14565 H 1388.78 -4.40702 2.08885 0
M  V30 14566 H 1387.79 -3.52581 4.21861 0
M  V30 14567 H 1389.01 -4.41205 5.1625 0
M  V30 14568 H 1386.96 -5.6679 3.30281 0
M  V30 14569 H 1386.87 -5.64048 5.03374 0
M  V30 14570 H 1388.14 -6.53464 4.24977 0
M  V30 14571 N 1392.37 -1.38898 -0.744656 0
M  V30 14572 C 1393.3 -1.39571 -1.87195 0
M  V30 14573 C 1394.28 -0.260372 -1.68095 0
M  V30 14574 O 1395.47 -0.464776 -1.88556 0
M  V30 14575 C 1392.6 -1.22889 -3.24832 0
M  V30 14576 C 1391.55 -2.33721 -3.58551 0
M  V30 14577 C 1390.88 -2.02136 -4.9502 0
M  V30 14578 C 1392.18 -3.7601 -3.62511 0
M  V30 14579 H 1393.87 -2.33908 -1.86889 0
M  V30 14580 H 1391.42 -1.12591 -0.897739 0
M  V30 14581 H 1393.37 -1.21983 -4.03359 0
M  V30 14582 H 1392.09 -0.250172 -3.2564 0
M  V30 14583 H 1390.75 -2.33828 -2.82348 0
M  V30 14584 H 1390.4 -1.02726 -4.92399 0
M  V30 14585 H 1390.1 -2.76371 -5.18549 0
M  V30 14586 H 1391.62 -2.02864 -5.75915 0
M  V30 14587 H 1393.04 -3.77885 -4.31133 0
M  V30 14588 H 1391.44 -4.49524 -3.97553 0
M  V30 14589 H 1392.51 -4.07682 -2.62533 0
M  V30 14590 N 1393.85 0.973806 -1.23914 0
M  V30 14591 C 1395.07 1.7564 -1.10296 0
M  V30 14592 C 1395.5 1.84984 0.340954 0
M  V30 14593 O 1394.86 1.31629 1.24674 0
M  V30 14594 C 1394.9 3.15809 -1.7406 0
M  V30 14595 O 1394.01 3.99911 -1.00722 0
M  V30 14596 H 1393.35 0.540133 -0.386202 0
M  V30 14597 H 1395.88 1.22197 -1.64101 0
M  V30 14598 H 1395.89 3.66359 -1.79568 0
M  V30 14599 H 1394.56 3.08324 -2.79122 0
M  V30 14600 H 1393.14 3.58405 -1.02956 0
M  V30 14601 N 1395.33 1.05191 1.17357 0
M  V30 14602 C 1396.74 0.773255 1.39617 0
M  V30 14603 C 1396.94 -0.632346 1.91321 0
M  V30 14604 O 1396 -1.39475 2.10483 0
M  V30 14605 C 1397.31 1.82885 2.38692 0
M  V30 14606 C 1398.86 1.85106 2.52398 0
M  V30 14607 C 1399.33 2.89689 3.54746 0
M  V30 14608 N 1400.83 2.88651 3.62263 0
M  V30 14609 C 1401.56 3.66221 4.41214 0
M  V30 14610 N 1401.06 4.53577 5.23679 0
M  V30 14611 N 1402.85 3.54661 4.36087 0
M  V30 14612 H 1395 1.9588 0.82127 0
M  V30 14613 H 1397.26 0.848187 0.423417 0
M  V30 14614 H 1396.97 2.83766 2.07773 0
M  V30 14615 H 1396.84 1.67047 3.38194 0
M  V30 14616 H 1399.23 0.848896 2.82627 0
M  V30 14617 H 1399.31 2.05022 1.5297 0
M  V30 14618 H 1398.96 3.90091 3.25255 0
M  V30 14619 H 1398.89 2.67025 4.53878 0
M  V30 14620 H 1401.38 2.25312 3.03386 0
M  V30 14621 H 1401.69 5.09449 5.81104 0
M  V30 14622 H 1400.03 4.57638 5.23061 0
M  V30 14623 H 1403.23 2.8581 3.70716 0
M  V30 14624 H 1403.4 4.15361 4.97372 0
M  V30 14625 N 1396.8 -1.33791 0.83293 0
M  V30 14626 C 1398.05 -1.98266 0.426412 0
M  V30 14627 C 1398.38 -1.65848 -1.01035 0
M  V30 14628 O 1397.66 -0.93528 -1.70537 0
M  V30 14629 C 1397.94 -3.54356 0.640586 0
M  V30 14630 C 1397.79 -3.96482 2.12419 0
M  V30 14631 C 1399.11 -4.40022 0.0829237 0
M  V30 14632 H 1396.23 -0.720213 0.156404 0
M  V30 14633 H 1398.87 -1.58527 1.04735 0
M  V30 14634 H 1397.02 -3.88338 0.11204 0
M  V30 14635 H 1398.7 -3.72786 2.71714 0
M  V30 14636 H 1396.94 -3.46429 2.61092 0
M  V30 14637 H 1397.61 -5.05179 2.22482 0
M  V30 14638 H 1400.09 -4.12651 0.534634 0
M  V30 14639 H 1398.96 -5.48272 0.262511 0
M  V30 14640 H 1399.22 -4.30341 -1.01287 0
M  V30 14641 N 1398.28 -0.588812 -1.46187 0
M  V30 14642 C 1399.69 -0.163897 -1.85979 0
M  V30 14643 C 1400.04 1.27458 -1.49161 0
M  V30 14644 O 1399.17 1.96365 -0.909372 0
M  V30 14645 C 1399.76 -0.29067 -3.37551 0
M  V30 14646 C 1398.32 0.0794165 -3.76316 0
M  V30 14647 C 1397.47 -0.623807 -2.70192 0
M  V30 14648 H 1400.42 -0.79666 -1.37255 0
M  V30 14649 H 1400.44 0.482316 -3.77431 0
M  V30 14650 H 1399.95 -1.33771 -3.64317 0
M  V30 14651 H 1398.06 1.12636 -3.55168 0
M  V30 14652 H 1398.17 -0.301153 -4.78153 0
M  V30 14653 H 1396.53 -0.0634124 -2.54621 0
M  V30 14654 H 1397.32 -1.67261 -2.99797 0
M  V30 14655 N 1399.76 1.54172 -0.326923 0
M  V30 14656 C 1400.69 2.27402 0.530154 0
M  V30 14657 C 1401.67 1.28325 1.11655 0
M  V30 14658 O 1402.86 1.57142 1.14105 0
M  V30 14659 C 1399.99 3.03435 1.68951 0
M  V30 14660 C 1398.94 4.09877 1.23226 0
M  V30 14661 C 1398.27 4.7377 2.47882 0
M  V30 14662 C 1399.57 5.21161 0.344698 0
M  V30 14663 H 1401.26 2.99291 -0.0806959 0
M  V30 14664 H 1398.81 1.43944 -0.0402511 0
M  V30 14665 H 1400.76 3.53396 2.29541 0
M  V30 14666 H 1399.48 2.29169 2.327 0
M  V30 14667 H 1398.14 3.60805 0.649267 0
M  V30 14668 H 1397.79 3.96116 3.10002 0
M  V30 14669 H 1397.49 5.45674 2.17977 0
M  V30 14670 H 1399.01 5.26507 3.09229 0
M  V30 14671 H 1400.43 5.66859 0.856979 0
M  V30 14672 H 1398.83 5.99941 0.138276 0
M  V30 14673 H 1399.9 4.80874 -0.623575 0
M  V30 14674 N 1401.24 0.0551678 1.57503 0
M  V30 14675 C 1402.46 -0.630692 1.97578 0
M  V30 14676 C 1402.89 -1.63348 0.932686 0
M  V30 14677 O 1402.25 -1.81004 -0.103632 0
M  V30 14678 C 1402.29 -1.29049 3.36718 0
M  V30 14679 O 1401.4 -2.40621 3.34926 0
M  V30 14680 H 1400.74 -0.163625 0.643524 0
M  V30 14681 H 1403.27 0.124753 2.04219 0
M  V30 14682 H 1403.28 -1.64124 3.73534 0
M  V30 14683 H 1401.95 -0.55559 4.12172 0
M  V30 14684 H 1400.53 -2.07463 3.0986 0
M  V30 14685 N 1402.72 -1.56081 -0.218252 0
M  V30 14686 C 1403.94 -1.83334 -0.958964 0
M  V30 14687 C 1404.36 -0.63472 -1.77811 0
M  V30 14688 O 1403.72 0.396729 -1.78136 0
M  V30 14689 C 1403.77 -3.09141 -1.87387 0
M  V30 14690 O 1403.49 -4.24379 -1.08783 0
M  V30 14691 C 1404.99 -3.49405 -2.7282 0
M  V30 14692 H 1402.21 -0.609375 -0.280898 0
M  V30 14693 H 1404.75 -2.03174 -0.232486 0
M  V30 14694 H 1402.91 -2.91267 -2.55426 0
M  V30 14695 H 1403.32 -4.9587 -1.70919 0
M  V30 14696 H 1404.8 -4.40461 -3.32713 0
M  V30 14697 H 1405.27 -2.71311 -3.45379 0
M  V30 14698 H 1405.88 -3.6973 -2.1019 0
M  V30 14699 N 1404.2 0.485086 -1.49949 0
M  V30 14700 C 1405.44 1.23999 -1.60474 0
M  V30 14701 C 1405.77 1.91904 -0.297736 0
M  V30 14702 O 1405.05 1.81472 0.699857 0
M  V30 14703 C 1405.33 2.2946 -2.77525 0
M  V30 14704 C 1405.19 1.65952 -4.18067 0
M  V30 14705 C 1406.5 3.30893 -2.90169 0
M  V30 14706 H 1403.62 0.449462 -0.584083 0
M  V30 14707 H 1406.27 0.535795 -1.82289 0
M  V30 14708 H 1404.42 2.89521 -2.59056 0
M  V30 14709 H 1406.09 1.09596 -4.48092 0
M  V30 14710 H 1404.33 0.963079 -4.22974 0
M  V30 14711 H 1405 2.42521 -4.9587 0
M  V30 14712 H 1407.48 2.8084 -3.07031 0
M  V30 14713 H 1406.35 4.02027 -3.73718 0
M  V30 14714 H 1406.61 3.94178 -2.0019 0
M  V30 14715 N 1405.67 1.39291 0.737279 0
M  V30 14716 C 1406.6 1.40562 1.86452 0
M  V30 14717 C 1407.58 0.269283 1.67955 0
M  V30 14718 O 1408.77 0.474769 1.88307 0
M  V30 14719 C 1405.9 1.2461 3.24175 0
M  V30 14720 C 1404.85 2.35619 3.57306 0
M  V30 14721 C 1404.18 2.04758 4.93941 0
M  V30 14722 C 1405.48 3.77927 3.60512 0
M  V30 14723 H 1407.17 2.34896 1.85646 0
M  V30 14724 H 1404.72 1.13065 0.891756 0
M  V30 14725 H 1406.67 1.2412 4.02706 0
M  V30 14726 H 1405.4 0.267438 3.25503 0
M  V30 14727 H 1404.06 2.35322 2.81104 0
M  V30 14728 H 1403.7 1.05336 4.91847 0
M  V30 14729 H 1403.4 2.79117 5.17076 0
M  V30 14730 H 1404.93 2.05915 5.74832 0
M  V30 14731 H 1406.34 3.80166 4.29123 0
M  V30 14732 H 1404.74 4.51626 3.95164 0
M  V30 14733 H 1405.81 4.09068 2.60368 0
M  V30 14734 N 1407.15 -0.967221 1.24429 0
M  V30 14735 C 1408.08 -2.07966 1.06172 0
M  V30 14736 C 1409.06 -1.70081 -0.0254566 0
M  V30 14737 O 1410.25 -1.93682 0.141705 0
M  V30 14738 C 1407.38 -3.4085 0.666251 0
M  V30 14739 C 1406.33 -3.92692 1.70225 0
M  V30 14740 C 1405.66 -5.21925 1.16183 0
M  V30 14741 C 1406.96 -4.20478 3.09831 0
M  V30 14742 H 1408.65 -2.23497 1.99222 0
M  V30 14743 H 1406.2 -1.07398 0.959255 0
M  V30 14744 H 1408.15 -4.1811 0.52552 0
M  V30 14745 H 1406.87 -3.2522 -0.299939 0
M  V30 14746 H 1405.53 -3.17588 1.83121 0
M  V30 14747 H 1405.18 -5.02655 0.186237 0
M  V30 14748 H 1404.88 -5.57579 1.85416 0
M  V30 14749 H 1406.41 -6.01795 1.03323 0
M  V30 14750 H 1407.82 -4.88442 3.00162 0
M  V30 14751 H 1406.22 -4.67362 3.7642 0
M  V30 14752 H 1407.29 -3.27235 3.57834 0
M  V30 14753 N 1408.63 -1.05812 -1.16797 0
M  V30 14754 C 1409.91 -0.685551 -1.83193 0
M  V30 14755 C 1410.29 0.833539 -1.93947 0
M  V30 14756 O 1409.63 1.74193 -1.47882 0
M  V30 14757 C 1409.84 -1.38183 -3.20479 0
M  V30 14758 C 1411.19 -1.52389 -3.96311 0
M  V30 14759 O 1412.22 -1.34134 -3.2998 0
M  V30 14760 O 1411.08 -1.82297 -5.15199 0
M  V30 14761 H 1408.17 -0.242095 -0.790771 0
M  V30 14762 H 1410.72 -1.15809 -1.24041 0
M  V30 14763 H 1409.49 -2.41791 -3.07657 0
M  V30 14764 H 1409.11 -0.899043 -3.87302 0
M  V30 14765 N 1410.11 1.33347 -0.840014 0
M  V30 14766 C 1411.52 1.80077 -0.492851 0
M  V30 14767 C 1411.87 1.69495 0.988221 0
M  V30 14768 O 1410.99 1.2449 1.77006 0
M  V30 14769 C 1411.59 3.2696 -0.887827 0
M  V30 14770 C 1410.15 3.71703 -0.592785 0
M  V30 14771 C 1409.3 2.54742 -1.09554 0
M  V30 14772 H 1412.25 1.20853 -1.02861 0
M  V30 14773 H 1412.27 3.79983 -0.198327 0
M  V30 14774 H 1411.78 3.3463 -1.96581 0
M  V30 14775 H 1409.88 3.69559 0.475086 0
M  V30 14776 H 1409.99 4.65123 -1.14882 0
M  V30 14777 H 1408.36 2.49411 -0.516357 0
M  V30 14778 H 1409.14 2.65173 -2.18032 0
M  V30 14779 N 1411.59 0.596556 1.45873 0
M  V30 14780 C 1412.81 0.0934926 2.06689 0
M  V30 14781 C 1413.23 -1.21743 1.44305 0
M  V30 14782 O 1412.59 -1.73912 0.553253 0
M  V30 14783 C 1412.64 -0.0643337 3.61443 0
M  V30 14784 O 1412.36 1.19472 4.21495 0
M  V30 14785 C 1413.86 -0.600141 4.39219 0
M  V30 14786 H 1411.08 0.0637846 0.667961 0
M  V30 14787 H 1413.62 0.821159 1.87289 0
M  V30 14788 H 1411.78 -0.742278 3.80222 0
M  V30 14789 H 1412.19 1.01735 5.14539 0
M  V30 14790 H 1413.67 -0.6597 5.48044 0
M  V30 14791 H 1414.14 -1.62009 4.08227 0
M  V30 14792 H 1414.75 0.0433915 4.25278 0
M  V30 14793 N 1413.06 -1.53996 0.335095 0
M  V30 14794 C 1414.48 -1.59591 -0.0171422 0
M  V30 14795 C 1414.68 -1.35132 -1.49471 0
M  V30 14796 O 1413.74 -1.14141 -2.25229 0
M  V30 14797 C 1415.05 -2.97872 0.411443 0
M  V30 14798 C 1416.6 -3.10887 0.363072 0
M  V30 14799 C 1417.07 -4.51532 0.766995 0
M  V30 14800 N 1418.56 -4.57557 0.72085 0
M  V30 14801 C 1419.3 -5.64516 1.00544 0
M  V30 14802 N 1418.79 -6.79365 1.35777 0
M  V30 14803 N 1420.59 -5.54349 0.930243 0
M  V30 14804 H 1412.74 -1.68151 1.29766 0
M  V30 14805 H 1415 -0.787067 0.528422 0
M  V30 14806 H 1414.71 -3.20809 1.44134 0
M  V30 14807 H 1414.58 -3.76571 -0.217678 0
M  V30 14808 H 1416.97 -2.87679 -0.657642 0
M  V30 14809 H 1417.05 -2.34266 1.02728 0
M  V30 14810 H 1416.69 -4.75474 1.78568 0
M  V30 14811 H 1416.62 -5.26539 0.0803511 0
M  V30 14812 H 1419.11 -3.75079 0.460867 0
M  V30 14813 H 1419.43 -7.56891 1.55999 0
M  V30 14814 H 1417.77 -6.80833 1.39614 0
M  V30 14815 H 1420.96 -4.63503 0.654402 0
M  V30 14816 H 1421.14 -6.37616 1.15539 0
M  V30 14817 N 1414.54 -0.0635198 -1.57472 0
M  V30 14818 C 1415.77 0.620205 -1.9791 0
M  V30 14819 C 1416.19 1.62851 -0.941335 0
M  V30 14820 O 1415.55 1.81056 0.0940313 0
M  V30 14821 C 1415.6 1.27261 -3.37397 0
M  V30 14822 O 1414.7 2.38841 -3.36197 0
M  V30 14823 H 1414.04 0.16021 -0.644382 0
M  V30 14824 H 1416.57 -0.135582 -2.0415 0
M  V30 14825 H 1416.58 1.6214 -3.74399 0
M  V30 14826 H 1415.26 0.533723 -4.12461 0
M  V30 14827 H 1413.83 2.05817 -3.10956 0
M  V30 14828 N 1416.02 1.56195 0.209972 0
M  V30 14829 C 1417.26 1.81525 0.939574 0
M  V30 14830 C 1417.62 0.638789 1.81062 0
M  V30 14831 O 1418.82 0.771648 2.57486 0
M  V30 14832 C 1417.1 3.11809 1.7467 0
M  V30 14833 S 1418.65 3.58494 2.53036 0
M  V30 14834 H 1415.47 0.637211 0.31541 0
M  V30 14835 H 1418.07 1.94431 0.204175 0
M  V30 14836 H 1416.78 3.95463 1.09715 0
M  V30 14837 H 1416.31 3.01742 2.52419 0
M  V30 14838 H 1418.32 3.2275 3.76891 0
M  V30 14839 N 1417.5 -0.477127 1.50204 0
M  V30 14840 C 1418.73 -1.25307 1.64638 0
M  V30 14841 C 1419.14 -1.85942 0.327274 0
M  V30 14842 O 1418.5 -1.6895 -0.690088 0
M  V30 14843 C 1418.55 -2.36616 2.73304 0
M  V30 14844 O 1418.27 -1.78469 4.00101 0
M  V30 14845 C 1419.77 -3.27595 2.98658 0
M  V30 14846 H 1416.99 -0.379192 0.553583 0
M  V30 14847 H 1419.53 -0.5702 1.9639 0
M  V30 14848 H 1417.69 -3.00689 2.44264 0
M  V30 14849 H 1418.1 -2.51722 4.60148 0
M  V30 14850 H 1419.58 -4.01921 3.7837 0
M  V30 14851 H 1420.05 -3.86017 2.09493 0
M  V30 14852 H 1420.66 -2.69264 3.29206 0
M  V30 14853 N 1418.98 -1.3968 -0.729882 0
M  V30 14854 C 1419.91 -1.34713 -1.85432 0
M  V30 14855 C 1420.92 -0.254999 -1.60791 0
M  V30 14856 O 1422.11 -0.514324 -1.7093 0
M  V30 14857 C 1419.21 -1.07019 -3.21559 0
M  V30 14858 C 1418.38 -2.27609 -3.73515 0
M  V30 14859 C 1417.44 -1.96292 -4.88217 0
M  V30 14860 O 1416.47 -2.69025 -5.01612 0
M  V30 14861 N 1417.67 -0.932181 -5.72967 0
M  V30 14862 H 1420.44 -2.31616 -1.90195 0
M  V30 14863 H 1418 -1.33849 -0.910834 0
M  V30 14864 H 1419.99 -0.84079 -3.9587 0
M  V30 14865 H 1418.56 -0.188323 -3.12032 0
M  V30 14866 H 1417.78 -2.66468 -2.90497 0
M  V30 14867 H 1419.07 -3.08033 -4.04961 0
M  V30 14868 H 1418.46 -0.329507 -5.6474 0
M  V30 14869 H 1417.02 -0.762684 -6.47322 0
M  V30 14870 N 1420.45 0.960609 -1.2494 0
M  V30 14871 C 1421.87 1.51915 -1.0853 0
M  V30 14872 C 1422.22 1.93215 0.340949 0
M  V30 14873 O 1421.34 1.78031 1.2302 0
M  V30 14874 C 1421.94 2.76069 -1.96396 0
M  V30 14875 C 1420.5 3.28255 -1.84189 0
M  V30 14876 C 1419.64 2.01124 -1.90905 0
M  V30 14877 H 1422.59 0.778141 -1.38314 0
M  V30 14878 H 1422.61 3.49668 -1.50042 0
M  V30 14879 H 1422.13 2.45979 -3.00193 0
M  V30 14880 H 1420.23 3.6318 -0.832518 0
M  V30 14881 H 1420.34 3.96675 -2.68673 0
M  V30 14882 H 1418.7 2.16155 -1.34718 0
M  V30 14883 H 1419.49 1.73389 -2.96295 0
M  V30 14884 N 1421.93 1.0643 1.16234 0
M  V30 14885 C 1423.35 0.78802 1.38789 0
M  V30 14886 C 1423.55 -0.612019 1.91981 0
M  V30 14887 O 1422.6 -1.37235 2.1195 0
M  V30 14888 C 1423.92 1.85406 2.36738 0
M  V30 14889 C 1425.47 1.87773 2.5042 0
M  V30 14890 C 1425.94 2.93435 3.51653 0
M  V30 14891 N 1427.43 2.92477 3.59181 0
M  V30 14892 C 1428.17 3.7088 4.37305 0
M  V30 14893 N 1427.66 4.59106 5.18839 0
M  V30 14894 N 1429.46 3.59267 4.32301 0
M  V30 14895 H 1421.61 1.9674 0.800449 0
M  V30 14896 H 1423.87 0.852631 0.414397 0
M  V30 14897 H 1423.58 2.85954 2.04751 0
M  V30 14898 H 1423.45 1.70625 3.36403 0
M  V30 14899 H 1425.84 0.878825 2.8171 0
M  V30 14900 H 1425.92 2.06633 1.50787 0
M  V30 14901 H 1425.56 3.93519 3.211 0
M  V30 14902 H 1425.49 2.71824 4.5102 0
M  V30 14903 H 1427.98 2.28517 3.00979 0
M  V30 14904 H 1428.3 5.15583 5.75668 0
M  V30 14905 H 1426.64 4.6316 5.18177 0
M  V30 14906 H 1429.83 2.89726 3.67663 0
M  V30 14907 H 1430 4.20613 4.92939 0
M  V30 14908 N 1423.41 -1.329 0.847073 0
M  V30 14909 C 1424.66 -1.9712 0.445872 0
M  V30 14910 C 1424.98 -1.67398 -1.00014 0
M  V30 14911 O 1424.25 -0.977204 -1.69787 0
M  V30 14912 H 1422.83 -0.729247 0.161887 0
M  V30 14913 H 1425.49 -1.62118 1.08184 0
M  V30 14914 H 1424.59 -3.06575 0.584676 0
M  V30 14915 N 1424.89 -0.604284 -1.45555 0
M  V30 14916 C 1425.85 0.106526 -2.28952 0
M  V30 14917 C 1426.85 0.798277 -1.39586 0
M  V30 14918 O 1428.04 0.646943 -1.61741 0
M  V30 14919 C 1425.17 1.16091 -3.20524 0
M  V30 14920 H 1426.37 -0.626655 -2.9328 0
M  V30 14921 H 1423.92 -0.363183 -1.52022 0
M  V30 14922 H 1424.65 1.92496 -2.6099 0
M  V30 14923 H 1424.44 0.669137 -3.86348 0
M  V30 14924 H 1425.93 1.65882 -3.8324 0
M  V30 14925 N 1426.37 1.53816 -0.343257 0
M  V30 14926 C 1427.61 2.00909 0.253346 0
M  V30 14927 C 1427.94 1.23109 1.5058 0
M  V30 14928 O 1427.2 0.306682 1.93282 0
M  V30 14929 C 1427.5 3.521 0.613243 0
M  V30 14930 C 1427.16 4.47627 -0.5423 0
M  V30 14931 C 1425.82 4.73463 -0.859418 0
M  V30 14932 C 1428.18 5.04272 -1.31754 0
M  V30 14933 C 1425.5 5.532 -1.95415 0
M  V30 14934 C 1427.86 5.85203 -2.40251 0
M  V30 14935 C 1426.52 6.09334 -2.72523 0
M  V30 14936 H 1425.79 0.735178 0.0927058 0
M  V30 14937 H 1428.44 1.85615 -0.471111 0
M  V30 14938 H 1426.74 3.65224 1.41841 0
M  V30 14939 H 1428.44 3.85994 1.08673 0
M  V30 14940 H 1425.03 4.27651 -0.285076 0
M  V30 14941 H 1429.21 4.84277 -1.0858 0
M  V30 14942 H 1424.47 5.70122 -2.20842 0
M  V30 14943 H 1428.64 6.28109 -3.00753 0
M  V30 14944 H 1426.27 6.70906 -3.57476 0
M  V30 14945 N 1427.84 0.0718701 1.57436 0
M  V30 14946 C 1428.81 -0.880671 2.11605 0
M  V30 14947 C 1429.81 -1.22632 1.0401 0
M  V30 14948 O 1431 -1.15958 1.29997 0
M  V30 14949 C 1428.13 -2.18407 2.61746 0
M  V30 14950 H 1429.32 -0.410712 2.97074 0
M  V30 14951 H 1426.88 -0.176836 1.55296 0
M  V30 14952 H 1427.61 -2.6994 1.79731 0
M  V30 14953 H 1427.4 -1.94616 3.40392 0
M  V30 14954 H 1428.89 -2.86596 3.03731 0
M  V30 14955 N 1429.32 -1.56304 -0.201686 0
M  V30 14956 C 1430.6 -1.71059 -0.948595 0
M  V30 14957 C 1430.98 -0.624794 -2.01642 0
M  V30 14958 O 1430.33 0.365235 -2.25562 0
M  V30 14959 C 1430.54 -3.13136 -1.54101 0
M  V30 14960 C 1431.89 -3.73165 -2.02567 0
M  V30 14961 O 1432.91 -3.16223 -1.63956 0
M  V30 14962 O 1431.77 -4.73084 -2.73594 0
M  V30 14963 H 1428.86 -0.697443 -0.444412 0
M  V30 14964 H 1431.41 -1.68611 -0.191901 0
M  V30 14965 H 1430.18 -3.8363 -0.770968 0
M  V30 14966 H 1429.8 -3.19784 -2.36271 0
M  V30 14967 N 1430.8 0.469154 -1.50455 0
M  V30 14968 C 1432.05 1.21868 -1.61222 0
M  V30 14969 C 1432.37 1.9243 -0.315535 0
M  V30 14970 O 1431.64 1.84192 0.667083 0
M  V30 14971 H 1430.22 0.452828 -0.594101 0
M  V30 14972 H 1432.88 0.540993 -1.87241 0
M  V30 14973 H 1431.98 1.96554 -2.42431 0
M  V30 14974 N 1432.28 1.40065 0.722464 0
M  V30 14975 C 1433.23 1.36267 1.82798 0
M  V30 14976 C 1434.21 0.241375 1.59079 0
M  V30 14977 O 1435.4 0.479929 1.70369 0
M  V30 14978 C 1432.53 1.22086 3.20858 0
M  V30 14979 C 1431.62 2.38969 3.50364 0
M  V30 14980 N 1432.01 3.6445 3.50727 0
M  V30 14981 C 1430.31 2.32199 3.80788 0
M  V30 14982 C 1431.01 4.41816 3.78383 0
M  V30 14983 N 1429.99 3.71565 3.96787 0
M  V30 14984 H 1433.79 2.31236 1.81403 0
M  V30 14985 H 1431.3 1.33739 0.92128 0
M  V30 14986 H 1433.3 1.17448 4.00014 0
M  V30 14987 H 1431.96 0.280787 3.23484 0
M  V30 14988 H 1432.97 3.97705 3.3174 0
M  V30 14989 H 1429.65 1.46521 3.90945 0
M  V30 14990 H 1431.04 5.5064 3.85027 0
M  V30 14991 N 1433.76 -0.95397 1.25448 0
M  V30 14992 C 1435 -1.70118 1.10399 0
M  V30 14993 C 1435.34 -1.90945 -0.354093 0
M  V30 14994 O 1434.61 -1.48088 -1.26096 0
M  V30 14995 C 1434.89 -3.08371 1.85955 0
M  V30 14996 C 1434.75 -2.9495 3.39595 0
M  V30 14997 C 1436.07 -4.08273 1.64321 0
M  V30 14998 H 1433.19 -0.617424 0.402438 0
M  V30 14999 H 1435.83 -1.10884 1.54288 0
M  V30 15000 H 1433.98 -3.58936 1.48651 0
M  V30 15001 H 1435.65 -2.51705 3.86578 0
M  V30 15002 H 1433.89 -2.30853 3.67273 0
M  V30 15003 H 1434.56 -3.92952 3.87676 0
M  V30 15004 H 1437.04 -3.6662 1.96796 0
M  V30 15005 H 1435.92 -5.03048 2.19622 0
M  V30 15006 H 1436.18 -4.38217 0.584685 0
M  V30 15007 N 1435.24 -1.07045 -1.15668 0
M  V30 15008 C 1436.17 -0.709413 -2.22463 0
M  V30 15009 C 1437.15 0.30169 -1.67403 0
M  V30 15010 O 1438.33 0.175131 -1.93409 0
M  V30 15011 C 1435.46 -0.103121 -3.47147 0
M  V30 15012 C 1434.42 -1.04103 -4.15146 0
M  V30 15013 C 1433.74 -0.297656 -5.33871 0
M  V30 15014 C 1435.04 -2.37332 -4.65264 0
M  V30 15015 H 1436.74 -1.60227 -2.52918 0
M  V30 15016 H 1434.28 -0.771846 -1.21567 0
M  V30 15017 H 1436.23 0.161371 -4.21091 0
M  V30 15018 H 1434.96 0.824792 -3.16014 0
M  V30 15019 H 1433.62 -1.2904 -3.43139 0
M  V30 15020 H 1433.27 0.633618 -4.98993 0
M  V30 15021 H 1432.97 -0.922789 -5.80309 0
M  V30 15022 H 1434.49 -0.0408892 -6.10586 0
M  V30 15023 H 1435.9 -2.1674 -5.30751 0
M  V30 15024 H 1434.3 -2.95412 -5.22352 0
M  V30 15025 H 1435.37 -2.99859 -3.81068 0
M  V30 15026 N 1436.71 1.32449 -0.85411 0
M  V30 15027 C 1437.62 2.32658 -0.301221 0
M  V30 15028 C 1438.64 1.64025 0.580673 0
M  V30 15029 O 1439.82 1.95568 0.481172 0
M  V30 15030 C 1436.88 3.43049 0.501803 0
M  V30 15031 C 1435.94 4.27374 -0.406166 0
M  V30 15032 C 1435.17 5.32494 0.358627 0
M  V30 15033 O 1435.4 5.4783 1.58865 0
M  V30 15034 O 1434.33 6.0127 -0.275291 0
M  V30 15035 H 1438.16 2.81838 -1.13143 0
M  V30 15036 H 1435.74 1.36063 -0.617032 0
M  V30 15037 H 1437.62 4.10375 0.957608 0
M  V30 15038 H 1436.3 2.9606 1.30882 0
M  V30 15039 H 1435.21 3.6286 -0.910136 0
M  V30 15040 H 1436.54 4.77887 -1.17835 0
M  V30 15041 N 1438.19 0.611994 1.45232 0
M  V30 15042 C 1439.12 -0.0914869 2.33321 0
M  V30 15043 C 1440.1 -0.854315 1.4709 0
M  V30 15044 O 1441.29 -0.823994 1.75852 0
M  V30 15045 C 1438.42 -1.08652 3.29867 0
M  V30 15046 C 1437.37 -0.436615 4.25767 0
M  V30 15047 C 1436.7 -1.54021 5.12037 0
M  V30 15048 C 1438 0.645005 5.18302 0
M  V30 15049 H 1439.69 0.644053 2.92391 0
M  V30 15050 H 1437.24 0.311171 1.40598 0
M  V30 15051 H 1439.19 -1.58726 3.90364 0
M  V30 15052 H 1437.91 -1.85271 2.68965 0
M  V30 15053 H 1436.57 0.0432918 3.66574 0
M  V30 15054 H 1436.22 -2.29679 4.475 0
M  V30 15055 H 1435.92 -1.11084 5.77005 0
M  V30 15056 H 1437.45 -2.04313 5.75403 0
M  V30 15057 H 1438.86 0.228166 5.72846 0
M  V30 15058 H 1437.26 0.996387 5.9177 0
M  V30 15059 H 1438.33 1.51985 4.60466 0
M  V30 15060 N 1439.67 -1.53632 0.351409 0
M  V30 15061 C 1440.6 -2.28217 -0.49391 0
M  V30 15062 C 1441.58 -1.30085 -1.09599 0
M  V30 15063 O 1442.77 -1.58938 -1.1159 0
M  V30 15064 C 1439.9 -3.06085 -1.64102 0
M  V30 15065 C 1438.85 -4.11786 -1.16689 0
M  V30 15066 C 1438.18 -4.77654 -2.40314 0
M  V30 15067 C 1439.48 -5.21644 -0.261742 0
M  V30 15068 H 1441.17 -2.99125 0.1283 0
M  V30 15069 H 1438.72 -1.43861 0.0631462 0
M  V30 15070 H 1440.67 -3.57003 -2.2389 0
M  V30 15071 H 1439.39 -2.32842 -2.29025 0
M  V30 15072 H 1438.05 -3.61792 -0.591784 0
M  V30 15073 H 1437.7 -4.00997 -3.03661 0
M  V30 15074 H 1437.4 -5.49072 -2.09268 0
M  V30 15075 H 1438.92 -5.3136 -3.00813 0
M  V30 15076 H 1440.34 -5.6815 -0.766689 0
M  V30 15077 H 1438.73 -6.00085 -0.0428132 0
M  V30 15078 H 1439.8 -4.79821 0.699999 0
M  V30 15079 N 1441.15 -0.0802183 -1.57396 0
M  V30 15080 C 1442.39 0.587831 -1.94094 0
M  V30 15081 C 1442.73 1.6875 -0.961093 0
M  V30 15082 O 1442 1.94498 0.00832799 0
M  V30 15083 C 1442.28 1.15692 -3.41009 0
M  V30 15084 C 1442.14 0.0633211 -4.49755 0
M  V30 15085 C 1443.46 2.05987 -3.88918 0
M  V30 15086 H 1440.58 0.212214 -0.705786 0
M  V30 15087 H 1443.22 -0.147902 -1.89423 0
M  V30 15088 H 1441.37 1.78394 -3.4512 0
M  V30 15089 H 1443.04 -0.57019 -4.57763 0
M  V30 15090 H 1441.28 -0.605003 -4.2956 0
M  V30 15091 H 1441.95 0.502056 -5.49712 0
M  V30 15092 H 1444.43 1.5321 -3.86867 0
M  V30 15093 H 1443.31 2.42737 -4.92311 0
M  V30 15094 H 1443.57 2.97147 -3.27347 0
M  V30 15095 N 1442.63 1.56409 0.193394 0
M  V30 15096 C 1443.87 1.80367 0.911717 0
M  V30 15097 C 1444.19 0.653561 1.83721 0
M  V30 15098 O 1443.46 -0.328001 1.93135 0
M  V30 15099 H 1442.04 0.665316 0.339652 0
M  V30 15100 H 1444.71 1.93887 0.198496 0
M  V30 15101 H 1443.8 2.7359 1.50182 0
M  V30 15102 N 1444.1 -0.461169 1.50702 0
M  V30 15103 C 1445.33 -1.23375 1.65717 0
M  V30 15104 C 1445.74 -1.86047 0.343992 0
M  V30 15105 O 1445.08 -1.70447 -0.68508 0
M  V30 15106 C 1445.15 -2.3758 2.69808 0
M  V30 15107 C 1444.81 -1.95467 4.13088 0
M  V30 15108 C 1445.81 -1.47154 4.9864 0
M  V30 15109 C 1443.49 -2.03885 4.5906 0
M  V30 15110 C 1445.49 -1.07815 6.28215 0
M  V30 15111 C 1443.17 -1.64157 5.88639 0
M  V30 15112 C 1444.17 -1.16201 6.73043 0
M  V30 15113 O 1443.86 -0.770282 8.00201 0
M  V30 15114 H 1443.59 -0.378885 0.559841 0
M  V30 15115 H 1446.15 -0.555712 1.9774 0
M  V30 15116 H 1444.38 -3.08586 2.33049 0
M  V30 15117 H 1446.06 -2.99517 2.73942 0
M  V30 15118 H 1446.83 -1.40064 4.64335 0
M  V30 15119 H 1442.71 -2.40159 3.93503 0
M  V30 15120 H 1446.25 -0.703139 6.94047 0
M  V30 15121 H 1442.15 -1.70909 6.22463 0
M  V30 15122 H 1442.92 -0.898254 8.13556 0
M  V30 15123 N 1445.58 -1.40446 -0.715026 0
M  V30 15124 C 1447 -1.22488 -1.02317 0
M  V30 15125 C 1447.2 -0.100481 -2.01249 0
M  V30 15126 O 1446.25 0.541447 -2.46626 0
M  V30 15127 C 1447.57 -2.56682 -1.56636 0
M  V30 15128 C 1449.11 -2.63699 -1.68617 0
M  V30 15129 C 1449.59 -3.98163 -2.26342 0
M  V30 15130 N 1451.08 -3.99907 -2.33727 0
M  V30 15131 C 1451.82 -5.00737 -2.79375 0
M  V30 15132 N 1451.31 -6.11961 -3.24771 0
M  V30 15133 N 1453.1 -4.88106 -2.78764 0
M  V30 15134 H 1445.26 -2.12317 -0.0592712 0
M  V30 15135 H 1447.52 -0.943823 -0.088895 0
M  V30 15136 H 1447.22 -3.39615 -0.914036 0
M  V30 15137 H 1447.1 -2.77809 -2.55151 0
M  V30 15138 H 1449.49 -1.81138 -2.32966 0
M  V30 15139 H 1449.57 -2.46402 -0.687004 0
M  V30 15140 H 1449.21 -4.81164 -1.62614 0
M  V30 15141 H 1449.14 -4.1279 -3.26974 0
M  V30 15142 H 1451.63 -3.19592 -2.01666 0
M  V30 15143 H 1451.94 -6.84787 -3.58171 0
M  V30 15144 H 1450.29 -6.15525 -3.22729 0
M  V30 15145 H 1453.48 -4.00307 -2.42635 0
M  V30 15146 H 1453.65 -5.66828 -3.14023 0
M  V30 15147 N 1447.06 0.947303 -1.25952 0
M  V30 15148 C 1448.31 1.69279 -1.11135 0
M  V30 15149 C 1448.63 1.9139 0.346407 0
M  V30 15150 O 1447.89 1.48786 1.27126 0
M  V30 15151 C 1448.19 3.07652 -1.81892 0
M  V30 15152 C 1447.85 3.05317 -3.31802 0
M  V30 15153 C 1446.52 3.04387 -3.72695 0
M  V30 15154 C 1448.87 2.98088 -4.27543 0
M  V30 15155 C 1446.2 2.93987 -5.07729 0
M  V30 15156 C 1448.55 2.89229 -5.62609 0
M  V30 15157 C 1447.21 2.86639 -6.02822 0
M  V30 15158 H 1446.48 0.619435 -0.40667 0
M  V30 15159 H 1449.13 1.10621 -1.56318 0
M  V30 15160 H 1447.43 3.69898 -1.29161 0
M  V30 15161 H 1449.13 3.6417 -1.67873 0
M  V30 15162 H 1445.72 3.06817 -2.99268 0
M  V30 15163 H 1449.91 2.9792 -3.96935 0
M  V30 15164 H 1445.16 2.90355 -5.38056 0
M  V30 15165 H 1449.34 2.82598 -6.36483 0
M  V30 15166 H 1446.96 2.78336 -7.07413 0
M  V30 15167 N 1448.54 1.07657 1.15099 0
M  V30 15168 C 1449.78 0.802796 1.86234 0
M  V30 15169 C 1450.12 -0.669555 1.82293 0
M  V30 15170 O 1449.39 -1.49162 1.24823 0
M  V30 15171 C 1449.68 1.3156 3.35208 0
M  V30 15172 C 1449.53 2.85272 3.47764 0
M  V30 15173 C 1450.85 0.934641 4.30061 0
M  V30 15174 H 1447.97 0.293099 0.676212 0
M  V30 15175 H 1450.61 1.33488 1.35207 0
M  V30 15176 H 1448.76 0.86298 3.78794 0
M  V30 15177 H 1450.43 3.38847 3.13018 0
M  V30 15178 H 1448.67 3.23316 2.89222 0
M  V30 15179 H 1449.34 3.16223 4.52446 0
M  V30 15180 H 1451.82 1.3247 3.9445 0
M  V30 15181 H 1450.7 1.32074 5.32774 0
M  V30 15182 H 1450.96 -0.159122 4.41814 0
M  V30 15183 N 1450.02 -1.31994 0.861122 0
M  V30 15184 C 1451.24 -2.01211 0.481865 0
M  V30 15185 C 1451.66 -1.64687 -0.923233 0
M  V30 15186 O 1451.02 -0.87151 -1.60346 0
M  V30 15187 C 1451.07 -3.56162 0.618919 0
M  V30 15188 O 1450.79 -3.91376 1.96868 0
M  V30 15189 C 1452.29 -4.42652 0.239514 0
M  V30 15190 H 1449.51 -0.643922 0.188693 0
M  V30 15191 H 1452.05 -1.68427 1.15985 0
M  V30 15192 H 1450.21 -3.87398 -0.0114042 0
M  V30 15193 H 1450.62 -4.86095 1.97008 0
M  V30 15194 H 1452.1 -5.50646 0.386394 0
M  V30 15195 H 1452.57 -4.31466 -0.820598 0
M  V30 15196 H 1453.18 -4.16818 0.845175 0
M  V30 15197 N 1451.49 -0.619688 -1.44906 0
M  V30 15198 C 1452.46 0.0822364 -2.29052 0
M  V30 15199 C 1453.46 0.783427 -1.40425 0
M  V30 15200 O 1454.65 0.629751 -1.62419 0
M  V30 15201 C 1451.78 1.12685 -3.21737 0
M  V30 15202 H 1452.97 -0.657726 -2.92599 0
M  V30 15203 H 1450.53 -0.379286 -1.51628 0
M  V30 15204 H 1451.26 1.89717 -2.63017 0
M  V30 15205 H 1451.05 0.628122 -3.87036 0
M  V30 15206 H 1452.54 1.61808 -3.84978 0
M  V30 15207 N 1452.97 1.53444 -0.359552 0
M  V30 15208 C 1454.22 2.00348 0.233109 0
M  V30 15209 C 1454.53 1.25104 1.50361 0
M  V30 15210 O 1455.74 1.62566 2.1745 0
M  V30 15211 C 1454.2 3.56871 0.465951 0
M  V30 15212 C 1453.8 4.40987 -0.789571 0
M  V30 15213 C 1455.55 4.12148 1.0166 0
M  V30 15214 C 1453.46 5.8905 -0.526646 0
M  V30 15215 H 1452.39 0.748502 0.0908851 0
M  V30 15216 H 1455.04 1.77182 -0.47736 0
M  V30 15217 H 1453.42 3.76167 1.23753 0
M  V30 15218 H 1454.59 4.33465 -1.56348 0
M  V30 15219 H 1452.91 3.96784 -1.263 0
M  V30 15220 H 1455.5 5.20395 1.22853 0
M  V30 15221 H 1455.85 3.66364 1.97694 0
M  V30 15222 H 1456.38 3.96626 0.305334 0
M  V30 15223 H 1453.12 6.39099 -1.45715 0
M  V30 15224 H 1452.64 5.99436 0.208875 0
M  V30 15225 H 1454.32 6.46826 -0.149889 0
M  V30 15226 N 1454.45 0.0885642 1.57351 0
M  V30 15227 C 1455.7 -0.576675 1.94115 0
M  V30 15228 C 1456.03 -1.68595 0.969842 0
M  V30 15229 O 1455.28 -1.95697 -0.0116998 0
M  V30 15230 C 1455.58 -1.17764 3.37441 0
M  V30 15231 C 1455.25 -0.192813 4.50488 0
M  V30 15232 C 1453.91 0.0780722 4.81137 0
M  V30 15233 C 1456.26 0.479997 5.18985 0
M  V30 15234 C 1453.59 1.02857 5.77613 0
M  V30 15235 C 1455.94 1.41892 6.16481 0
M  V30 15236 C 1454.6 1.69811 6.45539 0
M  V30 15237 H 1453.87 -0.21102 0.710318 0
M  V30 15238 H 1456.52 0.163009 1.90805 0
M  V30 15239 H 1454.83 -1.99343 3.37298 0
M  V30 15240 H 1456.52 -1.69994 3.63185 0
M  V30 15241 H 1453.11 -0.41413 4.26595 0
M  V30 15242 H 1457.3 0.283854 4.95488 0
M  V30 15243 H 1452.55 1.25194 5.98445 0
M  V30 15244 H 1456.73 1.94612 6.68655 0
M  V30 15245 H 1454.35 2.43621 7.20106 0
M  V30 15246 N 1455.93 -1.56509 -0.185096 0
M  V30 15247 C 1457.17 -1.81474 -0.905263 0
M  V30 15248 C 1457.51 -0.664225 -1.82488 0
M  V30 15249 O 1456.78 0.33466 -1.91599 0
M  V30 15250 C 1457.07 -3.16754 -1.71287 0
M  V30 15251 C 1456.92 -4.42312 -0.817302 0
M  V30 15252 C 1458.24 -3.48828 -2.68342 0
M  V30 15253 H 1455.36 -0.660155 -0.327664 0
M  V30 15254 H 1458 -1.89219 -0.172129 0
M  V30 15255 H 1456.15 -3.10282 -2.33789 0
M  V30 15256 H 1457.82 -4.60839 -0.206218 0
M  V30 15257 H 1456.06 -4.33621 -0.124564 0
M  V30 15258 H 1456.73 -5.33487 -1.41758 0
M  V30 15259 H 1459.21 -3.55663 -2.15969 0
M  V30 15260 H 1458.09 -4.44585 -3.21924 0
M  V30 15261 H 1458.35 -2.72829 -3.47875 0
M  V30 15262 N 1457.41 0.45317 -1.50944 0
M  V30 15263 C 1458.34 1.55655 -1.74051 0
M  V30 15264 C 1459.32 1.59545 -0.58987 0
M  V30 15265 O 1460.5 1.75526 -0.830922 0
M  V30 15266 C 1457.63 2.93857 -1.85109 0
M  V30 15267 C 1456.59 3.04832 -3.00435 0
M  V30 15268 C 1455.91 4.44858 -2.96657 0
M  V30 15269 C 1457.21 2.80381 -4.40663 0
M  V30 15270 H 1458.91 1.36571 -2.66437 0
M  V30 15271 H 1456.45 0.655572 -1.28212 0
M  V30 15272 H 1458.41 3.70992 -1.99857 0
M  V30 15273 H 1457.13 3.14138 -0.893579 0
M  V30 15274 H 1455.79 2.30134 -2.85366 0
M  V30 15275 H 1455.44 4.62083 -1.98716 0
M  V30 15276 H 1455.14 4.53134 -3.7409 0
M  V30 15277 H 1456.66 5.23989 -3.13478 0
M  V30 15278 H 1458.07 3.47255 -4.56165 0
M  V30 15279 H 1456.47 3.00083 -5.19683 0
M  V30 15280 H 1457.54 1.76099 -4.51793 0
M  V30 15281 N 1458.88 1.40823 0.707568 0
M  V30 15282 C 1460.3 1.35249 1.28704 0
M  V30 15283 C 1460.65 0.0298026 1.96177 0
M  V30 15284 O 1459.77 -0.872126 1.98048 0
M  V30 15285 C 1460.37 2.44965 2.34046 0
M  V30 15286 C 1458.93 2.42826 2.87598 0
M  V30 15287 C 1458.07 2.25429 1.61483 0
M  V30 15288 H 1461.02 1.50513 0.503141 0
M  V30 15289 H 1461.04 2.13334 3.1507 0
M  V30 15290 H 1460.56 3.41219 1.84908 0
M  V30 15291 H 1458.66 1.50294 3.40944 0
M  V30 15292 H 1458.77 3.38704 3.38845 0
M  V30 15293 H 1457.13 1.73089 1.86848 0
M  V30 15294 H 1457.92 3.23693 1.14359 0
M  V30 15295 N 1460.36 -0.94061 1.26453 0
M  V30 15296 C 1461.31 -2.02524 1.04728 0
M  V30 15297 C 1462.3 -1.60887 -0.0205193 0
M  V30 15298 O 1463.49 -1.75906 0.196501 0
M  V30 15299 C 1460.62 -3.3644 0.682862 0
M  V30 15300 C 1459.7 -3.84559 1.78815 0
M  V30 15301 N 1460.09 -4.05323 3.02567 0
M  V30 15302 C 1458.39 -4.13478 1.67188 0
M  V30 15303 C 1459.09 -4.45191 3.74406 0
M  V30 15304 N 1458.07 -4.51927 3.02098 0
M  V30 15305 H 1461.87 -2.1659 1.9866 0
M  V30 15306 H 1459.39 -1.12649 1.16978 0
M  V30 15307 H 1461.38 -4.13789 0.508379 0
M  V30 15308 H 1460.04 -3.23744 -0.248973 0
M  V30 15309 H 1461.05 -3.91996 3.38466 0
M  V30 15310 H 1457.73 -4.09567 0.809986 0
M  V30 15311 H 1459.12 -4.69442 4.80701 0
M  V30 15312 N 1461.84 -1.08266 -1.14527 0
M  V30 15313 C 1462.75 -0.723043 -2.2318 0
M  V30 15314 C 1463.77 0.269819 -1.71895 0
M  V30 15315 O 1464.94 0.114126 -2.01076 0
M  V30 15316 C 1462.01 -0.136229 -3.46432 0
M  V30 15317 C 1461.07 -1.18352 -4.12664 0
M  V30 15318 C 1460.3 -0.624612 -5.30032 0
M  V30 15319 O 1460.52 0.556377 -5.6768 0
M  V30 15320 O 1459.46 -1.37397 -5.86008 0
M  V30 15321 H 1463.28 -1.6294 -2.56289 0
M  V30 15322 H 1460.87 -0.856235 -1.22429 0
M  V30 15323 H 1462.75 0.18829 -4.20979 0
M  V30 15324 H 1461.43 0.74331 -3.1505 0
M  V30 15325 H 1460.33 -1.56054 -3.39997 0
M  V30 15326 H 1461.67 -2.03528 -4.48148 0
M  V30 15327 N 1463.32 1.31536 -0.86811 0
M  V30 15328 C 1464.27 2.28562 -0.320602 0
M  V30 15329 C 1465.24 1.55648 0.579902 0
M  V30 15330 O 1466.42 1.83804 0.51194 0
M  V30 15331 C 1463.56 3.41836 0.473499 0
M  V30 15332 C 1462.67 4.29604 -0.454311 0
M  V30 15333 C 1461.81 5.30021 0.353733 0
M  V30 15334 C 1460.85 6.09434 -0.570624 0
M  V30 15335 N 1459.99 7.01812 0.201058 0
M  V30 15336 H 1464.83 2.74782 -1.15322 0
M  V30 15337 H 1462.36 1.35179 -0.580088 0
M  V30 15338 H 1464.32 4.06248 0.949662 0
M  V30 15339 H 1462.95 2.96732 1.27083 0
M  V30 15340 H 1462 3.65653 -1.04892 0
M  V30 15341 H 1463.31 4.85048 -1.16316 0
M  V30 15342 H 1462.47 6.001 0.892484 0
M  V30 15343 H 1461.21 4.75228 1.09589 0
M  V30 15344 H 1460.21 5.38247 -1.12115 0
M  V30 15345 H 1461.44 6.66314 -1.3116 0
M  V30 15346 H 1459.38 6.49431 0.926058 0
M  V30 15347 H 1459.3 7.54668 -0.448494 0
M  V30 15348 H 1460.57 7.76157 0.7211 0
M  V30 15349 N 1464.8 0.627364 1.44575 0
M  V30 15350 C 1466.04 0.130352 2.0208 0
M  V30 15351 C 1466.37 -1.24642 1.49314 0
M  V30 15352 O 1465.63 -1.84022 0.665923 0
M  V30 15353 C 1465.93 0.0622409 3.57346 0
M  V30 15354 C 1465.59 1.37729 4.2935 0
M  V30 15355 C 1464.25 1.73747 4.48737 0
M  V30 15356 C 1466.61 2.2455 4.70347 0
M  V30 15357 C 1463.93 2.96301 5.06382 0
M  V30 15358 C 1466.29 3.46371 5.29349 0
M  V30 15359 C 1464.95 3.82616 5.46956 0
M  V30 15360 H 1464.22 0.0476991 0.739463 0
M  V30 15361 H 1466.87 0.812928 1.73389 0
M  V30 15362 H 1465.17 -0.70369 3.85429 0
M  V30 15363 H 1466.87 -0.338778 3.99566 0
M  V30 15364 H 1463.46 1.08699 4.14587 0
M  V30 15365 H 1467.64 1.98019 4.55085 0
M  V30 15366 H 1462.9 3.24465 5.18201 0
M  V30 15367 H 1467.07 4.13882 5.60067 0
M  V30 15368 H 1464.7 4.77663 5.9139 0
M  V30 15369 N 1466.28 -1.53251 0.367684 0
M  V30 15370 C 1467.23 -2.22578 -0.494287 0
M  V30 15371 C 1468.21 -1.22175 -1.047 0
M  V30 15372 O 1469.4 -1.47613 -0.976696 0
M  V30 15373 C 1466.53 -3.02007 -1.63238 0
M  V30 15374 C 1465.62 -4.09788 -1.09244 0
M  V30 15375 N 1466.01 -5.05048 -0.275665 0
M  V30 15376 C 1464.31 -4.24532 -1.36705 0
M  V30 15377 C 1465.01 -5.81696 0.0201973 0
M  V30 15378 N 1463.98 -5.40518 -0.577991 0
M  V30 15379 H 1467.78 -2.93583 0.136532 0
M  V30 15380 H 1465.3 -1.61446 0.175813 0
M  V30 15381 H 1467.3 -3.50193 -2.26209 0
M  V30 15382 H 1465.96 -2.32533 -2.26624 0
M  V30 15383 H 1466.97 -5.1783 0.0853053 0
M  V30 15384 H 1463.64 -3.66285 -2.00354 0
M  V30 15385 H 1465.03 -6.68444 0.680622 0
M  V30 15386 N 1467.75 -0.0969077 -1.57302 0
M  V30 15387 C 1469 0.566373 -1.94418 0
M  V30 15388 C 1469.33 1.68078 -0.978769 0
M  V30 15389 O 1468.58 1.957 0.0013214 0
M  V30 15390 C 1468.88 1.15972 -3.38061 0
M  V30 15391 C 1468.55 0.16892 -4.50583 0
M  V30 15392 C 1467.21 -0.103587 -4.81088 0
M  V30 15393 C 1469.56 -0.507513 -5.18723 0
M  V30 15394 C 1466.89 -1.05919 -5.7706 0
M  V30 15395 C 1469.24 -1.4516 -6.1572 0
M  V30 15396 C 1467.91 -1.73232 -6.44629 0
M  V30 15397 H 1467.18 0.207251 -0.711427 0
M  V30 15398 H 1469.82 -0.173125 -1.90716 0
M  V30 15399 H 1468.13 1.97551 -3.3835 0
M  V30 15400 H 1469.83 1.68066 -3.64081 0
M  V30 15401 H 1466.42 0.391501 -4.26808 0
M  V30 15402 H 1470.6 -0.310127 -4.9533 0
M  V30 15403 H 1465.86 -1.28366 -5.97773 0
M  V30 15404 H 1470.03 -1.98155 -6.67613 0
M  V30 15405 H 1467.66 -2.47436 -7.18804 0
M  V30 15406 N 1469.23 1.56605 0.176793 0
M  V30 15407 C 1470.16 1.99014 1.2213 0
M  V30 15408 C 1471.14 0.86487 1.46472 0
M  V30 15409 O 1472.33 1.13055 1.57899 0
M  V30 15410 C 1469.46 2.34534 2.56146 0
M  V30 15411 C 1468.41 3.4997 2.46384 0
M  V30 15412 C 1467.74 3.71217 3.8484 0
M  V30 15413 C 1469.04 4.83592 1.97323 0
M  V30 15414 H 1470.73 2.86517 0.8688 0
M  V30 15415 H 1468.28 1.37846 0.416481 0
M  V30 15416 H 1470.23 2.62799 3.29416 0
M  V30 15417 H 1468.95 1.43933 2.93174 0
M  V30 15418 H 1467.61 3.21824 1.75569 0
M  V30 15419 H 1467.26 2.77916 4.19251 0
M  V30 15420 H 1466.96 4.48885 3.79178 0
M  V30 15421 H 1468.49 4.01877 4.59704 0
M  V30 15422 H 1469.9 5.10768 2.60363 0
M  V30 15423 H 1468.3 5.64858 2.02622 0
M  V30 15424 H 1469.37 4.75951 0.927275 0
M  V30 15425 N 1470.71 -0.445159 1.51182 0
M  V30 15426 C 1472.13 -0.781023 1.39184 0
M  V30 15427 C 1472.33 -1.95988 0.468076 0
M  V30 15428 O 1471.38 -2.52374 -0.0796822 0
M  V30 15429 C 1472.69 -1.06874 2.81067 0
M  V30 15430 C 1474.24 -1.17364 2.90163 0
M  V30 15431 C 1474.72 -1.49433 4.32936 0
M  V30 15432 N 1476.21 -1.56373 4.36006 0
M  V30 15433 C 1476.94 -1.82743 5.435 0
M  V30 15434 N 1476.44 -2.06958 6.61166 0
M  V30 15435 N 1478.23 -1.84461 5.30971 0
M  V30 15436 H 1470.38 0.331347 2.098 0
M  V30 15437 H 1472.65 0.0858102 0.944108 0
M  V30 15438 H 1472.35 -0.275306 3.50621 0
M  V30 15439 H 1472.23 -1.99839 3.19913 0
M  V30 15440 H 1474.61 -1.95771 2.20812 0
M  V30 15441 H 1474.69 -0.22318 2.54825 0
M  V30 15442 H 1474.34 -0.715573 5.02834 0
M  V30 15443 H 1474.27 -2.45673 4.65782 0
M  V30 15444 H 1476.76 -1.39595 3.51172 0
M  V30 15445 H 1477.07 -2.26427 7.38885 0
M  V30 15446 H 1475.42 -2.04297 6.64295 0
M  V30 15447 H 1478.61 -1.65057 4.38034 0
M  V30 15448 H 1478.78 -2.04675 6.14827 0
M  V30 15449 N 1472.19 -1.41197 -0.700089 0
M  V30 15450 C 1473.43 -1.40519 -1.46227 0
M  V30 15451 C 1473.77 -0.0126108 -1.94196 0
M  V30 15452 O 1473.04 0.958837 -1.69223 0
M  V30 15453 C 1473.32 -2.40808 -2.67738 0
M  V30 15454 C 1473.18 -3.89154 -2.25563 0
M  V30 15455 C 1474.5 -2.38415 -3.69927 0
M  V30 15456 H 1471.62 -0.511724 -0.530384 0
M  V30 15457 H 1474.26 -1.72441 -0.797754 0
M  V30 15458 H 1472.41 -2.13717 -3.24434 0
M  V30 15459 H 1474.08 -4.27132 -1.74229 0
M  V30 15460 H 1472.32 -4.04239 -1.57395 0
M  V30 15461 H 1472.99 -4.54866 -3.12731 0
M  V30 15462 H 1475.47 -2.62447 -3.22895 0
M  V30 15463 H 1474.35 -3.10609 -4.52563 0
M  V30 15464 H 1474.61 -1.40116 -4.19309 0
M  V30 15465 N 1473.67 0.933891 -1.2695 0
M  V30 15466 C 1474.9 1.71263 -1.15553 0
M  V30 15467 C 1475.3 1.86948 0.291059 0
M  V30 15468 O 1474.65 1.38173 1.21053 0
M  V30 15469 C 1474.71 3.13479 -1.75986 0
M  V30 15470 C 1474.37 3.21154 -3.2513 0
M  V30 15471 C 1475.37 3.03874 -4.21849 0
M  V30 15472 C 1473.05 3.44311 -3.65726 0
M  V30 15473 C 1475.05 3.09631 -5.57142 0
M  V30 15474 C 1472.74 3.49702 -5.01151 0
M  V30 15475 C 1473.73 3.32379 -5.96668 0
M  V30 15476 O 1473.42 3.37493 -7.29626 0
M  V30 15477 H 1473.15 0.542801 -0.402918 0
M  V30 15478 H 1475.71 1.17877 -1.68209 0
M  V30 15479 H 1473.94 3.6832 -1.178 0
M  V30 15480 H 1475.63 3.73295 -1.59391 0
M  V30 15481 H 1476.39 2.85832 -3.91823 0
M  V30 15482 H 1472.27 3.56847 -2.91859 0
M  V30 15483 H 1475.82 2.96028 -6.31675 0
M  V30 15484 H 1471.71 3.67267 -5.30835 0
M  V30 15485 H 1472.48 3.53988 -7.37994 0
M  V30 15486 N 1475.14 1.08871 1.13951 0
M  V30 15487 C 1476.09 0.71755 2.21255 0
M  V30 15488 C 1477.09 -0.278901 1.67088 0
M  V30 15489 O 1478.29 -0.140964 1.79447 0
M  V30 15490 H 1474.67 0.214032 0.720898 0
M  V30 15491 H 1476.64 1.63182 2.49828 0
M  V30 15492 C 1475.39 0.148098 3.47384 0
M  V30 15493 H 1474.71 0.906028 3.89398 0
M  V30 15494 H 1476.15 -0.0737451 4.23936 0
M  V30 15495 C 1474.61 -1.11524 3.17906 0
M  V30 15496 O 1475.14 -2.19937 3.3614 0
M  V30 15497 N 1473.34 -1.0275 2.71829 0
M  V30 15498 H 1472.89 -0.145193 2.5719 0
M  V30 15499 H 1472.85 -1.87353 2.5248 0
M  V30 15500 N 1476.62 -1.31073 0.875073 0
M  V30 15501 C 1477.55 -2.27335 0.291809 0
M  V30 15502 C 1478.57 -1.53298 -0.548036 0
M  V30 15503 O 1479.76 -1.7464 -0.369198 0
M  V30 15504 C 1476.86 -3.33465 -0.604521 0
M  V30 15505 C 1476.03 -4.36924 0.204029 0
M  V30 15506 C 1475.09 -5.2252 -0.621238 0
M  V30 15507 O 1474.11 -5.6918 -0.0474551 0
M  V30 15508 N 1475.32 -5.47397 -1.93227 0
M  V30 15509 H 1478.08 -2.78024 1.11906 0
M  V30 15510 H 1475.64 -1.44149 0.737064 0
M  V30 15511 H 1477.63 -3.87646 -1.16243 0
M  V30 15512 H 1476.2 -2.8278 -1.33244 0
M  V30 15513 H 1475.42 -3.82745 0.943389 0
M  V30 15514 H 1476.71 -5.03112 0.758644 0
M  V30 15515 H 1476.11 -5.11253 -2.4215 0
M  V30 15516 H 1474.67 -6.04493 -2.43785 0
M  V30 15517 N 1478.1 -0.635022 -1.4424 0
M  V30 15518 C 1479.03 0.0543561 -2.33437 0
M  V30 15519 C 1480.01 0.830807 -1.48431 0
M  V30 15520 O 1481.2 0.795913 -1.77141 0
M  V30 15521 C 1478.33 1.03391 -3.31553 0
M  V30 15522 C 1477.28 0.368824 -4.26408 0
M  V30 15523 C 1476.61 1.45855 -5.14422 0
M  V30 15524 C 1477.91 -0.727381 -5.1721 0
M  V30 15525 H 1479.6 -0.690489 -2.91329 0
M  V30 15526 H 1477.15 -0.3335 -1.40085 0
M  V30 15527 H 1479.1 1.52495 -3.9284 0
M  V30 15528 H 1477.82 1.80969 -2.71878 0
M  V30 15529 H 1476.48 -0.101605 -3.66459 0
M  V30 15530 H 1476.13 2.22531 -4.51098 0
M  V30 15531 H 1475.83 1.0189 -5.78699 0
M  V30 15532 H 1477.35 1.95132 -5.78581 0
M  V30 15533 H 1478.77 -0.319272 -5.7241 0
M  V30 15534 H 1477.17 -1.09041 -5.9011 0
M  V30 15535 H 1478.24 -1.59292 -4.57989 0
M  V30 15536 N 1479.58 1.53054 -0.375806 0
M  V30 15537 C 1480.99 1.5958 -0.0251765 0
M  V30 15538 C 1481.19 1.39047 1.45836 0
M  V30 15539 O 1480.25 1.20073 2.22123 0
M  V30 15540 C 1481.56 2.96676 -0.490274 0
M  V30 15541 C 1483.11 3.09815 -0.44537 0
M  V30 15542 C 1483.59 4.4934 -0.886442 0
M  V30 15543 N 1485.08 4.55484 -0.84191 0
M  V30 15544 C 1485.81 5.61652 -1.15476 0
M  V30 15545 N 1485.31 6.75526 -1.53741 0
M  V30 15546 N 1487.1 5.51688 -1.07689 0
M  V30 15547 H 1479.25 1.64651 -1.34178 0
M  V30 15548 H 1481.52 0.77278 -0.549104 0
M  V30 15549 H 1481.22 3.16874 -1.52589 0
M  V30 15550 H 1481.1 3.77016 0.11776 0
M  V30 15551 H 1483.48 2.89321 0.581138 0
M  V30 15552 H 1483.56 2.3146 -1.08903 0
M  V30 15553 H 1483.21 4.70573 -1.91111 0
M  V30 15554 H 1483.14 5.26141 -0.219925 0
M  V30 15555 H 1485.63 3.73725 -0.56015 0
M  V30 15556 H 1485.94 7.52489 -1.76012 0
M  V30 15557 H 1484.29 6.76892 -1.57616 0
M  V30 15558 H 1487.48 4.61605 -0.777062 0
M  V30 15559 H 1487.65 6.34329 -1.32403 0
M  V30 15560 N 1481.06 0.105248 1.57248 0
M  V30 15561 C 1482.02 -0.835589 2.13426 0
M  V30 15562 C 1483.02 -1.20398 1.06587 0
M  V30 15563 O 1484.21 -1.13175 1.32428 0
M  V30 15564 C 1481.34 -2.12806 2.6632 0
M  V30 15565 H 1482.53 -0.347606 2.97879 0
M  V30 15566 H 1480.09 -0.143855 1.55637 0
M  V30 15567 H 1480.82 -2.66066 1.85416 0
M  V30 15568 H 1480.61 -1.87352 3.44444 0
M  V30 15569 H 1482.1 -2.80089 3.09741 0
M  V30 15570 N 1482.53 -1.56697 -0.168486 0
M  V30 15571 C 1483.76 -1.86652 -0.904195 0
M  V30 15572 C 1484.18 -0.691906 -1.74912 0
M  V30 15573 O 1483.54 0.358971 -1.77711 0
M  V30 15574 C 1483.59 -3.15043 -1.75442 0
M  V30 15575 O 1482.69 -2.97466 -2.85636 0
M  V30 15576 H 1482.04 -0.613859 -0.253128 0
M  V30 15577 H 1484.57 -2.03927 -0.165773 0
M  V30 15578 H 1484.58 -3.4652 -2.15378 0
M  V30 15579 H 1483.25 -4.00147 -1.13381 0
M  V30 15580 H 1481.83 -2.7735 -2.49262 0
M  V30 15581 N 1484.01 0.437135 -1.51416 0
M  V30 15582 C 1484.94 1.538 -1.75692 0
M  V30 15583 C 1485.92 1.5891 -0.606759 0
M  V30 15584 O 1487.11 1.74635 -0.849492 0
M  V30 15585 C 1484.24 2.91877 -1.88215 0
M  V30 15586 C 1483.19 3.01628 -3.03652 0
M  V30 15587 C 1482.52 4.41687 -3.01358 0
M  V30 15588 C 1483.82 2.75691 -4.43612 0
M  V30 15589 H 1485.51 1.33737 -2.67871 0
M  V30 15590 H 1483.06 0.641936 -1.289 0
M  V30 15591 H 1485.01 3.68851 -2.03781 0
M  V30 15592 H 1483.74 3.13173 -0.926847 0
M  V30 15593 H 1482.39 2.27094 -2.87791 0
M  V30 15594 H 1482.04 4.5995 -2.03605 0
M  V30 15595 H 1481.74 4.49141 -3.78875 0
M  V30 15596 H 1483.27 5.20634 -3.19018 0
M  V30 15597 H 1484.68 3.42398 -4.59822 0
M  V30 15598 H 1483.08 2.94554 -5.22836 0
M  V30 15599 H 1484.15 1.71297 -4.53636 0
M  V30 15600 N 1485.49 1.41566 0.692592 0
M  V30 15601 C 1486.42 1.39582 1.81795 0
M  V30 15602 C 1487.44 0.29754 1.60058 0
M  V30 15603 O 1488.62 0.559463 1.69506 0
M  V30 15604 C 1485.72 1.15506 3.18609 0
M  V30 15605 C 1484.9 2.37432 3.67349 0
M  V30 15606 C 1483.96 2.09168 4.82841 0
M  V30 15607 O 1482.98 2.8223 4.94303 0
M  V30 15608 N 1484.18 1.08377 5.70294 0
M  V30 15609 H 1486.95 2.36577 1.83988 0
M  V30 15610 H 1484.51 1.36216 0.875026 0
M  V30 15611 H 1486.5 0.945452 3.93501 0
M  V30 15612 H 1485.07 0.270987 3.11423 0
M  V30 15613 H 1484.29 2.74076 2.8333 0
M  V30 15614 H 1485.58 3.18661 3.96652 0
M  V30 15615 H 1484.98 0.479122 5.63667 0
M  V30 15616 H 1483.54 0.934042 6.45073 0
M  V30 15617 N 1486.97 -0.927146 1.27443 0
M  V30 15618 C 1488.25 -1.65322 1.04538 0
M  V30 15619 C 1488.63 -2.06886 -0.419694 0
M  V30 15620 O 1487.97 -1.80352 -1.40304 0
M  V30 15621 C 1488.18 -2.85486 2.00746 0
M  V30 15622 C 1489.53 -3.56816 2.30147 0
M  V30 15623 O 1490.56 -2.95613 1.98724 0
M  V30 15624 O 1489.41 -4.67085 2.83714 0
M  V30 15625 H 1486.51 -0.724627 0.398554 0
M  V30 15626 H 1489.05 -0.977633 1.3871 0
M  V30 15627 H 1487.83 -2.51766 2.99549 0
M  V30 15628 H 1487.45 -3.60763 1.67139 0
M  V30 15629 N 1488.45 -1.09474 -1.13372 0
M  V30 15630 C 1489.38 -0.756441 -2.20908 0
M  V30 15631 C 1490.36 0.266113 -1.68006 0
M  V30 15632 O 1491.54 0.134067 -1.93737 0
M  V30 15633 C 1488.67 -0.176733 -3.4685 0
M  V30 15634 C 1487.63 -1.12886 -4.12845 0
M  V30 15635 C 1486.95 -0.410831 -5.33119 0
M  V30 15636 C 1488.25 -2.47148 -4.60125 0
M  V30 15637 H 1489.95 -1.65555 -2.49463 0
M  V30 15638 H 1487.49 -0.797458 -1.19902 0
M  V30 15639 H 1489.45 0.0720151 -4.21338 0
M  V30 15640 H 1488.17 0.757576 -3.17692 0
M  V30 15641 H 1486.83 -1.36289 -3.40325 0
M  V30 15642 H 1486.48 0.527632 -5.00225 0
M  V30 15643 H 1486.18 -1.04567 -5.78221 0
M  V30 15644 H 1487.7 -0.170394 -6.10362 0
M  V30 15645 H 1489.11 -2.27949 -5.26034 0
M  V30 15646 H 1487.51 -3.06425 -5.15969 0
M  V30 15647 H 1488.58 -3.07874 -3.74622 0
M  V30 15648 N 1489.92 1.30607 -0.882012 0
M  V30 15649 C 1490.87 2.2821 -0.344826 0
M  V30 15650 C 1491.84 1.56254 0.563361 0
M  V30 15651 O 1493.03 1.84336 0.492416 0
M  V30 15652 C 1490.17 3.42319 0.437216 0
M  V30 15653 C 1489.28 4.29098 -0.499851 0
M  V30 15654 C 1488.41 5.30366 0.297497 0
M  V30 15655 C 1487.45 6.08795 -0.63523 0
M  V30 15656 N 1486.59 7.01986 0.12661 0
M  V30 15657 H 1491.43 2.73543 -1.18229 0
M  V30 15658 H 1488.97 1.34556 -0.594392 0
M  V30 15659 H 1490.93 4.07232 0.906521 0
M  V30 15660 H 1489.56 2.98063 1.23928 0
M  V30 15661 H 1488.61 3.6452 -1.08764 0
M  V30 15662 H 1489.92 4.83787 -1.21454 0
M  V30 15663 H 1489.07 6.01013 0.828786 0
M  V30 15664 H 1487.81 4.76364 1.04542 0
M  V30 15665 H 1486.82 5.37028 -1.17817 0
M  V30 15666 H 1488.04 6.64885 -1.3822 0
M  V30 15667 H 1485.99 6.50376 0.857125 0
M  V30 15668 H 1485.91 7.5415 -0.528512 0
M  V30 15669 H 1487.17 7.76879 0.638738 0
M  V30 15670 N 1491.4 0.642663 1.43901 0
M  V30 15671 C 1492.63 0.159202 2.06287 0
M  V30 15672 C 1493.05 -1.17091 1.48105 0
M  V30 15673 O 1492.4 -1.72064 0.608302 0
M  V30 15674 C 1492.45 0.0506891 3.61464 0
M  V30 15675 O 1492.17 1.32821 4.17481 0
M  V30 15676 C 1493.68 -0.460103 4.40906 0
M  V30 15677 H 1490.9 0.085003 0.665594 0
M  V30 15678 H 1493.44 0.880328 1.84582 0
M  V30 15679 H 1491.59 -0.620938 3.82391 0
M  V30 15680 H 1492.01 1.18053 5.11042 0
M  V30 15681 H 1493.48 -0.48501 5.49865 0
M  V30 15682 H 1493.96 -1.4894 4.13175 0
M  V30 15683 H 1494.57 0.178668 4.24925 0
M  V30 15684 N 1492.88 -1.52852 0.383918 0
M  V30 15685 C 1494.13 -2.01809 -0.200285 0
M  V30 15686 C 1494.46 -1.27009 -1.46909 0
M  V30 15687 O 1493.74 -0.369002 -1.90968 0
M  V30 15688 C 1494.02 -3.56971 -0.473672 0
M  V30 15689 C 1493.87 -4.42446 0.810048 0
M  V30 15690 C 1495.19 -4.21481 -1.26658 0
M  V30 15691 H 1492.31 -0.733541 -0.0713192 0
M  V30 15692 H 1494.95 -1.8296 0.512425 0
M  V30 15693 H 1493.1 -3.73163 -1.08081 0
M  V30 15694 H 1494.77 -4.38016 1.44706 0
M  V30 15695 H 1493.02 -4.09674 1.42652 0
M  V30 15696 H 1493.69 -5.49013 0.573478 0
M  V30 15697 H 1496.16 -4.09233 -0.752806 0
M  V30 15698 H 1495.04 -5.30037 -1.42661 0
M  V30 15699 H 1495.3 -3.78756 -2.28028 0
M  V30 15700 N 1494.36 -0.113586 -1.5719 0
M  V30 15701 C 1495.61 0.546529 -1.95297 0
M  V30 15702 C 1495.94 1.66674 -0.996671 0
M  V30 15703 O 1495.21 1.94472 -0.0329298 0
M  V30 15704 C 1495.5 1.08433 -3.43387 0
M  V30 15705 C 1495.35 -0.0320929 -4.49789 0
M  V30 15706 C 1496.67 1.97691 -3.932 0
M  V30 15707 H 1493.79 0.197195 -0.710129 0
M  V30 15708 H 1496.43 -0.188048 -1.89067 0
M  V30 15709 H 1494.58 1.71033 -3.48827 0
M  V30 15710 H 1496.25 -0.66716 -4.5645 0
M  V30 15711 H 1494.49 -0.695983 -4.2818 0
M  V30 15712 H 1495.17 0.385341 -5.50653 0
M  V30 15713 H 1497.64 1.4497 -3.90029 0
M  V30 15714 H 1496.52 2.3224 -4.97349 0
M  V30 15715 H 1496.78 2.90137 -3.33576 0
M  V30 15716 N 1495.84 1.56784 0.160173 0
M  V30 15717 C 1497.09 1.81812 0.873344 0
M  V30 15718 C 1497.4 0.692686 1.82924 0
M  V30 15719 O 1498.61 0.828202 2.5856 0
M  V30 15720 C 1497.06 3.222 1.6036 0
M  V30 15721 C 1496.67 4.42642 0.690776 0
M  V30 15722 C 1498.41 3.56512 2.30433 0
M  V30 15723 C 1496.32 5.74052 1.4219 0
M  V30 15724 H 1495.25 0.678013 0.32987 0
M  V30 15725 H 1497.9 1.83066 0.126164 0
M  V30 15726 H 1496.28 3.15295 2.39593 0
M  V30 15727 H 1497.46 4.60754 -0.0653914 0
M  V30 15728 H 1495.77 4.16282 0.09913 0
M  V30 15729 H 1498.37 4.51942 2.85749 0
M  V30 15730 H 1498.71 2.8193 3.06303 0
M  V30 15731 H 1499.25 3.65019 1.58132 0
M  V30 15732 H 1495.98 6.51694 0.705318 0
M  V30 15733 H 1495.5 5.59899 2.15111 0
M  V30 15734 H 1497.18 6.16395 1.96639 0
M  V30 15735 N 1497.32 -0.429099 1.51646 0
M  V30 15736 C 1498.28 -1.50398 1.72954 0
M  V30 15737 C 1499.28 -1.49207 0.599491 0
M  V30 15738 O 1500.47 -1.51084 0.867143 0
M  V30 15739 C 1497.6 -2.89903 1.79358 0
M  V30 15740 H 1498.79 -1.32805 2.68892 0
M  V30 15741 H 1496.35 -0.658313 1.4176 0
M  V30 15742 H 1497.08 -3.12891 0.852639 0
M  V30 15743 H 1496.87 -2.92171 2.61492 0
M  V30 15744 H 1498.36 -3.67862 1.97654 0
M  V30 15745 N 1498.79 -1.41931 -0.685074 0
M  V30 15746 C 1499.74 -1.44604 -1.79884 0
M  V30 15747 C 1500.71 -0.299166 -1.63384 0
M  V30 15748 O 1501.9 -0.501749 -1.84085 0
M  V30 15749 C 1499.04 -1.3442 -3.17845 0
M  V30 15750 C 1498.15 -2.59061 -3.45704 0
M  V30 15751 C 1497.28 -2.41094 -4.73336 0
M  V30 15752 C 1496.32 -3.61159 -4.94197 0
M  V30 15753 N 1495.46 -3.42198 -6.13062 0
M  V30 15754 H 1500.3 -2.39788 -1.76934 0
M  V30 15755 H 1497.84 -1.1906 -0.863891 0
M  V30 15756 H 1499.79 -1.26515 -3.97555 0
M  V30 15757 H 1498.42 -0.42838 -3.19945 0
M  V30 15758 H 1497.48 -2.77374 -2.60322 0
M  V30 15759 H 1498.79 -3.48341 -3.57016 0
M  V30 15760 H 1497.94 -2.30717 -5.61119 0
M  V30 15761 H 1496.68 -1.49288 -4.64289 0
M  V30 15762 H 1495.69 -3.7198 -4.04859 0
M  V30 15763 H 1496.91 -4.53933 -5.05096 0
M  V30 15764 H 1494.86 -2.531 -6.05208 0
M  V30 15765 H 1494.77 -4.25059 -6.25189 0
M  V30 15766 H 1496.04 -3.35612 -7.03551 0
M  V30 15767 N 1500.27 0.920374 -1.27933 0
M  V30 15768 C 1501.5 1.70275 -1.17533 0
M  V30 15769 C 1501.91 1.86904 0.266903 0
M  V30 15770 O 1501.27 1.39131 1.18105 0
M  V30 15771 C 1501.32 3.09847 -1.86219 0
M  V30 15772 O 1501.04 2.93992 -3.24808 0
M  V30 15773 C 1502.54 4.042 -1.82037 0
M  V30 15774 H 1499.76 0.53248 -0.408297 0
M  V30 15775 H 1502.31 1.1524 -1.68938 0
M  V30 15776 H 1500.46 3.61719 -1.38701 0
M  V30 15777 H 1500.88 3.82281 -3.59112 0
M  V30 15778 H 1502.35 4.99621 -2.34697 0
M  V30 15779 H 1502.83 4.32013 -0.791295 0
M  V30 15780 H 1503.43 3.58254 -2.29203 0
M  V30 15781 N 1501.75 1.10074 1.1279 0
M  V30 15782 C 1503.16 0.859181 1.65756 0
M  V30 15783 C 1503.51 -0.611193 1.86437 0
M  V30 15784 O 1502.64 -1.46997 1.58811 0
M  V30 15785 C 1503.23 1.55312 3.01104 0
M  V30 15786 C 1501.79 1.35836 3.51035 0
M  V30 15787 C 1500.94 1.60491 2.26137 0
M  V30 15788 H 1503.89 1.25897 0.966211 0
M  V30 15789 H 1503.91 0.990001 3.67395 0
M  V30 15790 H 1503.42 2.62325 2.8602 0
M  V30 15791 H 1501.52 0.309694 3.71311 0
M  V30 15792 H 1501.64 2.09777 4.30732 0
M  V30 15793 H 1500 1.02742 2.33058 0
M  V30 15794 H 1500.78 2.68748 2.1361 0
M  V30 15795 N 1503.23 -1.30138 0.888926 0
M  V30 15796 C 1504.48 -1.95602 0.508359 0
M  V30 15797 C 1504.8 -1.70495 -0.946377 0
M  V30 15798 O 1504.07 -1.03073 -1.66592 0
M  V30 15799 H 1502.65 -0.723728 0.185006 0
M  V30 15800 H 1505.31 -1.58594 1.13286 0
M  V30 15801 H 1504.4 -3.04559 0.681915 0
M  V30 15802 N 1504.71 -0.650285 -1.43559 0
M  V30 15803 C 1505.93 -0.170139 -2.06199 0
M  V30 15804 C 1506.35 1.16304 -1.48724 0
M  V30 15805 O 1505.71 1.71739 -0.617418 0
M  V30 15806 C 1505.76 -0.0698577 -3.61432 0
M  V30 15807 O 1505.48 -1.35033 -4.16771 0
M  V30 15808 C 1506.98 0.436714 -4.41144 0
M  V30 15809 H 1504.2 -0.0885316 -0.665134 0
M  V30 15810 H 1506.74 -0.890104 -1.84112 0
M  V30 15811 H 1504.9 0.60065 -3.82715 0
M  V30 15812 H 1505.31 -1.20762 -5.10409 0
M  V30 15813 H 1506.79 0.455843 -5.50115 0
M  V30 15814 H 1507.26 1.46747 -4.13959 0
M  V30 15815 H 1507.87 -0.201201 -4.24824 0
M  V30 15816 N 1506.18 1.52647 -0.392018 0
M  V30 15817 C 1507.43 2.01215 0.188926 0
M  V30 15818 C 1507.75 1.28019 1.47092 0
M  V30 15819 O 1507.02 0.401048 1.91751 0
M  V30 15820 H 1505.6 0.743444 0.0728049 0
M  V30 15821 H 1508.26 1.87715 -0.524332 0
M  V30 15822 H 1507.36 3.09562 0.397216 0
M  V30 15823 N 1507.66 0.121921 1.57128 0
M  V30 15824 C 1508.91 -0.534313 1.94909 0
M  V30 15825 C 1509.23 -1.67029 1.0063 0
M  V30 15826 O 1508.5 -1.95798 0.0631366 0
M  V30 15827 H 1507.08 -0.200372 0.719625 0
M  V30 15828 H 1509.74 0.191546 1.93956 0
M  V30 15829 H 1508.84 -0.926974 2.98016 0
M  V30 15830 N 1509.14 -1.56867 -0.151857 0
M  V30 15831 C 1510.37 -1.87601 -0.884347 0
M  V30 15832 C 1510.79 -0.710419 -1.74168 0
M  V30 15833 O 1510.15 0.340103 -1.78081 0
M  V30 15834 C 1510.2 -3.16887 -1.72091 0
M  V30 15835 O 1509.3 -3.00479 -2.82464 0
M  V30 15836 H 1508.64 -0.616509 -0.246603 0
M  V30 15837 H 1511.17 -2.04092 -0.144135 0
M  V30 15838 H 1511.18 -3.48785 -2.11691 0
M  V30 15839 H 1509.86 -4.01327 -1.09131 0
M  V30 15840 H 1508.43 -2.79978 -2.46306 0
M  V30 15841 N 1510.62 0.421051 -1.51871 0
M  V30 15842 C 1512.03 1.00033 -1.5764 0
M  V30 15843 C 1512.38 1.91875 -0.409665 0
M  V30 15844 O 1511.51 2.11201 0.471516 0
M  V30 15845 C 1512.1 1.82099 -2.85701 0
M  V30 15846 C 1510.66 2.35049 -2.93988 0
M  V30 15847 C 1509.81 1.14703 -2.52465 0
M  V30 15848 H 1512.76 0.201715 -1.57413 0
M  V30 15849 H 1512.78 2.67719 -2.70382 0
M  V30 15850 H 1512.29 1.15229 -3.706 0
M  V30 15851 H 1510.39 3.05327 -2.13556 0
M  V30 15852 H 1510.5 2.66731 -3.97984 0
M  V30 15853 H 1508.87 1.49736 -2.06037 0
M  V30 15854 H 1509.65 0.494171 -3.39725 0
M  V30 15855 N 1512.1 1.42293 0.677538 0
M  V30 15856 C 1513.03 1.41503 1.80304 0
M  V30 15857 C 1514.04 0.314499 1.59733 0
M  V30 15858 O 1515.23 0.57741 1.68903 0
M  V30 15859 C 1512.33 1.18879 3.17366 0
M  V30 15860 C 1511.5 2.41314 3.6481 0
M  V30 15861 C 1510.56 2.14277 4.80595 0
M  V30 15862 O 1509.59 2.87457 4.91281 0
M  V30 15863 N 1510.79 1.14419 5.69112 0
M  V30 15864 H 1513.56 2.38515 1.81468 0
M  V30 15865 H 1511.12 1.37137 0.860529 0
M  V30 15866 H 1513.11 0.987135 3.92476 0
M  V30 15867 H 1511.68 0.304002 3.11118 0
M  V30 15868 H 1510.9 2.77066 2.80407 0
M  V30 15869 H 1512.19 3.2285 3.9325 0
M  V30 15870 H 1511.58 0.53888 5.63127 0
M  V30 15871 H 1510.14 1.00241 6.44046 0
M  V30 15872 N 1513.57 -0.913576 1.28419 0
M  V30 15873 C 1514.82 -1.65944 1.15355 0
M  V30 15874 C 1515.14 -1.92706 -0.298228 0
M  V30 15875 O 1514.41 -1.54333 -1.20657 0
M  V30 15876 H 1512.99 -0.615063 0.423919 0
M  V30 15877 H 1515.66 -1.0962 1.6115 0
M  V30 15878 H 1514.75 -2.62173 1.69327 0
M  V30 15879 N 1515.05 -1.1067 -1.12204 0
M  V30 15880 C 1516.28 -0.873095 -1.88127 0
M  V30 15881 C 1516.7 0.571099 -1.79221 0
M  V30 15882 O 1516.06 1.40251 -1.14888 0
M  V30 15883 C 1516.11 -1.32922 -3.35208 0
M  V30 15884 O 1515.21 -0.495807 -4.09409 0
M  V30 15885 H 1514.55 -0.315138 -0.584452 0
M  V30 15886 H 1517.08 -1.47413 -1.41882 0
M  V30 15887 H 1517.09 -1.32023 -3.86049 0
M  V30 15888 H 1515.77 -2.38091 -3.41007 0
M  V30 15889 H 1514.35 -0.570216 -3.68515 0
M  V30 15890 N 1516.53 1.29665 -0.895815 0
M  V30 15891 C 1517.78 1.95716 -0.519752 0
M  V30 15892 C 1518.11 1.7065 0.933212 0
M  V30 15893 O 1517.36 1.01014 1.67615 0
M  V30 15894 C 1517.66 3.49355 -0.754025 0
M  V30 15895 C 1517.33 3.94491 -2.18375 0
M  V30 15896 C 1515.99 4.06526 -2.57468 0
M  V30 15897 C 1518.34 4.17874 -3.11498 0
M  V30 15898 C 1515.67 4.39311 -3.88874 0
M  V30 15899 C 1518.02 4.52132 -4.42447 0
M  V30 15900 C 1516.68 4.62376 -4.81419 0
M  V30 15901 H 1515.95 0.716176 -0.190191 0
M  V30 15902 H 1518.6 1.54333 -1.13373 0
M  V30 15903 H 1516.91 3.91758 -0.0570932 0
M  V30 15904 H 1518.6 3.98551 -0.442493 0
M  V30 15905 H 1515.19 3.85638 -1.87033 0
M  V30 15906 H 1519.38 4.08046 -2.8251 0
M  V30 15907 H 1514.63 4.45444 -4.18795 0
M  V30 15908 H 1518.81 4.69175 -5.14634 0
M  V30 15909 H 1516.43 4.87535 -5.83278 0
M  V30 15910 N 1518.01 0.657889 1.43212 0
M  V30 15911 C 1518.97 -0.0214783 2.2919 0
M  V30 15912 C 1519.97 -0.745921 1.42452 0
M  V30 15913 O 1521.16 -0.586468 1.64031 0
M  V30 15914 C 1518.29 -1.04115 3.24612 0
M  V30 15915 H 1519.49 0.735072 2.90752 0
M  V30 15916 H 1517.04 0.419354 1.50569 0
M  V30 15917 H 1517.77 -1.82677 2.67954 0
M  V30 15918 H 1517.56 -0.525285 3.88566 0
M  V30 15919 H 1519.05 -1.51544 3.89132 0
M  V30 15920 N 1519.49 -1.52437 0.400108 0
M  V30 15921 C 1520.76 -1.94162 -0.23671 0
M  V30 15922 C 1521.14 -1.33636 -1.63416 0
M  V30 15923 O 1520.49 -0.508643 -2.22767 0
M  V30 15924 C 1520.7 -3.48088 -0.252159 0
M  V30 15925 C 1522.05 -4.21925 -0.475887 0
M  V30 15926 O 1523.07 -3.5465 -0.331905 0
M  V30 15927 O 1521.93 -5.41205 -0.758895 0
M  V30 15928 H 1519.03 -0.813294 -0.14994 0
M  V30 15929 H 1521.57 -1.63475 0.455399 0
M  V30 15930 H 1520.34 -3.84501 0.726263 0
M  V30 15931 H 1519.97 -3.8511 -0.988742 0
M  V30 15932 N 1520.96 -0.130252 -1.57061 0
M  V30 15933 C 1522.21 0.523969 -1.9519 0
M  V30 15934 C 1522.53 1.66493 -1.01514 0
M  V30 15935 O 1521.8 1.95762 -0.0735194 0
M  V30 15936 H 1520.38 0.196553 -0.720677 0
M  V30 15937 H 1523.05 -0.20183 -1.93852 0
M  V30 15938 H 1522.14 0.911156 -2.98504 0
M  V30 15939 N 1522.44 1.56945 0.143535 0
M  V30 15940 C 1523.38 1.95134 1.2023 0
M  V30 15941 C 1524.39 0.847593 1.38995 0
M  V30 15942 O 1525.58 1.12599 1.38505 0
M  V30 15943 C 1522.68 2.21316 2.56656 0
M  V30 15944 C 1521.85 3.52604 2.58822 0
M  V30 15945 C 1520.91 3.67285 3.76813 0
M  V30 15946 O 1519.94 4.39644 3.61527 0
M  V30 15947 N 1521.14 3.04208 4.94406 0
M  V30 15948 H 1523.9 2.86561 0.87766 0
M  V30 15949 H 1521.46 1.58437 0.333065 0
M  V30 15950 H 1523.46 2.28375 3.34106 0
M  V30 15951 H 1522.03 1.36137 2.81399 0
M  V30 15952 H 1521.25 3.56954 1.67264 0
M  V30 15953 H 1522.53 4.38944 2.57304 0
M  V30 15954 H 1521.93 2.45344 5.09728 0
M  V30 15955 H 1520.49 3.16824 5.69619 0
M  V30 15956 N 1523.92 -0.412991 1.52093 0
M  V30 15957 C 1525.33 -0.991955 1.58168 0
M  V30 15958 C 1525.68 -1.91655 0.419834 0
M  V30 15959 O 1524.81 -2.11448 -0.460308 0
M  V30 15960 C 1525.4 -1.80581 2.86663 0
M  V30 15961 C 1523.96 -2.33487 2.9523 0
M  V30 15962 C 1523.11 -1.13362 2.5307 0
M  V30 15963 H 1526.06 -0.193364 1.57518 0
M  V30 15964 H 1526.08 -2.66282 2.71798 0
M  V30 15965 H 1525.59 -1.13262 3.71205 0
M  V30 15966 H 1523.69 -3.0419 2.15173 0
M  V30 15967 H 1523.81 -2.64617 3.99393 0
M  V30 15968 H 1522.17 -1.48641 2.06828 0
M  V30 15969 H 1522.95 -0.476148 3.39982 0
M  V30 15970 N 1525.4 -1.4265 -0.669982 0
M  V30 15971 C 1526.36 -1.46196 -1.7652 0
M  V30 15972 C 1527.36 -0.348884 -1.5697 0
M  V30 15973 O 1528.55 -0.609921 -1.63174 0
M  V30 15974 C 1525.68 -1.29829 -3.1521 0
M  V30 15975 H 1526.88 -2.43718 -1.74762 0
M  V30 15976 H 1524.43 -1.29168 -0.88007 0
M  V30 15977 H 1525.17 -0.332493 -3.22591 0
M  V30 15978 H 1524.95 -2.10501 -3.30804 0
M  V30 15979 H 1526.44 -1.35205 -3.95107 0
M  V30 15980 N 1526.88 0.906753 -1.28902 0
M  V30 15981 C 1527.79 2.04313 -1.15296 0
M  V30 15982 C 1528.8 1.73826 -0.0778619 0
M  V30 15983 O 1529.98 1.99322 -0.288543 0
M  V30 15984 C 1527.04 3.36782 -0.823317 0
M  V30 15985 C 1526.11 3.80834 -1.98152 0
M  V30 15986 C 1525.34 5.06981 -1.66751 0
M  V30 15987 O 1525.56 5.67391 -0.58513 0
M  V30 15988 O 1524.5 5.46915 -2.51332 0
M  V30 15989 H 1528.32 2.18713 -2.10709 0
M  V30 15990 H 1525.91 1.02928 -1.08287 0
M  V30 15991 H 1527.79 4.16298 -0.653735 0
M  V30 15992 H 1526.46 3.23542 0.101097 0
M  V30 15993 H 1525.37 3.02115 -2.2063 0
M  V30 15994 H 1526.7 3.98648 -2.88688 0
M  V30 15995 N 1528.36 1.11264 1.11616 0
M  V30 15996 C 1529.77 0.846176 1.35322 0
M  V30 15997 C 1529.97 -0.530043 1.94404 0
M  V30 15998 O 1529.03 -1.28122 2.1758 0
M  V30 15999 C 1530.34 1.9528 2.28662 0
M  V30 16000 C 1531.89 1.98225 2.42231 0
M  V30 16001 C 1532.36 3.08086 3.38891 0
M  V30 16002 N 1533.85 3.07448 3.46453 0
M  V30 16003 C 1534.59 3.89094 4.21181 0
M  V30 16004 N 1534.09 4.80698 4.989 0
M  V30 16005 N 1535.88 3.77279 4.16674 0
M  V30 16006 H 1528.03 1.99958 0.716284 0
M  V30 16007 H 1530.29 0.869439 0.377862 0
M  V30 16008 H 1530 2.94381 1.92439 0
M  V30 16009 H 1529.87 1.84739 3.28864 0
M  V30 16010 H 1532.26 0.997517 2.77729 0
M  V30 16011 H 1532.34 2.12842 1.41887 0
M  V30 16012 H 1531.98 4.06784 3.0412 0
M  V30 16013 H 1531.91 2.90709 4.39085 0
M  V30 16014 H 1534.41 2.41077 2.91016 0
M  V30 16015 H 1534.72 5.39535 5.53282 0
M  V30 16016 H 1533.06 4.84721 4.98067 0
M  V30 16017 H 1536.25 3.05059 3.55044 0
M  V30 16018 H 1536.43 4.41142 4.74655 0
M  V30 16019 N 1529.83 -1.29188 0.902679 0
M  V30 16020 C 1531.25 -1.47924 0.599209 0
M  V30 16021 C 1531.45 -1.82297 -0.858494 0
M  V30 16022 O 1530.51 -1.92123 -1.63845 0
M  V30 16023 C 1531.82 -2.59008 1.52759 0
M  V30 16024 C 1533.37 -2.72882 1.53312 0
M  V30 16025 C 1533.84 -3.87097 2.44785 0
M  V30 16026 N 1535.33 -3.94435 2.42849 0
M  V30 16027 C 1536.07 -4.82165 3.1033 0
M  V30 16028 N 1535.56 -5.74565 3.87101 0
M  V30 16029 N 1537.36 -4.75681 2.99473 0
M  V30 16030 H 1529.51 -1.05154 1.84544 0
M  V30 16031 H 1531.77 -0.522632 0.790924 0
M  V30 16032 H 1531.48 -2.40483 2.56634 0
M  V30 16033 H 1531.35 -3.55873 1.25036 0
M  V30 16034 H 1533.74 -2.90802 0.501804 0
M  V30 16035 H 1533.82 -1.76582 1.85074 0
M  V30 16036 H 1533.46 -3.69932 3.48012 0
M  V30 16037 H 1533.39 -4.82772 2.10331 0
M  V30 16038 H 1535.88 -3.28347 1.87074 0
M  V30 16039 H 1536.2 -6.3831 4.35638 0
M  V30 16040 H 1534.54 -5.74441 3.91207 0
M  V30 16041 H 1537.73 -4.02483 2.39009 0
M  V30 16042 H 1537.91 -5.4384 3.52337 0
M  V30 16043 N 1531.31 -0.665475 -1.42861 0
M  V30 16044 C 1532.27 0.00932351 -2.29198 0
M  V30 16045 C 1533.27 0.738356 -1.42846 0
M  V30 16046 O 1534.46 0.57776 -1.6434 0
M  V30 16047 C 1531.6 1.02392 -3.25159 0
M  V30 16048 H 1532.79 -0.750481 -2.90358 0
M  V30 16049 H 1530.34 -0.427334 -1.50345 0
M  V30 16050 H 1531.08 1.81254 -2.68919 0
M  V30 16051 H 1530.86 0.504671 -3.88839 0
M  V30 16052 H 1532.35 1.49479 -3.89931 0
M  V30 16053 N 1532.79 1.52222 -0.408187 0
M  V30 16054 C 1534.01 2.06703 0.169901 0
M  V30 16055 C 1534.44 1.27635 1.3817 0
M  V30 16056 O 1533.8 0.306343 1.78693 0
M  V30 16057 C 1533.85 3.57121 0.499663 0
M  V30 16058 O 1532.95 3.80483 1.5908 0
M  V30 16059 H 1532.29 0.663839 0.0146145 0
M  V30 16060 H 1534.82 1.96174 -0.581113 0
M  V30 16061 H 1534.83 4.00886 0.758567 0
M  V30 16062 H 1533.51 4.14103 -0.386182 0
M  V30 16063 H 1532.08 3.48599 1.32413 0
M  V30 16064 N 1534.27 0.138579 1.5699 0
M  V30 16065 C 1535.22 -0.821469 2.17611 0
M  V30 16066 C 1536.21 -1.26137 1.13074 0
M  V30 16067 O 1537.42 -1.23084 1.31341 0
M  V30 16068 H 1533.79 -0.283086 0.696682 0
M  V30 16069 H 1535.76 -0.285891 2.97027 0
M  V30 16070 C 1534.51 -2.05395 2.8055 0
M  V30 16071 H 1533.83 -1.72442 3.60699 0
M  V30 16072 H 1535.27 -2.70531 3.2648 0
M  V30 16073 C 1533.73 -2.85647 1.78626 0
M  V30 16074 O 1534.26 -3.81705 1.25156 0
M  V30 16075 N 1532.47 -2.50018 1.4812 0
M  V30 16076 H 1532.02 -1.71969 1.91793 0
M  V30 16077 H 1531.97 -3.04007 0.8017 0
M  V30 16078 N 1535.75 -1.57019 -0.13521 0
M  V30 16079 C 1537.02 -1.74928 -0.875189 0
M  V30 16080 C 1537.4 -0.709755 -1.98811 0
M  V30 16081 O 1536.75 0.269237 -2.26908 0
M  V30 16082 C 1536.96 -3.1939 -1.40681 0
M  V30 16083 C 1538.31 -3.8142 -1.86557 0
M  V30 16084 O 1539.33 -3.22892 -1.50397 0
M  V30 16085 O 1538.19 -4.84263 -2.53282 0
M  V30 16086 H 1535.29 -0.715665 -0.414431 0
M  V30 16087 H 1537.83 -1.69274 -0.120215 0
M  V30 16088 H 1536.6 -3.86554 -0.607564 0
M  V30 16089 H 1536.23 -3.29517 -2.22496 0
M  V30 16090 N 1537.22 0.404919 -1.52309 0
M  V30 16091 C 1538.16 1.51276 -1.72186 0
M  V30 16092 C 1539.17 1.5125 -0.602276 0
M  V30 16093 O 1540.36 1.55439 -0.877549 0
M  V30 16094 C 1537.46 2.90162 -1.75099 0
M  V30 16095 C 1536.63 3.14333 -3.04161 0
M  V30 16096 C 1535.69 4.33113 -2.9883 0
M  V30 16097 O 1534.72 4.30189 -3.72728 0
M  V30 16098 N 1535.92 5.38451 -2.16911 0
M  V30 16099 H 1538.68 1.34618 -2.67765 0
M  V30 16100 H 1536.24 0.594264 -1.50599 0
M  V30 16101 H 1538.24 3.67697 -1.69058 0
M  V30 16102 H 1536.81 3.00257 -0.869756 0
M  V30 16103 H 1536.03 2.24803 -3.23817 0
M  V30 16104 H 1537.31 3.27327 -3.89531 0
M  V30 16105 H 1536.71 5.43676 -1.56309 0
M  V30 16106 H 1535.27 6.14715 -2.16724 0
M  V30 16107 N 1538.7 1.43003 0.662408 0
M  V30 16108 C 1540.12 1.26201 0.977003 0
M  V30 16109 C 1540.32 0.175104 2.00738 0
M  V30 16110 O 1539.37 -0.44954 2.48466 0
M  V30 16111 C 1540.69 2.62319 1.47001 0
M  V30 16112 C 1542.24 2.69776 1.58714 0
M  V30 16113 C 1542.71 4.06289 2.11408 0
M  V30 16114 N 1544.2 4.08307 2.18724 0
M  V30 16115 C 1544.94 5.10761 2.60598 0
M  V30 16116 N 1544.43 6.23593 3.01834 0
M  V30 16117 N 1546.23 4.98115 2.60456 0
M  V30 16118 H 1538.38 2.12391 -0.0195698 0
M  V30 16119 H 1540.64 0.946472 0.0538044 0
M  V30 16120 H 1540.35 3.42773 0.78736 0
M  V30 16121 H 1540.22 2.87088 2.44664 0
M  V30 16122 H 1542.61 1.89659 2.26083 0
M  V30 16123 H 1542.69 2.48782 0.595081 0
M  V30 16124 H 1542.33 4.86868 1.44644 0
M  V30 16125 H 1542.26 4.24641 3.11428 0
M  V30 16126 H 1544.75 3.26857 1.89665 0
M  V30 16127 H 1545.07 6.97609 3.32509 0
M  V30 16128 H 1543.41 6.27079 2.99661 0
M  V30 16129 H 1546.6 4.09037 2.27611 0
M  V30 16130 H 1546.77 5.78092 2.92769 0
M  V30 16131 N 1540.18 -0.899904 1.29381 0
M  V30 16132 C 1541.59 -1.46563 1.15655 0
M  V30 16133 C 1541.94 -1.94622 -0.248375 0
M  V30 16134 O 1541.07 -1.83698 -1.14386 0
M  V30 16135 C 1541.66 -2.66384 2.09344 0
M  V30 16136 C 1540.22 -3.19093 1.99641 0
M  V30 16137 C 1539.37 -1.91786 2.00283 0
M  V30 16138 H 1542.32 -0.711264 1.41869 0
M  V30 16139 H 1542.34 -3.42111 1.66554 0
M  V30 16140 H 1541.85 -2.31376 3.11587 0
M  V30 16141 H 1539.95 -3.58795 1.00485 0
M  V30 16142 H 1540.07 -3.83405 2.87293 0
M  V30 16143 H 1538.43 -2.09482 1.44878 0
M  V30 16144 H 1539.21 -1.59055 3.04231 0
M  V30 16145 N 1541.66 -1.11854 -1.11024 0
M  V30 16146 C 1542.59 -0.738635 -2.16972 0
M  V30 16147 C 1543.6 0.231814 -1.61141 0
M  V30 16148 O 1544.79 0.0140607 -1.78494 0
M  V30 16149 C 1541.89 -0.0715797 -3.38824 0
M  V30 16150 C 1541.07 -1.06995 -4.24112 0
M  V30 16151 C 1540.12 -0.431644 -5.24427 0
M  V30 16152 O 1539.15 -1.08685 -5.58727 0
M  V30 16153 N 1540.35 0.803593 -5.74911 0
M  V30 16154 H 1543.12 -1.65025 -2.50174 0
M  V30 16155 H 1540.68 -1.00933 -1.26586 0
M  V30 16156 H 1542.67 0.367274 -4.0303 0
M  V30 16157 H 1541.24 0.742686 -3.03649 0
M  V30 16158 H 1540.46 -1.68662 -3.56296 0
M  V30 16159 H 1541.75 -1.74525 -4.77931 0
M  V30 16160 H 1541.15 1.355 -5.49232 0
M  V30 16161 H 1539.7 1.18536 -6.40931 0
M  V30 16162 N 1543.14 1.28707 -0.909517 0
M  V30 16163 C 1544.05 2.31171 -0.399628 0
M  V30 16164 C 1545.06 1.6634 0.510582 0
M  V30 16165 O 1546.24 1.97432 0.397792 0
M  V30 16166 C 1543.3 3.44869 0.355852 0
M  V30 16167 C 1542.36 4.25267 -0.587065 0
M  V30 16168 C 1541.6 5.33536 0.132456 0
M  V30 16169 O 1541.82 5.54075 1.35486 0
M  V30 16170 O 1540.75 5.99561 -0.530062 0
M  V30 16171 H 1544.58 2.76785 -1.24995 0
M  V30 16172 H 1542.17 1.33323 -0.674186 0
M  V30 16173 H 1544.05 4.14068 0.782692 0
M  V30 16174 H 1542.72 3.01345 1.18207 0
M  V30 16175 H 1541.63 3.58673 -1.06322 0
M  V30 16176 H 1542.96 4.72459 -1.37998 0
M  V30 16177 N 1544.61 0.673042 1.42506 0
M  V30 16178 C 1545.86 0.194864 2.01862 0
M  V30 16179 C 1546.19 -1.19491 1.53087 0
M  V30 16180 O 1545.47 -1.80187 0.732322 0
M  V30 16181 C 1545.75 0.227559 3.5938 0
M  V30 16182 C 1545.6 1.65266 4.18338 0
M  V30 16183 C 1546.92 -0.425197 4.38041 0
M  V30 16184 H 1544.04 0.0722831 0.733447 0
M  V30 16185 H 1546.68 0.857493 1.6955 0
M  V30 16186 H 1544.83 -0.336658 3.87039 0
M  V30 16187 H 1546.51 2.26899 4.0164 0
M  V30 16188 H 1544.75 2.19388 3.74234 0
M  V30 16189 H 1545.42 1.62724 5.2747 0
M  V30 16190 H 1547.9 0.0550709 4.16064 0
M  V30 16191 H 1546.77 -0.371675 5.4764 0
M  V30 16192 H 1547.03 -1.50251 4.15785 0
M  V30 16193 N 1546.09 -1.52004 0.416254 0
M  V30 16194 C 1547.5 -1.86628 -0.0517247 0
M  V30 16195 C 1547.85 -1.33463 -1.43813 0
M  V30 16196 O 1546.98 -0.676793 -2.05544 0
M  V30 16197 C 1547.57 -3.38651 -0.100637 0
M  V30 16198 C 1546.13 -3.72888 -0.512969 0
M  V30 16199 C 1545.28 -2.75584 0.307975 0
M  V30 16200 H 1548.23 -1.45529 0.633018 0
M  V30 16201 H 1548.25 -3.69348 -0.914465 0
M  V30 16202 H 1547.76 -3.77316 0.908538 0
M  V30 16203 H 1545.87 -3.39804 -1.52852 0
M  V30 16204 H 1545.98 -4.78435 -0.252408 0
M  V30 16205 H 1544.34 -2.53653 -0.230717 0
M  V30 16206 H 1545.13 -3.1709 1.31563 0
M  V30 16207 N 1547.57 -0.146903 -1.56914 0
M  V30 16208 C 1548.53 0.778709 -2.15566 0
M  V30 16209 C 1549.53 1.1753 -1.09742 0
M  V30 16210 O 1550.72 1.09624 -1.35382 0
M  V30 16211 C 1547.86 2.0567 -2.71869 0
M  V30 16212 H 1549.05 0.268506 -2.98696 0
M  V30 16213 H 1546.6 0.10254 -1.55963 0
M  V30 16214 H 1547.34 2.61057 -1.92405 0
M  V30 16215 H 1547.12 1.78154 -3.4929 0
M  V30 16216 H 1548.61 2.71779 -3.17059 0
M  V30 16217 N 1549.05 1.57088 0.126881 0
M  V30 16218 C 1549.96 2.03053 1.17502 0
M  V30 16219 C 1550.97 0.949484 1.45811 0
M  V30 16220 O 1552.15 1.26043 1.57083 0
M  V30 16221 C 1549.22 2.41897 2.48368 0
M  V30 16222 C 1548.28 3.64047 2.27527 0
M  V30 16223 C 1547.51 4.01029 3.52153 0
M  V30 16224 O 1547.73 3.38441 4.59145 0
M  V30 16225 O 1546.67 4.94174 3.43622 0
M  V30 16226 H 1550.49 2.92568 0.814733 0
M  V30 16227 H 1548.08 1.45547 0.3371 0
M  V30 16228 H 1549.96 2.67652 3.25485 0
M  V30 16229 H 1548.63 1.55531 2.83887 0
M  V30 16230 H 1547.54 3.43452 1.48294 0
M  V30 16231 H 1548.87 4.51093 1.96916 0
M  V30 16232 N 1550.53 -0.396836 1.52522 0
M  V30 16233 C 1551.49 -1.46695 1.76106 0
M  V30 16234 C 1552.49 -1.47902 0.631005 0
M  V30 16235 O 1553.68 -1.4921 0.898995 0
M  V30 16236 C 1550.81 -2.86033 1.85467 0
M  V30 16237 H 1552 -1.27071 2.71649 0
M  V30 16238 H 1549.56 -0.628096 1.43125 0
M  V30 16239 H 1550.29 -3.11012 0.918816 0
M  V30 16240 H 1550.08 -2.86559 2.67631 0
M  V30 16241 H 1551.57 -3.63587 2.05412 0
M  V30 16242 N 1552.01 -1.43353 -0.654814 0
M  V30 16243 C 1552.94 -1.51194 -1.7794 0
M  V30 16244 C 1553.92 -0.366747 -1.66099 0
M  V30 16245 O 1555.1 -0.58375 -1.85219 0
M  V30 16246 C 1552.23 -1.43298 -3.16359 0
M  V30 16247 C 1551.19 -2.5605 -3.42961 0
M  V30 16248 C 1550.51 -2.33208 -4.81163 0
M  V30 16249 C 1551.81 -3.98303 -3.37864 0
M  V30 16250 H 1553.51 -2.4532 -1.71635 0
M  V30 16251 H 1551.05 -1.18072 -0.824319 0
M  V30 16252 H 1553 -1.47388 -3.94784 0
M  V30 16253 H 1551.73 -0.456761 -3.2339 0
M  V30 16254 H 1550.39 -2.5131 -2.66906 0
M  V30 16255 H 1550.04 -1.33833 -4.84869 0
M  V30 16256 H 1549.74 -3.08789 -4.99923 0
M  V30 16257 H 1551.26 -2.39079 -5.61848 0
M  V30 16258 H 1552.67 -4.04538 -4.06229 0
M  V30 16259 H 1551.07 -4.73897 -3.6816 0
M  V30 16260 H 1552.14 -4.23552 -2.36075 0
M  V30 16261 N 1553.48 0.89303 -1.29857 0
M  V30 16262 C 1554.45 1.97944 -1.15546 0
M  V30 16263 C 1555.45 1.60554 -0.088989 0
M  V30 16264 O 1556.64 1.7092 -0.336464 0
M  V30 16265 C 1553.77 3.32126 -0.768442 0
M  V30 16266 H 1554.96 2.12067 -2.12055 0
M  V30 16267 H 1552.51 1.0784 -1.13138 0
M  V30 16268 H 1553.25 3.23704 0.196504 0
M  V30 16269 H 1553.03 3.60631 -1.53907 0
M  V30 16270 H 1554.52 4.11834 -0.691559 0
M  V30 16271 N 1554.96 1.12442 1.10429 0
M  V30 16272 C 1556.37 0.894147 1.63896 0
M  V30 16273 C 1556.72 -0.571509 1.87692 0
M  V30 16274 O 1555.85 -1.43595 1.61893 0
M  V30 16275 C 1556.44 1.61664 2.97742 0
M  V30 16276 C 1555 1.43251 3.48075 0
M  V30 16277 C 1554.15 1.65252 2.22682 0
M  V30 16278 H 1557.1 1.27918 0.939289 0
M  V30 16279 H 1557.12 1.06771 3.65213 0
M  V30 16280 H 1556.63 2.68333 2.80391 0
M  V30 16281 H 1554.73 0.388385 3.7057 0
M  V30 16282 H 1554.85 2.18866 4.26186 0
M  V30 16283 H 1553.21 1.07663 2.30827 0
M  V30 16284 H 1553.99 2.73219 2.07862 0
M  V30 16285 N 1556.44 -1.28223 0.91633 0
M  V30 16286 C 1557.4 -2.25477 0.411423 0
M  V30 16287 C 1558.4 -1.53969 -0.463689 0
M  V30 16288 O 1559.59 -1.72151 -0.266379 0
M  V30 16289 C 1556.72 -3.38427 -0.409851 0
M  V30 16290 H 1557.92 -2.71656 1.27056 0
M  V30 16291 H 1555.47 -1.3995 0.695966 0
M  V30 16292 H 1556.21 -2.97614 -1.28828 0
M  V30 16293 H 1555.99 -3.91497 0.217435 0
M  V30 16294 H 1557.48 -4.10739 -0.753862 0
M  V30 16295 N 1557.92 -0.68059 -1.42147 0
M  V30 16296 C 1559.33 -0.281841 -1.8456 0
M  V30 16297 C 1559.68 1.17714 -1.56965 0
M  V30 16298 O 1558.8 1.90185 -1.03241 0
M  V30 16299 C 1559.4 -0.504751 -3.35019 0
M  V30 16300 C 1557.96 -0.160067 -3.76059 0
M  V30 16301 C 1557.11 -0.794377 -2.65678 0
M  V30 16302 H 1560.06 -0.882337 -1.31911 0
M  V30 16303 H 1560.08 0.241308 -3.79734 0
M  V30 16304 H 1559.59 -1.56669 -3.55072 0
M  V30 16305 H 1557.69 0.898202 -3.61612 0
M  V30 16306 H 1557.8 -0.60463 -4.75269 0
M  V30 16307 H 1556.17 -0.225213 -2.53702 0
M  V30 16308 H 1556.95 -1.85989 -2.88553 0
M  V30 16309 N 1559.4 1.51781 -0.424309 0
M  V30 16310 C 1560.36 2.25996 0.381903 0
M  V30 16311 C 1561.36 1.28938 0.960813 0
M  V30 16312 O 1562.55 1.52757 0.837306 0
M  V30 16313 C 1559.68 3.04181 1.53904 0
M  V30 16314 H 1560.87 2.98697 -0.268336 0
M  V30 16315 H 1558.43 1.55293 -0.177167 0
M  V30 16316 H 1559.16 2.35866 2.22571 0
M  V30 16317 H 1558.95 3.75457 1.13025 0
M  V30 16318 H 1560.44 3.60434 2.10896 0
M  V30 16319 N 1560.87 0.155222 1.56834 0
M  V30 16320 C 1561.78 -0.794179 2.20749 0
M  V30 16321 C 1562.8 -1.26546 1.19424 0
M  V30 16322 O 1563.98 -1.32094 1.5203 0
M  V30 16323 C 1561.04 -2.01261 2.82303 0
M  V30 16324 C 1560.1 -1.58976 3.98779 0
M  V30 16325 C 1559.33 -2.75011 4.57389 0
M  V30 16326 O 1559.56 -3.91449 4.14879 0
M  V30 16327 O 1558.49 -2.50011 5.4752 0
M  V30 16328 H 1562.32 -0.280064 3.02406 0
M  V30 16329 H 1559.9 -0.0722048 1.49225 0
M  V30 16330 H 1561.78 -2.72551 3.21394 0
M  V30 16331 H 1560.46 -2.51609 2.03653 0
M  V30 16332 H 1559.37 -0.846848 3.64389 0
M  V30 16333 H 1560.7 -1.13336 4.78974 0
M  V30 16334 N 1562.35 -1.57153 -0.118549 0
M  V30 16335 C 1563.6 -1.8515 -0.82748 0
M  V30 16336 C 1563.93 -0.741026 -1.79506 0
M  V30 16337 O 1563.21 0.253095 -1.92846 0
M  V30 16338 C 1563.49 -3.23734 -1.57698 0
M  V30 16339 C 1563.34 -4.45381 -0.628967 0
M  V30 16340 C 1564.66 -3.59895 -2.53305 0
M  V30 16341 H 1561.78 -0.673459 -0.29937 0
M  V30 16342 H 1564.42 -1.89778 -0.0917198 0
M  V30 16343 H 1562.57 -3.19919 -2.20418 0
M  V30 16344 H 1564.24 -4.61299 -0.0105746 0
M  V30 16345 H 1562.49 -4.33759 0.059462 0
M  V30 16346 H 1563.16 -5.3902 -1.19004 0
M  V30 16347 H 1565.63 -3.64503 -2.0069 0
M  V30 16348 H 1564.51 -4.57839 -3.02778 0
M  V30 16349 H 1564.77 -2.87338 -3.3599 0
M  V30 16350 N 1563.83 0.388742 -1.5273 0
M  V30 16351 C 1565.24 0.966667 -1.59726 0
M  V30 16352 C 1565.59 1.90963 -0.450272 0
M  V30 16353 O 1564.72 2.12153 0.426611 0
M  V30 16354 C 1565.31 1.75998 -2.895 0
M  V30 16355 C 1563.87 2.28761 -2.98907 0
M  V30 16356 C 1563.02 1.09322 -2.54841 0
M  V30 16357 H 1565.97 0.16828 -1.57805 0
M  V30 16358 H 1565.99 2.61924 -2.76 0
M  V30 16359 H 1565.5 1.07342 -3.7296 0
M  V30 16360 H 1563.6 3.00728 -2.19985 0
M  V30 16361 H 1563.72 2.58229 -4.03552 0
M  V30 16362 H 1562.08 1.45332 -2.09167 0
M  V30 16363 H 1562.86 0.421999 -3.40696 0
M  V30 16364 N 1565.31 1.43698 0.647203 0
M  V30 16365 C 1566.27 1.48986 1.74172 0
M  V30 16366 C 1567.27 0.373812 1.56395 0
M  V30 16367 O 1568.46 0.635804 1.62183 0
M  V30 16368 C 1565.59 1.34827 3.13104 0
M  V30 16369 H 1566.79 2.46467 1.70863 0
M  V30 16370 H 1564.34 1.30552 0.859409 0
M  V30 16371 H 1565.07 0.383772 3.22021 0
M  V30 16372 H 1564.86 2.15738 3.27414 0
M  V30 16373 H 1566.35 1.41473 3.92906 0
M  V30 16374 N 1566.79 -0.886131 1.30328 0
M  V30 16375 C 1568.2 -1.45328 1.17203 0
M  V30 16376 C 1568.55 -1.94874 -0.227719 0
M  V30 16377 O 1567.67 -1.84901 -1.12431 0
M  V30 16378 C 1568.27 -2.64149 2.12157 0
M  V30 16379 C 1566.83 -3.16958 2.03014 0
M  V30 16380 C 1565.97 -1.89651 2.02306 0
M  V30 16381 H 1568.93 -0.696177 1.42615 0
M  V30 16382 H 1568.95 -3.40325 1.70173 0
M  V30 16383 H 1568.46 -2.28058 3.14024 0
M  V30 16384 H 1566.56 -3.57709 1.04285 0
M  V30 16385 H 1566.67 -3.80336 2.91344 0
M  V30 16386 H 1565.04 -2.07933 1.47091 0
M  V30 16387 H 1565.82 -1.5582 3.05901 0
M  V30 16388 N 1568.26 -1.13026 -1.09832 0
M  V30 16389 C 1569.23 -0.806832 -2.14529 0
M  V30 16390 C 1570.23 0.18175 -1.5977 0
M  V30 16391 O 1571.42 -0.0448155 -1.74142 0
M  V30 16392 C 1568.55 -0.200093 -3.40312 0
M  V30 16393 H 1569.74 -1.73453 -2.44651 0
M  V30 16394 H 1567.3 -0.934331 -1.25299 0
M  V30 16395 H 1568.03 0.737028 -3.15814 0
M  V30 16396 H 1567.82 -0.911945 -3.81348 0
M  V30 16397 H 1569.31 0.00948247 -4.17599 0
M  V30 16398 N 1569.74 1.27735 -0.923117 0
M  V30 16399 C 1571.15 1.76579 -0.606376 0
M  V30 16400 C 1571.5 1.75437 0.878428 0
M  V30 16401 O 1570.63 1.35495 1.68731 0
M  V30 16402 C 1571.22 3.20652 -1.09396 0
M  V30 16403 C 1569.78 3.67181 -0.827974 0
M  V30 16404 C 1568.93 2.47259 -1.25532 0
M  V30 16405 H 1571.88 1.14067 -1.10338 0
M  V30 16406 H 1571.9 3.77952 -0.439581 0
M  V30 16407 H 1571.41 3.21451 -2.17465 0
M  V30 16408 H 1569.52 3.71832 0.239098 0
M  V30 16409 H 1569.63 4.56875 -1.44229 0
M  V30 16410 H 1567.99 2.45622 -0.673928 0
M  V30 16411 H 1568.78 2.50771 -2.34455 0
M  V30 16412 N 1571.22 0.688118 1.41784 0
M  V30 16413 C 1572.18 0.0271411 2.29184 0
M  V30 16414 C 1573.18 -0.715537 1.44002 0
M  V30 16415 O 1574.37 -0.551542 1.65238 0
M  V30 16416 C 1571.51 -0.97206 3.26747 0
M  V30 16417 H 1572.7 0.79658 2.89127 0
M  V30 16418 H 1570.25 0.451198 1.49646 0
M  V30 16419 H 1570.99 -1.76953 2.71769 0
M  V30 16420 H 1570.77 -0.442746 3.89592 0
M  V30 16421 H 1572.26 -1.43256 3.92259 0
M  V30 16422 N 1572.7 -1.51554 0.432352 0
M  V30 16423 C 1573.66 -2.26195 -0.369912 0
M  V30 16424 C 1574.66 -1.29446 -0.953961 0
M  V30 16425 O 1575.85 -1.53199 -0.829193 0
M  V30 16426 C 1572.98 -3.04993 -1.52289 0
M  V30 16427 H 1574.18 -2.98551 0.284173 0
M  V30 16428 H 1571.73 -1.55197 0.1854 0
M  V30 16429 H 1572.46 -2.37043 -2.21317 0
M  V30 16430 H 1572.25 -3.76051 -1.11032 0
M  V30 16431 H 1573.74 -3.61547 -2.08982 0
M  V30 16432 N 1574.18 -0.163538 -1.56749 0
M  V30 16433 C 1575.14 0.755801 -2.1638 0
M  V30 16434 C 1576.14 1.16359 -1.10982 0
M  V30 16435 O 1577.33 1.08182 -1.36537 0
M  V30 16436 C 1574.46 2.02775 -2.74035 0
M  V30 16437 H 1575.65 0.23681 -2.98964 0
M  V30 16438 H 1573.21 0.0859925 -1.56063 0
M  V30 16439 H 1573.94 2.59002 -1.95163 0
M  V30 16440 H 1573.73 1.74439 -3.5116 0
M  V30 16441 H 1575.22 2.684 -3.19923 0
M  V30 16442 N 1575.65 1.57214 0.110213 0
M  V30 16443 C 1576.88 1.8988 0.834297 0
M  V30 16444 C 1577.3 0.756347 1.72224 0
M  V30 16445 O 1576.66 -0.292768 1.78921 0
M  V30 16446 C 1576.71 3.21338 1.63629 0
M  V30 16447 O 1575.81 3.07862 2.74399 0
M  V30 16448 H 1575.16 0.62283 0.23017 0
M  V30 16449 H 1577.69 2.04402 0.0899726 0
M  V30 16450 H 1577.7 3.54275 2.02369 0
M  V30 16451 H 1576.37 4.04079 0.984521 0
M  V30 16452 H 1574.95 2.8641 2.38797 0
M  V30 16453 N 1577.13 -0.380637 1.52934 0
M  V30 16454 C 1578.1 -1.44819 1.77652 0
M  V30 16455 C 1579.1 -1.47224 0.646657 0
M  V30 16456 O 1580.29 -1.48248 0.91477 0
M  V30 16457 C 1577.42 -2.8405 1.8849 0
M  V30 16458 H 1578.61 -1.24183 2.72981 0
M  V30 16459 H 1576.16 -0.61288 1.43783 0
M  V30 16460 H 1576.9 -3.1002 0.951751 0
M  V30 16461 H 1576.68 -2.83704 2.70655 0
M  V30 16462 H 1578.17 -3.61388 2.09257 0
M  V30 16463 N 1578.61 -1.44039 -0.639573 0
M  V30 16464 C 1579.84 -1.50063 -1.43164 0
M  V30 16465 C 1580.26 -0.123906 -1.87691 0
M  V30 16466 O 1579.62 0.885192 -1.58221 0
M  V30 16467 C 1579.67 -2.46305 -2.63375 0
M  V30 16468 O 1578.77 -1.95874 -3.62915 0
M  V30 16469 H 1578.11 -0.507052 -0.428713 0
M  V30 16470 H 1580.64 -1.8909 -0.781415 0
M  V30 16471 H 1580.65 -2.64062 -3.11023 0
M  V30 16472 H 1579.33 -3.46309 -2.3031 0
M  V30 16473 H 1577.9 -1.87844 -3.22132 0
M  V30 16474 N 1580.09 0.879207 -1.30796 0
M  V30 16475 C 1581.34 1.62828 -1.19715 0
M  V30 16476 C 1581.66 1.93429 0.247031 0
M  V30 16477 O 1580.93 1.57478 1.16522 0
M  V30 16478 H 1579.51 0.603607 -0.440077 0
M  V30 16479 H 1582.17 1.05309 -1.64 0
M  V30 16480 H 1581.27 2.57591 -1.76219 0
M  V30 16481 N 1581.57 1.13606 1.09231 0
M  V30 16482 C 1582.98 0.91148 1.62938 0
M  V30 16483 C 1583.33 -0.55157 1.88287 0
M  V30 16484 O 1582.45 -1.4187 1.63407 0
M  V30 16485 C 1583.05 1.64812 2.96011 0
M  V30 16486 C 1581.61 1.46935 3.46536 0
M  V30 16487 C 1580.76 1.67605 2.20916 0
M  V30 16488 H 1583.71 1.28907 0.925669 0
M  V30 16489 H 1583.73 1.10638 3.6406 0
M  V30 16490 H 1583.24 2.71291 2.77529 0
M  V30 16491 H 1581.34 0.427667 3.70138 0
M  V30 16492 H 1581.45 2.23374 4.2384 0
M  V30 16493 H 1579.82 1.10105 2.29672 0
M  V30 16494 H 1580.6 2.75408 2.04952 0
M  V30 16495 N 1583.05 -1.27244 0.929878 0
M  V30 16496 C 1584.01 -2.25028 0.435315 0
M  V30 16497 C 1585.01 -1.54453 -0.447332 0
M  V30 16498 O 1586.2 -1.72424 -0.248105 0
M  V30 16499 C 1583.33 -3.38843 -0.373933 0
M  V30 16500 H 1584.52 -2.70293 1.2993 0
M  V30 16501 H 1582.08 -1.39204 0.710771 0
M  V30 16502 H 1582.81 -2.98963 -1.25664 0
M  V30 16503 H 1582.6 -3.91244 0.258946 0
M  V30 16504 H 1584.09 -4.11516 -0.710255 0
M  V30 16505 N 1584.52 -0.695628 -1.41417 0
M  V30 16506 C 1585.47 -0.0303383 -2.3078 0
M  V30 16507 C 1586.44 0.771218 -1.4711 0
M  V30 16508 O 1587.63 0.739239 -1.75897 0
M  V30 16509 C 1584.77 0.900034 -3.33157 0
M  V30 16510 C 1583.88 0.0900862 -4.31906 0
M  V30 16511 C 1583.01 1.01811 -5.21352 0
M  V30 16512 C 1582.05 0.201068 -6.1177 0
M  V30 16513 N 1581.19 1.0829 -6.93699 0
M  V30 16514 H 1586.03 -0.798148 -2.87113 0
M  V30 16515 H 1583.57 -0.405311 -1.41406 0
M  V30 16516 H 1585.52 1.45349 -3.91062 0
M  V30 16517 H 1584.15 1.63424 -2.78375 0
M  V30 16518 H 1583.21 -0.58029 -3.75948 0
M  V30 16519 H 1584.52 -0.543336 -4.95832 0
M  V30 16520 H 1583.67 1.64079 -5.84092 0
M  V30 16521 H 1582.41 1.68538 -4.57653 0
M  V30 16522 H 1581.42 -0.434686 -5.48079 0
M  V30 16523 H 1582.64 -0.462416 -6.77524 0
M  V30 16524 H 1580.59 1.73619 -6.32608 0
M  V30 16525 H 1580.5 0.505046 -7.54311 0
M  V30 16526 H 1581.77 1.69239 -7.60906 0
M  V30 16527 N 1586 1.51322 -0.440383 0
M  V30 16528 C 1587.23 2.0653 0.123649 0
M  V30 16529 C 1587.64 1.30751 1.36197 0
M  V30 16530 O 1587 0.367932 1.78753 0
M  V30 16531 C 1587.05 3.58778 0.442802 0
M  V30 16532 O 1586.77 4.31695 -0.746375 0
M  V30 16533 C 1588.27 4.3051 1.05717 0
M  V30 16534 H 1585.49 0.670968 0.00657466 0
M  V30 16535 H 1588.04 1.94864 -0.620341 0
M  V30 16536 H 1586.19 3.70349 1.13669 0
M  V30 16537 H 1586.61 5.22368 -0.472466 0
M  V30 16538 H 1588.08 5.38111 1.23046 0
M  V30 16539 H 1588.56 3.88999 2.03903 0
M  V30 16540 H 1589.16 4.2339 0.402574 0
M  V30 16541 N 1587.48 0.171848 1.5666 0
M  V30 16542 C 1588.89 -0.34479 1.83489 0
M  V30 16543 C 1589.24 -1.63025 1.09167 0
M  V30 16544 O 1588.37 -2.13634 0.34488 0
M  V30 16545 C 1588.96 -0.63234 3.32847 0
M  V30 16546 C 1587.52 -1.09342 3.60169 0
M  V30 16547 C 1586.67 -0.129569 2.76997 0
M  V30 16548 H 1589.62 0.396101 1.53677 0
M  V30 16549 H 1589.64 -1.48434 3.50354 0
M  V30 16550 H 1589.15 0.303409 3.86912 0
M  V30 16551 H 1587.25 -2.04425 3.11514 0
M  V30 16552 H 1587.37 -1.00221 4.685 0
M  V30 16553 H 1585.73 -0.627033 2.46861 0
M  V30 16554 H 1586.51 0.800211 3.33844 0
M  V30 16555 N 1588.96 -1.5727 -0.101874 0
M  V30 16556 C 1589.92 -2.00625 -1.10826 0
M  V30 16557 C 1590.92 -0.89878 -1.33336 0
M  V30 16558 O 1592.11 -1.16442 -1.29564 0
M  V30 16559 C 1589.24 -2.36113 -2.45893 0
M  V30 16560 H 1590.44 -2.90748 -0.735238 0
M  V30 16561 H 1587.99 -1.52406 -0.346713 0
M  V30 16562 H 1588.72 -1.48923 -2.88084 0
M  V30 16563 H 1588.51 -3.169 -2.30904 0
M  V30 16564 H 1590 -2.70336 -3.1829 0
M  V30 16565 N 1590.44 0.372521 -1.53134 0
M  V30 16566 C 1591.85 0.949671 -1.60742 0
M  V30 16567 C 1592.2 1.90475 -0.470501 0
M  V30 16568 O 1591.32 2.12594 0.404085 0
M  V30 16569 C 1591.92 1.72918 -2.9135 0
M  V30 16570 C 1590.48 2.25577 -3.01317 0
M  V30 16571 C 1589.62 1.06612 -2.55986 0
M  V30 16572 H 1592.57 0.151533 -1.57975 0
M  V30 16573 H 1592.6 2.58982 -2.78763 0
M  V30 16574 H 1592.11 1.0338 -3.74078 0
M  V30 16575 H 1590.21 2.98378 -2.23162 0
M  V30 16576 H 1590.32 2.53935 -4.06268 0
M  V30 16577 H 1588.69 1.43105 -2.10697 0
M  V30 16578 H 1589.47 0.38584 -3.41125 0
M  V30 16579 N 1591.91 1.44376 0.631925 0
M  V30 16580 C 1592.88 1.50825 1.72582 0
M  V30 16581 C 1593.88 0.390379 1.55989 0
M  V30 16582 O 1595.07 0.65297 1.61499 0
M  V30 16583 C 1592.2 1.38141 3.11657 0
M  V30 16584 H 1593.39 2.48265 1.68239 0
M  V30 16585 H 1590.94 1.31456 0.845514 0
M  V30 16586 H 1591.68 0.417905 3.21596 0
M  V30 16587 H 1591.46 2.19198 3.25107 0
M  V30 16588 H 1592.95 1.45633 3.91383 0
M  V30 16589 N 1593.39 -0.872258 1.31261 0
M  V30 16590 C 1594.3 -2.01185 1.20673 0
M  V30 16591 C 1595.32 -1.73558 0.123921 0
M  V30 16592 O 1596.49 -1.98487 0.341288 0
M  V30 16593 C 1593.56 -3.34481 0.91232 0
M  V30 16594 C 1592.62 -3.75446 2.08179 0
M  V30 16595 C 1591.85 -5.02382 1.80134 0
M  V30 16596 O 1592.08 -5.6564 0.735358 0
M  V30 16597 O 1591.01 -5.40059 2.65744 0
M  V30 16598 H 1594.84 -2.13049 2.16434 0
M  V30 16599 H 1592.42 -1.00021 1.10978 0
M  V30 16600 H 1594.3 -4.14419 0.763879 0
M  V30 16601 H 1592.98 -3.23696 -0.0152802 0
M  V30 16602 H 1591.88 -2.96159 2.28562 0
M  V30 16603 H 1593.22 -3.90853 2.99156 0
M  V30 16604 N 1594.87 -1.14184 -1.08627 0
M  V30 16605 C 1595.83 -0.82954 -2.13662 0
M  V30 16606 C 1596.83 0.164794 -1.59953 0
M  V30 16607 O 1598.02 -0.0632831 -1.74085 0
M  V30 16608 C 1595.15 -0.236176 -3.40081 0
M  V30 16609 H 1596.35 -1.76038 -2.42797 0
M  V30 16610 H 1593.9 -0.947568 -1.24301 0
M  V30 16611 H 1594.64 0.70349 -3.16578 0
M  V30 16612 H 1594.42 -0.952341 -3.80359 0
M  V30 16613 H 1595.91 -0.03481 -4.17585 0
M  V30 16614 N 1596.35 1.26749 -0.936613 0
M  V30 16615 C 1597.57 1.98597 -0.597817 0
M  V30 16616 C 1598 1.69324 0.8192 0
M  V30 16617 O 1597.36 0.938634 1.55111 0
M  V30 16618 C 1597.4 3.50656 -0.841007 0
M  V30 16619 O 1596.51 4.12304 0.0891038 0
M  V30 16620 H 1595.85 0.623197 -0.229176 0
M  V30 16621 H 1598.38 1.61332 -1.2583 0
M  V30 16622 H 1598.39 4.00857 -0.760093 0
M  V30 16623 H 1597.06 3.71293 -1.87388 0
M  V30 16624 H 1595.64 3.72876 -0.0424804 0
M  V30 16625 N 1597.83 0.703118 1.41046 0
M  V30 16626 C 1599.05 0.246552 2.05426 0
M  V30 16627 C 1599.47 -1.10704 1.52938 0
M  V30 16628 O 1598.83 -1.69329 0.680733 0
M  V30 16629 C 1598.88 0.203953 3.60924 0
M  V30 16630 O 1598.6 1.50408 4.11472 0
M  V30 16631 C 1600.1 -0.272686 4.42461 0
M  V30 16632 H 1597.32 0.113157 0.66139 0
M  V30 16633 H 1599.86 0.957823 1.80682 0
M  V30 16634 H 1598.02 -0.458194 3.84681 0
M  V30 16635 H 1598.43 1.39622 5.05575 0
M  V30 16636 H 1599.91 -0.251357 5.51427 0
M  V30 16637 H 1600.38 -1.31282 4.1912 0
M  V30 16638 H 1600.99 0.358733 4.23784 0
M  V30 16639 N 1599.3 -1.51086 0.448402 0
M  V30 16640 C 1600.53 -2.07081 -0.115038 0
M  V30 16641 C 1600.95 -1.31253 -1.34737 0
M  V30 16642 O 1600.31 -0.353613 -1.77818 0
M  V30 16643 C 1600.36 -3.58321 -0.404803 0
M  V30 16644 O 1599.46 -3.84567 -1.48936 0
M  V30 16645 H 1598.81 -0.663993 0.00299118 0
M  V30 16646 H 1601.34 -1.94564 0.632921 0
M  V30 16647 H 1601.35 -4.02756 -0.652013 0
M  V30 16648 H 1600.02 -4.12934 0.495838 0
M  V30 16649 H 1598.6 -3.51987 -1.23124 0
M  V30 16650 N 1600.78 -0.180154 -1.56567 0
M  V30 16651 C 1601.75 0.732809 -2.17169 0
M  V30 16652 C 1602.75 1.15176 -1.1221 0
M  V30 16653 O 1603.94 1.06728 -1.37677 0
M  V30 16654 C 1601.07 1.99857 -2.7617 0
M  V30 16655 H 1602.26 0.205088 -2.99198 0
M  V30 16656 H 1599.81 0.0694351 -1.56146 0
M  V30 16657 H 1600.55 2.56917 -1.97899 0
M  V30 16658 H 1600.33 1.70705 -3.5299 0
M  V30 16659 H 1601.82 2.64992 -3.22752 0
M  V30 16660 N 1602.26 1.57322 0.0935319 0
M  V30 16661 C 1603.19 2.05208 1.11409 0
M  V30 16662 C 1604.17 0.941295 1.41681 0
M  V30 16663 O 1605.36 1.21266 1.51684 0
M  V30 16664 C 1602.49 2.47782 2.43354 0
M  V30 16665 C 1601.44 3.62538 2.27486 0
M  V30 16666 C 1600.77 3.91095 3.64622 0
M  V30 16667 C 1602.07 4.93371 1.71412 0
M  V30 16668 H 1603.76 2.9072 0.715702 0
M  V30 16669 H 1601.31 1.3986 0.342827 0
M  V30 16670 H 1603.26 2.79891 3.15022 0
M  V30 16671 H 1601.98 1.59272 2.85132 0
M  V30 16672 H 1600.64 3.30679 1.58263 0
M  V30 16673 H 1600.29 2.99749 4.0393 0
M  V30 16674 H 1599.99 4.68353 3.5485 0
M  V30 16675 H 1601.51 4.25679 4.37755 0
M  V30 16676 H 1602.93 5.23851 2.32922 0
M  V30 16677 H 1601.33 5.74804 1.72395 0
M  V30 16678 H 1602.4 4.80197 0.67368 0
M  V30 16679 N 1603.74 -0.364395 1.53329 0
M  V30 16680 C 1604.98 -1.10855 1.6982 0
M  V30 16681 C 1605.32 -1.88931 0.449291 0
M  V30 16682 O 1604.59 -1.8646 -0.553437 0
M  V30 16683 C 1604.88 -2.06681 2.94881 0
M  V30 16684 C 1604.73 -1.32206 4.29932 0
M  V30 16685 C 1606.05 -3.06788 3.15546 0
M  V30 16686 H 1603.17 -0.401626 0.617953 0
M  V30 16687 H 1605.81 -0.389244 1.8597 0
M  V30 16688 H 1603.96 -2.68019 2.81244 0
M  V30 16689 H 1605.63 -0.73642 4.55384 0
M  V30 16690 H 1603.87 -0.623916 4.2929 0
M  V30 16691 H 1604.54 -2.0235 5.13574 0
M  V30 16692 H 1607.02 -2.55554 3.28377 0
M  V30 16693 H 1605.9 -3.71059 4.04483 0
M  V30 16694 H 1606.16 -3.77023 2.3088 0
M  V30 16695 N 1605.22 -1.44709 -0.62426 0
M  V30 16696 C 1606.63 -1.42523 -1.20599 0
M  V30 16697 C 1606.98 -0.144129 -1.9567 0
M  V30 16698 O 1606.1 0.755175 -2.02796 0
M  V30 16699 C 1606.7 -2.58194 -2.19365 0
M  V30 16700 C 1605.26 -2.59181 -2.72951 0
M  V30 16701 C 1604.4 -2.34461 -1.48065 0
M  V30 16702 H 1607.36 -1.5319 -0.414532 0
M  V30 16703 H 1607.38 -2.3134 -3.02096 0
M  V30 16704 H 1606.89 -3.5142 -1.64699 0
M  V30 16705 H 1604.99 -1.69916 -3.31601 0
M  V30 16706 H 1605.1 -3.57884 -3.18521 0
M  V30 16707 H 1603.47 -1.83688 -1.76439 0
M  V30 16708 H 1604.25 -3.2981 -0.952918 0
M  V30 16709 N 1606.69 0.865285 -1.31722 0
M  V30 16710 C 1607.6 2.00542 -1.21738 0
M  V30 16711 C 1608.62 1.7349 -0.133124 0
M  V30 16712 O 1609.8 1.98303 -0.351809 0
M  V30 16713 C 1606.86 3.33993 -0.930045 0
M  V30 16714 C 1605.92 3.74337 -2.10167 0
M  V30 16715 C 1605.16 5.0142 -1.82795 0
M  V30 16716 O 1605.38 5.65242 -0.765345 0
M  V30 16717 O 1604.31 5.38642 -2.68604 0
M  V30 16718 H 1608.14 2.11898 -2.17561 0
M  V30 16719 H 1605.72 0.994313 -1.11507 0
M  V30 16720 H 1607.61 4.14008 -0.785846 0
M  V30 16721 H 1606.28 3.237 -0.00188642 0
M  V30 16722 H 1605.19 2.94943 -2.3013 0
M  V30 16723 H 1606.52 3.89261 -3.01225 0
M  V30 16724 N 1608.17 1.14759 1.0802 0
M  V30 16725 C 1609.08 0.851934 2.18585 0
M  V30 16726 C 1610.1 -0.16914 1.73176 0
M  V30 16727 O 1611.27 0.00330114 2.014 0
M  V30 16728 C 1608.34 0.337977 3.45049 0
M  V30 16729 C 1607.4 1.4221 4.05061 0
M  V30 16730 C 1606.63 0.932574 5.25489 0
M  V30 16731 O 1606.86 -0.224457 5.69958 0
M  V30 16732 O 1605.79 1.7133 5.77001 0
M  V30 16733 H 1609.62 1.77605 2.46354 0
M  V30 16734 H 1607.2 0.926159 1.17229 0
M  V30 16735 H 1609.08 0.0574734 4.21361 0
M  V30 16736 H 1607.76 -0.558363 3.18848 0
M  V30 16737 H 1606.67 1.75612 3.3032 0
M  V30 16738 H 1608 2.29311 4.3552 0
M  V30 16739 N 1609.65 -1.26251 0.943322 0
M  V30 16740 C 1610.88 -1.97739 0.608852 0
M  V30 16741 C 1611.29 -1.70225 -0.81663 0
M  V30 16742 O 1610.65 -0.97172 -1.54479 0
M  V30 16743 C 1610.7 -3.51505 0.844172 0
M  V30 16744 O 1610.42 -3.78063 2.21359 0
M  V30 16745 C 1611.92 -4.40233 0.52054 0
M  V30 16746 H 1609.14 -0.630619 0.229262 0
M  V30 16747 H 1611.69 -1.6071 1.26461 0
M  V30 16748 H 1609.84 -3.86687 0.23499 0
M  V30 16749 H 1610.26 -4.72582 2.27523 0
M  V30 16750 H 1611.73 -5.47074 0.735802 0
M  V30 16751 H 1612.21 -4.35811 -0.544541 0
M  V30 16752 H 1612.81 -4.10599 1.10854 0
M  V30 16753 N 1611.13 -0.710588 -1.40671 0
M  V30 16754 C 1612.54 -0.320926 -1.83921 0
M  V30 16755 C 1612.89 1.14358 -1.59426 0
M  V30 16756 O 1612.02 1.87952 -1.07252 0
M  V30 16757 C 1612.61 -0.5757 -3.33873 0
M  V30 16758 C 1611.17 -0.239799 -3.75635 0
M  V30 16759 C 1610.32 -0.850552 -2.63934 0
M  V30 16760 H 1613.27 -0.910118 -1.3001 0
M  V30 16761 H 1613.29 0.160707 -3.8016 0
M  V30 16762 H 1612.8 -1.64166 -3.51669 0
M  V30 16763 H 1610.9 0.821297 -3.63436 0
M  V30 16764 H 1611.02 -0.705306 -4.7388 0
M  V30 16765 H 1609.38 -0.278977 -2.53168 0
M  V30 16766 H 1610.16 -1.92068 -2.84543 0
M  V30 16767 N 1612.61 1.50847 -0.456408 0
M  V30 16768 C 1613.85 2.02534 0.103772 0
M  V30 16769 C 1614.19 1.33874 1.40682 0
M  V30 16770 O 1613.46 0.459695 1.8899 0
M  V30 16771 C 1613.74 3.58825 0.302817 0
M  V30 16772 C 1613.6 4.38077 -1.02022 0
M  V30 16773 C 1614.92 4.27044 1.06404 0
M  V30 16774 H 1612.04 0.736108 0.0362398 0
M  V30 16775 H 1614.68 1.80306 -0.599134 0
M  V30 16776 H 1612.83 3.77895 0.901542 0
M  V30 16777 H 1614.5 4.30613 -1.6544 0
M  V30 16778 H 1612.74 4.02401 -1.62036 0
M  V30 16779 H 1613.41 5.45652 -0.834766 0
M  V30 16780 H 1615.89 4.12359 0.556698 0
M  V30 16781 H 1614.77 5.3624 1.17209 0
M  V30 16782 H 1615.03 3.89204 2.09697 0
M  V30 16783 N 1614.09 0.188454 1.56469 0
M  V30 16784 C 1615 -0.747176 2.22384 0
M  V30 16785 C 1616.01 -1.23985 1.22081 0
M  V30 16786 O 1617.19 -1.2884 1.54797 0
M  V30 16787 C 1614.25 -1.95228 2.86508 0
M  V30 16788 C 1613.31 -1.50482 4.02062 0
M  V30 16789 C 1612.55 -2.65248 4.63119 0
M  V30 16790 O 1612.77 -3.8256 4.23088 0
M  V30 16791 O 1611.7 -2.38341 5.527 0
M  V30 16792 H 1615.53 -0.215857 3.02932 0
M  V30 16793 H 1613.11 -0.0405356 1.49345 0
M  V30 16794 H 1615 -2.65673 3.27103 0
M  V30 16795 H 1613.67 -2.47233 2.08944 0
M  V30 16796 H 1612.58 -0.769365 3.66103 0
M  V30 16797 H 1613.91 -1.03151 4.8127 0
M  V30 16798 N 1615.56 -1.5737 -0.0851874 0
M  V30 16799 C 1616.53 -2.01789 -1.08692 0
M  V30 16800 C 1617.53 -0.912872 -1.32376 0
M  V30 16801 O 1618.72 -1.1781 -1.28322 0
M  V30 16802 C 1615.85 -2.38708 -2.43375 0
M  V30 16803 H 1617.04 -2.91511 -0.704359 0
M  V30 16804 H 1614.59 -1.52765 -0.330528 0
M  V30 16805 H 1615.33 -1.5197 -2.86488 0
M  V30 16806 H 1615.11 -3.19331 -2.2753 0
M  V30 16807 H 1616.6 -2.73697 -3.15404 0
M  V30 16808 N 1617.04 0.356258 -1.53521 0
M  V30 16809 C 1618.45 0.932569 -1.61741 0
M  V30 16810 C 1618.8 1.89965 -0.490677 0
M  V30 16811 O 1617.93 2.1301 0.381514 0
M  V30 16812 C 1618.52 1.69818 -2.93168 0
M  V30 16813 C 1617.08 2.22369 -3.03692 0
M  V30 16814 C 1616.23 1.03891 -2.57103 0
M  V30 16815 H 1619.18 0.134769 -1.58127 0
M  V30 16816 H 1619.2 2.56011 -2.81494 0
M  V30 16817 H 1618.71 0.994065 -3.75153 0
M  V30 16818 H 1616.81 2.95994 -2.26314 0
M  V30 16819 H 1616.93 2.49611 -4.08939 0
M  V30 16820 H 1615.29 1.40862 -2.12202 0
M  V30 16821 H 1616.07 0.349637 -3.41515 0
M  V30 16822 N 1618.52 1.45038 0.616577 0
M  V30 16823 C 1619.48 1.52647 1.70973 0
M  V30 16824 C 1620.48 0.406902 1.55567 0
M  V30 16825 O 1621.67 0.670062 1.60797 0
M  V30 16826 C 1618.8 1.41438 3.10174 0
M  V30 16827 H 1620 2.50036 1.65596 0
M  V30 16828 H 1617.55 1.32346 0.831524 0
M  V30 16829 H 1618.29 0.451991 3.21135 0
M  V30 16830 H 1618.07 2.22634 3.22764 0
M  V30 16831 H 1619.56 1.49776 3.89817 0
M  V30 16832 N 1620 -0.858287 1.32179 0
M  V30 16833 C 1621.41 -1.4281 1.20259 0
M  V30 16834 C 1621.76 -1.95313 -0.186332 0
M  V30 16835 O 1620.88 -1.87244 -1.08484 0
M  V30 16836 C 1621.48 -2.59589 2.17713 0
M  V30 16837 C 1620.04 -3.1258 2.09691 0
M  V30 16838 C 1619.19 -1.85317 2.06283 0
M  V30 16839 H 1622.14 -0.665769 1.4406 0
M  V30 16840 H 1622.16 -3.36639 1.77354 0
M  V30 16841 H 1621.67 -2.21346 3.18791 0
M  V30 16842 H 1619.77 -3.55416 1.11849 0
M  V30 16843 H 1619.88 -3.74071 2.99346 0
M  V30 16844 H 1618.25 -2.04766 1.51469 0
M  V30 16845 H 1619.03 -1.49296 3.09137 0
M  V30 16846 N 1621.48 -1.1533 -1.07409 0
M  V30 16847 C 1622.89 -0.937287 -1.61468 0
M  V30 16848 C 1623.24 0.521545 -1.89141 0
M  V30 16849 O 1622.36 1.39253 -1.65643 0
M  V30 16850 C 1622.96 -1.69501 -2.93351 0
M  V30 16851 C 1621.52 -1.52429 -3.44154 0
M  V30 16852 C 1620.66 -1.71098 -2.18222 0
M  V30 16853 H 1623.61 -1.30364 -0.905044 0
M  V30 16854 H 1623.64 -1.16416 -3.62253 0
M  V30 16855 H 1623.15 -2.75672 -2.73178 0
M  V30 16856 H 1621.25 -0.486498 -3.6941 0
M  V30 16857 H 1621.36 -2.30089 -4.20233 0
M  V30 16858 H 1619.73 -1.13745 -2.27891 0
M  V30 16859 H 1620.51 -2.78634 -2.00545 0
M  V30 16860 N 1622.95 1.25748 -0.950004 0
M  V30 16861 C 1624.36 1.75253 -0.643694 0
M  V30 16862 C 1624.72 1.77261 0.841017 0
M  V30 16863 O 1623.84 1.39043 1.65819 0
M  V30 16864 C 1624.44 3.1826 -1.16173 0
M  V30 16865 C 1622.99 3.65342 -0.905672 0
M  V30 16866 C 1622.14 2.4454 -1.30749 0
M  V30 16867 H 1625.09 1.117 -1.12733 0
M  V30 16868 H 1625.11 3.76935 -0.519651 0
M  V30 16869 H 1624.63 3.16766 -2.24234 0
M  V30 16870 H 1622.73 3.72256 0.160174 0
M  V30 16871 H 1622.84 4.53713 -1.53888 0
M  V30 16872 H 1621.2 2.44138 -0.725876 0
M  V30 16873 H 1621.99 2.45741 -2.39721 0
M  V30 16874 N 1624.43 0.718038 1.40292 0
M  V30 16875 C 1625.39 0.0757483 2.29075 0
M  V30 16876 C 1626.39 -0.684831 1.45488 0
M  V30 16877 O 1627.58 -0.516369 1.66371 0
M  V30 16878 C 1624.72 -0.902534 3.28736 0
M  V30 16879 H 1625.91 0.857729 2.87373 0
M  V30 16880 H 1623.46 0.482839 1.48655 0
M  V30 16881 H 1624.2 -1.71148 2.75461 0
M  V30 16882 H 1623.98 -0.360009 3.90444 0
M  V30 16883 H 1625.47 -1.34903 3.9521 0
M  V30 16884 N 1625.91 -1.50602 0.464402 0
M  V30 16885 C 1626.82 -2.32142 -0.338721 0
M  V30 16886 C 1627.84 -1.4223 -1.00233 0
M  V30 16887 O 1629.01 -1.75288 -0.99177 0
M  V30 16888 C 1626.08 -3.16725 -1.41019 0
M  V30 16889 C 1625.14 -4.22449 -0.76388 0
M  V30 16890 C 1624.37 -5.0299 -1.78429 0
M  V30 16891 O 1624.59 -4.84516 -3.00999 0
M  V30 16892 O 1623.53 -5.86338 -1.35982 0
M  V30 16893 H 1627.35 -3.01927 0.327695 0
M  V30 16894 H 1624.94 -1.47675 0.226379 0
M  V30 16895 H 1626.82 -3.69228 -2.03097 0
M  V30 16896 H 1625.5 -2.49675 -2.06019 0
M  V30 16897 H 1624.4 -3.73955 -0.104318 0
M  V30 16898 H 1625.74 -4.9195 -0.156929 0
M  V30 16899 N 1627.39 -0.19675 -1.56367 0
M  V30 16900 C 1628.35 0.709734 -2.17934 0
M  V30 16901 C 1629.35 1.13979 -1.13426 0
M  V30 16902 O 1630.54 1.05261 -1.38801 0
M  V30 16903 C 1627.67 1.96917 -2.78274 0
M  V30 16904 H 1628.87 0.173342 -2.99399 0
M  V30 16905 H 1626.42 0.0528698 -1.56211 0
M  V30 16906 H 1627.15 2.54804 -2.00613 0
M  V30 16907 H 1626.94 1.66951 -3.54781 0
M  V30 16908 H 1628.43 2.61554 -3.25545 0
M  V30 16909 N 1628.87 1.57413 0.0768405 0
M  V30 16910 C 1630.28 1.75776 0.629262 0
M  V30 16911 C 1630.63 0.821502 1.78173 0
M  V30 16912 O 1629.75 0.00437198 2.164 0
M  V30 16913 C 1630.35 3.18747 1.14828 0
M  V30 16914 C 1628.91 3.38472 1.64661 0
M  V30 16915 C 1628.05 2.71506 0.563884 0
M  V30 16916 H 1631.01 1.57996 -0.149312 0
M  V30 16917 H 1631.03 3.22628 2.01722 0
M  V30 16918 H 1630.54 3.86866 0.309282 0
M  V30 16919 H 1628.64 2.75461 2.50903 0
M  V30 16920 H 1628.75 4.4689 1.72703 0
M  V30 16921 H 1627.12 2.33917 1.00772 0
M  V30 16922 H 1627.9 3.42277 -0.264847 0
M  V30 16923 N 1630.34 -0.348112 1.53707 0
M  V30 16924 C 1631.31 -1.41018 1.80683 0
M  V30 16925 C 1632.31 -1.4582 0.67774 0
M  V30 16926 O 1633.5 -1.46275 0.94601 0
M  V30 16927 C 1630.63 -2.79988 1.94473 0
M  V30 16928 H 1631.82 -1.18365 2.75554 0
M  V30 16929 H 1629.38 -0.582244 1.4505 0
M  V30 16930 H 1630.11 -3.07931 1.0173 0
M  V30 16931 H 1629.9 -2.77899 2.76612 0
M  V30 16932 H 1631.39 -3.56868 2.16876 0
M  V30 16933 N 1631.82 -1.45363 -0.608876 0
M  V30 16934 C 1632.75 -1.49944 -1.73348 0
M  V30 16935 C 1633.77 -0.390352 -1.58051 0
M  V30 16936 O 1634.96 -0.657338 -1.65956 0
M  V30 16937 C 1632.06 -1.33886 -3.11332 0
M  V30 16938 C 1631.23 -2.58445 -3.52881 0
M  V30 16939 C 1630.29 -2.36963 -4.69825 0
M  V30 16940 O 1629.31 -3.10569 -4.77007 0
M  V30 16941 N 1630.52 -1.41442 -5.63005 0
M  V30 16942 H 1633.28 -2.46902 -1.69882 0
M  V30 16943 H 1630.84 -1.41086 -0.794119 0
M  V30 16944 H 1632.83 -1.17327 -3.8732 0
M  V30 16945 H 1631.4 -0.452095 -3.09314 0
M  V30 16946 H 1630.62 -2.90129 -2.66869 0
M  V30 16947 H 1631.91 -3.41245 -3.77398 0
M  V30 16948 H 1631.31 -0.806941 -5.59915 0
M  V30 16949 H 1629.87 -1.30855 -6.3853 0
M  V30 16950 N 1633.3 0.851265 -1.32632 0
M  V30 16951 C 1634.53 1.63568 -1.26211 0
M  V30 16952 C 1634.94 1.8842 0.171578 0
M  V30 16953 O 1634.28 1.45592 1.12021 0
M  V30 16954 C 1634.34 3.01653 -1.95566 0
M  V30 16955 C 1634.01 2.99827 -3.44896 0
M  V30 16956 C 1635 2.76431 -4.4032 0
M  V30 16957 C 1632.69 3.20355 -3.86883 0
M  V30 16958 C 1634.68 2.73572 -5.75706 0
M  V30 16959 C 1632.37 3.17122 -5.22376 0
M  V30 16960 C 1633.37 2.9376 -6.16599 0
M  V30 16961 O 1633.06 2.90408 -7.49612 0
M  V30 16962 H 1632.79 0.516079 -0.436622 0
M  V30 16963 H 1635.34 1.06941 -1.75365 0
M  V30 16964 H 1633.57 3.60083 -1.40986 0
M  V30 16965 H 1635.26 3.62403 -1.82809 0
M  V30 16966 H 1636.03 2.60335 -4.09208 0
M  V30 16967 H 1631.91 3.37563 -3.13962 0
M  V30 16968 H 1635.45 2.55257 -6.49222 0
M  V30 16969 H 1631.35 3.32764 -5.53117 0
M  V30 16970 H 1632.12 3.06338 -7.59012 0
M  V30 16971 N 1634.78 1.15898 1.06796 0
M  V30 16972 C 1636.19 0.945837 1.60968 0
M  V30 16973 C 1636.54 -0.511507 1.89415 0
M  V30 16974 O 1635.67 -1.38372 1.66379 0
M  V30 16975 C 1636.26 1.71054 2.92448 0
M  V30 16976 C 1634.82 1.54252 3.43341 0
M  V30 16977 C 1633.97 1.72253 2.17311 0
M  V30 16978 H 1636.92 1.30842 0.898118 0
M  V30 16979 H 1636.94 1.18336 3.61631 0
M  V30 16980 H 1636.45 2.77117 2.71712 0
M  V30 16981 H 1634.55 0.506082 3.69147 0
M  V30 16982 H 1634.66 2.32314 4.19007 0
M  V30 16983 H 1633.03 1.14952 2.27284 0
M  V30 16984 H 1633.81 2.79693 1.99064 0
M  V30 16985 N 1636.26 -1.25243 0.956659 0
M  V30 16986 C 1637.48 -1.97621 0.629337 0
M  V30 16987 C 1637.91 -1.70606 -0.792158 0
M  V30 16988 O 1637.26 -0.963192 -1.53598 0
M  V30 16989 C 1637.31 -3.49273 0.896687 0
M  V30 16990 O 1636.42 -4.12393 -0.0234986 0
M  V30 16991 H 1635.76 -0.619472 0.239061 0
M  V30 16992 H 1638.29 -1.5931 1.28381 0
M  V30 16993 H 1638.3 -3.99597 0.82377 0
M  V30 16994 H 1636.97 -3.68265 1.93271 0
M  V30 16995 H 1635.55 -3.72761 0.101796 0
M  V30 16996 N 1637.73 -0.725468 -1.3991 0
M  V30 16997 C 1638.64 -0.0805887 -2.34462 0
M  V30 16998 C 1639.66 0.732689 -1.57822 0
M  V30 16999 O 1640.84 0.663362 -1.90162 0
M  V30 17000 C 1637.9 0.822908 -3.36792 0
M  V30 17001 C 1636.96 -0.00153812 -4.293 0
M  V30 17002 C 1636.2 0.85893 -5.26743 0
M  V30 17003 O 1636.42 2.09793 -5.30418 0
M  V30 17004 O 1635.35 0.292659 -6.01188 0
M  V30 17005 H 1639.18 -0.860746 -2.91247 0
M  V30 17006 H 1636.76 -0.48604 -1.41273 0
M  V30 17007 H 1638.65 1.34014 -3.99522 0
M  V30 17008 H 1637.32 1.58204 -2.82406 0
M  V30 17009 H 1636.23 -0.564072 -3.69823 0
M  V30 17010 H 1637.56 -0.722675 -4.86866 0
M  V30 17011 N 1639.21 1.50354 -0.472382 0
M  V30 17012 C 1640.16 2.25454 0.339784 0
M  V30 17013 C 1641.15 1.29097 0.960352 0
M  V30 17014 O 1642.34 1.53991 0.872688 0
M  V30 17015 C 1639.47 3.12535 1.42045 0
M  V30 17016 C 1638.55 4.1634 0.807552 0
M  V30 17017 N 1638.94 5.05747 -0.0729066 0
M  V30 17018 C 1637.24 4.32941 1.07135 0
M  V30 17019 C 1637.94 5.80175 -0.420868 0
M  V30 17020 N 1636.92 5.43216 0.204266 0
M  V30 17021 H 1640.72 2.91945 -0.338451 0
M  V30 17022 H 1638.24 1.59851 -0.286612 0
M  V30 17023 H 1640.23 3.64944 2.01548 0
M  V30 17024 H 1638.89 2.47593 2.10067 0
M  V30 17025 H 1639.9 5.16012 -0.441825 0
M  V30 17026 H 1636.58 3.79217 1.74645 0
M  V30 17027 H 1637.97 6.62167 -1.13948 0
M  V30 17028 N 1640.69 0.205039 1.56261 0
M  V30 17029 C 1641.62 -0.706815 2.22545 0
M  V30 17030 C 1642.6 -1.21372 1.19176 0
M  V30 17031 O 1643.79 -1.26074 1.47712 0
M  V30 17032 C 1640.92 -1.92221 2.89255 0
M  V30 17033 C 1639.87 -1.54982 3.98954 0
M  V30 17034 C 1639.2 -2.84265 4.52877 0
M  V30 17035 C 1640.5 -0.75225 5.16854 0
M  V30 17036 H 1642.19 -0.15421 2.99003 0
M  V30 17037 H 1639.74 -0.0727309 1.43816 0
M  V30 17038 H 1641.69 -2.56542 3.34311 0
M  V30 17039 H 1640.41 -2.49952 2.10218 0
M  V30 17040 H 1639.07 -0.930155 3.54604 0
M  V30 17041 H 1638.72 -3.40105 3.70591 0
M  V30 17042 H 1638.42 -2.60089 5.26904 0
M  V30 17043 H 1639.95 -3.49557 5.00642 0
M  V30 17044 H 1641.36 -1.29878 5.58395 0
M  V30 17045 H 1639.76 -0.60823 5.9701 0
M  V30 17046 H 1640.83 0.24463 4.84283 0
M  V30 17047 N 1642.17 -1.57451 -0.0684915 0
M  V30 17048 C 1643.42 -1.86595 -0.765856 0
M  V30 17049 C 1643.73 -0.798157 -1.78574 0
M  V30 17050 O 1644.94 -0.977541 -2.53291 0
M  V30 17051 C 1643.39 -3.31001 -1.41302 0
M  V30 17052 C 1643 -4.45917 -0.431528 0
M  V30 17053 C 1644.75 -3.6934 -2.09256 0
M  V30 17054 C 1642.65 -5.81366 -1.08479 0
M  V30 17055 H 1641.58 -0.696092 -0.289778 0
M  V30 17056 H 1644.23 -1.8349 -0.0192171 0
M  V30 17057 H 1642.62 -3.28728 -2.20803 0
M  V30 17058 H 1643.79 -4.59589 0.333913 0
M  V30 17059 H 1642.1 -4.16152 0.143743 0
M  V30 17060 H 1644.7 -4.67833 -2.58913 0
M  V30 17061 H 1645.04 -2.99308 -2.89344 0
M  V30 17062 H 1645.58 -3.73618 -1.36581 0
M  V30 17063 H 1642.32 -6.54698 -0.324162 0
M  V30 17064 H 1641.84 -5.71488 -1.82102 0
M  V30 17065 H 1643.52 -6.26811 -1.60367 0
M  V30 17066 N 1643.65 0.339955 -1.5389 0
M  V30 17067 C 1644.58 1.43837 -1.78448 0
M  V30 17068 C 1645.59 1.48559 -0.665885 0
M  V30 17069 O 1646.78 1.51577 -0.942686 0
M  V30 17070 C 1643.88 2.82474 -1.87248 0
M  V30 17071 C 1643.05 3.01149 -3.17219 0
M  V30 17072 C 1642.11 4.20049 -3.16931 0
M  V30 17073 O 1641.14 4.13994 -3.90638 0
M  V30 17074 N 1642.34 5.28767 -2.39553 0
M  V30 17075 H 1645.11 1.2314 -2.73234 0
M  V30 17076 H 1642.67 0.529855 -1.52984 0
M  V30 17077 H 1644.66 3.60196 -1.84502 0
M  V30 17078 H 1643.23 2.96297 -0.996322 0
M  V30 17079 H 1642.45 2.10867 -3.3306 0
M  V30 17080 H 1643.74 3.10511 -4.03063 0
M  V30 17081 H 1643.14 5.36557 -1.79228 0
M  V30 17082 H 1641.69 6.04969 -2.42601 0
M  V30 17083 N 1645.13 1.45684 0.601159 0
M  V30 17084 C 1646.09 1.54451 1.69344 0
M  V30 17085 C 1647.09 0.423379 1.55126 0
M  V30 17086 O 1648.28 0.687079 1.60078 0
M  V30 17087 C 1645.41 1.4472 3.08657 0
M  V30 17088 H 1646.6 2.51778 1.62935 0
M  V30 17089 H 1644.16 1.3322 0.81744 0
M  V30 17090 H 1644.89 0.486027 3.20637 0
M  V30 17091 H 1644.68 2.26045 3.20384 0
M  V30 17092 H 1646.17 1.53902 3.88206 0
M  V30 17093 N 1646.6 -0.84422 1.33082 0
M  V30 17094 C 1647.83 -1.63133 1.27261 0
M  V30 17095 C 1648.25 -1.88142 -0.157479 0
M  V30 17096 O 1647.6 -1.4578 -1.09793 0
M  V30 17097 C 1647.65 -2.98462 2.03967 0
M  V30 17098 O 1647.38 -2.74555 3.41396 0
M  V30 17099 C 1648.88 -3.92899 2.05293 0
M  V30 17100 H 1646.1 -0.507769 0.438647 0
M  V30 17101 H 1648.64 -1.05194 1.75369 0
M  V30 17102 H 1646.8 -3.53017 1.59554 0
M  V30 17103 H 1647.21 -3.60694 3.80789 0
M  V30 17104 H 1648.68 -4.85088 2.63427 0
M  V30 17105 H 1649.16 -4.26665 1.04183 0
M  V30 17106 H 1649.77 -3.44281 2.49701 0
M  V30 17107 N 1648.08 -1.16463 -1.0618 0
M  V30 17108 C 1649.31 -0.97159 -1.83235 0
M  V30 17109 C 1649.73 0.475295 -1.81996 0
M  V30 17110 O 1649.09 1.33964 -1.22161 0
M  V30 17111 C 1649.14 -1.50504 -3.2769 0
M  V30 17112 O 1648.24 -0.712128 -4.06205 0
M  V30 17113 H 1647.58 -0.345676 -0.566925 0
M  V30 17114 H 1650.11 -1.54727 -1.33868 0
M  V30 17115 H 1650.12 -1.52301 -3.78508 0
M  V30 17116 H 1648.8 -2.55832 -3.27907 0
M  V30 17117 H 1647.37 -0.764756 -3.64974 0
M  V30 17118 N 1649.56 1.24734 -0.963288 0
M  V30 17119 C 1650.47 2.29268 -0.497316 0
M  V30 17120 C 1651.49 1.68356 0.439572 0
M  V30 17121 O 1652.66 1.98942 0.313697 0
M  V30 17122 C 1649.73 3.46068 0.209261 0
M  V30 17123 C 1648.79 4.22394 -0.766907 0
M  V30 17124 C 1648.02 5.33617 -0.0939542 0
M  V30 17125 O 1648.24 5.59323 1.11864 0
M  V30 17126 O 1647.18 5.96774 -0.78388 0
M  V30 17127 H 1651 2.71235 -1.36622 0
M  V30 17128 H 1648.59 1.30344 -0.730126 0
M  V30 17129 H 1650.47 4.17015 0.606367 0
M  V30 17130 H 1649.15 3.06087 1.0532 0
M  V30 17131 H 1648.05 3.53841 -1.21439 0
M  V30 17132 H 1649.39 4.66181 -1.57912 0
M  V30 17133 N 1651.04 0.732878 1.39523 0
M  V30 17134 C 1651.95 0.0930216 2.34416 0
M  V30 17135 C 1652.96 -0.724309 1.58208 0
M  V30 17136 O 1654.14 -0.653267 1.90511 0
M  V30 17137 C 1651.2 -0.805036 3.37224 0
M  V30 17138 C 1650.27 0.0243049 4.29293 0
M  V30 17139 C 1649.5 -0.830984 5.27191 0
M  V30 17140 O 1649.72 -2.06977 5.31523 0
M  V30 17141 O 1648.66 -0.260772 6.01335 0
M  V30 17142 H 1652.48 0.876179 2.90786 0
M  V30 17143 H 1650.07 0.493525 1.41013 0
M  V30 17144 H 1651.95 -1.31894 4.00228 0
M  V30 17145 H 1650.62 -1.56704 2.83241 0
M  V30 17146 H 1649.53 0.583677 3.69519 0
M  V30 17147 H 1650.86 0.748485 4.86476 0
M  V30 17148 N 1652.52 -1.50101 0.480349 0
M  V30 17149 C 1653.46 -2.30347 -0.322924 0
M  V30 17150 C 1654.46 -1.3804 -0.981904 0
M  V30 17151 O 1655.66 -1.55188 -0.91195 0
M  V30 17152 H 1652.04 -0.741875 -0.122985 0
M  V30 17153 H 1654.01 -2.96045 0.374155 0
M  V30 17154 C 1652.76 -3.18844 -1.38686 0
M  V30 17155 H 1652.08 -3.89787 -0.889181 0
M  V30 17156 H 1653.52 -3.77971 -1.9213 0
M  V30 17157 C 1651.98 -2.37058 -2.39385 0
M  V30 17158 O 1652.51 -2.06016 -3.44848 0
M  V30 17159 N 1650.72 -1.99465 -2.11334 0
M  V30 17160 H 1650.26 -2.24909 -1.25593 0
M  V30 17161 H 1650.22 -1.45048 -2.78942 0
M  V30 17162 N 1653.99 -0.213323 -1.5615 0
M  V30 17163 C 1654.93 0.732346 -2.17185 0
M  V30 17164 C 1655.94 1.16357 -1.13864 0
M  V30 17165 O 1657.13 1.09614 -1.40879 0
M  V30 17166 C 1654.23 2.0027 -2.73395 0
M  V30 17167 C 1653.4 1.72836 -4.01804 0
M  V30 17168 C 1652.46 2.84497 -4.4266 0
M  V30 17169 O 1651.49 2.5332 -5.09723 0
M  V30 17170 N 1652.69 4.13268 -4.07663 0
M  V30 17171 H 1655.45 0.210294 -2.98961 0
M  V30 17172 H 1653.01 -0.0320124 -1.61868 0
M  V30 17173 H 1655.01 2.74145 -2.97702 0
M  V30 17174 H 1653.58 2.43546 -1.9597 0
M  V30 17175 H 1652.8 0.826474 -3.85439 0
M  V30 17176 H 1654.08 1.51928 -4.85588 0
M  V30 17177 H 1653.48 4.41444 -3.53756 0
M  V30 17178 H 1652.04 4.83713 -4.36881 0
M  V30 17179 N 1655.47 1.57485 0.0601405 0
M  V30 17180 C 1656.72 1.86998 0.75595 0
M  V30 17181 C 1657.03 0.807616 1.78149 0
M  V30 17182 O 1658.24 0.99096 2.52769 0
M  V30 17183 C 1656.7 3.31746 1.39545 0
M  V30 17184 C 1656.3 4.46139 0.407874 0
M  V30 17185 C 1658.05 3.70445 2.07294 0
M  V30 17186 C 1655.96 5.81933 1.05395 0
M  V30 17187 H 1654.89 0.697619 0.286083 0
M  V30 17188 H 1657.54 1.83498 0.00948593 0
M  V30 17189 H 1655.92 3.29894 2.19057 0
M  V30 17190 H 1657.09 4.59405 -0.358281 0
M  V30 17191 H 1655.41 4.1607 -0.16581 0
M  V30 17192 H 1658 4.692 2.56428 0
M  V30 17193 H 1658.35 3.00839 2.87753 0
M  V30 17194 H 1658.88 3.74337 1.34598 0
M  V30 17195 H 1655.62 6.54861 0.289437 0
M  V30 17196 H 1655.14 5.72446 1.79068 0
M  V30 17197 H 1656.82 6.27652 1.5704 0
M  V30 17198 N 1656.95 -0.331789 1.54068 0
M  V30 17199 C 1658.36 -0.906719 1.63204 0
M  V30 17200 C 1658.71 -1.89161 0.520837 0
M  V30 17201 O 1657.84 -2.1359 -0.347577 0
M  V30 17202 C 1658.43 -1.65132 2.95832 0
M  V30 17203 C 1656.99 -2.17509 3.07192 0
M  V30 17204 C 1656.14 -0.99788 2.58723 0
M  V30 17205 H 1659.09 -0.109595 1.58321 0
M  V30 17206 H 1659.11 -2.515 2.85531 0
M  V30 17207 H 1658.62 -0.934255 3.76687 0
M  V30 17208 H 1656.72 -2.92356 2.30995 0
M  V30 17209 H 1656.84 -2.43074 4.12858 0
M  V30 17210 H 1655.2 -1.37469 2.14417 0
M  V30 17211 H 1655.98 -0.295261 3.42028 0
M  V30 17212 N 1658.43 -1.46001 -0.593424 0
M  V30 17213 C 1659.65 -1.54541 -1.38318 0
M  V30 17214 C 1660.08 -0.183555 -1.87202 0
M  V30 17215 O 1659.44 0.834407 -1.60958 0
M  V30 17216 C 1659.48 -2.54559 -2.55405 0
M  V30 17217 O 1658.59 -2.07321 -3.56499 0
M  V30 17218 H 1657.93 -0.520434 -0.412364 0
M  V30 17219 H 1660.46 -1.9148 -0.720862 0
M  V30 17220 H 1660.47 -2.73823 -3.02465 0
M  V30 17221 H 1659.14 -3.53461 -2.19176 0
M  V30 17222 H 1657.72 -1.97997 -3.15993 0
M  V30 17223 N 1659.91 0.83715 -1.33527 0
M  V30 17224 C 1660.86 1.93561 -1.20491 0
M  V30 17225 C 1661.84 1.60541 -0.107395 0
M  V30 17226 O 1663.03 1.73788 -0.335663 0
M  V30 17227 C 1660.16 3.2995 -0.948055 0
M  V30 17228 C 1659.25 3.69134 -2.08809 0
M  V30 17229 N 1659.64 3.79998 -3.33819 0
M  V30 17230 C 1657.94 3.98885 -1.99516 0
M  V30 17231 C 1658.64 4.14031 -4.08599 0
M  V30 17232 N 1657.61 4.26492 -3.37055 0
M  V30 17233 H 1661.42 2.00119 -2.15243 0
M  V30 17234 H 1658.93 1.02997 -1.2556 0
M  V30 17235 H 1660.93 4.0844 -0.835589 0
M  V30 17236 H 1659.59 3.24699 -0.00907808 0
M  V30 17237 H 1660.6 3.6386 -3.68546 0
M  V30 17238 H 1657.27 4.01836 -1.13289 0
M  V30 17239 H 1658.66 4.29759 -5.16485 0
M  V30 17240 N 1661.38 1.17024 1.05561 0
M  V30 17241 C 1662.31 0.906823 2.15172 0
M  V30 17242 C 1663.3 -0.149745 1.6944 0
M  V30 17243 O 1664.48 -0.000287092 1.942 0
M  V30 17244 C 1661.61 0.415251 3.44809 0
M  V30 17245 C 1660.56 1.41058 4.04088 0
M  V30 17246 C 1659.89 0.777109 5.29023 0
M  V30 17247 C 1661.19 2.78258 4.42007 0
M  V30 17248 H 1662.88 1.82347 2.37466 0
M  V30 17249 H 1660.43 0.878162 1.14124 0
M  V30 17250 H 1662.38 0.218407 4.20834 0
M  V30 17251 H 1661.11 -0.536924 3.22156 0
M  V30 17252 H 1659.77 1.5941 3.30127 0
M  V30 17253 H 1659.41 -0.181784 5.02671 0
M  V30 17254 H 1659.11 1.44151 5.69644 0
M  V30 17255 H 1660.64 0.590455 6.07738 0
M  V30 17256 H 1662.05 2.63645 5.09082 0
M  V30 17257 H 1660.45 3.41241 4.93634 0
M  V30 17258 H 1661.52 3.3295 3.52523 0
M  V30 17259 N 1662.86 -1.24221 0.969889 0
M  V30 17260 C 1664.27 -1.74206 0.671494 0
M  V30 17261 C 1664.62 -1.78576 -0.81271 0
M  V30 17262 O 1663.75 -1.41664 -1.63586 0
M  V30 17263 C 1664.34 -3.16371 1.21222 0
M  V30 17264 C 1662.9 -3.63855 0.96368 0
M  V30 17265 C 1662.05 -2.42429 1.34623 0
M  V30 17266 H 1665 -1.09893 1.14496 0
M  V30 17267 H 1665.02 -3.7606 0.579552 0
M  V30 17268 H 1664.53 -3.13159 2.29245 0
M  V30 17269 H 1662.64 -3.72463 -0.100931 0
M  V30 17270 H 1662.75 -4.51207 1.61087 0
M  V30 17271 H 1661.11 -2.42952 0.764624 0
M  V30 17272 H 1661.9 -2.41896 2.436 0
M  V30 17273 N 1664.34 -0.740267 -1.39132 0
M  V30 17274 C 1665.3 -0.112183 -2.28925 0
M  V30 17275 C 1666.3 0.661598 -1.46559 0
M  V30 17276 O 1667.49 0.489835 -1.67171 0
M  V30 17277 C 1664.63 0.850121 -3.3013 0
M  V30 17278 H 1665.82 -0.903339 -2.85972 0
M  V30 17279 H 1663.37 -0.506427 -1.47868 0
M  V30 17280 H 1664.11 1.66744 -2.78149 0
M  V30 17281 H 1663.89 0.297847 -3.90967 0
M  V30 17282 H 1665.38 1.28599 -3.97306 0
M  V30 17283 N 1665.82 1.49844 -0.488302 0
M  V30 17284 C 1667.06 2.04314 0.0592245 0
M  V30 17285 C 1667.42 1.36093 1.35436 0
M  V30 17286 O 1668.62 1.81212 1.98533 0
M  V30 17287 C 1666.89 3.56714 0.221371 0
M  V30 17288 S 1668.45 4.3277 0.724976 0
M  V30 17289 H 1665.27 0.710957 0.00780581 0
M  V30 17290 H 1667.87 1.84045 -0.659373 0
M  V30 17291 H 1666.58 4.03914 -0.726746 0
M  V30 17292 H 1666.11 3.81366 0.965581 0
M  V30 17293 H 1668.12 4.54285 1.99599 0
M  V30 17294 N 1667.3 0.221601 1.56034 0
M  V30 17295 C 1668.71 -0.28624 1.84493 0
M  V30 17296 C 1669.06 -1.59469 1.14298 0
M  V30 17297 O 1668.18 -2.12429 0.412672 0
M  V30 17298 C 1668.78 -0.526128 3.3469 0
M  V30 17299 C 1667.34 -0.978278 3.63465 0
M  V30 17300 C 1666.48 -0.0413786 2.77269 0
M  V30 17301 H 1669.44 0.444792 1.52339 0
M  V30 17302 H 1669.46 -1.37212 3.54899 0
M  V30 17303 H 1668.97 0.426348 3.85751 0
M  V30 17304 H 1667.07 -1.94411 3.1786 0
M  V30 17305 H 1667.18 -0.852651 4.71452 0
M  V30 17306 H 1665.55 -0.548179 2.48731 0
M  V30 17307 H 1666.33 0.906016 3.31129 0
M  V30 17308 N 1668.77 -1.57515 -0.0517878 0
M  V30 17309 C 1670 -1.92845 -0.763249 0
M  V30 17310 C 1670.42 -0.819745 -1.69298 0
M  V30 17311 O 1669.78 0.226161 -1.79884 0
M  V30 17312 C 1669.83 -3.27189 -1.5159 0
M  V30 17313 O 1668.93 -3.17834 -2.62783 0
M  V30 17314 H 1668.28 -0.630944 -0.206896 0
M  V30 17315 H 1670.81 -2.04595 -0.0140481 0
M  V30 17316 H 1670.82 -3.61542 -1.89081 0
M  V30 17317 H 1669.49 -4.07455 -0.833871 0
M  V30 17318 H 1668.07 -2.95075 -2.28002 0
M  V30 17319 N 1670.25 0.323614 -1.54242 0
M  V30 17320 C 1671.18 1.40344 -1.86616 0
M  V30 17321 C 1672.16 1.53972 -0.722963 0
M  V30 17322 O 1673.35 1.67852 -0.976692 0
M  V30 17323 C 1670.48 2.77112 -2.09347 0
M  V30 17324 C 1669.43 2.78273 -3.25189 0
M  V30 17325 C 1668.76 4.18116 -3.33291 0
M  V30 17326 C 1670.06 2.42025 -4.6284 0
M  V30 17327 H 1671.75 1.13499 -2.77053 0
M  V30 17328 H 1669.3 0.544553 -1.33306 0
M  V30 17329 H 1671.25 3.52719 -2.3058 0
M  V30 17330 H 1669.98 3.05435 -1.1566 0
M  V30 17331 H 1668.64 2.05121 -3.03844 0
M  V30 17332 H 1668.28 4.4358 -2.37163 0
M  V30 17333 H 1667.98 4.19799 -4.11147 0
M  V30 17334 H 1669.51 4.95536 -3.56758 0
M  V30 17335 H 1670.92 3.07346 -4.83954 0
M  V30 17336 H 1669.32 2.5496 -5.43245 0
M  V30 17337 H 1670.39 1.37175 -4.65092 0
M  V30 17338 N 1671.73 1.46313 0.585673 0
M  V30 17339 C 1673.15 1.31203 0.908733 0
M  V30 17340 C 1673.35 0.281265 1.99527 0
M  V30 17341 O 1672.4 -0.317202 2.505 0
M  V30 17342 C 1673.72 2.69742 1.3289 0
M  V30 17343 C 1675.26 2.77809 1.44191 0
M  V30 17344 C 1675.74 4.16924 1.89574 0
M  V30 17345 N 1677.23 4.19327 1.96773 0
M  V30 17346 C 1677.97 5.23856 2.33157 0
M  V30 17347 N 1677.46 6.38716 2.68355 0
M  V30 17348 N 1679.25 5.11221 2.33686 0
M  V30 17349 H 1671.41 2.11989 -0.132126 0
M  V30 17350 H 1673.67 0.947993 0.00355835 0
M  V30 17351 H 1673.37 3.46465 0.604557 0
M  V30 17352 H 1673.25 2.99653 2.29102 0
M  V30 17353 H 1675.64 2.01377 2.15712 0
M  V30 17354 H 1675.72 2.51587 0.46237 0
M  V30 17355 H 1675.36 4.93851 1.18633 0
M  V30 17356 H 1675.29 4.40552 2.88481 0
M  V30 17357 H 1677.78 3.36451 1.72073 0
M  V30 17358 H 1678.09 7.14253 2.95063 0
M  V30 17359 H 1676.44 6.42082 2.66 0
M  V30 17360 H 1679.63 4.20527 2.05609 0
M  V30 17361 H 1679.8 5.92798 2.61714 0
M  V30 17362 N 1673.21 -0.830057 1.33969 0
M  V30 17363 C 1674.16 -1.9292 1.21516 0
M  V30 17364 C 1675.14 -1.60482 0.115907 0
M  V30 17365 O 1676.34 -1.73608 0.344875 0
M  V30 17366 C 1673.46 -3.29442 0.96554 0
M  V30 17367 C 1672.55 -3.68021 2.10763 0
M  V30 17368 N 1672.94 -3.78222 3.3583 0
M  V30 17369 C 1671.24 -3.97821 2.01629 0
M  V30 17370 C 1671.94 -4.11858 4.10789 0
M  V30 17371 N 1670.92 -4.24698 3.39312 0
M  V30 17372 H 1674.72 -1.98974 2.16302 0
M  V30 17373 H 1672.23 -1.0233 1.26104 0
M  V30 17374 H 1674.23 -4.07991 0.857238 0
M  V30 17375 H 1672.89 -3.24689 0.0262975 0
M  V30 17376 H 1673.9 -3.61901 3.7047 0
M  V30 17377 H 1670.58 -4.01229 1.15418 0
M  V30 17378 H 1671.97 -4.27014 5.18757 0
M  V30 17379 N 1674.69 -1.17582 -1.04939 0
M  V30 17380 C 1675.93 -0.967208 -1.7825 0
M  V30 17381 C 1676.27 0.502711 -1.87581 0
M  V30 17382 O 1675.54 1.37318 -1.37746 0
M  V30 17383 C 1675.82 -1.61205 -3.22001 0
M  V30 17384 C 1675.68 -3.15424 -3.20667 0
M  V30 17385 C 1677 -1.31804 -4.199 0
M  V30 17386 H 1674.12 -0.35279 -0.647077 0
M  V30 17387 H 1676.76 -1.45119 -1.2264 0
M  V30 17388 H 1674.91 -1.20052 -3.69486 0
M  V30 17389 H 1676.58 -3.65653 -2.8124 0
M  V30 17390 H 1674.82 -3.48042 -2.58938 0
M  V30 17391 H 1675.49 -3.55674 -4.22138 0
M  V30 17392 H 1677.97 -1.67446 -3.80921 0
M  V30 17393 H 1676.85 -1.79505 -5.18719 0
M  V30 17394 H 1677.11 -0.239304 -4.41452 0
M  V30 17395 N 1676.17 1.23705 -0.976463 0
M  V30 17396 C 1677.13 2.23257 -0.518533 0
M  V30 17397 C 1678.13 1.56006 0.3897 0
M  V30 17398 O 1679.32 1.73226 0.18394 0
M  V30 17399 C 1676.45 3.39997 0.247916 0
M  V30 17400 H 1677.64 2.65284 -1.39872 0
M  V30 17401 H 1675.2 1.3647 -0.761946 0
M  V30 17402 H 1675.93 3.03421 1.14482 0
M  V30 17403 H 1675.72 3.90013 -0.403975 0
M  V30 17404 H 1677.21 4.13868 0.557034 0
M  V30 17405 N 1677.64 0.747635 1.38738 0
M  V30 17406 C 1678.87 0.310484 2.05063 0
M  V30 17407 C 1679.29 -1.05078 1.56013 0
M  V30 17408 O 1678.65 -1.66842 0.709461 0
M  V30 17409 C 1678.7 0.335837 3.59033 0
M  V30 17410 O 1677.8 -0.672218 4.06884 0
M  V30 17411 H 1677.14 0.138591 0.649375 0
M  V30 17412 H 1679.67 1.01709 1.77529 0
M  V30 17413 H 1679.68 0.184631 4.07582 0
M  V30 17414 H 1678.36 1.32906 3.94092 0
M  V30 17415 H 1676.94 -0.486112 3.69718 0
M  V30 17416 N 1679.12 -1.49583 0.496242 0
M  V30 17417 C 1680.05 -2.31885 -0.274139 0
M  V30 17418 C 1681.03 -1.39939 -0.96701 0
M  V30 17419 O 1682.22 -1.6885 -0.959333 0
M  V30 17420 C 1679.35 -3.20332 -1.34181 0
M  V30 17421 C 1678.3 -4.21033 -0.769091 0
M  V30 17422 C 1677.63 -4.98385 -1.93693 0
M  V30 17423 C 1678.93 -5.21764 0.236648 0
M  V30 17424 H 1680.62 -2.9654 0.412824 0
M  V30 17425 H 1678.17 -1.42605 0.199979 0
M  V30 17426 H 1680.12 -3.76718 -1.88843 0
M  V30 17427 H 1678.84 -2.53611 -2.05789 0
M  V30 17428 H 1677.5 -3.65785 -0.244252 0
M  V30 17429 H 1677.15 -4.28115 -2.64058 0
M  V30 17430 H 1676.85 -5.66519 -1.55981 0
M  V30 17431 H 1678.38 -5.57613 -2.48798 0
M  V30 17432 H 1679.79 -5.72871 -0.221672 0
M  V30 17433 H 1678.19 -5.97761 0.529346 0
M  V30 17434 H 1679.26 -4.70964 1.15415 0
M  V30 17435 N 1680.6 -0.229873 -1.55915 0
M  V30 17436 C 1682.02 0.125347 -1.59107 0
M  V30 17437 C 1682.22 1.58293 -1.24682 0
M  V30 17438 O 1681.27 2.32452 -0.986018 0
M  V30 17439 C 1682.58 -0.208461 -2.99977 0
M  V30 17440 C 1684.13 -0.151373 -3.12634 0
M  V30 17441 C 1684.61 -0.458972 -4.55694 0
M  V30 17442 N 1686.1 -0.408847 -4.61392 0
M  V30 17443 C 1686.83 -0.620239 -5.70036 0
M  V30 17444 N 1686.33 -0.893851 -6.8701 0
M  V30 17445 N 1688.12 -0.552107 -5.59382 0
M  V30 17446 H 1680.27 -1.18062 -1.76565 0
M  V30 17447 H 1682.54 -0.473821 -0.821095 0
M  V30 17448 H 1682.24 -1.22043 -3.29846 0
M  V30 17449 H 1682.12 0.472591 -3.74228 0
M  V30 17450 H 1684.5 0.851249 -2.82556 0
M  V30 17451 H 1684.58 -0.866024 -2.40694 0
M  V30 17452 H 1684.23 -1.45907 -4.86491 0
M  V30 17453 H 1684.16 0.276965 -5.25871 0
M  V30 17454 H 1686.65 -0.205404 -3.77341 0
M  V30 17455 H 1686.96 -1.04303 -7.65729 0
M  V30 17456 H 1685.31 -0.931138 -6.88734 0
M  V30 17457 H 1688.5 -0.338518 -4.66874 0
M  V30 17458 H 1688.67 -0.720256 -6.43985 0
M  V30 17459 N 1682.08 1.5754 0.0434337 0
M  V30 17460 C 1683.33 1.88235 0.735652 0
M  V30 17461 C 1683.65 0.825698 1.76656 0
M  V30 17462 O 1682.92 -0.142424 1.95382 0
M  V30 17463 H 1681.5 0.694661 0.274692 0
M  V30 17464 H 1684.16 1.94896 0.0127911 0
M  V30 17465 H 1683.25 2.86659 1.23421 0
M  V30 17466 N 1683.56 -0.31543 1.54411 0
M  V30 17467 C 1684.78 -1.0761 1.77299 0
M  V30 17468 C 1685.21 -1.80655 0.523963 0
M  V30 17469 O 1684.56 -1.73536 -0.524874 0
M  V30 17470 C 1684.61 -2.04355 2.97105 0
M  V30 17471 O 1683.72 -3.12401 2.69219 0
M  V30 17472 H 1683.06 -0.30986 0.587267 0
M  V30 17473 H 1685.59 -0.357246 2.01457 0
M  V30 17474 H 1685.6 -2.47081 3.24677 0
M  V30 17475 H 1684.27 -1.50592 3.87679 0
M  V30 17476 H 1682.85 -2.74294 2.52621 0
M  V30 17477 N 1685.03 -1.46622 -0.577906 0
M  V30 17478 C 1686 -1.57126 -1.66865 0
M  V30 17479 C 1687 -0.448004 -1.54433 0
M  V30 17480 O 1688.19 -0.712459 -1.58964 0
M  V30 17481 C 1685.32 -1.49612 -3.06315 0
M  V30 17482 H 1686.51 -2.54338 -1.58909 0
M  V30 17483 H 1684.07 -1.34504 -0.796142 0
M  V30 17484 H 1684.8 -0.536976 -3.19823 0
M  V30 17485 H 1684.59 -2.31113 -3.16748 0
M  V30 17486 H 1686.08 -1.60058 -3.85709 0
M  V30 17487 N 1686.51 0.822941 -1.34408 0
M  V30 17488 C 1687.76 1.57418 -1.26105 0
M  V30 17489 C 1688.07 1.94884 0.167225 0
M  V30 17490 O 1689.28 2.68934 0.3724 0
M  V30 17491 C 1687.74 2.84008 -2.21059 0
M  V30 17492 C 1687.34 2.53844 -3.69144 0
M  V30 17493 C 1689.09 3.62029 -2.21664 0
M  V30 17494 C 1687 3.76628 -4.55967 0
M  V30 17495 H 1685.93 0.590813 -0.468461 0
M  V30 17496 H 1688.58 0.906027 -1.59573 0
M  V30 17497 H 1686.96 3.52449 -1.80543 0
M  V30 17498 H 1688.13 1.93515 -4.18197 0
M  V30 17499 H 1686.45 1.89099 -3.70986 0
M  V30 17500 H 1689.04 4.53197 -2.83754 0
M  V30 17501 H 1689.39 3.98147 -1.21593 0
M  V30 17502 H 1689.92 3.00532 -2.60625 0
M  V30 17503 H 1686.66 3.45631 -5.56974 0
M  V30 17504 H 1686.18 4.3624 -4.11648 0
M  V30 17505 H 1687.86 4.44038 -4.70573 0
M  V30 17506 N 1687.99 1.18137 1.04314 0
M  V30 17507 C 1689.24 0.969582 1.76867 0
M  V30 17508 C 1689.55 -0.501982 1.89049 0
M  V30 17509 O 1690.76 -0.832218 2.58431 0
M  V30 17510 C 1689.21 1.68571 3.17981 0
M  V30 17511 C 1688.82 3.19641 3.13901 0
M  V30 17512 C 1690.57 1.55664 3.94929 0
M  V30 17513 C 1688.47 3.83904 4.49858 0
M  V30 17514 H 1687.4 0.359141 0.662973 0
M  V30 17515 H 1690.05 1.41484 1.16852 0
M  V30 17516 H 1688.44 1.16821 3.78377 0
M  V30 17517 H 1689.61 3.78395 2.62971 0
M  V30 17518 H 1687.93 3.32661 2.50451 0
M  V30 17519 H 1690.52 2.01039 4.95467 0
M  V30 17520 H 1690.87 0.508522 4.13182 0
M  V30 17521 H 1691.4 2.0468 3.41103 0
M  V30 17522 H 1688.14 4.88751 4.36809 0
M  V30 17523 H 1687.66 3.29937 5.00901 0
M  V30 17524 H 1689.34 3.86623 5.18779 0
M  V30 17525 N 1689.47 -1.23186 0.98301 0
M  V30 17526 C 1690.38 -2.28448 0.533727 0
M  V30 17527 C 1691.39 -1.69034 -0.412732 0
M  V30 17528 O 1692.57 -1.99416 -0.282007 0
M  V30 17529 C 1689.64 -3.46357 -0.154179 0
M  V30 17530 C 1688.7 -4.21121 0.834009 0
M  V30 17531 C 1687.93 -5.334 0.178836 0
M  V30 17532 O 1688.15 -5.61032 -1.02952 0
M  V30 17533 O 1687.09 -5.95451 0.878722 0
M  V30 17534 H 1690.91 -2.69027 1.40919 0
M  V30 17535 H 1688.5 -1.29166 0.75077 0
M  V30 17536 H 1690.38 -4.17926 -0.539947 0
M  V30 17537 H 1689.05 -3.07724 -1.00437 0
M  V30 17538 H 1687.96 -3.51864 1.27053 0
M  V30 17539 H 1689.29 -4.6361 1.65309 0
M  V30 17540 N 1690.95 -0.754982 -1.38339 0
M  V30 17541 C 1691.88 -0.143678 -2.33058 0
M  V30 17542 C 1692.86 0.702022 -1.54938 0
M  V30 17543 O 1694.04 0.642922 -1.83249 0
M  V30 17544 C 1691.17 0.749194 -3.39123 0
M  V30 17545 C 1690.13 0.00611459 -4.28 0
M  V30 17546 C 1689.45 1.01733 -5.24933 0
M  V30 17547 C 1690.75 -1.1631 -5.09185 0
M  V30 17548 H 1692.45 -0.934907 -2.84429 0
M  V30 17549 H 1689.99 -0.451023 -1.36754 0
M  V30 17550 H 1691.95 1.18653 -4.04351 0
M  V30 17551 H 1690.67 1.57276 -2.86237 0
M  V30 17552 H 1689.33 -0.411816 -3.6428 0
M  V30 17553 H 1688.98 1.83499 -4.68334 0
M  V30 17554 H 1688.68 0.524783 -5.85252 0
M  V30 17555 H 1690.2 1.45395 -5.93037 0
M  V30 17556 H 1691.61 -0.803244 -5.67645 0
M  V30 17557 H 1690.01 -1.5866 -5.78746 0
M  V30 17558 H 1691.08 -1.97533 -4.42842 0
M  V30 17559 N 1692.42 1.49318 -0.504168 0
M  V30 17560 C 1693.67 2.02462 0.0392265 0
M  V30 17561 C 1694 1.38359 1.36701 0
M  V30 17562 O 1693.25 0.509579 1.88949 0
M  V30 17563 C 1693.55 3.56613 0.237041 0
M  V30 17564 C 1693.22 4.3937 -1.01314 0
M  V30 17565 C 1691.88 4.61704 -1.35583 0
M  V30 17566 C 1694.23 4.8749 -1.84399 0
M  V30 17567 C 1691.56 5.29403 -2.52882 0
M  V30 17568 C 1693.91 5.56479 -3.00854 0
M  V30 17569 C 1692.58 5.77058 -3.35499 0
M  V30 17570 H 1691.85 0.740861 0.014354 0
M  V30 17571 H 1694.49 1.79584 -0.664967 0
M  V30 17572 H 1692.8 3.78188 1.02379 0
M  V30 17573 H 1694.5 3.95329 0.671987 0
M  V30 17574 H 1691.09 4.2223 -0.736213 0
M  V30 17575 H 1695.27 4.7006 -1.59238 0
M  V30 17576 H 1690.53 5.43538 -2.79958 0
M  V30 17577 H 1694.7 5.9274 -3.65558 0
M  V30 17578 H 1692.33 6.29291 -4.26494 0
M  V30 17579 N 1693.9 0.238138 1.5579 0
M  V30 17580 C 1694.85 -0.678829 2.1766 0
M  V30 17581 C 1695.84 -1.14558 1.12984 0
M  V30 17582 O 1697.03 -1.09681 1.38921 0
M  V30 17583 C 1694.16 -1.8794 2.87286 0
M  V30 17584 C 1693.24 -1.43156 3.99208 0
M  V30 17585 N 1693.63 -0.697374 5.00969 0
M  V30 17586 C 1691.93 -1.71755 4.11602 0
M  V30 17587 C 1692.63 -0.466696 5.79825 0
M  V30 17588 N 1691.61 -1.02832 5.33785 0
M  V30 17589 H 1695.41 -0.109646 2.93695 0
M  V30 17590 H 1692.93 0.0400828 1.62351 0
M  V30 17591 H 1694.92 -2.54724 3.30033 0
M  V30 17592 H 1693.58 -2.45289 2.12752 0
M  V30 17593 H 1694.59 -0.348366 5.16727 0
M  V30 17594 H 1691.27 -2.30305 3.48232 0
M  V30 17595 H 1692.66 0.118813 6.71795 0
M  V30 17596 N 1695.38 -1.57561 -0.0350783 0
M  V30 17597 C 1696.61 -1.93644 -0.742753 0
M  V30 17598 C 1697.03 -0.837655 -1.68419 0
M  V30 17599 O 1696.39 0.207069 -1.80114 0
M  V30 17600 C 1696.44 -3.28779 -1.48111 0
M  V30 17601 O 1695.54 -3.20604 -2.59398 0
M  V30 17602 H 1694.88 -0.633103 -0.200192 0
M  V30 17603 H 1697.41 -2.04599 0.00765271 0
M  V30 17604 H 1697.42 -3.63527 -1.85236 0
M  V30 17605 H 1696.1 -4.08316 -0.790608 0
M  V30 17606 H 1694.67 -2.97477 -2.2486 0
M  V30 17607 N 1696.86 0.307236 -1.54576 0
M  V30 17608 C 1698.08 1.06668 -1.77867 0
M  V30 17609 C 1698.51 1.80375 -0.533536 0
M  V30 17610 O 1697.87 1.73812 0.515663 0
M  V30 17611 C 1697.91 2.02777 -2.98184 0
M  V30 17612 O 1697.02 3.10969 -2.70872 0
M  V30 17613 H 1696.36 0.306741 -0.588902 0
M  V30 17614 H 1698.89 0.346557 -2.01644 0
M  V30 17615 H 1698.9 2.45355 -3.25983 0
M  V30 17616 H 1697.57 1.48534 -3.88472 0
M  V30 17617 H 1696.15 2.7295 -2.54072 0
M  V30 17618 N 1698.34 1.46926 0.570122 0
M  V30 17619 C 1699.59 1.52151 1.32413 0
M  V30 17620 C 1699.9 0.18291 1.94743 0
M  V30 17621 O 1701.1 0.113045 2.71265 0
M  V30 17622 C 1699.56 2.68153 2.40046 0
M  V30 17623 C 1699.17 4.08487 1.83963 0
M  V30 17624 C 1700.91 2.82659 3.16709 0
M  V30 17625 C 1698.82 5.1581 2.893 0
M  V30 17626 H 1697.75 0.566291 0.497826 0
M  V30 17627 H 1700.4 1.73169 0.607011 0
M  V30 17628 H 1698.78 2.40488 3.14613 0
M  V30 17629 H 1699.96 4.45998 1.15854 0
M  V30 17630 H 1698.27 3.98756 1.19927 0
M  V30 17631 H 1700.87 3.60008 3.95346 0
M  V30 17632 H 1701.21 1.9063 3.70089 0
M  V30 17633 H 1701.74 3.10031 2.4925 0
M  V30 17634 H 1698.48 6.09672 2.40791 0
M  V30 17635 H 1698 4.8283 3.55859 0
M  V30 17636 H 1699.68 5.42201 3.53026 0
M  V30 17637 N 1699.82 -0.815801 1.34842 0
M  V30 17638 C 1700.78 -1.90871 1.2689 0
M  V30 17639 C 1701.78 -1.59762 0.182445 0
M  V30 17640 O 1702.97 -1.68667 0.435543 0
M  V30 17641 C 1700.1 -3.27081 0.960774 0
M  V30 17642 H 1701.29 -1.99343 2.24059 0
M  V30 17643 H 1698.85 -1.0106 1.19233 0
M  V30 17644 H 1699.58 -3.24299 -0.00744059 0
M  V30 17645 H 1699.37 -3.51045 1.74671 0
M  V30 17646 H 1700.86 -4.07101 0.930494 0
M  V30 17647 N 1701.29 -1.18689 -1.03686 0
M  V30 17648 C 1702.2 -0.932473 -2.15272 0
M  V30 17649 C 1703.22 0.104751 -1.73684 0
M  V30 17650 O 1704.4 -0.0780471 -2.01249 0
M  V30 17651 C 1701.46 -0.465807 -3.43557 0
M  V30 17652 C 1700.52 -1.57146 -3.99504 0
M  V30 17653 C 1699.75 -1.12696 -5.21666 0
M  V30 17654 O 1699.98 0.0127657 -5.70399 0
M  V30 17655 O 1698.91 -1.92627 -5.70244 0
M  V30 17656 H 1702.74 -1.86626 -2.39592 0
M  V30 17657 H 1700.32 -0.969029 -1.13711 0
M  V30 17658 H 1702.2 -0.213819 -4.20857 0
M  V30 17659 H 1700.88 0.43964 -3.20701 0
M  V30 17660 H 1699.79 -1.8775 -3.23575 0
M  V30 17661 H 1701.12 -2.45317 -4.26709 0
M  V30 17662 N 1702.77 1.22662 -0.989529 0
M  V30 17663 C 1704.02 1.91605 -0.66448 0
M  V30 17664 C 1704.35 1.76909 0.801048 0
M  V30 17665 O 1703.63 1.13583 1.5789 0
M  V30 17666 C 1703.91 3.43929 -1.06698 0
M  V30 17667 C 1703.76 3.67691 -2.59082 0
M  V30 17668 C 1705.08 4.35744 -0.617695 0
M  V30 17669 H 1702.2 0.695832 -0.242872 0
M  V30 17670 H 1704.84 1.44605 -1.23245 0
M  V30 17671 H 1702.99 3.8409 -0.58371 0
M  V30 17672 H 1704.66 3.36956 -3.15053 0
M  V30 17673 H 1702.91 3.12088 -3.01303 0
M  V30 17674 H 1703.58 4.74356 -2.82295 0
M  V30 17675 H 1706.05 4.0308 -1.03275 0
M  V30 17676 H 1704.93 5.41004 -0.927659 0
M  V30 17677 H 1705.19 4.39468 0.481734 0
M  V30 17678 N 1704.25 0.762308 1.37937 0
M  V30 17679 C 1705.16 0.142724 2.34165 0
M  V30 17680 C 1706.18 -0.690588 1.59709 0
M  V30 17681 O 1707.35 -0.61271 1.91854 0
M  V30 17682 C 1704.42 -0.733325 3.38856 0
M  V30 17683 C 1703.48 0.115359 4.29145 0
M  V30 17684 C 1702.71 -0.718972 5.28835 0
M  V30 17685 O 1702.93 -1.95656 5.35794 0
M  V30 17686 O 1701.87 -0.133162 6.01753 0
M  V30 17687 H 1705.69 0.937662 2.88863 0
M  V30 17688 H 1703.28 0.523325 1.39935 0
M  V30 17689 H 1705.16 -1.23374 4.02935 0
M  V30 17690 H 1703.84 -1.50661 2.86501 0
M  V30 17691 H 1702.74 0.661926 3.68197 0
M  V30 17692 H 1704.08 0.851505 4.84779 0
M  V30 17693 N 1705.73 -1.49049 0.51208 0
M  V30 17694 C 1706.68 -2.30981 -0.273991 0
M  V30 17695 C 1707.67 -1.40092 -0.952402 0
M  V30 17696 O 1708.88 -1.57088 -0.878828 0
M  V30 17697 H 1705.25 -0.744317 -0.107221 0
M  V30 17698 H 1707.22 -2.95185 0.436866 0
M  V30 17699 C 1705.97 -3.21714 -1.31892 0
M  V30 17700 H 1705.29 -3.91585 -0.806302 0
M  V30 17701 H 1706.73 -3.81961 -1.8407 0
M  V30 17702 C 1705.19 -2.42082 -2.34303 0
M  V30 17703 O 1705.72 -2.13285 -3.40401 0
M  V30 17704 N 1703.93 -2.03903 -2.07055 0
M  V30 17705 H 1703.48 -2.27523 -1.20794 0
M  V30 17706 H 1703.43 -1.50932 -2.75802 0
M  V30 17707 N 1707.21 -0.246397 -1.55662 0
M  V30 17708 C 1708.12 0.664125 -2.25003 0
M  V30 17709 C 1709.13 1.19368 -1.26598 0
M  V30 17710 O 1710.31 1.23006 -1.59473 0
M  V30 17711 C 1707.37 1.8446 -2.93557 0
M  V30 17712 C 1706.43 1.35456 -4.0737 0
M  V30 17713 C 1705.67 2.47877 -4.72645 0
M  V30 17714 O 1705.89 3.66594 -4.36995 0
M  V30 17715 O 1704.82 2.17663 -5.61165 0
M  V30 17716 H 1708.65 0.103277 -3.03524 0
M  V30 17717 H 1706.23 -0.0149207 -1.49393 0
M  V30 17718 H 1708.12 2.53349 -3.36737 0
M  V30 17719 H 1706.79 2.39308 -2.17976 0
M  V30 17720 H 1705.7 0.632958 -3.68706 0
M  V30 17721 H 1707.03 0.852175 -4.84767 0
M  V30 17722 N 1708.68 1.57577 0.026722 0
M  V30 17723 C 1709.59 2.10114 1.04351 0
M  V30 17724 C 1710.61 1.04029 1.39477 0
M  V30 17725 O 1711.79 1.35778 1.48749 0
M  V30 17726 C 1708.85 2.57203 2.32481 0
M  V30 17727 C 1707.91 3.77779 2.03915 0
M  V30 17728 C 1707.14 4.22613 3.25936 0
M  V30 17729 O 1707.37 3.66955 4.36692 0
M  V30 17730 O 1706.3 5.15026 3.11499 0
M  V30 17731 H 1710.13 2.97157 0.627021 0
M  V30 17732 H 1707.71 1.47396 0.243855 0
M  V30 17733 H 1709.59 2.87809 3.07805 0
M  V30 17734 H 1708.27 1.7327 2.73421 0
M  V30 17735 H 1707.18 3.52188 1.26152 0
M  V30 17736 H 1708.51 4.62703 1.67829 0
M  V30 17737 N 1710.16 -0.299034 1.54737 0
M  V30 17738 C 1711.09 -1.37358 1.88826 0
M  V30 17739 C 1712.07 -1.52802 0.747367 0
M  V30 17740 O 1713.26 -1.66277 1.00327 0
M  V30 17741 C 1710.39 -2.73746 2.13729 0
M  V30 17742 C 1709.34 -2.73065 3.29575 0
M  V30 17743 C 1708.67 -4.12761 3.39901 0
M  V30 17744 C 1709.97 -2.34631 4.66632 0
M  V30 17745 H 1711.66 -1.09077 2.78824 0
M  V30 17746 H 1709.21 -0.523276 1.34156 0
M  V30 17747 H 1711.16 -3.49006 2.36162 0
M  V30 17748 H 1709.88 -3.03556 1.20504 0
M  V30 17749 H 1708.54 -2.00261 3.07068 0
M  V30 17750 H 1708.19 -4.39751 2.44189 0
M  V30 17751 H 1707.89 -4.13205 4.17774 0
M  V30 17752 H 1709.42 -4.89797 3.64597 0
M  V30 17753 H 1710.83 -2.99608 4.88782 0
M  V30 17754 H 1709.23 -2.46285 5.47233 0
M  V30 17755 H 1710.3 -1.29759 4.67216 0
M  V30 17756 N 1711.64 -1.47227 -0.562322 0
M  V30 17757 C 1713.06 -1.32632 -0.887745 0
M  V30 17758 C 1713.26 -0.312972 -1.99055 0
M  V30 17759 O 1712.31 0.277309 -2.50973 0
M  V30 17760 C 1713.62 -2.71822 -1.28581 0
M  V30 17761 C 1715.17 -2.80068 -1.39753 0
M  V30 17762 C 1715.65 -4.19887 -1.82917 0
M  V30 17763 N 1717.14 -4.22404 -1.90077 0
M  V30 17764 C 1717.87 -5.27499 -2.24793 0
M  V30 17765 N 1717.37 -6.42904 -2.58159 0
M  V30 17766 N 1719.16 -5.14874 -2.25523 0
M  V30 17767 H 1711.31 -2.11752 0.165835 0
M  V30 17768 H 1713.58 -0.94793 0.0115238 0
M  V30 17769 H 1713.28 -3.47383 -0.549361 0
M  V30 17770 H 1713.16 -3.0326 -2.24306 0
M  V30 17771 H 1715.54 -2.04783 -2.1248 0
M  V30 17772 H 1715.62 -2.5229 -0.422286 0
M  V30 17773 H 1715.27 -4.95676 -1.10761 0
M  V30 17774 H 1715.2 -4.45086 -2.81436 0
M  V30 17775 H 1717.69 -3.39146 -1.66698 0
M  V30 17776 H 1718 -7.18857 -2.83662 0
M  V30 17777 H 1716.35 -6.46232 -2.55751 0
M  V30 17778 H 1719.54 -4.23745 -1.98892 0
M  V30 17779 H 1719.71 -5.96887 -2.5225 0
M  V30 17780 N 1713.12 0.808639 -1.35273 0
M  V30 17781 C 1714.07 1.90962 -1.24569 0
M  V30 17782 C 1715.05 1.60277 -0.141424 0
M  V30 17783 O 1716.24 1.73037 -0.372451 0
M  V30 17784 C 1713.37 3.27864 -1.01783 0
M  V30 17785 C 1712.46 3.64622 -2.16592 0
M  V30 17786 N 1712.85 3.72831 -3.41805 0
M  V30 17787 C 1711.15 3.94563 -2.07932 0
M  V30 17788 C 1711.85 4.05271 -4.1729 0
M  V30 17789 N 1710.82 4.19246 -3.46025 0
M  V30 17790 H 1714.63 1.95508 -2.1944 0
M  V30 17791 H 1712.14 1.00311 -1.27716 0
M  V30 17792 H 1714.14 4.06576 -0.922037 0
M  V30 17793 H 1712.8 3.24606 -0.0779494 0
M  V30 17794 H 1713.81 3.55961 -3.76181 0
M  V30 17795 H 1710.49 3.99342 -1.21787 0
M  V30 17796 H 1711.88 4.18707 -5.25485 0
M  V30 17797 N 1714.6 1.19237 1.03055 0
M  V30 17798 C 1715.53 0.95226 2.132 0
M  V30 17799 C 1716.51 -0.113771 1.69719 0
M  V30 17800 O 1717.69 0.0409057 1.94157 0
M  V30 17801 C 1714.82 0.488296 3.4385 0
M  V30 17802 C 1713.78 1.49597 4.01005 0
M  V30 17803 C 1713.1 0.889148 5.27255 0
M  V30 17804 C 1714.4 2.87571 4.36005 0
M  V30 17805 H 1716.1 1.87343 2.33544 0
M  V30 17806 H 1713.64 0.902172 1.12236 0
M  V30 17807 H 1715.6 0.307623 4.20276 0
M  V30 17808 H 1714.32 -0.468469 3.23223 0
M  V30 17809 H 1712.98 1.66376 3.26672 0
M  V30 17810 H 1712.63 -0.0751191 5.02944 0
M  V30 17811 H 1712.33 1.56202 5.66458 0
M  V30 17812 H 1713.85 0.719233 6.06349 0
M  V30 17813 H 1715.26 2.74384 5.03375 0
M  V30 17814 H 1713.66 3.51635 4.86285 0
M  V30 17815 H 1714.73 3.40353 3.45381 0
M  V30 17816 N 1716.07 -1.22136 0.99602 0
M  V30 17817 C 1717.01 -2.22793 0.493816 0
M  V30 17818 C 1717.99 -1.56318 -0.447601 0
M  V30 17819 O 1719.17 -1.84784 -0.372419 0
M  V30 17820 C 1716.3 -3.37509 -0.283763 0
M  V30 17821 C 1715.34 -4.222 0.60411 0
M  V30 17822 S 1716.18 -4.9424 2.06125 0
M  V30 17823 C 1717.33 -6.12394 1.29325 0
M  V30 17824 H 1717.56 -2.65047 1.34675 0
M  V30 17825 H 1715.1 -1.31862 0.803237 0
M  V30 17826 H 1717.06 -4.04023 -0.726346 0
M  V30 17827 H 1715.72 -2.93757 -1.11201 0
M  V30 17828 H 1714.91 -5.04 0.00565269 0
M  V30 17829 H 1714.51 -3.60835 0.983588 0
M  V30 17830 H 1716.8 -6.75161 0.5625 0
M  V30 17831 H 1717.75 -6.76657 2.08664 0
M  V30 17832 H 1718.15 -5.58728 0.805166 0
M  V30 17833 N 1717.55 -0.769612 -1.37531 0
M  V30 17834 C 1718.8 -0.342469 -2.00496 0
M  V30 17835 C 1719.15 1.06855 -1.59999 0
M  V30 17836 O 1718.45 1.72444 -0.835074 0
M  V30 17837 C 1718.64 -0.421385 -3.54907 0
M  V30 17838 C 1718.47 -1.83853 -4.104 0
M  V30 17839 C 1717.24 -2.45872 -4.41447 0
M  V30 17840 C 1719.44 -2.79771 -4.31547 0
M  V30 17841 N 1717.42 -3.79381 -4.82642 0
M  V30 17842 C 1718.79 -3.98075 -4.75327 0
M  V30 17843 C 1720.85 -2.77086 -4.13676 0
M  V30 17844 C 1719.55 -5.14075 -5.0311 0
M  V30 17845 C 1721.57 -3.92257 -4.42593 0
M  V30 17846 C 1720.94 -5.09302 -4.86612 0
M  V30 17847 H 1717.04 -0.172317 -0.762778 0
M  V30 17848 H 1719.62 -1.00299 -1.66878 0
M  V30 17849 H 1717.79 0.208944 -3.87838 0
M  V30 17850 H 1719.52 0.0276089 -4.04691 0
M  V30 17851 H 1716.28 -1.97507 -4.30451 0
M  V30 17852 H 1716.7 -4.48019 -5.07551 0
M  V30 17853 H 1721.34 -1.87769 -3.78818 0
M  V30 17854 H 1719.06 -6.03994 -5.36858 0
M  V30 17855 H 1722.65 -3.91517 -4.30355 0
M  V30 17856 H 1721.53 -5.96941 -5.08557 0
M  V30 17857 N 1719.03 1.48775 -0.519977 0
M  V30 17858 C 1720.26 2.07394 0.0161061 0
M  V30 17859 C 1720.68 1.37532 1.28322 0
M  V30 17860 O 1720.04 0.438049 1.75928 0
M  V30 17861 C 1720.09 3.59844 0.233382 0
M  V30 17862 O 1719.19 3.91235 1.30418 0
M  V30 17863 H 1718.53 0.663094 -0.0346678 0
M  V30 17864 H 1721.06 1.91323 -0.725029 0
M  V30 17865 H 1721.07 4.05409 0.45911 0
M  V30 17866 H 1719.75 4.10098 -0.69229 0
M  V30 17867 H 1718.32 3.5746 1.0619 0
M  V30 17868 N 1720.51 0.254649 1.55529 0
M  V30 17869 C 1721.73 -0.374795 2.03985 0
M  V30 17870 C 1722.16 -1.50188 1.13249 0
M  V30 17871 O 1721.52 -1.80855 0.126963 0
M  V30 17872 C 1721.56 -0.852635 3.50375 0
M  V30 17873 O 1720.67 -1.9616 3.6276 0
M  V30 17874 H 1720.01 -0.0806157 0.659088 0
M  V30 17875 H 1722.54 0.38297 2.00984 0
M  V30 17876 H 1722.55 -1.15381 3.91345 0
M  V30 17877 H 1721.22 -0.0279044 4.15891 0
M  V30 17878 H 1719.8 -1.66453 3.33688 0
M  V30 17879 N 1721.99 -1.57589 -0.0183649 0
M  V30 17880 C 1723.23 -1.90038 -0.708056 0
M  V30 17881 C 1723.57 -0.853686 -1.7443 0
M  V30 17882 O 1722.84 0.12994 -1.94065 0
M  V30 17883 C 1723.12 -3.33107 -1.3679 0
M  V30 17884 C 1722.98 -4.48479 -0.344448 0
M  V30 17885 C 1724.3 -3.75276 -2.29904 0
M  V30 17886 H 1721.41 -0.691134 -0.255934 0
M  V30 17887 H 1724.06 -1.89978 0.0291579 0
M  V30 17888 H 1722.21 -3.33289 -1.99626 0
M  V30 17889 H 1723.88 -4.60432 0.282816 0
M  V30 17890 H 1722.12 -4.32503 0.335196 0
M  V30 17891 H 1722.79 -5.45497 -0.844832 0
M  V30 17892 H 1725.27 -3.76529 -1.77103 0
M  V30 17893 H 1724.14 -4.76168 -2.73049 0
M  V30 17894 H 1724.41 -3.08124 -3.17036 0
M  V30 17895 N 1723.46 0.290824 -1.54893 0
M  V30 17896 C 1724.71 1.02627 -1.74916 0
M  V30 17897 C 1725.04 1.86572 -0.538921 0
M  V30 17898 O 1724.32 1.88888 0.463844 0
M  V30 17899 C 1724.6 1.92376 -3.04407 0
M  V30 17900 C 1724.45 1.11542 -4.3575 0
M  V30 17901 C 1725.77 2.91383 -3.29824 0
M  V30 17902 H 1722.89 0.371685 -0.636411 0
M  V30 17903 H 1725.53 0.300072 -1.87615 0
M  V30 17904 H 1723.68 2.54295 -2.93711 0
M  V30 17905 H 1725.36 0.518312 -4.58379 0
M  V30 17906 H 1723.6 0.418386 -4.31778 0
M  V30 17907 H 1724.27 1.77616 -5.22644 0
M  V30 17908 H 1726.75 2.39595 -3.40196 0
M  V30 17909 H 1725.62 3.51338 -4.21726 0
M  V30 17910 H 1725.88 3.65579 -2.48606 0
M  V30 17911 N 1724.94 1.47523 0.554506 0
M  V30 17912 C 1726.19 1.54287 1.31156 0
M  V30 17913 C 1726.52 0.206279 1.93403 0
M  V30 17914 O 1725.77 -0.801103 1.78552 0
M  V30 17915 C 1726.07 2.6113 2.4402 0
M  V30 17916 C 1725.74 4.04322 1.99586 0
M  V30 17917 C 1724.4 4.43301 1.87184 0
M  V30 17918 C 1726.75 4.94158 1.65703 0
M  V30 17919 C 1724.08 5.69948 1.39198 0
M  V30 17920 C 1726.43 6.21271 1.19187 0
M  V30 17921 C 1725.1 6.59129 1.05383 0
M  V30 17922 H 1724.37 0.564575 0.479934 0
M  V30 17923 H 1727.01 1.81134 0.621521 0
M  V30 17924 H 1725.32 2.2805 3.18591 0
M  V30 17925 H 1727.01 2.63585 3.02199 0
M  V30 17926 H 1723.6 3.73526 2.10182 0
M  V30 17927 H 1727.79 4.6474 1.74156 0
M  V30 17928 H 1723.04 5.98027 1.27178 0
M  V30 17929 H 1727.22 6.90292 0.920312 0
M  V30 17930 H 1724.85 7.57155 0.679777 0
M  V30 17931 N 1726.42 -0.801453 1.357 0
M  V30 17932 C 1727.65 -1.58771 1.32194 0
M  V30 17933 C 1728.06 -1.88927 -0.101529 0
M  V30 17934 O 1727.4 -1.49649 -1.0654 0
M  V30 17935 C 1727.46 -2.94186 2.06627 0
M  V30 17936 C 1727.13 -2.86819 3.55786 0
M  V30 17937 C 1728.12 -2.59898 4.50276 0
M  V30 17938 C 1725.81 -3.05775 3.98506 0
M  V30 17939 C 1727.8 -2.52017 5.85462 0
M  V30 17940 C 1725.49 -2.97516 5.33786 0
M  V30 17941 C 1726.49 -2.70673 6.27076 0
M  V30 17942 O 1726.18 -2.62387 7.59874 0
M  V30 17943 H 1725.91 -0.499518 0.455475 0
M  V30 17944 H 1728.46 -1.00358 1.79213 0
M  V30 17945 H 1726.69 -3.54602 1.54253 0
M  V30 17946 H 1728.38 -3.55368 1.96133 0
M  V30 17947 H 1729.15 -2.44968 4.18588 0
M  V30 17948 H 1725.03 -3.25678 3.26274 0
M  V30 17949 H 1728.57 -2.30985 6.58249 0
M  V30 17950 H 1724.47 -3.12006 5.65086 0
M  V30 17951 H 1725.24 -2.77957 7.69859 0
M  V30 17952 N 1727.9 -1.19782 -1.02421 0
M  V30 17953 C 1728.83 -0.897544 -2.10895 0
M  V30 17954 C 1729.84 0.111644 -1.62417 0
M  V30 17955 O 1731.03 -0.118381 -1.78107 0
M  V30 17956 C 1728.13 -0.322714 -3.3736 0
M  V30 17957 C 1727.31 -1.38159 -4.15007 0
M  V30 17958 C 1726.36 -0.819462 -5.1978 0
M  V30 17959 O 1725.39 -1.4983 -5.49126 0
M  V30 17960 N 1726.59 0.374925 -5.79288 0
M  V30 17961 H 1729.36 -1.83127 -2.37243 0
M  V30 17962 H 1726.92 -1.10045 -1.1875 0
M  V30 17963 H 1728.91 0.0673046 -4.04644 0
M  V30 17964 H 1727.48 0.5154 -3.08322 0
M  V30 17965 H 1726.7 -1.94627 -3.42803 0
M  V30 17966 H 1727.99 -2.09496 -4.63669 0
M  V30 17967 H 1727.39 0.943856 -5.5777 0
M  V30 17968 H 1725.94 0.706668 -6.47958 0
M  V30 17969 N 1729.38 1.21606 -1.00248 0
M  V30 17970 C 1730.61 1.94609 -0.702502 0
M  V30 17971 C 1731.02 1.73928 0.734483 0
M  V30 17972 O 1730.38 1.04432 1.49667 0
M  V30 17973 C 1730.43 3.47077 -1.01092 0
M  V30 17974 O 1730.15 3.67071 -2.39145 0
M  V30 17975 C 1731.65 4.37248 -0.729988 0
M  V30 17976 H 1728.87 0.618962 -0.259088 0
M  V30 17977 H 1731.41 1.54494 -1.33985 0
M  V30 17978 H 1729.57 3.85125 -0.419215 0
M  V30 17979 H 1729.98 4.61188 -2.49811 0
M  V30 17980 H 1731.46 5.4294 -0.99598 0
M  V30 17981 H 1731.93 4.37913 0.33599 0
M  V30 17982 H 1732.54 4.04842 -1.30318 0
M  V30 17983 N 1730.86 0.776895 1.37121 0
M  V30 17984 C 1732.27 0.408311 1.8218 0
M  V30 17985 C 1732.62 -1.06621 1.64701 0
M  V30 17986 O 1731.74 -1.82621 1.16097 0
M  V30 17987 C 1732.34 0.734339 3.30746 0
M  V30 17988 C 1730.9 0.418746 3.74063 0
M  V30 17989 C 1730.04 0.97551 2.59575 0
M  V30 17990 H 1732.99 0.971111 1.25519 0
M  V30 17991 H 1733.02 0.0208557 3.80494 0
M  V30 17992 H 1732.53 1.80757 3.43436 0
M  V30 17993 H 1730.63 -0.646961 3.6694 0
M  V30 17994 H 1730.74 0.930597 4.69975 0
M  V30 17995 H 1729.11 0.399449 2.51548 0
M  V30 17996 H 1729.89 2.05425 2.75056 0
M  V30 17997 N 1732.33 -1.48497 0.527859 0
M  V30 17998 C 1733.58 -2.02099 -0.00699772 0
M  V30 17999 C 1733.9 -1.40742 -1.34969 0
M  V30 18000 O 1733.17 -0.572059 -1.87361 0
M  V30 18001 H 1731.75 -0.746979 -0.00557445 0
M  V30 18002 H 1734.41 -1.82231 0.691209 0
M  V30 18003 H 1733.51 -3.11881 -0.116893 0
M  V30 18004 N 1733.81 -0.262893 -1.55392 0
M  V30 18005 C 1734.74 0.623732 -2.25015 0
M  V30 18006 C 1735.72 1.16865 -1.23598 0
M  V30 18007 O 1736.91 1.20505 -1.5229 0
M  V30 18008 C 1734.04 1.81353 -2.9619 0
M  V30 18009 C 1732.99 1.40069 -4.04431 0
M  V30 18010 C 1732.32 2.67261 -4.63115 0
M  V30 18011 C 1733.62 0.559905 -5.1929 0
M  V30 18012 H 1735.31 0.0431306 -2.99369 0
M  V30 18013 H 1732.86 0.0193043 -1.43987 0
M  V30 18014 H 1734.81 2.43958 -3.43602 0
M  V30 18015 H 1733.53 2.41977 -2.1935 0
M  V30 18016 H 1732.19 0.797905 -3.57811 0
M  V30 18017 H 1731.84 3.26117 -3.82958 0
M  V30 18018 H 1731.54 2.40354 -5.36194 0
M  V30 18019 H 1733.07 3.30735 -5.1327 0
M  V30 18020 H 1734.48 1.09064 -5.6283 0
M  V30 18021 H 1732.88 0.386234 -5.98856 0
M  V30 18022 H 1733.95 -0.424199 -4.83041 0
M  V30 18023 N 1735.29 1.57597 0.0100073 0
M  V30 18024 C 1736.2 2.11209 1.02117 0
M  V30 18025 C 1737.22 1.05503 1.38366 0
M  V30 18026 O 1738.39 1.37348 1.47301 0
M  V30 18027 C 1735.46 2.59654 2.2974 0
M  V30 18028 C 1734.52 3.79921 1.99896 0
M  V30 18029 C 1733.75 4.26046 3.21435 0
M  V30 18030 O 1733.97 3.71566 4.32775 0
M  V30 18031 O 1732.91 5.18301 3.06018 0
M  V30 18032 H 1736.73 2.97805 0.595469 0
M  V30 18033 H 1734.32 1.47647 0.228208 0
M  V30 18034 H 1736.2 2.91058 3.04735 0
M  V30 18035 H 1734.88 1.76161 2.71568 0
M  V30 18036 H 1733.78 3.53506 1.22409 0
M  V30 18037 H 1735.12 4.64457 1.62912 0
M  V30 18038 N 1736.77 -0.282606 1.55045 0
M  V30 18039 C 1738.01 -1.01698 1.75458 0
M  V30 18040 C 1738.35 -1.86284 0.548808 0
M  V30 18041 O 1737.62 -1.89131 -0.45382 0
M  V30 18042 C 1737.9 -1.90759 3.05423 0
M  V30 18043 C 1737.76 -1.0923 4.36336 0
M  V30 18044 C 1739.08 -2.8963 3.31364 0
M  V30 18045 H 1736.2 -0.368305 0.638373 0
M  V30 18046 H 1738.84 -0.290118 1.87772 0
M  V30 18047 H 1736.99 -2.52734 2.95055 0
M  V30 18048 H 1738.66 -0.493996 4.58647 0
M  V30 18049 H 1736.9 -0.395481 4.31994 0
M  V30 18050 H 1737.57 -1.74842 5.23578 0
M  V30 18051 H 1740.05 -2.37788 3.41462 0
M  V30 18052 H 1738.93 -3.49096 4.23584 0
M  V30 18053 H 1739.19 -3.64255 2.50541 0
M  V30 18054 N 1738.25 -1.47815 -0.546675 0
M  V30 18055 C 1739.47 -1.58613 -1.32851 0
M  V30 18056 C 1739.89 -0.240179 -1.87266 0
M  V30 18057 O 1739.25 0.768148 -1.65547 0
M  V30 18058 C 1739.3 -2.61969 -2.49107 0
M  V30 18059 O 1739.02 -3.9134 -1.96938 0
M  V30 18060 C 1740.52 -2.83051 -3.4117 0
M  V30 18061 H 1737.74 -0.535292 -0.404603 0
M  V30 18062 H 1740.28 -1.93516 -0.661192 0
M  V30 18063 H 1738.44 -2.29971 -3.11756 0
M  V30 18064 H 1738.85 -4.47905 -2.72913 0
M  V30 18065 H 1740.33 -3.59209 -4.19134 0
M  V30 18066 H 1740.8 -1.91258 -3.95369 0
M  V30 18067 H 1741.41 -3.16287 -2.84328 0
M  V30 18068 N 1739.72 0.794246 -1.36123 0
M  V30 18069 C 1740.69 1.88828 -1.2991 0
M  V30 18070 C 1741.69 1.59451 -0.207839 0
M  V30 18071 O 1742.88 1.67953 -0.462321 0
M  V30 18072 C 1740.01 3.25511 -1.01269 0
M  V30 18073 H 1741.2 1.95753 -2.27202 0
M  V30 18074 H 1738.75 0.991505 -1.20826 0
M  V30 18075 H 1739.49 3.2427 -0.0441535 0
M  V30 18076 H 1739.27 3.48221 -1.80234 0
M  V30 18077 H 1740.76 4.0557 -0.995142 0
M  V30 18078 N 1741.2 1.20323 1.01785 0
M  V30 18079 C 1742.44 1.0239 1.76906 0
M  V30 18080 C 1742.81 -0.436461 1.86973 0
M  V30 18081 O 1744.01 -0.735939 2.58529 0
M  V30 18082 C 1742.28 1.68729 3.15064 0
M  V30 18083 S 1743.84 1.65881 4.06237 0
M  V30 18084 H 1740.65 0.367179 0.608852 0
M  V30 18085 H 1743.26 1.52857 1.21881 0
M  V30 18086 H 1741.96 2.74194 3.05362 0
M  V30 18087 H 1741.49 1.18387 3.75164 0
M  V30 18088 H 1743.51 0.6908 4.91368 0
M  V30 18089 N 1742.68 -1.21073 1.00892 0
M  V30 18090 C 1743.93 -1.90524 0.694879 0
M  V30 18091 C 1744.26 -1.78161 -0.772802 0
M  V30 18092 O 1743.53 -1.1608 -1.56063 0
M  V30 18093 C 1743.82 -3.42188 1.12156 0
M  V30 18094 C 1743.67 -3.63523 2.64898 0
M  V30 18095 C 1744.99 -4.34706 0.68694 0
M  V30 18096 H 1742.11 -0.69188 0.253912 0
M  V30 18097 H 1744.75 -1.42626 1.2553 0
M  V30 18098 H 1742.9 -3.83113 0.644742 0
M  V30 18099 H 1744.57 -3.31901 3.20374 0
M  V30 18100 H 1742.81 -3.07255 3.0623 0
M  V30 18101 H 1743.49 -4.69805 2.89806 0
M  V30 18102 H 1745.96 -4.01386 1.09674 0
M  V30 18103 H 1744.84 -5.3946 1.01361 0
M  V30 18104 H 1745.1 -4.40178 -0.411757 0
M  V30 18105 N 1744.16 -0.784156 -1.36707 0
M  V30 18106 C 1745.09 -0.193081 -2.327 0
M  V30 18107 C 1746.07 0.668999 -1.56392 0
M  V30 18108 O 1747.25 0.603908 -1.84571 0
M  V30 18109 C 1744.38 0.677092 -3.40636 0
M  V30 18110 C 1743.34 -0.0846718 -4.27916 0
M  V30 18111 C 1742.66 0.905754 -5.26973 0
M  V30 18112 C 1743.96 -1.27085 -5.06603 0
M  V30 18113 H 1745.66 -0.995029 -2.82382 0
M  V30 18114 H 1743.2 -0.479929 -1.35767 0
M  V30 18115 H 1745.16 1.1005 -4.06776 0
M  V30 18116 H 1743.88 1.51169 -2.89509 0
M  V30 18117 H 1742.54 -0.488992 -3.63324 0
M  V30 18118 H 1742.19 1.73524 -4.72121 0
M  V30 18119 H 1741.89 0.400524 -5.86233 0
M  V30 18120 H 1743.41 1.32784 -5.95987 0
M  V30 18121 H 1744.83 -0.923469 -5.65814 0
M  V30 18122 H 1743.22 -1.70901 -5.7525 0
M  V30 18123 H 1744.29 -2.06882 -4.38552 0
M  V30 18124 N 1745.64 1.48215 -0.535727 0
M  V30 18125 C 1746.57 2.3253 0.212562 0
M  V30 18126 C 1747.55 1.42454 0.929568 0
M  V30 18127 O 1748.73 1.71334 0.914228 0
M  V30 18128 C 1745.86 3.23777 1.25641 0
M  V30 18129 C 1744.82 4.22924 0.657191 0
M  V30 18130 C 1744.14 5.03345 1.80411 0
M  V30 18131 C 1745.44 5.20953 -0.374902 0
M  V30 18132 H 1747.14 2.95341 -0.491301 0
M  V30 18133 H 1744.68 1.42024 -0.237718 0
M  V30 18134 H 1746.64 3.81592 1.78789 0
M  V30 18135 H 1745.36 2.58978 1.98993 0
M  V30 18136 H 1744.02 3.66304 0.147184 0
M  V30 18137 H 1743.67 4.34965 2.52615 0
M  V30 18138 H 1743.37 5.70455 1.40906 0
M  V30 18139 H 1744.89 5.64013 2.33926 0
M  V30 18140 H 1746.3 5.73258 0.0697072 0
M  V30 18141 H 1744.7 5.96147 -0.687646 0
M  V30 18142 H 1745.77 4.67739 -1.27861 0
M  V30 18143 N 1747.11 0.27113 1.5525 0
M  V30 18144 C 1748.34 -0.353138 2.04371 0
M  V30 18145 C 1748.76 -1.48978 1.14835 0
M  V30 18146 O 1748.12 -1.8071 0.146138 0
M  V30 18147 C 1748.17 -0.815425 3.51259 0
M  V30 18148 O 1747.27 -1.92302 3.6482 0
M  V30 18149 H 1746.62 -0.0736207 0.659906 0
M  V30 18150 H 1749.15 0.404266 2.00566 0
M  V30 18151 H 1749.16 -1.11224 3.92547 0
M  V30 18152 H 1747.83 0.0162079 4.15897 0
M  V30 18153 H 1746.41 -1.62904 3.35435 0
M  V30 18154 N 1748.59 -1.576 -0.00164943 0
M  V30 18155 C 1749.82 -1.94775 -0.697872 0
M  V30 18156 C 1750.24 -0.873094 -1.67399 0
M  V30 18157 O 1749.59 0.148119 -1.81898 0
M  V30 18158 C 1749.64 -3.31963 -1.43117 0
M  V30 18159 O 1749.36 -4.35304 -0.494203 0
M  V30 18160 C 1750.87 -3.83588 -2.22206 0
M  V30 18161 H 1748.09 -0.6422 -0.194474 0
M  V30 18162 H 1750.63 -2.04441 0.04898 0
M  V30 18163 H 1748.78 -3.2361 -2.12967 0
M  V30 18164 H 1749.2 -5.14656 -1.0114 0
M  V30 18165 H 1750.67 -4.82012 -2.69014 0
M  V30 18166 H 1751.15 -3.16208 -3.0481 0
M  V30 18167 H 1751.76 -3.95111 -1.57376 0
M  V30 18168 N 1750.07 0.274379 -1.55193 0
M  V30 18169 C 1751.02 1.33913 -1.87978 0
M  V30 18170 C 1751.99 1.49142 -0.731149 0
M  V30 18171 O 1753.17 1.63572 -0.98229 0
M  V30 18172 C 1750.31 2.69464 -2.156 0
M  V30 18173 C 1749.43 2.62468 -3.43125 0
M  V30 18174 C 1748.56 3.90188 -3.60453 0
M  V30 18175 C 1747.6 3.77697 -4.81675 0
M  V30 18176 N 1746.74 4.97249 -4.95669 0
M  V30 18177 H 1751.58 1.05254 -2.78793 0
M  V30 18178 H 1749.11 0.508532 -1.3803 0
M  V30 18179 H 1751.07 3.48329 -2.29614 0
M  V30 18180 H 1749.7 2.96328 -1.28021 0
M  V30 18181 H 1748.75 1.7532 -3.3759 0
M  V30 18182 H 1750.07 2.49137 -4.32125 0
M  V30 18183 H 1749.22 4.77495 -3.74277 0
M  V30 18184 H 1747.96 4.06384 -2.69635 0
M  V30 18185 H 1746.96 2.88774 -4.67857 0
M  V30 18186 H 1748.19 3.63022 -5.73927 0
M  V30 18187 H 1746.13 5.13858 -4.07781 0
M  V30 18188 H 1746.05 4.86444 -5.78712 0
M  V30 18189 H 1747.32 5.86132 -5.13877 0
M  V30 18190 N 1751.55 1.48103 0.538828 0
M  V30 18191 C 1752.51 1.61495 1.62641 0
M  V30 18192 C 1753.51 0.488792 1.53191 0
M  V30 18193 O 1754.7 0.754355 1.57019 0
M  V30 18194 C 1751.83 1.57681 3.02241 0
M  V30 18195 H 1753.03 2.58462 1.5211 0
M  V30 18196 H 1750.58 1.36567 0.760201 0
M  V30 18197 H 1751.31 0.621583 3.18287 0
M  V30 18198 H 1751.1 2.3943 3.10509 0
M  V30 18199 H 1752.59 1.70228 3.81329 0
M  V30 18200 N 1753.03 -0.787016 1.36542 0
M  V30 18201 C 1754.27 -1.54728 1.311 0
M  V30 18202 C 1754.61 -1.93895 -0.108853 0
M  V30 18203 O 1753.88 -1.62896 -1.06278 0
M  V30 18204 C 1754.16 -2.82272 2.23594 0
M  V30 18205 C 1754.02 -2.49457 3.74287 0
M  V30 18206 C 1755.34 -3.84112 2.14816 0
M  V30 18207 H 1752.45 -0.561347 0.477555 0
M  V30 18208 H 1755.1 -0.904027 1.67115 0
M  V30 18209 H 1753.25 -3.37163 1.93011 0
M  V30 18210 H 1754.92 -2.00599 4.15401 0
M  V30 18211 H 1753.16 -1.82366 3.93605 0
M  V30 18212 H 1753.83 -3.40563 4.3442 0
M  V30 18213 H 1756.31 -3.38674 2.41741 0
M  V30 18214 H 1755.18 -4.71101 2.817 0
M  V30 18215 H 1755.45 -4.2725 1.13621 0
M  V30 18216 N 1754.5 -1.20861 -1.01145 0
M  V30 18217 C 1755.73 -1.04617 -1.78154 0
M  V30 18218 C 1756.14 0.407396 -1.84762 0
M  V30 18219 O 1755.49 1.29457 -1.30333 0
M  V30 18220 C 1755.55 -1.56038 -3.23871 0
M  V30 18221 C 1755.21 -3.0441 -3.40857 0
M  V30 18222 C 1756.21 -4.02021 -3.29659 0
M  V30 18223 C 1753.89 -3.43479 -3.66507 0
M  V30 18224 C 1755.89 -5.36689 -3.43866 0
M  V30 18225 C 1753.57 -4.78301 -3.80356 0
M  V30 18226 C 1754.57 -5.74715 -3.69041 0
M  V30 18227 O 1754.26 -7.07093 -3.82459 0
M  V30 18228 H 1753.99 -0.368185 -0.566935 0
M  V30 18229 H 1756.55 -1.60508 -1.28165 0
M  V30 18230 H 1754.78 -0.945373 -3.74966 0
M  V30 18231 H 1756.47 -1.35735 -3.82532 0
M  V30 18232 H 1757.23 -3.73182 -3.09775 0
M  V30 18233 H 1753.11 -2.68972 -3.74399 0
M  V30 18234 H 1756.65 -6.11927 -3.3495 0
M  V30 18235 H 1752.55 -5.06829 -3.99743 0
M  V30 18236 H 1753.32 -7.14413 -3.99445 0
M  V30 18237 N 1755.98 1.20536 -1.01532 0
M  V30 18238 C 1757.23 1.89871 -0.70393 0
M  V30 18239 C 1757.56 1.78768 0.76631 0
M  V30 18240 O 1756.81 1.1653 1.57224 0
M  V30 18241 C 1757.11 3.40578 -1.08358 0
M  V30 18242 C 1756.78 3.71881 -2.54981 0
M  V30 18243 C 1755.44 3.80135 -2.95044 0
M  V30 18244 C 1757.79 3.86282 -3.49909 0
M  V30 18245 C 1755.12 4.00246 -4.28976 0
M  V30 18246 C 1757.47 4.07902 -4.83527 0
M  V30 18247 C 1756.14 4.14385 -5.23298 0
M  V30 18248 H 1755.41 0.694788 -0.257586 0
M  V30 18249 H 1758.05 1.42825 -1.27567 0
M  V30 18250 H 1756.36 3.89431 -0.430234 0
M  V30 18251 H 1758.05 3.92519 -0.820353 0
M  V30 18252 H 1754.64 3.66055 -2.22938 0
M  V30 18253 H 1758.83 3.79261 -3.20117 0
M  V30 18254 H 1754.08 4.03499 -4.59345 0
M  V30 18255 H 1758.26 4.17987 -5.5701 0
M  V30 18256 H 1755.89 4.29721 -6.27092 0
M  V30 18257 N 1757.46 0.791395 1.36289 0
M  V30 18258 C 1758.71 0.365242 1.99484 0
M  V30 18259 C 1759.04 -1.06087 1.62663 0
M  V30 18260 O 1758.31 -1.73332 0.882396 0
M  V30 18261 C 1758.6 0.531317 3.56159 0
M  V30 18262 C 1758.45 2.00126 4.02827 0
M  V30 18263 C 1759.77 -0.0524248 4.40069 0
M  V30 18264 H 1756.89 0.134183 0.724682 0
M  V30 18265 H 1759.53 0.998102 1.61672 0
M  V30 18266 H 1757.68 -0.0074293 3.88499 0
M  V30 18267 H 1759.35 2.60122 3.80965 0
M  V30 18268 H 1757.6 2.50316 3.54294 0
M  V30 18269 H 1758.27 2.06842 5.11782 0
M  V30 18270 H 1760.74 0.407489 4.141 0
M  V30 18271 H 1759.62 0.0937898 5.4882 0
M  V30 18272 H 1759.88 -1.14472 4.27023 0
M  V30 18273 N 1758.94 -1.47929 0.54358 0
M  V30 18274 C 1759.87 -2.3264 -0.200228 0
M  V30 18275 C 1760.85 -1.42945 -0.922 0
M  V30 18276 O 1762.04 -1.71817 -0.905129 0
M  V30 18277 C 1759.17 -3.24439 -1.23922 0
M  V30 18278 C 1758.12 -4.23267 -0.634753 0
M  V30 18279 C 1757.45 -5.04295 -1.77739 0
M  V30 18280 C 1758.75 -5.20747 0.402524 0
M  V30 18281 H 1760.44 -2.95077 0.506957 0
M  V30 18282 H 1757.99 -1.41896 0.245246 0
M  V30 18283 H 1759.94 -3.82535 -1.76763 0
M  V30 18284 H 1758.66 -2.60029 -1.97616 0
M  V30 18285 H 1757.32 -3.66377 -0.127756 0
M  V30 18286 H 1756.97 -4.36299 -2.50304 0
M  V30 18287 H 1756.67 -5.71195 -1.37879 0
M  V30 18288 H 1758.19 -5.65246 -2.30932 0
M  V30 18289 H 1759.61 -5.73287 -0.039305 0
M  V30 18290 H 1758 -5.95774 0.719251 0
M  V30 18291 H 1759.07 -4.67054 1.3034 0
M  V30 18292 N 1760.42 -0.27936 -1.55104 0
M  V30 18293 C 1761.37 0.620882 -2.19383 0
M  V30 18294 C 1762.35 1.11522 -1.15981 0
M  V30 18295 O 1763.54 1.05959 -1.4178 0
M  V30 18296 C 1760.67 1.80257 -2.92168 0
M  V30 18297 C 1759.76 1.32522 -4.02863 0
M  V30 18298 N 1760.15 0.564305 -5.02642 0
M  V30 18299 C 1758.45 1.60781 -4.16011 0
M  V30 18300 C 1759.15 0.312802 -5.80858 0
M  V30 18301 N 1758.12 0.886439 -5.36324 0
M  V30 18302 H 1761.93 0.0317396 -2.93883 0
M  V30 18303 H 1759.44 -0.083113 -1.62187 0
M  V30 18304 H 1761.44 2.45884 -3.3667 0
M  V30 18305 H 1760.1 2.39562 -2.1918 0
M  V30 18306 H 1761.11 0.211243 -5.17469 0
M  V30 18307 H 1757.79 2.20991 -3.54216 0
M  V30 18308 H 1759.18 -0.296885 -6.71244 0
M  V30 18309 N 1761.9 1.57599 -0.0067085 0
M  V30 18310 C 1763.17 1.82097 0.714141 0
M  V30 18311 C 1763.55 0.885868 1.91613 0
M  V30 18312 O 1762.9 -0.0638506 2.28411 0
M  V30 18313 C 1763.11 3.30759 1.11354 0
M  V30 18314 C 1764.46 3.96668 1.51459 0
M  V30 18315 O 1765.48 3.35121 1.20715 0
M  V30 18316 O 1764.34 5.051 2.08654 0
M  V30 18317 H 1761.44 0.750071 0.348314 0
M  V30 18318 H 1763.98 1.69669 -0.0326766 0
M  V30 18319 H 1762.75 3.90455 0.257068 0
M  V30 18320 H 1762.38 3.48211 1.91924 0
M  V30 18321 N 1763.37 -0.266145 1.55336 0
M  V30 18322 C 1764.62 -0.994862 1.75917 0
M  V30 18323 C 1764.94 -1.8657 0.567147 0
M  V30 18324 O 1764.21 -1.91394 -0.417738 0
M  V30 18325 H 1762.79 -0.370318 0.648748 0
M  V30 18326 H 1765.45 -0.288724 1.9275 0
M  V30 18327 H 1764.55 -1.62781 2.66287 0
M  V30 18328 N 1764.85 -1.48386 -0.530967 0
M  V30 18329 C 1765.78 -1.6573 -1.64486 0
M  V30 18330 C 1766.76 -0.506198 -1.62393 0
M  V30 18331 O 1767.95 -0.738623 -1.79605 0
M  V30 18332 C 1765.08 -1.69594 -3.03076 0
M  V30 18333 C 1764.03 -2.84195 -3.20027 0
M  V30 18334 C 1763.36 -2.73148 -4.59668 0
M  V30 18335 C 1764.66 -4.25504 -3.02892 0
M  V30 18336 H 1766.35 -2.58983 -1.50227 0
M  V30 18337 H 1763.9 -1.24633 -0.721286 0
M  V30 18338 H 1765.85 -1.80316 -3.80873 0
M  V30 18339 H 1764.57 -0.729193 -3.18356 0
M  V30 18340 H 1763.23 -2.73027 -2.44647 0
M  V30 18341 H 1762.88 -1.74444 -4.71782 0
M  V30 18342 H 1762.58 -3.50047 -4.71954 0
M  V30 18343 H 1764.11 -2.85836 -5.39565 0
M  V30 18344 H 1765.52 -4.37511 -3.70482 0
M  V30 18345 H 1763.92 -5.03393 -3.26673 0
M  V30 18346 H 1764.99 -4.42036 -1.99329 0
M  V30 18347 N 1766.33 0.779763 -1.36958 0
M  V30 18348 C 1767.75 1.07919 -1.17582 0
M  V30 18349 C 1767.95 2.01499 -0.00649229 0
M  V30 18350 O 1767 2.43832 0.655905 0
M  V30 18351 C 1768.31 1.68439 -2.49096 0
M  V30 18352 C 1769.86 1.80735 -2.55546 0
M  V30 18353 C 1770.34 2.44669 -3.87171 0
M  V30 18354 N 1771.83 2.52127 -3.88569 0
M  V30 18355 C 1772.56 3.02429 -4.87159 0
M  V30 18356 N 1772.06 3.52964 -5.96144 0
M  V30 18357 N 1773.85 3.0123 -4.7457 0
M  V30 18358 H 1766 0.158249 -2.1181 0
M  V30 18359 H 1768.27 0.132826 -0.938649 0
M  V30 18360 H 1767.97 1.07147 -3.34981 0
M  V30 18361 H 1767.85 2.67832 -2.65604 0
M  V30 18362 H 1770.23 2.41162 -1.70073 0
M  V30 18363 H 1770.31 0.801199 -2.42929 0
M  V30 18364 H 1769.96 1.84883 -4.73055 0
M  V30 18365 H 1769.89 3.45874 -3.97088 0
M  V30 18366 H 1772.38 2.16355 -3.09837 0
M  V30 18367 H 1772.69 3.89725 -6.67334 0
M  V30 18368 H 1771.04 3.5109 -5.998 0
M  V30 18369 H 1774.23 2.61045 -3.88553 0
M  V30 18370 H 1774.4 3.40122 -5.51562 0
M  V30 18371 N 1767.81 1.21396 1.00503 0
M  V30 18372 C 1769.22 0.971304 1.26641 0
M  V30 18373 C 1769.42 -0.342336 1.98571 0
M  V30 18374 O 1768.48 -1.068 2.28801 0
M  V30 18375 C 1769.79 2.16186 2.09008 0
M  V30 18376 C 1771.34 2.20411 2.22234 0
M  V30 18377 C 1771.82 3.38984 3.07983 0
M  V30 18378 N 1773.31 3.3907 3.15572 0
M  V30 18379 C 1774.04 4.27467 3.82177 0
M  V30 18380 N 1773.54 5.26062 4.50811 0
M  V30 18381 N 1775.33 4.15276 3.78817 0
M  V30 18382 H 1767.48 2.05875 0.522436 0
M  V30 18383 H 1769.74 0.901496 0.293272 0
M  V30 18384 H 1769.45 3.11383 1.63504 0
M  V30 18385 H 1769.32 2.15243 3.09758 0
M  V30 18386 H 1771.71 1.25769 2.66957 0
M  V30 18387 H 1771.79 2.25397 1.20954 0
M  V30 18388 H 1771.44 4.33919 2.63964 0
M  V30 18389 H 1771.37 3.31236 4.09378 0
M  V30 18390 H 1773.86 2.67718 2.66713 0
M  V30 18391 H 1774.17 5.89815 4.99338 0
M  V30 18392 H 1772.52 5.29987 4.49599 0
M  V30 18393 H 1775.71 3.37511 3.24351 0
M  V30 18394 H 1775.88 4.84375 4.30448 0
M  V30 18395 N 1769.29 -1.19996 1.0217 0
M  V30 18396 C 1770.52 -1.93186 0.732311 0
M  V30 18397 C 1770.92 -1.75303 -0.711724 0
M  V30 18398 O 1770.27 -1.06756 -1.49495 0
M  V30 18399 C 1770.33 -3.45466 0.994655 0
M  V30 18400 C 1769.99 -3.87114 2.42882 0
M  V30 18401 C 1770.99 -3.92459 3.40987 0
M  V30 18402 C 1768.67 -4.18958 2.77091 0
M  V30 18403 C 1770.67 -4.29067 4.7136 0
M  V30 18404 C 1768.36 -4.5524 4.07676 0
M  V30 18405 C 1769.35 -4.60267 5.04622 0
M  V30 18406 O 1769.04 -4.95713 6.32869 0
M  V30 18407 H 1768.77 -0.62069 0.267806 0
M  V30 18408 H 1771.33 -1.53287 1.3672 0
M  V30 18409 H 1769.56 -3.85514 0.30261 0
M  V30 18410 H 1771.25 -3.99887 0.696049 0
M  V30 18411 H 1772.01 -3.68016 3.15895 0
M  V30 18412 H 1767.89 -4.14233 2.02317 0
M  V30 18413 H 1771.44 -4.32905 5.47027 0
M  V30 18414 H 1767.33 -4.7914 4.32545 0
M  V30 18415 H 1768.1 -5.13687 6.37234 0
M  V30 18416 N 1770.76 -0.798611 -1.35867 0
M  V30 18417 C 1772.01 -0.37526 -1.98993 0
M  V30 18418 C 1772.34 1.05549 -1.6337 0
M  V30 18419 O 1771.59 1.74552 -0.88488 0
M  V30 18420 C 1771.89 -0.496572 -3.53934 0
M  V30 18421 C 1771.56 -1.88946 -4.09402 0
M  V30 18422 C 1770.22 -2.27056 -4.24263 0
M  V30 18423 C 1772.57 -2.8011 -4.39531 0
M  V30 18424 C 1769.9 -3.55712 -4.66568 0
M  V30 18425 C 1772.25 -4.08205 -4.83272 0
M  V30 18426 C 1770.92 -4.46323 -4.96338 0
M  V30 18427 H 1770.19 -0.137317 -0.728165 0
M  V30 18428 H 1772.83 -1.01786 -1.6221 0
M  V30 18429 H 1771.14 0.229499 -3.91127 0
M  V30 18430 H 1772.84 -0.149903 -4.0072 0
M  V30 18431 H 1769.43 -1.58336 -3.98281 0
M  V30 18432 H 1773.61 -2.51919 -4.2761 0
M  V30 18433 H 1768.87 -3.85105 -4.74873 0
M  V30 18434 H 1773.04 -4.78952 -5.05547 0
M  V30 18435 H 1770.67 -5.4607 -5.28877 0
M  V30 18436 N 1772.24 1.47639 -0.551417 0
M  V30 18437 C 1773.47 2.07381 -0.0278888 0
M  V30 18438 C 1773.89 1.40223 1.25375 0
M  V30 18439 O 1773.25 0.475268 1.7496 0
M  V30 18440 C 1773.3 3.60258 0.157001 0
M  V30 18441 O 1772.4 3.93913 1.2209 0
M  V30 18442 H 1771.74 0.66221 -0.0487252 0
M  V30 18443 H 1774.27 1.89742 -0.765449 0
M  V30 18444 H 1774.28 4.06291 0.373013 0
M  V30 18445 H 1772.96 4.08537 -0.779122 0
M  V30 18446 H 1771.53 3.59633 0.985843 0
M  V30 18447 N 1773.72 0.287581 1.54954 0
M  V30 18448 C 1774.63 -0.604236 2.26685 0
M  V30 18449 C 1775.65 -1.1597 1.29719 0
M  V30 18450 O 1776.82 -1.18735 1.62678 0
M  V30 18451 C 1773.89 -1.76612 2.98344 0
M  V30 18452 C 1772.95 -1.24608 4.10818 0
M  V30 18453 C 1772.18 -2.35258 4.7905 0
M  V30 18454 O 1772.4 -3.54879 4.46561 0
M  V30 18455 O 1771.34 -2.02709 5.66739 0
M  V30 18456 H 1775.16 -0.0227663 3.03691 0
M  V30 18457 H 1772.75 0.0545243 1.493 0
M  V30 18458 H 1774.63 -2.44332 3.43336 0
M  V30 18459 H 1773.31 -2.33444 2.24244 0
M  V30 18460 H 1772.21 -0.53498 3.70255 0
M  V30 18461 H 1773.55 -0.723348 4.86856 0
M  V30 18462 N 1775.2 -1.57593 0.0150662 0
M  V30 18463 C 1776.61 -1.79146 -0.525709 0
M  V30 18464 C 1776.96 -0.923985 -1.73081 0
M  V30 18465 O 1776.09 -0.130532 -2.16006 0
M  V30 18466 C 1776.68 -3.249 -0.960492 0
M  V30 18467 C 1775.24 -3.47497 -1.44647 0
M  V30 18468 C 1774.39 -2.74332 -0.404628 0
M  V30 18469 H 1777.34 -1.56857 0.241175 0
M  V30 18470 H 1777.36 -3.3384 -1.82568 0
M  V30 18471 H 1776.87 -3.88011 -0.0832025 0
M  V30 18472 H 1774.97 -2.8962 -2.34416 0
M  V30 18473 H 1775.08 -4.56199 -1.46354 0
M  V30 18474 H 1773.45 -2.39394 -0.869627 0
M  V30 18475 H 1774.23 -3.40151 0.463953 0
M  V30 18476 N 1776.68 0.257904 -1.55475 0
M  V30 18477 C 1777.61 1.32303 -1.92401 0
M  V30 18478 C 1778.59 1.50767 -0.787617 0
M  V30 18479 O 1779.77 1.63559 -1.047 0
M  V30 18480 C 1776.9 2.67984 -2.20912 0
M  V30 18481 C 1775.86 2.64231 -3.36699 0
M  V30 18482 C 1775.18 4.03604 -3.50725 0
M  V30 18483 C 1776.48 2.22177 -4.72689 0
M  V30 18484 H 1778.18 1.01646 -2.81618 0
M  V30 18485 H 1775.72 0.487523 -1.35496 0
M  V30 18486 H 1777.68 3.42622 -2.45332 0
M  V30 18487 H 1776.4 3.00254 -1.2851 0
M  V30 18488 H 1775.06 1.92049 -3.1227 0
M  V30 18489 H 1774.71 4.33122 -2.55763 0
M  V30 18490 H 1774.41 4.01983 -4.28583 0
M  V30 18491 H 1775.93 4.79959 -3.77455 0
M  V30 18492 H 1777.34 2.86543 -4.96554 0
M  V30 18493 H 1775.74 2.3169 -5.5357 0
M  V30 18494 H 1776.81 1.17326 -4.70492 0
M  V30 18495 N 1778.15 1.48666 0.52309 0
M  V30 18496 C 1779.09 1.59796 1.64311 0
M  V30 18497 C 1780.1 0.481836 1.55506 0
M  V30 18498 O 1781.29 0.752977 1.61841 0
M  V30 18499 C 1778.39 1.5181 3.02997 0
M  V30 18500 C 1777.56 2.7858 3.37212 0
M  V30 18501 C 1776.62 2.63952 4.5521 0
M  V30 18502 O 1775.65 3.37851 4.58088 0
M  V30 18503 N 1776.85 1.74026 5.53801 0
M  V30 18504 H 1779.61 2.56386 1.55197 0
M  V30 18505 H 1777.17 1.45476 0.710511 0
M  V30 18506 H 1779.17 1.39709 3.7982 0
M  V30 18507 H 1777.74 0.631664 3.06152 0
M  V30 18508 H 1776.96 3.05194 2.495 0
M  V30 18509 H 1778.24 3.62668 3.56861 0
M  V30 18510 H 1777.64 1.13202 5.54258 0
M  V30 18511 H 1776.2 1.6786 6.29814 0
M  V30 18512 N 1779.63 -0.772489 1.37369 0
M  V30 18513 C 1780.91 -1.52029 1.23072 0
M  V30 18514 C 1781.29 -2.10365 -0.176011 0
M  V30 18515 O 1780.64 -1.95459 -1.18356 0
M  V30 18516 C 1780.85 -2.60176 2.32614 0
M  V30 18517 C 1782.2 -3.27599 2.70118 0
M  V30 18518 O 1783.22 -2.70471 2.31785 0
M  V30 18519 O 1782.08 -4.30883 3.36158 0
M  V30 18520 H 1779.17 -0.673306 0.480196 0
M  V30 18521 H 1781.72 -0.809518 1.49147 0
M  V30 18522 H 1780.49 -2.15185 3.2682 0
M  V30 18523 H 1780.11 -3.38855 2.07998 0
M  V30 18524 N 1781.11 -1.21927 -0.998575 0
M  V30 18525 C 1782.36 -1.0404 -1.7373 0
M  V30 18526 C 1782.69 0.425251 -1.89794 0
M  V30 18527 O 1781.94 1.3317 -1.43402 0
M  V30 18528 C 1782.24 -1.69015 -3.1491 0
M  V30 18529 C 1781.91 -3.18893 -3.18776 0
M  V30 18530 C 1780.57 -3.5979 -3.19538 0
M  V30 18531 C 1782.92 -4.14851 -3.15512 0
M  V30 18532 C 1780.25 -4.95138 -3.1473 0
M  V30 18533 C 1782.6 -5.50168 -3.12246 0
M  V30 18534 C 1781.26 -5.90454 -3.11321 0
M  V30 18535 H 1780.53 -0.380709 -0.635721 0
M  V30 18536 H 1783.18 -1.5161 -1.1699 0
M  V30 18537 H 1781.49 -1.13755 -3.74923 0
M  V30 18538 H 1783.18 -1.52671 -3.708 0
M  V30 18539 H 1779.77 -2.86325 -3.18929 0
M  V30 18540 H 1783.96 -3.84277 -3.14078 0
M  V30 18541 H 1779.21 -5.25589 -3.12356 0
M  V30 18542 H 1783.39 -6.24254 -3.08675 0
M  V30 18543 H 1781.01 -6.95299 -3.0735 0
M  V30 18544 N 1782.59 1.19452 -1.02805 0
M  V30 18545 C 1783.83 1.89662 -0.734839 0
M  V30 18546 C 1784.19 1.78072 0.728567 0
M  V30 18547 O 1783.48 1.16172 1.52363 0
M  V30 18548 C 1783.68 3.3941 -1.11964 0
M  V30 18549 C 1783.51 3.65573 -2.61891 0
M  V30 18550 C 1782.28 3.83649 -3.28849 0
M  V30 18551 C 1784.47 3.67197 -3.60098 0
M  V30 18552 N 1782.46 3.97434 -4.67888 0
M  V30 18553 C 1783.83 3.86544 -4.84751 0
M  V30 18554 C 1785.88 3.50219 -3.53908 0
M  V30 18555 C 1784.58 3.90672 -6.0396 0
M  V30 18556 C 1786.61 3.55624 -4.72531 0
M  V30 18557 C 1785.97 3.75455 -5.95997 0
M  V30 18558 H 1782.07 0.713192 -0.320751 0
M  V30 18559 H 1784.66 1.43565 -1.31519 0
M  V30 18560 H 1782.83 3.84232 -0.567503 0
M  V30 18561 H 1784.56 3.97136 -0.778765 0
M  V30 18562 H 1781.31 3.82504 -2.79263 0
M  V30 18563 H 1781.74 4.08178 -5.40111 0
M  V30 18564 H 1786.38 3.33843 -2.59439 0
M  V30 18565 H 1784.1 4.0584 -6.98799 0
M  V30 18566 H 1787.68 3.43778 -4.69369 0
M  V30 18567 H 1786.56 3.79511 -6.86252 0
M  V30 18568 N 1784.07 0.805805 1.35442 0
M  V30 18569 C 1785.02 0.188328 2.27221 0
M  V30 18570 C 1786 -0.637384 1.47737 0
M  V30 18571 O 1787.19 -0.49477 1.69944 0
M  V30 18572 C 1784.32 -0.662862 3.3684 0
M  V30 18573 C 1783.41 0.172537 4.23749 0
M  V30 18574 N 1783.8 1.23516 4.90487 0
M  V30 18575 C 1782.1 -0.0459629 4.45976 0
M  V30 18576 C 1782.8 1.74511 5.54906 0
M  V30 18577 N 1781.77 1.05168 5.3333 0
M  V30 18578 H 1785.58 1.00141 2.76313 0
M  V30 18579 H 1783.09 0.646886 1.4896 0
M  V30 18580 H 1785.09 -1.12126 4.01539 0
M  V30 18581 H 1783.75 -1.4743 2.893 0
M  V30 18582 H 1784.76 1.6178 4.91983 0
M  V30 18583 H 1781.43 -0.826604 4.09235 0
M  V30 18584 H 1782.82 2.63317 6.18154 0
M  V30 18585 N 1785.54 -1.47344 0.559239 0
M  V30 18586 C 1786.48 -2.28095 -0.224826 0
M  V30 18587 C 1787.49 -1.37127 -0.877492 0
M  V30 18588 O 1788.68 -1.61933 -0.751002 0
M  V30 18589 C 1785.78 -3.1145 -1.33611 0
M  V30 18590 C 1784.95 -4.30392 -0.779845 0
M  V30 18591 C 1784.01 -4.95327 -1.77587 0
M  V30 18592 O 1783.04 -5.53654 -1.32119 0
M  V30 18593 N 1784.24 -4.90206 -3.10931 0
M  V30 18594 H 1787 -2.96026 0.46786 0
M  V30 18595 H 1784.56 -1.56996 0.395448 0
M  V30 18596 H 1786.56 -3.51758 -2.00121 0
M  V30 18597 H 1785.13 -2.45749 -1.932 0
M  V30 18598 H 1784.35 -3.94151 0.0620861 0
M  V30 18599 H 1785.63 -5.07322 -0.387581 0
M  V30 18600 H 1785.03 -4.44022 -3.50515 0
M  V30 18601 H 1783.59 -5.34527 -3.72994 0
M  V30 18602 N 1787.02 -0.295795 -1.54799 0
M  V30 18603 C 1787.97 0.582614 -2.23325 0
M  V30 18604 C 1788.94 1.13365 -1.21398 0
M  V30 18605 O 1790.12 1.17914 -1.50003 0
M  V30 18606 C 1787.26 1.75112 -2.97371 0
M  V30 18607 C 1786.38 1.23197 -4.14061 0
M  V30 18608 C 1785.51 2.36393 -4.75701 0
M  V30 18609 C 1784.55 1.81585 -5.84545 0
M  V30 18610 N 1783.69 2.88334 -6.40162 0
M  V30 18611 H 1788.53 -0.00836451 -2.97999 0
M  V30 18612 H 1786.07 -0.0158966 -1.47091 0
M  V30 18613 H 1788.02 2.4383 -3.38531 0
M  V30 18614 H 1786.65 2.31381 -2.25084 0
M  V30 18615 H 1785.71 0.437226 -3.77879 0
M  V30 18616 H 1787.02 0.790706 -4.92493 0
M  V30 18617 H 1786.17 3.13067 -5.19687 0
M  V30 18618 H 1784.91 2.83844 -3.9659 0
M  V30 18619 H 1783.92 1.03399 -5.3999 0
M  V30 18620 H 1785.14 1.35045 -6.65537 0
M  V30 18621 H 1783.09 3.35129 -5.63937 0
M  V30 18622 H 1783 2.48687 -7.13926 0
M  V30 18623 H 1784.27 3.64921 -6.88805 0
M  V30 18624 N 1788.5 1.57583 -0.0234236 0
M  V30 18625 C 1789.45 2.11023 0.978379 0
M  V30 18626 C 1790.44 1.03548 1.34067 0
M  V30 18627 O 1791.65 1.2199 1.32357 0
M  V30 18628 H 1788.02 0.674119 0.333267 0
M  V30 18629 H 1790 2.94142 0.502301 0
M  V30 18630 C 1788.74 2.64782 2.25358 0
M  V30 18631 H 1788.07 3.47125 1.98353 0
M  V30 18632 H 1789.51 3.05826 2.93678 0
M  V30 18633 C 1787.97 1.57262 2.97943 0
M  V30 18634 O 1788.5 0.969124 3.89834 0
M  V30 18635 N 1786.7 1.29443 2.60178 0
M  V30 18636 H 1786.25 1.78706 1.85532 0
M  V30 18637 H 1786.21 0.577276 3.09055 0
M  V30 18638 N 1789.98 -0.249655 1.5561 0
M  V30 18639 C 1791.21 -0.995707 1.81365 0
M  V30 18640 C 1791.62 -1.79054 0.598767 0
M  V30 18641 O 1790.98 -1.773 -0.432538 0
M  V30 18642 C 1791.03 -1.93577 3.05303 0
M  V30 18643 O 1790.75 -1.17311 4.22102 0
M  V30 18644 C 1792.25 -2.79804 3.43838 0
M  V30 18645 H 1789.47 -0.293118 0.603591 0
M  V30 18646 H 1792.02 -0.273374 2.02665 0
M  V30 18647 H 1790.17 -2.61242 2.86062 0
M  V30 18648 H 1790.59 -1.80875 4.92326 0
M  V30 18649 H 1792.06 -3.4152 4.33668 0
M  V30 18650 H 1792.54 -3.50776 2.64298 0
M  V30 18651 H 1793.14 -2.17596 3.6542 0
M  V30 18652 N 1791.46 -1.48941 -0.515198 0
M  V30 18653 C 1792.73 -1.48205 -1.27651 0
M  V30 18654 C 1793.11 -0.201866 -2.10133 0
M  V30 18655 O 1792.46 0.816115 -2.13429 0
M  V30 18656 C 1792.67 -2.75274 -2.14535 0
M  V30 18657 C 1794.02 -3.24198 -2.74192 0
M  V30 18658 O 1795.04 -2.76293 -2.24813 0
M  V30 18659 O 1793.9 -4.07593 -3.64047 0
M  V30 18660 H 1791 -0.592546 -0.576904 0
M  V30 18661 H 1793.54 -1.6119 -0.530636 0
M  V30 18662 H 1792.32 -3.59949 -1.53469 0
M  V30 18663 H 1791.94 -2.6508 -2.96342 0
M  V30 18664 N 1792.94 0.765193 -1.37777 0
M  V30 18665 C 1794.17 1.5521 -1.36358 0
M  V30 18666 C 1794.57 1.8913 0.0514021 0
M  V30 18667 O 1793.92 1.52422 1.02535 0
M  V30 18668 C 1793.98 2.88605 -2.14354 0
M  V30 18669 C 1793.64 2.77286 -3.63265 0
M  V30 18670 C 1794.64 2.47869 -4.57009 0
M  V30 18671 C 1792.32 2.95102 -4.06473 0
M  V30 18672 C 1794.32 2.36406 -5.91938 0
M  V30 18673 C 1792.01 2.83259 -5.41486 0
M  V30 18674 C 1793 2.53952 -6.34032 0
M  V30 18675 O 1792.69 2.42148 -7.66564 0
M  V30 18676 H 1792.42 0.487266 -0.468559 0
M  V30 18677 H 1794.98 0.955716 -1.81811 0
M  V30 18678 H 1793.21 3.50388 -1.636 0
M  V30 18679 H 1794.9 3.50043 -2.05486 0
M  V30 18680 H 1795.66 2.33784 -4.24936 0
M  V30 18681 H 1791.54 3.16913 -3.34794 0
M  V30 18682 H 1795.09 2.13452 -6.64142 0
M  V30 18683 H 1790.98 2.96914 -5.7316 0
M  V30 18684 H 1791.75 2.57448 -7.76957 0
M  V30 18685 N 1794.41 1.22455 0.992094 0
M  V30 18686 C 1795.36 0.992597 2.10357 0
M  V30 18687 C 1796.36 -0.0645514 1.69277 0
M  V30 18688 O 1797.56 0.0879577 1.79785 0
M  V30 18689 H 1793.94 0.303808 0.687899 0
M  V30 18690 H 1795.91 1.93574 2.27094 0
M  V30 18691 C 1794.66 0.587852 3.42695 0
M  V30 18692 H 1793.98 1.39298 3.74748 0
M  V30 18693 H 1795.42 0.464975 4.21443 0
M  V30 18694 C 1793.88 -0.702681 3.29491 0
M  V30 18695 O 1794.41 -1.7549 3.61339 0
M  V30 18696 N 1792.61 -0.674141 2.82672 0
M  V30 18697 H 1792.16 0.182446 2.56953 0
M  V30 18698 H 1792.12 -1.53789 2.7422 0
M  V30 18699 N 1795.89 -1.18905 1.03437 0
M  V30 18700 C 1796.84 -2.24362 0.613557 0
M  V30 18701 C 1797.83 -1.65605 -0.356541 0
M  V30 18702 O 1799.04 -1.78594 -0.22452 0
M  V30 18703 H 1795.41 -0.730098 0.18017 0
M  V30 18704 H 1797.39 -2.57168 1.51351 0
M  V30 18705 C 1796.13 -3.47697 -0.0141125 0
M  V30 18706 H 1795.46 -3.93201 0.723394 0
M  V30 18707 H 1796.9 -4.2313 -0.271424 0
M  V30 18708 C 1795.36 -3.12357 -1.26232 0
M  V30 18709 O 1795.89 -3.25515 -2.35378 0
M  V30 18710 N 1794.09 -2.6674 -1.15318 0
M  V30 18711 H 1793.64 -2.56233 -0.26501 0
M  V30 18712 H 1793.6 -2.43466 -1.98927 0
M  V30 18713 N 1797.37 -0.812977 -1.35013 0
M  V30 18714 C 1798.59 -0.407969 -2.03348 0
M  V30 18715 C 1799.02 0.975148 -1.60849 0
M  V30 18716 O 1798.38 1.63267 -0.788256 0
M  V30 18717 C 1798.43 -0.506754 -3.57022 0
M  V30 18718 O 1797.53 0.477322 -4.09628 0
M  V30 18719 H 1796.87 -0.169416 -0.642023 0
M  V30 18720 H 1799.4 -1.10064 -1.72474 0
M  V30 18721 H 1799.41 -0.378883 -4.06237 0
M  V30 18722 H 1798.09 -1.51557 -3.87302 0
M  V30 18723 H 1796.66 0.309161 -3.71616 0
M  V30 18724 N 1798.85 1.47045 -0.567045 0
M  V30 18725 C 1800.26 1.86202 -0.13627 0
M  V30 18726 C 1800.61 1.47252 1.29658 0
M  V30 18727 O 1799.73 0.880121 1.97694 0
M  V30 18728 C 1800.33 3.37945 -0.240528 0
M  V30 18729 C 1798.89 3.76157 0.135272 0
M  V30 18730 C 1798.04 2.71089 -0.583628 0
M  V30 18731 H 1800.99 1.38423 -0.776196 0
M  V30 18732 H 1801.01 3.76673 0.538293 0
M  V30 18733 H 1800.52 3.66263 -1.28348 0
M  V30 18734 H 1798.62 3.53456 1.17896 0
M  V30 18735 H 1798.73 4.78547 -0.230137 0
M  V30 18736 H 1797.1 2.54687 -0.0256067 0
M  V30 18737 H 1797.88 3.02247 -1.62792 0
M  V30 18738 N 1800.33 0.304 1.5464 0
M  V30 18739 C 1801.57 -0.304394 2.00199 0
M  V30 18740 C 1801.9 -1.53665 1.19237 0
M  V30 18741 O 1801.16 -1.94 0.257393 0
M  V30 18742 C 1801.45 -0.702651 3.50425 0
M  V30 18743 C 1801.12 0.428205 4.48862 0
M  V30 18744 C 1799.78 0.738646 4.75497 0
M  V30 18745 C 1802.13 1.18878 5.07462 0
M  V30 18746 C 1799.46 1.81273 5.57994 0
M  V30 18747 C 1801.81 2.2528 5.91127 0
M  V30 18748 C 1800.48 2.56927 6.16072 0
M  V30 18749 H 1799.75 -0.111386 0.732581 0
M  V30 18750 H 1802.4 0.42372 1.86753 0
M  V30 18751 H 1800.7 -1.5109 3.61496 0
M  V30 18752 H 1802.4 -1.18461 3.83103 0
M  V30 18753 H 1798.99 0.176148 4.28238 0
M  V30 18754 H 1803.17 0.9622 4.86883 0
M  V30 18755 H 1798.43 2.06261 5.75557 0
M  V30 18756 H 1802.6 2.8467 6.3556 0
M  V30 18757 H 1800.23 3.40286 6.79786 0
M  V30 18758 N 1801.8 -1.57568 0.0317802 0
M  V30 18759 C 1802.75 -2.06878 -0.958403 0
M  V30 18760 C 1803.74 -0.96985 -1.28385 0
M  V30 18761 O 1804.93 -1.23338 -1.26951 0
M  V30 18762 C 1802.06 -2.60159 -2.23991 0
M  V30 18763 C 1801.14 -3.76987 -1.94272 0
M  V30 18764 N 1801.54 -4.87498 -1.34832 0
M  V30 18765 C 1799.83 -3.85524 -2.24248 0
M  V30 18766 C 1800.53 -5.68697 -1.22304 0
M  V30 18767 N 1799.51 -5.1569 -1.71944 0
M  V30 18768 H 1803.31 -2.89721 -0.493848 0
M  V30 18769 H 1800.83 -1.61474 -0.173168 0
M  V30 18770 H 1802.82 -2.93778 -2.95804 0
M  V30 18771 H 1801.48 -1.78747 -2.71071 0
M  V30 18772 H 1802.49 -5.07696 -1.02299 0
M  V30 18773 H 1799.17 -3.15023 -2.73983 0
M  V30 18774 H 1800.56 -6.67551 -0.763197 0
M  V30 18775 N 1803.28 0.241399 -1.5574 0
M  V30 18776 C 1804.53 0.966607 -1.7703 0
M  V30 18777 C 1804.84 1.86275 -0.59673 0
M  V30 18778 O 1806.05 2.62513 -0.692775 0
M  V30 18779 C 1804.51 1.7688 -3.13435 0
M  V30 18780 C 1804.11 0.919775 -4.38457 0
M  V30 18781 C 1805.86 2.48641 -3.44061 0
M  V30 18782 C 1803.77 1.71817 -5.65891 0
M  V30 18783 H 1802.7 0.364644 -0.659963 0
M  V30 18784 H 1805.35 0.221088 -1.82163 0
M  V30 18785 H 1803.73 2.55648 -3.02424 0
M  V30 18786 H 1804.9 0.174036 -4.60471 0
M  V30 18787 H 1803.22 0.315234 -4.15205 0
M  V30 18788 H 1805.81 3.08839 -4.36489 0
M  V30 18789 H 1806.16 3.20534 -2.65638 0
M  V30 18790 H 1806.69 1.7688 -3.56312 0
M  V30 18791 H 1803.43 1.04289 -6.47151 0
M  V30 18792 H 1802.95 2.43905 -5.47969 0
M  V30 18793 H 1804.63 2.28392 -6.05348 0
M  V30 18794 N 1804.76 1.49212 0.507292 0
M  V30 18795 C 1805.99 1.62343 1.29072 0
M  V30 18796 C 1806.41 0.292387 1.85814 0
M  V30 18797 O 1805.77 -0.739145 1.65549 0
M  V30 18798 C 1805.82 2.69017 2.40129 0
M  V30 18799 O 1804.92 2.27753 3.43806 0
M  V30 18800 H 1804.26 0.543591 0.38132 0
M  V30 18801 H 1806.79 1.95358 0.607997 0
M  V30 18802 H 1806.8 2.90992 2.85985 0
M  V30 18803 H 1805.48 3.65638 1.98195 0
M  V30 18804 H 1804.05 2.16084 3.03912 0
M  V30 18805 N 1806.24 -0.757876 1.38181 0
M  V30 18806 C 1807.17 -1.88108 1.3095 0
M  V30 18807 C 1808.18 -1.61272 0.222551 0
M  V30 18808 O 1809.37 -1.71931 0.479782 0
M  V30 18809 C 1806.47 -3.2365 1.00518 0
M  V30 18810 C 1805.65 -3.78024 2.20037 0
M  V30 18811 C 1804.7 -4.92073 1.86416 0
M  V30 18812 O 1803.73 -5.0693 2.58864 0
M  V30 18813 N 1804.93 -5.74728 0.816553 0
M  V30 18814 H 1807.7 -1.94823 2.27737 0
M  V30 18815 H 1805.26 -0.937616 1.31986 0
M  V30 18816 H 1807.25 -3.97483 0.760861 0
M  V30 18817 H 1805.82 -3.12348 0.125418 0
M  V30 18818 H 1805.04 -2.95807 2.60561 0
M  V30 18819 H 1806.33 -4.11085 2.99811 0
M  V30 18820 H 1805.73 -5.65289 0.215659 0
M  V30 18821 H 1804.28 -6.48728 0.63211 0
M  V30 18822 N 1807.72 -1.22979 -0.985586 0
M  V30 18823 C 1808.96 -1.07044 -1.74129 0
M  V30 18824 C 1809.32 0.386735 -1.88065 0
M  V30 18825 O 1810.52 0.667136 -2.6039 0
M  V30 18826 C 1808.79 -1.77023 -3.1048 0
M  V30 18827 S 1810.35 -1.76594 -4.01697 0
M  V30 18828 H 1807.17 -0.383192 -0.598903 0
M  V30 18829 H 1809.77 -1.56035 -1.17785 0
M  V30 18830 H 1808.48 -2.82194 -2.97984 0
M  V30 18831 H 1808.01 -1.28293 -3.71893 0
M  V30 18832 H 1810.02 -0.820835 -4.89364 0
M  V30 18833 N 1809.19 1.18355 -1.04066 0
M  V30 18834 C 1810.44 1.88335 -0.744046 0
M  V30 18835 C 1810.77 1.80353 0.728219 0
M  V30 18836 O 1810.02 1.19839 1.54717 0
M  V30 18837 C 1810.32 3.38203 -1.15557 0
M  V30 18838 C 1809.99 3.66389 -2.62812 0
M  V30 18839 C 1808.65 3.73791 -3.03041 0
M  V30 18840 C 1811 3.78773 -3.58023 0
M  V30 18841 C 1808.33 3.91056 -4.37369 0
M  V30 18842 C 1810.68 3.97554 -4.92071 0
M  V30 18843 C 1809.35 4.03192 -5.3197 0
M  V30 18844 H 1808.62 0.689168 -0.272266 0
M  V30 18845 H 1811.26 1.40087 -1.30568 0
M  V30 18846 H 1809.57 3.8843 -0.512741 0
M  V30 18847 H 1811.27 3.90691 -0.903428 0
M  V30 18848 H 1807.86 3.61244 -2.30652 0
M  V30 18849 H 1812.04 3.72386 -3.28089 0
M  V30 18850 H 1807.3 3.93665 -4.67801 0
M  V30 18851 H 1811.47 4.06078 -5.65751 0
M  V30 18852 H 1809.1 4.16323 -6.36066 0
M  V30 18853 N 1810.67 0.820125 1.3458 0
M  V30 18854 C 1811.92 0.407473 1.98664 0
M  V30 18855 C 1812.25 -1.02613 1.64877 0
M  V30 18856 O 1811.53 -1.71421 0.918964 0
M  V30 18857 C 1811.81 0.606744 3.54952 0
M  V30 18858 C 1811.66 2.08626 3.98491 0
M  V30 18859 C 1812.98 0.0409321 4.40081 0
M  V30 18860 H 1810.1 0.149524 0.721673 0
M  V30 18861 H 1812.74 1.03217 1.59519 0
M  V30 18862 H 1810.89 0.0749788 3.88428 0
M  V30 18863 H 1812.56 2.68144 3.75361 0
M  V30 18864 H 1810.81 2.57774 3.48905 0
M  V30 18865 H 1811.48 2.17651 5.07279 0
M  V30 18866 H 1813.95 0.495234 4.13142 0
M  V30 18867 H 1812.83 0.210182 5.48497 0
M  V30 18868 H 1813.09 -1.05389 4.29355 0
M  V30 18869 N 1812.15 -1.46743 0.574835 0
M  V30 18870 C 1813.08 -2.33012 -0.150836 0
M  V30 18871 C 1814.06 -1.44868 -0.891472 0
M  V30 18872 O 1815.25 -1.73698 -0.868481 0
M  V30 18873 C 1812.38 -3.26995 -1.17012 0
M  V30 18874 C 1811.33 -4.24518 -0.544829 0
M  V30 18875 C 1810.66 -5.07951 -1.67002 0
M  V30 18876 C 1811.96 -5.19776 0.512891 0
M  V30 18877 H 1813.65 -2.93935 0.569433 0
M  V30 18878 H 1811.2 -1.41344 0.275289 0
M  V30 18879 H 1813.15 -3.86198 -1.68609 0
M  V30 18880 H 1811.87 -2.64163 -1.92056 0
M  V30 18881 H 1810.53 -3.66566 -0.0500133 0
M  V30 18882 H 1810.18 -4.4151 -2.40993 0
M  V30 18883 H 1809.88 -5.73991 -1.25732 0
M  V30 18884 H 1811.4 -5.70017 -2.1889 0
M  V30 18885 H 1812.82 -5.73241 0.0823064 0
M  V30 18886 H 1811.22 -5.94114 0.845462 0
M  V30 18887 H 1812.29 -4.64184 1.40217 0
M  V30 18888 N 1813.63 -0.312197 -1.54477 0
M  V30 18889 C 1814.58 0.558894 -2.23931 0
M  V30 18890 C 1815.55 1.12071 -1.22594 0
M  V30 18891 O 1816.73 1.16316 -1.51245 0
M  V30 18892 C 1813.87 1.71948 -2.99212 0
M  V30 18893 C 1812.98 1.18799 -4.15344 0
M  V30 18894 C 1812.12 2.31334 -4.78182 0
M  V30 18895 C 1811.16 1.75375 -5.86438 0
M  V30 18896 N 1810.29 2.81528 -6.43184 0
M  V30 18897 H 1815.13 -0.0399708 -2.97973 0
M  V30 18898 H 1812.67 -0.0314967 -1.47066 0
M  V30 18899 H 1814.63 2.40225 -3.41098 0
M  V30 18900 H 1813.26 2.28981 -2.27525 0
M  V30 18901 H 1812.31 0.397122 -3.78321 0
M  V30 18902 H 1813.62 0.738426 -4.93304 0
M  V30 18903 H 1812.78 3.07537 -5.22978 0
M  V30 18904 H 1811.52 2.79622 -3.99578 0
M  V30 18905 H 1810.52 0.976658 -5.41056 0
M  V30 18906 H 1811.75 1.27978 -6.66932 0
M  V30 18907 H 1809.69 3.29129 -5.6746 0
M  V30 18908 H 1809.61 2.41101 -7.16524 0
M  V30 18909 H 1810.88 3.57595 -6.92637 0
M  V30 18910 N 1815.11 1.57549 -0.040136 0
M  V30 18911 C 1816.04 2.13912 0.936168 0
M  V30 18912 C 1817.02 1.05798 1.33194 0
M  V30 18913 O 1818.2 1.33685 1.40861 0
M  V30 18914 C 1815.33 2.67515 2.21479 0
M  V30 18915 C 1814.29 3.80513 1.95943 0
M  V30 18916 C 1813.61 4.20589 3.30165 0
M  V30 18917 C 1814.91 5.06124 1.28981 0
M  V30 18918 H 1816.61 2.9574 0.46674 0
M  V30 18919 H 1814.15 1.42262 0.223062 0
M  V30 18920 H 1816.11 3.05582 2.90168 0
M  V30 18921 H 1814.83 1.82864 2.70608 0
M  V30 18922 H 1813.49 3.42902 1.29669 0
M  V30 18923 H 1813.14 3.32904 3.77073 0
M  V30 18924 H 1812.84 4.96742 3.13881 0
M  V30 18925 H 1814.36 4.61248 4.00103 0
M  V30 18926 H 1815.77 5.41707 1.87687 0
M  V30 18927 H 1814.17 5.87347 1.2306 0
M  V30 18928 H 1815.24 4.84179 0.264286 0
M  V30 18929 N 1816.58 -0.233136 1.55866 0
M  V30 18930 C 1817.81 -0.980602 1.82754 0
M  V30 18931 C 1818.23 -1.77624 0.618988 0
M  V30 18932 O 1817.59 -1.76074 -0.432148 0
M  V30 18933 C 1817.64 -1.88319 3.07519 0
M  V30 18934 O 1816.74 -2.97692 2.85401 0
M  V30 18935 H 1816.09 -0.278295 0.602867 0
M  V30 18936 H 1818.62 -0.249956 2.03067 0
M  V30 18937 H 1818.63 -2.29523 3.37318 0
M  V30 18938 H 1817.3 -1.29831 3.95116 0
M  V30 18939 H 1815.88 -2.60517 2.66805 0
M  V30 18940 N 1818.06 -1.49479 -0.499372 0
M  V30 18941 C 1819.34 -1.4955 -1.26071 0
M  V30 18942 C 1819.72 -0.224142 -2.09907 0
M  V30 18943 O 1819.07 0.793432 -2.14282 0
M  V30 18944 C 1819.28 -2.77534 -2.11604 0
M  V30 18945 C 1820.63 -3.27088 -2.70738 0
M  V30 18946 O 1821.65 -2.78662 -2.2187 0
M  V30 18947 O 1820.51 -4.11432 -3.59703 0
M  V30 18948 H 1817.6 -0.598631 -0.570587 0
M  V30 18949 H 1820.15 -1.61744 -0.513509 0
M  V30 18950 H 1818.92 -3.61556 -1.49642 0
M  V30 18951 H 1818.54 -2.68208 -2.93514 0
M  V30 18952 N 1819.54 0.750537 -1.38581 0
M  V30 18953 C 1820.47 1.87785 -1.38777 0
M  V30 18954 C 1821.45 1.68204 -0.253244 0
M  V30 18955 O 1822.64 1.88752 -0.456779 0
M  V30 18956 C 1819.77 3.2535 -1.21511 0
M  V30 18957 C 1818.72 3.59538 -2.32199 0
M  V30 18958 C 1818.05 4.95873 -2.00036 0
M  V30 18959 C 1819.35 3.64102 -3.74469 0
M  V30 18960 H 1821.04 1.87879 -2.33113 0
M  V30 18961 H 1818.59 0.902504 -1.12209 0
M  V30 18962 H 1820.54 4.03872 -1.20272 0
M  V30 18963 H 1819.26 3.25744 -0.236366 0
M  V30 18964 H 1817.92 2.83336 -2.32629 0
M  V30 18965 H 1817.57 4.9283 -1.00638 0
M  V30 18966 H 1817.27 5.19716 -2.7417 0
M  V30 18967 H 1818.8 5.7677 -2.00421 0
M  V30 18968 H 1820.21 4.32731 -3.76054 0
M  V30 18969 H 1818.61 3.99455 -4.47834 0
M  V30 18970 H 1819.68 2.64259 -4.06565 0
M  V30 18971 N 1821.02 1.235 0.979051 0
M  V30 18972 C 1821.95 0.975198 2.07419 0
M  V30 18973 C 1822.96 -0.0512875 1.62719 0
M  V30 18974 O 1824.15 0.184403 1.77545 0
M  V30 18975 C 1821.25 0.447701 3.3593 0
M  V30 18976 C 1820.43 1.53467 4.09593 0
M  V30 18977 C 1819.49 1.01181 5.16381 0
M  V30 18978 O 1818.51 1.70108 5.43187 0
M  V30 18979 N 1819.71 -0.159667 5.8028 0
M  V30 18980 H 1822.48 1.91806 2.30283 0
M  V30 18981 H 1820.04 1.14377 1.14584 0
M  V30 18982 H 1822.03 0.0829228 4.04615 0
M  V30 18983 H 1820.6 -0.400613 3.10022 0
M  V30 18984 H 1819.82 2.07215 3.35344 0
M  V30 18985 H 1821.11 2.2656 4.55574 0
M  V30 18986 H 1820.51 -0.736193 5.60889 0
M  V30 18987 H 1819.06 -0.465696 6.50134 0
M  V30 18988 N 1822.5 -1.17802 1.04693 0
M  V30 18989 C 1823.72 -1.92408 0.774194 0
M  V30 18990 C 1824.15 -1.76012 -0.663424 0
M  V30 18991 O 1823.51 -1.07447 -1.4603 0
M  V30 18992 C 1823.55 -3.4166 1.1533 0
M  V30 18993 O 1822.66 -4.11431 0.282469 0
M  V30 18994 H 1822 -0.600033 0.284353 0
M  V30 18995 H 1824.53 -1.49348 1.39844 0
M  V30 18996 H 1824.54 -3.92386 1.11791 0
M  V30 18997 H 1823.21 -3.52914 2.20056 0
M  V30 18998 H 1821.79 -3.70979 0.378021 0
M  V30 18999 N 1823.98 -0.827251 -1.34143 0
M  V30 19000 C 1825.22 -0.418003 -1.98445 0
M  V30 19001 C 1825.55 1.01737 -1.65418 0
M  V30 19002 O 1824.83 1.70932 -0.928042 0
M  V30 19003 C 1825.11 -0.625559 -3.54625 0
M  V30 19004 C 1824.97 -2.10736 -3.97379 0
M  V30 19005 C 1826.28 -0.0642701 -4.40053 0
M  V30 19006 H 1823.4 -0.15335 -0.72087 0
M  V30 19007 H 1826.05 -1.04062 -1.58969 0
M  V30 19008 H 1824.2 -0.095577 -3.88382 0
M  V30 19009 H 1825.87 -2.70131 -3.73934 0
M  V30 19010 H 1824.11 -2.59621 -3.47533 0
M  V30 19011 H 1824.78 -2.20338 -5.06118 0
M  V30 19012 H 1827.26 -0.517137 -4.12874 0
M  V30 19013 H 1826.13 -0.239267 -5.48378 0
M  V30 19014 H 1826.39 1.0311 -4.29908 0
M  V30 19015 N 1825.45 1.46436 -0.582609 0
M  V30 19016 C 1826.4 2.32025 0.163475 0
M  V30 19017 C 1827.4 1.44476 0.884478 0
M  V30 19018 O 1828.6 1.61102 0.802878 0
M  V30 19019 H 1824.98 0.748585 0.0715868 0
M  V30 19020 H 1826.95 2.92764 -0.577205 0
M  V30 19021 C 1825.7 3.2764 1.16392 0
M  V30 19022 H 1825.02 3.94986 0.618553 0
M  V30 19023 H 1826.46 3.90308 1.65636 0
M  V30 19024 C 1824.92 2.52986 2.22486 0
M  V30 19025 O 1825.45 2.29283 3.29837 0
M  V30 19026 N 1823.65 2.1355 1.97091 0
M  V30 19027 H 1823.2 2.33027 1.09801 0
M  V30 19028 H 1823.16 1.63919 2.68287 0
M  V30 19029 N 1826.93 0.320385 1.54309 0
M  V30 19030 C 1828.18 -0.283562 2.00808 0
M  V30 19031 C 1828.51 -1.52036 1.20826 0
M  V30 19032 O 1827.79 -1.9233 0.289721 0
M  V30 19033 C 1828.07 -0.620875 3.54707 0
M  V30 19034 C 1827.92 0.626403 4.45417 0
M  V30 19035 C 1829.24 -1.43978 4.15883 0
M  V30 19036 H 1826.36 -0.10159 0.729965 0
M  V30 19037 H 1829 0.436332 1.84922 0
M  V30 19038 H 1827.15 -1.23419 3.68375 0
M  V30 19039 H 1828.82 1.2647 4.43625 0
M  V30 19040 H 1827.07 1.2559 4.15222 0
M  V30 19041 H 1827.74 0.345969 5.50915 0
M  V30 19042 H 1830.21 -0.921381 4.05771 0
M  V30 19043 H 1829.09 -1.64456 5.23685 0
M  V30 19044 H 1829.35 -2.43494 3.69003 0
M  V30 19045 N 1828.41 -1.57525 0.0484906 0
M  V30 19046 C 1829.66 -1.92204 -0.624654 0
M  V30 19047 C 1829.98 -0.927289 -1.71541 0
M  V30 19048 O 1829.25 0.0282687 -1.9588 0
M  V30 19049 H 1827.83 -0.709494 -0.233724 0
M  V30 19050 H 1830.49 -1.94639 0.100861 0
M  V30 19051 H 1829.59 -2.93368 -1.06498 0
M  V30 19052 N 1829.89 0.224867 -1.55988 0
M  V30 19053 C 1830.82 1.28192 -1.95164 0
M  V30 19054 C 1831.8 1.49062 -0.81942 0
M  V30 19055 O 1832.98 1.61301 -1.08146 0
M  V30 19056 C 1830.11 2.63237 -2.26547 0
M  V30 19057 C 1829.07 2.57029 -3.42228 0
M  V30 19058 C 1828.39 3.96073 -3.59207 0
M  V30 19059 C 1829.69 2.12101 -4.77295 0
M  V30 19060 H 1831.39 0.956495 -2.8371 0
M  V30 19061 H 1828.93 0.458673 -1.365 0
M  V30 19062 H 1830.89 3.37341 -2.52545 0
M  V30 19063 H 1829.61 2.97461 -1.3485 0
M  V30 19064 H 1828.27 1.85382 -3.16273 0
M  V30 19065 H 1827.92 4.27599 -2.64892 0
M  V30 19066 H 1827.62 3.92802 -4.37013 0
M  V30 19067 H 1829.14 4.71844 -3.8755 0
M  V30 19068 H 1830.56 2.75946 -5.0252 0
M  V30 19069 H 1828.95 2.19895 -5.5836 0
M  V30 19070 H 1830.02 1.07319 -4.72875 0
M  V30 19071 N 1831.37 1.49742 0.491438 0
M  V30 19072 C 1832.61 1.59711 1.24494 0
M  V30 19073 C 1832.94 0.288122 1.92354 0
M  V30 19074 O 1832.2 -0.724652 1.81789 0
M  V30 19075 C 1832.49 2.71245 2.32725 0
M  V30 19076 C 1832.16 4.12423 1.82258 0
M  V30 19077 C 1830.82 4.50841 1.68214 0
M  V30 19078 C 1833.17 5.00741 1.44595 0
M  V30 19079 C 1830.5 5.75339 1.149 0
M  V30 19080 C 1832.85 6.25767 0.927292 0
M  V30 19081 C 1831.52 6.63005 0.773323 0
M  V30 19082 H 1830.79 0.584422 0.455556 0
M  V30 19083 H 1833.44 1.83607 0.544137 0
M  V30 19084 H 1831.74 2.41357 3.08632 0
M  V30 19085 H 1833.44 2.76165 2.90747 0
M  V30 19086 H 1830.03 3.82104 1.94151 0
M  V30 19087 H 1834.21 4.71709 1.54288 0
M  V30 19088 H 1829.47 6.02883 1.01699 0
M  V30 19089 H 1833.64 6.93574 0.626707 0
M  V30 19090 H 1831.27 7.59356 0.358031 0
M  V30 19091 N 1832.84 -0.743177 1.38977 0
M  V30 19092 C 1834.12 -1.49384 1.26269 0
M  V30 19093 C 1834.5 -2.10691 -0.131349 0
M  V30 19094 O 1833.85 -1.97925 -1.14183 0
M  V30 19095 C 1834.06 -2.55184 2.3808 0
M  V30 19096 C 1835.41 -3.21796 2.77006 0
M  V30 19097 O 1836.43 -2.65493 2.37469 0
M  V30 19098 O 1835.29 -4.23656 3.45222 0
M  V30 19099 H 1832.38 -0.662968 0.49437 0
M  V30 19100 H 1834.93 -0.7777 1.50831 0
M  V30 19101 H 1833.7 -2.08204 3.31311 0
M  V30 19102 H 1833.33 -3.34366 2.15139 0
M  V30 19103 N 1834.32 -1.24018 -0.972487 0
M  V30 19104 C 1835.25 -0.986185 -2.06899 0
M  V30 19105 C 1836.27 0.0426574 -1.62744 0
M  V30 19106 O 1837.46 -0.193816 -1.77445 0
M  V30 19107 C 1834.56 -0.46551 -3.35688 0
M  V30 19108 C 1833.73 -1.55637 -4.08774 0
M  V30 19109 C 1832.79 -1.03918 -5.15837 0
M  V30 19110 O 1831.81 -1.72986 -5.42277 0
M  V30 19111 N 1833.02 0.128891 -5.80357 0
M  V30 19112 H 1835.78 -1.93025 -2.29263 0
M  V30 19113 H 1833.34 -1.14983 -1.13976 0
M  V30 19114 H 1835.33 -0.104379 -4.04565 0
M  V30 19115 H 1833.9 0.384166 -3.1023 0
M  V30 19116 H 1833.12 -2.08991 -3.3424 0
M  V30 19117 H 1834.41 -2.28973 -4.54366 0
M  V30 19118 H 1833.81 0.706438 -5.61272 0
M  V30 19119 H 1832.37 0.431211 -6.50372 0
M  V30 19120 N 1835.8 1.17245 -1.05316 0
M  V30 19121 C 1836.75 2.19256 -0.62538 0
M  V30 19122 C 1837.73 1.57293 0.338793 0
M  V30 19123 O 1838.93 1.76313 0.155822 0
M  V30 19124 C 1836.06 3.433 -0.0029214 0
M  V30 19125 C 1835.14 4.12359 -0.990997 0
M  V30 19126 N 1835.53 4.57224 -2.16287 0
M  V30 19127 C 1833.83 4.38402 -0.819748 0
M  V30 19128 C 1834.53 5.10531 -2.78806 0
M  V30 19129 N 1833.51 5.02811 -2.06595 0
M  V30 19130 H 1837.31 2.51649 -1.51823 0
M  V30 19131 H 1834.82 1.33588 -0.923471 0
M  V30 19132 H 1836.82 4.1566 0.321315 0
M  V30 19133 H 1835.48 3.12398 0.885303 0
M  V30 19134 H 1836.49 4.51272 -2.54115 0
M  V30 19135 H 1833.17 4.17496 0.0173221 0
M  V30 19136 H 1834.56 5.55357 -3.78191 0
M  V30 19137 N 1837.28 0.834353 1.33702 0
M  V30 19138 C 1838.53 0.427887 1.97928 0
M  V30 19139 C 1838.85 -1.0118 1.66111 0
M  V30 19140 O 1838.11 -1.72144 0.930848 0
M  V30 19141 C 1838.41 0.590236 3.52493 0
M  V30 19142 C 1838.07 1.99735 4.04249 0
M  V30 19143 C 1836.74 2.38224 4.18094 0
M  V30 19144 C 1839.09 2.91665 4.3195 0
M  V30 19145 C 1836.42 3.67957 4.56973 0
M  V30 19146 C 1838.77 4.20874 4.72279 0
M  V30 19147 C 1837.43 4.59326 4.8433 0
M  V30 19148 H 1836.7 0.156575 0.724269 0
M  V30 19149 H 1839.35 1.06051 1.59454 0
M  V30 19150 H 1837.65 -0.125718 3.91598 0
M  V30 19151 H 1839.35 0.256094 4.00181 0
M  V30 19152 H 1835.94 1.6884 3.93943 0
M  V30 19153 H 1840.12 2.63168 4.20781 0
M  V30 19154 H 1835.38 3.9756 4.64495 0
M  V30 19155 H 1839.55 4.92187 4.92671 0
M  V30 19156 H 1837.18 5.59901 5.14213 0
M  V30 19157 N 1838.76 -1.46125 0.590367 0
M  V30 19158 C 1840.17 -1.57588 0.252639 0
M  V30 19159 C 1840.37 -1.58435 -1.24502 0
M  V30 19160 O 1839.43 -1.50541 -2.02716 0
M  V30 19161 C 1840.74 -2.86644 0.908612 0
M  V30 19162 C 1842.29 -3.00289 0.882917 0
M  V30 19163 C 1842.76 -4.32092 1.51858 0
M  V30 19164 N 1844.26 -4.38809 1.48327 0
M  V30 19165 C 1844.99 -5.39426 1.94442 0
M  V30 19166 N 1844.49 -6.46674 2.48565 0
M  V30 19167 N 1846.28 -5.30675 1.85313 0
M  V30 19168 H 1838.43 -1.43819 1.56301 0
M  V30 19169 H 1840.69 -0.686515 0.653759 0
M  V30 19170 H 1840.4 -2.91857 1.96246 0
M  V30 19171 H 1840.27 -3.74838 0.421445 0
M  V30 19172 H 1842.66 -2.94653 -0.16233 0
M  V30 19173 H 1842.74 -2.13551 1.40818 0
M  V30 19174 H 1842.39 -4.38486 2.56306 0
M  V30 19175 H 1842.32 -5.17618 0.968474 0
M  V30 19176 H 1844.81 -3.61907 1.08772 0
M  V30 19177 H 1845.12 -7.19671 2.8159 0
M  V30 19178 H 1843.46 -6.47473 2.52595 0
M  V30 19179 H 1846.66 -4.45793 1.42782 0
M  V30 19180 H 1846.83 -6.08943 2.21567 0
M  V30 19181 N 1840.23 -0.328564 -1.54137 0
M  V30 19182 C 1841.16 0.527734 -2.27458 0
M  V30 19183 C 1842.15 1.11518 -1.28444 0
M  V30 19184 O 1843.33 1.13938 -1.57264 0
M  V30 19185 C 1840.46 1.68628 -3.03615 0
M  V30 19186 C 1839.41 1.22789 -4.10008 0
M  V30 19187 C 1838.74 2.47378 -4.74034 0
M  V30 19188 C 1840.04 0.339152 -5.21198 0
M  V30 19189 H 1841.73 -0.0838808 -2.99282 0
M  V30 19190 H 1839.28 -0.0417829 -1.43939 0
M  V30 19191 H 1841.23 2.29165 -3.5364 0
M  V30 19192 H 1839.96 2.32456 -2.29416 0
M  V30 19193 H 1838.62 0.645427 -3.60874 0
M  V30 19194 H 1838.26 3.09581 -3.96445 0
M  V30 19195 H 1837.96 2.17396 -5.45905 0
M  V30 19196 H 1839.49 3.08668 -5.26836 0
M  V30 19197 H 1840.9 0.850947 -5.6695 0
M  V30 19198 H 1839.3 0.131892 -5.99955 0
M  V30 19199 H 1840.37 -0.628692 -4.80807 0
M  V30 19200 N 1841.71 1.57497 -0.0568439 0
M  V30 19201 C 1842.94 1.97231 0.625102 0
M  V30 19202 C 1843.36 0.934622 1.64043 0
M  V30 19203 O 1842.71 -0.0805064 1.82322 0
M  V30 19204 C 1842.76 3.37046 1.30698 0
M  V30 19205 O 1842.48 4.36838 0.332302 0
M  V30 19206 C 1843.99 3.9157 2.07816 0
M  V30 19207 H 1841.21 0.648975 0.170505 0
M  V30 19208 H 1843.75 2.04119 -0.124823 0
M  V30 19209 H 1841.9 3.31292 2.0081 0
M  V30 19210 H 1842.32 5.18055 0.819691 0
M  V30 19211 H 1843.79 4.91664 2.5094 0
M  V30 19212 H 1844.27 3.27303 2.92864 0
M  V30 19213 H 1844.88 4.0068 1.42603 0
M  V30 19214 N 1843.19 -0.216591 1.56105 0
M  V30 19215 C 1844.44 -0.938392 1.78993 0
M  V30 19216 C 1844.76 -1.84671 0.626215 0
M  V30 19217 O 1844.03 -1.92626 -0.356636 0
M  V30 19218 H 1842.61 -0.349491 0.660201 0
M  V30 19219 H 1845.27 -0.227256 1.93571 0
M  V30 19220 H 1844.37 -1.54227 2.71331 0
M  V30 19221 N 1844.67 -1.5 -0.48349 0
M  V30 19222 C 1845.89 -1.64376 -1.26473 0
M  V30 19223 C 1846.32 -0.321912 -1.85325 0
M  V30 19224 O 1845.68 0.712714 -1.66704 0
M  V30 19225 C 1845.72 -2.72803 -2.35819 0
M  V30 19226 O 1844.83 -2.33194 -3.40139 0
M  V30 19227 H 1844.17 -0.549589 -0.372624 0
M  V30 19228 H 1846.7 -1.963 -0.57684 0
M  V30 19229 H 1846.71 -2.95505 -2.8132 0
M  V30 19230 H 1845.38 -3.68745 -1.92353 0
M  V30 19231 H 1843.96 -2.20891 -3.00436 0
M  V30 19232 N 1846.15 0.735796 -1.39369 0
M  V30 19233 C 1847.37 1.52504 -1.39822 0
M  V30 19234 C 1847.79 1.88799 0.00747346 0
M  V30 19235 O 1847.15 1.54044 0.978611 0
M  V30 19236 C 1847.2 2.8131 -2.27039 0
M  V30 19237 O 1846.92 2.46557 -3.62134 0
M  V30 19238 C 1848.42 3.75343 -2.35866 0
M  V30 19239 H 1845.64 0.471306 -0.47761 0
M  V30 19240 H 1848.18 0.909257 -1.83174 0
M  V30 19241 H 1846.34 3.39222 -1.87102 0
M  V30 19242 H 1846.75 3.29294 -4.08247 0
M  V30 19243 H 1848.23 4.6262 -3.01142 0
M  V30 19244 H 1848.7 4.17036 -1.37758 0
M  V30 19245 H 1849.31 3.2335 -2.7627 0
M  V30 19246 N 1847.63 1.24532 0.965897 0
M  V30 19247 C 1849.04 1.07886 1.52373 0
M  V30 19248 C 1849.39 -0.349136 1.93069 0
M  V30 19249 O 1848.51 -1.23774 1.77508 0
M  V30 19250 C 1849.11 1.95224 2.76899 0
M  V30 19251 C 1847.67 1.82796 3.29033 0
M  V30 19252 C 1846.81 1.9005 2.01931 0
M  V30 19253 H 1849.76 1.37982 0.783997 0
M  V30 19254 H 1849.79 1.48558 3.50301 0
M  V30 19255 H 1849.3 2.99148 2.47249 0
M  V30 19256 H 1847.4 0.817115 3.6353 0
M  V30 19257 H 1847.51 2.66989 3.97811 0
M  V30 19258 H 1845.88 1.338 2.16725 0
M  V30 19259 H 1846.66 2.95558 1.74644 0
M  V30 19260 N 1849.1 -1.16685 1.05936 0
M  V30 19261 C 1850.04 -2.19862 0.611219 0
M  V30 19262 C 1851.01 -1.58471 -0.364111 0
M  V30 19263 O 1852.2 -1.86499 -0.273946 0
M  V30 19264 C 1849.33 -3.38539 -0.104458 0
M  V30 19265 C 1848.37 -4.18404 0.82706 0
M  V30 19266 S 1849.2 -4.82619 2.32034 0
M  V30 19267 C 1850.36 -6.04677 1.61605 0
M  V30 19268 H 1850.59 -2.57535 1.48536 0
M  V30 19269 H 1848.13 -1.27418 0.872005 0
M  V30 19270 H 1850.08 -4.07305 -0.511162 0
M  V30 19271 H 1848.75 -2.99238 -0.954736 0
M  V30 19272 H 1847.94 -5.03261 0.272804 0
M  V30 19273 H 1847.54 -3.55113 1.17348 0
M  V30 19274 H 1849.83 -6.7123 0.919598 0
M  V30 19275 H 1850.78 -6.64645 2.44238 0
M  V30 19276 H 1851.18 -5.53675 1.1002 0
M  V30 19277 N 1850.58 -0.841432 -1.33258 0
M  V30 19278 C 1851.51 -0.233859 -2.28004 0
M  V30 19279 C 1852.53 0.586872 -1.51854 0
M  V30 19280 O 1853.72 0.413523 -1.73644 0
M  V30 19281 C 1850.82 0.68919 -3.31818 0
M  V30 19282 C 1849.99 -0.0927681 -4.37302 0
M  V30 19283 C 1849.05 0.754015 -5.2077 0
M  V30 19284 O 1848.07 0.192293 -5.68875 0
M  V30 19285 N 1849.28 2.07095 -5.42302 0
M  V30 19286 H 1852.04 -1.04794 -2.80782 0
M  V30 19287 H 1849.6 -0.70014 -1.45978 0
M  V30 19288 H 1851.59 1.26071 -3.84562 0
M  V30 19289 H 1850.16 1.40397 -2.79298 0
M  V30 19290 H 1849.38 -0.845677 -3.85022 0
M  V30 19291 H 1850.67 -0.63036 -5.0488 0
M  V30 19292 H 1850.07 2.55082 -5.04925 0
M  V30 19293 H 1848.63 2.5909 -5.98093 0
M  V30 19294 N 1852.06 1.4581 -0.598108 0
M  V30 19295 C 1853.31 2.02601 -0.089744 0
M  V30 19296 C 1853.64 1.46673 1.27282 0
M  V30 19297 O 1852.91 0.637735 1.83748 0
M  V30 19298 C 1853.2 3.60077 -0.0405712 0
M  V30 19299 C 1853.05 4.26358 -1.43313 0
M  V30 19300 C 1854.37 4.35241 0.652164 0
M  V30 19301 H 1851.49 0.736211 -0.0340865 0
M  V30 19302 H 1854.13 1.73775 -0.768263 0
M  V30 19303 H 1852.28 3.84767 0.537251 0
M  V30 19304 H 1853.95 4.12884 -2.0573 0
M  V30 19305 H 1852.19 3.85125 -1.99653 0
M  V30 19306 H 1852.87 5.35211 -1.35105 0
M  V30 19307 H 1855.34 4.15788 0.161128 0
M  V30 19308 H 1854.22 5.4497 0.655646 0
M  V30 19309 H 1854.48 4.07419 1.71646 0
M  V30 19310 N 1853.54 0.336733 1.53961 0
M  V30 19311 C 1854.78 -0.262248 2.01097 0
M  V30 19312 C 1855.12 -1.50745 1.22431 0
M  V30 19313 O 1854.39 -1.92012 0.310103 0
M  V30 19314 C 1854.67 -0.583219 3.55346 0
M  V30 19315 C 1854.53 0.67361 4.44727 0
M  V30 19316 C 1855.85 -1.39558 4.17386 0
M  V30 19317 H 1852.97 -0.0938423 0.731001 0
M  V30 19318 H 1855.61 0.455921 1.84449 0
M  V30 19319 H 1853.76 -1.19505 3.69663 0
M  V30 19320 H 1855.43 1.31168 4.42258 0
M  V30 19321 H 1853.67 1.29987 4.13867 0
M  V30 19322 H 1854.34 0.404382 5.50517 0
M  V30 19323 H 1856.82 -0.878292 4.06725 0
M  V30 19324 H 1855.7 -1.58892 5.25399 0
M  V30 19325 H 1855.96 -2.39567 3.71564 0
M  V30 19326 N 1855.02 -1.57465 0.0651956 0
M  V30 19327 C 1856.24 -1.9756 -0.614633 0
M  V30 19328 C 1856.66 -0.943308 -1.63546 0
M  V30 19329 O 1856.02 0.0708362 -1.82362 0
M  V30 19330 C 1856.07 -3.37735 -1.28909 0
M  V30 19331 O 1855.79 -4.37008 -0.309131 0
M  V30 19332 C 1857.29 -3.92667 -2.05736 0
M  V30 19333 H 1854.51 -0.64987 -0.167061 0
M  V30 19334 H 1857.05 -2.0405 0.135647 0
M  V30 19335 H 1855.21 -3.32352 -1.9905 0
M  V30 19336 H 1855.62 -5.18483 -0.792206 0
M  V30 19337 H 1857.1 -4.92988 -2.48329 0
M  V30 19338 H 1857.57 -3.28851 -2.91124 0
M  V30 19339 H 1858.18 -4.01431 -1.40476 0
M  V30 19340 N 1856.49 0.20831 -1.56217 0
M  V30 19341 C 1857.73 0.937642 -1.81625 0
M  V30 19342 C 1858.1 1.80994 -0.640716 0
M  V30 19343 O 1859.3 2.57404 -0.774387 0
M  V30 19344 C 1857.57 1.74339 -3.11995 0
M  V30 19345 S 1859.13 2.52655 -3.58763 0
M  V30 19346 H 1855.95 0.314732 -0.637546 0
M  V30 19347 H 1858.55 0.202106 -1.94453 0
M  V30 19348 H 1857.25 1.09294 -3.95579 0
M  V30 19349 H 1856.78 2.52098 -3.0201 0
M  V30 19350 H 1858.8 3.76547 -3.23151 0
M  V30 19351 N 1857.97 1.50255 0.475528 0
M  V30 19352 C 1858.9 1.71721 1.58222 0
M  V30 19353 C 1859.88 0.56612 1.60403 0
M  V30 19354 O 1861.07 0.804774 1.7674 0
M  V30 19355 C 1858.2 1.80726 2.96573 0
M  V30 19356 C 1857.15 2.95877 3.09258 0
M  V30 19357 C 1856.48 2.9002 4.49213 0
M  V30 19358 C 1857.78 4.36452 2.86891 0
M  V30 19359 H 1859.47 2.6438 1.40511 0
M  V30 19360 H 1857.02 1.27224 0.674533 0
M  V30 19361 H 1858.97 1.94328 3.73918 0
M  V30 19362 H 1857.69 0.846846 3.1543 0
M  V30 19363 H 1856.35 2.81918 2.34345 0
M  V30 19364 H 1856 1.91834 4.64982 0
M  V30 19365 H 1855.7 3.67322 4.58637 0
M  V30 19366 H 1857.23 3.05665 5.28584 0
M  V30 19367 H 1858.64 4.5096 3.53989 0
M  V30 19368 H 1857.04 5.15171 3.07765 0
M  V30 19369 H 1858.11 4.49129 1.82786 0
M  V30 19370 N 1859.45 -0.728395 1.39758 0
M  V30 19371 C 1860.68 -1.5176 1.40629 0
M  V30 19372 C 1861.09 -1.888 0.00253909 0
M  V30 19373 O 1860.45 -1.54561 -0.970428 0
M  V30 19374 C 1860.5 -2.80102 2.28528 0
M  V30 19375 O 1860.22 -2.44633 3.63436 0
M  V30 19376 C 1861.72 -3.74087 2.37853 0
M  V30 19377 H 1858.94 -0.468767 0.480103 0
M  V30 19378 H 1861.49 -0.89953 1.83654 0
M  V30 19379 H 1859.64 -3.38225 1.88898 0
M  V30 19380 H 1860.06 -3.27124 4.09988 0
M  V30 19381 H 1861.53 -4.61017 3.03591 0
M  V30 19382 H 1862.01 -4.163 1.39968 0
M  V30 19383 H 1862.61 -3.2188 2.7798 0
M  V30 19384 N 1860.93 -1.25042 -0.959279 0
M  V30 19385 C 1862.34 -1.01764 -1.22948 0
M  V30 19386 C 1862.54 0.268402 -1.99704 0
M  V30 19387 O 1861.6 0.982348 -2.32607 0
M  V30 19388 C 1862.91 -2.23794 -2.0084 0
M  V30 19389 C 1864.46 -2.28507 -2.13901 0
M  V30 19390 C 1864.94 -3.50181 -2.9519 0
M  V30 19391 N 1866.43 -3.50549 -3.0277 0
M  V30 19392 C 1867.16 -4.41357 -3.66049 0
M  V30 19393 N 1866.66 -5.42431 -4.30976 0
M  V30 19394 N 1868.45 -4.29049 -3.63143 0
M  V30 19395 H 1860.6 -2.07672 -0.445667 0
M  V30 19396 H 1862.86 -0.91176 -0.259611 0
M  V30 19397 H 1862.57 -3.17237 -1.51835 0
M  V30 19398 H 1862.44 -2.26592 -3.01556 0
M  V30 19399 H 1864.83 -1.3559 -2.62105 0
M  V30 19400 H 1864.91 -2.29731 -1.12505 0
M  V30 19401 H 1864.56 -4.43417 -2.47677 0
M  V30 19402 H 1864.49 -3.46202 -3.96802 0
M  V30 19403 H 1866.98 -2.77432 -2.56593 0
M  V30 19404 H 1867.29 -6.07941 -4.77104 0
M  V30 19405 H 1865.64 -5.46308 -4.29619 0
M  V30 19406 H 1868.83 -3.49317 -3.11601 0
M  V30 19407 H 1869 -5.00017 -4.12174 0
M  V30 19408 N 1862.41 1.16121 -1.06553 0
M  V30 19409 C 1863.68 1.82752 -0.697202 0
M  V30 19410 C 1864.06 1.94474 0.821172 0
M  V30 19411 O 1863.41 1.48988 1.73248 0
M  V30 19412 C 1863.62 3.19592 -1.4022 0
M  V30 19413 C 1864.97 3.95333 -1.5491 0
M  V30 19414 O 1865.99 3.29119 -1.36232 0
M  V30 19415 O 1864.85 5.14028 -1.85574 0
M  V30 19416 H 1861.95 0.789214 -0.247125 0
M  V30 19417 H 1864.49 1.23302 -1.16597 0
M  V30 19418 H 1863.26 3.06111 -2.43745 0
M  V30 19419 H 1862.89 3.86722 -0.923686 0
M  V30 19420 N 1863.88 0.848487 1.3281 0
M  V30 19421 C 1865.11 0.46174 2.02195 0
M  V30 19422 C 1865.53 -0.932159 1.63378 0
M  V30 19423 O 1864.89 -1.6112 0.831266 0
M  V30 19424 C 1864.94 0.601234 3.55552 0
M  V30 19425 O 1864.04 -0.368549 4.1075 0
M  V30 19426 H 1863.39 0.186379 0.637306 0
M  V30 19427 H 1865.92 1.14598 1.69495 0
M  V30 19428 H 1865.93 0.486456 4.0509 0
M  V30 19429 H 1864.6 1.61773 3.83148 0
M  V30 19430 H 1863.18 -0.210525 3.72305 0
M  V30 19431 N 1865.36 -1.4549 0.605832 0
M  V30 19432 C 1866.59 -2.06325 0.106497 0
M  V30 19433 C 1867 -1.45142 -1.21369 0
M  V30 19434 O 1866.34 -0.559284 -1.74979 0
M  V30 19435 C 1866.41 -3.59334 -0.109378 0
M  V30 19436 C 1866.07 -4.42842 1.12873 0
M  V30 19437 C 1867.07 -4.77929 2.04645 0
M  V30 19438 C 1864.75 -4.83621 1.35707 0
M  V30 19439 C 1866.75 -5.5265 3.1758 0
M  V30 19440 C 1864.43 -5.58096 2.48943 0
M  V30 19441 C 1865.43 -5.92527 3.39707 0
M  V30 19442 O 1865.12 -6.65492 4.50973 0
M  V30 19443 H 1864.85 -0.67285 0.06518 0
M  V30 19444 H 1867.4 -1.87751 0.83298 0
M  V30 19445 H 1865.63 -3.76301 -0.890735 0
M  V30 19446 H 1867.32 -4.02017 -0.560094 0
M  V30 19447 H 1868.09 -4.46984 1.88229 0
M  V30 19448 H 1863.97 -4.56257 0.659587 0
M  V30 19449 H 1867.51 -5.79443 3.88448 0
M  V30 19450 H 1863.41 -5.88455 2.65312 0
M  V30 19451 H 1864.18 -6.8394 4.49632 0
M  V30 19452 N 1866.84 -0.344893 -1.5378 0
M  V30 19453 C 1867.77 0.503579 -2.28005 0
M  V30 19454 C 1868.75 1.10149 -1.29619 0
M  V30 19455 O 1869.94 1.12263 -1.58463 0
M  V30 19456 C 1867.07 1.65398 -3.05386 0
M  V30 19457 C 1866.02 1.18434 -4.11288 0
M  V30 19458 C 1865.35 2.42336 -4.76631 0
M  V30 19459 C 1866.65 0.283853 -5.21528 0
M  V30 19460 H 1868.34 -0.115619 -2.99177 0
M  V30 19461 H 1865.89 -0.0570472 -1.43887 0
M  V30 19462 H 1867.84 2.25401 -3.56051 0
M  V30 19463 H 1866.56 2.3001 -2.31869 0
M  V30 19464 H 1865.22 0.607115 -3.61538 0
M  V30 19465 H 1864.87 3.05358 -3.99707 0
M  V30 19466 H 1864.57 2.11594 -5.4818 0
M  V30 19467 H 1866.09 3.03063 -5.3008 0
M  V30 19468 H 1867.51 0.790766 -5.6782 0
M  V30 19469 H 1865.91 0.0682509 -6.00061 0
M  V30 19470 H 1866.98 -0.679653 -4.80113 0
M  V30 19471 N 1868.32 1.57428 -0.0735454 0
M  V30 19472 C 1869.55 1.97883 0.604148 0
M  V30 19473 C 1869.96 0.951968 1.63043 0
M  V30 19474 O 1869.32 -0.0611641 1.82397 0
M  V30 19475 C 1869.37 3.38414 1.27116 0
M  V30 19476 O 1869.09 4.37166 0.285951 0
M  V30 19477 C 1870.59 3.93753 2.03651 0
M  V30 19478 H 1867.81 0.650747 0.163613 0
M  V30 19479 H 1870.36 2.03975 -0.146466 0
M  V30 19480 H 1868.51 3.33403 1.97285 0
M  V30 19481 H 1868.92 5.18896 0.764698 0
M  V30 19482 H 1870.4 4.94298 2.45711 0
M  V30 19483 H 1870.88 3.30391 2.89376 0
M  V30 19484 H 1871.48 4.0217 1.38345 0
M  V30 19485 N 1869.8 -0.200022 1.56326 0
M  V30 19486 C 1870.75 -1.2519 1.90556 0
M  V30 19487 C 1871.73 -1.41239 0.77074 0
M  V30 19488 O 1872.92 -1.43692 1.03352 0
M  V30 19489 C 1870.05 -2.59777 2.24434 0
M  V30 19490 C 1869.14 -2.47541 3.4436 0
M  V30 19491 N 1869.53 -2.04979 4.62404 0
M  V30 19492 C 1867.83 -2.78447 3.48401 0
M  V30 19493 C 1868.53 -2.04515 5.44562 0
M  V30 19494 N 1867.5 -2.45831 4.84838 0
M  V30 19495 H 1871.31 -0.914073 2.79324 0
M  V30 19496 H 1868.82 -0.408485 1.57179 0
M  V30 19497 H 1870.82 -3.35749 2.4714 0
M  V30 19498 H 1869.48 -2.94387 1.3699 0
M  V30 19499 H 1870.49 -1.75766 4.87162 0
M  V30 19500 H 1867.16 -3.17286 2.71359 0
M  V30 19501 H 1868.55 -1.73551 6.49099 0
M  V30 19502 N 1871.27 -1.50505 -0.467553 0
M  V30 19503 C 1872.51 -1.63311 -1.22918 0
M  V30 19504 C 1872.88 -0.327842 -1.8918 0
M  V30 19505 O 1874.08 -0.33137 -2.6675 0
M  V30 19506 C 1872.35 -2.78308 -2.24231 0
M  V30 19507 S 1873.91 -3.11268 -3.09286 0
M  V30 19508 H 1870.73 -0.575676 -0.417274 0
M  V30 19509 H 1873.33 -1.88302 -0.525612 0
M  V30 19510 H 1872.03 -3.71623 -1.74139 0
M  V30 19511 H 1871.56 -2.55413 -2.99212 0
M  V30 19512 H 1873.58 -2.55366 -4.25444 0
M  V30 19513 N 1872.75 0.720973 -1.40142 0
M  V30 19514 C 1874 1.48078 -1.38128 0
M  V30 19515 C 1874.33 1.94491 0.0181891 0
M  V30 19516 O 1873.58 1.68119 1.00172 0
M  V30 19517 C 1873.88 2.72513 -2.31239 0
M  V30 19518 C 1873.55 2.44893 -3.78601 0
M  V30 19519 C 1872.21 2.3707 -4.1875 0
M  V30 19520 C 1874.56 2.21598 -4.71745 0
M  V30 19521 C 1871.89 2.04013 -5.50087 0
M  V30 19522 C 1874.24 1.90055 -6.03375 0
M  V30 19523 C 1872.91 1.8071 -6.42573 0
M  V30 19524 H 1872.18 0.541854 -0.505446 0
M  V30 19525 H 1874.82 0.826311 -1.72755 0
M  V30 19526 H 1873.13 3.4277 -1.89778 0
M  V30 19527 H 1874.82 3.30586 -2.26967 0
M  V30 19528 H 1871.41 2.51866 -3.46788 0
M  V30 19529 H 1875.6 2.26601 -4.41549 0
M  V30 19530 H 1870.85 1.95311 -5.79365 0
M  V30 19531 H 1875.03 1.71042 -6.75069 0
M  V30 19532 H 1872.66 1.54862 -7.44259 0
M  V30 19533 N 1874.23 1.25549 0.952634 0
M  V30 19534 C 1875.16 1.08592 2.06712 0
M  V30 19535 C 1876.14 -0.00560571 1.70099 0
M  V30 19536 O 1877.33 0.164299 1.93504 0
M  V30 19537 C 1874.46 0.705984 3.40049 0
M  V30 19538 C 1873.41 1.74797 3.90679 0
M  V30 19539 C 1872.74 1.22266 5.20533 0
M  V30 19540 C 1874.04 3.14717 4.16834 0
M  V30 19541 H 1875.73 2.01816 2.21157 0
M  V30 19542 H 1873.28 0.971723 1.06271 0
M  V30 19543 H 1875.23 0.57428 4.17469 0
M  V30 19544 H 1873.95 -0.261964 3.25548 0
M  V30 19545 H 1872.61 1.86815 3.1543 0
M  V30 19546 H 1872.26 0.244887 5.02404 0
M  V30 19547 H 1871.96 1.9191 5.55377 0
M  V30 19548 H 1873.48 1.10339 6.00548 0
M  V30 19549 H 1874.9 3.05842 4.84906 0
M  V30 19550 H 1873.3 3.81849 4.62938 0
M  V30 19551 H 1874.37 3.61629 3.23037 0
M  V30 19552 N 1875.71 -1.15554 1.07168 0
M  V30 19553 C 1876.64 -2.19841 0.648285 0
M  V30 19554 C 1877.65 -1.60045 -0.298247 0
M  V30 19555 O 1878.84 -1.78284 -0.0878565 0
M  V30 19556 C 1875.94 -3.38831 -0.068586 0
M  V30 19557 C 1875.12 -4.28173 0.89366 0
M  V30 19558 C 1874.17 -5.25763 0.214424 0
M  V30 19559 O 1873.2 -5.62744 0.854883 0
M  V30 19560 N 1874.4 -5.71096 -1.04063 0
M  V30 19561 H 1877.17 -2.56784 1.54539 0
M  V30 19562 H 1874.73 -1.30652 0.956127 0
M  V30 19563 H 1876.72 -4.01167 -0.533614 0
M  V30 19564 H 1875.29 -3.00319 -0.86761 0
M  V30 19565 H 1874.51 -3.62965 1.53785 0
M  V30 19566 H 1875.8 -4.84739 1.54613 0
M  V30 19567 H 1875.2 -5.4316 -1.58095 0
M  V30 19568 H 1873.75 -6.35481 -1.44937 0
M  V30 19569 N 1877.19 -0.855519 -1.32358 0
M  V30 19570 C 1878.14 -0.27253 -2.26365 0
M  V30 19571 C 1879.12 0.582114 -1.50001 0
M  V30 19572 O 1880.31 0.431356 -1.71663 0
M  V30 19573 C 1877.44 0.53739 -3.39068 0
M  V30 19574 C 1876.53 -0.329689 -4.22817 0
M  V30 19575 N 1876.92 -1.41635 -4.85565 0
M  V30 19576 C 1875.22 -0.11959 -4.4584 0
M  V30 19577 C 1875.92 -1.94986 -5.48047 0
M  V30 19578 N 1874.89 -1.2489 -5.29059 0
M  V30 19579 H 1878.7 -1.10327 -2.72406 0
M  V30 19580 H 1876.21 -0.701726 -1.46457 0
M  V30 19581 H 1878.21 0.971464 -4.05423 0
M  V30 19582 H 1876.87 1.36591 -2.94572 0
M  V30 19583 H 1877.88 -1.79928 -4.8564 0
M  V30 19584 H 1874.56 0.674149 -4.12021 0
M  V30 19585 H 1875.95 -2.86078 -6.07955 0
M  V30 19586 N 1878.67 1.45167 -0.61354 0
M  V30 19587 C 1879.6 2.3333 0.089004 0
M  V30 19588 C 1880.58 1.47181 0.85275 0
M  V30 19589 O 1881.76 1.7594 0.822122 0
M  V30 19590 C 1878.89 3.29982 1.08301 0
M  V30 19591 C 1877.85 4.25813 0.432084 0
M  V30 19592 C 1877.17 5.122 1.53476 0
M  V30 19593 C 1878.47 5.18233 -0.65052 0
M  V30 19594 H 1880.17 2.92322 -0.647165 0
M  V30 19595 H 1877.71 1.40565 -0.312667 0
M  V30 19596 H 1879.66 3.90533 1.5831 0
M  V30 19597 H 1878.39 2.69162 1.84985 0
M  V30 19598 H 1877.05 3.6657 -0.0471927 0
M  V30 19599 H 1876.7 4.47744 2.29203 0
M  V30 19600 H 1876.4 5.77122 1.10469 0
M  V30 19601 H 1877.92 5.7562 2.037 0
M  V30 19602 H 1879.33 5.72821 -0.234262 0
M  V30 19603 H 1877.73 5.91664 -1.00268 0
M  V30 19604 H 1878.8 4.60304 -1.52475 0
M  V30 19605 N 1880.14 0.353044 1.53595 0
M  V30 19606 C 1881.08 -0.542593 2.21656 0
M  V30 19607 C 1882.05 -1.09287 1.20396 0
M  V30 19608 O 1883.24 -1.15136 1.49251 0
M  V30 19609 C 1880.37 -1.74739 2.90145 0
M  V30 19610 C 1879.41 -1.32571 4.05373 0
M  V30 19611 S 1880.24 -0.337517 5.34435 0
M  V30 19612 C 1881.4 -1.54893 6.06431 0
M  V30 19613 H 1881.63 0.0354663 2.97279 0
M  V30 19614 H 1879.17 0.137127 1.5379 0
M  V30 19615 H 1881.12 -2.43853 3.30221 0
M  V30 19616 H 1879.79 -2.29668 2.1427 0
M  V30 19617 H 1878.98 -2.22426 4.52264 0
M  V30 19618 H 1878.58 -0.713934 3.67123 0
M  V30 19619 H 1880.87 -2.48194 6.30401 0
M  V30 19620 H 1881.82 -1.12163 6.9916 0
M  V30 19621 H 1882.22 -1.74929 5.36712 0
M  V30 19622 N 1881.62 -1.57387 0.0818932 0
M  V30 19623 C 1882.87 -1.94156 -0.585765 0
M  V30 19624 C 1883.2 -0.962889 -1.68648 0
M  V30 19625 O 1882.48 0.00625819 -1.94499 0
M  V30 19626 C 1882.76 -3.41132 -1.15329 0
M  V30 19627 C 1882.61 -4.49762 -0.0585349 0
M  V30 19628 C 1883.93 -3.89137 -2.05573 0
M  V30 19629 H 1881.05 -0.706012 -0.211463 0
M  V30 19630 H 1883.69 -1.89408 0.149918 0
M  V30 19631 H 1881.84 -3.4531 -1.78026 0
M  V30 19632 H 1883.51 -4.57702 0.575061 0
M  V30 19633 H 1881.76 -4.29496 0.609574 0
M  V30 19634 H 1882.43 -5.49765 -0.496206 0
M  V30 19635 H 1884.9 -3.87029 -1.52798 0
M  V30 19636 H 1883.78 -4.92569 -2.42213 0
M  V30 19637 H 1884.04 -3.27663 -2.96799 0
M  V30 19638 N 1883.1 0.191729 -1.56429 0
M  V30 19639 C 1884.35 0.912948 -1.81089 0
M  V30 19640 C 1884.68 1.82767 -0.656483 0
M  V30 19641 O 1883.95 1.91456 0.342779 0
M  V30 19642 C 1884.24 1.72628 -3.16025 0
M  V30 19643 C 1884.09 0.836045 -4.41962 0
M  V30 19644 C 1885.41 2.69818 -3.47687 0
M  V30 19645 H 1882.53 0.33046 -0.658761 0
M  V30 19646 H 1885.17 0.180148 -1.89144 0
M  V30 19647 H 1883.32 2.35102 -3.09289 0
M  V30 19648 H 1884.99 0.225751 -4.60747 0
M  V30 19649 H 1883.23 0.142944 -4.33564 0
M  V30 19650 H 1883.91 1.44019 -5.32881 0
M  V30 19651 H 1886.38 2.17475 -3.54745 0
M  V30 19652 H 1885.26 3.23806 -4.43216 0
M  V30 19653 H 1885.52 3.49028 -2.71352 0
M  V30 19654 N 1884.58 1.50751 0.459565 0
M  V30 19655 C 1885.51 1.73389 1.56392 0
M  V30 19656 C 1886.49 0.583101 1.59793 0
M  V30 19657 O 1887.67 0.823474 1.75876 0
M  V30 19658 C 1884.8 1.83861 2.94639 0
M  V30 19659 C 1883.76 2.9914 3.06103 0
M  V30 19660 C 1883.08 2.94768 4.46112 0
M  V30 19661 C 1884.38 4.39471 2.82246 0
M  V30 19662 H 1886.08 2.65856 1.37699 0
M  V30 19663 H 1883.62 1.27933 0.661001 0
M  V30 19664 H 1885.58 1.98283 3.71836 0
M  V30 19665 H 1884.3 0.880254 3.14514 0
M  V30 19666 H 1882.96 2.84388 2.31342 0
M  V30 19667 H 1882.61 1.96755 4.62922 0
M  V30 19668 H 1882.31 3.72166 4.54716 0
M  V30 19669 H 1883.83 3.11254 5.25313 0
M  V30 19670 H 1885.25 4.54689 3.49186 0
M  V30 19671 H 1883.64 5.18406 3.02283 0
M  V30 19672 H 1884.71 4.51043 1.78012 0
M  V30 19673 N 1886.06 -0.713531 1.40522 0
M  V30 19674 C 1887.28 -1.50766 1.42423 0
M  V30 19675 C 1887.71 -1.88082 0.0262417 0
M  V30 19676 O 1887.06 -1.5341 -0.966185 0
M  V30 19677 C 1887.11 -2.75813 2.32291 0
M  V30 19678 O 1886.22 -3.726 1.76758 0
M  V30 19679 H 1885.56 -0.454473 0.484098 0
M  V30 19680 H 1888.09 -0.878583 1.84776 0
M  V30 19681 H 1888.1 -3.2432 2.47549 0
M  V30 19682 H 1886.77 -2.47988 3.33878 0
M  V30 19683 H 1885.35 -3.31455 1.70857 0
M  V30 19684 N 1887.53 -1.26053 -0.945962 0
M  V30 19685 C 1888.76 -1.14181 -1.7314 0
M  V30 19686 C 1889.18 0.299663 -1.85698 0
M  V30 19687 O 1888.54 1.21711 -1.34373 0
M  V30 19688 C 1888.59 -1.81052 -3.11854 0
M  V30 19689 O 1887.69 -1.09606 -3.97568 0
M  V30 19690 H 1887.03 -0.398138 -0.531397 0
M  V30 19691 H 1889.56 -1.66782 -1.18511 0
M  V30 19692 H 1889.57 -1.87685 -3.62269 0
M  V30 19693 H 1888.25 -2.85921 -3.0203 0
M  V30 19694 H 1886.83 -1.10915 -3.56023 0
M  V30 19695 N 1889.01 1.14984 -1.07779 0
M  V30 19696 C 1889.94 2.22006 -0.723564 0
M  V30 19697 C 1890.92 1.67592 0.291024 0
M  V30 19698 O 1892.11 1.93516 0.162812 0
M  V30 19699 C 1889.24 3.47074 -0.125223 0
M  V30 19700 C 1888.19 4.14475 -1.06745 0
M  V30 19701 C 1887.52 5.33671 -0.331643 0
M  V30 19702 C 1888.82 4.63744 -2.4029 0
M  V30 19703 H 1890.51 2.51893 -1.61834 0
M  V30 19704 H 1888.06 1.21073 -0.779571 0
M  V30 19705 H 1890.01 4.21185 0.134555 0
M  V30 19706 H 1888.73 3.16533 0.804654 0
M  V30 19707 H 1887.39 3.4231 -1.31222 0
M  V30 19708 H 1887.04 4.99387 0.601833 0
M  V30 19709 H 1886.74 5.7971 -0.959721 0
M  V30 19710 H 1888.27 6.10548 -0.0797668 0
M  V30 19711 H 1889.68 5.2936 -2.20115 0
M  V30 19712 H 1888.08 5.20461 -2.98732 0
M  V30 19713 H 1889.15 3.79151 -3.02279 0
M  V30 19714 N 1890.49 0.862526 1.31902 0
M  V30 19715 C 1891.4 0.316029 2.32462 0
M  V30 19716 C 1892.42 -0.570217 1.64391 0
M  V30 19717 O 1893.59 -0.46871 1.9587 0
M  V30 19718 C 1890.66 -0.479949 3.43362 0
M  V30 19719 C 1889.72 0.43337 4.27107 0
M  V30 19720 C 1888.95 -0.324714 5.32711 0
M  V30 19721 O 1889.17 -1.55373 5.48831 0
M  V30 19722 O 1888.11 0.313571 6.01083 0
M  V30 19723 H 1891.93 1.14935 2.81111 0
M  V30 19724 H 1889.52 0.625683 1.35667 0
M  V30 19725 H 1891.4 -0.931458 4.10977 0
M  V30 19726 H 1890.08 -1.28994 2.96888 0
M  V30 19727 H 1888.98 0.933222 3.62273 0
M  V30 19728 H 1890.32 1.20876 4.77127 0
M  V30 19729 N 1891.97 -1.4484 0.62123 0
M  V30 19730 C 1893.38 -1.57016 0.286009 0
M  V30 19731 C 1893.58 -1.6104 -1.21113 0
M  V30 19732 O 1892.64 -1.54807 -1.99477 0
M  V30 19733 C 1893.95 -2.84652 0.969209 0
M  V30 19734 C 1895.5 -2.98349 0.946414 0
M  V30 19735 C 1895.98 -4.28773 1.60989 0
M  V30 19736 N 1897.47 -4.35564 1.57601 0
M  V30 19737 C 1898.2 -5.3518 2.0584 0
M  V30 19738 N 1897.7 -6.41256 2.62226 0
M  V30 19739 N 1899.49 -5.26625 1.96527 0
M  V30 19740 H 1891.64 -1.40471 1.59316 0
M  V30 19741 H 1893.91 -0.672493 0.668174 0
M  V30 19742 H 1893.61 -2.87629 2.02392 0
M  V30 19743 H 1893.49 -3.7386 0.500859 0
M  V30 19744 H 1895.87 -2.94931 -0.0997935 0
M  V30 19745 H 1895.95 -2.10516 1.45316 0
M  V30 19746 H 1895.6 -4.3295 2.65549 0
M  V30 19747 H 1895.53 -5.15447 1.07805 0
M  V30 19748 H 1898.02 -3.59519 1.16424 0
M  V30 19749 H 1898.33 -7.13536 2.96792 0
M  V30 19750 H 1896.68 -6.41969 2.66272 0
M  V30 19751 H 1899.87 -4.42664 1.52206 0
M  V30 19752 H 1900.04 -6.04107 2.34434 0
M  V30 19753 N 1893.45 -0.361184 -1.53405 0
M  V30 19754 C 1894.67 0.230765 -2.05609 0
M  V30 19755 C 1895.09 1.42805 -1.23499 0
M  V30 19756 O 1894.45 1.80423 -0.274582 0
M  V30 19757 C 1894.5 0.628571 -3.55993 0
M  V30 19758 O 1894.22 -0.521123 -4.3499 0
M  V30 19759 C 1895.72 1.27938 -4.24437 0
M  V30 19760 H 1892.94 0.0414193 -0.66972 0
M  V30 19761 H 1895.48 -0.518281 -1.97823 0
M  V30 19762 H 1893.64 1.32754 -3.63944 0
M  V30 19763 H 1894.05 -0.200483 -5.24117 0
M  V30 19764 H 1895.53 1.50832 -5.30993 0
M  V30 19765 H 1896 2.23834 -3.77882 0
M  V30 19766 H 1896.61 0.621961 -4.20728 0
M  V30 19767 N 1894.92 1.57341 -0.0902386 0
M  V30 19768 C 1896.34 1.8145 0.439638 0
M  V30 19769 C 1896.69 1.00551 1.68475 0
M  V30 19770 O 1895.81 0.233442 2.15137 0
M  V30 19771 C 1896.41 3.29113 0.804384 0
M  V30 19772 C 1894.97 3.54003 1.27903 0
M  V30 19773 C 1894.11 2.7595 0.27328 0
M  V30 19774 H 1897.06 1.55527 -0.315738 0
M  V30 19775 H 1897.08 3.4217 1.66432 0
M  V30 19776 H 1896.6 3.87966 -0.102017 0
M  V30 19777 H 1894.7 3.00475 2.20331 0
M  V30 19778 H 1894.81 4.62662 1.24422 0
M  V30 19779 H 1893.17 2.43271 0.754419 0
M  V30 19780 H 1893.96 3.3755 -0.625715 0
M  V30 19781 N 1896.4 -0.183431 1.56529 0
M  V30 19782 C 1897.63 -0.921964 1.85781 0
M  V30 19783 C 1898.05 -1.75564 0.675184 0
M  V30 19784 O 1897.41 -1.7736 -0.375913 0
M  V30 19785 C 1897.46 -1.7844 3.13355 0
M  V30 19786 O 1896.56 -2.88461 2.94727 0
M  V30 19787 H 1895.9 -0.258974 0.611415 0
M  V30 19788 H 1898.43 -0.185225 2.0376 0
M  V30 19789 H 1898.44 -2.18675 3.44449 0
M  V30 19790 H 1897.12 -1.17195 3.99047 0
M  V30 19791 H 1895.7 -2.51897 2.74959 0
M  V30 19792 N 1897.88 -1.50992 -0.451564 0
M  V30 19793 C 1899.29 -1.55592 -1.03189 0
M  V30 19794 C 1899.64 -0.370923 -1.92662 0
M  V30 19795 O 1898.77 0.513972 -2.10208 0
M  V30 19796 C 1899.36 -2.81975 -1.87818 0
M  V30 19797 C 1897.92 -2.89192 -2.40925 0
M  V30 19798 C 1897.07 -2.50103 -1.19766 0
M  V30 19799 H 1900.02 -1.56974 -0.233388 0
M  V30 19800 H 1900.04 -2.64934 -2.73112 0
M  V30 19801 H 1899.55 -3.68203 -1.22672 0
M  V30 19802 H 1897.65 -2.07362 -3.09567 0
M  V30 19803 H 1897.77 -3.92529 -2.74696 0
M  V30 19804 H 1896.13 -2.02978 -1.53857 0
M  V30 19805 H 1896.91 -3.3866 -0.562517 0
M  V30 19806 N 1899.36 0.706069 -1.40899 0
M  V30 19807 C 1900.27 1.85007 -1.44255 0
M  V30 19808 C 1901.28 1.70761 -0.334174 0
M  V30 19809 O 1902.46 1.9286 -0.580258 0
M  V30 19810 C 1899.53 3.20896 -1.31251 0
M  V30 19811 C 1898.59 3.47327 -2.52314 0
M  V30 19812 C 1897.82 4.76732 -2.39922 0
M  V30 19813 O 1898.04 5.5249 -1.41813 0
M  V30 19814 O 1896.98 5.03713 -3.2948 0
M  V30 19815 H 1900.8 1.85132 -2.40748 0
M  V30 19816 H 1898.39 0.857751 -1.22323 0
M  V30 19817 H 1900.27 4.02045 -1.26244 0
M  V30 19818 H 1898.94 3.21477 -0.378684 0
M  V30 19819 H 1897.85 2.66149 -2.62899 0
M  V30 19820 H 1899.18 3.5155 -3.4449 0
M  V30 19821 N 1900.84 1.26553 0.939264 0
M  V30 19822 C 1902.25 1.11093 1.50051 0
M  V30 19823 C 1902.6 -0.308105 1.93766 0
M  V30 19824 O 1901.72 -1.19981 1.80093 0
M  V30 19825 C 1902.32 2.01053 2.72696 0
M  V30 19826 C 1900.88 1.89734 3.25082 0
M  V30 19827 C 1900.02 1.94291 1.97854 0
M  V30 19828 H 1902.98 1.39614 0.754553 0
M  V30 19829 H 1903 1.55955 3.47071 0
M  V30 19830 H 1902.51 3.04325 2.40848 0
M  V30 19831 H 1900.61 0.894042 3.61715 0
M  V30 19832 H 1900.72 2.75368 3.92058 0
M  V30 19833 H 1899.09 1.38367 2.13838 0
M  V30 19834 H 1899.87 2.99196 1.68335 0
M  V30 19835 N 1902.31 -1.14411 1.08387 0
M  V30 19836 C 1903.56 -1.85719 0.814638 0
M  V30 19837 C 1903.89 -1.82715 -0.657934 0
M  V30 19838 O 1903.17 -1.2577 -1.48365 0
M  V30 19839 C 1903.45 -3.34363 1.33691 0
M  V30 19840 C 1903.3 -3.4594 2.87481 0
M  V30 19841 C 1904.62 -4.29457 0.962006 0
M  V30 19842 H 1901.74 -0.674332 0.297399 0
M  V30 19843 H 1904.38 -1.34354 1.34346 0
M  V30 19844 H 1902.53 -3.78237 0.887082 0
M  V30 19845 H 1904.21 -3.10854 3.40833 0
M  V30 19846 H 1902.45 -2.87158 3.25151 0
M  V30 19847 H 1903.12 -4.50423 3.19097 0
M  V30 19848 H 1905.6 -3.93599 1.34979 0
M  V30 19849 H 1904.47 -5.31922 1.35464 0
M  V30 19850 H 1904.73 -4.41906 -0.130987 0
M  V30 19851 N 1903.79 -0.869509 -1.31443 0
M  V30 19852 C 1905.07 -0.400903 -1.91447 0
M  V30 19853 C 1905.45 1.117 -1.79127 0
M  V30 19854 O 1904.8 1.94536 -1.19866 0
M  V30 19855 C 1905.01 -0.881767 -3.37677 0
M  V30 19856 C 1906.36 -0.90763 -4.14786 0
M  V30 19857 O 1907.38 -0.82739 -3.46457 0
M  V30 19858 O 1906.24 -1.02365 -5.36827 0
M  V30 19859 H 1903.33 -0.119842 -0.818271 0
M  V30 19860 H 1905.88 -0.957391 -1.40115 0
M  V30 19861 H 1904.65 -1.92533 -3.40657 0
M  V30 19862 H 1904.27 -0.303565 -3.96439 0
M  V30 19863 N 1905.27 1.44508 -0.628902 0
M  V30 19864 C 1906.22 2.3067 0.0773497 0
M  V30 19865 C 1907.19 1.43353 0.839003 0
M  V30 19866 O 1908.37 1.72258 0.820487 0
M  V30 19867 C 1905.51 3.28596 1.05447 0
M  V30 19868 C 1904.63 4.31016 0.291465 0
M  V30 19869 C 1903.76 5.16035 1.2602 0
M  V30 19870 C 1902.8 6.10166 0.486229 0
M  V30 19871 N 1901.94 6.87892 1.40532 0
M  V30 19872 H 1906.78 2.90523 -0.663346 0
M  V30 19873 H 1904.31 1.43143 -0.338906 0
M  V30 19874 H 1906.27 3.83856 1.63433 0
M  V30 19875 H 1904.9 2.70448 1.76232 0
M  V30 19876 H 1903.95 3.78246 -0.404285 0
M  V30 19877 H 1905.27 4.97827 -0.311447 0
M  V30 19878 H 1904.42 5.75802 1.91147 0
M  V30 19879 H 1903.16 4.49293 1.89704 0
M  V30 19880 H 1902.16 5.4951 -0.178543 0
M  V30 19881 H 1903.39 6.78943 -0.145859 0
M  V30 19882 H 1901.33 6.2382 2.0294 0
M  V30 19883 H 1901.25 7.51134 0.856369 0
M  V30 19884 H 1902.52 7.52183 2.04549 0
M  V30 19885 N 1906.75 0.369315 1.53212 0
M  V30 19886 C 1908.03 -0.275781 1.93646 0
M  V30 19887 C 1908.41 -1.66075 1.30316 0
M  V30 19888 O 1907.75 -2.23746 0.463658 0
M  V30 19889 C 1907.96 -0.322239 3.47509 0
M  V30 19890 C 1909.31 -0.560798 4.2088 0
M  V30 19891 O 1910.34 -0.403291 3.5391 0
M  V30 19892 O 1909.2 -0.86778 5.39566 0
M  V30 19893 H 1906.29 -0.166296 0.810108 0
M  V30 19894 H 1908.84 0.42237 1.6436 0
M  V30 19895 H 1907.61 0.648648 3.85886 0
M  V30 19896 H 1907.23 -1.06613 3.8304 0
M  V30 19897 N 1908.23 -1.57291 0.0985816 0
M  V30 19898 C 1909.47 -1.94478 -0.564304 0
M  V30 19899 C 1909.8 -0.980557 -1.67974 0
M  V30 19900 O 1909.06 -0.000761176 -1.957 0
M  V30 19901 C 1909.36 -3.38184 -1.15613 0
M  V30 19902 C 1909.02 -4.50601 -0.164125 0
M  V30 19903 C 1907.68 -4.81077 0.108706 0
M  V30 19904 C 1910.04 -5.18669 0.513033 0
M  V30 19905 C 1907.36 -5.76947 1.06533 0
M  V30 19906 C 1909.72 -6.15565 1.45815 0
M  V30 19907 C 1908.38 -6.44445 1.73918 0
M  V30 19908 H 1907.65 -0.711647 -0.206493 0
M  V30 19909 H 1910.3 -1.90697 0.175155 0
M  V30 19910 H 1908.6 -3.3856 -1.97191 0
M  V30 19911 H 1910.3 -3.6426 -1.67678 0
M  V30 19912 H 1906.89 -4.2685 -0.386958 0
M  V30 19913 H 1911.07 -4.95297 0.315398 0
M  V30 19914 H 1906.33 -5.97636 1.29002 0
M  V30 19915 H 1910.5 -6.67402 1.98865 0
M  V30 19916 H 1908.13 -7.1854 2.48201 0
M  V30 19917 N 1909.71 0.175127 -1.56624 0
M  V30 19918 C 1910.94 0.906725 -1.8564 0
M  V30 19919 C 1911.34 1.76502 -0.681433 0
M  V30 19920 O 1910.69 1.80163 0.358751 0
M  V30 19921 C 1910.75 1.83706 -3.09019 0
M  V30 19922 C 1910.41 1.15874 -4.42066 0
M  V30 19923 C 1911.41 0.526022 -5.17232 0
M  V30 19924 C 1909.09 1.15663 -4.88802 0
M  V30 19925 C 1911.09 -0.0997423 -6.37322 0
M  V30 19926 C 1908.78 0.527036 -6.08823 0
M  V30 19927 C 1909.77 -0.100049 -6.82927 0
M  V30 19928 O 1909.46 -0.719723 -8.00672 0
M  V30 19929 H 1909.19 0.269058 -0.620148 0
M  V30 19930 H 1911.75 0.181237 -2.04599 0
M  V30 19931 H 1909.98 2.60276 -2.85995 0
M  V30 19932 H 1911.67 2.43816 -3.24513 0
M  V30 19933 H 1912.43 0.519653 -4.82208 0
M  V30 19934 H 1908.31 1.63412 -4.31065 0
M  V30 19935 H 1911.86 -0.589806 -6.95102 0
M  V30 19936 H 1907.75 0.530975 -6.43312 0
M  V30 19937 H 1908.52 -0.618596 -8.16159 0
M  V30 19938 N 1911.18 1.5123 0.44355 0
M  V30 19939 C 1912.41 1.67671 1.2207 0
M  V30 19940 C 1912.83 0.370934 1.84406 0
M  V30 19941 O 1912.19 -0.668265 1.68535 0
M  V30 19942 C 1912.24 2.7896 2.28503 0
M  V30 19943 O 1911.34 2.4213 3.33837 0
M  V30 19944 H 1910.68 0.559275 0.357921 0
M  V30 19945 H 1913.21 1.9776 0.524592 0
M  V30 19946 H 1913.22 3.0286 2.73386 0
M  V30 19947 H 1911.9 3.73716 1.82509 0
M  V30 19948 H 1910.48 2.28779 2.94473 0
M  V30 19949 N 1912.66 -0.698586 1.41271 0
M  V30 19950 C 1913.57 -1.8424 1.45234 0
M  V30 19951 C 1914.59 -1.70581 0.343225 0
M  V30 19952 O 1915.76 -1.9255 0.590477 0
M  V30 19953 C 1912.83 -3.20195 1.32951 0
M  V30 19954 C 1911.89 -3.45984 2.54152 0
M  V30 19955 C 1911.12 -4.75453 2.42446 0
M  V30 19956 O 1911.35 -5.5173 1.44741 0
M  V30 19957 O 1910.28 -5.01958 3.32147 0
M  V30 19958 H 1914.11 -1.83853 2.41727 0
M  V30 19959 H 1911.69 -0.851252 1.22776 0
M  V30 19960 H 1913.57 -4.0137 1.28374 0
M  V30 19961 H 1912.25 -3.21272 0.395728 0
M  V30 19962 H 1911.15 -2.64751 2.64306 0
M  V30 19963 H 1912.49 -3.49718 3.46349 0
M  V30 19964 N 1914.14 -1.27049 -0.93254 0
M  V30 19965 C 1915.39 -1.13103 -1.6797 0
M  V30 19966 C 1915.71 0.324047 -1.91782 0
M  V30 19967 O 1914.97 1.25381 -1.5026 0
M  V30 19968 C 1915.27 -1.8547 -3.05509 0
M  V30 19969 C 1914.93 -3.35342 -3.01424 0
M  V30 19970 C 1913.6 -3.76222 -3.00017 0
M  V30 19971 C 1915.95 -4.30993 -2.93078 0
M  V30 19972 C 1913.28 -5.11125 -2.88041 0
M  V30 19973 C 1915.63 -5.65946 -2.82644 0
M  V30 19974 C 1914.29 -6.06126 -2.79585 0
M  V30 19975 H 1913.56 -0.413872 -0.614647 0
M  V30 19976 H 1916.21 -1.57598 -1.08789 0
M  V30 19977 H 1914.51 -1.33469 -3.68366 0
M  V30 19978 H 1916.21 -1.72112 -3.62186 0
M  V30 19979 H 1912.8 -3.02828 -3.03303 0
M  V30 19980 H 1916.99 -4.00385 -2.93267 0
M  V30 19981 H 1912.24 -5.41408 -2.84056 0
M  V30 19982 H 1916.42 -6.39738 -2.75151 0
M  V30 19983 H 1914.04 -7.10613 -2.70061 0
M  V30 19984 N 1915.62 1.13835 -1.08993 0
M  V30 19985 C 1916.87 1.84645 -0.82163 0
M  V30 19986 C 1917.19 1.83685 0.65458 0
M  V30 19987 O 1916.46 1.28948 1.47477 0
M  V30 19988 H 1915.04 0.683691 -0.300958 0
M  V30 19989 H 1917.7 1.37915 -1.37715 0
M  V30 19990 H 1916.79 2.89292 -1.17117 0
M  V30 19991 N 1917.1 0.876467 1.3098 0
M  V30 19992 C 1918.04 0.326251 2.30301 0
M  V30 19993 C 1919.04 -0.562168 1.598 0
M  V30 19994 O 1920.24 -0.447547 1.74347 0
M  V30 19995 H 1916.62 0.0868325 0.74697 0
M  V30 19996 H 1918.59 1.17775 2.74175 0
M  V30 19997 C 1917.34 -0.451679 3.44754 0
M  V30 19998 H 1916.66 0.222681 3.99179 0
M  V30 19999 H 1918.1 -0.801899 4.16348 0
M  V30 20000 C 1916.56 -1.64547 2.93983 0
M  V30 20001 O 1917.09 -2.74482 2.93296 0
M  V30 20002 N 1915.3 -1.47978 2.50102 0
M  V30 20003 H 1914.84 -0.585447 2.50859 0
M  V30 20004 H 1914.8 -2.27992 2.16488 0
M  V30 20005 N 1918.57 -1.44173 0.636557 0
M  V30 20006 C 1919.52 -2.30708 -0.0651156 0
M  V30 20007 C 1920.49 -1.43795 -0.831389 0
M  V30 20008 O 1921.68 -1.7269 -0.81134 0
M  V30 20009 C 1918.82 -3.2915 -1.03703 0
M  V30 20010 C 1917.93 -4.31164 -0.268603 0
M  V30 20011 C 1917.06 -5.16696 -1.23282 0
M  V30 20012 C 1916.1 -6.10415 -0.453864 0
M  V30 20013 N 1915.24 -6.88628 -1.36881 0
M  V30 20014 H 1920.08 -2.90167 0.678744 0
M  V30 20015 H 1917.62 -1.42961 0.346492 0
M  V30 20016 H 1919.57 -3.84717 -1.61395 0
M  V30 20017 H 1918.2 -2.71379 -1.74795 0
M  V30 20018 H 1917.26 -3.78026 0.424338 0
M  V30 20019 H 1918.57 -4.97655 0.337844 0
M  V30 20020 H 1917.72 -5.76807 -1.88091 0
M  V30 20021 H 1916.46 -4.50292 -1.87318 0
M  V30 20022 H 1915.47 -5.49408 0.207683 0
M  V30 20023 H 1916.69 -6.78856 0.181863 0
M  V30 20024 H 1914.64 -6.24887 -1.99629 0
M  V30 20025 H 1914.55 -7.51578 -0.816523 0
M  V30 20026 H 1915.82 -7.53258 -2.00558 0
M  V30 20027 N 1920.05 -0.377435 -1.53014 0
M  V30 20028 C 1921.28 0.208944 -2.05842 0
M  V30 20029 C 1921.69 1.41487 -1.25007 0
M  V30 20030 O 1921.05 1.80121 -0.293703 0
M  V30 20031 C 1921.1 0.590778 -3.5664 0
M  V30 20032 O 1920.82 -0.56723 -4.34412 0
M  V30 20033 C 1922.32 1.23429 -4.2577 0
M  V30 20034 H 1919.54 0.0343137 -0.670122 0
M  V30 20035 H 1922.09 -0.539234 -1.97263 0
M  V30 20036 H 1920.24 1.28886 -3.65331 0
M  V30 20037 H 1920.66 -0.256062 -5.23875 0
M  V30 20038 H 1922.13 1.45192 -5.32563 0
M  V30 20039 H 1922.61 2.19814 -3.80235 0
M  V30 20040 H 1923.21 0.577303 -4.21364 0
M  V30 20041 N 1921.53 1.57237 -0.106922 0
M  V30 20042 C 1922.76 1.9912 0.562038 0
M  V30 20043 C 1923.17 0.986338 1.60987 0
M  V30 20044 O 1922.53 -0.0224611 1.82486 0
M  V30 20045 C 1922.58 3.41034 1.19909 0
M  V30 20046 O 1922.3 4.37674 0.193157 0
M  V30 20047 C 1923.8 3.97984 1.95253 0
M  V30 20048 H 1921.02 0.654071 0.149772 0
M  V30 20049 H 1923.57 2.03618 -0.189699 0
M  V30 20050 H 1921.72 3.37513 1.90168 0
M  V30 20051 H 1922.14 5.20401 0.654461 0
M  V30 20052 H 1923.61 4.99398 2.35171 0
M  V30 20053 H 1924.09 3.36455 2.82303 0
M  V30 20054 H 1924.69 4.05014 1.29784 0
M  V30 20055 N 1923.01 -0.166818 1.56715 0
M  V30 20056 C 1924.26 -0.880972 1.81888 0
M  V30 20057 C 1924.58 -1.82586 0.68465 0
M  V30 20058 O 1923.85 -1.93663 -0.295173 0
M  V30 20059 H 1922.43 -0.32831 0.670985 0
M  V30 20060 H 1925.09 -0.165558 1.94196 0
M  V30 20061 H 1924.19 -1.45517 2.761 0
M  V30 20062 N 1924.49 -1.51463 -0.435524 0
M  V30 20063 C 1925.43 -1.72908 -1.52877 0
M  V30 20064 C 1926.4 -0.570809 -1.55984 0
M  V30 20065 O 1927.59 -0.805443 -1.72966 0
M  V30 20066 C 1924.73 -1.8617 -2.90576 0
M  V30 20067 C 1923.84 -3.13726 -2.96985 0
M  V30 20068 C 1922.98 -3.17573 -4.25818 0
M  V30 20069 C 1922.02 -4.39437 -4.26101 0
M  V30 20070 N 1921.15 -4.40823 -5.46461 0
M  V30 20071 H 1925.99 -2.66226 -1.33894 0
M  V30 20072 H 1923.53 -1.3194 -0.650399 0
M  V30 20073 H 1925.49 -1.91841 -3.70476 0
M  V30 20074 H 1924.12 -0.962585 -3.08114 0
M  V30 20075 H 1923.17 -3.17356 -2.09737 0
M  V30 20076 H 1924.48 -4.03634 -2.93055 0
M  V30 20077 H 1923.64 -3.2217 -5.14093 0
M  V30 20078 H 1922.37 -2.25558 -4.32406 0
M  V30 20079 H 1921.38 -4.35014 -3.36219 0
M  V30 20080 H 1922.6 -5.32718 -4.21175 0
M  V30 20081 H 1920.55 -3.51679 -5.53767 0
M  V30 20082 H 1920.47 -5.24541 -5.44419 0
M  V30 20083 H 1921.74 -4.49615 -6.36763 0
M  V30 20084 N 1925.96 0.691085 -1.4164 0
M  V30 20085 C 1926.9 1.81547 -1.3826 0
M  V30 20086 C 1927.88 1.60679 -0.249192 0
M  V30 20087 O 1929.06 1.83369 -0.436821 0
M  V30 20088 C 1926.19 3.18298 -1.15777 0
M  V30 20089 C 1925.23 3.57948 -2.31896 0
M  V30 20090 S 1926.07 3.6224 -3.94388 0
M  V30 20091 C 1927.22 5.0171 -3.74217 0
M  V30 20092 H 1927.45 1.84138 -2.33411 0
M  V30 20093 H 1924.99 0.860221 -1.28217 0
M  V30 20094 H 1926.95 3.9724 -1.03492 0
M  V30 20095 H 1925.61 3.13312 -0.222389 0
M  V30 20096 H 1924.8 4.57304 -2.1187 0
M  V30 20097 H 1924.4 2.86325 -2.40612 0
M  V30 20098 H 1926.69 5.89336 -3.342 0
M  V30 20099 H 1927.64 5.26778 -4.73192 0
M  V30 20100 H 1928.04 4.73459 -3.07403 0
M  V30 20101 N 1927.44 1.27542 0.925789 0
M  V30 20102 C 1928.35 1.1225 2.06002 0
M  V30 20103 C 1929.37 0.0520487 1.73922 0
M  V30 20104 O 1930.54 0.258921 1.99729 0
M  V30 20105 C 1927.61 0.773231 3.37967 0
M  V30 20106 C 1926.67 1.92476 3.83733 0
M  V30 20107 C 1925.9 1.59206 5.09401 0
M  V30 20108 O 1926.13 0.500836 5.68197 0
M  V30 20109 O 1925.06 2.43185 5.50586 0
M  V30 20110 H 1928.89 2.07439 2.21817 0
M  V30 20111 H 1926.47 1.06747 1.04525 0
M  V30 20112 H 1928.35 0.591863 4.17223 0
M  V30 20113 H 1927.03 -0.149116 3.23356 0
M  V30 20114 H 1925.94 2.1612 3.05357 0
M  V30 20115 H 1927.27 2.82738 4.02889 0
M  V30 20116 N 1928.92 -1.13255 1.09595 0
M  V30 20117 C 1929.87 -2.20794 0.731624 0
M  V30 20118 C 1930.86 -1.67263 -0.268256 0
M  V30 20119 O 1932.07 -1.79533 -0.129535 0
M  V30 20120 H 1928.44 -0.719521 0.218618 0
M  V30 20121 H 1930.41 -2.48784 1.6477 0
M  V30 20122 C 1929.16 -3.47283 0.170214 0
M  V30 20123 H 1928.49 -3.88814 0.930805 0
M  V30 20124 H 1929.93 -4.23974 -0.0467499 0
M  V30 20125 C 1928.39 -3.18609 -1.09497 0
M  V30 20126 O 1928.92 -3.37534 -2.17793 0
M  V30 20127 N 1927.12 -2.72477 -1.01017 0
M  V30 20128 H 1926.67 -2.57278 -0.128814 0
M  V30 20129 H 1926.63 -2.53668 -1.85741 0
M  V30 20130 N 1930.4 -0.883401 -1.30514 0
M  V30 20131 C 1931.63 -0.515199 -2.00073 0
M  V30 20132 C 1932.04 0.900374 -1.66403 0
M  V30 20133 O 1931.38 1.60339 -0.896503 0
M  V30 20134 C 1931.44 -0.608317 -3.54316 0
M  V30 20135 C 1931.11 -1.98792 -4.11498 0
M  V30 20136 C 1932.1 -2.95712 -4.2761 0
M  V30 20137 C 1929.79 -2.29288 -4.46914 0
M  V30 20138 C 1931.78 -4.21264 -4.78347 0
M  V30 20139 C 1929.47 -3.55086 -4.9735 0
M  V30 20140 C 1930.47 -4.50888 -5.13019 0
M  V30 20141 O 1930.15 -5.74455 -5.62367 0
M  V30 20142 H 1929.89 -0.197853 -0.646398 0
M  V30 20143 H 1932.44 -1.19015 -1.67405 0
M  V30 20144 H 1930.67 0.123606 -3.86502 0
M  V30 20145 H 1932.36 -0.251619 -4.05119 0
M  V30 20146 H 1933.13 -2.73463 -4.00553 0
M  V30 20147 H 1929 -1.55488 -4.33987 0
M  V30 20148 H 1932.55 -4.96048 -4.90492 0
M  V30 20149 H 1928.45 -3.77172 -5.23843 0
M  V30 20150 H 1929.21 -5.76814 -5.80713 0
M  V30 20151 N 1931.88 1.43833 -0.644194 0
M  V30 20152 C 1932.79 2.34538 0.0537504 0
M  V30 20153 C 1933.8 1.53369 0.821825 0
M  V30 20154 O 1934.98 1.86053 0.771123 0
M  V30 20155 C 1932.04 3.3153 1.01434 0
M  V30 20156 C 1931.1 4.28605 0.244198 0
M  V30 20157 C 1930.34 5.20963 1.15903 0
M  V30 20158 O 1930.56 5.1754 2.3981 0
M  V30 20159 O 1929.49 5.98527 0.636302 0
M  V30 20160 H 1933.32 2.95696 -0.692624 0
M  V30 20161 H 1930.91 1.43823 -0.404377 0
M  V30 20162 H 1932.79 3.91196 1.56663 0
M  V30 20163 H 1931.46 2.72887 1.7411 0
M  V30 20164 H 1930.37 3.72445 -0.351459 0
M  V30 20165 H 1931.7 4.90204 -0.442806 0
M  V30 20166 N 1933.35 0.385544 1.52811 0
M  V30 20167 C 1934.28 -0.442951 2.2926 0
M  V30 20168 C 1935.27 -1.06674 1.32494 0
M  V30 20169 O 1936.45 -1.08022 1.61384 0
M  V30 20170 C 1933.58 -1.57243 3.09664 0
M  V30 20171 C 1932.53 -1.07488 4.14283 0
M  V30 20172 C 1931.86 -2.29614 4.82889 0
M  V30 20173 C 1933.16 -0.145479 5.22097 0
M  V30 20174 H 1934.85 0.1949 2.98765 0
M  V30 20175 H 1932.4 0.0951762 1.43685 0
M  V30 20176 H 1934.35 -2.15882 3.61902 0
M  V30 20177 H 1933.08 -2.23781 2.37885 0
M  V30 20178 H 1931.74 -0.511047 3.6302 0
M  V30 20179 H 1931.38 -2.94653 4.07662 0
M  V30 20180 H 1931.08 -1.96985 5.53598 0
M  V30 20181 H 1932.61 -2.88902 5.37929 0
M  V30 20182 H 1934.02 -0.639941 5.69717 0
M  V30 20183 H 1932.42 0.0908687 6.00031 0
M  V30 20184 H 1933.49 0.806707 4.78142 0
M  V30 20185 N 1934.83 -1.57178 0.115259 0
M  V30 20186 C 1936.08 -1.94241 -0.54344 0
M  V30 20187 C 1936.39 -1.0006 -1.68069 0
M  V30 20188 O 1937.6 -1.26574 -2.4019 0
M  V30 20189 C 1936.06 -3.45199 -1.0181 0
M  V30 20190 C 1935.66 -4.47909 0.0904861 0
M  V30 20191 C 1937.41 -3.91188 -1.64839 0
M  V30 20192 C 1935.32 -5.90041 -0.400667 0
M  V30 20193 H 1934.25 -0.725092 -0.206778 0
M  V30 20194 H 1936.9 -1.82466 0.194509 0
M  V30 20195 H 1935.28 -3.52196 -1.81036 0
M  V30 20196 H 1936.45 -4.52577 0.866638 0
M  V30 20197 H 1934.77 -4.11649 0.627197 0
M  V30 20198 H 1937.36 -4.94792 -2.02694 0
M  V30 20199 H 1937.71 -3.30955 -2.52536 0
M  V30 20200 H 1938.24 -3.86977 -0.92161 0
M  V30 20201 H 1934.98 -6.54021 0.440159 0
M  V30 20202 H 1934.5 -5.88801 -1.14338 0
M  V30 20203 H 1936.18 -6.41217 -0.863111 0
M  V30 20204 N 1936.31 0.158505 -1.56801 0
M  V30 20205 C 1937.26 1.20094 -1.93808 0
M  V30 20206 C 1938.25 1.39146 -0.807916 0
M  V30 20207 O 1939.44 1.40901 -1.07125 0
M  V30 20208 C 1936.57 2.53736 -2.31243 0
M  V30 20209 C 1935.65 2.38324 -3.50803 0
M  V30 20210 N 1936.04 1.92648 -4.67676 0
M  V30 20211 C 1934.34 2.69112 -3.55661 0
M  V30 20212 C 1935.04 1.90005 -5.49793 0
M  V30 20213 N 1934.02 2.3289 -4.91186 0
M  V30 20214 H 1937.82 0.839694 -2.81649 0
M  V30 20215 H 1935.33 0.366668 -1.58207 0
M  V30 20216 H 1937.33 3.29079 -2.55955 0
M  V30 20217 H 1935.99 2.90652 -1.44747 0
M  V30 20218 H 1937 1.62788 -4.91651 0
M  V30 20219 H 1933.68 3.0998 -2.79676 0
M  V30 20220 H 1935.07 1.5628 -6.53472 0
M  V30 20221 N 1937.79 1.51692 0.427485 0
M  V30 20222 C 1939.01 1.68956 1.20285 0
M  V30 20223 C 1939.44 0.390472 1.84003 0
M  V30 20224 O 1938.8 -0.650352 1.69234 0
M  V30 20225 C 1938.85 2.81368 2.25532 0
M  V30 20226 O 1937.95 2.45657 3.3125 0
M  V30 20227 H 1937.29 0.56304 0.351969 0
M  V30 20228 H 1939.82 1.98306 0.503588 0
M  V30 20229 H 1939.83 3.05742 2.70158 0
M  V30 20230 H 1938.51 3.7563 1.78535 0
M  V30 20231 H 1937.08 2.31889 2.9203 0
M  V30 20232 N 1939.27 -0.683564 1.42004 0
M  V30 20233 C 1940.49 -1.47711 1.45589 0
M  V30 20234 C 1940.92 -1.87984 0.0661307 0
M  V30 20235 O 1940.28 -1.55425 -0.933428 0
M  V30 20236 C 1940.32 -2.70824 2.3809 0
M  V30 20237 O 1939.43 -3.68766 1.84622 0
M  V30 20238 H 1938.77 -0.444102 0.493629 0
M  V30 20239 H 1941.3 -0.839192 1.86598 0
M  V30 20240 H 1941.31 -3.18996 2.54373 0
M  V30 20241 H 1939.98 -2.4085 3.39063 0
M  V30 20242 H 1938.56 -3.27756 1.77849 0
M  V30 20243 N 1940.75 -1.28031 -0.919012 0
M  V30 20244 C 1942.16 -1.05624 -1.19649 0
M  V30 20245 C 1942.36 0.204731 -2.00457 0
M  V30 20246 O 1941.42 0.907849 -2.35615 0
M  V30 20247 C 1942.73 -2.3007 -1.93619 0
M  V30 20248 C 1944.28 -2.35196 -2.06523 0
M  V30 20249 C 1944.75 -3.59395 -2.839 0
M  V30 20250 N 1946.24 -3.60004 -2.91464 0
M  V30 20251 C 1946.98 -4.52779 -3.51822 0
M  V30 20252 N 1946.48 -5.55868 -4.13501 0
M  V30 20253 N 1948.27 -4.40385 -3.4931 0
M  V30 20254 H 1940.42 -2.08985 -0.379372 0
M  V30 20255 H 1942.68 -0.919558 -0.230473 0
M  V30 20256 H 1942.39 -3.21907 -1.41665 0
M  V30 20257 H 1942.26 -2.36071 -2.94195 0
M  V30 20258 H 1944.65 -1.4386 -2.57659 0
M  V30 20259 H 1944.73 -2.33194 -1.0514 0
M  V30 20260 H 1944.37 -4.51072 -2.33445 0
M  V30 20261 H 1944.3 -3.58651 -3.85587 0
M  V30 20262 H 1946.8 -2.85455 -2.47637 0
M  V30 20263 H 1947.11 -6.22812 -4.57521 0
M  V30 20264 H 1945.45 -5.597 -4.12021 0
M  V30 20265 H 1948.64 -3.59053 -3.0033 0
M  V30 20266 H 1948.82 -5.12877 -3.96057 0
M  V30 20267 N 1942.22 1.12672 -1.10194 0
M  V30 20268 C 1943.47 1.84399 -0.844081 0
M  V30 20269 C 1943.8 1.83739 0.628782 0
M  V30 20270 O 1943.08 1.28115 1.46345 0
M  V30 20271 C 1943.36 3.32194 -1.38994 0
M  V30 20272 C 1943.21 3.41323 -2.92948 0
M  V30 20273 C 1944.53 4.27872 -1.03021 0
M  V30 20274 H 1941.65 0.669515 -0.308089 0
M  V30 20275 H 1944.29 1.322 -1.36467 0
M  V30 20276 H 1942.44 3.76778 -0.947144 0
M  V30 20277 H 1944.12 3.05393 -3.45735 0
M  V30 20278 H 1942.36 2.81948 -3.29678 0
M  V30 20279 H 1943.03 4.45289 -3.26223 0
M  V30 20280 H 1945.51 3.91401 -1.41224 0
M  V30 20281 H 1944.38 5.29699 -1.43909 0
M  V30 20282 H 1944.64 4.42058 0.0606669 0
M  V30 20283 N 1943.7 0.89031 1.30043 0
M  V30 20284 C 1944.65 0.35935 2.27985 0
M  V30 20285 C 1945.62 -0.5534 1.5661 0
M  V30 20286 O 1946.8 -0.480669 1.84646 0
M  V30 20287 C 1943.94 -0.41541 3.42591 0
M  V30 20288 C 1943.06 0.527163 4.28771 0
M  V30 20289 C 1942.19 -0.26372 5.30545 0
M  V30 20290 C 1941.23 0.673982 6.08378 0
M  V30 20291 N 1940.37 -0.081909 7.02052 0
M  V30 20292 H 1945.21 1.19969 2.72785 0
M  V30 20293 H 1942.74 0.602948 1.34175 0
M  V30 20294 H 1944.7 -0.880572 4.07801 0
M  V30 20295 H 1943.33 -1.22028 2.98846 0
M  V30 20296 H 1942.38 1.11083 3.6382 0
M  V30 20297 H 1943.7 1.24532 4.83004 0
M  V30 20298 H 1942.85 -0.7905 6.01528 0
M  V30 20299 H 1941.59 -1.01507 4.7702 0
M  V30 20300 H 1940.59 1.21234 5.36267 0
M  V30 20301 H 1941.82 1.42451 6.63991 0
M  V30 20302 H 1939.77 -0.815696 6.50909 0
M  V30 20303 H 1939.68 0.576521 7.53799 0
M  V30 20304 H 1940.95 -0.589258 7.7727 0
M  V30 20305 N 1945.18 -1.43489 0.651812 0
M  V30 20306 C 1946.43 -2.0183 0.164632 0
M  V30 20307 C 1946.75 -1.51408 -1.2209 0
M  V30 20308 O 1946.01 -0.697062 -1.82865 0
M  V30 20309 C 1946.31 -3.57189 0.122885 0
M  V30 20310 C 1945.97 -4.2695 1.44997 0
M  V30 20311 C 1944.64 -4.45724 1.81339 0
M  V30 20312 C 1946.99 -4.66468 2.32501 0
M  V30 20313 C 1944.32 -5.0128 3.04853 0
M  V30 20314 C 1946.67 -5.23393 3.55306 0
M  V30 20315 C 1945.33 -5.40383 3.91845 0
M  V30 20316 H 1944.6 -0.738547 0.0602433 0
M  V30 20317 H 1947.25 -1.71984 0.842241 0
M  V30 20318 H 1945.55 -3.86568 -0.638169 0
M  V30 20319 H 1947.25 -4.00084 -0.270911 0
M  V30 20320 H 1943.84 -4.12682 1.15721 0
M  V30 20321 H 1948.03 -4.51658 2.05715 0
M  V30 20322 H 1943.28 -5.1262 3.33213 0
M  V30 20323 H 1947.46 -5.52961 4.23329 0
M  V30 20324 H 1945.08 -5.83197 4.87632 0
M  V30 20325 N 1946.66 -0.393643 -1.52605 0
M  V30 20326 C 1947.89 0.1871 -2.06052 0
M  V30 20327 C 1948.3 1.40154 -1.26501 0
M  V30 20328 O 1947.66 1.798 -0.31279 0
M  V30 20329 C 1947.71 0.552918 -3.57246 0
M  V30 20330 O 1947.43 -0.613274 -4.33786 0
M  V30 20331 C 1948.93 1.18906 -4.27055 0
M  V30 20332 H 1946.15 0.0272042 -0.670448 0
M  V30 20333 H 1948.69 -0.560126 -1.9668 0
M  V30 20334 H 1946.85 1.25004 -3.66678 0
M  V30 20335 H 1947.26 -0.311611 -5.23574 0
M  V30 20336 H 1948.74 1.39535 -5.34073 0
M  V30 20337 H 1949.21 2.15768 -3.82545 0
M  V30 20338 H 1949.82 0.532579 -4.21952 0
M  V30 20339 N 1948.14 1.57115 -0.123593 0
M  V30 20340 C 1949.37 1.99415 0.540103 0
M  V30 20341 C 1949.77 1.00228 1.60471 0
M  V30 20342 O 1949.12 -0.0123101 1.83696 0
M  V30 20343 C 1949.18 3.38134 1.22088 0
M  V30 20344 C 1948.84 4.5599 0.30367 0
M  V30 20345 C 1949.84 5.17865 -0.459524 0
M  V30 20346 C 1947.52 5.01846 0.213401 0
M  V30 20347 C 1949.52 6.23988 -1.30067 0
M  V30 20348 C 1947.21 6.0783 -0.631375 0
M  V30 20349 C 1948.2 6.68768 -1.38704 0
M  V30 20350 O 1947.89 7.72703 -2.21778 0
M  V30 20351 H 1947.62 0.659781 0.147192 0
M  V30 20352 H 1950.18 2.04343 -0.208128 0
M  V30 20353 H 1948.41 3.29975 2.01628 0
M  V30 20354 H 1950.1 3.64694 1.78195 0
M  V30 20355 H 1950.86 4.8335 -0.399683 0
M  V30 20356 H 1946.74 4.54158 0.791276 0
M  V30 20357 H 1950.29 6.71482 -1.89097 0
M  V30 20358 H 1946.18 6.41774 -0.692592 0
M  V30 20359 H 1946.95 7.8982 -2.1477 0
M  V30 20360 N 1949.61 -0.150187 1.56883 0
M  V30 20361 C 1951.02 -0.710574 1.72649 0
M  V30 20362 C 1951.38 -1.81812 0.737493 0
M  V30 20363 O 1950.5 -2.16184 -0.0965795 0
M  V30 20364 C 1951.1 -1.29572 3.13044 0
M  V30 20365 C 1949.65 -1.80271 3.30423 0
M  V30 20366 C 1948.8 -0.689923 2.6858 0
M  V30 20367 H 1951.75 0.0754473 1.58521 0
M  V30 20368 H 1951.77 -2.16552 3.12867 0
M  V30 20369 H 1951.29 -0.489412 3.85002 0
M  V30 20370 H 1949.39 -2.63479 2.63457 0
M  V30 20371 H 1949.5 -1.93362 4.38347 0
M  V30 20372 H 1947.86 -1.11574 2.28961 0
M  V30 20373 H 1948.65 0.104892 3.4314 0
M  V30 20374 N 1951.09 -1.51916 -0.419434 0
M  V30 20375 C 1952.32 -1.69592 -1.19387 0
M  V30 20376 C 1952.74 -0.400225 -1.83793 0
M  V30 20377 O 1952.1 0.641368 -1.69576 0
M  V30 20378 C 1952.15 -2.8256 -2.24036 0
M  V30 20379 O 1951.25 -2.4741 -3.29942 0
M  V30 20380 H 1950.59 -0.564898 -0.348978 0
M  V30 20381 H 1953.12 -1.9857 -0.493064 0
M  V30 20382 H 1953.13 -3.07171 -2.68533 0
M  V30 20383 H 1951.81 -3.76572 -1.7654 0
M  V30 20384 H 1950.39 -2.33435 -2.90796 0
M  V30 20385 N 1952.57 0.676023 -1.42365 0
M  V30 20386 C 1953.48 1.81906 -1.48147 0
M  V30 20387 C 1954.5 1.70014 -0.37032 0
M  V30 20388 O 1955.67 1.91586 -0.621036 0
M  V30 20389 C 1952.74 3.18039 -1.38029 0
M  V30 20390 C 1951.8 3.41897 -2.59625 0
M  V30 20391 C 1951.03 4.71536 -2.4998 0
M  V30 20392 O 1951.25 5.49358 -1.535 0
M  V30 20393 O 1950.19 4.9661 -3.40091 0
M  V30 20394 H 1954.01 1.79984 -2.44621 0
M  V30 20395 H 1951.6 0.831611 -1.24115 0
M  V30 20396 H 1953.48 3.99277 -1.34743 0
M  V30 20397 H 1952.16 3.20602 -0.446789 0
M  V30 20398 H 1951.06 2.60512 -2.68485 0
M  V30 20399 H 1952.4 3.44164 -3.51869 0
M  V30 20400 N 1954.05 1.28517 0.912209 0
M  V30 20401 C 1954.96 1.14429 2.048 0
M  V30 20402 C 1955.97 0.0704926 1.73857 0
M  V30 20403 O 1957.15 0.280091 1.99443 0
M  V30 20404 C 1954.22 0.809034 3.37128 0
M  V30 20405 C 1953.28 1.96535 3.8167 0
M  V30 20406 C 1952.51 1.646 5.07684 0
M  V30 20407 O 1952.73 0.561072 5.67634 0
M  V30 20408 O 1951.67 2.49011 5.47975 0
M  V30 20409 H 1955.49 2.0978 2.19604 0
M  V30 20410 H 1953.08 1.0785 1.03387 0
M  V30 20411 H 1954.96 0.636082 4.16572 0
M  V30 20412 H 1953.63 -0.114812 3.23496 0
M  V30 20413 H 1952.54 2.19347 3.03047 0
M  V30 20414 H 1953.87 2.86996 3.99868 0
M  V30 20415 N 1955.53 -1.12086 1.1079 0
M  V30 20416 C 1956.44 -2.21514 0.772578 0
M  V30 20417 C 1957.45 -1.72454 -0.231462 0
M  V30 20418 O 1958.63 -2.01281 -0.0693074 0
M  V30 20419 C 1955.69 -3.46043 0.213364 0
M  V30 20420 C 1954.75 -4.09925 1.27515 0
M  V30 20421 C 1953.99 -5.28509 0.742524 0
M  V30 20422 O 1954.21 -5.68779 -0.429786 0
M  V30 20423 O 1953.14 -5.82802 1.50417 0
M  V30 20424 H 1956.97 -2.52596 1.68608 0
M  V30 20425 H 1954.56 -1.20492 0.883294 0
M  V30 20426 H 1956.44 -4.21294 -0.0944683 0
M  V30 20427 H 1955.11 -3.16628 -0.672947 0
M  V30 20428 H 1954.02 -3.36436 1.63589 0
M  V30 20429 H 1955.35 -4.43504 2.13461 0
M  V30 20430 N 1957 -0.897194 -1.29569 0
M  V30 20431 C 1958.25 -0.517823 -1.9494 0
M  V30 20432 C 1958.57 0.940096 -1.71527 0
M  V30 20433 O 1959.77 1.42687 -2.30982 0
M  V30 20434 C 1958.23 -0.875183 -3.49097 0
M  V30 20435 C 1957.84 -2.3517 -3.81312 0
M  V30 20436 C 1959.58 -0.565601 -4.20715 0
M  V30 20437 C 1957.49 -2.65005 -5.28702 0
M  V30 20438 H 1956.42 -0.189928 -0.729687 0
M  V30 20439 H 1959.07 -1.09385 -1.47334 0
M  V30 20440 H 1957.45 -0.228115 -3.95342 0
M  V30 20441 H 1958.62 -3.04411 -3.45934 0
M  V30 20442 H 1956.94 -2.63005 -3.22827 0
M  V30 20443 H 1959.54 -0.765387 -5.29194 0
M  V30 20444 H 1959.88 0.49573 -4.13338 0
M  V30 20445 H 1960.41 -1.1704 -3.80193 0
M  V30 20446 H 1957.15 -3.69927 -5.41142 0
M  V30 20447 H 1956.67 -2.00386 -5.65337 0
M  V30 20448 H 1958.35 -2.51141 -5.96269 0
M  V30 20449 N 1958.48 1.43142 -0.659413 0
M  V30 20450 C 1959.73 2.01341 -0.174987 0
M  V30 20451 C 1960.05 1.52322 1.21749 0
M  V30 20452 O 1959.32 0.738424 1.8145 0
M  V30 20453 H 1957.9 0.744447 -0.0617013 0
M  V30 20454 H 1960.56 1.75268 -0.852471 0
M  V30 20455 H 1959.66 3.11667 -0.164379 0
M  V30 20456 N 1959.96 0.40173 1.52394 0
M  V30 20457 C 1961.24 -0.234644 1.94187 0
M  V30 20458 C 1961.62 -1.63273 1.3381 0
M  V30 20459 O 1960.97 -2.22713 0.511013 0
M  V30 20460 C 1961.18 -0.248454 3.48114 0
M  V30 20461 C 1962.52 -0.471396 4.21975 0
M  V30 20462 O 1963.55 -0.328131 3.54685 0
M  V30 20463 O 1962.41 -0.753135 5.41286 0
M  V30 20464 H 1959.5 -0.149075 0.813453 0
M  V30 20465 H 1962.05 0.457138 1.63427 0
M  V30 20466 H 1960.82 0.730355 3.84424 0
M  V30 20467 H 1960.44 -0.984644 3.85215 0
M  V30 20468 N 1961.44 -1.57047 0.131923 0
M  V30 20469 C 1962.37 -2.19006 -0.809859 0
M  V30 20470 C 1963.35 -1.13384 -1.26799 0
M  V30 20471 O 1964.53 -1.4167 -1.32827 0
M  V30 20472 C 1961.66 -2.79973 -2.05505 0
M  V30 20473 C 1960.62 -3.9129 -1.73424 0
M  V30 20474 C 1959.94 -4.39123 -3.05081 0
M  V30 20475 C 1961.24 -5.12783 -0.992535 0
M  V30 20476 H 1962.94 -2.97958 -0.293522 0
M  V30 20477 H 1960.48 -1.4332 -0.13974 0
M  V30 20478 H 1962.44 -3.2198 -2.71858 0
M  V30 20479 H 1961.16 -1.9833 -2.59486 0
M  V30 20480 H 1959.82 -3.49879 -1.09456 0
M  V30 20481 H 1959.47 -3.54322 -3.57022 0
M  V30 20482 H 1959.17 -5.14197 -2.84385 0
M  V30 20483 H 1960.69 -4.8379 -3.72531 0
M  V30 20484 H 1962.11 -5.51728 -1.55785 0
M  V30 20485 H 1960.5 -5.93522 -0.886062 0
M  V30 20486 H 1961.57 -4.84896 0.0184538 0
M  V30 20487 N 1962.92 0.141865 -1.5696 0
M  V30 20488 C 1964.14 0.868403 -1.87793 0
M  V30 20489 C 1964.56 1.74504 -0.720691 0
M  V30 20490 O 1963.92 1.79859 0.309372 0
M  V30 20491 C 1963.97 1.72086 -3.17913 0
M  V30 20492 O 1963.69 0.879548 -4.2918 0
M  V30 20493 C 1965.19 2.55454 -3.62296 0
M  V30 20494 H 1962.41 0.250842 -0.62235 0
M  V30 20495 H 1964.95 0.133113 -2.04066 0
M  V30 20496 H 1963.11 2.40915 -3.03379 0
M  V30 20497 H 1963.52 1.4653 -5.03616 0
M  V30 20498 H 1965 3.10834 -4.56165 0
M  V30 20499 H 1965.47 3.31735 -2.87834 0
M  V30 20500 H 1966.08 1.91906 -3.79542 0
M  V30 20501 N 1964.39 1.52136 0.411372 0
M  V30 20502 C 1965.64 1.66085 1.15853 0
M  V30 20503 C 1965.97 0.38968 1.90556 0
M  V30 20504 O 1965.22 -0.62727 1.85375 0
M  V30 20505 C 1965.52 2.832 2.1802 0
M  V30 20506 C 1965.19 4.21504 1.6014 0
M  V30 20507 C 1963.85 4.59124 1.4408 0
M  V30 20508 C 1966.2 5.07702 1.17848 0
M  V30 20509 C 1963.53 5.80621 0.842405 0
M  V30 20510 C 1965.88 6.29802 0.594283 0
M  V30 20511 C 1964.55 6.66172 0.420791 0
M  V30 20512 H 1963.82 0.607749 0.423937 0
M  V30 20513 H 1966.46 1.86233 0.446046 0
M  V30 20514 H 1964.77 2.57378 2.95405 0
M  V30 20515 H 1966.47 2.91189 2.75699 0
M  V30 20516 H 1963.06 3.91858 1.73623 0
M  V30 20517 H 1967.24 4.79224 1.29066 0
M  V30 20518 H 1962.5 6.07426 0.695983 0
M  V30 20519 H 1966.67 6.95921 0.258177 0
M  V30 20520 H 1964.3 7.60187 -0.044991 0
M  V30 20521 N 1965.87 -0.668464 1.42721 0
M  V30 20522 C 1967.1 -1.45659 1.46939 0
M  V30 20523 C 1967.52 -1.88619 0.0826133 0
M  V30 20524 O 1966.87 -1.58537 -0.904 0
M  V30 20525 C 1966.92 -2.70158 2.40202 0
M  V30 20526 O 1966.65 -2.28999 3.73485 0
M  V30 20527 C 1968.15 -3.63662 2.53505 0
M  V30 20528 H 1965.37 -0.447982 0.499553 0
M  V30 20529 H 1967.91 -0.820826 1.87304 0
M  V30 20530 H 1966.07 -3.29909 2.03074 0
M  V30 20531 H 1966.48 -3.09441 4.23493 0
M  V30 20532 H 1967.95 -4.47726 3.22871 0
M  V30 20533 H 1968.43 -4.09989 1.57498 0
M  V30 20534 H 1969.04 -3.09801 2.91382 0
M  V30 20535 N 1967.35 -1.28999 -0.905381 0
M  V30 20536 C 1968.6 -1.16813 -1.65779 0
M  V30 20537 C 1968.93 0.280936 -1.92157 0
M  V30 20538 O 1968.21 1.2035 -1.52794 0
M  V30 20539 C 1968.49 -1.97593 -3.01047 0
M  V30 20540 C 1968.34 -3.50608 -2.8177 0
M  V30 20541 C 1969.66 -1.79788 -4.01702 0
M  V30 20542 H 1966.78 -0.425716 -0.60161 0
M  V30 20543 H 1969.42 -1.58409 -1.04913 0
M  V30 20544 H 1967.57 -1.62246 -3.52999 0
M  V30 20545 H 1969.24 -3.95905 -2.36763 0
M  V30 20546 H 1967.49 -3.75818 -2.16663 0
M  V30 20547 H 1968.16 -4.02396 -3.77865 0
M  V30 20548 H 1970.63 -2.10649 -3.5884 0
M  V30 20549 H 1969.51 -2.38667 -4.94297 0
M  V30 20550 H 1969.77 -0.75156 -4.35665 0
M  V30 20551 N 1968.83 1.11497 -1.11383 0
M  V30 20552 C 1969.79 2.15704 -0.774896 0
M  V30 20553 C 1970.79 1.59482 0.205448 0
M  V30 20554 O 1971.98 1.7419 -0.018959 0
M  V30 20555 C 1969.11 3.40572 -0.149551 0
M  V30 20556 H 1970.31 2.47199 -1.69802 0
M  V30 20557 H 1967.86 1.26673 -0.915627 0
M  V30 20558 H 1968.6 3.14685 0.78383 0
M  V30 20559 H 1968.38 3.82659 -0.855233 0
M  V30 20560 H 1969.87 4.17539 0.0714744 0
M  V30 20561 N 1970.31 0.904053 1.29092 0
M  V30 20562 C 1971.24 0.342376 2.26628 0
M  V30 20563 C 1972.25 -0.513752 1.54481 0
M  V30 20564 O 1973.44 -0.330204 1.75419 0
M  V30 20565 C 1970.54 -0.530091 3.34729 0
M  V30 20566 C 1969.71 0.301305 4.36361 0
M  V30 20567 C 1968.77 -0.504691 5.23774 0
M  V30 20568 O 1967.8 0.0793438 5.69145 0
M  V30 20569 N 1969 -1.80985 5.51566 0
M  V30 20570 H 1971.77 1.18071 2.75462 0
M  V30 20571 H 1969.33 0.768991 1.42472 0
M  V30 20572 H 1971.32 -1.0758 3.90139 0
M  V30 20573 H 1969.89 -1.26912 2.85678 0
M  V30 20574 H 1969.11 1.02841 3.80549 0
M  V30 20575 H 1970.4 0.870527 5.01298 0
M  V30 20576 H 1969.8 -2.30701 5.16521 0
M  V30 20577 H 1968.35 -2.30259 6.09774 0
M  V30 20578 N 1971.79 -1.4279 0.666995 0
M  V30 20579 C 1972.73 -2.30794 -0.0161644 0
M  V30 20580 C 1973.7 -1.45527 -0.800701 0
M  V30 20581 O 1974.89 -1.74372 -0.774527 0
M  V30 20582 C 1972.03 -3.31276 -0.966974 0
M  V30 20583 C 1971.14 -4.31637 -0.177086 0
M  V30 20584 C 1970.28 -5.19195 -1.12294 0
M  V30 20585 C 1969.31 -6.1124 -0.324284 0
M  V30 20586 N 1968.45 -6.91376 -1.22244 0
M  V30 20587 H 1973.29 -2.88662 0.74014 0
M  V30 20588 H 1970.83 -1.42194 0.376738 0
M  V30 20589 H 1972.79 -3.88054 -1.53198 0
M  V30 20590 H 1971.42 -2.75025 -1.69 0
M  V30 20591 H 1970.47 -3.77041 0.504428 0
M  V30 20592 H 1971.78 -4.96826 0.443328 0
M  V30 20593 H 1970.93 -5.80667 -1.75813 0
M  V30 20594 H 1969.67 -4.54164 -1.77725 0
M  V30 20595 H 1968.68 -5.48843 0.324174 0
M  V30 20596 H 1969.9 -6.78318 0.325818 0
M  V30 20597 H 1967.85 -6.28981 -1.86329 0
M  V30 20598 H 1967.77 -7.5314 -0.656918 0
M  V30 20599 H 1969.03 -7.57342 -1.84535 0
M  V30 20600 N 1973.26 -0.409806 -1.52179 0
M  V30 20601 C 1974.2 0.459953 -2.23517 0
M  V30 20602 C 1975.17 1.04743 -1.24369 0
M  V30 20603 O 1976.36 1.09517 -1.53422 0
M  V30 20604 C 1973.49 1.6385 -2.9643 0
M  V30 20605 C 1972.53 1.17434 -4.10014 0
M  V30 20606 S 1973.36 0.138933 -5.3532 0
M  V30 20607 C 1974.52 1.32279 -6.11762 0
M  V30 20608 H 1974.75 -0.145775 -2.96942 0
M  V30 20609 H 1972.29 -0.19411 -1.53175 0
M  V30 20610 H 1974.24 2.31429 -3.39044 0
M  V30 20611 H 1972.91 2.21557 -2.22646 0
M  V30 20612 H 1972.1 2.05487 -4.60208 0
M  V30 20613 H 1971.7 0.577187 -3.69519 0
M  V30 20614 H 1973.99 2.24626 -6.39179 0
M  V30 20615 H 1974.94 0.861371 -7.02841 0
M  V30 20616 H 1975.34 1.54889 -5.42835 0
M  V30 20617 N 1974.74 1.56975 -0.14025 0
M  V30 20618 C 1975.7 2.15234 0.78784 0
M  V30 20619 C 1976.7 1.09243 1.17994 0
M  V30 20620 O 1977.89 1.34916 1.10197 0
M  V30 20621 C 1975.03 2.70994 2.06821 0
M  V30 20622 H 1976.22 2.98579 0.281166 0
M  V30 20623 H 1973.77 1.55918 0.109151 0
M  V30 20624 H 1974.51 1.91297 2.6187 0
M  V30 20625 H 1974.29 3.48532 1.79633 0
M  V30 20626 H 1975.78 3.15904 2.7312 0
M  V30 20627 N 1976.22 -0.133539 1.57033 0
M  V30 20628 C 1977.13 -1.18362 2.02553 0
M  V30 20629 C 1978.15 -1.46212 0.943294 0
M  V30 20630 O 1979.32 -1.57616 1.25376 0
M  V30 20631 C 1976.39 -2.49391 2.40842 0
M  V30 20632 C 1975.45 -2.29068 3.63079 0
M  V30 20633 C 1974.68 -3.53849 3.99533 0
M  V30 20634 O 1974.9 -4.60576 3.36491 0
M  V30 20635 O 1973.84 -3.45713 4.92713 0
M  V30 20636 H 1977.66 -0.827128 2.9222 0
M  V30 20637 H 1975.25 -0.343267 1.45403 0
M  V30 20638 H 1977.13 -3.26617 2.66269 0
M  V30 20639 H 1975.81 -2.84544 1.54326 0
M  V30 20640 H 1974.71 -1.49749 3.42821 0
M  V30 20641 H 1976.05 -1.98826 4.50254 0
M  V30 20642 N 1977.7 -1.52352 -0.403298 0
M  V30 20643 C 1979.11 -1.58796 -0.981864 0
M  V30 20644 C 1979.46 -0.432029 -1.91384 0
M  V30 20645 O 1978.58 0.446835 -2.11736 0
M  V30 20646 C 1979.18 -2.87807 -1.78752 0
M  V30 20647 C 1977.74 -2.96711 -2.31602 0
M  V30 20648 C 1976.89 -2.53787 -1.11748 0
M  V30 20649 H 1979.84 -1.57638 -0.18333 0
M  V30 20650 H 1979.86 -2.73488 -2.64546 0
M  V30 20651 H 1979.37 -3.71919 -1.10896 0
M  V30 20652 H 1977.47 -2.17105 -3.02814 0
M  V30 20653 H 1977.58 -4.0107 -2.62069 0
M  V30 20654 H 1975.95 -2.07771 -1.47321 0
M  V30 20655 H 1976.73 -3.40278 -0.45449 0
M  V30 20656 N 1979.18 0.660885 -1.43074 0
M  V30 20657 C 1980.09 1.80324 -1.50068 0
M  V30 20658 C 1981.1 1.69611 -0.388331 0
M  V30 20659 O 1982.28 1.90916 -0.641321 0
M  V30 20660 C 1979.34 3.16557 -1.41394 0
M  V30 20661 C 1978.4 3.39124 -2.63236 0
M  V30 20662 C 1977.64 4.68858 -2.54967 0
M  V30 20663 O 1977.86 5.47699 -1.59318 0
M  V30 20664 O 1976.79 4.92975 -3.45339 0
M  V30 20665 H 1980.62 1.77379 -2.46516 0
M  V30 20666 H 1978.2 0.8184 -1.2499 0
M  V30 20667 H 1980.09 3.97825 -1.38971 0
M  V30 20668 H 1978.76 3.2011 -0.480768 0
M  V30 20669 H 1977.67 2.5765 -2.71233 0
M  V30 20670 H 1979 3.40413 -3.555 0
M  V30 20671 N 1980.65 1.29477 0.898527 0
M  V30 20672 C 1981.6 1.14706 2.00278 0
M  V30 20673 C 1982.57 0.040077 1.66052 0
M  V30 20674 O 1983.76 0.207808 1.89665 0
M  V30 20675 C 1980.9 0.830802 3.3495 0
M  V30 20676 C 1980.01 2.01834 3.81952 0
M  V30 20677 C 1979.14 1.64135 5.05206 0
M  V30 20678 C 1978.18 2.79464 5.44579 0
M  V30 20679 N 1977.32 2.42153 6.59019 0
M  V30 20680 H 1982.16 2.09181 2.12244 0
M  V30 20681 H 1979.7 1.04092 1.03939 0
M  V30 20682 H 1981.66 0.628119 4.12445 0
M  V30 20683 H 1980.29 -0.0770431 3.22708 0
M  V30 20684 H 1979.34 2.33269 3.00483 0
M  V30 20685 H 1980.65 2.88247 4.07081 0
M  V30 20686 H 1979.8 1.40163 5.90288 0
M  V30 20687 H 1978.54 0.748722 4.81918 0
M  V30 20688 H 1977.55 3.04117 4.58031 0
M  V30 20689 H 1978.77 3.69393 5.69847 0
M  V30 20690 H 1976.72 1.55379 6.37333 0
M  V30 20691 H 1976.64 3.221 6.8395 0
M  V30 20692 H 1977.9 2.21503 7.47366 0
M  V30 20693 N 1982.13 -1.10905 1.11972 0
M  V30 20694 C 1983.1 -2.1529 0.786324 0
M  V30 20695 C 1984.1 -1.59589 -0.196987 0
M  V30 20696 O 1985.29 -1.74177 0.0281964 0
M  V30 20697 C 1982.42 -3.40488 0.167611 0
M  V30 20698 H 1983.61 -2.46295 1.71111 0
M  V30 20699 H 1981.16 -1.26185 0.922332 0
M  V30 20700 H 1981.9 -3.15096 -0.76713 0
M  V30 20701 H 1981.68 -3.822 0.875514 0
M  V30 20702 H 1983.17 -4.17571 -0.0493303 0
M  V30 20703 N 1983.61 -0.910886 -1.2861 0
M  V30 20704 C 1985.02 -0.589499 -1.77149 0
M  V30 20705 C 1985.37 0.895128 -1.74591 0
M  V30 20706 O 1984.5 1.70016 -1.33879 0
M  V30 20707 C 1985.09 -1.06332 -3.21682 0
M  V30 20708 C 1983.65 -0.792899 -3.67954 0
M  V30 20709 C 1982.8 -1.23167 -2.48445 0
M  V30 20710 H 1985.75 -1.09245 -1.15114 0
M  V30 20711 H 1985.77 -0.403495 -3.78355 0
M  V30 20712 H 1985.28 -2.14387 -3.23512 0
M  V30 20713 H 1983.38 0.274569 -3.71587 0
M  V30 20714 H 1983.5 -1.39863 -4.5823 0
M  V30 20715 H 1981.86 -0.650459 -2.46254 0
M  V30 20716 H 1982.64 -2.32051 -2.52996 0
M  V30 20717 N 1985.09 1.42434 -0.674558 0
M  V30 20718 C 1986.05 2.29199 -0.00527063 0
M  V30 20719 C 1987.05 1.43313 0.729245 0
M  V30 20720 O 1988.24 1.64704 0.567284 0
M  V30 20721 C 1985.37 3.25805 1.0032 0
M  V30 20722 H 1986.57 2.89874 -0.768954 0
M  V30 20723 H 1984.12 1.5007 -0.436898 0
M  V30 20724 H 1984.85 2.70068 1.79538 0
M  V30 20725 H 1984.64 3.89152 0.479902 0
M  V30 20726 H 1986.13 3.90875 1.46993 0
M  V30 20727 N 1986.57 0.417871 1.51959 0
M  V30 20728 C 1987.5 -0.394222 2.30148 0
M  V30 20729 C 1988.48 -1.0384 1.34727 0
M  V30 20730 O 1989.66 -1.04575 1.63639 0
M  V30 20731 C 1986.79 -1.50639 3.1293 0
M  V30 20732 C 1985.75 -0.986759 4.1647 0
M  V30 20733 C 1985.07 -2.1932 4.8765 0
M  V30 20734 C 1986.37 -0.0347019 5.22288 0
M  V30 20735 H 1988.07 0.258228 2.98284 0
M  V30 20736 H 1985.61 0.125633 1.43451 0
M  V30 20737 H 1987.57 -2.08157 3.664 0
M  V30 20738 H 1986.29 -2.18685 2.42579 0
M  V30 20739 H 1984.95 -0.43393 3.64023 0
M  V30 20740 H 1984.6 -2.8594 4.1382 0
M  V30 20741 H 1984.3 -1.85199 5.57652 0
M  V30 20742 H 1985.82 -2.77427 5.43936 0
M  V30 20743 H 1987.23 -0.518951 5.70946 0
M  V30 20744 H 1985.63 0.218124 5.99703 0
M  V30 20745 H 1986.7 0.907947 4.76324 0
M  V30 20746 N 1988.04 -1.56898 0.148573 0
M  V30 20747 C 1989.27 -2.00974 -0.512287 0
M  V30 20748 C 1989.69 -1.02801 -1.57523 0
M  V30 20749 O 1989.05 -0.00400411 -1.813 0
M  V30 20750 C 1989.1 -3.43785 -1.08832 0
M  V30 20751 O 1988.2 -3.4862 -2.20313 0
M  V30 20752 H 1987.55 -0.652102 -0.125133 0
M  V30 20753 H 1990.08 -2.03119 0.245769 0
M  V30 20754 H 1990.09 -3.82618 -1.41659 0
M  V30 20755 H 1988.76 -4.14744 -0.309923 0
M  V30 20756 H 1987.34 -3.2163 -1.88702 0
M  V30 20757 N 1989.52 0.125209 -1.57102 0
M  V30 20758 C 1990.77 0.832627 -1.83712 0
M  V30 20759 C 1991.08 1.81336 -0.733261 0
M  V30 20760 O 1992.29 2.56651 -0.885592 0
M  V30 20761 C 1990.75 1.53143 -3.25692 0
M  V30 20762 C 1990.35 0.592004 -4.44071 0
M  V30 20763 C 1992.1 2.22435 -3.61556 0
M  V30 20764 C 1990.01 1.29368 -5.77077 0
M  V30 20765 H 1988.94 0.314685 -0.685193 0
M  V30 20766 H 1991.59 0.0853544 -1.83301 0
M  V30 20767 H 1989.97 2.32511 -3.20554 0
M  V30 20768 H 1991.14 -0.16801 -4.60494 0
M  V30 20769 H 1989.46 0.00637692 -4.164 0
M  V30 20770 H 1992.05 2.75611 -4.58195 0
M  V30 20771 H 1992.4 2.99947 -2.88683 0
M  V30 20772 H 1992.93 1.49962 -3.68451 0
M  V30 20773 H 1989.67 0.559975 -6.53104 0
M  V30 20774 H 1989.19 2.02586 -5.64552 0
M  V30 20775 H 1990.87 1.8286 -6.20622 0
M  V30 20776 N 1991 1.52564 0.395213 0
M  V30 20777 C 1991.93 1.79867 1.48897 0
M  V30 20778 C 1992.91 0.650351 1.57176 0
M  V30 20779 O 1994.1 0.897328 1.72226 0
M  V30 20780 C 1991.23 1.96192 2.86576 0
M  V30 20781 C 1990.18 3.11854 2.9314 0
M  V30 20782 C 1989.51 3.13424 4.33208 0
M  V30 20783 C 1990.81 4.51046 2.63353 0
M  V30 20784 H 1992.5 2.71457 1.26299 0
M  V30 20785 H 1990.05 1.30621 0.606145 0
M  V30 20786 H 1992 2.13875 3.63091 0
M  V30 20787 H 1990.72 1.01286 3.10498 0
M  V30 20788 H 1989.38 2.93944 2.19072 0
M  V30 20789 H 1989.03 2.16212 4.5416 0
M  V30 20790 H 1988.73 3.91117 4.38522 0
M  V30 20791 H 1990.25 3.33254 5.11639 0
M  V30 20792 H 1991.67 4.6909 3.29587 0
M  V30 20793 H 1990.07 5.3076 2.80024 0
M  V30 20794 H 1991.14 4.58187 1.58722 0
M  V30 20795 N 1992.48 -0.653289 1.43422 0
M  V30 20796 C 1993.41 -1.77779 1.51383 0
M  V30 20797 C 1994.39 -1.6606 0.368515 0
M  V30 20798 O 1995.57 -1.85157 0.585721 0
M  V30 20799 C 1992.7 -3.16206 1.43635 0
M  V30 20800 C 1991.66 -3.42688 2.56415 0
M  V30 20801 C 1990.98 -4.80915 2.3372 0
M  V30 20802 C 1992.28 -3.3744 3.98662 0
M  V30 20803 H 1993.98 -1.71374 2.45502 0
M  V30 20804 H 1991.52 -0.823062 1.1816 0
M  V30 20805 H 1993.48 -3.94627 1.47808 0
M  V30 20806 H 1992.2 -3.23341 0.460202 0
M  V30 20807 H 1990.86 -2.66638 2.51594 0
M  V30 20808 H 1990.51 -4.84726 1.34349 0
M  V30 20809 H 1990.21 -4.99594 3.09321 0
M  V30 20810 H 1991.73 -5.61594 2.39677 0
M  V30 20811 H 1993.15 -4.05798 4.0497 0
M  V30 20812 H 1991.54 -3.67656 4.74288 0
M  V30 20813 H 1992.61 -2.35624 4.23803 0
M  V30 20814 N 1993.96 -1.29952 -0.891648 0
M  V30 20815 C 1995.19 -1.21121 -1.67371 0
M  V30 20816 C 1995.59 0.229437 -1.87804 0
M  V30 20817 O 1994.94 1.16445 -1.42079 0
M  V30 20818 C 1995 -1.86197 -3.07524 0
M  V30 20819 C 1994.66 -3.35513 -3.10291 0
M  V30 20820 C 1995.66 -4.31612 -2.8984 0
M  V30 20821 C 1993.35 -3.76848 -3.321 0
M  V30 20822 C 1995.34 -5.67021 -2.91146 0
M  V30 20823 C 1993.03 -5.12377 -3.33036 0
M  V30 20824 C 1994.02 -6.07274 -3.12582 0
M  V30 20825 O 1993.71 -7.40327 -3.13322 0
M  V30 20826 H 1993.44 -0.420546 -0.529261 0
M  V30 20827 H 1996 -1.71994 -1.12283 0
M  V30 20828 H 1994.23 -1.29846 -3.64248 0
M  V30 20829 H 1995.92 -1.71578 -3.67853 0
M  V30 20830 H 1996.68 -4.01009 -2.72795 0
M  V30 20831 H 1992.56 -3.03433 -3.47058 0
M  V30 20832 H 1996.11 -6.41066 -2.751 0
M  V30 20833 H 1992 -5.42623 -3.49615 0
M  V30 20834 H 1992.77 -7.49233 -3.29533 0
M  V30 20835 N 1995.44 1.1031 -1.12559 0
M  V30 20836 C 1996.68 1.82567 -0.883005 0
M  V30 20837 C 1997.01 1.85031 0.589667 0
M  V30 20838 O 1996.29 1.3119 1.43595 0
M  V30 20839 C 1996.57 3.29171 -1.46009 0
M  V30 20840 C 1996.43 3.35032 -3.00122 0
M  V30 20841 C 1997.74 4.25591 -1.12073 0
M  V30 20842 H 1994.86 0.662829 -0.322221 0
M  V30 20843 H 1997.51 1.29276 -1.3924 0
M  V30 20844 H 1995.66 3.74684 -1.02685 0
M  V30 20845 H 1997.33 2.9799 -3.52135 0
M  V30 20846 H 1995.57 2.74892 -3.35584 0
M  V30 20847 H 1996.24 4.3827 -3.35595 0
M  V30 20848 H 1998.72 3.88318 -1.49494 0
M  V30 20849 H 1997.59 5.26528 -1.55112 0
M  V30 20850 H 1997.85 4.42088 -0.0331138 0
M  V30 20851 N 1996.91 0.917694 1.28125 0
M  V30 20852 C 1997.85 0.366394 2.26253 0
M  V30 20853 C 1998.86 -0.497338 1.55017 0
M  V30 20854 O 2000.05 -0.31158 1.7576 0
M  V30 20855 C 1997.15 -0.494558 3.35272 0
M  V30 20856 C 1996.32 0.34757 4.36017 0
M  V30 20857 C 1995.38 -0.449109 5.2428 0
M  V30 20858 O 1994.41 0.139705 5.69029 0
M  V30 20859 N 1995.61 -1.75125 5.53454 0
M  V30 20860 H 1998.37 1.20986 2.74194 0
M  V30 20861 H 1995.93 0.784058 1.41648 0
M  V30 20862 H 1997.93 -1.03436 3.91258 0
M  V30 20863 H 1996.5 -1.23875 2.87008 0
M  V30 20864 H 1995.72 1.06872 3.79437 0
M  V30 20865 H 1997 0.923647 5.00346 0
M  V30 20866 H 1996.4 -2.2521 5.18938 0
M  V30 20867 H 1994.96 -2.23778 6.12182 0
M  V30 20868 N 1998.39 -1.42074 0.682102 0
M  V30 20869 C 1999.35 -2.29193 0.0174256 0
M  V30 20870 C 2000.35 -1.43698 -0.721635 0
M  V30 20871 O 2001.54 -1.65003 -0.558542 0
M  V30 20872 C 1998.68 -3.26332 -0.985903 0
M  V30 20873 H 1999.87 -2.89462 0.784316 0
M  V30 20874 H 1997.42 -1.49836 0.44485 0
M  V30 20875 H 1998.16 -2.71016 -1.78103 0
M  V30 20876 H 1997.94 -3.89401 -0.459258 0
M  V30 20877 H 1999.43 -3.91649 -1.44918 0
M  V30 20878 N 1999.87 -0.425924 -1.51735 0
M  V30 20879 C 2001.12 0.144343 -2.01985 0
M  V30 20880 C 2001.44 1.43704 -1.31071 0
M  V30 20881 O 2000.7 1.91341 -0.410741 0
M  V30 20882 C 2001 0.421964 -3.549 0
M  V30 20883 C 2000.66 -0.78354 -4.4404 0
M  V30 20884 C 1999.33 -1.11416 -4.68124 0
M  V30 20885 C 2001.68 -1.58827 -4.9641 0
M  V30 20886 C 1999.01 -2.25041 -5.41824 0
M  V30 20887 C 2001.36 -2.71542 -5.71356 0
M  V30 20888 C 2000.02 -3.05071 -5.93707 0
M  V30 20889 H 1999.29 0.0528187 -0.739115 0
M  V30 20890 H 2001.94 -0.570784 -1.82796 0
M  V30 20891 H 2000.24 1.21885 -3.72359 0
M  V30 20892 H 2001.94 0.876435 -3.91305 0
M  V30 20893 H 1998.53 -0.515891 -4.25484 0
M  V30 20894 H 2002.72 -1.34606 -4.77698 0
M  V30 20895 H 1997.97 -2.51346 -5.57347 0
M  V30 20896 H 2002.15 -3.34275 -6.10928 0
M  V30 20897 H 1999.77 -3.93229 -6.50596 0
M  V30 20898 N 2001.35 1.56817 -0.156891 0
M  V30 20899 C 2002.28 2.14404 0.810167 0
M  V30 20900 C 2003.29 1.09595 1.20386 0
M  V30 20901 O 2004.48 1.36836 1.14622 0
M  V30 20902 C 2001.58 2.65998 2.09996 0
M  V30 20903 C 2000.75 3.95312 1.87209 0
M  V30 20904 C 1999.81 4.32116 3.00271 0
M  V30 20905 O 1998.84 5.00259 2.71532 0
M  V30 20906 N 2000.04 3.925 4.27696 0
M  V30 20907 H 2002.81 2.98009 0.317935 0
M  V30 20908 H 2000.37 1.61879 0.0263634 0
M  V30 20909 H 2002.36 2.87626 2.84699 0
M  V30 20910 H 2000.93 1.87062 2.50453 0
M  V30 20911 H 2000.15 3.82209 0.964891 0
M  V30 20912 H 2001.44 4.79795 1.69335 0
M  V30 20913 H 2000.84 3.37612 4.5391 0
M  V30 20914 H 1999.39 4.19159 4.99148 0
M  V30 20915 N 2002.83 -0.116876 1.57166 0
M  V30 20916 C 2004.07 -0.825509 1.85238 0
M  V30 20917 C 2004.4 -1.79427 0.742936 0
M  V30 20918 O 2003.68 -1.92873 -0.251043 0
M  V30 20919 C 2003.96 -1.57353 3.23901 0
M  V30 20920 C 2003.82 -0.624227 4.45447 0
M  V30 20921 C 2005.13 -2.52922 3.60164 0
M  V30 20922 H 2002.25 -0.298653 0.673777 0
M  V30 20923 H 2004.9 -0.0897002 1.89788 0
M  V30 20924 H 2003.05 -2.20078 3.20153 0
M  V30 20925 H 2004.72 -0.00566556 4.613 0
M  V30 20926 H 2002.96 0.0640779 4.33753 0
M  V30 20927 H 2003.63 -1.1843 5.39146 0
M  V30 20928 H 2006.11 -2.00302 3.64717 0
M  V30 20929 H 2004.98 -3.02291 4.58161 0
M  V30 20930 H 2005.24 -3.35684 2.87695 0
M  V30 20931 N 2004.3 -1.52772 -0.387116 0
M  V30 20932 C 2005.55 -1.67576 -1.12973 0
M  V30 20933 C 2005.87 -0.419122 -1.90443 0
M  V30 20934 O 2005.14 0.566514 -1.8753 0
M  V30 20935 H 2003.72 -0.617716 -0.420043 0
M  V30 20936 H 2006.38 -1.89892 -0.43896 0
M  V30 20937 H 2005.48 -2.52704 -1.83158 0
M  V30 20938 N 2005.78 0.645673 -1.43767 0
M  V30 20939 C 2006.71 1.77057 -1.43966 0
M  V30 20940 C 2007.69 1.59805 -0.300185 0
M  V30 20941 O 2008.88 1.81886 -0.494937 0
M  V30 20942 C 2006 3.14453 -1.25845 0
M  V30 20943 C 2005.05 3.50389 -2.43166 0
M  V30 20944 S 2005.88 3.4951 -4.05713 0
M  V30 20945 C 2007.04 4.8955 -3.89989 0
M  V30 20946 H 2007.27 1.76619 -2.39151 0
M  V30 20947 H 2004.8 0.818994 -1.30889 0
M  V30 20948 H 2006.76 3.93747 -1.16077 0
M  V30 20949 H 2005.42 3.12446 -0.321954 0
M  V30 20950 H 2004.62 4.50332 -2.26312 0
M  V30 20951 H 2004.22 2.78525 -2.49599 0
M  V30 20952 H 2006.51 5.78405 -3.5278 0
M  V30 20953 H 2007.45 5.11457 -4.89711 0
M  V30 20954 H 2007.86 4.6344 -3.2231 0
M  V30 20955 N 2007.26 1.30423 0.884744 0
M  V30 20956 C 2008.67 1.17357 1.45204 0
M  V30 20957 C 2009.02 -0.225645 1.94898 0
M  V30 20958 O 2008.15 -1.12234 1.8502 0
M  V30 20959 C 2008.74 2.12438 2.63923 0
M  V30 20960 C 2007.3 2.03351 3.16742 0
M  V30 20961 C 2006.45 2.02508 1.89436 0
M  V30 20962 H 2009.4 1.42689 0.694659 0
M  V30 20963 H 2009.42 1.70535 3.40144 0
M  V30 20964 H 2008.93 3.14267 2.27724 0
M  V30 20965 H 2007.03 1.04665 3.57597 0
M  V30 20966 H 2007.15 2.91748 3.80026 0
M  V30 20967 H 2005.51 1.47312 2.07777 0
M  V30 20968 H 2006.29 3.06066 1.55494 0
M  V30 20969 N 2008.74 -1.09711 1.13142 0
M  V30 20970 C 2010.15 -1.63323 0.904565 0
M  V30 20971 C 2010.5 -1.88052 -0.559546 0
M  V30 20972 O 2009.62 -1.62804 -1.42562 0
M  V30 20973 C 2010.22 -2.96707 1.63556 0
M  V30 20974 C 2008.78 -3.47156 1.45465 0
M  V30 20975 C 2007.93 -2.21625 1.66667 0
M  V30 20976 H 2010.88 -0.931125 1.28514 0
M  V30 20977 H 2010.9 -3.64525 1.09094 0
M  V30 20978 H 2010.41 -2.78677 2.70113 0
M  V30 20979 H 2008.51 -3.70315 0.411972 0
M  V30 20980 H 2008.62 -4.24784 2.21576 0
M  V30 20981 H 2006.99 -2.30136 1.0913 0
M  V30 20982 H 2007.77 -2.06118 2.74537 0
M  V30 20983 N 2010.22 -0.924476 -1.27637 0
M  V30 20984 C 2011.63 -0.608255 -1.76514 0
M  V30 20985 C 2011.98 0.87656 -1.7553 0
M  V30 20986 O 2011.1 1.68587 -1.35674 0
M  V30 20987 C 2011.7 -1.09738 -3.20536 0
M  V30 20988 C 2010.26 -0.831881 -3.67092 0
M  V30 20989 C 2009.4 -1.25795 -2.47125 0
M  V30 20990 H 2012.36 -1.1046 -1.13949 0
M  V30 20991 H 2012.38 -0.443602 -3.77905 0
M  V30 20992 H 2011.89 -2.17806 -3.21219 0
M  V30 20993 H 2009.99 0.235141 -3.71857 0
M  V30 20994 H 2010.1 -1.44716 -4.56721 0
M  V30 20995 H 2008.47 -0.676541 -2.4555 0
M  V30 20996 H 2009.25 -2.34721 -2.50521 0
M  V30 20997 N 2011.69 1.41711 -0.689627 0
M  V30 20998 C 2012.94 2.00925 -0.217655 0
M  V30 20999 C 2013.26 1.5487 1.18491 0
M  V30 21000 O 2012.53 0.776746 1.79843 0
M  V30 21001 H 2011.11 0.742971 -0.0774783 0
M  V30 21002 H 2013.78 1.73421 -0.889456 0
M  V30 21003 H 2012.87 3.11248 -0.230451 0
M  V30 21004 N 2013.17 0.433965 1.51507 0
M  V30 21005 C 2014.41 -0.132843 2.03968 0
M  V30 21006 C 2014.78 -1.40254 1.31122 0
M  V30 21007 O 2015.98 -2.04937 1.73937 0
M  V30 21008 C 2014.25 -0.349825 3.55684 0
M  V30 21009 S 2015.81 -0.880522 4.29875 0
M  V30 21010 H 2012.63 -0.0334314 0.710214 0
M  V30 21011 H 2015.23 0.592595 1.86302 0
M  V30 21012 H 2013.93 0.580659 4.06271 0
M  V30 21013 H 2013.46 -1.10244 3.77637 0
M  V30 21014 H 2015.48 -2.15847 4.46794 0
M  V30 21015 N 2014.65 -1.56732 0.165206 0
M  V30 21016 C 2015.89 -1.98591 -0.483841 0
M  V30 21017 C 2016.25 -1.04869 -1.6083 0
M  V30 21018 O 2017.46 -1.35844 -2.31948 0
M  V30 21019 C 2015.73 -3.44262 -0.960121 0
M  V30 21020 S 2017.29 -4.08149 -1.61121 0
M  V30 21021 H 2014.1 -0.693711 -0.155842 0
M  V30 21022 H 2016.71 -1.93747 0.261223 0
M  V30 21023 H 2015.41 -4.1019 -0.131229 0
M  V30 21024 H 2014.94 -3.52859 -1.73937 0
M  V30 21025 H 2016.96 -4.02695 -2.89915 0
M  V30 21026 N 2016.13 0.10854 -1.57226 0
M  V30 21027 C 2017.54 0.462379 -1.52755 0
M  V30 21028 C 2017.74 1.81276 -0.87985 0
M  V30 21029 O 2016.8 2.48151 -0.466628 0
M  V30 21030 C 2018.11 0.437241 -2.97504 0
M  V30 21031 C 2019.66 0.520052 -3.08649 0
M  V30 21032 C 2020.14 0.525198 -4.54979 0
M  V30 21033 N 2021.63 0.586339 -4.59474 0
M  V30 21034 C 2022.36 0.61194 -5.70125 0
M  V30 21035 N 2021.86 0.594556 -6.90244 0
M  V30 21036 N 2023.65 0.655738 -5.58262 0
M  V30 21037 H 2015.8 -0.776135 -1.97712 0
M  V30 21038 H 2018.07 -0.287457 -0.903367 0
M  V30 21039 H 2017.77 -0.487552 -3.48304 0
M  V30 21040 H 2017.65 1.2612 -3.55491 0
M  V30 21041 H 2020.03 1.43526 -2.57845 0
M  V30 21042 H 2020.11 -0.331795 -2.53639 0
M  V30 21043 H 2019.76 -0.386013 -5.06431 0
M  V30 21044 H 2019.69 1.39407 -5.07812 0
M  V30 21045 H 2022.18 0.605514 -3.73017 0
M  V30 21046 H 2022.49 0.617002 -7.70333 0
M  V30 21047 H 2020.84 0.561814 -6.92726 0
M  V30 21048 H 2024.03 0.666756 -4.63327 0
M  V30 21049 H 2024.2 0.672222 -6.44504 0
M  V30 21050 N 2017.61 1.52975 0.379009 0
M  V30 21051 C 2018.85 1.68172 1.12082 0
M  V30 21052 C 2019.18 0.429215 1.90218 0
M  V30 21053 O 2018.45 -0.556561 1.87828 0
M  V30 21054 H 2017.03 0.619935 0.416761 0
M  V30 21055 H 2019.69 1.90123 0.428883 0
M  V30 21056 H 2018.78 2.53672 1.81815 0
M  V30 21057 N 2019.08 -0.63804 1.44107 0
M  V30 21058 C 2020.5 -1.21954 1.41365 0
M  V30 21059 C 2020.85 -1.95799 0.125451 0
M  V30 21060 O 2019.97 -2.02066 -0.774492 0
M  V30 21061 C 2020.57 -2.21819 2.56089 0
M  V30 21062 C 2019.13 -2.75412 2.56564 0
M  V30 21063 C 2018.27 -1.50296 2.33037 0
M  V30 21064 H 2021.22 -0.429131 1.52788 0
M  V30 21065 H 2021.24 -3.0429 2.28447 0
M  V30 21066 H 2020.76 -1.68045 3.49832 0
M  V30 21067 H 2018.86 -3.33207 1.66744 0
M  V30 21068 H 2018.97 -3.21922 3.54828 0
M  V30 21069 H 2017.33 -1.78184 1.81996 0
M  V30 21070 H 2018.12 -0.984346 3.28885 0
M  V30 21071 N 2020.56 -1.3089 -0.877815 0
M  V30 21072 C 2021.49 -1.20459 -2.0003 0
M  V30 21073 C 2022.47 -0.0935765 -1.69842 0
M  V30 21074 O 2023.66 -0.276838 -1.92217 0
M  V30 21075 C 2020.79 -0.903041 -3.35354 0
M  V30 21076 C 2019.74 -1.97277 -3.79823 0
M  V30 21077 C 2019.07 -1.52407 -5.12519 0
M  V30 21078 C 2020.37 -3.38484 -3.97776 0
M  V30 21079 H 2022.06 -2.14367 -2.09014 0
M  V30 21080 H 2019.61 -1.03203 -1.00425 0
M  V30 21081 H 2021.56 -0.816699 -4.1341 0
M  V30 21082 H 2020.29 0.0717143 -3.26521 0
M  V30 21083 H 2018.94 -2.04887 -3.04001 0
M  V30 21084 H 2018.59 -0.537386 -5.00121 0
M  V30 21085 H 2018.29 -2.23964 -5.43244 0
M  V30 21086 H 2019.82 -1.45165 -5.93093 0
M  V30 21087 H 2021.23 -3.33593 -4.6625 0
M  V30 21088 H 2019.63 -4.0819 -4.39887 0
M  V30 21089 H 2020.7 -3.79847 -3.01403 0
M  V30 21090 N 2022.04 1.0911 -1.13723 0
M  V30 21091 C 2023.46 1.33403 -0.87611 0
M  V30 21092 C 2023.66 1.95536 0.486607 0
M  V30 21093 O 2022.71 2.2038 1.23243 0
M  V30 21094 C 2024.03 2.24255 -2.00325 0
M  V30 21095 C 2025.57 2.37755 -2.03572 0
M  V30 21096 C 2026.05 3.31944 -3.15558 0
M  V30 21097 N 2027.54 3.39519 -3.15089 0
M  V30 21098 C 2028.27 4.12409 -3.9838 0
M  V30 21099 N 2027.77 4.88068 -4.91692 0
M  V30 21100 N 2029.56 4.08167 -3.86467 0
M  V30 21101 H 2021.71 0.671565 -2.01504 0
M  V30 21102 H 2023.98 0.358401 -0.877641 0
M  V30 21103 H 2023.68 1.85834 -2.98595 0
M  V30 21104 H 2023.56 3.24667 -1.92019 0
M  V30 21105 H 2025.94 2.75438 -1.05913 0
M  V30 21106 H 2026.03 1.3711 -2.1595 0
M  V30 21107 H 2025.67 2.94984 -4.13458 0
M  V30 21108 H 2025.6 4.32501 -3.00418 0
M  V30 21109 H 2028.09 2.85573 -2.475 0
M  V30 21110 H 2028.4 5.41127 -5.51726 0
M  V30 21111 H 2026.75 4.87146 -4.95695 0
M  V30 21112 H 2029.94 3.48161 -3.12892 0
M  V30 21113 H 2030.11 4.64711 -4.51606 0
M  V30 21114 N 2023.52 0.931232 1.27145 0
M  V30 21115 C 2024.93 0.617607 1.76189 0
M  V30 21116 C 2025.28 -0.867239 1.75993 0
M  V30 21117 O 2024.41 -1.67865 1.36567 0
M  V30 21118 C 2025 1.11436 3.19949 0
M  V30 21119 C 2023.56 0.851337 3.66646 0
M  V30 21120 C 2022.71 1.27104 2.46454 0
M  V30 21121 H 2025.66 1.11062 1.13362 0
M  V30 21122 H 2025.68 0.463637 3.77665 0
M  V30 21123 H 2025.19 2.19507 3.2006 0
M  V30 21124 H 2023.29 -0.215418 3.71977 0
M  V30 21125 H 2023.4 1.47136 4.55947 0
M  V30 21126 H 2021.77 0.689554 2.45188 0
M  V30 21127 H 2022.55 2.36047 2.49273 0
M  V30 21128 N 2025 -1.41343 0.697132 0
M  V30 21129 C 2025.94 -2.30777 0.0327941 0
M  V30 21130 C 2026.91 -1.47192 -0.769652 0
M  V30 21131 O 2028.1 -1.75976 -0.737366 0
M  V30 21132 C 2025.24 -3.33252 -0.896488 0
M  V30 21133 C 2024.35 -4.31915 -0.0854899 0
M  V30 21134 C 2023.49 -5.2146 -1.01256 0
M  V30 21135 C 2022.53 -6.11791 -0.194558 0
M  V30 21136 N 2021.66 -6.93813 -1.07551 0
M  V30 21137 H 2026.5 -2.87027 0.801203 0
M  V30 21138 H 2024.04 -1.41363 0.406815 0
M  V30 21139 H 2026 -3.91216 -1.44933 0
M  V30 21140 H 2024.63 -2.78548 -1.63128 0
M  V30 21141 H 2023.68 -3.75886 0.58429 0
M  V30 21142 H 2024.99 -4.95774 0.548612 0
M  V30 21143 H 2024.15 -5.84266 -1.63457 0
M  V30 21144 H 2022.89 -4.57832 -1.68051 0
M  V30 21145 H 2021.89 -5.48032 0.440518 0
M  V30 21146 H 2023.12 -6.77474 0.469626 0
M  V30 21147 H 2021.06 -6.32792 -1.72946 0
M  V30 21148 H 2020.98 -7.54364 -0.497018 0
M  V30 21149 H 2022.25 -7.61086 -1.68429 0
M  V30 21150 N 2026.48 -0.441993 -1.51275 0
M  V30 21151 C 2027.7 0.121451 -2.06543 0
M  V30 21152 C 2028.12 1.36058 -1.30896 0
M  V30 21153 O 2027.48 1.78713 -0.369834 0
M  V30 21154 C 2027.53 0.438983 -3.58825 0
M  V30 21155 O 2027.25 -0.750969 -4.31616 0
M  V30 21156 C 2028.75 1.05259 -4.30622 0
M  V30 21157 H 2025.97 0.00586064 -0.670974 0
M  V30 21158 H 2028.51 -0.622415 -1.94798 0
M  V30 21159 H 2026.67 1.13275 -3.70469 0
M  V30 21160 H 2027.08 -0.478024 -5.22317 0
M  V30 21161 H 2028.56 1.22474 -5.38242 0
M  V30 21162 H 2029.03 2.03489 -3.89216 0
M  V30 21163 H 2029.64 0.398068 -4.23433 0
M  V30 21164 N 2027.95 1.56642 -0.173515 0
M  V30 21165 C 2028.88 2.21076 0.751509 0
M  V30 21166 C 2029.86 1.16706 1.23749 0
M  V30 21167 O 2031.05 1.45142 1.29025 0
M  V30 21168 C 2028.18 2.85323 1.9801 0
M  V30 21169 C 2027.13 3.95751 1.62989 0
M  V30 21170 C 2026.46 4.47058 2.93332 0
M  V30 21171 C 2027.76 5.15234 0.856231 0
M  V30 21172 H 2029.45 2.98631 0.21442 0
M  V30 21173 H 2027 1.4364 0.101692 0
M  V30 21174 H 2028.95 3.29075 2.63226 0
M  V30 21175 H 2027.68 2.0514 2.54136 0
M  V30 21176 H 2026.34 3.52658 1.00141 0
M  V30 21177 H 2025.98 3.63663 3.47503 0
M  V30 21178 H 2025.68 5.21556 2.70652 0
M  V30 21179 H 2027.21 4.93497 3.59573 0
M  V30 21180 H 2028.62 5.55665 1.41102 0
M  V30 21181 H 2027.02 5.95663 0.728389 0
M  V30 21182 H 2028.09 4.84677 -0.147009 0
M  V30 21183 N 2029.43 -0.1002 1.57281 0
M  V30 21184 C 2030.36 -1.12278 2.04734 0
M  V30 21185 C 2031.34 -1.42079 0.935281 0
M  V30 21186 O 2032.53 -1.52197 1.20622 0
M  V30 21187 C 2029.66 -2.44402 2.46748 0
M  V30 21188 C 2028.61 -2.29021 3.61571 0
M  V30 21189 C 2027.94 -3.66276 3.89545 0
M  V30 21190 C 2029.24 -1.73501 4.9264 0
M  V30 21191 H 2030.93 -0.728019 2.90414 0
M  V30 21192 H 2028.48 -0.348753 1.39713 0
M  V30 21193 H 2030.43 -3.16206 2.78553 0
M  V30 21194 H 2029.15 -2.85804 1.58061 0
M  V30 21195 H 2027.81 -1.59664 3.30005 0
M  V30 21196 H 2027.46 -4.05197 2.98034 0
M  V30 21197 H 2027.16 -3.56833 4.66845 0
M  V30 21198 H 2028.69 -4.39555 4.2382 0
M  V30 21199 H 2030.1 -2.35141 5.22859 0
M  V30 21200 H 2028.5 -1.7483 5.74068 0
M  V30 21201 H 2029.57 -0.69403 4.79908 0
M  V30 21202 N 2030.91 -1.53174 -0.370891 0
M  V30 21203 C 2031.84 -1.82213 -1.46017 0
M  V30 21204 C 2032.82 -0.675274 -1.56122 0
M  V30 21205 O 2034.01 -0.924614 -1.70776 0
M  V30 21206 C 2031.14 -2.00727 -2.83419 0
M  V30 21207 C 2030.09 -3.16478 -2.88141 0
M  V30 21208 C 2029.42 -3.20276 -4.28167 0
M  V30 21209 C 2030.72 -4.55179 -2.56143 0
M  V30 21210 H 2032.41 -2.73432 -1.21965 0
M  V30 21211 H 2029.96 -1.31569 -0.585288 0
M  V30 21212 H 2031.91 -2.19625 -3.59643 0
M  V30 21213 H 2030.63 -1.06213 -3.08847 0
M  V30 21214 H 2029.29 -2.97392 -2.14367 0
M  V30 21215 H 2028.94 -2.2341 -4.50663 0
M  V30 21216 H 2028.64 -3.98044 -4.32244 0
M  V30 21217 H 2030.16 -3.41352 -5.06272 0
M  V30 21218 H 2031.58 -4.74274 -3.22082 0
M  V30 21219 H 2029.97 -5.35148 -2.71544 0
M  V30 21220 H 2031.04 -4.60654 -1.51412 0
M  V30 21221 N 2032.39 0.630389 -1.44443 0
M  V30 21222 C 2033.62 1.41712 -1.50749 0
M  V30 21223 C 2034.03 1.88334 -0.132593 0
M  V30 21224 O 2033.39 1.60878 0.861649 0
M  V30 21225 C 2033.44 2.63694 -2.47281 0
M  V30 21226 O 2033.16 2.19016 -3.79425 0
M  V30 21227 C 2034.66 3.56813 -2.63058 0
M  V30 21228 H 2031.88 0.43458 -0.511255 0
M  V30 21229 H 2034.42 0.770878 -1.89414 0
M  V30 21230 H 2032.58 3.24409 -2.11749 0
M  V30 21231 H 2032.99 2.98104 -4.31549 0
M  V30 21232 H 2034.47 4.39008 -3.34628 0
M  V30 21233 H 2034.94 4.05669 -1.68313 0
M  V30 21234 H 2035.55 3.01966 -2.99494 0
M  V30 21235 N 2033.87 1.31354 0.870861 0
M  V30 21236 C 2035.09 1.24082 1.66188 0
M  V30 21237 C 2035.52 -0.190886 1.87129 0
M  V30 21238 O 2034.87 -1.13669 1.41241 0
M  V30 21239 C 2034.92 1.98926 3.00767 0
M  V30 21240 O 2034.03 1.32599 3.90501 0
M  V30 21241 H 2033.37 0.428443 0.50728 0
M  V30 21242 H 2035.9 1.73408 1.08586 0
M  V30 21243 H 2035.91 2.08487 3.5071 0
M  V30 21244 H 2034.58 3.03044 2.84846 0
M  V30 21245 H 2033.16 1.31483 3.48951 0
M  V30 21246 N 2035.34 -1.08505 1.143 0
M  V30 21247 C 2036.57 -1.85155 0.934475 0
M  V30 21248 C 2036.99 -1.81002 -0.511866 0
M  V30 21249 O 2036.35 -1.19437 -1.36398 0
M  V30 21250 C 2036.4 -3.30656 1.43871 0
M  V30 21251 O 2035.5 -4.07557 0.630143 0
M  V30 21252 H 2034.84 -0.573775 0.334183 0
M  V30 21253 H 2037.37 -1.36959 1.51998 0
M  V30 21254 H 2037.38 -3.815 1.44644 0
M  V30 21255 H 2036.06 -3.32995 2.49173 0
M  V30 21256 H 2034.64 -3.66441 0.691067 0
M  V30 21257 N 2036.82 -0.937962 -1.26649 0
M  V30 21258 C 2037.73 -0.451023 -2.30224 0
M  V30 21259 C 2038.75 0.473402 -1.67436 0
M  V30 21260 O 2039.92 0.353715 -1.9827 0
M  V30 21261 C 2036.99 0.278943 -3.45576 0
M  V30 21262 C 2036.05 -0.681649 -4.23854 0
M  V30 21263 C 2035.28 0.0135756 -5.33698 0
M  V30 21264 O 2035.51 1.2311 -5.56956 0
M  V30 21265 O 2034.44 -0.663486 -5.98232 0
M  V30 21266 H 2038.27 -1.31129 -2.73932 0
M  V30 21267 H 2035.85 -0.703717 -1.31788 0
M  V30 21268 H 2037.73 0.690262 -4.15708 0
M  V30 21269 H 2036.41 1.11465 -3.03903 0
M  V30 21270 H 2035.31 -1.14285 -3.56216 0
M  V30 21271 H 2036.65 -1.48488 -4.69268 0
M  V30 21272 N 2038.3 1.40971 -0.704618 0
M  V30 21273 C 2039.55 2.00309 -0.236478 0
M  V30 21274 C 2039.86 1.56482 1.17358 0
M  V30 21275 O 2041.07 2.08442 1.73966 0
M  V30 21276 C 2039.52 3.57974 -0.371877 0
M  V30 21277 C 2039.13 4.10779 -1.78788 0
M  V30 21278 C 2040.88 4.24485 0.0360284 0
M  V30 21279 C 2038.78 5.60909 -1.87445 0
M  V30 21280 H 2037.71 0.749233 -0.0846557 0
M  V30 21281 H 2040.36 1.61342 -0.874125 0
M  V30 21282 H 2038.75 3.94587 0.334172 0
M  V30 21283 H 2039.92 3.85565 -2.52342 0
M  V30 21284 H 2038.23 3.56826 -2.14626 0
M  V30 21285 H 2040.83 5.34699 -0.00808813 0
M  V30 21286 H 2041.17 4.02149 1.07621 0
M  V30 21287 H 2041.71 3.92938 -0.620069 0
M  V30 21288 H 2038.45 5.88084 -2.89546 0
M  V30 21289 H 2037.97 5.88021 -1.18287 0
M  V30 21290 H 2039.65 6.25831 -1.6415 0
M  V30 21291 N 2039.78 0.45001 1.51039 0
M  V30 21292 C 2041.03 -0.11219 2.02189 0
M  V30 21293 C 2041.35 -1.416 1.3334 0
M  V30 21294 O 2040.61 -1.90663 0.44113 0
M  V30 21295 C 2040.91 -0.365449 3.55527 0
M  V30 21296 C 2040.57 0.854084 4.42737 0
M  V30 21297 C 2039.24 1.1885 4.66292 0
M  V30 21298 C 2041.59 1.66705 4.93821 0
M  V30 21299 C 2038.92 2.33632 5.38176 0
M  V30 21300 C 2041.27 2.80597 5.66964 0
M  V30 21301 C 2039.93 3.14478 5.88778 0
M  V30 21302 H 2039.2 -0.0410534 0.739862 0
M  V30 21303 H 2041.85 0.599793 1.81865 0
M  V30 21304 H 2040.15 -1.15946 3.74251 0
M  V30 21305 H 2041.85 -0.81407 3.9265 0
M  V30 21306 H 2038.44 0.583517 4.24609 0
M  V30 21307 H 2042.62 1.42189 4.75496 0
M  V30 21308 H 2037.88 2.60181 5.53277 0
M  V30 21309 H 2042.05 3.43952 6.05533 0
M  V30 21310 H 2039.68 4.0353 6.44257 0
M  V30 21311 N 2041.26 -1.56548 0.18182 0
M  V30 21312 C 2042.19 -2.21471 -0.739774 0
M  V30 21313 C 2043.17 -1.17361 -1.23128 0
M  V30 21314 O 2044.35 -1.45825 -1.28253 0
M  V30 21315 C 2041.48 -2.86369 -1.96494 0
M  V30 21316 C 2040.44 -3.96609 -1.60888 0
M  V30 21317 C 2039.76 -4.48607 -2.90957 0
M  V30 21318 C 2041.06 -5.15681 -0.828895 0
M  V30 21319 H 2042.76 -2.98741 -0.19858 0
M  V30 21320 H 2040.3 -1.43692 -0.0940725 0
M  V30 21321 H 2042.26 -3.30466 -2.61477 0
M  V30 21322 H 2040.98 -2.06485 -2.53045 0
M  V30 21323 H 2039.64 -3.53184 -0.982694 0
M  V30 21324 H 2039.29 -3.65501 -3.45569 0
M  V30 21325 H 2038.99 -5.22984 -2.67882 0
M  V30 21326 H 2040.51 -4.95397 -3.56951 0
M  V30 21327 H 2041.92 -5.56405 -1.38153 0
M  V30 21328 H 2040.32 -5.96041 -0.696789 0
M  V30 21329 H 2041.39 -4.84592 0.172711 0
M  V30 21330 N 2042.73 0.0918577 -1.57332 0
M  V30 21331 C 2043.66 1.11191 -2.05326 0
M  V30 21332 C 2044.65 1.41581 -0.942802 0
M  V30 21333 O 2045.83 1.51555 -1.21428 0
M  V30 21334 C 2042.96 2.4309 -2.48041 0
M  V30 21335 C 2041.91 2.271 -3.6278 0
M  V30 21336 C 2041.24 3.64205 -3.91482 0
M  V30 21337 C 2042.54 1.70886 -4.93554 0
M  V30 21338 H 2044.23 0.712608 -2.90796 0
M  V30 21339 H 2041.78 0.341338 -1.39896 0
M  V30 21340 H 2043.73 3.14724 -2.80226 0
M  V30 21341 H 2042.46 2.84962 -1.59575 0
M  V30 21342 H 2041.12 1.57911 -3.30847 0
M  V30 21343 H 2040.76 4.03611 -3.00179 0
M  V30 21344 H 2040.46 3.54352 -4.68731 0
M  V30 21345 H 2041.99 4.37302 -4.26145 0
M  V30 21346 H 2043.4 2.32364 -5.24099 0
M  V30 21347 H 2041.8 1.71783 -5.74987 0
M  V30 21348 H 2042.87 0.668569 -4.80269 0
M  V30 21349 N 2044.21 1.53368 0.362763 0
M  V30 21350 C 2045.49 1.60294 1.12095 0
M  V30 21351 C 2045.87 0.412218 2.07036 0
M  V30 21352 O 2045.22 -0.597284 2.20556 0
M  V30 21353 C 2045.43 2.95458 1.85757 0
M  V30 21354 C 2046.78 3.50135 2.40189 0
M  V30 21355 O 2047.8 2.97506 1.9588 0
M  V30 21356 O 2046.66 4.42146 3.212 0
M  V30 21357 H 2043.75 0.647572 0.514373 0
M  V30 21358 H 2046.3 1.65711 0.3658 0
M  V30 21359 H 2045.07 3.73561 1.16482 0
M  V30 21360 H 2044.69 2.93545 2.68174 0
M  V30 21361 N 2045.69 -0.62272 1.44776 0
M  V30 21362 C 2046.6 -1.76282 1.54796 0
M  V30 21363 C 2047.62 -1.68522 0.433164 0
M  V30 21364 O 2048.79 -1.89149 0.691713 0
M  V30 21365 C 2045.86 -3.12697 1.49737 0
M  V30 21366 C 2044.92 -3.32026 2.72135 0
M  V30 21367 C 2044.15 -4.61933 2.67308 0
M  V30 21368 O 2044.37 -5.43282 1.73783 0
M  V30 21369 O 2043.31 -4.83646 3.58288 0
M  V30 21370 H 2047.13 -1.70781 2.51133 0
M  V30 21371 H 2044.72 -0.784974 1.27116 0
M  V30 21372 H 2046.6 -3.94001 1.4947 0
M  V30 21373 H 2045.28 -3.18723 0.565471 0
M  V30 21374 H 2044.18 -2.50368 2.77969 0
M  V30 21375 H 2045.52 -3.30868 3.644 0
M  V30 21376 N 2047.17 -1.31814 -0.863883 0
M  V30 21377 C 2048.45 -1.12477 -1.60026 0
M  V30 21378 C 2048.83 0.318288 -2.08687 0
M  V30 21379 O 2048.17 1.31341 -1.86981 0
M  V30 21380 C 2048.38 -2.14432 -2.75355 0
M  V30 21381 C 2049.73 -2.47276 -3.45166 0
M  V30 21382 O 2050.76 -2.12906 -2.85569 0
M  V30 21383 O 2049.61 -3.06158 -4.52691 0
M  V30 21384 H 2046.71 -0.433423 -0.704325 0
M  V30 21385 H 2049.25 -1.43313 -0.908815 0
M  V30 21386 H 2048.03 -3.11472 -2.36856 0
M  V30 21387 H 2047.65 -1.84536 -3.52182 0
M  V30 21388 N 2048.65 1.07897 -1.14873 0
M  V30 21389 C 2049.89 1.81986 -0.930623 0
M  V30 21390 C 2050.25 1.84454 0.532995 0
M  V30 21391 O 2051.45 2.54357 0.869239 0
M  V30 21392 C 2049.72 3.23403 -1.52135 0
M  V30 21393 S 2051.28 4.14306 -1.44555 0
M  V30 21394 H 2048.1 0.627103 -0.335056 0
M  V30 21395 H 2050.7 1.29657 -1.4632 0
M  V30 21396 H 2049.41 3.19192 -2.57962 0
M  V30 21397 H 2048.94 3.80807 -0.987396 0
M  V30 21398 H 2050.95 4.94293 -0.434626 0
M  V30 21399 N 2050.12 0.944665 1.2615 0
M  V30 21400 C 2051.37 0.594973 1.93876 0
M  V30 21401 C 2051.7 -0.864305 1.73906 0
M  V30 21402 O 2050.98 -1.61882 1.07817 0
M  V30 21403 C 2051.26 0.9423 3.47552 0
M  V30 21404 C 2051.11 2.45658 3.76792 0
M  V30 21405 C 2052.43 0.460204 4.37687 0
M  V30 21406 H 2049.55 0.217629 0.704135 0
M  V30 21407 H 2052.19 1.17952 1.48954 0
M  V30 21408 H 2050.34 0.444863 3.85945 0
M  V30 21409 H 2052.02 3.02701 3.48095 0
M  V30 21410 H 2050.26 2.89856 3.22747 0
M  V30 21411 H 2050.93 2.65011 4.84224 0
M  V30 21412 H 2053.41 0.886761 4.06541 0
M  V30 21413 H 2052.28 0.732019 5.43997 0
M  V30 21414 H 2052.54 -0.639853 4.37445 0
M  V30 21415 N 2051.6 -1.40596 0.712085 0
M  V30 21416 C 2052.55 -2.27975 0.0337791 0
M  V30 21417 C 2053.54 -1.43074 -0.736121 0
M  V30 21418 O 2054.73 -1.66197 -0.608897 0
M  V30 21419 C 2051.86 -3.31568 -0.889801 0
M  V30 21420 C 2050.94 -4.23943 -0.115273 0
M  V30 21421 N 2051.33 -4.97735 0.899639 0
M  V30 21422 C 2049.63 -4.44638 -0.348346 0
M  V30 21423 C 2050.33 -5.65465 1.36472 0
M  V30 21424 N 2049.31 -5.39235 0.687525 0
M  V30 21425 H 2053.11 -2.82469 0.811689 0
M  V30 21426 H 2050.63 -1.53005 0.544362 0
M  V30 21427 H 2052.62 -3.93009 -1.39103 0
M  V30 21428 H 2051.28 -2.78634 -1.66713 0
M  V30 21429 H 2052.29 -5.01823 1.28038 0
M  V30 21430 H 2048.97 -4.02686 -1.10227 0
M  V30 21431 H 2050.36 -6.3459 2.20783 0
M  V30 21432 N 2053.08 -0.458013 -1.50798 0
M  V30 21433 C 2054.31 0.0993936 -2.06361 0
M  V30 21434 C 2054.72 1.35212 -1.32341 0
M  V30 21435 O 2054.06 1.79677 -0.382345 0
M  V30 21436 C 2054.12 0.46649 -3.56461 0
M  V30 21437 C 2053.79 -0.682355 -4.51877 0
M  V30 21438 C 2054.78 -1.56059 -4.95925 0
M  V30 21439 C 2052.47 -0.868966 -4.94726 0
M  V30 21440 C 2054.46 -2.60996 -5.81515 0
M  V30 21441 C 2052.15 -1.92158 -5.80102 0
M  V30 21442 C 2053.15 -2.79044 -6.23397 0
M  V30 21443 O 2052.84 -3.82495 -7.07073 0
M  V30 21444 H 2052.57 0.00211436 -0.675997 0
M  V30 21445 H 2055.12 -0.64197 -1.9511 0
M  V30 21446 H 2053.35 1.26086 -3.65567 0
M  V30 21447 H 2055.04 0.957452 -3.94446 0
M  V30 21448 H 2055.81 -1.42805 -4.635 0
M  V30 21449 H 2051.69 -0.202186 -4.60556 0
M  V30 21450 H 2055.23 -3.28845 -6.15229 0
M  V30 21451 H 2051.13 -2.05424 -6.11941 0
M  V30 21452 H 2051.9 -3.79325 -7.25296 0
M  V30 21453 N 2054.56 1.56449 -0.190119 0
M  V30 21454 C 2055.97 1.83879 0.323353 0
M  V30 21455 C 2056.32 1.11062 1.6174 0
M  V30 21456 O 2055.45 0.369789 2.13217 0
M  V30 21457 C 2056.04 3.33562 0.593453 0
M  V30 21458 C 2054.6 3.6142 1.05131 0
M  V30 21459 C 2053.75 2.77129 0.0972331 0
M  V30 21460 H 2056.7 1.53205 -0.414009 0
M  V30 21461 H 2056.72 3.52062 1.44335 0
M  V30 21462 H 2056.23 3.86532 -0.348543 0
M  V30 21463 H 2054.33 3.13879 2.00776 0
M  V30 21464 H 2054.45 4.69638 0.947464 0
M  V30 21465 H 2052.81 2.47576 0.598181 0
M  V30 21466 H 2053.59 3.32887 -0.839117 0
M  V30 21467 N 2056.04 -0.0835127 1.57379 0
M  V30 21468 C 2056.97 -1.101 2.05913 0
M  V30 21469 C 2057.95 -1.41079 0.950298 0
M  V30 21470 O 2059.13 -1.50909 1.2223 0
M  V30 21471 C 2056.26 -2.41772 2.49327 0
M  V30 21472 C 2055.22 -2.25173 3.63979 0
M  V30 21473 C 2054.54 -3.62124 3.93408 0
M  V30 21474 C 2055.84 -1.68267 4.94453 0
M  V30 21475 H 2057.54 -0.697176 2.9117 0
M  V30 21476 H 2055.08 -0.333914 1.40075 0
M  V30 21477 H 2057.04 -3.13234 2.81891 0
M  V30 21478 H 2055.76 -2.84112 1.61084 0
M  V30 21479 H 2054.42 -1.56154 3.3168 0
M  V30 21480 H 2054.07 -4.02013 3.02315 0
M  V30 21481 H 2053.77 -3.51861 4.70603 0
M  V30 21482 H 2055.29 -4.35036 4.28458 0
M  V30 21483 H 2056.71 -2.29582 5.25324 0
M  V30 21484 H 2055.1 -1.68731 5.7589 0
M  V30 21485 H 2056.17 -0.64309 4.80617 0
M  V30 21486 N 2057.52 -1.53558 -0.354624 0
M  V30 21487 C 2058.93 -1.6184 -0.930847 0
M  V30 21488 C 2059.28 -0.492698 -1.89913 0
M  V30 21489 O 2058.4 0.379247 -2.13051 0
M  V30 21490 C 2059 -2.93348 -1.69506 0
M  V30 21491 C 2057.56 -3.03929 -2.22046 0
M  V30 21492 C 2056.7 -2.57213 -1.03618 0
M  V30 21493 H 2059.65 -1.58141 -0.133086 0
M  V30 21494 H 2059.68 -2.81766 -2.55711 0
M  V30 21495 H 2059.19 -3.75259 -0.990072 0
M  V30 21496 H 2057.29 -2.26629 -2.95753 0
M  V30 21497 H 2057.4 -4.09204 -2.49176 0
M  V30 21498 H 2055.77 -2.12352 -1.40636 0
M  V30 21499 H 2056.55 -3.41552 -0.346003 0
M  V30 21500 N 2058.99 0.615033 -1.45104 0
M  V30 21501 C 2059.9 1.75459 -1.55728 0
M  V30 21502 C 2060.92 1.6829 -0.442095 0
M  V30 21503 O 2062.1 1.88779 -0.701735 0
M  V30 21504 C 2059.16 3.11899 -1.51394 0
M  V30 21505 C 2058.22 3.30578 -2.73892 0
M  V30 21506 C 2057.45 4.60509 -2.69754 0
M  V30 21507 O 2057.68 5.42353 -1.76662 0
M  V30 21508 O 2056.61 4.81739 -3.60848 0
M  V30 21509 H 2060.44 1.69447 -2.52035 0
M  V30 21510 H 2058.02 0.778221 -1.27531 0
M  V30 21511 H 2059.9 3.93203 -1.51557 0
M  V30 21512 H 2058.58 3.18418 -0.582365 0
M  V30 21513 H 2057.49 2.48891 -2.79292 0
M  V30 21514 H 2058.82 3.2893 -3.6615 0
M  V30 21515 N 2060.47 1.3227 0.85688 0
M  V30 21516 C 2061.72 1.22703 1.6109 0
M  V30 21517 C 2062.05 -0.211682 1.93345 0
M  V30 21518 O 2061.3 -1.16408 1.57314 0
M  V30 21519 C 2061.6 2.02967 2.94175 0
M  V30 21520 C 2061.27 3.52346 2.8136 0
M  V30 21521 C 2059.93 3.93074 2.77572 0
M  V30 21522 C 2062.28 4.47347 2.67452 0
M  V30 21523 C 2059.61 5.27049 2.57751 0
M  V30 21524 C 2061.96 5.81463 2.49167 0
M  V30 21525 C 2060.62 6.21396 2.4377 0
M  V30 21526 H 2059.89 0.449003 0.589472 0
M  V30 21527 H 2062.54 1.63673 0.994156 0
M  V30 21528 H 2060.85 1.54719 3.59957 0
M  V30 21529 H 2062.54 1.92936 3.51535 0
M  V30 21530 H 2059.13 3.19997 2.85132 0
M  V30 21531 H 2063.32 4.16802 2.69424 0
M  V30 21532 H 2058.57 5.57048 2.52007 0
M  V30 21533 H 2062.75 6.54692 2.37384 0
M  V30 21534 H 2060.37 7.2515 2.28171 0
M  V30 21535 N 2061.95 -1.07287 1.15444 0
M  V30 21536 C 2062.91 -2.12679 0.854419 0
M  V30 21537 C 2063.91 -1.60135 -0.146116 0
M  V30 21538 O 2065.1 -1.73999 0.0835953 0
M  V30 21539 C 2062.23 -3.39782 0.275849 0
M  V30 21540 H 2063.43 -2.40726 1.7886 0
M  V30 21541 H 2060.98 -1.23187 0.96201 0
M  V30 21542 H 2061.72 -3.17377 -0.666496 0
M  V30 21543 H 2061.5 -3.79222 0.996665 0
M  V30 21544 H 2062.99 -4.17516 0.0835417 0
M  V30 21545 N 2063.43 -0.951342 -1.25647 0
M  V30 21546 C 2064.37 -0.467715 -2.26011 0
M  V30 21547 C 2065.34 0.478049 -1.59072 0
M  V30 21548 O 2066.53 0.392024 -1.86729 0
M  V30 21549 C 2063.67 0.251483 -3.44182 0
M  V30 21550 C 2062.78 -0.731135 -4.25768 0
M  V30 21551 C 2061.92 0.0102901 -5.31199 0
M  V30 21552 C 2060.96 -0.963479 -6.0447 0
M  V30 21553 N 2060.09 -0.253142 -7.01643 0
M  V30 21554 H 2064.93 -1.32847 -2.6675 0
M  V30 21555 H 2062.47 -0.666278 -1.31146 0
M  V30 21556 H 2064.43 0.685002 -4.11538 0
M  V30 21557 H 2063.06 1.07631 -3.04328 0
M  V30 21558 H 2062.11 -1.28314 -3.58106 0
M  V30 21559 H 2063.42 -1.47435 -4.76513 0
M  V30 21560 H 2062.58 0.502603 -6.04615 0
M  V30 21561 H 2061.32 0.78632 -4.81319 0
M  V30 21562 H 2060.32 -1.46682 -5.29872 0
M  V30 21563 H 2061.55 -1.73968 -6.56439 0
M  V30 21564 H 2059.49 0.50421 -6.54059 0
M  V30 21565 H 2059.41 -0.935511 -7.50189 0
M  V30 21566 H 2060.68 0.217742 -7.79196 0
M  V30 21567 N 2064.91 1.40216 -0.719531 0
M  V30 21568 C 2065.82 2.34494 -0.0706489 0
M  V30 21569 C 2066.83 1.5751 0.739372 0
M  V30 21570 O 2068.01 1.89879 0.671417 0
M  V30 21571 C 2065.07 3.36441 0.837178 0
M  V30 21572 C 2064.13 4.29297 0.0166603 0
M  V30 21573 C 2063.37 5.26374 0.881251 0
M  V30 21574 O 2063.59 5.29524 2.1204 0
M  V30 21575 O 2062.52 6.01059 0.318141 0
M  V30 21576 H 2066.35 2.91609 -0.848392 0
M  V30 21577 H 2063.93 1.41478 -0.480047 0
M  V30 21578 H 2065.82 3.98951 1.35707 0
M  V30 21579 H 2064.49 2.81733 1.594 0
M  V30 21580 H 2063.4 3.70059 -0.54839 0
M  V30 21581 H 2064.73 4.87168 -0.70203 0
M  V30 21582 N 2066.38 0.466004 1.50553 0
M  V30 21583 C 2067.79 0.00966264 1.86697 0
M  V30 21584 C 2068.15 -1.39347 1.38119 0
M  V30 21585 O 2067.27 -2.03208 0.744006 0
M  V30 21586 C 2067.87 0.0107586 3.38798 0
M  V30 21587 C 2066.42 -0.390094 3.74373 0
M  V30 21588 C 2065.57 0.398415 2.74423 0
M  V30 21589 H 2068.52 0.680522 1.43369 0
M  V30 21590 H 2068.54 -0.792537 3.72155 0
M  V30 21591 H 2068.06 1.0321 3.74125 0
M  V30 21592 H 2066.16 -1.41598 3.44646 0
M  V30 21593 H 2066.27 -0.0949729 4.79006 0
M  V30 21594 H 2064.63 -0.147197 2.54274 0
M  V30 21595 H 2065.42 1.41917 3.12593 0
M  V30 21596 N 2067.86 -1.56346 0.198413 0
M  V30 21597 C 2069.27 -1.84047 -0.313597 0
M  V30 21598 C 2069.62 -1.11918 -1.61148 0
M  V30 21599 O 2068.75 -0.381091 -2.13018 0
M  V30 21600 C 2069.34 -3.33872 -0.575755 0
M  V30 21601 C 2067.9 -3.61973 -1.03213 0
M  V30 21602 C 2067.05 -2.77177 -0.0825349 0
M  V30 21603 H 2070 -1.52983 0.422128 0
M  V30 21604 H 2070.02 -3.52823 -1.42466 0
M  V30 21605 H 2069.53 -3.86341 0.369036 0
M  V30 21606 H 2067.63 -3.14939 -1.99108 0
M  V30 21607 H 2067.75 -4.70134 -0.922545 0
M  V30 21608 H 2066.11 -2.4789 -0.585043 0
M  V30 21609 H 2066.89 -3.32437 0.856759 0
M  V30 21610 N 2069.34 0.0751653 -1.57421 0
M  V30 21611 C 2070.27 1.11632 -2.00177 0
M  V30 21612 C 2071.29 1.35179 -0.907222 0
M  V30 21613 O 2072.47 1.33479 -1.18515 0
M  V30 21614 C 2069.57 2.46792 -2.32265 0
M  V30 21615 C 2068.75 2.43248 -3.63524 0
M  V30 21616 C 2067.81 3.60488 -3.8332 0
M  V30 21617 O 2066.83 3.42071 -4.54946 0
M  V30 21618 N 2068.03 4.80713 -3.25416 0
M  V30 21619 H 2070.8 0.752243 -2.90106 0
M  V30 21620 H 2068.36 0.263867 -1.59735 0
M  V30 21621 H 2070.35 3.23861 -2.42685 0
M  V30 21622 H 2068.92 2.75214 -1.48243 0
M  V30 21623 H 2068.14 1.51587 -3.63889 0
M  V30 21624 H 2069.43 2.37977 -4.49716 0
M  V30 21625 H 2068.83 4.9858 -2.67273 0
M  V30 21626 H 2067.39 5.55306 -3.4129 0
M  V30 21627 N 2070.82 1.53744 0.346476 0
M  V30 21628 C 2072.23 1.43943 0.689395 0
M  V30 21629 C 2072.43 0.593819 1.92551 0
M  V30 21630 O 2071.49 0.0836653 2.52361 0
M  V30 21631 C 2072.8 2.87389 0.884766 0
M  V30 21632 C 2074.35 2.97145 0.98357 0
M  V30 21633 C 2074.83 4.41692 1.21128 0
M  V30 21634 N 2076.32 4.45205 1.27855 0
M  V30 21635 C 2077.05 5.54179 1.47219 0
M  V30 21636 N 2076.55 6.73164 1.63775 0
M  V30 21637 N 2078.34 5.41787 1.49743 0
M  V30 21638 H 2070.49 2.07218 -0.466306 0
M  V30 21639 H 2072.76 0.936584 -0.146675 0
M  V30 21640 H 2072.46 3.51667 0.0480249 0
M  V30 21641 H 2072.34 3.32165 1.78736 0
M  V30 21642 H 2074.72 2.33008 1.81084 0
M  V30 21643 H 2074.8 2.55734 0.0579478 0
M  V30 21644 H 2074.45 5.06409 0.388952 0
M  V30 21645 H 2074.38 4.80692 2.15042 0
M  V30 21646 H 2076.87 3.59463 1.16596 0
M  V30 21647 H 2077.18 7.51979 1.78179 0
M  V30 21648 H 2075.53 6.76114 1.60917 0
M  V30 21649 H 2078.72 4.4779 1.36389 0
M  V30 21650 H 2078.89 6.26774 1.64493 0
M  V30 21651 N 2072.3 -0.607329 1.45428 0
M  V30 21652 C 2073.57 -1.36669 1.39932 0
M  V30 21653 C 2073.95 -2.10984 0.0700663 0
M  V30 21654 O 2073.3 -2.07907 -0.947984 0
M  V30 21655 C 2073.51 -2.3133 2.61319 0
M  V30 21656 C 2074.86 -2.93928 3.06417 0
M  V30 21657 O 2075.88 -2.4165 2.61694 0
M  V30 21658 O 2074.74 -3.88823 3.8403 0
M  V30 21659 H 2071.84 -0.61283 0.55531 0
M  V30 21660 H 2074.38 -0.630396 1.57557 0
M  V30 21661 H 2073.15 -1.75677 3.49647 0
M  V30 21662 H 2072.78 -3.12338 2.4603 0
M  V30 21663 N 2073.77 -1.32722 -0.849853 0
M  V30 21664 C 2075.19 -1.11818 -1.13882 0
M  V30 21665 C 2075.39 0.0981854 -2.01261 0
M  V30 21666 O 2074.45 0.781678 -2.40096 0
M  V30 21667 C 2075.76 -2.4001 -1.81151 0
M  V30 21668 C 2077.31 -2.45813 -1.93765 0
M  V30 21669 C 2077.78 -3.73939 -2.6445 0
M  V30 21670 N 2079.27 -3.74948 -2.71971 0
M  V30 21671 C 2080.01 -4.70792 -3.27326 0
M  V30 21672 N 2079.5 -5.77005 -3.83454 0
M  V30 21673 N 2081.3 -4.58282 -3.25475 0
M  V30 21674 H 2073.45 -2.10702 -0.26806 0
M  V30 21675 H 2075.71 -0.930482 -0.181405 0
M  V30 21676 H 2075.42 -3.28963 -1.24403 0
M  V30 21677 H 2075.29 -2.51333 -2.81267 0
M  V30 21678 H 2077.68 -1.57316 -2.49671 0
M  V30 21679 H 2077.76 -2.38439 -0.926307 0
M  V30 21680 H 2077.4 -4.62812 -2.09206 0
M  V30 21681 H 2077.33 -3.78586 -3.66034 0
M  V30 21682 H 2079.82 -2.9818 -2.32157 0
M  V30 21683 H 2080.14 -6.46188 -4.23864 0
M  V30 21684 H 2078.48 -5.80753 -3.81773 0
M  V30 21685 H 2081.67 -3.74468 -2.80876 0
M  V30 21686 H 2081.85 -5.3315 -3.68314 0
M  V30 21687 N 2075.25 1.06673 -1.16011 0
M  V30 21688 C 2076.48 1.8284 -0.961925 0
M  V30 21689 C 2076.89 1.8266 0.49314 0
M  V30 21690 O 2076.23 1.24152 1.35395 0
M  V30 21691 C 2076.3 3.30797 -1.4076 0
M  V30 21692 C 2075.96 3.54686 -2.88178 0
M  V30 21693 C 2076.96 3.48054 -3.86205 0
M  V30 21694 C 2074.64 3.82131 -3.26008 0
M  V30 21695 C 2076.64 3.68527 -5.20064 0
M  V30 21696 C 2074.32 4.02254 -4.60038 0
M  V30 21697 C 2075.32 3.95449 -5.56875 0
M  V30 21698 O 2075.01 4.15027 -6.88482 0
M  V30 21699 H 2074.74 0.583493 -0.341338 0
M  V30 21700 H 2077.29 1.35513 -1.54355 0
M  V30 21701 H 2075.52 3.78968 -0.769428 0
M  V30 21702 H 2077.21 3.88447 -1.17743 0
M  V30 21703 H 2077.98 3.26846 -3.58325 0
M  V30 21704 H 2073.86 3.86539 -2.51214 0
M  V30 21705 H 2077.4 3.63131 -5.95636 0
M  V30 21706 H 2073.3 4.22951 -4.8763 0
M  V30 21707 H 2074.07 4.32337 -6.95002 0
M  V30 21708 N 2076.73 0.957992 1.25141 0
M  V30 21709 C 2078.15 0.662955 1.45179 0
M  V30 21710 C 2078.35 -0.778426 1.85857 0
M  V30 21711 O 2077.4 -1.55337 1.99065 0
M  V30 21712 C 2078.72 1.63876 2.52121 0
M  V30 21713 C 2080.26 1.65031 2.65958 0
M  V30 21714 C 2080.74 2.61384 3.76089 0
M  V30 21715 N 2082.23 2.59768 3.83503 0
M  V30 21716 C 2082.96 3.30999 4.68217 0
M  V30 21717 N 2082.46 4.11715 5.57192 0
M  V30 21718 N 2084.25 3.1987 4.62211 0
M  V30 21719 H 2076.4 1.88941 0.97031 0
M  V30 21720 H 2078.67 0.812898 0.487751 0
M  V30 21721 H 2078.37 2.66846 2.29098 0
M  V30 21722 H 2078.25 1.4039 3.50101 0
M  V30 21723 H 2080.63 0.627761 2.88346 0
M  V30 21724 H 2080.72 1.92576 1.68369 0
M  V30 21725 H 2080.36 3.63767 3.54452 0
M  V30 21726 H 2080.29 2.31121 4.73171 0
M  V30 21727 H 2082.78 2.01172 3.19903 0
M  V30 21728 H 2083.09 4.62978 6.18766 0
M  V30 21729 H 2081.44 4.15812 5.56889 0
M  V30 21730 H 2084.63 2.56282 3.91711 0
M  V30 21731 H 2084.8 3.75649 5.28008 0
M  V30 21732 N 2078.21 -1.39832 0.726957 0
M  V30 21733 C 2079.14 -2.333 0.0966938 0
M  V30 21734 C 2080.12 -1.53492 -0.733095 0
M  V30 21735 O 2081.3 -1.81916 -0.679712 0
M  V30 21736 C 2078.43 -3.37545 -0.817367 0
M  V30 21737 C 2077.39 -4.279 -0.0923447 0
M  V30 21738 C 2076.71 -5.22777 -1.12288 0
M  V30 21739 C 2078.01 -5.11425 1.06028 0
M  V30 21740 H 2079.71 -2.86255 0.877412 0
M  V30 21741 H 2077.25 -1.37635 0.423378 0
M  V30 21742 H 2079.21 -4.01878 -1.26776 0
M  V30 21743 H 2077.93 -2.83011 -1.63011 0
M  V30 21744 H 2076.59 -3.65035 0.338339 0
M  V30 21745 H 2076.24 -4.64542 -1.92898 0
M  V30 21746 H 2075.94 -5.84076 -0.64259 0
M  V30 21747 H 2077.46 -5.89987 -1.57314 0
M  V30 21748 H 2078.88 -5.69148 0.688715 0
M  V30 21749 H 2077.27 -5.81825 1.46968 0
M  V30 21750 H 2078.34 -4.46731 1.88571 0
M  V30 21751 N 2079.69 -0.473982 -1.50304 0
M  V30 21752 C 2080.96 0.141727 -1.95086 0
M  V30 21753 C 2081.34 1.56703 -1.41447 0
M  V30 21754 O 2080.69 2.20021 -0.616691 0
M  V30 21755 C 2080.9 0.0820815 -3.48903 0
M  V30 21756 C 2082.25 0.26953 -4.23744 0
M  V30 21757 O 2083.27 0.158532 -3.55847 0
M  V30 21758 O 2082.13 0.494023 -5.44262 0
M  V30 21759 H 2079.23 0.110094 -0.819639 0
M  V30 21760 H 2081.77 -0.534591 -1.6106 0
M  V30 21761 H 2080.54 -0.912936 -3.80501 0
M  V30 21762 H 2080.17 0.799731 -3.89474 0
M  V30 21763 N 2081.16 1.56239 -0.206702 0
M  V30 21764 C 2082.44 1.89689 0.477219 0
M  V30 21765 C 2082.82 1.12193 1.78818 0
M  V30 21766 O 2082.17 0.226599 2.27374 0
M  V30 21767 C 2082.38 3.42218 0.684683 0
M  V30 21768 C 2083.73 4.12685 0.998827 0
M  V30 21769 O 2084.75 3.47734 0.771997 0
M  V30 21770 O 2083.61 5.275 1.42851 0
M  V30 21771 H 2080.7 0.788217 0.250286 0
M  V30 21772 H 2083.25 1.67881 -0.247781 0
M  V30 21773 H 2082.02 3.90559 -0.240635 0
M  V30 21774 H 2081.65 3.69756 1.46172 0
M  V30 21775 N 2082.64 -0.0668159 1.57458 0
M  V30 21776 C 2083.89 -0.763514 1.87123 0
M  V30 21777 C 2084.21 -1.77862 0.799382 0
M  V30 21778 O 2083.48 -1.95149 -0.171413 0
M  V30 21779 H 2082.06 -0.284974 0.690506 0
M  V30 21780 H 2084.72 -0.0417221 1.94855 0
M  V30 21781 H 2083.82 -1.27663 2.84796 0
M  V30 21782 N 2084.12 -1.53926 -0.338317 0
M  V30 21783 C 2085.54 -1.44306 -0.681751 0
M  V30 21784 C 2085.74 -0.604022 -1.92234 0
M  V30 21785 O 2084.79 -0.0970474 -2.52313 0
M  V30 21786 C 2086.11 -2.87854 -0.869513 0
M  V30 21787 C 2087.65 -2.97662 -0.967798 0
M  V30 21788 C 2088.13 -4.42328 -1.18784 0
M  V30 21789 N 2089.62 -4.45877 -1.25492 0
M  V30 21790 C 2090.36 -5.54952 -1.44278 0
M  V30 21791 N 2089.85 -6.74023 -1.60203 0
M  V30 21792 N 2091.64 -5.42574 -1.46868 0
M  V30 21793 H 2083.8 -2.06968 0.477289 0
M  V30 21794 H 2086.06 -0.935793 0.15164 0
M  V30 21795 H 2085.76 -3.51688 -0.0293745 0
M  V30 21796 H 2085.64 -3.33108 -1.76971 0
M  V30 21797 H 2088.03 -2.33965 -1.79845 0
M  V30 21798 H 2088.11 -2.55761 -0.0443848 0
M  V30 21799 H 2087.75 -5.06608 -0.362091 0
M  V30 21800 H 2087.68 -4.81825 -2.1249 0
M  V30 21801 H 2090.17 -3.60076 -1.14688 0
M  V30 21802 H 2090.48 -7.52913 -1.74188 0
M  V30 21803 H 2088.83 -6.76958 -1.57329 0
M  V30 21804 H 2092.02 -4.48507 -1.34012 0
M  V30 21805 H 2092.19 -6.27638 -1.61167 0
M  V30 21806 N 2085.6 0.599608 -1.45748 0
M  V30 21807 C 2087.02 0.921212 -1.3033 0
M  V30 21808 C 2087.22 1.99787 -0.262213 0
M  V30 21809 O 2086.27 2.50186 0.34109 0
M  V30 21810 C 2087.58 1.35457 -2.68462 0
M  V30 21811 C 2089.13 1.46835 -2.76421 0
M  V30 21812 C 2089.61 1.93544 -4.15096 0
M  V30 21813 N 2091.1 2.00765 -4.1743 0
M  V30 21814 C 2091.83 2.38145 -5.21608 0
M  V30 21815 N 2091.33 2.74437 -6.36126 0
M  V30 21816 N 2093.12 2.38554 -5.08968 0
M  V30 21817 H 2085.27 -0.111892 -2.12105 0
M  V30 21818 H 2087.54 0.0126042 -0.947916 0
M  V30 21819 H 2087.24 0.63759 -3.45872 0
M  V30 21820 H 2087.12 2.31951 -2.97453 0
M  V30 21821 H 2089.5 2.17623 -1.99309 0
M  V30 21822 H 2089.58 0.486356 -2.51134 0
M  V30 21823 H 2089.23 1.2334 -4.92696 0
M  V30 21824 H 2089.16 2.92672 -4.3778 0
M  V30 21825 H 2091.65 1.75275 -3.34794 0
M  V30 21826 H 2091.96 3.01865 -7.11405 0
M  V30 21827 H 2090.31 2.72115 -6.39514 0
M  V30 21828 H 2093.5 2.09612 -4.18546 0
M  V30 21829 H 2093.67 2.67359 -5.90274 0
M  V30 21830 N 2087.08 1.33171 0.842803 0
M  V30 21831 C 2088.32 1.24589 1.60017 0
M  V30 21832 C 2088.66 -0.188935 1.93279 0
M  V30 21833 O 2087.93 -1.12923 1.58362 0
M  V30 21834 C 2088.21 2.11731 2.91277 0
M  V30 21835 C 2088.07 3.63652 2.64721 0
M  V30 21836 C 2089.39 1.98749 3.92666 0
M  V30 21837 H 2086.51 0.453935 0.580613 0
M  V30 21838 H 2089.15 1.63234 0.972356 0
M  V30 21839 H 2087.3 1.78904 3.44856 0
M  V30 21840 H 2088.97 4.06751 2.17604 0
M  V30 21841 H 2087.21 3.85728 1.98486 0
M  V30 21842 H 2087.88 4.19966 3.58236 0
M  V30 21843 H 2090.36 2.2753 3.48381 0
M  V30 21844 H 2089.24 2.61979 4.82347 0
M  V30 21845 H 2089.5 0.958565 4.31583 0
M  V30 21846 N 2088.56 -1.06056 1.16576 0
M  V30 21847 C 2089.97 -1.31034 0.911171 0
M  V30 21848 C 2090.17 -1.96758 -0.434593 0
M  V30 21849 O 2089.23 -2.2357 -1.17357 0
M  V30 21850 C 2090.54 -2.18865 2.06201 0
M  V30 21851 C 2092.09 -2.32274 2.09804 0
M  V30 21852 C 2092.56 -3.23461 3.24248 0
M  V30 21853 N 2094.05 -3.31045 3.2398 0
M  V30 21854 C 2094.79 -4.01702 4.09174 0
M  V30 21855 N 2094.29 -4.7486 5.0446 0
M  V30 21856 N 2096.08 -3.97777 3.97153 0
M  V30 21857 H 2088.23 -0.617904 2.03213 0
M  V30 21858 H 2090.49 -0.335006 0.886834 0
M  V30 21859 H 2090.2 -1.77852 3.03417 0
M  V30 21860 H 2090.07 -3.19462 2.00559 0
M  V30 21861 H 2092.46 -2.72534 1.13179 0
M  V30 21862 H 2092.54 -1.31337 2.19509 0
M  V30 21863 H 2092.18 -2.83918 4.21133 0
M  V30 21864 H 2092.11 -4.24384 3.11779 0
M  V30 21865 H 2094.61 -2.78911 2.54984 0
M  V30 21866 H 2094.92 -5.26308 5.65879 0
M  V30 21867 H 2093.26 -4.73832 5.08437 0
M  V30 21868 H 2096.45 -3.39743 3.22013 0
M  V30 21869 H 2096.63 -4.52574 4.63768 0
M  V30 21870 N 2090.03 -0.964615 -1.24631 0
M  V30 21871 C 2091.31 -0.54181 -1.87946 0
M  V30 21872 C 2091.69 0.981047 -1.86919 0
M  V30 21873 O 2091.04 1.85109 -1.33966 0
M  V30 21874 C 2091.25 -1.12982 -3.30206 0
M  V30 21875 C 2092.6 -1.21281 -4.0691 0
M  V30 21876 O 2093.62 -1.0821 -3.39366 0
M  V30 21877 O 2092.48 -1.41904 -5.27755 0
M  V30 21878 H 2089.57 -0.180209 -0.807127 0
M  V30 21879 H 2092.12 -1.05869 -1.32627 0
M  V30 21880 H 2090.89 -2.17271 -3.25436 0
M  V30 21881 H 2090.51 -0.596798 -3.93096 0
M  V30 21882 N 2091.51 1.39445 -0.734362 0
M  V30 21883 C 2092.44 2.33245 -0.109065 0
M  V30 21884 C 2093.42 1.53878 0.724945 0
M  V30 21885 O 2094.61 1.82274 0.670055 0
M  V30 21886 C 2091.74 3.37973 0.799454 0
M  V30 21887 C 2090.69 4.27943 0.0696508 0
M  V30 21888 C 2090.02 5.23365 1.09514 0
M  V30 21889 C 2091.32 5.10855 -1.08738 0
M  V30 21890 H 2093.01 2.85786 -0.892581 0
M  V30 21891 H 2090.56 1.37409 -0.430672 0
M  V30 21892 H 2092.51 4.02545 1.24643 0
M  V30 21893 H 2091.23 2.83871 1.61508 0
M  V30 21894 H 2089.89 3.64851 -0.357693 0
M  V30 21895 H 2089.54 4.65559 1.90432 0
M  V30 21896 H 2089.24 5.84408 0.611606 0
M  V30 21897 H 2090.77 5.90813 1.54183 0
M  V30 21898 H 2092.18 5.68775 -0.718888 0
M  V30 21899 H 2090.58 5.81038 -1.50051 0
M  V30 21900 H 2091.65 4.45725 -1.90937 0
M  V30 21901 N 2092.99 0.481946 1.5005 0
M  V30 21902 C 2094.27 -0.131379 1.95158 0
M  V30 21903 C 2094.65 -1.55951 1.42276 0
M  V30 21904 O 2093.99 -2.19691 0.62835 0
M  V30 21905 C 2094.2 -0.0635771 3.48942 0
M  V30 21906 C 2095.55 -0.247054 4.23881 0
M  V30 21907 O 2096.58 -0.139659 3.55926 0
M  V30 21908 O 2095.44 -0.465153 5.44517 0
M  V30 21909 H 2092.53 -0.105746 0.820211 0
M  V30 21910 H 2095.08 0.543125 1.60774 0
M  V30 21911 H 2093.85 0.933103 3.80012 0
M  V30 21912 H 2093.47 -0.779065 3.89893 0
M  V30 21913 N 2094.47 -1.56127 0.214985 0
M  V30 21914 C 2095.88 -1.5898 -0.140524 0
M  V30 21915 C 2096.08 -1.23166 -1.59475 0
M  V30 21916 O 2095.14 -0.963792 -2.33382 0
M  V30 21917 C 2096.45 -3.00162 0.179827 0
M  V30 21918 C 2098 -3.12764 0.121534 0
M  V30 21919 C 2098.48 -4.56112 0.415468 0
M  V30 21920 N 2099.97 -4.61761 0.364801 0
M  V30 21921 C 2100.7 -5.70602 0.565817 0
M  V30 21922 N 2100.2 -6.87831 0.828254 0
M  V30 21923 N 2101.99 -5.59883 0.498704 0
M  V30 21924 H 2094.14 -1.77683 1.16372 0
M  V30 21925 H 2096.4 -0.825579 0.465964 0
M  V30 21926 H 2096.11 -3.30995 1.1889 0
M  V30 21927 H 2095.98 -3.7376 -0.508279 0
M  V30 21928 H 2098.37 -2.81731 -0.878172 0
M  V30 21929 H 2098.45 -2.4151 0.843017 0
M  V30 21930 H 2098.1 -4.87861 1.41258 0
M  V30 21931 H 2098.03 -5.25583 -0.327132 0
M  V30 21932 H 2100.52 -3.7752 0.169387 0
M  V30 21933 H 2100.83 -7.66689 0.969914 0
M  V30 21934 H 2099.18 -6.89591 0.865375 0
M  V30 21935 H 2102.37 -4.67176 0.293953 0
M  V30 21936 H 2102.54 -6.44643 0.658773 0
M  V30 21937 N 2095.95 0.0584645 -1.57492 0
M  V30 21938 C 2097.19 0.75619 -1.88174 0
M  V30 21939 C 2097.52 1.76546 -0.809018 0
M  V30 21940 O 2096.8 1.93672 0.179286 0
M  V30 21941 C 2097.08 1.45223 -3.29518 0
M  V30 21942 C 2096.94 0.458472 -4.47457 0
M  V30 21943 C 2098.25 2.39381 -3.69303 0
M  V30 21944 H 2095.37 0.27344 -0.684397 0
M  V30 21945 H 2098.02 0.0191997 -1.8999 0
M  V30 21946 H 2096.17 2.08044 -3.28101 0
M  V30 21947 H 2097.84 -0.165547 -4.61003 0
M  V30 21948 H 2096.08 -0.225018 -4.33216 0
M  V30 21949 H 2096.75 0.983384 -5.4317 0
M  V30 21950 H 2099.23 1.86628 -3.719 0
M  V30 21951 H 2098.1 2.85078 -4.69065 0
M  V30 21952 H 2098.36 3.24775 -2.99956 0
M  V30 21953 N 2097.42 1.54103 0.330149 0
M  V30 21954 C 2098.35 1.8602 1.41134 0
M  V30 21955 C 2099.33 0.716429 1.54277 0
M  V30 21956 O 2100.52 0.969568 1.68265 0
M  V30 21957 C 2097.65 2.08171 2.77997 0
M  V30 21958 C 2096.6 3.24007 2.79649 0
M  V30 21959 C 2095.93 3.31516 4.19525 0
M  V30 21960 C 2097.23 4.6181 2.43985 0
M  V30 21961 H 2098.92 2.76569 1.14672 0
M  V30 21962 H 2096.47 1.33074 0.550199 0
M  V30 21963 H 2098.42 2.29083 3.53694 0
M  V30 21964 H 2097.15 1.14364 3.05922 0
M  V30 21965 H 2095.81 3.02971 2.06407 0
M  V30 21966 H 2095.45 2.3528 4.44581 0
M  V30 21967 H 2095.15 4.09364 4.21538 0
M  V30 21968 H 2096.68 3.54655 4.97044 0
M  V30 21969 H 2098.09 4.82647 3.09395 0
M  V30 21970 H 2096.49 5.4216 2.5726 0
M  V30 21971 H 2097.56 4.64507 1.39146 0
M  V30 21972 N 2098.9 -0.59187 1.46064 0
M  V30 21973 C 2099.84 -1.71592 1.50438 0
M  V30 21974 C 2100.81 -1.58581 0.359289 0
M  V30 21975 O 2102 -1.79924 0.562102 0
M  V30 21976 C 2099.12 -3.09566 1.37429 0
M  V30 21977 C 2098.17 -3.41123 2.56003 0
M  V30 21978 S 2099 -3.34211 4.18405 0
M  V30 21979 C 2100.16 -4.74739 4.0789 0
M  V30 21980 H 2100.39 -1.67621 2.45541 0
M  V30 21981 H 2097.93 -0.769851 1.33838 0
M  V30 21982 H 2099.88 -3.89167 1.30611 0
M  V30 21983 H 2098.54 -3.11035 0.437694 0
M  V30 21984 H 2097.74 -4.41622 2.4287 0
M  V30 21985 H 2097.34 -2.6907 2.59764 0
M  V30 21986 H 2099.63 -5.64913 3.74004 0
M  V30 21987 H 2100.57 -4.9293 5.08356 0
M  V30 21988 H 2100.98 -4.51158 3.39288 0
M  V30 21989 N 2100.38 -1.33616 -0.835729 0
M  V30 21990 C 2101.63 -1.25003 -1.58804 0
M  V30 21991 C 2101.95 0.183302 -1.94137 0
M  V30 21992 O 2101.22 1.11282 -1.61224 0
M  V30 21993 H 2099.8 -0.459684 -0.588812 0
M  V30 21994 H 2102.46 -1.67374 -0.998599 0
M  V30 21995 H 2101.56 -1.84593 -2.51658 0
M  V30 21996 N 2101.86 1.05436 -1.17136 0
M  V30 21997 C 2103.09 1.8181 -0.981263 0
M  V30 21998 C 2103.5 1.83173 0.473739 0
M  V30 21999 O 2102.84 1.25581 1.34071 0
M  V30 22000 C 2102.9 3.29286 -1.44261 0
M  V30 22001 C 2102.57 3.5161 -2.91924 0
M  V30 22002 C 2103.56 3.43938 -3.89875 0
M  V30 22003 C 2101.25 3.78652 -3.30043 0
M  V30 22004 C 2103.24 3.6299 -5.23944 0
M  V30 22005 C 2100.93 3.97352 -4.64278 0
M  V30 22006 C 2101.93 3.8952 -5.61038 0
M  V30 22007 O 2101.61 4.07702 -6.92845 0
M  V30 22008 H 2101.35 0.57984 -0.347507 0
M  V30 22009 H 2103.9 1.33868 -1.55784 0
M  V30 22010 H 2102.13 3.78131 -0.80958 0
M  V30 22011 H 2103.82 3.87177 -1.21857 0
M  V30 22012 H 2104.59 3.23027 -3.61772 0
M  V30 22013 H 2100.46 3.83853 -2.553 0
M  V30 22014 H 2104.01 3.56793 -5.99454 0
M  V30 22015 H 2099.91 4.17755 -4.92088 0
M  V30 22016 H 2100.67 4.24941 -6.99548 0
M  V30 22017 N 2103.34 0.971211 1.24118 0
M  V30 22018 C 2104.27 0.462026 2.24495 0
M  V30 22019 C 2105.28 -0.431143 1.56987 0
M  V30 22020 O 2106.47 -0.236754 1.76923 0
M  V30 22021 C 2103.57 -0.351913 3.37068 0
M  V30 22022 C 2102.74 0.532187 4.3415 0
M  V30 22023 C 2101.8 -0.22634 5.25713 0
M  V30 22024 O 2100.83 0.380923 5.67924 0
M  V30 22025 N 2102.03 -1.51493 5.60384 0
M  V30 22026 H 2104.8 1.32507 2.68816 0
M  V30 22027 H 2102.36 0.843431 1.38195 0
M  V30 22028 H 2104.35 -0.867478 3.95293 0
M  V30 22029 H 2102.92 -1.1159 2.92004 0
M  V30 22030 H 2102.14 1.22869 3.74562 0
M  V30 22031 H 2103.43 1.13503 4.95978 0
M  V30 22032 H 2102.82 -2.02997 5.28023 0
M  V30 22033 H 2101.38 -1.97612 6.21122 0
M  V30 22034 N 2104.81 -1.39054 0.741747 0
M  V30 22035 C 2106.04 -2.04668 0.303108 0
M  V30 22036 C 2106.46 -1.55933 -1.06444 0
M  V30 22037 O 2105.81 -0.72717 -1.67387 0
M  V30 22038 C 2105.87 -3.60224 0.303407 0
M  V30 22039 O 2105.59 -4.07167 1.61698 0
M  V30 22040 C 2107.09 -4.43044 -0.150565 0
M  V30 22041 H 2104.31 -0.658018 0.131353 0
M  V30 22042 H 2106.85 -1.77972 1.00729 0
M  V30 22043 H 2105.01 -3.85798 -0.351936 0
M  V30 22044 H 2105.42 -5.01532 1.53511 0
M  V30 22045 H 2106.89 -5.51911 -0.0991946 0
M  V30 22046 H 2107.37 -4.22581 -1.19674 0
M  V30 22047 H 2107.98 -4.22634 0.475463 0
M  V30 22048 N 2106.29 -0.489897 -1.49792 0
M  V30 22049 C 2107.52 0.055599 -2.06525 0
M  V30 22050 C 2107.93 1.32375 -1.3518 0
M  V30 22051 O 2107.27 1.78826 -0.420371 0
M  V30 22052 C 2107.34 0.390775 -3.5737 0
M  V30 22053 C 2107 -0.778051 -4.50328 0
M  V30 22054 C 2108 -1.66543 -4.92503 0
M  V30 22055 C 2105.68 -0.97371 -4.92772 0
M  V30 22056 C 2107.68 -2.73272 -5.75848 0
M  V30 22057 C 2105.36 -2.04419 -5.75896 0
M  V30 22058 C 2106.36 -2.92205 -6.17337 0
M  V30 22059 O 2106.05 -3.97407 -6.98801 0
M  V30 22060 H 2105.78 -0.012225 -0.675889 0
M  V30 22061 H 2108.33 -0.683211 -1.93704 0
M  V30 22062 H 2106.56 1.18303 -3.68159 0
M  V30 22063 H 2108.25 0.873568 -3.96388 0
M  V30 22064 H 2109.02 -1.52604 -4.60366 0
M  V30 22065 H 2104.9 -0.299832 -4.60024 0
M  V30 22066 H 2108.44 -3.41821 -6.08115 0
M  V30 22067 H 2104.34 -2.18358 -6.07446 0
M  V30 22068 H 2105.11 -3.94624 -7.17087 0
M  V30 22069 N 2107.77 1.56011 -0.223262 0
M  V30 22070 C 2109.18 1.84523 0.284276 0
M  V30 22071 C 2109.53 1.14468 1.59347 0
M  V30 22072 O 2108.66 0.414932 2.12385 0
M  V30 22073 C 2109.25 3.34746 0.522566 0
M  V30 22074 C 2107.81 3.63569 0.974409 0
M  V30 22075 C 2106.96 2.77273 0.038428 0
M  V30 22076 H 2109.91 1.52292 -0.446413 0
M  V30 22077 H 2109.93 3.55044 1.36835 0
M  V30 22078 H 2109.44 3.85705 -0.430453 0
M  V30 22079 H 2107.54 3.18067 1.94073 0
M  V30 22080 H 2107.66 4.71542 0.847634 0
M  V30 22081 H 2106.02 2.48789 0.545532 0
M  V30 22082 H 2106.8 3.31032 -0.909539 0
M  V30 22083 N 2109.25 -0.0501116 1.5752 0
M  V30 22084 C 2110.18 -1.08434 2.01928 0
M  V30 22085 C 2111.19 -1.33718 0.928613 0
M  V30 22086 O 2112.38 -1.31576 1.20623 0
M  V30 22087 C 2109.48 -2.43065 2.36162 0
M  V30 22088 C 2108.66 -2.37433 3.67347 0
M  V30 22089 C 2107.71 -3.54345 3.89007 0
M  V30 22090 O 2106.74 -3.3479 4.60331 0
M  V30 22091 N 2107.94 -4.75475 3.33022 0
M  V30 22092 H 2110.71 -0.705995 2.91266 0
M  V30 22093 H 2108.27 -0.238421 1.60135 0
M  V30 22094 H 2110.26 -3.19959 2.47807 0
M  V30 22095 H 2108.83 -2.72821 1.52603 0
M  V30 22096 H 2108.05 -1.45778 3.66254 0
M  V30 22097 H 2109.34 -2.30792 4.53445 0
M  V30 22098 H 2108.74 -4.94264 2.75171 0
M  V30 22099 H 2107.29 -5.49806 3.50081 0
M  V30 22100 N 2110.73 -1.54276 -0.321972 0
M  V30 22101 C 2111.69 -1.83051 -1.37931 0
M  V30 22102 C 2112.69 -0.702392 -1.44648 0
M  V30 22103 O 2113.88 -0.970701 -1.44648 0
M  V30 22104 C 2111.01 -1.99197 -2.76647 0
M  V30 22105 H 2112.2 -2.77523 -1.1367 0
M  V30 22106 H 2109.76 -1.46018 -0.55754 0
M  V30 22107 H 2110.49 -1.06942 -3.0616 0
M  V30 22108 H 2110.28 -2.81289 -2.73164 0
M  V30 22109 H 2111.77 -2.22902 -3.53135 0
M  V30 22110 N 2112.2 0.584116 -1.46376 0
M  V30 22111 C 2113.13 1.70354 -1.59693 0
M  V30 22112 C 2114.12 1.64113 -0.447325 0
M  V30 22113 O 2115.3 1.82151 -0.673394 0
M  V30 22114 C 2112.43 3.08993 -1.58558 0
M  V30 22115 C 2111.38 3.30064 -2.72473 0
M  V30 22116 C 2110.71 4.69216 -2.56399 0
M  V30 22117 C 2112.01 3.18035 -4.14308 0
M  V30 22118 H 2113.7 1.59465 -2.53399 0
M  V30 22119 H 2111.25 0.765749 -1.21952 0
M  V30 22120 H 2113.2 3.87126 -1.66468 0
M  V30 22121 H 2111.93 3.20778 -0.613949 0
M  V30 22122 H 2110.59 2.5433 -2.64029 0
M  V30 22123 H 2110.23 4.77764 -1.57323 0
M  V30 22124 H 2109.93 4.84267 -3.32805 0
M  V30 22125 H 2111.46 5.49519 -2.66198 0
M  V30 22126 H 2112.87 3.86014 -4.2387 0
M  V30 22127 H 2111.27 3.44608 -4.91289 0
M  V30 22128 H 2112.34 2.15135 -4.34563 0
M  V30 22129 N 2113.68 1.34058 0.828631 0
M  V30 22130 C 2114.91 1.29156 1.61636 0
M  V30 22131 C 2115.33 -0.135511 1.88313 0
M  V30 22132 O 2114.68 -1.08084 1.47051 0
M  V30 22133 C 2114.73 2.07436 2.96062 0
M  V30 22134 O 2114.46 3.44577 2.70552 0
M  V30 22135 C 2115.96 2.09865 3.90476 0
M  V30 22136 H 2113.18 0.444543 0.502615 0
M  V30 22137 H 2115.72 1.76585 1.0314 0
M  V30 22138 H 2113.88 1.63663 3.51131 0
M  V30 22139 H 2114.29 3.84972 3.56225 0
M  V30 22140 H 2115.76 2.69071 4.8198 0
M  V30 22141 H 2116.24 1.09155 4.2542 0
M  V30 22142 H 2116.85 2.53702 3.41344 0
M  V30 22143 N 2115.16 -1.04814 1.17694 0
M  V30 22144 C 2116.09 -2.1459 0.920505 0
M  V30 22145 C 2117.07 -1.69531 -0.138953 0
M  V30 22146 O 2118.26 -1.94196 0.0120784 0
M  V30 22147 C 2115.39 -3.44537 0.437198 0
M  V30 22148 C 2114.34 -4.03181 1.43628 0
M  V30 22149 C 2113.67 -5.28517 0.810779 0
M  V30 22150 C 2114.97 -4.40226 2.81066 0
M  V30 22151 H 2116.66 -2.363 1.83856 0
M  V30 22152 H 2114.21 -1.13563 0.885411 0
M  V30 22153 H 2116.16 -4.20686 0.245199 0
M  V30 22154 H 2114.88 -3.22492 -0.516401 0
M  V30 22155 H 2113.54 -3.29106 1.61508 0
M  V30 22156 H 2113.19 -5.02777 -0.149773 0
M  V30 22157 H 2112.89 -5.68714 1.47776 0
M  V30 22158 H 2114.42 -6.0735 0.62914 0
M  V30 22159 H 2115.83 -5.07393 2.66881 0
M  V30 22160 H 2114.23 -4.91451 3.44377 0
M  V30 22161 H 2115.3 -3.50396 3.35188 0
M  V30 22162 N 2116.64 -0.977779 -1.23601 0
M  V30 22163 C 2117.89 -0.646167 -1.9223 0
M  V30 22164 C 2118.22 0.817893 -1.76137 0
M  V30 22165 O 2117.49 1.58966 -1.12071 0
M  V30 22166 C 2117.78 -1.03412 -3.44932 0
M  V30 22167 C 2117.63 -2.55561 -3.70147 0
M  V30 22168 C 2118.95 -0.576087 -4.36313 0
M  V30 22169 H 2116.07 -0.236222 -0.698118 0
M  V30 22170 H 2118.71 -1.21859 -1.45775 0
M  V30 22171 H 2116.86 -0.547033 -3.84629 0
M  V30 22172 H 2118.53 -3.11824 -3.39947 0
M  V30 22173 H 2116.77 -2.98312 -3.14949 0
M  V30 22174 H 2117.45 -2.77756 -4.77028 0
M  V30 22175 H 2119.92 -0.994237 -4.04047 0
M  V30 22176 H 2118.8 -0.875993 -5.41865 0
M  V30 22177 H 2119.06 0.523647 -4.38988 0
M  V30 22178 N 2118.12 1.38658 -0.749111 0
M  V30 22179 C 2119.36 2.00216 -0.303277 0
M  V30 22180 C 2119.69 1.59459 1.1137 0
M  V30 22181 O 2118.95 0.821377 1.77628 0
M  V30 22182 C 2119.25 3.55494 -0.368653 0
M  V30 22183 C 2118.91 4.15948 -1.74064 0
M  V30 22184 C 2117.57 4.32173 -2.11613 0
M  V30 22185 C 2119.93 4.49344 -2.64083 0
M  V30 22186 C 2117.25 4.79088 -3.38661 0
M  V30 22187 C 2119.61 4.97674 -3.90517 0
M  V30 22188 C 2118.27 5.12106 -4.2814 0
M  V30 22189 H 2117.54 0.732643 -0.110977 0
M  V30 22190 H 2120.19 1.65774 -0.958716 0
M  V30 22191 H 2118.49 3.90046 0.370354 0
M  V30 22192 H 2120.19 4.01 -0.00534235 0
M  V30 22193 H 2116.78 4.0373 -1.43875 0
M  V30 22194 H 2120.96 4.36414 -2.3634 0
M  V30 22195 H 2116.22 4.88447 -3.67735 0
M  V30 22196 H 2120.39 5.22485 -4.60415 0
M  V30 22197 H 2118.02 5.4822 -5.26649 0
M  V30 22198 N 2119.6 0.497834 1.49531 0
M  V30 22199 C 2120.87 -0.110673 1.95287 0
M  V30 22200 C 2121.25 -1.54433 1.43923 0
M  V30 22201 O 2120.6 -2.19012 0.651616 0
M  V30 22202 C 2120.81 -0.0265636 3.4899 0
M  V30 22203 C 2122.16 -0.202082 4.24119 0
M  V30 22204 O 2123.18 -0.1019 3.56054 0
M  V30 22205 O 2122.04 -0.407373 5.4498 0
M  V30 22206 H 2119.14 -0.0970406 0.821287 0
M  V30 22207 H 2121.68 0.560146 1.60189 0
M  V30 22208 H 2120.45 0.973355 3.79001 0
M  V30 22209 H 2120.08 -0.737668 3.90697 0
M  V30 22210 N 2121.07 -1.5589 0.231532 0
M  V30 22211 C 2122.35 -1.90424 -0.446981 0
M  V30 22212 C 2122.73 -1.15023 -1.77011 0
M  V30 22213 O 2122.08 -0.262744 -2.26984 0
M  V30 22214 C 2122.29 -3.43264 -0.630152 0
M  V30 22215 C 2123.64 -4.14221 -0.933046 0
M  V30 22216 O 2124.66 -3.48918 -0.716578 0
M  V30 22217 O 2123.52 -5.29705 -1.34441 0
M  V30 22218 H 2120.61 -0.792099 -0.237715 0
M  V30 22219 H 2123.16 -1.67466 0.274458 0
M  V30 22220 H 2121.93 -3.90127 0.302739 0
M  V30 22221 H 2121.55 -3.72035 -1.40271 0
M  V30 22222 N 2122.55 0.0417572 -1.57545 0
M  V30 22223 C 2123.8 0.736189 -1.88966 0
M  V30 22224 C 2124.13 1.75678 -0.827697 0
M  V30 22225 O 2123.41 1.93851 0.158734 0
M  V30 22226 C 2123.69 1.4172 -3.3104 0
M  V30 22227 C 2123.54 0.410987 -4.47918 0
M  V30 22228 C 2124.86 2.3545 -3.71822 0
M  V30 22229 H 2121.98 0.266166 -0.687259 0
M  V30 22230 H 2124.62 -0.000952352 -1.9 0
M  V30 22231 H 2122.77 2.04552 -3.30289 0
M  V30 22232 H 2124.44 -0.214433 -4.60801 0
M  V30 22233 H 2122.69 -0.270954 -4.32953 0
M  V30 22234 H 2123.36 0.925718 -5.44182 0
M  V30 22235 H 2125.83 1.82673 -3.73858 0
M  V30 22236 H 2124.71 2.80087 -4.72062 0
M  V30 22237 H 2124.97 3.21575 -3.03384 0
M  V30 22238 N 2124.03 1.54445 0.313786 0
M  V30 22239 C 2124.96 1.80863 1.40787 0
M  V30 22240 C 2125.97 0.691004 1.47408 0
M  V30 22241 O 2127.16 0.968278 1.49955 0
M  V30 22242 C 2124.26 1.92015 2.79255 0
M  V30 22243 C 2123.44 3.22285 2.95722 0
M  V30 22244 C 2122.5 3.24014 4.1461 0
M  V30 22245 O 2121.52 3.97608 4.07304 0
M  V30 22246 N 2122.72 2.48493 5.24625 0
M  V30 22247 H 2125.49 2.75284 1.18485 0
M  V30 22248 H 2123.05 1.53861 0.503813 0
M  V30 22249 H 2125.04 1.90589 3.57013 0
M  V30 22250 H 2123.61 1.04647 2.94564 0
M  V30 22251 H 2122.83 3.36591 2.05183 0
M  V30 22252 H 2124.12 4.08276 3.03625 0
M  V30 22253 H 2123.52 1.88309 5.33438 0
M  V30 22254 H 2122.07 2.52834 6.00765 0
M  V30 22255 N 2125.51 -0.576345 1.46683 0
M  V30 22256 C 2126.76 -1.33168 1.52022 0
M  V30 22257 C 2127.08 -1.94204 0.17606 0
M  V30 22258 O 2126.35 -1.78907 -0.798069 0
M  V30 22259 H 2124.93 -0.494459 0.559928 0
M  V30 22260 H 2127.59 -0.674503 1.82856 0
M  V30 22261 H 2126.68 -2.13511 2.27638 0
M  V30 22262 N 2126.99 -1.34495 -0.82151 0
M  V30 22263 C 2127.94 -1.22742 -1.92142 0
M  V30 22264 C 2128.92 -0.126123 -1.60405 0
M  V30 22265 O 2130.11 -0.355922 -1.73385 0
M  V30 22266 C 2127.24 -0.986497 -3.28821 0
M  V30 22267 C 2126.33 -2.13102 -3.66672 0
M  V30 22268 N 2126.72 -3.38231 -3.76076 0
M  V30 22269 C 2125.02 -2.04158 -3.96529 0
M  V30 22270 C 2125.72 -4.13403 -4.09234 0
M  V30 22271 N 2124.69 -3.42009 -4.22529 0
M  V30 22272 H 2128.49 -2.17564 -1.97593 0
M  V30 22273 H 2126.01 -1.26753 -1.01525 0
M  V30 22274 H 2128.01 -0.883199 -4.07437 0
M  V30 22275 H 2126.67 -0.0469712 -3.24666 0
M  V30 22276 H 2127.68 -3.72767 -3.59534 0
M  V30 22277 H 2124.35 -1.17971 -4.00486 0
M  V30 22278 H 2125.74 -5.21465 -4.23702 0
M  V30 22279 N 2128.46 1.04188 -1.18248 0
M  V30 22280 C 2129.74 1.74344 -0.886757 0
M  V30 22281 C 2130.12 2.02074 0.610675 0
M  V30 22282 O 2129.47 1.66492 1.56501 0
M  V30 22283 C 2129.68 3.02952 -1.73267 0
M  V30 22284 C 2131.03 3.76712 -1.95892 0
M  V30 22285 O 2132.05 3.12847 -1.70309 0
M  V30 22286 O 2130.91 4.91493 -2.38949 0
M  V30 22287 H 2128 0.758616 -0.329288 0
M  V30 22288 H 2130.55 1.10265 -1.28995 0
M  V30 22289 H 2129.32 2.78587 -2.74782 0
M  V30 22290 H 2128.95 3.7477 -1.3279 0
M  V30 22291 N 2129.94 0.98432 1.23081 0
M  V30 22292 C 2130.87 0.547274 2.26996 0
M  V30 22293 C 2131.85 -0.421528 1.64794 0
M  V30 22294 O 2133.04 -0.314036 1.91644 0
M  V30 22295 C 2130.17 -0.147283 3.46988 0
M  V30 22296 C 2129.12 0.739194 4.21568 0
M  V30 22297 C 2128.45 -0.0877981 5.34628 0
M  V30 22298 C 2129.75 2.03191 4.81156 0
M  V30 22299 H 2131.44 1.41586 2.63806 0
M  V30 22300 H 2128.99 0.682245 1.26813 0
M  V30 22301 H 2130.94 -0.464368 4.18834 0
M  V30 22302 H 2129.67 -1.05035 3.09249 0
M  V30 22303 H 2128.32 1.03979 3.51545 0
M  V30 22304 H 2127.97 -0.99152 4.93131 0
M  V30 22305 H 2127.67 0.50225 5.8545 0
M  V30 22306 H 2129.2 -0.399175 6.09294 0
M  V30 22307 H 2130.61 1.77933 5.44989 0
M  V30 22308 H 2129.01 2.57006 5.4228 0
M  V30 22309 H 2130.08 2.71622 4.01684 0
M  V30 22310 N 2131.42 -1.38259 0.756453 0
M  V30 22311 C 2132.35 -2.28063 0.0790225 0
M  V30 22312 C 2133.33 -1.45527 -0.725303 0
M  V30 22313 O 2134.52 -1.74887 -0.703322 0
M  V30 22314 C 2131.64 -3.26666 -0.894813 0
M  V30 22315 C 2130.69 -4.26135 -0.176369 0
M  V30 22316 S 2131.52 -5.23552 1.12487 0
M  V30 22317 C 2132.68 -6.2571 0.154178 0
M  V30 22318 H 2132.91 -2.8517 0.840546 0
M  V30 22319 H 2130.44 -1.44304 0.549161 0
M  V30 22320 H 2132.4 -3.83988 -1.45133 0
M  V30 22321 H 2131.06 -2.68536 -1.62933 0
M  V30 22322 H 2130.26 -4.95642 -0.914031 0
M  V30 22323 H 2129.86 -3.72724 0.308705 0
M  V30 22324 H 2132.15 -6.74091 -0.678828 0
M  V30 22325 H 2133.09 -7.03371 0.816992 0
M  V30 22326 H 2133.5 -5.6404 -0.227796 0
M  V30 22327 N 2132.9 -0.505757 -1.49264 0
M  V30 22328 C 2134.15 0.0369987 -2.02066 0
M  V30 22329 C 2134.47 1.37044 -1.38723 0
M  V30 22330 O 2133.74 1.8819 -0.544182 0
M  V30 22331 H 2132.32 0.0166628 -0.746814 0
M  V30 22332 H 2134.98 -0.66408 -1.83238 0
M  V30 22333 H 2134.08 0.163179 -3.11673 0
M  V30 22334 N 2134.38 1.55765 -0.239796 0
M  V30 22335 C 2135.6 2.03618 0.394243 0
M  V30 22336 C 2136.03 1.1181 1.51261 0
M  V30 22337 O 2135.38 0.1097 1.80968 0
M  V30 22338 C 2135.43 3.49545 0.886029 0
M  V30 22339 O 2134.54 3.60872 1.99613 0
M  V30 22340 H 2133.88 0.658289 0.0869012 0
M  V30 22341 H 2136.41 2.0134 -0.363774 0
M  V30 22342 H 2136.42 3.90226 1.1911 0
M  V30 22343 H 2135.09 4.15845 0.0675883 0
M  V30 22344 H 2133.67 3.32085 1.6963 0
M  V30 22345 N 2135.85 -0.0334016 1.57565 0
M  V30 22346 C 2137.1 -0.726157 1.89354 0
M  V30 22347 C 2137.43 -1.75237 0.837002 0
M  V30 22348 O 2136.71 -1.93933 -0.148452 0
M  V30 22349 C 2136.99 -1.39963 3.31787 0
M  V30 22350 C 2136.84 -0.387227 4.4813 0
M  V30 22351 C 2138.16 -2.33475 3.73065 0
M  V30 22352 H 2135.28 -0.262518 0.688661 0
M  V30 22353 H 2137.92 0.0110285 1.89997 0
M  V30 22354 H 2136.07 -2.02797 3.31369 0
M  V30 22355 H 2137.75 0.238867 4.60681 0
M  V30 22356 H 2135.99 0.293911 4.32803 0
M  V30 22357 H 2136.66 -0.896846 5.44666 0
M  V30 22358 H 2139.14 -1.80688 3.74822 0
M  V30 22359 H 2138.01 -2.7758 4.73541 0
M  V30 22360 H 2138.27 -3.19962 3.05085 0
M  V30 22361 N 2137.33 -1.54609 -0.305591 0
M  V30 22362 C 2138.56 -1.77658 -1.06044 0
M  V30 22363 C 2138.98 -0.533827 -1.81096 0
M  V30 22364 O 2138.33 0.496175 -1.75626 0
M  V30 22365 C 2138.38 -2.98126 -2.04458 0
M  V30 22366 O 2138.1 -4.17598 -1.32452 0
M  V30 22367 C 2139.61 -3.33527 -2.92018 0
M  V30 22368 H 2136.83 -0.592632 -0.314688 0
M  V30 22369 H 2139.37 -2.01547 -0.346258 0
M  V30 22370 H 2137.52 -2.76458 -2.71385 0
M  V30 22371 H 2137.94 -4.85485 -1.98506 0
M  V30 22372 H 2139.41 -4.21074 -3.56932 0
M  V30 22373 H 2139.89 -2.5148 -3.60076 0
M  V30 22374 H 2140.5 -3.57338 -2.30628 0
M  V30 22375 N 2138.81 0.568558 -1.46987 0
M  V30 22376 C 2139.74 1.68651 -1.61491 0
M  V30 22377 C 2140.72 1.63629 -0.464706 0
M  V30 22378 O 2141.91 1.81427 -0.692676 0
M  V30 22379 C 2139.04 3.07294 -1.61826 0
M  V30 22380 C 2137.99 3.27156 -2.75959 0
M  V30 22381 C 2137.32 4.6647 -2.61361 0
M  V30 22382 C 2138.62 3.13623 -4.17658 0
M  V30 22383 H 2140.31 1.56769 -2.55076 0
M  V30 22384 H 2137.86 0.752771 -1.22757 0
M  V30 22385 H 2139.81 3.85338 -1.70565 0
M  V30 22386 H 2138.53 3.20108 -0.647937 0
M  V30 22387 H 2137.19 2.51516 -2.66712 0
M  V30 22388 H 2136.84 4.76069 -1.62381 0
M  V30 22389 H 2136.54 4.8071 -3.37923 0
M  V30 22390 H 2138.06 5.46664 -2.72012 0
M  V30 22391 H 2139.48 3.81497 -4.27941 0
M  V30 22392 H 2137.88 3.39378 -4.94917 0
M  V30 22393 H 2138.95 2.10514 -4.3682 0
M  V30 22394 N 2140.29 1.34929 0.814366 0
M  V30 22395 C 2141.57 1.18339 1.55741 0
M  V30 22396 C 2141.95 -0.240616 2.09724 0
M  V30 22397 O 2141.29 -1.2431 1.91727 0
M  V30 22398 C 2141.5 2.24503 2.67206 0
M  V30 22399 C 2142.85 2.59917 3.35751 0
M  V30 22400 O 2143.88 2.23358 2.7747 0
M  V30 22401 O 2142.73 3.22749 4.41017 0
M  V30 22402 H 2139.83 0.459265 0.687753 0
M  V30 22403 H 2142.37 1.46587 0.854999 0
M  V30 22404 H 2141.15 3.20048 2.25133 0
M  V30 22405 H 2140.77 1.9748 3.4509 0
M  V30 22406 N 2141.77 -1.0356 1.18799 0
M  V30 22407 C 2142.72 -2.10017 0.887509 0
M  V30 22408 C 2143.7 -1.60246 -0.144893 0
M  V30 22409 O 2144.89 -1.76899 0.0598609 0
M  V30 22410 C 2142.02 -3.40714 0.420603 0
M  V30 22411 C 2141.11 -3.97238 1.48536 0
M  V30 22412 N 2141.5 -4.27511 2.70312 0
M  V30 22413 C 2139.8 -4.2517 1.34707 0
M  V30 22414 C 2140.5 -4.72815 3.38852 0
M  V30 22415 N 2139.47 -4.73939 2.66239 0
M  V30 22416 H 2143.28 -2.31306 1.81313 0
M  V30 22417 H 2140.79 -1.21359 1.07915 0
M  V30 22418 H 2142.79 -4.16481 0.186818 0
M  V30 22419 H 2141.45 -3.20849 -0.498622 0
M  V30 22420 H 2142.46 -4.17 3.07134 0
M  V30 22421 H 2139.13 -4.14605 0.490787 0
M  V30 22422 H 2140.52 -5.05215 4.42953 0
M  V30 22423 N 2143.25 -0.990834 -1.22557 0
M  V30 22424 C 2144.49 -0.665533 -1.91251 0
M  V30 22425 C 2144.82 0.802172 -1.77188 0
M  V30 22426 O 2144.08 1.5954 -1.13339 0
M  V30 22427 C 2144.37 -1.01474 -3.42692 0
M  V30 22428 C 2144.04 -2.47437 -3.76943 0
M  V30 22429 C 2142.7 -2.87325 -3.86002 0
M  V30 22430 C 2145.05 -3.42055 -3.93253 0
M  V30 22431 C 2142.38 -4.20825 -4.08807 0
M  V30 22432 C 2144.73 -4.75211 -4.17561 0
M  V30 22433 C 2143.4 -5.14843 -4.24844 0
M  V30 22434 H 2142.67 -0.243536 -0.699837 0
M  V30 22435 H 2145.32 -1.24664 -1.45366 0
M  V30 22436 H 2143.62 -0.351686 -3.90218 0
M  V30 22437 H 2145.32 -0.741104 -3.94092 0
M  V30 22438 H 2141.91 -2.15518 -3.70473 0
M  V30 22439 H 2146.09 -3.1241 -3.85634 0
M  V30 22440 H 2141.35 -4.51123 -4.12672 0
M  V30 22441 H 2145.52 -5.48475 -4.29125 0
M  V30 22442 H 2143.15 -6.18306 -4.42268 0
M  V30 22443 N 2144.72 1.37856 -0.763775 0
M  V30 22444 C 2145.97 1.99488 -0.323855 0
M  V30 22445 C 2146.29 1.60934 1.10115 0
M  V30 22446 O 2145.56 0.870985 1.75473 0
M  V30 22447 H 2144.14 0.73782 -0.116753 0
M  V30 22448 H 2146.8 1.68462 -0.980132 0
M  V30 22449 H 2145.9 3.09589 -0.395113 0
M  V30 22450 N 2146.2 0.513665 1.48994 0
M  V30 22451 C 2147.11 -0.262214 2.3313 0
M  V30 22452 C 2148.13 -0.955024 1.45449 0
M  V30 22453 O 2149.3 -0.933603 1.78454 0
M  V30 22454 C 2146.37 -1.30529 3.2119 0
M  V30 22455 C 2145.43 -0.624574 4.24732 0
M  V30 22456 C 2144.66 -1.61795 5.08584 0
M  V30 22457 O 2144.89 -2.84907 4.9415 0
M  V30 22458 O 2143.82 -1.16631 5.90492 0
M  V30 22459 H 2147.65 0.426785 3.00686 0
M  V30 22460 H 2145.23 0.274809 1.46851 0
M  V30 22461 H 2147.11 -1.90848 3.75706 0
M  V30 22462 H 2145.79 -1.97699 2.56314 0
M  V30 22463 H 2144.69 0.0186867 3.74095 0
M  V30 22464 H 2146.03 0.00489798 4.922 0
M  V30 22465 N 2147.68 -1.55636 0.248053 0
M  V30 22466 C 2148.93 -1.99266 -0.376927 0
M  V30 22467 C 2149.26 -1.13602 -1.57506 0
M  V30 22468 O 2148.53 -0.199686 -1.93472 0
M  V30 22469 C 2148.82 -3.51425 -0.785664 0
M  V30 22470 C 2148.67 -4.47854 0.417942 0
M  V30 22471 C 2149.99 -4.08714 -1.63221 0
M  V30 22472 H 2147.11 -0.724431 -0.135531 0
M  V30 22473 H 2149.75 -1.86756 0.349594 0
M  V30 22474 H 2147.9 -3.62216 -1.40469 0
M  V30 22475 H 2149.57 -4.49041 1.05638 0
M  V30 22476 H 2147.81 -4.20629 1.06084 0
M  V30 22477 H 2148.49 -5.51929 0.0886002 0
M  V30 22478 H 2150.96 -4.01031 -1.10966 0
M  V30 22479 H 2149.84 -5.15443 -1.88706 0
M  V30 22480 H 2150.1 -3.57242 -2.60443 0
M  V30 22481 N 2149.16 0.0250451 -1.5758 0
M  V30 22482 C 2150.57 0.571131 -1.7775 0
M  V30 22483 C 2150.92 1.75376 -0.879637 0
M  V30 22484 O 2150.04 2.16268 -0.0755171 0
M  V30 22485 C 2150.64 1.04287 -3.2235 0
M  V30 22486 C 2149.2 1.53444 -3.43703 0
M  V30 22487 C 2148.35 0.474313 -2.73213 0
M  V30 22488 H 2151.3 -0.201177 -1.5742 0
M  V30 22489 H 2151.32 1.91005 -3.29085 0
M  V30 22490 H 2150.83 0.181922 -3.87673 0
M  V30 22491 H 2148.93 2.41711 -2.83561 0
M  V30 22492 H 2149.04 1.57917 -4.52326 0
M  V30 22493 H 2147.41 0.93027 -2.37103 0
M  V30 22494 H 2148.19 -0.377237 -3.41221 0
M  V30 22495 N 2150.64 1.54769 0.297388 0
M  V30 22496 C 2151.88 1.73877 1.0301 0
M  V30 22497 C 2152.2 0.529442 1.87675 0
M  V30 22498 O 2151.47 -0.456215 1.90514 0
M  V30 22499 H 2150.05 0.641155 0.383313 0
M  V30 22500 H 2152.72 1.92129 0.3275 0
M  V30 22501 H 2151.81 2.62953 1.68113 0
M  V30 22502 N 2152.11 -0.560755 1.47286 0
M  V30 22503 C 2153.36 -1.31548 1.53426 0
M  V30 22504 C 2153.68 -1.94006 0.196648 0
M  V30 22505 O 2152.95 -1.79743 -0.779049 0
M  V30 22506 H 2151.53 -0.488493 0.565141 0
M  V30 22507 H 2154.19 -0.655071 1.83562 0
M  V30 22508 H 2153.29 -2.11085 2.2989 0
M  V30 22509 N 2153.59 -1.35359 -0.807199 0
M  V30 22510 C 2155 -1.25624 -1.38114 0
M  V30 22511 C 2155.35 0.11163 -1.95882 0
M  V30 22512 O 2154.48 1.01256 -1.91249 0
M  V30 22513 C 2155.07 -2.27464 -2.51088 0
M  V30 22514 C 2153.63 -2.21472 -3.04347 0
M  V30 22515 C 2152.78 -2.13208 -1.77307 0
M  V30 22516 H 2155.73 -1.46496 -0.610285 0
M  V30 22517 H 2155.75 -1.90077 -3.29623 0
M  V30 22518 H 2155.26 -3.27009 -2.09014 0
M  V30 22519 H 2153.36 -1.25336 -3.50887 0
M  V30 22520 H 2153.48 -3.13409 -3.6237 0
M  V30 22521 H 2151.84 -1.59176 -1.98834 0
M  V30 22522 H 2152.62 -3.14611 -1.37385 0
M  V30 22523 N 2155.07 1.02928 -1.19346 0
M  V30 22524 C 2156.03 2.09361 -0.932765 0
M  V30 22525 C 2157.03 1.60567 0.086582 0
M  V30 22526 O 2158.22 1.73569 -0.148116 0
M  V30 22527 C 2155.35 3.38524 -0.401767 0
M  V30 22528 H 2156.55 2.33922 -1.87671 0
M  V30 22529 H 2154.1 1.19532 -1.00707 0
M  V30 22530 H 2154.84 3.19632 0.548245 0
M  V30 22531 H 2154.62 3.75261 -1.13672 0
M  V30 22532 H 2156.11 4.16919 -0.238443 0
M  V30 22533 N 2156.55 0.997319 1.2203 0
M  V30 22534 C 2157.96 0.708807 1.42997 0
M  V30 22535 C 2158.16 -0.718903 1.88239 0
M  V30 22536 O 2157.22 -1.48925 2.03906 0
M  V30 22537 C 2158.53 1.71814 2.4678 0
M  V30 22538 C 2160.08 1.73408 2.60573 0
M  V30 22539 C 2160.56 2.73216 3.67582 0
M  V30 22540 N 2162.05 2.71837 3.75045 0
M  V30 22541 C 2162.78 3.45728 4.57449 0
M  V30 22542 N 2162.28 4.29233 5.43811 0
M  V30 22543 N 2164.07 3.34413 4.51801 0
M  V30 22544 H 2156.22 1.91932 0.909709 0
M  V30 22545 H 2158.48 0.828004 0.461642 0
M  V30 22546 H 2158.19 2.74 2.20492 0
M  V30 22547 H 2158.06 1.51457 3.45457 0
M  V30 22548 H 2160.45 0.719178 2.86202 0
M  V30 22549 H 2160.53 1.97835 1.62157 0
M  V30 22550 H 2160.18 3.74859 3.427 0
M  V30 22551 H 2160.11 2.46058 4.65578 0
M  V30 22552 H 2162.6 2.11248 3.13341 0
M  V30 22553 H 2162.91 4.82429 6.03723 0
M  V30 22554 H 2161.26 4.33319 5.43378 0
M  V30 22555 H 2164.45 2.68614 3.83359 0
M  V30 22556 H 2164.62 3.92257 5.15789 0
M  V30 22557 N 2158.03 -1.37449 0.771075 0
M  V30 22558 C 2158.99 -2.28619 0.163149 0
M  V30 22559 C 2159.99 -1.47996 -0.628787 0
M  V30 22560 O 2161.18 -1.68221 -0.452475 0
M  V30 22561 C 2158.31 -3.31942 -0.776372 0
M  V30 22562 H 2159.5 -2.83888 0.966816 0
M  V30 22563 H 2157.06 -1.46703 0.53924 0
M  V30 22564 H 2157.79 -2.81794 -1.60507 0
M  V30 22565 H 2157.58 -3.91534 -0.210683 0
M  V30 22566 H 2159.07 -4.00072 -1.19717 0
M  V30 22567 N 2159.5 -0.52156 -1.4872 0
M  V30 22568 C 2160.73 0.013899 -2.07395 0
M  V30 22569 C 2161.15 1.28175 -1.37669 0
M  V30 22570 O 2160.51 1.75882 -0.439921 0
M  V30 22571 C 2160.56 0.229553 -3.59869 0
M  V30 22572 O 2159.66 1.30002 -3.91374 0
M  V30 22573 H 2159.01 -0.0353734 -0.663057 0
M  V30 22574 H 2161.54 -0.727065 -1.91246 0
M  V30 22575 H 2161.55 0.454795 -4.05457 0
M  V30 22576 H 2160.22 -0.696653 -4.10024 0
M  V30 22577 H 2158.8 1.0581 -3.57573 0
M  V30 22578 N 2160.98 1.55502 -0.256304 0
M  V30 22579 C 2161.91 2.19122 0.672174 0
M  V30 22580 C 2162.93 1.17029 1.13172 0
M  V30 22581 O 2164.12 1.43849 1.05687 0
M  V30 22582 C 2161.22 2.78814 1.92655 0
M  V30 22583 C 2160.39 4.06417 1.6169 0
M  V30 22584 C 2159.45 4.50337 2.72182 0
M  V30 22585 O 2158.47 5.16515 2.39167 0
M  V30 22586 N 2159.68 4.18905 4.01869 0
M  V30 22587 H 2162.44 2.99428 0.127769 0
M  V30 22588 H 2160 1.61719 -0.0766386 0
M  V30 22589 H 2161.99 3.05149 2.65831 0
M  V30 22590 H 2160.56 2.02611 2.38049 0
M  V30 22591 H 2159.78 3.87571 0.719867 0
M  V30 22592 H 2161.07 4.89593 1.38479 0
M  V30 22593 H 2160.47 3.65795 4.31521 0
M  V30 22594 H 2159.03 4.50054 4.71481 0
M  V30 22595 N 2162.46 -0.0166879 1.57591 0
M  V30 22596 C 2163.71 -0.703596 1.89457 0
M  V30 22597 C 2164.03 -1.75229 0.855563 0
M  V30 22598 O 2163.3 -1.95595 -0.109241 0
M  V30 22599 H 2161.88 -0.262861 0.699223 0
M  V30 22600 H 2164.54 0.0202908 1.94889 0
M  V30 22601 H 2163.64 -1.18538 2.88713 0
M  V30 22602 N 2163.94 -1.54924 -0.289176 0
M  V30 22603 C 2165.35 -1.46402 -0.635496 0
M  V30 22604 C 2165.55 -0.664874 -1.90215 0
M  V30 22605 O 2164.61 -0.17727 -2.51877 0
M  V30 22606 C 2165.92 -2.90475 -0.777494 0
M  V30 22607 C 2167.47 -3.0059 -0.872609 0
M  V30 22608 C 2167.95 -4.45884 -1.04651 0
M  V30 22609 N 2169.44 -4.49643 -1.11243 0
M  V30 22610 C 2170.17 -5.59261 -1.2655 0
M  V30 22611 N 2169.67 -6.78778 -1.38679 0
M  V30 22612 N 2171.46 -5.46972 -1.29532 0
M  V30 22613 H 2163.61 -2.05345 0.542893 0
M  V30 22614 H 2165.88 -0.930495 0.181335 0
M  V30 22615 H 2165.58 -3.51603 0.0825272 0
M  V30 22616 H 2165.46 -3.3857 -1.66284 0
M  V30 22617 H 2167.84 -2.39568 -1.72311 0
M  V30 22618 H 2167.92 -2.55773 0.0370062 0
M  V30 22619 H 2167.57 -5.07503 -0.200734 0
M  V30 22620 H 2167.5 -4.88342 -1.97053 0
M  V30 22621 H 2169.99 -3.63543 -1.03175 0
M  V30 22622 H 2170.3 -7.58074 -1.50147 0
M  V30 22623 H 2168.65 -6.81621 -1.35713 0
M  V30 22624 H 2171.84 -4.52543 -1.19675 0
M  V30 22625 H 2172.01 -6.32448 -1.41117 0
M  V30 22626 N 2165.42 0.552936 -1.47582 0
M  V30 22627 C 2166.33 1.68696 -1.6303 0
M  V30 22628 C 2167.34 1.66263 -0.513075 0
M  V30 22629 O 2168.52 1.85633 -0.781171 0
M  V30 22630 C 2165.58 3.05197 -1.64486 0
M  V30 22631 C 2164.64 3.18664 -2.87666 0
M  V30 22632 C 2163.88 4.48653 -2.89043 0
M  V30 22633 O 2164.1 5.34372 -1.99506 0
M  V30 22634 O 2163.03 4.66001 -3.80955 0
M  V30 22635 H 2166.86 1.58604 -2.58995 0
M  V30 22636 H 2164.45 0.723431 -1.30717 0
M  V30 22637 H 2166.33 3.86421 -1.68098 0
M  V30 22638 H 2165 3.15662 -0.716893 0
M  V30 22639 H 2163.91 2.36821 -2.89597 0
M  V30 22640 H 2165.24 3.13105 -3.79771 0
M  V30 22641 N 2166.89 1.35785 0.800009 0
M  V30 22642 C 2168.14 1.29617 1.55972 0
M  V30 22643 C 2168.47 -0.12735 1.93782 0
M  V30 22644 O 2167.75 -1.07828 1.61875 0
M  V30 22645 C 2168.03 2.2089 2.84393 0
M  V30 22646 C 2167.88 3.7189 2.53018 0
M  V30 22647 C 2169.2 2.11141 3.86145 0
M  V30 22648 H 2166.32 0.472177 0.565878 0
M  V30 22649 H 2168.96 1.66245 0.919932 0
M  V30 22650 H 2167.11 1.89784 3.3899 0
M  V30 22651 H 2168.79 4.13468 2.04553 0
M  V30 22652 H 2167.03 3.91847 1.86114 0
M  V30 22653 H 2167.7 4.3115 3.44693 0
M  V30 22654 H 2170.18 2.38498 3.40966 0
M  V30 22655 H 2169.05 2.77192 4.73768 0
M  V30 22656 H 2169.31 1.09538 4.28315 0
M  V30 22657 N 2168.37 -1.02294 1.19891 0
M  V30 22658 C 2169.3 -2.108 0.899788 0
M  V30 22659 C 2170.32 -1.62429 -0.109916 0
M  V30 22660 O 2171.51 -1.78094 0.120276 0
M  V30 22661 C 2168.61 -3.37325 0.326304 0
M  V30 22662 C 2167.78 -4.1486 1.38601 0
M  V30 22663 C 2166.84 -5.19693 0.824993 0
M  V30 22664 O 2165.86 -5.48966 1.50415 0
M  V30 22665 N 2167.07 -5.79328 -0.36876 0
M  V30 22666 H 2169.83 -2.37048 1.8338 0
M  V30 22667 H 2167.39 -1.18633 1.10172 0
M  V30 22668 H 2169.38 -4.04651 -0.0629984 0
M  V30 22669 H 2167.95 -3.08377 -0.512119 0
M  V30 22670 H 2167.17 -3.42596 1.94991 0
M  V30 22671 H 2168.46 -4.63446 2.09989 0
M  V30 22672 H 2167.86 -5.57871 -0.93792 0
M  V30 22673 H 2166.42 -6.48033 -0.699773 0
M  V30 22674 N 2169.85 -1.00378 -1.21499 0
M  V30 22675 C 2171.1 -0.696478 -1.91104 0
M  V30 22676 C 2171.45 0.764296 -1.76568 0
M  V30 22677 O 2170.74 1.54673 -1.13079 0
M  V30 22678 C 2170.94 -1.05103 -3.41596 0
M  V30 22679 C 2170.77 -2.54472 -3.70775 0
M  V30 22680 C 2169.54 -3.21053 -3.90196 0
M  V30 22681 C 2171.74 -3.52627 -3.74378 0
M  V30 22682 N 2169.72 -4.59786 -4.0678 0
M  V30 22683 C 2171.09 -4.76865 -3.96232 0
M  V30 22684 C 2173.14 -3.4678 -3.57278 0
M  V30 22685 C 2171.85 -5.95966 -4.02761 0
M  V30 22686 C 2173.87 -4.6527 -3.65072 0
M  V30 22687 C 2173.23 -5.88312 -3.87387 0
M  V30 22688 H 2169.33 -0.306317 -0.71951 0
M  V30 22689 H 2171.92 -1.286 -1.46185 0
M  V30 22690 H 2170.09 -0.489974 -3.85297 0
M  V30 22691 H 2171.82 -0.698593 -3.98625 0
M  V30 22692 H 2168.58 -2.715 -3.88053 0
M  V30 22693 H 2169 -5.31777 -4.18977 0
M  V30 22694 H 2173.64 -2.5266 -3.39003 0
M  V30 22695 H 2171.36 -6.9048 -4.19837 0
M  V30 22696 H 2174.95 -4.62348 -3.53165 0
M  V30 22697 H 2173.83 -6.78466 -3.9326 0
M  V30 22698 N 2171.33 1.37038 -0.778354 0
M  V30 22699 C 2172.26 2.28847 -0.127244 0
M  V30 22700 C 2173.27 1.48951 0.657071 0
M  V30 22701 O 2174.46 1.71526 0.494075 0
M  V30 22702 C 2171.56 3.28242 0.843228 0
M  V30 22703 C 2170.74 4.37258 0.111327 0
M  V30 22704 C 2169.79 5.16685 0.996125 0
M  V30 22705 O 2168.82 5.67359 0.457454 0
M  V30 22706 N 2170.02 5.32051 2.32167 0
M  V30 22707 H 2172.79 2.85364 -0.915817 0
M  V30 22708 H 2170.35 1.49085 -0.631281 0
M  V30 22709 H 2172.34 3.78263 1.43873 0
M  V30 22710 H 2170.91 2.72445 1.53273 0
M  V30 22711 H 2170.13 3.88548 -0.66515 0
M  V30 22712 H 2171.42 5.07271 -0.394155 0
M  V30 22713 H 2170.82 4.92476 2.78358 0
M  V30 22714 H 2169.37 5.85356 2.86708 0
M  V30 22715 N 2172.81 0.529439 1.48441 0
M  V30 22716 C 2174.05 -0.00486384 2.02799 0
M  V30 22717 C 2174.39 -1.33985 1.40576 0
M  V30 22718 O 2173.66 -1.86523 0.551326 0
M  V30 22719 C 2173.94 -0.127443 3.59874 0
M  V30 22720 C 2173.8 1.23268 4.3258 0
M  V30 22721 C 2175.12 -0.854486 4.31725 0
M  V30 22722 H 2172.24 -0.00029358 0.737 0
M  V30 22723 H 2174.88 0.686364 1.7717 0
M  V30 22724 H 2173.03 -0.716153 3.81842 0
M  V30 22725 H 2174.7 1.86245 4.22031 0
M  V30 22726 H 2172.94 1.8147 3.94019 0
M  V30 22727 H 2173.61 1.09991 5.40931 0
M  V30 22728 H 2176.09 -0.354911 4.14584 0
M  V30 22729 H 2174.97 -0.909151 5.41318 0
M  V30 22730 H 2175.23 -1.90464 3.98968 0
M  V30 22731 N 2174.29 -1.55364 0.264547 0
M  V30 22732 C 2175.53 -1.9936 -0.355245 0
M  V30 22733 C 2175.86 -1.15288 -1.56649 0
M  V30 22734 O 2175.12 -0.207938 -1.94592 0
M  V30 22735 C 2175.41 -3.48523 -0.791605 0
M  V30 22736 C 2175.08 -4.49807 0.313834 0
M  V30 22737 C 2173.74 -4.77223 0.617396 0
M  V30 22738 C 2176.09 -5.10323 1.05925 0
M  V30 22739 C 2173.42 -5.62426 1.67014 0
M  V30 22740 C 2175.77 -5.96669 2.10163 0
M  V30 22741 C 2174.44 -6.22411 2.41165 0
M  V30 22742 H 2173.71 -0.729509 -0.129993 0
M  V30 22743 H 2176.36 -1.87771 0.376055 0
M  V30 22744 H 2174.66 -3.57534 -1.60241 0
M  V30 22745 H 2176.36 -3.79964 -1.28173 0
M  V30 22746 H 2172.95 -4.28547 0.0671074 0
M  V30 22747 H 2177.13 -4.89174 0.837979 0
M  V30 22748 H 2172.39 -5.8062 1.91547 0
M  V30 22749 H 2176.56 -6.42598 2.68403 0
M  V30 22750 H 2174.19 -6.88226 3.22876 0
M  V30 22751 N 2175.76 0.00833021 -1.57598 0
M  V30 22752 C 2177.01 0.695941 -1.90485 0
M  V30 22753 C 2177.34 1.73883 -0.864775 0
M  V30 22754 O 2176.62 1.94144 0.11758 0
M  V30 22755 C 2176.9 1.34667 -3.33971 0
M  V30 22756 C 2176.75 0.315885 -4.48689 0
M  V30 22757 C 2178.07 2.2751 -3.76732 0
M  V30 22758 H 2175.19 0.251528 -0.69275 0
M  V30 22759 H 2177.83 -0.0412539 -1.89955 0
M  V30 22760 H 2175.98 1.975 -3.34553 0
M  V30 22761 H 2177.66 -0.312127 -4.60243 0
M  V30 22762 H 2175.9 -0.362729 -4.32281 0
M  V30 22763 H 2176.57 0.810081 -5.46024 0
M  V30 22764 H 2179.05 1.74702 -3.77649 0
M  V30 22765 H 2177.92 2.70011 -4.77897 0
M  V30 22766 H 2178.18 3.15068 -3.10136 0
M  V30 22767 N 2177.24 1.55075 0.280956 0
M  V30 22768 C 2178.65 1.66097 0.852571 0
M  V30 22769 C 2179 0.582747 1.87346 0
M  V30 22770 O 2178.13 -0.277166 2.14618 0
M  V30 22771 C 2178.72 3.01102 1.55317 0
M  V30 22772 C 2177.28 3.14177 2.07292 0
M  V30 22773 C 2176.43 2.61864 0.912278 0
M  V30 22774 H 2179.38 1.58596 0.0574834 0
M  V30 22775 H 2179.4 2.93646 2.41976 0
M  V30 22776 H 2178.91 3.79555 0.809903 0
M  V30 22777 H 2177.01 2.40482 2.84604 0
M  V30 22778 H 2177.13 4.20627 2.29369 0
M  V30 22779 H 2175.49 2.1882 1.30345 0
M  V30 22780 H 2176.27 3.42814 0.18265 0
M  V30 22781 N 2178.72 -0.545102 1.47873 0
M  V30 22782 C 2179.94 -1.33162 1.59005 0
M  V30 22783 C 2180.37 -1.86498 0.245004 0
M  V30 22784 O 2179.73 -1.63614 -0.781037 0
M  V30 22785 C 2179.78 -2.46898 2.62819 0
M  V30 22786 O 2178.88 -3.49491 2.1893 0
M  V30 22787 H 2178.22 -0.395031 0.53371 0
M  V30 22788 H 2180.75 -0.657518 1.93747 0
M  V30 22789 H 2180.76 -2.93298 2.8362 0
M  V30 22790 H 2179.44 -2.07436 3.60476 0
M  V30 22791 H 2178.01 -3.09312 2.08279 0
M  V30 22792 N 2180.2 -1.36208 -0.792797 0
M  V30 22793 C 2181.16 -1.30111 -1.88689 0
M  V30 22794 C 2182.16 -0.209535 -1.59429 0
M  V30 22795 O 2183.35 -0.464108 -1.67904 0
M  V30 22796 C 2180.48 -1.01615 -3.25403 0
M  V30 22797 H 2181.68 -2.2741 -1.95511 0
M  V30 22798 H 2179.23 -1.20931 -0.990219 0
M  V30 22799 H 2179.96 -0.0476043 -3.24265 0
M  V30 22800 H 2179.75 -1.80604 -3.48029 0
M  V30 22801 H 2181.24 -0.999458 -4.05463 0
M  V30 22802 N 2181.68 1.01656 -1.20431 0
M  V30 22803 C 2182.59 2.13658 -0.968877 0
M  V30 22804 C 2183.6 1.73837 0.075256 0
M  V30 22805 O 2184.78 2.01087 -0.112194 0
M  V30 22806 C 2181.84 3.42716 -0.524052 0
M  V30 22807 C 2180.9 3.9678 -1.63904 0
M  V30 22808 C 2180.14 5.19678 -1.21534 0
M  V30 22809 O 2180.36 5.70338 -0.0840508 0
M  V30 22810 O 2179.29 5.66893 -2.02278 0
M  V30 22811 H 2183.12 2.3639 -1.90666 0
M  V30 22812 H 2180.7 1.1205 -0.98819 0
M  V30 22813 H 2182.59 4.20434 -0.285221 0
M  V30 22814 H 2181.26 3.21401 0.385143 0
M  V30 22815 H 2180.17 3.20341 -1.93215 0
M  V30 22816 H 2181.5 4.22484 -2.52524 0
M  V30 22817 N 2183.15 1.01021 1.20965 0
M  V30 22818 C 2184.38 0.714661 1.94698 0
M  V30 22819 C 2184.8 -0.717235 1.73889 0
M  V30 22820 O 2184.16 -1.49265 1.02906 0
M  V30 22821 C 2184.21 1.04769 3.45045 0
M  V30 22822 O 2183.31 0.155818 4.12106 0
M  V30 22823 H 2182.65 0.265768 0.608493 0
M  V30 22824 H 2185.18 1.35186 1.53577 0
M  V30 22825 H 2185.19 0.996722 3.95638 0
M  V30 22826 H 2183.87 2.09099 3.59514 0
M  V30 22827 H 2182.45 0.263764 3.71966 0
M  V30 22828 N 2184.63 -1.36623 0.78561 0
M  V30 22829 C 2186.05 -1.5262 0.466843 0
M  V30 22830 C 2186.25 -1.74044 -1.01543 0
M  V30 22831 O 2185.3 -1.76975 -1.801 0
M  V30 22832 C 2186.62 -2.71435 1.29398 0
M  V30 22833 C 2188.16 -2.85304 1.28728 0
M  V30 22834 C 2188.64 -4.07118 2.09807 0
M  V30 22835 N 2190.13 -4.14257 2.07233 0
M  V30 22836 C 2190.87 -5.0758 2.6674 0
M  V30 22837 N 2190.36 -6.06372 3.3509 0
M  V30 22838 N 2192.15 -5.00167 2.56494 0
M  V30 22839 H 2184.31 -1.20971 1.74585 0
M  V30 22840 H 2186.57 -0.590141 0.741915 0
M  V30 22841 H 2186.27 -2.62113 2.34498 0
M  V30 22842 H 2186.15 -3.65488 0.932654 0
M  V30 22843 H 2188.54 -2.94088 0.244207 0
M  V30 22844 H 2188.62 -1.92169 1.68834 0
M  V30 22845 H 2188.26 -3.99095 3.14143 0
M  V30 22846 H 2188.19 -4.99393 1.67074 0
M  V30 22847 H 2190.68 -3.43522 1.57483 0
M  V30 22848 H 2190.99 -6.74137 3.77836 0
M  V30 22849 H 2189.34 -6.06609 3.39191 0
M  V30 22850 H 2192.53 -4.21936 2.027 0
M  V30 22851 H 2192.7 -5.7271 3.03162 0
M  V30 22852 N 2186.11 -0.537304 -1.48158 0
M  V30 22853 C 2187.02 0.225092 -2.33518 0
M  V30 22854 C 2188.04 0.931763 -1.4695 0
M  V30 22855 O 2189.21 0.905094 -1.79917 0
M  V30 22856 C 2186.28 1.25403 -3.23226 0
M  V30 22857 C 2185.34 0.556924 -4.25672 0
M  V30 22858 C 2184.57 1.53684 -5.11094 0
M  V30 22859 O 2184.79 2.77009 -4.9862 0
M  V30 22860 O 2183.73 1.07222 -5.92273 0
M  V30 22861 H 2187.55 -0.474567 -2.99969 0
M  V30 22862 H 2185.14 -0.298137 -1.46395 0
M  V30 22863 H 2187.02 1.84847 -3.78695 0
M  V30 22864 H 2185.7 1.93596 -2.59427 0
M  V30 22865 H 2184.6 -0.0781996 -3.74018 0
M  V30 22866 H 2185.94 -0.0832021 -4.9213 0
M  V30 22867 N 2187.59 1.55221 -0.272782 0
M  V30 22868 C 2188.54 2.22436 0.615702 0
M  V30 22869 C 2189.51 1.19702 1.15155 0
M  V30 22870 O 2190.69 1.48236 1.20128 0
M  V30 22871 C 2187.83 2.94739 1.79507 0
M  V30 22872 C 2186.94 4.12186 1.2933 0
M  V30 22873 C 2186.08 4.7214 2.43429 0
M  V30 22874 C 2185.12 5.81785 1.90243 0
M  V30 22875 N 2184.25 6.35811 2.97806 0
M  V30 22876 H 2189.09 2.97978 0.0358746 0
M  V30 22877 H 2186.63 1.47099 0.00594098 0
M  V30 22878 H 2188.59 3.34874 2.48828 0
M  V30 22879 H 2187.22 2.21624 2.34697 0
M  V30 22880 H 2186.27 3.77188 0.493274 0
M  V30 22881 H 2187.58 4.91265 0.86373 0
M  V30 22882 H 2186.74 5.14982 3.20747 0
M  V30 22883 H 2185.48 3.92333 2.897 0
M  V30 22884 H 2184.48 5.38395 1.11404 0
M  V30 22885 H 2185.71 6.63459 1.4491 0
M  V30 22886 H 2183.65 5.589 3.43464 0
M  V30 22887 H 2183.57 7.10156 2.59258 0
M  V30 22888 H 2184.84 6.83312 3.75106 0
M  V30 22889 N 2189.07 2.77022e-05 1.576 0
M  V30 22890 C 2190 -0.990304 2.1146 0
M  V30 22891 C 2190.98 -1.35844 1.02374 0
M  V30 22892 O 2192.16 -1.44218 1.30057 0
M  V30 22893 C 2189.29 -2.28215 2.61792 0
M  V30 22894 C 2188.25 -2.05563 3.75404 0
M  V30 22895 C 2187.57 -3.40761 4.12051 0
M  V30 22896 C 2188.87 -1.4182 5.02677 0
M  V30 22897 H 2190.57 -0.541853 2.94456 0
M  V30 22898 H 2188.11 -0.259194 1.41648 0
M  V30 22899 H 2190.07 -2.97851 2.98099 0
M  V30 22900 H 2188.79 -2.75174 1.75918 0
M  V30 22901 H 2187.45 -1.38353 3.39491 0
M  V30 22902 H 2187.1 -3.85423 3.232 0
M  V30 22903 H 2186.8 -3.26421 4.88593 0
M  V30 22904 H 2188.32 -4.11712 4.50916 0
M  V30 22905 H 2189.73 -2.01413 5.36755 0
M  V30 22906 H 2188.13 -1.37967 5.84025 0
M  V30 22907 H 2189.2 -0.387421 4.8335 0
M  V30 22908 N 2190.54 -1.55222 -0.272728 0
M  V30 22909 C 2191.79 -1.75047 -1.00208 0
M  V30 22910 C 2192.11 -0.559079 -1.8744 0
M  V30 22911 O 2193.31 -0.639745 -2.63855 0
M  V30 22912 C 2191.77 -3.09808 -1.83159 0
M  V30 22913 C 2191.38 -4.36514 -1.00793 0
M  V30 22914 C 2193.12 -3.38981 -2.55523 0
M  V30 22915 C 2191.03 -5.62315 -1.83184 0
M  V30 22916 H 2189.96 -0.652482 -0.377866 0
M  V30 22917 H 2192.61 -1.81681 -0.257744 0
M  V30 22918 H 2190.99 -2.97212 -2.61689 0
M  V30 22919 H 2192.16 -4.60027 -0.266774 0
M  V30 22920 H 2190.48 -4.14486 -0.398824 0
M  V30 22921 H 2193.08 -4.30178 -3.17571 0
M  V30 22922 H 2193.42 -2.59126 -3.25821 0
M  V30 22923 H 2193.95 -3.52676 -1.84022 0
M  V30 22924 H 2190.69 -6.44918 -1.17306 0
M  V30 22925 H 2190.21 -5.42944 -2.54896 0
M  V30 22926 H 2191.89 -6.00624 -2.40542 0
M  V30 22927 N 2192.02 0.537252 -1.4816 0
M  V30 22928 C 2193.25 1.32317 -1.59709 0
M  V30 22929 C 2193.67 1.86365 -0.254891 0
M  V30 22930 O 2193.03 1.64026 0.772349 0
M  V30 22931 C 2193.08 2.45501 -2.64125 0
M  V30 22932 O 2192.18 3.48325 -2.2078 0
M  V30 22933 H 2191.52 0.392195 -0.535798 0
M  V30 22934 H 2194.05 0.647233 -1.94093 0
M  V30 22935 H 2194.06 2.9179 -2.85171 0
M  V30 22936 H 2192.74 2.05522 -3.61571 0
M  V30 22937 H 2191.32 3.08204 -2.09917 0
M  V30 22938 N 2193.5 1.36626 0.785562 0
M  V30 22939 C 2194.43 1.33953 1.91256 0
M  V30 22940 C 2195.41 0.210355 1.68794 0
M  V30 22941 O 2196.6 0.408594 1.89853 0
M  V30 22942 C 2193.73 1.13191 3.28337 0
M  V30 22943 C 2192.68 2.22974 3.65331 0
M  V30 22944 C 2192.01 1.87351 5.00803 0
M  V30 22945 C 2193.31 3.65082 3.73514 0
M  V30 22946 H 2195 2.28257 1.93751 0
M  V30 22947 H 2192.55 1.09876 0.930768 0
M  V30 22948 H 2194.5 1.09955 4.06802 0
M  V30 22949 H 2193.22 0.15339 3.2624 0
M  V30 22950 H 2191.88 2.25342 2.89165 0
M  V30 22951 H 2191.53 0.880632 4.95231 0
M  V30 22952 H 2191.23 2.60855 5.26525 0
M  V30 22953 H 2192.75 1.85677 5.81684 0
M  V30 22954 H 2194.17 3.64919 4.42162 0
M  V30 22955 H 2192.57 4.37523 4.10723 0
M  V30 22956 H 2193.64 3.99708 2.7452 0
M  V30 22957 N 2194.98 -1.01016 1.20969 0
M  V30 22958 C 2195.91 -2.11553 0.988309 0
M  V30 22959 C 2196.89 -1.69888 -0.084948 0
M  V30 22960 O 2198.07 -1.9406 0.0738543 0
M  V30 22961 C 2195.2 -3.42972 0.546588 0
M  V30 22962 C 2194.16 -3.98408 1.56382 0
M  V30 22963 C 2193.48 -5.2567 0.978512 0
M  V30 22964 C 2194.78 -4.31061 2.9493 0
M  V30 22965 H 2196.48 -2.30331 1.9128 0
M  V30 22966 H 2194.02 -1.10688 0.921092 0
M  V30 22967 H 2195.98 -4.19693 0.378913 0
M  V30 22968 H 2194.7 -3.23971 -0.413541 0
M  V30 22969 H 2193.36 -3.23801 1.71897 0
M  V30 22970 H 2193.01 -5.02999 0.0102572 0
M  V30 22971 H 2192.71 -5.63725 1.65794 0
M  V30 22972 H 2194.23 -6.05041 0.822046 0
M  V30 22973 H 2195.65 -4.98645 2.82889 0
M  V30 22974 H 2194.04 -4.80246 3.59838 0
M  V30 22975 H 2195.11 -3.39555 3.46166 0
M  V30 22976 N 2196.46 -1.01661 -1.20428 0
M  V30 22977 C 2197.42 -0.591655 -2.21432 0
M  V30 22978 C 2198.42 0.338198 -1.57203 0
M  V30 22979 O 2199.61 0.126887 -1.73737 0
M  V30 22980 C 2196.74 0.135998 -3.40629 0
M  V30 22981 H 2197.93 -1.48518 -2.60542 0
M  V30 22982 H 2195.49 -0.806402 -1.33891 0
M  V30 22983 H 2196.22 1.04444 -3.07021 0
M  V30 22984 H 2196.01 -0.531985 -3.88474 0
M  V30 22985 H 2197.5 0.420662 -4.15476 0
M  V30 22986 N 2197.93 1.36205 -0.792844 0
M  V30 22987 C 2199.35 1.5237 -0.47493 0
M  V30 22988 C 2199.55 1.7458 1.00619 0
M  V30 22989 O 2198.61 1.77927 1.79159 0
M  V30 22990 C 2199.92 2.70745 -1.30835 0
M  V30 22991 C 2201.47 2.84617 -1.30239 0
M  V30 22992 C 2201.94 4.06 -2.11963 0
M  V30 22993 N 2203.43 4.13152 -2.09427 0
M  V30 22994 C 2204.17 5.06158 -2.69428 0
M  V30 22995 N 2203.66 6.04586 -3.38301 0
M  V30 22996 N 2205.46 4.988 -2.59143 0
M  V30 22997 H 2197.61 1.20043 -1.75224 0
M  V30 22998 H 2199.87 0.586198 -0.745034 0
M  V30 22999 H 2199.58 2.60866 -2.35885 0
M  V30 23000 H 2199.45 3.64988 -0.952024 0
M  V30 23001 H 2201.84 2.93954 -0.259799 0
M  V30 23002 H 2201.92 1.91271 -1.6985 0
M  V30 23003 H 2201.56 3.97423 -3.16255 0
M  V30 23004 H 2201.49 4.985 -1.6972 0
M  V30 23005 H 2203.98 3.42682 -1.59303 0
M  V30 23006 H 2204.3 6.72123 -3.81405 0
M  V30 23007 H 2202.64 6.04801 -3.42404 0
M  V30 23008 H 2205.83 4.20855 -2.04935 0
M  V30 23009 H 2206.01 5.71094 -3.06195 0
M  V30 23010 N 2199.41 0.545154 1.47871 0
M  V30 23011 C 2200.34 -0.246581 2.2787 0
M  V30 23012 C 2201.36 -0.890537 1.36284 0
M  V30 23013 O 2202.55 -0.76642 1.61209 0
M  V30 23014 C 2199.65 -1.36576 3.10161 0
M  V30 23015 C 2198.82 -0.820879 4.29628 0
M  V30 23016 C 2197.88 -1.82306 4.9361 0
M  V30 23017 O 2196.9 -1.37396 5.52369 0
M  V30 23018 N 2198.11 -3.15595 4.87217 0
M  V30 23019 H 2200.87 0.439591 2.96459 0
M  V30 23020 H 2198.43 0.380449 1.57366 0
M  V30 23021 H 2200.42 -2.03468 3.49833 0
M  V30 23022 H 2198.99 -1.95536 2.43894 0
M  V30 23023 H 2198.21 0.0244725 3.94192 0
M  V30 23024 H 2199.5 -0.435973 5.06929 0
M  V30 23025 H 2198.9 -3.54736 4.40657 0
M  V30 23026 H 2197.46 -3.78078 5.30943 0
M  V30 23027 N 2200.89 -1.55074 0.28101 0
M  V30 23028 C 2202.14 -2.00745 -0.327538 0
M  V30 23029 C 2202.49 -1.166 -1.53043 0
M  V30 23030 O 2201.78 -0.229484 -1.90221 0
M  V30 23031 C 2201.98 -3.49343 -0.754595 0
M  V30 23032 C 2201.81 -4.47869 0.405369 0
M  V30 23033 C 2200.58 -4.97382 0.891034 0
M  V30 23034 C 2202.78 -4.99033 1.2438 0
M  V30 23035 N 2200.76 -5.7972 2.01985 0
M  V30 23036 C 2202.13 -5.78876 2.22041 0
M  V30 23037 C 2204.18 -4.8126 1.27646 0
M  V30 23038 C 2202.89 -6.42841 3.22721 0
M  V30 23039 C 2204.91 -5.46027 2.27174 0
M  V30 23040 C 2204.27 -6.25687 3.23567 0
M  V30 23041 H 2200.37 -0.777382 -0.0848637 0
M  V30 23042 H 2202.96 -1.90412 0.406375 0
M  V30 23043 H 2201.13 -3.60007 -1.45772 0
M  V30 23044 H 2202.86 -3.81837 -1.34098 0
M  V30 23045 H 2199.62 -4.71269 0.469345 0
M  V30 23046 H 2200.04 -6.25579 2.58805 0
M  V30 23047 H 2204.68 -4.19273 0.54501 0
M  V30 23048 H 2202.4 -7.03973 3.96796 0
M  V30 23049 H 2205.99 -5.34213 2.3045 0
M  V30 23050 H 2204.87 -6.74917 3.99321 0
M  V30 23051 N 2202.37 -0.00838561 -1.57598 0
M  V30 23052 C 2203.28 0.99645 -2.12387 0
M  V30 23053 C 2204.3 1.37125 -1.0711 0
M  V30 23054 O 2205.47 1.45688 -1.39058 0
M  V30 23055 C 2202.54 2.26694 -2.62318 0
M  V30 23056 C 2201.6 1.95449 -3.82228 0
M  V30 23057 C 2200.83 3.16441 -4.29768 0
M  V30 23058 O 2201.05 4.2841 -3.76592 0
M  V30 23059 O 2199.99 2.99949 -5.21837 0
M  V30 23060 H 2203.81 0.560673 -2.9848 0
M  V30 23061 H 2201.4 0.210961 -1.47903 0
M  V30 23062 H 2203.28 3.01317 -2.94594 0
M  V30 23063 H 2201.96 2.69494 -1.79318 0
M  V30 23064 H 2200.86 1.18275 -3.54911 0
M  V30 23065 H 2202.2 1.57481 -4.66327 0
M  V30 23066 N 2203.85 1.55365 0.264492 0
M  V30 23067 C 2204.81 1.88044 1.31042 0
M  V30 23068 C 2205.81 0.755594 1.41942 0
M  V30 23069 O 2207 1.02372 1.40946 0
M  V30 23070 C 2204.13 2.09327 2.69063 0
M  V30 23071 H 2205.33 2.81551 1.03292 0
M  V30 23072 H 2202.88 1.47986 0.502963 0
M  V30 23073 H 2203.61 1.18231 3.0198 0
M  V30 23074 H 2203.4 2.91234 2.62536 0
M  V30 23075 H 2204.89 2.35854 3.44619 0
M  V30 23076 N 2205.33 -0.529387 1.48443 0
M  V30 23077 C 2206.26 -1.6431 1.65905 0
M  V30 23078 C 2207.24 -1.6234 0.507926 0
M  V30 23079 O 2208.42 -1.79526 0.740534 0
M  V30 23080 C 2205.55 -3.02895 1.69917 0
M  V30 23081 C 2204.51 -3.19724 2.84536 0
M  V30 23082 C 2203.83 -4.59377 2.73637 0
M  V30 23083 C 2205.13 -3.02439 4.25826 0
M  V30 23084 H 2206.83 -1.49951 2.59143 0
M  V30 23085 H 2204.37 -0.71996 1.2471 0
M  V30 23086 H 2206.32 -3.80681 1.80721 0
M  V30 23087 H 2205.05 -3.18278 0.73258 0
M  V30 23088 H 2203.71 -2.44356 2.73287 0
M  V30 23089 H 2203.36 -4.71596 1.74946 0
M  V30 23090 H 2203.06 -4.71582 3.50549 0
M  V30 23091 H 2204.58 -5.3926 2.8641 0
M  V30 23092 H 2205.99 -3.70016 4.37905 0
M  V30 23093 H 2204.39 -3.26137 5.03741 0
M  V30 23094 H 2205.46 -1.98859 4.42248 0
M  V30 23095 N 2206.8 -1.37041 -0.778305 0
M  V30 23096 C 2208.04 -1.33279 -1.54971 0
M  V30 23097 C 2208.41 0.0839039 -1.91817 0
M  V30 23098 O 2209.61 0.246181 -2.6767 0
M  V30 23099 C 2207.88 -2.23976 -2.78513 0
M  V30 23100 S 2209.44 -2.38003 -3.68646 0
M  V30 23101 H 2206.26 -0.473236 -0.530631 0
M  V30 23102 H 2208.86 -1.72725 -0.915776 0
M  V30 23103 H 2207.56 -3.25839 -2.49514 0
M  V30 23104 H 2207.09 -1.85591 -3.46871 0
M  V30 23105 H 2209.11 -1.58576 -4.70179 0
M  V30 23106 N 2208.28 1.00373 -1.21503 0
M  V30 23107 C 2209.53 1.73825 -1.03098 0
M  V30 23108 C 2209.85 1.90056 0.436307 0
M  V30 23109 O 2209.12 1.45238 1.31464 0
M  V30 23110 H 2207.7 0.644009 -0.378498 0
M  V30 23111 H 2210.36 1.20947 -1.52833 0
M  V30 23112 H 2209.46 2.73692 -1.49996 0
M  V30 23113 N 2209.76 1.02298 1.19887 0
M  V30 23114 C 2211.18 0.738979 1.41461 0
M  V30 23115 C 2211.38 -0.678813 1.89722 0
M  V30 23116 O 2210.43 -1.44566 2.07019 0
M  V30 23117 C 2211.74 1.7701 2.4308 0
M  V30 23118 C 2213.29 1.78896 2.56837 0
M  V30 23119 C 2213.77 2.80952 3.61704 0
M  V30 23120 N 2215.26 2.79732 3.69194 0
M  V30 23121 C 2215.99 3.55353 4.50013 0
M  V30 23122 N 2215.49 4.40672 5.34584 0
M  V30 23123 N 2217.28 3.43922 4.44606 0
M  V30 23124 H 2209.43 1.93819 0.868793 0
M  V30 23125 H 2211.7 0.83761 0.443975 0
M  V30 23126 H 2211.4 2.78615 2.14631 0
M  V30 23127 H 2211.28 1.5875 3.42167 0
M  V30 23128 H 2213.66 0.779724 2.84613 0
M  V30 23129 H 2213.74 2.01231 1.57924 0
M  V30 23130 H 2213.39 3.82044 3.34671 0
M  V30 23131 H 2213.32 2.55878 4.60254 0
M  V30 23132 H 2215.81 2.17847 3.0879 0
M  V30 23133 H 2216.12 4.95127 5.93354 0
M  V30 23134 H 2214.47 4.44747 5.34065 0
M  V30 23135 H 2217.66 2.76685 3.77575 0
M  V30 23136 H 2217.83 4.03109 5.07353 0
M  V30 23137 N 2211.24 -1.35782 0.800057 0
M  V30 23138 C 2212.15 -2.33683 0.207245 0
M  V30 23139 C 2213.16 -1.61552 -0.646282 0
M  V30 23140 O 2214.34 -1.9347 -0.55957 0
M  V30 23141 C 2211.4 -3.40749 -0.639599 0
M  V30 23142 C 2210.47 -4.28664 0.23366 0
M  V30 23143 C 2209.7 -5.30617 -0.572861 0
M  V30 23144 O 2209.92 -5.40986 -1.80806 0
M  V30 23145 O 2208.86 -6.01891 0.0328343 0
M  V30 23146 H 2212.68 -2.86167 1.01697 0
M  V30 23147 H 2210.27 -1.38438 0.561715 0
M  V30 23148 H 2212.15 -4.06184 -1.12216 0
M  V30 23149 H 2210.82 -2.90547 -1.42703 0
M  V30 23150 H 2209.73 -3.66232 0.763212 0
M  V30 23151 H 2211.06 -4.82246 0.984869 0
M  V30 23152 N 2212.72 -0.552988 -1.4758 0
M  V30 23153 C 2213.65 0.18541 -2.32763 0
M  V30 23154 C 2214.63 0.91288 -1.43529 0
M  V30 23155 O 2215.81 0.894171 -1.7239 0
M  V30 23156 C 2212.94 1.21853 -3.25222 0
M  V30 23157 C 2211.9 0.607789 -4.23663 0
M  V30 23158 C 2211.22 1.74524 -5.05416 0
M  V30 23159 C 2212.52 -0.435674 -5.2048 0
M  V30 23160 H 2214.22 -0.525735 -2.94748 0
M  V30 23161 H 2211.76 -0.254276 -1.41737 0
M  V30 23162 H 2213.71 1.74323 -3.83653 0
M  V30 23163 H 2212.44 1.95957 -2.61282 0
M  V30 23164 H 2211.1 0.104425 -3.66451 0
M  V30 23165 H 2210.75 2.47521 -4.37884 0
M  V30 23166 H 2210.45 1.34239 -5.72061 0
M  V30 23167 H 2211.97 2.27328 -5.66705 0
M  V30 23168 H 2213.38 0.0028008 -5.733 0
M  V30 23169 H 2211.78 -0.757172 -5.95304 0
M  V30 23170 H 2212.85 -1.33311 -4.66215 0
M  V30 23171 N 2214.19 1.54923 -0.28923 0
M  V30 23172 C 2215.6 1.85563 0.205758 0
M  V30 23173 C 2215.96 1.21123 1.54349 0
M  V30 23174 O 2215.08 0.504638 2.10434 0
M  V30 23175 C 2215.68 3.36661 0.380118 0
M  V30 23176 C 2214.23 3.67374 0.819331 0
M  V30 23177 C 2213.38 2.77187 -0.0792077 0
M  V30 23178 H 2216.33 1.50262 -0.510603 0
M  V30 23179 H 2216.35 3.60529 1.21653 0
M  V30 23180 H 2215.87 3.83533 -0.593657 0
M  V30 23181 H 2213.97 3.26012 1.80408 0
M  V30 23182 H 2214.08 4.74713 0.646874 0
M  V30 23183 H 2212.44 2.50879 0.439521 0
M  V30 23184 H 2213.23 3.26877 -1.04912 0
M  V30 23185 N 2215.67 0.0167433 1.57591 0
M  V30 23186 C 2216.92 -0.665548 1.91568 0
M  V30 23187 C 2217.25 -1.72485 0.892329 0
M  V30 23188 O 2216.53 -1.94307 -0.0866785 0
M  V30 23189 C 2216.81 -1.29336 3.36072 0
M  V30 23190 C 2216.66 -0.244462 4.49135 0
M  V30 23191 C 2217.98 -2.21488 3.80304 0
M  V30 23192 H 2215.1 -0.240476 0.696664 0
M  V30 23193 H 2217.74 0.071469 1.89866 0
M  V30 23194 H 2215.89 -1.92153 3.37653 0
M  V30 23195 H 2217.56 0.385309 4.59688 0
M  V30 23196 H 2215.81 0.431455 4.31649 0
M  V30 23197 H 2216.48 -0.723111 5.47243 0
M  V30 23198 H 2218.95 -1.68672 3.8038 0
M  V30 23199 H 2217.83 -2.62374 4.82132 0
M  V30 23200 H 2218.09 -3.10094 3.1511 0
M  V30 23201 N 2217.15 -1.55503 -0.256249 0
M  V30 23202 C 2218.06 -1.92649 -1.33879 0
M  V30 23203 C 2219.08 -0.825754 -1.53158 0
M  V30 23204 O 2220.25 -1.12632 -1.66961 0
M  V30 23205 C 2217.32 -2.20548 -2.67506 0
M  V30 23206 C 2216.38 -3.44001 -2.5683 0
M  V30 23207 C 2215.61 -3.70559 -3.84085 0
M  V30 23208 O 2215.83 -2.99344 -4.8554 0
M  V30 23209 O 2214.77 -4.64091 -3.8328 0
M  V30 23210 H 2218.59 -2.84835 -1.05369 0
M  V30 23211 H 2216.18 -1.42264 -0.456212 0
M  V30 23212 H 2218.06 -2.39842 -3.46488 0
M  V30 23213 H 2216.74 -1.31542 -2.95768 0
M  V30 23214 H 2215.64 -3.30024 -1.76167 0
M  V30 23215 H 2216.98 -4.3328 -2.33516 0
M  V30 23216 N 2218.63 0.521507 -1.48721 0
M  V30 23217 C 2219.56 1.63428 -1.66774 0
M  V30 23218 C 2220.54 1.62068 -0.516528 0
M  V30 23219 O 2221.72 1.79131 -0.750045 0
M  V30 23220 C 2218.85 3.0199 -1.71521 0
M  V30 23221 C 2217.81 3.18211 -2.86227 0
M  V30 23222 C 2217.13 4.57919 -2.76069 0
M  V30 23223 C 2218.43 3.00177 -4.27424 0
M  V30 23224 H 2220.13 1.48574 -2.59935 0
M  V30 23225 H 2217.67 0.713336 -1.2509 0
M  V30 23226 H 2219.63 3.79717 -1.82738 0
M  V30 23227 H 2218.35 3.17885 -0.749449 0
M  V30 23228 H 2217.01 2.42903 -2.74579 0
M  V30 23229 H 2216.66 4.70662 -1.77445 0
M  V30 23230 H 2216.36 4.69716 -3.53045 0
M  V30 23231 H 2217.88 5.37734 -2.89266 0
M  V30 23232 H 2219.3 3.67689 -4.39861 0
M  V30 23233 H 2217.69 3.23461 -5.05463 0
M  V30 23234 H 2218.76 1.96511 -4.43296 0
M  V30 23235 N 2220.11 1.37452 0.771027 0
M  V30 23236 C 2221.33 1.35895 1.56013 0
M  V30 23237 C 2221.75 -0.0555192 1.88718 0
M  V30 23238 O 2221.11 -1.0175 1.51503 0
M  V30 23239 C 2221.16 2.19806 2.86997 0
M  V30 23240 O 2220.88 3.55742 2.55694 0
M  V30 23241 C 2222.38 2.26237 3.81224 0
M  V30 23242 H 2219.6 0.465461 0.483308 0
M  V30 23243 H 2222.14 1.80801 0.955579 0
M  V30 23244 H 2220.3 1.78408 3.43874 0
M  V30 23245 H 2220.71 3.99735 3.39577 0
M  V30 23246 H 2222.19 2.89271 4.70134 0
M  V30 23247 H 2222.66 1.271 4.20407 0
M  V30 23248 H 2223.27 2.67951 3.30276 0
M  V30 23249 N 2221.58 -0.997276 1.22033 0
M  V30 23250 C 2222.83 -1.73276 1.04019 0
M  V30 23251 C 2223.15 -1.90285 -0.426222 0
M  V30 23252 O 2222.42 -1.45933 -1.30691 0
M  V30 23253 H 2221 -0.641993 0.381908 0
M  V30 23254 H 2223.67 -1.20135 1.53472 0
M  V30 23255 H 2222.76 -2.72893 1.51446 0
M  V30 23256 O 2223.1 -1.15565 -1.12814 0
M  V30 23257 H 2223.79 -0.88318 -1.72394 0
M  V30 END ATOM
M  V30 BEGIN BOND
M  V30 END BOND
M  V30 END CTAB
M  END
$$$$
