drugbank_target|Q9Y2Q0 Phospholipid-transporting ATPase IA (DB00144)
 OpenBabel12092119453D

  0  0  0     0  0            999 V3000
M  V30 BEGIN CTAB
M  V30 COUNTS 18541 18738 0 0 0
M  V30 BEGIN ATOM
M  V30 1 H -0.908 1.98254 -0.117106 0
M  V30 2 N 0 1.576 0 0
M  V30 3 C 0.933 2.03868 1.02534 0
M  V30 4 C 1.911 0.928543 1.3348 0
M  V30 5 O 3.095 1.19667 1.45644 0
M  V30 6 C 0.222 2.43627 2.35294 0
M  V30 7 C -0.732 3.65373 2.2001 0
M  V30 8 S 0.101 5.13292 1.52614 0
M  V30 9 C 1.257 5.56322 2.86805 0
M  V30 10 H 1.49 2.90518 0.631377 0
M  V30 11 H -0.977 1.52953 0.210867 0
M  V30 12 H 0.981 2.67203 3.11629 0
M  V30 13 H -0.358 1.57376 2.7183 0
M  V30 14 H -1.165 3.90944 3.18086 0
M  V30 15 H -1.563 3.418 1.51819 0
M  V30 16 H 0.729 5.58782 3.83104 0
M  V30 17 H 1.672 6.56266 2.65933 0
M  V30 18 H 2.08 4.83886 2.90714 0
M  V30 19 N 1.4781 -0.272755 1.55222 0
M  V30 20 C 2.8891 -0.84378 1.66545 0
M  V30 21 C 3.2401 -1.87035 0.592641 0
M  V30 22 O 2.3651 -2.14761 -0.265818 0
M  V30 23 C 2.9601 -1.53723 3.01918 0
M  V30 24 C 1.5191 -2.05628 3.15268 0
M  V30 25 C 0.6661 -0.898424 2.62343 0
M  V30 26 H 3.6171 -0.0490998 1.58624 0
M  V30 27 H 3.6381 -2.40421 2.94921 0
M  V30 28 H 3.1501 -0.78983 3.79978 0
M  V30 29 H 1.2511 -2.83329 2.41983 0
M  V30 30 H 1.3641 -2.27142 4.21833 0
M  V30 31 H -0.2719 -1.29186 2.19506 0
M  V30 32 H 0.5111 -0.164528 3.42906 0
M  V30 33 N 2.9562 -1.48159 -0.537278 0
M  V30 34 C 4.1842 -1.59454 -1.31841 0
M  V30 35 C 4.5992 -0.252065 -1.8711 0
M  V30 36 O 3.9562 0.757621 -1.66031 0
M  V30 37 C 4.0072 -2.63546 -2.47439 0
M  V30 38 O 3.7282 -3.92583 -1.94449 0
M  V30 39 C 5.2292 -2.85212 -3.39366 0
M  V30 40 H 2.4492 -0.53785 -0.401196 0
M  V30 41 H 4.9932 -1.93932 -0.648891 0
M  V30 42 H 3.1482 -2.31946 -3.1029 0
M  V30 43 H 3.5622 -4.49629 -2.70063 0
M  V30 44 H 5.0362 -3.61863 -4.16844 0
M  V30 45 H 5.5132 -1.93765 -3.94147 0
M  V30 46 H 6.1192 -3.18086 -2.82314 0
M  V30 47 N 4.4343 0.785586 -1.36625 0
M  V30 48 C 5.3673 1.90509 -1.25625 0
M  V30 49 C 6.3453 1.62 -0.139607 0
M  V30 50 O 7.5293 1.8591 -0.31141 0
M  V30 51 C 4.6563 3.25419 -0.939158 0
M  V30 52 C 3.7023 3.72856 -2.07077 0
M  V30 53 S 4.5353 3.88162 -3.68904 0
M  V30 54 C 5.6913 5.25942 -3.39317 0
M  V30 55 H 5.9243 1.99549 -2.20381 0
M  V30 56 H 3.4573 0.945226 -1.22085 0
M  V30 57 H 5.4153 4.03346 -0.763029 0
M  V30 58 H 4.0763 3.14099 -0.00931402 0
M  V30 59 H 3.2693 4.70624 -1.80357 0
M  V30 60 H 2.8713 3.01989 -2.20632 0
M  V30 61 H 5.1633 6.10651 -2.93447 0
M  V30 62 H 6.1063 5.57668 -4.36363 0
M  V30 63 H 6.5143 4.93224 -2.74573 0
M  V30 64 N 5.9124 1.20967 1.01018 0
M  V30 65 C 7.3284 0.965905 1.27053 0
M  V30 66 C 7.5284 -0.350785 1.98423 0
M  V30 67 O 6.5844 -1.07773 2.28344 0
M  V30 68 C 7.8974 2.15294 2.09926 0
M  V30 69 C 9.4454 2.19463 2.23171 0
M  V30 70 C 9.9204 3.3767 3.09424 0
M  V30 71 N 11.4114 3.37724 3.17012 0
M  V30 72 C 12.1464 4.25837 3.83993 0
M  V30 73 N 11.6424 5.24138 4.53047 0
M  V30 74 N 13.4354 4.1366 3.80581 0
M  V30 75 H 5.5864 2.0565 0.531194 0
M  V30 76 H 7.8494 0.90024 0.297106 0
M  V30 77 H 7.5554 3.10684 1.64828 0
M  V30 78 H 7.4294 2.13923 3.10672 0
M  V30 79 H 9.8164 1.24632 2.6749 0
M  V30 80 H 9.8974 2.2488 1.21912 0
M  V30 81 H 9.5414 4.32791 2.65808 0
M  V30 82 H 9.4714 3.29491 4.10784 0
M  V30 83 H 11.9624 2.6658 2.6785 0
M  V30 84 H 12.2754 5.87684 5.01844 0
M  V30 85 H 10.6204 5.28068 4.5185 0
M  V30 86 H 13.8114 3.36127 3.25785 0
M  V30 87 H 13.9844 4.82538 4.32505 0
M  V30 88 N 7.3905 -1.2043 1.01659 0
M  V30 89 C 8.8065 -1.41852 0.731442 0
M  V30 90 C 9.0065 -1.89358 -0.688898 0
M  V30 91 O 8.0625 -2.06247 -1.45666 0
M  V30 92 C 9.3755 -2.44019 1.75714 0
M  V30 93 C 10.9235 -2.57785 1.77527 0
M  V30 94 C 11.3985 -3.63194 2.79023 0
M  V30 95 N 12.8895 -3.70678 2.77763 0
M  V30 96 C 13.6245 -4.51897 3.52954 0
M  V30 97 N 13.1205 -5.36921 4.37821 0
M  V30 98 N 14.9135 -4.4643 3.41551 0
M  V30 99 H 7.0645 -0.879093 1.93354 0
M  V30 100 H 9.3275 -0.448425 0.835236 0
M  V30 101 H 9.0335 -2.1611 2.77469 0
M  V30 102 H 8.9075 -3.43007 1.56927 0
M  V30 103 H 11.2945 -2.85023 0.764569 0
M  V30 104 H 11.3755 -1.58992 2.00387 0
M  V30 105 H 11.0195 -3.36699 3.80258 0
M  V30 106 H 10.9495 -4.61609 2.53425 0
M  V30 107 H 13.4405 -3.09944 2.16201 0
M  V30 108 H 13.7535 -5.95981 4.91962 0
M  V30 109 H 12.0985 -5.36424 4.41899 0
M  V30 110 H 15.2895 -3.79042 2.74672 0
M  V30 111 H 15.4625 -5.09491 4.00404 0
M  V30 112 N 8.8686 -0.792821 -1.36206 0
M  V30 113 C 10.0966 -0.378825 -2.03402 0
M  V30 114 C 10.5116 1.00586 -1.59774 0
M  V30 115 O 9.8686 1.64574 -0.788764 0
M  V30 116 C 9.9196 -0.43683 -3.58851 0
M  V30 117 O 9.6406 -1.76691 -4.00889 0
M  V30 118 C 11.1416 -0.0138943 -4.43298 0
M  V30 119 H 8.3616 -0.155673 -0.652692 0
M  V30 120 H 10.9056 -1.07261 -1.74113 0
M  V30 121 H 9.0606 0.208575 -3.86838 0
M  V30 122 H 9.4746 -1.72011 -4.95492 0
M  V30 123 H 10.9486 -0.105615 -5.51899 0
M  V30 124 H 11.4256 1.03915 -4.2673 0
M  V30 125 H 12.0316 -0.63192 -4.20579 0
M  V30 126 N 10.3467 1.47872 -0.545128 0
M  V30 127 C 11.5927 2.02793 -0.0166104 0
M  V30 128 C 11.9257 1.41987 1.32489 0
M  V30 129 O 11.2007 0.571045 1.85928 0
M  V30 130 C 11.4837 3.59989 0.0893294 0
M  V30 131 C 11.3367 4.3125 -1.27841 0
M  V30 132 C 12.6557 4.32606 0.808724 0
M  V30 133 H 9.7747 0.736962 -0.00751035 0
M  V30 134 H 12.4167 1.76433 -0.705085 0
M  V30 135 H 10.5667 3.82579 0.675681 0
M  V30 136 H 12.2387 4.20035 -1.90704 0
M  V30 137 H 10.4817 3.92076 -1.85632 0
M  V30 138 H 11.1527 5.39736 -1.15713 0
M  V30 139 H 13.6287 4.14936 0.310992 0
M  V30 140 H 12.5047 5.42251 0.851782 0
M  V30 141 H 12.7657 4.00963 1.86229 0
M  V30 142 N 11.8248 0.280983 1.55075 0
M  V30 143 C 13.0498 -0.340154 2.04592 0
M  V30 144 C 13.4748 -1.48246 1.15779 0
M  V30 145 O 12.8328 -1.80614 0.15761 0
M  V30 146 C 12.8808 -0.793104 3.5177 0
M  V30 147 O 11.9848 -1.89981 3.66034 0
M  V30 148 H 11.3258 -0.0694289 0.66036 0
M  V30 149 H 13.8558 0.416993 2.00306 0
M  V30 150 H 13.8658 -1.08729 3.93245 0
M  V30 151 H 12.5408 0.0426163 4.15878 0
M  V30 152 H 11.1178 -1.60771 3.36463 0
M  V30 153 N 13.3029 -1.57598 0.00835791 0
M  V30 154 C 14.2129 -2.12385 -0.996487 0
M  V30 155 C 15.2289 -1.07108 -1.37127 0
M  V30 156 O 16.4049 -1.39055 -1.4569 0
M  V30 157 C 13.4699 -2.62314 -2.26699 0
M  V30 158 C 12.5309 -3.82225 -1.95456 0
M  V30 159 C 11.7639 -4.29763 -3.16449 0
M  V30 160 O 11.9869 -3.76584 -4.28416 0
M  V30 161 O 10.9209 -5.21832 -2.99958 0
M  V30 162 H 14.7469 -2.98479 -0.560725 0
M  V30 163 H 12.3319 -1.47903 -0.210987 0
M  V30 164 H 14.2139 -2.94589 -3.01322 0
M  V30 165 H 12.8889 -1.79313 -2.69497 0
M  V30 166 H 11.7959 -3.54909 -1.18282 0
M  V30 167 H 13.1289 -4.66324 -1.57489 0
M  V30 168 N 14.781 0.264519 -1.55364 0
M  V30 169 C 16.03 0.992812 -1.75574 0
M  V30 170 C 16.343 1.87142 -0.568979 0
M  V30 171 O 17.549 2.63513 -0.653682 0
M  V30 172 C 16.005 1.81519 -3.10771 0
M  V30 173 C 15.613 0.984839 -4.37041 0
M  V30 174 C 17.357 2.53727 -3.40327 0
M  V30 175 C 15.264 1.80209 -5.63275 0
M  V30 176 H 14.194 0.374412 -0.65447 0
M  V30 177 H 16.845 0.248138 -1.81815 0
M  V30 178 H 15.227 2.60115 -2.98591 0
M  V30 179 H 16.401 0.242455 -4.60162 0
M  V30 180 H 14.716 0.37691 -4.14691 0
M  V30 181 H 17.313 3.15292 -4.3185 0
M  V30 182 H 17.656 3.24447 -2.60845 0
M  V30 183 H 18.189 1.82156 -3.53644 0
M  V30 184 H 14.928 1.13896 -6.45529 0
M  V30 185 H 14.448 2.52022 -5.44284 0
M  V30 186 H 16.127 2.37364 -6.01887 0
M  V30 187 N 16.2591 1.48442 0.529413 0
M  V30 188 C 17.6751 1.34575 0.858004 0
M  V30 189 C 17.8751 0.3572 1.98309 0
M  V30 190 O 16.9311 -0.221379 2.51528 0
M  V30 191 C 18.2441 2.74617 1.22499 0
M  V30 192 C 19.7921 2.83109 1.33484 0
M  V30 193 C 20.2671 4.23854 1.73526 0
M  V30 194 N 21.7581 4.2653 1.80628 0
M  V30 195 C 22.4931 5.32372 2.12997 0
M  V30 196 N 21.9891 6.48491 2.43786 0
M  V30 197 N 23.7821 5.19766 2.14008 0
M  V30 198 H 15.9331 2.1133 -0.212925 0
M  V30 199 H 18.1961 0.947439 -0.0326199 0
M  V30 200 H 17.9021 3.4852 0.471905 0
M  V30 201 H 17.7761 3.08177 2.17501 0
M  V30 202 H 20.1631 2.09462 2.0787 0
M  V30 203 H 20.2441 2.53168 0.366027 0
M  V30 204 H 19.8881 4.98018 0.997013 0
M  V30 205 H 19.8181 4.5124 2.71459 0
M  V30 206 H 22.3091 3.42772 1.59108 0
M  V30 207 H 22.6221 7.24993 2.67592 0
M  V30 208 H 20.9671 6.51765 2.41304 0
M  V30 209 H 24.1581 4.28066 1.89412 0
M  V30 210 H 24.3311 6.02354 2.38902 0
M  V30 211 N 17.7372 -0.778329 1.37039 0
M  V30 212 C 18.9622 -1.57248 1.35233 0
M  V30 213 C 19.3872 -1.87999 -0.0615568 0
M  V30 214 O 18.7452 -1.48734 -1.03672 0
M  V30 215 C 18.7932 -2.86353 2.19167 0
M  V30 216 O 17.8972 -3.80442 1.59178 0
M  V30 217 H 17.2382 -0.476569 0.462362 0
M  V30 218 H 19.7682 -0.963853 1.80474 0
M  V30 219 H 19.7782 -3.35519 2.32145 0
M  V30 220 H 18.4532 -2.63299 3.21942 0
M  V30 221 H 17.0302 -3.39067 1.55203 0
M  V30 222 N 19.2153 -1.21501 -1.00376 0
M  V30 223 C 20.6313 -0.972629 -1.26539 0
M  V30 224 C 20.8313 0.340257 -1.98606 0
M  V30 225 O 19.8873 1.06561 -2.28913 0
M  V30 226 C 21.2003 -2.16404 -2.08781 0
M  V30 227 C 22.7483 -2.20643 -2.22004 0
M  V30 228 C 23.2233 -3.39306 -3.07629 0
M  V30 229 N 24.7143 -3.39401 -3.15217 0
M  V30 230 C 25.4493 -4.27867 -3.81729 0
M  V30 231 N 24.9453 -5.26533 -4.5026 0
M  V30 232 N 26.7383 -4.15672 -3.78382 0
M  V30 233 H 18.8893 -2.05929 -0.520281 0
M  V30 234 H 21.1523 -0.901803 -0.292328 0
M  V30 235 H 20.8583 -3.11554 -1.63178 0
M  V30 236 H 20.7323 -2.15567 -3.09533 0
M  V30 237 H 23.1193 -1.26048 -2.66825 0
M  V30 238 H 23.2003 -2.25523 -1.20718 0
M  V30 239 H 22.8443 -4.34195 -2.63509 0
M  V30 240 H 22.7743 -3.31665 -4.09031 0
M  V30 241 H 25.2653 -2.67997 -2.66432 0
M  V30 242 H 25.5783 -5.90337 -4.98721 0
M  V30 243 H 23.9233 -5.30457 -4.49044 0
M  V30 244 H 27.1143 -3.3785 -3.23998 0
M  V30 245 H 27.2873 -4.84825 -4.2994 0
M  V30 246 N 20.6934 1.19889 -1.02296 0
M  V30 247 C 21.6564 2.21116 -0.603351 0
M  V30 248 C 22.6564 1.5738 0.329884 0
M  V30 249 O 23.8464 1.73802 0.117702 0
M  V30 250 C 20.9784 3.40696 0.117992 0
M  V30 251 H 22.1714 2.59754 -1.49893 0
M  V30 252 H 19.7244 1.33463 -0.813468 0
M  V30 253 H 20.4594 3.07569 1.0282 0
M  V30 254 H 20.2444 3.88188 -0.552511 0
M  V30 255 H 21.7344 4.15692 0.398696 0
M  V30 256 N 22.1715 0.800033 1.35784 0
M  V30 257 C 23.0815 0.207204 2.33683 0
M  V30 258 C 24.0975 -0.64631 1.61551 0
M  V30 259 O 25.2735 -0.559604 1.93469 0
M  V30 260 C 22.3385 -0.639659 3.40748 0
M  V30 261 C 21.3995 0.233585 4.28664 0
M  V30 262 C 20.6325 -0.572954 5.30616 0
M  V30 263 O 20.8555 -1.80816 5.40982 0
M  V30 264 O 19.7895 0.0327285 6.01891 0
M  V30 265 H 23.6155 1.01692 2.86169 0
M  V30 266 H 21.2005 0.561691 1.38439 0
M  V30 267 H 23.0825 -1.12223 4.06182 0
M  V30 268 H 21.7575 -1.42708 2.90544 0
M  V30 269 H 20.6645 0.763147 3.66233 0
M  V30 270 H 21.9975 0.984784 4.82248 0
M  V30 271 N 23.6496 -1.47581 0.552962 0
M  V30 272 C 24.8976 -2.02082 0.0272703 0
M  V30 273 C 25.2186 -1.4301 -1.32563 0
M  V30 274 O 24.4886 -0.603745 -1.86365 0
M  V30 275 H 23.0686 -0.746966 0.00709182 0
M  V30 276 H 25.7306 -1.81033 0.722008 0
M  V30 277 H 24.8266 -3.12034 -0.0639951 0
M  V30 278 N 25.1277 -0.289203 -1.54924 0
M  V30 279 C 26.3577 0.325989 -2.04012 0
M  V30 280 C 26.7657 1.48961 -1.1665 0
M  V30 281 O 26.1087 1.82794 -0.1822 0
M  V30 282 C 26.1707 0.856112 -3.49158 0
M  V30 283 C 25.8347 -0.180697 -4.56643 0
M  V30 284 C 26.8317 -1.0051 -5.10092 0
M  V30 285 C 24.5167 -0.318998 -5.01286 0
M  V30 286 C 26.5107 -1.95385 -6.06715 0
M  V30 287 C 24.1977 -1.27121 -5.97732 0
M  V30 288 C 25.1957 -2.08713 -6.50329 0
M  V30 289 O 24.8837 -3.02322 -7.44887 0
M  V30 290 H 24.6157 0.0765276 -0.671654 0
M  V30 291 H 27.1697 -0.423254 -2.00992 0
M  V30 292 H 25.3997 1.65567 -3.49463 0
M  V30 293 H 27.0887 1.38591 -3.81507 0
M  V30 294 H 27.8547 -0.90906 -4.76404 0
M  V30 295 H 23.7337 0.306108 -4.59983 0
M  V30 296 H 27.2777 -2.59111 -6.47694 0
M  V30 297 H 23.1747 -1.36801 -6.30837 0
M  V30 298 H 23.9427 -2.97165 -7.6265 0
M  V30 299 N 26.6058 1.57591 -0.0167156 0
M  V30 300 C 27.5158 2.1291 0.98521 0
M  V30 301 C 28.5318 1.07834 1.36557 0
M  V30 302 O 29.7078 1.39826 1.44951 0
M  V30 303 C 26.7728 2.63512 2.25305 0
M  V30 304 C 25.8338 3.83256 1.93426 0
M  V30 305 C 25.0668 4.31435 3.14165 0
M  V30 306 O 25.2898 3.78851 4.26413 0
M  V30 307 O 24.2238 5.23416 2.97186 0
M  V30 308 H 28.0498 2.98772 0.544888 0
M  V30 309 H 25.6348 1.48012 0.203141 0
M  V30 310 H 27.5168 2.96183 2.99756 0
M  V30 311 H 26.1918 1.8074 2.68542 0
M  V30 312 H 25.0988 3.55531 1.16398 0
M  V30 313 H 26.4318 4.67153 1.55013 0
M  V30 314 N 28.0839 -0.256276 1.55502 0
M  V30 315 C 29.0309 -1.31714 1.89526 0
M  V30 316 C 30.0009 -1.4828 0.748479 0
M  V30 317 O 31.1859 -1.62416 1.00128 0
M  V30 318 C 28.3259 -2.66933 2.18725 0
M  V30 319 C 27.4389 -2.58452 3.4616 0
M  V30 320 C 26.5739 -3.85961 3.64976 0
M  V30 321 C 25.6129 -3.72059 4.86044 0
M  V30 322 N 24.7499 -4.9144 5.01429 0
M  V30 323 H 29.5899 -1.01998 2.80001 0
M  V30 324 H 27.1269 -0.492413 1.38613 0
M  V30 325 H 29.0849 -3.4563 2.33657 0
M  V30 326 H 27.7149 -2.94816 1.31466 0
M  V30 327 H 26.7669 -1.71374 3.3961 0
M  V30 328 H 28.0789 -2.44085 4.34999 0
M  V30 329 H 27.2329 -4.73101 3.79816 0
M  V30 330 H 25.9719 -4.03215 2.74353 0
M  V30 331 H 24.9769 -2.83302 4.7119 0
M  V30 332 H 26.2019 -3.56309 5.78118 0
M  V30 333 H 24.1479 -5.09072 4.13741 0
M  V30 334 H 24.0649 -4.79668 5.84341 0
M  V30 335 H 25.3329 -5.80104 5.20672 0
M  V30 336 N 29.562 -1.4872 -0.521534 0
M  V30 337 C 30.79 -1.60843 -1.30142 0
M  V30 338 C 31.205 -0.271897 -1.86832 0
M  V30 339 O 30.562 0.739969 -1.66825 0
M  V30 340 C 30.613 -2.66155 -2.4463 0
M  V30 341 O 30.334 -3.94623 -1.90275 0
M  V30 342 C 31.835 -2.88795 -3.36322 0
M  V30 343 H 29.055 -0.542075 -0.395468 0
M  V30 344 H 31.599 -1.94609 -0.628285 0
M  V30 345 H 29.754 -2.35224 -3.07812 0
M  V30 346 H 30.168 -4.52468 -2.65279 0
M  V30 347 H 31.642 -3.66264 -4.12983 0
M  V30 348 H 32.119 -1.97934 -3.9207 0
M  V30 349 H 32.725 -3.21063 -2.78924 0
M  V30 350 N 31.0401 0.771051 -1.3745 0
M  V30 351 C 32.3171 1.519 -1.23231 0
M  V30 352 C 32.6971 2.10383 0.173809 0
M  V30 353 O 32.0451 1.95583 1.18151 0
M  V30 354 C 32.2551 2.59933 -2.32886 0
M  V30 355 C 33.6031 3.27316 -2.70461 0
M  V30 356 O 34.6271 2.70228 -2.32068 0
M  V30 357 O 33.4861 4.30531 -3.36608 0
M  V30 358 H 30.5801 0.672803 -0.480901 0
M  V30 359 H 33.1261 0.807957 -1.49232 0
M  V30 360 H 31.8981 2.14842 -3.27045 0
M  V30 361 H 31.5211 3.38637 -2.08353 0
M  V30 362 N 32.5182 1.22032 0.997298 0
M  V30 363 C 33.7952 0.950823 1.70935 0
M  V30 364 C 34.1752 -0.535292 2.042 0
M  V30 365 O 33.5232 -1.50217 1.72183 0
M  V30 366 C 33.7332 1.84386 2.96315 0
M  V30 367 C 35.0812 2.09732 3.69185 0
M  V30 368 O 36.1052 1.81798 3.06314 0
M  V30 369 O 34.9642 2.57018 4.82291 0
M  V30 370 H 32.0582 0.357204 0.745878 0
M  V30 371 H 34.6042 1.32997 1.05404 0
M  V30 372 H 33.3762 2.84928 2.68201 0
M  V30 373 H 32.9992 1.46602 3.69586 0
M  V30 374 N 33.9963 -1.19345 1.0293 0
M  V30 375 C 35.2423 -1.89318 0.727083 0
M  V30 376 C 35.5753 -1.79446 -0.742483 0
M  V30 377 O 34.8503 -1.1871 -1.54072 0
M  V30 378 C 35.1333 -3.40238 1.17942 0
M  V30 379 C 34.9863 -3.58979 2.71024 0
M  V30 380 C 36.3053 -4.33479 0.760548 0
M  V30 381 H 33.4243 -0.687475 0.265606 0
M  V30 382 H 36.0663 -1.40477 1.2793 0
M  V30 383 H 34.2163 -3.81964 0.709608 0
M  V30 384 H 35.8883 -3.26421 3.25955 0
M  V30 385 H 34.1313 -3.02018 3.11396 0
M  V30 386 H 34.8023 -4.64823 2.9773 0
M  V30 387 H 37.2783 -3.99469 1.16464 0
M  V30 388 H 36.1543 -5.37664 1.10493 0
M  V30 389 H 36.4153 -4.40813 -0.337063 0
M  V30 390 N 35.4744 -0.807222 -1.35358 0
M  V30 391 C 36.6994 -0.399309 -2.0352 0
M  V30 392 C 37.1244 0.981986 -1.60433 0
M  V30 393 O 36.4824 1.63601 -0.781299 0
M  V30 394 C 36.5304 -0.491552 -3.57234 0
M  V30 395 O 35.6344 0.494754 -4.09421 0
M  V30 396 H 34.9754 -0.166682 -0.642739 0
M  V30 397 H 37.5054 -1.09328 -1.72941 0
M  V30 398 H 37.5154 -0.361588 -4.06395 0
M  V30 399 H 36.1904 -1.49907 -3.87944 0
M  V30 400 H 34.7674 0.324977 -3.71481 0
M  V30 401 N 36.9525 1.47285 -0.560781 0
M  V30 402 C 37.8625 2.33846 0.187954 0
M  V30 403 C 38.8785 1.48412 0.908293 0
M  V30 404 O 40.0545 1.81332 0.876388 0
M  V30 405 C 37.1195 3.25178 1.2025 0
M  V30 406 C 36.1805 4.26504 0.489208 0
M  V30 407 C 35.4135 5.13472 1.45542 0
M  V30 408 O 35.6365 5.02959 2.6905 0
M  V30 409 O 34.5705 5.93902 0.977963 0
M  V30 410 H 38.3965 2.99177 -0.522177 0
M  V30 411 H 35.9815 1.45903 -0.321364 0
M  V30 412 H 37.8635 3.81584 1.78805 0
M  V30 413 H 36.5385 2.6247 1.89449 0
M  V30 414 H 35.4455 3.73847 -0.137627 0
M  V30 415 H 36.7785 4.91935 -0.161399 0
M  V30 416 N 38.4306 0.297415 1.54768 0
M  V30 417 C 39.3776 -0.580276 2.23386 0
M  V30 418 C 40.3476 -1.13238 1.21517 0
M  V30 419 O 41.5326 -1.17757 1.50126 0
M  V30 420 C 38.6726 -1.74801 2.97555 0
M  V30 421 C 37.7856 -1.22764 4.1419 0
M  V30 422 C 36.9206 -2.35895 4.75949 0
M  V30 423 C 35.9596 -1.80974 5.84735 0
M  V30 424 N 35.0966 -2.87664 6.40464 0
M  V30 425 H 39.9366 0.0114833 2.97998 0
M  V30 426 H 37.4736 0.0174361 1.4709 0
M  V30 427 H 39.4316 -2.43475 3.38786 0
M  V30 428 H 38.0616 -2.31145 2.25326 0
M  V30 429 H 37.1136 -0.433271 3.77924 0
M  V30 430 H 38.4256 -0.785551 4.92575 0
M  V30 431 H 37.5796 -3.12523 5.20014 0
M  V30 432 H 36.3186 -2.83429 3.96887 0
M  V30 433 H 35.3236 -1.02834 5.40097 0
M  V30 434 H 36.5486 -1.34348 6.65678 0
M  V30 435 H 34.4946 -3.34538 5.64287 0
M  V30 436 H 34.4116 -2.4794 7.14186 0
M  V30 437 H 35.6796 -3.642 6.89187 0
M  V30 438 N 39.9087 -1.5758 0.0250728 0
M  V30 439 C 41.1367 -1.9593 -0.664747 0
M  V30 440 C 41.5517 -0.901352 -1.65895 0
M  V30 441 O 40.9087 0.117255 -1.82123 0
M  V30 442 C 40.9597 -3.34342 -1.37468 0
M  V30 443 O 40.6807 -4.36079 -0.420324 0
M  V30 444 C 42.1817 -3.873 -2.1567 0
M  V30 445 H 39.4017 -0.645405 -0.183557 0
M  V30 446 H 41.9457 -2.04329 0.0836372 0
M  V30 447 H 40.1007 -3.27175 -2.0745 0
M  V30 448 H 40.5147 -5.16297 -0.923991 0
M  V30 449 H 41.9887 -4.86504 -2.60803 0
M  V30 450 H 42.4657 -3.21331 -2.99405 0
M  V30 451 H 43.0717 -3.97723 -1.50654 0
M  V30 452 N 41.3868 0.248026 -1.55636 0
M  V30 453 C 42.6118 0.998028 -1.81808 0
M  V30 454 C 43.0368 1.78207 -0.601979 0
M  V30 455 O 42.3948 1.75653 0.448961 0
M  V30 456 C 42.4428 1.9125 -3.05705 0
M  V30 457 O 41.5468 3.00406 -2.82542 0
M  V30 458 H 40.8878 0.284045 -0.600179 0
M  V30 459 H 43.4178 0.269357 -2.02819 0
M  V30 460 H 43.4278 2.32737 -3.35108 0
M  V30 461 H 42.1028 1.33602 -3.93857 0
M  V30 462 H 40.6798 2.63056 -2.64303 0
M  V30 463 N 42.8649 1.48995 0.513639 0
M  V30 464 C 43.7949 1.67636 1.62544 0
M  V30 465 C 44.7759 0.525087 1.61793 0
M  V30 466 O 45.9609 0.759502 1.78732 0
M  V30 467 C 43.0909 1.73114 3.01079 0
M  V30 468 C 42.0449 2.87905 3.16693 0
M  V30 469 C 41.3709 2.78486 4.56453 0
M  V30 470 C 42.6709 4.29005 2.97913 0
M  V30 471 H 44.3649 2.60716 1.47198 0
M  V30 472 H 41.9109 1.25465 0.706714 0
M  V30 473 H 43.8639 1.84742 3.78746 0
M  V30 474 H 42.5879 0.766241 3.17484 0
M  V30 475 H 41.2469 2.75859 2.41448 0
M  V30 476 H 40.8949 1.7993 4.69717 0
M  V30 477 H 40.5949 3.55523 4.67843 0
M  V30 478 H 42.1189 2.92104 5.36197 0
M  V30 479 H 43.5329 4.41798 3.65359 0
M  V30 480 H 41.9299 5.07166 3.20785 0
M  V30 481 H 42.9999 4.44329 1.94165 0
M  V30 482 N 44.343 -0.763751 1.37857 0
M  V30 483 C 45.306 -1.85889 1.34081 0
M  V30 484 C 46.306 -1.58949 0.243277 0
M  V30 485 O 47.496 -1.66882 0.499589 0
M  V30 486 C 44.628 -3.23176 1.08489 0
M  V30 487 H 45.821 -1.90648 2.31502 0
M  V30 488 H 43.374 -0.964367 1.23003 0
M  V30 489 H 44.109 -3.24091 0.116318 0
M  V30 490 H 43.894 -3.44124 1.8794 0
M  V30 491 H 45.384 -4.03254 1.08517 0
M  V30 492 N 45.8211 -1.22559 -0.990812 0
M  V30 493 C 47.0981 -0.959875 -1.70428 0
M  V30 494 C 47.4781 0.524455 -2.04481 0
M  V30 495 O 46.8261 1.49302 -1.72977 0
M  V30 496 C 47.0361 -1.85955 -2.95333 0
M  V30 497 C 48.3841 -2.11687 -3.68068 0
M  V30 498 O 49.4081 -1.8342 -3.05345 0
M  V30 499 O 48.2671 -2.59572 -4.80921 0
M  V30 500 H 45.3611 -0.361154 -0.743974 0
M  V30 501 H 47.9071 -1.33554 -1.04697 0
M  V30 502 H 46.6791 -2.86346 -2.66687 0
M  V30 503 H 46.3021 -1.4856 -3.68803 0
M  V30 504 N 47.2992 1.18797 -1.03562 0
M  V30 505 C 48.2312 2.21731 -0.580337 0
M  V30 506 C 49.2442 1.59051 0.347349 0
M  V30 507 O 50.4332 1.77929 0.142669 0
M  V30 508 C 47.5332 3.38459 0.172805 0
M  V30 509 C 46.7062 4.3072 -0.761496 0
M  V30 510 C 45.7652 5.26174 -0.0525547 0
M  V30 511 O 44.7912 5.65108 -0.681333 0
M  V30 512 N 45.9932 5.67624 1.21586 0
M  V30 513 H 48.7582 2.61417 -1.46565 0
M  V30 514 H 46.3192 1.33531 -0.915476 0
M  V30 515 H 48.3112 3.99335 0.656793 0
M  V30 516 H 46.8812 2.97507 0.959602 0
M  V30 517 H 46.1012 3.67525 -1.42544 0
M  V30 518 H 47.3892 4.89267 -1.39626 0
M  V30 519 H 46.7872 5.38038 1.74732 0
M  V30 520 H 45.3442 6.30721 1.64421 0
M  V30 521 N 48.7773 0.814389 1.34928 0
M  V30 522 C 49.6873 0.231978 2.3345 0
M  V30 523 C 50.7033 -0.629139 1.62228 0
M  V30 524 O 51.8793 -0.539052 1.94052 0
M  V30 525 C 48.9443 -0.603482 3.41407 0
M  V30 526 C 48.0053 0.279037 4.28392 0
M  V30 527 C 47.2383 -0.516643 5.31193 0
M  V30 528 O 47.4613 -1.75068 5.4287 0
M  V30 529 O 46.3953 0.0965652 6.01823 0
M  V30 530 H 50.2213 1.04721 2.85074 0
M  V30 531 H 47.8063 0.576343 1.37836 0
M  V30 532 H 49.6883 -1.07908 4.0735 0
M  V30 533 H 48.3633 -1.39618 2.92042 0
M  V30 534 H 47.2703 0.801948 3.65403 0
M  V30 535 H 48.6033 1.03588 4.81176 0
M  V30 536 N 50.2554 -1.46986 0.568584 0
M  V30 537 C 51.1654 -2.33942 -0.17555 0
M  V30 538 C 52.1814 -1.48891 -0.90041 0
M  V30 539 O 53.3574 -1.81794 -0.86676 0
M  V30 540 C 50.4224 -3.25811 -1.18524 0
M  V30 541 C 49.4834 -4.26757 -0.466582 0
M  V30 542 C 48.7164 -5.14236 -1.42817 0
M  V30 543 O 48.9394 -5.04379 -2.66379 0
M  V30 544 O 47.8734 -5.94412 -0.946453 0
M  V30 545 H 51.6994 -2.98896 0.538036 0
M  V30 546 H 49.2844 -1.4573 0.329097 0
M  V30 547 H 51.1664 -3.82527 -1.76779 0
M  V30 548 H 49.8414 -2.63471 -1.88055 0
M  V30 549 H 48.7484 -3.73769 0.157451 0
M  V30 550 H 50.0814 -4.91843 0.187485 0
M  V30 551 N 51.7335 -0.305618 -1.54608 0
M  V30 552 C 52.9795 0.302746 -2.00528 0
M  V30 553 C 53.3125 1.53184 -1.19367 0
M  V30 554 O 52.5875 1.92598 -0.271321 0
M  V30 555 C 52.8705 0.654756 -3.54097 0
M  V30 556 C 52.7235 -0.583793 -4.45995 0
M  V30 557 C 54.0425 1.47947 -4.14487 0
M  V30 558 H 51.1615 0.108564 -0.72896 0
M  V30 559 H 53.8035 -0.418634 -1.85331 0
M  V30 560 H 51.9535 1.26935 -3.67178 0
M  V30 561 H 53.6255 -1.22224 -4.44814 0
M  V30 562 H 51.8685 -1.21615 -4.16404 0
M  V30 563 H 52.5395 -0.293287 -5.5122 0
M  V30 564 H 55.0155 0.96013 -4.04871 0
M  V30 565 H 53.8915 1.69454 -5.22088 0
M  V30 566 H 54.1525 2.47011 -3.66658 0
M  V30 567 N 53.2116 1.57565 -0.0334293 0
M  V30 568 C 54.6276 1.56297 0.322997 0
M  V30 569 C 54.8276 1.03945 1.7262 0
M  V30 570 O 53.8836 0.688109 2.42943 0
M  V30 571 C 55.1966 3.00232 0.167664 0
M  V30 572 C 56.7446 3.12078 0.240107 0
M  V30 573 C 57.2196 4.57859 0.113513 0
M  V30 574 N 58.7106 4.62887 0.170359 0
M  V30 575 C 59.4456 5.73319 0.0962517 0
M  V30 576 N 58.9416 6.92794 -0.0291881 0
M  V30 577 N 60.7346 5.61898 0.150551 0
M  V30 578 H 52.8856 1.89923 -0.950956 0
M  V30 579 H 55.1486 0.873824 -0.367608 0
M  V30 580 H 54.8546 3.42501 -0.799102 0
M  V30 581 H 54.7286 3.654 0.936083 0
M  V30 582 H 57.1156 2.69718 1.19733 0
M  V30 583 H 57.1966 2.49623 -0.558763 0
M  V30 584 H 56.8406 5.009 -0.840314 0
M  V30 585 H 56.7706 5.18299 0.931302 0
M  V30 586 H 59.2616 3.76954 0.26728 0
M  V30 587 H 59.5746 7.7276 -0.0789252 0
M  V30 588 H 57.9196 6.94971 -0.0640299 0
M  V30 589 H 61.1106 4.67448 0.246981 0
M  V30 590 H 61.2836 6.47938 0.0893365 0
M  V30 591 N 54.6897 -0.239769 1.55765 0
M  V30 592 C 55.9177 -0.98417 1.81994 0
M  V30 593 C 56.3327 -1.7867 0.610124 0
M  V30 594 O 55.6897 -1.77571 -0.421271 0
M  V30 595 C 55.7407 -1.91635 3.06526 0
M  V30 596 O 55.4617 -1.14629 4.22838 0
M  V30 597 C 56.9627 -2.77616 3.45607 0
M  V30 598 H 54.1827 -0.28928 0.605441 0
M  V30 599 H 56.7267 -0.260499 2.02834 0
M  V30 600 H 54.8817 -2.5942 2.87715 0
M  V30 601 H 55.2957 -1.77745 4.93464 0
M  V30 602 H 56.7697 -3.38759 4.35828 0
M  V30 603 H 57.2467 -3.4909 2.6652 0
M  V30 604 H 57.8527 -2.15271 3.66795 0
M  V30 605 N 56.1678 -1.49265 -0.50573 0
M  V30 606 C 57.4168 -1.57761 -1.25675 0
M  V30 607 C 57.7298 -0.267371 -1.93764 0
M  V30 608 O 58.9358 -0.230827 -2.70517 0
M  V30 609 C 57.3918 -2.78332 -2.28165 0
M  V30 610 C 56.9998 -4.16096 -1.66037 0
M  V30 611 C 58.7438 -2.96155 -3.04125 0
M  V30 612 C 56.6508 -5.27895 -2.6661 0
M  V30 613 H 55.5808 -0.587391 -0.472745 0
M  V30 614 H 58.2318 -1.75644 -0.53118 0
M  V30 615 H 56.6138 -2.53934 -3.03865 0
M  V30 616 H 57.7878 -4.50612 -0.963622 0
M  V30 617 H 56.1028 -4.03591 -1.02484 0
M  V30 618 H 58.6998 -3.76849 -3.79327 0
M  V30 619 H 59.0428 -2.06534 -3.61455 0
M  V30 620 H 59.5758 -3.2057 -2.35541 0
M  V30 621 H 56.3148 -6.1956 -2.14068 0
M  V30 622 H 55.8348 -4.97839 -3.34539 0
M  V30 623 H 57.5138 -5.57031 -3.29129 0
M  V30 624 N 57.6459 0.756429 -1.3826 0
M  V30 625 C 58.8929 1.51547 -1.34312 0
M  V30 626 C 59.2209 1.94382 0.0677144 0
M  V30 627 O 58.4759 1.65514 1.04421 0
M  V30 628 C 58.7749 2.78313 -2.24224 0
M  V30 629 C 58.4409 2.54455 -3.72241 0
M  V30 630 C 57.1029 2.47657 -4.12576 0
M  V30 631 C 59.4549 2.3354 -4.65949 0
M  V30 632 C 56.7829 2.17956 -5.44713 0
M  V30 633 C 59.1349 2.05359 -5.9834 0
M  V30 634 C 57.7989 1.97016 -6.37762 0
M  V30 635 H 57.0689 0.55455 -0.491482 0
M  V30 636 H 59.7159 0.870039 -1.70595 0
M  V30 637 H 58.0209 3.47492 -1.80987 0
M  V30 638 H 59.7179 3.36259 -2.18474 0
M  V30 639 H 56.3079 2.60616 -3.40261 0
M  V30 640 H 60.4919 2.37772 -4.35635 0
M  V30 641 H 55.7479 2.10003 -5.74203 0
M  V30 642 H 59.9219 1.88179 -6.70494 0
M  V30 643 H 57.5489 1.73766 -7.40074 0
M  V30 644 N 59.124 1.23083 0.984299 0
M  V30 645 C 60.373 1.05466 1.71929 0
M  V30 646 C 60.686 -0.409211 1.91272 0
M  V30 647 O 61.892 -0.705226 2.62181 0
M  V30 648 C 60.348 1.83874 3.09384 0
M  V30 649 C 59.956 3.34566 2.97943 0
M  V30 650 C 61.7 1.74734 3.8687 0
M  V30 651 C 59.607 4.05381 4.30605 0
M  V30 652 H 58.537 0.391039 0.644674 0
M  V30 653 H 61.188 1.47013 1.09815 0
M  V30 654 H 59.57 1.35131 3.72231 0
M  V30 655 H 60.744 3.90767 2.44209 0
M  V30 656 H 59.059 3.44476 2.33934 0
M  V30 657 H 61.656 2.24957 4.85076 0
M  V30 658 H 61.999 0.709372 4.10212 0
M  V30 659 H 62.532 2.21067 3.30717 0
M  V30 660 H 59.271 5.09467 4.1246 0
M  V30 661 H 58.791 3.53967 4.84218 0
M  V30 662 H 60.47 4.11458 4.99311 0
M  V30 663 N 60.6021 -1.18246 1.0419 0
M  V30 664 C 61.5501 -2.23968 0.627792 0
M  V30 665 C 62.5441 -1.65828 -0.346019 0
M  V30 666 O 63.7501 -1.78733 -0.213175 0
M  V30 667 H 60.1251 -0.728939 0.184802 0
M  V30 668 H 62.0961 -2.56202 1.52981 0
M  V30 669 C 60.8451 -3.47699 0.00796591 0
M  V30 670 H 60.1681 -3.92734 0.748347 0
M  V30 671 H 61.6081 -4.23294 -0.24455 0
M  V30 672 C 60.0671 -3.13153 -1.24246 0
M  V30 673 O 60.5971 -3.27003 -2.33307 0
M  V30 674 N 58.8031 -2.67467 -1.13622 0
M  V30 675 H 58.3501 -2.56396 -0.248734 0
M  V30 676 H 58.3081 -2.44724 -1.97377 0
M  V30 677 N 62.0802 -0.821533 -1.34494 0
M  V30 678 C 63.0122 -0.199946 -2.28326 0
M  V30 679 C 64.0252 0.609377 -1.50965 0
M  V30 680 O 65.2142 0.439285 -1.7301 0
M  V30 681 C 62.3142 0.738431 -3.30757 0
M  V30 682 C 61.4872 -0.0277632 -4.37391 0
M  V30 683 C 60.5462 0.831332 -5.19591 0
M  V30 684 O 59.5722 0.276822 -5.68526 0
M  V30 685 N 60.7742 2.15132 -5.39165 0
M  V30 686 H 63.5392 -1.00609 -2.82308 0
M  V30 687 H 61.1002 -0.678366 -1.47003 0
M  V30 688 H 63.0922 1.31773 -3.82646 0
M  V30 689 H 61.6622 1.44533 -2.7718 0
M  V30 690 H 60.8822 -0.788359 -3.86236 0
M  V30 691 H 62.1702 -0.555251 -5.05761 0
M  V30 692 H 61.5682 2.62559 -5.01078 0
M  V30 693 H 60.1252 2.6795 -5.94177 0
M  V30 694 N 63.5583 1.46682 -0.576371 0
M  V30 695 C 64.9693 1.86112 -0.148091 0
M  V30 696 C 65.3203 1.48073 1.2872 0
M  V30 697 O 64.4453 0.892656 1.97131 0
M  V30 698 C 65.0403 3.37786 -0.261982 0
M  V30 699 C 63.5993 3.76235 0.111384 0
M  V30 700 C 62.7463 2.70713 -0.60083 0
M  V30 701 H 65.6973 1.37927 -0.78497 0
M  V30 702 H 65.7183 3.77007 0.514364 0
M  V30 703 H 65.2303 3.6544 -1.30671 0
M  V30 704 H 63.3313 3.54198 1.15649 0
M  V30 705 H 63.4443 4.78391 -0.26052 0
M  V30 706 H 61.8083 2.54666 -0.0417783 0
M  V30 707 H 62.5913 3.01208 -1.64708 0
M  V30 708 N 65.0364 0.313813 1.54444 0
M  V30 709 C 65.9684 -0.590425 2.21465 0
M  V30 710 C 66.9814 -1.08753 1.21147 0
M  V30 711 O 68.1704 -1.00278 1.4767 0
M  V30 712 C 65.2704 -1.82179 2.85769 0
M  V30 713 C 64.4434 -1.46502 4.12136 0
M  V30 714 C 63.5024 -2.55288 4.60124 0
M  V30 715 O 62.5284 -2.19842 5.25032 0
M  V30 716 N 63.7304 -3.86053 4.33525 0
M  V30 717 H 66.4954 -0.0166033 2.99695 0
M  V30 718 H 64.0564 0.136578 1.61323 0
M  V30 719 H 66.0484 -2.54328 3.14801 0
M  V30 720 H 64.6184 -2.30369 2.11303 0
M  V30 721 H 63.8384 -0.575595 3.89975 0
M  V30 722 H 65.1264 -1.20221 4.94393 0
M  V30 723 H 64.5244 -4.17654 3.81552 0
M  V30 724 H 63.0814 -4.54461 4.67235 0
M  V30 725 N 66.5145 -1.57545 0.0417849 0
M  V30 726 C 67.4445 -2.14009 -0.933929 0
M  V30 727 C 68.4255 -1.05938 -1.33083 0
M  V30 728 O 69.6105 -1.33833 -1.40721 0
M  V30 729 C 66.7405 -2.67747 -2.21199 0
M  V30 730 C 65.6945 -3.80718 -1.95544 0
M  V30 731 C 65.0205 -4.20935 -3.29724 0
M  V30 732 C 66.3205 -5.06258 -1.28452 0
M  V30 733 H 68.0145 -2.95788 -0.463645 0
M  V30 734 H 65.5605 -1.42285 -0.221573 0
M  V30 735 H 67.5135 -3.05886 -2.89848 0
M  V30 736 H 66.2375 -1.83147 -2.70416 0
M  V30 737 H 64.8965 -3.43037 -1.2931 0
M  V30 738 H 64.5445 -3.33298 -3.76724 0
M  V30 739 H 64.2445 -4.9707 -3.13361 0
M  V30 740 H 65.7685 -4.61666 -3.9962 0
M  V30 741 H 67.1825 -5.41903 -1.8712 0
M  V30 742 H 65.5795 -5.87475 -1.22445 0
M  V30 743 H 66.6495 -4.84207 -0.259219 0
M  V30 744 N 67.9926 0.231505 -1.5589 0
M  V30 745 C 69.2206 0.974505 -1.82513 0
M  V30 746 C 69.6356 1.78344 -0.619591 0
M  V30 747 O 68.9926 1.77792 0.411848 0
M  V30 748 C 69.0436 1.90007 -3.07538 0
M  V30 749 O 68.7646 1.12385 -4.2344 0
M  V30 750 C 70.2656 2.75779 -3.47075 0
M  V30 751 H 67.4856 0.286065 -0.606966 0
M  V30 752 H 70.0296 0.249739 -2.02969 0
M  V30 753 H 68.1846 2.57891 -2.89086 0
M  V30 754 H 68.5986 1.75125 -4.944 0
M  V30 755 H 70.0726 3.36443 -4.37619 0
M  V30 756 H 70.5496 3.47672 -2.68367 0
M  V30 757 H 71.1556 2.13323 -3.67931 0
M  V30 758 N 69.4707 1.49531 0.497807 0
M  V30 759 C 70.4177 1.66436 1.59899 0
M  V30 760 C 71.3877 0.505793 1.58212 0
M  V30 761 O 72.5727 0.733202 1.7615 0
M  V30 762 C 69.7127 1.7399 2.98029 0
M  V30 763 C 68.8257 3.01172 3.09708 0
M  V30 764 C 67.9607 2.99686 4.38591 0
M  V30 765 C 66.9997 4.21434 4.43914 0
M  V30 766 N 66.1367 4.1784 5.64229 0
M  V30 767 H 70.9767 2.60459 1.44793 0
M  V30 768 H 68.5137 1.29137 0.704423 0
M  V30 769 H 70.4717 1.76352 3.78095 0
M  V30 770 H 69.1017 0.834301 3.11832 0
M  V30 771 H 68.1537 3.08408 2.22685 0
M  V30 772 H 69.4657 3.91165 3.09502 0
M  V30 773 H 68.6197 3.00628 5.2698 0
M  V30 774 H 67.3587 2.07477 4.41367 0
M  V30 775 H 66.3637 4.20733 3.53926 0
M  V30 776 H 67.5887 5.14839 4.42851 0
M  V30 777 H 65.5347 3.28469 5.67841 0
M  V30 778 H 65.4517 5.01571 5.65652 0
M  V30 779 H 66.7197 4.22889 6.54817 0
M  V30 780 N 70.9488 -0.749086 1.3866 0
M  V30 781 C 72.1958 -1.50833 1.35114 0
M  V30 782 C 72.5238 -1.94415 -0.0574049 0
M  V30 783 O 71.7788 -1.66065 -1.03541 0
M  V30 784 C 72.0778 -2.7712 2.25697 0
M  V30 785 C 71.7438 -2.52477 3.73585 0
M  V30 786 C 70.4058 -2.45466 4.13884 0
M  V30 787 C 72.7578 -2.31066 4.67181 0
M  V30 788 C 70.0858 -2.15064 5.45861 0
M  V30 789 C 72.4378 -2.02183 5.9942 0
M  V30 790 C 71.1018 -1.93631 6.38798 0
M  V30 791 H 70.3718 -0.551936 0.494416 0
M  V30 792 H 73.0188 -0.860979 1.71054 0
M  V30 793 H 71.3238 -3.46528 1.82827 0
M  V30 794 H 73.0208 -3.35096 2.20254 0
M  V30 795 H 69.6108 -2.58807 3.41638 0
M  V30 796 H 73.7948 -2.35459 4.3689 0
M  V30 797 H 69.0508 -2.06954 5.75308 0
M  V30 798 H 73.2248 -1.8462 6.71482 0
M  V30 799 H 70.8518 -1.69839 7.40985 0
M  V30 800 N 72.4269 -1.23603 -0.977757 0
M  V30 801 C 73.6669 -1.08148 -1.73446 0
M  V30 802 C 74.0309 0.374785 -1.88307 0
M  V30 803 O 75.2319 0.650588 -2.60808 0
M  V30 804 C 73.5029 -1.78991 -3.0935 0
M  V30 805 S 75.0619 -1.79141 -4.00567 0
M  V30 806 H 71.8799 -0.386987 -0.596458 0
M  V30 807 H 74.4819 -1.5678 -1.16792 0
M  V30 808 H 73.1859 -2.8408 -2.96187 0
M  V30 809 H 72.7169 -1.30651 -3.71071 0
M  V30 810 H 74.7319 -0.851892 -4.88833 0
M  V30 811 N 73.905 1.17692 -1.04816 0
M  V30 812 C 74.853 2.23632 -0.63966 0
M  V30 813 C 75.847 1.6601 0.337219 0
M  V30 814 O 77.053 1.78844 0.203693 0
M  V30 815 H 73.428 0.727949 -0.188665 0
M  V30 816 H 75.399 2.55387 -1.54337 0
M  V30 817 C 74.148 3.4769 -0.0264051 0
M  V30 818 H 73.471 3.92331 -0.769164 0
M  V30 819 H 74.911 4.23418 0.222098 0
M  V30 820 C 73.37 3.13807 1.22584 0
M  V30 821 O 73.9 3.28236 2.31569 0
M  V30 822 N 72.106 2.68065 1.12202 0
M  V30 823 H 71.653 2.56525 0.235133 0
M  V30 824 H 71.611 2.45767 1.96076 0
M  V30 825 N 75.3831 0.828654 1.34056 0
M  V30 826 C 76.3311 0.242973 2.31327 0
M  V30 827 C 77.3251 -0.61944 1.57668 0
M  V30 828 O 78.5311 -0.51014 1.7262 0
M  V30 829 H 74.9061 0.059834 0.749616 0
M  V30 830 H 76.8771 1.07809 2.78244 0
M  V30 831 C 75.6261 -0.575733 3.429 0
M  V30 832 H 74.9491 0.0785582 3.99723 0
M  V30 833 H 76.3891 -0.951547 4.13185 0
M  V30 834 C 74.8481 -1.75044 2.87856 0
M  V30 835 O 75.3781 -2.84882 2.83205 0
M  V30 836 N 73.5841 -1.56903 2.44602 0
M  V30 837 H 73.1311 -0.675547 2.48584 0
M  V30 838 H 73.0891 -2.35652 2.08124 0
M  V30 839 N 76.8612 -1.46375 0.584142 0
M  V30 840 C 77.8112 -2.27371 -0.169232 0
M  V30 841 C 78.7952 -1.35955 -0.860523 0
M  V30 842 O 79.9872 -1.60119 -0.754382 0
M  V30 843 C 77.1162 -3.22334 -1.18134 0
M  V30 844 C 76.2022 -4.21235 -0.492088 0
M  V30 845 N 76.5932 -5.03766 0.453129 0
M  V30 846 C 74.8912 -4.39773 -0.742652 0
M  V30 847 C 75.5922 -5.75366 0.85609 0
M  V30 848 N 74.5682 -5.43214 0.204926 0
M  V30 849 H 78.3702 -2.88572 0.557097 0
M  V30 850 H 75.8842 -1.57242 0.406042 0
M  V30 851 H 77.8812 -3.79071 -1.73525 0
M  V30 852 H 76.5412 -2.62693 -1.90847 0
M  V30 853 H 77.5522 -5.11227 0.828723 0
M  V30 854 H 74.2292 -3.91279 -1.45625 0
M  V30 855 H 75.6192 -6.5172 1.63434 0
M  V30 856 N 78.3393 -0.321999 -1.54275 0
M  V30 857 C 79.5853 0.281461 -2.00837 0
M  V30 858 C 79.9183 1.51909 -1.20985 0
M  V30 859 O 79.1933 1.923 -0.291733 0
M  V30 860 C 79.4763 0.617162 -3.54772 0
M  V30 861 C 79.3293 -0.631064 -4.45351 0
M  V30 862 C 80.6483 1.43542 -4.16033 0
M  V30 863 H 77.7673 0.100826 -0.730071 0
M  V30 864 H 80.4093 -0.438268 -1.84876 0
M  V30 865 H 78.5593 1.23034 -3.68504 0
M  V30 866 H 80.2313 -1.26934 -4.43492 0
M  V30 867 H 78.4743 -1.26025 -4.15091 0
M  V30 868 H 79.1453 -0.351735 -5.50878 0
M  V30 869 H 81.6213 0.917134 -4.05867 0
M  V30 870 H 80.4973 1.63907 -5.23856 0
M  V30 871 H 80.7583 2.43108 -3.69257 0
M  V30 872 N 79.8174 1.5752 -0.0501392 0
M  V30 873 C 81.0424 1.97376 0.636997 0
M  V30 874 C 81.4674 0.927466 1.63645 0
M  V30 875 O 80.8254 -0.10941 1.8097 0
M  V30 876 C 80.8734 3.36304 1.30123 0
M  V30 877 O 79.9774 3.34156 2.41689 0
M  V30 878 H 79.3184 0.642998 0.165679 0
M  V30 879 H 81.8484 2.04258 -0.118233 0
M  V30 880 H 81.8584 3.73008 1.65315 0
M  V30 881 H 80.5334 4.11993 0.568746 0
M  V30 882 H 79.1104 3.09196 2.08451 0
M  V30 883 N 81.2955 -0.223234 1.56011 0
M  V30 884 C 82.5235 -0.964812 1.83027 0
M  V30 885 C 82.9385 -1.78013 0.62904 0
M  V30 886 O 82.2955 -1.78008 -0.402414 0
M  V30 887 C 82.3465 -1.88373 3.08542 0
M  V30 888 O 82.0675 -1.10137 4.2403 0
M  V30 889 C 83.5685 -2.73934 3.48533 0
M  V30 890 H 80.7885 -0.282842 0.608475 0
M  V30 891 H 83.3325 -0.238971 2.03099 0
M  V30 892 H 81.4875 -2.56354 2.9045 0
M  V30 893 H 81.9015 -1.72501 4.95322 0
M  V30 894 H 83.3755 -3.34117 4.39397 0
M  V30 895 H 83.8525 -3.46244 2.70207 0
M  V30 896 H 84.4585 -2.11369 3.69057 0
M  V30 897 N 82.7736 -1.49793 -0.48987 0
M  V30 898 C 83.7366 -1.66752 -1.57246 0
M  V30 899 C 84.7366 -0.538867 -1.51502 0
M  V30 900 O 85.9266 -0.805545 -1.54456 0
M  V30 901 C 83.0586 -1.67528 -2.96896 0
M  V30 902 H 84.2516 -2.63321 -1.43534 0
M  V30 903 H 81.8046 -1.38992 -0.714914 0
M  V30 904 H 82.5396 -0.725837 -3.16073 0
M  V30 905 H 82.3246 -2.49504 -3.02473 0
M  V30 906 H 83.8146 -1.82667 -3.7553 0
M  V30 907 N 84.2517 0.741722 -1.39055 0
M  V30 908 C 85.1987 1.85566 -1.37237 0
M  V30 909 C 86.1687 1.64457 -0.233072 0
M  V30 910 O 87.3537 1.85957 -0.427147 0
M  V30 911 C 84.4937 3.23004 -1.215 0
M  V30 912 C 83.6067 3.55864 -2.44918 0
M  V30 913 C 82.7417 4.82669 -2.21821 0
M  V30 914 C 81.7807 5.08351 -3.40948 0
M  V30 915 N 80.9177 6.26356 -3.17211 0
M  V30 916 H 85.7577 1.86455 -2.32462 0
M  V30 917 H 83.2947 0.911176 -1.15482 0
M  V30 918 H 85.2527 4.02331 -1.10389 0
M  V30 919 H 83.8827 3.21411 -0.29908 0
M  V30 920 H 82.9347 2.7129 -2.66657 0
M  V30 921 H 84.2467 3.70765 -3.33668 0
M  V30 922 H 83.4007 5.69962 -2.07914 0
M  V30 923 H 82.1397 4.69929 -1.30454 0
M  V30 924 H 81.1447 4.19522 -3.55361 0
M  V30 925 H 82.3697 5.22981 -4.33207 0
M  V30 926 H 80.3157 6.14917 -2.28502 0
M  V30 927 H 80.2327 6.41813 -3.99515 0
M  V30 928 H 81.5007 7.16506 -3.06984 0
M  V30 929 N 85.7298 1.2412 0.971189 0
M  V30 930 C 86.9598 1.10415 1.7462 0
M  V30 931 C 87.3678 -0.346462 1.86001 0
M  V30 932 O 86.7108 -1.25104 1.34517 0
M  V30 933 C 86.7728 1.66596 3.18568 0
M  V30 934 C 86.4368 3.15446 3.3067 0
M  V30 935 C 87.4338 4.12636 3.16271 0
M  V30 936 C 85.1188 3.55337 3.55022 0
M  V30 937 C 87.1128 5.47699 3.26044 0
M  V30 938 C 84.7998 4.90542 3.64434 0
M  V30 939 C 85.7978 5.86532 3.49956 0
M  V30 940 O 85.4858 7.19279 3.59017 0
M  V30 941 H 85.2178 0.386616 0.55453 0
M  V30 942 H 87.7718 1.64633 1.22821 0
M  V30 943 H 86.0018 1.06808 3.71657 0
M  V30 944 H 87.6908 1.48232 3.77865 0
M  V30 945 H 88.4568 3.8316 2.97344 0
M  V30 946 H 84.3358 2.8113 3.65359 0
M  V30 947 H 87.8798 6.22603 3.14661 0
M  V30 948 H 83.7768 5.19691 3.82873 0
M  V30 949 H 84.5448 7.27153 3.75754 0
M  V30 950 N 87.2079 -1.17134 1.05439 0
M  V30 951 C 88.1559 -2.23289 0.651511 0
M  V30 952 C 89.1499 -1.66186 -0.328411 0
M  V30 953 O 90.3559 -1.78949 -0.194206 0
M  V30 954 H 86.7309 -0.726938 0.192523 0
M  V30 955 H 88.7019 -2.54565 1.55689 0
M  V30 956 C 87.4509 -3.47671 0.0448436 0
M  V30 957 H 86.7739 -3.91918 0.78996 0
M  V30 958 H 88.2139 -4.2353 -0.19964 0
M  V30 959 C 86.6729 -3.14453 -1.20918 0
M  V30 960 O 87.2029 -3.29459 -2.29825 0
M  V30 961 N 85.4089 -2.68657 -1.10779 0
M  V30 962 H 84.9559 -2.56646 -0.221526 0
M  V30 963 H 84.9139 -2.46804 -1.9477 0
M  V30 964 N 88.686 -0.835752 -1.33615 0
M  V30 965 C 89.935 -0.426289 -1.97144 0
M  V30 966 C 90.248 1.01912 -1.66953 0
M  V30 967 O 91.454 1.53311 -2.24072 0
M  V30 968 C 89.91 -0.711321 -3.52801 0
M  V30 969 C 89.518 -2.1712 -3.91871 0
M  V30 970 C 91.262 -0.368654 -4.22896 0
M  V30 971 C 89.169 -2.40044 -5.40493 0
M  V30 972 H 88.099 -0.15567 -0.737755 0
M  V30 973 H 90.75 -1.0239 -1.52278 0
M  V30 974 H 89.132 -0.0433766 -3.95976 0
M  V30 975 H 90.306 -2.87936 -3.59763 0
M  V30 976 H 88.621 -2.47654 -3.34749 0
M  V30 977 H 91.218 -0.517601 -5.32189 0
M  V30 978 H 91.561 0.688078 -4.10574 0
M  V30 979 H 92.094 -0.991702 -3.8524 0
M  V30 980 H 88.833 -3.44271 -5.57815 0
M  V30 981 H 88.353 -1.73785 -5.74072 0
M  V30 982 H 90.032 -2.23042 -6.0734 0
M  V30 983 N 90.1641 1.46063 -0.591896 0
M  V30 984 C 91.4131 2.01547 -0.0786637 0
M  V30 985 C 91.7261 1.46796 1.29268 0
M  V30 986 O 92.9321 1.94157 1.89777 0
M  V30 987 C 91.3881 3.59787 -0.0900024 0
M  V30 988 C 90.9961 4.23534 -1.46023 0
M  V30 989 C 92.7401 4.22895 0.368806 0
M  V30 990 C 90.6471 5.73881 -1.4288 0
M  V30 991 H 89.5771 0.753564 -0.0256388 0
M  V30 992 H 92.2281 1.677 -0.744905 0
M  V30 993 H 90.6101 3.90752 0.642586 0
M  V30 994 H 91.7841 4.04167 -2.21328 0
M  V30 995 H 90.0991 3.72558 -1.85982 0
M  V30 996 H 92.6961 5.33116 0.411258 0
M  V30 997 H 93.0391 3.9247 1.38827 0
M  V30 998 H 93.5721 3.9659 -0.31001 0
M  V30 999 H 90.3111 6.0898 -2.42536 0
M  V30 1000 H 89.8311 5.95486 -0.718095 0
M  V30 1001 H 91.5101 6.36776 -1.14565 0
M  V30 1002 N 91.6422 0.330177 1.54103 0
M  V30 1003 C 92.8702 -0.272179 2.05102 0
M  V30 1004 C 93.2852 -1.45267 1.20595 0
M  V30 1005 O 92.6422 -1.8094 0.238144 0
M  V30 1006 C 92.6932 -0.70023 3.54653 0
M  V30 1007 O 92.4142 0.433301 4.35952 0
M  V30 1008 C 93.9152 -1.3647 4.21771 0
M  V30 1009 H 91.1352 -0.0549159 0.668749 0
M  V30 1010 H 93.6792 0.478285 1.98828 0
M  V30 1011 H 91.8342 -1.40066 3.61193 0
M  V30 1012 H 92.2482 0.0947539 5.24414 0
M  V30 1013 H 93.7222 -1.61509 5.27843 0
M  V30 1014 H 94.1992 -2.31409 3.73292 0
M  V30 1015 H 94.8052 -0.706675 4.19388 0
M  V30 1016 N 93.1203 -1.57491 0.0584922 0
M  V30 1017 C 94.3673 -1.92978 -0.613648 0
M  V30 1018 C 94.6953 -0.937461 -1.70417 0
M  V30 1019 O 93.9503 0.049078 -1.95638 0
M  V30 1020 C 94.2493 -3.3513 -1.24188 0
M  V30 1021 C 93.9153 -4.50037 -0.278826 0
M  V30 1022 C 92.5773 -4.81198 -0.0138447 0
M  V30 1023 C 94.9293 -5.19807 0.380777 0
M  V30 1024 C 92.2573 -5.79473 0.918052 0
M  V30 1025 C 94.6093 -6.19079 1.30091 0
M  V30 1026 C 93.2733 -6.48665 1.57449 0
M  V30 1027 H 92.5433 -0.706157 -0.22455 0
M  V30 1028 H 95.1903 -1.91082 0.126533 0
M  V30 1029 H 93.4953 -3.33429 -2.05749 0
M  V30 1030 H 95.1923 -3.59871 -1.769 0
M  V30 1031 H 91.7823 -4.25726 -0.495539 0
M  V30 1032 H 95.9663 -4.95939 0.189158 0
M  V30 1033 H 91.2223 -6.00727 1.1374 0
M  V30 1034 H 95.3963 -6.7225 1.81804 0
M  V30 1035 H 93.0233 -7.24628 2.29822 0
M  V30 1036 N 94.5984 0.214957 -1.56127 0
M  V30 1037 C 95.5284 1.2695 -1.95974 0
M  V30 1038 C 96.5094 1.48539 -0.828868 0
M  V30 1039 O 97.6944 1.60611 -1.09168 0
M  V30 1040 C 94.8244 2.61794 -2.28214 0
M  V30 1041 C 93.7784 2.54851 -3.43853 0
M  V30 1042 C 93.1044 3.93785 -3.61715 0
M  V30 1043 C 94.4044 2.09065 -4.78632 0
M  V30 1044 H 96.0984 0.93846 -2.84312 0
M  V30 1045 H 93.6444 0.449996 -1.36788 0
M  V30 1046 H 95.5974 3.35731 -2.54682 0
M  V30 1047 H 94.3214 2.96599 -1.36736 0
M  V30 1048 H 92.9804 1.8337 -3.17444 0
M  V30 1049 H 92.6284 4.25908 -2.67602 0
M  V30 1050 H 92.3284 3.90019 -4.39498 0
M  V30 1051 H 93.8524 4.69374 -3.90539 0
M  V30 1052 H 95.2664 2.7275 -5.04262 0
M  V30 1053 H 93.6634 2.16346 -5.59745 0
M  V30 1054 H 94.7334 1.04315 -4.73547 0
M  V30 1055 N 96.0765 1.50051 0.48192 0
M  V30 1056 C 97.4875 1.5348 1.06305 0
M  V30 1057 C 97.8385 0.331997 1.93371 0
M  V30 1058 O 96.9635 -0.556256 2.09129 0
M  V30 1059 C 97.5585 2.7813 1.93466 0
M  V30 1060 C 96.1175 2.84275 2.46707 0
M  V30 1061 C 95.2645 2.47637 1.24785 0
M  V30 1062 H 98.2155 1.56472 0.264995 0
M  V30 1063 H 98.2365 2.59372 2.78399 0
M  V30 1064 H 97.7485 3.65654 1.30072 0
M  V30 1065 H 95.8495 2.01077 3.13686 0
M  V30 1066 H 95.9625 3.8691 2.82555 0
M  V30 1067 H 94.3265 1.99835 1.57918 0
M  V30 1068 H 95.1095 3.37457 0.630694 0
M  V30 1069 N 97.5546 -0.734337 1.39446 0
M  V30 1070 C 98.9706 -1.03997 1.21065 0
M  V30 1071 C 99.1706 -2.01369 0.0727019 0
M  V30 1072 O 98.2266 -2.45856 -0.575426 0
M  V30 1073 C 99.5396 -1.60163 2.54496 0
M  V30 1074 C 101.088 -1.7224 2.61347 0
M  V30 1075 C 101.563 -2.31814 3.95002 0
M  V30 1076 N 103.054 -2.39223 3.96644 0
M  V30 1077 C 103.789 -2.86258 4.96834 0
M  V30 1078 N 103.285 -3.33184 6.07421 0
M  V30 1079 N 105.078 -2.85473 4.84213 0
M  V30 1080 H 97.2286 -0.0885624 2.12215 0
M  V30 1081 H 99.4916 -0.10191 0.942506 0
M  V30 1082 H 99.1976 -0.960811 3.38321 0
M  V30 1083 H 99.0716 -2.5896 2.74262 0
M  V30 1084 H 101.459 -2.35443 1.77906 0
M  V30 1085 H 101.54 -0.720939 2.4543 0
M  V30 1086 H 101.184 -1.69238 4.78875 0
M  V30 1087 H 101.114 -3.32638 4.08239 0
M  V30 1088 H 103.605 -2.06057 3.16779 0
M  V30 1089 H 103.918 -3.67586 6.7978 0
M  V30 1090 H 102.263 -3.31191 6.11013 0
M  V30 1091 H 105.454 -2.48136 3.96921 0
M  V30 1092 H 105.627 -3.21814 5.62441 0
M  V30 1093 N 99.0327 -1.24633 -0.964593 0
M  V30 1094 C 100.28 -1.08788 -1.70796 0
M  V30 1095 C 100.608 0.372783 -1.90894 0
M  V30 1096 O 99.8627 1.29167 -1.47018 0
M  V30 1097 C 100.162 -1.7763 -3.10133 0
M  V30 1098 C 99.8277 -3.27557 -3.09866 0
M  V30 1099 C 98.4897 -3.6846 -3.09501 0
M  V30 1100 C 100.842 -4.23389 -3.03959 0
M  V30 1101 C 98.1697 -5.03624 -3.00965 0
M  V30 1102 C 100.522 -5.58565 -2.96965 0
M  V30 1103 C 99.1857 -5.98809 -2.9493 0
M  V30 1104 H 98.4557 -0.398084 -0.624988 0
M  V30 1105 H 101.103 -1.54777 -1.12767 0
M  V30 1106 H 99.4077 -1.24044 -3.71645 0
M  V30 1107 H 101.105 -1.62832 -3.66451 0
M  V30 1108 H 97.6947 -2.95006 -3.10917 0
M  V30 1109 H 101.879 -3.92787 -3.03368 0
M  V30 1110 H 97.1347 -5.33998 -2.97752 0
M  V30 1111 H 101.309 -6.32523 -2.91354 0
M  V30 1112 H 98.9357 -7.03505 -2.88071 0
M  V30 1113 N 100.511 1.16574 -1.06058 0
M  V30 1114 C 101.441 2.23057 -0.690488 0
M  V30 1115 C 102.422 1.67141 0.315901 0
M  V30 1116 O 103.607 1.93253 0.191556 0
M  V30 1117 C 100.737 3.47222 -0.073625 0
M  V30 1118 C 99.6908 4.16016 -1.00573 0
M  V30 1119 C 99.0168 5.34104 -0.252289 0
M  V30 1120 C 100.317 4.67264 -2.33371 0
M  V30 1121 H 102.011 2.54271 -1.58072 0
M  V30 1122 H 99.5568 1.22218 -0.76149 0
M  V30 1123 H 101.51 4.20939 0.19714 0
M  V30 1124 H 100.234 3.15302 0.85161 0
M  V30 1125 H 98.8928 3.44223 -1.2612 0
M  V30 1126 H 98.5408 4.98437 0.675988 0
M  V30 1127 H 98.2408 5.81072 -0.873455 0
M  V30 1128 H 99.7648 6.10599 0.0109857 0
M  V30 1129 H 101.179 5.32573 -2.12223 0
M  V30 1130 H 99.5758 5.24843 -2.90963 0
M  V30 1131 H 100.646 3.83602 -2.96611 0
M  V30 1132 N 101.989 0.842826 1.3317 0
M  V30 1133 C 103.219 0.453397 2.01564 0
M  V30 1134 C 103.627 -0.951147 1.63554 0
M  V30 1135 O 102.97 -1.63021 0.846746 0
M  V30 1136 C 103.032 0.499013 3.5602 0
M  V30 1137 C 102.696 1.86037 4.1742 0
M  V30 1138 C 103.693 2.82416 4.36506 0
M  V30 1139 C 101.378 2.15428 4.53757 0
M  V30 1140 C 103.372 4.06346 4.91082 0
M  V30 1141 C 101.059 3.39615 5.0804 0
M  V30 1142 C 102.057 4.3489 5.26649 0
M  V30 1143 O 101.745 5.5688 5.79776 0
M  V30 1144 H 101.477 0.177871 0.652179 0
M  V30 1145 H 104.031 1.13808 1.70988 0
M  V30 1146 H 102.261 -0.242467 3.85939 0
M  V30 1147 H 103.95 0.126852 4.05702 0
M  V30 1148 H 104.716 2.6101 4.08777 0
M  V30 1149 H 100.595 1.42061 4.38565 0
M  V30 1150 H 104.139 4.80722 5.05522 0
M  V30 1151 H 100.036 3.60876 5.352 0
M  V30 1152 H 100.804 5.58674 5.98185 0
M  V30 1153 N 103.467 -1.45747 0.599634 0
M  V30 1154 C 104.692 -2.07178 0.0960198 0
M  V30 1155 C 105.117 -1.44268 -1.207 0
M  V30 1156 O 104.475 -0.532503 -1.73303 0
M  V30 1157 C 104.523 -3.60579 -0.0385348 0
M  V30 1158 O 103.627 -3.97713 -1.0908 0
M  V30 1159 H 102.968 -0.660251 0.0704593 0
M  V30 1160 H 105.498 -1.87124 0.827385 0
M  V30 1161 H 105.508 -4.07298 -0.239304 0
M  V30 1162 H 104.183 -4.05756 0.912947 0
M  V30 1163 H 102.76 -3.62678 -0.867135 0
M  V30 1164 N 104.945 -0.338344 -1.53925 0
M  V30 1165 C 105.877 0.555117 -2.22376 0
M  V30 1166 C 106.89 1.06812 -1.22862 0
M  V30 1167 O 108.079 0.979163 -1.49247 0
M  V30 1168 C 105.179 1.77609 -2.88631 0
M  V30 1169 C 104.352 1.39927 -4.14414 0
M  V30 1170 C 103.411 2.47936 -4.64127 0
M  V30 1171 O 102.437 2.11461 -5.28463 0
M  V30 1172 N 103.639 3.79107 -4.39612 0
M  V30 1173 H 106.404 -0.0310778 -2.99684 0
M  V30 1174 H 103.965 -0.162226 -1.61085 0
M  V30 1175 H 105.957 2.49287 -3.18807 0
M  V30 1176 H 104.527 2.26978 -2.14941 0
M  V30 1177 H 103.747 0.513481 -3.90841 0
M  V30 1178 H 105.035 1.12341 -4.96243 0
M  V30 1179 H 104.433 4.11531 -3.88148 0
M  V30 1180 H 102.99 4.4697 -4.74406 0
M  V30 1181 N 106.423 1.57458 -0.0668435 0
M  V30 1182 C 107.67 1.93301 0.603406 0
M  V30 1183 C 107.998 0.946486 1.69917 0
M  V30 1184 O 107.253 -0.0387021 1.95662 0
M  V30 1185 C 107.552 3.35784 1.22409 0
M  V30 1186 C 107.218 4.50179 0.254955 0
M  V30 1187 C 105.88 4.81199 -0.0116746 0
M  V30 1188 C 108.232 5.19598 -0.408338 0
M  V30 1189 C 105.56 5.78978 -0.94877 0
M  V30 1190 C 107.912 6.18381 -1.33372 0
M  V30 1191 C 106.576 6.47821 -1.60887 0
M  V30 1192 H 105.846 0.707338 0.220802 0
M  V30 1193 H 108.493 1.91012 -0.136665 0
M  V30 1194 H 106.798 3.34515 2.03978 0
M  V30 1195 H 108.495 3.60804 1.74989 0
M  V30 1196 H 105.085 4.25983 0.472954 0
M  V30 1197 H 109.269 4.95832 -0.215456 0
M  V30 1198 H 104.525 6.00115 -1.16925 0
M  V30 1199 H 108.699 6.71277 -1.85367 0
M  V30 1200 H 106.326 7.23399 -2.33661 0
M  V30 1201 N 107.901 -0.206675 1.56239 0
M  V30 1202 C 109.317 -0.557025 1.49564 0
M  V30 1203 C 109.517 -1.86424 0.764735 0
M  V30 1204 O 108.573 -2.50584 0.310491 0
M  V30 1205 C 109.886 -0.622478 2.94186 0
M  V30 1206 C 111.434 -0.712099 3.04792 0
M  V30 1207 C 111.909 -0.808767 4.50803 0
M  V30 1208 N 113.4 -0.8726 4.54907 0
M  V30 1209 C 114.135 -0.967365 5.65181 0
M  V30 1210 N 113.631 -1.02515 6.85173 0
M  V30 1211 N 115.424 -1.00366 5.53067 0
M  V30 1212 H 107.575 0.650943 2.02179 0
M  V30 1213 H 109.838 0.230387 0.919579 0
M  V30 1214 H 109.544 0.268727 3.50672 0
M  V30 1215 H 109.418 -1.4811 3.46905 0
M  V30 1216 H 111.805 -1.59374 2.48363 0
M  V30 1217 H 111.886 0.172489 2.55218 0
M  V30 1218 H 111.53 0.0684754 5.07854 0
M  V30 1219 H 111.46 -1.70899 4.98098 0
M  V30 1220 H 113.951 -0.837657 3.68499 0
M  V30 1221 H 114.264 -1.09765 7.64965 0
M  V30 1222 H 112.609 -0.994026 6.87855 0
M  V30 1223 H 115.8 -0.95527 4.58249 0
M  V30 1224 H 115.973 -1.07405 6.39037 0
M  V30 1225 N 109.379 -1.50304 -0.473955 0
M  V30 1226 C 110.795 -1.37667 -0.807466 0
M  V30 1227 C 110.995 -0.430555 -1.96846 0
M  V30 1228 O 110.051 0.127874 -2.52176 0
M  V30 1229 C 111.364 -2.78974 -1.12223 0
M  V30 1230 C 112.912 -2.87868 -1.22885 0
M  V30 1231 C 113.387 -4.30003 -1.57676 0
M  V30 1232 N 114.878 -4.3294 -1.64673 0
M  V30 1233 C 115.613 -5.3991 -1.93091 0
M  V30 1234 N 115.109 -6.57092 -2.1955 0
M  V30 1235 N 116.902 -5.27351 -1.94569 0
M  V30 1236 H 109.053 -2.10394 0.291212 0
M  V30 1237 H 111.316 -0.945575 0.0677609 0
M  V30 1238 H 111.022 -3.50031 -0.342229 0
M  V30 1239 H 110.896 -3.16038 -2.05913 0
M  V30 1240 H 113.283 -2.17032 -1.99953 0
M  V30 1241 H 113.364 -2.54352 -0.271814 0
M  V30 1242 H 113.008 -5.01375 -0.81149 0
M  V30 1243 H 112.938 -4.61004 -2.54525 0
M  V30 1244 H 115.429 -3.48441 -1.46277 0
M  V30 1245 H 115.742 -7.34425 -2.405 0
M  V30 1246 H 114.087 -6.60272 -2.16948 0
M  V30 1247 H 117.278 -4.34801 -1.73394 0
M  V30 1248 H 117.451 -6.10805 -2.16381 0
M  V30 1249 N 110.857 0.726932 -1.39834 0
M  V30 1250 C 111.82 1.82269 -1.38962 0
M  V30 1251 C 112.82 1.58248 -0.285334 0
M  V30 1252 O 114.01 1.65499 -0.54366 0
M  V30 1253 C 111.142 3.20186 -1.17019 0
M  V30 1254 H 112.335 1.84443 -2.36476 0
M  V30 1255 H 109.888 0.931416 -1.25516 0
M  V30 1256 H 110.623 3.23669 -0.202204 0
M  V30 1257 H 110.408 3.3902 -1.96998 0
M  V30 1258 H 111.898 4.00235 -1.1917 0
M  V30 1259 N 112.336 1.25143 0.95797 0
M  V30 1260 C 113.299 1.05321 2.03569 0
M  V30 1261 C 114.299 0.007152 1.60798 0
M  V30 1262 O 115.489 0.24903 1.72411 0
M  V30 1263 C 112.621 0.598394 3.35607 0
M  V30 1264 H 113.814 2.00986 2.22586 0
M  V30 1265 H 111.367 1.07502 1.13459 0
M  V30 1266 H 112.102 -0.361014 3.22284 0
M  V30 1267 H 111.887 1.35351 3.67998 0
M  V30 1268 H 113.377 0.48104 4.1482 0
M  V30 1269 N 113.814 -1.1601 1.06675 0
M  V30 1270 C 114.762 -2.22586 0.675157 0
M  V30 1271 C 115.756 -1.66525 -0.310766 0
M  V30 1272 O 116.962 -1.79145 -0.175215 0
M  V30 1273 H 113.337 -0.724855 0.200223 0
M  V30 1274 H 115.308 -2.52899 1.58381 0
M  V30 1275 C 114.057 -3.47604 0.0817162 0
M  V30 1276 H 113.38 -3.91058 0.831484 0
M  V30 1277 H 114.82 -4.23718 -0.154708 0
M  V30 1278 C 113.279 -3.15718 -1.17576 0
M  V30 1279 O 113.809 -3.31878 -2.26318 0
M  V30 1280 N 112.015 -2.69816 -1.07923 0
M  V30 1281 H 111.562 -2.56866 -0.194293 0
M  V30 1282 H 111.52 -2.48855 -1.92141 0
M  V30 1283 N 115.292 -0.849877 -1.32721 0
M  V30 1284 C 116.517 -0.463856 -2.02146 0
M  V30 1285 C 116.942 0.930449 -1.63476 0
M  V30 1286 O 116.3 1.61033 -0.832952 0
M  V30 1287 C 116.348 -0.604955 -3.55489 0
M  V30 1288 O 115.452 0.36425 -4.10788 0
M  V30 1289 H 114.793 -0.187046 -0.637111 0
M  V30 1290 H 117.323 -1.14775 -1.69375 0
M  V30 1291 H 117.333 -0.490696 -4.05038 0
M  V30 1292 H 116.008 -1.62174 -3.82978 0
M  V30 1293 H 114.585 0.206628 -3.72327 0
M  V30 1294 N 116.77 1.45427 -0.607355 0
M  V30 1295 C 118.017 2.02241 -0.102455 0
M  V30 1296 C 118.345 1.4758 1.26691 0
M  V30 1297 O 117.6 0.640468 1.84923 0
M  V30 1298 C 117.899 3.57398 -0.0129263 0
M  V30 1299 C 117.565 4.3121 -1.31792 0
M  V30 1300 C 116.227 4.51092 -1.67539 0
M  V30 1301 C 118.579 4.73401 -2.18039 0
M  V30 1302 C 115.907 5.10422 -2.89285 0
M  V30 1303 C 118.259 5.34078 -3.39034 0
M  V30 1304 C 116.923 5.52184 -3.75033 0
M  V30 1305 H 116.193 0.740051 -0.037491 0
M  V30 1306 H 118.84 1.74494 -0.788926 0
M  V30 1307 H 117.145 3.84421 0.756806 0
M  V30 1308 H 118.842 3.99061 0.393881 0
M  V30 1309 H 115.432 4.16047 -1.02968 0
M  V30 1310 H 119.616 4.57774 -1.91721 0
M  V30 1311 H 114.872 5.22629 -3.17283 0
M  V30 1312 H 119.046 5.65724 -4.06115 0
M  V30 1313 H 116.673 5.97925 -4.69457 0
M  V30 1314 N 118.248 0.346503 1.53744 0
M  V30 1315 C 119.495 -0.249104 2.00962 0
M  V30 1316 C 119.823 -1.5032 1.23426 0
M  V30 1317 O 119.078 -1.93217 0.310761 0
M  V30 1318 C 119.377 -0.605809 3.52228 0
M  V30 1319 C 119.043 0.551747 4.47512 0
M  V30 1320 C 117.705 0.86941 4.73281 0
M  V30 1321 C 120.057 1.32818 5.03993 0
M  V30 1322 C 117.385 1.96582 5.52786 0
M  V30 1323 C 119.737 2.41486 5.84694 0
M  V30 1324 C 118.401 2.73808 6.08757 0
M  V30 1325 H 117.671 -0.0911538 0.735372 0
M  V30 1326 H 120.318 0.475027 1.85515 0
M  V30 1327 H 118.623 -1.4107 3.65522 0
M  V30 1328 H 120.32 -1.07858 3.86222 0
M  V30 1329 H 116.91 0.294102 4.2759 0
M  V30 1330 H 121.094 1.09602 4.84047 0
M  V30 1331 H 116.35 2.22045 5.69654 0
M  V30 1332 H 120.524 3.02078 6.27473 0
M  V30 1333 H 118.151 3.58892 6.7015 0
M  V30 1334 N 119.726 -1.57421 0.075193 0
M  V30 1335 C 120.656 -2.15942 -0.888324 0
M  V30 1336 C 121.637 -1.08737 -1.30806 0
M  V30 1337 O 122.822 -1.36787 -1.37851 0
M  V30 1338 C 119.952 -2.72379 -2.1547 0
M  V30 1339 C 118.906 -3.8478 -1.87425 0
M  V30 1340 C 118.232 -4.27834 -3.20721 0
M  V30 1341 C 119.532 -5.08869 -1.17684 0
M  V30 1342 H 121.226 -2.96705 -0.400799 0
M  V30 1343 H 118.772 -1.42723 -0.191342 0
M  V30 1344 H 120.725 -3.11965 -2.83295 0
M  V30 1345 H 119.449 -1.88841 -2.6647 0
M  V30 1346 H 118.108 -3.45703 -1.22004 0
M  V30 1347 H 117.756 -3.41214 -3.6957 0
M  V30 1348 H 117.456 -5.03605 -3.02746 0
M  V30 1349 H 118.98 -4.70039 -3.89738 0
M  V30 1350 H 120.394 -5.4575 -1.75584 0
M  V30 1351 H 118.791 -5.8994 -1.09956 0
M  V30 1352 H 119.861 -4.84648 -0.156453 0
M  V30 1353 N 121.204 0.198386 -1.56346 0
M  V30 1354 C 122.451 0.919286 -1.80431 0
M  V30 1355 C 122.779 1.83393 -0.647866 0
M  V30 1356 O 122.034 1.92236 0.366556 0
M  V30 1357 C 122.333 1.77031 -3.10475 0
M  V30 1358 C 121.999 1.00693 -4.39513 0
M  V30 1359 C 120.661 0.796145 -4.74568 0
M  V30 1360 C 123.013 0.469559 -5.19081 0
M  V30 1361 C 120.341 0.0364588 -5.86689 0
M  V30 1362 C 122.693 -0.2769 -6.31994 0
M  V30 1363 C 121.357 -0.49873 -6.65634 0
M  V30 1364 H 120.627 0.336391 -0.660244 0
M  V30 1365 H 123.274 0.185872 -1.90596 0
M  V30 1366 H 121.579 2.5723 -2.95533 0
M  V30 1367 H 123.276 2.33065 -3.26315 0
M  V30 1368 H 119.866 1.18122 -4.12001 0
M  V30 1369 H 124.05 0.619816 -4.92414 0
M  V30 1370 H 119.306 -0.145412 -6.11227 0
M  V30 1371 H 123.48 -0.700684 -6.92866 0
M  V30 1372 H 121.107 -1.0893 -7.52355 0
M  V30 1373 N 122.682 1.50554 0.465978 0
M  V30 1374 C 123.931 1.61038 1.21448 0
M  V30 1375 C 124.244 0.31865 1.92987 0
M  V30 1376 O 125.45 0.302469 2.6981 0
M  V30 1377 C 123.906 2.84283 2.20706 0
M  V30 1378 C 123.514 4.20352 1.54946 0
M  V30 1379 C 125.258 3.04115 2.96166 0
M  V30 1380 C 123.165 5.34778 2.5252 0
M  V30 1381 H 122.095 0.599718 0.457005 0
M  V30 1382 H 124.746 1.7699 0.484424 0
M  V30 1383 H 123.128 2.61901 2.97025 0
M  V30 1384 H 124.302 4.53008 0.843811 0
M  V30 1385 H 122.617 4.06167 0.917475 0
M  V30 1386 H 125.214 3.86774 3.69202 0
M  V30 1387 H 125.557 2.16045 3.55852 0
M  V30 1388 H 126.09 3.26702 2.26959 0
M  V30 1389 H 122.829 6.25018 1.97566 0
M  V30 1390 H 122.349 5.06534 3.21222 0
M  V30 1391 H 124.028 5.65561 3.14245 0
M  V30 1392 N 124.16 -0.719506 1.40217 0
M  V30 1393 C 125.123 -1.8153 1.39927 0
M  V30 1394 C 126.123 -1.58095 0.293723 0
M  V30 1395 O 127.313 -1.65209 0.552429 0
M  V30 1396 C 124.445 -3.19561 1.18716 0
M  V30 1397 H 125.638 -1.83186 2.37451 0
M  V30 1398 H 123.191 -0.924746 1.26008 0
M  V30 1399 H 123.926 -3.23557 0.219366 0
M  V30 1400 H 123.711 -3.3797 1.98793 0
M  V30 1401 H 125.201 -3.99598 1.21291 0
M  V30 1402 N 125.638 -1.25649 -0.95132 0
M  V30 1403 C 126.568 -1.08808 -2.06599 0
M  V30 1404 C 127.549 0.00382547 -1.701 0
M  V30 1405 O 128.734 -0.166325 -1.93486 0
M  V30 1406 C 125.864 -0.709542 -3.39975 0
M  V30 1407 C 124.818 -1.75206 -3.90496 0
M  V30 1408 C 124.144 -1.22811 -5.20405 0
M  V30 1409 C 125.444 -3.15153 -4.16504 0
M  V30 1410 H 127.138 -2.02048 -2.20946 0
M  V30 1411 H 124.684 -0.972835 -1.06169 0
M  V30 1412 H 126.637 -0.578649 -4.17408 0
M  V30 1413 H 125.361 0.258556 -3.25575 0
M  V30 1414 H 124.02 -1.87145 -3.15234 0
M  V30 1415 H 123.668 -0.250145 -5.02378 0
M  V30 1416 H 123.368 -1.92492 -5.55176 0
M  V30 1417 H 124.892 -1.10968 -6.00432 0
M  V30 1418 H 126.306 -3.06349 -4.84586 0
M  V30 1419 H 124.703 -3.82333 -4.62538 0
M  V30 1420 H 125.773 -3.61966 -3.22658 0
M  V30 1421 N 127.117 1.15442 -1.07289 0
M  V30 1422 C 128.047 2.22312 -0.714107 0
M  V30 1423 C 129.028 1.67467 0.298155 0
M  V30 1424 O 130.213 1.93445 0.171048 0
M  V30 1425 C 127.343 3.47124 -0.110448 0
M  V30 1426 C 126.297 4.14926 -1.04979 0
M  V30 1427 C 125.623 5.33807 -0.308924 0
M  V30 1428 C 126.923 4.64762 -2.38314 0
M  V30 1429 H 128.617 2.5258 -1.6076 0
M  V30 1430 H 126.163 1.21404 -0.77441 0
M  V30 1431 H 128.116 4.21124 0.152482 0
M  V30 1432 H 126.84 3.16187 0.81812 0
M  V30 1433 H 125.499 3.42866 -1.29764 0
M  V30 1434 H 125.147 4.99126 0.623084 0
M  V30 1435 H 124.847 5.80113 -0.935036 0
M  V30 1436 H 126.371 6.10576 -0.0537771 0
M  V30 1437 H 127.785 5.30292 -2.1786 0
M  V30 1438 H 126.182 5.21728 -2.96514 0
M  V30 1439 H 127.252 3.80434 -3.00663 0
M  V30 1440 N 128.595 0.856903 1.32268 0
M  V30 1441 C 129.527 0.260412 2.27716 0
M  V30 1442 C 130.54 -0.569137 1.52528 0
M  V30 1443 O 131.729 -0.39326 1.74114 0
M  V30 1444 C 128.829 -0.650477 3.32599 0
M  V30 1445 C 128.002 0.14372 4.37164 0
M  V30 1446 C 127.061 -0.69328 5.21613 0
M  V30 1447 O 126.087 -0.12599 5.69061 0
M  V30 1448 N 127.289 -2.00761 5.44679 0
M  V30 1449 H 130.054 1.08059 2.79541 0
M  V30 1450 H 127.615 0.717103 1.45152 0
M  V30 1451 H 129.607 -1.21581 3.86005 0
M  V30 1452 H 128.177 -1.37133 2.80915 0
M  V30 1453 H 127.397 0.890486 3.8401 0
M  V30 1454 H 128.685 0.68915 5.04111 0
M  V30 1455 H 128.083 -2.49181 5.07863 0
M  V30 1456 H 126.64 -2.52103 6.01072 0
M  V30 1457 N 130.073 -1.45103 0.615059 0
M  V30 1458 C 131.005 -2.28786 -0.13762 0
M  V30 1459 C 132.018 -1.40376 -0.824525 0
M  V30 1460 O 133.207 -1.64681 -0.688662 0
M  V30 1461 C 130.307 -3.16322 -1.21628 0
M  V30 1462 C 129.48 -4.33054 -0.615039 0
M  V30 1463 C 128.539 -5.01743 -1.58556 0
M  V30 1464 O 127.565 -5.58293 -1.10895 0
M  V30 1465 N 128.767 -5.01714 -2.91998 0
M  V30 1466 H 131.532 -2.94025 0.580483 0
M  V30 1467 H 129.093 -1.55373 0.45507 0
M  V30 1468 H 131.085 -3.59139 -1.86552 0
M  V30 1469 H 129.655 -2.52943 -1.83681 0
M  V30 1470 H 128.875 -3.93627 0.21245 0
M  V30 1471 H 130.163 -5.08431 -0.193704 0
M  V30 1472 H 129.561 -4.57075 -3.33316 0
M  V30 1473 H 128.118 -5.48371 -3.52325 0
M  V30 1474 N 131.551 -0.354651 -1.53558 0
M  V30 1475 C 132.8 0.239504 -2.00273 0
M  V30 1476 C 133.113 1.50759 -1.24623 0
M  V30 1477 O 134.319 2.17968 -1.61871 0
M  V30 1478 C 132.775 0.477341 -3.5672 0
M  V30 1479 C 132.383 -0.775488 -4.41237 0
M  V30 1480 C 134.127 1.02975 -4.11821 0
M  V30 1481 C 132.034 -0.507838 -5.89216 0
M  V30 1482 H 130.964 0.0932743 -0.748208 0
M  V30 1483 H 133.615 -0.471701 -1.77334 0
M  V30 1484 H 131.997 1.24953 -3.7577 0
M  V30 1485 H 133.171 -1.54963 -4.33962 0
M  V30 1486 H 131.486 -1.25033 -3.97185 0
M  V30 1487 H 134.083 1.24513 -5.2 0
M  V30 1488 H 134.426 1.98862 -3.65731 0
M  V30 1489 H 134.959 0.317994 -3.96527 0
M  V30 1490 H 131.698 -1.43674 -6.39561 0
M  V30 1491 H 131.218 0.228011 -5.99366 0
M  V30 1492 H 132.897 -0.129238 -6.46871 0
M  V30 1493 N 133.029 1.57378 -0.0835403 0
M  V30 1494 C 134.44 1.81261 0.447358 0
M  V30 1495 C 134.791 0.998331 1.68902 0
M  V30 1496 O 133.916 0.224282 2.15235 0
M  V30 1497 C 134.511 3.28767 0.818386 0
M  V30 1498 C 133.07 3.53455 1.29409 0
M  V30 1499 C 132.217 2.75831 0.285024 0
M  V30 1500 H 135.168 1.5566 -0.309115 0
M  V30 1501 H 135.189 3.41459 1.67887 0
M  V30 1502 H 134.701 3.88006 -0.0855019 0
M  V30 1503 H 132.802 2.99534 2.21608 0
M  V30 1504 H 132.915 4.62128 1.2639 0
M  V30 1505 H 131.279 2.42947 0.764767 0
M  V30 1506 H 132.062 3.37813 -0.611341 0
M  V30 1507 N 134.507 -0.190092 1.56449 0
M  V30 1508 C 135.784 -0.935886 1.71757 0
M  V30 1509 C 136.164 -2.01173 0.639726 0
M  V30 1510 O 135.512 -2.25827 -0.348502 0
M  V30 1511 C 135.722 -1.51775 3.1427 0
M  V30 1512 C 137.07 -1.99794 3.74656 0
M  V30 1513 O 138.094 -1.61607 3.1743 0
M  V30 1514 O 136.953 -2.70079 4.751 0
M  V30 1515 H 134.047 -0.439229 0.700719 0
M  V30 1516 H 136.593 -0.179395 1.68749 0
M  V30 1517 H 135.365 -0.742505 3.84191 0
M  V30 1518 H 134.988 -2.33894 3.21527 0
M  V30 1519 N 135.985 -1.50799 -0.457987 0
M  V30 1520 C 137.231 -1.62683 -1.21088 0
M  V30 1521 C 137.564 -0.332268 -1.91336 0
M  V30 1522 O 136.839 0.667043 -1.82704 0
M  V30 1523 C 137.122 -2.81615 -2.24422 0
M  V30 1524 C 136.975 -4.20989 -1.58392 0
M  V30 1525 C 138.294 -2.96085 -3.2561 0
M  V30 1526 H 135.413 -0.592087 -0.438864 0
M  V30 1527 H 138.055 -1.83225 -0.50286 0
M  V30 1528 H 136.205 -2.64231 -2.84806 0
M  V30 1529 H 137.877 -4.49994 -1.01504 0
M  V30 1530 H 136.12 -4.24641 -0.886704 0
M  V30 1531 H 136.791 -5.0016 -2.33547 0
M  V30 1532 H 139.267 -3.12042 -2.75262 0
M  V30 1533 H 138.143 -3.80902 -3.95228 0
M  V30 1534 H 138.404 -2.0726 -3.90507 0
M  V30 1535 N 137.463 0.71206 -1.40597 0
M  V30 1536 C 138.688 1.50617 -1.42581 0
M  V30 1537 C 139.113 1.88079 -0.0282102 0
M  V30 1538 O 138.471 1.53511 0.964579 0
M  V30 1539 C 138.519 2.7557 -2.3258 0
M  V30 1540 O 137.623 3.72414 -1.77148 0
M  V30 1541 H 136.964 0.453966 -0.484573 0
M  V30 1542 H 139.494 0.876649 -1.84868 0
M  V30 1543 H 139.504 3.2406 -2.47889 0
M  V30 1544 H 138.179 2.47639 -3.34138 0
M  V30 1545 H 136.756 3.31276 -1.71204 0
M  V30 1546 N 138.941 1.26152 0.944643 0
M  V30 1547 C 140.352 1.10454 1.50522 0
M  V30 1548 C 140.703 -0.31635 1.93633 0
M  V30 1549 O 139.828 -1.20746 1.79581 0
M  V30 1550 C 140.423 1.99891 2.73549 0
M  V30 1551 C 138.982 1.88348 3.25886 0
M  V30 1552 C 138.129 1.93447 1.9868 0
M  V30 1553 H 141.08 1.39292 0.760489 0
M  V30 1554 H 141.101 1.54477 3.47732 0
M  V30 1555 H 140.613 3.03297 2.42141 0
M  V30 1556 H 138.714 0.878636 3.62092 0
M  V30 1557 H 138.827 2.73696 3.93227 0
M  V30 1558 H 137.191 1.37456 2.14425 0
M  V30 1559 H 137.974 2.98476 1.69607 0
M  V30 1560 N 140.419 -1.14872 1.07899 0
M  V30 1561 C 141.647 -1.89661 0.82683 0
M  V30 1562 C 142.062 -1.78312 -0.620519 0
M  V30 1563 O 141.419 -1.13888 -1.42604 0
M  V30 1564 C 141.47 -3.39817 1.23316 0
M  V30 1565 O 141.191 -3.50845 2.62372 0
M  V30 1566 C 142.692 -4.31615 1.0111 0
M  V30 1567 H 139.912 -0.60092 0.298557 0
M  V30 1568 H 142.456 -1.4551 1.43691 0
M  V30 1569 H 140.611 -3.8161 0.667286 0
M  V30 1570 H 141.025 -4.44076 2.79101 0
M  V30 1571 H 142.499 -5.35367 1.34486 0
M  V30 1572 H 142.976 -4.39169 -0.0522168 0
M  V30 1573 H 143.582 -3.95572 1.56215 0
M  V30 1574 N 141.898 -0.863906 -1.31812 0
M  V30 1575 C 143.146 -0.470904 -1.96537 0
M  V30 1576 C 143.467 0.978771 -1.68657 0
M  V30 1577 O 142.737 1.6853 -0.998717 0
M  V30 1578 H 141.317 -0.171148 -0.72713 0
M  V30 1579 H 143.979 -1.10236 -1.60729 0
M  V30 1580 H 143.075 -0.623616 -3.05806 0
M  V30 1581 N 143.376 1.44774 -0.622745 0
M  V30 1582 C 144.792 1.56986 -0.287652 0
M  V30 1583 C 144.992 1.61167 1.20944 0
M  V30 1584 O 144.048 1.55015 1.99315 0
M  V30 1585 C 145.361 2.84551 -0.972188 0
M  V30 1586 C 146.909 2.9825 -0.949536 0
M  V30 1587 C 147.384 4.28605 -1.61437 0
M  V30 1588 N 148.875 4.35399 -1.58057 0
M  V30 1589 C 149.61 5.34964 -2.064 0
M  V30 1590 N 149.106 6.40981 -2.62897 0
M  V30 1591 N 150.899 5.26419 -1.97078 0
M  V30 1592 H 143.05 1.40304 -1.59463 0
M  V30 1593 H 145.313 0.671794 -0.668878 0
M  V30 1594 H 145.019 2.87417 -2.02693 0
M  V30 1595 H 144.893 3.73807 -0.504771 0
M  V30 1596 H 147.28 2.94941 0.0967067 0
M  V30 1597 H 147.361 2.10364 -1.45536 0
M  V30 1598 H 147.005 4.32672 -2.66002 0
M  V30 1599 H 146.935 5.15334 -1.08344 0
M  V30 1600 H 149.426 3.59397 -1.16801 0
M  V30 1601 H 149.739 7.13225 -2.97539 0
M  V30 1602 H 148.084 6.4169 -2.66943 0
M  V30 1603 H 151.275 4.42504 -1.52669 0
M  V30 1604 H 151.448 6.03861 -2.35066 0
M  V30 1605 N 144.854 0.36279 1.53368 0
M  V30 1606 C 146.084 -0.228281 2.05335 0
M  V30 1607 C 146.492 -1.43226 1.23625 0
M  V30 1608 O 145.835 -1.81717 0.269206 0
M  V30 1609 C 145.897 -0.688549 3.52845 0
M  V30 1610 C 145.561 0.398362 4.5526 0
M  V30 1611 C 146.558 1.24732 5.04716 0
M  V30 1612 C 144.243 0.557805 4.99193 0
M  V30 1613 C 146.237 2.2411 5.96702 0
M  V30 1614 C 143.924 1.55495 5.90986 0
M  V30 1615 C 144.922 2.39503 6.39631 0
M  V30 1616 O 144.61 3.37517 7.29615 0
M  V30 1617 H 144.342 -0.044395 0.674541 0
M  V30 1618 H 146.896 0.518668 1.98744 0
M  V30 1619 H 145.126 -1.48706 3.56964 0
M  V30 1620 H 146.815 -1.20231 3.87685 0
M  V30 1621 H 147.581 1.13532 4.71525 0
M  V30 1622 H 143.46 -0.0862959 4.60919 0
M  V30 1623 H 147.004 2.89718 6.34594 0
M  V30 1624 H 142.901 1.66744 6.23592 0
M  V30 1625 H 143.669 3.33213 7.47604 0
M  V30 1626 N 146.332 -1.57332 0.0918853 0
M  V30 1627 C 147.56 -1.98574 -0.581048 0
M  V30 1628 C 147.975 -0.970903 -1.61923 0
M  V30 1629 O 147.332 0.0399054 -1.82456 0
M  V30 1630 C 147.383 -3.39872 -1.23164 0
M  V30 1631 O 147.104 -4.37469 -0.234989 0
M  V30 1632 C 148.605 -3.96099 -1.99049 0
M  V30 1633 H 145.825 -0.65261 -0.156018 0
M  V30 1634 H 148.369 -2.0379 0.170225 0
M  V30 1635 H 146.524 -3.35679 -1.93386 0
M  V30 1636 H 146.938 -5.19751 -0.70418 0
M  V30 1637 H 148.412 -4.97127 -2.39934 0
M  V30 1638 H 148.889 -3.3374 -2.85507 0
M  V30 1639 H 149.495 -4.03755 -1.3365 0
M  V30 1640 N 147.81 0.181792 -1.56548 0
M  V30 1641 C 149.038 0.915947 -1.85521 0
M  V30 1642 C 149.453 1.76282 -0.676016 0
M  V30 1643 O 148.81 1.79012 0.355077 0
M  V30 1644 C 148.861 1.80126 -3.13427 0
M  V30 1645 O 148.582 0.988562 -4.26801 0
M  V30 1646 C 150.083 2.64597 -3.55673 0
M  V30 1647 H 147.303 0.26661 -0.61576 0
M  V30 1648 H 149.847 0.185039 -2.03661 0
M  V30 1649 H 148.002 2.48563 -2.97145 0
M  V30 1650 H 148.416 1.59308 -4.99721 0
M  V30 1651 H 149.89 3.2235 -4.48101 0
M  V30 1652 H 150.367 3.38958 -2.79292 0
M  V30 1653 H 150.973 2.0151 -3.74532 0
M  V30 1654 N 149.288 1.51039 0.449983 0
M  V30 1655 C 150.218 1.74379 1.55288 0
M  V30 1656 C 151.199 0.593236 1.5942 0
M  V30 1657 O 152.384 0.834625 1.7535 0
M  V30 1658 C 149.514 1.85728 2.93466 0
M  V30 1659 C 148.468 3.01078 3.04197 0
M  V30 1660 C 147.794 2.97595 4.44231 0
M  V30 1661 C 149.094 4.41254 2.7945 0
M  V30 1662 H 150.788 2.66725 1.36008 0
M  V30 1663 H 148.334 1.2835 0.652864 0
M  V30 1664 H 150.287 2.0064 3.70569 0
M  V30 1665 H 149.011 0.900207 3.13949 0
M  V30 1666 H 147.67 2.85851 2.29531 0
M  V30 1667 H 147.318 1.99691 4.61663 0
M  V30 1668 H 147.018 3.75046 4.52343 0
M  V30 1669 H 148.542 3.14583 5.23326 0
M  V30 1670 H 149.956 4.56897 3.46292 0
M  V30 1671 H 148.353 5.20315 2.98985 0
M  V30 1672 H 149.423 4.52164 1.75144 0
M  V30 1673 N 150.766 -0.704594 1.40972 0
M  V30 1674 C 152.012 -1.46675 1.40051 0
M  V30 1675 C 152.345 -1.94199 0.00641102 0
M  V30 1676 O 151.62 -1.68916 -0.964235 0
M  V30 1677 C 151.903 -2.68505 2.39952 0
M  V30 1678 C 151.756 -2.26805 3.88432 0
M  V30 1679 C 153.075 -3.70686 2.37233 0
M  V30 1680 H 150.194 -0.532015 0.510028 0
M  V30 1681 H 152.836 -0.803255 1.72185 0
M  V30 1682 H 150.986 -3.25114 2.1268 0
M  V30 1683 H 152.658 -1.75592 4.26574 0
M  V30 1684 H 150.901 -1.58685 4.03734 0
M  V30 1685 H 151.572 -3.14181 4.53866 0
M  V30 1686 H 154.048 -3.23731 2.61415 0
M  V30 1687 H 152.924 -4.53553 3.09162 0
M  V30 1688 H 153.185 -4.19754 1.38777 0
M  V30 1689 N 152.244 -1.26651 -0.937939 0
M  V30 1690 C 153.655 -1.1125 -1.49934 0
M  V30 1691 C 154.006 0.306077 -1.93798 0
M  V30 1692 O 153.131 1.19792 -1.80219 0
M  V30 1693 C 153.726 -2.01339 -2.72485 0
M  V30 1694 C 152.285 -1.90074 -3.24883 0
M  V30 1695 C 151.432 -1.94498 -1.97651 0
M  V30 1696 H 154.383 -1.39693 -0.753091 0
M  V30 1697 H 154.404 -1.56319 -3.46907 0
M  V30 1698 H 153.916 -3.04577 -2.40529 0
M  V30 1699 H 152.017 -0.897827 -3.61621 0
M  V30 1700 H 152.13 -2.75778 -3.9177 0
M  V30 1701 H 150.494 -1.38591 -2.13693 0
M  V30 1702 H 151.277 -2.99372 -1.68022 0
M  V30 1703 N 153.722 1.14298 -1.08507 0
M  V30 1704 C 154.652 2.21542 -0.737646 0
M  V30 1705 C 155.633 1.67773 0.280377 0
M  V30 1706 O 156.818 1.93616 0.150521 0
M  V30 1707 C 153.948 3.46988 -0.147259 0
M  V30 1708 C 152.902 4.13789 -1.09374 0
M  V30 1709 C 152.228 5.33449 -0.365524 0
M  V30 1710 C 153.528 4.62208 -2.4323 0
M  V30 1711 H 155.222 2.5086 -1.6343 0
M  V30 1712 H 152.768 1.20576 -0.787243 0
M  V30 1713 H 154.721 4.21262 0.107808 0
M  V30 1714 H 153.445 3.17037 0.784538 0
M  V30 1715 H 152.104 3.4147 -1.33393 0
M  V30 1716 H 151.752 4.99759 0.57011 0
M  V30 1717 H 151.452 5.79088 -0.996512 0
M  V30 1718 H 152.976 6.10485 -0.118534 0
M  V30 1719 H 154.39 5.27952 -2.23472 0
M  V30 1720 H 152.787 5.18553 -3.02031 0
M  V30 1721 H 153.857 3.77224 -3.04681 0
M  V30 1722 N 155.201 0.870884 1.31352 0
M  V30 1723 C 156.131 0.343096 2.30966 0
M  V30 1724 C 157.112 -0.566507 1.60389 0
M  V30 1725 O 158.297 -0.483336 1.88089 0
M  V30 1726 C 155.427 -0.455487 3.443 0
M  V30 1727 C 154.381 0.361103 4.26474 0
M  V30 1728 C 153.707 -0.563221 5.31725 0
M  V30 1729 C 155.007 1.59566 4.97329 0
M  V30 1730 H 156.701 1.17548 2.75359 0
M  V30 1731 H 154.247 0.566686 1.32381 0
M  V30 1732 H 156.2 -0.83525 4.13039 0
M  V30 1733 H 154.924 -1.32139 2.98675 0
M  V30 1734 H 153.583 0.722825 3.59403 0
M  V30 1735 H 153.231 -1.42643 4.82351 0
M  V30 1736 H 152.931 -0.0207409 5.87596 0
M  V30 1737 H 154.455 -0.939808 6.03324 0
M  V30 1738 H 155.869 1.28728 5.58661 0
M  V30 1739 H 154.266 2.07728 5.63 0
M  V30 1740 H 155.336 2.34798 4.24262 0
M  V30 1741 N 156.679 -1.44442 0.630414 0
M  V30 1742 C 157.926 -2.02052 0.134617 0
M  V30 1743 C 158.254 -1.49576 -1.24327 0
M  V30 1744 O 157.509 -0.669806 -1.83881 0
M  V30 1745 C 157.808 -3.57332 0.0697835 0
M  V30 1746 C 157.474 -4.29058 1.38635 0
M  V30 1747 C 156.136 -4.4837 1.74694 0
M  V30 1748 C 158.488 -4.69872 2.25543 0
M  V30 1749 C 155.816 -5.05756 2.97369 0
M  V30 1750 C 158.168 -5.28616 3.47487 0
M  V30 1751 C 156.832 -5.46147 3.8377 0
M  V30 1752 H 156.102 -0.739361 0.0492598 0
M  V30 1753 H 158.749 -1.73217 0.816586 0
M  V30 1754 H 157.054 -3.85577 -0.695553 0
M  V30 1755 H 158.751 -3.99637 -0.330344 0
M  V30 1756 H 155.341 -4.14357 1.09574 0
M  V30 1757 H 159.525 -4.54666 1.98979 0
M  V30 1758 H 154.781 -5.17515 3.25558 0
M  V30 1759 H 158.955 -5.59192 4.15063 0
M  V30 1760 H 156.582 -5.9038 4.7891 0
M  V30 1761 N 158.157 -0.370918 -1.53173 0
M  V30 1762 C 159.406 0.218249 -2.00516 0
M  V30 1763 C 159.719 1.49429 -1.26215 0
M  V30 1764 O 160.925 2.16239 -1.64174 0
M  V30 1765 C 159.381 0.43948 -3.57207 0
M  V30 1766 C 158.989 -0.822244 -4.4039 0
M  V30 1767 C 160.733 0.986012 -4.1289 0
M  V30 1768 C 158.64 -0.570304 -5.88644 0
M  V30 1769 H 157.57 0.0853333 -0.749156 0
M  V30 1770 H 160.221 -0.490483 -1.76823 0
M  V30 1771 H 158.603 1.20961 -3.77074 0
M  V30 1772 H 159.777 -1.59557 -4.32294 0
M  V30 1773 H 158.092 -1.29238 -3.95836 0
M  V30 1774 H 160.689 1.18991 -5.21292 0
M  V30 1775 H 161.032 1.94972 -3.6782 0
M  V30 1776 H 161.565 0.27592 -3.96842 0
M  V30 1777 H 158.304 -1.50449 -6.38001 0
M  V30 1778 H 157.824 0.164427 -5.99575 0
M  V30 1779 H 159.503 -0.19784 -6.46697 0
M  V30 1780 N 159.635 1.57281 -0.100228 0
M  V30 1781 C 160.565 2.17328 0.853857 0
M  V30 1782 C 161.546 1.10804 1.2906 0
M  V30 1783 O 162.731 1.38963 1.35657 0
M  V30 1784 C 159.861 2.75772 2.11109 0
M  V30 1785 C 158.815 3.87713 1.81279 0
M  V30 1786 C 158.141 4.32882 3.13874 0
M  V30 1787 C 159.441 5.10677 1.09574 0
M  V30 1788 H 161.135 2.97305 0.353545 0
M  V30 1789 H 158.681 1.43009 0.168612 0
M  V30 1790 H 160.634 3.16433 2.78296 0
M  V30 1791 H 159.358 1.93057 2.63432 0
M  V30 1792 H 158.017 3.476 1.16489 0
M  V30 1793 H 157.665 3.47051 3.64095 0
M  V30 1794 H 157.365 5.08358 2.94696 0
M  V30 1795 H 158.889 4.7618 3.82211 0
M  V30 1796 H 160.303 5.48474 1.66879 0
M  V30 1797 H 158.7 5.91615 1.00557 0
M  V30 1798 H 159.77 4.84835 0.0793299 0
M  V30 1799 N 161.113 -0.173488 1.56642 0
M  V30 1800 C 162.076 -1.19859 1.95362 0
M  V30 1801 C 163.076 -1.37296 0.83704 0
M  V30 1802 O 164.266 -1.34739 1.10413 0
M  V30 1803 C 161.398 -2.56405 2.24654 0
M  V30 1804 H 162.591 -0.867062 2.87092 0
M  V30 1805 H 160.144 -0.415853 1.50666 0
M  V30 1806 H 160.879 -2.94576 1.35631 0
M  V30 1807 H 160.664 -2.45115 3.06041 0
M  V30 1808 H 162.154 -3.30287 2.5554 0
M  V30 1809 N 162.591 -1.51276 -0.441967 0
M  V30 1810 C 163.837 -1.63958 -1.19355 0
M  V30 1811 C 164.17 -0.352543 -1.90973 0
M  V30 1812 O 163.445 0.647627 -1.83401 0
M  V30 1813 C 163.728 -2.83979 -2.21422 0
M  V30 1814 C 163.581 -4.22646 -1.53918 0
M  V30 1815 C 164.9 -2.99521 -3.22451 0
M  V30 1816 H 162.019 -0.596709 -0.432559 0
M  V30 1817 H 164.661 -1.83748 -0.483398 0
M  V30 1818 H 162.811 -2.67237 -2.81987 0
M  V30 1819 H 164.483 -4.51045 -0.967256 0
M  V30 1820 H 162.726 -4.25558 -0.841615 0
M  V30 1821 H 163.397 -5.02609 -2.28229 0
M  V30 1822 H 165.873 -3.14944 -2.71937 0
M  V30 1823 H 164.749 -3.85072 -3.91166 0
M  V30 1824 H 165.01 -2.11391 -3.88287 0
M  V30 1825 N 164.069 0.697108 -1.41344 0
M  V30 1826 C 165.032 1.79281 -1.42797 0
M  V30 1827 C 166.032 1.57607 -0.318837 0
M  V30 1828 O 167.222 1.64309 -0.578642 0
M  V30 1829 C 164.354 3.17632 -1.23785 0
M  V30 1830 H 165.547 1.79385 -2.40335 0
M  V30 1831 H 163.1 0.904582 -1.27464 0
M  V30 1832 H 163.835 3.23167 -0.270814 0
M  V30 1833 H 163.62 3.34765 -2.04144 0
M  V30 1834 H 165.11 3.97617 -1.27633 0
M  V30 1835 N 165.547 1.27147 0.931209 0
M  V30 1836 C 166.51 1.09615 2.01289 0
M  V30 1837 C 167.51 0.0412581 1.60747 0
M  V30 1838 O 168.7 0.285545 1.71844 0
M  V30 1839 C 165.832 0.669447 3.34262 0
M  V30 1840 H 167.025 2.05662 2.18273 0
M  V30 1841 H 164.578 1.09885 1.11153 0
M  V30 1842 H 165.313 -0.292572 3.22978 0
M  V30 1843 H 165.098 1.43127 3.65044 0
M  V30 1844 H 166.588 0.568921 4.13706 0
M  V30 1845 N 167.025 -1.13721 1.09112 0
M  V30 1846 C 168.274 -1.84275 0.82009 0
M  V30 1847 C 168.587 -1.84253 -0.656509 0
M  V30 1848 O 169.793 -2.50668 -1.04296 0
M  V30 1849 C 168.249 -3.30825 1.41714 0
M  V30 1850 C 167.857 -3.39244 2.92605 0
M  V30 1851 C 169.601 -4.06443 1.22492 0
M  V30 1852 C 167.508 -4.80047 3.45411 0
M  V30 1853 H 166.438 -0.690387 0.30312 0
M  V30 1854 H 169.089 -1.28146 1.31343 0
M  V30 1855 H 167.471 -3.86737 0.851498 0
M  V30 1856 H 168.645 -2.93344 3.55367 0
M  V30 1857 H 166.96 -2.77088 3.10823 0
M  V30 1858 H 169.557 -5.10387 1.59402 0
M  V30 1859 H 169.9 -4.15972 0.165299 0
M  V30 1860 H 170.433 -3.56852 1.75788 0
M  V30 1861 H 167.172 -4.75709 4.50978 0
M  V30 1862 H 166.692 -5.26455 2.87411 0
M  V30 1863 H 168.371 -5.48957 3.42425 0
M  V30 1864 N 168.503 -0.877838 -1.30888 0
M  V30 1865 C 169.45 -0.337538 -2.28318 0
M  V30 1866 C 170.42 0.568346 -1.56074 0
M  V30 1867 O 171.605 0.498298 -1.84178 0
M  V30 1868 C 168.745 0.448142 -3.42178 0
M  V30 1869 C 167.858 -0.48615 -4.29256 0
M  V30 1870 C 166.993 0.314427 -5.30269 0
M  V30 1871 C 166.032 -0.615791 -6.08995 0
M  V30 1872 N 165.169 0.14902 -7.01942 0
M  V30 1873 H 170.009 -1.17356 -2.73919 0
M  V30 1874 H 167.546 -0.590094 -1.34745 0
M  V30 1875 H 169.504 0.919517 -4.06941 0
M  V30 1876 H 168.134 1.24879 -2.97666 0
M  V30 1877 H 167.186 -1.076 -3.64865 0
M  V30 1878 H 168.498 -1.19909 -4.84173 0
M  V30 1879 H 167.652 0.847969 -6.00745 0
M  V30 1880 H 166.391 1.06062 -4.76027 0
M  V30 1881 H 165.396 -1.16102 -5.37401 0
M  V30 1882 H 166.621 -1.36097 -6.65323 0
M  V30 1883 H 164.567 0.877884 -6.50099 0
M  V30 1884 H 164.484 -0.504433 -7.54315 0
M  V30 1885 H 165.752 0.663537 -7.76671 0
M  V30 1886 N 169.982 1.44106 -0.638065 0
M  V30 1887 C 170.892 2.34513 0.0637334 0
M  V30 1888 C 171.908 1.53018 0.828346 0
M  V30 1889 O 173.084 1.85723 0.779036 0
M  V30 1890 C 170.149 3.31095 1.02844 0
M  V30 1891 C 169.21 4.28497 0.26244 0
M  V30 1892 C 168.443 5.20465 1.1812 0
M  V30 1893 O 168.666 5.16514 2.42011 0
M  V30 1894 O 167.6 5.98251 0.661774 0
M  V30 1895 H 171.426 2.95989 -0.68003 0
M  V30 1896 H 169.011 1.43994 -0.398252 0
M  V30 1897 H 170.893 3.90526 1.58327 0
M  V30 1898 H 169.568 2.72144 1.7527 0
M  V30 1899 H 168.475 3.72592 -0.335602 0
M  V30 1900 H 169.808 4.90388 -0.421936 0
M  V30 1901 N 171.46 0.379036 1.52974 0
M  V30 1902 C 172.709 -0.207612 2.00629 0
M  V30 1903 C 173.022 -1.48758 1.27006 0
M  V30 1904 O 174.228 -2.15365 1.65318 0
M  V30 1905 C 172.684 -0.42053 3.57435 0
M  V30 1906 C 172.292 0.845587 4.39948 0
M  V30 1907 C 174.036 -0.964102 4.13407 0
M  V30 1908 C 171.943 0.601513 5.88333 0
M  V30 1909 H 170.873 -0.0813591 0.749598 0
M  V30 1910 H 173.524 0.499853 1.76561 0
M  V30 1911 H 171.906 -1.18959 3.7771 0
M  V30 1912 H 173.08 1.61848 4.31442 0
M  V30 1913 H 171.395 1.31336 3.95145 0
M  V30 1914 H 173.992 -1.16225 5.21916 0
M  V30 1915 H 174.335 -1.93019 3.68849 0
M  V30 1916 H 174.868 -0.25487 3.96983 0
M  V30 1917 H 171.607 1.53831 6.37194 0
M  V30 1918 H 171.127 -0.132628 5.99653 0
M  V30 1919 H 172.806 0.232134 6.46583 0
M  V30 1920 N 172.938 -1.57226 0.108567 0
M  V30 1921 C 174.187 -1.94008 -0.551703 0
M  V30 1922 C 174.5 -0.993442 -1.68494 0
M  V30 1923 O 175.706 -1.25551 -2.40726 0
M  V30 1924 C 174.162 -3.44763 -1.03279 0
M  V30 1925 C 173.77 -4.47943 0.0714193 0
M  V30 1926 C 175.514 -3.90483 -1.66503 0
M  V30 1927 C 173.421 -5.89865 -0.425779 0
M  V30 1928 H 172.351 -0.724206 -0.209863 0
M  V30 1929 H 175.002 -1.82547 0.186741 0
M  V30 1930 H 173.384 -3.51422 -1.82533 0
M  V30 1931 H 174.558 -4.52942 0.847365 0
M  V30 1932 H 172.873 -4.11913 0.609669 0
M  V30 1933 H 175.47 -4.93925 -2.04798 0
M  V30 1934 H 175.813 -3.29877 -2.53942 0
M  V30 1935 H 176.346 -3.86581 -0.938074 0
M  V30 1936 H 173.085 -6.54202 0.412316 0
M  V30 1937 H 172.605 -5.88309 -1.16843 0
M  V30 1938 H 174.284 -6.40844 -0.890397 0
M  V30 1939 N 174.416 0.165178 -1.56732 0
M  V30 1940 C 175.326 1.22423 -2.00125 0
M  V30 1941 C 176.342 1.48084 -0.913619 0
M  V30 1942 O 177.518 1.60112 -1.22172 0
M  V30 1943 C 174.583 2.54197 -2.35764 0
M  V30 1944 C 173.644 2.36343 -3.58386 0
M  V30 1945 C 172.877 3.61834 -3.92316 0
M  V30 1946 O 173.1 4.67267 -3.27135 0
M  V30 1947 O 172.034 3.55579 -4.85641 0
M  V30 1948 H 175.86 0.885886 -2.90492 0
M  V30 1949 H 173.445 0.372518 -1.44681 0
M  V30 1950 H 175.327 3.3192 -2.59629 0
M  V30 1951 H 174.002 2.87598 -1.48557 0
M  V30 1952 H 172.909 1.56632 -3.39731 0
M  V30 1953 H 174.242 2.07865 -4.46154 0
M  V30 1954 N 175.894 1.51508 0.433938 0
M  V30 1955 C 177.171 1.54888 1.19453 0
M  V30 1956 C 177.551 0.315154 2.08734 0
M  V30 1957 O 176.899 -0.699558 2.17528 0
M  V30 1958 C 177.109 2.86467 1.99342 0
M  V30 1959 C 178.457 3.38545 2.56267 0
M  V30 1960 O 179.481 2.88041 2.0955 0
M  V30 1961 O 178.34 4.26675 3.41483 0
M  V30 1962 H 175.434 0.622863 0.544032 0
M  V30 1963 H 177.98 1.63823 0.442732 0
M  V30 1964 H 176.752 3.67718 1.33788 0
M  V30 1965 H 176.375 2.8071 2.8158 0
M  V30 1966 N 177.372 -0.689602 1.41712 0
M  V30 1967 C 178.621 -1.44534 1.40686 0
M  V30 1968 C 178.934 -1.95588 0.0213352 0
M  V30 1969 O 180.14 -2.71271 -0.111534 0
M  V30 1970 C 178.596 -2.61387 2.47396 0
M  V30 1971 C 178.204 -2.17094 3.91885 0
M  V30 1972 C 179.948 -3.38986 2.55517 0
M  V30 1973 C 177.855 -3.3094 4.90135 0
M  V30 1974 H 176.785 -0.542925 0.52321 0
M  V30 1975 H 179.436 -0.748054 1.6756 0
M  V30 1976 H 177.818 -3.33412 2.13664 0
M  V30 1977 H 178.992 -1.52318 4.34897 0
M  V30 1978 H 177.307 -1.52473 3.8748 0
M  V30 1979 H 179.904 -4.23747 3.26102 0
M  V30 1980 H 180.247 -3.84578 1.59391 0
M  V30 1981 H 180.78 -2.74021 2.8837 0
M  V30 1982 H 177.519 -2.90355 5.87685 0
M  V30 1983 H 177.039 -3.94546 4.51767 0
M  V30 1984 H 178.718 -3.9663 5.11169 0
M  V30 1985 N 178.85 -1.27639 -0.924453 0
M  V30 1986 C 179.797 -1.10644 -2.0255 0
M  V30 1987 C 180.767 -0.00658438 -1.66099 0
M  V30 1988 O 181.952 -0.16952 -1.90045 0
M  V30 1989 C 179.092 -0.76309 -3.36557 0
M  V30 1990 C 178.205 -1.94091 -3.85944 0
M  V30 1991 C 177.34 -1.53914 -5.08413 0
M  V30 1992 C 176.379 -2.68425 -5.50104 0
M  V30 1993 N 175.516 -2.28815 -6.63768 0
M  V30 1994 H 180.356 -2.04858 -2.16419 0
M  V30 1995 H 177.893 -1.01974 -1.06017 0
M  V30 1996 H 179.851 -0.544822 -4.13627 0
M  V30 1997 H 178.481 0.142102 -3.22487 0
M  V30 1998 H 177.533 -2.27162 -3.05125 0
M  V30 1999 H 178.845 -2.7998 -4.12811 0
M  V30 2000 H 177.999 -1.28231 -5.92994 0
M  V30 2001 H 176.738 -0.651391 -4.8333 0
M  V30 2002 H 175.743 -2.94819 -4.64071 0
M  V30 2003 H 176.968 -3.57826 -5.7718 0
M  V30 2004 H 174.914 -1.42495 -6.40337 0
M  V30 2005 H 174.831 -3.08242 -6.90306 0
M  V30 2006 H 176.099 -2.06387 -7.51681 0
M  V30 2007 N 180.328 1.1314 -1.09713 0
M  V30 2008 C 181.744 1.36477 -0.827423 0
M  V30 2009 C 181.944 1.93654 0.556817 0
M  V30 2010 O 181 2.15791 1.31112 0
M  V30 2011 C 182.313 2.31334 -1.92106 0
M  V30 2012 C 183.861 2.44943 -1.94864 0
M  V30 2013 C 184.336 3.4311 -3.0338 0
M  V30 2014 N 185.827 3.50662 -3.02639 0
M  V30 2015 C 186.562 4.2651 -3.83246 0
M  V30 2016 N 186.058 5.05485 -4.73768 0
M  V30 2017 N 187.851 4.2184 -3.71493 0
M  V30 2018 H 180.002 0.743807 -1.9895 0
M  V30 2019 H 182.265 0.389823 -0.864143 0
M  V30 2020 H 181.971 1.96483 -2.91698 0
M  V30 2021 H 181.845 3.31381 -1.80184 0
M  V30 2022 H 184.232 2.79079 -0.959099 0
M  V30 2023 H 184.313 1.4481 -2.10864 0
M  V30 2024 H 183.957 3.09704 -4.02549 0
M  V30 2025 H 183.887 4.43055 -2.84622 0
M  V30 2026 H 186.378 2.94315 -2.37039 0
M  V30 2027 H 186.691 5.60675 -5.3185 0
M  V30 2028 H 185.036 5.04708 -4.77802 0
M  V30 2029 H 188.227 3.5922 -3.00131 0
M  V30 2030 H 188.4 4.80697 -4.3455 0
M  V30 2031 N 181.806 0.884767 1.30421 0
M  V30 2032 C 182.756 0.322846 2.25703 0
M  V30 2033 C 183.74 -0.548582 1.51259 0
M  V30 2034 O 184.932 -0.39304 1.72581 0
M  V30 2035 C 182.061 -0.461787 3.4018 0
M  V30 2036 C 181.147 0.423717 4.21978 0
M  V30 2037 N 181.538 1.52408 4.82292 0
M  V30 2038 C 179.836 0.218795 4.45463 0
M  V30 2039 C 180.537 2.07136 5.43571 0
M  V30 2040 N 179.513 1.36635 5.26148 0
M  V30 2041 H 183.315 1.16363 2.69883 0
M  V30 2042 H 180.829 0.73415 1.44859 0
M  V30 2043 H 182.826 -0.880985 4.07485 0
M  V30 2044 H 181.486 -1.30001 2.9754 0
M  V30 2045 H 182.497 1.90693 4.81515 0
M  V30 2046 H 179.174 -0.582275 4.1342 0
M  V30 2047 H 180.564 2.99538 6.01437 0
M  V30 2048 N 183.284 -1.43765 0.645699 0
M  V30 2049 C 184.231 -2.30745 -0.0504648 0
M  V30 2050 C 185.201 -1.4432 -0.822241 0
M  V30 2051 O 186.386 -1.73202 -0.800358 0
M  V30 2052 C 183.526 -3.29802 -1.0161 0
M  V30 2053 C 182.639 -4.31326 -0.241219 0
M  V30 2054 C 181.774 -5.17469 -1.19998 0
M  V30 2055 C 180.813 -6.10691 -0.415094 0
M  V30 2056 N 179.95 -6.89483 -1.32506 0
M  V30 2057 H 184.79 -2.8973 0.697155 0
M  V30 2058 H 182.327 -1.42738 0.355563 0
M  V30 2059 H 184.285 -3.85734 -1.58949 0
M  V30 2060 H 182.915 -2.72483 -1.73069 0
M  V30 2061 H 181.967 -3.77749 0.448334 0
M  V30 2062 H 183.279 -4.9743 0.369437 0
M  V30 2063 H 182.433 -5.7799 -1.84424 0
M  V30 2064 H 181.172 -4.51473 -1.84455 0
M  V30 2065 H 180.177 -5.49265 0.242565 0
M  V30 2066 H 181.402 -6.78727 0.224966 0
M  V30 2067 H 179.348 -6.26142 -1.95657 0
M  V30 2068 H 179.265 -7.52081 -0.768783 0
M  V30 2069 H 180.533 -7.54516 -1.9577 0
M  V30 2070 N 184.763 -0.387143 -1.52771 0
M  V30 2071 C 185.726 0.436939 -2.24997 0
M  V30 2072 C 186.726 0.991991 -1.26555 0
M  V30 2073 O 187.916 0.874335 -1.50669 0
M  V30 2074 C 185.048 1.61281 -3.00335 0
M  V30 2075 H 186.241 -0.195365 -2.99263 0
M  V30 2076 H 183.794 -0.139218 -1.55679 0
M  V30 2077 H 184.529 2.2826 -2.30364 0
M  V30 2078 H 184.314 1.22154 -3.72587 0
M  V30 2079 H 185.804 2.19629 -3.5518 0
M  V30 2080 N 186.241 1.57166 -0.116904 0
M  V30 2081 C 187.518 1.86645 0.585049 0
M  V30 2082 C 187.898 1.0177 1.84949 0
M  V30 2083 O 187.246 0.0960379 2.28298 0
M  V30 2084 C 187.456 3.37736 0.879507 0
M  V30 2085 C 188.804 4.06289 1.23348 0
M  V30 2086 O 189.828 3.42743 0.969836 0
M  V30 2087 O 188.687 5.18455 1.7282 0
M  V30 2088 H 185.781 0.772593 0.295007 0
M  V30 2089 H 188.327 1.69025 -0.151249 0
M  V30 2090 H 187.099 3.91296 -0.0166136 0
M  V30 2091 H 186.722 3.6078 1.67103 0
M  V30 2092 N 187.719 -0.156864 1.56817 0
M  V30 2093 C 188.667 -1.21319 1.98455 0
M  V30 2094 C 189.661 -1.45025 0.875444 0
M  V30 2095 O 190.867 -1.45435 1.0606 0
M  V30 2096 H 187.242 -0.408142 0.631605 0
M  V30 2097 H 189.213 -0.835244 2.86472 0
M  V30 2098 C 187.962 -2.54148 2.37285 0
M  V30 2099 H 187.285 -2.36733 3.22176 0
M  V30 2100 H 188.725 -3.26712 2.70251 0
M  V30 2101 C 187.184 -3.13967 1.22173 0
M  V30 2102 O 187.714 -3.98357 0.517149 0
M  V30 2103 N 185.92 -2.7327 0.988536 0
M  V30 2104 H 185.467 -2.04744 1.56326 0
M  V30 2105 H 185.425 -3.13628 0.220209 0
M  V30 2106 N 189.197 -1.51736 -0.425897 0
M  V30 2107 C 190.16 -1.73271 -1.50032 0
M  V30 2108 C 191.16 -0.602639 -1.4908 0
M  V30 2109 O 192.35 -0.87033 -1.509 0
M  V30 2110 C 189.482 -1.79969 -2.89523 0
M  V30 2111 H 190.675 -2.69172 -1.32237 0
M  V30 2112 H 188.228 -1.41899 -0.65532 0
M  V30 2113 H 188.963 -0.859241 -3.1271 0
M  V30 2114 H 188.748 -2.62109 -2.91619 0
M  V30 2115 H 190.238 -1.9843 -3.67444 0
M  V30 2116 N 190.675 0.682077 -1.42076 0
M  V30 2117 C 191.921 1.44428 -1.42367 0
M  V30 2118 C 192.254 1.94164 -0.0373056 0
M  V30 2119 O 191.529 1.70429 0.937239 0
M  V30 2120 C 191.812 2.64654 -2.44194 0
M  V30 2121 C 191.665 2.20596 -3.91991 0
M  V30 2122 C 192.984 3.66865 -2.431 0
M  V30 2123 H 190.103 0.523834 -0.518428 0
M  V30 2124 H 192.745 0.77576 -1.73442 0
M  V30 2125 H 190.895 3.2169 -2.17826 0
M  V30 2126 H 192.567 1.68783 -4.29313 0
M  V30 2127 H 190.81 1.52242 -4.06208 0
M  V30 2128 H 191.481 3.06921 -4.58807 0
M  V30 2129 H 193.957 3.19531 -2.66532 0
M  V30 2130 H 192.833 4.48577 -3.16339 0
M  V30 2131 H 193.094 4.17493 -1.45437 0
M  V30 2132 N 192.153 1.28127 0.917671 0
M  V30 2133 C 193.101 1.11569 2.04096 0
M  V30 2134 C 194.095 0.0360242 1.69362 0
M  V30 2135 O 195.301 0.194501 1.78946 0
M  V30 2136 H 191.676 0.344097 0.668656 0
M  V30 2137 H 193.647 2.06711 2.15205 0
M  V30 2138 C 192.396 0.790197 3.38602 0
M  V30 2139 H 191.719 1.61293 3.6582 0
M  V30 2140 H 193.159 0.714271 4.1794 0
M  V30 2141 C 191.618 -0.505897 3.3308 0
M  V30 2142 O 192.148 -1.53736 3.71117 0
M  V30 2143 N 190.354 -0.505193 2.86175 0
M  V30 2144 H 189.901 0.334621 2.55417 0
M  V30 2145 H 189.859 -1.37243 2.82863 0
M  V30 2146 N 193.631 -1.12557 1.10312 0
M  V30 2147 C 194.578 -2.18247 0.750781 0
M  V30 2148 C 195.548 -1.63853 -0.272293 0
M  V30 2149 O 196.733 -1.90195 -0.151862 0
M  V30 2150 C 193.873 -3.44591 0.187379 0
M  V30 2151 C 192.986 -4.13046 1.2656 0
M  V30 2152 C 192.121 -5.27034 0.663978 0
M  V30 2153 C 191.16 -5.87353 1.72287 0
M  V30 2154 N 190.297 -6.92757 1.1416 0
M  V30 2155 H 195.137 -2.47732 1.65628 0
M  V30 2156 H 192.674 -1.21629 0.827337 0
M  V30 2157 H 194.632 -4.16904 -0.157148 0
M  V30 2158 H 193.262 -3.15527 -0.681355 0
M  V30 2159 H 192.314 -3.38924 1.72727 0
M  V30 2160 H 193.626 -4.53947 2.06721 0
M  V30 2161 H 192.78 -6.06104 0.268824 0
M  V30 2162 H 191.519 -4.87407 -0.169082 0
M  V30 2163 H 190.524 -5.06971 2.12746 0
M  V30 2164 H 191.749 -6.29051 2.55875 0
M  V30 2165 H 189.695 -6.5517 0.329984 0
M  V30 2166 H 189.612 -7.3225 1.88007 0
M  V30 2167 H 190.88 -7.75658 0.772956 0
M  V30 2168 N 195.109 -0.891671 -1.2995 0
M  V30 2169 C 196.056 -0.361736 -2.27948 0
M  V30 2170 C 197.026 0.551761 -1.56668 0
M  V30 2171 O 198.211 0.478736 -1.84696 0
M  V30 2172 C 195.351 0.411825 -3.42634 0
M  V30 2173 C 194.464 -0.531651 -4.28716 0
M  V30 2174 C 193.599 0.258167 -5.30572 0
M  V30 2175 C 192.638 -0.680349 -6.08307 0
M  V30 2176 N 191.775 0.0745613 -7.0206 0
M  V30 2177 H 196.615 -1.20254 -2.72659 0
M  V30 2178 H 194.152 -0.604352 -1.34112 0
M  V30 2179 H 196.11 0.876304 -4.07893 0
M  V30 2180 H 194.74 1.21715 -2.98974 0
M  V30 2181 H 193.792 -1.11463 -3.63703 0
M  V30 2182 H 195.104 -1.25038 -4.82874 0
M  V30 2183 H 194.258 0.784204 -6.0161 0
M  V30 2184 H 192.997 1.01008 -4.77126 0
M  V30 2185 H 192.002 -1.21796 -5.3614 0
M  V30 2186 H 193.227 -1.43145 -6.63842 0
M  V30 2187 H 191.173 0.808883 -6.50994 0
M  V30 2188 H 191.09 -0.584409 -7.53738 0
M  V30 2189 H 192.358 0.581123 -7.77331 0
M  V30 2190 N 196.587 1.43421 -0.653314 0
M  V30 2191 C 197.519 2.29071 0.0769134 0
M  V30 2192 C 198.532 1.42513 0.787017 0
M  V30 2193 O 199.721 1.66449 0.644757 0
M  V30 2194 C 196.821 3.19436 1.13199 0
M  V30 2195 C 195.994 4.34533 0.500006 0
M  V30 2196 C 195.053 5.05771 1.45198 0
M  V30 2197 O 194.079 5.61037 0.960538 0
M  V30 2198 N 195.281 5.0928 2.78594 0
M  V30 2199 H 198.046 2.92382 -0.658235 0
M  V30 2200 H 195.607 1.54112 -0.496104 0
M  V30 2201 H 197.599 3.63958 1.76964 0
M  V30 2202 H 196.169 2.57724 1.7691 0
M  V30 2203 H 195.389 3.92925 -0.316738 0
M  V30 2204 H 196.677 5.08766 0.0588345 0
M  V30 2205 H 196.075 4.65751 3.2108 0
M  V30 2206 H 194.632 5.57519 3.37662 0
M  V30 2207 N 198.065 0.39524 1.52563 0
M  V30 2208 C 199.293 -0.184943 2.06072 0
M  V30 2209 C 199.708 -1.40021 1.26647 0
M  V30 2210 O 199.065 -1.79767 0.314672 0
M  V30 2211 C 199.116 -0.549179 3.57304 0
M  V30 2212 O 198.837 0.617813 4.33722 0
M  V30 2213 C 200.338 -1.18459 4.2718 0
M  V30 2214 H 197.558 -0.0265025 0.670476 0
M  V30 2215 H 200.102 0.562184 1.96621 0
M  V30 2216 H 198.257 -1.2462 3.66809 0
M  V30 2217 H 198.671 0.317091 5.23541 0
M  V30 2218 H 200.145 -1.38976 5.34219 0
M  V30 2219 H 200.622 -2.15368 3.82771 0
M  V30 2220 H 201.228 -0.528163 4.22008 0
M  V30 2221 N 199.544 -1.57102 0.125237 0
M  V30 2222 C 200.476 -2.12726 -0.853237 0
M  V30 2223 C 201.489 -1.07145 -1.22571 0
M  V30 2224 O 202.678 -1.34497 -1.17358 0
M  V30 2225 C 199.778 -2.61709 -2.15317 0
M  V30 2226 C 198.951 -3.91456 -1.95143 0
M  V30 2227 C 198.01 -4.25973 -3.08923 0
M  V30 2228 O 197.036 -4.94682 -2.81564 0
M  V30 2229 N 198.238 -3.83795 -4.35524 0
M  V30 2230 H 201.003 -2.97307 -0.377964 0
M  V30 2231 H 198.564 -1.61792 -0.0590011 0
M  V30 2232 H 200.556 -2.81826 -2.90441 0
M  V30 2233 H 199.126 -1.81974 -2.54174 0
M  V30 2234 H 198.346 -3.80185 -1.04177 0
M  V30 2235 H 199.634 -4.76283 -1.78976 0
M  V30 2236 H 199.032 -3.2839 -4.60626 0
M  V30 2237 H 197.589 -4.09008 -5.07499 0
M  V30 2238 N 201.022 0.148545 -1.56898 0
M  V30 2239 C 202.268 0.862694 -1.83536 0
M  V30 2240 C 202.601 1.80889 -0.706604 0
M  V30 2241 O 201.876 1.92328 0.289885 0
M  V30 2242 C 202.159 1.63853 -3.20662 0
M  V30 2243 C 202.012 0.713925 -4.44098 0
M  V30 2244 C 203.331 2.60133 -3.54991 0
M  V30 2245 H 200.45 0.312179 -0.667618 0
M  V30 2246 H 203.092 0.127953 -1.89569 0
M  V30 2247 H 201.242 2.26489 -3.1565 0
M  V30 2248 H 202.914 0.098686 -4.61194 0
M  V30 2249 H 201.157 0.0234019 -4.33794 0
M  V30 2250 H 201.828 1.29278 -5.36648 0
M  V30 2251 H 204.304 2.07616 -3.60603 0
M  V30 2252 H 203.18 3.11468 -4.51972 0
M  V30 2253 H 203.441 3.41417 -2.80868 0
M  V30 2254 N 202.5 1.5196 0.417844 0
M  V30 2255 C 203.43 1.77634 1.51554 0
M  V30 2256 C 204.411 0.626918 1.58126 0
M  V30 2257 O 205.596 0.871632 1.7354 0
M  V30 2258 C 202.726 1.91911 2.8946 0
M  V30 2259 C 201.68 3.07463 2.97743 0
M  V30 2260 C 201.006 3.06951 4.37819 0
M  V30 2261 C 202.306 4.47082 2.70027 0
M  V30 2262 H 204 2.6955 1.3032 0
M  V30 2263 H 201.546 1.29706 0.625492 0
M  V30 2264 H 203.499 2.08455 3.6623 0
M  V30 2265 H 202.223 0.966598 3.11969 0
M  V30 2266 H 200.882 2.90656 2.23416 0
M  V30 2267 H 200.53 2.09438 4.57323 0
M  V30 2268 H 200.23 3.84556 4.44286 0
M  V30 2269 H 201.754 3.25613 5.16535 0
M  V30 2270 H 203.168 4.6414 3.36522 0
M  V30 2271 H 201.565 5.2654 2.87881 0
M  V30 2272 H 202.635 4.55777 1.65514 0
M  V30 2273 N 203.978 -0.674533 1.42435 0
M  V30 2274 C 205.394 -0.98769 1.25367 0
M  V30 2275 C 205.594 -2.00879 0.158044 0
M  V30 2276 O 204.65 -2.48075 -0.470633 0
M  V30 2277 C 205.963 -1.49224 2.6106 0
M  V30 2278 C 207.511 -1.61 2.68417 0
M  V30 2279 C 207.986 -2.14852 4.04478 0
M  V30 2280 N 209.477 -2.22185 4.06434 0
M  V30 2281 C 210.212 -2.64928 5.08528 0
M  V30 2282 N 209.708 -3.07121 6.21006 0
M  V30 2283 N 211.501 -2.64679 4.95885 0
M  V30 2284 H 203.652 0.00152503 2.124 0
M  V30 2285 H 205.915 -0.0618434 0.945981 0
M  V30 2286 H 205.621 -0.816453 3.42092 0
M  V30 2287 H 205.495 -2.47094 2.84999 0
M  V30 2288 H 207.882 -2.27686 1.87732 0
M  V30 2289 H 207.963 -0.616195 2.48267 0
M  V30 2290 H 207.607 -1.48775 4.85622 0
M  V30 2291 H 207.537 -3.15024 4.2198 0
M  V30 2292 H 210.028 -1.92435 3.25234 0
M  V30 2293 H 210.341 -3.38423 6.94759 0
M  V30 2294 H 208.686 -3.04978 6.24511 0
M  V30 2295 H 211.877 -2.31078 4.07088 0
M  V30 2296 H 212.05 -2.9767 5.75584 0
M  V30 2297 N 205.456 -1.28612 -0.910864 0
M  V30 2298 C 206.404 -1.1265 -2.03501 0
M  V30 2299 C 207.398 -0.0450054 -1.6934 0
M  V30 2300 O 208.604 -0.203988 -1.7884 0
M  V30 2301 H 204.979 -0.347639 -0.666822 0
M  V30 2302 H 206.95 -2.07849 -2.14106 0
M  V30 2303 C 205.699 -0.808143 -3.38178 0
M  V30 2304 H 205.022 -1.63231 -3.6496 0
M  V30 2305 H 206.462 -0.736426 -4.17556 0
M  V30 2306 C 204.921 0.488226 -3.33344 0
M  V30 2307 O 205.451 1.51766 -3.71927 0
M  V30 2308 N 203.657 0.490009 -2.86439 0
M  V30 2309 H 203.204 -0.348161 -2.55236 0
M  V30 2310 H 203.162 1.35741 -2.83587 0
M  V30 2311 N 206.934 1.1197 -1.10907 0
M  V30 2312 C 208.182 1.83225 -0.852819 0
M  V30 2313 C 208.503 1.84769 0.623341 0
M  V30 2314 O 207.773 1.3143 1.45269 0
M  V30 2315 H 206.353 0.67849 -0.312507 0
M  V30 2316 H 209.015 1.3556 -1.40033 0
M  V30 2317 H 208.111 2.87265 -1.22005 0
M  V30 2318 N 208.412 0.89855 1.29475 0
M  V30 2319 C 209.375 0.380272 2.26023 0
M  V30 2320 C 210.375 -0.484891 1.53315 0
M  V30 2321 O 211.565 -0.290108 1.71767 0
M  V30 2322 C 208.697 -0.45651 3.3783 0
M  V30 2323 H 209.89 1.23295 2.73383 0
M  V30 2324 H 207.443 0.676589 1.40897 0
M  V30 2325 H 208.178 -1.32922 2.95808 0
M  V30 2326 H 207.963 0.163393 3.91759 0
M  V30 2327 H 209.453 -0.810466 4.0966 0
M  V30 2328 N 209.89 -1.43072 0.660911 0
M  V30 2329 C 211.136 -2.02545 0.186337 0
M  V30 2330 C 211.491 -1.51253 -1.18913 0
M  V30 2331 O 210.784 -0.699167 -1.78388 0
M  V30 2332 C 210.978 -3.57103 0.145563 0
M  V30 2333 C 210.807 -4.23393 1.51554 0
M  V30 2334 C 209.577 -4.59144 2.10984 0
M  V30 2335 C 211.775 -4.51897 2.45548 0
M  V30 2336 N 209.757 -5.10545 3.40907 0
M  V30 2337 C 211.128 -5.04698 3.6011 0
M  V30 2338 C 213.183 -4.33872 2.44253 0
M  V30 2339 C 211.886 -5.41371 4.73613 0
M  V30 2340 C 213.912 -4.71612 3.56842 0
M  V30 2341 C 213.274 -5.24553 4.70131 0
M  V30 2342 H 209.373 -0.773823 0.112792 0
M  V30 2343 H 211.957 -1.74137 0.870885 0
M  V30 2344 H 210.128 -3.85059 -0.508353 0
M  V30 2345 H 211.86 -4.03264 -0.340598 0
M  V30 2346 H 208.615 -4.4444 1.63615 0
M  V30 2347 H 209.039 -5.40689 4.07411 0
M  V30 2348 H 213.681 -3.92208 1.579 0
M  V30 2349 H 211.399 -5.81975 5.60652 0
M  V30 2350 H 214.985 -4.59354 3.57051 0
M  V30 2351 H 213.865 -5.53213 5.5581 0
M  V30 2352 N 211.368 -0.403325 -1.52352 0
M  V30 2353 C 212.278 0.432009 -2.30588 0
M  V30 2354 C 213.294 1.05884 -1.38075 0
M  V30 2355 O 214.47 1.06161 -1.71148 0
M  V30 2356 C 211.535 1.53669 -3.10784 0
M  V30 2357 C 210.596 0.933525 -4.19027 0
M  V30 2358 C 209.829 1.98557 -4.9539 0
M  V30 2359 O 210.052 3.20283 -4.71991 0
M  V30 2360 O 208.986 1.59504 -5.80381 0
M  V30 2361 H 212.812 -0.205739 -3.03002 0
M  V30 2362 H 210.397 -0.166675 -1.48467 0
M  V30 2363 H 212.279 2.17814 -3.60742 0
M  V30 2364 H 210.954 2.15915 -2.41169 0
M  V30 2365 H 209.861 0.254954 -3.7323 0
M  V30 2366 H 211.194 0.35508 -4.90918 0
M  V30 2367 N 212.846 1.57033 -0.133567 0
M  V30 2368 C 214.095 1.94861 0.520768 0
M  V30 2369 C 214.408 1.02012 1.66892 0
M  V30 2370 O 215.614 1.29365 2.38699 0
M  V30 2371 C 214.07 3.46362 0.977809 0
M  V30 2372 C 213.678 4.47773 -0.142674 0
M  V30 2373 C 215.422 3.93083 1.60269 0
M  V30 2374 C 213.329 5.90468 0.331883 0
M  V30 2375 H 212.259 0.727453 0.198315 0
M  V30 2376 H 214.91 1.82227 -0.215759 0
M  V30 2377 H 213.292 3.54282 1.7692 0
M  V30 2378 H 214.466 4.51536 -0.919317 0
M  V30 2379 H 212.781 4.10891 -0.675124 0
M  V30 2380 H 215.378 4.97121 1.96914 0
M  V30 2381 H 215.721 3.33876 2.48662 0
M  V30 2382 H 216.254 3.88025 0.876453 0
M  V30 2383 H 212.993 6.53463 -0.516341 0
M  V30 2384 H 212.513 5.90094 1.07469 0
M  V30 2385 H 214.192 6.42179 0.788332 0
M  V30 2386 N 214.325 -0.140222 1.56975 0
M  V30 2387 C 215.571 -0.852949 1.83991 0
M  V30 2388 C 215.904 -1.80512 0.716187 0
M  V30 2389 O 215.179 -1.92479 -0.279681 0
M  V30 2390 C 215.462 -1.6215 3.21527 0
M  V30 2391 C 215.315 -0.690363 4.4447 0
M  V30 2392 C 216.634 -2.58247 3.56366 0
M  V30 2393 H 213.753 -0.308634 0.669264 0
M  V30 2394 H 216.395 -0.117898 1.89634 0
M  V30 2395 H 214.545 -2.24812 3.16847 0
M  V30 2396 H 216.217 -0.0742264 4.6124 0
M  V30 2397 H 214.46 -0.000396433 4.338 0
M  V30 2398 H 215.131 -1.2643 5.37326 0
M  V30 2399 H 217.607 -2.05701 3.61699 0
M  V30 2400 H 216.483 -3.09067 4.53617 0
M  V30 2401 H 216.744 -3.39923 2.82674 0
M  V30 2402 N 215.803 -1.52179 -0.40978 0
M  V30 2403 C 216.753 -1.71857 -1.49831 0
M  V30 2404 C 217.737 -0.572469 -1.50372 0
M  V30 2405 O 218.929 -0.829509 -1.56359 0
M  V30 2406 C 216.058 -1.87206 -2.87765 0
M  V30 2407 C 215.144 -3.07685 -2.91875 0
M  V30 2408 N 215.535 -4.30403 -2.65683 0
M  V30 2409 C 213.833 -3.07505 -3.23043 0
M  V30 2410 C 214.534 -5.11868 -2.76344 0
M  V30 2411 N 213.51 -4.47101 -3.09195 0
M  V30 2412 H 217.312 -2.64381 -1.28375 0
M  V30 2413 H 214.826 -1.50203 -0.617479 0
M  V30 2414 H 216.823 -1.99419 -3.66111 0
M  V30 2415 H 215.483 -0.958814 -3.10221 0
M  V30 2416 H 216.494 -4.58887 -2.4009 0
M  V30 2417 H 213.171 -2.25915 -3.51096 0
M  V30 2418 H 214.561 -6.19634 -2.59814 0
M  V30 2419 N 217.281 0.66697 -1.42791 0
M  V30 2420 C 218.527 1.42754 -1.44889 0
M  V30 2421 C 218.882 1.92283 -0.0669755 0
M  V30 2422 O 218.175 1.68494 0.912154 0
M  V30 2423 C 218.369 2.6349 -2.4147 0
M  V30 2424 C 218.198 2.25776 -3.88915 0
M  V30 2425 C 216.968 2.1476 -4.57391 0
M  V30 2426 C 219.166 1.86927 -4.79127 0
M  V30 2427 N 217.148 1.70232 -5.89826 0
M  V30 2428 C 218.519 1.53378 -6.00729 0
M  V30 2429 C 220.574 1.73989 -4.66511 0
M  V30 2430 C 219.277 1.08187 -7.11117 0
M  V30 2431 C 221.303 1.30203 -5.76889 0
M  V30 2432 C 220.665 0.975818 -6.97608 0
M  V30 2433 H 216.764 0.518559 -0.585338 0
M  V30 2434 H 219.348 0.768906 -1.78874 0
M  V30 2435 H 217.519 3.27033 -2.09533 0
M  V30 2436 H 219.251 3.30123 -2.34096 0
M  V30 2437 H 216.006 2.3408 -4.11708 0
M  V30 2438 H 216.43 1.50369 -6.6009 0
M  V30 2439 H 221.072 1.97853 -3.7365 0
M  V30 2440 H 218.79 0.830701 -8.03819 0
M  V30 2441 H 222.376 1.20701 -5.69142 0
M  V30 2442 H 221.256 0.642157 -7.81566 0
M  V30 2443 N 218.759 1.29093 0.90403 0
M  V30 2444 C 219.669 1.15727 2.0407 0
M  V30 2445 C 220.685 0.0815308 1.73809 0
M  V30 2446 O 221.861 0.292749 1.99261 0
M  V30 2447 C 218.926 0.830424 3.36608 0
M  V30 2448 C 217.987 1.98955 3.80415 0
M  V30 2449 C 217.22 1.6782 5.06628 0
M  V30 2450 O 217.443 0.597105 5.67266 0
M  V30 2451 O 216.377 2.52486 5.46383 0
M  V30 2452 H 220.203 2.11171 2.18267 0
M  V30 2453 H 217.788 1.08504 1.027 0
M  V30 2454 H 219.67 0.662521 4.16159 0
M  V30 2455 H 218.345 -0.0942678 3.23563 0
M  V30 2456 H 217.252 2.21267 3.01648 0
M  V30 2457 H 218.585 2.89529 3.98037 0
M  V30 2458 N 220.237 -1.11381 1.11499 0
M  V30 2459 C 221.184 -2.17439 0.773887 0
M  V30 2460 C 222.154 -1.64132 -0.254899 0
M  V30 2461 O 223.339 -1.90345 -0.13168 0
M  V30 2462 C 220.479 -3.44373 0.223917 0
M  V30 2463 C 219.592 -4.1168 1.30934 0
M  V30 2464 C 218.727 -5.263 0.71984 0
M  V30 2465 C 217.766 -5.85493 1.78507 0
M  V30 2466 N 216.903 -6.91507 1.21502 0
M  V30 2467 H 221.743 -2.45962 1.68246 0
M  V30 2468 H 219.28 -1.20744 0.840191 0
M  V30 2469 H 221.238 -4.17047 -0.112921 0
M  V30 2470 H 219.868 -3.16232 -0.647851 0
M  V30 2471 H 218.92 -3.37073 1.76312 0
M  V30 2472 H 220.232 -4.51729 2.11524 0
M  V30 2473 H 219.386 -6.05785 0.333094 0
M  V30 2474 H 218.125 -4.87559 -0.117377 0
M  V30 2475 H 217.13 -5.04686 2.18111 0
M  V30 2476 H 218.355 -6.26301 2.62533 0
M  V30 2477 H 216.301 -6.54783 0.399455 0
M  V30 2478 H 216.218 -7.30214 1.95763 0
M  V30 2479 H 217.486 -7.74795 0.855181 0
M  V30 2480 N 221.715 -0.905404 -1.28997 0
M  V30 2481 C 222.961 -0.535039 -1.95615 0
M  V30 2482 C 223.294 0.917404 -1.71165 0
M  V30 2483 O 222.569 1.65123 -1.02785 0
M  V30 2484 C 222.852 -0.834918 -3.50287 0
M  V30 2485 C 222.705 -2.33948 -3.84172 0
M  V30 2486 C 224.024 -0.325318 -4.38896 0
M  V30 2487 H 221.143 -0.195861 -0.710498 0
M  V30 2488 H 223.785 -1.13313 -1.52513 0
M  V30 2489 H 221.935 -0.325904 -3.87131 0
M  V30 2490 H 223.607 -2.91847 -3.57243 0
M  V30 2491 H 221.85 -2.79789 -3.31513 0
M  V30 2492 H 222.521 -2.49987 -4.92149 0
M  V30 2493 H 224.997 -0.761256 -4.09077 0
M  V30 2494 H 223.873 -0.564295 -5.45992 0
M  V30 2495 H 224.134 0.774144 -4.35269 0
M  V30 2496 N 223.193 1.4272 -0.668489 0
M  V30 2497 C 224.156 2.292 0.00448567 0
M  V30 2498 C 225.156 1.43001 0.735339 0
M  V30 2499 O 226.346 1.64461 0.57429 0
M  V30 2500 C 223.478 3.25375 1.01705 0
M  V30 2501 H 224.671 2.90199 -0.756608 0
M  V30 2502 H 222.224 1.50254 -0.430506 0
M  V30 2503 H 222.959 2.69301 1.80686 0
M  V30 2504 H 222.744 3.88944 0.496463 0
M  V30 2505 H 224.234 3.90245 1.48655 0
M  V30 2506 N 224.671 0.411399 1.52136 0
M  V30 2507 C 225.917 -0.163888 2.02137 0
M  V30 2508 C 226.25 -1.44597 1.29636 0
M  V30 2509 O 225.525 -1.90272 0.403353 0
M  V30 2510 C 225.808 -0.40927 3.57767 0
M  V30 2511 C 225.661 0.889643 4.40914 0
M  V30 2512 C 226.98 -1.19042 4.23694 0
M  V30 2513 H 224.099 -0.0580896 0.734707 0
M  V30 2514 H 226.741 0.54531 1.82007 0
M  V30 2515 H 224.891 -1.0134 3.7505 0
M  V30 2516 H 226.563 1.52575 4.35337 0
M  V30 2517 H 224.806 1.50011 4.07037 0
M  V30 2518 H 225.477 0.672314 5.4789 0
M  V30 2519 H 227.953 -0.678942 4.10524 0
M  V30 2520 H 226.829 -1.33086 5.32522 0
M  V30 2521 H 227.09 -2.21166 3.82803 0
M  V30 2522 N 226.149 -1.5696 0.141893 0
M  V30 2523 C 227.397 -1.95573 -0.509484 0
M  V30 2524 C 227.718 -1.02746 -1.65736 0
M  V30 2525 O 226.988 -0.0880311 -1.95702 0
M  V30 2526 H 225.568 -0.722115 -0.191205 0
M  V30 2527 H 228.23 -1.93697 0.216196 0
M  V30 2528 H 227.326 -2.99171 -0.889 0
M  V30 2529 N 227.627 0.131896 -1.57047 0
M  V30 2530 C 228.537 1.1815 -2.02676 0
M  V30 2531 C 229.553 1.46113 -0.944824 0
M  V30 2532 O 230.729 1.57485 -1.25541 0
M  V30 2533 C 227.794 2.49139 -2.41103 0
M  V30 2534 C 226.855 2.28688 -3.63318 0
M  V30 2535 C 226.088 3.53431 -3.99903 0
M  V30 2536 O 226.311 4.60223 -3.36973 0
M  V30 2537 O 225.245 3.45198 -4.93074 0
M  V30 2538 H 229.071 0.824069 -2.92306 0
M  V30 2539 H 226.656 0.341745 -1.45439 0
M  V30 2540 H 228.538 3.26338 -2.66611 0
M  V30 2541 H 227.213 2.84382 -1.54624 0
M  V30 2542 H 226.12 1.4939 -3.42977 0
M  V30 2543 H 227.453 1.98355 -4.50462 0
M  V30 2544 N 229.106 1.52395 0.401703 0
M  V30 2545 C 230.355 1.66044 1.14509 0
M  V30 2546 C 230.668 0.400216 1.91462 0
M  V30 2547 O 231.874 0.416632 2.68284 0
M  V30 2548 C 230.33 2.93388 2.0845 0
M  V30 2549 C 229.938 4.26545 1.36978 0
M  V30 2550 C 231.682 3.16402 2.83001 0
M  V30 2551 C 229.589 5.45007 2.29611 0
M  V30 2552 H 228.519 0.618562 0.431158 0
M  V30 2553 H 231.17 1.78886 0.40892 0
M  V30 2554 H 229.552 2.74263 2.8565 0
M  V30 2555 H 230.726 4.56179 0.650916 0
M  V30 2556 H 229.041 4.09692 0.74438 0
M  V30 2557 H 231.638 4.02085 3.52465 0
M  V30 2558 H 231.981 2.30943 3.46368 0
M  V30 2559 H 232.514 3.36034 2.12898 0
M  V30 2560 H 229.253 6.32835 1.70879 0
M  V30 2561 H 228.773 5.19702 2.9945 0
M  V30 2562 H 230.452 5.7838 2.89974 0
M  V30 2563 N 230.584 -0.659388 1.43143 0
M  V30 2564 C 231.83 -1.42145 1.44647 0
M  V30 2565 C 232.163 -1.9408 0.0681907 0
M  V30 2566 O 231.438 -1.71899 -0.910007 0
M  V30 2567 C 231.721 -2.60735 2.48373 0
M  V30 2568 C 231.574 -2.14332 3.95451 0
M  V30 2569 C 232.893 -3.62951 2.48906 0
M  V30 2570 H 230.012 -0.51552 0.526696 0
M  V30 2571 H 232.654 -0.748069 1.74654 0
M  V30 2572 H 230.804 -3.18184 2.22916 0
M  V30 2573 H 232.476 -1.61932 4.31944 0
M  V30 2574 H 230.719 -1.4576 4.08578 0
M  V30 2575 H 231.39 -2.99583 4.63631 0
M  V30 2576 H 233.866 -3.1525 2.71582 0
M  V30 2577 H 232.742 -4.43487 3.23435 0
M  V30 2578 H 233.003 -4.15126 1.52061 0
M  V30 2579 N 232.062 -1.29571 -0.897171 0
M  V30 2580 C 233.009 -1.14916 -2.00158 0
M  V30 2581 C 233.979 -0.0418149 -1.66047 0
M  V30 2582 O 235.164 -0.209793 -1.89643 0
M  V30 2583 C 232.304 -0.834307 -3.34863 0
M  V30 2584 C 231.417 -2.02234 -3.8174 0
M  V30 2585 C 230.552 -1.64664 -5.05034 0
M  V30 2586 C 229.591 -2.80033 -5.44286 0
M  V30 2587 N 228.728 -2.42843 -6.58765 0
M  V30 2588 H 233.568 -2.09403 -2.12025 0
M  V30 2589 H 231.105 -1.042 -1.0383 0
M  V30 2590 H 233.063 -0.632436 -4.12379 0
M  V30 2591 H 231.693 0.0736656 -3.22716 0
M  V30 2592 H 230.745 -2.33583 -3.00238 0
M  V30 2593 H 232.057 -2.88673 -4.06779 0
M  V30 2594 H 231.211 -1.4078 -5.9014 0
M  V30 2595 H 229.95 -0.753766 -4.8184 0
M  V30 2596 H 228.955 -3.04596 -4.57713 0
M  V30 2597 H 230.18 -3.69989 -5.6946 0
M  V30 2598 H 228.126 -1.56046 -6.3717 0
M  V30 2599 H 228.043 -3.22815 -6.83613 0
M  V30 2600 H 229.311 -2.22285 -7.47134 0
M  V30 2601 N 233.54 1.10788 -1.12088 0
M  V30 2602 C 234.786 1.82942 -0.875226 0
M  V30 2603 C 235.119 1.84779 0.597538 0
M  V30 2604 O 234.394 1.30578 1.44152 0
M  V30 2605 C 234.677 3.29789 -1.44606 0
M  V30 2606 C 234.53 3.36307 -2.98693 0
M  V30 2607 C 235.849 4.26064 -1.10261 0
M  V30 2608 H 232.968 0.664195 -0.319397 0
M  V30 2609 H 235.61 1.29867 -1.38689 0
M  V30 2610 H 233.76 3.75118 -1.01089 0
M  V30 2611 H 235.432 2.99487 -3.50864 0
M  V30 2612 H 233.675 2.76318 -3.34411 0
M  V30 2613 H 234.346 4.39694 -3.33726 0
M  V30 2614 H 236.822 3.88951 -1.4784 0
M  V30 2615 H 235.698 5.27183 -1.52869 0
M  V30 2616 H 235.959 4.42098 -0.0142953 0
M  V30 2617 N 235.018 0.912232 1.28515 0
M  V30 2618 C 236.246 0.560416 1.99166 0
M  V30 2619 C 236.661 -0.857927 1.68182 0
M  V30 2620 O 236.018 -1.56805 0.933733 0
M  V30 2621 C 236.069 0.758142 3.53461 0
M  V30 2622 O 235.79 2.12067 3.83352 0
M  V30 2623 C 237.291 0.412954 4.41372 0
M  V30 2624 H 234.511 0.213805 0.636026 0
M  V30 2625 H 237.055 1.22502 1.63749 0
M  V30 2626 H 235.21 0.140556 3.87145 0
M  V30 2627 H 235.624 2.15923 4.77993 0
M  V30 2628 H 237.098 0.60208 5.48707 0
M  V30 2629 H 237.575 -0.65073 4.34353 0
M  V30 2630 H 238.181 1.00802 4.13182 0
M  V30 2631 N 236.496 -1.42363 0.676048 0
M  V30 2632 C 237.444 -2.32596 -0.0131507 0
M  V30 2633 C 238.438 -1.49891 -0.789238 0
M  V30 2634 O 239.644 -1.65955 -0.697061 0
M  V30 2635 H 236.019 -0.751647 -0.0230481 0
M  V30 2636 H 237.99 -2.88421 0.765243 0
M  V30 2637 C 236.739 -3.34479 -0.949702 0
M  V30 2638 H 236.062 -3.98158 -0.361938 0
M  V30 2639 H 237.502 -4.00199 -1.4006 0
M  V30 2640 C 235.961 -2.66838 -2.05667 0
M  V30 2641 O 236.491 -2.50124 -3.14326 0
M  V30 2642 N 234.697 -2.25843 -1.82875 0
M  V30 2643 H 234.244 -2.39637 -0.945085 0
M  V30 2644 H 234.202 -1.80918 -2.5713 0
M  V30 2645 N 237.974 -0.419461 -1.51915 0
M  V30 2646 C 239.222 0.152637 -2.01523 0
M  V30 2647 C 239.543 1.44762 -1.30649 0
M  V30 2648 O 238.813 1.90997 -0.435535 0
M  V30 2649 H 237.393 0.0593966 -0.744635 0
M  V30 2650 H 240.055 -0.558073 -1.86739 0
M  V30 2651 H 239.151 0.341369 -3.10227 0
M  V30 2652 N 239.452 1.56882 -0.150215 0
M  V30 2653 C 240.362 2.20494 0.801222 0
M  V30 2654 C 241.378 1.19019 1.26927 0
M  V30 2655 O 242.554 1.51607 1.32579 0
M  V30 2656 C 239.619 2.81659 2.02161 0
M  V30 2657 C 238.68 3.9827 1.60249 0
M  V30 2658 C 237.913 4.56508 2.7647 0
M  V30 2659 O 238.136 4.13627 3.92771 0
M  V30 2660 O 237.07 5.46719 2.51757 0
M  V30 2661 H 240.896 3.02315 0.289717 0
M  V30 2662 H 238.481 1.49202 0.0769684 0
M  V30 2663 H 240.363 3.20522 2.73576 0
M  V30 2664 H 239.038 2.02849 2.52258 0
M  V30 2665 H 237.945 3.64117 0.858477 0
M  V30 2666 H 239.278 4.78609 1.14864 0
M  V30 2667 N 240.93 -0.123565 1.57115 0
M  V30 2668 C 241.88 -1.1575 1.96433 0
M  V30 2669 C 242.864 -1.37313 0.838686 0
M  V30 2670 O 244.056 -1.38482 1.10235 0
M  V30 2671 C 241.185 -2.48526 2.36833 0
M  V30 2672 C 240.271 -2.30457 3.5602 0
M  V30 2673 N 240.662 -1.8219 4.71848 0
M  V30 2674 C 238.96 -2.61129 3.61563 0
M  V30 2675 C 239.661 -1.77721 5.53886 0
M  V30 2676 N 238.637 -2.21899 4.96248 0
M  V30 2677 H 242.439 -0.776797 2.83449 0
M  V30 2678 H 239.953 -0.331364 1.58983 0
M  V30 2679 H 241.95 -3.233 2.63216 0
M  V30 2680 H 240.61 -2.87358 1.5118 0
M  V30 2681 H 241.621 -1.51805 4.95152 0
M  V30 2682 H 238.298 -3.03678 2.86507 0
M  V30 2683 H 239.688 -1.41697 6.56789 0
M  V30 2684 N 242.408 -1.52605 -0.393616 0
M  V30 2685 C 243.338 -1.80022 -1.48709 0
M  V30 2686 C 244.319 -0.651995 -1.57108 0
M  V30 2687 O 245.504 -0.89913 -1.72132 0
M  V30 2688 C 242.634 -1.96492 -2.86371 0
M  V30 2689 C 241.588 -3.12161 -2.92813 0
M  V30 2690 C 240.914 -3.13877 -4.3288 0
M  V30 2691 C 242.214 -4.51322 -2.6288 0
M  V30 2692 H 243.908 -2.71589 -1.26015 0
M  V30 2693 H 241.454 -1.30684 -0.604778 0
M  V30 2694 H 243.407 -2.14255 -3.62867 0
M  V30 2695 H 242.131 -1.01611 -3.10391 0
M  V30 2696 H 240.79 -2.94173 -2.18764 0
M  V30 2697 H 240.438 -2.16687 -4.53933 0
M  V30 2698 H 240.138 -3.91576 -4.38112 0
M  V30 2699 H 241.662 -3.33789 -5.1129 0
M  V30 2700 H 243.076 -4.69435 -3.29096 0
M  V30 2701 H 241.473 -5.31053 -2.79468 0
M  V30 2702 H 242.543 -4.58353 -1.58242 0
M  V30 2703 N 243.887 0.651787 -1.4349 0
M  V30 2704 C 245.298 1.233 -1.40193 0
M  V30 2705 C 245.649 1.9591 -0.106727 0
M  V30 2706 O 244.774 2.01316 0.793773 0
M  V30 2707 C 245.369 2.24257 -2.53957 0
M  V30 2708 C 243.928 2.77852 -2.5392 0
M  V30 2709 C 243.075 1.52517 -2.3159 0
M  V30 2710 H 246.026 0.443717 -1.52371 0
M  V30 2711 H 246.047 3.0646 -2.25528 0
M  V30 2712 H 245.559 1.71382 -3.4821 0
M  V30 2713 H 243.66 3.34786 -1.63551 0
M  V30 2714 H 243.773 3.25299 -3.51735 0
M  V30 2715 H 242.137 1.79915 -1.80285 0
M  V30 2716 H 242.92 1.01574 -3.27929 0
M  V30 2717 N 245.365 1.30045 0.890287 0
M  V30 2718 C 246.328 1.15963 1.977 0
M  V30 2719 C 247.328 0.0923777 1.60534 0
M  V30 2720 O 248.518 0.340071 1.70848 0
M  V30 2721 C 245.65 0.775451 3.31963 0
M  V30 2722 H 246.843 2.12502 2.11619 0
M  V30 2723 H 244.396 1.13366 1.07601 0
M  V30 2724 H 245.131 -0.189671 3.23745 0
M  V30 2725 H 244.916 1.54668 3.60306 0
M  V30 2726 H 246.406 0.700251 4.11687 0
M  V30 2727 N 246.843 -1.10192 1.12674 0
M  V30 2728 C 248.12 -1.78717 0.794965 0
M  V30 2729 C 248.5 -1.98628 -0.714853 0
M  V30 2730 O 247.848 -1.58135 -1.64941 0
M  V30 2731 C 248.058 -3.11546 1.5729 0
M  V30 2732 C 249.406 -3.86382 1.76052 0
M  V30 2733 O 250.43 -3.21274 1.53823 0
M  V30 2734 O 249.289 -5.03246 2.13087 0
M  V30 2735 H 246.383 -0.774702 0.289423 0
M  V30 2736 H 248.929 -1.16819 1.23091 0
M  V30 2737 H 247.701 -2.92489 2.59935 0
M  V30 2738 H 247.324 -3.81164 1.13137 0
M  V30 2739 N 248.321 -0.919034 -1.28029 0
M  V30 2740 C 249.251 -0.428581 -2.29533 0
M  V30 2741 C 250.232 0.50659 -1.62381 0
M  V30 2742 O 251.417 0.413195 -1.89753 0
M  V30 2743 C 248.547 0.327388 -3.45753 0
M  V30 2744 C 247.501 -0.519137 -4.2484 0
M  V30 2745 C 246.827 0.365486 -5.33449 0
M  V30 2746 C 248.127 -1.77914 -4.91064 0
M  V30 2747 H 249.821 -1.27687 -2.70807 0
M  V30 2748 H 247.367 -0.615428 -1.30186 0
M  V30 2749 H 249.32 0.681378 -4.15855 0
M  V30 2750 H 248.044 1.20963 -3.03374 0
M  V30 2751 H 246.703 -0.855717 -3.56473 0
M  V30 2752 H 246.351 1.24642 -4.87312 0
M  V30 2753 H 246.051 -0.197356 -5.87268 0
M  V30 2754 H 247.575 0.715241 -6.06396 0
M  V30 2755 H 248.989 -1.49374 -5.53498 0
M  V30 2756 H 247.386 -2.2848 -5.54903 0
M  V30 2757 H 248.456 -2.50382 -4.15255 0
M  V30 2758 N 249.799 1.42003 -0.683588 0
M  V30 2759 C 251.048 2.00638 -0.206681 0
M  V30 2760 C 251.361 1.5472 1.19671 0
M  V30 2761 O 252.567 2.05833 1.77045 0
M  V30 2762 C 251.023 3.58487 -0.318632 0
M  V30 2763 C 250.631 4.1339 -1.72663 0
M  V30 2764 C 252.375 4.24384 0.0991141 0
M  V30 2765 C 250.282 5.63633 -1.79087 0
M  V30 2766 H 249.212 0.750408 -0.0735107 0
M  V30 2767 H 251.863 1.62624 -0.850048 0
M  V30 2768 H 250.245 3.94047 0.392781 0
M  V30 2769 H 251.419 3.89273 -2.46583 0
M  V30 2770 H 249.734 3.59976 -2.09299 0
M  V30 2771 H 252.331 5.34652 0.0713833 0
M  V30 2772 H 252.674 4.00505 1.13586 0
M  V30 2773 H 253.207 3.93816 -0.561599 0
M  V30 2774 H 249.946 5.92323 -2.80774 0
M  V30 2775 H 249.466 5.89714 -1.09535 0
M  V30 2776 H 251.145 6.28201 -1.5483 0
M  V30 2777 N 251.277 0.427512 1.51691 0
M  V30 2778 C 252.502 -0.143601 2.06902 0
M  V30 2779 C 252.927 -1.36536 1.29382 0
M  V30 2780 O 252.285 -1.78289 0.329043 0
M  V30 2781 C 252.333 -0.454207 3.57728 0
M  V30 2782 O 251.437 -1.54228 3.82475 0
M  V30 2783 H 250.778 -0.00617128 0.663971 0
M  V30 2784 H 253.308 0.606014 1.95419 0
M  V30 2785 H 253.318 -0.707525 4.01818 0
M  V30 2786 H 251.993 0.438812 4.13579 0
M  V30 2787 H 250.57 -1.2797 3.50254 0
M  V30 2788 N 252.755 -1.56801 0.158532 0
M  V30 2789 C 253.685 -2.20347 -0.772609 0
M  V30 2790 C 254.666 -1.15518 -1.24859 0
M  V30 2791 O 255.851 -1.43902 -1.30406 0
M  V30 2792 C 252.981 -2.83417 -2.00729 0
M  V30 2793 C 251.935 -3.94174 -1.66765 0
M  V30 2794 C 251.261 -4.44233 -2.97592 0
M  V30 2795 C 252.561 -5.14392 -0.905447 0
M  V30 2796 H 254.255 -2.98413 -0.242959 0
M  V30 2797 H 251.801 -1.43537 -0.115419 0
M  V30 2798 H 253.754 -3.26543 -2.6636 0
M  V30 2799 H 252.478 -2.02701 -2.56086 0
M  V30 2800 H 251.137 -3.51684 -1.03508 0
M  V30 2801 H 250.785 -3.60325 -3.50963 0
M  V30 2802 H 250.485 -5.18945 -2.75626 0
M  V30 2803 H 252.009 -4.90037 -3.64274 0
M  V30 2804 H 253.423 -5.5429 -1.46408 0
M  V30 2805 H 251.82 -5.9494 -0.7853 0
M  V30 2806 H 252.89 -4.84795 0.100668 0
M  V30 2807 N 254.233 0.115231 -1.57178 0
M  V30 2808 C 255.458 0.840354 -1.89612 0
M  V30 2809 C 255.883 1.72464 -0.750845 0
M  V30 2810 O 255.241 1.78826 0.298478 0
M  V30 2811 C 255.289 1.64654 -3.20814 0
M  V30 2812 O 254.393 2.7538 -3.06985 0
M  V30 2813 H 253.734 0.232158 -0.622092 0
M  V30 2814 H 256.264 0.0964977 -2.04372 0
M  V30 2815 H 256.274 2.03499 -3.53627 0
M  V30 2816 H 254.949 0.997416 -4.03763 0
M  V30 2817 H 253.526 2.3971 -2.85646 0
M  V30 2818 N 255.711 1.52812 0.385517 0
M  V30 2819 C 256.936 1.72207 1.15583 0
M  V30 2820 C 257.361 0.441034 1.82857 0
M  V30 2821 O 256.719 -0.603465 1.70962 0
M  V30 2822 C 256.767 2.87476 2.17692 0
M  V30 2823 O 255.871 2.54693 3.24354 0
M  V30 2824 H 255.212 0.572526 0.336319 0
M  V30 2825 H 257.742 1.99618 0.448744 0
M  V30 2826 H 257.752 3.13072 2.6163 0
M  V30 2827 H 256.427 3.80408 1.68115 0
M  V30 2828 H 255.004 2.3985 2.85529 0
M  V30 2829 N 257.189 -0.644168 1.43834 0
M  V30 2830 C 258.414 -1.43642 1.49605 0
M  V30 2831 C 258.839 -1.8773 0.117913 0
M  V30 2832 O 258.197 -1.57938 -0.890239 0
M  V30 2833 C 258.245 -2.6416 2.45463 0
M  V30 2834 O 257.349 -3.63538 1.94714 0
M  V30 2835 H 256.69 -0.430329 0.50568 0
M  V30 2836 H 259.22 -0.787448 1.8884 0
M  V30 2837 H 259.23 -3.11864 2.63068 0
M  V30 2838 H 257.905 -2.31414 3.45572 0
M  V30 2839 H 256.482 -3.2273 1.86814 0
M  V30 2840 N 258.668 -1.30515 -0.883378 0
M  V30 2841 C 259.578 -1.18959 -2.02203 0
M  V30 2842 C 260.594 -0.109172 -1.73657 0
M  V30 2843 O 261.77 -0.324413 -1.9877 0
M  V30 2844 C 258.835 -0.883871 -3.35244 0
M  V30 2845 C 257.896 -2.04982 -3.77201 0
M  V30 2846 C 257.129 -1.75859 -5.03894 0
M  V30 2847 O 257.352 -0.687276 -5.66244 0
M  V30 2848 O 256.286 -2.61146 -5.42297 0
M  V30 2849 H 260.112 -2.14616 -2.1488 0
M  V30 2850 H 257.697 -1.10124 -1.0096 0
M  V30 2851 H 259.579 -0.728644 -4.15053 0
M  V30 2852 H 258.254 0.0427798 -3.23672 0
M  V30 2853 H 257.161 -2.26038 -2.9809 0
M  V30 2854 H 258.494 -2.95825 -3.93381 0
M  V30 2855 N 260.146 1.09593 -1.13257 0
M  V30 2856 C 261.557 1.63229 -0.906274 0
M  V30 2857 C 261.908 1.8811 0.557578 0
M  V30 2858 O 261.033 1.62953 1.42391 0
M  V30 2859 C 261.628 2.96535 -1.63867 0
M  V30 2860 C 260.187 3.47003 -1.45828 0
M  V30 2861 C 259.334 2.2145 -1.66898 0
M  V30 2862 H 262.285 0.92978 -1.28611 0
M  V30 2863 H 262.306 3.64411 -1.09476 0
M  V30 2864 H 261.818 2.78394 -2.70404 0
M  V30 2865 H 259.919 3.70272 -0.415848 0
M  V30 2866 H 260.032 4.24551 -2.2202 0
M  V30 2867 H 258.396 2.30022 -1.09371 0
M  V30 2868 H 259.179 2.0583 -2.74752 0
M  V30 2869 N 261.624 0.925811 1.2754 0
M  V30 2870 C 262.556 0.380753 2.26015 0
M  V30 2871 C 263.569 -0.487485 1.5533 0
M  V30 2872 O 264.758 -0.300413 1.75954 0
M  V30 2873 C 261.858 -0.473259 3.35579 0
M  V30 2874 C 261.031 0.375249 4.35787 0
M  V30 2875 C 260.09 -0.415809 5.24555 0
M  V30 2876 O 259.116 0.175834 5.68928 0
M  V30 2877 N 260.318 -1.71607 5.54555 0
M  V30 2878 H 263.083 1.22725 2.73421 0
M  V30 2879 H 260.644 0.793037 1.41147 0
M  V30 2880 H 262.636 -1.00949 3.91907 0
M  V30 2881 H 261.206 -1.2205 2.87789 0
M  V30 2882 H 260.426 1.09279 3.7875 0
M  V30 2883 H 261.714 0.955399 4.99749 0
M  V30 2884 H 261.112 -2.2191 5.20358 0
M  V30 2885 H 259.669 -2.19887 6.1359 0
M  V30 2886 N 263.102 -1.41638 0.69111 0
M  V30 2887 C 264.065 -2.29178 0.0319786 0
M  V30 2888 C 265.065 -1.44153 -0.712496 0
M  V30 2889 O 266.255 -1.65354 -0.548053 0
M  V30 2890 C 263.387 -3.26952 -0.965161 0
M  V30 2891 H 264.58 -2.88959 0.802681 0
M  V30 2892 H 262.133 -1.4955 0.454356 0
M  V30 2893 H 262.868 -2.72142 -1.76378 0
M  V30 2894 H 262.653 -3.89685 -0.434522 0
M  V30 2895 H 264.143 -3.92561 -1.42428 0
M  V30 2896 N 264.58 -0.43555 -1.51462 0
M  V30 2897 C 265.513 0.421989 -2.24264 0
M  V30 2898 C 266.491 1.02619 -1.26127 0
M  V30 2899 O 267.675 1.069 -1.55257 0
M  V30 2900 C 264.802 1.588 -2.99166 0
M  V30 2901 C 263.848 1.10465 -4.11946 0
M  V30 2902 S 264.681 0.048146 -5.35478 0
M  V30 2903 C 265.837 1.21887 -6.13917 0
M  V30 2904 H 266.07 -0.196102 -2.96653 0
M  V30 2905 H 263.603 -0.220054 -1.52824 0
M  V30 2906 H 265.561 2.25647 -3.42919 0
M  V30 2907 H 264.222 2.1775 -2.26371 0
M  V30 2908 H 263.415 1.97654 -4.63626 0
M  V30 2909 H 263.017 0.51445 -3.70445 0
M  V30 2910 H 265.309 2.13756 -6.42895 0
M  V30 2911 H 266.252 0.742076 -7.04201 0
M  V30 2912 H 266.66 1.45663 -5.45383 0
M  V30 2913 N 266.058 1.56714 -0.166846 0
M  V30 2914 C 267.298 1.98641 0.481763 0
M  V30 2915 C 267.662 1.05038 1.6072 0
M  V30 2916 O 268.863 1.36087 2.31805 0
M  V30 2917 C 267.134 3.44362 0.956517 0
M  V30 2918 S 268.693 4.08317 1.60694 0
M  V30 2919 H 265.511 0.693873 0.155116 0
M  V30 2920 H 268.113 1.93719 -0.263251 0
M  V30 2921 H 266.817 4.10204 0.126936 0
M  V30 2922 H 266.348 3.53041 1.73568 0
M  V30 2923 H 268.363 4.02999 2.89494 0
M  V30 2924 N 267.536 -0.106894 1.57237 0
M  V30 2925 C 268.766 -0.825191 1.89405 0
M  V30 2926 C 269.174 -1.73374 0.757496 0
M  V30 2927 O 268.517 -1.81552 -0.280115 0
M  V30 2928 C 268.579 -1.70102 3.1671 0
M  V30 2929 C 268.243 -0.965523 4.46684 0
M  V30 2930 C 269.24 -0.300741 5.19029 0
M  V30 2931 C 266.925 -0.943105 4.93367 0
M  V30 2932 C 268.919 0.376622 6.36286 0
M  V30 2933 C 266.606 -0.261949 6.10538 0
M  V30 2934 C 267.604 0.396748 6.81847 0
M  V30 2935 O 267.292 1.06701 7.96787 0
M  V30 2936 H 267.024 -0.241852 0.631255 0
M  V30 2937 H 269.578 -0.0921491 2.05193 0
M  V30 2938 H 267.808 -2.47601 2.97036 0
M  V30 2939 H 269.497 -2.29483 3.34802 0
M  V30 2940 H 270.263 -0.309599 4.84011 0
M  V30 2941 H 266.142 -1.44524 4.3776 0
M  V30 2942 H 269.686 0.891334 6.91882 0
M  V30 2943 H 265.583 -0.250896 6.45012 0
M  V30 2944 H 266.351 0.972707 8.127 0
M  V30 2945 N 269.014 -1.53014 -0.377408 0
M  V30 2946 C 270.263 -1.67845 -1.11853 0
M  V30 2947 C 270.576 -0.430625 -1.90801 0
M  V30 2948 O 271.782 -0.459261 -2.67587 0
M  V30 2949 C 270.238 -2.96668 -2.03756 0
M  V30 2950 C 269.846 -4.28671 -1.30175 0
M  V30 2951 C 271.59 -3.20865 -2.77932 0
M  V30 2952 C 269.497 -5.48591 -2.20911 0
M  V30 2953 H 268.427 -0.625343 -0.421263 0
M  V30 2954 H 271.078 -1.79514 -0.380409 0
M  V30 2955 H 269.46 -2.78773 -2.8125 0
M  V30 2956 H 270.634 -4.57157 -0.578259 0
M  V30 2957 H 268.949 -4.10825 -0.679108 0
M  V30 2958 H 271.546 -4.07642 -3.46024 0
M  V30 2959 H 271.889 -2.36424 -3.4265 0
M  V30 2960 H 272.422 -3.39379 -2.07525 0
M  V30 2961 H 269.161 -6.35474 -1.6079 0
M  V30 2962 H 268.681 -5.244 -2.91144 0
M  V30 2963 H 270.36 -5.8292 -2.80736 0
M  V30 2964 N 270.492 0.636531 -1.44174 0
M  V30 2965 C 271.402 1.77754 -1.53103 0
M  V30 2966 C 272.418 1.68928 -0.417034 0
M  V30 2967 O 273.594 1.89801 -0.6736 0
M  V30 2968 C 270.659 3.14115 -1.46741 0
M  V30 2969 C 269.72 3.34612 -2.68948 0
M  V30 2970 C 268.953 4.64467 -2.6288 0
M  V30 2971 O 269.176 5.44919 -1.68581 0
M  V30 2972 O 268.11 4.87049 -3.53648 0
M  V30 2973 H 271.936 1.73174 -2.49489 0
M  V30 2974 H 269.521 0.79709 -1.2636 0
M  V30 2975 H 271.403 3.95412 -1.45696 0
M  V30 2976 H 270.078 3.19249 -0.534975 0
M  V30 2977 H 268.985 2.53014 -2.75562 0
M  V30 2978 H 270.318 3.34336 -3.61221 0
M  V30 2979 N 271.97 1.30982 0.876444 0
M  V30 2980 C 273.198 1.23242 1.6619 0
M  V30 2981 C 273.613 -0.203345 1.87702 0
M  V30 2982 O 272.97 -1.13317 1.43057 0
M  V30 2983 C 273.021 1.96623 3.03351 0
M  V30 2984 O 272.742 3.34594 2.82804 0
M  V30 2985 C 274.243 1.95644 3.97792 0
M  V30 2986 H 271.463 0.426126 0.518322 0
M  V30 2987 H 274.007 1.7275 1.09442 0
M  V30 2988 H 272.162 1.50892 3.56806 0
M  V30 2989 H 272.576 3.71873 3.69879 0
M  V30 2990 H 274.05 2.51511 4.91372 0
M  V30 2991 H 274.527 0.937395 4.2908 0
M  V30 2992 H 275.133 2.41225 3.50272 0
M  V30 2993 N 273.449 -1.08991 1.13837 0
M  V30 2994 C 274.674 -1.85551 0.926585 0
M  V30 2995 C 275.099 -1.80782 -0.519566 0
M  V30 2996 O 274.457 -1.18855 -1.36906 0
M  V30 2997 C 274.505 -3.31266 1.42462 0
M  V30 2998 O 273.609 -4.07822 0.612789 0
M  V30 2999 H 272.95 -0.575192 0.331738 0
M  V30 3000 H 275.48 -1.37604 1.51414 0
M  V30 3001 H 275.49 -3.82112 1.43019 0
M  V30 3002 H 274.165 -3.34052 2.47754 0
M  V30 3003 H 272.742 -3.66731 0.675463 0
M  V30 3004 N 274.927 -0.932562 -1.27047 0
M  V30 3005 C 275.875 -0.42603 -2.28665 0
M  V30 3006 C 276.869 0.49219 -1.62092 0
M  V30 3007 O 278.075 0.371355 -1.76128 0
M  V30 3008 H 274.45 -0.119213 -0.742491 0
M  V30 3009 H 276.421 -1.29579 -2.68797 0
M  V30 3010 C 275.17 0.301426 -3.46391 0
M  V30 3011 H 274.493 -0.39595 -3.97834 0
M  V30 3012 H 275.933 0.6202 -4.1944 0
M  V30 3013 C 274.392 1.51616 -3.00856 0
M  V30 3014 O 274.922 2.61476 -3.04948 0
M  V30 3015 N 273.128 1.36969 -2.56296 0
M  V30 3016 H 272.675 0.475873 -2.53166 0
M  V30 3017 H 272.633 2.18368 -2.26192 0
M  V30 3018 N 276.405 1.4127 -0.698611 0
M  V30 3019 C 277.335 2.33447 -0.049629 0
M  V30 3020 C 278.316 1.51982 0.763898 0
M  V30 3021 O 279.501 1.80509 0.716257 0
M  V30 3022 C 276.631 3.35828 0.885267 0
M  V30 3023 C 275.585 4.27627 0.178613 0
M  V30 3024 C 274.911 5.20406 1.22807 0
M  V30 3025 C 276.211 5.13459 -0.956933 0
M  V30 3026 H 277.905 2.87966 -0.81951 0
M  V30 3027 H 275.451 1.38461 -0.395538 0
M  V30 3028 H 277.404 3.9924 1.34854 0
M  V30 3029 H 276.128 2.79666 1.68685 0
M  V30 3030 H 274.787 3.65643 -0.26466 0
M  V30 3031 H 274.435 4.60558 2.02226 0
M  V30 3032 H 274.135 5.82661 0.760239 0
M  V30 3033 H 275.659 5.86695 1.69179 0
M  V30 3034 H 277.073 5.70421 -0.573805 0
M  V30 3035 H 275.47 5.8467 -1.35205 0
M  V30 3036 H 276.54 4.50443 -1.79524 0
M  V30 3037 N 277.883 0.443576 1.51229 0
M  V30 3038 C 279.16 -0.181038 1.9476 0
M  V30 3039 C 279.54 -1.59523 1.38259 0
M  V30 3040 O 278.888 -2.2122 0.572198 0
M  V30 3041 C 279.098 -0.152422 3.48667 0
M  V30 3042 C 280.446 -0.354923 4.23114 0
M  V30 3043 O 281.47 -0.230257 3.55455 0
M  V30 3044 O 280.329 -0.603674 5.43156 0
M  V30 3045 H 277.423 -0.1266 0.817252 0
M  V30 3046 H 279.969 0.502004 1.62105 0
M  V30 3047 H 278.741 0.836022 3.82265 0
M  V30 3048 H 278.364 -0.878107 3.87782 0
M  V30 3049 N 279.361 -1.56624 0.175154 0
M  V30 3050 C 280.609 -1.96609 -0.467885 0
M  V30 3051 C 280.93 -1.06238 -1.63519 0
M  V30 3052 O 280.2 -0.129523 -1.95471 0
M  V30 3053 H 278.78 -0.726008 -0.175845 0
M  V30 3054 H 281.442 -1.93195 0.257234 0
M  V30 3055 H 280.538 -3.00989 -0.825342 0
M  V30 3056 N 280.839 0.0985539 -1.57292 0
M  V30 3057 C 281.749 1.13824 -2.05137 0
M  V30 3058 C 282.765 1.44076 -0.975604 0
M  V30 3059 O 283.941 1.54786 -1.28853 0
M  V30 3060 C 281.006 2.43969 -2.46333 0
M  V30 3061 C 280.067 2.2093 -3.68087 0
M  V30 3062 C 279.3 3.44869 -4.0731 0
M  V30 3063 O 279.523 4.52972 -3.46659 0
M  V30 3064 O 278.457 3.34661 -5.00285 0
M  V30 3065 H 282.283 0.761881 -2.93988 0
M  V30 3066 H 279.868 0.310818 -1.46131 0
M  V30 3067 H 281.75 3.20609 -2.73473 0
M  V30 3068 H 280.425 2.81038 -1.60621 0
M  V30 3069 H 279.332 1.42081 -3.46069 0
M  V30 3070 H 280.665 1.88755 -4.54568 0
M  V30 3071 N 282.317 1.53212 0.369288 0
M  V30 3072 C 283.545 1.73119 1.13303 0
M  V30 3073 C 283.96 0.458455 1.83149 0
M  V30 3074 O 283.317 -0.568403 1.73423 0
M  V30 3075 C 283.368 2.89413 2.16616 0
M  V30 3076 O 283.089 4.11761 1.49614 0
M  V30 3077 C 284.59 3.21161 3.05566 0
M  V30 3078 H 281.81 0.579107 0.338934 0
M  V30 3079 H 284.354 1.99942 0.429338 0
M  V30 3080 H 282.509 2.64994 2.82589 0
M  V30 3081 H 282.923 4.76858 2.18419 0
M  V30 3082 H 284.397 4.05949 3.74045 0
M  V30 3083 H 284.874 2.36369 3.70171 0
M  V30 3084 H 285.48 3.47492 2.45213 0
M  V30 3085 N 283.795 -0.628877 1.44509 0
M  V30 3086 C 284.743 -1.76193 1.51852 0
M  V30 3087 C 285.737 -1.64849 0.390042 0
M  V30 3088 O 286.943 -1.709 0.565082 0
M  V30 3089 H 283.318 -0.581728 0.476547 0
M  V30 3090 H 285.289 -1.67123 2.47209 0
M  V30 3091 C 284.038 -3.14533 1.48204 0
M  V30 3092 H 283.361 -3.23911 2.34354 0
M  V30 3093 H 284.801 -3.93701 1.57402 0
M  V30 3094 C 283.26 -3.36287 0.203142 0
M  V30 3095 O 283.79 -3.9509 -0.725745 0
M  V30 3096 N 281.996 -2.90408 0.105563 0
M  V30 3097 H 281.543 -2.42739 0.862301 0
M  V30 3098 H 281.501 -3.05339 -0.749371 0
M  V30 3099 N 285.273 -1.31445 -0.869486 0
M  V30 3100 C 286.203 -1.21727 -1.99261 0
M  V30 3101 C 287.184 -0.104359 -1.6978 0
M  V30 3102 O 288.369 -0.289038 -1.92037 0
M  V30 3103 C 285.499 -0.924317 -3.34774 0
M  V30 3104 C 284.453 -1.99685 -3.78563 0
M  V30 3105 C 283.779 -1.55658 -5.11541 0
M  V30 3106 C 285.079 -3.41003 -3.95619 0
M  V30 3107 H 286.773 -2.1569 -2.07649 0
M  V30 3108 H 284.319 -1.03839 -0.997675 0
M  V30 3109 H 286.272 -0.842934 -4.12883 0
M  V30 3110 H 284.996 0.0509793 -3.2656 0
M  V30 3111 H 283.655 -2.06813 -3.02694 0
M  V30 3112 H 283.303 -0.569132 -4.9977 0
M  V30 3113 H 283.003 -2.27409 -5.41811 0
M  V30 3114 H 284.527 -1.48928 -5.92159 0
M  V30 3115 H 285.941 -3.36547 -4.64122 0
M  V30 3116 H 284.338 -4.10975 -4.37286 0
M  V30 3117 H 285.408 -3.81754 -2.98985 0
M  V30 3118 N 286.751 1.08385 -1.14413 0
M  V30 3119 C 287.698 2.15311 -0.831265 0
M  V30 3120 C 288.668 1.64751 0.211292 0
M  V30 3121 O 289.853 1.90627 0.0811674 0
M  V30 3122 C 286.993 3.43658 -0.315143 0
M  V30 3123 C 286.106 4.08064 -1.41802 0
M  V30 3124 C 285.241 5.24207 -0.859126 0
M  V30 3125 C 284.28 5.80554 -1.93967 0
M  V30 3126 N 283.417 6.88042 -1.39793 0
M  V30 3127 H 288.257 2.41415 -1.74708 0
M  V30 3128 H 285.794 1.18474 -0.871909 0
M  V30 3129 H 287.752 4.172 0.00230884 0
M  V30 3130 H 286.382 3.17839 0.56378 0
M  V30 3131 H 285.434 3.3228 -1.85187 0
M  V30 3132 H 286.746 4.45962 -2.23427 0
M  V30 3133 H 285.9 6.04689 -0.49359 0
M  V30 3134 H 284.639 4.87699 -0.011932 0
M  V30 3135 H 283.644 4.98725 -2.31415 0
M  V30 3136 H 284.869 6.19121 -2.79046 0
M  V30 3137 H 282.815 6.53493 -0.572919 0
M  V30 3138 H 282.732 7.24767 -2.15054 0
M  V30 3139 H 284 7.72255 -1.0603 0
M  V30 3140 N 288.23 0.939286 1.26551 0
M  V30 3141 C 289.479 0.581601 1.93133 0
M  V30 3142 C 289.792 -0.883224 1.74524 0
M  V30 3143 O 290.998 -1.3502 2.35546 0
M  V30 3144 C 289.454 0.989425 3.46032 0
M  V30 3145 C 289.062 2.47573 3.73379 0
M  V30 3146 C 290.806 0.703544 4.18629 0
M  V30 3147 C 288.713 2.82235 5.19709 0
M  V30 3148 H 287.643 0.213803 0.723052 0
M  V30 3149 H 290.294 1.14167 1.4366 0
M  V30 3150 H 288.676 0.357902 3.94379 0
M  V30 3151 H 289.85 3.15614 3.35744 0
M  V30 3152 H 288.165 2.73471 3.1401 0
M  V30 3153 H 290.762 0.938869 5.26393 0
M  V30 3154 H 291.105 -0.359639 4.14744 0
M  V30 3155 H 291.638 1.2947 3.76141 0
M  V30 3156 H 288.377 3.87509 5.28694 0
M  V30 3157 H 287.897 2.18854 5.58447 0
M  V30 3158 H 289.576 2.70599 5.87695 0
M  V30 3159 N 289.708 -1.40897 0.706093 0
M  V30 3160 C 291.124 -1.55042 0.37869 0
M  V30 3161 C 291.324 -1.67944 -1.11342 0
M  V30 3162 O 290.38 -1.66372 -1.89938 0
M  V30 3163 C 291.693 -2.78398 1.13643 0
M  V30 3164 C 293.241 -2.92206 1.12181 0
M  V30 3165 C 293.716 -4.18463 1.86152 0
M  V30 3166 N 295.207 -4.25443 1.83173 0
M  V30 3167 C 295.942 -5.2202 2.37239 0
M  V30 3168 N 295.438 -6.24563 2.99821 0
M  V30 3169 N 297.231 -5.14033 2.27435 0
M  V30 3170 H 289.382 -1.30769 1.67372 0
M  V30 3171 H 291.645 -0.631653 0.706907 0
M  V30 3172 H 291.351 -2.7511 2.19106 0
M  V30 3173 H 291.225 -3.70228 0.721853 0
M  V30 3174 H 293.612 -2.95004 0.0754171 0
M  V30 3175 H 293.693 -2.01521 1.57554 0
M  V30 3176 H 293.337 -4.16427 2.90776 0
M  V30 3177 H 293.267 -5.08141 1.38206 0
M  V30 3178 H 295.758 -3.51976 1.37556 0
M  V30 3179 H 296.071 -6.94665 3.38616 0
M  V30 3180 H 294.416 -6.25035 3.03902 0
M  V30 3181 H 297.607 -4.3285 1.78208 0
M  V30 3182 H 297.78 -5.89129 2.69873 0
M  V30 3183 N 291.186 -0.45159 -1.50991 0
M  V30 3184 C 292.118 0.388634 -2.25881 0
M  V30 3185 C 293.131 0.974041 -1.30446 0
M  V30 3186 O 294.32 0.865758 -1.56099 0
M  V30 3187 C 291.42 1.5571 -3.01011 0
M  V30 3188 C 290.593 1.08801 -4.23652 0
M  V30 3189 C 289.652 2.12825 -4.8124 0
M  V30 3190 O 288.678 1.71678 -5.42693 0
M  V30 3191 N 289.88 3.45453 -4.66522 0
M  V30 3192 H 292.645 -0.25329 -2.98628 0
M  V30 3193 H 290.206 -0.281268 -1.59438 0
M  V30 3194 H 292.198 2.24952 -3.3642 0
M  V30 3195 H 290.768 2.10409 -2.31186 0
M  V30 3196 H 289.988 0.22215 -3.93574 0
M  V30 3197 H 291.276 0.752213 -5.03209 0
M  V30 3198 H 290.674 3.81605 -4.17605 0
M  V30 3199 H 289.231 4.10549 -5.06254 0
M  V30 3200 N 292.664 1.56529 -0.183458 0
M  V30 3201 C 293.912 1.96855 0.457452 0
M  V30 3202 C 294.233 1.07104 1.62953 0
M  V30 3203 O 293.503 0.139887 1.954 0
M  V30 3204 H 292.083 0.72693 0.171992 0
M  V30 3205 H 294.745 1.93056 -0.267476 0
M  V30 3206 H 293.841 3.01423 0.809368 0
M  V30 3207 N 294.142 -0.090211 1.57342 0
M  V30 3208 C 295.072 -1.10976 2.05443 0
M  V30 3209 C 296.053 -1.41482 0.944284 0
M  V30 3210 O 297.238 -1.51428 1.21586 0
M  V30 3211 C 294.368 -2.42831 2.48295 0
M  V30 3212 C 293.322 -2.26721 3.63018 0
M  V30 3213 C 292.648 -3.63796 3.91863 0
M  V30 3214 C 293.948 -1.7037 4.93732 0
M  V30 3215 H 295.642 -0.709564 2.9087 0
M  V30 3216 H 293.188 -0.339874 1.39932 0
M  V30 3217 H 295.141 -3.14431 2.80555 0
M  V30 3218 H 293.865 -2.84795 1.59873 0
M  V30 3219 H 292.524 -1.57565 3.31012 0
M  V30 3220 H 292.172 -4.03297 3.00601 0
M  V30 3221 H 291.872 -3.53861 4.69101 0
M  V30 3222 H 293.396 -4.36855 4.26603 0
M  V30 3223 H 294.81 -2.31816 5.24342 0
M  V30 3224 H 293.207 -1.71181 5.75167 0
M  V30 3225 H 294.277 -0.663542 4.80339 0
M  V30 3226 N 295.62 -1.53406 -0.361157 0
M  V30 3227 C 297.031 -1.61442 -0.937728 0
M  V30 3228 C 297.382 -0.48461 -1.90121 0
M  V30 3229 O 296.507 0.388312 -2.12888 0
M  V30 3230 C 297.102 -2.92624 -1.70753 0
M  V30 3231 C 295.661 -3.02981 -2.23337 0
M  V30 3232 C 294.808 -2.5677 -1.04712 0
M  V30 3233 H 297.759 -1.58083 -0.139816 0
M  V30 3234 H 297.78 -2.80675 -2.56908 0
M  V30 3235 H 297.292 -3.74834 -1.00604 0
M  V30 3236 H 295.393 -2.25368 -2.96715 0
M  V30 3237 H 295.506 -4.0814 -2.50916 0
M  V30 3238 H 293.87 -2.11752 -1.41539 0
M  V30 3239 H 294.653 -3.41402 -0.360539 0
M  V30 3240 N 297.098 0.621204 -1.44841 0
M  V30 3241 C 298.061 1.71459 -1.521 0
M  V30 3242 C 299.061 1.55696 -0.401933 0
M  V30 3243 O 300.251 1.61011 -0.664925 0
M  V30 3244 C 297.383 3.10624 -1.40447 0
M  V30 3245 H 298.576 1.66394 -2.49506 0
M  V30 3246 H 296.129 0.835745 -1.3208 0
M  V30 3247 H 296.864 3.21277 -0.441737 0
M  V30 3248 H 296.649 3.23473 -2.21602 0
M  V30 3249 H 298.139 3.90293 -1.4853 0
M  V30 3250 N 298.576 1.31904 0.862503 0
M  V30 3251 C 299.804 1.24998 1.64873 0
M  V30 3252 C 300.219 -0.183425 1.87907 0
M  V30 3253 O 299.576 -1.11794 1.44251 0
M  V30 3254 C 299.627 1.99829 3.01248 0
M  V30 3255 O 299.348 3.37575 2.79239 0
M  V30 3256 C 300.849 1.99852 3.95694 0
M  V30 3257 H 298.069 0.431599 0.513773 0
M  V30 3258 H 300.613 1.73901 1.07604 0
M  V30 3259 H 298.768 1.54668 3.55185 0
M  V30 3260 H 299.182 3.75776 3.65914 0
M  V30 3261 H 300.656 2.56709 4.88676 0
M  V30 3262 H 301.133 0.982852 4.28062 0
M  V30 3263 H 301.739 2.44926 3.47694 0
M  V30 3264 N 300.054 -1.07777 1.14986 0
M  V30 3265 C 301.279 -1.84558 0.946213 0
M  V30 3266 C 301.704 -1.81323 -0.500362 0
M  V30 3267 O 301.062 -1.20301 -1.35637 0
M  V30 3268 C 301.11 -3.29736 1.45968 0
M  V30 3269 O 300.214 -4.07149 0.65601 0
M  V30 3270 H 299.555 -0.571641 0.33782 0
M  V30 3271 H 302.085 -1.35991 1.52865 0
M  V30 3272 H 302.095 -3.80574 1.47063 0
M  V30 3273 H 300.77 -3.31406 2.51283 0
M  V30 3274 H 299.347 -3.65994 0.714322 0
M  V30 3275 N 301.532 -0.945985 -1.26051 0
M  V30 3276 C 302.809 -0.513816 -1.88731 0
M  V30 3277 C 303.189 1.00872 -1.8544 0
M  V30 3278 O 302.537 1.8708 -1.312 0
M  V30 3279 C 302.747 -1.08062 -3.31849 0
M  V30 3280 C 304.095 -1.1522 -4.08668 0
M  V30 3281 O 305.119 -1.03155 -3.40936 0
M  V30 3282 O 303.978 -1.34044 -5.29806 0
M  V30 3283 H 301.072 -0.168193 -0.809716 0
M  V30 3284 H 303.618 -1.03886 -1.34186 0
M  V30 3285 H 302.39 -2.1241 -3.2863 0
M  V30 3286 H 302.013 -0.538307 -3.93939 0
M  V30 3287 N 303.011 1.40521 -0.713556 0
M  V30 3288 C 304.26 2.00155 -0.249192 0
M  V30 3289 C 304.573 1.57224 1.16362 0
M  V30 3290 O 305.779 2.09542 1.72639 0
M  V30 3291 C 304.235 3.5773 -0.3946 0
M  V30 3292 C 303.843 4.09635 -1.81392 0
M  V30 3293 C 305.587 4.24499 0.00907364 0
M  V30 3294 C 303.494 5.59707 -1.91003 0
M  V30 3295 H 302.424 0.74868 -0.0894114 0
M  V30 3296 H 305.075 1.60784 -0.884352 0
M  V30 3297 H 303.457 3.94792 0.30911 0
M  V30 3298 H 304.631 3.83955 -2.54785 0
M  V30 3299 H 302.946 3.55456 -2.16888 0
M  V30 3300 H 305.543 5.34683 -0.0420404 0
M  V30 3301 H 305.886 4.02824 1.05065 0
M  V30 3302 H 306.419 3.92536 -0.645007 0
M  V30 3303 H 303.158 5.86234 -2.93275 0
M  V30 3304 H 302.678 5.87258 -1.22019 0
M  V30 3305 H 304.357 6.24776 -1.6812 0
M  V30 3306 N 304.489 0.459591 1.5075 0
M  V30 3307 C 305.436 -0.340524 2.28274 0
M  V30 3308 C 306.406 -0.997371 1.32822 0
M  V30 3309 O 307.591 -1.01202 1.61749 0
M  V30 3310 C 304.731 -1.42317 3.14388 0
M  V30 3311 C 303.844 -0.782251 4.24859 0
M  V30 3312 C 302.979 -1.84182 4.98247 0
M  V30 3313 C 302.018 -1.18053 6.00608 0
M  V30 3314 N 301.155 -2.18244 6.67319 0
M  V30 3315 H 305.995 0.326899 2.96202 0
M  V30 3316 H 303.532 0.173057 1.46078 0
M  V30 3317 H 305.49 -2.06241 3.62658 0
M  V30 3318 H 304.12 -2.05992 2.4853 0
M  V30 3319 H 303.172 -0.0307404 3.80388 0
M  V30 3320 H 304.484 -0.259663 4.98124 0
M  V30 3321 H 303.638 -2.55714 5.50177 0
M  V30 3322 H 302.377 -2.39819 4.24662 0
M  V30 3323 H 301.382 -0.450776 5.47949 0
M  V30 3324 H 302.607 -0.631202 6.7616 0
M  V30 3325 H 300.553 -2.72919 5.96533 0
M  V30 3326 H 300.47 -1.70938 7.36421 0
M  V30 3327 H 301.738 -2.89191 7.23871 0
M  V30 3328 N 305.967 -1.56429 0.191757 0
M  V30 3329 C 307.244 -1.89224 -0.495332 0
M  V30 3330 C 307.624 -1.10478 -1.79883 0
M  V30 3331 O 306.972 -0.204852 -2.2758 0
M  V30 3332 C 307.182 -3.41548 -0.717367 0
M  V30 3333 C 308.53 -4.11711 -1.03823 0
M  V30 3334 O 309.554 -3.4698 -0.805204 0
M  V30 3335 O 308.413 -5.2611 -1.47887 0
M  V30 3336 H 305.507 -0.785788 -0.25781 0
M  V30 3337 H 308.053 -1.68111 0.231721 0
M  V30 3338 H 306.825 -3.90772 0.203287 0
M  V30 3339 H 306.448 -3.68342 -1.497 0
M  V30 3340 N 307.445 0.0818655 -1.57387 0
M  V30 3341 C 308.691 0.784074 -1.8703 0
M  V30 3342 C 309.024 1.77729 -0.782689 0
M  V30 3343 O 308.299 1.93384 0.208051 0
M  V30 3344 C 308.582 1.50105 -3.27323 0
M  V30 3345 C 308.435 0.524925 -4.46727 0
M  V30 3346 C 309.754 2.44843 -3.65705 0
M  V30 3347 H 306.873 0.283582 -0.680257 0
M  V30 3348 H 309.515 0.0474352 -1.89941 0
M  V30 3349 H 307.665 2.12897 -3.24972 0
M  V30 3350 H 309.337 -0.0970111 -4.61198 0
M  V30 3351 H 307.58 -0.160606 -4.33503 0
M  V30 3352 H 308.251 1.064 -5.41648 0
M  V30 3353 H 310.727 1.92135 -3.69085 0
M  V30 3354 H 309.603 2.92018 -4.64776 0
M  V30 3355 H 309.864 3.29197 -2.95096 0
M  V30 3356 N 308.923 1.53595 0.353017 0
M  V30 3357 C 310.2 1.61002 1.11075 0
M  V30 3358 C 310.58 0.425356 2.0677 0
M  V30 3359 O 309.928 -0.583267 2.2093 0
M  V30 3360 C 310.138 2.96631 1.83877 0
M  V30 3361 C 311.486 3.51653 2.37961 0
M  V30 3362 O 312.51 2.98743 1.93987 0
M  V30 3363 O 311.369 4.44177 3.18386 0
M  V30 3364 H 308.463 0.650825 0.510251 0
M  V30 3365 H 311.009 1.6594 0.35527 0
M  V30 3366 H 309.781 3.74293 1.14108 0
M  V30 3367 H 309.404 2.95242 2.66304 0
M  V30 3368 N 310.401 -0.613514 1.45168 0
M  V30 3369 C 311.626 -1.40437 1.52618 0
M  V30 3370 C 312.051 -1.87438 0.157707 0
M  V30 3371 O 311.409 -1.59791 -0.856537 0
M  V30 3372 C 311.457 -2.58894 2.51011 0
M  V30 3373 O 310.561 -3.59326 2.02382 0
M  V30 3374 H 309.902 -0.419506 0.514695 0
M  V30 3375 H 312.432 -0.747215 1.90467 0
M  V30 3376 H 312.442 -3.06214 2.69624 0
M  V30 3377 H 311.117 -2.24032 3.50403 0
M  V30 3378 H 309.694 -3.18695 1.93618 0
M  V30 3379 N 311.879 -1.3236 -0.855495 0
M  V30 3380 C 312.809 -1.23833 -1.97958 0
M  V30 3381 C 313.79 -0.122361 -1.69659 0
M  V30 3382 O 314.975 -0.30939 -1.9172 0
M  V30 3383 C 312.105 -0.959772 -3.33775 0
M  V30 3384 C 311.059 -2.03689 -3.76424 0
M  V30 3385 C 310.385 -1.61075 -5.09862 0
M  V30 3386 C 311.685 -3.4518 -3.9198 0
M  V30 3387 H 313.379 -2.1788 -2.0535 0
M  V30 3388 H 310.925 -1.04891 -0.986605 0
M  V30 3389 H 312.878 -0.886678 -4.11966 0
M  V30 3390 H 311.602 0.0163404 -3.26596 0
M  V30 3391 H 310.261 -2.10012 -3.00484 0
M  V30 3392 H 309.909 -0.622107 -4.99138 0
M  V30 3393 H 309.609 -2.33143 -5.39368 0
M  V30 3394 H 311.133 -1.55201 -5.90546 0
M  V30 3395 H 312.547 -3.4145 -4.60526 0
M  V30 3396 H 310.944 -4.1559 -4.32903 0
M  V30 3397 H 312.014 -3.84903 -2.94919 0
M  V30 3398 N 313.357 1.07166 -1.15556 0
M  V30 3399 C 314.29 2.13808 -0.797593 0
M  V30 3400 C 315.268 1.6101 0.226812 0
M  V30 3401 O 316.452 1.88161 0.112932 0
M  V30 3402 C 313.579 3.38187 -0.186371 0
M  V30 3403 C 312.625 4.09766 -1.18297 0
M  V30 3404 S 313.458 4.60932 -2.72584 0
M  V30 3405 C 314.614 5.88583 -2.12886 0
M  V30 3406 H 314.847 2.43843 -1.70083 0
M  V30 3407 H 312.38 1.19467 -0.978106 0
M  V30 3408 H 314.338 4.10189 0.159837 0
M  V30 3409 H 312.999 3.06326 0.694489 0
M  V30 3410 H 312.192 4.99065 -0.703562 0
M  V30 3411 H 311.794 3.43736 -1.47381 0
M  V30 3412 H 314.086 6.60866 -1.49208 0
M  V30 3413 H 315.029 6.41241 -3.0036 0
M  V30 3414 H 315.437 5.42194 -1.57116 0
M  V30 3415 N 314.835 0.952656 1.25548 0
M  V30 3416 C 316.251 0.656769 1.4546 0
M  V30 3417 C 316.451 -0.78633 1.85524 0
M  V30 3418 O 315.507 -1.56183 1.98402 0
M  V30 3419 C 316.82 1.62801 2.52817 0
M  V30 3420 C 318.368 1.63897 2.66659 0
M  V30 3421 C 318.843 2.5978 3.77198 0
M  V30 3422 N 320.334 2.58133 3.84606 0
M  V30 3423 C 321.069 3.29003 4.69621 0
M  V30 3424 N 320.565 4.09339 5.58939 0
M  V30 3425 N 322.358 3.179 4.63569 0
M  V30 3426 H 314.509 1.88526 0.978344 0
M  V30 3427 H 316.772 0.810815 0.491206 0
M  V30 3428 H 316.478 2.65869 2.30232 0
M  V30 3429 H 316.352 1.38898 3.50695 0
M  V30 3430 H 318.739 0.615481 2.8861 0
M  V30 3431 H 318.82 1.91858 1.69187 0
M  V30 3432 H 318.464 3.62254 3.55997 0
M  V30 3433 H 318.394 2.29105 4.7415 0
M  V30 3434 H 320.885 1.99809 3.20757 0
M  V30 3435 H 321.198 4.6034 6.20731 0
M  V30 3436 H 319.543 4.13438 5.58654 0
M  V30 3437 H 322.734 2.54612 3.92798 0
M  V30 3438 H 322.907 3.73398 5.29602 0
M  V30 3439 N 316.313 -1.40141 0.720998 0
M  V30 3440 C 317.562 -2.0002 0.259804 0
M  V30 3441 C 317.875 -1.57839 -1.15526 0
M  V30 3442 O 319.081 -2.10455 -1.71525 0
M  V30 3443 C 317.537 -3.57516 0.413566 0
M  V30 3444 C 317.145 -4.08667 1.83562 0
M  V30 3445 C 318.889 -4.24498 0.0134387 0
M  V30 3446 C 316.796 -5.58686 1.93968 0
M  V30 3447 H 315.726 -0.748195 0.0933806 0
M  V30 3448 H 318.377 -1.60313 0.892866 0
M  V30 3449 H 316.759 -3.9495 -0.288169 0
M  V30 3450 H 317.933 -3.82598 2.56817 0
M  V30 3451 H 316.248 -3.543 2.1877 0
M  V30 3452 H 318.845 -5.34654 0.0703954 0
M  V30 3453 H 319.188 -4.03375 -1.02927 0
M  V30 3454 H 319.721 -3.92188 0.665815 0
M  V30 3455 H 316.46 -5.8467 2.96379 0
M  V30 3456 H 315.98 -5.86602 1.25131 0
M  V30 3457 H 317.659 -6.23875 1.71431 0
M  V30 3458 N 317.792 -0.46758 -1.50504 0
M  V30 3459 C 319.017 0.0886943 -2.0721 0
M  V30 3460 C 319.442 1.33057 -1.32956 0
M  V30 3461 O 318.8 1.77354 -0.376197 0
M  V30 3462 C 318.848 0.359202 -3.58806 0
M  V30 3463 O 317.952 1.44034 -3.8643 0
M  V30 3464 H 317.293 -0.0114349 -0.663902 0
M  V30 3465 H 319.823 -0.657613 -1.93744 0
M  V30 3466 H 319.833 0.600742 -4.03553 0
M  V30 3467 H 318.508 -0.548311 -4.1227 0
M  V30 3468 H 317.085 1.18638 -3.53524 0
M  V30 3469 N 319.27 1.56325 -0.20005 0
M  V30 3470 C 320.518 1.97329 0.436547 0
M  V30 3471 C 320.839 1.08826 1.61808 0
M  V30 3472 O 320.109 0.160604 1.95241 0
M  V30 3473 H 318.689 0.728714 0.164272 0
M  V30 3474 H 321.351 1.92761 -0.287937 0
M  V30 3475 H 320.447 3.02264 0.777353 0
M  V30 3476 N 320.748 -0.0735177 1.57428 0
M  V30 3477 C 322.164 -0.428264 1.53747 0
M  V30 3478 C 322.364 -1.79272 0.91998 0
M  V30 3479 O 321.42 -2.47051 0.521745 0
M  V30 3480 C 322.733 -0.370914 2.98404 0
M  V30 3481 C 324.281 -0.451224 3.0973 0
M  V30 3482 C 324.756 -0.4238 4.56035 0
M  V30 3483 N 326.247 -0.483925 4.60665 0
M  V30 3484 C 326.982 -0.484891 5.71346 0
M  V30 3485 N 326.478 -0.440775 6.91396 0
M  V30 3486 N 328.271 -0.531319 5.59583 0
M  V30 3487 H 320.422 0.819949 1.95935 0
M  V30 3488 H 322.685 0.307493 0.896745 0
M  V30 3489 H 322.391 0.564956 3.47133 0
M  V30 3490 H 322.265 -1.18176 3.5821 0
M  V30 3491 H 324.652 -1.37752 2.60976 0
M  V30 3492 H 324.733 0.388167 2.52838 0
M  V30 3493 H 324.377 0.498638 5.05446 0
M  V30 3494 H 324.307 -1.2807 5.10789 0
M  V30 3495 H 326.798 -0.522338 3.74273 0
M  V30 3496 H 327.111 -0.44539 7.71515 0
M  V30 3497 H 325.456 -0.40749 6.93804 0
M  V30 3498 H 328.647 -0.563464 4.64696 0
M  V30 3499 H 328.82 -0.528603 6.4584 0
M  V30 3500 N 322.226 -1.5378 -0.344866 0
M  V30 3501 C 323.475 -1.7018 -1.08267 0
M  V30 3502 C 323.788 -0.471 -1.89845 0
M  V30 3503 O 324.994 -0.515917 -2.66553 0
M  V30 3504 C 323.45 -3.00923 -1.97417 0
M  V30 3505 C 323.058 -4.31335 -1.21053 0
M  V30 3506 C 324.802 -3.26688 -2.71063 0
M  V30 3507 C 322.709 -5.53153 -2.09225 0
M  V30 3508 H 321.639 -0.634138 -0.407903 0
M  V30 3509 H 324.29 -1.8028 -0.342246 0
M  V30 3510 H 322.672 -2.84676 -2.75274 0
M  V30 3511 H 323.846 -4.58281 -0.481159 0
M  V30 3512 H 322.161 -4.12173 -0.591813 0
M  V30 3513 H 324.758 -4.1489 -3.37299 0
M  V30 3514 H 325.101 -2.43639 -3.37558 0
M  V30 3515 H 325.634 -3.43705 -2.0028 0
M  V30 3516 H 322.373 -6.38741 -1.47274 0
M  V30 3517 H 321.893 -5.30458 -2.79955 0
M  V30 3518 H 323.572 -5.88744 -2.68308 0
M  V30 3519 N 323.704 0.605807 -1.45491 0
M  V30 3520 C 324.614 1.74466 -1.56839 0
M  V30 3521 C 325.63 1.68006 -0.452772 0
M  V30 3522 O 326.806 1.8833 -0.713708 0
M  V30 3523 C 323.871 3.10931 -1.53371 0
M  V30 3524 C 322.932 3.28832 -2.75986 0
M  V30 3525 C 322.165 4.58787 -2.72673 0
M  V30 3526 O 322.388 5.4122 -1.80102 0
M  V30 3527 O 321.322 4.79438 -3.63899 0
M  V30 3528 H 325.148 1.67843 -2.53106 0
M  V30 3529 H 322.733 0.770108 -1.28022 0
M  V30 3530 H 324.615 3.92233 -1.54051 0
M  V30 3531 H 323.29 3.18042 -0.602572 0
M  V30 3532 H 322.197 2.47112 -2.80867 0
M  V30 3533 H 323.53 3.26599 -3.68231 0
M  V30 3534 N 325.182 1.32811 0.848464 0
M  V30 3535 C 326.422 1.25046 1.61687 0
M  V30 3536 C 326.786 -0.183464 1.91121 0
M  V30 3537 O 327.987 -0.384937 2.66029 0
M  V30 3538 C 326.258 2.09201 2.89775 0
M  V30 3539 S 327.817 2.18526 3.80515 0
M  V30 3540 H 324.635 0.445023 0.554505 0
M  V30 3541 H 327.237 1.67733 1.00429 0
M  V30 3542 H 325.941 3.12433 2.66108 0
M  V30 3543 H 325.472 1.67315 3.56047 0
M  V30 3544 H 327.487 1.3393 4.77784 0
M  V30 3545 N 326.66 -1.06551 1.16123 0
M  V30 3546 C 327.57 -2.17484 0.879662 0
M  V30 3547 C 328.586 -1.73377 -0.147104 0
M  V30 3548 O 329.762 -2.01379 0.0289128 0
M  V30 3549 C 326.827 -3.44591 0.381829 0
M  V30 3550 C 325.888 -4.0322 1.4735 0
M  V30 3551 C 325.121 -5.24261 0.999324 0
M  V30 3552 O 325.344 -5.70198 -0.151957 0
M  V30 3553 O 324.278 -5.74775 1.78653 0
M  V30 3554 H 328.104 -2.44075 1.80724 0
M  V30 3555 H 325.689 -1.16042 0.940992 0
M  V30 3556 H 327.571 -4.21254 0.111053 0
M  V30 3557 H 326.246 -3.19532 -0.51777 0
M  V30 3558 H 325.153 -3.2806 1.79798 0
M  V30 3559 H 326.486 -4.32568 2.34831 0
M  V30 3560 N 328.138 -0.959301 -1.25041 0
M  V30 3561 C 329.363 -0.633507 -1.97488 0
M  V30 3562 C 329.788 0.788555 -1.70773 0
M  V30 3563 O 329.146 1.53394 -0.966431 0
M  V30 3564 C 329.194 -0.904057 -3.49083 0
M  V30 3565 O 328.298 0.0147939 -4.12397 0
M  V30 3566 H 327.639 -0.240368 -0.618966 0
M  V30 3567 H 330.169 -1.28717 -1.59038 0
M  V30 3568 H 330.179 -0.832203 -3.99423 0
M  V30 3569 H 328.854 -1.94048 -3.67856 0
M  V30 3570 H 327.431 -0.109664 -3.72739 0
M  V30 3571 N 329.616 1.39756 -0.72842 0
M  V30 3572 C 331.027 1.83498 -0.344289 0
M  V30 3573 C 331.378 1.60868 1.12321 0
M  V30 3574 O 330.503 1.09634 1.86573 0
M  V30 3575 C 331.098 3.33114 -0.618112 0
M  V30 3576 C 329.657 3.753 -0.287549 0
M  V30 3577 C 328.804 2.62831 -0.884048 0
M  V30 3578 H 331.755 1.28842 -0.926578 0
M  V30 3579 H 331.776 3.80334 0.112349 0
M  V30 3580 H 331.288 3.49553 -1.68625 0
M  V30 3581 H 329.389 3.64451 0.775012 0
M  V30 3582 H 329.502 4.72945 -0.765512 0
M  V30 3583 H 327.866 2.52792 -0.311149 0
M  V30 3584 H 328.649 2.82078 -1.95671 0
M  V30 3585 N 331.094 0.475555 1.50254 0
M  V30 3586 C 332.042 -0.330276 2.30243 0
M  V30 3587 C 333.036 -0.986306 1.37726 0
M  V30 3588 O 334.242 -0.9169 1.54897 0
M  V30 3589 H 330.617 -0.125353 0.741479 0
M  V30 3590 H 332.588 0.364702 2.96163 0
M  V30 3591 C 331.337 -1.39704 3.18399 0
M  V30 3592 H 330.66 -0.901621 3.89501 0
M  V30 3593 H 332.1 -1.93336 3.77355 0
M  V30 3594 C 330.559 -2.4014 2.36293 0
M  V30 3595 O 331.089 -3.45504 2.04914 0
M  V30 3596 N 329.295 -2.1197 1.98789 0
M  V30 3597 H 328.842 -1.2631 2.24507 0
M  V30 3598 H 328.8 -2.79403 1.44157 0
M  V30 3599 N 332.573 -1.56217 0.208337 0
M  V30 3600 C 333.989 -1.58919 -0.14729 0
M  V30 3601 C 334.189 -1.22486 -1.59998 0
M  V30 3602 O 333.245 -0.953849 -2.3379 0
M  V30 3603 C 334.558 -3.00236 0.167048 0
M  V30 3604 C 336.106 -3.12813 0.108219 0
M  V30 3605 C 336.581 -4.56284 0.396049 0
M  V30 3606 N 338.072 -4.61912 0.345142 0
M  V30 3607 C 338.807 -5.70837 0.541523 0
M  V30 3608 N 338.303 -6.88178 0.798968 0
M  V30 3609 N 340.096 -5.60091 0.474867 0
M  V30 3610 H 332.247 -1.78177 1.15614 0
M  V30 3611 H 334.51 -0.827555 0.462446 0
M  V30 3612 H 334.216 -3.31499 1.1748 0
M  V30 3613 H 334.09 -3.7354 -0.524184 0
M  V30 3614 H 336.477 -2.81354 -0.890157 0
M  V30 3615 H 336.558 -2.41866 0.832729 0
M  V30 3616 H 336.202 -4.88458 1.3918 0
M  V30 3617 H 336.132 -5.25439 -0.349502 0
M  V30 3618 H 338.623 -3.77589 0.153316 0
M  V30 3619 H 338.936 -7.67095 0.93727 0
M  V30 3620 H 337.281 -6.89953 0.836013 0
M  V30 3621 H 340.472 -4.67297 0.274064 0
M  V30 3622 H 340.645 -6.44917 0.631326 0
M  V30 3623 N 334.051 0.0651679 -1.57465 0
M  V30 3624 C 335.001 1.0838 -2.00594 0
M  V30 3625 C 335.985 1.34106 -0.889071 0
M  V30 3626 O 337.177 1.34295 -1.15299 0
M  V30 3627 C 334.306 2.39565 -2.45894 0
M  V30 3628 C 333.392 2.17085 -3.64328 0
M  V30 3629 N 333.783 1.64553 -4.78285 0
M  V30 3630 C 332.081 2.4753 -3.71006 0
M  V30 3631 C 332.782 1.57042 -5.60101 0
M  V30 3632 N 331.758 2.03328 -5.04141 0
M  V30 3633 H 335.56 0.671062 -2.86136 0
M  V30 3634 H 333.074 0.27213 -1.60104 0
M  V30 3635 H 335.071 3.13308 -2.75034 0
M  V30 3636 H 333.731 2.81549 -1.61741 0
M  V30 3637 H 334.742 1.33323 -5.00445 0
M  V30 3638 H 331.419 2.92835 -2.9758 0
M  V30 3639 H 332.809 1.17223 -6.61595 0
M  V30 3640 N 335.529 1.53961 0.336706 0
M  V30 3641 C 336.459 1.85417 1.41925 0
M  V30 3642 C 337.44 0.709856 1.5458 0
M  V30 3643 O 338.625 0.962396 1.68676 0
M  V30 3644 C 335.755 2.06985 2.78881 0
M  V30 3645 C 334.709 3.22813 2.81026 0
M  V30 3646 C 334.035 3.29727 4.20932 0
M  V30 3647 C 335.335 4.60767 2.45949 0
M  V30 3648 H 337.029 2.76079 1.15848 0
M  V30 3649 H 334.575 1.32839 0.555859 0
M  V30 3650 H 336.528 2.27575 3.54665 0
M  V30 3651 H 335.252 1.13061 3.06406 0
M  V30 3652 H 333.911 3.0209 2.07695 0
M  V30 3653 H 333.559 2.33385 4.45579 0
M  V30 3654 H 333.259 4.07566 4.23277 0
M  V30 3655 H 334.783 3.52536 4.98549 0
M  V30 3656 H 336.197 4.81325 3.11446 0
M  V30 3657 H 334.594 5.4106 2.59566 0
M  V30 3658 H 335.664 4.6391 1.41122 0
M  V30 3659 N 337.007 -0.598083 1.45811 0
M  V30 3660 C 338.237 -1.38121 1.53643 0
M  V30 3661 C 338.645 -1.88425 0.171081 0
M  V30 3662 O 337.988 -1.63409 -0.839237 0
M  V30 3663 C 338.05 -2.61432 2.46766 0
M  V30 3664 C 337.714 -2.32702 3.93318 0
M  V30 3665 C 338.711 -1.92479 4.82957 0
M  V30 3666 C 336.396 -2.45321 4.38318 0
M  V30 3667 C 338.39 -1.65248 6.15607 0
M  V30 3668 C 336.077 -2.17703 5.71007 0
M  V30 3669 C 337.075 -1.7773 6.5947 0
M  V30 3670 O 336.763 -1.50441 7.89698 0
M  V30 3671 H 336.495 -0.428863 0.522544 0
M  V30 3672 H 339.049 -0.73557 1.91777 0
M  V30 3673 H 337.279 -3.28749 2.0362 0
M  V30 3674 H 338.968 -3.23487 2.45175 0
M  V30 3675 H 339.734 -1.82258 4.49452 0
M  V30 3676 H 335.613 -2.75399 3.69697 0
M  V30 3677 H 339.157 -1.33973 6.84614 0
M  V30 3678 H 335.054 -2.27544 6.04065 0
M  V30 3679 H 335.822 -1.64415 8.01817 0
M  V30 3680 N 338.485 -1.33259 -0.841409 0
M  V30 3681 C 339.762 -1.15174 -1.58096 0
M  V30 3682 C 340.142 0.282858 -2.09196 0
M  V30 3683 O 339.49 1.28151 -1.89181 0
M  V30 3684 C 339.7 -2.1907 -2.71679 0
M  V30 3685 C 341.048 -2.53093 -3.40924 0
M  V30 3686 O 342.072 -2.17717 -2.81918 0
M  V30 3687 O 340.931 -3.1379 -4.47435 0
M  V30 3688 H 338.025 -0.445303 -0.696875 0
M  V30 3689 H 340.571 -1.44833 -0.884385 0
M  V30 3690 H 339.343 -3.15443 -2.31541 0
M  V30 3691 H 338.966 -1.90481 -3.49002 0
M  V30 3692 N 339.963 1.05934 -1.16686 0
M  V30 3693 C 341.21 1.788 -0.950622 0
M  V30 3694 C 341.538 1.87384 0.521305 0
M  V30 3695 O 340.793 1.36438 1.40297 0
M  V30 3696 C 341.092 3.23105 -1.52767 0
M  V30 3697 C 340.758 3.34594 -3.02254 0
M  V30 3698 C 339.42 3.37437 -3.43059 0
M  V30 3699 C 341.772 3.36219 -3.98254 0
M  V30 3700 C 339.1 3.39525 -4.78477 0
M  V30 3701 C 341.452 3.39845 -5.33562 0
M  V30 3702 C 340.116 3.40971 -5.73842 0
M  V30 3703 H 339.386 0.654275 -0.347857 0
M  V30 3704 H 342.033 1.24555 -1.45459 0
M  V30 3705 H 340.338 3.80227 -0.94524 0
M  V30 3706 H 342.035 3.7809 -1.336 0
M  V30 3707 H 338.625 3.3309 -2.6972 0
M  V30 3708 H 342.809 3.33231 -3.67792 0
M  V30 3709 H 338.065 3.38703 -5.09009 0
M  V30 3710 H 342.239 3.4005 -6.07733 0
M  V30 3711 H 339.866 3.42342 -6.78753 0
M  V30 3712 N 341.441 0.965919 1.2453 0
M  V30 3713 C 342.687 0.62776 1.92839 0
M  V30 3714 C 343.02 -0.834694 1.75347 0
M  V30 3715 O 342.295 -1.60031 1.10546 0
M  V30 3716 C 342.578 1.00109 3.45905 0
M  V30 3717 C 342.431 2.52011 3.72573 0
M  V30 3718 C 343.75 0.53435 4.36844 0
M  V30 3719 H 340.869 0.229537 0.700344 0
M  V30 3720 H 343.511 1.2046 1.46933 0
M  V30 3721 H 341.661 0.510238 3.85135 0
M  V30 3722 H 343.333 3.08559 3.42912 0
M  V30 3723 H 341.576 2.95287 3.17786 0
M  V30 3724 H 342.247 2.73183 4.79661 0
M  V30 3725 H 344.723 0.955565 4.04979 0
M  V30 3726 H 343.599 0.824152 5.42678 0
M  V30 3727 H 343.86 -0.565589 4.38467 0
M  V30 3728 N 342.919 -1.39368 0.735821 0
M  V30 3729 C 344.167 -2.00101 0.283562 0
M  V30 3730 C 344.488 -1.5868 -1.13338 0
M  V30 3731 O 343.758 -0.835423 -1.77193 0
M  V30 3732 H 342.338 -0.740024 0.101851 0
M  V30 3733 H 345 -1.70404 0.945962 0
M  V30 3734 H 344.096 -3.10323 0.332604 0
M  V30 3735 N 344.397 -0.483516 -1.5 0
M  V30 3736 C 345.345 0.318061 -2.30415 0
M  V30 3737 C 346.339 0.978988 -1.38247 0
M  V30 3738 O 347.545 0.908673 -1.55381 0
M  V30 3739 H 343.92 0.121419 -0.742133 0
M  V30 3740 H 345.891 -0.380403 -2.95965 0
M  V30 3741 C 344.64 1.38013 -3.19136 0
M  V30 3742 H 343.963 0.880952 -3.89973 0
M  V30 3743 H 345.403 1.91332 -3.78375 0
M  V30 3744 C 343.862 2.38884 -2.37563 0
M  V30 3745 O 344.392 3.44412 -2.06744 0
M  V30 3746 N 342.598 2.10912 -1.99911 0
M  V30 3747 H 342.145 1.25118 -2.25174 0
M  V30 3748 H 342.103 2.78635 -1.45636 0
M  V30 3749 N 345.875 1.56104 -0.216619 0
M  V30 3750 C 347.124 1.97348 0.416744 0
M  V30 3751 C 347.437 1.10715 1.6125 0
M  V30 3752 O 348.643 1.41836 2.31506 0
M  V30 3753 C 347.099 3.51059 0.792835 0
M  V30 3754 C 346.707 4.46387 -0.379828 0
M  V30 3755 C 348.451 4.01026 1.39208 0
M  V30 3756 C 346.358 5.91397 0.0184223 0
M  V30 3757 H 345.288 0.736942 0.159475 0
M  V30 3758 H 347.939 1.80827 -0.31205 0
M  V30 3759 H 346.321 3.63162 1.57891 0
M  V30 3760 H 347.495 4.46029 -1.15737 0
M  V30 3761 H 345.81 4.06734 -0.891979 0
M  V30 3762 H 348.407 5.0686 1.70286 0
M  V30 3763 H 348.75 3.46587 2.30614 0
M  V30 3764 H 349.283 3.92125 0.669537 0
M  V30 3765 H 346.022 6.49807 -0.862002 0
M  V30 3766 H 345.542 5.94961 0.760384 0
M  V30 3767 H 347.221 6.45455 0.446818 0
M  V30 3768 N 347.353 -0.0568162 1.57498 0
M  V30 3769 C 348.769 -0.411933 1.54192 0
M  V30 3770 C 348.969 -1.78287 0.938942 0
M  V30 3771 O 348.025 -2.46483 0.547919 0
M  V30 3772 C 349.338 -0.339244 2.9878 0
M  V30 3773 C 350.886 -0.418348 3.10192 0
M  V30 3774 C 351.361 -0.375407 4.56459 0
M  V30 3775 N 352.852 -0.435038 4.61153 0
M  V30 3776 C 353.587 -0.424265 5.71828 0
M  V30 3777 N 353.083 -0.367418 6.91825 0
M  V30 3778 N 354.876 -0.471938 5.60115 0
M  V30 3779 H 347.027 0.840684 1.95055 0
M  V30 3780 H 349.29 0.316987 0.893433 0
M  V30 3781 H 348.996 0.601742 3.46514 0
M  V30 3782 H 348.87 -1.14371 3.59443 0
M  V30 3783 H 351.257 -1.34976 2.62422 0
M  V30 3784 H 351.338 0.414962 2.52412 0
M  V30 3785 H 350.982 0.552219 5.04889 0
M  V30 3786 H 350.912 -1.22645 5.12119 0
M  V30 3787 H 353.403 -0.482612 3.74806 0
M  V30 3788 H 353.716 -0.363535 7.71944 0
M  V30 3789 H 352.061 -0.333879 6.94198 0
M  V30 3790 H 355.252 -0.514145 4.65268 0
M  V30 3791 H 355.425 -0.460073 6.46365 0
M  V30 3792 N 348.832 -1.54138 -0.328536 0
M  V30 3793 C 349.762 -1.86167 -1.40939 0
M  V30 3794 C 350.743 -0.718044 -1.54202 0
M  V30 3795 O 351.928 -0.971328 -1.68163 0
M  V30 3796 C 349.058 -2.08461 -2.77779 0
M  V30 3797 C 348.012 -3.24299 -2.7931 0
M  V30 3798 C 347.338 -3.31955 -4.19178 0
M  V30 3799 C 348.638 -4.62065 -2.43502 0
M  V30 3800 H 350.332 -2.76689 -1.14383 0
M  V30 3801 H 347.878 -1.33132 -0.548806 0
M  V30 3802 H 349.831 -2.29453 -3.53454 0
M  V30 3803 H 348.555 -1.14684 -3.05802 0
M  V30 3804 H 347.214 -3.03187 -2.0609 0
M  V30 3805 H 346.862 -2.35745 -4.44335 0
M  V30 3806 H 346.562 -4.09805 -4.2111 0
M  V30 3807 H 348.086 -3.55175 -4.96672 0
M  V30 3808 H 349.5 -4.8297 -3.08889 0
M  V30 3809 H 347.897 -5.42429 -2.56693 0
M  V30 3810 H 348.967 -4.64652 -1.38659 0
M  V30 3811 N 350.31 0.590341 -1.46126 0
M  V30 3812 C 351.587 1.35029 -1.41515 0
M  V30 3813 C 351.967 2.10888 -0.0946472 0
M  V30 3814 O 351.315 2.08998 0.923693 0
M  V30 3815 C 351.525 2.28269 -2.63997 0
M  V30 3816 C 352.873 2.90338 -3.09821 0
M  V30 3817 O 353.897 2.38585 -2.64492 0
M  V30 3818 O 352.756 3.84321 -3.88535 0
M  V30 3819 H 349.85 0.606317 -0.562413 0
M  V30 3820 H 352.396 0.611994 -1.58281 0
M  V30 3821 H 351.168 1.71591 -3.51671 0
M  V30 3822 H 350.791 3.0945 -2.49652 0
M  V30 3823 N 351.788 1.33704 0.83433 0
M  V30 3824 C 353.036 1.25169 1.58673 0
M  V30 3825 C 353.357 -0.18127 1.94156 0
M  V30 3826 O 352.627 -1.11113 1.6134 0
M  V30 3827 H 351.207 0.4603 0.58833 0
M  V30 3828 H 353.869 1.67478 0.996847 0
M  V30 3829 H 352.965 1.84856 2.51465 0
M  V30 3830 N 353.266 -1.05314 1.17247 0
M  V30 3831 C 354.216 -2.11313 0.856196 0
M  V30 3832 C 355.2 -1.60013 -0.168694 0
M  V30 3833 O 356.392 -1.76968 0.0335624 0
M  V30 3834 C 353.521 -3.41301 0.369917 0
M  V30 3835 C 352.607 -3.99401 1.42616 0
M  V30 3836 N 352.998 -4.31481 2.63928 0
M  V30 3837 C 351.296 -4.27126 1.28373 0
M  V30 3838 C 351.997 -4.77799 3.31787 0
M  V30 3839 N 350.973 -4.77843 2.59166 0
M  V30 3840 H 354.775 -2.33976 1.77856 0
M  V30 3841 H 352.289 -1.2295 1.06099 0
M  V30 3842 H 354.286 -4.16713 0.124897 0
M  V30 3843 H 352.946 -3.20072 -0.546253 0
M  V30 3844 H 353.957 -4.21519 3.00902 0
M  V30 3845 H 350.634 -4.15289 0.429111 0
M  V30 3846 H 352.024 -5.11743 4.35395 0
M  V30 3847 N 354.744 -0.972509 -1.24016 0
M  V30 3848 C 355.992 -0.635776 -1.91839 0
M  V30 3849 C 356.313 0.832312 -1.76345 0
M  V30 3850 O 355.583 1.5946 -1.13795 0
M  V30 3851 H 354.163 -0.232157 -0.710009 0
M  V30 3852 H 356.825 -1.23462 -1.50809 0
M  V30 3853 H 355.921 -0.880545 -2.99421 0
M  V30 3854 N 356.222 1.38976 -0.743202 0
M  V30 3855 C 357.45 2.04636 -0.30525 0
M  V30 3856 C 357.865 1.56044 1.06281 0
M  V30 3857 O 357.222 0.728921 1.67311 0
M  V30 3858 C 357.273 3.60193 -0.307177 0
M  V30 3859 O 356.994 4.06998 -1.62124 0
M  V30 3860 C 358.495 4.4306 0.145928 0
M  V30 3861 H 355.715 0.65788 -0.132041 0
M  V30 3862 H 358.259 1.77866 -1.00915 0
M  V30 3863 H 356.414 3.85835 0.347898 0
M  V30 3864 H 356.828 5.01371 -1.54036 0
M  V30 3865 H 358.302 5.51921 0.0934183 0
M  V30 3866 H 358.779 4.22706 1.19231 0
M  V30 3867 H 359.385 4.22584 -0.479886 0
M  V30 3868 N 357.7 0.491464 1.49741 0
M  V30 3869 C 358.946 -0.0565092 2.02721 0
M  V30 3870 C 359.279 -1.37522 1.37118 0
M  V30 3871 O 358.554 -1.87866 0.503645 0
M  V30 3872 C 358.837 -0.219051 3.59433 0
M  V30 3873 C 358.69 1.12211 4.35579 0
M  V30 3874 C 360.009 -0.964157 4.29409 0
M  V30 3875 H 357.128 -0.0190627 0.736753 0
M  V30 3876 H 359.77 0.641021 1.7886 0
M  V30 3877 H 357.92 -0.813165 3.79895 0
M  V30 3878 H 359.592 1.75437 4.26637 0
M  V30 3879 H 357.835 1.71377 3.98513 0
M  V30 3880 H 358.506 0.961794 5.43556 0
M  V30 3881 H 360.982 -0.460378 4.13545 0
M  V30 3882 H 359.858 -1.04671 5.38828 0
M  V30 3883 H 360.119 -2.00563 3.93988 0
M  V30 3884 N 359.178 -1.55987 0.224894 0
M  V30 3885 C 360.589 -1.84553 -0.282345 0
M  V30 3886 C 360.94 -1.14634 -1.59227 0
M  V30 3887 O 360.065 -0.417155 -2.12341 0
M  V30 3888 C 360.66 -3.348 -0.519062 0
M  V30 3889 C 359.219 -3.63671 -0.970604 0
M  V30 3890 C 358.366 -2.77277 -0.0355261 0
M  V30 3891 H 361.317 -1.52245 0.448006 0
M  V30 3892 H 361.338 -3.55187 -1.36463 0
M  V30 3893 H 360.85 -3.8566 0.43449 0
M  V30 3894 H 358.951 -3.1827 -1.9374 0
M  V30 3895 H 359.064 -4.71631 -0.842698 0
M  V30 3896 H 357.428 -2.48846 -0.542927 0
M  V30 3897 H 358.211 -3.30937 0.913003 0
M  V30 3898 N 360.656 0.0484629 -1.57525 0
M  V30 3899 C 361.586 1.0549 -2.08313 0
M  V30 3900 C 362.567 1.38929 -0.981463 0
M  V30 3901 O 363.752 1.48151 -1.25558 0
M  V30 3902 C 360.882 2.36162 -2.54646 0
M  V30 3903 C 359.836 2.17016 -3.68901 0
M  V30 3904 C 359.162 3.53278 -4.01371 0
M  V30 3905 C 360.462 1.57219 -4.98076 0
M  V30 3906 H 362.156 0.632195 -2.92649 0
M  V30 3907 H 359.702 0.302654 -1.40784 0
M  V30 3908 H 361.655 3.06882 -2.88793 0
M  V30 3909 H 360.379 2.80456 -1.67368 0
M  V30 3910 H 359.038 1.48733 -3.35073 0
M  V30 3911 H 358.686 3.95185 -3.11188 0
M  V30 3912 H 358.386 3.41299 -4.78318 0
M  V30 3913 H 359.91 4.25391 -4.38035 0
M  V30 3914 H 361.324 2.17832 -5.30304 0
M  V30 3915 H 359.721 1.55871 -5.79503 0
M  V30 3916 H 360.791 0.535956 -4.81929 0
M  V30 3917 N 362.134 1.5431 0.320358 0
M  V30 3918 C 363.382 1.72327 1.05583 0
M  V30 3919 C 363.703 0.50149 1.88441 0
M  V30 3920 O 362.973 -0.48448 1.89815 0
M  V30 3921 H 361.553 0.635387 0.3928 0
M  V30 3922 H 364.215 1.91621 0.356019 0
M  V30 3923 H 363.311 2.60426 1.72003 0
M  V30 3924 N 363.613 -0.582584 1.46437 0
M  V30 3925 C 364.576 -1.67366 1.56592 0
M  V30 3926 C 365.576 -1.54575 0.443072 0
M  V30 3927 O 366.766 -1.59191 0.707381 0
M  V30 3928 C 363.898 -3.06791 1.48634 0
M  V30 3929 H 365.091 -1.5972 2.5383 0
M  V30 3930 H 362.644 -0.800432 1.34249 0
M  V30 3931 H 363.379 -3.19993 0.526763 0
M  V30 3932 H 363.164 -3.17484 2.30101 0
M  V30 3933 H 364.654 -3.86218 1.58826 0
M  V30 3934 N 365.091 -1.34144 -0.827227 0
M  V30 3935 C 366.368 -1.16844 -1.56865 0
M  V30 3936 C 366.748 0.260654 -2.09485 0
M  V30 3937 O 366.096 1.26138 -1.9053 0
M  V30 3938 C 366.306 -2.21939 -2.6934 0
M  V30 3939 C 367.654 -2.56695 -3.3822 0
M  V30 3940 O 368.678 -2.20695 -2.79593 0
M  V30 3941 O 367.537 -3.18518 -4.44082 0
M  V30 3942 H 364.631 -0.452669 -0.692112 0
M  V30 3943 H 367.177 -1.45763 -0.868973 0
M  V30 3944 H 365.949 -3.17882 -2.28182 0
M  V30 3945 H 365.572 -1.94172 -3.46962 0
M  V30 3946 N 366.569 1.04691 -1.17803 0
M  V30 3947 C 367.501 2.12571 -0.857097 0
M  V30 3948 C 368.514 1.62174 0.142647 0
M  V30 3949 O 369.703 1.78301 -0.0843387 0
M  V30 3950 C 366.803 3.37915 -0.258216 0
M  V30 3951 C 365.976 4.1757 -1.30207 0
M  V30 3952 C 365.035 5.2125 -0.720029 0
M  V30 3953 O 364.061 5.51888 -1.39314 0
M  V30 3954 N 365.263 5.78466 0.485507 0
M  V30 3955 H 368.028 2.40698 -1.78562 0
M  V30 3956 H 365.589 1.20831 -1.07757 0
M  V30 3957 H 367.581 4.04442 0.144584 0
M  V30 3958 H 366.151 3.07281 0.574199 0
M  V30 3959 H 365.371 3.46458 -1.88043 0
M  V30 3960 H 366.659 4.67586 -2.00601 0
M  V30 3961 H 366.057 5.55866 1.05022 0
M  V30 3962 H 364.614 6.4649 0.830307 0
M  V30 3963 N 368.047 0.979072 1.23499 0
M  V30 3964 C 369.296 0.642751 1.91185 0
M  V30 3965 C 369.609 -0.827253 1.77245 0
M  V30 3966 O 370.815 -1.27458 2.39722 0
M  V30 3967 C 369.271 1.09901 3.42709 0
M  V30 3968 C 368.879 2.59327 3.65313 0
M  V30 3969 C 370.623 0.836371 4.16179 0
M  V30 3970 C 368.53 2.98627 5.10467 0
M  V30 3971 H 367.46 0.236698 0.715884 0
M  V30 3972 H 370.111 1.1868 1.39955 0
M  V30 3973 H 368.493 0.48319 3.93041 0
M  V30 3974 H 369.667 3.26136 3.25533 0
M  V30 3975 H 367.982 2.83323 3.05151 0
M  V30 3976 H 370.579 1.10586 5.23139 0
M  V30 3977 H 370.922 -0.227509 4.15678 0
M  V30 3978 H 371.455 1.41371 3.71832 0
M  V30 3979 H 368.194 4.04133 5.16098 0
M  V30 3980 H 367.714 2.3651 5.51201 0
M  V30 3981 H 369.393 2.89159 5.78788 0
M  V30 3982 N 369.525 -1.3858 0.750561 0
M  V30 3983 C 370.455 -2.33102 0.136237 0
M  V30 3984 C 371.436 -1.54713 -0.706965 0
M  V30 3985 O 372.621 -1.83043 -0.648769 0
M  V30 3986 C 369.751 -3.38882 -0.760017 0
M  V30 3987 C 368.705 -4.27995 -0.0197785 0
M  V30 3988 C 368.031 -5.24605 -1.03408 0
M  V30 3989 C 369.331 -5.09554 1.14684 0
M  V30 3990 H 371.025 -2.84726 0.925822 0
M  V30 3991 H 368.571 -1.36898 0.446654 0
M  V30 3992 H 370.524 -4.0397 -1.19943 0
M  V30 3993 H 369.248 -2.85734 -1.58189 0
M  V30 3994 H 367.907 -3.64409 0.400184 0
M  V30 3995 H 367.555 -4.67746 -1.84994 0
M  V30 3996 H 367.255 -5.85081 -0.543464 0
M  V30 3997 H 368.779 -5.9257 -1.47288 0
M  V30 3998 H 370.193 -5.67899 0.785118 0
M  V30 3999 H 368.59 -5.7925 1.56812 0
M  V30 4000 H 369.66 -4.4347 1.96118 0
M  V30 4001 N 371.003 -0.499398 -1.49478 0
M  V30 4002 C 371.933 0.269244 -2.31943 0
M  V30 4003 C 372.914 0.964054 -1.40143 0
M  V30 4004 O 374.099 0.955767 -1.69052 0
M  V30 4005 C 371.229 1.33504 -3.20615 0
M  V30 4006 C 370.183 0.760202 -4.21195 0
M  V30 4007 C 369.509 1.9264 -4.98792 0
M  V30 4008 C 370.809 -0.247661 -5.21712 0
M  V30 4009 H 372.503 -0.419082 -2.96452 0
M  V30 4010 H 370.049 -0.202988 -1.42562 0
M  V30 4011 H 372.002 1.88048 -3.77115 0
M  V30 4012 H 370.726 2.05253 -2.54045 0
M  V30 4013 H 369.385 0.23653 -3.65836 0
M  V30 4014 H 369.033 2.63154 -4.28671 0
M  V30 4015 H 368.733 1.54785 -5.66847 0
M  V30 4016 H 370.257 2.4762 -5.58137 0
M  V30 4017 H 371.671 0.209579 -5.72917 0
M  V30 4018 H 370.068 -0.541962 -5.97648 0
M  V30 4019 H 371.138 -1.16409 -4.7072 0
M  V30 4020 N 372.481 1.55866 -0.233164 0
M  V30 4021 C 373.897 1.59133 0.121988 0
M  V30 4022 C 374.097 1.25016 1.58029 0
M  V30 4023 O 373.153 0.990922 2.32243 0
M  V30 4024 C 374.466 2.99932 -0.214792 0
M  V30 4025 C 376.014 3.12601 -0.157971 0
M  V30 4026 C 376.489 4.55597 -0.46859 0
M  V30 4027 N 377.98 4.61305 -0.418585 0
M  V30 4028 C 378.715 5.69903 -0.63227 0
M  V30 4029 N 378.211 6.86819 -0.90835 0
M  V30 4030 N 380.004 5.59264 -0.563913 0
M  V30 4031 H 372.155 1.76315 -1.18434 0
M  V30 4032 H 374.418 0.820093 -0.475553 0
M  V30 4033 H 374.124 3.29588 -1.22739 0
M  V30 4034 H 373.998 3.74327 0.464691 0
M  V30 4035 H 376.385 2.82735 0.845283 0
M  V30 4036 H 376.466 2.40511 -0.871102 0
M  V30 4037 H 376.11 4.86182 -1.46934 0
M  V30 4038 H 376.04 5.25928 0.265865 0
M  V30 4039 H 378.531 3.77297 -0.213368 0
M  V30 4040 H 378.844 7.65507 -1.05919 0
M  V30 4041 H 377.189 6.88536 -0.945673 0
M  V30 4042 H 380.38 4.66802 -0.348372 0
M  V30 4043 H 380.553 6.43831 -0.733847 0
M  V30 4044 N 373.959 -0.0401083 1.57549 0
M  V30 4045 C 375.207 -0.731677 1.8839 0
M  V30 4046 C 375.528 -1.76481 0.829425 0
M  V30 4047 O 374.798 -1.95411 -0.1383 0
M  V30 4048 H 373.378 -0.273225 0.695239 0
M  V30 4049 H 376.04 -0.00867725 1.94898 0
M  V30 4050 H 375.136 -1.22816 2.86919 0
M  V30 4051 N 375.437 -1.54477 -0.31217 0
M  V30 4052 C 376.4 -1.83923 -1.36766 0
M  V30 4053 C 377.4 -0.711563 -1.44199 0
M  V30 4054 O 378.59 -0.979866 -1.44029 0
M  V30 4055 C 375.722 -2.0095 -2.75376 0
M  V30 4056 H 376.915 -2.78239 -1.11906 0
M  V30 4057 H 374.468 -1.46369 -0.548257 0
M  V30 4058 H 375.203 -1.08883 -3.05475 0
M  V30 4059 H 374.988 -2.83018 -2.71373 0
M  V30 4060 H 376.478 -2.2514 -3.51713 0
M  V30 4061 N 376.915 0.57481 -1.46744 0
M  V30 4062 C 377.847 1.69804 -1.53946 0
M  V30 4063 C 378.86 1.57098 -0.427106 0
M  V30 4064 O 380.049 1.64378 -0.695863 0
M  V30 4065 C 377.149 3.08125 -1.4111 0
M  V30 4066 C 376.322 3.46757 -2.66605 0
M  V30 4067 C 375.381 4.6417 -2.47855 0
M  V30 4068 O 374.407 4.69634 -3.21609 0
M  V30 4069 N 375.609 5.59553 -1.54534 0
M  V30 4070 H 378.374 1.64077 -2.50796 0
M  V30 4071 H 375.935 0.761 -1.429 0
M  V30 4072 H 377.927 3.84478 -1.26328 0
M  V30 4073 H 376.497 3.08175 -0.524109 0
M  V30 4074 H 375.717 2.6003 -2.96274 0
M  V30 4075 H 377.005 3.69337 -3.49954 0
M  V30 4076 H 376.403 5.57881 -0.937304 0
M  V30 4077 H 374.96 6.35304 -1.45711 0
M  V30 4078 N 378.394 1.34581 0.820102 0
M  V30 4079 C 379.324 1.29038 1.94606 0
M  V30 4080 C 380.305 0.1673 1.69275 0
M  V30 4081 O 381.49 0.360112 1.90832 0
M  V30 4082 C 378.62 1.04793 3.31113 0
M  V30 4083 C 377.574 2.13597 3.70891 0
M  V30 4084 C 376.9 1.74537 5.05412 0
M  V30 4085 C 378.2 3.55451 3.8269 0
M  V30 4086 H 379.894 2.23248 1.99501 0
M  V30 4087 H 377.44 1.0747 0.958449 0
M  V30 4088 H 379.393 0.995592 4.0947 0
M  V30 4089 H 378.117 0.0702565 3.26524 0
M  V30 4090 H 376.776 2.17905 2.9481 0
M  V30 4091 H 376.424 0.754226 4.97313 0
M  V30 4092 H 376.124 2.47361 5.32997 0
M  V30 4093 H 377.648 1.70803 5.86224 0
M  V30 4094 H 379.062 3.5354 4.51312 0
M  V30 4095 H 377.459 4.26922 4.21732 0
M  V30 4096 H 378.529 3.92587 2.84611 0
M  V30 4097 N 379.872 -1.04064 1.18357 0
M  V30 4098 C 381.288 -1.2947 0.933258 0
M  V30 4099 C 381.488 -1.97466 -0.401169 0
M  V30 4100 O 380.544 -2.25528 -1.13549 0
M  V30 4101 C 381.857 -2.15337 2.09882 0
M  V30 4102 C 383.405 -2.28683 2.13712 0
M  V30 4103 C 383.88 -3.17917 3.29686 0
M  V30 4104 N 385.371 -3.25504 3.29547 0
M  V30 4105 C 386.106 -3.94706 4.15926 0
M  V30 4106 N 385.602 -4.66239 5.12439 0
M  V30 4107 N 387.395 -3.90986 4.0384 0
M  V30 4108 H 379.546 -0.583359 2.04232 0
M  V30 4109 H 381.809 -0.319921 0.892387 0
M  V30 4110 H 381.515 -1.72682 3.06389 0
M  V30 4111 H 381.389 -3.16015 2.05947 0
M  V30 4112 H 383.776 -2.70575 1.17784 0
M  V30 4113 H 383.857 -1.27596 2.21705 0
M  V30 4114 H 383.501 -2.76736 4.25887 0
M  V30 4115 H 383.431 -4.19036 3.1893 0
M  V30 4116 H 385.922 -2.74547 2.59677 0
M  V30 4117 H 386.235 -5.16638 5.74722 0
M  V30 4118 H 384.58 -4.65143 5.16398 0
M  V30 4119 H 387.771 -3.34234 3.27727 0
M  V30 4120 H 387.944 -4.44646 4.71375 0
M  V30 4121 N 381.35 -0.985608 -1.22978 0
M  V30 4122 C 382.298 -0.522631 -2.26652 0
M  V30 4123 C 383.292 0.422998 -1.64034 0
M  V30 4124 O 384.498 0.296319 -1.77544 0
M  V30 4125 H 380.873 -0.150597 -0.736766 0
M  V30 4126 H 382.844 -1.40863 -2.63059 0
M  V30 4127 C 381.593 0.154238 -3.47358 0
M  V30 4128 H 380.916 -0.564329 -3.95797 0
M  V30 4129 H 382.356 0.441744 -4.21693 0
M  V30 4130 C 380.815 1.38719 -3.07016 0
M  V30 4131 O 381.345 2.48307 -3.15764 0
M  V30 4132 N 379.551 1.25975 -2.61875 0
M  V30 4133 H 379.098 0.368068 -2.54957 0
M  V30 4134 H 379.056 2.08578 -2.3525 0
M  V30 4135 N 382.828 1.3818 -0.7579 0
M  V30 4136 C 384.056 2.04301 -0.326937 0
M  V30 4137 C 384.471 1.57163 1.0462 0
M  V30 4138 O 383.828 0.746626 1.66529 0
M  V30 4139 C 383.879 3.59846 -0.345363 0
M  V30 4140 O 383.6 4.05256 -1.66432 0
M  V30 4141 C 385.101 4.4319 0.098927 0
M  V30 4142 H 382.321 0.656443 -0.139012 0
M  V30 4143 H 384.865 1.76786 -1.02796 0
M  V30 4144 H 383.02 3.86182 0.306955 0
M  V30 4145 H 383.434 4.99709 -1.59345 0
M  V30 4146 H 384.908 5.51989 0.0348745 0
M  V30 4147 H 385.385 4.23947 1.14741 0
M  V30 4148 H 385.991 4.22051 -0.52468 0
M  V30 4149 N 384.306 0.507319 1.49211 0
M  V30 4150 C 385.238 -0.304532 2.27168 0
M  V30 4151 C 386.251 -0.924956 1.33972 0
M  V30 4152 O 387.44 -0.807227 1.59205 0
M  V30 4153 C 384.54 -1.44431 3.06583 0
M  V30 4154 C 383.713 -0.930026 4.27398 0
M  V30 4155 C 382.772 -1.94817 4.88807 0
M  V30 4156 O 381.798 -1.51418 5.4869 0
M  V30 4157 N 383 -3.279 4.79022 0
M  V30 4158 H 385.765 0.36395 2.97482 0
M  V30 4159 H 383.326 0.340249 1.58284 0
M  V30 4160 H 385.318 -2.12311 3.44537 0
M  V30 4161 H 383.888 -2.01684 2.38835 0
M  V30 4162 H 383.108 -0.0759244 3.94127 0
M  V30 4163 H 384.396 -0.564932 5.05654 0
M  V30 4164 H 383.794 -3.65843 4.3148 0
M  V30 4165 H 382.351 -3.91476 5.21142 0
M  V30 4166 N 385.784 -1.5574 0.241426 0
M  V30 4167 C 387.03 -1.99846 -0.378555 0
M  V30 4168 C 387.385 -1.12665 -1.55963 0
M  V30 4169 O 386.678 -0.180966 -1.90743 0
M  V30 4170 C 386.872 -3.47308 -0.843317 0
M  V30 4171 C 386.701 -4.48756 0.291178 0
M  V30 4172 C 385.471 -4.9949 0.764077 0
M  V30 4173 C 387.669 -5.02039 1.11631 0
M  V30 4174 N 385.651 -5.84676 1.87156 0
M  V30 4175 C 387.022 -5.84343 2.07226 0
M  V30 4176 C 389.077 -4.84354 1.15349 0
M  V30 4177 C 387.78 -6.50851 3.06245 0
M  V30 4178 C 389.806 -5.51636 2.13195 0
M  V30 4179 C 389.168 -6.33724 3.07528 0
M  V30 4180 H 385.267 -0.774968 -0.104634 0
M  V30 4181 H 387.851 -1.91385 0.357751 0
M  V30 4182 H 386.022 -3.56178 -1.54893 0
M  V30 4183 H 387.754 -3.78299 -1.43779 0
M  V30 4184 H 384.509 -4.72311 0.349175 0
M  V30 4185 H 384.933 -6.31967 2.42789 0
M  V30 4186 H 389.575 -4.20525 0.438057 0
M  V30 4187 H 387.293 -7.1385 3.78739 0
M  V30 4188 H 390.879 -5.39909 2.16771 0
M  V30 4189 H 389.759 -6.84867 3.82003 0
M  V30 4190 N 387.262 0.0317525 -1.57568 0
M  V30 4191 C 388.508 0.724175 -1.8943 0
M  V30 4192 C 388.841 1.75149 -0.838836 0
M  V30 4193 O 388.116 1.93948 0.146422 0
M  V30 4194 C 388.399 1.39615 -3.31933 0
M  V30 4195 C 388.252 0.382537 -4.4817 0
M  V30 4196 C 389.571 2.33084 -3.73309 0
M  V30 4197 H 386.69 0.261797 -0.688935 0
M  V30 4198 H 389.332 -0.013017 -1.89996 0
M  V30 4199 H 387.482 2.02451 -3.31581 0
M  V30 4200 H 389.154 -0.243689 -4.60656 0
M  V30 4201 H 387.397 -0.29844 -4.32772 0
M  V30 4202 H 388.068 0.891145 -5.44759 0
M  V30 4203 H 390.544 1.80295 -3.7501 0
M  V30 4204 H 389.42 2.77084 -4.73831 0
M  V30 4205 H 389.681 3.19643 -3.05419 0
M  V30 4206 N 388.74 1.54641 0.303973 0
M  V30 4207 C 389.69 1.8177 1.37636 0
M  V30 4208 C 390.674 0.674697 1.46071 0
M  V30 4209 O 391.866 0.935251 1.50273 0
M  V30 4210 C 388.995 2.06584 2.74186 0
M  V30 4211 C 388.081 3.2706 2.69986 0
M  V30 4212 N 388.472 4.47682 2.35402 0
M  V30 4213 C 386.77 3.29028 3.01092 0
M  V30 4214 C 387.471 5.29689 2.40426 0
M  V30 4215 N 386.447 4.67339 2.7766 0
M  V30 4216 H 390.249 2.72596 1.09857 0
M  V30 4217 H 387.763 1.541 0.51254 0
M  V30 4218 H 389.76 2.24166 3.51504 0
M  V30 4219 H 388.42 1.17024 3.02879 0
M  V30 4220 H 389.431 4.74336 2.07908 0
M  V30 4221 H 386.108 2.49565 3.34699 0
M  V30 4222 H 387.498 6.3606 2.16512 0
M  V30 4223 N 390.218 -0.567019 1.47046 0
M  V30 4224 C 391.466 -1.322 1.52864 0
M  V30 4225 C 391.787 -1.94088 0.188388 0
M  V30 4226 O 391.057 -1.7941 -0.786693 0
M  V30 4227 H 389.637 -0.490894 0.563056 0
M  V30 4228 H 392.299 -0.662879 1.83281 0
M  V30 4229 H 391.395 -2.12062 2.2899 0
M  V30 4230 N 391.696 -1.35014 -0.812953 0
M  V30 4231 C 392.945 -1.27269 -1.56479 0
M  V30 4232 C 393.258 0.152771 -1.95002 0
M  V30 4233 O 394.464 0.352451 -2.69203 0
M  V30 4234 C 392.92 -2.23159 -2.82362 0
M  V30 4235 C 392.528 -3.71016 -2.511 0
M  V30 4236 C 394.272 -2.24342 -3.60376 0
M  V30 4237 C 392.179 -4.58746 -3.73237 0
M  V30 4238 H 391.109 -0.472829 -0.587324 0
M  V30 4239 H 393.76 -1.6024 -0.894171 0
M  V30 4240 H 392.142 -1.83151 -3.51101 0
M  V30 4241 H 393.316 -4.1962 -1.90409 0
M  V30 4242 H 391.631 -3.72378 -1.86343 0
M  V30 4243 H 394.228 -2.87107 -4.51081 0
M  V30 4244 H 394.571 -1.24542 -3.97234 0
M  V30 4245 H 395.104 -2.62846 -2.98591 0
M  V30 4246 H 391.843 -5.59521 -3.41492 0
M  V30 4247 H 391.363 -4.14871 -4.33176 0
M  V30 4248 H 393.042 -4.73852 -4.40537 0
M  V30 4249 N 393.175 1.03435 -1.18907 0
M  V30 4250 C 394.421 1.77005 -0.989798 0
M  V30 4251 C 394.754 1.88205 0.478816 0
M  V30 4252 O 394.029 1.39481 1.35556 0
M  V30 4253 C 394.312 3.19925 -1.65287 0
M  V30 4254 C 394.165 3.1663 -3.19477 0
M  V30 4255 C 395.484 4.18189 -1.37134 0
M  V30 4256 H 392.603 0.642538 -0.360991 0
M  V30 4257 H 395.245 1.20784 -1.46667 0
M  V30 4258 H 393.395 3.67929 -1.24741 0
M  V30 4259 H 395.067 2.76567 -3.692 0
M  V30 4260 H 393.31 2.54491 -3.51307 0
M  V30 4261 H 393.981 4.1758 -3.61013 0
M  V30 4262 H 396.457 3.78761 -1.72276 0
M  V30 4263 H 395.333 5.16394 -1.86087 0
M  V30 4264 H 395.594 4.41112 -0.295424 0
M  V30 4265 N 394.653 0.992116 1.22453 0
M  V30 4266 C 395.899 0.668523 1.91464 0
M  V30 4267 C 396.232 -0.797313 1.77078 0
M  V30 4268 O 395.507 -1.5765 1.13916 0
M  V30 4269 C 395.79 1.07424 3.43703 0
M  V30 4270 C 395.643 2.59857 3.67143 0
M  V30 4271 C 396.962 0.626891 4.35612 0
M  V30 4272 H 394.081 0.244341 0.695318 0
M  V30 4273 H 396.723 1.2355 1.44345 0
M  V30 4274 H 394.873 0.591816 3.83966 0
M  V30 4275 H 396.545 3.15764 3.3629 0
M  V30 4276 H 394.788 3.01961 3.11451 0
M  V30 4277 H 395.459 2.83296 4.73759 0
M  V30 4278 H 397.935 1.04125 4.02861 0
M  V30 4279 H 396.811 0.939076 5.40807 0
M  V30 4280 H 397.072 -0.472457 4.39568 0
M  V30 4281 N 396.131 -1.37776 0.765217 0
M  V30 4282 C 397.361 -2.03828 0.337277 0
M  V30 4283 C 397.769 -1.57841 -1.04321 0
M  V30 4284 O 397.112 -0.752043 -1.67601 0
M  V30 4285 C 397.174 -3.58292 0.294407 0
M  V30 4286 C 396.838 -4.27384 1.61838 0
M  V30 4287 C 397.835 -4.51956 2.56967 0
M  V30 4288 C 395.52 -4.65345 1.89102 0
M  V30 4289 C 397.514 -5.13536 3.77571 0
M  V30 4290 C 395.201 -5.26647 3.09978 0
M  V30 4291 C 396.199 -5.50679 4.04032 0
M  V30 4292 O 395.887 -6.10702 5.2278 0
M  V30 4293 H 395.619 -0.661292 0.140248 0
M  V30 4294 H 398.173 -1.77222 1.03834 0
M  V30 4295 H 396.403 -3.83918 -0.462983 0
M  V30 4296 H 398.092 -4.05763 -0.105581 0
M  V30 4297 H 398.858 -4.23048 2.37183 0
M  V30 4298 H 394.737 -4.45978 1.16725 0
M  V30 4299 H 398.281 -5.3221 4.50997 0
M  V30 4300 H 394.178 -5.54979 3.29649 0
M  V30 4301 H 394.946 -6.29183 5.23517 0
M  V30 4302 N 397.609 -0.515225 -1.4894 0
M  V30 4303 C 398.837 0.0206034 -2.0689 0
M  V30 4304 C 399.252 1.29514 -1.37374 0
M  V30 4305 O 398.609 1.76698 -0.456529 0
M  V30 4306 C 398.66 0.26351 -3.60538 0
M  V30 4307 O 398.381 -0.960517 -4.27441 0
M  V30 4308 C 399.882 0.841383 -4.35242 0
M  V30 4309 H 397.102 -0.0268608 -0.670462 0
M  V30 4310 H 399.646 -0.716651 -1.91532 0
M  V30 4311 H 397.801 0.950777 -3.75552 0
M  V30 4312 H 398.215 -0.73212 -5.19365 0
M  V30 4313 H 399.689 0.96085 -5.43573 0
M  V30 4314 H 400.166 1.8427 -3.98674 0
M  V30 4315 H 400.772 0.191143 -4.2487 0
M  V30 4316 N 399.087 1.5561 -0.249682 0
M  V30 4317 C 400.335 1.98618 0.373548 0
M  V30 4318 C 400.656 1.13919 1.58264 0
M  V30 4319 O 399.926 0.222637 1.94631 0
M  V30 4320 H 398.506 0.733571 0.141006 0
M  V30 4321 H 401.168 1.91748 -0.349117 0
M  V30 4322 H 400.264 3.04584 0.680796 0
M  V30 4323 N 400.565 -0.0233959 1.57583 0
M  V30 4324 C 401.515 -1.03023 2.03397 0
M  V30 4325 C 402.499 -1.31701 0.924315 0
M  V30 4326 O 403.691 -1.31191 1.18819 0
M  V30 4327 C 400.82 -2.32961 2.52159 0
M  V30 4328 C 399.906 -2.07349 3.69956 0
M  V30 4329 N 400.297 -1.51814 4.82479 0
M  V30 4330 C 398.595 -2.37606 3.77438 0
M  V30 4331 C 399.296 -1.42136 5.64068 0
M  V30 4332 N 398.272 -1.89891 5.09355 0
M  V30 4333 H 402.074 -0.594962 2.87815 0
M  V30 4334 H 399.588 -0.229586 1.60769 0
M  V30 4335 H 401.585 -3.05906 2.83244 0
M  V30 4336 H 400.245 -2.77162 1.69149 0
M  V30 4337 H 401.256 -1.20008 5.03804 0
M  V30 4338 H 397.933 -2.84842 3.05239 0
M  V30 4339 H 399.323 -0.996405 6.64471 0
M  V30 4340 N 402.043 -1.548 -0.295768 0
M  V30 4341 C 403.32 -1.65014 -1.05023 0
M  V30 4342 C 403.7 -0.501805 -2.05049 0
M  V30 4343 O 403.048 0.500869 -2.22943 0
M  V30 4344 C 403.258 -3.03252 -1.72741 0
M  V30 4345 C 404.606 -3.60242 -2.24746 0
M  V30 4346 O 405.63 -3.05737 -1.82765 0
M  V30 4347 O 404.489 -4.55687 -3.01681 0
M  V30 4348 H 401.583 -0.669314 -0.485744 0
M  V30 4349 H 404.129 -1.67144 -0.293438 0
M  V30 4350 H 402.901 -3.7827 -1.00138 0
M  V30 4351 H 402.524 -3.04922 -2.55163 0
M  V30 4352 N 403.521 0.559213 -1.47345 0
M  V30 4353 C 404.749 1.34194 -1.57479 0
M  V30 4354 C 405.164 1.87463 -0.224261 0
M  V30 4355 O 404.521 1.64888 0.782185 0
M  V30 4356 C 404.572 2.51324 -2.59843 0
M  V30 4357 O 404.293 2.00256 -3.89653 0
M  V30 4358 C 405.794 3.43563 -2.80142 0
M  V30 4359 H 403.014 0.409136 -0.531835 0
M  V30 4360 H 405.558 0.677609 -1.92947 0
M  V30 4361 H 403.713 3.13699 -2.27314 0
M  V30 4362 H 404.127 2.76708 -4.4557 0
M  V30 4363 H 405.601 4.2217 -3.55635 0
M  V30 4364 H 406.078 3.9698 -1.87892 0
M  V30 4365 H 406.684 2.87005 -3.1386 0
M  V30 4366 N 404.999 1.35443 0.805782 0
M  V30 4367 C 405.946 1.28431 1.91766 0
M  V30 4368 C 406.916 0.156102 1.65365 0
M  V30 4369 O 408.101 0.339936 1.87747 0
M  V30 4370 C 405.241 1.06301 3.2832 0
M  V30 4371 C 404.354 2.2805 3.66902 0
M  V30 4372 C 403.489 1.99064 4.92491 0
M  V30 4373 C 402.528 3.16863 5.23703 0
M  V30 4374 N 401.665 2.87647 6.40471 0
M  V30 4375 H 406.505 2.23511 1.97096 0
M  V30 4376 H 404.042 1.11105 0.964054 0
M  V30 4377 H 406 0.915012 4.07042 0
M  V30 4378 H 404.63 0.148822 3.22457 0
M  V30 4379 H 403.682 2.53711 2.83434 0
M  V30 4380 H 404.994 3.1601 3.85927 0
M  V30 4381 H 404.148 1.81099 5.7904 0
M  V30 4382 H 402.887 1.0839 4.75503 0
M  V30 4383 H 401.892 3.35404 4.35642 0
M  V30 4384 H 403.117 4.08339 5.4262 0
M  V30 4385 H 401.063 1.99568 6.24907 0
M  V30 4386 H 400.98 3.69141 6.59751 0
M  V30 4387 H 402.248 2.73226 7.30047 0
M  V30 4388 N 406.477 -1.02803 1.19454 0
M  V30 4389 C 407.407 -2.12999 0.956758 0
M  V30 4390 C 408.388 -1.69743 -0.110188 0
M  V30 4391 O 409.573 -1.94148 0.0450038 0
M  V30 4392 C 406.703 -3.43746 0.495553 0
M  V30 4393 C 405.657 -4.00688 1.50443 0
M  V30 4394 C 404.983 -5.27067 0.900275 0
M  V30 4395 C 406.283 -4.35397 2.8849 0
M  V30 4396 H 407.977 -2.33148 1.87836 0
M  V30 4397 H 405.523 -1.12045 0.904539 0
M  V30 4398 H 407.476 -4.2021 0.316493 0
M  V30 4399 H 406.2 -3.23321 -0.461646 0
M  V30 4400 H 404.859 -3.2632 1.67065 0
M  V30 4401 H 404.507 -5.02959 -0.064503 0
M  V30 4402 H 404.207 -5.66127 1.57397 0
M  V30 4403 H 405.731 -6.06196 0.73203 0
M  V30 4404 H 407.145 -5.02795 2.75446 0
M  V30 4405 H 405.542 -4.85541 3.52661 0
M  V30 4406 H 406.612 -3.44662 3.41081 0
M  V30 4407 N 407.956 -0.998596 -1.21925 0
M  V30 4408 C 408.889 -0.498517 -2.22688 0
M  V30 4409 C 409.867 0.444301 -1.56412 0
M  V30 4410 O 411.051 0.368518 -1.84863 0
M  V30 4411 C 408.178 0.276639 -3.37568 0
M  V30 4412 C 407.224 -0.61302 -4.22071 0
M  V30 4413 S 408.057 -2.07168 -4.93803 0
M  V30 4414 C 409.213 -1.30617 -6.12119 0
M  V30 4415 H 409.446 -1.35234 -2.64762 0
M  V30 4416 H 406.979 -0.806018 -1.31692 0
M  V30 4417 H 408.937 0.717817 -4.04175 0
M  V30 4418 H 407.598 1.10581 -2.93991 0
M  V30 4419 H 406.791 -0.0162909 -5.03997 0
M  V30 4420 H 406.393 -0.991202 -3.60626 0
M  V30 4421 H 408.685 -0.57675 -6.75041 0
M  V30 4422 H 409.628 -2.10091 -6.76215 0
M  V30 4423 H 410.036 -0.816957 -5.58557 0
M  V30 4424 N 409.434 1.37368 -0.772513 0
M  V30 4425 C 410.366 2.28899 -0.117502 0
M  V30 4426 C 411.379 1.4867 0.663405 0
M  V30 4427 O 412.568 1.71314 0.501372 0
M  V30 4428 C 409.668 3.2788 0.857192 0
M  V30 4429 C 408.841 4.37207 0.129938 0
M  V30 4430 C 407.9 5.16257 1.01811 0
M  V30 4431 O 406.926 5.67159 0.481601 0
M  V30 4432 N 408.128 5.31058 2.3443 0
M  V30 4433 H 410.893 2.85752 -0.903662 0
M  V30 4434 H 408.454 1.49353 -0.62493 0
M  V30 4435 H 410.446 3.77647 1.45482 0
M  V30 4436 H 409.016 2.7179 1.54432 0
M  V30 4437 H 408.236 3.88827 -0.648605 0
M  V30 4438 H 409.524 5.07434 -0.372559 0
M  V30 4439 H 408.922 4.91287 2.80452 0
M  V30 4440 H 407.479 5.84131 2.89197 0
M  V30 4441 N 410.912 0.523116 1.48665 0
M  V30 4442 C 411.86 -0.256859 2.31177 0
M  V30 4443 C 412.854 -0.94199 1.40794 0
M  V30 4444 O 414.06 -0.867157 1.57735 0
M  V30 4445 H 410.435 -0.1017 0.745091 0
M  V30 4446 H 412.406 0.458739 2.94853 0
M  V30 4447 C 411.155 -1.29503 3.22683 0
M  V30 4448 H 410.478 -0.777248 3.92172 0
M  V30 4449 H 411.918 -1.81233 3.83315 0
M  V30 4450 C 410.377 -2.32501 2.43813 0
M  V30 4451 O 410.907 -3.3881 2.15803 0
M  V30 4452 N 409.113 -2.05538 2.05432 0
M  V30 4453 H 408.66 -1.19104 2.28412 0
M  V30 4454 H 408.618 -2.74676 1.52973 0
M  V30 4455 N 412.39 -1.55475 0.257931 0
M  V30 4456 C 413.615 -2.04064 -0.370488 0
M  V30 4457 C 414.04 -1.13565 -1.49948 0
M  V30 4458 O 413.398 -0.130781 -1.80828 0
M  V30 4459 C 413.446 -3.50554 -0.845237 0
M  V30 4460 O 412.55 -3.63173 -1.95394 0
M  V30 4461 H 411.891 -0.659257 -0.0792243 0
M  V30 4462 H 414.421 -2.00903 0.387212 0
M  V30 4463 H 414.431 -3.91588 -1.14555 0
M  V30 4464 H 413.106 -4.15896 -0.0191259 0
M  V30 4465 H 411.683 -3.34039 -1.65748 0
M  V30 4466 N 413.868 0.0150385 -1.57593 0
M  V30 4467 C 415.096 0.714395 -1.94175 0
M  V30 4468 C 415.511 1.68135 -0.858841 0
M  V30 4469 O 414.868 1.81766 0.163567 0
M  V30 4470 C 414.919 1.45933 -3.30735 0
M  V30 4471 O 414.64 0.531167 -4.34868 0
M  V30 4472 C 416.141 2.25456 -3.81686 0
M  V30 4473 H 413.361 0.199923 -0.640525 0
M  V30 4474 H 415.905 -0.0316096 -2.04476 0
M  V30 4475 H 414.06 2.15709 -3.21789 0
M  V30 4476 H 414.474 1.05509 -5.13778 0
M  V30 4477 H 415.948 2.731 -4.79709 0
M  V30 4478 H 416.425 3.07485 -3.13607 0
M  V30 4479 H 417.031 1.60727 -3.9376 0
M  V30 4480 N 415.346 1.54954 0.287554 0
M  V30 4481 C 416.571 1.79209 1.04397 0
M  V30 4482 C 416.996 0.556431 1.79682 0
M  V30 4483 O 416.354 -0.493518 1.74454 0
M  V30 4484 C 416.402 3.00739 1.98969 0
M  V30 4485 O 415.506 2.74805 3.075 0
M  V30 4486 H 414.847 0.592755 0.299227 0
M  V30 4487 H 417.377 2.02068 0.320886 0
M  V30 4488 H 417.387 3.29077 2.4119 0
M  V30 4489 H 416.062 3.90329 1.43582 0
M  V30 4490 H 414.639 2.57523 2.69697 0
M  V30 4491 N 416.824 -0.551391 1.4764 0
M  V30 4492 C 418.235 -1.13349 1.48354 0
M  V30 4493 C 418.586 -1.94709 0.241432 0
M  V30 4494 O 417.711 -2.06306 -0.653205 0
M  V30 4495 C 418.306 -2.0623 2.68802 0
M  V30 4496 C 416.865 -2.597 2.72457 0
M  V30 4497 C 416.012 -1.36201 2.41546 0
M  V30 4498 H 418.963 -0.337698 1.55065 0
M  V30 4499 H 418.984 -2.90196 2.46103 0
M  V30 4500 H 418.496 -1.46987 3.59188 0
M  V30 4501 H 416.597 -3.22724 1.86225 0
M  V30 4502 H 416.71 -3.00296 3.73308 0
M  V30 4503 H 415.074 -1.67068 1.9225 0
M  V30 4504 H 415.857 -0.787425 3.34147 0
M  V30 4505 N 418.302 -1.35869 -0.798587 0
M  V30 4506 C 419.713 -1.26498 -1.37314 0
M  V30 4507 C 420.064 0.0991899 -1.95949 0
M  V30 4508 O 419.189 1.0004 -1.91888 0
M  V30 4509 C 419.784 -2.29054 -2.49639 0
M  V30 4510 C 418.343 -2.234 -3.02935 0
M  V30 4511 C 417.49 -2.14329 -1.75949 0
M  V30 4512 H 420.441 -1.46881 -0.600971 0
M  V30 4513 H 420.462 -1.92166 -3.28409 0
M  V30 4514 H 419.974 -3.2833 -2.06933 0
M  V30 4515 H 418.075 -1.27562 -3.50084 0
M  V30 4516 H 418.188 -3.15703 -3.60372 0
M  V30 4517 H 416.552 -1.60435 -1.9782 0
M  V30 4518 H 417.335 -3.15477 -1.35384 0
M  V30 4519 N 419.78 1.02168 -1.19998 0
M  V30 4520 C 420.71 2.12488 -0.96804 0
M  V30 4521 C 421.691 1.69799 0.101185 0
M  V30 4522 O 422.876 1.94121 -0.0552993 0
M  V30 4523 C 420.006 3.43479 -0.513776 0
M  V30 4524 C 418.96 3.99884 -1.52566 0
M  V30 4525 C 418.286 5.26582 -0.928214 0
M  V30 4526 C 419.586 4.33861 -2.90795 0
M  V30 4527 H 421.28 2.32149 -1.89069 0
M  V30 4528 H 418.826 1.11564 -0.910468 0
M  V30 4529 H 420.779 4.20036 -0.338774 0
M  V30 4530 H 419.503 3.23561 0.444493 0
M  V30 4531 H 418.162 3.25429 -1.68794 0
M  V30 4532 H 417.81 5.02986 0.0378289 0
M  V30 4533 H 417.51 5.65284 -1.60397 0
M  V30 4534 H 419.034 6.05799 -0.764167 0
M  V30 4535 H 420.448 5.01327 -2.78109 0
M  V30 4536 H 418.845 4.83664 -3.55231 0
M  V30 4537 H 419.915 3.42848 -3.42904 0
M  V30 4538 N 421.258 1.00505 1.21394 0
M  V30 4539 C 422.205 0.565496 2.23765 0
M  V30 4540 C 423.175 -0.408466 1.60999 0
M  V30 4541 O 424.36 -0.310503 1.88257 0
M  V30 4542 C 421.5 -0.101667 3.4495 0
M  V30 4543 C 420.613 0.915479 4.22188 0
M  V30 4544 C 419.748 0.220574 5.30742 0
M  V30 4545 C 418.787 1.22527 5.99711 0
M  V30 4546 N 417.924 0.557831 6.9988 0
M  V30 4547 H 422.764 1.44314 2.60725 0
M  V30 4548 H 420.301 0.722643 1.28126 0
M  V30 4549 H 422.259 -0.505504 4.14126 0
M  V30 4550 H 420.889 -0.94303 3.08718 0
M  V30 4551 H 419.941 1.43756 3.52191 0
M  V30 4552 H 421.253 1.68005 4.69655 0
M  V30 4553 H 420.407 -0.239368 6.06228 0
M  V30 4554 H 419.146 -0.576401 4.84282 0
M  V30 4555 H 418.151 1.69571 5.22997 0
M  V30 4556 H 419.376 2.02332 6.48258 0
M  V30 4557 H 417.322 -0.219486 6.55633 0
M  V30 4558 H 417.239 1.26065 7.45415 0
M  V30 4559 H 418.507 0.121095 7.79406 0
M  V30 4560 N 422.737 -1.36956 0.779787 0
M  V30 4561 C 423.667 -2.32761 0.185651 0
M  V30 4562 C 424.648 -1.56177 -0.673989 0
M  V30 4563 O 425.833 -1.84378 -0.609797 0
M  V30 4564 C 422.963 -3.40418 -0.687964 0
M  V30 4565 C 421.917 -4.27941 0.0710102 0
M  V30 4566 C 421.243 -5.26681 -0.922573 0
M  V30 4567 C 422.543 -5.07006 1.25467 0
M  V30 4568 H 424.237 -2.82698 0.986008 0
M  V30 4569 H 421.783 -1.3592 0.475592 0
M  V30 4570 H 423.736 -4.06423 -1.11348 0
M  V30 4571 H 422.46 -2.89025 -1.52093 0
M  V30 4572 H 421.119 -3.63478 0.47739 0
M  V30 4573 H 420.767 -4.71565 -1.7503 0
M  V30 4574 H 420.467 -5.86103 -0.419237 0
M  V30 4575 H 421.991 -5.9556 -1.34686 0
M  V30 4576 H 423.405 -5.66105 0.905401 0
M  V30 4577 H 421.802 -5.75793 1.69063 0
M  V30 4578 H 422.872 -4.3921 2.05481 0
M  V30 4579 N 424.215 -0.530993 -1.48385 0
M  V30 4580 C 425.44 0.000729535 -2.074 0
M  V30 4581 C 425.865 1.27298 -1.3848 0
M  V30 4582 O 425.223 1.75599 -0.451081 0
M  V30 4583 C 425.271 0.206697 -3.60007 0
M  V30 4584 O 424.375 1.27514 -3.92191 0
M  V30 4585 H 423.716 -0.039583 -0.662819 0
M  V30 4586 H 426.246 -0.739194 -1.9078 0
M  V30 4587 H 426.256 0.42904 -4.05738 0
M  V30 4588 H 424.931 -0.722675 -4.09573 0
M  V30 4589 H 423.508 1.03537 -3.58238 0
M  V30 4590 N 425.693 1.55336 -0.266172 0
M  V30 4591 C 426.641 2.23587 0.641228 0
M  V30 4592 C 427.635 1.22986 1.16494 0
M  V30 4593 O 428.841 1.40943 1.1196 0
M  V30 4594 H 425.216 0.717452 0.225315 0
M  V30 4595 H 427.187 2.9837 0.0426561 0
M  V30 4596 C 425.936 2.96369 1.81826 0
M  V30 4597 H 425.259 3.73563 1.42445 0
M  V30 4598 H 426.699 3.47459 2.42998 0
M  V30 4599 C 425.158 2.0133 2.70125 0
M  V30 4600 O 425.688 1.55875 3.70224 0
M  V30 4601 N 423.894 1.6802 2.37102 0
M  V30 4602 H 423.441 2.05181 1.55751 0
M  V30 4603 H 423.399 1.047 2.96454 0
M  V30 4604 N 427.171 -0.0066808 1.57599 0
M  V30 4605 C 428.417 -0.693947 1.90558 0
M  V30 4606 C 428.75 -1.73792 0.866594 0
M  V30 4607 O 428.025 -1.94156 -0.115548 0
M  V30 4608 C 428.308 -1.34317 3.34112 0
M  V30 4609 C 428.161 -0.311189 4.48722 0
M  V30 4610 C 429.48 -2.27116 3.7697 0
M  V30 4611 H 426.599 -0.250803 0.693013 0
M  V30 4612 H 429.241 0.043242 1.89951 0
M  V30 4613 H 427.391 -1.9715 3.3476 0
M  V30 4614 H 429.063 0.316944 4.6021 0
M  V30 4615 H 427.306 0.367253 4.32243 0
M  V30 4616 H 427.977 -0.804366 5.46108 0
M  V30 4617 H 430.453 -1.74306 3.77831 0
M  V30 4618 H 429.329 -2.69511 4.78179 0
M  V30 4619 H 429.59 -3.14743 3.10466 0
M  V30 4620 N 428.649 -1.55105 -0.279332 0
M  V30 4621 C 429.559 -1.90638 -1.36727 0
M  V30 4622 C 430.575 -0.802899 -1.54368 0
M  V30 4623 O 431.751 -1.10138 -1.68616 0
M  V30 4624 C 428.816 -2.16547 -2.70755 0
M  V30 4625 C 427.877 -3.40146 -2.61915 0
M  V30 4626 C 427.11 -3.6481 -3.8955 0
M  V30 4627 O 427.333 -2.92095 -4.89935 0
M  V30 4628 O 426.267 -4.58343 -3.90135 0
M  V30 4629 H 430.093 -2.83237 -1.09591 0
M  V30 4630 H 427.678 -1.4157 -0.477306 0
M  V30 4631 H 429.56 -2.34665 -3.50014 0
M  V30 4632 H 428.235 -1.27131 -2.9769 0
M  V30 4633 H 427.142 -3.2737 -1.81052 0
M  V30 4634 H 428.475 -4.29761 -2.3993 0
M  V30 4635 N 430.127 0.543554 -1.4793 0
M  V30 4636 C 431.543 0.870806 -1.3375 0
M  V30 4637 C 431.743 1.9864 -0.338261 0
M  V30 4638 O 430.799 2.51305 0.245371 0
M  V30 4639 C 432.112 1.25114 -2.73435 0
M  V30 4640 C 433.66 1.3618 -2.81823 0
M  V30 4641 C 434.135 1.77563 -4.22179 0
M  V30 4642 N 435.626 1.8469 -4.24787 0
M  V30 4643 C 436.361 2.18067 -5.30315 0
M  V30 4644 N 435.857 2.49963 -6.46135 0
M  V30 4645 N 437.65 2.18958 -5.17701 0
M  V30 4646 H 429.801 -0.19275 -2.11524 0
M  V30 4647 H 432.064 -0.0235777 -0.947707 0
M  V30 4648 H 431.77 0.50514 -3.48053 0
M  V30 4649 H 431.644 2.20431 -3.06088 0
M  V30 4650 H 434.031 2.09859 -2.07468 0
M  V30 4651 H 434.112 0.390169 -2.52807 0
M  V30 4652 H 433.756 1.04449 -4.97044 0
M  V30 4653 H 433.686 2.75753 -4.48629 0
M  V30 4654 H 436.177 1.62372 -3.41239 0
M  V30 4655 H 436.49 2.74497 -7.22406 0
M  V30 4656 H 434.835 2.47513 -6.49432 0
M  V30 4657 H 438.026 1.93488 -4.2624 0
M  V30 4658 H 438.199 2.44639 -6.00047 0
M  V30 4659 N 431.605 1.3629 0.791371 0
M  V30 4660 C 432.854 1.29742 1.54434 0
M  V30 4661 C 433.167 -0.121729 1.95221 0
M  V30 4662 O 434.373 -0.309579 2.69729 0
M  V30 4663 C 432.829 2.27623 2.78776 0
M  V30 4664 C 432.437 3.74963 2.45166 0
M  V30 4665 C 434.181 2.30047 3.56761 0
M  V30 4666 C 432.088 4.64626 3.65891 0
M  V30 4667 H 431.018 0.482113 0.579727 0
M  V30 4668 H 433.669 1.61642 0.868565 0
M  V30 4669 H 432.051 1.88714 3.48142 0
M  V30 4670 H 433.225 4.22596 1.83709 0
M  V30 4671 H 431.54 3.75295 1.80396 0
M  V30 4672 H 434.137 2.94247 4.46456 0
M  V30 4673 H 434.48 1.30846 3.95203 0
M  V30 4674 H 435.013 2.67563 2.94372 0
M  V30 4675 H 431.752 5.64883 3.32547 0
M  V30 4676 H 431.272 4.2171 4.26521 0
M  V30 4677 H 432.951 4.80801 4.32943 0
M  V30 4678 N 433.083 -1.0153 1.20538 0
M  V30 4679 C 434.311 -1.78746 1.04199 0
M  V30 4680 C 434.726 -1.84323 -0.408733 0
M  V30 4681 O 434.083 -1.29714 -1.28377 0
M  V30 4682 C 434.134 -3.23152 1.62035 0
M  V30 4683 O 433.855 -3.17918 3.0143 0
M  V30 4684 C 435.356 -4.16911 1.50666 0
M  V30 4685 H 432.576 -0.56208 0.366479 0
M  V30 4686 H 435.12 -1.27794 1.59653 0
M  V30 4687 H 433.275 -3.71248 1.10697 0
M  V30 4688 H 433.689 -4.08567 3.28897 0
M  V30 4689 H 435.163 -5.16072 1.95892 0
M  V30 4690 H 435.64 -4.36791 0.459363 0
M  V30 4691 H 436.246 -3.74698 2.01201 0
M  V30 4692 N 434.561 -1.01147 -1.20859 0
M  V30 4693 C 435.509 -0.57059 -2.25493 0
M  V30 4694 C 436.503 0.388109 -1.64894 0
M  V30 4695 O 437.709 0.258592 -1.78133 0
M  V30 4696 H 434.084 -0.166191 -0.733406 0
M  V30 4697 H 436.055 -1.46411 -2.60012 0
M  V30 4698 C 434.804 0.0805241 -3.47607 0
M  V30 4699 H 434.127 -0.648156 -3.94511 0
M  V30 4700 H 435.567 0.352197 -4.22535 0
M  V30 4701 C 434.026 1.32175 -3.09889 0
M  V30 4702 O 434.556 2.41553 -3.20959 0
M  V30 4703 N 432.762 1.20392 -2.64488 0
M  V30 4704 H 432.309 0.313905 -2.5568 0
M  V30 4705 H 432.267 2.03541 -2.39621 0
M  V30 4706 N 436.039 1.36541 -0.78704 0
M  V30 4707 C 437.285 1.99599 -0.358872 0
M  V30 4708 C 437.618 1.62323 1.06606 0
M  V30 4709 O 436.893 0.876858 1.73613 0
M  V30 4710 C 437.176 3.56327 -0.519944 0
M  V30 4711 C 437.029 4.03464 -1.98839 0
M  V30 4712 C 438.348 4.4005 0.0664737 0
M  V30 4713 H 435.467 0.725107 -0.131869 0
M  V30 4714 H 438.109 1.6199 -0.992936 0
M  V30 4715 H 436.259 3.88495 0.0198321 0
M  V30 4716 H 437.931 3.81793 -2.58905 0
M  V30 4717 H 436.174 3.55092 -2.49183 0
M  V30 4718 H 436.845 5.12439 -2.05207 0
M  V30 4719 H 439.321 4.14228 -0.394267 0
M  V30 4720 H 438.197 5.48847 -0.0762682 0
M  V30 4721 H 438.458 4.26655 1.15835 0
M  V30 4722 N 437.518 0.538854 1.48102 0
M  V30 4723 C 438.45 -0.256278 2.27763 0
M  V30 4724 C 439.463 -0.89633 1.35904 0
M  V30 4725 O 440.652 -0.773275 1.60881 0
M  V30 4726 C 437.752 -1.37896 3.09577 0
M  V30 4727 C 436.925 -0.839159 4.29275 0
M  V30 4728 C 435.984 -1.84405 4.9283 0
M  V30 4729 O 435.01 -1.39746 5.51779 0
M  V30 4730 N 436.212 -3.17666 4.85869 0
M  V30 4731 H 438.977 0.426968 2.96643 0
M  V30 4732 H 436.538 0.373747 1.57527 0
M  V30 4733 H 438.53 -2.04955 3.48963 0
M  V30 4734 H 437.1 -1.96572 2.4306 0
M  V30 4735 H 436.32 0.00769287 3.94199 0
M  V30 4736 H 437.608 -0.457548 5.06739 0
M  V30 4737 H 437.006 -3.56609 4.39143 0
M  V30 4738 H 435.563 -3.80334 5.29329 0
M  V30 4739 N 438.996 -1.55193 0.274407 0
M  V30 4740 C 440.245 -1.98758 -0.343213 0
M  V30 4741 C 440.558 -1.16624 -1.5703 0
M  V30 4742 O 441.764 -1.5033 -2.26082 0
M  V30 4743 C 440.22 -3.53759 -0.661996 0
M  V30 4744 C 439.828 -4.4467 0.54524 0
M  V30 4745 C 441.572 -4.05916 -1.24228 0
M  V30 4746 C 439.479 -5.91058 0.201084 0
M  V30 4747 H 438.409 -0.742353 -0.132014 0
M  V30 4748 H 441.06 -1.79545 0.378948 0
M  V30 4749 H 439.442 -3.68772 -1.44304 0
M  V30 4750 H 440.616 -4.41426 1.32212 0
M  V30 4751 H 438.931 -4.03143 1.04232 0
M  V30 4752 H 441.528 -5.12831 -1.51357 0
M  V30 4753 H 441.871 -3.54908 -2.17592 0
M  V30 4754 H 442.404 -3.9434 -0.523542 0
M  V30 4755 H 439.143 -6.46161 1.10258 0
M  V30 4756 H 438.663 -5.97373 -0.539045 0
M  V30 4757 H 440.342 -6.46669 -0.206954 0
M  V30 4758 N 440.474 -0.00167713 -1.576 0
M  V30 4759 C 441.404 0.988091 -2.11563 0
M  V30 4760 C 442.385 1.35736 -1.02517 0
M  V30 4761 O 443.57 1.44082 -1.30208 0
M  V30 4762 C 440.7 2.27941 -2.62031 0
M  V30 4763 C 439.654 2.0517 -3.75619 0
M  V30 4764 C 438.98 3.4033 -4.12407 0
M  V30 4765 C 440.28 1.41294 -5.02825 0
M  V30 4766 H 441.974 0.538771 -2.94513 0
M  V30 4767 H 439.52 0.257712 -1.41675 0
M  V30 4768 H 441.473 2.97539 -2.9841 0
M  V30 4769 H 440.197 2.74989 -1.76205 0
M  V30 4770 H 438.856 1.37998 -3.39635 0
M  V30 4771 H 438.504 3.85085 -3.23603 0
M  V30 4772 H 438.204 3.25909 -4.88935 0
M  V30 4773 H 439.728 4.1124 -4.51347 0
M  V30 4774 H 441.142 2.00851 -5.36965 0
M  V30 4775 H 439.539 1.37356 -5.84169 0
M  V30 4776 H 440.609 0.382362 -4.8339 0
M  V30 4777 N 441.952 1.55251 0.271103 0
M  V30 4778 C 443.201 1.75151 1.00025 0
M  V30 4779 C 443.514 0.561041 1.87381 0
M  V30 4780 O 444.72 0.642506 2.63788 0
M  V30 4781 C 443.176 3.09999 1.82835 0
M  V30 4782 C 442.784 4.3662 1.00336 0
M  V30 4783 C 444.528 3.39249 2.55168 0
M  V30 4784 C 442.435 5.62506 1.82595 0
M  V30 4785 H 441.365 0.652877 0.377183 0
M  V30 4786 H 444.016 1.81708 0.255843 0
M  V30 4787 H 442.398 2.97485 2.61378 0
M  V30 4788 H 443.572 4.60055 0.261959 0
M  V30 4789 H 441.887 4.14527 0.394486 0
M  V30 4790 H 444.484 4.3051 3.1712 0
M  V30 4791 H 444.827 2.59467 3.2555 0
M  V30 4792 H 445.36 3.52869 1.83653 0
M  V30 4793 H 442.099 6.45041 1.16631 0
M  V30 4794 H 441.619 5.43211 2.54327 0
M  V30 4795 H 443.298 6.00875 2.39913 0
M  V30 4796 N 443.43 -0.535701 1.48216 0
M  V30 4797 C 444.36 -1.65014 1.65204 0
M  V30 4798 C 445.341 -1.62554 0.501011 0
M  V30 4799 O 446.526 -1.7984 0.732886 0
M  V30 4800 C 443.656 -3.03616 1.68626 0
M  V30 4801 C 442.61 -3.20932 2.83172 0
M  V30 4802 C 441.936 -4.60537 2.71679 0
M  V30 4803 C 443.236 -3.04249 4.24535 0
M  V30 4804 H 444.93 -1.51053 2.58502 0
M  V30 4805 H 442.476 -0.725262 1.24402 0
M  V30 4806 H 444.429 -3.81446 1.79099 0
M  V30 4807 H 443.153 -3.18587 0.719026 0
M  V30 4808 H 441.812 -2.45517 2.72244 0
M  V30 4809 H 441.46 -4.72336 1.72937 0
M  V30 4810 H 441.16 -4.73069 3.48538 0
M  V30 4811 H 442.684 -5.40475 2.84112 0
M  V30 4812 H 444.098 -3.71877 4.36326 0
M  V30 4813 H 442.495 -3.28278 5.02348 0
M  V30 4814 H 443.565 -2.00739 4.41397 0
M  V30 4815 N 444.908 -1.36708 -0.784132 0
M  V30 4816 C 446.155 -1.31231 -1.54222 0
M  V30 4817 C 446.483 0.106864 -1.94206 0
M  V30 4818 O 445.738 1.07734 -1.63376 0
M  V30 4819 C 446.037 -2.18571 -2.82774 0
M  V30 4820 C 445.703 -3.67039 -2.61903 0
M  V30 4821 C 444.365 -4.07503 -2.55919 0
M  V30 4822 C 446.717 -4.61149 -2.4288 0
M  V30 4823 C 444.045 -5.40211 -2.28886 0
M  V30 4824 C 446.397 -5.94081 -2.17373 0
M  V30 4825 C 445.061 -6.33664 -2.09825 0
M  V30 4826 H 444.331 -0.48021 -0.56434 0
M  V30 4827 H 446.978 -1.68807 -0.904233 0
M  V30 4828 H 445.283 -1.73949 -3.51068 0
M  V30 4829 H 446.98 -2.11655 -3.40592 0
M  V30 4830 H 443.57 -3.34941 -2.67418 0
M  V30 4831 H 447.754 -4.30756 -2.46501 0
M  V30 4832 H 443.01 -5.69855 -2.21529 0
M  V30 4833 H 447.184 -6.66566 -2.01649 0
M  V30 4834 H 444.811 -7.36423 -1.88641 0
M  V30 4835 N 446.386 1.0089 -1.21074 0
M  V30 4836 C 447.626 1.76142 -1.03699 0
M  V30 4837 C 447.99 1.87292 0.422587 0
M  V30 4838 O 449.191 2.59068 0.716752 0
M  V30 4839 C 447.462 3.13805 -1.7106 0
M  V30 4840 S 449.021 4.04996 -1.68889 0
M  V30 4841 H 445.839 0.606113 -0.371683 0
M  V30 4842 H 448.441 1.20744 -1.53756 0
M  V30 4843 H 447.145 3.0332 -2.76451 0
M  V30 4844 H 446.676 3.74276 -1.21166 0
M  V30 4845 H 448.691 4.90842 -0.727211 0
M  V30 4846 N 447.864 1.01787 1.20321 0
M  V30 4847 C 449.113 0.703249 1.89043 0
M  V30 4848 C 449.426 -0.770445 1.79787 0
M  V30 4849 O 450.632 -1.19767 2.43656 0
M  V30 4850 C 449.088 1.20749 3.3904 0
M  V30 4851 C 448.696 2.70817 3.56878 0
M  V30 4852 C 450.44 0.968352 4.13308 0
M  V30 4853 C 448.347 3.14716 5.00708 0
M  V30 4854 H 447.277 0.259354 0.707991 0
M  V30 4855 H 449.928 1.23072 1.36108 0
M  V30 4856 H 448.31 0.607989 3.91305 0
M  V30 4857 H 449.484 3.36327 3.14993 0
M  V30 4858 H 447.799 2.92888 2.95983 0
M  V30 4859 H 450.396 1.27173 5.19356 0
M  V30 4860 H 450.739 -0.095149 4.16191 0
M  V30 4861 H 451.272 1.53129 3.67146 0
M  V30 4862 H 448.011 4.20347 5.02979 0
M  V30 4863 H 447.531 2.53927 5.43398 0
M  V30 4864 H 449.21 3.07426 5.69296 0
M  V30 4865 N 449.342 -1.36122 0.79427 0
M  V30 4866 C 450.272 -2.32551 0.210328 0
M  V30 4867 C 451.253 -1.56884 -0.657386 0
M  V30 4868 O 452.438 -1.85014 -0.590207 0
M  V30 4869 C 449.568 -3.41128 -0.651819 0
M  V30 4870 C 448.522 -4.27842 0.116395 0
M  V30 4871 C 447.848 -5.2763 -0.86666 0
M  V30 4872 C 449.148 -5.05647 1.30837 0
M  V30 4873 H 450.842 -2.81636 1.01594 0
M  V30 4874 H 448.388 -1.35407 0.489981 0
M  V30 4875 H 450.341 -4.07581 -1.07031 0
M  V30 4876 H 449.065 -2.90622 -1.49019 0
M  V30 4877 H 447.724 -3.62952 0.515915 0
M  V30 4878 H 447.372 -4.73395 -1.70019 0
M  V30 4879 H 447.072 -5.86514 -0.35705 0
M  V30 4880 H 448.596 -5.96955 -1.28361 0
M  V30 4881 H 450.01 -5.65113 0.965393 0
M  V30 4882 H 448.407 -5.73967 1.75161 0
M  V30 4883 H 449.477 -4.37006 2.10128 0
M  V30 4884 N 450.82 -0.546701 -1.47814 0
M  V30 4885 C 452.069 -0.0166497 -2.01693 0
M  V30 4886 C 452.382 1.33721 -1.42752 0
M  V30 4887 O 453.588 1.95658 -1.8823 0
M  V30 4888 C 452.044 0.0206769 -3.59894 0
M  V30 4889 C 451.652 -1.3293 -4.27824 0
M  V30 4890 C 453.396 0.498674 -4.21561 0
M  V30 4891 C 451.303 -1.25165 -5.78003 0
M  V30 4892 H 450.233 -0.0024541 -0.753996 0
M  V30 4893 H 452.884 -0.692984 -1.69912 0
M  V30 4894 H 451.266 0.76244 -3.88591 0
M  V30 4895 H 452.44 -2.08795 -4.10781 0
M  V30 4896 H 450.755 -1.74438 -3.78101 0
M  V30 4897 H 453.352 0.575 -5.31599 0
M  V30 4898 H 453.695 1.5083 -3.88016 0
M  V30 4899 H 454.228 -0.18791 -3.97356 0
M  V30 4900 H 450.967 -2.23695 -6.1615 0
M  V30 4901 H 450.487 -0.53464 -5.97412 0
M  V30 4902 H 452.166 -0.949299 -6.39998 0
M  V30 4903 N 452.299 1.55045 -0.282633 0
M  V30 4904 C 453.262 2.21515 0.588539 0
M  V30 4905 C 454.262 1.19535 1.07554 0
M  V30 4906 O 455.452 1.44391 0.974514 0
M  V30 4907 C 452.584 2.88704 1.8128 0
M  V30 4908 H 453.777 2.99899 0.00806397 0
M  V30 4909 H 451.33 1.56265 -0.0333067 0
M  V30 4910 H 452.065 2.14352 2.43359 0
M  V30 4911 H 451.85 3.63443 1.47144 0
M  V30 4912 H 453.34 3.39465 2.43214 0
M  V30 4913 N 453.777 0.010035 1.57597 0
M  V30 4914 C 454.71 -1.01234 2.04516 0
M  V30 4915 C 455.688 -1.32886 0.937024 0
M  V30 4916 O 456.872 -1.44879 1.20592 0
M  V30 4917 C 453.999 -2.33738 2.45121 0
M  V30 4918 C 453.045 -2.17679 3.66767 0
M  V30 4919 S 453.878 -1.49343 5.14254 0
M  V30 4920 C 455.034 -2.83256 5.58137 0
M  V30 4921 H 455.267 -0.612866 2.90914 0
M  V30 4922 H 452.8 -0.201124 1.53084 0
M  V30 4923 H 454.758 -3.09922 2.69182 0
M  V30 4924 H 453.419 -2.70823 1.59103 0
M  V30 4925 H 452.612 -3.1559 3.92962 0
M  V30 4926 H 452.214 -1.4964 3.42759 0
M  V30 4927 H 454.506 -3.79538 5.6121 0
M  V30 4928 H 455.449 -2.61749 6.57946 0
M  V30 4929 H 455.857 -2.87627 4.85727 0
M  V30 4930 N 455.255 -1.55392 -0.262866 0
M  V30 4931 C 456.48 -1.80847 -1.01533 0
M  V30 4932 C 456.905 -0.584946 -1.78774 0
M  V30 4933 O 456.263 0.465701 -1.75217 0
M  V30 4934 C 456.311 -3.03866 -1.94159 0
M  V30 4935 O 455.415 -2.79662 -3.03089 0
M  V30 4936 H 454.756 -0.597441 -0.289759 0
M  V30 4937 H 457.286 -2.02553 -0.288698 0
M  V30 4938 H 457.296 -3.32872 -2.35924 0
M  V30 4939 H 455.971 -3.92564 -1.37354 0
M  V30 4940 H 454.548 -2.61781 -2.65566 0
M  V30 4941 N 456.733 0.527833 -1.48498 0
M  V30 4942 C 457.663 1.64136 -1.66077 0
M  V30 4943 C 458.644 1.62286 -0.509625 0
M  V30 4944 O 459.829 1.79449 -0.742413 0
M  V30 4945 C 456.959 3.02717 -1.70234 0
M  V30 4946 C 455.913 3.19426 -2.8487 0
M  V30 4947 C 455.239 4.5909 -2.74118 0
M  V30 4948 C 456.539 3.01993 -4.26142 0
M  V30 4949 H 458.233 1.4968 -2.593 0
M  V30 4950 H 455.779 0.718654 -1.24785 0
M  V30 4951 H 457.732 3.80491 -1.8112 0
M  V30 4952 H 456.456 3.18201 -0.735911 0
M  V30 4953 H 455.115 2.4407 -2.73542 0
M  V30 4954 H 454.763 4.71413 -1.7544 0
M  V30 4955 H 454.463 4.71214 -3.51042 0
M  V30 4956 H 455.987 5.3896 -2.86974 0
M  V30 4957 H 457.401 3.69558 -4.38292 0
M  V30 4958 H 455.798 3.2561 -5.04082 0
M  V30 4959 H 456.868 1.98396 -4.42456 0
M  V30 4960 N 458.211 1.37122 0.776871 0
M  V30 4961 C 459.457 1.32243 1.53752 0
M  V30 4962 C 459.79 -0.0944745 1.9397 0
M  V30 4963 O 459.065 -1.05068 1.6368 0
M  V30 4964 C 459.348 2.25681 2.80607 0
M  V30 4965 C 459.201 3.76127 2.46676 0
M  V30 4966 C 460.52 2.17657 3.82509 0
M  V30 4967 H 457.639 0.481704 0.557791 0
M  V30 4968 H 460.281 1.6778 0.891612 0
M  V30 4969 H 458.431 1.95505 3.35723 0
M  V30 4970 H 460.103 4.16877 1.97513 0
M  V30 4971 H 458.346 3.94946 1.79443 0
M  V30 4972 H 459.017 4.36933 3.37333 0
M  V30 4973 H 461.493 2.44245 3.36873 0
M  V30 4974 H 460.369 2.85185 4.69 0
M  V30 4975 H 460.63 1.16785 4.26396 0
M  V30 4976 N 459.689 -1.00246 1.21608 0
M  V30 4977 C 460.929 -1.75589 1.04631 0
M  V30 4978 C 461.293 -1.87513 -0.412648 0
M  V30 4979 O 462.494 -2.59444 -0.703003 0
M  V30 4980 C 460.765 -3.12893 1.72722 0
M  V30 4981 S 462.324 -4.04095 1.71034 0
M  V30 4982 H 459.142 -0.604133 0.374892 0
M  V30 4983 H 461.744 -1.19927 1.54395 0
M  V30 4984 H 460.448 -3.0185 2.78055 0
M  V30 4985 H 459.979 -3.73628 1.23149 0
M  V30 4986 H 461.994 -4.9045 0.753231 0
M  V30 4987 N 461.167 -1.02423 -1.1978 0
M  V30 4988 C 462.392 -0.7373 -1.93852 0
M  V30 4989 C 462.817 0.696923 -1.74713 0
M  V30 4990 O 462.175 1.48056 -1.04638 0
M  V30 4991 C 462.223 -1.08783 -3.438 0
M  V30 4992 O 461.327 -0.20383 -4.11896 0
M  V30 4993 H 460.668 -0.27284 -0.605355 0
M  V30 4994 H 463.198 -1.36966 -1.51992 0
M  V30 4995 H 463.208 -1.04276 -3.9445 0
M  V30 4996 H 461.883 -2.13274 -3.57053 0
M  V30 4997 H 460.46 -0.307091 -3.71633 0
M  V30 4998 N 462.645 1.35699 -0.801477 0
M  V30 4999 C 463.891 1.99208 -0.380022 0
M  V30 5000 C 464.224 1.63445 1.04878 0
M  V30 5001 O 463.499 0.895223 1.72673 0
M  V30 5002 C 463.782 3.55755 -0.557708 0
M  V30 5003 C 463.635 4.01332 -2.03107 0
M  V30 5004 C 464.954 4.40096 0.0197968 0
M  V30 5005 H 462.073 0.723667 -0.139552 0
M  V30 5006 H 464.715 1.60928 -1.01006 0
M  V30 5007 H 462.865 3.88494 -0.0213741 0
M  V30 5008 H 464.537 3.79026 -2.62939 0
M  V30 5009 H 462.78 3.52429 -2.52936 0
M  V30 5010 H 463.451 5.10234 -2.1063 0
M  V30 5011 H 465.927 4.13786 -0.438179 0
M  V30 5012 H 464.803 5.48735 -0.134477 0
M  V30 5013 H 465.064 4.2786 1.11303 0
M  V30 5014 N 464.123 0.554532 1.47522 0
M  V30 5015 C 465.371 0.0294208 2.02079 0
M  V30 5016 C 465.692 -1.32411 1.43151 0
M  V30 5017 O 464.962 -1.863 0.605728 0
M  V30 5018 H 463.542 0.00788672 0.746958 0
M  V30 5019 H 466.204 0.723934 1.80956 0
M  V30 5020 H 465.3 -0.0606745 3.12041 0
M  V30 5021 N 465.601 -1.54893 0.290851 0
M  V30 5022 C 466.826 -2.04804 -0.32712 0
M  V30 5023 C 467.251 -1.16721 -1.47506 0
M  V30 5024 O 466.609 -0.169107 -1.8051 0
M  V30 5025 C 466.657 -3.52268 -0.770689 0
M  V30 5026 O 465.761 -3.67236 -1.87647 0
M  V30 5027 H 465.102 -0.660789 -0.0652227 0
M  V30 5028 H 467.632 -2.00036 0.429739 0
M  V30 5029 H 467.642 -3.9393 -1.06223 0
M  V30 5030 H 466.317 -4.15843 0.069096 0
M  V30 5031 H 464.894 -3.37479 -1.58626 0
M  V30 5032 N 467.08 -0.0183926 -1.57589 0
M  V30 5033 C 468.043 0.951986 -2.08494 0
M  V30 5034 C 469.043 1.26092 -0.997874 0
M  V30 5035 O 470.233 1.20304 -1.25987 0
M  V30 5036 C 467.365 2.27165 -2.54182 0
M  V30 5037 H 468.558 0.511307 -2.95509 0
M  V30 5038 H 466.111 0.229444 -1.54607 0
M  V30 5039 H 466.846 2.75884 -1.70465 0
M  V30 5040 H 466.631 2.06057 -3.33591 0
M  V30 5041 H 468.121 2.9674 -2.93828 0
M  V30 5042 N 468.558 1.5553 0.254621 0
M  V30 5043 C 469.807 1.76202 0.981612 0
M  V30 5044 C 470.12 0.580883 1.86776 0
M  V30 5045 O 471.326 0.670448 2.63092 0
M  V30 5046 C 469.782 3.11921 1.79537 0
M  V30 5047 C 469.39 4.37659 0.956991 0
M  V30 5048 C 471.134 3.41936 2.51555 0
M  V30 5049 C 469.041 5.64411 1.76619 0
M  V30 5050 H 467.971 0.656841 0.370237 0
M  V30 5051 H 470.622 1.81969 0.236556 0
M  V30 5052 H 469.004 3.00241 2.58208 0
M  V30 5053 H 470.178 4.60307 0.21315 0
M  V30 5054 H 468.493 4.14922 0.350497 0
M  V30 5055 H 471.09 4.33849 3.12536 0
M  V30 5056 H 471.433 2.62905 3.22779 0
M  V30 5057 H 471.966 3.54797 1.799 0
M  V30 5058 H 468.705 6.46241 1.09783 0
M  V30 5059 H 468.225 5.45877 2.48551 0
M  V30 5060 H 469.904 6.03386 2.33527 0
M  V30 5061 N 470.036 -0.519951 1.48776 0
M  V30 5062 C 471.282 -1.27456 1.58514 0
M  V30 5063 C 471.637 -1.90634 0.260057 0
M  V30 5064 O 470.93 -1.76815 -0.738036 0
M  V30 5065 C 471.124 -2.37864 2.6675 0
M  V30 5066 C 470.953 -1.85509 4.09654 0
M  V30 5067 C 469.723 -1.67661 4.76674 0
M  V30 5068 C 471.921 -1.37783 4.955 0
M  V30 5069 N 469.903 -1.10037 6.03958 0
M  V30 5070 C 471.274 -0.921714 6.1311 0
M  V30 5071 C 473.329 -1.26179 4.81646 0
M  V30 5072 C 472.032 -0.361057 7.18393 0
M  V30 5073 C 474.058 -0.715121 5.8706 0
M  V30 5074 C 473.42 -0.269132 7.03886 0
M  V30 5075 H 469.519 -0.457049 0.634531 0
M  V30 5076 H 472.103 -0.585073 1.85701 0
M  V30 5077 H 470.274 -3.04296 2.41367 0
M  V30 5078 H 472.006 -3.04901 2.66116 0
M  V30 5079 H 468.761 -1.91478 4.33166 0
M  V30 5080 H 469.185 -0.832067 6.71867 0
M  V30 5081 H 473.827 -1.59263 3.91657 0
M  V30 5082 H 471.545 -0.0179127 8.08098 0
M  V30 5083 H 475.131 -0.628376 5.78397 0
M  V30 5084 H 474.011 0.14729 7.84062 0
M  V30 5085 N 471.514 -1.37532 -0.769588 0
M  V30 5086 C 472.462 -1.33561 -1.90432 0
M  V30 5087 C 473.456 -0.224027 -1.67912 0
M  V30 5088 O 474.662 -0.392174 -1.75676 0
M  V30 5089 H 471.037 -0.416279 -0.626271 0
M  V30 5090 H 473.008 -2.29348 -1.90899 0
M  V30 5091 C 471.757 -1.16162 -3.27722 0
M  V30 5092 H 471.08 -2.00951 -3.45628 0
M  V30 5093 H 472.52 -1.17434 -4.07413 0
M  V30 5094 C 470.979 0.132583 -3.36639 0
M  V30 5095 O 471.509 1.11539 -3.85904 0
M  V30 5096 N 469.715 0.184013 -2.90017 0
M  V30 5097 H 469.262 -0.616415 -2.50116 0
M  V30 5098 H 469.22 1.04956 -2.96364 0
M  V30 5099 N 472.992 0.995999 -1.22138 0
M  V30 5100 C 474.408 1.25917 -0.980667 0
M  V30 5101 C 474.608 1.98819 0.327604 0
M  V30 5102 O 473.664 2.29587 1.05101 0
M  V30 5103 C 474.977 2.07399 -2.17729 0
M  V30 5104 C 476.525 2.20594 -2.22052 0
M  V30 5105 C 477 3.05462 -3.41258 0
M  V30 5106 N 478.491 3.13049 -3.41401 0
M  V30 5107 C 479.226 3.78997 -4.30289 0
M  V30 5108 N 478.722 4.46899 -5.2939 0
M  V30 5109 N 480.515 3.75728 -4.18073 0
M  V30 5110 H 472.666 0.507158 -2.06256 0
M  V30 5111 H 474.929 0.28658 -0.903646 0
M  V30 5112 H 474.635 1.61191 -3.12586 0
M  V30 5113 H 474.509 3.08154 -2.17534 0
M  V30 5114 H 476.896 2.66017 -1.27745 0
M  V30 5115 H 476.977 1.1928 -2.26287 0
M  V30 5116 H 476.621 2.60739 -4.35864 0
M  V30 5117 H 476.551 4.06911 -3.34262 0
M  V30 5118 H 479.042 2.64721 -2.69688 0
M  V30 5119 H 479.355 4.94952 -5.935 0
M  V30 5120 H 477.7 4.45657 -5.33306 0
M  V30 5121 H 480.891 3.2184 -3.39907 0
M  V30 5122 H 481.064 4.26845 -4.87553 0
M  V30 5123 N 474.47 1.03057 1.19235 0
M  V30 5124 C 475.886 0.747947 1.40989 0
M  V30 5125 C 476.086 -0.666752 1.90149 0
M  V30 5126 O 475.142 -1.43249 2.07933 0
M  V30 5127 C 476.455 1.7855 2.41951 0
M  V30 5128 C 478.003 1.80524 2.55695 0
M  V30 5129 C 478.478 2.83243 3.59913 0
M  V30 5130 N 479.969 2.8207 3.67411 0
M  V30 5131 C 480.704 3.58204 4.47747 0
M  V30 5132 N 480.2 4.44057 5.31775 0
M  V30 5133 N 481.993 3.46738 4.42413 0
M  V30 5134 H 474.144 1.94367 0.856468 0
M  V30 5135 H 476.407 0.840412 0.438647 0
M  V30 5136 H 476.113 2.79973 2.12857 0
M  V30 5137 H 475.987 1.6092 3.41152 0
M  V30 5138 H 478.374 0.79778 2.84112 0
M  V30 5139 H 478.455 2.02229 1.56643 0
M  V30 5140 H 478.099 3.84161 3.32239 0
M  V30 5141 H 478.029 2.58795 4.5862 0
M  V30 5142 H 480.52 2.19803 3.074 0
M  V30 5143 H 480.833 4.98884 5.90199 0
M  V30 5144 H 479.178 4.48129 5.3123 0
M  V30 5145 H 482.369 2.79077 3.75811 0
M  V30 5146 H 482.542 4.06322 5.04783 0
M  V30 5147 N 475.948 -1.35272 0.808662 0
M  V30 5148 C 476.898 -2.27181 0.193124 0
M  V30 5149 C 477.882 -1.47871 -0.634265 0
M  V30 5150 O 479.074 -1.70048 -0.491182 0
M  V30 5151 C 476.203 -3.36979 -0.655751 0
M  V30 5152 C 475.289 -4.23712 0.181481 0
M  V30 5153 N 475.68 -4.90225 1.24551 0
M  V30 5154 C 473.978 -4.45985 -0.0365493 0
M  V30 5155 C 474.679 -5.54537 1.75682 0
M  V30 5156 N 473.655 -5.33107 1.06294 0
M  V30 5157 H 477.457 -2.76101 1.00724 0
M  V30 5158 H 474.971 -1.48823 0.650029 0
M  V30 5159 H 476.968 -4.01774 -1.11279 0
M  V30 5160 H 475.628 -2.89611 -1.46819 0
M  V30 5161 H 476.639 -4.91641 1.62818 0
M  V30 5162 H 473.316 -4.09409 -0.817964 0
M  V30 5163 H 474.706 -6.17597 2.64621 0
M  V30 5164 N 477.426 -0.562348 -1.47226 0
M  V30 5165 C 478.651 -0.0432632 -2.07355 0
M  V30 5166 C 479.076 1.24332 -1.41149 0
M  V30 5167 O 478.434 1.74603 -0.488226 0
M  V30 5168 C 478.482 0.130288 -3.60365 0
M  V30 5169 O 477.586 1.19166 -3.94808 0
M  V30 5170 H 476.927 -0.0536334 -0.66183 0
M  V30 5171 H 479.457 -0.779495 -1.89169 0
M  V30 5172 H 479.467 0.342881 -4.06557 0
M  V30 5173 H 478.142 -0.809389 -4.07948 0
M  V30 5174 H 476.719 0.959153 -3.60354 0
M  V30 5175 N 478.904 1.54736 -0.299062 0
M  V30 5176 C 480.152 1.99706 0.31017 0
M  V30 5177 C 480.473 1.18896 1.54559 0
M  V30 5178 O 479.743 0.284445 1.93824 0
M  V30 5179 H 478.323 0.737686 0.117596 0
M  V30 5180 H 480.985 1.9054 -0.409943 0
M  V30 5181 H 480.081 3.06596 0.58355 0
M  V30 5182 N 480.382 0.0267497 1.57577 0
M  V30 5183 C 481.329 -0.955894 2.10075 0
M  V30 5184 C 482.299 -1.32453 1.00226 0
M  V30 5185 O 483.484 -1.41826 1.27632 0
M  V30 5186 C 480.624 -2.2338 2.6305 0
M  V30 5187 C 479.737 -1.92183 3.86898 0
M  V30 5188 C 478.872 -3.14251 4.28275 0
M  V30 5189 C 477.911 -2.78862 5.44888 0
M  V30 5190 N 477.048 -3.93548 5.81433 0
M  V30 5191 H 481.888 -0.501303 2.93753 0
M  V30 5192 H 479.425 -0.235847 1.45197 0
M  V30 5193 H 481.383 -2.98124 2.91853 0
M  V30 5194 H 480.013 -2.6646 1.82205 0
M  V30 5195 H 479.065 -1.07692 3.64838 0
M  V30 5196 H 480.377 -1.62117 4.7172 0
M  V30 5197 H 479.531 -3.97317 4.58502 0
M  V30 5198 H 478.27 -3.47476 3.42215 0
M  V30 5199 H 477.275 -1.94208 5.14357 0
M  V30 5200 H 478.5 -2.46855 6.32645 0
M  V30 5201 H 476.446 -4.2662 4.98328 0
M  V30 5202 H 476.363 -3.67098 6.6089 0
M  V30 5203 H 477.631 -4.77325 6.16264 0
M  V30 5204 N 481.861 -1.55662 -0.24637 0
M  V30 5205 C 483.138 -1.68272 -0.997198 0
M  V30 5206 C 483.518 -0.566785 -2.03349 0
M  V30 5207 O 482.866 0.429688 -2.24424 0
M  V30 5208 C 483.076 -3.08594 -1.63006 0
M  V30 5209 C 484.424 -3.6721 -2.13171 0
M  V30 5210 O 485.448 -3.11397 -1.72946 0
M  V30 5211 O 484.307 -4.65054 -2.87031 0
M  V30 5212 H 481.401 -0.684429 -0.464205 0
M  V30 5213 H 483.947 -1.67993 -0.240114 0
M  V30 5214 H 482.719 -3.81264 -0.880527 0
M  V30 5215 H 482.342 -3.12886 -2.45333 0
M  V30 5216 N 483.339 0.512053 -1.4905 0
M  V30 5217 C 484.585 1.26613 -1.59187 0
M  V30 5218 C 484.94 1.90494 -0.270163 0
M  V30 5219 O 484.233 1.77204 0.728648 0
M  V30 5220 C 484.427 2.36446 -2.68008 0
M  V30 5221 C 484.256 1.83334 -4.10632 0
M  V30 5222 C 483.026 1.65131 -4.77556 0
M  V30 5223 C 485.224 1.35153 -4.96224 0
M  V30 5224 N 483.206 1.06833 -6.04533 0
M  V30 5225 C 484.577 0.889186 -6.13591 0
M  V30 5226 C 486.632 1.23623 -4.82309 0
M  V30 5227 C 485.335 0.322953 -7.18575 0
M  V30 5228 C 487.361 0.683978 -5.87431 0
M  V30 5229 C 486.723 0.2318 -7.04018 0
M  V30 5230 H 482.822 0.453678 -0.636946 0
M  V30 5231 H 485.406 0.575217 -1.86009 0
M  V30 5232 H 483.577 3.03012 -2.42978 0
M  V30 5233 H 485.309 3.03485 -2.67729 0
M  V30 5234 H 482.064 1.89178 -4.34176 0
M  V30 5235 H 482.488 0.796425 -6.72299 0
M  V30 5236 H 487.13 1.57184 -3.92496 0
M  V30 5237 H 484.848 -0.024943 -8.08096 0
M  V30 5238 H 488.434 0.597694 -5.78722 0
M  V30 5239 H 487.314 -0.188869 -7.83973 0
M  V30 5240 N 484.817 1.37938 0.762283 0
M  V30 5241 C 486.047 1.36685 1.54922 0
M  V30 5242 C 486.455 -0.0474099 1.89141 0
M  V30 5243 O 485.798 -1.02213 1.52638 0
M  V30 5244 C 485.86 2.14963 2.88152 0
M  V30 5245 C 485.524 3.6385 2.76518 0
M  V30 5246 C 486.521 4.57531 2.46904 0
M  V30 5247 C 484.206 4.07095 2.94243 0
M  V30 5248 C 486.2 5.92436 2.35156 0
M  V30 5249 C 483.887 5.42083 2.82116 0
M  V30 5250 C 484.885 6.34567 2.52614 0
M  V30 5251 O 484.573 7.67073 2.40529 0
M  V30 5252 H 484.305 0.469586 0.486276 0
M  V30 5253 H 486.859 1.82012 0.951876 0
M  V30 5254 H 485.089 1.6434 3.50042 0
M  V30 5255 H 486.778 2.06224 3.49609 0
M  V30 5256 H 487.544 4.25428 2.32886 0
M  V30 5257 H 483.423 3.35462 3.16206 0
M  V30 5258 H 486.967 6.64591 2.12049 0
M  V30 5259 H 482.864 5.73785 2.95704 0
M  V30 5260 H 483.632 7.77499 2.55807 0
M  V30 5261 N 486.295 -0.989507 1.22664 0
M  V30 5262 C 487.225 -2.09847 1.02404 0
M  V30 5263 C 488.206 -1.70007 -0.0561303 0
M  V30 5264 O 489.391 -1.93906 0.106748 0
M  V30 5265 C 486.521 -3.41996 0.604663 0
M  V30 5266 C 485.475 -3.95699 1.63115 0
M  V30 5267 C 484.801 -5.23936 1.0675 0
M  V30 5268 C 486.101 -4.25999 3.02196 0
M  V30 5269 H 487.795 -2.27054 1.95158 0
M  V30 5270 H 485.341 -1.09111 0.939727 0
M  V30 5271 H 487.294 -4.1899 0.45002 0
M  V30 5272 H 486.018 -3.24626 -0.35855 0
M  V30 5273 H 484.677 -3.2084 1.77362 0
M  V30 5274 H 484.325 -5.02909 0.0955422 0
M  V30 5275 H 484.025 -5.60833 1.75328 0
M  V30 5276 H 485.549 -6.0356 0.924516 0
M  V30 5277 H 486.963 -4.93777 2.91303 0
M  V30 5278 H 485.36 -4.74076 3.67929 0
M  V30 5279 H 486.43 -3.33636 3.51873 0
M  V30 5280 N 487.773 -1.03688 -1.18687 0
M  V30 5281 C 488.721 -0.618292 -2.24232 0
M  V30 5282 C 489.715 0.353045 -1.6568 0
M  V30 5283 O 490.921 0.220749 -1.78641 0
M  V30 5284 H 487.296 -0.181711 -0.729716 0
M  V30 5285 H 489.267 -1.51893 -2.56848 0
M  V30 5286 C 488.016 0.00677342 -3.47699 0
M  V30 5287 H 487.339 -0.731692 -3.93047 0
M  V30 5288 H 488.779 0.262492 -4.23187 0
M  V30 5289 C 487.238 1.25572 -3.12623 0
M  V30 5290 O 487.768 2.34691 -3.26011 0
M  V30 5291 N 485.974 1.14755 -2.66982 0
M  V30 5292 H 485.521 0.259601 -2.56289 0
M  V30 5293 H 485.479 1.98412 -2.43885 0
M  V30 5294 N 489.251 1.34841 -0.815825 0
M  V30 5295 C 490.181 2.32187 -0.247298 0
M  V30 5296 C 491.162 1.5791 0.632344 0
M  V30 5297 O 492.347 1.8593 0.560698 0
M  V30 5298 C 489.477 3.42122 0.597466 0
M  V30 5299 C 488.431 4.27602 -0.184446 0
M  V30 5300 C 487.757 5.28942 0.782609 0
M  V30 5301 C 489.057 5.03502 -1.38865 0
M  V30 5302 H 490.751 2.79985 -1.06061 0
M  V30 5303 H 488.297 1.34611 -0.511461 0
M  V30 5304 H 490.25 4.09232 1.00533 0
M  V30 5305 H 488.974 2.92956 1.44376 0
M  V30 5306 H 487.633 3.62085 -0.573592 0
M  V30 5307 H 487.281 4.7604 1.62466 0
M  V30 5308 H 486.981 5.87008 0.263695 0
M  V30 5309 H 488.505 5.98922 1.18848 0
M  V30 5310 H 489.919 5.63506 -1.05518 0
M  V30 5311 H 488.316 5.71108 -1.8427 0
M  V30 5312 H 489.386 4.33608 -2.17054 0
M  V30 5313 N 490.729 0.570148 1.46925 0
M  V30 5314 C 491.677 -0.183181 2.31878 0
M  V30 5315 C 492.671 -0.896721 1.43719 0
M  V30 5316 O 493.877 -0.816536 1.60414 0
M  V30 5317 H 490.252 -0.077944 0.74795 0
M  V30 5318 H 492.223 0.552312 2.93244 0
M  V30 5319 C 490.972 -1.19172 3.2664 0
M  V30 5320 H 490.295 -0.652088 3.94446 0
M  V30 5321 H 491.735 -1.68946 3.88887 0
M  V30 5322 C 490.194 -2.24627 2.51086 0
M  V30 5323 O 490.724 -3.31773 2.26472 0
M  V30 5324 N 488.93 -1.98898 2.11867 0
M  V30 5325 H 488.477 -1.11777 2.32086 0
M  V30 5326 H 488.435 -2.6967 1.61634 0
M  V30 5327 N 492.207 -1.54576 0.307264 0
M  V30 5328 C 493.437 -2.04378 -0.302158 0
M  V30 5329 C 493.845 -1.18381 -1.47589 0
M  V30 5330 O 493.188 -0.20352 -1.82569 0
M  V30 5331 C 493.25 -3.50133 -0.815305 0
M  V30 5332 C 492.914 -4.56401 0.233977 0
M  V30 5333 C 493.911 -5.08884 1.06456 0
M  V30 5334 C 491.596 -5.0088 0.377478 0
M  V30 5335 C 493.59 -6.04394 2.02452 0
M  V30 5336 C 491.277 -5.96208 1.34088 0
M  V30 5337 C 492.275 -6.47849 2.16288 0
M  V30 5338 O 491.963 -7.41308 3.10994 0
M  V30 5339 H 491.695 -0.672502 -0.0686839 0
M  V30 5340 H 494.249 -2.00484 0.446682 0
M  V30 5341 H 492.479 -3.51371 -1.61478 0
M  V30 5342 H 494.168 -3.83098 -1.34129 0
M  V30 5343 H 494.934 -4.75311 0.964596 0
M  V30 5344 H 490.813 -4.60309 -0.252405 0
M  V30 5345 H 494.357 -6.44626 2.66652 0
M  V30 5346 H 490.254 -6.29198 1.44154 0
M  V30 5347 H 491.022 -7.5913 3.06045 0
M  V30 5348 N 493.685 -0.035106 -1.57561 0
M  V30 5349 C 494.933 0.64096 -1.91667 0
M  V30 5350 C 495.254 1.72323 -0.912681 0
M  V30 5351 O 494.524 1.95849 0.0449089 0
M  V30 5352 H 493.104 0.239743 -0.707483 0
M  V30 5353 H 495.766 -0.084321 -1.94718 0
M  V30 5354 H 494.862 1.08987 -2.92452 0
M  V30 5355 N 495.163 1.55791 0.238111 0
M  V30 5356 C 496.411 1.77681 0.963001 0
M  V30 5357 C 496.732 0.600674 1.85518 0
M  V30 5358 O 496.002 -0.383182 1.92116 0
M  V30 5359 H 494.582 0.655315 0.358568 0
M  V30 5360 H 497.244 1.93239 0.253945 0
M  V30 5361 H 496.34 2.69177 1.57956 0
M  V30 5362 N 496.642 -0.504142 1.49319 0
M  V30 5363 C 497.605 -1.5883 1.65244 0
M  V30 5364 C 498.605 -1.52009 0.524386 0
M  V30 5365 O 499.795 -1.55218 0.79077 0
M  V30 5366 C 496.927 -2.98481 1.64687 0
M  V30 5367 H 498.12 -1.4604 2.61939 0
M  V30 5368 H 495.673 -0.728144 1.38303 0
M  V30 5369 H 496.408 -3.16751 0.695644 0
M  V30 5370 H 496.193 -3.0484 2.46607 0
M  V30 5371 H 497.683 -3.77256 1.79075 0
M  V30 5372 N 498.12 -1.38341 -0.754957 0
M  V30 5373 C 499.345 -1.37882 -1.5493 0
M  V30 5374 C 499.77 0.0296385 -1.88077 0
M  V30 5375 O 499.128 1.01133 -1.50472 0
M  V30 5376 C 499.176 -2.23996 -2.82592 0
M  V30 5377 O 498.28 -1.65612 -3.77686 0
M  V30 5378 H 497.621 -0.470384 -0.468652 0
M  V30 5379 H 500.151 -1.82084 -0.933082 0
M  V30 5380 H 500.161 -2.37806 -3.3153 0
M  V30 5381 H 498.836 -3.26365 -2.57796 0
M  V30 5382 H 497.413 -1.60936 -3.36384 0
M  V30 5383 N 499.598 0.982988 -1.23187 0
M  V30 5384 C 500.546 2.09616 -1.00817 0
M  V30 5385 C 501.54 1.6932 0.0519995 0
M  V30 5386 O 502.746 1.79715 -0.101284 0
M  V30 5387 H 499.121 0.685628 -0.308899 0
M  V30 5388 H 501.092 2.25652 -1.95253 0
M  V30 5389 C 499.841 3.42249 -0.613243 0
M  V30 5390 H 499.164 3.73705 -1.42073 0
M  V30 5391 H 500.604 4.21086 -0.496208 0
M  V30 5392 C 499.063 3.30002 0.678233 0
M  V30 5393 O 499.593 3.6263 1.72807 0
M  V30 5394 N 497.799 2.83164 0.653165 0
M  V30 5395 H 497.346 2.56811 -0.201492 0
M  V30 5396 H 497.304 2.75352 1.51752 0
M  V30 5397 N 501.076 1.04316 1.18135 0
M  V30 5398 C 502.323 0.74802 1.88178 0
M  V30 5399 C 502.651 -0.72441 1.80506 0
M  V30 5400 O 501.906 -1.54463 1.20165 0
M  V30 5401 C 502.205 1.16271 3.37958 0
M  V30 5402 C 501.871 2.63585 3.65833 0
M  V30 5403 C 500.533 3.03829 3.73151 0
M  V30 5404 C 502.885 3.58822 3.78016 0
M  V30 5405 C 500.213 4.38194 3.90132 0
M  V30 5406 C 502.565 4.92909 3.96514 0
M  V30 5407 C 501.229 5.3282 4.02068 0
M  V30 5408 H 500.499 0.27372 0.688592 0
M  V30 5409 H 503.146 1.30863 1.39811 0
M  V30 5410 H 501.451 0.520938 3.88321 0
M  V30 5411 H 503.148 0.911672 3.90499 0
M  V30 5412 H 499.738 2.31414 3.60757 0
M  V30 5413 H 503.922 3.28875 3.71692 0
M  V30 5414 H 499.178 4.68631 3.92677 0
M  V30 5415 H 503.352 5.66606 4.04883 0
M  V30 5416 H 500.979 6.36943 4.14979 0
M  V30 5417 N 502.554 -1.34406 0.822964 0
M  V30 5418 C 503.802 -1.97892 0.410245 0
M  V30 5419 C 504.123 -1.65567 -1.03017 0
M  V30 5420 O 503.393 -0.94642 -1.71522 0
M  V30 5421 H 501.973 -0.732049 0.148707 0
M  V30 5422 H 504.635 -1.64043 1.05242 0
M  V30 5423 H 503.731 -3.07579 0.529284 0
M  V30 5424 N 504.032 -0.577932 -1.46621 0
M  V30 5425 C 504.962 0.145917 -2.33044 0
M  V30 5426 C 505.943 0.888412 -1.45056 0
M  V30 5427 O 507.128 0.864812 -1.73881 0
M  V30 5428 C 504.258 1.16322 -3.27241 0
M  V30 5429 C 503.212 0.535868 -4.24632 0
M  V30 5430 C 502.538 1.65929 -5.08303 0
M  V30 5431 C 503.838 -0.523861 -5.19666 0
M  V30 5432 H 505.532 -0.575636 -2.93814 0
M  V30 5433 H 503.078 -0.278272 -1.41286 0
M  V30 5434 H 505.031 1.67793 -3.86553 0
M  V30 5435 H 503.755 1.91498 -2.64567 0
M  V30 5436 H 502.414 0.0422759 -3.66576 0
M  V30 5437 H 502.062 2.40061 -4.42018 0
M  V30 5438 H 501.762 1.2452 -5.74255 0
M  V30 5439 H 503.286 2.17686 -5.70478 0
M  V30 5440 H 504.7 -0.0944059 -5.73222 0
M  V30 5441 H 503.097 -0.858 -5.93935 0
M  V30 5442 H 504.167 -1.41197 -4.63887 0
M  V30 5443 N 505.51 1.54411 -0.315457 0
M  V30 5444 C 506.458 2.25514 0.569771 0
M  V30 5445 C 507.452 1.2663 1.12522 0
M  V30 5446 O 508.658 1.44434 1.07419 0
M  V30 5447 H 505.033 0.724257 0.202376 0
M  V30 5448 H 507.004 2.98354 -0.0522895 0
M  V30 5449 C 505.753 3.02004 1.72305 0
M  V30 5450 H 505.076 3.77906 1.30488 0
M  V30 5451 H 506.516 3.55014 2.31821 0
M  V30 5452 C 504.975 2.09822 2.63583 0
M  V30 5453 O 505.505 1.67574 3.65078 0
M  V30 5454 N 503.711 1.75478 2.31637 0
M  V30 5455 H 503.258 2.10032 1.49145 0
M  V30 5456 H 503.216 1.14079 2.92973 0
M  V30 5457 N 506.988 0.0434614 1.5754 0
M  V30 5458 C 508.235 -0.632035 1.92384 0
M  V30 5459 C 508.563 -1.71304 0.921157 0
M  V30 5460 O 507.818 -1.95583 -0.067744 0
M  V30 5461 C 508.117 -1.2738 3.3393 0
M  V30 5462 C 507.783 -0.321757 4.49751 0
M  V30 5463 C 506.445 -0.0597611 4.81163 0
M  V30 5464 C 508.797 0.331158 5.20147 0
M  V30 5465 C 506.125 0.862715 5.80322 0
M  V30 5466 C 508.477 1.24178 6.20292 0
M  V30 5467 C 507.141 1.51252 6.50138 0
M  V30 5468 H 506.411 -0.231278 0.703983 0
M  V30 5469 H 509.058 0.108294 1.91194 0
M  V30 5470 H 507.363 -2.08921 3.3145 0
M  V30 5471 H 509.06 -1.80326 3.58167 0
M  V30 5472 H 505.65 -0.53614 4.25233 0
M  V30 5473 H 509.834 0.141826 4.96097 0
M  V30 5474 H 505.09 1.08003 6.01785 0
M  V30 5475 H 509.264 1.75381 6.73954 0
M  V30 5476 H 506.891 2.22897 7.26788 0
M  V30 5477 N 508.466 -1.55915 -0.229846 0
M  V30 5478 C 509.396 -1.94754 -1.28815 0
M  V30 5479 C 510.377 -0.814657 -1.49323 0
M  V30 5480 O 511.562 -1.07631 -1.61645 0
M  V30 5481 C 508.692 -2.25705 -2.63959 0
M  V30 5482 C 507.646 -3.41406 -2.5812 0
M  V30 5483 C 506.972 -3.57941 -3.97218 0
M  V30 5484 C 508.272 -4.76616 -2.13623 0
M  V30 5485 H 509.966 -2.83404 -0.965547 0
M  V30 5486 H 507.512 -1.36353 -0.463028 0
M  V30 5487 H 509.465 -2.51467 -3.38146 0
M  V30 5488 H 508.189 -1.339 -2.9789 0
M  V30 5489 H 506.848 -3.1568 -1.86391 0
M  V30 5490 H 506.496 -2.63526 -4.28443 0
M  V30 5491 H 506.196 -4.35757 -3.94195 0
M  V30 5492 H 507.72 -3.86042 -4.73079 0
M  V30 5493 H 509.134 -5.01637 -2.77549 0
M  V30 5494 H 507.531 -5.57655 -2.21677 0
M  V30 5495 H 508.601 -4.7253 -1.08829 0
M  V30 5496 N 509.944 0.496216 -1.49584 0
M  V30 5497 C 511.172 1.27394 -1.63029 0
M  V30 5498 C 511.587 1.86344 -0.303569 0
M  V30 5499 O 510.944 1.68057 0.711547 0
M  V30 5500 C 510.995 2.40077 -2.70269 0
M  V30 5501 O 510.716 1.83549 -3.97796 0
M  V30 5502 C 512.217 3.31372 -2.94462 0
M  V30 5503 H 509.437 0.386211 -0.54871 0
M  V30 5504 H 511.981 0.595163 -1.95648 0
M  V30 5505 H 510.136 3.03775 -2.40415 0
M  V30 5506 H 510.55 2.57561 -4.56905 0
M  V30 5507 H 512.024 4.06707 -3.73221 0
M  V30 5508 H 512.501 3.88654 -2.0456 0
M  V30 5509 H 513.107 2.73435 -3.25751 0
M  V30 5510 N 511.423 1.38739 0.74761 0
M  V30 5511 C 512.67 1.35274 1.50689 0
M  V30 5512 C 512.998 -0.0553359 1.94421 0
M  V30 5513 O 512.253 -1.03365 1.66175 0
M  V30 5514 C 512.552 2.25992 2.7688 0
M  V30 5515 C 512.218 3.73854 2.5208 0
M  V30 5516 C 510.88 4.14145 2.45025 0
M  V30 5517 C 513.232 4.67427 2.30568 0
M  V30 5518 C 510.56 5.4609 2.14483 0
M  V30 5519 C 512.912 5.99635 2.01545 0
M  V30 5520 C 511.576 6.39004 1.92951 0
M  V30 5521 H 510.846 0.495003 0.55141 0
M  V30 5522 H 513.493 1.71145 0.859158 0
M  V30 5523 H 511.798 1.83196 3.46333 0
M  V30 5524 H 513.495 2.20611 3.34861 0
M  V30 5525 H 510.085 3.41913 2.58444 0
M  V30 5526 H 514.269 4.3714 2.34994 0
M  V30 5527 H 509.525 5.75528 2.06342 0
M  V30 5528 H 513.699 6.71678 1.83906 0
M  V30 5529 H 511.326 7.41165 1.6905 0
M  V30 5530 N 512.901 -0.976442 1.23707 0
M  V30 5531 C 514.15 -1.71254 1.06559 0
M  V30 5532 C 514.463 -1.91528 -0.397024 0
M  V30 5533 O 515.669 -2.62625 -0.688518 0
M  V30 5534 C 514.125 -3.08207 1.8584 0
M  V30 5535 C 513.733 -2.95806 3.36456 0
M  V30 5536 C 515.477 -3.85749 1.77194 0
M  V30 5537 C 513.384 -4.28015 4.08114 0
M  V30 5538 H 512.314 -0.642171 0.395136 0
M  V30 5539 H 514.965 -1.08877 1.4771 0
M  V30 5540 H 513.347 -3.71363 1.37498 0
M  V30 5541 H 514.521 -2.41716 3.92314 0
M  V30 5542 H 512.836 -2.31736 3.45959 0
M  V30 5543 H 515.433 -4.83633 2.28041 0
M  V30 5544 H 515.776 -4.09752 0.735477 0
M  V30 5545 H 516.309 -3.29303 2.23169 0
M  V30 5546 H 513.048 -4.09208 5.12083 0
M  V30 5547 H 512.568 -4.81955 3.57043 0
M  V30 5548 H 514.247 -4.96681 4.14629 0
M  V30 5549 N 514.379 -1.04941 -1.1758 0
M  V30 5550 C 515.628 -0.753124 -1.87112 0
M  V30 5551 C 515.941 0.722507 -1.81767 0
M  V30 5552 O 517.147 1.13265 -2.46746 0
M  V30 5553 C 515.603 -1.29695 -3.35719 0
M  V30 5554 C 515.211 -2.80184 -3.49572 0
M  V30 5555 C 516.955 -1.07759 -4.10595 0
M  V30 5556 C 514.862 -3.2788 -4.92187 0
M  V30 5557 H 513.792 -0.278034 -0.700866 0
M  V30 5558 H 516.443 -1.26637 -1.32798 0
M  V30 5559 H 514.825 -0.711522 -3.89555 0
M  V30 5560 H 515.999 -3.44561 -3.05965 0
M  V30 5561 H 514.314 -3.00632 -2.88113 0
M  V30 5562 H 516.911 -1.40899 -5.15802 0
M  V30 5563 H 517.254 -0.0152302 -4.16297 0
M  V30 5564 H 517.787 -1.62809 -3.62957 0
M  V30 5565 H 514.526 -4.33535 -4.91658 0
M  V30 5566 H 514.046 -2.68245 -5.36475 0
M  V30 5567 H 515.725 -3.22412 -5.60945 0
M  V30 5568 N 515.857 1.33968 -0.830081 0
M  V30 5569 C 516.787 2.31911 -0.271911 0
M  V30 5570 C 517.768 1.58571 0.61556 0
M  V30 5571 O 518.953 1.86514 0.540946 0
M  V30 5572 C 516.083 3.42737 0.561146 0
M  V30 5573 C 515.037 4.27383 -0.229789 0
M  V30 5574 C 514.363 5.29742 0.726463 0
M  V30 5575 C 515.663 5.02 -1.44197 0
M  V30 5576 H 517.357 2.78844 -1.09025 0
M  V30 5577 H 514.903 1.34061 -0.52571 0
M  V30 5578 H 516.856 4.10276 0.961867 0
M  V30 5579 H 515.58 2.94471 1.41261 0
M  V30 5580 H 514.239 3.61456 -0.611964 0
M  V30 5581 H 513.887 4.77736 1.57408 0
M  V30 5582 H 513.587 5.87255 0.20142 0
M  V30 5583 H 515.111 6.00149 1.12489 0
M  V30 5584 H 516.525 5.62355 -1.11488 0
M  V30 5585 H 514.922 5.69122 -1.90317 0
M  V30 5586 H 515.992 4.31281 -2.2164 0
M  V30 5587 N 517.335 0.585699 1.46312 0
M  V30 5588 C 518.582 0.0724211 2.0237 0
M  V30 5589 C 518.91 -1.28868 1.45683 0
M  V30 5590 O 518.165 -1.85853 0.612945 0
M  V30 5591 C 518.464 -0.0401312 3.57377 0
M  V30 5592 C 518.13 1.25376 4.33119 0
M  V30 5593 C 516.792 1.60824 4.5353 0
M  V30 5594 C 519.144 2.10987 4.76586 0
M  V30 5595 C 516.472 2.81676 5.14661 0
M  V30 5596 C 518.824 3.31068 5.39052 0
M  V30 5597 C 517.488 3.66794 5.5769 0
M  V30 5598 H 516.758 0.0265007 0.740526 0
M  V30 5599 H 519.405 0.762935 1.75646 0
M  V30 5600 H 517.71 -0.813791 3.83255 0
M  V30 5601 H 519.407 -0.453078 3.98432 0
M  V30 5602 H 515.997 0.967808 4.1753 0
M  V30 5603 H 520.181 1.84904 4.60569 0
M  V30 5604 H 515.437 3.0949 5.27282 0
M  V30 5605 H 519.611 3.97672 5.71691 0
M  V30 5606 H 517.238 4.60529 6.04828 0
M  V30 5607 N 518.813 -1.54241 0.323641 0
M  V30 5608 C 519.761 -2.25813 -0.557804 0
M  V30 5609 C 520.755 -1.27225 -1.11849 0
M  V30 5610 O 521.961 -1.45001 -1.06652 0
M  V30 5611 H 518.336 -0.72532 -0.198532 0
M  V30 5612 H 520.307 -2.98322 0.0681112 0
M  V30 5613 C 519.056 -3.02913 -1.70701 0
M  V30 5614 H 518.379 -3.78593 -1.28482 0
M  V30 5615 H 519.819 -3.56238 -2.29935 0
M  V30 5616 C 518.278 -2.11217 -2.62467 0
M  V30 5617 O 518.808 -1.69508 -3.64184 0
M  V30 5618 N 517.014 -1.76704 -2.30703 0
M  V30 5619 H 516.561 -2.1082 -1.48029 0
M  V30 5620 H 516.519 -1.15631 -2.92364 0
M  V30 5621 N 520.291 -0.0518155 -1.57515 0
M  V30 5622 C 521.239 0.940195 -2.12751 0
M  V30 5623 C 522.233 1.3218 -1.05948 0
M  V30 5624 O 523.439 1.30138 -1.24355 0
M  V30 5625 H 519.814 0.321066 -0.680015 0
M  V30 5626 H 521.785 0.449217 -2.94999 0
M  V30 5627 C 520.534 2.2055 -2.68799 0
M  V30 5628 H 519.857 1.92066 -3.50643 0
M  V30 5629 H 521.297 2.88119 -3.11068 0
M  V30 5630 C 519.756 2.95061 -1.62605 0
M  V30 5631 O 520.286 3.88025 -1.03921 0
M  V30 5632 N 518.492 2.57804 -1.34111 0
M  V30 5633 H 518.039 1.82281 -1.8202 0
M  V30 5634 H 517.997 3.07964 -0.632872 0
M  V30 5635 N 521.769 1.56035 0.221574 0
M  V30 5636 C 522.699 1.95434 1.2778 0
M  V30 5637 C 523.68 0.822564 1.48889 0
M  V30 5638 O 524.865 1.08486 1.61072 0
M  V30 5639 C 521.995 2.27102 2.62759 0
M  V30 5640 C 520.949 3.4277 2.56306 0
M  V30 5641 C 520.275 3.60043 3.95314 0
M  V30 5642 C 521.575 4.77742 2.11093 0
M  V30 5643 H 523.269 2.83912 0.950504 0
M  V30 5644 H 520.815 1.36596 0.455791 0
M  V30 5645 H 522.768 2.53256 3.36807 0
M  V30 5646 H 521.492 1.35478 2.97176 0
M  V30 5647 H 520.151 3.16664 1.84715 0
M  V30 5648 H 519.799 2.65794 4.27039 0
M  V30 5649 H 519.499 4.37841 3.91879 0
M  V30 5650 H 521.023 3.88545 4.71025 0
M  V30 5651 H 522.437 5.03102 2.74885 0
M  V30 5652 H 520.834 5.58823 2.18716 0
M  V30 5653 H 521.904 4.731 1.06321 0
M  V30 5654 N 523.247 -0.488276 1.49845 0
M  V30 5655 C 524.496 -1.23826 1.59217 0
M  V30 5656 C 524.809 -1.93439 0.289966 0
M  V30 5657 O 526.015 -2.70229 0.262382 0
M  V30 5658 C 524.471 -2.24902 2.80976 0
M  V30 5659 C 524.079 -1.6117 4.18005 0
M  V30 5660 C 525.823 -3.00648 2.99685 0
M  V30 5661 C 523.73 -2.60431 5.3097 0
M  V30 5662 H 522.66 -0.465858 0.592868 0
M  V30 5663 H 525.311 -0.510645 1.76252 0
M  V30 5664 H 523.693 -3.0088 2.57463 0
M  V30 5665 H 524.867 -0.910968 4.51706 0
M  V30 5666 H 523.182 -0.97767 4.0476 0
M  V30 5667 H 525.779 -3.74903 3.81251 0
M  V30 5668 H 526.122 -3.5902 2.10738 0
M  V30 5669 H 526.655 -2.31784 3.23297 0
M  V30 5670 H 523.394 -2.06823 6.22017 0
M  V30 5671 H 522.914 -3.28707 5.01709 0
M  V30 5672 H 524.593 -3.22606 5.60834 0
M  V30 5673 N 524.725 -1.39134 -0.740242 0
M  V30 5674 C 526.136 -1.32208 -1.31825 0
M  V30 5675 C 526.487 0.0159919 -1.96193 0
M  V30 5676 O 525.612 0.918111 -1.95958 0
M  V30 5677 C 526.207 -2.39436 -2.39699 0
M  V30 5678 C 524.766 -2.36048 -2.93187 0
M  V30 5679 C 523.913 -2.21599 -1.66701 0
M  V30 5680 H 526.864 -1.49298 -0.538133 0
M  V30 5681 H 526.885 -2.05922 -3.19963 0
M  V30 5682 H 526.397 -3.36811 -1.92821 0
M  V30 5683 H 524.498 -1.42295 -3.44359 0
M  V30 5684 H 524.611 -3.30704 -3.46658 0
M  V30 5685 H 522.975 -1.68681 -1.90837 0
M  V30 5686 H 523.758 -3.20936 -1.21882 0
M  V30 5687 N 526.204 0.969867 -1.24223 0
M  V30 5688 C 527.453 1.70687 -1.07466 0
M  V30 5689 C 527.766 1.91736 0.386861 0
M  V30 5690 O 528.972 2.62986 0.674581 0
M  V30 5691 C 527.428 3.07217 -1.87472 0
M  V30 5692 C 527.036 2.94018 -3.3802 0
M  V30 5693 C 528.78 3.84804 -1.79237 0
M  V30 5694 C 526.687 4.25844 -4.10379 0
M  V30 5695 H 525.617 0.640067 -0.398536 0
M  V30 5696 H 528.268 1.08092 -1.48285 0
M  V30 5697 H 526.65 3.70628 -1.39466 0
M  V30 5698 H 527.824 2.39632 -3.9359 0
M  V30 5699 H 526.139 2.29898 -3.47183 0
M  V30 5700 H 528.736 4.82417 -2.30603 0
M  V30 5701 H 529.079 4.09356 -0.757197 0
M  V30 5702 H 529.612 3.28115 -2.24912 0
M  V30 5703 H 526.351 4.06486 -5.14246 0
M  V30 5704 H 525.871 4.80054 -3.59594 0
M  V30 5705 H 527.55 4.94475 -4.17257 0
M  V30 5706 N 527.682 1.05563 1.17022 0
M  V30 5707 C 528.907 0.788437 1.91829 0
M  V30 5708 C 529.332 -0.650356 1.76499 0
M  V30 5709 O 528.69 -1.45229 1.08527 0
M  V30 5710 C 528.738 1.1786 3.40795 0
M  V30 5711 O 527.842 0.312965 4.11211 0
M  V30 5712 H 527.183 0.288794 0.597908 0
M  V30 5713 H 529.713 1.40948 1.48307 0
M  V30 5714 H 529.723 1.14697 3.91546 0
M  V30 5715 H 528.398 2.22666 3.51273 0
M  V30 5716 H 526.975 0.405515 3.70689 0
M  V30 5717 N 529.16 -1.33526 0.837174 0
M  V30 5718 C 530.09 -2.31764 0.284206 0
M  V30 5719 C 531.071 -1.58896 -0.607142 0
M  V30 5720 O 532.256 -1.86798 -0.531047 0
M  V30 5721 C 529.386 -3.43029 -0.542962 0
M  V30 5722 C 528.34 -4.27255 0.252451 0
M  V30 5723 C 527.666 -5.3012 -0.69836 0
M  V30 5724 C 528.966 -5.01229 1.46858 0
M  V30 5725 H 530.66 -2.78262 1.10502 0
M  V30 5726 H 528.206 -1.3378 0.532812 0
M  V30 5727 H 530.159 -4.1078 -0.940096 0
M  V30 5728 H 528.883 -2.95216 -1.39697 0
M  V30 5729 H 527.542 -3.61127 0.631124 0
M  V30 5730 H 527.19 -4.78564 -1.54872 0
M  V30 5731 H 526.89 -5.87353 -0.170274 0
M  V30 5732 H 528.414 -6.00737 -1.09305 0
M  V30 5733 H 529.828 -5.61756 1.14469 0
M  V30 5734 H 528.225 -5.68104 1.93333 0
M  V30 5735 H 529.295 -4.301 2.23924 0
M  V30 5736 N 530.638 -0.59345 -1.46 0
M  V30 5737 C 531.568 0.121192 -2.33185 0
M  V30 5738 C 532.549 0.872977 -1.4599 0
M  V30 5739 O 533.734 0.846321 -1.74789 0
M  V30 5740 C 530.864 1.12844 -3.28456 0
M  V30 5741 C 529.818 0.4908 -4.25177 0
M  V30 5742 C 529.144 1.60529 -5.10034 0
M  V30 5743 C 530.444 -0.578949 -5.19081 0
M  V30 5744 H 532.138 -0.606767 -2.93187 0
M  V30 5745 H 529.684 -0.293242 -1.40983 0
M  V30 5746 H 531.637 1.63684 -3.88311 0
M  V30 5747 H 530.361 1.88681 -2.66584 0
M  V30 5748 H 529.02 0.00339328 -3.666 0
M  V30 5749 H 528.668 2.35359 -4.44539 0
M  V30 5750 H 528.368 1.18422 -5.75543 0
M  V30 5751 H 529.892 2.11623 -5.72755 0
M  V30 5752 H 531.306 -0.155199 -5.7309 0
M  V30 5753 H 529.703 -0.920947 -5.92991 0
M  V30 5754 H 530.773 -1.46109 -4.62364 0
M  V30 5755 N 532.116 1.54067 -0.331816 0
M  V30 5756 C 533.362 2.01012 0.268667 0
M  V30 5757 C 533.695 1.2195 1.51136 0
M  V30 5758 O 532.97 0.303972 1.9211 0
M  V30 5759 C 533.253 3.55158 0.59456 0
M  V30 5760 C 533.106 4.4494 -0.659409 0
M  V30 5761 C 534.425 4.16939 1.4089 0
M  V30 5762 H 531.544 0.730698 0.0961756 0
M  V30 5763 H 534.186 1.84593 -0.450031 0
M  V30 5764 H 532.336 3.6928 1.20685 0
M  V30 5765 H 534.008 4.42675 -1.29756 0
M  V30 5766 H 532.251 4.1428 -1.28665 0
M  V30 5767 H 532.922 5.50643 -0.386804 0
M  V30 5768 H 535.398 4.06443 0.891272 0
M  V30 5769 H 534.274 5.24889 1.60569 0
M  V30 5770 H 534.535 3.70798 2.40752 0
M  V30 5771 N 533.594 0.0601682 1.57485 0
M  V30 5772 C 534.822 -0.620937 1.97363 0
M  V30 5773 C 535.237 -1.63846 0.938082 0
M  V30 5774 O 534.594 -1.82339 -0.0766578 0
M  V30 5775 C 534.645 -1.29987 3.37321 0
M  V30 5776 O 534.366 -0.323081 4.36907 0
M  V30 5777 C 535.867 -2.06989 3.92008 0
M  V30 5778 H 533.087 -0.169135 0.649334 0
M  V30 5779 H 535.631 0.129132 2.04092 0
M  V30 5780 H 533.786 -2.0011 3.31715 0
M  V30 5781 H 534.2 -0.808754 5.18227 0
M  V30 5782 H 535.674 -2.49901 4.92192 0
M  V30 5783 H 536.151 -2.92173 3.2792 0
M  V30 5784 H 536.757 -1.41757 4.0098 0
M  V30 5785 N 535.072 -1.5615 -0.213296 0
M  V30 5786 C 536.002 -1.96109 -1.26742 0
M  V30 5787 C 536.983 -0.830448 -1.48451 0
M  V30 5788 O 538.168 -1.09339 -1.60495 0
M  V30 5789 C 535.298 -2.28492 -2.61551 0
M  V30 5790 C 534.252 -3.44124 -2.54485 0
M  V30 5791 C 533.578 -3.62134 -3.93399 0
M  V30 5792 C 534.878 -4.78855 -2.08556 0
M  V30 5793 H 536.572 -2.84412 -0.935434 0
M  V30 5794 H 534.118 -1.36836 -0.44854 0
M  V30 5795 H 536.071 -2.55039 -3.3546 0
M  V30 5796 H 534.795 -1.37052 -2.96453 0
M  V30 5797 H 533.454 -3.17639 -1.83033 0
M  V30 5798 H 533.102 -2.68055 -4.25623 0
M  V30 5799 H 532.802 -4.39913 -3.89551 0
M  V30 5800 H 534.326 -3.91038 -4.68958 0
M  V30 5801 H 535.74 -5.04552 -2.72213 0
M  V30 5802 H 534.137 -5.59975 -2.1575 0
M  V30 5803 H 535.207 -4.73657 -1.03811 0
M  V30 5804 N 536.55 0.480323 -1.50102 0
M  V30 5805 C 537.46 1.60547 -1.71061 0
M  V30 5806 C 538.476 1.63564 -0.593529 0
M  V30 5807 O 539.652 1.81604 -0.870751 0
M  V30 5808 C 536.717 2.96814 -1.79171 0
M  V30 5809 C 535.778 3.04259 -3.02861 0
M  V30 5810 C 535.011 4.34027 -3.10574 0
M  V30 5811 O 535.234 5.24009 -2.25323 0
M  V30 5812 O 534.168 4.46873 -4.03223 0
M  V30 5813 H 537.994 1.45788 -2.6642 0
M  V30 5814 H 535.579 0.658838 -1.34088 0
M  V30 5815 H 537.461 3.77765 -1.86738 0
M  V30 5816 H 536.136 3.11791 -0.869947 0
M  V30 5817 H 535.043 2.22419 -3.008 0
M  V30 5818 H 536.376 2.94216 -3.94586 0
M  V30 5819 N 538.028 1.39524 0.732853 0
M  V30 5820 C 539.274 1.37068 1.49467 0
M  V30 5821 C 539.607 -0.0327166 1.94172 0
M  V30 5822 O 538.882 -0.998071 1.66939 0
M  V30 5823 C 539.165 2.34494 2.73285 0
M  V30 5824 C 539.018 3.83784 2.34585 0
M  V30 5825 C 540.337 2.29717 3.75391 0
M  V30 5826 H 537.456 0.499206 0.542183 0
M  V30 5827 H 540.098 1.70532 0.837783 0
M  V30 5828 H 538.248 2.06087 3.29333 0
M  V30 5829 H 539.92 4.22949 1.84151 0
M  V30 5830 H 538.163 4.00455 1.66787 0
M  V30 5831 H 538.834 4.47444 3.23262 0
M  V30 5832 H 541.31 2.54839 3.28932 0
M  V30 5833 H 540.186 2.99962 4.59689 0
M  V30 5834 H 540.447 1.30291 4.22465 0
M  V30 5835 N 539.506 -0.963266 1.24736 0
M  V30 5836 C 540.752 -1.70933 1.09131 0
M  V30 5837 C 541.085 -1.90676 -0.368273 0
M  V30 5838 O 540.36 -1.47147 -1.27193 0
M  V30 5839 C 540.643 -3.09744 1.83658 0
M  V30 5840 C 540.496 -2.97465 3.37394 0
M  V30 5841 C 541.815 -4.09483 1.61282 0
M  V30 5842 H 538.934 -0.620398 0.397838 0
M  V30 5843 H 541.576 -1.12028 1.53459 0
M  V30 5844 H 539.726 -3.60031 1.4598 0
M  V30 5845 H 541.398 -2.54571 3.84696 0
M  V30 5846 H 539.641 -2.33576 3.65547 0
M  V30 5847 H 540.312 -3.95822 3.84745 0
M  V30 5848 H 542.788 -3.68073 1.94066 0
M  V30 5849 H 541.664 -5.04666 2.15878 0
M  V30 5850 H 541.925 -4.38639 0.552102 0
M  V30 5851 N 540.985 -1.06182 -1.16461 0
M  V30 5852 C 541.932 -0.671613 -2.20812 0
M  V30 5853 C 542.902 0.331186 -1.62765 0
M  V30 5854 O 544.087 0.22033 -1.89524 0
M  V30 5855 C 541.227 -0.063029 -3.45042 0
M  V30 5856 C 540.34 -1.11587 -4.1734 0
M  V30 5857 C 539.475 -0.473546 -5.29085 0
M  V30 5858 C 538.514 -1.51 -5.93182 0
M  V30 5859 N 537.651 -0.891118 -6.96422 0
M  V30 5860 H 542.491 -1.56589 -2.53542 0
M  V30 5861 H 540.028 -0.782951 -1.24532 0
M  V30 5862 H 541.986 0.307344 -4.16066 0
M  V30 5863 H 540.616 0.794663 -3.12866 0
M  V30 5864 H 539.668 -1.60396 -3.44931 0
M  V30 5865 H 540.98 -1.90221 -4.61104 0
M  V30 5866 H 540.134 -0.0501432 -6.06679 0
M  V30 5867 H 538.873 0.344687 -4.8648 0
M  V30 5868 H 537.878 -1.94331 -5.14311 0
M  V30 5869 H 539.103 -2.33031 -6.37866 0
M  V30 5870 H 537.049 -0.0935753 -6.55933 0
M  V30 5871 H 536.966 -1.61486 -7.38551 0
M  V30 5872 H 538.234 -0.492822 -7.77941 0
M  V30 5873 N 542.463 1.3308 -0.844243 0
M  V30 5874 C 543.71 1.97605 -0.44255 0
M  V30 5875 C 544.038 1.66856 0.999458 0
M  V30 5876 O 543.293 0.943586 1.7145 0
M  V30 5877 C 543.592 3.52045 -0.616354 0
M  V30 5878 C 543.258 4.02757 -2.02726 0
M  V30 5879 C 541.92 4.16316 -2.41317 0
M  V30 5880 C 544.272 4.29776 -2.9486 0
M  V30 5881 C 541.6 4.54232 -3.71335 0
M  V30 5882 C 543.952 4.69146 -4.24364 0
M  V30 5883 C 542.616 4.80911 -4.62904 0
M  V30 5884 H 541.886 0.723088 -0.161941 0
M  V30 5885 H 544.533 1.58663 -1.0723 0
M  V30 5886 H 542.838 3.91681 0.0966812 0
M  V30 5887 H 544.535 3.99981 -0.285756 0
M  V30 5888 H 541.125 3.9268 -1.71756 0
M  V30 5889 H 545.309 4.18818 -2.6628 0
M  V30 5890 H 540.565 4.61535 -4.00993 0
M  V30 5891 H 544.739 4.89008 -4.95827 0
M  V30 5892 H 542.366 5.10048 -5.63698 0
M  V30 5893 N 543.941 0.601185 1.45683 0
M  V30 5894 C 545.169 0.100054 2.06658 0
M  V30 5895 C 545.584 -1.21285 1.44691 0
M  V30 5896 O 544.941 -1.73735 0.558772 0
M  V30 5897 C 544.992 -0.0528579 3.61461 0
M  V30 5898 O 544.713 1.20809 4.21114 0
M  V30 5899 C 546.214 -0.586193 4.39407 0
M  V30 5900 H 543.434 0.065905 0.667756 0
M  V30 5901 H 545.978 0.827101 1.87028 0
M  V30 5902 H 544.133 -0.730203 3.80456 0
M  V30 5903 H 544.547 1.03368 5.14213 0
M  V30 5904 H 546.021 -0.642297 5.4825 0
M  V30 5905 H 546.498 -1.60713 4.0874 0
M  V30 5906 H 547.104 0.0568935 4.25262 0
M  V30 5907 N 545.419 -1.53889 0.339982 0
M  V30 5908 C 546.351 -2.22435 -0.55275 0
M  V30 5909 C 547.364 -1.22975 -1.06681 0
M  V30 5910 O 548.553 -1.49351 -0.977575 0
M  V30 5911 C 545.653 -2.8882 -1.77302 0
M  V30 5912 C 544.826 -4.14563 -1.39486 0
M  V30 5913 C 543.885 -4.64391 -2.47442 0
M  V30 5914 O 542.911 -5.28687 -2.10899 0
M  V30 5915 N 544.113 -4.40015 -3.78639 0
M  V30 5916 H 546.878 -2.9968 0.0342669 0
M  V30 5917 H 544.439 -1.61068 0.16394 0
M  V30 5918 H 546.431 -3.19072 -2.48948 0
M  V30 5919 H 545.001 -2.15182 -2.26749 0
M  V30 5920 H 544.221 -3.90896 -0.509321 0
M  V30 5921 H 545.509 -4.96362 -1.11813 0
M  V30 5922 H 544.907 -3.88586 -4.11118 0
M  V30 5923 H 543.464 -4.74881 -4.46465 0
M  V30 5924 N 546.897 -0.0685191 -1.57451 0
M  V30 5925 C 547.86 0.885173 -2.11417 0
M  V30 5926 C 548.86 1.22853 -1.03748 0
M  V30 5927 O 550.05 1.16235 -1.2975 0
M  V30 5928 C 547.182 2.18964 -2.61281 0
M  V30 5929 H 548.375 0.417034 -2.96986 0
M  V30 5930 H 545.928 0.18014 -1.55258 0
M  V30 5931 H 546.663 2.70321 -1.79156 0
M  V30 5932 H 546.448 1.9534 -3.39977 0
M  V30 5933 H 547.938 2.87242 -3.0312 0
M  V30 5934 N 548.375 1.56261 0.205012 0
M  V30 5935 C 549.605 1.83874 0.942018 0
M  V30 5936 C 550.013 0.647595 1.77772 0
M  V30 5937 O 549.356 -0.393098 1.79445 0
M  V30 5938 C 549.418 3.05453 1.89575 0
M  V30 5939 C 549.082 4.39772 1.24296 0
M  V30 5940 C 550.079 5.16133 0.624724 0
M  V30 5941 C 547.764 4.86504 1.24978 0
M  V30 5942 C 549.758 6.37396 0.0220117 0
M  V30 5943 C 547.445 6.07705 0.643232 0
M  V30 5944 C 548.443 6.82993 0.0304164 0
M  V30 5945 O 548.131 8.019 -0.566654 0
M  V30 5946 H 547.863 0.614896 0.280854 0
M  V30 5947 H 550.417 2.04215 0.220285 0
M  V30 5948 H 548.647 2.80972 2.65691 0
M  V30 5949 H 550.336 3.19797 2.4997 0
M  V30 5950 H 551.102 4.81127 0.611666 0
M  V30 5951 H 546.981 4.27865 1.71616 0
M  V30 5952 H 550.525 6.96102 -0.456926 0
M  V30 5953 H 546.422 6.42181 0.653759 0
M  V30 5954 H 547.19 8.17192 -0.462588 0
M  V30 5955 N 549.853 -0.472356 1.50355 0
M  V30 5956 C 551.1 -1.22453 1.61281 0
M  V30 5957 C 551.428 -1.91972 0.31256 0
M  V30 5958 O 550.683 -1.82696 -0.701475 0
M  V30 5959 C 550.982 -2.29257 2.74182 0
M  V30 5960 C 550.648 -1.76999 4.14708 0
M  V30 5961 C 549.31 -1.62467 4.52944 0
M  V30 5962 C 551.662 -1.38215 5.0254 0
M  V30 5963 C 548.99 -1.07574 5.76754 0
M  V30 5964 C 551.342 -0.847638 6.26895 0
M  V30 5965 C 550.006 -0.688946 6.63935 0
M  V30 5966 H 549.276 -0.448087 0.590168 0
M  V30 5967 H 551.923 -0.520744 1.84284 0
M  V30 5968 H 550.228 -3.05538 2.45263 0
M  V30 5969 H 551.925 -2.87212 2.7984 0
M  V30 5970 H 548.515 -1.89276 3.84542 0
M  V30 5971 H 552.699 -1.48276 4.73633 0
M  V30 5972 H 547.955 -0.940237 6.04127 0
M  V30 5973 H 552.129 -0.538455 6.94315 0
M  V30 5974 H 549.756 -0.261435 7.5975 0
M  V30 5975 N 551.331 -1.39911 -0.725443 0
M  V30 5976 C 552.58 -1.36963 -1.48068 0
M  V30 5977 C 552.893 0.0284478 -1.95579 0
M  V30 5978 O 554.099 0.180535 -2.70899 0
M  V30 5979 C 552.555 -2.40664 -2.67598 0
M  V30 5980 C 552.163 -3.86234 -2.26997 0
M  V30 5981 C 553.907 -2.46807 -3.45379 0
M  V30 5982 C 551.814 -4.81554 -3.43307 0
M  V30 5983 H 550.744 -0.509223 -0.556065 0
M  V30 5984 H 553.395 -1.65602 -0.790454 0
M  V30 5985 H 551.777 -2.05109 -3.38742 0
M  V30 5986 H 552.951 -4.3088 -1.63337 0
M  V30 5987 H 551.266 -3.83475 -1.62284 0
M  V30 5988 H 553.863 -3.15213 -4.31909 0
M  V30 5989 H 554.206 -1.49552 -3.8851 0
M  V30 5990 H 554.739 -2.81303 -2.81271 0
M  V30 5991 H 551.478 -5.80106 -3.05217 0
M  V30 5992 H 550.998 -4.4158 -4.05915 0
M  V30 5993 H 552.677 -5.0091 -4.0951 0
M  V30 5994 N 552.809 0.956637 -1.25245 0
M  V30 5995 C 553.757 2.0743 -1.0524 0
M  V30 5996 C 554.751 1.69392 0.0160725 0
M  V30 5997 O 555.957 1.7946 -0.139382 0
M  V30 5998 H 552.332 0.678921 -0.323373 0
M  V30 5999 H 554.303 2.2146 -1.99995 0
M  V30 6000 C 553.052 3.40872 -0.685702 0
M  V30 6001 H 552.375 3.70607 -1.49968 0
M  V30 6002 H 553.815 4.19939 -0.585415 0
M  V30 6003 C 552.274 3.31367 0.608082 0
M  V30 6004 O 552.804 3.66214 1.65076 0
M  V30 6005 N 551.01 2.84486 0.592955 0
M  V30 6006 H 550.557 2.56326 -0.25592 0
M  V30 6007 H 550.515 2.78509 1.45877 0
M  V30 6008 N 554.287 1.06798 1.15896 0
M  V30 6009 C 555.533 0.798757 1.8706 0
M  V30 6010 C 555.888 -0.667739 1.80441 0
M  V30 6011 O 555.181 -1.48334 1.21274 0
M  V30 6012 C 555.375 1.23414 3.35416 0
M  V30 6013 C 555.204 2.74142 3.56478 0
M  V30 6014 C 553.974 3.41675 3.72272 0
M  V30 6015 C 556.172 3.72348 3.5477 0
M  V30 6016 N 554.154 4.81101 3.81333 0
M  V30 6017 C 555.525 4.97585 3.69877 0
M  V30 6018 C 557.58 3.65585 3.38011 0
M  V30 6019 C 556.283 6.16866 3.69959 0
M  V30 6020 C 558.309 4.84323 3.39389 0
M  V30 6021 C 557.671 6.08391 3.5502 0
M  V30 6022 H 553.77 0.344761 0.7019 0
M  V30 6023 H 556.354 1.36314 1.3902 0
M  V30 6024 H 554.525 0.697522 3.82085 0
M  V30 6025 H 556.257 0.91304 3.94266 0
M  V30 6026 H 553.012 2.92078 3.7281 0
M  V30 6027 H 553.436 5.53647 3.8962 0
M  V30 6028 H 558.078 2.70615 3.2485 0
M  V30 6029 H 555.796 7.12164 3.819 0
M  V30 6030 H 559.382 4.80762 3.27658 0
M  V30 6031 H 558.262 6.98731 3.56012 0
M  V30 6032 N 555.766 -1.3263 0.851289 0
M  V30 6033 C 557.043 -1.91982 0.374448 0
M  V30 6034 C 557.423 -1.77568 -1.14161 0
M  V30 6035 O 556.771 -1.1717 -1.96172 0
M  V30 6036 C 556.981 -3.38862 0.835088 0
M  V30 6037 C 558.329 -4.15999 0.850309 0
M  V30 6038 O 559.353 -3.47566 0.779505 0
M  V30 6039 O 558.212 -5.38189 0.949481 0
M  V30 6040 H 555.306 -0.819846 0.10854 0
M  V30 6041 H 557.852 -1.41422 0.937966 0
M  V30 6042 H 556.624 -3.43281 1.87814 0
M  V30 6043 H 556.247 -3.96821 0.248833 0
M  V30 6044 N 557.244 -0.608902 -1.45362 0
M  V30 6045 C 558.174 0.0964526 -2.33301 0
M  V30 6046 C 559.155 0.857444 -1.46908 0
M  V30 6047 O 560.34 0.827735 -1.75676 0
M  V30 6048 C 557.47 1.09354 -3.29635 0
M  V30 6049 C 556.424 0.445676 -4.25673 0
M  V30 6050 C 555.75 1.5511 -5.11708 0
M  V30 6051 C 557.05 -0.633972 -5.18438 0
M  V30 6052 H 558.744 -0.637829 -2.92527 0
M  V30 6053 H 556.29 -0.308178 -1.40664 0
M  V30 6054 H 558.243 1.59556 -3.90025 0
M  V30 6055 H 556.967 1.85843 -2.6857 0
M  V30 6056 H 555.626 -0.0354897 -3.66583 0
M  V30 6057 H 555.274 2.30631 -4.4701 0
M  V30 6058 H 554.974 1.12311 -5.76767 0
M  V30 6059 H 556.498 2.05537 -5.74967 0
M  V30 6060 H 557.912 -0.215974 -5.72893 0
M  V30 6061 H 556.309 -0.983789 -5.91981 0
M  V30 6062 H 557.379 -1.51005 -4.60788 0
M  V30 6063 N 558.722 1.53707 -0.348139 0
M  V30 6064 C 559.999 1.93247 0.302475 0
M  V30 6065 C 560.379 1.28012 1.67857 0
M  V30 6066 O 559.727 0.43274 2.24365 0
M  V30 6067 C 559.937 3.47031 0.370159 0
M  V30 6068 C 561.285 4.20066 0.61882 0
M  V30 6069 O 562.309 3.53319 0.452087 0
M  V30 6070 O 561.168 5.38318 0.94215 0
M  V30 6071 H 558.262 0.807736 0.177458 0
M  V30 6072 H 560.808 1.64927 -0.399651 0
M  V30 6073 H 559.58 3.86745 -0.59534 0
M  V30 6074 H 559.203 3.81532 1.11888 0
M  V30 6075 N 560.2 0.0768682 1.57412 0
M  V30 6076 C 561.133 -0.924685 2.08626 0
M  V30 6077 C 562.111 -1.28792 0.992542 0
M  V30 6078 O 563.295 -1.39634 1.26628 0
M  V30 6079 C 560.422 -2.23131 2.54814 0
M  V30 6080 C 559.468 -2.01928 3.75669 0
M  V30 6081 S 560.301 -1.27397 5.20125 0
M  V30 6082 C 561.457 -2.59329 5.69648 0
M  V30 6083 H 561.69 -0.488928 2.93252 0
M  V30 6084 H 559.223 -0.136014 1.538 0
M  V30 6085 H 561.181 -2.98226 2.82084 0
M  V30 6086 H 559.842 -2.63831 1.70447 0
M  V30 6087 H 559.035 -2.98639 4.05993 0
M  V30 6088 H 558.637 -1.34967 3.48798 0
M  V30 6089 H 560.929 -3.55394 5.76803 0
M  V30 6090 H 561.872 -2.33608 6.68456 0
M  V30 6091 H 562.28 -2.66767 4.9749 0
M  V30 6092 N 561.678 -1.56367 -0.196722 0
M  V30 6093 C 562.628 -1.9082 -1.24787 0
M  V30 6094 C 563.612 -0.773719 -1.41076 0
M  V30 6095 O 564.804 -1.03655 -1.43474 0
M  V30 6096 C 561.933 -2.24982 -2.59303 0
M  V30 6097 C 561.019 -3.44882 -2.46814 0
M  V30 6098 N 561.41 -4.62835 -2.04003 0
M  V30 6099 C 559.708 -3.48988 -2.77711 0
M  V30 6100 C 560.409 -5.44993 -2.03366 0
M  V30 6101 N 559.385 -4.85356 -2.44807 0
M  V30 6102 H 563.187 -2.79516 -0.908175 0
M  V30 6103 H 560.701 -1.57265 -0.405166 0
M  V30 6104 H 562.698 -2.47848 -3.35227 0
M  V30 6105 H 561.358 -1.37611 -2.94098 0
M  V30 6106 H 562.369 -4.87532 -1.74738 0
M  V30 6107 H 559.046 -2.72029 -3.16712 0
M  V30 6108 H 560.436 -6.49464 -1.72181 0
M  V30 6109 N 563.156 0.464375 -1.50603 0
M  V30 6110 C 564.386 1.23727 -1.65454 0
M  V30 6111 C 564.794 1.86119 -0.340032 0
M  V30 6112 O 564.137 1.70301 0.688706 0
M  V30 6113 C 564.199 2.38153 -2.69301 0
M  V30 6114 C 563.863 1.96345 -4.12671 0
M  V30 6115 C 564.86 1.48215 -4.98326 0
M  V30 6116 C 562.545 2.04861 -4.58625 0
M  V30 6117 C 564.539 1.09152 -6.27985 0
M  V30 6118 C 562.226 1.65409 -5.88288 0
M  V30 6119 C 563.224 1.17634 -6.72794 0
M  V30 6120 O 562.912 0.787312 -8.00035 0
M  V30 6121 H 562.644 0.380075 -0.559034 0
M  V30 6122 H 565.198 0.559919 -1.97621 0
M  V30 6123 H 563.428 3.09081 -2.32392 0
M  V30 6124 H 565.117 3.00099 -2.73304 0
M  V30 6125 H 565.883 1.41052 -4.64036 0
M  V30 6126 H 561.762 2.40996 -3.92991 0
M  V30 6127 H 565.306 0.717909 -6.93896 0
M  V30 6128 H 561.203 1.72233 -6.22098 0
M  V30 6129 H 561.971 0.915567 -8.13363 0
M  V30 6130 N 564.634 1.40294 0.718013 0
M  V30 6131 C 565.544 1.42678 1.86226 0
M  V30 6132 C 566.56 0.319655 1.71039 0
M  V30 6133 O 567.736 0.563852 1.93346 0
M  V30 6134 C 564.801 1.2852 3.21999 0
M  V30 6135 C 563.862 2.49354 3.49458 0
M  V30 6136 C 563.095 2.35863 4.78753 0
M  V30 6137 O 563.318 1.37114 5.53675 0
M  V30 6138 O 562.252 3.25189 5.06494 0
M  V30 6139 H 566.078 2.39167 1.87171 0
M  V30 6140 H 563.663 1.2159 0.868112 0
M  V30 6141 H 565.545 1.22824 4.03103 0
M  V30 6142 H 564.22 0.351359 3.21787 0
M  V30 6143 H 563.127 2.60628 2.68373 0
M  V30 6144 H 564.46 3.41491 3.54464 0
M  V30 6145 N 566.112 -0.949982 1.2575 0
M  V30 6146 C 567.523 -1.50989 1.09815 0
M  V30 6147 C 567.874 -1.93497 -0.324556 0
M  V30 6148 O 566.999 -1.79068 -1.21506 0
M  V30 6149 C 567.594 -2.74394 1.98729 0
M  V30 6150 C 566.153 -3.26682 1.86965 0
M  V30 6151 C 565.3 -1.99498 1.92603 0
M  V30 6152 H 568.251 -0.766387 1.38968 0
M  V30 6153 H 568.272 -3.48383 1.53001 0
M  V30 6154 H 567.784 -2.43425 3.02268 0
M  V30 6155 H 565.885 -3.62461 0.863279 0
M  V30 6156 H 565.998 -3.94383 2.72027 0
M  V30 6157 H 564.362 -2.15005 1.36546 0
M  V30 6158 H 565.145 -1.70871 2.97755 0
M  V30 6159 N 567.59 -1.07411 -1.15328 0
M  V30 6160 C 568.818 -0.818782 -1.90009 0
M  V30 6161 C 569.233 0.628072 -1.78047 0
M  V30 6162 O 568.59 1.43085 -1.13282 0
M  V30 6163 C 568.641 -1.21874 -3.40337 0
M  V30 6164 O 568.362 -2.60883 -3.51954 0
M  V30 6165 C 569.863 -0.992796 -4.3204 0
M  V30 6166 H 567.083 -0.296007 -0.60218 0
M  V30 6167 H 569.627 -1.43073 -1.46117 0
M  V30 6168 H 567.782 -0.651103 -3.81889 0
M  V30 6169 H 568.196 -2.77216 -4.45255 0
M  V30 6170 H 569.67 -1.32215 -5.35932 0
M  V30 6171 H 570.147 0.0708331 -4.39143 0
M  V30 6172 H 570.753 -1.54537 -3.9623 0
M  V30 6173 N 569.068 1.32177 -0.85831 0
M  V30 6174 C 570.345 1.91781 -0.384624 0
M  V30 6175 C 570.725 1.78171 1.13217 0
M  V30 6176 O 570.073 1.18209 1.95548 0
M  V30 6177 C 570.283 3.38414 -0.853047 0
M  V30 6178 C 571.631 4.15542 -0.872359 0
M  V30 6179 O 572.655 3.47148 -0.797926 0
M  V30 6180 O 571.514 5.37678 -0.978009 0
M  V30 6181 H 568.608 0.819259 -0.112886 0
M  V30 6182 H 571.154 1.40923 -0.945453 0
M  V30 6183 H 569.926 3.4228 -1.89632 0
M  V30 6184 H 569.549 3.96683 -0.269874 0
M  V30 6185 N 570.547 0.616602 1.45037 0
M  V30 6186 C 571.775 0.121968 2.0654 0
M  V30 6187 C 572.19 -1.19743 1.45969 0
M  V30 6188 O 571.547 -1.73133 0.577168 0
M  V30 6189 C 571.598 -0.0145171 3.61497 0
M  V30 6190 O 571.319 1.25269 4.19809 0
M  V30 6191 C 572.82 -0.539555 4.40004 0
M  V30 6192 H 570.04 0.0729837 0.667019 0
M  V30 6193 H 572.584 0.846891 1.8614 0
M  V30 6194 H 570.739 -0.689809 3.81209 0
M  V30 6195 H 571.153 1.08816 5.13088 0
M  V30 6196 H 572.627 -0.584112 5.48901 0
M  V30 6197 H 573.104 -1.56368 4.10421 0
M  V30 6198 H 573.71 0.101995 4.25178 0
M  V30 6199 N 572.025 -1.5352 0.356285 0
M  V30 6200 C 572.988 -2.24071 -0.482182 0
M  V30 6201 C 573.988 -1.24531 -1.01729 0
M  V30 6202 O 575.178 -1.48876 -0.904513 0
M  V30 6203 C 572.31 -2.97025 -1.67299 0
M  V30 6204 H 573.503 -2.99596 0.135031 0
M  V30 6205 H 571.056 -1.55928 0.107825 0
M  V30 6206 H 571.791 -2.25719 -2.32855 0
M  V30 6207 H 571.576 -3.7005 -1.29636 0
M  V30 6208 H 573.066 -3.50683 -2.26741 0
M  V30 6209 N 573.503 -0.0852151 -1.57369 0
M  V30 6210 C 574.466 0.8627 -2.12344 0
M  V30 6211 C 575.466 1.21746 -1.05046 0
M  V30 6212 O 576.656 1.14852 -1.30976 0
M  V30 6213 C 573.788 2.1618 -2.63589 0
M  V30 6214 H 574.981 0.385511 -2.97412 0
M  V30 6215 H 572.534 0.163663 -1.55441 0
M  V30 6216 H 573.269 2.68406 -1.82013 0
M  V30 6217 H 573.054 1.91723 -3.4203 0
M  V30 6218 H 574.544 2.84011 -3.06149 0
M  V30 6219 N 574.981 1.5647 0.188427 0
M  V30 6220 C 575.914 1.90146 1.26173 0
M  V30 6221 C 576.892 0.762294 1.43624 0
M  V30 6222 O 578.076 1.01395 1.58907 0
M  V30 6223 C 575.203 2.13748 2.62735 0
M  V30 6224 C 574.249 3.36448 2.62116 0
M  V30 6225 S 575.082 4.91364 2.12889 0
M  V30 6226 C 576.238 5.18041 3.51261 0
M  V30 6227 H 576.471 2.80886 0.974192 0
M  V30 6228 H 574.004 1.49335 0.392226 0
M  V30 6229 H 575.962 2.28028 3.41341 0
M  V30 6230 H 574.623 1.23747 2.88696 0
M  V30 6231 H 573.816 3.50109 3.62546 0
M  V30 6232 H 573.418 3.21196 1.91596 0
M  V30 6233 H 575.71 5.0897 4.47164 0
M  V30 6234 H 576.653 6.19764 3.42489 0
M  V30 6235 H 577.061 4.45657 3.46482 0
M  V30 6236 N 576.459 -0.456382 1.50847 0
M  V30 6237 C 577.422 -1.53493 1.70213 0
M  V30 6238 C 578.422 -1.50264 0.572481 0
M  V30 6239 O 579.612 -1.52623 0.839751 0
M  V30 6240 C 576.744 -2.93091 1.741 0
M  V30 6241 H 577.937 -1.37633 2.66453 0
M  V30 6242 H 575.49 -0.683776 1.4055 0
M  V30 6243 H 576.225 -3.14378 0.796063 0
M  V30 6244 H 576.01 -2.9684 2.5618 0
M  V30 6245 H 577.5 -3.71368 1.90987 0
M  V30 6246 N 577.937 -1.40673 -0.710563 0
M  V30 6247 C 579.353 -1.22813 -1.01928 0
M  V30 6248 C 579.553 -0.10687 -2.01216 0
M  V30 6249 O 578.609 0.533614 -2.46797 0
M  V30 6250 C 579.922 -2.57178 -1.5582 0
M  V30 6251 C 581.47 -2.64233 -1.67779 0
M  V30 6252 C 581.945 -3.98879 -2.25076 0
M  V30 6253 N 583.436 -4.00647 -2.32456 0
M  V30 6254 C 584.171 -5.01621 -2.77784 0
M  V30 6255 N 583.667 -6.12989 -3.22826 0
M  V30 6256 N 585.46 -4.88988 -2.77213 0
M  V30 6257 H 577.611 -2.12335 -0.05253 0
M  V30 6258 H 579.874 -0.9441 -0.085898 0
M  V30 6259 H 579.58 -3.39903 -0.903249 0
M  V30 6260 H 579.454 -2.78618 -2.54267 0
M  V30 6261 H 581.841 -1.81876 -2.3239 0
M  V30 6262 H 581.922 -2.46619 -0.679178 0
M  V30 6263 H 581.566 -4.81678 -1.61086 0
M  V30 6264 H 581.496 -4.13826 -3.25661 0
M  V30 6265 H 583.987 -3.20231 -2.0065 0
M  V30 6266 H 584.3 -6.85921 -3.55995 0
M  V30 6267 H 582.645 -6.16547 -3.20773 0
M  V30 6268 H 585.836 -4.01075 -2.41363 0
M  V30 6269 H 586.009 -5.67822 -3.12221 0
M  V30 6270 N 579.415 0.9433 -1.26252 0
M  V30 6271 C 580.643 1.72367 -1.14443 0
M  V30 6272 C 581.058 1.86392 0.300572 0
M  V30 6273 O 580.415 1.36978 1.20596 0
M  V30 6274 C 580.466 3.13155 -1.806 0
M  V30 6275 O 580.187 2.99803 -3.19452 0
M  V30 6276 C 581.688 4.07417 -1.74717 0
M  V30 6277 H 578.908 0.539758 -0.398626 0
M  V30 6278 H 581.452 1.18268 -1.66832 0
M  V30 6279 H 579.607 3.64162 -1.32154 0
M  V30 6280 H 580.021 3.88697 -3.52158 0
M  V30 6281 H 581.495 5.03773 -2.25647 0
M  V30 6282 H 581.972 4.3337 -0.713244 0
M  V30 6283 H 582.578 3.6233 -2.22704 0
M  V30 6284 N 580.893 1.08022 1.14757 0
M  V30 6285 C 582.118 0.82895 1.90114 0
M  V30 6286 C 582.543 -0.612772 1.77839 0
M  V30 6287 O 581.901 -1.42895 1.11583 0
M  V30 6288 C 581.949 1.25062 3.38219 0
M  V30 6289 O 581.053 0.400119 4.10454 0
M  V30 6290 H 580.394 0.301412 0.591648 0
M  V30 6291 H 582.924 1.44062 1.45284 0
M  V30 6292 H 582.934 1.22977 3.89025 0
M  V30 6293 H 581.609 2.30067 3.46471 0
M  V30 6294 H 580.186 0.484052 3.69745 0
M  V30 6295 N 582.371 -1.3172 0.865308 0
M  V30 6296 C 583.319 -2.30569 0.306674 0
M  V30 6297 C 584.313 -1.59317 -0.575724 0
M  V30 6298 O 585.519 -1.73961 -0.462343 0
M  V30 6299 H 581.894 -0.747681 0.0804834 0
M  V30 6300 H 583.865 -2.75165 1.15441 0
M  V30 6301 C 582.614 -3.44358 -0.480952 0
M  V30 6302 H 581.937 -3.99354 0.18876 0
M  V30 6303 H 583.377 -4.15652 -0.837241 0
M  V30 6304 C 581.836 -2.92574 -1.67039 0
M  V30 6305 O 582.366 -2.90954 -2.76964 0
M  V30 6306 N 580.572 -2.48835 -1.50097 0
M  V30 6307 H 580.119 -2.50353 -0.606738 0
M  V30 6308 H 580.077 -2.14543 -2.29823 0
M  V30 6309 N 583.85 -0.624285 -1.44708 0
M  V30 6310 C 584.779 0.0717025 -2.3339 0
M  V30 6311 C 585.76 0.841814 -1.47809 0
M  V30 6312 O 586.946 0.809056 -1.76544 0
M  V30 6313 C 584.076 1.05852 -3.30776 0
M  V30 6314 C 583.029 0.400503 -4.26122 0
M  V30 6315 C 582.356 1.49674 -5.13324 0
M  V30 6316 C 583.656 -0.688924 -5.17737 0
M  V30 6317 H 585.35 -0.668819 -2.91834 0
M  V30 6318 H 582.896 -0.32308 -1.40329 0
M  V30 6319 H 584.849 1.5541 -3.91696 0
M  V30 6320 H 583.572 1.82984 -2.70526 0
M  V30 6321 H 582.231 -0.0743687 -3.66525 0
M  V30 6322 H 581.88 2.25877 -4.49431 0
M  V30 6323 H 581.58 1.06188 -5.77926 0
M  V30 6324 H 583.104 1.99427 -5.77115 0
M  V30 6325 H 584.518 -0.276724 -5.72632 0
M  V30 6326 H 582.915 -1.04652 -5.90904 0
M  V30 6327 H 583.985 -1.55884 -4.5916 0
M  V30 6328 N 585.328 1.53329 -0.364422 0
M  V30 6329 C 586.276 2.27212 0.497737 0
M  V30 6330 C 587.27 1.30146 1.08437 0
M  V30 6331 O 588.476 1.47778 1.0277 0
M  V30 6332 H 584.851 0.730329 0.179232 0
M  V30 6333 H 586.822 2.98037 -0.147182 0
M  V30 6334 C 585.571 3.07333 1.6261 0
M  V30 6335 H 584.894 3.81866 1.184 0
M  V30 6336 H 586.334 3.62209 2.20409 0
M  V30 6337 C 584.793 2.18102 2.56775 0
M  V30 6338 O 585.323 1.79104 3.59562 0
M  V30 6339 N 583.529 1.82759 2.25937 0
M  V30 6340 H 583.076 2.14671 1.42387 0
M  V30 6341 H 583.034 1.23342 2.89196 0
M  V30 6342 N 586.806 0.0935595 1.57322 0
M  V30 6343 C 587.716 -0.880192 2.17462 0
M  V30 6344 C 588.732 -1.31135 1.14366 0
M  V30 6345 O 589.908 -1.37958 1.46729 0
M  V30 6346 C 586.973 -2.12184 2.74188 0
M  V30 6347 C 586.034 -1.74503 3.92234 0
M  V30 6348 C 585.267 -2.92748 4.46245 0
M  V30 6349 O 585.49 -4.07427 3.99198 0
M  V30 6350 O 584.424 -2.71303 5.37288 0
M  V30 6351 H 588.25 -0.398516 3.01074 0
M  V30 6352 H 585.835 -0.130707 1.48827 0
M  V30 6353 H 587.717 -2.84953 3.10451 0
M  V30 6354 H 586.392 -2.59407 1.93623 0
M  V30 6355 H 585.299 -0.989186 3.60785 0
M  V30 6356 H 586.632 -1.32044 4.74157 0
M  V30 6357 N 588.284 -1.56567 -0.180126 0
M  V30 6358 C 589.194 -1.98947 -1.24327 0
M  V30 6359 C 590.21 -0.899446 -1.4895 0
M  V30 6360 O 591.386 -1.20639 -1.61271 0
M  V30 6361 C 588.451 -2.33328 -2.56435 0
M  V30 6362 C 587.512 -3.56114 -2.39752 0
M  V30 6363 C 586.745 -3.88845 -3.65561 0
M  V30 6364 O 586.968 -3.22662 -4.70368 0
M  V30 6365 O 585.902 -4.82226 -3.60197 0
M  V30 6366 H 589.728 -2.89634 -0.913565 0
M  V30 6367 H 587.313 -1.44319 -0.386306 0
M  V30 6368 H 589.195 -2.5645 -3.34382 0
M  V30 6369 H 587.87 -1.45806 -2.89002 0
M  V30 6370 H 586.777 -3.38221 -1.59866 0
M  V30 6371 H 588.11 -4.4415 -2.12113 0
M  V30 6372 N 589.762 0.448376 -1.51087 0
M  V30 6373 C 590.692 1.55102 -1.74544 0
M  V30 6374 C 591.673 1.59357 -0.594932 0
M  V30 6375 O 592.858 1.75261 -0.836491 0
M  V30 6376 C 589.988 2.93268 -1.86041 0
M  V30 6377 C 588.942 3.03877 -3.01402 0
M  V30 6378 C 588.268 4.43914 -2.98068 0
M  V30 6379 C 589.568 2.7898 -4.41551 0
M  V30 6380 H 591.262 1.35724 -2.66869 0
M  V30 6381 H 588.808 0.651498 -1.28419 0
M  V30 6382 H 590.761 3.70356 -2.01034 0
M  V30 6383 H 589.485 3.13853 -0.903548 0
M  V30 6384 H 588.144 2.29227 -2.86096 0
M  V30 6385 H 587.792 4.6145 -2.00182 0
M  V30 6386 H 587.492 4.51944 -3.75527 0
M  V30 6387 H 589.016 5.22991 -3.1514 0
M  V30 6388 H 590.43 3.45805 -4.57265 0
M  V30 6389 H 588.827 2.98431 -5.20633 0
M  V30 6390 H 589.897 1.74663 -4.5235 0
M  V30 6391 N 591.24 1.41047 0.703093 0
M  V30 6392 C 592.488 1.39723 1.4602 0
M  V30 6393 C 592.809 0.00461257 1.94999 0
M  V30 6394 O 592.079 -0.952292 1.71196 0
M  V30 6395 H 590.659 0.514281 0.541779 0
M  V30 6396 H 593.321 1.76217 0.832678 0
M  V30 6397 H 592.417 2.07982 2.32701 0
M  V30 6398 N 592.718 -0.936591 1.26751 0
M  V30 6399 C 593.65 -2.03991 1.045 0
M  V30 6400 C 594.663 -1.628 0.00394261 0
M  V30 6401 O 595.852 -1.76817 0.244526 0
M  V30 6402 C 592.952 -3.34218 0.561403 0
M  V30 6403 C 592.125 -4.04151 1.67274 0
M  V30 6404 C 591.184 -5.12651 1.1864 0
M  V30 6405 O 590.21 -5.37104 1.88437 0
M  V30 6406 N 591.412 -5.80488 0.037278 0
M  V30 6407 H 594.177 -2.23644 1.99508 0
M  V30 6408 H 591.738 -1.10638 1.18198 0
M  V30 6409 H 593.73 -4.04101 0.220136 0
M  V30 6410 H 592.3 -3.11203 -0.295211 0
M  V30 6411 H 591.52 -3.28121 2.18472 0
M  V30 6412 H 592.808 -4.47626 2.41885 0
M  V30 6413 H 592.206 -5.63064 -0.545494 0
M  V30 6414 H 590.763 -6.5134 -0.244877 0
M  V30 6415 N 594.196 -1.08629 -1.14182 0
M  V30 6416 C 595.442 -0.818556 -1.85546 0
M  V30 6417 C 595.775 0.654076 -1.82854 0
M  V30 6418 O 595.05 1.48099 -1.26083 0
M  V30 6419 C 595.333 -1.34397 -3.3408 0
M  V30 6420 C 595.186 -2.8821 -3.45333 0
M  V30 6421 C 596.505 -0.971069 -4.29253 0
M  V30 6422 H 593.624 -0.298821 -0.673702 0
M  V30 6423 H 596.266 -1.34629 -1.34071 0
M  V30 6424 H 594.416 -0.895064 -3.78049 0
M  V30 6425 H 596.088 -3.41488 -3.10134 0
M  V30 6426 H 594.331 -3.25756 -2.86471 0
M  V30 6427 H 595.002 -3.20047 -4.49749 0
M  V30 6428 H 597.478 -1.35809 -3.93313 0
M  V30 6429 H 596.354 -1.36586 -5.31635 0
M  V30 6430 H 596.615 0.121659 -4.41933 0
M  V30 6431 N 595.674 1.31259 -0.872281 0
M  V30 6432 C 596.621 2.28459 -0.327857 0
M  V30 6433 C 597.591 1.55831 0.574957 0
M  V30 6434 O 598.776 1.83965 0.506101 0
M  V30 6435 C 595.916 3.41985 0.462644 0
M  V30 6436 C 595.029 4.29458 -0.467949 0
M  V30 6437 C 594.164 5.30131 0.336903 0
M  V30 6438 C 593.203 6.0925 -0.58997 0
M  V30 6439 N 592.34 7.01872 0.178775 0
M  V30 6440 H 597.18 2.74414 -1.16193 0
M  V30 6441 H 594.717 1.34994 -0.584376 0
M  V30 6442 H 596.675 4.06547 0.936759 0
M  V30 6443 H 595.305 2.97134 1.2614 0
M  V30 6444 H 594.357 3.65318 -1.06052 0
M  V30 6445 H 595.669 4.84677 -1.17856 0
M  V30 6446 H 594.823 6.0038 0.873427 0
M  V30 6447 H 593.562 4.75573 1.08079 0
M  V30 6448 H 592.567 5.37889 -1.13823 0
M  V30 6449 H 593.792 6.65894 -1.33275 0
M  V30 6450 H 591.738 6.49721 0.905435 0
M  V30 6451 H 591.655 7.54522 -0.472452 0
M  V30 6452 H 592.923 7.76382 0.696454 0
M  V30 6453 N 597.152 0.631951 1.44375 0
M  V30 6454 C 598.382 0.143658 2.061 0
M  V30 6455 C 598.79 -1.18733 1.47306 0
M  V30 6456 O 598.133 -1.73943 0.590724 0
M  V30 6457 C 598.195 -0.0446102 3.59472 0
M  V30 6458 C 597.859 1.20835 4.40736 0
M  V30 6459 C 598.856 2.13224 4.74164 0
M  V30 6460 C 596.541 1.44399 4.81097 0
M  V30 6461 C 598.535 3.27487 5.46838 0
M  V30 6462 C 596.222 2.58959 5.53519 0
M  V30 6463 C 597.22 3.50329 5.86309 0
M  V30 6464 O 596.908 4.62891 6.57257 0
M  V30 6465 H 596.64 0.0772939 0.671567 0
M  V30 6466 H 599.194 0.866677 1.8622 0
M  V30 6467 H 597.424 -0.822783 3.77845 0
M  V30 6468 H 599.113 -0.487561 4.02961 0
M  V30 6469 H 599.879 1.96253 4.4352 0
M  V30 6470 H 595.758 0.741696 4.54994 0
M  V30 6471 H 599.302 3.98826 5.72349 0
M  V30 6472 H 595.199 2.75873 5.83579 0
M  V30 6473 H 595.967 4.61883 6.75726 0
M  V30 6474 N 598.631 -1.53133 0.372548 0
M  V30 6475 C 599.88 -2.00539 -0.216115 0
M  V30 6476 C 600.193 -1.26374 -1.49295 0
M  V30 6477 O 601.399 -1.64404 -2.16064 0
M  V30 6478 C 599.855 -3.57253 -0.435678 0
M  V30 6479 C 599.463 -4.40302 0.82693 0
M  V30 6480 C 601.207 -4.12995 -0.981618 0
M  V30 6481 C 599.114 -5.88583 0.576567 0
M  V30 6482 H 598.044 -0.749246 -0.084536 0
M  V30 6483 H 600.695 -1.76771 0.492364 0
M  V30 6484 H 599.077 -3.77202 -1.20559 0
M  V30 6485 H 600.251 -4.32124 1.60017 0
M  V30 6486 H 598.566 -3.95699 1.29659 0
M  V30 6487 H 601.163 -5.21418 -1.18436 0
M  V30 6488 H 601.506 -3.68027 -1.94581 0
M  V30 6489 H 602.039 -3.96871 -0.271696 0
M  V30 6490 H 598.778 -6.37841 1.51128 0
M  V30 6491 H 598.298 -5.99592 -0.158047 0
M  V30 6492 H 599.977 -6.46676 0.204722 0
M  V30 6493 N 600.109 -0.101901 -1.5727 0
M  V30 6494 C 601.356 0.560197 -1.94597 0
M  V30 6495 C 601.684 1.67767 -0.984101 0
M  V30 6496 O 600.939 1.95699 -0.00489193 0
M  V30 6497 C 601.238 1.14898 -3.38427 0
M  V30 6498 C 600.904 0.154613 -4.50635 0
M  V30 6499 C 599.566 -0.118861 -4.81053 0
M  V30 6500 C 601.918 -0.523979 -5.18559 0
M  V30 6501 C 599.246 -1.0775 -5.76721 0
M  V30 6502 C 601.598 -1.47114 -6.15256 0
M  V30 6503 C 600.262 -1.75278 -6.44076 0
M  V30 6504 H 599.532 0.204991 -0.712081 0
M  V30 6505 H 602.179 -0.17918 -1.9066 0
M  V30 6506 H 600.484 1.96476 -3.38976 0
M  V30 6507 H 602.181 1.66909 -3.64613 0
M  V30 6508 H 598.771 0.377948 -4.2693 0
M  V30 6509 H 602.955 -0.325851 -4.95229 0
M  V30 6510 H 598.211 -1.30263 -5.97362 0
M  V30 6511 H 602.385 -2.00274 -6.66981 0
M  V30 6512 H 600.012 -2.49717 -7.18015 0
M  V30 6513 N 601.587 1.56661 0.17182 0
M  V30 6514 C 602.812 1.86459 0.908165 0
M  V30 6515 C 603.237 0.688181 1.75059 0
M  V30 6516 O 602.595 -0.362753 1.77634 0
M  V30 6517 C 602.643 3.14669 1.76112 0
M  V30 6518 O 601.747 2.96858 2.86268 0
M  V30 6519 H 601.088 0.613318 0.254434 0
M  V30 6520 H 603.618 2.03892 0.170113 0
M  V30 6521 H 603.628 3.46061 2.16115 0
M  V30 6522 H 602.303 3.99905 1.14233 0
M  V30 6523 H 600.88 2.76819 2.49852 0
M  V30 6524 N 603.065 -0.440357 1.51323 0
M  V30 6525 C 604.342 -1.20109 1.5438 0
M  V30 6526 C 604.722 -2.08866 0.306303 0
M  V30 6527 O 604.07 -2.1723 -0.708773 0
M  V30 6528 C 604.28 -2.00555 2.8562 0
M  V30 6529 C 605.628 -2.577 3.37455 0
M  V30 6530 O 606.652 -2.10769 2.8715 0
M  V30 6531 O 605.511 -3.43289 4.25224 0
M  V30 6532 H 602.605 -0.546668 0.620551 0
M  V30 6533 H 605.151 -0.449672 1.63634 0
M  V30 6534 H 603.923 -1.35346 3.67147 0
M  V30 6535 H 603.546 -2.82768 2.79514 0
M  V30 6536 N 604.543 -1.41418 -0.695603 0
M  V30 6537 C 605.49 -1.43264 -1.80954 0
M  V30 6538 C 606.46 -0.287016 -1.63601 0
M  V30 6539 O 607.645 -0.488054 -1.84452 0
M  V30 6540 C 604.785 -1.32054 -3.18835 0
M  V30 6541 C 603.898 -2.56485 -3.4762 0
M  V30 6542 C 603.033 -2.3757 -4.75115 0
M  V30 6543 C 602.072 -3.57477 -4.96867 0
M  V30 6544 N 601.209 -3.37632 -6.15588 0
M  V30 6545 H 606.049 -2.38467 -1.78711 0
M  V30 6546 H 603.586 -1.18415 -0.872715 0
M  V30 6547 H 605.544 -1.23558 -3.98484 0
M  V30 6548 H 604.174 -0.404592 -3.20254 0
M  V30 6549 H 603.226 -2.75432 -2.62376 0
M  V30 6550 H 604.538 -3.45678 -3.59594 0
M  V30 6551 H 603.692 -2.2654 -5.62818 0
M  V30 6552 H 602.431 -1.45834 -4.65386 0
M  V30 6553 H 601.436 -3.68961 -4.07612 0
M  V30 6554 H 602.661 -4.50167 -5.08455 0
M  V30 6555 H 600.607 -2.48596 -6.07072 0
M  V30 6556 H 600.524 -4.20401 -6.2833 0
M  V30 6557 H 601.792 -3.30375 -7.06026 0
M  V30 6558 N 606.021 0.929856 -1.27246 0
M  V30 6559 C 607.249 1.71144 -1.16265 0
M  V30 6560 C 607.664 1.867 0.280786 0
M  V30 6561 O 607.021 1.38249 1.19136 0
M  V30 6562 C 607.072 3.11222 -1.83911 0
M  V30 6563 O 606.793 2.96398 -3.22614 0
M  V30 6564 C 608.294 4.05541 -1.79028 0
M  V30 6565 H 605.514 0.535499 -0.404328 0
M  V30 6566 H 608.058 1.16492 -1.68077 0
M  V30 6567 H 606.213 3.6274 -1.36009 0
M  V30 6568 H 606.627 3.8494 -3.56261 0
M  V30 6569 H 608.101 5.01351 -2.30978 0
M  V30 6570 H 608.578 4.32589 -0.759168 0
M  V30 6571 H 609.184 3.59947 -2.26535 0
M  V30 6572 N 607.499 1.09233 1.13605 0
M  V30 6573 C 608.747 0.825525 1.84471 0
M  V30 6574 C 609.068 -0.650702 1.83823 0
M  V30 6575 O 608.338 -1.47204 1.29259 0
M  V30 6576 H 606.918 0.3024 0.683054 0
M  V30 6577 H 609.58 1.38006 1.37624 0
M  V30 6578 H 608.676 1.17727 2.89045 0
M  V30 6579 N 608.977 -1.30795 0.87923 0
M  V30 6580 C 610.205 -2.00527 0.509548 0
M  V30 6581 C 610.62 -1.65944 -0.90045 0
M  V30 6582 O 609.977 -0.893525 -1.5913 0
M  V30 6583 C 610.028 -3.55276 0.667943 0
M  V30 6584 O 609.749 -3.88625 2.02242 0
M  V30 6585 C 611.25 -4.4228 0.300494 0
M  V30 6586 H 608.47 -0.641261 0.197549 0
M  V30 6587 H 611.014 -1.66813 1.18295 0
M  V30 6588 H 609.169 -3.87377 0.0419843 0
M  V30 6589 H 609.583 -4.83334 2.03688 0
M  V30 6590 H 611.057 -5.50061 0.462242 0
M  V30 6591 H 611.534 -4.32556 -0.76106 0
M  V30 6592 H 612.14 -4.15613 0.902536 0
M  V30 6593 N 610.455 -0.639598 -1.44038 0
M  V30 6594 C 611.385 0.0469443 -2.33453 0
M  V30 6595 C 612.366 0.82609 -1.48694 0
M  V30 6596 O 613.551 0.790285 -1.77393 0
M  V30 6597 C 610.681 1.02338 -3.3188 0
M  V30 6598 C 609.635 0.355284 -4.26523 0
M  V30 6599 C 608.961 1.44221 -5.14883 0
M  V30 6600 C 610.261 -0.743798 -5.16977 0
M  V30 6601 H 611.955 -0.699735 -2.91108 0
M  V30 6602 H 609.501 -0.337946 -1.39978 0
M  V30 6603 H 611.454 1.51247 -3.93322 0
M  V30 6604 H 610.178 1.80105 -2.72451 0
M  V30 6605 H 608.837 -0.113239 -3.66425 0
M  V30 6606 H 608.485 2.21097 -4.51802 0
M  V30 6607 H 608.185 1.00052 -5.79019 0
M  V30 6608 H 609.709 1.93295 -5.79197 0
M  V30 6609 H 611.123 -0.337444 -5.72306 0
M  V30 6610 H 609.52 -1.10914 -5.89761 0
M  V30 6611 H 610.59 -1.60745 -4.57481 0
M  V30 6612 N 611.933 1.52934 -0.380664 0
M  V30 6613 C 613.161 2.05886 0.204599 0
M  V30 6614 C 613.576 1.25305 1.41223 0
M  V30 6615 O 612.933 0.297504 1.80059 0
M  V30 6616 C 612.984 3.56764 0.583249 0
M  V30 6617 O 612.705 4.34292 -0.576398 0
M  V30 6618 C 614.206 4.2603 1.2253 0
M  V30 6619 H 611.426 0.670193 0.0328991 0
M  V30 6620 H 613.97 1.97148 -0.543397 0
M  V30 6621 H 612.125 3.65603 1.28115 0
M  V30 6622 H 612.539 5.23819 -0.267119 0
M  V30 6623 H 614.013 5.32868 1.44068 0
M  V30 6624 H 614.49 3.80698 2.19011 0
M  V30 6625 H 615.096 4.21485 0.568407 0
M  V30 6626 N 613.412 0.11024 1.57214 0
M  V30 6627 C 614.652 -0.553061 1.96775 0
M  V30 6628 C 615.016 -1.64403 0.991753 0
M  V30 6629 O 616.217 -2.36561 1.27642 0
M  V30 6630 C 614.488 -1.08004 3.4069 0
M  V30 6631 S 616.047 -1.75309 4.02259 0
M  V30 6632 H 612.865 -0.18003 0.68783 0
M  V30 6633 H 615.467 0.193242 1.94543 0
M  V30 6634 H 614.171 -0.274735 4.09479 0
M  V30 6635 H 613.702 -1.86182 3.46554 0
M  V30 6636 H 615.717 -3.03834 3.923 0
M  V30 6637 N 614.89 -1.56749 -0.16351 0
M  V30 6638 C 615.838 -1.97939 -1.22159 0
M  V30 6639 C 616.832 -0.869288 -1.45395 0
M  V30 6640 O 618.038 -1.05443 -1.45883 0
M  V30 6641 H 614.413 -0.629869 -0.410815 0
M  V30 6642 H 616.384 -2.86115 -0.847381 0
M  V30 6643 C 615.133 -2.36206 -2.55151 0
M  V30 6644 H 614.456 -3.2117 -2.38097 0
M  V30 6645 H 615.896 -2.68863 -3.27854 0
M  V30 6646 C 614.355 -1.20841 -3.14482 0
M  V30 6647 O 614.885 -0.500258 -3.98573 0
M  V30 6648 N 613.091 -0.976943 -2.73686 0
M  V30 6649 H 612.638 -1.55457 -2.05404 0
M  V30 6650 H 612.596 -0.206912 -3.13718 0
M  V30 6651 N 616.368 0.432326 -1.51554 0
M  V30 6652 C 617.614 1.18309 -1.64714 0
M  V30 6653 C 617.947 1.90745 -0.364696 0
M  V30 6654 O 617.222 1.8381 0.635936 0
M  V30 6655 C 617.505 2.1961 -2.85383 0
M  V30 6656 C 617.358 1.51223 -4.23617 0
M  V30 6657 C 618.677 3.20538 -3.01569 0
M  V30 6658 H 615.796 0.428751 -0.599451 0
M  V30 6659 H 618.438 0.471689 -1.84052 0
M  V30 6660 H 616.588 2.8028 -2.69027 0
M  V30 6661 H 618.26 0.938516 -4.51652 0
M  V30 6662 H 616.503 0.814501 -4.26085 0
M  V30 6663 H 617.174 2.25024 -5.04052 0
M  V30 6664 H 619.65 2.69926 -3.16669 0
M  V30 6665 H 618.526 3.88706 -3.87555 0
M  V30 6666 H 618.787 3.86933 -2.13859 0
M  V30 6667 N 617.846 1.41785 0.688094 0
M  V30 6668 C 618.779 1.38643 1.81255 0
M  V30 6669 C 619.757 0.252583 1.60626 0
M  V30 6670 O 620.941 0.440691 1.83276 0
M  V30 6671 C 618.068 1.16449 3.18053 0
M  V30 6672 C 617.114 2.32651 3.57457 0
M  V30 6673 S 617.947 3.95152 3.61407 0
M  V30 6674 C 619.103 3.75275 5.00919 0
M  V30 6675 H 619.336 2.33799 1.83644 0
M  V30 6676 H 616.869 1.28398 0.857513 0
M  V30 6677 H 618.827 1.0433 3.97021 0
M  V30 6678 H 617.488 0.229002 3.13264 0
M  V30 6679 H 616.681 2.12835 4.56856 0
M  V30 6680 H 616.283 2.41215 2.85817 0
M  V30 6681 H 618.575 3.35443 5.88629 0
M  V30 6682 H 619.518 4.74302 5.25778 0
M  V30 6683 H 619.926 3.08401 4.7281 0
M  V30 6684 N 619.324 -0.923095 1.27737 0
M  V30 6685 C 620.256 -2.02871 1.06658 0
M  V30 6686 C 621.269 -1.62786 0.0212095 0
M  V30 6687 O 622.458 -1.76548 0.263267 0
M  V30 6688 C 619.558 -3.33603 0.59682 0
M  V30 6689 C 618.731 -4.02354 1.71551 0
M  V30 6690 C 617.79 -5.11364 1.24071 0
M  V30 6691 O 616.816 -5.35075 1.94123 0
M  V30 6692 N 618.018 -5.80416 0.0988444 0
M  V30 6693 H 620.783 -2.21515 2.01869 0
M  V30 6694 H 618.344 -1.09378 1.19365 0
M  V30 6695 H 620.336 -4.03845 0.262984 0
M  V30 6696 H 618.906 -3.11499 -0.262187 0
M  V30 6697 H 618.126 -3.25786 2.2194 0
M  V30 6698 H 619.414 -4.45035 2.46619 0
M  V30 6699 H 618.812 -5.63611 -0.485743 0
M  V30 6700 H 617.369 -6.51563 -0.17578 0
M  V30 6701 N 620.802 -1.09834 -1.13024 0
M  V30 6702 C 622.049 -0.83695 -1.84395 0
M  V30 6703 C 622.377 0.637463 -1.83757 0
M  V30 6704 O 621.632 1.48554 -1.27398 0
M  V30 6705 C 621.931 -1.32263 -3.32026 0
M  V30 6706 C 621.597 -2.80739 -3.52841 0
M  V30 6707 C 620.259 -3.21286 -3.5823 0
M  V30 6708 C 622.611 -3.76449 -3.60466 0
M  V30 6709 C 619.939 -4.56308 -3.68781 0
M  V30 6710 C 622.291 -5.11266 -3.72546 0
M  V30 6711 C 620.955 -5.51397 -3.76189 0
M  V30 6712 H 620.225 -0.306262 -0.674748 0
M  V30 6713 H 622.872 -1.37385 -1.33408 0
M  V30 6714 H 621.177 -0.705618 -3.85394 0
M  V30 6715 H 622.874 -1.09695 -3.85705 0
M  V30 6716 H 619.464 -2.48363 -3.49305 0
M  V30 6717 H 623.648 -3.46234 -3.55578 0
M  V30 6718 H 618.904 -4.86832 -3.69871 0
M  V30 6719 H 623.078 -5.85279 -3.77388 0
M  V30 6720 H 620.705 -6.56017 -3.84117 0
M  V30 6721 N 622.28 1.30327 -0.886154 0
M  V30 6722 C 623.227 2.28099 -0.352069 0
M  V30 6723 C 624.197 1.56433 0.558397 0
M  V30 6724 O 625.382 1.84492 0.486561 0
M  V30 6725 C 622.522 3.42456 0.426346 0
M  V30 6726 C 621.635 4.28938 -0.513472 0
M  V30 6727 C 620.77 5.30458 0.280657 0
M  V30 6728 C 619.809 6.0859 -0.654556 0
M  V30 6729 N 618.946 7.02022 0.104322 0
M  V30 6730 H 623.786 2.73166 -1.19097 0
M  V30 6731 H 621.323 1.34367 -0.598662 0
M  V30 6732 H 623.281 4.07518 0.893587 0
M  V30 6733 H 621.911 2.98455 1.22981 0
M  V30 6734 H 620.963 3.64173 -1.09921 0
M  V30 6735 H 622.275 4.83399 -1.2299 0
M  V30 6736 H 621.429 6.01273 0.8097 0
M  V30 6737 H 620.168 4.76693 1.03029 0
M  V30 6738 H 619.173 5.36651 -1.19522 0
M  V30 6739 H 620.398 6.64443 -1.4033 0
M  V30 6740 H 618.344 6.50645 0.836472 0
M  V30 6741 H 618.261 7.53979 -0.552453 0
M  V30 6742 H 619.529 7.77077 0.614069 0
M  V30 6743 N 623.758 0.647228 1.43697 0
M  V30 6744 C 624.705 -0.0480092 2.3075 0
M  V30 6745 C 625.675 -0.820705 1.44408 0
M  V30 6746 O 626.86 -0.798515 1.73287 0
M  V30 6747 C 624 -1.01259 3.2991 0
M  V30 6748 C 623.113 -0.236629 4.31351 0
M  V30 6749 C 622.248 -1.19447 5.17596 0
M  V30 6750 C 621.287 -0.408595 6.10735 0
M  V30 6751 N 620.424 -1.31772 6.89623 0
M  V30 6752 H 625.264 0.700238 2.89656 0
M  V30 6753 H 622.801 0.357082 1.427 0
M  V30 6754 H 624.759 -1.58538 3.85903 0
M  V30 6755 H 623.389 -1.72778 2.72667 0
M  V30 6756 H 622.441 0.452353 3.77701 0
M  V30 6757 H 623.753 0.374731 4.9739 0
M  V30 6758 H 622.907 -1.83809 5.78186 0
M  V30 6759 H 621.646 -1.83975 4.51669 0
M  V30 6760 H 620.651 0.24841 5.49239 0
M  V30 6761 H 621.876 0.232188 6.78703 0
M  V30 6762 H 619.822 -1.94991 6.2635 0
M  V30 6763 H 619.739 -0.760779 7.52162 0
M  V30 6764 H 621.007 -1.94967 7.54724 0
M  V30 6765 N 625.236 -1.5273 0.388769 0
M  V30 6766 C 626.476 -2.03483 -0.193372 0
M  V30 6767 C 626.84 -1.26897 -1.44087 0
M  V30 6768 O 628.041 -1.67773 -2.10014 0
M  V30 6769 C 626.312 -3.54488 -0.455325 0
M  V30 6770 S 627.871 -4.27069 -1.00783 0
M  V30 6771 H 624.689 -0.708907 -0.0545131 0
M  V30 6772 H 627.291 -1.8798 0.536993 0
M  V30 6773 H 625.995 -4.07817 0.459722 0
M  V30 6774 H 625.526 -3.74196 -1.21413 0
M  V30 6775 H 627.541 -4.40185 -2.29023 0
M  V30 6776 N 626.714 -0.118576 -1.57153 0
M  V30 6777 C 627.942 0.54726 -1.99531 0
M  V30 6778 C 628.357 1.60251 -0.998246 0
M  V30 6779 O 627.714 1.82498 0.00893106 0
M  V30 6780 C 627.765 1.17378 -3.41913 0
M  V30 6781 O 627.486 0.160703 -4.37805 0
M  V30 6782 C 628.987 1.92297 -3.9942 0
M  V30 6783 H 626.207 0.144919 -0.655164 0
M  V30 6784 H 628.751 -0.20479 -2.03472 0
M  V30 6785 H 626.906 1.87661 -3.38913 0
M  V30 6786 H 627.32 0.61586 -5.20872 0
M  V30 6787 H 628.794 2.31462 -5.01128 0
M  V30 6788 H 629.271 2.79801 -3.38538 0
M  V30 6789 H 629.877 1.26777 -4.05965 0
M  V30 6790 N 628.193 1.56834 0.155195 0
M  V30 6791 C 629.442 1.82088 0.867567 0
M  V30 6792 C 629.755 0.69849 1.82703 0
M  V30 6793 O 630.961 0.836407 2.58295 0
M  V30 6794 C 629.417 3.22707 1.59336 0
M  V30 6795 C 629.025 4.42859 0.676719 0
M  V30 6796 C 630.769 3.57242 2.293 0
M  V30 6797 C 628.676 5.74501 1.40367 0
M  V30 6798 H 627.606 0.679057 0.327715 0
M  V30 6799 H 630.257 1.83105 0.120351 0
M  V30 6800 H 628.639 3.16054 2.38591 0
M  V30 6801 H 629.813 4.60731 -0.0800196 0
M  V30 6802 H 628.128 4.16311 0.0859129 0
M  V30 6803 H 630.725 4.52847 2.84312 0
M  V30 6804 H 631.068 2.82901 3.05406 0
M  V30 6805 H 631.601 3.6552 1.56972 0
M  V30 6806 H 628.34 6.51915 0.684623 0
M  V30 6807 H 627.86 5.60579 2.13332 0
M  V30 6808 H 629.539 6.17016 1.94681 0
M  V30 6809 N 629.671 -0.424282 1.51781 0
M  V30 6810 C 630.634 -1.49848 1.73431 0
M  V30 6811 C 631.634 -1.49016 0.604225 0
M  V30 6812 O 632.824 -1.50808 0.871935 0
M  V30 6813 C 629.956 -2.89332 1.80277 0
M  V30 6814 H 631.149 -1.3195 2.69312 0
M  V30 6815 H 628.702 -0.653809 1.41968 0
M  V30 6816 H 629.437 -3.12618 0.862568 0
M  V30 6817 H 629.222 -2.9134 2.62419 0
M  V30 6818 H 630.712 -3.67233 1.98821 0
M  V30 6819 N 631.149 -1.42148 -0.680565 0
M  V30 6820 C 632.397 -1.42029 -1.43779 0
M  V30 6821 C 632.718 -0.0356347 -1.94967 0
M  V30 6822 O 631.988 0.924936 -1.7269 0
M  V30 6823 H 630.568 -0.522835 -0.533529 0
M  V30 6824 H 633.23 -1.7752 -0.804538 0
M  V30 6825 H 632.326 -2.11658 -2.29363 0
M  V30 6826 N 632.627 0.916307 -1.28225 0
M  V30 6827 C 633.873 1.66765 -1.154 0
M  V30 6828 C 634.206 1.91912 0.297251 0
M  V30 6829 O 633.481 1.51766 1.21644 0
M  V30 6830 C 633.764 3.02715 -1.95028 0
M  V30 6831 C 633.617 2.84738 -3.48201 0
M  V30 6832 C 634.936 4.03215 -1.76369 0
M  V30 6833 H 632.055 0.605205 -0.42059 0
M  V30 6834 H 634.697 1.06255 -1.57512 0
M  V30 6835 H 632.847 3.54365 -1.59242 0
M  V30 6836 H 634.519 2.40118 -3.9388 0
M  V30 6837 H 632.762 2.19848 -3.73964 0
M  V30 6838 H 633.433 3.8127 -3.99171 0
M  V30 6839 H 635.909 3.60617 -2.07593 0
M  V30 6840 H 634.785 4.96306 -2.34459 0
M  V30 6841 H 635.046 4.36288 -0.71452 0
M  V30 6842 N 634.105 1.10431 1.1244 0
M  V30 6843 C 635.068 0.756542 2.16354 0
M  V30 6844 C 636.068 -0.21899 1.59302 0
M  V30 6845 O 637.258 0.00415969 1.742 0
M  V30 6846 C 634.39 0.120612 3.40687 0
M  V30 6847 H 635.583 1.67696 2.48632 0
M  V30 6848 H 633.136 0.904832 1.27446 0
M  V30 6849 H 633.871 -0.810536 3.14008 0
M  V30 6850 H 633.656 0.822693 3.83372 0
M  V30 6851 H 635.146 -0.106945 4.17463 0
M  V30 6852 N 635.583 -1.29855 0.893053 0
M  V30 6853 C 636.813 -1.99686 0.530019 0
M  V30 6854 C 637.221 -1.67066 -0.888012 0
M  V30 6855 O 636.564 -0.908366 -1.5967 0
M  V30 6856 C 636.626 -3.53855 0.63457 0
M  V30 6857 C 636.29 -4.10013 2.01837 0
M  V30 6858 C 637.287 -4.25406 2.98874 0
M  V30 6859 C 634.972 -4.45202 2.32595 0
M  V30 6860 C 636.966 -4.7521 4.24799 0
M  V30 6861 C 634.653 -4.94704 3.58763 0
M  V30 6862 C 635.651 -5.09662 4.5468 0
M  V30 6863 O 635.339 -5.58093 5.78608 0
M  V30 6864 H 635.071 -0.644913 0.20264 0
M  V30 6865 H 637.625 -1.66518 1.20253 0
M  V30 6866 H 635.855 -3.86583 -0.0949477 0
M  V30 6867 H 637.544 -4.04922 0.281648 0
M  V30 6868 H 638.31 -3.98515 2.76425 0
M  V30 6869 H 634.189 -4.32822 1.58701 0
M  V30 6870 H 637.733 -4.86801 4.99671 0
M  V30 6871 H 633.63 -5.21032 3.81046 0
M  V30 6872 H 634.398 -5.7642 5.81104 0
M  V30 6873 N 637.061 -0.65484 -1.43351 0
M  V30 6874 C 638.309 -0.168559 -2.01396 0
M  V30 6875 C 638.63 1.22235 -1.51933 0
M  V30 6876 O 637.9 1.81685 -0.732627 0
M  V30 6877 H 636.48 -0.0593244 -0.744641 0
M  V30 6878 H 639.142 -0.846871 -1.75539 0
M  V30 6879 H 638.238 -0.154428 -3.11718 0
M  V30 6880 N 638.539 1.52521 -0.396863 0
M  V30 6881 C 639.489 2.2348 0.451722 0
M  V30 6882 C 640.473 1.2415 1.0235 0
M  V30 6883 O 641.665 1.4945 0.948348 0
M  V30 6884 C 638.794 3.05067 1.57445 0
M  V30 6885 C 637.88 4.11799 1.01404 0
M  V30 6886 N 638.271 5.05482 0.179234 0
M  V30 6887 C 636.569 4.27064 1.28578 0
M  V30 6888 C 637.27 5.81552 -0.131202 0
M  V30 6889 N 636.246 5.41523 0.474735 0
M  V30 6890 H 640.048 2.93269 -0.192534 0
M  V30 6891 H 637.562 1.61081 -0.206591 0
M  V30 6892 H 639.559 3.54446 2.19485 0
M  V30 6893 H 638.219 2.36816 2.22145 0
M  V30 6894 H 639.23 5.17573 -0.18411 0
M  V30 6895 H 635.907 3.70042 1.93327 0
M  V30 6896 H 637.297 6.67023 -0.808061 0
M  V30 6897 N 640.017 0.126909 1.57088 0
M  V30 6898 C 641.263 -0.529952 1.95753 0
M  V30 6899 C 641.596 -1.65823 1.01077 0
M  V30 6900 O 640.871 -1.94437 0.0494162 0
M  V30 6901 C 641.154 -1.05517 3.44294 0
M  V30 6902 C 641.007 0.0702253 4.49745 0
M  V30 6903 C 642.326 -1.9435 3.94862 0
M  V30 6904 H 639.445 -0.191168 0.711775 0
M  V30 6905 H 642.087 0.204071 1.88901 0
M  V30 6906 H 640.237 -1.68069 3.50264 0
M  V30 6907 H 641.909 0.705834 4.55868 0
M  V30 6908 H 640.152 0.732259 4.27575 0
M  V30 6909 H 640.823 -0.338642 5.5096 0
M  V30 6910 H 643.299 -1.41658 3.91244 0
M  V30 6911 H 642.175 -2.28015 4.993 0
M  V30 6912 H 642.436 -2.87299 3.36024 0
M  V30 6913 N 641.495 -1.56914 -0.146875 0
M  V30 6914 C 642.906 -1.72799 -0.706928 0
M  V30 6915 C 643.257 -0.741329 -1.81656 0
M  V30 6916 O 642.382 0.0920162 -2.16204 0
M  V30 6917 C 642.977 -3.13317 -1.28911 0
M  V30 6918 C 641.536 -3.30803 -1.79573 0
M  V30 6919 C 640.683 -2.68725 -0.684252 0
M  V30 6920 H 643.634 -1.58504 0.0787931 0
M  V30 6921 H 643.655 -3.13323 -2.15891 0
M  V30 6922 H 643.167 -3.85104 -0.481284 0
M  V30 6923 H 641.268 -2.64012 -2.62923 0
M  V30 6924 H 641.381 -4.38754 -1.92436 0
M  V30 6925 H 639.745 -2.29196 -1.11091 0
M  V30 6926 H 640.528 -3.43117 0.112134 0
M  V30 6927 N 642.974 0.416227 -1.52004 0
M  V30 6928 C 643.884 1.53147 -1.77717 0
M  V30 6929 C 644.9 1.609 -0.662368 0
M  V30 6930 O 646.076 1.77747 -0.946991 0
M  V30 6931 C 643.141 2.88948 -1.91598 0
M  V30 6932 C 642.202 2.9114 -3.15493 0
M  V30 6933 C 641.435 4.20464 -3.28703 0
M  V30 6934 O 641.658 5.13981 -2.47345 0
M  V30 6935 O 640.592 4.29368 -4.21813 0
M  V30 6936 H 644.418 1.34357 -2.72363 0
M  V30 6937 H 642.003 0.601373 -1.36762 0
M  V30 6938 H 643.885 3.69505 -2.02593 0
M  V30 6939 H 642.56 3.07821 -1.00141 0
M  V30 6940 H 641.467 2.09461 -3.09962 0
M  V30 6941 H 642.8 2.77216 -4.06709 0
M  V30 6942 N 644.452 1.42507 0.673017 0
M  V30 6943 C 645.863 1.38347 1.25367 0
M  V30 6944 C 646.214 0.0776327 1.96046 0
M  V30 6945 O 645.339 -0.823571 2.00116 0
M  V30 6946 C 645.934 2.506 2.28002 0
M  V30 6947 C 644.493 2.49767 2.81591 0
M  V30 6948 C 643.64 2.293 1.55938 0
M  V30 6949 H 646.591 1.51695 0.466288 0
M  V30 6950 H 646.612 2.20953 3.09774 0
M  V30 6951 H 646.124 3.45627 1.76532 0
M  V30 6952 H 644.225 1.58563 3.37177 0
M  V30 6953 H 644.338 3.46867 3.30485 0
M  V30 6954 H 642.702 1.77594 1.82572 0
M  V30 6955 H 643.485 3.26385 1.06431 0
M  V30 6956 N 645.93 -0.909495 1.28709 0
M  V30 6957 C 646.84 -2.04558 1.14861 0
M  V30 6958 C 647.856 -1.73842 0.0741621 0
M  V30 6959 O 649.032 -1.99383 0.2843 0
M  V30 6960 C 646.097 -3.36957 0.816148 0
M  V30 6961 C 645.158 -3.81255 1.97341 0
M  V30 6962 C 644.391 -5.07335 1.65671 0
M  V30 6963 O 644.614 -5.67514 0.573053 0
M  V30 6964 O 643.548 -5.47449 2.50167 0
M  V30 6965 H 647.374 -2.19161 2.10243 0
M  V30 6966 H 644.959 -1.03159 1.08068 0
M  V30 6967 H 646.841 -4.16436 0.644873 0
M  V30 6968 H 645.516 -3.2352 -0.107983 0
M  V30 6969 H 644.423 -3.02584 2.19986 0
M  V30 6970 H 645.756 -3.99261 2.87839 0
M  V30 6971 N 647.408 -1.11026 -1.11852 0
M  V30 6972 C 648.685 -0.768347 -1.79877 0
M  V30 6973 C 649.065 0.744261 -1.97545 0
M  V30 6974 O 648.413 1.67271 -1.55669 0
M  V30 6975 C 648.623 -1.52648 -3.13846 0
M  V30 6976 C 649.971 -1.70297 -3.88953 0
M  V30 6977 O 650.995 -1.49037 -3.23522 0
M  V30 6978 O 649.854 -2.05593 -5.06353 0
M  V30 6979 H 646.948 -0.277891 -0.778913 0
M  V30 6980 H 649.494 -1.21343 -1.18633 0
M  V30 6981 H 648.266 -2.55564 -2.96315 0
M  V30 6982 H 647.889 -1.07466 -3.82801 0
M  V30 6983 N 648.886 1.2938 -0.899927 0
M  V30 6984 C 650.116 1.99402 -0.540601 0
M  V30 6985 C 650.524 1.67534 0.87914 0
M  V30 6986 O 649.867 0.916821 1.59186 0
M  V30 6987 C 649.929 3.53514 -0.653326 0
M  V30 6988 C 649.593 4.08937 -2.04009 0
M  V30 6989 C 650.59 4.23815 -3.01126 0
M  V30 6990 C 648.275 4.43962 -2.34953 0
M  V30 6991 C 650.269 4.72951 -4.27313 0
M  V30 6992 C 647.956 4.92795 -3.61382 0
M  V30 6993 C 648.954 5.07244 -4.57376 0
M  V30 6994 O 648.642 5.55017 -5.8156 0
M  V30 6995 H 648.374 0.64383 -0.206057 0
M  V30 6996 H 650.928 1.65878 -1.21134 0
M  V30 6997 H 649.158 3.86628 0.0744449 0
M  V30 6998 H 650.847 4.04767 -0.303118 0
M  V30 6999 H 651.613 3.97043 -2.78535 0
M  V30 7000 H 647.492 4.31974 -1.60994 0
M  V30 7001 H 651.036 4.84144 -5.02245 0
M  V30 7002 H 646.933 5.19004 -3.83804 0
M  V30 7003 H 647.701 5.73331 -5.84153 0
M  V30 7004 N 650.364 0.662433 1.43002 0
M  V30 7005 C 651.612 0.179237 2.01304 0
M  V30 7006 C 651.933 -1.21428 1.52579 0
M  V30 7007 O 651.203 -1.81294 0.742252 0
M  V30 7008 H 649.783 0.0632725 0.744316 0
M  V30 7009 H 652.445 0.856169 1.75088 0
M  V30 7010 H 651.541 0.170957 3.11631 0
M  V30 7011 N 651.842 -1.52309 0.404946 0
M  V30 7012 C 653.082 -2.03677 -0.171779 0
M  V30 7013 C 653.446 -1.28419 -1.42733 0
M  V30 7014 O 654.647 -1.69991 -2.08222 0
M  V30 7015 C 652.918 -3.54951 -0.417701 0
M  V30 7016 S 654.477 -4.28114 -0.962472 0
M  V30 7017 H 651.295 -0.709445 -0.0469912 0
M  V30 7018 H 653.897 -1.874 0.556901 0
M  V30 7019 H 652.601 -4.07306 0.50295 0
M  V30 7020 H 652.132 -3.75462 -1.17437 0
M  V30 7021 H 654.147 -4.42589 -2.24342 0
M  V30 7022 N 653.32 -0.135238 -1.57019 0
M  V30 7023 C 654.545 0.529343 -2.00531 0
M  V30 7024 C 654.97 1.58391 -1.01459 0
M  V30 7025 O 654.328 1.81296 0.0113986 0
M  V30 7026 C 654.376 1.11748 -3.42848 0
M  V30 7027 O 653.48 2.23267 -3.46736 0
M  V30 7028 H 652.821 0.130669 -0.651016 0
M  V30 7029 H 655.351 -0.228503 -2.0332 0
M  V30 7030 H 655.361 1.44905 -3.81401 0
M  V30 7031 H 654.036 0.345147 -4.14465 0
M  V30 7032 H 652.613 1.91428 -3.20015 0
M  V30 7033 N 654.798 1.5699 0.138552 0
M  V30 7034 C 656.209 1.73171 0.697754 0
M  V30 7035 C 656.56 0.750952 1.8126 0
M  V30 7036 O 655.685 -0.080549 2.1625 0
M  V30 7037 C 656.28 3.13996 1.27248 0
M  V30 7038 C 654.839 3.3175 1.77816 0
M  V30 7039 C 653.986 2.69084 0.669991 0
M  V30 7040 H 656.937 1.5846 -0.0871979 0
M  V30 7041 H 656.958 3.14463 2.14227 0
M  V30 7042 H 656.47 3.85354 0.460855 0
M  V30 7043 H 654.571 2.65403 2.61519 0
M  V30 7044 H 654.684 4.39768 1.90107 0
M  V30 7045 H 653.048 2.29782 1.09874 0
M  V30 7046 H 653.831 3.43053 -0.130329 0
M  V30 7047 N 656.276 -0.40816 1.52223 0
M  V30 7048 C 657.553 -1.16807 1.56893 0
M  V30 7049 C 657.933 -2.08169 0.350537 0
M  V30 7050 O 657.281 -2.18684 -0.662536 0
M  V30 7051 C 657.491 -1.94451 2.8981 0
M  V30 7052 C 658.839 -2.50484 3.42845 0
M  V30 7053 O 659.863 -2.0463 2.91556 0
M  V30 7054 O 658.722 -3.34192 4.3241 0
M  V30 7055 H 655.816 -0.533382 0.632007 0
M  V30 7056 H 658.362 -0.414862 1.64551 0
M  V30 7057 H 657.134 -1.27527 3.69936 0
M  V30 7058 H 656.757 -2.76775 2.85449 0
M  V30 7059 N 657.755 -1.42862 -0.66545 0
M  V30 7060 C 658.665 -1.49491 -1.80803 0
M  V30 7061 C 659.681 -0.382914 -1.69734 0
M  V30 7062 O 660.857 -0.635223 -1.9112 0
M  V30 7063 C 657.922 -1.40383 -3.17007 0
M  V30 7064 C 656.983 -2.62152 -3.39963 0
M  V30 7065 C 656.216 -2.53469 -4.69669 0
M  V30 7066 O 656.439 -1.57568 -5.48205 0
M  V30 7067 O 655.373 -3.43763 -4.94075 0
M  V30 7068 H 659.199 -2.45949 -1.78165 0
M  V30 7069 H 656.784 -1.24728 -0.822387 0
M  V30 7070 H 658.666 -1.377 -3.98267 0
M  V30 7071 H 657.341 -0.470546 -3.20262 0
M  V30 7072 H 656.248 -2.70409 -2.58515 0
M  V30 7073 H 657.581 -3.54411 -3.41546 0
M  V30 7074 N 659.233 0.902656 -1.29189 0
M  V30 7075 C 660.479 1.6555 -1.18172 0
M  V30 7076 C 660.834 1.90569 0.264788 0
M  V30 7077 O 660.127 1.50292 1.1884 0
M  V30 7078 C 660.321 3.011 -1.92545 0
M  V30 7079 C 660.15 2.89312 -3.4428 0
M  V30 7080 C 658.92 2.90239 -4.1363 0
M  V30 7081 C 661.118 2.6656 -4.3983 0
M  V30 7082 N 659.1 2.69156 -5.5175 0
M  V30 7083 C 660.471 2.54429 -5.6539 0
M  V30 7084 C 662.526 2.51644 -4.29627 0
M  V30 7085 C 661.229 2.289 -6.81907 0
M  V30 7086 C 663.255 2.27498 -5.45892 0
M  V30 7087 C 662.617 2.16129 -6.70423 0
M  V30 7088 H 658.716 0.611519 -0.48741 0
M  V30 7089 H 661.3 1.06514 -1.62981 0
M  V30 7090 H 659.471 3.58202 -1.50154 0
M  V30 7091 H 661.203 3.65471 -1.73818 0
M  V30 7092 H 657.958 3.01412 -3.65305 0
M  V30 7093 H 658.382 2.61676 -6.24383 0
M  V30 7094 H 663.024 2.59178 -3.34045 0
M  V30 7095 H 660.742 2.20104 -7.77547 0
M  V30 7096 H 664.328 2.16805 -5.39895 0
M  V30 7097 H 663.208 1.97703 -7.5887 0
M  V30 7098 N 660.711 1.11618 1.11262 0
M  V30 7099 C 661.643 0.734015 2.17129 0
M  V30 7100 C 662.656 -0.235243 1.61091 0
M  V30 7101 O 663.845 -0.0178597 1.78491 0
M  V30 7102 C 660.945 0.0643682 3.38839 0
M  V30 7103 C 660.118 1.06092 4.24339 0
M  V30 7104 C 659.177 0.420482 5.24517 0
M  V30 7105 O 658.203 1.07495 5.58957 0
M  V30 7106 N 659.405 -0.815828 5.74739 0
M  V30 7107 H 662.17 1.64492 2.50524 0
M  V30 7108 H 659.731 1.00664 1.26801 0
M  V30 7109 H 661.723 -0.375851 4.02951 0
M  V30 7110 H 660.293 -0.749147 3.03491 0
M  V30 7111 H 659.513 1.67903 3.56654 0
M  V30 7112 H 660.801 1.73507 4.78302 0
M  V30 7113 H 660.199 -1.36668 5.48943 0
M  V30 7114 H 658.756 -1.199 6.40677 0
M  V30 7115 N 662.189 -1.289 0.906776 0
M  V30 7116 C 663.137 -2.29477 0.379873 0
M  V30 7117 C 664.131 -1.61068 -0.524747 0
M  V30 7118 O 665.337 -1.75344 -0.406765 0
M  V30 7119 H 661.712 -0.744742 0.10423 0
M  V30 7120 H 663.683 -2.71353 1.24137 0
M  V30 7121 C 662.432 -3.45713 -0.371154 0
M  V30 7122 H 661.755 -3.98551 0.315716 0
M  V30 7123 H 663.195 -4.18105 -0.704581 0
M  V30 7124 C 661.654 -2.9774 -1.57646 0
M  V30 7125 O 662.184 -2.99618 -2.67567 0
M  V30 7126 N 660.39 -2.53485 -1.42105 0
M  V30 7127 H 659.937 -2.52156 -0.526783 0
M  V30 7128 H 659.895 -2.21747 -2.22881 0
M  V30 7129 N 663.667 -0.670007 -1.42649 0
M  V30 7130 C 664.892 -0.196955 -2.06463 0
M  V30 7131 C 665.317 1.1352 -1.49983 0
M  V30 7132 O 664.675 1.705 -0.616397 0
M  V30 7133 C 664.723 -0.137381 -3.60338 0
M  V30 7134 O 663.827 0.895523 -4.02559 0
M  V30 7135 H 663.168 -0.102579 -0.656029 0
M  V30 7136 H 665.698 -0.917669 -1.82866 0
M  V30 7137 H 665.708 0.0403625 -4.0798 0
M  V30 7138 H 664.383 -1.10977 -4.0082 0
M  V30 7139 H 662.96 0.689209 -3.66476 0
M  V30 7140 N 665.145 1.52092 -0.413018 0
M  V30 7141 C 666.077 2.24819 0.445994 0
M  V30 7142 C 667.09 1.27925 1.00692 0
M  V30 7143 O 668.279 1.53845 0.905204 0
M  V30 7144 C 665.379 2.96951 1.6332 0
M  V30 7145 C 664.552 4.20746 1.19548 0
M  V30 7146 C 663.611 4.75668 2.25003 0
M  V30 7147 O 662.637 5.38148 1.85434 0
M  V30 7148 N 663.839 4.57579 3.57214 0
M  V30 7149 H 666.604 2.99176 -0.177209 0
M  V30 7150 H 664.165 1.60102 -0.240601 0
M  V30 7151 H 666.157 3.30586 2.33441 0
M  V30 7152 H 664.727 2.25756 2.16225 0
M  V30 7153 H 663.947 3.92881 0.32224 0
M  V30 7154 H 665.235 5.01132 0.880033 0
M  V30 7155 H 664.633 4.07758 3.92109 0
M  V30 7156 H 663.19 4.95642 4.23299 0
M  V30 7157 N 666.623 0.143563 1.56945 0
M  V30 7158 C 667.87 -0.508407 1.96014 0
M  V30 7159 C 668.198 -1.65099 1.02824 0
M  V30 7160 O 667.453 -1.95618 0.0567764 0
M  V30 7161 C 667.752 -1.05885 3.41355 0
M  V30 7162 C 667.418 -0.0350809 4.50886 0
M  V30 7163 C 666.08 0.246362 4.80569 0
M  V30 7164 C 668.432 0.661282 5.16988 0
M  V30 7165 C 665.76 1.23003 5.73661 0
M  V30 7166 C 668.112 1.63375 6.11139 0
M  V30 7167 C 666.776 1.92292 6.39203 0
M  V30 7168 H 666.046 -0.186039 0.717266 0
M  V30 7169 H 668.693 0.229667 1.90118 0
M  V30 7170 H 666.998 -1.87419 3.44066 0
M  V30 7171 H 668.695 -1.57183 3.6891 0
M  V30 7172 H 665.285 -0.264622 4.27782 0
M  V30 7173 H 669.469 0.457038 4.94191 0
M  V30 7174 H 664.725 1.46056 5.93698 0
M  V30 7175 H 668.899 2.17887 6.61436 0
M  V30 7176 H 666.526 2.68666 7.11142 0
M  V30 7177 N 668.101 -1.57061 -0.130224 0
M  V30 7178 C 669.349 -1.83893 -0.838313 0
M  V30 7179 C 669.67 -0.727046 -1.80939 0
M  V30 7180 O 668.94 0.249927 -1.94299 0
M  V30 7181 H 667.52 -0.67846 -0.312573 0
M  V30 7182 H 670.182 -1.94529 -0.120224 0
M  V30 7183 H 669.278 -2.79419 -1.39038 0
M  V30 7184 N 669.579 0.400081 -1.52437 0
M  V30 7185 C 670.856 1.15973 -1.57511 0
M  V30 7186 C 671.236 2.0798 -0.361572 0
M  V30 7187 O 670.584 2.19032 0.650929 0
M  V30 7188 C 670.794 1.92912 -2.90837 0
M  V30 7189 C 672.142 2.48662 -3.44169 0
M  V30 7190 O 673.166 2.03081 -2.92637 0
M  V30 7191 O 672.025 3.31894 -4.34176 0
M  V30 7192 H 669.119 0.530023 -0.634827 0
M  V30 7193 H 671.665 0.40613 -1.64769 0
M  V30 7194 H 670.437 1.25564 -3.70607 0
M  V30 7195 H 670.06 2.75257 -2.86913 0
M  V30 7196 N 671.057 1.43213 0.657864 0
M  V30 7197 C 671.967 1.50448 1.80007 0
M  V30 7198 C 672.983 0.39191 1.69529 0
M  V30 7199 O 674.159 0.645349 1.90781 0
M  V30 7200 C 671.224 1.42062 3.16258 0
M  V30 7201 C 670.285 2.63951 3.38568 0
M  V30 7202 C 669.518 2.55956 4.68318 0
M  V30 7203 O 669.741 1.60473 5.47361 0
M  V30 7204 O 668.675 3.46378 4.92245 0
M  V30 7205 H 672.501 2.4689 1.76858 0
M  V30 7206 H 670.086 1.25163 0.81576 0
M  V30 7207 H 671.968 1.3981 3.97531 0
M  V30 7208 H 670.643 0.487524 3.20008 0
M  V30 7209 H 669.55 2.71776 2.57077 0
M  V30 7210 H 670.883 3.56217 3.39662 0
M  V30 7211 N 672.536 -0.895792 1.29666 0
M  V30 7212 C 673.483 -2.00035 1.15129 0
M  V30 7213 C 674.453 -1.66043 0.0435819 0
M  V30 7214 O 675.638 -1.89621 0.211811 0
M  V30 7215 C 672.778 -3.34774 0.83787 0
M  V30 7216 C 671.891 -3.81525 2.0264 0
M  V30 7217 C 671.026 -5.04858 1.65201 0
M  V30 7218 C 670.065 -5.43988 2.80612 0
M  V30 7219 N 669.202 -6.58507 2.43544 0
M  V30 7220 H 674.042 -2.11802 2.09628 0
M  V30 7221 H 671.579 -1.03719 1.04311 0
M  V30 7222 H 673.537 -4.12311 0.636824 0
M  V30 7223 H 672.167 -3.22724 -0.0702314 0
M  V30 7224 H 671.219 -2.9999 2.33903 0
M  V30 7225 H 672.531 -4.06472 2.89106 0
M  V30 7226 H 671.685 -5.8999 1.41408 0
M  V30 7227 H 670.424 -4.81759 0.758893 0
M  V30 7228 H 669.429 -4.57388 3.05083 0
M  V30 7229 H 670.654 -5.69066 3.70595 0
M  V30 7230 H 668.6 -6.37004 1.56724 0
M  V30 7231 H 668.517 -6.83269 3.23542 0
M  V30 7232 H 669.785 -7.46897 2.2308 0
M  V30 7233 N 674.014 -1.12206 -1.10668 0
M  V30 7234 C 675.242 -0.898635 -1.86366 0
M  V30 7235 C 675.657 0.551991 -1.80551 0
M  V30 7236 O 675.014 1.38152 -1.19249 0
M  V30 7237 C 675.065 -1.36199 -3.34861 0
M  V30 7238 O 674.786 -2.75576 -3.40573 0
M  V30 7239 C 676.287 -1.17515 -4.2744 0
M  V30 7240 H 673.507 -0.321281 -0.589084 0
M  V30 7241 H 676.051 -1.49142 -1.39918 0
M  V30 7242 H 674.206 -0.81249 -3.78784 0
M  V30 7243 H 674.62 -2.95851 -4.33096 0
M  V30 7244 H 676.094 -1.54827 -5.29842 0
M  V30 7245 H 676.571 -0.115486 -4.39048 0
M  V30 7246 H 677.177 -1.71203 -3.89319 0
M  V30 7247 N 675.492 1.28418 -0.913599 0
M  V30 7248 C 676.739 1.94981 -0.546674 0
M  V30 7249 C 677.067 1.7192 0.909606 0
M  V30 7250 O 676.322 1.03314 1.66207 0
M  V30 7251 C 676.621 3.48283 -0.802099 0
M  V30 7252 C 676.287 3.91444 -2.2379 0
M  V30 7253 C 674.949 4.02939 -2.63046 0
M  V30 7254 C 677.301 4.13542 -3.17227 0
M  V30 7255 C 674.629 4.3391 -3.94891 0
M  V30 7256 C 676.981 4.45992 -4.48636 0
M  V30 7257 C 675.645 4.55698 -4.87746 0
M  V30 7258 H 674.915 0.713487 -0.200042 0
M  V30 7259 H 677.562 1.52756 -1.15489 0
M  V30 7260 H 675.867 3.91643 -0.111076 0
M  V30 7261 H 677.564 3.97903 -0.497375 0
M  V30 7262 H 674.154 3.83024 -1.9233 0
M  V30 7263 H 678.338 4.04114 -2.88107 0
M  V30 7264 H 673.594 4.39631 -4.24894 0
M  V30 7265 H 677.768 4.62038 -5.21051 0
M  V30 7266 H 675.395 4.79451 -5.89942 0
M  V30 7267 N 676.97 0.677563 1.42291 0
M  V30 7268 C 678.195 0.207901 2.06355 0
M  V30 7269 C 678.62 -1.12723 1.50583 0
M  V30 7270 O 677.978 -1.70171 0.62543 0
M  V30 7271 C 678.026 0.156489 3.6026 0
M  V30 7272 O 677.13 -0.874162 4.03029 0
M  V30 7273 H 676.471 0.106056 0.655475 0
M  V30 7274 H 679.001 0.927354 1.82377 0
M  V30 7275 H 679.011 -0.0187258 4.07996 0
M  V30 7276 H 677.686 1.13101 4.00226 0
M  V30 7277 H 676.263 -0.669764 3.66836 0
M  V30 7278 N 678.448 -1.51871 0.421078 0
M  V30 7279 C 679.725 -1.9447 -0.20993 0
M  V30 7280 C 680.105 -1.35875 -1.61558 0
M  V30 7281 O 679.453 -0.539294 -2.22045 0
M  V30 7282 C 679.663 -3.48402 -0.204165 0
M  V30 7283 C 681.011 -4.2254 -0.417696 0
M  V30 7284 O 682.035 -3.55074 -0.282999 0
M  V30 7285 O 680.894 -5.422 -0.684239 0
M  V30 7286 H 677.988 -0.815283 -0.138718 0
M  V30 7287 H 680.534 -1.62832 0.477884 0
M  V30 7288 H 679.306 -3.83464 0.779183 0
M  V30 7289 H 678.929 -3.86436 -0.935576 0
M  V30 7290 N 679.926 -0.151884 -1.56866 0
M  V30 7291 C 681.151 0.508044 -2.01081 0
M  V30 7292 C 681.576 1.57306 -1.03134 0
M  V30 7293 O 680.934 1.81298 -0.0078309 0
M  V30 7294 C 680.982 1.08106 -3.44014 0
M  V30 7295 O 680.086 2.19577 -3.49084 0
M  V30 7296 H 679.427 0.123757 -0.652365 0
M  V30 7297 H 681.957 -0.250055 -2.03066 0
M  V30 7298 H 681.967 1.40851 -3.82916 0
M  V30 7299 H 680.642 0.301168 -4.14808 0
M  V30 7300 H 679.219 1.88023 -3.22027 0
M  V30 7301 N 681.404 1.57128 0.121893 0
M  V30 7302 C 682.629 1.89254 0.848385 0
M  V30 7303 C 683.054 0.743527 1.72781 0
M  V30 7304 O 682.412 -0.306056 1.78698 0
M  V30 7305 C 682.46 3.20113 1.66012 0
M  V30 7306 O 681.564 3.05815 2.76679 0
M  V30 7307 H 680.905 0.621103 0.234793 0
M  V30 7308 H 683.435 2.0433 0.10516 0
M  V30 7309 H 683.445 3.52761 2.04996 0
M  V30 7310 H 682.12 4.03336 1.01452 0
M  V30 7311 H 680.697 2.84627 2.40918 0
M  V30 7312 N 682.882 -0.391992 1.52647 0
M  V30 7313 C 683.812 -1.48517 1.8018 0
M  V30 7314 C 684.793 -1.57039 0.653667 0
M  V30 7315 O 685.978 -1.72036 0.900962 0
M  V30 7316 C 683.108 -2.86161 1.96797 0
M  V30 7317 C 682.062 -2.92481 3.12472 0
M  V30 7318 C 681.388 -4.32546 3.14338 0
M  V30 7319 C 682.688 -2.624 4.51601 0
M  V30 7320 H 684.382 -1.25726 2.71723 0
M  V30 7321 H 681.928 -0.603387 1.30749 0
M  V30 7322 H 683.881 -3.62639 2.14641 0
M  V30 7323 H 682.605 -3.10283 1.01941 0
M  V30 7324 H 681.264 -2.18451 2.94406 0
M  V30 7325 H 680.912 -4.53703 2.1717 0
M  V30 7326 H 680.612 -4.37695 3.92042 0
M  V30 7327 H 682.136 -5.10934 3.34333 0
M  V30 7328 H 683.55 -3.28596 4.69785 0
M  V30 7329 H 681.947 -2.78903 5.3135 0
M  V30 7330 H 683.017 -1.57754 4.58521 0
M  V30 7331 N 684.36 -1.4356 -0.65026 0
M  V30 7332 C 685.29 -1.51758 -1.77459 0
M  V30 7333 C 686.271 -0.372019 -1.65982 0
M  V30 7334 O 687.456 -0.589627 -1.85033 0
M  V30 7335 C 684.586 -1.44302 -3.15902 0
M  V30 7336 C 683.54 -2.57138 -3.42146 0
M  V30 7337 C 682.866 -2.34735 -4.8042 0
M  V30 7338 C 684.166 -3.99373 -3.36598 0
M  V30 7339 H 685.86 -2.45863 -1.70855 0
M  V30 7340 H 683.406 -1.18333 -0.820566 0
M  V30 7341 H 685.359 -1.48641 -3.94314 0
M  V30 7342 H 684.083 -0.467026 -3.23244 0
M  V30 7343 H 682.742 -2.52157 -2.66106 0
M  V30 7344 H 682.39 -1.35372 -4.84441 0
M  V30 7345 H 682.09 -3.10375 -4.9894 0
M  V30 7346 H 683.614 -2.40862 -5.61086 0
M  V30 7347 H 685.028 -4.05826 -4.04942 0
M  V30 7348 H 683.425 -4.75063 -3.66654 0
M  V30 7349 H 684.495 -4.243 -2.34729 0
M  V30 7350 N 685.838 0.888903 -1.30139 0
M  V30 7351 C 686.748 2.02705 -1.18101 0
M  V30 7352 C 687.764 1.73702 -0.101809 0
M  V30 7353 O 688.94 1.98906 -0.315984 0
M  V30 7354 C 686.005 3.35616 -0.869651 0
M  V30 7355 C 685.066 3.78067 -2.03381 0
M  V30 7356 C 684.299 5.04635 -1.73721 0
M  V30 7357 O 684.522 5.66531 -0.663267 0
M  V30 7358 O 683.456 5.43399 -2.58845 0
M  V30 7359 H 687.282 2.15788 -2.13704 0
M  V30 7360 H 684.867 1.01426 -1.09695 0
M  V30 7361 H 686.749 4.15358 -0.711043 0
M  V30 7362 H 685.424 3.23651 0.0565002 0
M  V30 7363 H 684.331 2.99046 -2.24772 0
M  V30 7364 H 685.664 3.94631 -2.94155 0
M  V30 7365 N 687.317 1.12792 1.10072 0
M  V30 7366 C 688.265 0.794523 2.18609 0
M  V30 7367 C 689.259 -0.220271 1.67962 0
M  V30 7368 O 690.465 -0.0780938 1.79831 0
M  V30 7369 H 686.84 0.239123 0.712969 0
M  V30 7370 H 688.811 1.71823 2.43966 0
M  V30 7371 C 687.56 0.269548 3.46654 0
M  V30 7372 H 686.883 1.04171 3.8599 0
M  V30 7373 H 688.323 0.0746242 4.23934 0
M  V30 7374 C 686.782 -1.00333 3.21613 0
M  V30 7375 O 687.312 -2.08042 3.4363 0
M  V30 7376 N 685.518 -0.931763 2.75257 0
M  V30 7377 H 685.065 -0.0551197 2.57541 0
M  V30 7378 H 685.023 -1.78405 2.58881 0
M  V30 7379 N 688.795 -1.27931 0.920396 0
M  V30 7380 C 689.725 -2.29487 0.431024 0
M  V30 7381 C 690.706 -1.62435 -0.504861 0
M  V30 7382 O 691.891 -1.89797 -0.411176 0
M  V30 7383 C 689.021 -3.45788 -0.323709 0
M  V30 7384 C 687.975 -4.24784 0.523658 0
M  V30 7385 C 687.301 -5.33488 -0.359809 0
M  V30 7386 C 688.601 -4.90874 1.78437 0
M  V30 7387 H 690.295 -2.70671 1.27975 0
M  V30 7388 H 687.841 -1.30121 0.616813 0
M  V30 7389 H 689.794 -4.15927 -0.676952 0
M  V30 7390 H 688.518 -3.03502 -1.2064 0
M  V30 7391 H 687.177 -3.56382 0.85951 0
M  V30 7392 H 686.825 -4.87445 -1.24124 0
M  V30 7393 H 686.525 -5.87247 0.203605 0
M  V30 7394 H 688.049 -6.06472 -0.708787 0
M  V30 7395 H 689.463 -5.53339 1.49963 0
M  V30 7396 H 687.86 -5.54659 2.29071 0
M  V30 7397 H 688.93 -4.14988 2.50824 0
M  V30 7398 N 690.273 -0.685099 -1.4193 0
M  V30 7399 C 691.205 0.0258679 -2.29185 0
M  V30 7400 C 692.218 0.755076 -1.44231 0
M  V30 7401 O 693.407 0.60752 -1.67844 0
M  V30 7402 C 690.507 1.06055 -3.21878 0
M  V30 7403 C 689.68 0.403088 -4.35539 0
M  V30 7404 C 688.739 1.33895 -5.0888 0
M  V30 7405 O 687.765 0.835326 -5.63037 0
M  V30 7406 N 688.967 2.6718 -5.15359 0
M  V30 7407 H 691.732 -0.723201 -2.90843 0
M  V30 7408 H 689.293 -0.53031 -1.52968 0
M  V30 7409 H 691.285 1.68813 -3.6781 0
M  V30 7410 H 689.855 1.71126 -2.616 0
M  V30 7411 H 689.075 -0.404185 -3.92122 0
M  V30 7412 H 690.363 -0.0545098 -5.08771 0
M  V30 7413 H 689.761 3.10626 -4.72788 0
M  V30 7414 H 688.318 3.25159 -5.64903 0
M  V30 7415 N 691.751 1.51645 -0.429126 0
M  V30 7416 C 692.699 2.29119 0.400921 0
M  V30 7417 C 693.693 1.34628 1.02819 0
M  V30 7418 O 694.899 1.52004 0.964098 0
M  V30 7419 H 691.274 0.737273 0.148095 0
M  V30 7420 H 693.245 2.97144 -0.273457 0
M  V30 7421 C 691.994 3.13953 1.49429 0
M  V30 7422 H 691.317 3.86544 1.02097 0
M  V30 7423 H 692.757 3.71232 2.04849 0
M  V30 7424 C 691.216 2.28796 2.47293 0
M  V30 7425 O 691.746 1.94193 3.51642 0
M  V30 7426 N 689.952 1.92177 2.17982 0
M  V30 7427 H 689.499 2.20517 1.33154 0
M  V30 7428 H 689.457 1.35497 2.83704 0
M  V30 7429 N 693.229 0.160201 1.56784 0
M  V30 7430 C 694.177 -0.791402 2.18723 0
M  V30 7431 C 695.171 -1.24567 1.14801 0
M  V30 7432 O 696.377 -1.21262 1.33025 0
M  V30 7433 H 692.752 -0.273458 0.700517 0
M  V30 7434 H 694.723 -0.244931 2.97393 0
M  V30 7435 C 693.472 -2.01509 2.83354 0
M  V30 7436 H 692.795 -1.67454 3.63041 0
M  V30 7437 H 694.235 -2.66006 3.30177 0
M  V30 7438 C 692.694 -2.83159 1.82545 0
M  V30 7439 O 693.224 -3.79944 1.30405 0
M  V30 7440 N 691.43 -2.47953 1.51552 0
M  V30 7441 H 690.977 -1.69309 1.94144 0
M  V30 7442 H 690.935 -3.02873 0.843519 0
M  V30 7443 N 694.707 -1.5719 -0.113559 0
M  V30 7444 C 695.657 -1.97166 -1.14497 0
M  V30 7445 C 696.641 -0.847413 -1.36776 0
M  V30 7446 O 697.833 -1.11114 -1.37777 0
M  V30 7447 C 694.962 -2.38411 -2.47013 0
M  V30 7448 C 694.048 -3.5748 -2.28185 0
M  V30 7449 N 694.439 -4.72998 -1.79182 0
M  V30 7450 C 692.737 -3.63218 -2.58821 0
M  V30 7451 C 693.438 -5.55007 -1.74191 0
M  V30 7452 N 692.414 -4.9765 -2.18735 0
M  V30 7453 H 696.216 -2.83937 -0.758733 0
M  V30 7454 H 693.73 -1.59191 -0.321234 0
M  V30 7455 H 695.727 -2.65269 -3.21618 0
M  V30 7456 H 694.387 -1.53007 -2.8639 0
M  V30 7457 H 695.398 -4.96109 -1.48649 0
M  V30 7458 H 692.075 -2.88434 -3.01847 0
M  V30 7459 H 693.465 -6.57678 -1.37512 0
M  V30 7460 N 696.185 0.383891 -1.52853 0
M  V30 7461 C 697.596 0.961591 -1.60032 0
M  V30 7462 C 697.947 1.90819 -0.456333 0
M  V30 7463 O 697.072 2.12288 0.419873 0
M  V30 7464 C 697.667 1.75078 -2.90057 0
M  V30 7465 C 696.226 2.2781 -2.99632 0
M  V30 7466 C 695.373 1.08512 -2.55187 0
M  V30 7467 H 698.324 0.163269 -1.57858 0
M  V30 7468 H 698.345 2.61046 -2.7683 0
M  V30 7469 H 697.857 1.06157 -3.73299 0
M  V30 7470 H 695.958 3.00028 -2.20939 0
M  V30 7471 H 696.071 2.56947 -4.0437 0
M  V30 7472 H 694.435 1.44667 -2.09627 0
M  V30 7473 H 695.218 0.41118 -3.40829 0
M  V30 7474 N 697.663 1.43903 0.642637 0
M  V30 7475 C 698.891 1.4954 1.42988 0
M  V30 7476 C 699.306 0.116588 1.8844 0
M  V30 7477 O 698.663 -0.875285 1.60141 0
M  V30 7478 C 698.714 2.45031 2.65785 0
M  V30 7479 O 698.435 3.77551 2.22232 0
M  V30 7480 C 699.936 2.60017 3.59035 0
M  V30 7481 H 697.156 0.507544 0.438907 0
M  V30 7482 H 699.7 1.88752 0.786942 0
M  V30 7483 H 697.855 2.08985 3.26196 0
M  V30 7484 H 698.269 4.29001 3.01759 0
M  V30 7485 H 699.743 3.30887 4.41835 0
M  V30 7486 H 700.22 1.64861 4.07084 0
M  V30 7487 H 700.826 2.96918 3.045 0
M  V30 7488 N 699.141 -0.881989 1.30609 0
M  V30 7489 C 700.104 -1.96957 1.1722 0
M  V30 7490 C 701.104 -1.60472 0.102598 0
M  V30 7491 O 702.294 -1.70628 0.350943 0
M  V30 7492 C 699.426 -3.31463 0.796572 0
M  V30 7493 H 700.619 -2.10262 2.13846 0
M  V30 7494 H 698.172 -1.06877 1.14048 0
M  V30 7495 H 698.907 -3.23859 -0.169053 0
M  V30 7496 H 698.692 -3.59314 1.56959 0
M  V30 7497 H 700.182 -4.11233 0.72645 0
M  V30 7498 N 700.619 -1.13374 -1.09472 0
M  V30 7499 C 702.03 -0.90801 -1.63132 0
M  V30 7500 C 702.381 0.555576 -1.8817 0
M  V30 7501 O 701.506 1.42218 -1.63104 0
M  V30 7502 C 702.101 -1.64182 -2.96361 0
M  V30 7503 C 700.66 -1.46197 -3.46848 0
M  V30 7504 C 699.807 -1.67134 -2.21273 0
M  V30 7505 H 702.758 -1.2871 -0.928411 0
M  V30 7506 H 702.779 -1.09863 -3.64294 0
M  V30 7507 H 702.291 -2.707 -2.78106 0
M  V30 7508 H 700.392 -0.419788 -3.70228 0
M  V30 7509 H 700.505 -2.22472 -4.24315 0
M  V30 7510 H 698.869 -1.09616 -2.29905 0
M  V30 7511 H 699.652 -2.74971 -2.05538 0
M  V30 7512 N 702.098 1.27442 -0.927168 0
M  V30 7513 C 703.347 1.93679 -0.563146 0
M  V30 7514 C 703.66 1.73673 0.899837 0
M  V30 7515 O 704.866 2.34247 1.37262 0
M  V30 7516 C 703.322 3.46961 -0.95636 0
M  V30 7517 C 702.93 3.75724 -2.43999 0
M  V30 7518 C 704.674 4.19282 -0.663565 0
M  V30 7519 C 702.581 5.22378 -2.77263 0
M  V30 7520 H 701.511 0.725059 -0.206894 0
M  V30 7521 H 704.162 1.44743 -1.12791 0
M  V30 7522 H 702.544 3.94703 -0.320254 0
M  V30 7523 H 703.718 3.38741 -3.12396 0
M  V30 7524 H 702.033 3.16605 -2.70463 0
M  V30 7525 H 704.63 5.27265 -0.888596 0
M  V30 7526 H 704.973 4.14382 0.399198 0
M  V30 7527 H 705.506 3.7736 -1.25875 0
M  V30 7528 H 702.245 5.32367 -3.82446 0
M  V30 7529 H 701.765 5.6051 -2.13516 0
M  V30 7530 H 703.444 5.9025 -2.64979 0
M  V30 7531 N 703.576 0.692616 1.41565 0
M  V30 7532 C 704.825 0.219452 2.00503 0
M  V30 7533 C 705.138 -1.18683 1.55479 0
M  V30 7534 O 706.344 -1.75731 2.06956 0
M  V30 7535 C 704.8 0.341451 3.58277 0
M  V30 7536 C 704.408 1.75291 4.12283 0
M  V30 7537 C 706.152 -0.0720899 4.24439 0
M  V30 7538 C 704.059 1.82673 5.62481 0
M  V30 7539 H 702.989 0.0782874 0.749925 0
M  V30 7540 H 705.64 0.860386 1.62079 0
M  V30 7541 H 704.022 -0.367683 3.94289 0
M  V30 7542 H 705.196 2.49057 3.87695 0
M  V30 7543 H 703.511 2.11587 3.58636 0
M  V30 7544 H 706.108 -0.0373385 5.34687 0
M  V30 7545 H 706.451 -1.11034 4.0122 0
M  V30 7546 H 706.984 0.586663 3.9345 0
M  V30 7547 H 703.723 2.84539 5.90523 0
M  V30 7548 H 703.243 1.13288 5.89004 0
M  V30 7549 H 704.922 1.58827 6.27203 0
M  V30 7550 N 705.054 -1.51416 0.437162 0
M  V30 7551 C 706.294 -2.03995 -0.128538 0
M  V30 7552 C 706.658 -1.31417 -1.39977 0
M  V30 7553 O 707.859 -1.74369 -2.0457 0
M  V30 7554 C 706.13 -3.55757 -0.342317 0
M  V30 7555 S 707.689 -4.3006 -0.871446 0
M  V30 7556 H 704.507 -0.710283 -0.0319322 0
M  V30 7557 H 707.109 -1.86177 0.596526 0
M  V30 7558 H 705.813 -4.06148 0.589233 0
M  V30 7559 H 705.344 -3.77869 -1.09447 0
M  V30 7560 H 707.359 -4.47248 -2.14903 0
M  V30 7561 N 706.532 -0.168513 -1.56696 0
M  V30 7562 C 707.442 0.775435 -2.21414 0
M  V30 7563 C 708.458 1.25529 -1.20492 0
M  V30 7564 O 709.634 1.30801 -1.53144 0
M  V30 7565 C 706.699 1.9886 -2.83999 0
M  V30 7566 C 705.76 1.5559 -4.00113 0
M  V30 7567 C 704.993 2.71124 -4.59704 0
M  V30 7568 O 705.216 3.87917 -4.18182 0
M  V30 7569 O 704.15 2.4536 -5.4962 0
M  V30 7570 H 707.976 0.254416 -3.02632 0
M  V30 7571 H 705.561 0.0595507 -1.49281 0
M  V30 7572 H 707.443 2.69816 -3.23693 0
M  V30 7573 H 706.118 2.49874 -2.05779 0
M  V30 7574 H 705.025 0.815924 -3.65094 0
M  V30 7575 H 706.358 1.09271 -4.79917 0
M  V30 7576 N 708.01 1.57248 0.105221 0
M  V30 7577 C 709.257 1.8557 0.810552 0
M  V30 7578 C 709.585 0.755595 1.79223 0
M  V30 7579 O 708.84 -0.251788 1.94073 0
M  V30 7580 C 709.139 3.20437 1.58287 0
M  V30 7581 C 708.805 4.44716 0.744235 0
M  V30 7582 C 707.467 4.78458 0.513013 0
M  V30 7583 C 709.819 5.20953 0.160578 0
M  V30 7584 C 707.147 5.8587 -0.311894 0
M  V30 7585 C 709.499 6.29235 -0.651596 0
M  V30 7586 C 708.163 6.615 -0.893005 0
M  V30 7587 H 707.433 0.67905 0.296602 0
M  V30 7588 H 710.08 1.91363 0.0723968 0
M  V30 7589 H 708.385 3.10283 2.39232 0
M  V30 7590 H 710.082 3.39576 2.13282 0
M  V30 7591 H 706.672 4.18287 0.934555 0
M  V30 7592 H 710.856 4.95226 0.3264 0
M  V30 7593 H 706.112 6.09286 -0.508012 0
M  V30 7594 H 710.286 6.87484 -1.11077 0
M  V30 7595 H 707.913 7.44562 -1.53401 0
M  V30 7596 N 709.488 -0.375779 1.53054 0
M  V30 7597 C 710.418 -1.46598 1.81745 0
M  V30 7598 C 711.399 -1.56337 0.670286 0
M  V30 7599 O 712.584 -1.71071 0.919158 0
M  V30 7600 C 709.714 -2.84058 1.99821 0
M  V30 7601 C 708.668 -2.8915 3.15557 0
M  V30 7602 C 707.994 -4.29187 3.18908 0
M  V30 7603 C 709.294 -2.57595 4.54359 0
M  V30 7604 H 710.988 -1.22837 2.73041 0
M  V30 7605 H 708.534 -0.589485 1.31381 0
M  V30 7606 H 710.487 -3.60342 2.18475 0
M  V30 7607 H 709.211 -3.09184 1.05226 0
M  V30 7608 H 707.87 -2.15316 2.96706 0
M  V30 7609 H 707.518 -4.51374 2.2197 0
M  V30 7610 H 707.218 -4.33512 3.96662 0
M  V30 7611 H 708.742 -5.07359 3.39734 0
M  V30 7612 H 710.156 -3.23595 4.73243 0
M  V30 7613 H 708.553 -2.73252 5.34279 0
M  V30 7614 H 709.623 -1.52882 4.60169 0
M  V30 7615 N 710.966 -1.44241 -0.634997 0
M  V30 7616 C 712.194 -1.50296 -1.42193 0
M  V30 7617 C 712.609 -0.12658 -1.88375 0
M  V30 7618 O 711.966 0.86678 -1.60603 0
M  V30 7619 C 712.017 -2.46437 -2.64482 0
M  V30 7620 O 711.738 -3.78724 -2.20226 0
M  V30 7621 C 713.239 -2.61918 -3.57651 0
M  V30 7622 H 710.459 -0.509865 -0.43621 0
M  V30 7623 H 713.003 -1.89167 -0.776921 0
M  V30 7624 H 711.158 -2.10712 -3.25083 0
M  V30 7625 H 711.572 -4.30595 -2.9948 0
M  V30 7626 H 713.046 -3.33225 -4.40074 0
M  V30 7627 H 713.523 -1.67017 -4.06204 0
M  V30 7628 H 714.129 -2.98528 -3.02921 0
M  V30 7629 N 712.444 0.87505 -1.31075 0
M  V30 7630 C 713.377 1.98471 -1.12625 0
M  V30 7631 C 714.355 1.6257 -0.0311379 0
M  V30 7632 O 715.539 1.87574 -0.186594 0
M  V30 7633 C 712.666 3.30963 -0.719799 0
M  V30 7634 C 711.712 3.85849 -1.81722 0
M  V30 7635 S 712.545 4.11926 -3.42165 0
M  V30 7636 C 713.701 5.47423 -3.03445 0
M  V30 7637 H 713.934 2.13817 -2.06566 0
M  V30 7638 H 711.467 1.02463 -1.15502 0
M  V30 7639 H 713.425 4.07541 -0.492035 0
M  V30 7640 H 712.086 3.1346 0.200413 0
M  V30 7641 H 711.279 4.81616 -1.48533 0
M  V30 7642 H 710.881 3.16046 -1.99977 0
M  V30 7643 H 713.173 6.28881 -2.52023 0
M  V30 7644 H 714.116 5.85557 -3.98157 0
M  V30 7645 H 714.524 5.10455 -2.41031 0
M  V30 7646 N 713.922 1.13953 1.08869 0
M  V30 7647 C 714.855 0.765765 2.14968 0
M  V30 7648 C 715.833 -0.250689 1.60656 0
M  V30 7649 O 717.017 -0.140852 1.87973 0
M  V30 7650 C 714.144 0.136146 3.38426 0
M  V30 7651 C 713.19 1.12201 4.11477 0
M  V30 7652 S 714.023 2.65711 4.64928 0
M  V30 7653 C 715.179 2.04125 5.91679 0
M  V30 7654 H 715.412 1.66444 2.46341 0
M  V30 7655 H 712.945 0.960263 1.20906 0
M  V30 7656 H 714.903 -0.220712 4.09906 0
M  V30 7657 H 713.564 -0.739887 3.05261 0
M  V30 7658 H 712.757 0.629398 5.00055 0
M  V30 7659 H 712.359 1.42262 3.45886 0
M  V30 7660 H 714.651 1.39381 6.63008 0
M  V30 7661 H 715.594 2.90808 6.45629 0
M  V30 7662 H 716.002 1.4905 5.44467 0
M  V30 7663 N 715.4 -1.26948 0.933913 0
M  V30 7664 C 716.363 -2.24889 0.442457 0
M  V30 7665 C 717.363 -1.54594 -0.442426 0
M  V30 7666 O 718.553 -1.72502 -0.242629 0
M  V30 7667 C 715.685 -3.3896 -0.363173 0
M  V30 7668 H 716.878 -2.69879 1.30787 0
M  V30 7669 H 714.431 -1.38978 0.715187 0
M  V30 7670 H 715.166 -2.99361 -1.24714 0
M  V30 7671 H 714.951 -3.9116 0.271366 0
M  V30 7672 H 716.441 -4.11739 -0.697186 0
M  V30 7673 N 716.879 -0.700114 -1.41195 0
M  V30 7674 C 718.125 -0.233351 -2.01453 0
M  V30 7675 C 718.458 1.16548 -1.55339 0
M  V30 7676 O 717.733 1.78756 -0.766575 0
M  V30 7677 C 718.016 -0.2961 -3.58881 0
M  V30 7678 C 717.869 -1.7322 -4.15108 0
M  V30 7679 C 719.188 0.341525 -4.38773 0
M  V30 7680 H 716.307 -0.0862667 -0.731934 0
M  V30 7681 H 718.949 -0.889693 -1.67882 0
M  V30 7682 H 717.099 0.262736 -3.87611 0
M  V30 7683 H 718.771 -2.34523 -3.97236 0
M  V30 7684 H 717.014 -2.2649 -3.69979 0
M  V30 7685 H 717.685 -1.7276 -5.24269 0
M  V30 7686 H 720.161 -0.134461 -4.15883 0
M  V30 7687 H 719.037 0.267098 -5.4825 0
M  V30 7688 H 719.298 1.42289 -4.18577 0
M  V30 7689 N 718.357 1.51182 -0.445186 0
M  V30 7690 C 719.597 2.04061 0.117717 0
M  V30 7691 C 719.961 1.32158 1.39278 0
M  V30 7692 O 721.162 1.75452 2.03642 0
M  V30 7693 C 719.433 3.55933 0.323445 0
M  V30 7694 S 720.992 4.30516 0.848627 0
M  V30 7695 H 717.81 0.710442 0.028165 0
M  V30 7696 H 720.412 1.85858 -0.606391 0
M  V30 7697 H 719.116 4.0583 -0.610764 0
M  V30 7698 H 718.647 3.78444 1.07441 0
M  V30 7699 H 720.662 4.48382 2.12528 0
M  V30 7700 N 719.835 0.176821 1.56605 0
M  V30 7701 C 720.785 -0.763718 2.14829 0
M  V30 7702 C 721.769 -1.18903 1.08401 0
M  V30 7703 O 722.961 -1.15048 1.3451 0
M  V30 7704 C 720.09 -1.99069 2.7969 0
M  V30 7705 C 719.176 -1.58711 3.93283 0
M  V30 7706 N 719.567 -0.893423 4.97847 0
M  V30 7707 C 717.865 -1.87774 4.04545 0
M  V30 7708 C 718.566 -0.693866 5.77547 0
M  V30 7709 N 717.542 -1.23699 5.29339 0
M  V30 7710 H 721.344 -0.224811 2.93039 0
M  V30 7711 H 718.858 -0.0236563 1.62383 0
M  V30 7712 H 720.855 -2.67478 3.19783 0
M  V30 7713 H 719.515 -2.53449 2.02962 0
M  V30 7714 H 720.526 -0.550868 5.14962 0
M  V30 7715 H 717.203 -2.43793 3.38927 0
M  V30 7716 H 718.593 -0.144899 6.71744 0
M  V30 7717 N 721.313 -1.57302 -0.09688 0
M  V30 7718 C 722.541 -1.90202 -0.814295 0
M  V30 7719 C 722.956 -0.770344 -1.72369 0
M  V30 7720 O 722.313 0.257764 -1.8067 0
M  V30 7721 C 722.364 -3.22708 -1.62916 0
M  V30 7722 O 722.085 -4.31522 -0.756343 0
M  V30 7723 C 723.586 -3.69459 -2.44979 0
M  V30 7724 H 720.806 -0.629275 -0.232925 0
M  V30 7725 H 723.35 -2.04364 -0.0746482 0
M  V30 7726 H 721.505 -3.1015 -2.32133 0
M  V30 7727 H 721.919 -5.07604 -1.32054 0
M  V30 7728 H 723.393 -4.64875 -2.9765 0
M  V30 7729 H 723.87 -2.97211 -3.23361 0
M  V30 7730 H 724.476 -3.84879 -1.80964 0
M  V30 7731 N 722.791 0.367657 -1.53252 0
M  V30 7732 C 723.754 1.43308 -1.78873 0
M  V30 7733 C 724.754 1.46671 -0.659115 0
M  V30 7734 O 725.944 1.47468 -0.927306 0
M  V30 7735 C 723.076 2.82442 -1.90892 0
M  V30 7736 H 724.269 1.21864 -2.74024 0
M  V30 7737 H 721.822 0.600668 -1.44297 0
M  V30 7738 H 722.557 3.09202 -0.978 0
M  V30 7739 H 722.342 2.81399 -2.73051 0
M  V30 7740 H 723.832 3.59601 -2.12314 0
M  V30 7741 N 724.269 1.44576 0.627338 0
M  V30 7742 C 725.515 1.47777 1.38888 0
M  V30 7743 C 725.848 0.111406 1.9388 0
M  V30 7744 O 725.123 -0.87149 1.73883 0
M  V30 7745 C 725.406 2.54119 2.55138 0
M  V30 7746 C 725.259 4.00128 2.0547 0
M  V30 7747 C 726.578 2.56929 3.57317 0
M  V30 7748 H 723.697 0.538048 0.50366 0
M  V30 7749 H 726.339 1.76277 0.708978 0
M  V30 7750 H 724.489 2.29948 3.13139 0
M  V30 7751 H 726.161 4.35444 1.5227 0
M  V30 7752 H 724.404 4.11724 1.36623 0
M  V30 7753 H 725.075 4.7019 2.89181 0
M  V30 7754 H 727.551 2.78536 3.09122 0
M  V30 7755 H 726.427 3.33234 4.36173 0
M  V30 7756 H 726.688 1.6127 4.11636 0
M  V30 7757 N 725.747 -0.868086 1.31537 0
M  V30 7758 C 727.158 -1.437 1.19195 0
M  V30 7759 C 727.509 -1.95169 -0.200842 0
M  V30 7760 O 726.634 -1.86432 -1.09872 0
M  V30 7761 C 727.229 -2.612 2.15778 0
M  V30 7762 C 725.788 -3.1413 2.07363 0
M  V30 7763 C 724.935 -1.86845 2.049 0
M  V30 7764 H 727.886 -0.676457 1.43561 0
M  V30 7765 H 727.907 -3.37948 1.74847 0
M  V30 7766 H 727.419 -2.23709 3.17137 0
M  V30 7767 H 725.52 -3.56238 1.09204 0
M  V30 7768 H 725.633 -3.76285 2.96557 0
M  V30 7769 H 723.997 -2.05886 1.49943 0
M  V30 7770 H 724.78 -1.51589 3.08019 0
M  V30 7771 N 727.225 -1.14528 -1.08264 0
M  V30 7772 C 728.135 -0.84728 -2.18765 0
M  V30 7773 C 729.151 0.172826 -1.7314 0
M  V30 7774 O 730.327 0.000985336 -2.014 0
M  V30 7775 C 727.392 -0.330633 -3.4512 0
M  V30 7776 C 726.453 -1.41348 -4.05363 0
M  V30 7777 C 725.686 -0.921387 -5.25686 0
M  V30 7778 O 725.909 0.236587 -5.69909 0
M  V30 7779 O 724.843 -1.70101 -5.77364 0
M  V30 7780 H 728.669 -1.7708 -2.46731 0
M  V30 7781 H 726.254 -0.923661 -1.17426 0
M  V30 7782 H 728.136 -0.0485053 -4.21372 0
M  V30 7783 H 726.811 0.565147 -3.18728 0
M  V30 7784 H 725.718 -1.74908 -3.30693 0
M  V30 7785 H 727.051 -2.28383 -4.36007 0
M  V30 7786 N 728.703 1.26451 -0.940633 0
M  V30 7787 C 730.119 1.4608 -0.642859 0
M  V30 7788 C 730.319 1.84765 0.803998 0
M  V30 7789 O 729.375 1.96902 1.58069 0
M  V30 7790 C 730.688 2.54359 -1.60381 0
M  V30 7791 C 732.236 2.6821 -1.61345 0
M  V30 7792 C 732.711 3.79659 -2.56169 0
M  V30 7793 N 734.202 3.87051 -2.54452 0
M  V30 7794 C 734.937 4.72739 -3.24507 0
M  V30 7795 N 734.433 5.6282 -4.03987 0
M  V30 7796 N 736.226 4.66581 -3.13462 0
M  V30 7797 H 728.377 0.996289 -1.87584 0
M  V30 7798 H 730.64 0.498921 -0.80609 0
M  V30 7799 H 730.346 2.32758 -2.6366 0
M  V30 7800 H 730.22 3.52005 -1.35545 0
M  V30 7801 H 732.607 2.89184 -0.587913 0
M  V30 7802 H 732.688 1.7101 -1.90235 0
M  V30 7803 H 732.332 3.59438 -3.58841 0
M  V30 7804 H 732.262 4.76315 -2.2457 0
M  V30 7805 H 734.753 3.22649 -1.96739 0
M  V30 7806 H 735.066 6.25095 -4.54396 0
M  V30 7807 H 733.411 5.62574 -4.08088 0
M  V30 7808 H 736.602 3.9521 -2.50852 0
M  V30 7809 H 736.775 5.33141 -3.68327 0
M  V30 7810 N 730.181 0.707592 1.40822 0
M  V30 7811 C 731.091 0.0507246 2.34545 0
M  V30 7812 C 732.107 -0.752727 1.56876 0
M  V30 7813 O 733.283 -0.687524 1.89302 0
M  V30 7814 C 730.348 -0.865731 3.35717 0
M  V30 7815 C 729.409 -0.0531313 4.29267 0
M  V30 7816 C 728.642 -0.925939 5.25606 0
M  V30 7817 O 728.865 -2.16531 5.27703 0
M  V30 7818 O 727.799 -0.369194 6.00767 0
M  V30 7819 H 731.625 0.823587 2.9232 0
M  V30 7820 H 729.21 0.46801 1.4188 0
M  V30 7821 H 731.092 -1.39091 3.97783 0
M  V30 7822 H 729.767 -1.61788 2.80368 0
M  V30 7823 H 728.674 0.516931 3.70511 0
M  V30 7824 H 730.007 0.660617 4.87747 0
M  V30 7825 N 731.66 -1.50943 0.453197 0
M  V30 7826 C 732.908 -2.01813 -0.107709 0
M  V30 7827 C 733.229 -1.33841 -1.41816 0
M  V30 7828 O 732.499 -0.477973 -1.8998 0
M  V30 7829 H 731.079 -0.745773 -0.0427948 0
M  V30 7830 H 733.741 -1.8545 0.599531 0
M  V30 7831 H 732.837 -3.10911 -0.27218 0
M  V30 7832 N 733.138 -0.185124 -1.56509 0
M  V30 7833 C 734.415 0.503348 -1.89013 0
M  V30 7834 C 734.795 1.80349 -1.09715 0
M  V30 7835 O 734.143 2.27665 -0.195203 0
M  V30 7836 C 734.353 0.731839 -3.41241 0
M  V30 7837 C 735.701 1.05568 -4.11267 0
M  V30 7838 O 736.725 0.819906 -3.46635 0
M  V30 7839 O 735.584 1.50116 -5.25478 0
M  V30 7840 H 732.678 0.261139 -0.784688 0
M  V30 7841 H 735.224 -0.224592 -1.68207 0
M  V30 7842 H 733.996 -0.18672 -3.90854 0
M  V30 7843 H 733.619 1.5126 -3.67704 0
M  V30 7844 N 734.616 1.57351 0.0885366 0
M  V30 7845 C 735.563 2.02523 1.10693 0
M  V30 7846 C 736.533 0.902736 1.39427 0
M  V30 7847 O 737.718 1.16921 1.50779 0
M  V30 7848 C 734.858 2.46013 2.42016 0
M  V30 7849 C 733.971 3.7181 2.19957 0
M  V30 7850 C 733.106 4.04152 3.44724 0
M  V30 7851 C 732.145 5.2304 3.17956 0
M  V30 7852 N 731.282 5.51102 4.35007 0
M  V30 7853 H 736.122 2.89302 0.714742 0
M  V30 7854 H 733.659 1.43084 0.341378 0
M  V30 7855 H 735.617 2.69274 3.18665 0
M  V30 7856 H 734.247 1.62235 2.79069 0
M  V30 7857 H 733.299 3.55987 1.34079 0
M  V30 7858 H 734.611 4.58604 1.96173 0
M  V30 7859 H 733.765 4.28225 4.29777 0
M  V30 7860 H 732.504 3.15893 3.71568 0
M  V30 7861 H 731.509 4.98781 2.31296 0
M  V30 7862 H 732.734 6.12902 2.92451 0
M  V30 7863 H 730.68 4.65802 4.61914 0
M  V30 7864 H 730.597 6.3228 4.14437 0
M  V30 7865 H 731.865 5.79714 5.21106 0
M  V30 7866 N 736.094 -0.359525 1.53444 0
M  V30 7867 C 737.343 -1.09886 1.69139 0
M  V30 7868 C 737.656 -1.90285 0.452863 0
M  V30 7869 O 738.862 -2.67033 0.490459 0
M  V30 7870 C 737.318 -2.0028 2.99025 0
M  V30 7871 C 736.926 -1.25164 4.30161 0
M  V30 7872 C 738.67 -2.74168 3.24086 0
M  V30 7873 C 736.577 -2.14494 5.51132 0
M  V30 7874 H 735.507 -0.413936 0.630217 0
M  V30 7875 H 738.158 -0.359434 1.79945 0
M  V30 7876 H 736.54 -2.77978 2.82036 0
M  V30 7877 H 737.714 -0.524867 4.57801 0
M  V30 7878 H 736.029 -0.631116 4.11589 0
M  V30 7879 H 738.626 -3.41243 4.11652 0
M  V30 7880 H 738.969 -3.39868 2.40407 0
M  V30 7881 H 739.502 -2.0355 3.41778 0
M  V30 7882 H 736.241 -1.53362 6.37307 0
M  V30 7883 H 735.761 -2.85004 5.27762 0
M  V30 7884 H 737.44 -2.73914 5.86157 0
M  V30 7885 N 737.572 -1.44907 -0.619662 0
M  V30 7886 C 738.821 -1.47569 -1.37501 0
M  V30 7887 C 739.134 -0.116707 -1.95252 0
M  V30 7888 O 740.34 -0.020909 -2.71492 0
M  V30 7889 C 738.796 -2.59851 -2.49009 0
M  V30 7890 C 738.404 -4.02008 -1.97722 0
M  V30 7891 C 740.148 -2.71746 -3.2612 0
M  V30 7892 C 738.055 -5.05693 -3.0664 0
M  V30 7893 H 736.985 -0.549068 -0.51676 0
M  V30 7894 H 739.636 -1.71009 -0.665437 0
M  V30 7895 H 738.018 -2.29671 -3.22594 0
M  V30 7896 H 739.192 -4.41809 -1.30925 0
M  V30 7897 H 737.507 -3.94456 -1.33392 0
M  V30 7898 H 740.104 -3.46382 -4.07337 0
M  V30 7899 H 740.447 -1.77959 -3.76346 0
M  V30 7900 H 740.98 -3.01392 -2.5963 0
M  V30 7901 H 737.719 -6.01148 -2.61345 0
M  V30 7902 H 737.239 -4.70473 -3.72042 0
M  V30 7903 H 738.918 -5.29906 -3.71226 0
M  V30 7904 N 739.05 0.861098 -1.31996 0
M  V30 7905 C 740.28 1.64501 -1.24992 0
M  V30 7906 C 740.688 1.88288 0.185576 0
M  V30 7907 O 740.031 1.44756 1.131 0
M  V30 7908 C 740.093 3.03098 -1.93319 0
M  V30 7909 C 739.757 3.02381 -3.42658 0
M  V30 7910 C 740.754 2.79696 -4.38254 0
M  V30 7911 C 738.439 3.23221 -3.84491 0
M  V30 7912 C 740.433 2.77843 -5.73657 0
M  V30 7913 C 738.12 3.20996 -5.20005 0
M  V30 7914 C 739.118 2.98335 -6.14398 0
M  V30 7915 O 738.806 2.95971 -7.47433 0
M  V30 7916 H 738.538 0.519309 -0.432775 0
M  V30 7917 H 741.092 1.08241 -1.74565 0
M  V30 7918 H 739.322 3.61121 -1.38306 0
M  V30 7919 H 741.011 3.63751 -1.8011 0
M  V30 7920 H 741.777 2.63368 -4.07262 0
M  V30 7921 H 737.656 3.39887 -3.11445 0
M  V30 7922 H 741.2 2.60074 -6.47308 0
M  V30 7923 H 737.097 3.36865 -5.50629 0
M  V30 7924 H 737.865 3.1197 -7.56714 0
M  V30 7925 N 740.528 1.15101 1.07655 0
M  V30 7926 C 741.46 0.802722 2.14684 0
M  V30 7927 C 742.473 -0.183874 1.61758 0
M  V30 7928 O 743.662 0.0389349 1.78458 0
M  V30 7929 C 740.762 0.172135 3.38463 0
M  V30 7930 C 739.935 1.19538 4.20749 0
M  V30 7931 C 738.994 0.58714 5.22914 0
M  V30 7932 O 738.02 1.25224 5.55255 0
M  V30 7933 N 739.222 -0.632566 5.77043 0
M  V30 7934 H 741.987 1.72379 2.45164 0
M  V30 7935 H 739.548 1.04647 1.23534 0
M  V30 7936 H 741.54 -0.247465 4.03943 0
M  V30 7937 H 740.11 -0.652214 3.0572 0
M  V30 7938 H 739.33 1.79165 3.51132 0
M  V30 7939 H 740.618 1.88636 4.7254 0
M  V30 7940 H 740.016 -1.19135 5.53013 0
M  V30 7941 H 738.573 -0.994566 6.44167 0
M  V30 7942 N 742.006 -1.2595 0.947325 0
M  V30 7943 C 742.969 -2.24407 0.466285 0
M  V30 7944 C 743.969 -1.55054 -0.426005 0
M  V30 7945 O 745.159 -1.7275 -0.224319 0
M  V30 7946 C 742.291 -3.39326 -0.327201 0
M  V30 7947 H 743.484 -2.68477 1.33642 0
M  V30 7948 H 741.037 -1.38211 0.729887 0
M  V30 7949 H 741.772 -3.00667 -1.21532 0
M  V30 7950 H 741.557 -3.9085 0.312839 0
M  V30 7951 H 743.047 -4.12455 -0.653477 0
M  V30 7952 N 743.484 -0.715051 -1.40445 0
M  V30 7953 C 744.447 -0.0708726 -2.2909 0
M  V30 7954 C 745.447 0.687926 -1.45342 0
M  V30 7955 O 746.637 0.519908 -1.66261 0
M  V30 7956 C 743.769 0.909528 -3.28543 0
M  V30 7957 H 744.962 -0.851611 -2.87555 0
M  V30 7958 H 742.515 -0.479674 -1.48758 0
M  V30 7959 H 743.25 1.71734 -2.75096 0
M  V30 7960 H 743.035 0.368318 -3.90366 0
M  V30 7961 H 744.525 1.35744 -3.94922 0
M  V30 7962 N 744.962 1.50701 -0.461195 0
M  V30 7963 C 746.187 2.07171 0.0974773 0
M  V30 7964 C 746.612 1.32391 1.3362 0
M  V30 7965 O 745.97 0.368676 1.77512 0
M  V30 7966 C 746.018 3.58651 0.374409 0
M  V30 7967 O 745.122 3.85816 1.4567 0
M  V30 7968 H 744.463 0.663944 -0.00862047 0
M  V30 7969 H 746.993 1.94021 -0.649394 0
M  V30 7970 H 747.003 4.03295 0.617843 0
M  V30 7971 H 745.678 4.12498 -0.530829 0
M  V30 7972 H 744.255 3.53018 1.20136 0
M  V30 7973 N 746.441 0.193421 1.56409 0
M  V30 7974 C 747.852 -0.319471 1.83946 0
M  V30 7975 C 748.203 -1.61505 1.11403 0
M  V30 7976 O 747.328 -2.13139 0.374289 0
M  V30 7977 C 747.923 -0.586411 3.33686 0
M  V30 7978 C 746.482 -1.04368 3.61641 0
M  V30 7979 C 745.629 -0.0913834 2.77149 0
M  V30 7980 H 748.58 0.417242 1.53117 0
M  V30 7981 H 748.601 -1.43591 3.52366 0
M  V30 7982 H 748.113 0.356701 3.86457 0
M  V30 7983 H 746.214 -2.00113 3.14302 0
M  V30 7984 H 746.327 -0.937549 4.69837 0
M  V30 7985 H 744.691 -0.592954 2.47702 0
M  V30 7986 H 745.474 0.846142 3.32709 0
M  V30 7987 N 747.919 -1.57396 -0.0801906 0
M  V30 7988 C 749.196 -1.77883 -0.813451 0
M  V30 7989 C 749.576 -0.778879 -1.96206 0
M  V30 7990 O 748.924 0.189683 -2.27711 0
M  V30 7991 C 749.134 -3.24116 -1.2942 0
M  V30 7992 C 750.482 -3.87714 -1.73098 0
M  V30 7993 O 751.506 -3.27956 -1.39007 0
M  V30 7994 O 750.365 -4.92828 -2.36184 0
M  V30 7995 H 747.459 -0.729727 -0.389138 0
M  V30 7996 H 750.005 -1.69591 -0.0609166 0
M  V30 7997 H 748.777 -3.88443 -0.471947 0
M  V30 7998 H 748.4 -3.371 -2.1083 0
M  V30 7999 N 749.397 0.351382 -1.53633 0
M  V30 8000 C 750.307 1.45471 -1.84052 0
M  V30 8001 C 751.323 1.57945 -0.730015 0
M  V30 8002 O 752.499 1.73571 -1.02153 0
M  V30 8003 C 749.564 2.80562 -2.03681 0
M  V30 8004 C 748.625 2.77497 -3.27558 0
M  V30 8005 C 747.858 4.06144 -3.46241 0
M  V30 8006 O 748.081 5.03028 -2.68922 0
M  V30 8007 O 747.015 4.11092 -4.39645 0
M  V30 8008 H 750.841 1.22684 -2.77817 0
M  V30 8009 H 748.426 0.542827 -1.3919 0
M  V30 8010 H 750.308 3.6058 -2.18082 0
M  V30 8011 H 748.983 3.03296 -1.13106 0
M  V30 8012 H 747.89 1.96126 -3.18568 0
M  V30 8013 H 749.223 2.59716 -4.18101 0
M  V30 8014 N 750.875 1.45233 0.611969 0
M  V30 8015 C 752.123 1.48727 1.36838 0
M  V30 8016 C 752.444 0.128616 1.94575 0
M  V30 8017 O 751.714 -0.84149 1.76906 0
M  V30 8018 H 750.294 0.547695 0.507976 0
M  V30 8019 H 752.956 1.81156 0.718925 0
M  V30 8020 H 752.052 2.2236 2.19003 0
M  V30 8021 N 752.353 -0.854086 1.3245 0
M  V30 8022 C 753.316 -1.94427 1.21371 0
M  V30 8023 C 754.316 -1.60219 0.136613 0
M  V30 8024 O 755.506 -1.69846 0.387057 0
M  V30 8025 C 752.638 -3.29698 0.866701 0
M  V30 8026 H 753.831 -2.05679 2.18257 0
M  V30 8027 H 751.384 -1.04434 1.1629 0
M  V30 8028 H 752.119 -3.24145 -0.100319 0
M  V30 8029 H 751.904 -3.55903 1.64545 0
M  V30 8030 H 753.394 -4.09599 0.813515 0
M  V30 8031 N 753.831 -1.1567 -1.07043 0
M  V30 8032 C 754.761 -0.879348 -2.16309 0
M  V30 8033 C 755.742 0.171311 -1.69235 0
M  V30 8034 O 756.927 0.0250175 -1.94184 0
M  V30 8035 C 754.057 -0.371307 -3.45309 0
M  V30 8036 C 753.011 -1.359 -4.05851 0
M  V30 8037 C 752.337 -0.709678 -5.29969 0
M  V30 8038 C 753.637 -2.72606 -4.45514 0
M  V30 8039 H 755.331 -1.79308 -2.39768 0
M  V30 8040 H 752.877 -0.863558 -1.15233 0
M  V30 8041 H 754.83 -0.164798 -4.21078 0
M  V30 8042 H 753.554 0.577906 -3.21446 0
M  V30 8043 H 752.213 -1.55193 -3.32131 0
M  V30 8044 H 751.861 0.245782 -5.02399 0
M  V30 8045 H 751.561 -1.36886 -5.71433 0
M  V30 8046 H 753.085 -0.513015 -6.08441 0
M  V30 8047 H 754.499 -2.57141 -5.12398 0
M  V30 8048 H 752.896 -3.34927 -4.97939 0
M  V30 8049 H 753.966 -3.28434 -3.56734 0
M  V30 8050 N 755.309 1.25446 -0.953992 0
M  V30 8051 C 756.555 1.9343 -0.60933 0
M  V30 8052 C 756.888 1.74542 0.851388 0
M  V30 8053 O 756.163 1.09014 1.61078 0
M  V30 8054 C 756.446 3.46844 -0.968041 0
M  V30 8055 C 756.299 3.74961 -2.48444 0
M  V30 8056 C 757.618 4.37334 -0.492641 0
M  V30 8057 H 754.737 0.702502 -0.222844 0
M  V30 8058 H 757.379 1.48076 -1.19053 0
M  V30 8059 H 755.529 3.85604 -0.473465 0
M  V30 8060 H 757.201 3.45841 -3.05273 0
M  V30 8061 H 755.444 3.20589 -2.92241 0
M  V30 8062 H 756.115 4.82246 -2.68594 0
M  V30 8063 H 758.591 4.05873 -0.916878 0
M  V30 8064 H 757.467 5.43439 -0.772331 0
M  V30 8065 H 757.728 4.37908 0.607403 0
M  V30 8066 N 756.787 0.722489 1.40064 0
M  V30 8067 C 758.203 0.396758 1.5459 0
M  V30 8068 C 758.403 -1.09375 1.69232 0
M  V30 8069 O 757.459 -1.87984 1.68578 0
M  V30 8070 C 758.772 1.16885 2.77053 0
M  V30 8071 C 760.32 1.15583 2.90877 0
M  V30 8072 C 760.795 1.91023 4.16262 0
M  V30 8073 N 762.286 1.88126 4.23276 0
M  V30 8074 C 763.021 2.43315 5.19216 0
M  V30 8075 N 762.517 3.07089 6.21022 0
M  V30 8076 N 764.31 2.33418 5.11344 0
M  V30 8077 H 756.461 1.68887 1.28806 0
M  V30 8078 H 758.724 0.714231 0.62336 0
M  V30 8079 H 758.43 2.22301 2.72534 0
M  V30 8080 H 758.304 0.765011 3.69361 0
M  V30 8081 H 760.691 0.10984 2.94896 0
M  V30 8082 H 760.772 1.59895 1.99668 0
M  V30 8083 H 760.416 2.95616 4.13006 0
M  V30 8084 H 760.346 1.44126 5.06493 0
M  V30 8085 H 762.837 1.41654 3.50346 0
M  V30 8086 H 763.15 3.467 6.90666 0
M  V30 8087 H 761.495 3.11175 6.21446 0
M  V30 8088 H 764.686 1.83248 4.30741 0
M  V30 8089 H 764.859 2.7673 5.85939 0
M  V30 8090 N 758.265 -1.50454 0.469181 0
M  V30 8091 C 759.228 -2.2703 -0.314643 0
M  V30 8092 C 760.228 -1.31734 -0.922111 0
M  V30 8093 O 761.418 -1.55176 -0.791588 0
M  V30 8094 C 758.55 -3.08616 -1.44806 0
M  V30 8095 H 759.743 -2.97769 0.356892 0
M  V30 8096 H 757.296 -1.54698 0.223191 0
M  V30 8097 H 758.031 -2.42369 -2.1547 0
M  V30 8098 H 757.816 -3.78647 -1.01829 0
M  V30 8099 H 759.306 -3.66536 -2.00103 0
M  V30 8100 N 759.743 -0.201713 -1.56304 0
M  V30 8101 C 760.706 0.702811 -2.18159 0
M  V30 8102 C 761.706 1.13619 -1.13787 0
M  V30 8103 O 762.896 1.0482 -1.39134 0
M  V30 8104 C 760.028 1.96032 -2.78898 0
M  V30 8105 H 761.221 0.163836 -2.99452 0
M  V30 8106 H 758.774 0.04791 -1.56227 0
M  V30 8107 H 759.509 2.54165 -2.01421 0
M  V30 8108 H 759.294 1.65824 -3.55309 0
M  V30 8109 H 760.784 2.60519 -3.26373 0
M  V30 8110 N 761.222 1.57436 0.0718424 0
M  V30 8111 C 762.169 2.03686 1.08539 0
M  V30 8112 C 763.139 0.917474 1.38462 0
M  V30 8113 O 764.324 1.18513 1.4953 0
M  V30 8114 C 761.464 2.48566 2.39393 0
M  V30 8115 C 760.577 3.74122 2.16001 0
M  V30 8116 C 759.712 4.07786 3.40418 0
M  V30 8117 C 758.751 5.26383 3.1239 0
M  V30 8118 N 757.888 5.55685 4.29138 0
M  V30 8119 H 762.728 2.90043 0.684018 0
M  V30 8120 H 760.265 1.43438 0.326183 0
M  V30 8121 H 762.223 2.72639 3.15791 0
M  V30 8122 H 760.853 1.65186 2.77333 0
M  V30 8123 H 759.905 3.57389 1.30296 0
M  V30 8124 H 761.217 4.60659 1.91298 0
M  V30 8125 H 760.371 4.32759 4.25211 0
M  V30 8126 H 759.11 3.19817 3.68197 0
M  V30 8127 H 758.115 5.01206 2.25993 0
M  V30 8128 H 759.34 6.1597 2.85934 0
M  V30 8129 H 757.286 4.70675 4.56948 0
M  V30 8130 H 757.203 6.3664 4.07708 0
M  V30 8131 H 758.471 5.85209 5.14928 0
M  V30 8132 N 762.7 -0.34323 1.53817 0
M  V30 8133 C 763.632 -1.44216 1.78141 0
M  V30 8134 C 764.645 -1.48701 0.662721 0
M  V30 8135 O 765.834 -1.51778 0.939458 0
M  V30 8136 C 762.934 -2.82872 1.86646 0
M  V30 8137 C 762.107 -3.01824 3.16577 0
M  V30 8138 C 761.166 -4.20723 3.16036 0
M  V30 8139 O 760.192 -4.14824 3.89756 0
M  V30 8140 N 761.394 -5.29276 2.38427 0
M  V30 8141 H 764.159 -1.23721 2.72971 0
M  V30 8142 H 761.72 -0.53311 1.52871 0
M  V30 8143 H 763.712 -3.60588 1.83735 0
M  V30 8144 H 762.282 -2.96509 0.990014 0
M  V30 8145 H 761.502 -2.11575 3.3261 0
M  V30 8146 H 762.79 -3.11369 4.02402 0
M  V30 8147 H 762.188 -5.36938 1.78085 0
M  V30 8148 H 760.745 -6.05484 2.41313 0
M  V30 8149 N 764.178 -1.45556 -0.604258 0
M  V30 8150 C 765.108 -1.57327 -1.72541 0
M  V30 8151 C 766.089 -0.424637 -1.64714 0
M  V30 8152 O 767.274 -0.648196 -1.83063 0
M  V30 8153 C 764.404 -1.54279 -3.11152 0
M  V30 8154 C 763.358 -2.67893 -3.33792 0
M  V30 8155 C 762.684 -2.499 -4.72709 0
M  V30 8156 C 763.984 -4.0988 -3.23722 0
M  V30 8157 H 765.678 -2.51175 -1.62947 0
M  V30 8158 H 763.224 -1.20884 -0.782504 0
M  V30 8159 H 765.177 -1.6111 -3.89386 0
M  V30 8160 H 763.901 -0.569627 -3.21594 0
M  V30 8161 H 762.56 -2.60495 -2.57949 0
M  V30 8162 H 762.208 -1.50715 -4.79889 0
M  V30 8163 H 761.908 -3.26091 -4.88813 0
M  V30 8164 H 763.432 -2.5859 -5.5314 0
M  V30 8165 H 764.846 -4.18503 -3.91826 0
M  V30 8166 H 763.243 -4.86487 -3.51355 0
M  V30 8167 H 764.313 -4.31553 -2.21111 0
M  V30 8168 N 765.656 0.84705 -1.32902 0
M  V30 8169 C 766.604 1.97765 -1.22441 0
M  V30 8170 C 767.598 1.68919 -0.127546 0
M  V30 8171 O 768.804 1.77633 -0.290973 0
M  V30 8172 H 765.179 0.649072 -0.379748 0
M  V30 8173 H 767.15 2.03713 -2.18044 0
M  V30 8174 C 765.899 3.33834 -0.972125 0
M  V30 8175 H 765.222 3.56564 -1.80837 0
M  V30 8176 H 766.662 4.13467 -0.939209 0
M  V30 8177 C 765.121 3.35328 0.325059 0
M  V30 8178 O 765.651 3.78887 1.33445 0
M  V30 8179 N 763.857 2.88488 0.349718 0
M  V30 8180 H 763.404 2.53234 -0.472236 0
M  V30 8181 H 763.362 2.8987 1.21748 0
M  V30 8182 N 767.134 1.16236 1.06428 0
M  V30 8183 C 768.381 0.943034 1.79201 0
M  V30 8184 C 768.709 -0.529243 1.87161 0
M  V30 8185 O 767.964 -1.40874 1.35842 0
M  V30 8186 C 768.263 1.51396 3.2375 0
M  V30 8187 C 767.929 3.00833 3.35873 0
M  V30 8188 C 766.591 3.41626 3.38888 0
M  V30 8189 C 768.943 3.96825 3.37904 0
M  V30 8190 C 766.271 4.77033 3.4155 0
M  V30 8191 C 768.623 5.32116 3.42104 0
M  V30 8192 C 767.287 5.72392 3.43401 0
M  V30 8193 H 766.557 0.34508 0.655744 0
M  V30 8194 H 769.204 1.44929 1.25171 0
M  V30 8195 H 767.509 0.929114 3.80624 0
M  V30 8196 H 769.206 1.31996 3.78653 0
M  V30 8197 H 765.796 2.68306 3.3423 0
M  V30 8198 H 769.98 3.66376 3.34787 0
M  V30 8199 H 765.236 5.07569 3.40858 0
M  V30 8200 H 769.41 6.06286 3.42623 0
M  V30 8201 H 767.037 6.77296 3.45216 0
M  V30 8202 N 768.612 -1.24939 0.960631 0
M  V30 8203 C 769.858 -1.93104 0.61958 0
M  V30 8204 C 770.191 -1.74991 -0.84212 0
M  V30 8205 O 769.466 -1.09867 -1.60498 0
M  V30 8206 C 769.749 -3.46326 0.986422 0
M  V30 8207 C 769.602 -3.73638 2.50429 0
M  V30 8208 C 770.921 -4.37067 0.515827 0
M  V30 8209 H 768.04 -0.701311 0.226566 0
M  V30 8210 H 770.682 -1.47442 1.19836 0
M  V30 8211 H 768.832 -3.85348 0.493907 0
M  V30 8212 H 770.504 -3.44217 3.07103 0
M  V30 8213 H 768.747 -3.19035 2.93937 0
M  V30 8214 H 769.418 -4.80815 2.71147 0
M  V30 8215 H 771.894 -4.05381 0.938389 0
M  V30 8216 H 770.77 -5.43022 0.80114 0
M  V30 8217 H 771.031 -4.38224 -0.584171 0
M  V30 8218 N 770.09 -0.729906 -1.39679 0
M  V30 8219 C 771.337 -0.275622 -2.00615 0
M  V30 8220 C 771.665 1.13559 -1.57907 0
M  V30 8221 O 770.92 1.78745 -0.796789 0
M  V30 8222 C 771.219 -0.319564 -3.55968 0
M  V30 8223 C 770.885 -1.68308 -4.1831 0
M  V30 8224 C 769.547 -2.05629 -4.35052 0
M  V30 8225 C 771.899 -2.57857 -4.52945 0
M  V30 8226 C 769.227 -3.32018 -4.83716 0
M  V30 8227 C 771.579 -3.83613 -5.03015 0
M  V30 8228 C 770.243 -4.21033 -5.17965 0
M  V30 8229 H 769.513 -0.100857 -0.734104 0
M  V30 8230 H 772.16 -0.93575 -1.67081 0
M  V30 8231 H 770.465 0.42414 -3.89497 0
M  V30 8232 H 772.162 0.0499905 -4.00969 0
M  V30 8233 H 768.752 -1.3829 -4.05677 0
M  V30 8234 H 772.936 -2.30295 -4.39634 0
M  V30 8235 H 768.192 -3.6096 -4.93475 0
M  V30 8236 H 772.366 -4.53162 -5.28788 0
M  V30 8237 H 769.993 -5.19034 -5.55435 0
M  V30 8238 N 771.568 1.50203 -0.477153 0
M  V30 8239 C 772.796 2.0677 0.0732489 0
M  V30 8240 C 773.211 1.34033 1.32968 0
M  V30 8241 O 772.568 0.411412 1.77802 0
M  V30 8242 C 772.619 3.59751 0.35518 0
M  V30 8243 O 772.34 4.29747 -0.851425 0
M  V30 8244 C 773.841 4.3296 0.951877 0
M  V30 8245 H 771.061 0.670929 -0.00978923 0
M  V30 8246 H 773.605 1.93293 -0.667676 0
M  V30 8247 H 771.76 3.7301 1.04605 0
M  V30 8248 H 772.174 5.2106 -0.599708 0
M  V30 8249 H 773.648 5.40952 1.09888 0
M  V30 8250 H 774.125 3.93856 1.94356 0
M  V30 8251 H 774.731 4.24246 0.299208 0
M  V30 8252 N 773.046 0.209999 1.56195 0
M  V30 8253 C 774.294 -0.423974 1.97603 0
M  V30 8254 C 774.615 -1.61112 1.09854 0
M  V30 8255 O 773.885 -1.95134 0.173032 0
M  V30 8256 H 772.465 -0.159629 0.729745 0
M  V30 8257 H 775.127 0.300205 1.92574 0
M  V30 8258 H 774.223 -0.75809 3.02753 0
M  V30 8259 N 774.524 -1.57472 -0.0634922 0
M  V30 8260 C 775.94 -1.54016 -0.418466 0
M  V30 8261 C 776.14 -0.931376 -1.78683 0
M  V30 8262 O 775.196 -0.537465 -2.46714 0
M  V30 8263 C 776.509 -2.98634 -0.351906 0
M  V30 8264 C 778.057 -3.10012 -0.431494 0
M  V30 8265 C 778.532 -4.56296 -0.394754 0
M  V30 8266 N 780.023 -4.60964 -0.454583 0
M  V30 8267 C 780.758 -5.71643 -0.448501 0
M  V30 8268 N 780.254 -6.91663 -0.396742 0
M  V30 8269 N 782.047 -5.5991 -0.495677 0
M  V30 8270 H 774.198 -1.95409 0.832408 0
M  V30 8271 H 776.461 -0.894769 0.313197 0
M  V30 8272 H 776.167 -3.46766 0.587048 0
M  V30 8273 H 776.041 -3.58955 -1.15893 0
M  V30 8274 H 778.428 -2.61848 -1.36087 0
M  V30 8275 H 778.509 -2.52585 0.404258 0
M  V30 8276 H 778.153 -5.05119 0.530811 0
M  V30 8277 H 778.083 -5.11594 -1.24815 0
M  V30 8278 H 780.574 -3.74598 -0.498496 0
M  V30 8279 H 780.887 -7.71783 -0.396256 0
M  V30 8280 H 779.232 -6.9405 -0.363304 0
M  V30 8281 H 782.423 -4.65046 -0.533864 0
M  V30 8282 H 782.596 -6.46164 -0.487469 0
M  V30 8283 N 776.003 0.335068 -1.53997 0
M  V30 8284 C 777.231 1.09418 -1.756 0
M  V30 8285 C 777.646 1.82083 -0.499138 0
M  V30 8286 O 777.003 1.74646 0.529631 0
M  V30 8287 C 777.054 2.10115 -2.94166 0
M  V30 8288 O 776.775 1.40404 -4.14992 0
M  V30 8289 C 778.276 2.98336 -3.27888 0
M  V30 8290 H 775.496 0.32595 -0.586513 0
M  V30 8291 H 778.04 0.384693 -2.00849 0
M  V30 8292 H 776.195 2.76616 -2.71224 0
M  V30 8293 H 776.609 2.07743 -4.81605 0
M  V30 8294 H 778.083 3.6491 -4.1418 0
M  V30 8295 H 778.56 3.64814 -2.44556 0
M  V30 8296 H 779.166 2.37412 -3.52868 0
M  V30 8297 N 777.481 1.45874 0.596531 0
M  V30 8298 C 778.892 1.44798 1.17857 0
M  V30 8299 C 779.243 0.181443 1.95359 0
M  V30 8300 O 778.368 -0.716336 2.042 0
M  V30 8301 C 778.963 2.62333 2.14398 0
M  V30 8302 C 777.522 2.64342 2.67955 0
M  V30 8303 C 776.669 2.37244 1.43564 0
M  V30 8304 H 779.62 1.53954 0.385222 0
M  V30 8305 H 779.641 2.37063 2.97626 0
M  V30 8306 H 779.153 3.54499 1.57963 0
M  V30 8307 H 777.254 1.76213 3.28298 0
M  V30 8308 H 777.367 3.63897 3.11634 0
M  V30 8309 H 775.731 1.87022 1.72901 0
M  V30 8310 H 776.514 3.31568 0.889805 0
M  V30 8311 N 778.959 -0.83999 1.33349 0
M  V30 8312 C 780.236 -1.57973 1.15342 0
M  V30 8313 C 780.616 -2.09226 -0.280632 0
M  V30 8314 O 779.964 -1.89317 -1.2795 0
M  V30 8315 C 780.174 -2.71446 2.19359 0
M  V30 8316 C 781.522 -3.40654 2.53456 0
M  V30 8317 O 782.546 -2.81686 2.18017 0
M  V30 8318 O 781.405 -4.47101 3.14266 0
M  V30 8319 H 778.499 -0.6964 0.446044 0
M  V30 8320 H 781.045 -0.882843 1.44927 0
M  V30 8321 H 779.817 -2.31205 3.1569 0
M  V30 8322 H 779.44 -3.488 1.90852 0
M  V30 8323 N 780.437 -1.16799 -1.0581 0
M  V30 8324 C 781.662 -0.977402 -1.82925 0
M  V30 8325 C 782.087 0.469514 -1.82146 0
M  V30 8326 O 781.445 1.33576 -1.22585 0
M  V30 8327 C 781.493 -1.51543 -3.27211 0
M  V30 8328 O 780.597 -0.725021 -4.05977 0
M  V30 8329 H 779.938 -0.347474 -0.565825 0
M  V30 8330 H 782.468 -1.55151 -1.33376 0
M  V30 8331 H 782.478 -1.53502 -3.78023 0
M  V30 8332 H 781.153 -2.56872 -3.27093 0
M  V30 8333 H 779.73 -0.77634 -3.64729 0
M  V30 8334 N 781.915 1.24427 -0.967243 0
M  V30 8335 C 783.161 1.92772 -0.629812 0
M  V30 8336 C 783.494 1.75436 0.832827 0
M  V30 8337 O 782.769 1.10716 1.59913 0
M  V30 8338 C 783.052 3.45798 -1.00477 0
M  V30 8339 C 782.905 3.72304 -2.52407 0
M  V30 8340 C 784.224 4.36787 -0.538999 0
M  V30 8341 H 781.343 0.700099 -0.230282 0
M  V30 8342 H 783.985 1.46805 -1.20616 0
M  V30 8343 H 782.135 3.8508 -0.514336 0
M  V30 8344 H 783.807 3.42584 -3.08924 0
M  V30 8345 H 782.05 3.17472 -2.95625 0
M  V30 8346 H 782.721 4.7937 -2.73693 0
M  V30 8347 H 785.197 4.04877 -0.959874 0
M  V30 8348 H 784.073 5.4259 -0.829926 0
M  V30 8349 H 784.334 4.38527 0.560923 0
M  V30 8350 N 783.393 0.737304 1.3929 0
M  V30 8351 C 784.642 0.283129 1.99703 0
M  V30 8352 C 784.955 -1.13677 1.59176 0
M  V30 8353 O 786.161 -1.69058 2.12442 0
M  V30 8354 C 784.617 0.455262 3.57009 0
M  V30 8355 C 784.225 1.88319 4.06497 0
M  V30 8356 C 785.969 0.0629786 4.24453 0
M  V30 8357 C 783.876 2.00475 5.56385 0
M  V30 8358 H 782.806 0.102106 0.747054 0
M  V30 8359 H 785.457 0.911515 1.5926 0
M  V30 8360 H 783.839 -0.242057 3.9526 0
M  V30 8361 H 785.013 2.61265 3.79575 0
M  V30 8362 H 783.328 2.2289 3.51723 0
M  V30 8363 H 785.925 0.132787 5.34535 0
M  V30 8364 H 786.268 -0.982128 4.04549 0
M  V30 8365 H 786.801 0.71154 3.91385 0
M  V30 8366 H 783.54 3.03182 5.81172 0
M  V30 8367 H 783.06 1.31969 5.85102 0
M  V30 8368 H 784.739 1.787 6.21832 0
M  V30 8369 N 784.871 -1.49948 0.485112 0
M  V30 8370 C 786.12 -2.01589 -0.066765 0
M  V30 8371 C 786.433 -1.371 -1.39509 0
M  V30 8372 O 787.639 -1.79978 -2.03274 0
M  V30 8373 C 786.095 -3.59501 -0.169476 0
M  V30 8374 C 785.703 -4.32955 1.15126 0
M  V30 8375 C 787.447 -4.19138 -0.672564 0
M  V30 8376 C 785.354 -5.82684 1.01158 0
M  V30 8377 H 784.284 -0.753453 -0.0287259 0
M  V30 8378 H 786.935 -1.72632 0.622132 0
M  V30 8379 H 785.317 -3.85106 -0.922471 0
M  V30 8380 H 786.491 -4.19064 1.9163 0
M  V30 8381 H 784.806 -3.84991 1.58654 0
M  V30 8382 H 787.403 -5.28767 -0.794325 0
M  V30 8383 H 787.746 -3.81447 -1.66745 0
M  V30 8384 H 788.279 -3.97793 0.0234415 0
M  V30 8385 H 785.018 -6.24873 1.98025 0
M  V30 8386 H 784.538 -5.99112 0.287151 0
M  V30 8387 H 786.217 -6.43376 0.683847 0
M  V30 8388 N 786.349 -0.21828 -1.56081 0
M  V30 8389 C 787.626 0.463143 -1.90038 0
M  V30 8390 C 788.006 1.77982 -1.13515 0
M  V30 8391 O 787.354 2.27199 -0.24345 0
M  V30 8392 C 787.564 0.659292 -3.42716 0
M  V30 8393 C 788.912 0.968203 -4.13414 0
M  V30 8394 O 789.936 0.746195 -3.48296 0
M  V30 8395 O 788.795 1.38936 -5.28544 0
M  V30 8396 H 785.889 0.244435 -0.790051 0
M  V30 8397 H 788.435 -0.260221 -1.67693 0
M  V30 8398 H 787.207 -0.269584 -3.9037 0
M  V30 8399 H 786.83 1.43426 -3.7083 0
M  V30 8400 N 787.827 1.57504 0.0551401 0
M  V30 8401 C 789.052 1.92682 0.767352 0
M  V30 8402 C 789.477 0.81614 1.69472 0
M  V30 8403 O 788.835 -0.229989 1.79835 0
M  V30 8404 C 788.883 3.26866 1.52286 0
M  V30 8405 O 787.987 3.17274 2.63459 0
M  V30 8406 H 787.328 0.630502 0.208238 0
M  V30 8407 H 789.858 2.04592 0.0184026 0
M  V30 8408 H 789.868 3.61138 1.8985 0
M  V30 8409 H 788.543 4.07276 0.842541 0
M  V30 8410 H 787.12 2.94589 2.2863 0
M  V30 8411 N 789.305 -0.326896 1.54172 0
M  V30 8412 C 790.235 -1.40741 1.86317 0
M  V30 8413 C 791.216 -1.54125 0.719684 0
M  V30 8414 O 792.401 -1.6806 0.973117 0
M  V30 8415 C 789.531 -2.77557 2.08757 0
M  V30 8416 C 788.485 -2.78965 3.24596 0
M  V30 8417 C 787.811 -4.18824 3.32401 0
M  V30 8418 C 789.111 -2.4301 4.62324 0
M  V30 8419 H 790.805 -1.14088 2.76811 0
M  V30 8420 H 788.351 -0.547389 1.3319 0
M  V30 8421 H 790.304 -3.53209 2.29829 0
M  V30 8422 H 789.028 -3.0568 1.15009 0
M  V30 8423 H 787.687 -2.05767 3.03406 0
M  V30 8424 H 787.335 -4.44083 2.36218 0
M  V30 8425 H 787.035 -4.20673 4.10253 0
M  V30 8426 H 788.559 -4.96294 3.55703 0
M  V30 8427 H 789.973 -3.08375 4.83299 0
M  V30 8428 H 788.37 -2.56116 5.42701 0
M  V30 8429 H 789.44 -1.38165 4.64799 0
M  V30 8430 N 790.784 -1.46188 -0.588786 0
M  V30 8431 C 792.032 -1.50885 -1.34455 0
M  V30 8432 C 792.353 -0.159555 -1.94346 0
M  V30 8433 O 791.623 0.813239 -1.78222 0
M  V30 8434 H 790.203 -0.555707 -0.499198 0
M  V30 8435 H 792.865 -1.82277 -0.690014 0
M  V30 8436 H 791.961 -2.25816 -2.15438 0
M  V30 8437 N 792.262 0.832906 -1.33792 0
M  V30 8438 C 793.194 1.95042 -1.2038 0
M  V30 8439 C 794.207 1.62253 -0.133299 0
M  V30 8440 O 795.396 1.74315 -0.384261 0
M  V30 8441 C 792.496 3.287 -0.825215 0
M  V30 8442 C 791.669 3.89581 -1.98861 0
M  V30 8443 C 790.728 5.01602 -1.59003 0
M  V30 8444 O 789.754 5.20431 -2.30522 0
M  V30 8445 N 790.956 5.78356 -0.498446 0
M  V30 8446 H 793.721 2.07083 -2.16649 0
M  V30 8447 H 791.282 1.00896 -1.26616 0
M  V30 8448 H 793.274 4.01074 -0.540559 0
M  V30 8449 H 791.844 3.12565 0.0469796 0
M  V30 8450 H 791.064 3.09723 -2.43856 0
M  V30 8451 H 792.352 4.26989 -2.76691 0
M  V30 8452 H 791.75 5.65618 0.0963297 0
M  V30 8453 H 790.307 6.51226 -0.273485 0
M  V30 8454 N 793.74 1.17359 1.05189 0
M  V30 8455 C 794.65 0.904984 2.16442 0
M  V30 8456 C 795.666 -0.12686 1.73537 0
M  V30 8457 O 796.842 0.0524127 2.01332 0
M  V30 8458 C 793.907 0.422019 3.44122 0
M  V30 8459 C 792.968 1.52045 4.01473 0
M  V30 8460 C 792.201 1.06044 5.23059 0
M  V30 8461 O 792.424 -0.0854023 5.70336 0
M  V30 8462 O 791.358 1.85349 5.72651 0
M  V30 8463 H 795.184 1.8356 2.41949 0
M  V30 8464 H 792.769 0.95447 1.14936 0
M  V30 8465 H 794.651 0.160208 4.21095 0
M  V30 8466 H 793.326 -0.480444 3.20115 0
M  V30 8467 H 792.233 1.83615 3.25939 0
M  V30 8468 H 793.566 2.39863 4.29798 0
M  V30 8469 N 795.218 -1.23913 0.973828 0
M  V30 8470 C 796.128 -2.28838 0.516735 0
M  V30 8471 C 797.144 -1.68723 -0.425282 0
M  V30 8472 O 798.32 -1.99201 -0.296819 0
M  V30 8473 C 795.385 -3.46233 -0.179914 0
M  V30 8474 C 794.446 -4.21729 0.80269 0
M  V30 8475 C 793.679 -5.33518 0.139191 0
M  V30 8476 O 793.902 -5.60252 -1.07118 0
M  V30 8477 O 792.836 -5.96088 0.834447 0
M  V30 8478 H 796.662 -2.70067 1.38916 0
M  V30 8479 H 794.247 -1.2972 0.74115 0
M  V30 8480 H 796.129 -4.17514 -0.570991 0
M  V30 8481 H 794.804 -3.06969 -1.02721 0
M  V30 8482 H 793.711 -3.52799 1.24434 0
M  V30 8483 H 795.044 -4.64825 1.61859 0
M  V30 8484 N 796.696 -0.74468 -1.38897 0
M  V30 8485 C 798.112 -0.421302 -1.53939 0
M  V30 8486 C 798.312 1.06668 -1.70951 0
M  V30 8487 O 797.368 1.85278 -1.71547 0
M  V30 8488 C 798.681 -1.21278 -2.75159 0
M  V30 8489 C 800.229 -1.20196 -2.89001 0
M  V30 8490 C 800.704 -1.97621 -4.13171 0
M  V30 8491 N 802.195 -1.94836 -4.2023 0
M  V30 8492 C 802.93 -2.51545 -5.15279 0
M  V30 8493 N 802.426 -3.1693 -6.16058 0
M  V30 8494 N 804.219 -2.41524 -5.07565 0
M  V30 8495 H 796.37 -1.70914 -1.26103 0
M  V30 8496 H 798.633 -0.724058 -0.611919 0
M  V30 8497 H 798.339 -2.26609 -2.68963 0
M  V30 8498 H 798.213 -0.823677 -3.68097 0
M  V30 8499 H 800.6 -0.156742 -2.94683 0
M  V30 8500 H 800.681 -1.63051 -1.97099 0
M  V30 8501 H 800.325 -3.02149 -4.0825 0
M  V30 8502 H 800.255 -1.52166 -5.04136 0
M  V30 8503 H 802.746 -1.4721 -3.48048 0
M  V30 8504 H 803.059 -3.57644 -6.85062 0
M  V30 8505 H 801.404 -3.21023 -6.16417 0
M  V30 8506 H 804.595 -1.90077 -4.27771 0
M  V30 8507 H 804.768 -2.86016 -5.81462 0
M  V30 8508 N 798.174 1.49689 -0.493057 0
M  V30 8509 C 799.404 2.06536 0.0512397 0
M  V30 8510 C 799.812 1.35459 1.32089 0
M  V30 8511 O 799.155 0.424145 1.78736 0
M  V30 8512 C 799.217 3.57452 0.383231 0
M  V30 8513 C 798.881 4.50163 -0.787555 0
M  V30 8514 C 799.878 4.92151 -1.67582 0
M  V30 8515 C 797.563 4.92565 -0.984109 0
M  V30 8516 C 799.557 5.7527 -2.74487 0
M  V30 8517 C 797.244 5.75463 -2.05634 0
M  V30 8518 C 798.242 6.16719 -2.93507 0
M  V30 8519 O 797.93 6.97961 -3.98881 0
M  V30 8520 H 797.662 0.675862 -0.0136516 0
M  V30 8521 H 800.216 1.9356 -0.687298 0
M  V30 8522 H 798.446 3.68408 1.17526 0
M  V30 8523 H 800.135 3.96572 0.8652 0
M  V30 8524 H 800.901 4.60043 -1.53575 0
M  V30 8525 H 796.78 4.5996 -0.309541 0
M  V30 8526 H 800.324 6.07392 -3.43104 0
M  V30 8527 H 796.221 6.06983 -2.19639 0
M  V30 8528 H 796.989 7.16253 -3.96137 0
M  V30 8529 N 799.652 0.226554 1.55963 0
M  V30 8530 C 800.562 -0.692725 2.24139 0
M  V30 8531 C 801.578 -1.20971 1.25068 0
M  V30 8532 O 802.754 -1.25027 1.57893 0
M  V30 8533 C 799.819 -1.88183 2.91184 0
M  V30 8534 C 798.88 -1.40633 4.05612 0
M  V30 8535 C 798.113 -2.53875 4.6945 0
M  V30 8536 O 798.336 -3.72129 4.32292 0
M  V30 8537 O 797.27 -2.24792 5.58348 0
M  V30 8538 H 801.096 -0.141921 3.03368 0
M  V30 8539 H 798.681 -0.0041049 1.49399 0
M  V30 8540 H 800.563 -2.57617 3.33484 0
M  V30 8541 H 799.238 -2.42064 2.14911 0
M  V30 8542 H 798.145 -0.67986 3.67871 0
M  V30 8543 H 799.478 -0.913838 4.83642 0
M  V30 8544 N 801.13 -1.57531 -0.0467866 0
M  V30 8545 C 802.06 -2.08425 -1.05268 0
M  V30 8546 C 803.041 -0.982941 -1.38825 0
M  V30 8547 O 804.226 -1.25716 -1.48018 0
M  V30 8548 C 801.356 -2.54897 -2.35891 0
M  V30 8549 C 800.31 -3.69132 -2.16623 0
M  V30 8550 C 799.636 -4.01747 -3.52851 0
M  V30 8551 C 800.936 -4.98243 -1.56689 0
M  V30 8552 H 802.63 -2.92716 -0.62908 0
M  V30 8553 H 800.176 -1.40816 -0.301156 0
M  V30 8554 H 802.129 -2.8912 -3.06574 0
M  V30 8555 H 800.853 -1.67666 -2.80278 0
M  V30 8556 H 799.512 -3.35231 -1.48377 0
M  V30 8557 H 799.16 -3.11608 -3.94853 0
M  V30 8558 H 798.86 -4.78681 -3.4079 0
M  V30 8559 H 800.384 -4.38487 -4.24925 0
M  V30 8560 H 801.798 -5.30535 -2.17268 0
M  V30 8561 H 800.195 -5.79669 -1.55255 0
M  V30 8562 H 801.265 -4.81986 -0.530827 0
M  V30 8563 N 802.608 0.318715 -1.54344 0
M  V30 8564 C 803.538 1.39751 -1.87061 0
M  V30 8565 C 804.519 1.53741 -0.727848 0
M  V30 8566 O 805.704 1.67541 -0.982016 0
M  V30 8567 C 802.834 2.76446 -2.10226 0
M  V30 8568 C 801.788 2.77239 -3.26071 0
M  V30 8569 C 801.114 4.17056 -3.34617 0
M  V30 8570 C 802.414 2.40555 -4.63606 0
M  V30 8571 H 804.108 1.12619 -2.77412 0
M  V30 8572 H 801.654 0.540318 -1.33479 0
M  V30 8573 H 803.607 3.51985 -2.31699 0
M  V30 8574 H 802.331 3.05066 -1.16629 0
M  V30 8575 H 800.99 2.04155 -3.04493 0
M  V30 8576 H 800.638 4.42824 -2.3857 0
M  V30 8577 H 800.338 4.18492 -4.12478 0
M  V30 8578 H 801.862 4.94401 -3.5833 0
M  V30 8579 H 803.276 3.05808 -4.84927 0
M  V30 8580 H 801.673 2.53234 -5.44052 0
M  V30 8581 H 802.743 1.35698 -4.65526 0
M  V30 8582 N 804.086 1.46499 0.581025 0
M  V30 8583 C 805.034 1.57562 1.71105 0
M  V30 8584 C 806.028 0.44403 1.63477 0
M  V30 8585 O 807.234 0.620964 1.6895 0
M  V30 8586 H 803.609 0.495415 0.565746 0
M  V30 8587 H 805.58 2.5257 1.58905 0
M  V30 8588 C 804.329 1.58465 3.0949 0
M  V30 8589 H 803.652 2.44877 3.16031 0
M  V30 8590 H 805.092 1.70261 3.88313 0
M  V30 8591 C 803.551 0.313596 3.35437 0
M  V30 8592 O 804.081 -0.595456 3.97262 0
M  V30 8593 N 802.287 0.200986 2.89904 0
M  V30 8594 H 801.834 0.941643 2.39773 0
M  V30 8595 H 801.792 -0.648577 3.07638 0
M  V30 8596 N 805.565 -0.825799 1.34232 0
M  V30 8597 C 806.811 -1.58419 1.26614 0
M  V30 8598 C 807.144 -1.93503 -0.164341 0
M  V30 8599 O 806.419 -1.59785 -1.109 0
M  V30 8600 C 806.702 -2.8856 2.15418 0
M  V30 8601 C 806.555 -2.60075 3.66989 0
M  V30 8602 C 807.874 -3.90107 2.03726 0
M  V30 8603 H 804.993 -0.574794 0.461282 0
M  V30 8604 H 807.635 -0.951519 1.64457 0
M  V30 8605 H 805.785 -3.42553 1.83275 0
M  V30 8606 H 807.457 -2.12414 4.09485 0
M  V30 8607 H 805.7 -1.93565 3.88221 0
M  V30 8608 H 806.371 -3.52866 4.24488 0
M  V30 8609 H 808.847 -3.45459 2.31942 0
M  V30 8610 H 807.723 -4.78976 2.68092 0
M  V30 8611 H 807.984 -4.30329 1.01337 0
M  V30 8612 N 807.043 -1.17915 -1.04565 0
M  V30 8613 C 807.973 -0.925033 -2.14395 0
M  V30 8614 C 808.954 0.135375 -1.6956 0
M  V30 8615 O 810.139 -0.0161774 -1.94193 0
M  V30 8616 C 807.269 -0.444469 -3.44444 0
M  V30 8617 C 806.223 -1.44478 -4.02877 0
M  V30 8618 C 805.549 -0.821933 -5.28345 0
M  V30 8619 C 806.849 -2.81995 -4.39632 0
M  V30 8620 H 808.543 -1.84354 -2.35911 0
M  V30 8621 H 806.089 -0.887806 -1.13375 0
M  V30 8622 H 808.042 -0.254078 -4.20633 0
M  V30 8623 H 806.766 0.509592 -3.226 0
M  V30 8624 H 805.425 -1.62203 -3.28764 0
M  V30 8625 H 805.073 0.139161 -5.02807 0
M  V30 8626 H 804.773 -1.48976 -5.68401 0
M  V30 8627 H 806.297 -0.641959 -6.07216 0
M  V30 8628 H 807.711 -2.67952 -5.06828 0
M  V30 8629 H 806.108 -3.45414 -4.90723 0
M  V30 8630 H 807.178 -3.35927 -3.49687 0
M  V30 8631 N 808.521 1.23394 -0.980386 0
M  V30 8632 C 809.431 2.28561 -0.528864 0
M  V30 8633 C 810.447 1.68946 0.416329 0
M  V30 8634 O 811.623 1.99355 0.286251 0
M  V30 8635 C 808.688 3.46323 0.16155 0
M  V30 8636 C 807.749 4.21297 -0.825044 0
M  V30 8637 C 806.982 5.33437 -0.167483 0
M  V30 8638 O 807.205 5.60812 1.04146 0
M  V30 8639 O 806.139 5.95637 -0.866047 0
M  V30 8640 H 809.965 2.69326 -1.40346 0
M  V30 8641 H 807.55 1.29325 -0.748019 0
M  V30 8642 H 809.432 4.17811 0.548841 0
M  V30 8643 H 808.107 3.0751 1.01092 0
M  V30 8644 H 807.014 3.52134 -1.26303 0
M  V30 8645 H 808.347 4.6396 -1.64322 0
M  V30 8646 N 809.999 0.752036 1.385 0
M  V30 8647 C 811.246 0.307503 2.00152 0
M  V30 8648 C 811.574 -1.11033 1.59693 0
M  V30 8649 O 810.829 -1.77455 0.825125 0
M  V30 8650 C 811.128 0.376155 3.55415 0
M  V30 8651 C 810.794 1.74942 4.15579 0
M  V30 8652 C 809.456 2.12525 4.31725 0
M  V30 8653 C 811.808 2.65031 4.48785 0
M  V30 8654 C 809.136 3.39671 4.78373 0
M  V30 8655 C 811.488 3.91567 4.96848 0
M  V30 8656 C 810.152 4.2922 5.11201 0
M  V30 8657 H 809.422 0.112523 0.732407 0
M  V30 8658 H 812.069 0.962213 1.65571 0
M  V30 8659 H 810.374 -0.362121 3.90123 0
M  V30 8660 H 812.071 0.0138065 4.00998 0
M  V30 8661 H 808.661 1.44726 4.03426 0
M  V30 8662 H 812.845 2.3726 4.35914 0
M  V30 8663 H 808.101 3.68765 4.8767 0
M  V30 8664 H 812.275 4.61517 5.21512 0
M  V30 8665 H 809.902 5.27805 5.47107 0
M  V30 8666 N 811.477 -1.49425 0.500989 0
M  V30 8667 C 812.705 -2.06861 -0.0403443 0
M  V30 8668 C 813.12 -1.36132 -1.30819 0
M  V30 8669 O 812.477 -0.439647 -1.77125 0
M  V30 8670 C 812.528 -3.6027 -0.297902 0
M  V30 8671 O 812.249 -4.28338 0.919686 0
M  V30 8672 C 813.75 -4.34419 -0.882876 0
M  V30 8673 H 810.97 -0.670688 0.0204619 0
M  V30 8674 H 813.514 -1.92207 0.698342 0
M  V30 8675 H 811.669 -3.74627 -0.98657 0
M  V30 8676 H 812.083 -5.2004 0.682528 0
M  V30 8677 H 813.557 -5.42631 -1.01268 0
M  V30 8678 H 814.034 -3.96898 -1.88066 0
M  V30 8679 H 814.64 -4.24669 -0.231677 0
M  V30 8680 N 812.955 -0.234822 -1.55841 0
M  V30 8681 C 814.18 0.400741 -2.03492 0
M  V30 8682 C 814.605 1.51618 -1.11327 0
M  V30 8683 O 813.963 1.81002 -0.103922 0
M  V30 8684 C 814.011 0.897184 -3.49261 0
M  V30 8685 O 813.115 2.00764 -3.60233 0
M  V30 8686 H 812.456 0.0890023 -0.658008 0
M  V30 8687 H 814.986 -0.357345 -2.01455 0
M  V30 8688 H 814.996 1.20356 -3.89844 0
M  V30 8689 H 813.671 0.0808639 -4.15821 0
M  V30 8690 H 812.248 1.70689 -3.31541 0
M  V30 8691 N 814.433 1.57553 0.0384317 0
M  V30 8692 C 815.396 2.04927 1.02653 0
M  V30 8693 C 816.396 0.951768 1.29607 0
M  V30 8694 O 817.586 1.21568 1.24768 0
M  V30 8695 C 814.718 2.45828 2.36181 0
M  V30 8696 H 815.911 2.93474 0.617508 0
M  V30 8697 H 813.464 1.53679 0.285031 0
M  V30 8698 H 814.199 1.60408 2.8185 0
M  V30 8699 H 813.984 3.25945 2.1795 0
M  V30 8700 H 815.474 2.82939 3.0714 0
M  V30 8701 N 815.911 -0.310526 1.54511 0
M  V30 8702 C 817.327 -0.655637 1.45511 0
M  V30 8703 C 817.527 -1.91114 0.638564 0
M  V30 8704 O 816.583 -2.52098 0.142497 0
M  V30 8705 C 817.896 -0.817501 2.89374 0
M  V30 8706 C 819.444 -0.914003 2.99358 0
M  V30 8707 C 819.919 -1.10794 4.44397 0
M  V30 8708 N 821.41 -1.17437 4.48066 0
M  V30 8709 C 822.145 -1.34255 5.57461 0
M  V30 8710 N 821.641 -1.48032 6.768 0
M  V30 8711 N 823.434 -1.37067 5.45132 0
M  V30 8712 H 815.585 0.514506 2.06074 0
M  V30 8713 H 817.848 0.168478 0.932909 0
M  V30 8714 H 817.554 0.034003 3.51684 0
M  V30 8715 H 817.428 -1.7094 3.36243 0
M  V30 8716 H 819.815 -1.756 2.37168 0
M  V30 8717 H 819.896 0.00170958 2.558 0
M  V30 8718 H 819.54 -0.270743 5.07178 0
M  V30 8719 H 819.47 -2.03773 4.85576 0
M  V30 8720 H 821.961 -1.08181 3.62084 0
M  V30 8721 H 822.274 -1.60593 7.5593 0
M  V30 8722 H 820.619 -1.45105 6.79683 0
M  V30 8723 H 823.81 -1.25909 4.50849 0
M  V30 8724 H 823.983 -1.49831 6.3044 0
M  V30 8725 N 817.389 -1.46805 -0.573248 0
M  V30 8726 C 818.336 -1.58084 -1.68161 0
M  V30 8727 C 819.306 -0.424636 -1.6058 0
M  V30 8728 O 820.491 -0.642623 -1.79652 0
M  V30 8729 C 817.631 -1.58601 -3.06496 0
M  V30 8730 C 816.744 -2.85023 -3.24632 0
M  V30 8731 C 815.879 -2.76981 -4.53271 0
M  V30 8732 C 814.918 -3.983 -4.64783 0
M  V30 8733 N 814.055 -3.88589 -5.84759 0
M  V30 8734 H 818.895 -2.52755 -1.57858 0
M  V30 8735 H 816.432 -1.25385 -0.769218 0
M  V30 8736 H 818.39 -1.56885 -3.86579 0
M  V30 8737 H 817.02 -0.674553 -3.15673 0
M  V30 8738 H 816.072 -2.96678 -2.38089 0
M  V30 8739 H 817.384 -3.7491 -3.29004 0
M  V30 8740 H 816.538 -2.73424 -5.41594 0
M  V30 8741 H 815.277 -1.84751 -4.51352 0
M  V30 8742 H 814.282 -4.02179 -3.74876 0
M  V30 8743 H 815.507 -4.91639 -4.68474 0
M  V30 8744 H 813.453 -2.99151 -5.83819 0
M  V30 8745 H 813.37 -4.7214 -5.90441 0
M  V30 8746 H 814.638 -3.89022 -6.75486 0
M  V30 8747 N 818.867 0.818669 -1.34668 0
M  V30 8748 C 820.283 1.11243 -1.14443 0
M  V30 8749 C 820.483 2.01435 0.0512212 0
M  V30 8750 O 819.539 2.41854 0.725471 0
M  V30 8751 C 820.852 1.75504 -2.4417 0
M  V30 8752 C 822.4 1.8798 -2.50265 0
M  V30 8753 C 822.875 2.55657 -3.80004 0
M  V30 8754 N 824.366 2.63153 -3.81189 0
M  V30 8755 C 825.101 3.16258 -4.78298 0
M  V30 8756 N 824.597 3.69893 -5.85791 0
M  V30 8757 N 826.39 3.14698 -4.65748 0
M  V30 8758 H 818.541 0.218848 -2.1127 0
M  V30 8759 H 820.804 0.159655 -0.934459 0
M  V30 8760 H 820.51 1.16697 -3.31775 0
M  V30 8761 H 820.384 2.75329 -2.57825 0
M  V30 8762 H 822.771 2.45934 -1.63096 0
M  V30 8763 H 822.852 0.870447 -2.40535 0
M  V30 8764 H 822.496 1.98356 -4.67565 0
M  V30 8765 H 822.426 3.57105 -3.87019 0
M  V30 8766 H 824.917 2.2514 -3.03513 0
M  V30 8767 H 825.23 4.08678 -6.55898 0
M  V30 8768 H 823.575 3.68125 -5.89499 0
M  V30 8769 H 826.766 2.72066 -3.80917 0
M  V30 8770 H 826.939 3.5578 -5.41594 0
M  V30 8771 N 820.346 1.18468 1.03938 0
M  V30 8772 C 821.279 0.856251 2.11527 0
M  V30 8773 C 822.257 -0.182323 1.61575 0
M  V30 8774 O 823.441 -0.061 1.88401 0
M  V30 8775 C 820.568 0.279562 3.37544 0
M  V30 8776 C 819.614 1.29552 4.06348 0
M  V30 8777 S 820.447 2.85191 4.5324 0
M  V30 8778 C 821.603 2.29037 5.82489 0
M  V30 8779 H 821.836 1.76742 2.39059 0
M  V30 8780 H 819.369 1.01068 1.16725 0
M  V30 8781 H 821.327 -0.0466579 4.10473 0
M  V30 8782 H 819.988 -0.60975 3.08125 0
M  V30 8783 H 819.181 0.840922 4.96935 0
M  V30 8784 H 818.783 1.56804 3.39541 0
M  V30 8785 H 821.075 1.67376 6.565 0
M  V30 8786 H 822.018 3.17929 6.32714 0
M  V30 8787 H 822.426 1.72009 5.37655 0
M  V30 8788 N 821.824 -1.22873 0.986916 0
M  V30 8789 C 823.049 -1.96028 0.677341 0
M  V30 8790 C 823.474 -1.72487 -0.750319 0
M  V30 8791 O 822.832 -1.00036 -1.51203 0
M  V30 8792 C 822.88 -3.46983 0.981593 0
M  V30 8793 O 821.984 -4.12328 0.0770729 0
M  V30 8794 H 821.325 -0.613458 0.254096 0
M  V30 8795 H 823.855 -1.56132 1.32227 0
M  V30 8796 H 823.865 -3.9747 0.920969 0
M  V30 8797 H 822.54 -3.63442 2.02194 0
M  V30 8798 H 821.117 -3.72402 0.192666 0
M  V30 8799 N 823.302 -0.75937 -1.38099 0
M  V30 8800 C 824.548 -0.318584 -2.00282 0
M  V30 8801 C 824.881 1.09854 -1.60143 0
M  V30 8802 O 824.156 1.75344 -0.841702 0
M  V30 8803 C 824.439 -0.448047 -3.57302 0
M  V30 8804 C 824.292 -1.9067 -4.07388 0
M  V30 8805 C 825.611 0.155119 -4.39827 0
M  V30 8806 H 822.73 -0.117233 -0.727616 0
M  V30 8807 H 825.372 -0.960097 -1.63958 0
M  V30 8808 H 823.522 0.0981003 -3.88376 0
M  V30 8809 H 825.194 -2.5116 -3.86932 0
M  V30 8810 H 823.437 -2.41979 -3.6004 0
M  V30 8811 H 824.108 -1.94841 -5.1647 0
M  V30 8812 H 826.584 -0.31073 -4.14938 0
M  V30 8813 H 825.46 0.0343264 -5.48889 0
M  V30 8814 H 825.721 1.24407 -4.24235 0
M  V30 8815 N 824.78 1.49157 -0.508906 0
M  V30 8816 C 826.029 2.0167 0.0346854 0
M  V30 8817 C 826.342 1.39302 1.37311 0
M  V30 8818 O 827.548 1.83189 2.00385 0
M  V30 8819 C 826.004 3.59725 0.112261 0
M  V30 8820 C 825.612 4.31069 -1.21999 0
M  V30 8821 C 827.356 4.20155 0.605798 0
M  V30 8822 C 825.263 5.81001 -1.10415 0
M  V30 8823 H 824.193 0.753814 0.0167355 0
M  V30 8824 H 826.844 1.7162 -0.649518 0
M  V30 8825 H 825.226 3.86525 0.861087 0
M  V30 8826 H 826.4 4.15962 -1.98273 0
M  V30 8827 H 824.715 3.82418 -1.64759 0
M  V30 8828 H 827.312 5.29964 0.710102 0
M  V30 8829 H 827.655 3.84051 1.60656 0
M  V30 8830 H 828.188 3.97705 -0.0867239 0
M  V30 8831 H 824.927 6.21643 -2.07941 0
M  V30 8832 H 824.447 5.9858 -0.382428 0
M  V30 8833 H 826.126 6.42207 -0.786116 0
M  V30 8834 N 826.258 0.243083 1.55714 0
M  V30 8835 C 827.504 -0.383287 1.99145 0
M  V30 8836 C 827.837 -1.57868 1.13098 0
M  V30 8837 O 827.112 -1.93535 0.193509 0
M  V30 8838 C 827.395 -0.796879 3.51172 0
M  V30 8839 C 827.248 0.403642 4.47985 0
M  V30 8840 C 828.567 -1.64525 4.08191 0
M  V30 8841 H 825.686 -0.137843 0.723995 0
M  V30 8842 H 828.328 0.343631 1.86867 0
M  V30 8843 H 826.478 -1.41625 3.61766 0
M  V30 8844 H 828.15 1.04204 4.49376 0
M  V30 8845 H 826.393 1.04741 4.20965 0
M  V30 8846 H 827.064 0.0709794 5.51954 0
M  V30 8847 H 829.54 -1.12246 4.00674 0
M  V30 8848 H 828.416 -1.9035 5.14838 0
M  V30 8849 H 828.677 -2.61582 3.56409 0
M  V30 8850 N 827.736 -1.57571 -0.0300757 0
M  V30 8851 C 829.152 -1.54869 -0.385703 0
M  V30 8852 C 829.352 -0.969068 -1.76667 0
M  V30 8853 O 828.408 -0.589676 -2.45518 0
M  V30 8854 C 829.721 -2.99313 -0.288482 0
M  V30 8855 C 831.269 -3.10857 -0.365638 0
M  V30 8856 C 831.744 -4.5703 -0.297878 0
M  V30 8857 N 833.235 -4.61825 -0.356703 0
M  V30 8858 C 833.97 -5.72466 -0.327146 0
M  V30 8859 N 833.466 -6.92349 -0.249941 0
M  V30 8860 N 835.259 -5.60836 -0.376801 0
M  V30 8861 H 827.41 -1.936 0.87367 0
M  V30 8862 H 829.673 -0.887924 0.332106 0
M  V30 8863 H 829.379 -3.45443 0.66047 0
M  V30 8864 H 829.253 -3.61332 -1.08253 0
M  V30 8865 H 831.64 -2.64676 -1.30502 0
M  V30 8866 H 831.721 -2.51671 0.457744 0
M  V30 8867 H 831.365 -5.03879 0.637835 0
M  V30 8868 H 831.295 -5.14127 -1.13935 0
M  V30 8869 H 833.786 -3.75571 -0.418926 0
M  V30 8870 H 834.099 -7.7245 -0.23246 0
M  V30 8871 H 832.444 -6.94664 -0.216004 0
M  V30 8872 H 835.635 -4.66073 -0.435101 0
M  V30 8873 H 835.808 -6.47052 -0.350298 0
M  V30 8874 N 829.214 0.302327 -1.54673 0
M  V30 8875 C 830.442 1.05669 -1.77881 0
M  V30 8876 C 830.857 1.80983 -0.537648 0
M  V30 8877 O 830.214 1.7573 0.492467 0
M  V30 8878 C 830.265 2.03828 -2.98557 0
M  V30 8879 O 829.986 1.3157 -4.17877 0
M  V30 8880 C 831.487 2.91314 -3.34143 0
M  V30 8881 H 828.707 0.313436 -0.593295 0
M  V30 8882 H 831.251 0.342003 -2.0162 0
M  V30 8883 H 829.406 2.70801 -2.7703 0
M  V30 8884 H 829.82 1.97481 -4.85903 0
M  V30 8885 H 831.294 3.56042 -4.21827 0
M  V30 8886 H 831.771 3.59544 -2.52239 0
M  V30 8887 H 832.377 2.29874 -3.57824 0
M  V30 8888 N 830.692 1.47107 0.565454 0
M  V30 8889 C 832.103 1.47266 1.1476 0
M  V30 8890 C 832.454 0.222841 1.9493 0
M  V30 8891 O 831.579 -0.672862 2.05673 0
M  V30 8892 C 832.174 2.66822 2.08785 0
M  V30 8893 C 830.733 2.69967 2.62288 0
M  V30 8894 C 829.88 2.40236 1.38499 0
M  V30 8895 H 832.831 1.54736 0.352479 0
M  V30 8896 H 832.852 2.43323 2.92531 0
M  V30 8897 H 832.364 3.5777 1.50408 0
M  V30 8898 H 830.465 1.83137 3.24487 0
M  V30 8899 H 830.578 3.70426 3.03845 0
M  V30 8900 H 828.942 1.90648 1.68895 0
M  V30 8901 H 829.725 3.33381 0.819274 0
M  V30 8902 N 832.17 -0.811516 1.35101 0
M  V30 8903 C 833.395 -1.60499 1.31358 0
M  V30 8904 C 833.82 -1.87793 -0.107383 0
M  V30 8905 O 833.178 -1.46161 -1.07268 0
M  V30 8906 C 833.226 -2.91612 2.12119 0
M  V30 8907 O 832.33 -3.84211 1.49853 0
M  V30 8908 H 831.671 -0.487702 0.450603 0
M  V30 8909 H 834.201 -1.00758 1.7807 0
M  V30 8910 H 834.211 -3.4108 2.23894 0
M  V30 8911 H 832.886 -2.71071 3.15426 0
M  V30 8912 H 831.463 -3.42751 1.46889 0
M  V30 8913 N 833.648 -1.19017 -1.03309 0
M  V30 8914 C 834.896 -0.988258 -1.76289 0
M  V30 8915 C 835.217 0.482557 -1.88935 0
M  V30 8916 O 834.487 1.34969 -1.41987 0
M  V30 8917 H 833.067 -0.36267 -0.653054 0
M  V30 8918 H 835.729 -1.49836 -1.2464 0
M  V30 8919 H 834.825 -1.43273 -2.77271 0
M  V30 8920 N 835.127 1.22348 -0.993418 0
M  V30 8921 C 836.074 2.24294 -0.544118 0
M  V30 8922 C 837.044 1.60602 0.42381 0
M  V30 8923 O 838.229 1.87952 0.328453 0
M  V30 8924 C 835.369 3.44837 0.134578 0
M  V30 8925 C 834.482 4.23043 -0.875151 0
M  V30 8926 C 833.617 5.30928 -0.169919 0
M  V30 8927 C 832.656 6.00853 -1.16798 0
M  V30 8928 N 831.793 7.00381 -0.491021 0
M  V30 8929 H 836.633 2.6209 -1.4182 0
M  V30 8930 H 834.17 1.2881 -0.710384 0
M  V30 8931 H 836.128 4.13625 0.544998 0
M  V30 8932 H 834.758 3.07804 0.972446 0
M  V30 8933 H 833.81 3.53546 -1.40389 0
M  V30 8934 H 835.122 4.71237 -1.63516 0
M  V30 8935 H 834.276 6.05972 0.297205 0
M  V30 8936 H 833.015 4.8371 0.622586 0
M  V30 8937 H 832.02 5.24591 -1.64573 0
M  V30 8938 H 833.245 6.50159 -1.96137 0
M  V30 8939 H 831.191 6.55393 0.282037 0
M  V30 8940 H 831.108 7.46584 -1.18947 0
M  V30 8941 H 832.376 7.79486 -0.0467169 0
M  V30 8942 N 836.605 0.766683 1.37694 0
M  V30 8943 C 837.535 0.163432 2.32927 0
M  V30 8944 C 838.516 -0.688861 1.55527 0
M  V30 8945 O 839.701 -0.627363 1.83787 0
M  V30 8946 C 836.831 -0.720416 3.39746 0
M  V30 8947 C 835.785 0.0301718 4.27989 0
M  V30 8948 C 835.111 -0.972788 5.25776 0
M  V30 8949 C 836.411 1.20623 5.0818 0
M  V30 8950 H 838.105 0.958988 2.83626 0
M  V30 8951 H 835.651 0.462601 1.36367 0
M  V30 8952 H 837.604 -1.15221 4.05342 0
M  V30 8953 H 836.328 -1.54844 2.8756 0
M  V30 8954 H 834.987 0.442685 3.63917 0
M  V30 8955 H 834.635 -1.79522 4.69873 0
M  V30 8956 H 834.335 -0.475145 5.85676 0
M  V30 8957 H 835.859 -1.40362 5.94248 0
M  V30 8958 H 837.273 0.851341 5.66944 0
M  V30 8959 H 835.67 1.63561 5.7738 0
M  V30 8960 H 836.74 2.01281 4.41151 0
M  V30 8961 N 838.083 -1.48885 0.516809 0
M  V30 8962 C 839.499 -1.58651 0.173788 0
M  V30 8963 C 839.699 -1.52033 -1.32243 0
M  V30 8964 O 838.755 -1.40251 -2.09967 0
M  V30 8965 C 840.068 -2.90816 0.764628 0
M  V30 8966 C 841.616 -3.04316 0.732164 0
M  V30 8967 C 842.091 -4.39123 1.30135 0
M  V30 8968 N 843.582 -4.45656 1.26273 0
M  V30 8969 C 844.317 -5.48446 1.67317 0
M  V30 8970 N 843.813 -6.58258 2.16028 0
M  V30 8971 N 845.606 -5.39251 1.58635 0
M  V30 8972 H 837.757 -1.5143 1.48939 0
M  V30 8973 H 840.02 -0.718243 0.618733 0
M  V30 8974 H 839.726 -3.01275 1.81456 0
M  V30 8975 H 839.6 -3.76473 0.234113 0
M  V30 8976 H 841.987 -2.93478 -0.308975 0
M  V30 8977 H 842.068 -2.20303 1.3 0
M  V30 8978 H 841.712 -4.50714 2.34135 0
M  V30 8979 H 841.642 -5.21801 0.709305 0
M  V30 8980 H 844.133 -3.66879 0.906006 0
M  V30 8981 H 844.446 -7.32811 2.45374 0
M  V30 8982 H 842.791 -6.59257 2.20013 0
M  V30 8983 H 845.982 -4.52354 1.20387 0
M  V30 8984 H 846.155 -6.19229 1.90944 0
M  V30 8985 N 839.561 -0.251338 -1.55583 0
M  V30 8986 C 840.491 0.640437 -2.24545 0
M  V30 8987 C 841.472 1.17781 -1.22726 0
M  V30 8988 O 842.657 1.21633 -1.5139 0
M  V30 8989 C 839.787 1.8355 -2.94834 0
M  V30 8990 C 838.741 1.4307 -4.03379 0
M  V30 8991 C 838.067 2.70695 -4.61116 0
M  V30 8992 C 839.367 0.59848 -5.1886 0
M  V30 8993 H 841.061 0.0653772 -2.99329 0
M  V30 8994 H 838.607 0.0300042 -1.43969 0
M  V30 8995 H 840.56 2.46505 -3.4178 0
M  V30 8996 H 839.284 2.43601 -2.17546 0
M  V30 8997 H 837.943 0.824474 -3.57209 0
M  V30 8998 H 837.591 3.28954 -3.80524 0
M  V30 8999 H 837.291 2.44332 -5.34393 0
M  V30 9000 H 838.815 3.34541 -5.10798 0
M  V30 9001 H 840.229 1.13244 -5.62004 0
M  V30 9002 H 838.626 0.430728 -5.98552 0
M  V30 9003 H 839.696 -0.38829 -4.83343 0
M  V30 9004 N 841.039 1.57585 0.0217189 0
M  V30 9005 C 842.269 1.9359 0.721572 0
M  V30 9006 C 842.677 0.850132 1.69025 0
M  V30 9007 O 842.02 -0.181539 1.82801 0
M  V30 9008 C 842.082 3.25445 1.52729 0
M  V30 9009 C 841.746 4.51251 0.722586 0
M  V30 9010 C 842.743 5.19896 0.0196598 0
M  V30 9011 C 840.428 4.97745 0.674959 0
M  V30 9012 C 842.422 6.33319 -0.720114 0
M  V30 9013 C 840.109 6.11062 -0.068555 0
M  V30 9014 C 841.107 6.78704 -0.764845 0
M  V30 9015 O 840.795 7.89852 -1.49627 0
M  V30 9016 H 840.527 0.643409 0.207366 0
M  V30 9017 H 843.081 2.05391 -0.0189346 0
M  V30 9018 H 841.311 3.0999 2.31178 0
M  V30 9019 H 843 3.46721 2.11044 0
M  V30 9020 H 843.766 4.84977 0.0474394 0
M  V30 9021 H 839.645 4.44934 1.20643 0
M  V30 9022 H 843.189 6.86051 -1.26413 0
M  V30 9023 H 839.086 6.45425 -0.0982318 0
M  V30 9024 H 839.854 8.06251 -1.41071 0
M  V30 9025 N 842.517 -0.29412 1.54831 0
M  V30 9026 C 843.757 -1.03635 1.76179 0
M  V30 9027 C 844.121 -1.84251 0.539953 0
M  V30 9028 O 845.322 -2.61282 0.631295 0
M  V30 9029 C 843.593 -1.91275 3.01909 0
M  V30 9030 S 845.152 -2.7205 3.44288 0
M  V30 9031 H 841.97 -0.349403 0.619224 0
M  V30 9032 H 844.572 -0.309006 1.93042 0
M  V30 9033 H 843.276 -1.30937 3.88952 0
M  V30 9034 H 842.807 -2.68365 2.87652 0
M  V30 9035 H 844.822 -3.93791 3.01899 0
M  V30 9036 N 843.995 -1.47404 -0.557645 0
M  V30 9037 C 844.942 -1.59859 -1.66475 0
M  V30 9038 C 845.912 -0.441644 -1.60121 0
M  V30 9039 O 847.097 -0.661641 -1.78961 0
M  V30 9040 C 844.237 -1.61843 -3.04797 0
M  V30 9041 C 843.35 -2.8845 -3.2159 0
M  V30 9042 C 842.485 -2.81773 -4.50308 0
M  V30 9043 C 841.524 -4.03208 -4.60532 0
M  V30 9044 N 840.661 -3.94769 -5.80604 0
M  V30 9045 H 845.501 -2.54415 -1.55168 0
M  V30 9046 H 843.038 -1.26194 -0.755876 0
M  V30 9047 H 844.996 -1.60976 -3.84893 0
M  V30 9048 H 843.626 -0.707997 -3.1494 0
M  V30 9049 H 842.678 -2.99186 -2.34929 0
M  V30 9050 H 843.99 -3.78379 -3.25009 0
M  V30 9051 H 843.144 -2.79153 -5.38663 0
M  V30 9052 H 841.883 -1.89527 -4.49367 0
M  V30 9053 H 840.888 -4.06133 -3.70589 0
M  V30 9054 H 842.113 -4.9658 -4.63233 0
M  V30 9055 H 840.059 -3.05326 -5.80613 0
M  V30 9056 H 839.976 -4.78375 -5.854 0
M  V30 9057 H 841.244 -3.96165 -6.71322 0
M  V30 9058 N 845.473 0.80434 -1.35529 0
M  V30 9059 C 846.721 1.55845 -1.28673 0
M  V30 9060 C 847.042 1.94511 0.137976 0
M  V30 9061 O 846.312 1.63775 1.07492 0
M  V30 9062 H 844.892 0.577931 -0.473291 0
M  V30 9063 H 847.554 0.959293 -1.69657 0
M  V30 9064 H 846.65 2.47285 -1.90411 0
M  V30 9065 N 846.951 1.19563 1.02676 0
M  V30 9066 C 847.914 0.937182 2.09164 0
M  V30 9067 C 848.914 -0.0831927 1.60585 0
M  V30 9068 O 850.104 0.15178 1.73538 0
M  V30 9069 C 847.236 0.408912 3.38439 0
M  V30 9070 H 848.429 1.88164 2.33526 0
M  V30 9071 H 845.982 1.00959 1.19319 0
M  V30 9072 H 846.717 -0.541497 3.19747 0
M  V30 9073 H 846.502 1.14464 3.7502 0
M  V30 9074 H 847.992 0.247242 4.16867 0
M  V30 9075 N 848.429 -1.21819 0.999893 0
M  V30 9076 C 849.706 -1.86318 0.595384 0
M  V30 9077 C 850.086 -1.8965 -0.927143 0
M  V30 9078 O 849.434 -1.3921 -1.81199 0
M  V30 9079 C 849.644 -3.26837 1.22387 0
M  V30 9080 C 850.992 -4.03272 1.32878 0
M  V30 9081 O 852.016 -3.36129 1.1788 0
M  V30 9082 O 850.875 -5.23477 1.56952 0
M  V30 9083 H 847.969 -0.801638 0.203238 0
M  V30 9084 H 850.515 -1.29542 1.09622 0
M  V30 9085 H 849.287 -3.19084 2.26497 0
M  V30 9086 H 848.91 -3.91226 0.709069 0
M  V30 9087 N 849.908 -0.773975 -1.37286 0
M  V30 9088 C 851.136 -0.350758 -2.03905 0
M  V30 9089 C 851.551 1.02779 -1.58373 0
M  V30 9090 O 850.908 1.65646 -0.766009 0
M  V30 9091 C 850.959 -0.387335 -3.59419 0
M  V30 9092 O 850.68 -1.7115 -4.03286 0
M  V30 9093 C 852.181 0.047198 -4.43275 0
M  V30 9094 H 849.401 -0.146663 -0.654775 0
M  V30 9095 H 851.945 -1.04852 -1.75574 0
M  V30 9096 H 850.1 0.261865 -3.86514 0
M  V30 9097 H 850.514 -1.65166 -4.97816 0
M  V30 9098 H 851.988 -0.0295474 -5.51992 0
M  V30 9099 H 852.465 1.09786 -4.25257 0
M  V30 9100 H 853.071 -0.573899 -4.2141 0
M  V30 9101 N 851.386 1.48609 -0.524698 0
M  V30 9102 C 852.632 2.02797 0.0113382 0
M  V30 9103 C 852.965 1.40147 1.34433 0
M  V30 9104 O 852.24 0.545368 1.86698 0
M  V30 9105 C 852.523 3.59832 0.138931 0
M  V30 9106 C 852.376 4.32971 -1.21886 0
M  V30 9107 C 853.695 4.3145 0.868265 0
M  V30 9108 H 850.814 0.736995 0.00264645 0
M  V30 9109 H 853.456 1.77388 -0.680704 0
M  V30 9110 H 851.606 3.81612 0.72834 0
M  V30 9111 H 853.278 4.22624 -1.84897 0
M  V30 9112 H 851.521 3.94597 -1.80211 0
M  V30 9113 H 852.192 5.41279 -1.08263 0
M  V30 9114 H 854.668 4.14468 0.368145 0
M  V30 9115 H 853.544 5.41025 0.926428 0
M  V30 9116 H 853.805 3.98358 1.91737 0
M  V30 9117 N 852.864 0.259585 1.55447 0
M  V30 9118 C 854.113 -0.362163 1.98422 0
M  V30 9119 C 854.426 -1.58135 1.1512 0
M  V30 9120 O 855.632 -2.27506 1.48166 0
M  V30 9121 C 854.088 -0.695722 3.53111 0
M  V30 9122 C 853.696 0.502784 4.4517 0
M  V30 9123 C 855.44 -1.28096 4.04712 0
M  V30 9124 C 853.347 0.144674 5.91223 0
M  V30 9125 H 852.277 -0.139092 0.74106 0
M  V30 9126 H 854.928 0.361798 1.79898 0
M  V30 9127 H 853.31 -1.47816 3.67378 0
M  V30 9128 H 854.484 1.27994 4.42667 0
M  V30 9129 H 852.799 1.0038 4.0412 0
M  V30 9130 H 855.396 -1.56243 5.11363 0
M  V30 9131 H 855.739 -2.20969 3.52815 0
M  V30 9132 H 856.272 -0.561146 3.93822 0
M  V30 9133 H 853.011 1.04087 6.47183 0
M  V30 9134 H 852.531 -0.596023 5.96831 0
M  V30 9135 H 854.21 -0.268651 6.46442 0
M  V30 9136 N 854.342 -1.57594 -0.0133615 0
M  V30 9137 C 855.572 -1.93969 -0.711295 0
M  V30 9138 C 855.98 -0.859084 -1.68572 0
M  V30 9139 O 855.323 0.171842 -1.82894 0
M  V30 9140 C 855.385 -3.2625 -1.51001 0
M  V30 9141 C 855.049 -4.51628 -0.698645 0
M  V30 9142 C 856.046 -5.19899 0.00791185 0
M  V30 9143 C 853.731 -4.98095 -0.648553 0
M  V30 9144 C 855.725 -6.32928 0.753691 0
M  V30 9145 C 853.412 -6.11017 0.10096 0
M  V30 9146 C 854.41 -6.78289 0.800828 0
M  V30 9147 O 854.098 -7.89048 1.53814 0
M  V30 9148 H 853.83 -0.6445 -0.203951 0
M  V30 9149 H 856.384 -2.05378 0.0298267 0
M  V30 9150 H 854.614 -3.11211 -2.29531 0
M  V30 9151 H 856.303 -3.47835 -2.09202 0
M  V30 9152 H 857.069 -4.84995 -0.0217192 0
M  V30 9153 H 852.948 -4.45568 -1.18282 0
M  V30 9154 H 856.492 -6.85371 1.3005 0
M  V30 9155 H 852.389 -6.45364 0.132459 0
M  V30 9156 H 853.157 -8.05492 1.45345 0
M  V30 9157 N 855.82 0.285905 -1.54985 0
M  V30 9158 C 857.097 1.0397 -1.65679 0
M  V30 9159 C 857.477 2.04725 -0.514851 0
M  V30 9160 O 856.825 2.23257 0.486663 0
M  V30 9161 C 857.035 1.70807 -3.04345 0
M  V30 9162 C 858.383 2.22447 -3.61666 0
M  V30 9163 O 859.407 1.80815 -3.06895 0
M  V30 9164 O 858.266 2.98773 -4.57599 0
M  V30 9165 H 855.36 0.481473 -0.672394 0
M  V30 9166 H 857.906 0.282789 -1.67327 0
M  V30 9167 H 856.678 0.977271 -3.789 0
M  V30 9168 H 856.301 2.53217 -3.06541 0
M  V30 9169 N 857.298 1.47698 0.54982 0
M  V30 9170 C 858.714 1.3338 0.876468 0
M  V30 9171 C 858.914 0.329837 1.98782 0
M  V30 9172 O 857.97 -0.256022 2.51199 0
M  V30 9173 C 859.283 2.72903 1.26272 0
M  V30 9174 C 860.831 2.81243 1.37373 0
M  V30 9175 C 861.306 4.21423 1.79351 0
M  V30 9176 N 862.797 4.24 1.86489 0
M  V30 9177 C 863.532 5.29386 2.20313 0
M  V30 9178 N 863.028 6.4507 2.527 0
M  V30 9179 N 864.821 5.16768 2.2115 0
M  V30 9180 H 856.972 2.11603 -0.183781 0
M  V30 9181 H 859.235 0.947798 -0.0195601 0
M  V30 9182 H 858.941 3.47836 0.519889 0
M  V30 9183 H 858.815 3.05151 2.21727 0
M  V30 9184 H 861.202 2.06577 2.10737 0
M  V30 9185 H 861.283 2.52639 0.400882 0
M  V30 9186 H 860.927 4.96597 1.06555 0
M  V30 9187 H 860.857 4.47456 2.77652 0
M  V30 9188 H 863.348 3.40547 1.63817 0
M  V30 9189 H 863.661 7.21236 2.77557 0
M  V30 9190 H 862.006 6.48377 2.50263 0
M  V30 9191 H 865.197 4.25416 1.95293 0
M  V30 9192 H 865.37 5.99004 2.4718 0
M  V30 9193 N 858.776 -0.797141 1.35954 0
M  V30 9194 C 859.706 -1.92387 1.32323 0
M  V30 9195 C 860.687 -1.68967 0.196007 0
M  V30 9196 O 861.872 -1.90193 0.39245 0
M  V30 9197 C 859.002 -3.29286 1.10398 0
M  V30 9198 C 857.956 -3.67212 2.19862 0
M  V30 9199 C 857.282 -5.02377 1.8309 0
M  V30 9200 C 858.582 -3.76602 3.61896 0
M  V30 9201 H 860.276 -1.95683 2.26602 0
M  V30 9202 H 857.822 -0.94007 1.09081 0
M  V30 9203 H 859.775 -4.07721 1.06495 0
M  V30 9204 H 858.499 -3.26358 0.125668 0
M  V30 9205 H 857.158 -2.91069 2.22878 0
M  V30 9206 H 856.806 -4.95961 0.838527 0
M  V30 9207 H 856.506 -5.28722 2.56372 0
M  V30 9208 H 858.03 -5.8324 1.80729 0
M  V30 9209 H 859.444 -4.45246 3.6115 0
M  V30 9210 H 857.841 -4.14425 4.34018 0
M  V30 9211 H 858.911 -2.77906 3.97361 0
M  V30 9212 N 860.254 -1.20106 -1.0204 0
M  V30 9213 C 861.217 -0.948261 -2.08664 0
M  V30 9214 C 862.217 0.0746753 -1.60627 0
M  V30 9215 O 863.407 -0.160981 -1.73455 0
M  V30 9216 C 860.539 -0.426854 -3.38217 0
M  V30 9217 H 861.732 -1.894 -2.32524 0
M  V30 9218 H 859.285 -1.0159 -1.18782 0
M  V30 9219 H 860.02 0.524532 -3.2003 0
M  V30 9220 H 859.805 -1.16451 -3.74408 0
M  V30 9221 H 861.295 -0.269346 -4.1673 0
M  V30 9222 N 861.732 1.21287 -1.00634 0
M  V30 9223 C 862.642 2.27388 -0.577226 0
M  V30 9224 C 863.658 1.69791 0.380399 0
M  V30 9225 O 864.834 1.99918 0.2439 0
M  V30 9226 C 861.899 3.46588 0.0880532 0
M  V30 9227 C 860.96 4.19453 -0.914222 0
M  V30 9228 C 860.193 5.32962 -0.280596 0
M  V30 9229 O 860.416 5.62895 0.922265 0
M  V30 9230 O 859.35 5.93666 -0.992196 0
M  V30 9231 H 863.176 2.66289 -1.46028 0
M  V30 9232 H 860.761 1.2771 -0.775283 0
M  V30 9233 H 862.643 4.18881 0.460094 0
M  V30 9234 H 861.318 3.09585 0.945461 0
M  V30 9235 H 860.225 3.49376 -1.33744 0
M  V30 9236 H 861.558 4.6037 -1.74126 0
M  V30 9237 N 863.21 0.781244 1.36873 0
M  V30 9238 C 864.438 0.361566 2.03716 0
M  V30 9239 C 864.853 -1.01937 1.58916 0
M  V30 9240 O 864.21 -1.65237 0.774783 0
M  V30 9241 C 864.261 0.406391 3.59208 0
M  V30 9242 O 863.982 1.73286 4.02372 0
M  V30 9243 C 865.483 -0.0236894 4.43294 0
M  V30 9244 H 862.703 0.150133 0.653988 0
M  V30 9245 H 865.247 1.05781 1.75016 0
M  V30 9246 H 863.402 -0.241364 3.86647 0
M  V30 9247 H 863.816 1.67804 4.96933 0
M  V30 9248 H 865.29 0.0588205 5.51969 0
M  V30 9249 H 865.767 -1.07529 4.25833 0
M  V30 9250 H 866.373 0.59624 4.211 0
M  V30 9251 N 864.689 -1.48329 0.532571 0
M  V30 9252 C 865.914 -2.074 0.00147755 0
M  V30 9253 C 866.339 -1.38615 -1.27151 0
M  V30 9254 O 865.697 -0.452949 -1.75551 0
M  V30 9255 C 865.745 -3.60029 -0.202866 0
M  V30 9256 O 864.849 -3.92327 -1.27097 0
M  V30 9257 H 864.19 -0.662777 0.0402883 0
M  V30 9258 H 866.72 -1.90701 0.741224 0
M  V30 9259 H 866.73 -4.05783 -0.424722 0
M  V30 9260 H 865.405 -4.09496 0.727033 0
M  V30 9261 H 863.982 -3.58348 -1.03156 0
M  V30 9262 N 866.167 -0.267825 -1.55308 0
M  V30 9263 C 867.114 0.6228 -2.22238 0
M  V30 9264 C 868.084 1.15536 -1.19334 0
M  V30 9265 O 869.269 1.206 -1.47852 0
M  V30 9266 C 866.409 1.80447 -2.94164 0
M  V30 9267 C 865.522 1.30646 -4.11771 0
M  V30 9268 C 864.657 2.44935 -4.7136 0
M  V30 9269 C 863.696 1.92099 -5.81175 0
M  V30 9270 N 862.833 2.99834 -6.34857 0
M  V30 9271 H 867.673 0.0453874 -2.97965 0
M  V30 9272 H 865.21 0.0106371 -1.47096 0
M  V30 9273 H 867.168 2.49896 -3.34078 0
M  V30 9274 H 865.798 2.35403 -2.20874 0
M  V30 9275 H 864.85 0.505314 -3.77029 0
M  V30 9276 H 866.162 0.879409 -4.90987 0
M  V30 9277 H 865.316 3.2239 -5.13955 0
M  V30 9278 H 864.055 2.90951 -3.91406 0
M  V30 9279 H 863.06 1.13122 -5.38037 0
M  V30 9280 H 864.285 1.47027 -6.62993 0
M  V30 9281 H 862.231 3.45246 -5.578 0
M  V30 9282 H 862.148 2.61524 -7.09324 0
M  V30 9283 H 863.416 3.77286 -6.82111 0
M  V30 9284 N 867.645 1.57599 0.00500368 0
M  V30 9285 C 868.875 1.94344 0.700998 0
M  V30 9286 C 869.283 0.868011 1.68114 0
M  V30 9287 O 868.626 -0.16214 1.82983 0
M  V30 9288 C 868.688 3.27046 1.49268 0
M  V30 9289 C 868.352 4.51992 0.674684 0
M  V30 9290 C 869.349 5.19888 -0.0354833 0
M  V30 9291 C 867.034 4.98432 0.622129 0
M  V30 9292 C 869.028 6.3252 -0.787246 0
M  V30 9293 C 866.715 6.10954 -0.133362 0
M  V30 9294 C 867.713 6.77855 -0.836788 0
M  V30 9295 O 867.401 7.88221 -1.57996 0
M  V30 9296 H 867.133 0.645572 0.20053 0
M  V30 9297 H 869.687 2.0536 -0.040718 0
M  V30 9298 H 867.917 3.12424 2.27877 0
M  V30 9299 H 869.606 3.4894 2.07355 0
M  V30 9300 H 870.372 4.85 -0.00400159 0
M  V30 9301 H 866.251 4.46189 1.15917 0
M  V30 9302 H 869.795 6.84671 -1.33683 0
M  V30 9303 H 865.692 6.45285 -0.166682 0
M  V30 9304 H 866.46 8.0471 -1.49615 0
M  V30 9305 N 869.123 -0.277682 1.55134 0
M  V30 9306 C 870.07 -1.34313 1.87693 0
M  V30 9307 C 871.04 -1.49298 0.727973 0
M  V30 9308 O 872.225 -1.6378 0.978807 0
M  V30 9309 C 869.365 -2.69922 2.15026 0
M  V30 9310 C 868.478 -2.63197 3.42565 0
M  V30 9311 C 867.613 -3.90955 3.59622 0
M  V30 9312 C 866.652 -3.78722 4.8087 0
M  V30 9313 N 865.789 -4.98303 4.94609 0
M  V30 9314 H 870.629 -1.05847 2.78569 0
M  V30 9315 H 868.166 -0.511469 1.37922 0
M  V30 9316 H 870.124 -3.48817 2.28872 0
M  V30 9317 H 868.754 -2.966 1.2739 0
M  V30 9318 H 867.806 -1.76038 3.37216 0
M  V30 9319 H 869.118 -2.50056 4.31594 0
M  V30 9320 H 868.272 -4.78291 3.7326 0
M  V30 9321 H 867.011 -4.06957 2.6877 0
M  V30 9322 H 866.016 -2.89769 4.67241 0
M  V30 9323 H 867.241 -3.64242 5.73153 0
M  V30 9324 H 865.187 -5.14725 4.06687 0
M  V30 9325 H 865.104 -4.87675 5.77676 0
M  V30 9326 H 866.372 -5.87225 5.12628 0
M  V30 9327 N 870.601 -1.47988 -0.541979 0
M  V30 9328 C 871.511 -1.64276 -1.67483 0
M  V30 9329 C 872.527 -0.525387 -1.65879 0
M  V30 9330 O 873.703 -0.794912 -1.85049 0
M  V30 9331 C 870.768 -1.66744 -3.03969 0
M  V30 9332 C 869.829 -2.90021 -3.16522 0
M  V30 9333 C 869.062 -2.92362 -4.46498 0
M  V30 9334 O 869.285 -2.03462 -5.32878 0
M  V30 9335 O 868.219 -3.84399 -4.63164 0
M  V30 9336 H 872.045 -2.60164 -1.5668 0
M  V30 9337 H 869.63 -1.31249 -0.71372 0
M  V30 9338 H 871.512 -1.70958 -3.85164 0
M  V30 9339 H 870.187 -0.740277 -3.15122 0
M  V30 9340 H 869.094 -2.91345 -2.34667 0
M  V30 9341 H 870.427 -3.82082 -3.10281 0
M  V30 9342 N 872.079 0.78992 -1.36375 0
M  V30 9343 C 873.328 1.54296 -1.29906 0
M  V30 9344 C 873.641 1.95234 0.119651 0
M  V30 9345 O 874.847 2.69762 0.306708 0
M  V30 9346 C 873.303 2.78533 -2.27919 0
M  V30 9347 C 872.911 2.44767 -3.75224 0
M  V30 9348 C 874.655 3.56516 -2.30427 0
M  V30 9349 C 872.562 3.65397 -4.65015 0
M  V30 9350 H 871.492 0.579214 -0.482729 0
M  V30 9351 H 874.143 0.866845 -1.61735 0
M  V30 9352 H 872.525 3.47941 -1.89084 0
M  V30 9353 H 873.699 1.83259 -4.22792 0
M  V30 9354 H 872.014 1.79996 -3.75487 0
M  V30 9355 H 874.611 4.46143 -2.94722 0
M  V30 9356 H 874.954 3.95063 -1.31266 0
M  V30 9357 H 875.487 2.94087 -2.67876 0
M  V30 9358 H 872.226 3.31946 -5.65236 0
M  V30 9359 H 871.746 4.26072 -4.22164 0
M  V30 9360 H 873.425 4.32431 -4.81261 0
M  V30 9361 N 873.557 1.20646 1.01402 0
M  V30 9362 C 874.785 1.04389 1.78635 0
M  V30 9363 C 875.2 -0.406771 1.84366 0
M  V30 9364 O 874.557 -1.28239 1.2985 0
M  V30 9365 C 874.608 1.62378 3.22979 0
M  V30 9366 O 874.329 3.01768 3.17597 0
M  V30 9367 C 875.83 1.5111 4.1675 0
M  V30 9368 H 873.05 0.367077 0.56169 0
M  V30 9369 H 875.594 1.59789 1.27624 0
M  V30 9370 H 873.749 1.11092 3.7113 0
M  V30 9371 H 874.163 3.29331 4.08217 0
M  V30 9372 H 875.637 1.96441 5.15863 0
M  V30 9373 H 876.114 0.464011 4.36742 0
M  V30 9374 H 876.72 2.01599 3.74483 0
M  V30 9375 N 875.035 -1.20752 1.01276 0
M  V30 9376 C 875.965 -2.25658 0.600064 0
M  V30 9377 C 876.946 -1.65733 -0.38298 0
M  V30 9378 O 878.131 -1.92324 -0.269256 0
M  V30 9379 C 875.261 -3.47237 -0.0663197 0
M  V30 9380 C 874.215 -4.1973 0.83731 0
M  V30 9381 C 873.541 -5.34687 0.0369102 0
M  V30 9382 C 874.841 -4.76286 2.14357 0
M  V30 9383 H 876.535 -2.60432 1.477 0
M  V30 9384 H 874.081 -1.25187 0.711634 0
M  V30 9385 H 876.034 -4.19803 -0.366563 0
M  V30 9386 H 874.758 -3.11615 -0.977944 0
M  V30 9387 H 873.417 -3.49024 1.1215 0
M  V30 9388 H 873.065 -4.95309 -0.876244 0
M  V30 9389 H 872.765 -5.84119 0.63865 0
M  V30 9390 H 874.289 -6.10059 -0.256968 0
M  V30 9391 H 875.703 -5.40691 1.90595 0
M  V30 9392 H 874.1 -5.36139 2.69583 0
M  V30 9393 H 875.17 -3.9524 2.80916 0
M  V30 9394 N 876.513 -0.788492 -1.36457 0
M  V30 9395 C 877.46 -0.18435 -2.30063 0
M  V30 9396 C 878.43 0.67128 -1.51931 0
M  V30 9397 O 879.615 0.620152 -1.8044 0
M  V30 9398 C 876.755 0.675596 -3.38422 0
M  V30 9399 C 875.868 -0.198475 -4.31544 0
M  V30 9400 C 875.003 0.667757 -5.26986 0
M  V30 9401 C 874.042 -0.207825 -6.11747 0
M  V30 9402 N 873.179 0.617335 -6.99381 0
M  V30 9403 H 878.019 -0.988056 -2.81143 0
M  V30 9404 H 875.556 -0.498815 -1.38384 0
M  V30 9405 H 877.514 1.18916 -3.99894 0
M  V30 9406 H 876.144 1.44474 -2.88664 0
M  V30 9407 H 875.196 -0.829995 -3.71235 0
M  V30 9408 H 876.508 -0.873163 -4.91098 0
M  V30 9409 H 875.662 1.24716 -5.93743 0
M  V30 9410 H 874.401 1.37607 -4.67884 0
M  V30 9411 H 873.406 -0.799638 -5.43954 0
M  V30 9412 H 874.631 -0.913729 -6.72925 0
M  V30 9413 H 872.577 1.30996 -6.42788 0
M  V30 9414 H 872.494 0.000307255 -7.56 0
M  V30 9415 H 873.762 1.1806 -7.70508 0
M  V30 9416 N 877.991 1.48044 -0.54043 0
M  V30 9417 C 878.941 2.26768 0.236657 0
M  V30 9418 C 879.925 1.33341 0.900505 0
M  V30 9419 O 881.117 1.57809 0.801584 0
M  V30 9420 C 878.246 3.18685 1.27651 0
M  V30 9421 C 877.332 4.19589 0.616923 0
M  V30 9422 N 877.723 5.04889 -0.303377 0
M  V30 9423 C 876.021 4.37375 0.872879 0
M  V30 9424 C 876.722 5.77654 -0.684905 0
M  V30 9425 N 875.698 5.43583 -0.0435728 0
M  V30 9426 H 879.5 2.90098 -0.471183 0
M  V30 9427 H 877.014 1.58378 -0.359183 0
M  V30 9428 H 879.011 3.73752 1.84702 0
M  V30 9429 H 877.671 2.56911 1.98562 0
M  V30 9430 H 878.682 5.13461 -0.676591 0
M  V30 9431 H 875.359 3.86784 1.57177 0
M  V30 9432 H 876.749 6.56285 -1.44015 0
M  V30 9433 N 879.47 0.276058 1.55163 0
M  V30 9434 C 880.4 -0.604633 2.25536 0
M  V30 9435 C 881.381 -1.15813 1.24585 0
M  V30 9436 O 882.566 -1.1921 1.53306 0
M  V30 9437 C 879.696 -1.78836 2.97716 0
M  V30 9438 C 878.65 -1.36635 4.05604 0
M  V30 9439 C 877.976 -2.63325 4.65364 0
M  V30 9440 C 879.276 -0.515858 5.19746 0
M  V30 9441 H 880.97 -0.0177483 2.99395 0
M  V30 9442 H 878.516 -0.00709627 1.43998 0
M  V30 9443 H 880.469 -2.41036 3.45658 0
M  V30 9444 H 879.193 -2.40109 2.21394 0
M  V30 9445 H 877.852 -0.767541 3.58475 0
M  V30 9446 H 877.5 -3.22858 3.85709 0
M  V30 9447 H 877.2 -2.358 5.38212 0
M  V30 9448 H 878.724 -3.26372 5.16056 0
M  V30 9449 H 880.138 -1.04289 5.63735 0
M  V30 9450 H 878.535 -0.335449 5.99162 0
M  V30 9451 H 879.605 0.465137 4.82664 0
M  V30 9452 N 880.948 -1.576 0.00335426 0
M  V30 9453 C 881.858 -2.12067 -1.00322 0
M  V30 9454 C 882.874 -1.06672 -1.37467 0
M  V30 9455 O 884.05 -1.38592 -1.46131 0
M  V30 9456 C 881.115 -2.61593 -2.27531 0
M  V30 9457 C 880.176 -3.81602 -1.96668 0
M  V30 9458 C 879.409 -4.28756 -3.17811 0
M  V30 9459 O 879.632 -3.75222 -4.2961 0
M  V30 9460 O 878.566 -5.20877 -3.01613 0
M  V30 9461 H 882.392 -2.98299 -0.570199 0
M  V30 9462 H 879.977 -1.47835 -0.215682 0
M  V30 9463 H 881.859 -2.93631 -3.02256 0
M  V30 9464 H 880.534 -1.78457 -2.70065 0
M  V30 9465 H 879.441 -3.54531 -1.19408 0
M  V30 9466 H 880.774 -4.65822 -1.58968 0
M  V30 9467 N 882.426 0.269451 -1.5528 0
M  V30 9468 C 883.358 1.35553 -1.84819 0
M  V30 9469 C 884.371 1.45369 -0.732914 0
M  V30 9470 O 885.56 1.47122 -1.0108 0
M  V30 9471 C 882.66 2.73645 -1.9993 0
M  V30 9472 C 881.833 2.86376 -3.30617 0
M  V30 9473 C 880.892 4.05165 -3.35749 0
M  V30 9474 O 879.918 3.95756 -4.09104 0
M  V30 9475 N 881.12 5.17297 -2.63408 0
M  V30 9476 H 883.885 1.10557 -2.78563 0
M  V30 9477 H 881.446 0.459566 -1.5524 0
M  V30 9478 H 883.438 3.51411 -2.00729 0
M  V30 9479 H 882.008 2.91448 -1.13035 0
M  V30 9480 H 881.228 1.95465 -3.42326 0
M  V30 9481 H 882.516 2.91815 -4.16799 0
M  V30 9482 H 881.914 5.2783 -2.03501 0
M  V30 9483 H 880.471 5.93281 -2.69927 0
M  V30 9484 N 883.904 1.48273 0.534124 0
M  V30 9485 C 885.151 1.56079 1.29017 0
M  V30 9486 C 885.479 0.232912 1.931 0
M  V30 9487 O 884.734 -0.77642 1.79639 0
M  V30 9488 C 885.033 2.64468 2.40398 0
M  V30 9489 C 884.699 4.07034 1.93995 0
M  V30 9490 C 883.361 4.45838 1.81058 0
M  V30 9491 C 885.713 4.96395 1.58877 0
M  V30 9492 C 883.041 5.71812 1.31331 0
M  V30 9493 C 885.393 6.22854 1.10614 0
M  V30 9494 C 884.057 6.60518 0.962895 0
M  V30 9495 H 883.327 0.571135 0.472108 0
M  V30 9496 H 885.974 1.81973 0.5965 0
M  V30 9497 H 884.279 2.32419 3.15418 0
M  V30 9498 H 885.976 2.67725 2.98537 0
M  V30 9499 H 882.566 3.76387 2.05015 0
M  V30 9500 H 886.75 4.67096 1.67734 0
M  V30 9501 H 882.006 5.99722 1.18924 0
M  V30 9502 H 886.18 6.91495 0.825095 0
M  V30 9503 H 883.807 7.58019 0.575369 0
M  V30 9504 N 885.382 -0.782676 1.36792 0
M  V30 9505 C 886.345 -1.8772 1.31507 0
M  V30 9506 C 887.345 -1.59269 0.221349 0
M  V30 9507 O 888.535 -1.67555 0.476544 0
M  V30 9508 C 885.667 -3.24641 1.04025 0
M  V30 9509 H 886.86 -1.9382 2.28853 0
M  V30 9510 H 884.413 -0.981226 1.21662 0
M  V30 9511 H 885.148 -3.24221 0.0716439 0
M  V30 9512 H 884.933 -3.46681 1.8318 0
M  V30 9513 H 886.423 -4.04711 1.02949 0
M  V30 9514 N 886.86 -1.21182 -1.00761 0
M  V30 9515 C 888.088 -1.05335 -1.78079 0
M  V30 9516 C 888.503 0.396988 -1.84579 0
M  V30 9517 O 887.86 1.27548 -1.30529 0
M  V30 9518 C 887.911 -1.64089 -3.22113 0
M  V30 9519 O 887.632 -3.03448 -3.15992 0
M  V30 9520 C 889.133 -1.53318 -4.15943 0
M  V30 9521 H 886.353 -0.37005 -0.559736 0
M  V30 9522 H 888.897 -1.60463 -1.26775 0
M  V30 9523 H 887.052 -1.13059 -3.70535 0
M  V30 9524 H 887.466 -3.31492 -4.06465 0
M  V30 9525 H 888.94 -1.99174 -5.14814 0
M  V30 9526 H 889.417 -0.487166 -4.3649 0
M  V30 9527 H 890.023 -2.03582 -3.73409 0
M  V30 9528 N 888.338 1.20213 -1.01915 0
M  V30 9529 C 889.248 2.26763 -0.601311 0
M  V30 9530 C 890.264 1.70185 0.362369 0
M  V30 9531 O 891.44 2.00165 0.222682 0
M  V30 9532 C 888.505 3.46662 0.0512879 0
M  V30 9533 C 887.566 4.18459 -0.958659 0
M  V30 9534 C 886.799 5.32634 -0.337107 0
M  V30 9535 O 887.022 5.63841 0.86251 0
M  V30 9536 O 885.956 5.9258 -1.05511 0
M  V30 9537 H 889.782 2.64725 -1.48844 0
M  V30 9538 H 887.367 1.2688 -0.788784 0
M  V30 9539 H 889.249 4.19345 0.41564 0
M  V30 9540 H 887.924 3.1057 0.912572 0
M  V30 9541 H 886.831 3.47937 -1.37442 0
M  V30 9542 H 888.164 4.58498 -1.78999 0
M  V30 9543 N 889.816 0.795718 1.36037 0
M  V30 9544 C 891.064 0.370291 1.98679 0
M  V30 9545 C 891.385 -1.06332 1.63458 0
M  V30 9546 O 890.655 -1.73394 0.911671 0
M  V30 9547 H 889.235 0.133928 0.734896 0
M  V30 9548 H 891.897 1.01915 1.6613 0
M  V30 9549 H 890.993 0.467207 3.08583 0
M  V30 9550 N 891.294 -1.47756 0.548274 0
M  V30 9551 C 892.224 -2.32702 -0.19284 0
M  V30 9552 C 893.205 -1.43237 -0.917457 0
M  V30 9553 O 894.39 -1.72103 -0.89967 0
M  V30 9554 C 891.52 -3.24831 -1.22891 0
M  V30 9555 C 890.474 -4.23466 -0.621312 0
M  V30 9556 C 889.8 -5.04856 -1.76137 0
M  V30 9557 C 891.1 -5.20616 0.419055 0
M  V30 9558 H 892.794 -2.94914 0.516323 0
M  V30 9559 H 890.34 -1.41818 0.24975 0
M  V30 9560 H 892.293 -3.83094 -1.75547 0
M  V30 9561 H 891.017 -2.60656 -1.9679 0
M  V30 9562 H 889.676 -3.66416 -0.116123 0
M  V30 9563 H 889.324 -4.37091 -2.48918 0
M  V30 9564 H 889.024 -5.71629 -1.36065 0
M  V30 9565 H 890.548 -5.65976 -2.29136 0
M  V30 9566 H 891.962 -5.73296 -0.0211034 0
M  V30 9567 H 890.359 -5.95543 0.738163 0
M  V30 9568 H 891.429 -4.66638 1.31822 0
M  V30 9569 N 892.772 -0.284283 -1.55015 0
M  V30 9570 C 894.188 0.069603 -1.59448 0
M  V30 9571 C 894.388 1.53833 -1.30144 0
M  V30 9572 O 893.444 2.2886 -1.06674 0
M  V30 9573 C 894.757 -0.313287 -2.99064 0
M  V30 9574 C 896.305 -0.260662 -3.11913 0
M  V30 9575 C 896.78 -0.618127 -4.5381 0
M  V30 9576 N 898.271 -0.570026 -4.59679 0
M  V30 9577 C 899.006 -0.8193 -5.67517 0
M  V30 9578 N 898.502 -1.13367 -6.83462 0
M  V30 9579 N 900.295 -0.747482 -5.57108 0
M  V30 9580 H 892.446 -1.24167 -1.72326 0
M  V30 9581 H 894.709 -0.502259 -0.804015 0
M  V30 9582 H 894.415 -1.33509 -3.25374 0
M  V30 9583 H 894.289 0.341369 -3.75652 0
M  V30 9584 H 896.676 0.751869 -2.85361 0
M  V30 9585 H 896.757 -0.949706 -2.37517 0
M  V30 9586 H 896.401 -1.62839 -4.81088 0
M  V30 9587 H 896.331 0.092807 -5.26518 0
M  V30 9588 H 898.822 -0.3373 -3.76392 0
M  V30 9589 H 899.135 -1.3103 -7.61611 0
M  V30 9590 H 897.48 -1.17154 -6.85055 0
M  V30 9591 H 900.671 -0.501658 -4.65404 0
M  V30 9592 H 900.844 -0.945128 -6.4107 0
M  V30 9593 N 894.251 1.57596 -0.0117121 0
M  V30 9594 C 895.479 1.9536 0.681334 0
M  V30 9595 C 895.894 0.887255 1.66653 0
M  V30 9596 O 895.251 -0.132692 1.82017 0
M  V30 9597 C 895.302 3.33165 1.40298 0
M  V30 9598 O 895.023 4.35707 0.45728 0
M  V30 9599 C 896.524 3.85458 2.18946 0
M  V30 9600 H 893.744 0.643826 0.189023 0
M  V30 9601 H 896.288 2.04392 -0.066311 0
M  V30 9602 H 894.443 3.25404 2.10216 0
M  V30 9603 H 894.857 5.15495 0.96773 0
M  V30 9604 H 896.331 4.84275 2.64918 0
M  V30 9605 H 896.808 3.18781 3.02118 0
M  V30 9606 H 897.414 3.96431 1.5402 0
M  V30 9607 N 895.729 -0.261212 1.5542 0
M  V30 9608 C 896.659 -1.32712 1.92119 0
M  V30 9609 C 897.64 -1.50934 0.784406 0
M  V30 9610 O 898.825 -1.63781 1.04352 0
M  V30 9611 C 895.955 -2.68453 2.20341 0
M  V30 9612 C 894.909 -2.64947 3.36136 0
M  V30 9613 C 894.235 -4.04349 3.49865 0
M  V30 9614 C 895.535 -2.23182 4.72215 0
M  V30 9615 H 897.229 -1.02245 2.81401 0
M  V30 9616 H 894.775 -0.490406 1.35392 0
M  V30 9617 H 896.728 -3.43144 2.44603 0
M  V30 9618 H 895.452 -3.00527 1.27871 0
M  V30 9619 H 894.111 -1.92714 3.11861 0
M  V30 9620 H 893.759 -4.33665 2.5484 0
M  V30 9621 H 893.459 -4.02895 4.27726 0
M  V30 9622 H 894.983 -4.80761 3.76432 0
M  V30 9623 H 896.397 -2.87599 4.95943 0
M  V30 9624 H 894.794 -2.32867 5.53076 0
M  V30 9625 H 895.864 -1.18327 4.70241 0
M  V30 9626 N 897.207 -1.48554 -0.526253 0
M  V30 9627 C 898.447 -1.58362 -1.29232 0
M  V30 9628 C 898.811 -0.253353 -1.90321 0
M  V30 9629 O 900.012 -0.226439 -2.67845 0
M  V30 9630 C 898.283 -2.69294 -2.3498 0
M  V30 9631 S 899.842 -2.98891 -3.21262 0
M  V30 9632 H 896.66 -0.558859 -0.439543 0
M  V30 9633 H 899.262 -1.86094 -0.599099 0
M  V30 9634 H 897.966 -3.64504 -1.88587 0
M  V30 9635 H 897.497 -2.43475 -3.09004 0
M  V30 9636 H 899.512 -2.38475 -4.35137 0
M  V30 9637 N 898.685 0.775411 -1.37205 0
M  V30 9638 C 899.932 1.53384 -1.32211 0
M  V30 9639 C 900.26 1.9427 0.0944958 0
M  V30 9640 O 899.515 1.64059 1.06692 0
M  V30 9641 C 899.814 2.81377 -2.20367 0
M  V30 9642 C 899.48 2.59561 -3.68699 0
M  V30 9643 C 898.142 2.53319 -4.09124 0
M  V30 9644 C 900.494 2.39939 -4.62686 0
M  V30 9645 C 897.822 2.25442 -5.41658 0
M  V30 9646 C 900.174 2.13586 -5.95453 0
M  V30 9647 C 898.838 2.05786 -6.34987 0
M  V30 9648 H 898.108 0.561271 -0.483793 0
M  V30 9649 H 900.755 0.893466 -1.6938 0
M  V30 9650 H 899.06 3.49954 -1.76181 0
M  V30 9651 H 900.757 3.39238 -2.13819 0
M  V30 9652 H 897.347 2.6528 -3.36637 0
M  V30 9653 H 901.531 2.43753 -4.32317 0
M  V30 9654 H 896.787 2.17896 -5.71254 0
M  V30 9655 H 900.961 1.97401 -6.67837 0
M  V30 9656 H 898.588 1.83948 -7.37609 0
M  V30 9657 N 900.163 1.21714 1.00117 0
M  V30 9658 C 901.126 0.981338 2.07129 0
M  V30 9659 C 902.126 -0.0491116 1.60725 0
M  V30 9660 O 903.316 0.188555 1.73177 0
M  V30 9661 C 900.448 0.480608 3.37495 0
M  V30 9662 H 901.641 1.93075 2.29482 0
M  V30 9663 H 899.194 1.03467 1.17151 0
M  V30 9664 H 899.929 -0.473552 3.20824 0
M  V30 9665 H 899.714 1.22393 3.72508 0
M  V30 9666 H 901.204 0.33561 4.16249 0
M  V30 9667 N 901.641 -1.19671 1.02551 0
M  V30 9668 C 902.887 -1.89548 0.721069 0
M  V30 9669 C 903.22 -1.79209 -0.748176 0
M  V30 9670 O 902.495 -1.1822 -1.54448 0
M  V30 9671 C 902.778 -3.4061 1.16861 0
M  V30 9672 C 902.631 -3.59838 2.69883 0
M  V30 9673 C 903.95 -4.33718 0.746782 0
M  V30 9674 H 901.069 -0.688315 0.263422 0
M  V30 9675 H 903.711 -1.40883 1.27483 0
M  V30 9676 H 901.861 -3.82188 0.697477 0
M  V30 9677 H 903.533 -3.27454 3.24917 0
M  V30 9678 H 901.776 -3.03005 3.10435 0
M  V30 9679 H 902.447 -4.65766 2.96253 0
M  V30 9680 H 904.923 -3.99837 1.15195 0
M  V30 9681 H 903.799 -5.38012 1.08786 0
M  V30 9682 H 904.06 -4.40704 -0.351057 0
M  V30 9683 N 903.119 -0.802921 -1.35613 0
M  V30 9684 C 904.082 -0.216422 -2.28176 0
M  V30 9685 C 905.082 0.594101 -1.49422 0
M  V30 9686 O 906.272 0.41312 -1.6923 0
M  V30 9687 C 903.404 0.698746 -3.33662 0
M  V30 9688 H 904.597 -1.03276 -2.81557 0
M  V30 9689 H 902.15 -0.573307 -1.45406 0
M  V30 9690 H 902.885 1.53891 -2.85461 0
M  V30 9691 H 902.67 0.119314 -3.91918 0
M  V30 9692 H 904.16 1.10354 -4.02755 0
M  V30 9693 N 904.597 1.47463 -0.556102 0
M  V30 9694 C 905.507 2.33785 0.195378 0
M  V30 9695 C 906.523 1.48123 0.913 0
M  V30 9696 O 907.699 1.81053 0.882141 0
M  V30 9697 C 904.764 3.24795 1.21282 0
M  V30 9698 C 903.825 4.26346 0.502747 0
M  V30 9699 C 903.058 5.13007 1.47172 0
M  V30 9700 O 903.281 5.02103 2.70646 0
M  V30 9701 O 902.215 5.93588 0.996814 0
M  V30 9702 H 906.041 2.99341 -0.512676 0
M  V30 9703 H 903.626 1.46004 -0.31673 0
M  V30 9704 H 905.508 3.81015 1.80016 0
M  V30 9705 H 904.183 2.61868 1.90282 0
M  V30 9706 H 903.09 3.73889 -0.125757 0
M  V30 9707 H 904.423 4.91984 -0.145779 0
M  V30 9708 N 906.075 0.2925 1.54862 0
M  V30 9709 C 907.324 -0.319994 1.99146 0
M  V30 9710 C 907.637 -1.55658 1.18448 0
M  V30 9711 O 908.843 -2.24312 1.52959 0
M  V30 9712 C 907.299 -0.620665 3.54508 0
M  V30 9713 C 906.907 0.597098 4.44003 0
M  V30 9714 C 908.651 -1.19482 4.07338 0
M  V30 9715 C 906.558 0.270049 5.90783 0
M  V30 9716 H 905.488 -0.123342 0.743843 0
M  V30 9717 H 908.139 0.399876 1.7909 0
M  V30 9718 H 906.521 -1.3999 3.7043 0
M  V30 9719 H 907.695 1.37354 4.39853 0
M  V30 9720 H 906.01 1.0893 4.019 0
M  V30 9721 H 908.607 -1.45362 5.14562 0
M  V30 9722 H 908.95 -2.13435 3.57423 0
M  V30 9723 H 909.483 -0.477485 3.94924 0
M  V30 9724 H 906.222 1.17791 6.4483 0
M  V30 9725 H 905.742 -0.469292 5.97961 0
M  V30 9726 H 907.421 -0.131471 6.46866 0
M  V30 9727 N 907.553 -1.57587 0.0200696 0
M  V30 9728 C 908.778 -1.96124 -0.674547 0
M  V30 9729 C 909.203 -0.896068 -1.65385 0
M  V30 9730 O 908.561 0.143925 -1.80728 0
M  V30 9731 C 908.609 -3.3376 -1.36517 0
M  V30 9732 O 907.713 -3.29483 -2.48022 0
M  V30 9733 H 907.054 -0.639719 -0.177919 0
M  V30 9734 H 909.584 -2.04447 0.0792317 0
M  V30 9735 H 909.594 -3.69785 -1.72403 0
M  V30 9736 H 908.269 -4.10832 -0.647265 0
M  V30 9737 H 906.846 -3.05162 -2.14314 0
M  V30 9738 N 909.032 0.252966 -1.55557 0
M  V30 9739 C 909.942 1.33472 -1.92931 0
M  V30 9740 C 910.958 1.52983 -0.828985 0
M  V30 9741 O 912.134 1.66723 -1.12984 0
M  V30 9742 C 909.199 2.6704 -2.21112 0
M  V30 9743 C 908.26 2.56103 -3.44542 0
M  V30 9744 C 907.493 3.83302 -3.71369 0
M  V30 9745 O 907.716 4.84907 -3.00368 0
M  V30 9746 O 906.65 3.823 -4.64898 0
M  V30 9747 H 910.476 1.04768 -2.85057 0
M  V30 9748 H 908.061 0.453208 -1.4236 0
M  V30 9749 H 909.943 3.45981 -2.40572 0
M  V30 9750 H 908.618 2.95489 -1.32166 0
M  V30 9751 H 907.525 1.7547 -3.30396 0
M  V30 9752 H 908.858 2.32601 -4.33772 0
M  V30 9753 N 910.51 1.48831 0.518367 0
M  V30 9754 C 911.735 1.61379 1.30275 0
M  V30 9755 C 912.16 0.278571 1.86026 0
M  V30 9756 O 911.518 -0.751427 1.64995 0
M  V30 9757 C 911.566 2.67225 2.42122 0
M  V30 9758 O 910.67 2.25192 3.45489 0
M  V30 9759 H 910.011 0.540742 0.385349 0
M  V30 9760 H 912.541 1.949 0.622498 0
M  V30 9761 H 912.551 2.88859 2.8814 0
M  V30 9762 H 911.226 3.64155 2.00907 0
M  V30 9763 H 909.803 2.13819 3.05509 0
M  V30 9764 N 911.988 -0.768124 1.37614 0
M  V30 9765 C 913.265 -1.51637 1.23554 0
M  V30 9766 C 913.645 -2.1042 -0.169331 0
M  V30 9767 O 912.993 -1.95834 -1.17735 0
M  V30 9768 C 913.203 -2.59436 2.33439 0
M  V30 9769 C 914.551 -3.2674 2.71157 0
M  V30 9770 O 915.575 -2.69733 2.32642 0
M  V30 9771 O 914.434 -4.29814 3.37524 0
M  V30 9772 H 911.528 -0.671778 0.482332 0
M  V30 9773 H 914.074 -0.804779 1.49403 0
M  V30 9774 H 912.846 -2.14146 3.27502 0
M  V30 9775 H 912.469 -3.38192 2.09073 0
M  V30 9776 N 913.466 -1.22244 -0.994698 0
M  V30 9777 C 914.713 -1.04591 -1.73398 0
M  V30 9778 C 915.041 0.419223 -1.89928 0
M  V30 9779 O 914.296 1.32714 -1.43824 0
M  V30 9780 C 914.595 -1.70014 -3.14372 0
M  V30 9781 C 914.261 -3.19903 -3.17762 0
M  V30 9782 C 912.923 -3.60803 -3.18394 0
M  V30 9783 C 915.275 -4.15851 -3.14194 0
M  V30 9784 C 912.603 -4.96135 -3.13157 0
M  V30 9785 C 914.955 -5.51157 -3.10498 0
M  V30 9786 C 913.619 -5.91439 -3.09445 0
M  V30 9787 H 912.889 -0.382725 -0.63451 0
M  V30 9788 H 915.536 -1.51981 -1.16508 0
M  V30 9789 H 913.841 -1.14945 -3.7456 0
M  V30 9790 H 915.538 -1.53848 -3.70313 0
M  V30 9791 H 912.128 -2.87336 -3.18019 0
M  V30 9792 H 916.312 -3.85272 -3.12857 0
M  V30 9793 H 911.568 -5.26578 -3.10685 0
M  V30 9794 H 915.742 -6.2523 -3.06692 0
M  V30 9795 H 913.369 -6.96271 -3.05141 0
M  V30 9796 N 914.944 1.19125 -1.03184 0
M  V30 9797 C 915.876 2.21914 -0.573294 0
M  V30 9798 C 916.889 1.5894 0.352397 0
M  V30 9799 O 918.078 1.77883 0.148318 0
M  V30 9800 C 915.178 3.38403 0.18355 0
M  V30 9801 C 914.351 4.3096 -0.747817 0
M  V30 9802 C 913.41 5.26188 -0.0358489 0
M  V30 9803 O 912.436 5.65321 -0.663388 0
M  V30 9804 N 913.638 5.67235 1.23387 0
M  V30 9805 H 916.403 2.61881 -1.45734 0
M  V30 9806 H 913.964 1.33821 -0.911231 0
M  V30 9807 H 915.956 3.99124 0.669468 0
M  V30 9808 H 914.526 2.97201 0.969043 0
M  V30 9809 H 913.746 3.67976 -1.41377 0
M  V30 9810 H 915.034 4.89708 -1.38071 0
M  V30 9811 H 914.432 5.37481 1.76439 0
M  V30 9812 H 912.989 6.30196 1.66423 0
M  V30 9813 N 916.422 0.810101 1.35185 0
M  V30 9814 C 917.332 0.224565 2.33523 0
M  V30 9815 C 918.348 -0.634287 1.62027 0
M  V30 9816 O 919.524 -0.545211 1.9388 0
M  V30 9817 C 916.589 -0.614319 3.41214 0
M  V30 9818 C 915.65 0.265435 4.28479 0
M  V30 9819 C 914.883 -0.533506 5.31027 0
M  V30 9820 O 915.106 -1.7679 5.42311 0
M  V30 9821 O 914.04 0.0774573 6.0185 0
M  V30 9822 H 917.866 1.03815 2.85405 0
M  V30 9823 H 915.451 0.571964 1.38018 0
M  V30 9824 H 917.333 -1.09201 4.07005 0
M  V30 9825 H 916.008 -1.40545 2.91597 0
M  V30 9826 H 914.915 0.790343 3.65656 0
M  V30 9827 H 916.248 1.0206 4.81503 0
M  V30 9828 N 917.9 -1.47166 0.563914 0
M  V30 9829 C 919.146 -2.03337 0.0506932 0
M  V30 9830 C 919.501 -1.42976 -1.28746 0
M  V30 9831 O 918.794 -0.578508 -1.82658 0
M  V30 9832 C 918.988 -3.57279 -0.0931797 0
M  V30 9833 C 918.817 -4.32567 1.22948 0
M  V30 9834 C 917.587 -4.72206 1.79859 0
M  V30 9835 C 919.785 -4.67282 2.14829 0
M  V30 9836 N 917.767 -5.32166 3.0606 0
M  V30 9837 C 919.138 -5.27615 3.25611 0
M  V30 9838 C 921.193 -4.49211 2.14741 0
M  V30 9839 C 919.896 -5.71784 4.36412 0
M  V30 9840 C 921.922 -4.94384 3.24559 0
M  V30 9841 C 921.284 -5.54771 4.34061 0
M  V30 9842 H 917.383 -0.779627 0.0608761 0
M  V30 9843 H 919.967 -1.79563 0.75268 0
M  V30 9844 H 918.138 -3.80806 -0.764301 0
M  V30 9845 H 919.87 -4.0009 -0.609075 0
M  V30 9846 H 916.625 -4.54372 1.33577 0
M  V30 9847 H 917.049 -5.66684 3.70404 0
M  V30 9848 H 921.691 -4.01875 1.31362 0
M  V30 9849 H 919.409 -6.18108 5.20546 0
M  V30 9850 H 922.995 -4.82167 3.25586 0
M  V30 9851 H 921.875 -5.89087 5.17635 0
M  V30 9852 N 919.378 -0.300708 -1.54705 0
M  V30 9853 C 920.794 0.0526874 -1.59513 0
M  V30 9854 C 920.994 1.52444 -1.31769 0
M  V30 9855 O 920.05 2.27716 -1.09096 0
M  V30 9856 C 921.363 -0.344989 -2.98714 0
M  V30 9857 C 922.911 -0.29373 -3.11619 0
M  V30 9858 C 923.386 -0.666225 -4.53129 0
M  V30 9859 N 924.877 -0.618749 -4.59049 0
M  V30 9860 C 925.612 -0.879447 -5.66616 0
M  V30 9861 N 925.108 -1.2061 -6.82221 0
M  V30 9862 N 926.901 -0.806528 -5.56284 0
M  V30 9863 H 919.052 -1.25988 -1.71 0
M  V30 9864 H 921.315 -0.510758 -0.798643 0
M  V30 9865 H 921.021 -1.36953 -3.2394 0
M  V30 9866 H 920.895 0.301507 -3.75993 0
M  V30 9867 H 923.282 0.72156 -2.86142 0
M  V30 9868 H 923.363 -0.974844 -2.36496 0
M  V30 9869 H 923.007 -1.67932 -4.79334 0
M  V30 9870 H 922.937 0.0369575 -5.26587 0
M  V30 9871 H 925.428 -0.377202 -3.76013 0
M  V30 9872 H 925.741 -1.391 -7.60178 0
M  V30 9873 H 924.086 -1.24413 -6.83774 0
M  V30 9874 H 927.277 -0.550993 -4.64846 0
M  V30 9875 H 927.45 -1.01307 -6.40032 0
M  V30 9876 N 920.856 1.57574 -0.0284266 0
M  V30 9877 C 921.819 2.09096 0.938691 0
M  V30 9878 C 922.819 1.00588 1.25454 0
M  V30 9879 O 924.009 1.2675 1.19499 0
M  V30 9880 C 921.141 2.55624 2.25542 0
M  V30 9881 H 922.334 2.95829 0.49248 0
M  V30 9882 H 919.887 1.5475 0.219594 0
M  V30 9883 H 920.622 1.72218 2.74793 0
M  V30 9884 H 920.407 3.34896 2.03929 0
M  V30 9885 H 921.897 2.95712 2.94863 0
M  V30 9886 N 922.334 -0.244713 1.55689 0
M  V30 9887 C 923.58 -0.973886 1.77886 0
M  V30 9888 C 923.913 -1.8489 0.594071 0
M  V30 9889 O 923.188 -1.90182 -0.407564 0
M  V30 9890 C 923.471 -1.83255 3.09983 0
M  V30 9891 C 923.324 -0.985571 4.3887 0
M  V30 9892 C 924.643 -2.81464 3.38329 0
M  V30 9893 H 921.762 -0.352629 0.647165 0
M  V30 9894 H 924.404 -0.244243 1.88424 0
M  V30 9895 H 922.554 -2.45464 3.01131 0
M  V30 9896 H 924.226 -0.382005 4.59716 0
M  V30 9897 H 922.469 -0.29002 4.32829 0
M  V30 9898 H 923.14 -1.62022 5.27686 0
M  V30 9899 H 925.616 -2.2939 3.47159 0
M  V30 9900 H 924.492 -3.38663 4.31971 0
M  V30 9901 H 924.753 -3.58037 2.59349 0
M  V30 9902 N 923.813 -1.49104 -0.510467 0
M  V30 9903 C 925.043 -1.61571 -1.28757 0
M  V30 9904 C 925.451 -0.282638 -1.87077 0
M  V30 9905 O 924.794 0.740749 -1.68103 0
M  V30 9906 C 924.856 -2.61851 -2.46322 0
M  V30 9907 C 924.52 -4.06438 -2.08942 0
M  V30 9908 C 925.517 -4.93532 -1.63469 0
M  V30 9909 C 923.202 -4.52109 -2.18867 0
M  V30 9910 C 925.196 -6.24331 -1.28411 0
M  V30 9911 C 922.883 -5.82924 -1.83421 0
M  V30 9912 C 923.881 -6.68858 -1.38267 0
M  V30 9913 O 923.569 -7.97236 -1.03296 0
M  V30 9914 H 923.301 -0.547082 -0.397086 0
M  V30 9915 H 925.855 -1.95806 -0.620424 0
M  V30 9916 H 924.085 -2.22777 -3.16081 0
M  V30 9917 H 925.774 -2.63947 -3.08362 0
M  V30 9918 H 926.54 -4.59479 -1.55255 0
M  V30 9919 H 922.419 -3.85395 -2.52966 0
M  V30 9920 H 925.963 -6.9136 -0.930946 0
M  V30 9921 H 921.86 -6.16507 -1.91282 0
M  V30 9922 H 922.628 -8.10163 -1.16525 0
M  V30 9923 N 925.291 0.760815 -1.38019 0
M  V30 9924 C 926.223 1.88387 -1.30549 0
M  V30 9925 C 927.236 1.61319 -0.219119 0
M  V30 9926 O 928.425 1.72033 -0.476122 0
M  V30 9927 C 925.525 3.23863 -0.998291 0
M  V30 9928 C 924.698 3.78492 -2.19232 0
M  V30 9929 C 923.757 4.92468 -1.85368 0
M  V30 9930 O 922.783 5.0748 -2.57785 0
M  V30 9931 N 923.985 5.74901 -0.804319 0
M  V30 9932 H 926.75 1.95308 -2.27322 0
M  V30 9933 H 924.311 0.940423 -1.31786 0
M  V30 9934 H 926.303 3.97644 -0.7524 0
M  V30 9935 H 924.873 3.12374 -0.11877 0
M  V30 9936 H 924.093 2.96361 -2.5993 0
M  V30 9937 H 925.381 4.11722 -2.98935 0
M  V30 9938 H 924.779 5.65333 -0.203628 0
M  V30 9939 H 923.336 6.48861 -0.618301 0
M  V30 9940 N 926.769 1.22769 0.988202 0
M  V30 9941 C 928.185 0.988665 1.2529 0
M  V30 9942 C 928.385 -0.314938 1.99024 0
M  V30 9943 O 927.441 -1.03637 2.30251 0
M  V30 9944 C 928.754 2.19046 2.06009 0
M  V30 9945 C 930.302 2.23452 2.19176 0
M  V30 9946 C 930.777 3.43196 3.03283 0
M  V30 9947 N 932.268 3.43387 3.10869 0
M  V30 9948 C 933.003 4.32693 3.7625 0
M  V30 9949 N 932.499 5.32224 4.43519 0
M  V30 9950 N 934.292 4.20457 3.73058 0
M  V30 9951 H 926.443 2.06575 0.494014 0
M  V30 9952 H 928.706 0.905452 0.28082 0
M  V30 9953 H 928.412 3.13607 1.59197 0
M  V30 9954 H 928.286 2.19492 3.06763 0
M  V30 9955 H 930.673 1.29436 2.65199 0
M  V30 9956 H 930.754 2.27042 1.17836 0
M  V30 9957 H 930.398 4.37515 2.57959 0
M  V30 9958 H 930.328 3.36847 4.04774 0
M  V30 9959 H 932.819 2.71368 2.62998 0
M  V30 9960 H 933.132 5.9664 4.91163 0
M  V30 9961 H 931.477 5.36133 4.42252 0
M  V30 9962 H 934.668 3.41949 3.19669 0
M  V30 9963 H 934.841 4.90261 4.23731 0
M  V30 9964 N 928.247 -1.18576 1.03814 0
M  V30 9965 C 929.21 -2.2033 0.63146 0
M  V30 9966 C 930.21 -1.57787 -0.309816 0
M  V30 9967 O 931.4 -1.73938 -0.0955598 0
M  V30 9968 C 928.532 -3.40818 -0.0745963 0
M  V30 9969 H 929.725 -2.57824 1.53189 0
M  V30 9970 H 927.278 -1.32416 0.830398 0
M  V30 9971 H 928.013 -3.08853 -0.988947 0
M  V30 9972 H 927.798 -3.87453 0.6019 0
M  V30 9973 H 929.288 -4.16166 -0.345727 0
M  V30 9974 N 929.725 -0.817259 -1.34754 0
M  V30 9975 C 930.95 -0.414423 -2.03217 0
M  V30 9976 C 931.375 0.970037 -1.61158 0
M  V30 9977 O 930.733 1.63016 -0.793436 0
M  V30 9978 C 930.781 -0.518087 -3.56859 0
M  V30 9979 O 929.885 0.464314 -4.09778 0
M  V30 9980 H 929.226 -0.171454 -0.641482 0
M  V30 9981 H 931.756 -1.10611 -1.72123 0
M  V30 9982 H 931.766 -0.391779 -4.06115 0
M  V30 9983 H 930.441 -1.52786 -3.86819 0
M  V30 9984 H 929.018 0.297361 -3.71712 0
M  V30 9985 N 931.203 1.46865 -0.571711 0
M  V30 9986 C 932.431 2.06818 -0.0583975 0
M  V30 9987 C 932.846 1.42218 1.24175 0
M  V30 9988 O 932.203 0.523655 1.74826 0
M  V30 9989 C 932.254 3.61281 0.125673 0
M  V30 9990 O 931.975 4.23462 -1.123 0
M  V30 9991 C 933.476 4.38137 0.674604 0
M  V30 9992 H 930.696 0.668948 -0.052438 0
M  V30 9993 H 933.24 1.88656 -0.789251 0
M  V30 9994 H 931.395 3.78908 0.806707 0
M  V30 9995 H 931.809 5.16192 -0.929869 0
M  V30 9996 H 933.283 5.46845 0.752626 0
M  V30 9997 H 933.76 4.05419 1.68915 0
M  V30 9998 H 934.366 4.2529 0.0287979 0
M  V30 9999 N 932.681 0.308908 1.54543 0
M  V30 10000 C 933.906 -0.303196 2.05172 0
M  V30 10001 C 934.331 -1.46133 1.18434 0
M  V30 10002 O 933.689 -1.803 0.190162 0
M  V30 10003 C 933.737 -0.729526 3.53143 0
M  V30 10004 O 932.841 -1.83348 3.69401 0
M  V30 10005 H 932.182 -0.0575066 0.661505 0
M  V30 10006 H 934.712 0.453055 1.99521 0
M  V30 10007 H 934.722 -1.01619 3.95143 0
M  V30 10008 H 933.397 0.117622 4.15734 0
M  V30 10009 H 931.974 -1.54676 3.39308 0
M  V30 10010 N 934.159 -1.57557 0.0367827 0
M  V30 10011 C 935.405 -1.92399 -0.641133 0
M  V30 10012 C 935.738 -0.914191 -1.71336 0
M  V30 10013 O 935.013 0.0619616 -1.94401 0
M  V30 10014 C 935.296 -3.37689 -1.25052 0
M  V30 10015 C 935.149 -4.4941 -0.187326 0
M  V30 10016 C 936.468 -3.8309 -2.16634 0
M  V30 10017 H 933.587 -0.699666 -0.231597 0
M  V30 10018 H 936.229 -1.89759 0.0956083 0
M  V30 10019 H 934.379 -3.40069 -1.87843 0
M  V30 10020 H 936.051 -4.59161 0.443736 0
M  V30 10021 H 934.294 -4.31065 0.486313 0
M  V30 10022 H 934.965 -5.48119 -0.653459 0
M  V30 10023 H 937.441 -3.82494 -1.63821 0
M  V30 10024 H 936.317 -4.85429 -2.56222 0
M  V30 10025 H 936.578 -3.19028 -3.06062 0
M  V30 10026 N 935.637 0.236453 -1.55816 0
M  V30 10027 C 936.569 1.31602 -1.87653 0
M  V30 10028 C 937.582 1.43782 -0.763584 0
M  V30 10029 O 938.771 1.44945 -1.04178 0
M  V30 10030 C 935.871 2.69342 -2.05689 0
M  V30 10031 C 935.044 2.79298 -3.36617 0
M  V30 10032 C 934.103 3.97952 -3.44268 0
M  V30 10033 O 933.129 3.86989 -4.17406 0
M  V30 10034 N 934.331 5.11594 -2.74321 0
M  V30 10035 H 937.096 1.04623 -2.80845 0
M  V30 10036 H 934.657 0.426534 -1.5618 0
M  V30 10037 H 936.649 3.47074 -2.08138 0
M  V30 10038 H 935.219 2.88984 -1.19192 0
M  V30 10039 H 934.439 1.8816 -3.46395 0
M  V30 10040 H 935.727 2.82908 -4.22895 0
M  V30 10041 H 935.125 5.23394 -2.14651 0
M  V30 10042 H 933.682 5.87422 -2.8245 0
M  V30 10043 N 937.115 1.49373 0.502552 0
M  V30 10044 C 938.063 1.66411 1.62512 0
M  V30 10045 C 939.057 0.530062 1.60893 0
M  V30 10046 O 940.263 0.709648 1.65421 0
M  V30 10047 H 936.638 0.524707 0.538689 0
M  V30 10048 H 938.609 2.60639 1.45293 0
M  V30 10049 C 937.358 1.74648 3.00655 0
M  V30 10050 H 936.681 2.61285 3.02606 0
M  V30 10051 H 938.121 1.90605 3.78742 0
M  V30 10052 C 936.58 0.490963 3.33303 0
M  V30 10053 O 937.11 -0.384039 3.9986 0
M  V30 10054 N 935.316 0.354375 2.88431 0
M  V30 10055 H 934.863 1.06742 2.34444 0
M  V30 10056 H 934.821 -0.484593 3.10643 0
M  V30 10057 N 938.594 -0.753485 1.38421 0
M  V30 10058 C 940.01 -1.05656 1.1962 0
M  V30 10059 C 940.21 -2.0145 0.0449443 0
M  V30 10060 O 939.266 -2.45039 -0.609253 0
M  V30 10061 C 940.579 -1.63655 2.52265 0
M  V30 10062 C 942.127 -1.75825 2.58949 0
M  V30 10063 C 942.602 -2.37236 3.91769 0
M  V30 10064 N 944.093 -2.44666 3.9331 0
M  V30 10065 C 944.828 -2.93077 4.92842 0
M  V30 10066 N 944.324 -3.41523 6.02772 0
M  V30 10067 N 946.117 -2.92118 4.80232 0
M  V30 10068 H 938.268 -0.117799 2.12073 0
M  V30 10069 H 940.531 -0.114889 0.941012 0
M  V30 10070 H 940.237 -1.00734 3.36965 0
M  V30 10071 H 940.111 -2.62715 2.70667 0
M  V30 10072 H 942.498 -2.37873 1.74644 0
M  V30 10073 H 942.579 -0.754693 2.44414 0
M  V30 10074 H 942.223 -1.75822 4.76497 0
M  V30 10075 H 942.153 -3.38233 4.03616 0
M  V30 10076 H 944.644 -2.10403 3.1391 0
M  V30 10077 H 944.957 -3.76919 6.74649 0
M  V30 10078 H 943.302 -3.3958 6.06391 0
M  V30 10079 H 946.493 -2.53582 3.93464 0
M  V30 10080 H 946.666 -3.29535 5.57952 0
M  V30 10081 N 940.072 -1.23292 -0.981677 0
M  V30 10082 C 941.002 -1.03738 -2.09191 0
M  V30 10083 C 941.983 0.0453041 -1.7004 0
M  V30 10084 O 943.168 -0.119092 -1.93834 0
M  V30 10085 C 940.298 -0.626426 -3.41604 0
M  V30 10086 C 939.252 -1.65631 -3.94652 0
M  V30 10087 C 938.578 -1.10084 -5.23245 0
M  V30 10088 C 939.878 -3.04903 -4.24066 0
M  V30 10089 H 941.572 -1.966 -2.25807 0
M  V30 10090 H 939.118 -0.946656 -1.0851 0
M  V30 10091 H 941.071 -0.476689 -4.18695 0
M  V30 10092 H 939.795 0.337873 -3.24848 0
M  V30 10093 H 938.454 -1.79402 -3.19704 0
M  V30 10094 H 938.102 -0.127562 -5.02838 0
M  V30 10095 H 937.802 -1.78896 -5.59705 0
M  V30 10096 H 939.326 -0.962928 -6.02959 0
M  V30 10097 H 940.74 -2.94441 -4.91912 0
M  V30 10098 H 939.137 -3.70941 -4.71724 0
M  V30 10099 H 940.207 -3.53991 -3.31389 0
M  V30 10100 N 941.55 1.18024 -1.04442 0
M  V30 10101 C 942.48 2.23988 -0.659683 0
M  V30 10102 C 943.461 1.6669 0.338904 0
M  V30 10103 O 944.646 1.92971 0.21817 0
M  V30 10104 C 941.776 3.4729 -0.0257672 0
M  V30 10105 C 940.73 4.17362 -0.948299 0
M  V30 10106 C 940.056 5.34401 -0.17866 0
M  V30 10107 C 941.356 4.70435 -2.26909 0
M  V30 10108 H 943.05 2.56425 -1.54553 0
M  V30 10109 H 940.596 1.23256 -0.744575 0
M  V30 10110 H 942.549 4.20627 0.255131 0
M  V30 10111 H 941.273 3.14098 0.894981 0
M  V30 10112 H 939.932 3.45928 -1.21364 0
M  V30 10113 H 939.58 4.97458 0.744614 0
M  V30 10114 H 939.28 5.8222 -0.793294 0
M  V30 10115 H 940.804 6.10526 0.0951315 0
M  V30 10116 H 942.218 5.35447 -2.04864 0
M  V30 10117 H 940.615 5.28803 -2.83703 0
M  V30 10118 H 941.685 3.87653 -2.91296 0
M  V30 10119 N 943.028 0.824394 1.34319 0
M  V30 10120 C 943.975 0.245282 2.29493 0
M  V30 10121 C 944.945 -0.630762 1.53657 0
M  V30 10122 O 946.13 -0.572094 1.82021 0
M  V30 10123 C 943.27 -0.585631 3.40095 0
M  V30 10124 C 942.383 0.312821 4.30866 0
M  V30 10125 C 941.518 -0.527801 5.28571 0
M  V30 10126 C 940.557 0.369946 6.10981 0
M  V30 10127 N 939.694 -0.43169 7.00772 0
M  V30 10128 H 944.534 1.06225 2.78425 0
M  V30 10129 H 942.071 0.53533 1.37013 0
M  V30 10130 H 944.029 -1.08271 4.02906 0
M  V30 10131 H 942.659 -1.3677 2.92393 0
M  V30 10132 H 941.711 0.928129 3.68904 0
M  V30 10133 H 943.023 1.00306 4.8861 0
M  V30 10134 H 942.177 -1.0893 5.96841 0
M  V30 10135 H 940.916 -1.25154 4.71368 0
M  V30 10136 H 939.921 0.943577 5.41643 0
M  V30 10137 H 941.146 1.09182 6.70266 0
M  V30 10138 H 939.092 -1.13908 6.46035 0
M  V30 10139 H 939.009 0.200133 7.55735 0
M  V30 10140 H 940.277 -0.975894 7.73367 0
M  V30 10141 N 944.506 -1.46559 0.579492 0
M  V30 10142 C 945.436 -2.33059 -0.143437 0
M  V30 10143 C 946.417 -1.4515 -0.886868 0
M  V30 10144 O 947.602 -1.73973 -0.862961 0
M  V30 10145 C 944.732 -3.27364 -1.15973 0
M  V30 10146 C 943.686 -4.24689 -0.531348 0
M  V30 10147 C 943.012 -5.08479 -1.65388 0
M  V30 10148 C 944.312 -5.1961 0.529391 0
M  V30 10149 H 946.006 -2.93753 0.578762 0
M  V30 10150 H 943.552 -1.41256 0.279775 0
M  V30 10151 H 945.505 -3.86732 -1.67382 0
M  V30 10152 H 944.229 -2.64771 -1.91217 0
M  V30 10153 H 942.888 -3.6658 -0.0383749 0
M  V30 10154 H 942.536 -4.42273 -2.3959 0
M  V30 10155 H 942.236 -5.74387 -1.23909 0
M  V30 10156 H 943.76 -5.70709 -2.17079 0
M  V30 10157 H 945.174 -5.73212 0.100506 0
M  V30 10158 H 943.571 -5.93843 0.86432 0
M  V30 10159 H 944.641 -4.63737 1.4169 0
M  V30 10160 N 945.984 -0.3171 -1.54377 0
M  V30 10161 C 946.894 0.560867 -2.27797 0
M  V30 10162 C 947.91 1.13473 -1.31908 0
M  V30 10163 O 949.086 1.15608 -1.64914 0
M  V30 10164 C 946.151 1.70886 -3.0166 0
M  V30 10165 C 945.212 1.16745 -4.13121 0
M  V30 10166 C 944.445 2.26073 -4.83453 0
M  V30 10167 O 944.668 3.46292 -4.53252 0
M  V30 10168 O 943.602 1.91856 -5.70504 0
M  V30 10169 H 947.428 -0.035193 -3.0368 0
M  V30 10170 H 945.013 -0.0830062 -1.49169 0
M  V30 10171 H 946.895 2.37736 -3.47936 0
M  V30 10172 H 945.57 2.29122 -2.28658 0
M  V30 10173 H 944.477 0.464224 -3.71209 0
M  V30 10174 H 945.81 0.630307 -4.88147 0
M  V30 10175 N 947.462 1.57535 -0.0451378 0
M  V30 10176 C 948.372 2.14653 0.946646 0
M  V30 10177 C 949.388 1.10279 1.3459 0
M  V30 10178 O 950.564 1.42417 1.42405 0
M  V30 10179 C 947.629 2.67533 2.20515 0
M  V30 10180 C 946.69 3.86682 1.86481 0
M  V30 10181 C 945.923 4.37031 3.06332 0
M  V30 10182 O 946.146 3.86481 4.1951 0
M  V30 10183 O 945.08 5.28691 2.87697 0
M  V30 10184 H 948.906 2.99706 0.49091 0
M  V30 10185 H 946.491 1.48355 0.17641 0
M  V30 10186 H 948.373 3.01542 2.94365 0
M  V30 10187 H 947.048 1.85554 2.65238 0
M  V30 10188 H 945.955 3.57573 1.09966 0
M  V30 10189 H 947.288 4.69873 1.46562 0
M  V30 10190 N 948.94 -0.228186 1.55939 0
M  V30 10191 C 950.165 -0.974795 1.83064 0
M  V30 10192 C 950.59 -1.77426 0.624624 0
M  V30 10193 O 949.948 -1.76211 -0.426556 0
M  V30 10194 C 949.996 -1.87342 3.08116 0
M  V30 10195 O 949.1 -2.96784 2.86344 0
M  V30 10196 H 948.441 -0.276379 0.603747 0
M  V30 10197 H 950.971 -0.243507 2.03146 0
M  V30 10198 H 950.981 -2.28451 3.38045 0
M  V30 10199 H 949.656 -1.28575 3.95526 0
M  V30 10200 H 948.233 -2.59669 2.67631 0
M  V30 10201 N 950.418 -1.49637 -0.494624 0
M  V30 10202 C 951.648 -1.62928 -1.27036 0
M  V30 10203 C 952.056 -0.302464 -1.86767 0
M  V30 10204 O 951.399 0.722878 -1.68879 0
M  V30 10205 C 951.461 -2.64449 -2.43531 0
M  V30 10206 C 951.125 -4.08632 -2.0462 0
M  V30 10207 C 952.122 -4.95238 -1.58225 0
M  V30 10208 C 949.807 -4.54405 -2.1406 0
M  V30 10209 C 951.801 -6.25658 -1.21782 0
M  V30 10210 C 949.488 -5.84836 -1.77228 0
M  V30 10211 C 950.486 -6.70287 -1.31165 0
M  V30 10212 O 950.174 -7.98287 -0.948339 0
M  V30 10213 H 949.906 -0.551263 -0.391261 0
M  V30 10214 H 952.46 -1.96453 -0.599621 0
M  V30 10215 H 950.69 -2.26117 -3.137 0
M  V30 10216 H 952.379 -2.67203 -3.05545 0
M  V30 10217 H 953.145 -4.611 -1.50373 0
M  V30 10218 H 949.024 -3.88056 -2.48865 0
M  V30 10219 H 952.568 -6.92309 -0.857566 0
M  V30 10220 H 948.465 -6.18502 -1.84732 0
M  V30 10221 H 949.233 -8.11353 -1.07925 0
M  V30 10222 N 951.896 0.746133 -1.38819 0
M  V30 10223 C 952.806 1.89063 -1.38897 0
M  V30 10224 C 953.822 1.71648 -0.28513 0
M  V30 10225 O 954.998 1.94443 -0.524783 0
M  V30 10226 C 952.063 3.24523 -1.22007 0
M  V30 10227 C 951.124 3.54411 -2.42263 0
M  V30 10228 C 950.357 4.83408 -2.26169 0
M  V30 10229 O 950.58 5.56325 -1.25931 0
M  V30 10230 O 949.514 5.12943 -3.14918 0
M  V30 10231 H 953.34 1.91951 -2.35347 0
M  V30 10232 H 950.925 0.892433 -1.19816 0
M  V30 10233 H 952.807 4.05496 -1.14677 0
M  V30 10234 H 951.482 3.2243 -0.286455 0
M  V30 10235 H 950.389 2.73569 -2.55168 0
M  V30 10236 H 951.722 3.61273 -3.3428 0
M  V30 10237 N 953.375 1.23811 0.975125 0
M  V30 10238 C 954.305 1.04846 2.08638 0
M  V30 10239 C 955.286 -0.0362859 1.70061 0
M  V30 10240 O 956.471 0.12937 1.93769 0
M  V30 10241 C 953.601 0.644534 3.41267 0
M  V30 10242 C 952.555 1.67722 3.93768 0
M  V30 10243 C 951.881 1.12857 5.22654 0
M  V30 10244 C 953.181 3.07147 4.22443 0
M  V30 10245 H 954.875 1.97795 2.24761 0
M  V30 10246 H 952.421 0.952397 1.08006 0
M  V30 10247 H 954.374 0.498887 4.18436 0
M  V30 10248 H 953.098 -0.320641 3.25022 0
M  V30 10249 H 951.757 1.81095 3.18748 0
M  V30 10250 H 951.405 0.154227 5.02764 0
M  V30 10251 H 951.105 1.81862 5.58749 0
M  V30 10252 H 952.629 0.994891 6.0244 0
M  V30 10253 H 954.043 2.97045 4.90344 0
M  V30 10254 H 952.44 3.73437 4.6975 0
M  V30 10255 H 953.51 3.55743 3.29507 0
M  V30 10256 N 954.853 -1.17469 1.05066 0
M  V30 10257 C 956.102 -1.87032 0.755114 0
M  V30 10258 C 956.415 -1.81844 -0.720572 0
M  V30 10259 O 957.621 -2.46866 -1.13002 0
M  V30 10260 C 956.077 -3.35581 1.30052 0
M  V30 10261 C 955.685 -3.49274 2.80556 0
M  V30 10262 C 957.429 -4.1048 1.08196 0
M  V30 10263 C 955.336 -4.91838 3.28404 0
M  V30 10264 H 954.266 -0.70057 0.278779 0
M  V30 10265 H 956.917 -1.32663 1.26779 0
M  V30 10266 H 955.299 -3.89479 0.715667 0
M  V30 10267 H 956.473 -3.05598 3.44886 0
M  V30 10268 H 954.788 -2.87793 3.00939 0
M  V30 10269 H 957.385 -5.15652 1.41447 0
M  V30 10270 H 957.728 -4.16295 0.0196603 0
M  V30 10271 H 958.261 -3.62784 1.63195 0
M  V30 10272 H 955 -4.91196 4.34058 0
M  V30 10273 H 954.52 -5.36189 2.68815 0
M  V30 10274 H 956.199 -5.60602 3.23009 0
M  V30 10275 N 956.331 -0.831506 -1.3388 0
M  V30 10276 C 957.241 -0.261688 -2.33136 0
M  V30 10277 C 958.257 0.608429 -1.63016 0
M  V30 10278 O 959.433 0.514297 -1.94723 0
M  V30 10279 C 956.498 0.559957 -3.42148 0
M  V30 10280 C 955.559 -0.333569 -4.28002 0
M  V30 10281 C 954.792 0.448956 -5.31808 0
M  V30 10282 O 955.015 1.6814 -5.45055 0
M  V30 10283 O 953.949 -0.173197 -6.01651 0
M  V30 10284 H 957.775 -1.08343 -2.83717 0
M  V30 10285 H 955.36 -0.593849 -1.3709 0
M  V30 10286 H 957.242 1.02712 -4.08691 0
M  V30 10287 H 955.917 1.35888 -2.93796 0
M  V30 10288 H 954.824 -0.848416 -3.64352 0
M  V30 10289 H 956.157 -1.09707 -4.79818 0
M  V30 10290 N 957.809 1.4625 -0.587256 0
M  V30 10291 C 958.756 2.30354 0.143384 0
M  V30 10292 C 959.726 1.40891 0.879716 0
M  V30 10293 O 960.911 1.69837 0.869486 0
M  V30 10294 C 958.051 3.25441 1.14815 0
M  V30 10295 C 957.164 4.30004 0.414792 0
M  V30 10296 C 956.299 5.12214 1.40748 0
M  V30 10297 C 955.338 6.08523 0.660786 0
M  V30 10298 N 954.475 6.83585 1.60176 0
M  V30 10299 H 959.315 2.92304 -0.579866 0
M  V30 10300 H 956.852 1.44055 -0.29777 0
M  V30 10301 H 958.81 3.79018 1.7436 0
M  V30 10302 H 957.44 2.6529 1.83906 0
M  V30 10303 H 956.492 3.79248 -0.295787 0
M  V30 10304 H 957.804 4.98515 -0.168738 0
M  V30 10305 H 956.958 5.70091 2.0756 0
M  V30 10306 H 955.697 4.43675 2.02494 0
M  V30 10307 H 954.702 5.49796 -0.0210864 0
M  V30 10308 H 955.927 6.79083 0.0486551 0
M  V30 10309 H 953.873 6.17752 2.20724 0
M  V30 10310 H 953.79 7.48373 1.07115 0
M  V30 10311 H 955.058 7.46016 2.26009 0
M  V30 10312 N 959.287 0.325282 1.54207 0
M  V30 10313 C 960.235 -0.5554 2.25872 0
M  V30 10314 C 961.229 -1.11714 1.27344 0
M  V30 10315 O 962.435 -1.06498 1.45115 0
M  V30 10316 H 958.81 -0.19776 0.725531 0
M  V30 10317 H 960.781 0.0712858 2.98315 0
M  V30 10318 C 959.53 -1.70379 3.03095 0
M  V30 10319 H 958.853 -1.2808 3.78729 0
M  V30 10320 H 960.293 -2.29556 3.56483 0
M  V30 10321 C 958.752 -2.62242 2.11496 0
M  V30 10322 O 959.282 -3.64003 1.69895 0
M  V30 10323 N 957.488 -2.30515 1.7695 0
M  V30 10324 H 957.035 -1.47805 2.10978 0
M  V30 10325 H 956.993 -2.92241 1.15942 0
M  V30 10326 N 960.765 -1.57509 0.0534917 0
M  V30 10327 C 961.695 -2.14698 -0.917999 0
M  V30 10328 C 962.676 -1.06924 -1.32292 0
M  V30 10329 O 963.861 -1.34875 -1.39723 0
M  V30 10330 C 960.991 -2.69383 -2.19203 0
M  V30 10331 C 959.945 -3.82161 -1.9271 0
M  V30 10332 C 959.271 -4.23373 -3.26587 0
M  V30 10333 C 960.571 -5.07199 -1.24686 0
M  V30 10334 H 962.265 -2.96125 -0.44165 0
M  V30 10335 H 959.811 -1.42446 -0.210993 0
M  V30 10336 H 961.764 -3.08031 -2.87567 0
M  V30 10337 H 960.488 -1.85151 -2.69048 0
M  V30 10338 H 959.147 -3.43989 -1.26757 0
M  V30 10339 H 958.795 -3.36089 -3.74237 0
M  V30 10340 H 958.495 -4.99385 -3.09658 0
M  V30 10341 H 960.019 -4.64623 -3.96178 0
M  V30 10342 H 961.433 -5.43279 -1.83088 0
M  V30 10343 H 959.83 -5.88369 -1.18076 0
M  V30 10344 H 960.9 -4.84386 -0.223227 0
M  V30 10345 N 962.243 0.219913 -1.56058 0
M  V30 10346 C 963.175 1.29604 -1.89038 0
M  V30 10347 C 964.188 1.42964 -0.778791 0
M  V30 10348 O 965.377 1.43832 -1.0571 0
M  V30 10349 C 962.477 2.67145 -2.08534 0
M  V30 10350 C 961.65 2.75712 -3.39561 0
M  V30 10351 C 960.709 3.94279 -3.48469 0
M  V30 10352 O 959.735 3.8254 -4.21487 0
M  V30 10353 N 960.937 5.08655 -2.79732 0
M  V30 10354 H 963.702 1.01638 -2.81939 0
M  V30 10355 H 961.263 0.409945 -1.56624 0
M  V30 10356 H 963.255 3.44847 -2.11808 0
M  V30 10357 H 961.825 2.87704 -1.2225 0
M  V30 10358 H 961.045 1.84475 -3.48371 0
M  V30 10359 H 962.333 2.78407 -4.25872 0
M  V30 10360 H 961.731 5.21088 -2.2019 0
M  V30 10361 H 960.288 5.84394 -2.88665 0
M  V30 10362 N 963.721 1.49897 0.486681 0
M  V30 10363 C 964.651 1.7054 1.59494 0
M  V30 10364 C 965.632 0.554184 1.60819 0
M  V30 10365 O 966.817 0.791617 1.77333 0
M  V30 10366 C 963.947 1.78517 2.97908 0
M  V30 10367 C 962.901 2.93571 3.11449 0
M  V30 10368 C 962.227 2.86674 4.51356 0
M  V30 10369 C 963.527 4.34308 2.90127 0
M  V30 10370 H 965.221 2.63329 1.42472 0
M  V30 10371 H 962.767 1.2672 0.683969 0
M  V30 10372 H 964.72 1.91544 3.75352 0
M  V30 10373 H 963.444 0.823381 3.16051 0
M  V30 10374 H 962.103 2.80169 2.36433 0
M  V30 10375 H 961.751 1.88373 4.66395 0
M  V30 10376 H 961.451 3.63903 4.61355 0
M  V30 10377 H 962.975 3.01728 5.30841 0
M  V30 10378 H 964.389 4.48317 3.57331 0
M  V30 10379 H 962.786 5.12869 3.11585 0
M  V30 10380 H 963.856 4.47759 1.86119 0
M  V30 10381 N 965.199 -0.738761 1.39212 0
M  V30 10382 C 966.129 -1.86602 1.40364 0
M  V30 10383 C 967.11 -1.67984 0.267495 0
M  V30 10384 O 968.295 -1.88358 0.472765 0
M  V30 10385 C 965.425 -3.24308 1.24265 0
M  V30 10386 C 964.379 -3.57557 2.35239 0
M  V30 10387 C 963.705 -4.94159 2.04233 0
M  V30 10388 C 965.005 -3.60914 3.77543 0
M  V30 10389 H 966.699 -1.85896 2.34698 0
M  V30 10390 H 964.245 -0.892959 1.1297 0
M  V30 10391 H 966.198 -4.02838 1.23692 0
M  V30 10392 H 964.922 -3.25531 0.263974 0
M  V30 10393 H 963.581 -2.81354 2.35022 0
M  V30 10394 H 963.229 -4.91959 1.04813 0
M  V30 10395 H 962.929 -5.17373 2.78567 0
M  V30 10396 H 964.453 -5.7505 2.05303 0
M  V30 10397 H 965.867 -4.29528 3.79709 0
M  V30 10398 H 964.264 -3.95644 4.51205 0
M  V30 10399 H 965.334 -2.60803 4.08791 0
M  V30 10400 N 966.677 -1.24326 -0.968545 0
M  V30 10401 C 967.925 -1.08032 -1.70803 0
M  V30 10402 C 968.246 0.381728 -1.91227 0
M  V30 10403 O 967.516 1.27253 -1.48942 0
M  V30 10404 H 966.096 -0.396777 -0.632912 0
M  V30 10405 H 968.758 -1.56232 -1.16523 0
M  V30 10406 H 967.854 -1.57769 -2.69287 0
M  V30 10407 N 968.156 1.1691 -1.05688 0
M  V30 10408 C 969.119 2.19297 -0.666433 0
M  V30 10409 C 970.119 1.5826 0.284674 0
M  V30 10410 O 971.309 1.74068 0.0678757 0
M  V30 10411 C 968.441 3.40894 0.0203656 0
M  V30 10412 H 969.634 2.55354 -1.57272 0
M  V30 10413 H 967.187 1.31078 -0.851359 0
M  V30 10414 H 967.922 3.10388 0.939686 0
M  V30 10415 H 967.707 3.86446 -0.663464 0
M  V30 10416 H 969.197 4.16664 0.279475 0
M  V30 10417 N 969.634 0.838594 1.33437 0
M  V30 10418 C 970.862 0.447644 2.01999 0
M  V30 10419 C 971.277 -0.951053 1.63096 0
M  V30 10420 O 970.634 -1.61802 0.844169 0
M  V30 10421 C 970.685 0.558378 3.57162 0
M  V30 10422 O 970.406 1.90196 3.94661 0
M  V30 10423 C 971.907 0.164348 4.42995 0
M  V30 10424 H 969.127 0.177736 0.647032 0
M  V30 10425 H 971.671 1.13109 1.70372 0
M  V30 10426 H 969.826 -0.0771563 3.87323 0
M  V30 10427 H 970.24 1.88729 4.89369 0
M  V30 10428 H 971.714 0.292876 5.51222 0
M  V30 10429 H 972.191 -0.893713 4.30011 0
M  V30 10430 H 972.797 0.774306 4.18192 0
M  V30 10431 N 971.112 -1.45937 0.595003 0
M  V30 10432 C 972.075 -2.2888 -0.121102 0
M  V30 10433 C 973.075 -1.39075 -0.807149 0
M  V30 10434 O 974.265 -1.61326 -0.657228 0
M  V30 10435 C 971.397 -3.19778 -1.1813 0
M  V30 10436 H 972.59 -2.93673 0.607968 0
M  V30 10437 H 970.143 -1.5225 0.353495 0
M  V30 10438 H 970.878 -2.59759 -1.94154 0
M  V30 10439 H 970.663 -3.85914 -0.693724 0
M  V30 10440 H 972.153 -3.82176 -1.68319 0
M  V30 10441 N 972.59 -0.333456 -1.54032 0
M  V30 10442 C 973.839 0.267081 -1.99924 0
M  V30 10443 C 974.152 1.52463 -1.22534 0
M  V30 10444 O 975.358 2.20178 -1.58852 0
M  V30 10445 C 973.814 0.526456 -3.56029 0
M  V30 10446 C 973.422 -0.714607 -4.42264 0
M  V30 10447 C 975.166 1.0864 -4.10363 0
M  V30 10448 C 973.073 -0.42659 -5.89859 0
M  V30 10449 H 972.003 0.103577 -0.746852 0
M  V30 10450 H 974.654 -0.447218 -1.77967 0
M  V30 10451 H 973.036 1.3012 -3.74012 0
M  V30 10452 H 974.21 -1.48968 -4.36056 0
M  V30 10453 H 972.525 -1.19547 -3.9887 0
M  V30 10454 H 975.122 1.31668 -5.18235 0
M  V30 10455 H 975.465 2.03884 -3.62956 0
M  V30 10456 H 975.998 0.37261 -3.96051 0
M  V30 10457 H 972.737 -1.34847 -6.4148 0
M  V30 10458 H 972.257 0.310588 -5.98995 0
M  V30 10459 H 973.936 -0.0400807 -6.46988 0
M  V30 10460 N 974.068 1.57479 -0.061844 0
M  V30 10461 C 974.978 2.15645 0.923826 0
M  V30 10462 C 975.994 1.117 1.33413 0
M  V30 10463 O 977.17 1.4392 1.40887 0
M  V30 10464 C 974.235 2.69857 2.17665 0
M  V30 10465 C 973.296 3.88638 1.8237 0
M  V30 10466 C 972.529 4.40256 3.01679 0
M  V30 10467 O 972.752 3.90908 4.15388 0
M  V30 10468 O 971.686 5.31713 2.82073 0
M  V30 10469 H 975.512 3.0021 0.459094 0
M  V30 10470 H 973.097 1.48534 0.160665 0
M  V30 10471 H 974.979 3.04647 2.9115 0
M  V30 10472 H 973.654 1.88357 2.63255 0
M  V30 10473 H 972.561 3.58719 1.06167 0
M  V30 10474 H 973.894 4.71401 1.4157 0
M  V30 10475 N 975.546 -0.211634 1.56173 0
M  V30 10476 C 976.823 -0.959467 1.70451 0
M  V30 10477 C 977.203 -2.02036 0.611942 0
M  V30 10478 O 976.551 -2.25325 -0.37959 0
M  V30 10479 C 976.761 -1.56092 3.12148 0
M  V30 10480 C 978.109 -2.04939 3.71867 0
M  V30 10481 O 979.133 -1.65966 3.15172 0
M  V30 10482 O 977.992 -2.766 4.71333 0
M  V30 10483 H 975.086 -0.448844 0.6946 0
M  V30 10484 H 977.632 -0.202633 1.68486 0
M  V30 10485 H 976.404 -0.79538 3.83131 0
M  V30 10486 H 976.027 -2.38303 3.18273 0
M  V30 10487 N 977.024 -1.50153 -0.478725 0
M  V30 10488 C 977.971 -1.68458 -1.57767 0
M  V30 10489 C 978.941 -0.5259 -1.57555 0
M  V30 10490 O 980.126 -0.755574 -1.75202 0
M  V30 10491 C 977.266 -1.77772 -2.95789 0
M  V30 10492 C 976.379 -3.05092 -3.05848 0
M  V30 10493 C 975.514 -3.05247 -4.34739 0
M  V30 10494 C 974.553 -4.27053 -4.38512 0
M  V30 10495 N 973.69 -4.24991 -5.58862 0
M  V30 10496 H 978.53 -2.62282 -1.41464 0
M  V30 10497 H 976.067 -1.30023 -0.687921 0
M  V30 10498 H 978.025 -1.81152 -3.75819 0
M  V30 10499 H 976.655 -0.873944 -3.10744 0
M  V30 10500 H 975.707 -3.11219 -2.1874 0
M  V30 10501 H 977.019 -3.95075 -3.04495 0
M  V30 10502 H 976.173 -3.07314 -5.23109 0
M  V30 10503 H 974.912 -2.13081 -4.38689 0
M  V30 10504 H 973.917 -4.25206 -3.4854 0
M  V30 10505 H 975.142 -5.20437 -4.36259 0
M  V30 10506 H 973.088 -3.35674 -5.63612 0
M  V30 10507 H 973.005 -5.08734 -5.59219 0
M  V30 10508 H 974.273 -4.31193 -6.49379 0
M  V30 10509 N 978.502 0.731368 -1.39602 0
M  V30 10510 C 979.432 1.85855 -1.41351 0
M  V30 10511 C 980.413 1.67839 -0.2764 0
M  V30 10512 O 981.598 1.88104 -0.482747 0
M  V30 10513 C 978.728 3.23644 -1.25983 0
M  V30 10514 C 977.682 3.56304 -2.37132 0
M  V30 10515 C 977.008 4.93069 -2.0685 0
M  V30 10516 C 978.308 3.58906 -3.79452 0
M  V30 10517 H 980.002 1.84648 -2.3568 0
M  V30 10518 H 977.548 0.886955 -1.13442 0
M  V30 10519 H 979.501 4.02176 -1.25826 0
M  V30 10520 H 978.225 3.25387 -0.281234 0
M  V30 10521 H 976.884 2.80104 -2.36511 0
M  V30 10522 H 976.532 4.91396 -1.0742 0
M  V30 10523 H 976.232 5.15888 -2.81306 0
M  V30 10524 H 977.756 5.73953 -2.0835 0
M  V30 10525 H 979.17 4.27508 -3.81982 0
M  V30 10526 H 977.567 3.93246 -4.53297 0
M  V30 10527 H 978.637 2.58631 -4.10168 0
M  V30 10528 N 979.98 1.24838 0.961938 0
M  V30 10529 C 980.912 1.00369 2.06055 0
M  V30 10530 C 981.925 -0.0288583 1.62774 0
M  V30 10531 O 983.114 0.208853 1.77274 0
M  V30 10532 C 980.214 0.493953 3.35281 0
M  V30 10533 C 979.387 1.59097 4.07439 0
M  V30 10534 C 978.446 1.08288 5.14937 0
M  V30 10535 O 977.472 1.77577 5.40791 0
M  V30 10536 N 978.674 -0.0796836 5.80445 0
M  V30 10537 H 981.439 1.94962 2.27618 0
M  V30 10538 H 979 1.15945 1.12997 0
M  V30 10539 H 980.992 0.138675 4.04462 0
M  V30 10540 H 979.562 -0.357851 3.10545 0
M  V30 10541 H 978.782 2.11817 3.32456 0
M  V30 10542 H 980.07 2.32817 4.52409 0
M  V30 10543 H 979.468 -0.658827 5.6185 0
M  V30 10544 H 978.025 -0.376057 6.50714 0
M  V30 10545 N 981.458 -1.16348 1.06306 0
M  V30 10546 C 982.735 -1.829 0.69331 0
M  V30 10547 C 983.115 -1.94298 -0.82531 0
M  V30 10548 O 982.463 -1.48619 -1.73565 0
M  V30 10549 C 982.673 -3.1989 1.3954 0
M  V30 10550 C 984.021 -3.95662 1.54068 0
M  V30 10551 O 985.045 -3.29408 1.35532 0
M  V30 10552 O 983.904 -5.14422 1.84479 0
M  V30 10553 H 980.998 -0.789738 0.245445 0
M  V30 10554 H 983.544 -1.23549 1.16334 0
M  V30 10555 H 982.316 -3.06629 2.43093 0
M  V30 10556 H 981.939 -3.86918 0.915453 0
M  V30 10557 N 982.937 -0.845659 -1.3299 0
M  V30 10558 C 983.869 -0.241097 -2.27928 0
M  V30 10559 C 984.882 0.582048 -1.5204 0
M  V30 10560 O 986.071 0.408008 -1.73774 0
M  V30 10561 C 983.171 0.678652 -3.32035 0
M  V30 10562 C 982.344 -0.106652 -4.3727 0
M  V30 10563 C 981.403 0.737478 -5.21006 0
M  V30 10564 O 980.429 0.174231 -5.68933 0
M  V30 10565 N 981.631 2.05372 -5.42957 0
M  V30 10566 H 984.396 -1.05685 -2.80448 0
M  V30 10567 H 981.957 -0.704771 -1.45755 0
M  V30 10568 H 983.949 1.24849 -3.84961 0
M  V30 10569 H 982.519 1.3951 -2.79742 0
M  V30 10570 H 981.739 -0.857897 -3.84752 0
M  V30 10571 H 983.027 -0.646386 -5.04677 0
M  V30 10572 H 982.425 2.53478 -5.05733 0
M  V30 10573 H 980.982 2.5719 -5.98913 0
M  V30 10574 N 984.415 1.45619 -0.602734 0
M  V30 10575 C 985.661 2.02572 -0.0961759 0
M  V30 10576 C 985.994 1.47076 1.26815 0
M  V30 10577 O 985.269 0.643566 1.83544 0
M  V30 10578 C 985.552 3.60062 -0.0520032 0
M  V30 10579 C 985.405 4.25901 -1.44665 0
M  V30 10580 C 986.724 4.35446 0.638342 0
M  V30 10581 H 983.843 0.736099 -0.0364238 0
M  V30 10582 H 986.485 1.7353 -0.773776 0
M  V30 10583 H 984.635 3.84936 0.525032 0
M  V30 10584 H 986.307 4.12228 -2.0704 0
M  V30 10585 H 984.55 3.84489 -2.00874 0
M  V30 10586 H 985.221 5.34779 -1.36803 0
M  V30 10587 H 987.697 4.15837 0.147926 0
M  V30 10588 H 986.573 5.45176 0.63834 0
M  V30 10589 H 986.834 4.07962 1.70351 0
M  V30 10590 N 985.893 0.34162 1.53853 0
M  V30 10591 C 987.304 -0.14269 1.86154 0
M  V30 10592 C 987.655 -1.50151 1.2629 0
M  V30 10593 O 986.78 -2.08601 0.575735 0
M  V30 10594 C 987.375 -0.265691 3.37757 0
M  V30 10595 C 985.934 -0.694231 3.69942 0
M  V30 10596 C 985.081 0.173195 2.76759 0
M  V30 10597 H 988.032 0.561284 1.48443 0
M  V30 10598 H 988.053 -1.09352 3.64448 0
M  V30 10599 H 987.565 0.723424 3.81298 0
M  V30 10600 H 985.666 -1.69244 3.31945 0
M  V30 10601 H 985.779 -0.485461 4.76634 0
M  V30 10602 H 984.143 -0.35416 2.52226 0
M  V30 10603 H 984.926 1.15941 3.23129 0
M  V30 10604 N 987.371 -1.57444 0.0701946 0
M  V30 10605 C 988.281 -2.16132 -0.912377 0
M  V30 10606 C 989.297 -1.12406 -1.32819 0
M  V30 10607 O 990.473 -1.44665 -1.40121 0
M  V30 10608 C 987.538 -2.71008 -2.16231 0
M  V30 10609 C 986.599 -3.896 -1.80306 0
M  V30 10610 C 985.832 -4.4185 -2.9934 0
M  V30 10611 O 986.055 -3.93106 -4.13309 0
M  V30 10612 O 984.989 -5.33201 -2.7925 0
M  V30 10613 H 988.815 -3.00449 -0.443167 0
M  V30 10614 H 986.4 -1.48617 -0.152786 0
M  V30 10615 H 988.282 -3.06186 -2.8953 0
M  V30 10616 H 986.957 -1.8975 -2.62253 0
M  V30 10617 H 985.864 -3.59277 -1.04264 0
M  V30 10618 H 987.197 -4.72145 -1.39068 0
M  V30 10619 N 988.849 0.203349 -1.56283 0
M  V30 10620 C 990.077 0.941426 -1.84241 0
M  V30 10621 C 990.492 1.77197 -0.651658 0
M  V30 10622 O 989.849 1.78506 0.379713 0
M  V30 10623 C 989.9 1.84429 -3.10915 0
M  V30 10624 O 989.621 1.04729 -4.25398 0
M  V30 10625 C 991.122 2.69474 -3.51993 0
M  V30 10626 H 988.342 0.27507 -0.612027 0
M  V30 10627 H 990.886 0.213088 -2.03387 0
M  V30 10628 H 989.041 2.52635 -2.93691 0
M  V30 10629 H 989.455 1.66179 -4.97478 0
M  V30 10630 H 990.929 3.28495 -4.43616 0
M  V30 10631 H 991.406 3.42775 -2.74594 0
M  V30 10632 H 992.012 2.06652 -3.71719 0
M  V30 10633 N 990.327 1.50405 0.470755 0
M  V30 10634 C 991.576 1.60652 1.21959 0
M  V30 10635 C 991.889 0.312521 1.93087 0
M  V30 10636 O 993.095 0.293901 2.69905 0
M  V30 10637 C 991.551 2.83581 2.21607 0
M  V30 10638 C 991.159 4.19858 1.5628 0
M  V30 10639 C 992.903 3.03173 2.9713 0
M  V30 10640 C 990.81 5.33974 2.54217 0
M  V30 10641 H 989.74 0.598264 0.458907 0
M  V30 10642 H 992.391 1.76836 0.490041 0
M  V30 10643 H 990.773 2.60957 2.97855 0
M  V30 10644 H 991.947 4.52738 0.85819 0
M  V30 10645 H 990.262 4.05873 0.930366 0
M  V30 10646 H 992.859 3.856 3.70428 0
M  V30 10647 H 993.202 2.14914 3.56536 0
M  V30 10648 H 993.735 3.2598 2.27995 0
M  V30 10649 H 990.474 6.24388 1.99549 0
M  V30 10650 H 989.994 5.05511 3.22829 0
M  V30 10651 H 991.673 5.64561 3.16039 0
M  V30 10652 N 991.805 -0.723954 1.39988 0
M  V30 10653 C 992.715 -1.86829 1.41887 0
M  V30 10654 C 993.731 -1.71173 0.312401 0
M  V30 10655 O 994.907 -1.93583 0.555651 0
M  V30 10656 C 991.972 -3.22541 1.27154 0
M  V30 10657 C 991.033 -3.50512 2.47871 0
M  V30 10658 C 990.266 -4.79749 2.33831 0
M  V30 10659 O 990.489 -5.54251 1.34765 0
M  V30 10660 O 989.423 -5.07868 3.23039 0
M  V30 10661 H 993.249 -1.88183 2.38371 0
M  V30 10662 H 990.834 -0.873259 1.21221 0
M  V30 10663 H 992.716 -4.0362 1.21114 0
M  V30 10664 H 991.391 -3.21933 0.337715 0
M  V30 10665 H 990.298 -2.69475 2.59488 0
M  V30 10666 H 991.631 -3.55909 3.39985 0
M  V30 10667 N 993.283 -1.25346 -0.955304 0
M  V30 10668 C 994.511 -1.12793 -1.73451 0
M  V30 10669 C 994.926 0.318344 -1.86097 0
M  V30 10670 O 994.283 1.21897 -1.35821 0
M  V30 10671 C 994.334 -1.77603 -3.14864 0
M  V30 10672 O 994.055 -3.16577 -3.02837 0
M  V30 10673 C 995.556 -1.70821 -4.09066 0
M  V30 10674 H 992.776 -0.393457 -0.543537 0
M  V30 10675 H 995.32 -1.65696 -1.19855 0
M  V30 10676 H 993.475 -1.28673 -3.65407 0
M  V30 10677 H 993.889 -3.48433 -3.92039 0
M  V30 10678 H 995.363 -2.2083 -5.05903 0
M  V30 10679 H 995.84 -0.671858 -4.34031 0
M  V30 10680 H 996.446 -2.19237 -3.64438 0
M  V30 10681 N 994.761 1.15782 -1.06922 0
M  V30 10682 C 995.691 2.22538 -0.707045 0
M  V30 10683 C 996.672 1.67371 0.303471 0
M  V30 10684 O 997.857 1.9339 0.177189 0
M  V30 10685 C 994.987 3.47158 -0.0994269 0
M  V30 10686 C 993.941 4.15257 -1.03661 0
M  V30 10687 C 993.267 5.33902 -0.291974 0
M  V30 10688 C 994.567 4.65516 -2.36837 0
M  V30 10689 H 996.261 2.53089 -1.59958 0
M  V30 10690 H 993.807 1.21649 -0.770552 0
M  V30 10691 H 995.76 4.21073 0.165852 0
M  V30 10692 H 994.484 3.15926 0.828155 0
M  V30 10693 H 993.143 3.43276 -1.28674 0
M  V30 10694 H 992.791 4.98926 0.638928 0
M  V30 10695 H 992.491 5.80407 -0.916613 0
M  V30 10696 H 994.015 6.1059 -0.0343915 0
M  V30 10697 H 995.429 5.30981 -2.16175 0
M  V30 10698 H 993.826 5.22666 -2.94856 0
M  V30 10699 H 994.896 3.81387 -2.99453 0
M  V30 10700 N 996.239 0.8527 1.3254 0
M  V30 10701 C 997.172 0.240733 2.26927 0
M  V30 10702 C 998.15 -0.620158 1.50309 0
M  V30 10703 O 999.334 -0.577389 1.79439 0
M  V30 10704 C 996.461 -0.660644 3.32195 0
M  V30 10705 C 995.507 0.126604 4.26312 0
M  V30 10706 S 996.34 1.49372 5.14245 0
M  V30 10707 C 997.496 0.598002 6.23037 0
M  V30 10708 H 997.729 1.04088 2.78483 0
M  V30 10709 H 995.262 0.650222 1.40041 0
M  V30 10710 H 997.22 -1.17506 3.93323 0
M  V30 10711 H 995.881 -1.43458 2.79426 0
M  V30 10712 H 995.074 -0.559851 5.00881 0
M  V30 10713 H 994.676 0.572536 3.69592 0
M  V30 10714 H 996.968 -0.198555 6.77209 0
M  V30 10715 H 997.911 1.31428 6.95796 0
M  V30 10716 H 998.319 0.173211 5.64234 0
M  V30 10717 N 997.718 -1.45297 0.610449 0
M  V30 10718 C 998.665 -2.30553 -0.106718 0
M  V30 10719 C 999.635 -1.42272 -0.85719 0
M  V30 10720 O 1000.82 -1.71199 -0.842357 0
M  V30 10721 C 997.96 -3.27226 -1.09623 0
M  V30 10722 C 997.073 -4.3061 -0.346329 0
M  V30 10723 C 996.208 -5.14389 -1.32581 0
M  V30 10724 C 995.247 -6.09497 -0.563892 0
M  V30 10725 N 994.384 -6.86047 -1.4928 0
M  V30 10726 H 999.224 -2.91344 0.626296 0
M  V30 10727 H 996.761 -1.43563 0.32065 0
M  V30 10728 H 998.719 -3.81744 -1.68308 0
M  V30 10729 H 997.349 -2.68182 -1.79662 0
M  V30 10730 H 996.401 -3.7873 0.356084 0
M  V30 10731 H 997.713 -4.98183 0.248026 0
M  V30 10732 H 996.867 -5.73321 -1.98464 0
M  V30 10733 H 995.606 -4.4684 -1.9541 0
M  V30 10734 H 994.611 -5.49693 0.108551 0
M  V30 10735 H 995.836 -6.79074 0.0593872 0
M  V30 10736 H 993.782 -6.21185 -2.10868 0
M  V30 10737 H 993.699 -7.49983 -0.951953 0
M  V30 10738 H 994.967 -7.49518 -2.14112 0
M  V30 10739 N 999.196 -0.349774 -1.5367 0
M  V30 10740 C 1000.16 0.491676 -2.23864 0
M  V30 10741 C 1001.16 1.02256 -1.24098 0
M  V30 10742 O 1002.35 0.910816 -1.48492 0
M  V30 10743 C 999.481 1.68557 -2.96313 0
M  V30 10744 H 1000.67 -0.12233 -2.9965 0
M  V30 10745 H 998.227 -0.101214 -1.55972 0
M  V30 10746 H 998.962 2.3381 -2.2473 0
M  V30 10747 H 998.747 1.31203 -3.69497 0
M  V30 10748 H 1000.24 2.28225 -3.49718 0
M  V30 10749 N 1000.67 1.57404 -0.0785433 0
M  V30 10750 C 1001.95 1.85163 0.630389 0
M  V30 10751 C 1002.33 0.972295 1.87376 0
M  V30 10752 O 1001.68 0.0403375 2.28464 0
M  V30 10753 C 1001.89 3.35491 0.961604 0
M  V30 10754 C 1003.24 4.0316 1.33219 0
M  V30 10755 O 1004.26 3.40276 1.05313 0
M  V30 10756 O 1003.12 5.14086 1.85412 0
M  V30 10757 H 1000.21 0.765169 0.31376 0
M  V30 10758 H 1002.76 1.69343 -0.109986 0
M  V30 10759 H 1001.53 3.91221 0.0788113 0
M  V30 10760 H 1001.15 3.56598 1.75852 0
M  V30 10761 N 1002.15 -0.195058 1.56388 0
M  V30 10762 C 1003.4 -0.913626 1.79821 0
M  V30 10763 C 1003.71 -1.84422 0.651767 0
M  V30 10764 O 1004.92 -2.6034 0.770402 0
M  V30 10765 C 1003.38 -1.67497 3.18548 0
M  V30 10766 C 1002.98 -0.789205 4.40994 0
M  V30 10767 C 1004.73 -2.38318 3.5129 0
M  V30 10768 C 1002.63 -1.54942 5.70742 0
M  V30 10769 H 1001.56 -0.344891 0.670497 0
M  V30 10770 H 1004.22 -0.166912 1.82739 0
M  V30 10771 H 1002.6 -2.46557 3.0988 0
M  V30 10772 H 1003.77 -0.0372595 4.60785 0
M  V30 10773 H 1002.09 -0.191834 4.15958 0
M  V30 10774 H 1004.68 -2.95745 4.45465 0
M  V30 10775 H 1005.03 -3.12507 2.75037 0
M  V30 10776 H 1005.56 -1.66224 3.61406 0
M  V30 10777 H 1002.3 -0.85031 6.49962 0
M  V30 10778 H 1001.82 -2.2753 5.54969 0
M  V30 10779 H 1003.5 -2.1032 6.11861 0
M  V30 10780 N 1003.63 -1.50653 -0.462772 0
M  V30 10781 C 1004.58 -1.70122 -1.55971 0
M  V30 10782 C 1005.55 -0.542581 -1.56988 0
M  V30 10783 O 1006.73 -0.774114 -1.74391 0
M  V30 10784 C 1003.87 -1.80899 -2.93887 0
M  V30 10785 C 1002.98 -3.08318 -3.02595 0
M  V30 10786 C 1002.12 -3.09841 -4.31477 0
M  V30 10787 C 1001.16 -4.3168 -4.33957 0
M  V30 10788 N 1000.3 -4.30894 -5.54323 0
M  V30 10789 H 1005.14 -2.63768 -1.38674 0
M  V30 10790 H 1002.67 -1.30746 -0.674091 0
M  V30 10791 H 1004.63 -1.85128 -3.73876 0
M  V30 10792 H 1003.26 -0.906854 -3.098 0
M  V30 10793 H 1002.31 -3.13521 -2.15427 0
M  V30 10794 H 1003.62 -3.98282 -3.00288 0
M  V30 10795 H 1002.78 -3.12845 -5.1982 0
M  V30 10796 H 1001.52 -2.17722 -4.36404 0
M  V30 10797 H 1000.52 -4.28879 -3.4401 0
M  V30 10798 H 1001.75 -5.25035 -4.30715 0
M  V30 10799 H 999.694 -3.41633 -5.6002 0
M  V30 10800 H 999.611 -5.14636 -5.53792 0
M  V30 10801 H 1000.88 -4.38056 -6.44769 0
M  V30 10802 N 1005.11 0.71652 -1.4037 0
M  V30 10803 C 1006.36 1.47193 -1.37903 0
M  V30 10804 C 1006.67 1.95593 0.0159939 0
M  V30 10805 O 1007.88 2.71009 0.163282 0
M  V30 10806 C 1006.33 2.6606 -2.42363 0
M  V30 10807 C 1005.94 2.24533 -3.87671 0
M  V30 10808 C 1007.68 3.438 -2.49001 0
M  V30 10809 C 1005.59 3.40234 -4.8373 0
M  V30 10810 H 1004.52 0.552811 -0.512753 0
M  V30 10811 H 1007.17 0.779894 -1.66102 0
M  V30 10812 H 1005.55 3.37429 -2.07262 0
M  V30 10813 H 1006.73 1.6059 -4.31911 0
M  V30 10814 H 1005.04 1.59839 -3.845 0
M  V30 10815 H 1007.64 4.29893 -3.17956 0
M  V30 10816 H 1007.98 3.8755 -1.52023 0
M  V30 10817 H 1008.52 2.79474 -2.83088 0
M  V30 10818 H 1005.26 3.01517 -5.82037 0
M  V30 10819 H 1004.78 4.03095 -4.44156 0
M  V30 10820 H 1006.45 4.06312 -5.03507 0
M  V30 10821 N 1006.59 1.25851 0.948643 0
M  V30 10822 C 1007.83 1.12127 1.69703 0
M  V30 10823 C 1008.19 -0.333318 1.89491 0
M  V30 10824 O 1007.48 -1.24181 1.4591 0
M  V30 10825 C 1007.67 1.81565 3.07846 0
M  V30 10826 C 1007.5 3.33626 3.01535 0
M  V30 10827 C 1006.27 4.02897 3.04962 0
M  V30 10828 C 1008.47 4.29934 2.82243 0
M  V30 10829 N 1006.45 5.41688 2.88872 0
M  V30 10830 C 1007.82 5.5585 2.74646 0
M  V30 10831 C 1009.88 4.20276 2.66969 0
M  V30 10832 C 1008.58 6.73212 2.53335 0
M  V30 10833 C 1010.61 5.37336 2.4703 0
M  V30 10834 C 1009.97 6.62196 2.40158 0
M  V30 10835 H 1006.07 0.465047 0.628693 0
M  V30 10836 H 1008.65 1.59035 1.12321 0
M  V30 10837 H 1006.82 1.37143 3.63382 0
M  V30 10838 H 1008.56 1.6053 3.715 0
M  V30 10839 H 1005.31 3.54201 3.14386 0
M  V30 10840 H 1005.74 6.14544 2.84015 0
M  V30 10841 H 1010.38 3.24485 2.71053 0
M  V30 10842 H 1008.1 7.69107 2.47993 0
M  V30 10843 H 1011.68 5.31728 2.36128 0
M  V30 10844 H 1010.56 7.51249 2.24933 0
M  V30 10845 N 1008.06 -1.15214 1.07534 0
M  V30 10846 C 1009.31 -1.85388 0.794617 0
M  V30 10847 C 1009.63 -1.83331 -0.681838 0
M  V30 10848 O 1010.83 -2.49207 -1.0774 0
M  V30 10849 C 1009.29 -3.32747 1.37141 0
M  V30 10850 C 1008.9 -3.43244 2.87902 0
M  V30 10851 C 1010.64 -4.08093 1.16879 0
M  V30 10852 C 1008.55 -4.84762 3.38763 0
M  V30 10853 H 1007.48 -0.694499 0.293577 0
M  V30 10854 H 1010.13 -1.29944 1.29564 0
M  V30 10855 H 1008.51 -3.87874 0.798121 0
M  V30 10856 H 1009.68 -2.98214 3.51291 0
M  V30 10857 H 1008 -2.81345 3.06975 0
M  V30 10858 H 1010.6 -5.12535 1.52353 0
M  V30 10859 H 1010.94 -4.1616 0.107958 0
M  V30 10860 H 1011.47 -3.59241 1.70854 0
M  V30 10861 H 1008.21 -4.81879 4.4438 0
M  V30 10862 H 1007.73 -5.30366 2.80128 0
M  V30 10863 H 1009.41 -5.53624 3.34827 0
M  V30 10864 N 1009.54 -0.859717 -1.32086 0
M  V30 10865 C 1010.47 -0.323502 -2.31248 0
M  V30 10866 C 1011.45 0.580085 -1.59903 0
M  V30 10867 O 1012.64 0.499265 -1.87673 0
M  V30 10868 C 1009.77 0.484661 -3.43902 0
M  V30 10869 C 1008.72 -0.324933 -4.26765 0
M  V30 10870 C 1008.05 0.608281 -5.31229 0
M  V30 10871 C 1009.35 -1.55344 -4.98664 0
M  V30 10872 H 1011.04 -1.15209 -2.76346 0
M  V30 10873 H 1008.59 -0.555442 -1.32856 0
M  V30 10874 H 1010.54 0.870238 -4.12316 0
M  V30 10875 H 1009.27 1.34666 -2.97544 0
M  V30 10876 H 1007.92 -0.692328 -3.60003 0
M  V30 10877 H 1007.57 1.46727 -4.81124 0
M  V30 10878 H 1007.27 0.0705571 -5.87558 0
M  V30 10879 H 1008.8 0.990925 -6.02506 0
M  V30 10880 H 1010.21 -1.23987 -5.59732 0
M  V30 10881 H 1008.61 -2.02947 -5.64741 0
M  V30 10882 H 1009.68 -2.31192 -4.26237 0
M  V30 10883 N 1011.02 1.44971 -0.618145 0
M  V30 10884 C 1012.25 2.06527 -0.124165 0
M  V30 10885 C 1012.66 1.46097 1.19588 0
M  V30 10886 O 1012.02 0.57901 1.73071 0
M  V30 10887 C 1012.07 3.61498 0.0106701 0
M  V30 10888 O 1011.79 4.19675 -1.25716 0
M  V30 10889 C 1013.29 4.40061 0.534872 0
M  V30 10890 H 1010.51 0.666941 -0.0736935 0
M  V30 10891 H 1013.06 1.8605 -0.848871 0
M  V30 10892 H 1011.21 3.81282 0.685752 0
M  V30 10893 H 1011.63 5.12972 -1.09362 0
M  V30 10894 H 1013.1 5.48963 0.57827 0
M  V30 10895 H 1013.58 4.10587 1.55931 0
M  V30 10896 H 1014.18 4.25167 -0.10652 0
M  V30 10897 N 1012.5 0.357919 1.53482 0
M  V30 10898 C 1013.75 -0.2337 2.00744 0
M  V30 10899 C 1014.07 -1.49908 1.2471 0
M  V30 10900 O 1013.34 -1.92597 0.358235 0
M  V30 10901 H 1011.92 -0.0893474 0.741637 0
M  V30 10902 H 1014.58 0.482388 1.88836 0
M  V30 10903 H 1013.68 -0.466073 3.086 0
M  V30 10904 N 1013.98 -1.5736 0.0868897 0
M  V30 10905 C 1015.25 -1.85495 -0.620561 0
M  V30 10906 C 1015.63 -0.982218 -1.86857 0
M  V30 10907 O 1014.98 -0.0524529 -2.2844 0
M  V30 10908 C 1015.19 -3.35996 -0.943798 0
M  V30 10909 C 1016.54 -4.03861 -1.31079 0
M  V30 10910 O 1017.56 -3.4083 -1.03507 0
M  V30 10911 O 1016.42 -5.15062 -1.82683 0
M  V30 10912 H 1013.52 -0.766822 -0.309697 0
M  V30 10913 H 1016.06 -1.69282 0.118966 0
M  V30 10914 H 1014.83 -3.91257 -0.0580628 0
M  V30 10915 H 1014.46 -3.57525 -1.73958 0
M  V30 10916 N 1015.45 0.186762 -1.56489 0
M  V30 10917 C 1016.4 1.23141 -1.95205 0
M  V30 10918 C 1017.37 1.44799 -0.81378 0
M  V30 10919 O 1018.56 1.57795 -1.07263 0
M  V30 10920 C 1015.7 2.56926 -2.30397 0
M  V30 10921 C 1014.81 2.42777 -3.57328 0
M  V30 10922 C 1013.94 3.69323 -3.81804 0
M  V30 10923 C 1012.98 3.50041 -5.02133 0
M  V30 10924 N 1012.12 4.68619 -5.2282 0
M  V30 10925 H 1016.96 0.894256 -2.84266 0
M  V30 10926 H 1014.5 0.430187 -1.40669 0
M  V30 10927 H 1016.46 3.3488 -2.4882 0
M  V30 10928 H 1015.09 2.88668 -1.44466 0
M  V30 10929 H 1014.14 1.56078 -3.46906 0
M  V30 10930 H 1015.45 2.24468 -4.45439 0
M  V30 10931 H 1014.6 4.55715 -4.00511 0
M  V30 10932 H 1013.34 3.90595 -2.92039 0
M  V30 10933 H 1012.35 2.62034 -4.8334 0
M  V30 10934 H 1013.57 3.30206 -5.93414 0
M  V30 10935 H 1011.52 4.90139 -4.36005 0
M  V30 10936 H 1011.44 4.53165 -6.05126 0
M  V30 10937 H 1012.7 5.56338 -5.45993 0
M  V30 10938 N 1016.93 1.50896 0.454776 0
M  V30 10939 C 1017.86 1.6712 1.56855 0
M  V30 10940 C 1018.88 0.552223 1.53148 0
M  V30 10941 O 1020.07 0.825969 1.5824 0
M  V30 10942 C 1017.17 1.65464 2.95762 0
M  V30 10943 C 1016.34 2.93662 3.24163 0
M  V30 10944 C 1015.4 2.84428 4.42704 0
M  V30 10945 O 1014.42 3.58382 4.42211 0
M  V30 10946 N 1015.63 1.9909 5.45292 0
M  V30 10947 H 1018.39 2.63194 1.43349 0
M  V30 10948 H 1015.95 1.48564 0.643457 0
M  V30 10949 H 1017.94 1.56878 3.73057 0
M  V30 10950 H 1016.51 0.770568 3.02954 0
M  V30 10951 H 1015.73 3.16251 2.35328 0
M  V30 10952 H 1017.02 3.78558 3.39957 0
M  V30 10953 H 1016.42 1.3835 5.48521 0
M  V30 10954 H 1014.98 1.96396 6.21508 0
M  V30 10955 N 1018.41 -0.709066 1.40748 0
M  V30 10956 C 1019.32 -1.85314 1.43861 0
M  V30 10957 C 1020.34 -1.70832 0.330539 0
M  V30 10958 O 1021.51 -1.92983 0.576152 0
M  V30 10959 C 1018.58 -3.21174 1.30568 0
M  V30 10960 C 1017.64 -3.47863 2.51574 0
M  V30 10961 C 1016.87 -4.77241 2.38906 0
M  V30 10962 O 1017.09 -5.52791 1.40636 0
M  V30 10963 O 1016.03 -5.04413 3.28407 0
M  V30 10964 H 1019.85 -1.85644 2.40354 0
M  V30 10965 H 1017.44 -0.860352 1.2214 0
M  V30 10966 H 1019.32 -4.02313 1.25388 0
M  V30 10967 H 1018 -3.21557 0.371841 0
M  V30 10968 H 1016.9 -2.66708 2.62331 0
M  V30 10969 H 1018.24 -3.52283 3.43741 0
M  V30 10970 N 1019.89 -1.26353 -0.941956 0
M  V30 10971 C 1021.12 -1.14626 -1.72245 0
M  V30 10972 C 1021.53 0.298588 -1.86424 0
M  V30 10973 O 1020.89 1.2045 -1.37106 0
M  V30 10974 C 1020.94 -1.80933 -3.12963 0
M  V30 10975 O 1020.66 -3.19771 -2.99463 0
M  V30 10976 C 1022.16 -1.7515 -4.07231 0
M  V30 10977 H 1019.38 -0.3992 -0.539333 0
M  V30 10978 H 1021.93 -1.66958 -1.1809 0
M  V30 10979 H 1020.08 -1.32541 -3.64021 0
M  V30 10980 H 1020.5 -3.52571 -3.88322 0
M  V30 10981 H 1021.97 -2.26183 -5.03533 0
M  V30 10982 H 1022.45 -0.717855 -4.33294 0
M  V30 10983 H 1023.05 -2.2309 -3.62093 0
M  V30 10984 N 1021.37 1.14642 -1.08144 0
M  V30 10985 C 1022.33 2.17834 -0.712799 0
M  V30 10986 C 1023.33 1.58828 0.251041 0
M  V30 10987 O 1024.52 1.74173 0.0309381 0
M  V30 10988 C 1021.65 3.4086 -0.0519477 0
M  V30 10989 H 1022.85 2.51961 -1.62653 0
M  V30 10990 H 1020.4 1.29243 -0.878971 0
M  V30 10991 H 1021.13 3.12311 0.873636 0
M  V30 10992 H 1020.92 3.84952 -0.745286 0
M  V30 10993 H 1022.41 4.17163 0.191031 0
M  V30 10994 N 1022.85 0.866709 1.31628 0
M  V30 10995 C 1024.09 0.472185 1.96095 0
M  V30 10996 C 1024.41 -0.979873 1.69286 0
M  V30 10997 O 1025.61 -1.48039 2.27589 0
M  V30 10998 C 1024.07 0.793468 3.51044 0
M  V30 10999 C 1023.68 2.26206 3.86697 0
M  V30 11000 C 1025.42 0.467255 4.21921 0
M  V30 11001 C 1023.33 2.52593 5.34743 0
M  V30 11002 H 1022.26 0.172846 0.733921 0
M  V30 11003 H 1024.91 1.05916 1.49847 0
M  V30 11004 H 1023.29 0.135783 3.95767 0
M  V30 11005 H 1024.47 2.96254 3.52945 0
M  V30 11006 H 1022.78 2.55399 3.28877 0
M  V30 11007 H 1025.38 0.641669 5.30836 0
M  V30 11008 H 1025.72 -0.592065 4.12068 0
M  V30 11009 H 1026.25 1.08134 3.82821 0
M  V30 11010 H 1022.99 3.57196 5.49628 0
M  V30 11011 H 1022.51 1.87136 5.6986 0
M  V30 11012 H 1024.19 2.37156 6.01968 0
M  V30 11013 N 1024.32 -1.44642 0.625825 0
M  V30 11014 C 1025.27 -2.32408 -0.0945221 0
M  V30 11015 C 1026.27 -1.47038 -0.841198 0
M  V30 11016 O 1027.47 -1.63415 -0.754698 0
M  V30 11017 H 1023.85 -0.75038 -0.0493321 0
M  V30 11018 H 1025.82 -2.90922 0.663863 0
M  V30 11019 C 1024.57 -3.30951 -1.06615 0
M  V30 11020 H 1023.89 -3.96648 -0.501021 0
M  V30 11021 H 1025.33 -3.95054 -1.53976 0
M  V30 11022 C 1023.79 -2.59479 -2.14877 0
M  V30 11023 O 1024.32 -2.38974 -3.22885 0
M  V30 11024 N 1022.52 -2.19307 -1.90665 0
M  V30 11025 H 1022.07 -2.36184 -1.02835 0
M  V30 11026 H 1022.03 -1.71811 -2.63303 0
M  V30 11027 N 1025.8 -0.366053 -1.5329 0
M  V30 11028 C 1027.05 0.224614 -2.00445 0
M  V30 11029 C 1027.36 1.49829 -1.2574 0
M  V30 11030 O 1028.57 2.16759 -1.63487 0
M  V30 11031 C 1027.03 0.450818 -3.57065 0
M  V30 11032 C 1026.63 -0.808257 -4.40649 0
M  V30 11033 C 1028.38 0.999116 -4.12575 0
M  V30 11034 C 1026.28 -0.551612 -5.88822 0
M  V30 11035 H 1025.21 0.0877114 -0.748881 0
M  V30 11036 H 1027.87 -0.484866 -1.76978 0
M  V30 11037 H 1026.25 1.22157 -3.76688 0
M  V30 11038 H 1027.42 -1.58184 -4.32798 0
M  V30 11039 H 1025.74 -1.27981 -3.96245 0
M  V30 11040 H 1028.33 1.20646 -5.20911 0
M  V30 11041 H 1028.68 1.96139 -3.67199 0
M  V30 11042 H 1029.21 0.288518 -3.96752 0
M  V30 11043 H 1025.95 -1.48423 -6.38475 0
M  V30 11044 H 1025.47 0.183462 -5.99519 0
M  V30 11045 H 1027.15 -0.177307 -6.46757 0
M  V30 11046 N 1027.28 1.57312 -0.0952337 0
M  V30 11047 C 1028.53 1.93974 0.567319 0
M  V30 11048 C 1028.85 0.977805 1.68713 0
M  V30 11049 O 1028.12 0.0298944 1.95877 0
M  V30 11050 H 1026.7 0.71612 0.212558 0
M  V30 11051 H 1029.36 1.94254 -0.158598 0
M  V30 11052 H 1028.46 2.964 0.977423 0
M  V30 11053 N 1028.76 -0.17846 1.56586 0
M  V30 11054 C 1029.71 -1.22552 1.92263 0
M  V30 11055 C 1030.69 -1.40163 0.790131 0
M  V30 11056 O 1031.88 -1.42254 1.05322 0
M  V30 11057 C 1029.01 -2.5666 2.27993 0
M  V30 11058 C 1028.1 -2.42772 3.47739 0
M  V30 11059 N 1028.49 -1.98588 4.65185 0
M  V30 11060 C 1026.79 -2.73619 3.52205 0
M  V30 11061 C 1027.49 -1.96991 5.47329 0
M  V30 11062 N 1026.46 -2.39126 4.8818 0
M  V30 11063 H 1030.27 -0.875493 2.80557 0
M  V30 11064 H 1027.78 -0.386785 1.57727 0
M  V30 11065 H 1029.78 -3.32312 2.51743 0
M  V30 11066 H 1028.44 -2.92472 1.41034 0
M  V30 11067 H 1029.45 -1.69036 4.89538 0
M  V30 11068 H 1026.13 -3.13516 2.75706 0
M  V30 11069 H 1027.52 -1.64589 6.51429 0
M  V30 11070 N 1030.24 -1.51135 -0.446768 0
M  V30 11071 C 1031.46 -1.67411 -1.22427 0
M  V30 11072 C 1031.89 -0.367009 -1.84485 0
M  V30 11073 O 1031.24 0.67185 -1.68392 0
M  V30 11074 C 1031.29 -2.78473 -2.29096 0
M  V30 11075 O 1030.4 -2.41419 -3.34351 0
M  V30 11076 H 1029.74 -0.558512 -0.359111 0
M  V30 11077 H 1032.27 -1.97648 -0.5288 0
M  V30 11078 H 1032.28 -3.02277 -2.7403 0
M  V30 11079 H 1030.95 -3.73326 -1.83304 0
M  V30 11080 H 1029.53 -2.28152 -2.9496 0
M  V30 11081 N 1031.71 0.701592 -1.41122 0
M  V30 11082 C 1032.95 1.4739 -1.41618 0
M  V30 11083 C 1033.32 1.91987 -0.0219443 0
M  V30 11084 O 1034.52 2.6862 0.0982793 0
M  V30 11085 C 1032.79 2.65745 -2.38986 0
M  V30 11086 S 1034.35 3.54968 -2.5796 0
M  V30 11087 H 1031.17 0.503742 -0.501762 0
M  V30 11088 H 1033.77 0.819186 -1.77509 0
M  V30 11089 H 1032.47 2.31176 -3.39096 0
M  V30 11090 H 1032 3.36115 -2.04426 0
M  V30 11091 H 1034.02 4.60724 -1.84249 0
M  V30 11092 N 1033.19 1.2685 0.935242 0
M  V30 11093 C 1034.14 1.08923 2.03481 0
M  V30 11094 C 1035.11 -0.00749786 1.66098 0
M  V30 11095 O 1036.29 0.153401 1.90182 0
M  V30 11096 C 1033.43 0.734529 3.37192 0
M  V30 11097 C 1032.55 1.90812 3.87576 0
M  V30 11098 C 1031.68 1.49599 5.097 0
M  V30 11099 C 1030.72 2.63752 5.5236 0
M  V30 11100 N 1029.86 2.23179 6.65684 0
M  V30 11101 H 1034.7 2.03016 2.18148 0
M  V30 11102 H 1032.23 1.01072 1.06878 0
M  V30 11103 H 1034.19 0.509734 4.14074 0
M  V30 11104 H 1032.82 -0.169438 3.22355 0
M  V30 11105 H 1031.87 2.24567 3.0704 0
M  V30 11106 H 1033.19 2.7647 4.1517 0
M  V30 11107 H 1032.34 1.23199 5.9406 0
M  V30 11108 H 1031.08 0.61039 4.83865 0
M  V30 11109 H 1030.08 2.90874 4.66554 0
M  V30 11110 H 1031.31 3.5292 5.80193 0
M  V30 11111 H 1029.26 1.37061 6.41522 0
M  V30 11112 H 1029.17 3.02379 6.92895 0
M  V30 11113 H 1030.44 2.00007 7.53404 0
M  V30 11114 N 1034.67 -1.14067 1.0875 0
M  V30 11115 C 1035.6 -2.21385 0.74236 0
M  V30 11116 C 1036.58 -1.67833 -0.276805 0
M  V30 11117 O 1037.77 -1.93647 -0.1464 0
M  V30 11118 C 1034.9 -3.46956 0.154644 0
M  V30 11119 C 1033.85 -4.13555 1.10255 0
M  V30 11120 C 1033.18 -5.3337 0.376877 0
M  V30 11121 C 1034.48 -4.6169 2.44213 0
M  V30 11122 H 1036.17 -2.50512 1.63964 0
M  V30 11123 H 1033.72 -1.20408 0.789807 0
M  V30 11124 H 1035.67 -4.21284 -0.0988419 0
M  V30 11125 H 1034.39 -3.17203 -0.777789 0
M  V30 11126 H 1033.05 -3.41186 1.34119 0
M  V30 11127 H 1032.7 -4.99879 -0.559472 0
M  V30 11128 H 1032.4 -5.78875 1.00884 0
M  V30 11129 H 1033.92 -6.10458 0.131527 0
M  V30 11130 H 1035.34 -5.27475 2.24595 0
M  V30 11131 H 1033.74 -5.17909 3.03134 0
M  V30 11132 H 1034.81 -3.76574 3.05483 0
M  V30 11133 N 1036.15 -0.873678 -1.31166 0
M  V30 11134 C 1037.08 -0.348011 -2.30892 0
M  V30 11135 C 1038.06 0.563092 -1.60509 0
M  V30 11136 O 1039.24 0.479332 -1.88192 0
M  V30 11137 C 1036.37 0.448158 -3.44396 0
M  V30 11138 C 1035.33 -0.370179 -4.26396 0
M  V30 11139 C 1034.65 0.551903 -5.31844 0
M  V30 11140 C 1035.95 -1.60624 -4.96988 0
M  V30 11141 H 1037.65 -1.18134 -2.75109 0
M  V30 11142 H 1035.19 -0.569502 -1.3226 0
M  V30 11143 H 1037.15 0.826458 -4.13216 0
M  V30 11144 H 1035.87 1.31503 -2.98956 0
M  V30 11145 H 1034.53 -0.730472 -3.59249 0
M  V30 11146 H 1034.18 1.41616 -4.82653 0
M  V30 11147 H 1033.88 0.00823478 -5.87599 0
M  V30 11148 H 1035.4 0.926965 -6.03523 0
M  V30 11149 H 1036.82 -1.29917 -5.58386 0
M  V30 11150 H 1035.21 -2.08926 -5.62557 0
M  V30 11151 H 1036.28 -2.357 -4.23761 0
M  V30 11152 N 1037.63 1.44308 -0.633487 0
M  V30 11153 C 1038.57 2.30694 0.0700257 0
M  V30 11154 C 1039.54 1.43618 0.834447 0
M  V30 11155 O 1040.73 1.72517 0.815014 0
M  V30 11156 C 1037.87 3.28929 1.04403 0
M  V30 11157 C 1036.98 4.31106 0.277779 0
M  V30 11158 C 1036.12 5.16433 1.24381 0
M  V30 11159 C 1035.16 6.10317 0.466855 0
M  V30 11160 N 1034.29 6.88335 1.38347 0
M  V30 11161 H 1039.13 2.90311 -0.672567 0
M  V30 11162 H 1036.67 1.43034 -0.343449 0
M  V30 11163 H 1038.63 3.84373 1.62214 0
M  V30 11164 H 1037.26 2.71006 1.75372 0
M  V30 11165 H 1036.31 3.78115 -0.416292 0
M  V30 11166 H 1037.62 4.97725 -0.327251 0
M  V30 11167 H 1036.78 5.76406 1.89318 0
M  V30 11168 H 1035.51 4.49893 1.88276 0
M  V30 11169 H 1034.52 5.49451 -0.195989 0
M  V30 11170 H 1035.74 6.78894 -0.167414 0
M  V30 11171 H 1033.69 6.24461 2.00959 0
M  V30 11172 H 1033.61 7.51402 0.832517 0
M  V30 11173 H 1034.88 7.52829 2.0216 0
M  V30 11174 N 1039.1 0.374177 1.53094 0
M  V30 11175 C 1040.05 -0.468226 2.26001 0
M  V30 11176 C 1041.02 -1.07041 1.27009 0
M  V30 11177 O 1042.21 -1.10129 1.55809 0
M  V30 11178 C 1039.35 -1.59754 3.05896 0
M  V30 11179 C 1038.46 -1.01969 4.19793 0
M  V30 11180 C 1037.59 -2.11882 4.87113 0
M  V30 11181 C 1036.63 -1.51607 5.93028 0
M  V30 11182 N 1035.77 -2.55388 6.54004 0
M  V30 11183 H 1040.61 0.159983 2.9757 0
M  V30 11184 H 1038.15 0.0907196 1.4682 0
M  V30 11185 H 1040.11 -2.26288 3.50499 0
M  V30 11186 H 1038.74 -2.19628 2.36565 0
M  V30 11187 H 1037.79 -0.244386 3.79614 0
M  V30 11188 H 1039.1 -0.539089 4.95878 0
M  V30 11189 H 1038.25 -2.86218 5.34943 0
M  V30 11190 H 1036.99 -2.63297 4.10519 0
M  V30 11191 H 1036 -0.757891 5.44551 0
M  V30 11192 H 1037.22 -1.01006 6.71546 0
M  V30 11193 H 1035.17 -3.06 5.80258 0
M  V30 11194 H 1035.09 -2.12039 7.25655 0
M  V30 11195 H 1036.35 -3.294 7.06481 0
M  V30 11196 N 1040.58 -1.57259 0.103575 0
M  V30 11197 C 1041.53 -2.15727 -0.869739 0
M  V30 11198 C 1042.52 -1.10236 -1.28625 0
M  V30 11199 O 1043.73 -1.28567 -1.25979 0
M  V30 11200 H 1040.11 -0.690204 -0.298535 0
M  V30 11201 H 1042.08 -2.96317 -0.351984 0
M  V30 11202 C 1040.83 -2.75905 -2.11593 0
M  V30 11203 H 1040.15 -3.56768 -1.80434 0
M  V30 11204 H 1041.59 -3.20373 -2.77736 0
M  V30 11205 C 1040.05 -1.72218 -2.89556 0
M  V30 11206 O 1040.58 -1.16623 -3.84398 0
M  V30 11207 N 1038.78 -1.42514 -2.53255 0
M  V30 11208 H 1038.33 -1.87914 -1.76198 0
M  V30 11209 H 1038.29 -0.733782 -3.05717 0
M  V30 11210 N 1042.06 0.170153 -1.56679 0
M  V30 11211 C 1042.99 1.23945 -1.91606 0
M  V30 11212 C 1043.97 1.42725 -0.779004 0
M  V30 11213 O 1045.16 1.57712 -1.03243 0
M  V30 11214 C 1042.28 2.60222 -2.168 0
M  V30 11215 C 1041.33 2.58172 -3.39484 0
M  V30 11216 S 1042.16 2.0714 -4.93815 0
M  V30 11217 C 1043.32 3.45192 -5.22105 0
M  V30 11218 H 1043.55 0.941345 -2.82004 0
M  V30 11219 H 1041.08 0.374771 -1.49783 0
M  V30 11220 H 1043.04 3.38656 -2.31996 0
M  V30 11221 H 1041.7 2.87232 -1.27107 0
M  V30 11222 H 1040.9 3.58435 -3.54317 0
M  V30 11223 H 1040.5 1.87834 -3.2341 0
M  V30 11224 H 1042.79 4.41194 -5.14154 0
M  V30 11225 H 1043.73 3.35233 -6.23718 0
M  V30 11226 H 1044.14 3.41257 -4.49671 0
M  V30 11227 N 1043.54 1.5137 0.438746 0
M  V30 11228 C 1044.79 1.63645 1.18595 0
M  V30 11229 C 1045.11 0.354241 1.91755 0
M  V30 11230 O 1044.38 -0.629838 1.85499 0
M  V30 11231 H 1042.96 0.603103 0.440767 0
M  V30 11232 H 1045.62 1.88293 0.503159 0
M  V30 11233 H 1044.72 2.46342 1.9163 0
M  V30 11234 N 1045.02 -0.694098 1.41492 0
M  V30 11235 C 1045.95 -1.81841 1.37873 0
M  V30 11236 C 1046.93 -1.60732 0.245772 0
M  V30 11237 O 1048.11 -1.83461 0.432917 0
M  V30 11238 C 1045.24 -3.18543 1.15099 0
M  V30 11239 C 1044.28 -3.5844 2.31133 0
M  V30 11240 S 1045.12 -3.63079 3.93617 0
M  V30 11241 C 1046.27 -5.02505 3.73148 0
M  V30 11242 H 1046.51 -1.84634 2.33018 0
M  V30 11243 H 1044.04 -0.862948 1.28033 0
M  V30 11244 H 1046 -3.9746 1.02646 0
M  V30 11245 H 1044.66 -3.13358 0.21572 0
M  V30 11246 H 1043.85 -4.57754 2.10896 0
M  V30 11247 H 1043.45 -2.86837 2.40002 0
M  V30 11248 H 1045.75 -5.90046 3.32945 0
M  V30 11249 H 1046.69 -5.27784 4.72069 0
M  V30 11250 H 1047.1 -4.74113 3.06394 0
M  V30 11251 N 1046.49 -1.27344 -0.928501 0
M  V30 11252 C 1047.74 -1.13019 -1.67061 0
M  V30 11253 C 1048.06 0.323614 -1.92904 0
M  V30 11254 O 1049.26 0.587752 -2.65062 0
M  V30 11255 C 1047.72 -1.97471 -3.00887 0
M  V30 11256 C 1047.33 -3.47504 -2.82746 0
M  V30 11257 C 1049.07 -1.91792 -3.78703 0
M  V30 11258 C 1046.98 -4.24158 -4.12122 0
M  V30 11259 H 1045.91 -0.419364 -0.626618 0
M  V30 11260 H 1048.56 -1.51759 -1.03158 0
M  V30 11261 H 1046.94 -1.51576 -3.65843 0
M  V30 11262 H 1048.11 -4.01256 -2.26562 0
M  V30 11263 H 1046.43 -3.54554 -2.18359 0
M  V30 11264 H 1049.03 -2.46339 -4.74575 0
M  V30 11265 H 1049.37 -0.891375 -4.06645 0
M  V30 11266 H 1049.9 -2.35578 -3.20543 0
M  V30 11267 H 1046.64 -5.27333 -3.89359 0
M  V30 11268 H 1046.16 -3.75183 -4.67972 0
M  V30 11269 H 1047.84 -4.33288 -4.80489 0
M  V30 11270 N 1047.97 1.13488 -1.09353 0
M  V30 11271 C 1049.22 1.85022 -0.830354 0
M  V30 11272 C 1049.55 1.83266 0.64242 0
M  V30 11273 O 1048.83 1.27024 1.47293 0
M  V30 11274 C 1049.11 3.33218 -1.36521 0
M  V30 11275 C 1048.96 3.43491 -2.90404 0
M  V30 11276 C 1050.28 4.28626 -0.998381 0
M  V30 11277 H 1047.4 0.671786 -0.303105 0
M  V30 11278 H 1050.04 1.33211 -1.3548 0
M  V30 11279 H 1048.19 3.77471 -0.919117 0
M  V30 11280 H 1049.86 3.07954 -3.43456 0
M  V30 11281 H 1048.11 2.84391 -3.27573 0
M  V30 11282 H 1048.78 4.47702 -3.22905 0
M  V30 11283 H 1051.25 3.9244 -1.38311 0
M  V30 11284 H 1050.13 5.30754 -1.39968 0
M  V30 11285 H 1050.39 4.42001 0.093517 0
M  V30 11286 N 1049.45 0.880621 1.30701 0
M  V30 11287 C 1050.7 0.492957 1.95583 0
M  V30 11288 C 1051.01 -0.961863 1.70316 0
M  V30 11289 O 1052.22 -1.45617 2.29146 0
M  V30 11290 C 1050.68 0.830656 3.50183 0
M  V30 11291 C 1050.28 2.30295 3.84276 0
M  V30 11292 C 1052.03 0.511979 4.21401 0
M  V30 11293 C 1049.93 2.58251 5.32034 0
M  V30 11294 H 1048.86 0.18062 0.732047 0
M  V30 11295 H 1051.52 1.075 1.48715 0
M  V30 11296 H 1049.9 0.177752 3.95601 0
M  V30 11297 H 1051.07 2.99981 3.49783 0
M  V30 11298 H 1049.39 2.58873 3.2615 0
M  V30 11299 H 1051.98 0.697935 5.30125 0
M  V30 11300 H 1052.33 -0.548327 4.12673 0
M  V30 11301 H 1052.86 1.12189 3.81652 0
M  V30 11302 H 1049.6 3.63005 5.45809 0
M  V30 11303 H 1049.12 1.9317 5.67843 0
M  V30 11304 H 1050.8 2.43527 5.99419 0
M  V30 11305 N 1050.93 -1.4397 0.641131 0
M  V30 11306 C 1051.88 -2.32495 -0.0698668 0
M  V30 11307 C 1052.87 -1.47922 -0.825555 0
M  V30 11308 O 1054.08 -1.64206 -0.737323 0
M  V30 11309 H 1050.45 -0.750861 -0.0413706 0
M  V30 11310 H 1052.42 -2.90201 0.694682 0
M  V30 11311 C 1051.17 -3.32063 -1.03098 0
M  V30 11312 H 1050.5 -3.97157 -0.458923 0
M  V30 11313 H 1051.94 -3.96664 -1.49778 0
M  V30 11314 C 1050.39 -2.61743 -2.12113 0
M  V30 11315 O 1050.92 -2.42385 -3.20332 0
M  V30 11316 N 1049.13 -2.21316 -1.88328 0
M  V30 11317 H 1048.68 -2.37261 -1.00324 0
M  V30 11318 H 1048.64 -1.74594 -2.61465 0
M  V30 11319 N 1052.41 -0.382291 -1.52893 0
M  V30 11320 C 1053.32 0.463745 -2.29971 0
M  V30 11321 C 1054.33 1.07777 -1.36602 0
M  V30 11322 O 1055.51 1.0851 -1.69669 0
M  V30 11323 C 1052.57 1.57938 -3.08637 0
M  V30 11324 C 1051.64 0.991182 -4.17701 0
M  V30 11325 C 1050.87 2.05365 -4.92606 0
M  V30 11326 O 1051.09 3.26757 -4.67532 0
M  V30 11327 O 1050.03 1.67487 -5.78128 0
M  V30 11328 H 1053.85 -0.163962 -3.03257 0
M  V30 11329 H 1051.44 -0.146199 -1.48683 0
M  V30 11330 H 1053.32 2.22765 -3.57706 0
M  V30 11331 H 1051.99 2.19218 -2.3817 0
M  V30 11332 H 1050.9 0.306364 -3.72843 0
M  V30 11333 H 1052.23 0.422699 -4.90382 0
M  V30 11334 N 1053.89 1.57202 -0.111913 0
M  V30 11335 C 1055.13 1.94565 0.546713 0
M  V30 11336 C 1055.45 0.995644 1.67666 0
M  V30 11337 O 1054.72 0.0506681 1.95834 0
M  V30 11338 H 1053.3 0.718334 0.204951 0
M  V30 11339 H 1055.97 1.94074 -0.179193 0
M  V30 11340 H 1055.06 2.9742 0.945931 0
M  V30 11341 N 1055.36 -0.161842 1.56767 0
M  V30 11342 C 1056.59 -0.896274 1.87034 0
M  V30 11343 C 1057.01 -1.74617 0.699314 0
M  V30 11344 O 1056.37 -1.77861 -0.351435 0
M  V30 11345 C 1056.42 -1.74105 3.15784 0
M  V30 11346 O 1055.52 -2.84372 2.98674 0
M  V30 11347 H 1054.86 -0.250523 0.614926 0
M  V30 11348 H 1057.39 -0.157127 2.03996 0
M  V30 11349 H 1057.4 -2.13907 3.4743 0
M  V30 11350 H 1056.08 -1.11684 4.00624 0
M  V30 11351 H 1054.66 -2.48084 2.78404 0
M  V30 11352 N 1056.84 -1.516 -0.430713 0
M  V30 11353 C 1057.77 -1.76342 -1.53054 0
M  V30 11354 C 1058.75 -0.61349 -1.58652 0
M  V30 11355 O 1059.94 -0.856888 -1.74273 0
M  V30 11356 C 1057.07 -1.8945 -2.91077 0
M  V30 11357 C 1056.02 -3.04928 -3.00339 0
M  V30 11358 C 1055.35 -3.03228 -4.40405 0
M  V30 11359 C 1056.65 -4.44777 -2.73808 0
M  V30 11360 H 1058.34 -2.68435 -1.326 0
M  V30 11361 H 1055.89 -1.29171 -0.636466 0
M  V30 11362 H 1057.84 -2.05343 -3.67984 0
M  V30 11363 H 1056.56 -0.940114 -3.12777 0
M  V30 11364 H 1055.22 -2.88751 -2.25872 0
M  V30 11365 H 1054.87 -2.05553 -4.59083 0
M  V30 11366 H 1054.57 -3.80776 -4.47531 0
M  V30 11367 H 1056.1 -3.21222 -5.19277 0
M  V30 11368 H 1057.51 -4.6127 -3.40445 0
M  V30 11369 H 1055.91 -5.2408 -2.92335 0
M  V30 11370 H 1056.98 -4.54358 -1.69372 0
M  V30 11371 N 1058.32 0.686584 -1.41858 0
M  V30 11372 C 1059.6 1.44176 -1.32185 0
M  V30 11373 C 1059.98 2.11049 0.046362 0
M  V30 11374 O 1059.32 2.02365 1.06117 0
M  V30 11375 C 1059.53 2.45385 -2.48168 0
M  V30 11376 C 1060.88 3.10375 -2.89746 0
M  V30 11377 O 1061.91 2.55711 -2.47973 0
M  V30 11378 O 1060.77 4.09404 -3.62009 0
M  V30 11379 H 1057.86 0.642513 -0.520678 0
M  V30 11380 H 1060.41 0.716303 -1.53841 0
M  V30 11381 H 1059.18 1.94687 -3.3943 0
M  V30 11382 H 1058.8 3.25428 -2.28435 0
M  V30 11383 N 1059.8 1.27835 0.921735 0
M  V30 11384 C 1061.05 1.14296 1.66676 0
M  V30 11385 C 1061.37 -0.310493 1.92512 0
M  V30 11386 O 1060.64 -1.21637 1.53562 0
M  V30 11387 H 1059.22 0.419994 0.617749 0
M  V30 11388 H 1061.88 1.60449 1.10644 0
M  V30 11389 H 1060.97 1.67654 2.63246 0
M  V30 11390 N 1061.28 -1.12907 1.09954 0
M  V30 11391 C 1062.5 -1.88138 0.860905 0
M  V30 11392 C 1062.92 -1.79402 -0.588256 0
M  V30 11393 O 1062.28 -1.16442 -1.40526 0
M  V30 11394 C 1062.33 -3.37537 1.29425 0
M  V30 11395 O 1062.05 -3.46056 2.68658 0
M  V30 11396 C 1063.55 -4.29721 1.08879 0
M  V30 11397 H 1060.77 -0.595437 0.309347 0
M  V30 11398 H 1063.31 -1.42894 1.46292 0
M  V30 11399 H 1061.47 -3.80344 0.736009 0
M  V30 11400 H 1061.88 -4.38969 2.87065 0
M  V30 11401 H 1063.36 -5.32854 1.4412 0
M  V30 11402 H 1063.83 -4.39192 0.0270053 0
M  V30 11403 H 1064.44 -3.9269 1.63325 0
M  V30 11404 N 1062.75 -0.88754 -1.30232 0
M  V30 11405 C 1064.17 -0.581904 -1.48614 0
M  V30 11406 C 1064.37 0.879711 -1.81282 0
M  V30 11407 O 1063.43 1.66076 -1.90198 0
M  V30 11408 C 1064.74 -1.49726 -2.60773 0
M  V30 11409 C 1066.29 -1.50117 -2.74653 0
M  V30 11410 C 1066.76 -2.40251 -3.89927 0
M  V30 11411 N 1068.25 -2.38229 -3.97242 0
M  V30 11412 C 1068.99 -3.04682 -4.85754 0
M  V30 11413 N 1068.48 -3.80369 -5.79043 0
M  V30 11414 N 1070.28 -2.93901 -4.79144 0
M  V30 11415 H 1062.43 -1.83304 -1.073 0
M  V30 11416 H 1064.69 -0.78477 -0.531826 0
M  V30 11417 H 1064.4 -2.5381 -2.43462 0
M  V30 11418 H 1064.27 -1.20874 -3.57308 0
M  V30 11419 H 1066.66 -0.467832 -2.91368 0
M  V30 11420 H 1066.74 -1.83001 -1.7873 0
M  V30 11421 H 1066.38 -3.43671 -3.73969 0
M  V30 11422 H 1066.31 -2.04682 -4.85194 0
M  V30 11423 H 1068.8 -1.83229 -3.30508 0
M  V30 11424 H 1069.12 -4.28159 -6.4335 0
M  V30 11425 H 1067.46 -3.84477 -5.78967 0
M  V30 11426 H 1070.65 -2.34296 -4.05245 0
M  V30 11427 H 1070.83 -3.45967 -5.47915 0
M  V30 11428 N 1064.23 1.43628 -0.648757 0
M  V30 11429 C 1065.14 2.34554 0.0463037 0
M  V30 11430 C 1066.16 1.53629 0.816952 0
M  V30 11431 O 1067.33 1.86297 0.765212 0
M  V30 11432 C 1064.4 3.3185 1.00381 0
M  V30 11433 C 1063.46 4.2868 0.230589 0
M  V30 11434 C 1062.69 5.21328 1.14249 0
M  V30 11435 O 1062.92 5.18298 2.38166 0
M  V30 11436 O 1061.85 5.98726 0.617296 0
M  V30 11437 H 1065.68 2.95475 -0.702008 0
M  V30 11438 H 1063.26 1.43694 -0.408942 0
M  V30 11439 H 1065.14 3.91692 1.5542 0
M  V30 11440 H 1063.82 2.73439 1.73243 0
M  V30 11441 H 1062.73 3.72332 -0.363282 0
M  V30 11442 H 1064.06 4.90061 -0.458368 0
M  V30 11443 N 1065.71 0.390394 1.52688 0
M  V30 11444 C 1066.94 -0.191485 2.06012 0
M  V30 11445 C 1067.35 -1.40422 1.26202 0
M  V30 11446 O 1066.71 -1.79866 0.308963 0
M  V30 11447 C 1066.76 -0.560521 3.57128 0
M  V30 11448 O 1066.48 0.60404 4.33916 0
M  V30 11449 C 1067.98 -1.19814 4.26801 0
M  V30 11450 H 1065.2 -0.0286311 0.670389 0
M  V30 11451 H 1067.75 0.555939 1.96798 0
M  V30 11452 H 1065.9 -1.25784 3.66411 0
M  V30 11453 H 1066.32 0.300467 5.23639 0
M  V30 11454 H 1067.79 -1.40672 5.33775 0
M  V30 11455 H 1068.27 -2.16582 3.82085 0
M  V30 11456 H 1068.87 -0.541558 4.21838 0
M  V30 11457 N 1067.19 -1.57141 0.120249 0
M  V30 11458 C 1068.12 -2.18398 -0.826112 0
M  V30 11459 C 1069.1 -1.12439 -1.27638 0
M  V30 11460 O 1070.28 -1.40679 -1.33877 0
M  V30 11461 C 1067.41 -2.78438 -2.0758 0
M  V30 11462 C 1066.37 -3.89991 -1.76327 0
M  V30 11463 C 1065.69 -4.36844 -3.08336 0
M  V30 11464 C 1066.99 -5.12031 -1.03062 0
M  V30 11465 H 1068.69 -2.97731 -0.315656 0
M  V30 11466 H 1066.23 -1.43213 -0.150387 0
M  V30 11467 H 1068.19 -3.19951 -2.74243 0
M  V30 11468 H 1066.91 -1.96396 -2.60953 0
M  V30 11469 H 1065.57 -3.49055 -1.12053 0
M  V30 11470 H 1065.22 -3.51659 -3.59646 0
M  V30 11471 H 1064.92 -5.1207 -2.88199 0
M  V30 11472 H 1066.44 -4.81009 -3.76116 0
M  V30 11473 H 1067.86 -5.50555 -1.59881 0
M  V30 11474 H 1066.25 -5.92848 -0.930146 0
M  V30 11475 H 1067.32 -4.84897 -0.017582 0
M  V30 11476 N 1068.67 0.153526 -1.5685 0
M  V30 11477 C 1069.89 0.886343 -1.87507 0
M  V30 11478 C 1070.32 1.74244 -0.708565 0
M  V30 11479 O 1069.67 1.78045 0.341997 0
M  V30 11480 C 1069.72 1.72428 -3.16703 0
M  V30 11481 O 1068.83 2.82784 -3.00178 0
M  V30 11482 H 1068.17 0.247259 -0.616246 0
M  V30 11483 H 1070.7 0.146306 -2.04076 0
M  V30 11484 H 1070.71 2.12062 -3.4856 0
M  V30 11485 H 1069.38 1.09558 -4.01211 0
M  V30 11486 H 1067.96 2.46604 -2.79716 0
M  V30 11487 N 1070.14 1.51827 0.422667 0
M  V30 11488 C 1071.56 1.40328 0.760275 0
M  V30 11489 C 1071.76 0.497119 1.95272 0
M  V30 11490 O 1070.82 -0.0422083 2.52465 0
M  V30 11491 C 1072.13 2.82622 1.02689 0
M  V30 11492 C 1073.68 2.91874 1.13044 0
M  V30 11493 C 1074.15 4.35107 1.4299 0
M  V30 11494 N 1075.64 4.3828 1.49883 0
M  V30 11495 C 1076.38 5.46153 1.74655 0
M  V30 11496 N 1075.87 6.64165 1.9712 0
M  V30 11497 N 1077.67 5.33651 1.76558 0
M  V30 11498 H 1069.82 2.09285 -0.362455 0
M  V30 11499 H 1072.08 0.94273 -0.0998161 0
M  V30 11500 H 1071.79 3.50991 0.223226 0
M  V30 11501 H 1071.66 3.22844 1.95068 0
M  V30 11502 H 1074.05 2.23694 1.92471 0
M  V30 11503 H 1074.13 2.55128 0.185326 0
M  V30 11504 H 1073.77 5.03841 0.640848 0
M  V30 11505 H 1073.7 4.69377 2.38731 0
M  V30 11506 H 1076.19 3.53206 1.34366 0
M  V30 11507 H 1076.51 7.42165 2.15434 0
M  V30 11508 H 1074.85 6.67255 1.94413 0
M  V30 11509 H 1078.04 4.40436 1.58536 0
M  V30 11510 H 1078.22 6.17798 1.95525 0
M  V30 11511 N 1071.62 -0.679052 1.4222 0
M  V30 11512 C 1072.57 -1.78522 1.41824 0
M  V30 11513 C 1073.56 -1.58262 0.290179 0
M  V30 11514 O 1074.75 -1.68813 0.532092 0
M  V30 11515 C 1071.88 -3.16952 1.31895 0
M  V30 11516 C 1070.96 -3.42849 2.4963 0
M  V30 11517 N 1071.35 -3.39354 3.75063 0
M  V30 11518 C 1069.65 -3.73468 2.43799 0
M  V30 11519 C 1070.35 -3.64617 4.53243 0
M  V30 11520 N 1069.33 -3.85174 3.83591 0
M  V30 11521 H 1073.13 -1.74206 2.36705 0
M  V30 11522 H 1070.65 -0.879719 1.36509 0
M  V30 11523 H 1072.64 -3.96214 1.29693 0
M  V30 11524 H 1071.3 -3.22467 0.380127 0
M  V30 11525 H 1072.31 -3.19354 4.07718 0
M  V30 11526 H 1068.99 -3.86254 1.58474 0
M  V30 11527 H 1070.38 -3.67912 5.62219 0
M  V30 11528 N 1073.1 -1.28322 -0.914942 0
M  V30 11529 C 1074.34 -1.16657 -1.6784 0
M  V30 11530 C 1074.7 0.280473 -1.8994 0
M  V30 11531 O 1075.91 0.519801 -2.63726 0
M  V30 11532 C 1074.18 -1.94185 -3.00045 0
M  V30 11533 S 1075.74 -1.98881 -3.91141 0
M  V30 11534 H 1072.55 -0.416232 -0.57643 0
M  V30 11535 H 1075.16 -1.62405 -1.08834 0
M  V30 11536 H 1073.86 -2.98488 -2.81661 0
M  V30 11537 H 1073.39 -1.48982 -3.64099 0
M  V30 11538 H 1075.41 -1.09445 -4.8398 0
M  V30 11539 N 1074.58 1.12322 -1.10551 0
M  V30 11540 C 1075.81 1.87679 -0.87087 0
M  V30 11541 C 1076.22 1.79711 0.578733 0
M  V30 11542 O 1075.58 1.17185 1.39907 0
M  V30 11543 C 1075.63 3.36846 -1.31213 0
M  V30 11544 O 1075.35 3.44626 -2.70489 0
M  V30 11545 C 1076.85 4.29138 -1.11156 0
M  V30 11546 H 1074.07 0.593788 -0.3125 0
M  V30 11547 H 1076.62 1.42116 -1.47048 0
M  V30 11548 H 1074.77 3.79948 -0.756169 0
M  V30 11549 H 1075.18 4.37441 -2.89389 0
M  V30 11550 H 1076.66 5.32082 -1.46944 0
M  V30 11551 H 1077.14 4.39171 -0.0502963 0
M  V30 11552 H 1077.74 3.91818 -1.65405 0
M  V30 11553 N 1076.06 0.894434 1.2976 0
M  V30 11554 C 1077.28 0.532916 1.99919 0
M  V30 11555 C 1077.7 -0.881022 1.66983 0
M  V30 11556 O 1077.06 -1.58076 0.912035 0
M  V30 11557 C 1077.11 0.70936 3.54472 0
M  V30 11558 O 1076.83 2.06764 3.86239 0
M  V30 11559 C 1078.33 0.352089 4.419 0
M  V30 11560 H 1075.55 0.205019 0.638912 0
M  V30 11561 H 1078.09 1.20233 1.65421 0
M  V30 11562 H 1076.25 0.0871901 3.87302 0
M  V30 11563 H 1076.66 2.09315 4.80924 0
M  V30 11564 H 1078.14 0.526405 5.49484 0
M  V30 11565 H 1078.61 -0.710527 4.33415 0
M  V30 11566 H 1079.22 0.950979 4.14532 0
M  V30 11567 N 1077.53 -1.43282 0.656365 0
M  V30 11568 C 1078.46 -2.33492 -0.0196962 0
M  V30 11569 C 1079.45 -1.49647 -0.80868 0
M  V30 11570 O 1080.63 -1.78303 -0.769529 0
M  V30 11571 C 1077.76 -3.33052 -0.984574 0
M  V30 11572 C 1076.71 -4.26908 -0.305483 0
M  V30 11573 C 1076.04 -5.16531 -1.38202 0
M  V30 11574 C 1077.34 -5.16073 0.804081 0
M  V30 11575 H 1079.03 -2.90272 0.733661 0
M  V30 11576 H 1076.58 -1.39574 0.354259 0
M  V30 11577 H 1078.53 -3.9506 -1.46647 0
M  V30 11578 H 1077.26 -2.74535 -1.76913 0
M  V30 11579 H 1075.92 -3.66268 0.155995 0
M  V30 11580 H 1075.56 -4.54351 -2.1581 0
M  V30 11581 H 1075.26 -5.80148 -0.932878 0
M  V30 11582 H 1076.79 -5.81414 -1.86522 0
M  V30 11583 H 1078.2 -5.71873 0.404212 0
M  V30 11584 H 1076.6 -5.88427 1.17789 0
M  V30 11585 H 1077.67 -4.55574 1.66073 0
M  V30 11586 N 1079.01 -0.398486 -1.52479 0
M  V30 11587 C 1080.26 0.180394 -2.01293 0
M  V30 11588 C 1080.58 1.46548 -1.28641 0
M  V30 11589 O 1079.85 1.91579 -0.409173 0
M  V30 11590 H 1078.43 0.0696528 -0.743746 0
M  V30 11591 H 1081.09 -0.532285 -1.87491 0
M  V30 11592 H 1080.19 0.38409 -3.09728 0
M  V30 11593 N 1080.49 1.57075 -0.12858 0
M  V30 11594 C 1081.77 1.87075 0.571162 0
M  V30 11595 C 1082.15 1.03141 1.84188 0
M  V30 11596 O 1081.5 0.113001 2.2822 0
M  V30 11597 C 1081.71 3.3838 0.854383 0
M  V30 11598 C 1083.05 4.07194 1.20326 0
M  V30 11599 O 1084.08 3.43454 0.944338 0
M  V30 11600 O 1082.94 5.19725 1.68963 0
M  V30 11601 H 1080.03 0.774764 0.289258 0
M  V30 11602 H 1082.58 1.68908 -0.163806 0
M  V30 11603 H 1081.35 3.91273 -0.0456925 0
M  V30 11604 H 1080.97 3.62012 1.64418 0
M  V30 11605 N 1081.97 -0.145205 1.5693 0
M  V30 11606 C 1082.93 -1.16316 1.97492 0
M  V30 11607 C 1083.93 -1.35764 0.861668 0
M  V30 11608 O 1085.12 -1.32726 1.12825 0
M  V30 11609 C 1082.25 -2.52311 2.29242 0
M  V30 11610 H 1083.45 -0.815138 2.8861 0
M  V30 11611 H 1081 -0.38861 1.51392 0
M  V30 11612 H 1081.74 -2.92081 1.40922 0
M  V30 11613 H 1081.52 -2.39555 3.10412 0
M  V30 11614 H 1083.01 -3.25624 2.61456 0
M  V30 11615 N 1083.45 -1.52049 -0.414609 0
M  V30 11616 C 1084.38 -1.77956 -1.51175 0
M  V30 11617 C 1085.36 -0.630282 -1.57992 0
M  V30 11618 O 1086.54 -0.875324 -1.73354 0
M  V30 11619 C 1083.67 -1.92527 -2.89051 0
M  V30 11620 C 1082.63 -3.08096 -2.97087 0
M  V30 11621 C 1081.95 -3.07882 -4.37164 0
M  V30 11622 C 1083.25 -4.47656 -2.69075 0
M  V30 11623 H 1084.95 -2.69827 -1.29746 0
M  V30 11624 H 1082.49 -1.29839 -0.62273 0
M  V30 11625 H 1084.45 -2.09234 -3.65786 0
M  V30 11626 H 1083.17 -0.973235 -3.11762 0
M  V30 11627 H 1081.83 -2.91131 -2.22797 0
M  V30 11628 H 1081.48 -2.10411 -4.56877 0
M  V30 11629 H 1081.18 -3.85501 -4.43467 0
M  V30 11630 H 1082.7 -3.26712 -5.15841 0
M  V30 11631 H 1084.12 -4.64855 -3.35534 0
M  V30 11632 H 1082.51 -5.27151 -2.8676 0
M  V30 11633 H 1083.58 -4.56129 -1.64544 0
M  V30 11634 N 1084.93 0.6715 -1.42579 0
M  V30 11635 C 1086.34 0.985019 -1.25577 0
M  V30 11636 C 1086.54 2.00845 -0.162319 0
M  V30 11637 O 1085.6 2.48175 0.465352 0
M  V30 11638 C 1086.91 1.48668 -2.61377 0
M  V30 11639 C 1088.46 1.60429 -2.68759 0
M  V30 11640 C 1088.93 2.13991 -4.04935 0
M  V30 11641 N 1090.42 2.21319 -4.06906 0
M  V30 11642 C 1091.16 2.63845 -5.09091 0
M  V30 11643 N 1090.66 3.05799 -6.21658 0
M  V30 11644 N 1092.45 2.63623 -4.96447 0
M  V30 11645 H 1084.6 -0.00604561 -2.12399 0
M  V30 11646 H 1086.86 0.0598299 -0.94611 0
M  V30 11647 H 1086.57 0.80917 -3.42265 0
M  V30 11648 H 1086.44 2.46487 -2.85524 0
M  V30 11649 H 1088.83 2.27286 -1.88216 0
M  V30 11650 H 1088.91 0.610909 -2.48398 0
M  V30 11651 H 1088.55 1.47741 -4.85937 0
M  V30 11652 H 1088.48 3.14126 -4.2265 0
M  V30 11653 H 1090.98 1.91743 -3.25643 0
M  V30 11654 H 1091.29 3.36944 -6.95477 0
M  V30 11655 H 1089.63 3.03648 -6.25158 0
M  V30 11656 H 1092.82 2.30211 -4.07579 0
M  V30 11657 H 1093 2.96444 -5.76216 0
M  V30 11658 N 1086.4 1.28806 0.908124 0
M  V30 11659 C 1087.35 1.13215 2.01125 0
M  V30 11660 C 1088.32 0.0277357 1.66077 0
M  V30 11661 O 1089.51 0.193707 1.89814 0
M  V30 11662 C 1086.65 0.805887 3.35558 0
M  V30 11663 C 1085.76 1.9899 3.83441 0
M  V30 11664 C 1084.89 1.60376 5.06412 0
M  V30 11665 C 1083.93 2.75409 5.46641 0
M  V30 11666 N 1083.07 2.37249 6.60801 0
M  V30 11667 H 1087.91 2.07598 2.13792 0
M  V30 11668 H 1085.45 1.03316 1.0471 0
M  V30 11669 H 1087.4 0.597451 4.129 0
M  V30 11670 H 1086.03 -0.101023 3.22642 0
M  V30 11671 H 1085.09 2.31029 3.02208 0
M  V30 11672 H 1086.4 2.85214 4.09212 0
M  V30 11673 H 1085.55 1.35772 5.91313 0
M  V30 11674 H 1084.29 0.712888 4.82462 0
M  V30 11675 H 1083.3 3.00705 4.60279 0
M  V30 11676 H 1084.52 3.65148 5.72577 0
M  V30 11677 H 1082.47 1.50638 6.3847 0
M  V30 11678 H 1082.38 3.17008 6.86325 0
M  V30 11679 H 1083.65 2.15943 7.48992 0
M  V30 11680 N 1087.88 -1.11734 1.11145 0
M  V30 11681 C 1088.79 -2.21267 0.779607 0
M  V30 11682 C 1089.81 -1.72526 -0.225986 0
M  V30 11683 O 1090.98 -2.01302 -0.0629166 0
M  V30 11684 C 1088.05 -3.45973 0.22435 0
M  V30 11685 C 1087.11 -4.09518 1.28816 0
M  V30 11686 C 1086.34 -5.28271 0.7593 0
M  V30 11687 O 1086.57 -5.68912 -0.411725 0
M  V30 11688 O 1085.5 -5.82322 1.52266 0
M  V30 11689 H 1089.33 -2.5206 1.6941 0
M  V30 11690 H 1086.91 -1.20211 0.887115 0
M  V30 11691 H 1088.79 -4.21322 -0.0810921 0
M  V30 11692 H 1087.47 -3.1684 -0.662891 0
M  V30 11693 H 1086.37 -3.35915 1.64657 0
M  V30 11694 H 1087.71 -4.42824 2.14868 0
M  V30 11695 N 1089.36 -0.901303 -1.29284 0
M  V30 11696 C 1090.31 -0.370142 -2.29636 0
M  V30 11697 C 1091.3 0.53157 -1.60844 0
M  V30 11698 O 1092.51 0.414194 -1.7517 0
M  V30 11699 H 1088.88 -0.101072 -0.745177 0
M  V30 11700 H 1090.85 -1.22985 -2.71877 0
M  V30 11701 C 1089.6 0.385806 -3.45553 0
M  V30 11702 H 1088.93 -0.298818 -3.98682 0
M  V30 11703 H 1090.37 0.722299 -4.17802 0
M  V30 11704 C 1088.82 1.58907 -2.97069 0
M  V30 11705 O 1089.35 2.68835 -2.98481 0
M  V30 11706 N 1087.56 1.43178 -2.5288 0
M  V30 11707 H 1087.11 0.537467 -2.51931 0
M  V30 11708 H 1087.07 2.23819 -2.208 0
M  V30 11709 N 1090.84 1.42931 -0.663954 0
M  V30 11710 C 1092.11 1.95284 -0.111174 0
M  V30 11711 C 1092.49 1.60484 1.37142 0
M  V30 11712 O 1091.84 0.895425 2.10225 0
M  V30 11713 C 1092.05 3.47046 -0.368789 0
M  V30 11714 C 1093.4 4.23679 -0.279473 0
M  V30 11715 O 1094.42 3.54918 -0.301937 0
M  V30 11716 O 1093.28 5.46087 -0.21236 0
M  V30 11717 H 1090.38 0.826993 0.00341718 0
M  V30 11718 H 1092.92 1.52816 -0.737935 0
M  V30 11719 H 1091.7 3.65541 -1.39626 0
M  V30 11720 H 1091.32 3.96537 0.290514 0
M  V30 11721 N 1092.32 0.406567 1.52266 0
M  V30 11722 C 1093.56 -0.170053 2.01785 0
M  V30 11723 C 1093.89 -1.45361 1.2923 0
M  V30 11724 O 1093.15 -1.91849 0.386342 0
M  V30 11725 C 1093.44 -0.467124 3.54334 0
M  V30 11726 C 1093.11 0.72693 4.45002 0
M  V30 11727 C 1091.77 1.05446 4.69505 0
M  V30 11728 C 1094.12 1.52493 4.98393 0
M  V30 11729 C 1091.45 2.18123 5.44646 0
M  V30 11730 C 1093.8 2.64244 5.74768 0
M  V30 11731 C 1092.47 2.97486 5.97544 0
M  V30 11732 H 1091.74 -0.0622267 0.738383 0
M  V30 11733 H 1094.39 0.54746 1.83508 0
M  V30 11734 H 1092.69 -1.26617 3.70777 0
M  V30 11735 H 1094.39 -0.926194 3.90157 0
M  V30 11736 H 1090.98 0.461666 4.26106 0
M  V30 11737 H 1095.16 1.28512 4.79373 0
M  V30 11738 H 1090.42 2.44228 5.60502 0
M  V30 11739 H 1094.59 3.26468 6.15136 0
M  V30 11740 H 1092.22 3.84913 6.5555 0
M  V30 11741 N 1093.79 -1.57004 0.136909 0
M  V30 11742 C 1094.76 -2.15066 -0.792419 0
M  V30 11743 C 1095.76 -1.08991 -1.18226 0
M  V30 11744 O 1096.95 -1.34681 -1.10484 0
M  V30 11745 C 1094.08 -2.70554 -2.07397 0
M  V30 11746 H 1095.27 -2.98519 -0.28752 0
M  V30 11747 H 1092.83 -1.55895 -0.112469 0
M  V30 11748 H 1093.56 -1.90739 -2.62277 0
M  V30 11749 H 1093.35 -3.48149 -1.80374 0
M  V30 11750 H 1094.84 -3.15322 -2.73792 0
M  V30 11751 N 1095.27 0.136881 -1.57004 0
M  V30 11752 C 1096.2 1.17026 -2.02057 0
M  V30 11753 C 1097.18 1.44223 -0.901866 0
M  V30 11754 O 1098.37 1.54971 -1.17037 0
M  V30 11755 C 1095.5 2.50095 -2.40977 0
M  V30 11756 C 1094.45 2.37398 -3.56127 0
M  V30 11757 C 1093.78 3.75268 -3.80891 0
M  V30 11758 C 1095.08 1.84952 -4.88457 0
M  V30 11759 H 1096.77 0.795601 -2.88636 0
M  V30 11760 H 1094.32 0.381266 -1.38861 0
M  V30 11761 H 1096.27 3.22621 -2.71097 0
M  V30 11762 H 1095 2.89416 -1.51348 0
M  V30 11763 H 1093.65 1.67322 -3.26188 0
M  V30 11764 H 1093.3 4.12043 -2.88496 0
M  V30 11765 H 1093 3.67631 -4.5839 0
M  V30 11766 H 1094.53 4.49327 -4.13446 0
M  V30 11767 H 1095.94 2.4728 -5.17229 0
M  V30 11768 H 1094.34 1.88181 -5.69832 0
M  V30 11769 H 1095.41 0.805848 -4.78157 0
M  V30 11770 N 1096.75 1.52266 0.40654 0
M  V30 11771 C 1098 1.6568 1.15035 0
M  V30 11772 C 1098.31 0.394135 1.91588 0
M  V30 11773 O 1099.52 0.408113 2.68415 0
M  V30 11774 C 1097.97 2.92725 2.0938 0
M  V30 11775 C 1097.58 4.26108 1.38332 0
M  V30 11776 C 1099.33 3.15502 2.84004 0
M  V30 11777 C 1097.23 5.44275 2.3134 0
M  V30 11778 H 1096.16 0.61719 0.43312 0
M  V30 11779 H 1098.81 1.78755 0.414598 0
M  V30 11780 H 1097.2 2.73355 2.86519 0
M  V30 11781 H 1098.37 4.55971 0.665396 0
M  V30 11782 H 1096.69 4.09454 0.757384 0
M  V30 11783 H 1099.28 4.00964 3.5374 0
M  V30 11784 H 1099.63 2.29842 3.471 0
M  V30 11785 H 1100.16 3.35357 2.13964 0
M  V30 11786 H 1096.9 6.3229 1.72887 0
M  V30 11787 H 1096.42 5.18749 3.01098 0
M  V30 11788 H 1098.1 5.77457 2.91809 0
M  V30 11789 N 1098.23 -0.663929 1.42933 0
M  V30 11790 C 1099.48 -1.41973 1.43271 0
M  V30 11791 C 1099.79 -1.95518 0.0566103 0
M  V30 11792 O 1101 -2.71428 -0.0625862 0
M  V30 11793 C 1099.45 -2.56882 2.52071 0
M  V30 11794 C 1099.06 -2.0999 3.95737 0
M  V30 11795 C 1100.8 -3.34322 2.61589 0
M  V30 11796 C 1098.71 -3.22046 4.96025 0
M  V30 11797 H 1097.64 -0.5334 0.532917 0
M  V30 11798 H 1100.29 -0.717709 1.68882 0
M  V30 11799 H 1098.67 -3.29504 2.19643 0
M  V30 11800 H 1099.85 -1.44449 4.37574 0
M  V30 11801 H 1098.16 -1.45459 3.90168 0
M  V30 11802 H 1100.76 -4.17796 3.33692 0
M  V30 11803 H 1101.1 -3.8164 1.66302 0
M  V30 11804 H 1101.64 -2.68775 2.93266 0
M  V30 11805 H 1098.38 -2.79708 5.92827 0
M  V30 11806 H 1097.9 -3.86333 4.5881 0
M  V30 11807 H 1099.57 -3.87345 5.1824 0
M  V30 11808 N 1099.71 -1.29285 -0.901281 0
M  V30 11809 C 1100.98 -1.07847 -1.63182 0
M  V30 11810 C 1101.36 0.377927 -2.07689 0
M  V30 11811 O 1100.71 1.36642 -1.83143 0
M  V30 11812 C 1100.92 -2.06457 -2.81383 0
M  V30 11813 C 1102.27 -2.37289 -3.52107 0
M  V30 11814 O 1103.29 -2.0464 -2.91549 0
M  V30 11815 O 1102.15 -2.93067 -4.61274 0
M  V30 11816 H 1099.25 -0.413073 -0.71645 0
M  V30 11817 H 1101.79 -1.40651 -0.949488 0
M  V30 11818 H 1100.56 -3.04561 -2.4568 0
M  V30 11819 H 1100.19 -1.74374 -3.57323 0
M  V30 11820 N 1101.18 1.11143 -1.11736 0
M  V30 11821 C 1102.43 1.82586 -0.866412 0
M  V30 11822 C 1102.75 1.85227 0.609593 0
M  V30 11823 O 1102.02 1.32505 1.44288 0
M  V30 11824 H 1100.6 0.676149 -0.31754 0
M  V30 11825 H 1103.27 1.34516 -1.41037 0
M  V30 11826 H 1102.36 2.8635 -1.24136 0
M  V30 11827 N 1102.66 0.908147 1.28804 0
M  V30 11828 C 1103.61 0.390734 2.27468 0
M  V30 11829 C 1104.58 -0.531765 1.57358 0
M  V30 11830 O 1105.76 -0.455177 1.85291 0
M  V30 11831 C 1102.9 -0.368159 3.43131 0
M  V30 11832 C 1102.02 0.586202 4.28004 0
M  V30 11833 C 1101.15 -0.190581 5.30858 0
M  V30 11834 C 1100.19 0.757758 6.07391 0
M  V30 11835 N 1099.33 0.0148488 7.02098 0
M  V30 11836 H 1104.17 1.23717 2.71105 0
M  V30 11837 H 1101.71 0.621382 1.33331 0
M  V30 11838 H 1103.66 -0.824289 4.08976 0
M  V30 11839 H 1102.29 -1.17898 3.00499 0
M  V30 11840 H 1101.35 1.16086 3.62254 0
M  V30 11841 H 1102.66 1.31177 4.81242 0
M  V30 11842 H 1101.81 -0.707528 6.0256 0
M  V30 11843 H 1100.55 -0.949234 4.78373 0
M  V30 11844 H 1099.56 1.28613 5.34545 0
M  V30 11845 H 1100.78 1.51588 6.61965 0
M  V30 11846 H 1098.73 -0.725916 6.51971 0
M  V30 11847 H 1098.64 0.680347 7.52932 0
M  V30 11848 H 1099.91 -0.482086 7.78008 0
M  V30 11849 N 1104.14 -1.42577 0.671525 0
M  V30 11850 C 1105.37 -2.05924 0.200731 0
M  V30 11851 C 1105.78 -1.50434 -1.14083 0
M  V30 11852 O 1105.14 -0.642845 -1.70803 0
M  V30 11853 C 1105.19 -3.61289 0.123505 0
M  V30 11854 O 1104.91 -4.1472 1.41205 0
M  V30 11855 C 1106.41 -4.41743 -0.371178 0
M  V30 11856 H 1103.63 -0.663746 0.0983958 0
M  V30 11857 H 1106.18 -1.82771 0.917338 0
M  V30 11858 H 1104.33 -3.83565 -0.543769 0
M  V30 11859 H 1104.75 -5.0856 1.28325 0
M  V30 11860 H 1106.22 -5.50731 -0.374128 0
M  V30 11861 H 1106.7 -4.16092 -1.40585 0
M  V30 11862 H 1107.3 -4.24478 0.264244 0
M  V30 11863 N 1105.62 -0.414636 -1.52048 0
M  V30 11864 C 1106.55 0.399119 -2.30064 0
M  V30 11865 C 1107.53 1.04126 -1.34506 0
M  V30 11866 O 1108.71 1.04923 -1.63416 0
M  V30 11867 C 1105.84 1.51305 -3.12608 0
M  V30 11868 C 1104.8 0.995621 -4.16259 0
M  V30 11869 C 1104.12 2.20357 -4.87183 0
M  V30 11870 C 1105.42 0.0458178 -5.2228 0
M  V30 11871 H 1107.12 -0.251879 -2.98339 0
M  V30 11872 H 1104.66 -0.122579 -1.43477 0
M  V30 11873 H 1106.62 2.08936 -3.65956 0
M  V30 11874 H 1105.34 2.19201 -2.42113 0
M  V30 11875 H 1104 0.441676 -3.6393 0
M  V30 11876 H 1103.65 2.8682 -4.13211 0
M  V30 11877 H 1103.35 1.86385 -5.57256 0
M  V30 11878 H 1104.87 2.78584 -5.43345 0
M  V30 11879 H 1106.29 0.531102 -5.70835 0
M  V30 11880 H 1104.68 -0.20536 -5.99749 0
M  V30 11881 H 1105.75 -0.897807 -4.76516 0
M  V30 11882 N 1107.1 1.56929 -0.145233 0
M  V30 11883 C 1108.04 2.16671 0.795128 0
M  V30 11884 C 1109.01 1.09908 1.24537 0
M  V30 11885 O 1110.2 1.37941 1.31821 0
M  V30 11886 C 1107.34 2.79111 2.02956 0
M  V30 11887 C 1106.45 4.00261 1.62528 0
M  V30 11888 C 1105.59 4.50705 2.81137 0
M  V30 11889 C 1104.63 5.64324 2.37075 0
M  V30 11890 N 1103.76 6.09395 3.48687 0
M  V30 11891 H 1108.6 2.96692 0.278865 0
M  V30 11892 H 1106.14 1.4656 0.125934 0
M  V30 11893 H 1108.1 3.13456 2.7532 0
M  V30 11894 H 1106.73 2.01737 2.51996 0
M  V30 11895 H 1105.78 3.71906 0.799365 0
M  V30 11896 H 1107.09 4.8258 1.26166 0
M  V30 11897 H 1106.25 4.87096 3.61693 0
M  V30 11898 H 1104.98 3.67389 3.20744 0
M  V30 11899 H 1103.99 5.27511 1.54958 0
M  V30 11900 H 1105.21 6.49425 1.98556 0
M  V30 11901 H 1103.16 5.29014 3.87917 0
M  V30 11902 H 1103.08 6.86636 3.16333 0
M  V30 11903 H 1104.35 6.50431 4.29605 0
M  V30 11904 N 1108.58 -0.128553 1.57075 0
M  V30 11905 C 1109.81 -0.851214 1.8825 0
M  V30 11906 C 1110.21 -1.74402 0.733531 0
M  V30 11907 O 1109.56 -1.81149 -0.305108 0
M  V30 11908 C 1109.62 -1.74451 3.14336 0
M  V30 11909 C 1109.28 -1.02699 4.45311 0
M  V30 11910 C 1110.28 -0.37224 5.18566 0
M  V30 11911 C 1107.96 -1.01101 4.9202 0
M  V30 11912 C 1109.96 0.2889 6.36745 0
M  V30 11913 C 1107.65 -0.346063 6.10119 0
M  V30 11914 C 1108.64 0.302744 6.82329 0
M  V30 11915 O 1108.33 0.9571 7.98182 0
M  V30 11916 H 1108.06 -0.250529 0.627863 0
M  V30 11917 H 1110.62 -0.120418 2.05047 0
M  V30 11918 H 1108.85 -2.51671 2.93596 0
M  V30 11919 H 1110.54 -2.34075 3.31608 0
M  V30 11920 H 1111.3 -0.376271 4.83538 0
M  V30 11921 H 1107.18 -1.50543 4.35727 0
M  V30 11922 H 1110.73 0.795901 6.93045 0
M  V30 11923 H 1106.62 -0.339762 6.44605 0
M  V30 11924 H 1107.39 0.860616 8.13963 0
M  V30 11925 N 1110.05 -1.5248 -0.398459 0
M  V30 11926 C 1111.02 -1.75949 -1.46883 0
M  V30 11927 C 1112.02 -0.629431 -1.47969 0
M  V30 11928 O 1113.21 -0.897407 -1.49306 0
M  V30 11929 C 1110.34 -1.85162 -2.8623 0
M  V30 11930 H 1111.53 -2.71513 -1.2736 0
M  V30 11931 H 1109.08 -1.43058 -0.629619 0
M  V30 11932 H 1109.82 -0.915505 -3.11109 0
M  V30 11933 H 1109.6 -2.67326 -2.86844 0
M  V30 11934 H 1111.09 -2.05025 -3.63805 0
M  V30 11935 N 1111.53 0.65634 -1.43283 0
M  V30 11936 C 1112.46 1.78101 -1.51004 0
M  V30 11937 C 1113.44 1.66138 -0.36498 0
M  V30 11938 O 1114.63 1.85281 -0.581778 0
M  V30 11939 C 1111.76 3.16511 -1.42961 0
M  V30 11940 C 1110.71 3.43233 -2.55685 0
M  V30 11941 C 1110.04 4.81411 -2.32696 0
M  V30 11942 C 1111.34 3.38288 -3.97943 0
M  V30 11943 H 1113.03 1.71896 -2.45137 0
M  V30 11944 H 1110.58 0.825575 -1.17984 0
M  V30 11945 H 1112.53 3.94941 -1.46968 0
M  V30 11946 H 1111.25 3.23439 -0.45332 0
M  V30 11947 H 1109.91 2.67173 -2.51026 0
M  V30 11948 H 1109.56 4.85011 -1.33317 0
M  V30 11949 H 1109.26 5.00251 -3.08257 0
M  V30 11950 H 1110.79 5.62102 -2.38481 0
M  V30 11951 H 1112.2 4.06659 -4.04106 0
M  V30 11952 H 1110.6 3.68664 -4.73505 0
M  V30 11953 H 1111.67 2.36525 -4.23301 0
M  V30 11954 N 1113.01 1.29761 0.894412 0
M  V30 11955 C 1114.24 1.2094 1.67872 0
M  V30 11956 C 1114.65 -0.229192 1.87404 0
M  V30 11957 O 1114.01 -1.15278 1.41482 0
M  V30 11958 C 1114.06 1.92424 3.06032 0
M  V30 11959 O 1113.78 3.30665 2.87388 0
M  V30 11960 C 1115.28 1.90144 4.0045 0
M  V30 11961 H 1112.5 0.418942 0.524145 0
M  V30 11962 H 1115.05 1.71226 1.11813 0
M  V30 11963 H 1113.2 1.4596 3.58851 0
M  V30 11964 H 1113.62 3.66741 3.74969 0
M  V30 11965 H 1115.09 2.44716 4.94791 0
M  V30 11966 H 1115.57 0.878175 4.30331 0
M  V30 11967 H 1116.17 2.36375 3.53563 0
M  V30 11968 N 1114.49 -1.10549 1.12324 0
M  V30 11969 C 1115.73 -1.82485 0.877817 0
M  V30 11970 C 1116.06 -1.85131 -0.596373 0
M  V30 11971 O 1115.32 -1.30675 -1.45679 0
M  V30 11972 C 1115.62 -3.28997 1.39626 0
M  V30 11973 C 1115.28 -3.465 2.88529 0
M  V30 11974 C 1113.94 -3.50984 3.29186 0
M  V30 11975 C 1116.3 -3.51991 3.84385 0
M  V30 11976 C 1113.62 -3.58525 4.6441 0
M  V30 11977 C 1115.98 -3.61065 5.19437 0
M  V30 11978 C 1114.64 -3.63813 5.5964 0
M  V30 11979 H 1113.91 -0.667758 0.321216 0
M  V30 11980 H 1116.56 -1.30314 1.40323 0
M  V30 11981 H 1114.86 -3.83726 0.791291 0
M  V30 11982 H 1116.56 -3.83165 1.18259 0
M  V30 11983 H 1113.15 -3.43686 2.56082 0
M  V30 11984 H 1117.33 -3.47777 3.54069 0
M  V30 11985 H 1112.59 -3.58934 4.94951 0
M  V30 11986 H 1116.76 -3.64257 5.9354 0
M  V30 11987 H 1114.39 -3.69409 6.6441 0
M  V30 11988 N 1115.97 -0.914965 -1.28321 0
M  V30 11989 C 1117.21 -0.547665 -1.94538 0
M  V30 11990 C 1117.53 0.911834 -1.72368 0
M  V30 11991 O 1116.8 1.64481 -1.06408 0
M  V30 11992 H 1115.38 -0.199549 -0.719853 0
M  V30 11993 H 1118.05 -1.16459 -1.5628 0
M  V30 11994 H 1117.14 -0.743138 -3.03124 0
M  V30 11995 N 1117.44 1.42219 -0.679077 0
M  V30 11996 C 1118.69 2.01777 -0.20342 0
M  V30 11997 C 1119.02 1.53592 1.18841 0
M  V30 11998 O 1118.3 0.739954 1.79875 0
M  V30 11999 C 1118.58 3.59281 -0.242791 0
M  V30 12000 C 1118.43 4.17634 -1.67038 0
M  V30 12001 C 1119.75 4.38218 0.406624 0
M  V30 12002 H 1116.87 0.733134 -0.0753916 0
M  V30 12003 H 1119.51 1.69185 -0.864673 0
M  V30 12004 H 1117.66 3.87178 0.320248 0
M  V30 12005 H 1119.34 4.00674 -2.286 0
M  V30 12006 H 1117.58 3.73301 -2.20973 0
M  V30 12007 H 1118.25 5.26776 -1.64958 0
M  V30 12008 H 1120.73 4.16036 -0.0727077 0
M  V30 12009 H 1119.6 5.47793 0.348457 0
M  V30 12010 H 1119.86 4.16418 1.48487 0
M  V30 12011 N 1118.92 0.422693 1.51826 0
M  V30 12012 C 1120.34 0.0742364 1.59427 0
M  V30 12013 C 1120.54 -1.41491 1.43466 0
M  V30 12014 O 1119.59 -2.18326 1.26846 0
M  V30 12015 C 1120.91 0.581272 2.95028 0
M  V30 12016 C 1122.45 0.54043 3.08299 0
M  V30 12017 C 1122.93 1.0242 4.46401 0
M  V30 12018 N 1124.42 0.981576 4.5268 0
M  V30 12019 C 1125.16 1.32693 5.57835 0
M  V30 12020 N 1124.65 1.74441 6.70479 0
M  V30 12021 N 1126.44 1.24603 5.48115 0
M  V30 12022 H 1118.6 1.39178 1.60447 0
M  V30 12023 H 1120.86 0.572607 0.75553 0
M  V30 12024 H 1120.56 1.62261 3.12032 0
M  V30 12025 H 1120.44 -0.00176969 3.772 0
M  V30 12026 H 1122.83 -0.491895 2.90971 0
M  V30 12027 H 1122.91 1.15969 2.28002 0
M  V30 12028 H 1122.55 2.05491 4.64474 0
M  V30 12029 H 1122.48 0.381613 5.25215 0
M  V30 12030 H 1124.97 0.674808 3.71826 0
M  V30 12031 H 1125.28 1.99068 7.46721 0
M  V30 12032 H 1123.63 1.78356 6.71725 0
M  V30 12033 H 1126.82 0.918641 4.58997 0
M  V30 12034 H 1126.99 1.51847 6.29958 0
M  V30 12035 N 1120.4 -1.5685 0.153553 0
M  V30 12036 C 1121.33 -2.14231 -0.814729 0
M  V30 12037 C 1122.34 -1.09339 -1.20619 0
M  V30 12038 O 1123.53 -1.36592 -1.14913 0
M  V30 12039 C 1120.63 -2.6555 -2.10562 0
M  V30 12040 C 1119.81 -3.94912 -1.8805 0
M  V30 12041 C 1118.87 -4.31476 -3.0119 0
M  V30 12042 O 1117.89 -4.9968 -2.72596 0
M  V30 12043 N 1119.09 -3.91588 -4.28531 0
M  V30 12044 H 1121.86 -2.9794 -0.324277 0
M  V30 12045 H 1119.42 -1.61873 -0.0298087 0
M  V30 12046 H 1121.41 -2.87019 -2.85311 0
M  V30 12047 H 1119.98 -1.86529 -2.5085 0
M  V30 12048 H 1119.2 -3.82002 -0.973024 0
M  V30 12049 H 1120.49 -4.79433 -1.70356 0
M  V30 12050 H 1119.89 -3.36645 -4.54628 0
M  V30 12051 H 1118.44 -4.18095 -5.00039 0
M  V30 12052 N 1121.88 0.120221 -1.57141 0
M  V30 12053 C 1123.11 0.841219 -1.88698 0
M  V30 12054 C 1123.52 1.7401 -0.74277 0
M  V30 12055 O 1122.86 1.81308 0.295497 0
M  V30 12056 C 1122.92 1.72781 -3.15257 0
M  V30 12057 C 1122.58 1.00336 -4.45849 0
M  V30 12058 C 1123.58 0.344734 -5.18756 0
M  V30 12059 C 1121.27 0.984899 -4.9255 0
M  V30 12060 C 1123.26 -0.322664 -6.36583 0
M  V30 12061 C 1120.95 0.313702 -6.10294 0
M  V30 12062 C 1121.95 -0.338926 -6.82159 0
M  V30 12063 O 1121.63 -0.999416 -7.97663 0
M  V30 12064 H 1121.37 0.247195 -0.629182 0
M  V30 12065 H 1123.92 0.109542 -2.05108 0
M  V30 12066 H 1122.15 2.5011 -2.94927 0
M  V30 12067 H 1123.84 2.32313 -3.32845 0
M  V30 12068 H 1124.6 0.350623 -4.83731 0
M  V30 12069 H 1120.48 1.4823 -4.36519 0
M  V30 12070 H 1124.03 -0.832643 -6.92613 0
M  V30 12071 H 1119.92 0.305572 -6.44776 0
M  V30 12072 H 1120.69 -0.90377 -8.13495 0
M  V30 12073 N 1123.36 1.52689 0.390367 0
M  V30 12074 C 1124.6 1.67666 1.13553 0
M  V30 12075 C 1124.93 0.415903 1.90001 0
M  V30 12076 O 1124.19 -0.601664 1.86222 0
M  V30 12077 C 1124.49 2.86177 2.14096 0
M  V30 12078 C 1124.15 4.23671 1.54316 0
M  V30 12079 C 1122.81 4.61066 1.37739 0
M  V30 12080 C 1125.17 5.09278 1.1084 0
M  V30 12081 C 1122.49 5.81727 0.76231 0
M  V30 12082 C 1124.85 6.30562 0.507433 0
M  V30 12083 C 1123.51 6.66689 0.328945 0
M  V30 12084 H 1122.78 0.613533 0.415521 0
M  V30 12085 H 1125.43 1.8683 0.420339 0
M  V30 12086 H 1123.73 2.61424 2.9183 0
M  V30 12087 H 1125.43 2.9496 2.7166 0
M  V30 12088 H 1122.02 3.94214 1.68207 0
M  V30 12089 H 1126.2 4.80957 1.2245 0
M  V30 12090 H 1121.46 6.08327 0.612208 0
M  V30 12091 H 1125.63 6.96211 0.162248 0
M  V30 12092 H 1123.26 7.60052 -0.149748 0
M  V30 12093 N 1124.83 -0.648732 1.43629 0
M  V30 12094 C 1125.76 -1.77298 1.51947 0
M  V30 12095 C 1126.75 -1.65942 0.373785 0
M  V30 12096 O 1127.93 -1.8497 0.591596 0
M  V30 12097 C 1125.06 -3.15749 1.44638 0
M  V30 12098 C 1124.01 -3.41872 2.57502 0
M  V30 12099 C 1123.34 -4.8017 2.35246 0
M  V30 12100 C 1124.64 -3.36173 3.99731 0
M  V30 12101 H 1126.33 -1.70594 2.46045 0
M  V30 12102 H 1123.88 -0.819306 1.1842 0
M  V30 12103 H 1125.83 -3.94156 1.4906 0
M  V30 12104 H 1124.56 -3.23194 0.470466 0
M  V30 12105 H 1123.22 -2.65838 2.5244 0
M  V30 12106 H 1122.86 -4.84297 1.35887 0
M  V30 12107 H 1122.56 -4.9861 3.10906 0
M  V30 12108 H 1124.09 -5.6083 2.41459 0
M  V30 12109 H 1125.5 -4.0451 4.06257 0
M  V30 12110 H 1123.9 -3.66148 4.75453 0
M  V30 12111 H 1124.97 -2.34277 4.24549 0
M  V30 12112 N 1126.31 -1.30234 -0.887518 0
M  V30 12113 C 1127.59 -1.09572 -1.62029 0
M  V30 12114 C 1127.97 0.355877 -2.08079 0
M  V30 12115 O 1127.32 1.34692 -1.84582 0
M  V30 12116 C 1127.53 -2.0943 -2.79177 0
M  V30 12117 C 1128.88 -2.4101 -3.4957 0
M  V30 12118 O 1129.9 -2.0772 -2.89363 0
M  V30 12119 O 1128.76 -2.97943 -4.5814 0
M  V30 12120 H 1125.85 -0.420648 -0.712028 0
M  V30 12121 H 1128.4 -1.41651 -0.934517 0
M  V30 12122 H 1127.17 -3.07149 -2.42436 0
M  V30 12123 H 1126.79 -1.78154 -3.55453 0
M  V30 12124 N 1127.79 1.09952 -1.12909 0
M  V30 12125 C 1128.72 2.18477 -0.824014 0
M  V30 12126 C 1129.7 1.68744 0.214324 0
M  V30 12127 O 1130.89 1.94057 0.0744281 0
M  V30 12128 C 1128.02 3.46143 -0.283308 0
M  V30 12129 C 1126.97 4.09178 -1.25528 0
M  V30 12130 C 1126.3 5.31604 -0.574574 0
M  V30 12131 C 1127.6 4.52308 -2.6118 0
M  V30 12132 H 1129.29 2.44254 -1.73148 0
M  V30 12133 H 1126.84 1.17394 -0.833952 0
M  V30 12134 H 1128.79 4.21361 -0.057583 0
M  V30 12135 H 1127.51 3.19872 0.659525 0
M  V30 12136 H 1126.17 3.35973 -1.4669 0
M  V30 12137 H 1125.82 5.01611 0.37356 0
M  V30 12138 H 1125.52 5.74732 -1.22299 0
M  V30 12139 H 1127.04 6.0955 -0.358004 0
M  V30 12140 H 1128.46 5.18776 -2.44017 0
M  V30 12141 H 1126.86 5.06302 -3.22147 0
M  V30 12142 H 1127.93 3.64977 -3.19249 0
M  V30 12143 N 1129.27 0.921757 1.27833 0
M  V30 12144 C 1130.23 0.420978 2.25301 0
M  V30 12145 C 1131.23 -0.457158 1.54165 0
M  V30 12146 O 1132.42 -0.259079 1.72263 0
M  V30 12147 C 1129.55 -0.395501 3.38598 0
M  V30 12148 H 1130.75 1.28206 2.71115 0
M  V30 12149 H 1128.3 0.701893 1.39654 0
M  V30 12150 H 1129.03 -1.27565 2.98157 0
M  V30 12151 H 1128.82 0.234029 3.91401 0
M  V30 12152 H 1130.31 -0.736444 4.11055 0
M  V30 12153 N 1130.75 -1.41857 0.686609 0
M  V30 12154 C 1131.68 -2.33481 0.0298353 0
M  V30 12155 C 1132.66 -1.51329 -0.776756 0
M  V30 12156 O 1133.84 -1.79895 -0.731535 0
M  V30 12157 C 1130.97 -3.35065 -0.913707 0
M  V30 12158 C 1129.93 -4.2746 -0.214861 0
M  V30 12159 C 1129.25 -5.19346 -1.27215 0
M  V30 12160 C 1130.55 -5.14252 0.913367 0
M  V30 12161 H 1132.25 -2.8865 0.795067 0
M  V30 12162 H 1129.79 -1.38792 0.383785 0
M  V30 12163 H 1131.75 -3.98082 -1.38234 0
M  V30 12164 H 1130.47 -2.78226 -1.7105 0
M  V30 12165 H 1129.13 -3.65855 0.233651 0
M  V30 12166 H 1128.78 -4.58827 -2.06124 0
M  V30 12167 H 1128.48 -5.81996 -0.80961 0
M  V30 12168 H 1130 -5.85239 -1.74147 0
M  V30 12169 H 1131.41 -5.70887 0.525424 0
M  V30 12170 H 1129.81 -5.85796 1.30244 0
M  V30 12171 H 1130.88 -4.51949 1.75699 0
M  V30 12172 N 1132.22 -0.430739 -1.51599 0
M  V30 12173 C 1133.45 0.139197 -2.06932 0
M  V30 12174 C 1133.87 1.3626 -1.29672 0
M  V30 12175 O 1133.23 1.78219 -0.332836 0
M  V30 12176 C 1133.28 0.446593 -3.57824 0
M  V30 12177 O 1132.38 1.53414 -3.82803 0
M  V30 12178 H 1131.73 0.00475812 -0.663983 0
M  V30 12179 H 1134.26 -0.610171 -1.9529 0
M  V30 12180 H 1134.27 0.698972 -4.01968 0
M  V30 12181 H 1132.94 -0.447613 -4.13484 0
M  V30 12182 H 1131.52 1.27224 -3.50526 0
M  V30 12183 N 1133.7 1.56767 -0.161869 0
M  V30 12184 C 1134.94 1.98487 0.488067 0
M  V30 12185 C 1135.31 1.04527 1.61053 0
M  V30 12186 O 1136.51 1.35351 2.32236 0
M  V30 12187 C 1134.78 3.44057 0.967446 0
M  V30 12188 S 1136.34 4.07805 1.61989 0
M  V30 12189 H 1133.16 0.693377 0.157318 0
M  V30 12190 H 1135.76 1.93802 -0.257099 0
M  V30 12191 H 1134.46 4.10161 0.139959 0
M  V30 12192 H 1133.99 3.52488 1.74688 0
M  V30 12193 H 1136.01 4.02078 2.90772 0
M  V30 12194 N 1135.18 -0.111886 1.57202 0
M  V30 12195 C 1136.13 -1.13688 2.00858 0
M  V30 12196 C 1137.1 -1.40752 0.881939 0
M  V30 12197 O 1138.28 -1.52498 1.14669 0
M  V30 12198 C 1135.42 -2.45641 2.42393 0
M  V30 12199 C 1134.54 -2.25452 3.68504 0
M  V30 12200 C 1133.67 -3.50686 3.9899 0
M  V30 12201 C 1132.71 -3.25685 5.18262 0
M  V30 12202 N 1131.85 -4.4314 5.44583 0
M  V30 12203 H 1136.69 -0.757611 2.88209 0
M  V30 12204 H 1134.22 -0.362582 1.42561 0
M  V30 12205 H 1136.18 -3.22627 2.64514 0
M  V30 12206 H 1134.81 -2.81447 1.58074 0
M  V30 12207 H 1133.86 -1.39349 3.53958 0
M  V30 12208 H 1135.18 -2.0296 4.55641 0
M  V30 12209 H 1134.33 -4.36087 4.21797 0
M  V30 12210 H 1133.07 -3.76216 3.10343 0
M  V30 12211 H 1132.07 -2.38675 4.95292 0
M  V30 12212 H 1133.3 -3.01518 6.08493 0
M  V30 12213 H 1131.24 -4.68778 4.58893 0
M  V30 12214 H 1131.16 -4.23778 6.26058 0
M  V30 12215 H 1132.43 -5.29654 5.71915 0
M  V30 12216 N 1136.66 -1.52894 -0.382264 0
M  V30 12217 C 1137.62 -1.77497 -1.45008 0
M  V30 12218 C 1138.62 -0.64509 -1.47293 0
M  V30 12219 O 1139.81 -0.913192 -1.48346 0
M  V30 12220 C 1136.94 -1.88188 -2.8425 0
M  V30 12221 H 1138.14 -2.72849 -1.24473 0
M  V30 12222 H 1135.69 -1.43717 -0.61441 0
M  V30 12223 H 1136.42 -0.948451 -3.10121 0
M  V30 12224 H 1136.21 -2.70353 -2.83992 0
M  V30 12225 H 1137.7 -2.08873 -3.6161 0
M  V30 12226 N 1138.14 0.641106 -1.43971 0
M  V30 12227 C 1139.38 1.40291 -1.46445 0
M  V30 12228 C 1139.72 1.93978 -0.0929004 0
M  V30 12229 O 1138.99 1.73043 0.888043 0
M  V30 12230 C 1139.27 2.57551 -2.51673 0
M  V30 12231 C 1139.13 2.09279 -3.98149 0
M  V30 12232 C 1140.45 3.59752 -2.53508 0
M  V30 12233 H 1137.57 0.508771 -0.533218 0
M  V30 12234 H 1140.21 0.725767 -1.75592 0
M  V30 12235 H 1138.36 3.15319 -2.2695 0
M  V30 12236 H 1140.03 1.56418 -4.33971 0
M  V30 12237 H 1138.27 1.40545 -4.10402 0
M  V30 12238 H 1138.94 2.93655 -4.67409 0
M  V30 12239 H 1141.42 3.11766 -2.75574 0
M  V30 12240 H 1140.3 4.39332 -3.29057 0
M  V30 12241 H 1140.56 4.13156 -1.57335 0
M  V30 12242 N 1139.62 1.30703 0.880598 0
M  V30 12243 C 1140.86 1.19142 1.62752 0
M  V30 12244 C 1141.18 -0.251795 1.93973 0
M  V30 12245 O 1142.38 -0.488971 2.67061 0
M  V30 12246 C 1140.84 2.08503 2.93351 0
M  V30 12247 C 1140.45 3.57758 2.69653 0
M  V30 12248 C 1142.19 2.05715 3.71324 0
M  V30 12249 C 1140.1 4.39161 3.96096 0
M  V30 12250 H 1139.03 0.442332 0.610622 0
M  V30 12251 H 1141.68 1.55483 0.974547 0
M  V30 12252 H 1140.06 1.65049 3.59965 0
M  V30 12253 H 1141.24 4.09388 2.11513 0
M  V30 12254 H 1139.55 3.62414 2.0505 0
M  V30 12255 H 1142.15 2.63783 4.65105 0
M  V30 12256 H 1142.49 1.04168 4.03057 0
M  V30 12257 H 1143.02 2.47313 3.11579 0
M  V30 12258 H 1139.76 5.4142 3.69519 0
M  V30 12259 H 1139.28 3.92293 4.53725 0
M  V30 12260 H 1140.96 4.50823 4.64077 0
M  V30 12261 N 1141.09 -1.09351 1.1349 0
M  V30 12262 C 1142.33 -1.83156 0.907372 0
M  V30 12263 C 1142.7 -1.8376 -0.556441 0
M  V30 12264 O 1143.9 -2.5323 -0.90156 0
M  V30 12265 C 1142.17 -3.25315 1.48004 0
M  V30 12266 S 1143.73 -4.16113 1.39268 0
M  V30 12267 H 1140.55 -0.631319 0.327043 0
M  V30 12268 H 1143.15 -1.31509 1.44657 0
M  V30 12269 H 1141.85 -3.22452 2.53876 0
M  V30 12270 H 1141.38 -3.82034 0.938822 0
M  V30 12271 H 1143.4 -4.94806 0.371645 0
M  V30 12272 N 1142.57 -0.928524 -1.27343 0
M  V30 12273 C 1143.81 -0.576696 -1.96096 0
M  V30 12274 C 1144.18 0.866074 -1.71357 0
M  V30 12275 O 1145.38 1.32621 -2.33805 0
M  V30 12276 C 1143.65 -0.894692 -3.4602 0
M  V30 12277 S 1145.21 -0.651503 -4.33936 0
M  V30 12278 H 1142.02 -0.212847 -0.678393 0
M  V30 12279 H 1144.63 -1.19714 -1.5456 0
M  V30 12280 H 1143.33 -1.94239 -3.61524 0
M  V30 12281 H 1142.86 -0.263478 -3.92517 0
M  V30 12282 H 1144.88 0.490314 -4.93772 0
M  V30 12283 N 1144.05 1.41491 -0.694123 0
M  V30 12284 C 1145.47 1.55358 -0.365532 0
M  V30 12285 C 1145.67 1.66994 1.12762 0
M  V30 12286 O 1144.72 1.64756 1.91342 0
M  V30 12287 C 1146.03 2.79352 -1.11279 0
M  V30 12288 C 1147.58 2.93147 -1.097 0
M  V30 12289 C 1148.06 4.20027 -1.82597 0
M  V30 12290 N 1149.55 4.26981 -1.7956 0
M  V30 12291 C 1150.28 5.24013 -2.32805 0
M  V30 12292 N 1149.78 6.27083 -2.94515 0
M  V30 12293 N 1151.57 5.15943 -2.23069 0
M  V30 12294 H 1143.72 1.32183 -1.66257 0
M  V30 12295 H 1145.99 0.637624 -0.701527 0
M  V30 12296 H 1145.69 2.76958 -2.16765 0
M  V30 12297 H 1145.57 3.70827 -0.690439 0
M  V30 12298 H 1147.95 2.95057 -0.0504037 0
M  V30 12299 H 1148.03 2.02849 -1.55839 0
M  V30 12300 H 1147.68 4.18878 -2.87235 0
M  V30 12301 H 1147.61 5.09294 -1.33893 0
M  V30 12302 H 1150.1 3.53129 -1.34567 0
M  V30 12303 H 1150.41 6.97511 -3.32714 0
M  V30 12304 H 1148.76 6.27589 -2.98592 0
M  V30 12305 H 1151.95 4.34346 -1.74532 0
M  V30 12306 H 1152.12 5.91396 -2.64868 0
M  V30 12307 N 1145.53 0.438773 1.51369 0
M  V30 12308 C 1146.77 -0.127401 2.02399 0
M  V30 12309 C 1147.11 -1.42235 1.32223 0
M  V30 12310 O 1146.38 -1.89513 0.437607 0
M  V30 12311 C 1146.66 -0.344673 3.58447 0
M  V30 12312 C 1146.52 0.969027 4.39238 0
M  V30 12313 C 1147.84 -1.11381 4.25773 0
M  V30 12314 H 1144.96 -0.0448281 0.735635 0
M  V30 12315 H 1147.6 0.57805 1.80993 0
M  V30 12316 H 1145.75 -0.945582 3.76817 0
M  V30 12317 H 1147.42 1.60403 4.32514 0
M  V30 12318 H 1145.66 1.57329 4.04265 0
M  V30 12319 H 1146.33 0.771029 5.46589 0
M  V30 12320 H 1148.81 -0.604785 4.11681 0
M  V30 12321 H 1147.69 -1.23459 5.34835 0
M  V30 12322 H 1147.95 -2.14225 3.8673 0
M  V30 12323 N 1147.01 -1.56678 0.170181 0
M  V30 12324 C 1148.23 -2.0166 -0.484543 0
M  V30 12325 C 1148.66 -1.04962 -1.56091 0
M  V30 12326 O 1148.01 -0.0289887 -1.81277 0
M  V30 12327 C 1148.06 -3.45252 -1.04084 0
M  V30 12328 O 1147.17 -3.51623 -2.15488 0
M  V30 12329 H 1146.51 -0.653765 -0.116135 0
M  V30 12330 H 1149.04 -2.02761 0.273737 0
M  V30 12331 H 1149.05 -3.84534 -1.36373 0
M  V30 12332 H 1147.72 -4.15131 -0.252738 0
M  V30 12333 H 1146.3 -3.242 -1.84252 0
M  V30 12334 N 1148.48 0.103547 -1.57259 0
M  V30 12335 C 1149.89 0.659006 -1.74683 0
M  V30 12336 C 1150.25 1.79542 -0.791142 0
M  V30 12337 O 1149.37 2.16376 0.0323585 0
M  V30 12338 C 1149.97 1.20222 -3.16752 0
M  V30 12339 C 1148.52 1.70382 -3.35629 0
M  V30 12340 C 1147.67 0.609886 -2.7051 0
M  V30 12341 H 1150.62 -0.122474 -1.58227 0
M  V30 12342 H 1150.64 2.07169 -3.19157 0
M  V30 12343 H 1150.16 0.374901 -3.86285 0
M  V30 12344 H 1148.26 2.55542 -2.71162 0
M  V30 12345 H 1148.37 1.80263 -4.43894 0
M  V30 12346 H 1146.73 1.04728 -2.32173 0
M  V30 12347 H 1147.52 -0.206713 -3.42677 0
M  V30 12348 N 1149.96 1.53094 0.37415 0
M  V30 12349 C 1150.89 1.81901 1.46404 0
M  V30 12350 C 1151.87 0.671949 1.56265 0
M  V30 12351 O 1153.06 0.920978 1.70973 0
M  V30 12352 C 1150.19 2.00123 2.83845 0
M  V30 12353 C 1149.14 3.15864 2.88814 0
M  V30 12354 C 1148.47 3.19364 4.28848 0
M  V30 12355 C 1149.77 4.54633 2.57112 0
M  V30 12356 H 1151.46 2.73172 1.22546 0
M  V30 12357 H 1149.01 1.31444 0.588087 0
M  V30 12358 H 1150.96 2.18859 3.6011 0
M  V30 12359 H 1149.68 1.05555 3.09072 0
M  V30 12360 H 1148.34 2.96935 2.15 0
M  V30 12361 H 1147.99 2.2245 4.51137 0
M  V30 12362 H 1147.69 3.97123 4.3309 0
M  V30 12363 H 1149.22 3.40273 5.06997 0
M  V30 12364 H 1150.63 4.73587 3.23091 0
M  V30 12365 H 1149.03 5.34569 2.72683 0
M  V30 12366 H 1150.1 4.60331 1.52392 0
M  V30 12367 N 1151.44 -0.633461 1.44309 0
M  V30 12368 C 1152.37 -1.75868 1.4698 0
M  V30 12369 C 1153.38 -1.58691 0.363469 0
M  V30 12370 O 1154.57 -1.67048 0.629075 0
M  V30 12371 C 1151.67 -3.1356 1.28582 0
M  V30 12372 C 1150.85 -3.57217 2.52418 0
M  V30 12373 C 1149.91 -4.73779 2.28954 0
M  V30 12374 O 1148.93 -4.8221 3.02428 0
M  V30 12375 N 1150.13 -5.65324 1.31866 0
M  V30 12376 H 1152.9 -1.74048 2.43983 0
M  V30 12377 H 1150.46 -0.817952 1.39718 0
M  V30 12378 H 1152.45 -3.89255 1.10736 0
M  V30 12379 H 1151.02 -3.10036 0.399529 0
M  V30 12380 H 1150.24 -2.71755 2.85557 0
M  V30 12381 H 1151.53 -3.83136 3.3479 0
M  V30 12382 H 1150.93 -5.61204 0.71179 0
M  V30 12383 H 1149.48 -6.40659 1.19998 0
M  V30 12384 N 1152.92 -1.31168 -0.873655 0
M  V30 12385 C 1153.87 -1.18507 -1.98052 0
M  V30 12386 C 1154.84 -0.0717583 -1.65945 0
M  V30 12387 O 1156.02 -0.243965 -1.89234 0
M  V30 12388 C 1153.16 -0.894571 -3.33304 0
M  V30 12389 C 1152.27 -2.09086 -3.7803 0
M  V30 12390 C 1151.41 -1.73747 -5.01982 0
M  V30 12391 C 1150.45 -2.89805 -5.39147 0
M  V30 12392 N 1149.58 -2.54686 -6.54278 0
M  V30 12393 H 1154.42 -2.13193 -2.08213 0
M  V30 12394 H 1151.96 -1.06056 -1.01934 0
M  V30 12395 H 1153.92 -0.706714 -4.11171 0
M  V30 12396 H 1152.55 0.0154449 -3.22796 0
M  V30 12397 H 1151.6 -2.38961 -2.95976 0
M  V30 12398 H 1152.91 -2.95963 -4.01506 0
M  V30 12399 H 1152.07 -1.51402 -5.87505 0
M  V30 12400 H 1150.81 -0.840553 -4.80402 0
M  V30 12401 H 1149.81 -3.12803 -4.52144 0
M  V30 12402 H 1151.04 -3.802 -5.62694 0
M  V30 12403 H 1148.98 -1.67513 -6.34252 0
M  V30 12404 H 1148.9 -3.35093 -6.77679 0
M  V30 12405 H 1150.17 -2.35725 -7.43003 0
M  V30 12406 N 1154.4 1.08748 -1.14068 0
M  V30 12407 C 1155.62 1.85353 -0.930532 0
M  V30 12408 C 1156.05 1.80892 0.515717 0
M  V30 12409 O 1155.4 1.19146 1.36652 0
M  V30 12410 C 1155.45 3.30962 -1.43167 0
M  V30 12411 O 1154.56 4.0769 -0.621468 0
M  V30 12412 H 1153.9 0.574485 -0.332962 0
M  V30 12413 H 1156.43 1.37282 -1.51707 0
M  V30 12414 H 1156.44 3.81807 -1.43832 0
M  V30 12415 H 1155.11 3.33524 -2.48464 0
M  V30 12416 H 1153.69 3.66587 -0.683267 0
M  V30 12417 N 1155.87 0.935264 1.26849 0
M  V30 12418 C 1156.78 0.446122 2.30319 0
M  V30 12419 C 1157.8 -0.476965 1.67335 0
M  V30 12420 O 1158.98 -0.357934 1.98194 0
M  V30 12421 C 1156.04 -0.286297 3.45516 0
M  V30 12422 C 1155.1 0.672626 4.23998 0
M  V30 12423 C 1154.34 -0.0249345 5.33694 0
M  V30 12424 O 1154.56 -1.24296 5.56693 0
M  V30 12425 O 1153.49 0.650752 5.98372 0
M  V30 12426 H 1157.32 1.30546 2.74211 0
M  V30 12427 H 1154.9 0.70091 1.31938 0
M  V30 12428 H 1156.79 -0.699109 4.1556 0
M  V30 12429 H 1155.46 -1.12112 3.03665 0
M  V30 12430 H 1154.37 1.13527 3.56458 0
M  V30 12431 H 1155.7 1.47489 4.69583 0
M  V30 12432 N 1157.35 -1.41121 0.701616 0
M  V30 12433 C 1158.6 -2.01428 0.235495 0
M  V30 12434 C 1158.93 -1.55463 -1.16382 0
M  V30 12435 O 1158.21 -0.768477 -1.78675 0
M  V30 12436 C 1158.49 -3.58849 0.299919 0
M  V30 12437 C 1158.34 -4.14924 1.73661 0
M  V30 12438 C 1159.66 -4.38809 -0.336856 0
M  V30 12439 H 1156.78 -0.731842 0.0870456 0
M  V30 12440 H 1159.42 -1.67787 0.891479 0
M  V30 12441 H 1157.57 -3.87638 -0.258611 0
M  V30 12442 H 1159.24 -3.96987 2.34945 0
M  V30 12443 H 1157.49 -3.69738 2.26884 0
M  V30 12444 H 1158.16 -5.24085 1.73318 0
M  V30 12445 H 1160.63 -4.15868 0.138886 0
M  V30 12446 H 1159.51 -5.48278 -0.261264 0
M  V30 12447 H 1159.77 -4.18728 -1.41843 0
M  V30 12448 N 1158.83 -0.446794 -1.51134 0
M  V30 12449 C 1160.08 0.116666 -2.02464 0
M  V30 12450 C 1160.41 1.41532 -1.32975 0
M  V30 12451 O 1159.68 1.89278 -0.447651 0
M  V30 12452 C 1159.97 0.325659 -3.58624 0
M  V30 12453 C 1159.82 -0.992307 -4.38718 0
M  V30 12454 C 1161.14 1.09121 -4.26357 0
M  V30 12455 H 1158.26 0.0409262 -0.735863 0
M  V30 12456 H 1160.9 -0.587641 -1.80684 0
M  V30 12457 H 1159.05 0.925585 -3.77313 0
M  V30 12458 H 1160.72 -1.62694 -4.31658 0
M  V30 12459 H 1158.97 -1.5947 -4.03425 0
M  V30 12460 H 1159.64 -0.800005 -5.46172 0
M  V30 12461 H 1162.11 0.582944 -4.11996 0
M  V30 12462 H 1160.99 1.20621 -5.35483 0
M  V30 12463 H 1161.25 2.12171 -3.87861 0
M  V30 12464 N 1160.31 1.56586 -0.178487 0
M  V30 12465 C 1161.22 2.21903 0.761321 0
M  V30 12466 C 1162.23 1.21289 1.2476 0
M  V30 12467 O 1163.41 1.53974 1.29823 0
M  V30 12468 C 1160.48 2.85259 1.97048 0
M  V30 12469 C 1159.54 4.01095 1.53039 0
M  V30 12470 C 1158.77 4.61421 2.68191 0
M  V30 12471 O 1158.99 4.20644 3.85247 0
M  V30 12472 O 1157.93 5.51171 2.41855 0
M  V30 12473 H 1161.75 3.02788 0.235141 0
M  V30 12474 H 1159.34 1.49316 0.0500442 0
M  V30 12475 H 1161.22 3.25404 2.6775 0
M  V30 12476 H 1159.89 2.07366 2.48558 0
M  V30 12477 H 1158.8 3.65606 0.792661 0
M  V30 12478 H 1160.13 4.80603 1.06213 0
M  V30 12479 N 1161.79 -0.095206 1.57312 0
M  V30 12480 C 1162.72 -1.14662 1.97301 0
M  V30 12481 C 1163.7 -1.38845 0.846212 0
M  V30 12482 O 1164.88 -1.52607 1.1065 0
M  V30 12483 C 1162.01 -2.49582 2.28968 0
M  V30 12484 C 1161.05 -2.41681 3.51415 0
M  V30 12485 S 1161.89 -1.83343 5.03136 0
M  V30 12486 C 1163.04 -3.19888 5.3798 0
M  V30 12487 H 1163.28 -0.805726 2.86174 0
M  V30 12488 H 1160.81 -0.302881 1.514 0
M  V30 12489 H 1162.77 -3.27202 2.47889 0
M  V30 12490 H 1161.43 -2.80841 1.40667 0
M  V30 12491 H 1160.62 -3.41122 3.71015 0
M  V30 12492 H 1160.22 -1.7219 3.32004 0
M  V30 12493 H 1162.52 -4.16161 5.34618 0
M  V30 12494 H 1163.46 -3.05093 6.39002 0
M  V30 12495 H 1163.87 -3.19414 4.6544 0
M  V30 12496 N 1163.26 -1.53291 -0.366026 0
M  V30 12497 C 1164.51 -1.69702 -1.11036 0
M  V30 12498 C 1164.84 -0.44728 -1.88979 0
M  V30 12499 O 1164.12 0.55542 -1.86401 0
M  V30 12500 C 1164.4 -2.94661 -2.06995 0
M  V30 12501 C 1164.25 -4.29791 -1.32663 0
M  V30 12502 C 1165.57 -3.15219 -3.07123 0
M  V30 12503 H 1162.69 -0.617525 -0.402284 0
M  V30 12504 H 1165.33 -1.85929 -0.391223 0
M  V30 12505 H 1163.48 -2.80958 -2.68318 0
M  V30 12506 H 1165.16 -4.55305 -0.741266 0
M  V30 12507 H 1163.4 -4.29223 -0.628484 0
M  V30 12508 H 1164.07 -5.13359 -2.02896 0
M  V30 12509 H 1166.55 -3.28105 -2.55903 0
M  V30 12510 H 1165.42 -4.04088 -3.71489 0
M  V30 12511 H 1165.68 -2.30479 -3.77269 0
M  V30 12512 N 1164.74 0.6258 -1.44643 0
M  V30 12513 C 1165.69 1.73751 -1.51919 0
M  V30 12514 C 1166.66 1.62007 -0.36647 0
M  V30 12515 O 1167.84 1.81852 -0.577439 0
M  V30 12516 C 1164.98 3.12015 -1.47448 0
M  V30 12517 C 1164.1 3.34696 -2.73135 0
M  V30 12518 C 1163.23 4.62962 -2.6046 0
M  V30 12519 C 1162.27 4.7884 -3.81286 0
M  V30 12520 N 1161.41 5.98388 -3.67255 0
M  V30 12521 H 1166.25 1.66867 -2.46899 0
M  V30 12522 H 1163.79 0.813921 -1.22531 0
M  V30 12523 H 1165.74 3.91983 -1.42846 0
M  V30 12524 H 1164.37 3.179 -0.560312 0
M  V30 12525 H 1163.43 2.4863 -2.87901 0
M  V30 12526 H 1164.74 3.42306 -3.62806 0
M  V30 12527 H 1163.89 5.51099 -2.53722 0
M  V30 12528 H 1162.63 4.57719 -1.68359 0
M  V30 12529 H 1161.64 3.89131 -3.88403 0
M  V30 12530 H 1162.86 4.85893 -4.74431 0
M  V30 12531 H 1160.81 5.94224 -2.77909 0
M  V30 12532 H 1160.72 6.07078 -4.50547 0
M  V30 12533 H 1161.99 6.89072 -3.64417 0
M  V30 12534 N 1166.22 1.31629 0.866686 0
M  V30 12535 C 1167.17 1.19556 1.97421 0
M  V30 12536 C 1168.14 0.0805578 1.65905 0
M  V30 12537 O 1169.32 0.253997 1.89102 0
M  V30 12538 C 1166.46 0.912234 3.32825 0
M  V30 12539 C 1165.58 2.11088 3.76916 0
M  V30 12540 C 1164.71 1.76406 5.01053 0
M  V30 12541 C 1163.75 2.9266 5.37602 0
M  V30 12542 N 1162.89 2.58152 6.52918 0
M  V30 12543 H 1167.73 2.14294 2.0708 0
M  V30 12544 H 1165.26 1.06595 1.0137 0
M  V30 12545 H 1167.22 0.72851 4.1079 0
M  V30 12546 H 1165.85 0.00167404 3.228 0
M  V30 12547 H 1164.9 2.40527 2.94705 0
M  V30 12548 H 1166.22 2.98089 3.99931 0
M  V30 12549 H 1165.37 1.54515 5.86694 0
M  V30 12550 H 1164.11 0.866018 4.79949 0
M  V30 12551 H 1163.11 3.15196 4.50479 0
M  V30 12552 H 1164.34 3.83179 5.6067 0
M  V30 12553 H 1162.28 1.70874 6.33355 0
M  V30 12554 H 1162.2 3.38682 6.75892 0
M  V30 12555 H 1163.47 2.39662 7.41743 0
M  V30 12556 N 1167.7 -1.08142 1.14644 0
M  V30 12557 C 1168.63 -2.15022 0.793614 0
M  V30 12558 C 1169.64 -1.61679 -0.190729 0
M  V30 12559 O 1170.83 -1.78472 0.0313696 0
M  V30 12560 C 1167.93 -3.38532 0.157785 0
M  V30 12561 C 1167.11 -4.21252 1.17753 0
M  V30 12562 C 1166.17 -5.23158 0.564968 0
M  V30 12563 O 1165.19 -5.5578 1.22869 0
M  V30 12564 N 1166.39 -5.7677 -0.657022 0
M  V30 12565 H 1169.16 -2.45893 1.71338 0
M  V30 12566 H 1166.72 -1.23976 1.04122 0
M  V30 12567 H 1168.71 -4.03834 -0.264586 0
M  V30 12568 H 1167.28 -3.05441 -0.665168 0
M  V30 12569 H 1166.5 -3.51888 1.77675 0
M  V30 12570 H 1167.79 -4.73335 1.86632 0
M  V30 12571 H 1167.19 -5.52503 -1.21478 0
M  V30 12572 H 1165.74 -6.4374 -1.02186 0
M  V30 12573 N 1169.18 -0.941978 -1.26351 0
M  V30 12574 C 1170.42 -0.590845 -1.94002 0
M  V30 12575 C 1170.76 0.868004 -1.73722 0
M  V30 12576 O 1170.03 1.62111 -1.07472 0
M  V30 12577 C 1170.31 -0.934901 -3.47752 0
M  V30 12578 C 1170.17 -2.44855 -3.77314 0
M  V30 12579 C 1171.49 -0.450888 -4.37784 0
M  V30 12580 H 1168.61 -0.21613 -0.704597 0
M  V30 12581 H 1171.25 -1.17634 -1.49205 0
M  V30 12582 H 1169.4 -0.436648 -3.86038 0
M  V30 12583 H 1171.07 -3.01959 -3.48738 0
M  V30 12584 H 1169.31 -2.89169 -3.23363 0
M  V30 12585 H 1169.98 -2.6398 -4.84787 0
M  V30 12586 H 1172.46 -0.878107 -4.06729 0
M  V30 12587 H 1171.34 -0.720439 -5.44152 0
M  V30 12588 H 1171.6 0.649162 -4.37308 0
M  V30 12589 N 1170.66 1.40747 -0.709091 0
M  V30 12590 C 1171.6 2.30741 -0.0523584 0
M  V30 12591 C 1172.57 1.4784 0.757145 0
M  V30 12592 O 1173.76 1.76595 0.72242 0
M  V30 12593 C 1170.9 3.34 0.868203 0
M  V30 12594 C 1170.01 4.31972 0.0488686 0
M  V30 12595 C 1169.15 5.223 0.968311 0
M  V30 12596 C 1168.18 6.11934 0.142682 0
M  V30 12597 N 1167.32 6.947 1.01665 0
M  V30 12598 H 1172.16 2.86338 -0.825509 0
M  V30 12599 H 1169.7 1.41013 -0.418785 0
M  V30 12600 H 1171.66 3.92431 1.41611 0
M  V30 12601 H 1170.29 2.79921 1.6076 0
M  V30 12602 H 1169.34 3.75377 -0.616137 0
M  V30 12603 H 1170.65 4.95291 -0.590625 0
M  V30 12604 H 1169.8 5.85631 1.58498 0
M  V30 12605 H 1168.54 4.5924 1.64164 0
M  V30 12606 H 1167.55 5.47639 -0.486965 0
M  V30 12607 H 1168.77 6.77052 -0.527046 0
M  V30 12608 H 1166.72 6.34236 1.67575 0
M  V30 12609 H 1166.64 7.54759 0.433045 0
M  V30 12610 H 1167.9 7.62487 1.6197 0
M  V30 12611 N 1172.13 0.454803 1.50895 0
M  V30 12612 C 1173.38 -0.105927 2.02523 0
M  V30 12613 C 1173.71 -1.40825 1.33724 0
M  V30 12614 O 1172.99 -1.89038 0.457683 0
M  V30 12615 C 1173.27 -0.306635 3.58792 0
M  V30 12616 C 1173.12 1.01556 4.38185 0
M  V30 12617 C 1174.44 -1.06858 4.2693 0
M  V30 12618 H 1171.56 -0.0370232 0.736069 0
M  V30 12619 H 1174.2 0.597215 1.8037 0
M  V30 12620 H 1172.35 -0.905563 3.77799 0
M  V30 12621 H 1174.03 1.64981 4.30789 0
M  V30 12622 H 1172.27 1.61608 4.02574 0
M  V30 12623 H 1172.94 0.828959 5.4574 0
M  V30 12624 H 1175.42 -0.561086 4.123 0
M  V30 12625 H 1174.29 -1.1778 5.36115 0
M  V30 12626 H 1174.55 -2.10111 3.8898 0
M  V30 12627 N 1173.61 -1.56489 0.186789 0
M  V30 12628 C 1174.86 -1.97634 -0.454831 0
M  V30 12629 C 1175.19 -1.07334 -1.61843 0
M  V30 12630 O 1174.47 -0.123612 -1.94107 0
M  V30 12631 C 1174.75 -3.48071 -0.922962 0
M  V30 12632 C 1174.6 -4.49149 0.241877 0
M  V30 12633 C 1175.92 -4.01994 -1.79134 0
M  V30 12634 H 1173.04 -0.718555 -0.163854 0
M  V30 12635 H 1175.68 -1.87984 0.27604 0
M  V30 12636 H 1173.83 -3.56425 -1.54575 0
M  V30 12637 H 1175.5 -4.52841 0.87936 0
M  V30 12638 H 1173.75 -4.24468 0.894964 0
M  V30 12639 H 1174.42 -5.51851 -0.128051 0
M  V30 12640 H 1176.89 -3.96367 -1.26618 0
M  V30 12641 H 1175.77 -5.07641 -2.08787 0
M  V30 12642 H 1176.03 -3.46747 -2.74261 0
M  V30 12643 N 1175.09 0.086862 -1.5736 0
M  V30 12644 C 1176.32 0.802167 -1.90717 0
M  V30 12645 C 1176.73 1.71875 -0.781304 0
M  V30 12646 O 1176.09 1.80831 0.246255 0
M  V30 12647 C 1176.14 1.60858 -3.23739 0
M  V30 12648 O 1175.86 0.728851 -4.31995 0
M  V30 12649 C 1177.36 2.42621 -3.71012 0
M  V30 12650 H 1174.58 0.228914 -0.630745 0
M  V30 12651 H 1177.13 0.061634 -2.04407 0
M  V30 12652 H 1175.28 2.30153 -3.11622 0
M  V30 12653 H 1175.7 1.2882 -5.08435 0
M  V30 12654 H 1177.17 2.94683 -4.66761 0
M  V30 12655 H 1177.65 3.21462 -2.99264 0
M  V30 12656 H 1178.25 1.78509 -3.86024 0
M  V30 12657 N 1176.57 1.53483 0.357892 0
M  V30 12658 C 1177.5 1.83444 1.44466 0
M  V30 12659 C 1178.48 0.688486 1.55544 0
M  V30 12660 O 1179.66 0.93906 1.69986 0
M  V30 12661 C 1176.79 2.03122 2.81707 0
M  V30 12662 C 1175.75 3.1891 2.85448 0
M  V30 12663 C 1175.07 3.23895 4.25436 0
M  V30 12664 C 1176.37 4.57334 2.52275 0
M  V30 12665 H 1178.07 2.74456 1.19642 0
M  V30 12666 H 1175.61 1.3206 0.574112 0
M  V30 12667 H 1177.57 2.22666 3.57768 0
M  V30 12668 H 1176.29 1.08827 3.07935 0
M  V30 12669 H 1174.95 2.99199 2.11838 0
M  V30 12670 H 1174.6 2.27223 4.48753 0
M  V30 12671 H 1174.3 4.01694 4.28854 0
M  V30 12672 H 1175.82 3.45632 5.0336 0
M  V30 12673 H 1177.24 4.76988 3.1805 0
M  V30 12674 H 1175.63 5.37431 2.66998 0
M  V30 12675 H 1176.7 4.61921 1.47501 0
M  V30 12676 N 1178.05 -0.61812 1.44973 0
M  V30 12677 C 1179.01 -1.71135 1.52465 0
M  V30 12678 C 1180.01 -1.5561 0.405246 0
M  V30 12679 O 1181.2 -1.60869 0.668351 0
M  V30 12680 C 1178.33 -3.10324 1.41108 0
M  V30 12681 H 1179.52 -1.65862 2.49859 0
M  V30 12682 H 1177.08 -0.832932 1.32257 0
M  V30 12683 H 1177.81 -3.21183 0.448574 0
M  V30 12684 H 1177.6 -3.23001 2.2229 0
M  V30 12685 H 1179.09 -3.89976 1.49361 0
M  V30 12686 N 1179.52 -1.32087 -0.859693 0
M  V30 12687 C 1180.77 -1.21716 -1.60836 0
M  V30 12688 C 1181.09 0.220904 -1.94349 0
M  V30 12689 O 1182.29 0.446422 -2.67805 0
M  V30 12690 C 1180.75 -2.13143 -2.89997 0
M  V30 12691 C 1180.36 -3.62003 -2.63928 0
M  V30 12692 C 1182.1 -2.11596 -3.68004 0
M  V30 12693 C 1180.01 -4.45407 -3.89059 0
M  V30 12694 H 1178.94 -0.45199 -0.603507 0
M  V30 12695 H 1181.59 -1.57013 -0.949687 0
M  V30 12696 H 1179.97 -1.70755 -3.57294 0
M  V30 12697 H 1181.14 -4.12701 -2.04974 0
M  V30 12698 H 1179.46 -3.6563 -1.99258 0
M  V30 12699 H 1182.06 -2.71149 -4.6085 0
M  V30 12700 H 1182.4 -1.10568 -4.01348 0
M  V30 12701 H 1182.93 -2.52238 -3.07605 0
M  V30 12702 H 1179.67 -5.4723 -3.60859 0
M  V30 12703 H 1179.19 -3.99462 -4.47427 0
M  V30 12704 H 1180.87 -4.58149 -4.56846 0
M  V30 12705 N 1181 1.07532 -1.15215 0
M  V30 12706 C 1182.25 1.79737 -0.924062 0
M  V30 12707 C 1182.57 1.87072 0.550356 0
M  V30 12708 O 1181.84 1.37029 1.4 0
M  V30 12709 H 1180.42 0.665704 -0.338891 0
M  V30 12710 H 1183.08 1.29961 -1.45245 0
M  V30 12711 H 1182.18 2.82256 -1.33184 0
M  V30 12712 N 1182.48 0.948665 1.2585 0
M  V30 12713 C 1183.76 0.517832 1.88621 0
M  V30 12714 C 1184.14 -1.00477 1.85654 0
M  V30 12715 O 1183.49 -1.868 1.31598 0
M  V30 12716 C 1183.7 1.08768 3.31618 0
M  V30 12717 C 1185.04 1.16089 4.08422 0
M  V30 12718 O 1186.07 1.0388 3.40716 0
M  V30 12719 O 1184.93 1.35172 5.29519 0
M  V30 12720 H 1182.02 0.169916 0.809356 0
M  V30 12721 H 1184.57 1.04171 1.33964 0
M  V30 12722 H 1183.34 2.13109 3.28177 0
M  V30 12723 H 1182.96 0.54669 3.93824 0
M  V30 12724 N 1183.96 -1.40369 0.716545 0
M  V30 12725 C 1185.21 -2.00473 0.255959 0
M  V30 12726 C 1185.53 -1.57104 -1.15514 0
M  V30 12727 O 1184.8 -0.810925 -1.78328 0
M  V30 12728 H 1183.38 -0.741357 0.0916427 0
M  V30 12729 H 1186.04 -1.71692 0.922389 0
M  V30 12730 H 1185.14 -3.10752 0.289806 0
M  V30 12731 N 1185.44 -0.462799 -1.50652 0
M  V30 12732 C 1186.4 0.324264 -2.26895 0
M  V30 12733 C 1187.4 0.927687 -1.31342 0
M  V30 12734 O 1188.59 0.798159 -1.54839 0
M  V30 12735 C 1185.72 1.46113 -3.08 0
M  V30 12736 H 1186.91 -0.344266 -2.97917 0
M  V30 12737 H 1184.47 -0.216631 -1.54791 0
M  V30 12738 H 1185.2 2.16496 -2.41454 0
M  V30 12739 H 1184.99 1.03433 -3.78212 0
M  V30 12740 H 1186.48 2.01655 -3.65684 0
M  V30 12741 N 1186.91 1.56388 -0.195085 0
M  V30 12742 C 1187.86 2.20431 0.742484 0
M  V30 12743 C 1188.86 1.17548 1.21979 0
M  V30 12744 O 1190.06 1.35693 1.18269 0
M  V30 12745 H 1186.44 0.706435 0.257786 0
M  V30 12746 H 1188.41 2.97865 0.178624 0
M  V30 12747 C 1187.16 2.87772 1.95147 0
M  V30 12748 H 1186.48 3.66681 1.59326 0
M  V30 12749 H 1187.92 3.36021 2.58585 0
M  V30 12750 C 1186.38 1.88807 2.79022 0
M  V30 12751 O 1186.91 1.38836 3.76945 0
M  V30 12752 N 1185.12 1.57037 2.44515 0
M  V30 12753 H 1184.66 1.97868 1.64943 0
M  V30 12754 H 1184.62 0.910776 3.00919 0
M  V30 12755 N 1188.39 -0.0785156 1.57404 0
M  V30 12756 C 1189.67 -0.811557 1.77969 0
M  V30 12757 C 1190.05 -1.96123 0.780966 0
M  V30 12758 O 1189.4 -2.27731 -0.18726 0
M  V30 12759 C 1189.61 -1.29075 3.24254 0
M  V30 12760 C 1190.96 -1.72685 3.87898 0
M  V30 12761 O 1191.98 -1.38658 3.28104 0
M  V30 12762 O 1190.84 -2.3566 4.93079 0
M  V30 12763 H 1187.93 -0.388361 0.73014 0
M  V30 12764 H 1190.48 -0.0591118 1.69597 0
M  V30 12765 H 1189.25 -0.467813 3.88494 0
M  V30 12766 H 1188.87 -2.10472 3.37324 0
M  V30 12767 N 1189.87 -1.5367 -0.349747 0
M  V30 12768 C 1191.12 -1.7087 -1.0923 0
M  V30 12769 C 1191.45 -0.467299 -1.88494 0
M  V30 12770 O 1190.72 0.535619 -1.8698 0
M  V30 12771 C 1191.01 -2.9684 -2.03858 0
M  V30 12772 C 1190.86 -4.31174 -1.28097 0
M  V30 12773 C 1192.18 -3.18459 -3.03763 0
M  V30 12774 H 1189.3 -0.621757 -0.395711 0
M  V30 12775 H 1191.94 -1.86333 -0.371481 0
M  V30 12776 H 1190.09 -2.83788 -2.65323 0
M  V30 12777 H 1191.76 -4.56066 -0.692933 0
M  V30 12778 H 1190.01 -4.29866 -0.582924 0
M  V30 12779 H 1190.68 -5.15482 -1.9744 0
M  V30 12780 H 1193.15 -3.30801 -2.52409 0
M  V30 12781 H 1192.03 -4.08006 -3.67182 0
M  V30 12782 H 1192.29 -2.34467 -3.74803 0
M  V30 12783 N 1191.35 0.610423 -1.45298 0
M  V30 12784 C 1192.57 1.40112 -1.52917 0
M  V30 12785 C 1193 1.87404 -0.161696 0
M  V30 12786 O 1192.36 1.59973 0.853135 0
M  V30 12787 C 1192.4 2.58359 -2.51561 0
M  V30 12788 O 1191.51 3.58895 -2.03146 0
M  V30 12789 H 1190.85 0.41841 -0.515586 0
M  V30 12790 H 1193.38 0.743159 -1.90626 0
M  V30 12791 H 1193.39 3.0564 -2.70275 0
M  V30 12792 H 1192.06 2.23286 -3.50879 0
M  V30 12793 H 1190.64 3.18282 -1.94296 0
M  V30 12794 N 1192.83 1.32541 0.852676 0
M  V30 12795 C 1193.76 1.15977 1.96531 0
M  V30 12796 C 1194.74 0.0587267 1.62494 0
M  V30 12797 O 1195.92 0.218404 1.8723 0
M  V30 12798 C 1193.05 0.77587 3.29694 0
M  V30 12799 C 1192.09 1.88244 3.82709 0
M  V30 12800 S 1192.93 3.49108 4.06059 0
M  V30 12801 C 1194.08 3.12693 5.42193 0
M  V30 12802 H 1194.32 2.10165 2.1028 0
M  V30 12803 H 1191.85 1.17225 1.00487 0
M  V30 12804 H 1193.81 0.561136 4.06647 0
M  V30 12805 H 1192.47 -0.14718 3.13755 0
M  V30 12806 H 1191.66 1.56687 4.79025 0
M  V30 12807 H 1191.26 2.05313 3.12606 0
M  V30 12808 H 1193.56 2.62661 6.24512 0
M  V30 12809 H 1194.5 4.08038 5.78714 0
M  V30 12810 H 1194.91 2.4966 5.06291 0
M  V30 12811 N 1194.3 -1.0692 1.15784 0
M  V30 12812 C 1195.55 -1.78983 0.929944 0
M  V30 12813 C 1195.87 -1.87884 -0.543969 0
M  V30 12814 O 1197.07 -2.56513 -0.889578 0
M  V30 12815 C 1195.53 -3.21657 1.61446 0
M  V30 12816 C 1195.14 -3.20943 3.12569 0
M  V30 12817 C 1196.88 -3.98299 1.46828 0
M  V30 12818 C 1194.79 -4.58298 3.73788 0
M  V30 12819 H 1193.72 -0.670809 0.344284 0
M  V30 12820 H 1196.37 -1.19975 1.38846 0
M  V30 12821 H 1194.75 -3.80885 1.08364 0
M  V30 12822 H 1195.92 -2.71334 3.72444 0
M  V30 12823 H 1194.24 -2.57799 3.26999 0
M  V30 12824 H 1196.84 -4.99822 1.89952 0
M  V30 12825 H 1197.18 -4.14213 0.416358 0
M  V30 12826 H 1197.71 -3.45577 1.97031 0
M  V30 12827 H 1194.45 -4.47588 4.789 0
M  V30 12828 H 1193.97 -5.08126 3.18698 0
M  V30 12829 H 1195.65 -5.27262 3.74972 0
M  V30 12830 N 1195.78 -0.955326 -1.25345 0
M  V30 12831 C 1196.71 -0.4334 -2.25065 0
M  V30 12832 C 1197.73 0.451099 -1.56425 0
M  V30 12833 O 1198.92 0.259265 -1.76607 0
M  V30 12834 C 1196.02 0.394809 -3.36592 0
M  V30 12835 C 1195.19 -0.476856 -4.34793 0
M  V30 12836 C 1194.25 0.293269 -5.25382 0
M  V30 12837 O 1193.27 -0.30857 -5.68363 0
M  V30 12838 N 1194.48 1.58617 -5.58409 0
M  V30 12839 H 1197.24 -1.29073 -2.70482 0
M  V30 12840 H 1194.8 -0.825764 -1.39258 0
M  V30 12841 H 1196.79 0.917747 -3.94157 0
M  V30 12842 H 1195.36 1.153 -2.90559 0
M  V30 12843 H 1194.58 -1.18089 -3.76097 0
M  V30 12844 H 1195.87 -1.07178 -4.97384 0
M  V30 12845 H 1195.27 2.09705 -5.25395 0
M  V30 12846 H 1193.83 2.05506 -6.18555 0
M  V30 12847 N 1197.26 1.39987 -0.723979 0
M  V30 12848 C 1198.49 2.05037 -0.27702 0
M  V30 12849 C 1198.9 1.54565 1.08421 0
M  V30 12850 O 1198.26 0.705795 1.683 0
M  V30 12851 C 1198.31 3.60582 -0.25751 0
M  V30 12852 O 1198.03 4.09194 -1.565 0
M  V30 12853 C 1199.53 4.42817 0.206972 0
M  V30 12854 H 1196.75 0.659637 -0.122963 0
M  V30 12855 H 1199.3 1.7924 -0.98454 0
M  V30 12856 H 1197.45 3.85319 0.401037 0
M  V30 12857 H 1197.87 5.03447 -1.47112 0
M  V30 12858 H 1199.34 5.5174 0.16947 0
M  V30 12859 H 1199.82 4.21023 1.25045 0
M  V30 12860 H 1200.42 4.23205 -0.421604 0
M  V30 12861 N 1198.74 0.470782 1.50404 0
M  V30 12862 C 1199.7 -0.312227 2.27063 0
M  V30 12863 C 1200.7 -0.920709 1.31832 0
M  V30 12864 O 1201.89 -0.789937 1.5526 0
M  V30 12865 C 1199.02 -1.44477 3.0877 0
M  V30 12866 H 1200.22 0.36006 2.97731 0
M  V30 12867 H 1197.77 0.224837 1.54674 0
M  V30 12868 H 1198.51 -2.15212 2.42599 0
M  V30 12869 H 1198.29 -1.01426 3.78755 0
M  V30 12870 H 1199.78 -1.99713 3.66749 0
M  V30 12871 N 1200.22 -1.56282 0.203376 0
M  V30 12872 C 1201.17 -2.16094 -0.727145 0
M  V30 12873 C 1202.15 -1.10404 -1.17046 0
M  V30 12874 O 1203.34 -1.36444 -1.12748 0
M  V30 12875 C 1200.47 -2.83029 -1.94293 0
M  V30 12876 C 1199.56 -3.9592 -1.52013 0
M  V30 12877 N 1199.95 -4.99292 -0.808794 0
M  V30 12878 C 1198.25 -4.07674 -1.80881 0
M  V30 12879 C 1198.95 -5.78641 -0.595738 0
M  V30 12880 N 1197.92 -5.31362 -1.14697 0
M  V30 12881 H 1201.73 -2.93378 -0.175041 0
M  V30 12882 H 1199.24 -1.624 0.00390859 0
M  V30 12883 H 1201.24 -3.24277 -2.62012 0
M  V30 12884 H 1199.9 -2.07235 -2.49968 0
M  V30 12885 H 1200.91 -5.15823 -0.463383 0
M  V30 12886 H 1197.59 -3.43016 -2.38005 0
M  V30 12887 H 1198.98 -6.71893 -0.0308618 0
M  V30 12888 N 1201.7 0.070167 -1.57444 0
M  V30 12889 C 1202.94 0.770153 -1.87607 0
M  V30 12890 C 1203.27 1.77143 -0.795875 0
M  V30 12891 O 1202.55 1.93533 0.193674 0
M  V30 12892 C 1202.83 1.47668 -3.2843 0
M  V30 12893 C 1202.69 0.491712 -4.47104 0
M  V30 12894 C 1204 2.42118 -3.67514 0
M  V30 12895 H 1201.12 0.278519 -0.682346 0
M  V30 12896 H 1203.77 0.0333184 -1.89971 0
M  V30 12897 H 1201.92 2.10476 -3.26546 0
M  V30 12898 H 1203.59 -0.131283 -4.61113 0
M  V30 12899 H 1201.83 -0.192817 -4.33371 0
M  V30 12900 H 1202.5 1.02372 -5.42424 0
M  V30 12901 H 1204.98 1.89387 -3.70502 0
M  V30 12902 H 1203.85 2.88556 -4.66933 0
M  V30 12903 H 1204.11 3.26995 -2.97534 0
M  V30 12904 N 1203.17 1.53854 0.341593 0
M  V30 12905 C 1204.42 1.70856 1.07948 0
M  V30 12906 C 1204.74 0.475474 1.89114 0
M  V30 12907 O 1204.01 -0.510592 1.89129 0
M  V30 12908 H 1202.59 0.629914 0.401519 0
M  V30 12909 H 1205.25 1.91112 0.382393 0
M  V30 12910 H 1204.35 2.5803 1.75575 0
M  V30 12911 N 1204.65 -0.602709 1.4562 0
M  V30 12912 C 1205.9 -1.36359 1.50113 0
M  V30 12913 C 1206.23 -1.93663 0.144297 0
M  V30 12914 O 1205.51 -1.75337 -0.841851 0
M  V30 12915 C 1205.79 -2.50788 2.58413 0
M  V30 12916 C 1205.64 -1.98649 4.03557 0
M  V30 12917 C 1206.96 -3.52905 2.62957 0
M  V30 12918 H 1204.08 -0.494455 0.54652 0
M  V30 12919 H 1206.72 -0.678957 1.77455 0
M  V30 12920 H 1204.87 -3.09191 2.3523 0
M  V30 12921 H 1206.54 -1.44857 4.37966 0
M  V30 12922 H 1204.79 -1.29615 4.13984 0
M  V30 12923 H 1205.46 -2.81159 4.7503 0
M  V30 12924 H 1207.93 -3.0435 2.83743 0
M  V30 12925 H 1206.81 -4.30454 3.40589 0
M  V30 12926 H 1207.07 -4.0884 1.68233 0
M  V30 12927 N 1206.13 -1.32992 -0.845635 0
M  V30 12928 C 1207.38 -1.2382 -1.59728 0
M  V30 12929 C 1207.7 0.197724 -1.93995 0
M  V30 12930 O 1206.97 1.12477 -1.60392 0
M  V30 12931 H 1205.55 -0.455296 -0.592212 0
M  V30 12932 H 1208.21 -1.66627 -1.01101 0
M  V30 12933 H 1207.31 -1.82717 -2.53023 0
M  V30 12934 N 1207.61 1.06304 -1.1635 0
M  V30 12935 C 1208.86 1.78487 -0.939423 0
M  V30 12936 C 1209.17 1.8817 0.533998 0
M  V30 12937 O 1210.38 2.56981 0.875962 0
M  V30 12938 C 1208.83 3.20796 -1.63149 0
M  V30 12939 C 1208.44 3.19281 -3.14267 0
M  V30 12940 C 1210.18 3.97514 -1.48938 0
M  V30 12941 C 1208.09 4.56309 -3.76213 0
M  V30 12942 H 1207.02 0.668973 -0.347837 0
M  V30 12943 H 1209.67 1.19237 -1.3948 0
M  V30 12944 H 1208.05 3.80305 -1.10382 0
M  V30 12945 H 1209.23 2.69356 -3.73877 0
M  V30 12946 H 1207.54 2.56062 -3.28362 0
M  V30 12947 H 1210.14 4.98808 -1.926 0
M  V30 12948 H 1210.48 4.13986 -0.438319 0
M  V30 12949 H 1211.02 3.44528 -1.98861 0
M  V30 12950 H 1207.75 4.45042 -4.81267 0
M  V30 12951 H 1207.27 5.06429 -3.21388 0
M  V30 12952 H 1208.95 5.25266 -3.77762 0
M  V30 12953 N 1209.09 0.96196 1.24836 0
M  V30 12954 C 1210.31 0.637709 1.97353 0
M  V30 12955 C 1210.74 -0.784919 1.7094 0
M  V30 12956 O 1210.09 -1.53188 0.969694 0
M  V30 12957 C 1210.14 0.911485 3.4889 0
M  V30 12958 O 1209.25 -0.00601668 4.124 0
M  V30 12959 H 1208.59 0.241685 0.618453 0
M  V30 12960 H 1211.12 1.29055 1.58764 0
M  V30 12961 H 1211.13 0.840702 3.99245 0
M  V30 12962 H 1209.8 1.9483 3.67442 0
M  V30 12963 H 1208.38 0.117597 3.72715 0
M  V30 12964 N 1210.56 -1.39601 0.731392 0
M  V30 12965 C 1211.81 -2.0019 0.277208 0
M  V30 12966 C 1212.13 -1.5832 -1.13841 0
M  V30 12967 O 1211.4 -0.829793 -1.77458 0
M  V30 12968 H 1209.98 -0.740344 0.0995006 0
M  V30 12969 H 1212.64 -1.70704 0.940547 0
M  V30 12970 H 1211.74 -3.10427 0.322749 0
M  V30 12971 N 1212.04 -0.478751 -1.50152 0
M  V30 12972 C 1212.99 0.325375 -2.30313 0
M  V30 12973 C 1213.98 0.983372 -1.37935 0
M  V30 12974 O 1215.19 0.913601 -1.55091 0
M  V30 12975 H 1211.57 0.123775 -0.741744 0
M  V30 12976 H 1213.54 -0.371004 -2.96085 0
M  V30 12977 C 1212.29 1.39026 -3.18696 0
M  V30 12978 H 1211.61 0.893329 -3.89692 0
M  V30 12979 H 1213.05 1.92533 -3.77766 0
M  V30 12980 C 1211.51 2.39637 -2.36803 0
M  V30 12981 O 1212.04 3.45067 -2.05649 0
M  V30 12982 N 1210.24 2.11546 -1.9924 0
M  V30 12983 H 1209.79 1.25832 -2.24775 0
M  V30 12984 H 1209.75 2.79096 -1.44751 0
M  V30 12985 N 1213.52 1.56172 -0.211661 0
M  V30 12986 C 1214.43 2.23468 0.714081 0
M  V30 12987 C 1215.45 1.23908 1.22159 0
M  V30 12988 O 1216.62 1.56693 1.26528 0
M  V30 12989 C 1213.69 2.89375 1.90953 0
M  V30 12990 C 1212.75 4.04251 1.44497 0
M  V30 12991 C 1211.98 4.67006 2.58343 0
M  V30 12992 O 1212.2 4.28721 3.76237 0
M  V30 12993 O 1211.14 5.56177 2.3011 0
M  V30 12994 H 1214.96 3.03219 0.170862 0
M  V30 12995 H 1212.55 1.49389 0.0183607 0
M  V30 12996 H 1214.43 3.3101 2.60787 0
M  V30 12997 H 1213.11 2.12591 2.44104 0
M  V30 12998 H 1212.01 3.67205 0.714932 0
M  V30 12999 H 1213.35 4.82748 0.959947 0
M  V30 13000 N 1215 -0.0618163 1.57479 0
M  V30 13001 C 1216.25 -0.757569 1.87364 0
M  V30 13002 C 1216.57 -1.77607 0.805025 0
M  V30 13003 O 1215.84 -1.95202 -0.165216 0
M  V30 13004 H 1214.42 -0.28278 0.691408 0
M  V30 13005 H 1217.08 -0.0355354 1.94868 0
M  V30 13006 H 1216.18 -1.26758 2.85199 0
M  V30 13007 N 1216.48 -1.54033 -0.333429 0
M  V30 13008 C 1217.41 -1.85719 -1.4153 0
M  V30 13009 C 1218.39 -0.713144 -1.54429 0
M  V30 13010 O 1219.57 -0.965984 -1.68471 0
M  V30 13011 C 1216.7 -2.07578 -2.78439 0
M  V30 13012 C 1215.66 -3.23411 -2.80338 0
M  V30 13013 C 1214.98 -3.30622 -4.2023 0
M  V30 13014 C 1216.28 -4.6129 -2.44968 0
M  V30 13015 H 1217.98 -2.76325 -1.15261 0
M  V30 13016 H 1215.52 -1.32957 -0.55303 0
M  V30 13017 H 1217.48 -2.28329 -3.5418 0
M  V30 13018 H 1216.2 -1.13713 -3.06165 0
M  V30 13019 H 1214.86 -3.02531 -2.07052 0
M  V30 13020 H 1214.51 -2.34333 -4.45081 0
M  V30 13021 H 1214.21 -4.08466 -4.22409 0
M  V30 13022 H 1215.73 -3.53596 -4.97798 0
M  V30 13023 H 1217.14 -4.81987 -3.10421 0
M  V30 13024 H 1215.54 -5.41611 -2.58414 0
M  V30 13025 H 1216.61 -4.6421 -1.40134 0
M  V30 13026 N 1217.95 0.594978 -1.45938 0
M  V30 13027 C 1218.89 1.71909 -1.51591 0
M  V30 13028 C 1219.9 1.57671 -0.405416 0
M  V30 13029 O 1221.09 1.65321 -0.673144 0
M  V30 13030 C 1218.19 3.10041 -1.3685 0
M  V30 13031 C 1217.36 3.50399 -2.61801 0
M  V30 13032 C 1216.42 4.67542 -2.41435 0
M  V30 13033 O 1215.45 4.74022 -3.15106 0
M  V30 13034 N 1216.65 5.6163 -1.46808 0
M  V30 13035 H 1219.41 1.67518 -2.48511 0
M  V30 13036 H 1216.97 0.78062 -1.41838 0
M  V30 13037 H 1218.97 3.86183 -1.21017 0
M  V30 13038 H 1217.54 3.08868 -0.481589 0
M  V30 13039 H 1216.76 2.64088 -2.92662 0
M  V30 13040 H 1218.04 3.74125 -3.44831 0
M  V30 13041 H 1217.44 5.5912 -0.860333 0
M  V30 13042 H 1216 6.37252 -1.36942 0
M  V30 13043 N 1219.43 1.33438 0.838571 0
M  V30 13044 C 1220.4 1.23632 1.92997 0
M  V30 13045 C 1221.4 0.155302 1.60048 0
M  V30 13046 O 1222.59 0.406852 1.69382 0
M  V30 13047 C 1219.72 0.90512 3.28665 0
M  V30 13048 H 1220.91 2.20643 2.03117 0
M  V30 13049 H 1218.46 1.17501 1.03069 0
M  V30 13050 H 1219.2 -0.0624833 3.2424 0
M  V30 13051 H 1218.98 1.68688 3.53959 0
M  V30 13052 H 1220.47 0.861262 4.08622 0
M  V30 13053 N 1220.91 -1.05686 1.16912 0
M  V30 13054 C 1221.87 -2.11481 0.883647 0
M  V30 13055 C 1222.87 -1.60321 -0.124034 0
M  V30 13056 O 1224.06 -1.73868 0.107566 0
M  V30 13057 C 1221.2 -3.3937 0.322649 0
M  V30 13058 H 1222.39 -2.38239 1.8216 0
M  V30 13059 H 1219.94 -1.2185 0.978895 0
M  V30 13060 H 1220.68 -3.18266 -0.622695 0
M  V30 13061 H 1220.46 -3.77812 1.04883 0
M  V30 13062 H 1221.95 -4.17362 0.141072 0
M  V30 13063 N 1222.39 -0.968567 -1.24324 0
M  V30 13064 C 1223.34 -0.491346 -2.27351 0
M  V30 13065 C 1224.33 0.445563 -1.63435 0
M  V30 13066 O 1225.54 0.320758 -1.77119 0
M  V30 13067 H 1221.91 -0.14043 -0.738772 0
M  V30 13068 H 1223.88 -1.37224 -2.64976 0
M  V30 13069 C 1222.63 0.202093 -3.47112 0
M  V30 13070 H 1221.95 -0.50973 -3.96537 0
M  V30 13071 H 1223.39 0.499815 -4.21044 0
M  V30 13072 C 1221.85 1.42937 -3.05075 0
M  V30 13073 O 1222.38 2.52635 -3.12312 0
M  V30 13074 N 1220.59 1.29572 -2.60114 0
M  V30 13075 H 1220.14 0.403169 -2.54425 0
M  V30 13076 H 1220.09 2.118 -2.32353 0
M  V30 13077 N 1223.87 1.39211 -0.738786 0
M  V30 13078 C 1225.09 2.05256 -0.297421 0
M  V30 13079 C 1225.52 1.55341 1.06069 0
M  V30 13080 O 1224.87 0.698823 1.67291 0
M  V30 13081 C 1224.92 3.59239 -0.312969 0
M  V30 13082 O 1224.03 4.06448 0.698112 0
M  V30 13083 H 1223.37 0.650245 -0.134454 0
M  V30 13084 H 1225.9 1.78173 -1.00577 0
M  V30 13085 H 1225.91 4.07691 -0.158675 0
M  V30 13086 H 1224.58 3.94931 -1.30394 0
M  V30 13087 H 1223.16 3.69401 0.509643 0
M  V30 13088 N 1225.34 0.486708 1.49896 0
M  V30 13089 C 1226.57 -0.0622999 2.07306 0
M  V30 13090 C 1226.99 -1.31353 1.3464 0
M  V30 13091 O 1226.35 -1.76861 0.398752 0
M  V30 13092 C 1226.4 -0.313481 3.59235 0
M  V30 13093 O 1225.5 -1.39101 3.88233 0
M  V30 13094 H 1224.85 0.0198885 0.663702 0
M  V30 13095 H 1227.38 0.682232 1.92891 0
M  V30 13096 H 1227.39 -0.549302 4.04285 0
M  V30 13097 H 1226.06 0.600767 4.11538 0
M  V30 13098 H 1224.64 -1.14127 3.55006 0
M  V30 13099 N 1226.82 -1.56058 0.219941 0
M  V30 13100 C 1228.1 -1.90087 -0.46112 0
M  V30 13101 C 1228.48 -1.13705 -1.77861 0
M  V30 13102 O 1227.83 -0.245868 -2.27173 0
M  V30 13103 C 1228.04 -3.42786 -0.655644 0
M  V30 13104 C 1229.39 -4.13517 -0.963803 0
M  V30 13105 O 1230.41 -3.48376 -0.742488 0
M  V30 13106 O 1229.27 -5.28692 -1.38374 0
M  V30 13107 H 1226.36 -0.790311 -0.243595 0
M  V30 13108 H 1228.91 -1.67665 0.262005 0
M  V30 13109 H 1227.68 -3.90341 0.273738 0
M  V30 13110 H 1227.3 -3.70982 -1.43032 0
M  V30 13111 N 1228.3 0.053464 -1.57509 0
M  V30 13112 C 1229.53 0.760429 -1.92096 0
M  V30 13113 C 1229.94 1.70703 -0.815905 0
M  V30 13114 O 1229.28 1.82398 0.218332 0
M  V30 13115 C 1229.34 1.59255 -3.22301 0
M  V30 13116 C 1229.01 0.813355 -4.49704 0
M  V30 13117 C 1230.01 0.124402 -5.19751 0
M  V30 13118 C 1227.69 0.775106 -4.96284 0
M  V30 13119 C 1229.68 -0.59237 -6.34641 0
M  V30 13120 C 1227.37 0.0545728 -6.11076 0
M  V30 13121 C 1228.37 -0.627948 -6.80107 0
M  V30 13122 O 1228.06 -1.33683 -7.92707 0
M  V30 13123 H 1227.79 0.220287 -0.639101 0
M  V30 13124 H 1230.34 0.0224505 -2.05388 0
M  V30 13125 H 1228.57 2.37376 -3.05269 0
M  V30 13126 H 1230.26 2.17987 -3.42398 0
M  V30 13127 H 1231.03 0.145141 -4.84783 0
M  V30 13128 H 1226.91 1.29583 -4.42413 0
M  V30 13129 H 1230.45 -1.12565 -6.88458 0
M  V30 13130 H 1226.35 0.0318254 -6.45492 0
M  V30 13131 H 1227.12 -1.24799 -8.0893 0
M  V30 13132 N 1229.78 1.54207 0.325255 0
M  V30 13133 C 1231 1.7661 1.08736 0
M  V30 13134 C 1231.43 0.512449 1.80985 0
M  V30 13135 O 1230.79 -0.535913 1.73198 0
M  V30 13136 C 1230.84 2.95797 2.06243 0
M  V30 13137 O 1229.94 2.67225 3.14109 0
M  V30 13138 H 1229.28 0.585282 0.313593 0
M  V30 13139 H 1231.81 2.01225 0.370066 0
M  V30 13140 H 1231.82 3.23097 2.49143 0
M  V30 13141 H 1230.5 3.86712 1.53058 0
M  V30 13142 H 1229.07 2.50869 2.75897 0
M  V30 13143 N 1231.26 -0.58723 1.46251 0
M  V30 13144 C 1232.51 -1.34179 1.50595 0
M  V30 13145 C 1232.82 -1.94943 0.160171 0
M  V30 13146 O 1234.03 -2.71378 0.0813797 0
M  V30 13147 C 1232.48 -2.43159 2.65333 0
M  V30 13148 C 1232.09 -1.88718 4.06312 0
M  V30 13149 C 1233.83 -3.19986 2.78943 0
M  V30 13150 C 1231.74 -2.953 5.12398 0
M  V30 13151 H 1230.67 -0.504401 0.560442 0
M  V30 13152 H 1233.32 -0.627179 1.72449 0
M  V30 13153 H 1231.7 -3.17398 2.368 0
M  V30 13154 H 1232.88 -1.21051 4.44616 0
M  V30 13155 H 1231.19 -1.24572 3.97329 0
M  V30 13156 H 1233.79 -3.9952 3.5537 0
M  V30 13157 H 1234.13 -3.72288 1.86298 0
M  V30 13158 H 1234.67 -2.52852 3.07101 0
M  V30 13159 H 1231.4 -2.4789 6.0682 0
M  V30 13160 H 1230.92 -3.61469 4.78644 0
M  V30 13161 H 1232.6 -3.5933 5.38044 0
M  V30 13162 N 1232.74 -1.33881 -0.831482 0
M  V30 13163 C 1233.7 -1.24654 -1.92339 0
M  V30 13164 C 1234.7 -0.163788 -1.59964 0
M  V30 13165 O 1235.89 -0.415829 -1.69164 0
M  V30 13166 C 1233.02 -0.922537 -3.2818 0
M  V30 13167 H 1234.21 -2.21717 -2.01944 0
M  V30 13168 H 1231.77 -1.18046 -1.02445 0
M  V30 13169 H 1232.5 0.0452872 -3.24268 0
M  V30 13170 H 1232.29 -1.70562 -3.53059 0
M  V30 13171 H 1233.78 -0.88292 -4.0816 0
M  V30 13172 N 1234.21 1.05064 -1.1747 0
M  V30 13173 C 1235.15 2.12842 -0.850344 0
M  V30 13174 C 1236.16 1.62128 0.147796 0
M  V30 13175 O 1237.35 1.78327 -0.0786774 0
M  V30 13176 C 1234.45 3.37995 -0.247486 0
M  V30 13177 C 1233.62 4.17981 -1.28881 0
M  V30 13178 C 1232.68 5.21476 -0.703476 0
M  V30 13179 O 1231.71 5.52327 -1.37561 0
M  V30 13180 N 1232.91 5.78309 0.50387 0
M  V30 13181 H 1235.67 2.41264 -1.77797 0
M  V30 13182 H 1233.23 1.21172 -1.07373 0
M  V30 13183 H 1235.23 4.04394 0.157424 0
M  V30 13184 H 1233.8 3.07097 0.583952 0
M  V30 13185 H 1233.02 3.47054 -1.86942 0
M  V30 13186 H 1234.3 4.6822 -1.99116 0
M  V30 13187 H 1233.7 5.5553 1.06787 0
M  V30 13188 H 1232.26 6.46223 0.850828 0
M  V30 13189 N 1235.69 0.975146 1.23809 0
M  V30 13190 C 1236.94 0.641124 1.92083 0
M  V30 13191 C 1237.27 -0.824671 1.76152 0
M  V30 13192 O 1236.52 -1.6097 1.11298 0
M  V30 13193 C 1236.82 0.971016 3.43956 0
M  V30 13194 C 1236.49 2.42616 3.80063 0
M  V30 13195 C 1235.15 2.82386 3.8963 0
M  V30 13196 C 1237.5 3.37019 3.97577 0
M  V30 13197 C 1234.83 4.15585 4.14133 0
M  V30 13198 C 1237.18 4.69855 4.23579 0
M  V30 13199 C 1235.84 5.09391 4.31366 0
M  V30 13200 H 1235.11 0.234604 0.702881 0
M  V30 13201 H 1237.76 1.22803 1.46941 0
M  V30 13202 H 1236.07 0.301965 3.90635 0
M  V30 13203 H 1237.76 0.690858 3.95004 0
M  V30 13204 H 1234.35 2.10782 3.73187 0
M  V30 13205 H 1238.54 3.07474 3.89581 0
M  V30 13206 H 1233.79 4.45831 4.18383 0
M  V30 13207 H 1237.97 5.42966 4.36074 0
M  V30 13208 H 1235.59 6.12624 4.50106 0
M  V30 13209 N 1237.17 -1.38817 0.746158 0
M  V30 13210 C 1238.12 -2.30521 0.113517 0
M  V30 13211 C 1239.09 -1.49795 -0.717682 0
M  V30 13212 O 1240.27 -1.78448 -0.675345 0
M  V30 13213 C 1237.41 -3.36185 -0.779343 0
M  V30 13214 C 1236.52 -4.3195 0.0656784 0
M  V30 13215 C 1235.66 -5.24684 -0.829492 0
M  V30 13216 C 1234.7 -6.12097 0.0196112 0
M  V30 13217 N 1233.84 -6.97152 -0.832107 0
M  V30 13218 H 1238.68 -2.84048 0.901136 0
M  V30 13219 H 1236.21 -1.39853 0.456025 0
M  V30 13220 H 1238.17 -3.96048 -1.31156 0
M  V30 13221 H 1236.8 -2.84085 -1.53282 0
M  V30 13222 H 1235.85 -3.73611 0.715445 0
M  V30 13223 H 1237.16 -4.93551 0.721735 0
M  V30 13224 H 1236.32 -5.89627 -1.42915 0
M  V30 13225 H 1235.06 -4.63431 -1.5193 0
M  V30 13226 H 1234.06 -5.46156 0.631991 0
M  V30 13227 H 1235.29 -6.75416 0.706369 0
M  V30 13228 H 1233.23 -6.38456 -1.507 0
M  V30 13229 H 1233.15 -7.55642 -0.232782 0
M  V30 13230 H 1234.42 -7.66513 -1.41697 0
M  V30 13231 N 1238.65 -0.49465 -1.49636 0
M  V30 13232 C 1239.88 0.0490417 -2.06542 0
M  V30 13233 C 1240.29 1.31945 -1.35599 0
M  V30 13234 O 1239.63 1.78691 -0.426047 0
M  V30 13235 C 1239.69 0.379426 -3.57492 0
M  V30 13236 C 1239.35 -0.792345 -4.50079 0
M  V30 13237 C 1240.35 -1.68106 -4.91972 0
M  V30 13238 C 1238.04 -0.98935 -4.9246 0
M  V30 13239 C 1240.03 -2.75099 -5.74978 0
M  V30 13240 C 1237.72 -2.06247 -5.75244 0
M  V30 13241 C 1238.72 -2.94163 -6.16407 0
M  V30 13242 O 1238.4 -3.99623 -6.97536 0
M  V30 13243 H 1238.14 -0.0143708 -0.675847 0
M  V30 13244 H 1240.69 -0.689358 -1.93486 0
M  V30 13245 H 1238.92 1.17133 -3.68533 0
M  V30 13246 H 1240.61 0.860979 -3.96664 0
M  V30 13247 H 1241.37 -1.54065 -4.59879 0
M  V30 13248 H 1237.25 -0.314435 -4.59926 0
M  V30 13249 H 1240.8 -3.4375 -6.07027 0
M  V30 13250 H 1236.69 -2.20285 -6.06749 0
M  V30 13251 H 1237.46 -3.96899 -7.15831 0
M  V30 13252 N 1240.13 1.55939 -0.228214 0
M  V30 13253 C 1241.06 2.2357 0.6737 0
M  V30 13254 C 1242.04 1.20964 1.1959 0
M  V30 13255 O 1243.22 1.49568 1.23867 0
M  V30 13256 C 1240.35 2.92076 1.87906 0
M  V30 13257 C 1239.31 4.01211 1.49043 0
M  V30 13258 C 1238.63 4.57047 2.77511 0
M  V30 13259 C 1239.93 5.17914 0.67544 0
M  V30 13260 H 1241.63 2.99199 0.109806 0
M  V30 13261 H 1239.17 1.43908 0.0513732 0
M  V30 13262 H 1241.12 3.38083 2.51551 0
M  V30 13263 H 1239.85 2.13906 2.46803 0
M  V30 13264 H 1238.51 3.55945 0.877411 0
M  V30 13265 H 1238.16 3.75599 3.34566 0
M  V30 13266 H 1237.86 5.30707 2.52239 0
M  V30 13267 H 1239.38 5.05776 3.42087 0
M  V30 13268 H 1240.79 5.60261 1.21575 0
M  V30 13269 H 1239.19 5.97847 0.519536 0
M  V30 13270 H 1240.26 4.83866 -0.316495 0
M  V30 13271 N 1241.6 -0.0451101 1.57535 0
M  V30 13272 C 1242.55 -1.05066 2.05499 0
M  V30 13273 C 1243.52 -1.36884 0.940843 0
M  V30 13274 O 1244.71 -1.47497 1.21034 0
M  V30 13275 C 1241.85 -2.35139 2.52594 0
M  V30 13276 C 1240.96 -2.0962 3.77735 0
M  V30 13277 C 1240.09 -3.33447 4.13505 0
M  V30 13278 C 1239.13 -3.03411 5.31609 0
M  V30 13279 N 1238.27 -4.19644 5.62888 0
M  V30 13280 H 1243.11 -0.63469 2.91163 0
M  V30 13281 H 1240.65 -0.30179 1.43971 0
M  V30 13282 H 1242.61 -3.11118 2.7796 0
M  V30 13283 H 1241.24 -2.74489 1.69869 0
M  V30 13284 H 1240.29 -1.24211 3.59549 0
M  V30 13285 H 1241.6 -1.83452 4.63839 0
M  V30 13286 H 1240.75 -4.17805 4.39914 0
M  V30 13287 H 1239.49 -3.62715 3.2602 0
M  V30 13288 H 1238.5 -2.17453 5.04969 0
M  V30 13289 H 1239.72 -2.75438 6.20734 0
M  V30 13290 H 1237.67 -4.48893 4.78363 0
M  V30 13291 H 1237.59 -3.96843 6.43468 0
M  V30 13292 H 1238.85 -5.04921 5.93865 0
M  V30 13293 N 1243.08 -1.54377 -0.317073 0
M  V30 13294 C 1244.03 -1.84948 -1.41057 0
M  V30 13295 C 1245.02 -0.721887 -1.53249 0
M  V30 13296 O 1246.23 -0.905648 -1.55557 0
M  V30 13297 H 1242.61 -0.586353 -0.470844 0
M  V30 13298 H 1244.58 -2.7638 -1.12501 0
M  V30 13299 C 1243.33 -2.09932 -2.77171 0
M  V30 13300 H 1242.65 -2.96162 -2.68566 0
M  V30 13301 H 1244.09 -2.35272 -3.52737 0
M  V30 13302 C 1242.55 -0.892855 -3.24853 0
M  V30 13303 O 1243.08 -0.105336 -4.01562 0
M  V30 13304 N 1241.28 -0.702685 -2.81976 0
M  V30 13305 H 1240.83 -1.34474 -2.19715 0
M  V30 13306 H 1240.79 0.103024 -3.14231 0
M  V30 13307 N 1244.56 0.579466 -1.4656 0
M  V30 13308 C 1245.49 1.69846 -1.60233 0
M  V30 13309 C 1246.47 1.6397 -0.452533 0
M  V30 13310 O 1247.66 1.81936 -0.679174 0
M  V30 13311 C 1244.79 3.08488 -1.59538 0
M  V30 13312 C 1243.74 3.29197 -2.7352 0
M  V30 13313 C 1243.07 4.684 -2.57887 0
M  V30 13314 C 1244.37 3.16718 -4.15315 0
M  V30 13315 H 1246.06 1.5866 -2.53904 0
M  V30 13316 H 1243.61 0.761873 -1.22194 0
M  V30 13317 H 1245.56 3.86595 -1.67696 0
M  V30 13318 H 1244.28 3.20581 -0.62413 0
M  V30 13319 H 1242.94 2.53491 -2.64836 0
M  V30 13320 H 1242.59 4.77262 -1.58839 0
M  V30 13321 H 1242.29 4.83208 -3.34341 0
M  V30 13322 H 1243.81 5.48671 -2.67942 0
M  V30 13323 H 1245.23 3.84666 -4.25094 0
M  V30 13324 H 1243.63 3.43047 -4.92381 0
M  V30 13325 H 1244.7 2.13755 -4.35244 0
M  V30 13326 N 1246.04 1.3432 0.824371 0
M  V30 13327 C 1246.97 1.2842 1.95014 0
M  V30 13328 C 1247.95 0.161925 1.69328 0
M  V30 13329 O 1249.13 0.354052 1.90945 0
M  V30 13330 C 1246.26 1.03741 3.31444 0
M  V30 13331 C 1245.22 2.12419 3.71567 0
M  V30 13332 C 1244.54 1.72931 5.05963 0
M  V30 13333 C 1245.84 3.54235 3.83817 0
M  V30 13334 H 1247.54 2.22614 2.00209 0
M  V30 13335 H 1245.08 1.07165 0.961856 0
M  V30 13336 H 1247.04 0.982586 4.09784 0
M  V30 13337 H 1245.76 0.0598892 3.26545 0
M  V30 13338 H 1244.42 2.16968 2.955 0
M  V30 13339 H 1244.07 0.738433 4.9755 0
M  V30 13340 H 1243.77 2.45668 5.3378 0
M  V30 13341 H 1245.29 1.68941 5.86763 0
M  V30 13342 H 1246.71 3.52106 4.52432 0
M  V30 13343 H 1245.1 4.25581 4.23085 0
M  V30 13344 H 1246.17 3.91682 2.85856 0
M  V30 13345 N 1247.52 -1.0444 1.18026 0
M  V30 13346 C 1248.45 -2.11888 0.847277 0
M  V30 13347 C 1249.43 -1.61496 -0.189171 0
M  V30 13348 O 1250.61 -1.88374 -0.0689859 0
M  V30 13349 C 1247.74 -3.3766 0.26525 0
M  V30 13350 C 1246.78 -4.06893 1.27829 0
M  V30 13351 S 1247.62 -4.54445 2.83267 0
M  V30 13352 C 1248.77 -5.83454 2.26565 0
M  V30 13353 H 1249.01 -2.39806 1.75727 0
M  V30 13354 H 1246.54 -1.17152 1.00572 0
M  V30 13355 H 1248.5 -4.1045 -0.0640578 0
M  V30 13356 H 1247.16 -3.07864 -0.622806 0
M  V30 13357 H 1246.35 -4.97287 0.819849 0
M  V30 13358 H 1245.95 -3.40203 1.55364 0
M  V30 13359 H 1248.25 -6.57203 1.64591 0
M  V30 13360 H 1249.19 -6.34056 3.15244 0
M  V30 13361 H 1249.6 -5.3838 1.69728 0
M  V30 13362 N 1248.99 -0.981699 -1.2329 0
M  V30 13363 C 1250.24 -0.646818 -1.91048 0
M  V30 13364 C 1250.56 0.823479 -1.77421 0
M  V30 13365 O 1251.76 1.26948 -2.39993 0
M  V30 13366 C 1250.22 -1.1063 -3.42475 0
M  V30 13367 C 1249.83 -2.60103 -3.6476 0
M  V30 13368 C 1251.57 -0.845227 -4.16 0
M  V30 13369 C 1249.48 -2.99712 -5.0983 0
M  V30 13370 H 1248.41 -0.238221 -0.715379 0
M  V30 13371 H 1251.06 -1.18977 -1.39702 0
M  V30 13372 H 1249.44 -0.491554 -3.92937 0
M  V30 13373 H 1250.61 -3.26828 -3.24839 0
M  V30 13374 H 1248.93 -2.83972 -3.04547 0
M  V30 13375 H 1251.53 -1.11699 -5.22903 0
M  V30 13376 H 1251.87 0.218661 -4.15725 0
M  V30 13377 H 1252.4 -1.42162 -3.7153 0
M  V30 13378 H 1249.14 -4.0523 -5.15237 0
M  V30 13379 H 1248.66 -2.37683 -5.50697 0
M  V30 13380 H 1250.34 -2.9039 -5.78172 0
M  V30 13381 N 1250.47 1.3842 -0.753509 0
M  V30 13382 C 1251.42 2.27774 -0.101443 0
M  V30 13383 C 1252.41 1.45196 0.693322 0
M  V30 13384 O 1253.6 1.67931 0.55929 0
M  V30 13385 C 1250.73 3.34064 0.790977 0
M  V30 13386 C 1249.81 4.24099 -0.010633 0
M  V30 13387 N 1250.2 4.94845 -1.047 0
M  V30 13388 C 1248.5 4.45476 0.216193 0
M  V30 13389 C 1249.2 5.61164 -1.53199 0
M  V30 13390 N 1248.18 5.36956 -0.847304 0
M  V30 13391 H 1251.98 2.79935 -0.895188 0
M  V30 13392 H 1249.5 1.51321 -0.589545 0
M  V30 13393 H 1251.49 3.96965 1.27375 0
M  V30 13394 H 1250.15 2.83461 1.58367 0
M  V30 13395 H 1251.16 4.97801 -1.42879 0
M  V30 13396 H 1247.84 4.05781 0.982238 0
M  V30 13397 H 1249.23 6.27756 -2.39525 0
M  V30 13398 N 1251.95 0.502579 1.49372 0
M  V30 13399 C 1253.2 -0.0412993 2.02058 0
M  V30 13400 C 1253.52 -1.37338 1.38431 0
M  V30 13401 O 1252.79 -1.88305 0.540175 0
M  V30 13402 H 1251.37 -0.0182522 0.746777 0
M  V30 13403 H 1254.03 0.660179 1.83378 0
M  V30 13404 H 1253.13 -0.169812 3.11638 0
M  V30 13405 N 1253.43 -1.55816 0.23648 0
M  V30 13406 C 1254.39 -2.1967 -0.654041 0
M  V30 13407 C 1255.39 -1.1629 -1.11056 0
M  V30 13408 O 1256.58 -1.41435 -1.01695 0
M  V30 13409 C 1253.71 -2.83196 -1.89771 0
M  V30 13410 H 1254.91 -2.99743 -0.0970911 0
M  V30 13411 H 1252.46 -1.56295 -0.013098 0
M  V30 13412 H 1253.19 -2.07033 -2.49616 0
M  V30 13413 H 1252.98 -3.58915 -1.57868 0
M  V30 13414 H 1254.47 -3.32095 -2.53184 0
M  V30 13415 N 1254.91 0.036755 -1.57557 0
M  V30 13416 C 1256.15 0.72475 -1.9005 0
M  V30 13417 C 1256.51 1.73374 -0.834226 0
M  V30 13418 O 1255.8 1.90948 0.157943 0
M  V30 13419 C 1255.99 1.44206 -3.27016 0
M  V30 13420 C 1255.82 0.504059 -4.46866 0
M  V30 13421 C 1254.59 0.127948 -5.05138 0
M  V30 13422 C 1256.79 -0.214278 -5.13853 0
M  V30 13423 N 1254.77 -0.812111 -6.08505 0
M  V30 13424 C 1256.14 -1.01027 -6.11714 0
M  V30 13425 C 1258.2 -0.28204 -4.97101 0
M  V30 13426 C 1256.9 -1.86778 -6.94627 0
M  V30 13427 C 1258.93 -1.12664 -5.80569 0
M  V30 13428 C 1258.29 -1.91058 -6.77994 0
M  V30 13429 H 1254.39 0.239542 -0.744408 0
M  V30 13430 H 1256.97 -0.0149454 -1.94694 0
M  V30 13431 H 1255.14 2.15226 -3.23314 0
M  V30 13432 H 1256.88 2.08183 -3.47047 0
M  V30 13433 H 1253.63 0.488471 -4.71074 0
M  V30 13434 H 1254.06 -1.27642 -6.64858 0
M  V30 13435 H 1258.7 0.309735 -4.21664 0
M  V30 13436 H 1256.42 -2.47038 -7.69414 0
M  V30 13437 H 1260 -1.18251 -5.69656 0
M  V30 13438 H 1258.88 -2.55358 -7.41459 0
M  V30 13439 N 1256.39 1.54543 0.308881 0
M  V30 13440 C 1257.33 1.85693 1.40074 0
M  V30 13441 C 1258.33 0.730004 1.52864 0
M  V30 13442 O 1259.53 0.913884 1.55075 0
M  V30 13443 H 1255.91 0.588842 0.467728 0
M  V30 13444 H 1257.88 2.76973 1.11034 0
M  V30 13445 C 1256.63 2.11399 2.76054 0
M  V30 13446 H 1255.95 2.97583 2.66992 0
M  V30 13447 H 1257.39 2.37139 3.51484 0
M  V30 13448 C 1255.85 0.91007 3.24375 0
M  V30 13449 O 1256.38 0.12663 4.015 0
M  V30 13450 N 1254.59 0.717629 2.816 0
M  V30 13451 H 1254.13 1.35637 2.18998 0
M  V30 13452 H 1254.09 -0.0863585 3.14281 0
M  V30 13453 N 1257.86 -0.571685 1.46866 0
M  V30 13454 C 1259.09 -1.35327 1.56109 0
M  V30 13455 C 1259.5 -1.88086 0.20504 0
M  V30 13456 O 1258.84 -1.64896 -0.809626 0
M  V30 13457 C 1258.91 -2.56939 2.51441 0
M  V30 13458 C 1258.57 -2.2557 3.97451 0
M  V30 13459 C 1259.57 -1.83737 4.86351 0
M  V30 13460 C 1257.25 -2.37375 4.42672 0
M  V30 13461 C 1259.25 -1.54118 6.18487 0
M  V30 13462 C 1256.93 -2.07368 5.7484 0
M  V30 13463 C 1257.93 -1.65806 6.62569 0
M  V30 13464 O 1257.62 -1.36173 7.92283 0
M  V30 13465 H 1257.35 -0.419368 0.530194 0
M  V30 13466 H 1259.91 -0.700859 1.93073 0
M  V30 13467 H 1258.14 -3.25023 2.09517 0
M  V30 13468 H 1259.82 -3.19012 2.5097 0
M  V30 13469 H 1260.59 -1.74122 4.52666 0
M  V30 13470 H 1256.47 -2.68686 3.74605 0
M  V30 13471 H 1260.01 -1.21603 6.8692 0
M  V30 13472 H 1255.91 -2.16611 6.08071 0
M  V30 13473 H 1256.68 -1.49926 8.04652 0
M  V30 13474 N 1259.34 -1.34755 -0.817236 0
M  V30 13475 C 1260.29 -1.26816 -1.94988 0
M  V30 13476 C 1261.28 -0.165142 -1.68593 0
M  V30 13477 O 1262.49 -0.330469 -1.7694 0
M  V30 13478 H 1258.86 -0.394113 -0.640452 0
M  V30 13479 H 1260.84 -2.22528 -1.98806 0
M  V30 13480 C 1259.58 -1.04625 -3.31586 0
M  V30 13481 H 1258.91 -1.88735 -3.52447 0
M  V30 13482 H 1260.35 -1.03108 -4.11272 0
M  V30 13483 C 1258.81 0.250283 -3.35969 0
M  V30 13484 O 1259.34 1.24972 -3.81765 0
M  V30 13485 N 1257.54 0.285369 -2.89195 0
M  V30 13486 H 1257.09 -0.528528 -2.5212 0
M  V30 13487 H 1257.05 1.15261 -2.9251 0
M  V30 13488 N 1260.82 1.03812 -1.18578 0
M  V30 13489 C 1262.24 1.29271 -0.936011 0
M  V30 13490 C 1262.44 1.97551 0.396965 0
M  V30 13491 O 1261.49 2.25769 1.13069 0
M  V30 13492 C 1262.8 2.1489 -2.1034 0
M  V30 13493 C 1264.35 2.28228 -2.14198 0
M  V30 13494 C 1264.83 3.17214 -3.30362 0
M  V30 13495 N 1266.32 3.24802 -3.30239 0
M  V30 13496 C 1267.05 3.9382 -4.16765 0
M  V30 13497 N 1266.55 4.65147 -5.1343 0
M  V30 13498 N 1268.34 3.90125 -4.04671 0
M  V30 13499 H 1260.49 0.579011 -2.04356 0
M  V30 13500 H 1262.76 0.318021 -0.893066 0
M  V30 13501 H 1262.46 1.72029 -3.06755 0
M  V30 13502 H 1262.34 3.15576 -2.06619 0
M  V30 13503 H 1264.72 2.70324 -1.18359 0
M  V30 13504 H 1264.8 1.27124 -2.21976 0
M  V30 13505 H 1264.45 2.75829 -4.26475 0
M  V30 13506 H 1264.38 4.18356 -3.19821 0
M  V30 13507 H 1266.87 2.73994 -2.60261 0
M  V30 13508 H 1267.18 5.15414 -5.7582 0
M  V30 13509 H 1265.53 4.64043 -5.17387 0
M  V30 13510 H 1268.72 3.33536 -3.28438 0
M  V30 13511 H 1268.89 4.43641 -4.7232 0
M  V30 13512 N 1262.3 0.988223 1.22768 0
M  V30 13513 C 1263.54 0.662441 1.91676 0
M  V30 13514 C 1263.88 -0.802931 1.76824 0
M  V30 13515 O 1263.15 -1.58011 1.13415 0
M  V30 13516 C 1263.43 1.06332 3.44043 0
M  V30 13517 C 1263.29 2.5869 3.67967 0
M  V30 13518 C 1264.61 0.613058 4.35809 0
M  V30 13519 H 1261.73 0.242132 0.69609 0
M  V30 13520 H 1264.37 1.23091 1.44736 0
M  V30 13521 H 1262.52 0.579623 3.84152 0
M  V30 13522 H 1264.19 3.14694 3.37291 0
M  V30 13523 H 1262.43 3.00971 3.12408 0
M  V30 13524 H 1263.1 2.8179 4.74656 0
M  V30 13525 H 1265.58 1.02846 4.0319 0
M  V30 13526 H 1264.46 0.921901 5.41103 0
M  V30 13527 H 1264.72 -0.48641 4.39416 0
M  V30 13528 N 1263.78 -1.38018 0.760839 0
M  V30 13529 C 1265 -2.04757 0.330038 0
M  V30 13530 C 1265.43 -1.57009 -1.03585 0
M  V30 13531 O 1264.78 -0.725349 -1.66158 0
M  V30 13532 C 1264.83 -3.58696 0.370082 0
M  V30 13533 O 1263.94 -4.07507 -0.633361 0
M  V30 13534 H 1263.28 -0.648023 0.144782 0
M  V30 13535 H 1265.81 -1.7655 1.03399 0
M  V30 13536 H 1265.82 -4.07387 0.223515 0
M  V30 13537 H 1264.49 -3.92806 1.36661 0
M  V30 13538 H 1263.07 -3.70165 -0.45081 0
M  V30 13539 N 1265.25 -0.510493 -1.49103 0
M  V30 13540 C 1266.2 0.262848 -2.29298 0
M  V30 13541 C 1267.17 0.951714 -1.36131 0
M  V30 13542 O 1268.36 0.956534 -1.65091 0
M  V30 13543 C 1265.5 1.31565 -3.19037 0
M  V30 13544 C 1264.61 0.637598 -4.27269 0
M  V30 13545 C 1263.74 1.67165 -5.04212 0
M  V30 13546 C 1262.78 0.975992 -6.04269 0
M  V30 13547 N 1261.92 1.95468 -6.74342 0
M  V30 13548 H 1266.76 -0.427246 -2.94921 0
M  V30 13549 H 1264.3 -0.222538 -1.45407 0
M  V30 13550 H 1266.25 1.93813 -3.69449 0
M  V30 13551 H 1264.88 1.97438 -2.55379 0
M  V30 13552 H 1263.94 -0.0983863 -3.80273 0
M  V30 13553 H 1265.25 0.0904435 -4.98718 0
M  V30 13554 H 1264.4 2.36893 -5.5854 0
M  V30 13555 H 1263.14 2.25267 -4.32557 0
M  V30 13556 H 1262.15 0.264534 -5.49163 0
M  V30 13557 H 1263.37 0.40134 -6.77913 0
M  V30 13558 H 1261.32 2.52515 -6.05452 0
M  V30 13559 H 1261.23 1.45845 -7.41799 0
M  V30 13560 H 1262.5 2.64455 -7.33269 0
M  V30 13561 N 1266.73 1.55688 -0.24474 0
M  V30 13562 C 1267.97 2.00796 0.382167 0
M  V30 13563 C 1268.34 1.12917 1.55286 0
M  V30 13564 O 1269.54 1.47471 2.24735 0
M  V30 13565 C 1267.81 3.48702 0.783708 0
M  V30 13566 S 1269.37 4.15818 1.40145 0
M  V30 13567 H 1266.18 0.700742 0.120343 0
M  V30 13568 H 1268.79 1.92167 -0.359468 0
M  V30 13569 H 1267.49 4.10327 -0.0776558 0
M  V30 13570 H 1267.02 3.61252 1.55758 0
M  V30 13571 H 1269.04 4.16925 2.6905 0
M  V30 13572 N 1268.21 -0.0283989 1.57574 0
M  V30 13573 C 1269.46 -0.718121 1.88483 0
M  V30 13574 C 1269.77 -1.76485 0.843345 0
M  V30 13575 O 1270.98 -2.50721 1.04169 0
M  V30 13576 C 1269.43 -1.32832 3.3449 0
M  V30 13577 C 1269.04 -0.317905 4.46871 0
M  V30 13578 C 1270.79 -1.99788 3.74546 0
M  V30 13579 C 1268.69 -0.936489 5.83938 0
M  V30 13580 H 1267.62 -0.271969 0.703242 0
M  V30 13581 H 1270.27 0.0274862 1.83479 0
M  V30 13582 H 1268.66 -2.12366 3.34241 0
M  V30 13583 H 1269.83 0.450767 4.5859 0
M  V30 13584 H 1268.14 0.249605 4.15651 0
M  V30 13585 H 1270.74 -2.46923 4.74271 0
M  V30 13586 H 1271.08 -2.81633 3.06575 0
M  V30 13587 H 1271.62 -1.27029 3.76973 0
M  V30 13588 H 1268.36 -0.15744 6.55311 0
M  V30 13589 H 1267.88 -1.67499 5.75938 0
M  V30 13590 H 1269.56 -1.44363 6.30689 0
M  V30 13591 N 1269.69 -1.54705 -0.300681 0
M  V30 13592 C 1270.62 -1.88679 -1.37559 0
M  V30 13593 C 1271.6 -0.74574 -1.52881 0
M  V30 13594 O 1272.78 -1.0015 -1.66384 0
M  V30 13595 C 1269.91 -2.13438 -2.73974 0
M  V30 13596 C 1268.87 -3.29284 -2.73415 0
M  V30 13597 C 1268.19 -3.39462 -4.13122 0
M  V30 13598 C 1269.49 -4.66382 -2.35128 0
M  V30 13599 H 1271.19 -2.78707 -1.09373 0
M  V30 13600 H 1268.73 -1.341 -0.524704 0
M  V30 13601 H 1270.69 -2.35791 -3.49257 0
M  V30 13602 H 1269.41 -1.20181 -3.03684 0
M  V30 13603 H 1268.07 -3.06855 -2.00588 0
M  V30 13604 H 1267.72 -2.43721 -4.4001 0
M  V30 13605 H 1267.42 -4.17334 -4.1365 0
M  V30 13606 H 1268.94 -3.64075 -4.90185 0
M  V30 13607 H 1270.36 -4.88463 -3.00128 0
M  V30 13608 H 1268.75 -5.4697 -2.46867 0
M  V30 13609 H 1269.82 -4.67078 -1.30256 0
M  V30 13610 N 1271.17 0.563888 -1.47167 0
M  V30 13611 C 1272.4 1.34498 -1.56825 0
M  V30 13612 C 1272.8 1.87974 -0.215011 0
M  V30 13613 O 1272.15 1.65323 0.80087 0
M  V30 13614 C 1272.21 2.55602 -2.528 0
M  V30 13615 C 1271.87 2.23459 -3.98642 0
M  V30 13616 C 1272.87 1.81155 -4.87318 0
M  V30 13617 C 1270.56 2.35024 -4.43925 0
M  V30 13618 C 1272.55 1.50835 -6.19296 0
M  V30 13619 C 1270.24 2.04317 -5.75932 0
M  V30 13620 C 1271.23 1.6229 -6.63439 0
M  V30 13621 O 1270.92 1.31969 -7.92994 0
M  V30 13622 H 1270.65 0.416551 -0.532411 0
M  V30 13623 H 1273.21 0.690611 -1.93442 0
M  V30 13624 H 1271.44 3.23907 -2.11237 0
M  V30 13625 H 1273.13 3.17677 -2.52659 0
M  V30 13626 H 1273.89 1.71719 -4.53583 0
M  V30 13627 H 1269.77 2.66696 -3.76024 0
M  V30 13628 H 1273.32 1.17958 -6.87555 0
M  V30 13629 H 1269.21 2.13383 -6.09211 0
M  V30 13630 H 1269.98 1.45656 -8.05436 0
M  V30 13631 N 1272.64 1.35187 0.810078 0
M  V30 13632 C 1273.88 1.29626 1.58039 0
M  V30 13633 C 1274.25 -0.12865 1.91569 0
M  V30 13634 O 1275.45 -0.308587 2.67023 0
M  V30 13635 C 1273.72 2.17414 2.83665 0
M  V30 13636 S 1275.28 2.29334 3.741 0
M  V30 13637 H 1272.1 0.460722 0.541531 0
M  V30 13638 H 1274.7 1.7054 0.955839 0
M  V30 13639 H 1273.4 3.19927 2.57051 0
M  V30 13640 H 1272.93 1.77444 3.51108 0
M  V30 13641 H 1274.95 1.47559 4.73752 0
M  V30 13642 N 1274.12 -1.03182 1.19127 0
M  V30 13643 C 1275.37 -1.76533 0.992093 0
M  V30 13644 C 1275.7 -1.88549 -0.477429 0
M  V30 13645 O 1274.95 -1.39675 -1.37074 0
M  V30 13646 C 1275.25 -3.19452 1.60267 0
M  V30 13647 C 1274.92 -3.27449 3.09981 0
M  V30 13648 C 1273.58 -3.29338 3.50841 0
M  V30 13649 C 1275.93 -3.26833 4.05992 0
M  V30 13650 C 1273.26 -3.28265 4.86271 0
M  V30 13651 C 1275.61 -3.27299 5.41348 0
M  V30 13652 C 1274.28 -3.27485 5.81644 0
M  V30 13653 H 1273.55 -0.645979 0.363033 0
M  V30 13654 H 1276.19 -1.21127 1.48326 0
M  V30 13655 H 1274.5 -3.77917 1.03372 0
M  V30 13656 H 1276.19 -3.74869 1.42388 0
M  V30 13657 H 1272.78 -3.26704 2.77421 0
M  V30 13658 H 1276.97 -3.24556 3.75469 0
M  V30 13659 H 1272.22 -3.26731 5.16775 0
M  V30 13660 H 1276.4 -3.25773 6.15504 0
M  V30 13661 H 1274.03 -3.26407 6.86558 0
M  V30 13662 N 1275.6 -0.99472 -1.22242 0
M  V30 13663 C 1276.83 -0.689096 -1.94769 0
M  V30 13664 C 1277.24 0.750597 -1.73674 0
M  V30 13665 O 1276.58 1.51836 -1.03399 0
M  V30 13666 C 1276.64 -0.917454 -3.47596 0
M  V30 13667 C 1276.31 -2.34198 -3.92429 0
M  V30 13668 C 1277.3 -3.3216 -3.99957 0
M  V30 13669 C 1274.99 -2.6769 -4.25026 0
M  V30 13670 C 1276.98 -4.61686 -4.3946 0
M  V30 13671 C 1274.67 -3.97435 -4.64208 0
M  V30 13672 C 1275.67 -4.94244 -4.71394 0
M  V30 13673 O 1275.36 -6.2167 -5.09688 0
M  V30 13674 H 1275.09 -0.253914 -0.626501 0
M  V30 13675 H 1277.64 -1.33271 -1.56294 0
M  V30 13676 H 1275.87 -0.21666 -3.86093 0
M  V30 13677 H 1277.56 -0.6068 -4.01339 0
M  V30 13678 H 1278.33 -3.07619 -3.74961 0
M  V30 13679 H 1274.21 -1.93039 -4.18637 0
M  V30 13680 H 1277.75 -5.37248 -4.44983 0
M  V30 13681 H 1273.65 -4.21765 -4.88656 0
M  V30 13682 H 1274.42 -6.25634 -5.27755 0
M  V30 13683 N 1277.08 1.37613 -0.768148 0
M  V30 13684 C 1278.03 2.30311 -0.150176 0
M  V30 13685 C 1279 1.50918 0.69376 0
M  V30 13686 O 1280.18 1.795 0.64687 0
M  V30 13687 C 1277.32 3.37382 0.72576 0
M  V30 13688 C 1276.43 4.31791 -0.13439 0
M  V30 13689 C 1275.57 5.25937 0.745915 0
M  V30 13690 C 1274.61 6.11988 -0.116988 0
M  V30 13691 N 1273.74 6.98387 0.721091 0
M  V30 13692 H 1278.58 2.82579 -0.946212 0
M  V30 13693 H 1276.12 1.3911 -0.478217 0
M  V30 13694 H 1278.08 3.98084 1.24839 0
M  V30 13695 H 1276.71 2.86488 1.48743 0
M  V30 13696 H 1275.76 3.72426 -0.774793 0
M  V30 13697 H 1277.07 4.9234 -0.800163 0
M  V30 13698 H 1276.23 5.91826 1.33516 0
M  V30 13699 H 1274.97 4.6579 1.44538 0
M  V30 13700 H 1273.97 5.45081 -0.7188 0
M  V30 13701 H 1275.2 6.74207 -0.813732 0
M  V30 13702 H 1273.14 6.40772 1.40524 0
M  V30 13703 H 1273.06 7.55916 0.112536 0
M  V30 13704 H 1274.33 7.6867 1.29485 0
M  V30 13705 N 1278.56 0.518393 1.4883 0
M  V30 13706 C 1279.5 -0.264197 2.31095 0
M  V30 13707 C 1280.5 -0.946455 1.40494 0
M  V30 13708 O 1281.7 -0.872161 1.57459 0
M  V30 13709 H 1278.08 -0.104065 0.744765 0
M  V30 13710 H 1280.05 0.449375 2.94997 0
M  V30 13711 C 1278.8 -1.30527 3.2227 0
M  V30 13712 H 1278.12 -0.789695 3.91923 0
M  V30 13713 H 1279.56 -1.82449 3.82738 0
M  V30 13714 C 1278.02 -2.33274 2.43073 0
M  V30 13715 O 1278.55 -3.39493 2.14726 0
M  V30 13716 N 1276.76 -2.06189 2.04779 0
M  V30 13717 H 1276.3 -1.19829 2.28033 0
M  V30 13718 H 1276.26 -2.7516 1.521 0
M  V30 13719 N 1280.03 -1.55556 0.252993 0
M  V30 13720 C 1281.28 -1.98267 -0.370571 0
M  V30 13721 C 1281.6 -1.14449 -1.58622 0
M  V30 13722 O 1282.8 -1.472 -2.28132 0
M  V30 13723 C 1281.26 -3.52813 -0.710685 0
M  V30 13724 C 1280.87 -4.45379 0.483908 0
M  V30 13725 C 1282.61 -4.04165 -1.2981 0
M  V30 13726 C 1280.52 -5.91279 0.119611 0
M  V30 13727 H 1279.45 -0.740463 -0.142232 0
M  V30 13728 H 1282.1 -1.8005 0.354169 0
M  V30 13729 H 1280.48 -3.66748 -1.49372 0
M  V30 13730 H 1281.65 -4.43206 1.26116 0
M  V30 13731 H 1279.97 -4.04542 0.986664 0
M  V30 13732 H 1282.57 -5.10696 -1.5841 0
M  V30 13733 H 1282.91 -3.51875 -2.22462 0
M  V30 13734 H 1283.44 -3.93581 -0.577836 0
M  V30 13735 H 1280.18 -6.47619 1.01343 0
M  V30 13736 H 1279.7 -5.96573 -0.621318 0
M  V30 13737 H 1281.38 -6.46322 -0.296052 0
M  V30 13738 N 1281.51 0.0200419 -1.57587 0
M  V30 13739 C 1282.76 0.710078 -1.89962 0
M  V30 13740 C 1283.09 1.74521 -0.851829 0
M  V30 13741 O 1282.37 1.94052 0.132005 0
M  V30 13742 C 1282.65 1.37145 -3.32961 0
M  V30 13743 C 1282.5 0.349221 -4.48442 0
M  V30 13744 C 1283.82 2.30304 -3.75031 0
M  V30 13745 H 1280.94 0.25667 -0.690862 0
M  V30 13746 H 1283.58 -0.0271362 -1.89981 0
M  V30 13747 H 1281.73 1.99981 -3.33076 0
M  V30 13748 H 1283.4 -0.277916 -4.60462 0
M  V30 13749 H 1281.65 -0.330594 -4.32538 0
M  V30 13750 H 1282.32 0.850636 -5.45406 0
M  V30 13751 H 1284.79 1.77503 -3.7634 0
M  V30 13752 H 1283.67 2.73555 -4.75877 0
M  V30 13753 H 1283.93 3.17364 -3.07786 0
M  V30 13754 N 1282.99 1.54862 0.292472 0
M  V30 13755 C 1283.92 1.89406 1.36556 0
M  V30 13756 C 1284.9 0.753838 1.52484 0
M  V30 13757 O 1286.09 1.01031 1.6585 0
M  V30 13758 C 1283.22 2.14888 2.72838 0
M  V30 13759 C 1282.17 3.3073 2.71665 0
M  V30 13760 C 1281.5 3.41648 4.11316 0
M  V30 13761 C 1282.8 4.67622 2.32651 0
M  V30 13762 H 1284.49 2.79284 1.07894 0
M  V30 13763 H 1282.04 1.34377 0.517585 0
M  V30 13764 H 1283.99 2.3764 3.48002 0
M  V30 13765 H 1282.71 1.2179 3.03042 0
M  V30 13766 H 1281.37 3.07915 1.98958 0
M  V30 13767 H 1281.02 2.46051 4.38711 0
M  V30 13768 H 1280.72 4.19522 4.11431 0
M  V30 13769 H 1282.24 3.6667 4.88248 0
M  V30 13770 H 1283.66 4.90048 2.97533 0
M  V30 13771 H 1282.06 5.48272 2.43963 0
M  V30 13772 H 1283.13 4.67762 1.27777 0
M  V30 13773 N 1284.47 -0.556076 1.47464 0
M  V30 13774 C 1285.7 -1.33664 1.57536 0
M  V30 13775 C 1286.11 -1.87858 0.224977 0
M  V30 13776 O 1285.45 -1.65746 -0.792091 0
M  V30 13777 C 1285.51 -2.54257 2.54152 0
M  V30 13778 C 1285.18 -2.21342 3.99821 0
M  V30 13779 C 1286.17 -1.78568 4.88272 0
M  V30 13780 C 1283.86 -2.32666 4.45165 0
M  V30 13781 C 1285.85 -1.47549 6.20087 0
M  V30 13782 C 1283.54 -2.0126 5.77008 0
M  V30 13783 C 1284.54 -1.58769 6.6429 0
M  V30 13784 O 1284.22 -1.27762 7.93683 0
M  V30 13785 H 1283.96 -0.413721 0.534613 0
M  V30 13786 H 1286.51 -0.680342 1.93805 0
M  V30 13787 H 1284.74 -3.22782 2.12952 0
M  V30 13788 H 1286.43 -3.16332 2.5434 0
M  V30 13789 H 1287.2 -1.69311 4.54487 0
M  V30 13790 H 1283.07 -2.64698 3.77433 0
M  V30 13791 H 1286.62 -1.1431 6.88171 0
M  V30 13792 H 1282.52 -2.10149 6.10334 0
M  V30 13793 H 1283.28 -1.41383 8.06197 0
M  V30 13794 N 1285.95 -1.35615 -0.802897 0
M  V30 13795 C 1287.2 -1.28428 -1.55528 0
M  V30 13796 C 1287.51 0.138275 -1.95111 0
M  V30 13797 O 1288.72 0.332435 -2.69457 0
M  V30 13798 C 1287.17 -2.25251 -2.80696 0
M  V30 13799 C 1286.78 -3.72871 -2.48336 0
M  V30 13800 C 1288.52 -2.27014 -3.58699 0
M  V30 13801 C 1286.43 -4.61507 -3.69817 0
M  V30 13802 H 1285.36 -0.47718 -0.583794 0
M  V30 13803 H 1288.01 -1.609 -0.882238 0
M  V30 13804 H 1286.39 -1.85755 -3.4973 0
M  V30 13805 H 1287.57 -4.21024 -1.87285 0
M  V30 13806 H 1285.88 -3.73752 -1.83571 0
M  V30 13807 H 1288.48 -2.90451 -4.48935 0
M  V30 13808 H 1288.82 -1.27491 -3.96298 0
M  V30 13809 H 1289.36 -2.65058 -2.9663 0
M  V30 13810 H 1286.09 -5.62043 -3.37324 0
M  V30 13811 H 1285.61 -4.18079 -4.30081 0
M  V30 13812 H 1287.29 -4.77113 -4.37004 0
M  V30 13813 N 1287.43 1.02549 -1.19673 0
M  V30 13814 C 1288.67 1.75408 -0.995732 0
M  V30 13815 C 1288.99 1.89773 0.473863 0
M  V30 13816 O 1290.19 2.59638 0.793762 0
M  V30 13817 C 1288.65 3.15444 -1.73273 0
M  V30 13818 C 1288.26 3.09121 -3.24266 0
M  V30 13819 C 1290 3.92575 -1.61509 0
M  V30 13820 C 1287.91 4.44109 -3.9054 0
M  V30 13821 H 1286.84 0.657569 -0.368944 0
M  V30 13822 H 1289.49 1.14739 -1.43203 0
M  V30 13823 H 1287.87 3.76601 -1.22425 0
M  V30 13824 H 1289.05 2.57325 -3.82257 0
M  V30 13825 H 1287.36 2.45485 -3.36342 0
M  V30 13826 H 1289.96 4.92428 -2.08372 0
M  V30 13827 H 1290.3 4.12382 -0.569804 0
M  V30 13828 H 1290.83 3.38027 -2.09721 0
M  V30 13829 H 1287.57 4.29506 -4.95182 0
M  V30 13830 H 1287.09 4.95947 -3.37337 0
M  V30 13831 H 1288.77 5.12982 -3.94282 0
M  V30 13832 N 1288.9 1.00119 1.21713 0
M  V30 13833 C 1289.81 0.567582 2.27631 0
M  V30 13834 C 1290.83 -0.387593 1.69628 0
M  V30 13835 O 1292.01 -0.252372 1.99813 0
M  V30 13836 C 1289.07 -0.102745 3.46548 0
M  V30 13837 C 1288.13 0.896433 4.19836 0
M  V30 13838 C 1287.36 0.258 5.33076 0
M  V30 13839 O 1287.59 -0.946118 5.62499 0
M  V30 13840 O 1286.52 0.967021 5.94081 0
M  V30 13841 H 1290.35 1.44898 2.66905 0
M  V30 13842 H 1287.93 0.769862 1.28037 0
M  V30 13843 H 1289.81 -0.477846 4.18682 0
M  V30 13844 H 1288.49 -0.958576 3.09181 0
M  V30 13845 H 1287.4 1.32262 3.49939 0
M  V30 13846 H 1288.73 1.72173 4.61104 0
M  V30 13847 N 1290.38 -1.37203 0.775435 0
M  V30 13848 C 1291.63 -1.98846 0.338093 0
M  V30 13849 C 1291.94 -1.6225 -1.09244 0
M  V30 13850 O 1293.15 -2.17024 -1.63135 0
M  V30 13851 C 1291.61 -3.55618 0.553541 0
M  V30 13852 C 1291.21 -4.01149 1.99457 0
M  V30 13853 C 1292.96 -4.24118 0.180006 0
M  V30 13854 C 1290.86 -5.50644 2.15742 0
M  V30 13855 H 1289.79 -0.743955 0.122669 0
M  V30 13856 H 1292.45 -1.56685 0.955087 0
M  V30 13857 H 1290.83 -3.95777 -0.132964 0
M  V30 13858 H 1292 -3.72226 2.71633 0
M  V30 13859 H 1290.32 -3.45443 2.32504 0
M  V30 13860 H 1292.91 -5.33966 0.280145 0
M  V30 13861 H 1293.26 -4.07104 -0.870192 0
M  V30 13862 H 1293.79 -3.89274 0.819201 0
M  V30 13863 H 1290.53 -5.7259 3.19094 0
M  V30 13864 H 1290.05 -5.8124 1.48054 0
M  V30 13865 H 1291.73 -6.16668 1.95781 0
M  V30 13866 N 1291.86 -0.526279 -1.48553 0
M  V30 13867 C 1293.11 0.00107127 -2.034 0
M  V30 13868 C 1293.46 1.32343 -1.39654 0
M  V30 13869 O 1292.75 1.84071 -0.531835 0
M  V30 13870 C 1292.95 0.184075 -3.56926 0
M  V30 13871 C 1292.78 -1.11899 -4.35556 0
M  V30 13872 C 1291.55 -1.67784 -4.76631 0
M  V30 13873 C 1293.74 -2.02868 -4.72598 0
M  V30 13874 N 1291.73 -2.92418 -5.39783 0
M  V30 13875 C 1293.1 -3.12078 -5.35731 0
M  V30 13876 C 1295.15 -2.03239 -4.54531 0
M  V30 13877 C 1293.86 -4.21719 -5.82705 0
M  V30 13878 C 1295.88 -3.11872 -5.02484 0
M  V30 13879 C 1295.24 -4.19801 -5.65638 0
M  V30 13880 H 1291.34 -0.0410153 -0.780924 0
M  V30 13881 H 1293.93 -0.706739 -1.8142 0
M  V30 13882 H 1292.1 0.860966 -3.78737 0
M  V30 13883 H 1293.83 0.710699 -3.98411 0
M  V30 13884 H 1290.58 -1.2197 -4.57625 0
M  V30 13885 H 1291.01 -3.55862 -5.75927 0
M  V30 13886 H 1295.65 -1.21092 -4.05088 0
M  V30 13887 H 1293.37 -5.04647 -6.31155 0
M  V30 13888 H 1296.95 -3.1321 -4.90297 0
M  V30 13889 H 1295.83 -5.02475 -6.0207 0
M  V30 13890 N 1293.34 1.5542 -0.261239 0
M  V30 13891 C 1294.58 1.99284 0.359487 0
M  V30 13892 C 1294.91 1.14954 1.56894 0
M  V30 13893 O 1294.17 0.203796 1.94636 0
M  V30 13894 C 1294.47 3.48354 0.799021 0
M  V30 13895 C 1294.13 4.49872 -0.30426 0
M  V30 13896 C 1292.79 4.77353 -0.607237 0
M  V30 13897 C 1295.15 5.10547 -1.04838 0
M  V30 13898 C 1292.47 5.62781 -1.65816 0
M  V30 13899 C 1294.83 5.97115 -2.08893 0
M  V30 13900 C 1293.49 6.22923 -2.3984 0
M  V30 13901 H 1292.76 0.72923 0.131546 0
M  V30 13902 H 1295.41 1.87851 -0.372058 0
M  V30 13903 H 1293.71 3.57192 1.61001 0
M  V30 13904 H 1295.41 3.7969 1.28981 0
M  V30 13905 H 1292 4.28561 -0.0579863 0
M  V30 13906 H 1296.18 4.89352 -0.827566 0
M  V30 13907 H 1291.44 5.81026 -1.90311 0
M  V30 13908 H 1295.61 6.43168 -2.67035 0
M  V30 13909 H 1293.24 6.88912 -3.2141 0
M  V30 13910 N 1294.82 -0.0116844 1.57596 0
M  V30 13911 C 1295.78 -0.991601 2.0664 0
M  V30 13912 C 1296.78 -1.27973 0.973629 0
M  V30 13913 O 1297.97 -1.22686 1.23668 0
M  V30 13914 C 1295.1 -2.31975 2.49801 0
M  V30 13915 H 1296.29 -0.567607 2.9448 0
M  V30 13916 H 1293.85 -0.258906 1.54141 0
M  V30 13917 H 1294.58 -2.79087 1.65169 0
M  V30 13918 H 1294.37 -2.12386 3.29598 0
M  V30 13919 H 1295.86 -3.02294 2.88112 0
M  V30 13920 N 1296.29 -1.55015 -0.284256 0
M  V30 13921 C 1297.54 -1.7509 -1.01733 0
M  V30 13922 C 1297.87 -0.545803 -1.86685 0
M  V30 13923 O 1297.12 0.471951 -1.89924 0
M  V30 13924 C 1297.42 -3.00246 -1.93874 0
M  V30 13925 C 1297.09 -4.33295 -1.24764 0
M  V30 13926 C 1295.75 -4.69459 -1.0565 0
M  V30 13927 C 1298.1 -5.15704 -0.754939 0
M  V30 13928 C 1295.43 -5.85596 -0.35976 0
M  V30 13929 C 1297.78 -6.32559 -0.0718473 0
M  V30 13930 C 1296.45 -6.67371 0.131104 0
M  V30 13931 H 1295.72 -0.6407 -0.372269 0
M  V30 13932 H 1298.36 -1.89282 -0.290638 0
M  V30 13933 H 1296.67 -2.80907 -2.73127 0
M  V30 13934 H 1298.37 -3.12974 -2.50696 0
M  V30 13935 H 1294.96 -4.04865 -1.4065 0
M  V30 13936 H 1299.14 -4.8825 -0.89027 0
M  V30 13937 H 1294.4 -6.11099 -0.19169 0
M  V30 13938 H 1298.57 -6.95675 0.317743 0
M  V30 13939 H 1296.2 -7.57215 0.672977 0
M  V30 13940 N 1297.77 0.548248 -1.47757 0
M  V30 13941 C 1299.02 1.30694 -1.55071 0
M  V30 13942 C 1299.35 1.92994 -0.216075 0
M  V30 13943 O 1298.63 1.78341 0.776196 0
M  V30 13944 C 1298.91 2.41024 -2.67543 0
M  V30 13945 C 1298.76 1.83534 -4.10652 0
M  V30 13946 C 1300.08 3.42902 -2.75874 0
M  V30 13947 H 1297.2 0.47383 -0.564494 0
M  V30 13948 H 1299.84 0.612628 -1.79852 0
M  V30 13949 H 1297.99 3.00248 -2.46543 0
M  V30 13950 H 1299.66 1.28503 -4.4304 0
M  V30 13951 H 1297.91 1.14161 -4.18509 0
M  V30 13952 H 1298.58 2.63335 -4.85138 0
M  V30 13953 H 1301.05 2.9361 -2.94843 0
M  V30 13954 H 1299.93 4.17516 -3.5633 0
M  V30 13955 H 1300.19 4.02314 -1.83291 0
M  V30 13956 N 1299.25 1.36039 0.795694 0
M  V30 13957 C 1300.2 1.29902 1.92946 0
M  V30 13958 C 1301.19 0.191943 1.68309 0
M  V30 13959 O 1302.4 0.358577 1.76392 0
M  V30 13960 H 1298.77 0.404252 0.634101 0
M  V30 13961 H 1300.74 2.25663 1.95241 0
M  V30 13962 C 1299.49 1.09887 3.29879 0
M  V30 13963 H 1298.82 1.94318 3.494 0
M  V30 13964 H 1300.26 1.09638 4.0958 0
M  V30 13965 C 1298.71 -0.196802 3.36325 0
M  V30 13966 O 1299.24 -1.18883 3.83705 0
M  V30 13967 N 1297.45 -0.239325 2.89613 0
M  V30 13968 H 1297 0.568571 2.51247 0
M  V30 13969 H 1296.96 -1.10593 2.94307 0
M  V30 13970 N 1300.73 -1.01913 1.20215 0
M  V30 13971 C 1301.98 -1.75124 1.00876 0
M  V30 13972 C 1302.3 -1.89485 -0.460475 0
M  V30 13973 O 1301.57 -1.43552 -1.33302 0
M  V30 13974 H 1300.15 -0.648777 0.370266 0
M  V30 13975 H 1302.81 -1.22883 1.5128 0
M  V30 13976 H 1301.91 -2.7558 1.46499 0
M  V30 13977 N 1302.21 -1.00763 -1.2118 0
M  V30 13978 C 1303.45 -0.691826 -1.90316 0
M  V30 13979 C 1303.78 0.777678 -1.78276 0
M  V30 13980 O 1303.04 1.57962 -1.15526 0
M  V30 13981 C 1303.34 -1.06187 -3.41261 0
M  V30 13982 C 1303 -2.52608 -3.73497 0
M  V30 13983 C 1301.66 -2.92617 -3.82006 0
M  V30 13984 C 1304.02 -3.47442 -3.88502 0
M  V30 13985 C 1301.34 -4.26419 -4.02969 0
M  V30 13986 C 1303.7 -4.8092 -4.10973 0
M  V30 13987 C 1302.36 -5.20649 -4.17709 0
M  V30 13988 H 1301.63 -0.253157 -0.696414 0
M  V30 13989 H 1304.28 -1.26655 -1.43634 0
M  V30 13990 H 1302.58 -0.405428 -3.89697 0
M  V30 13991 H 1304.28 -0.795343 -3.93033 0
M  V30 13992 H 1300.87 -2.20603 -3.67468 0
M  V30 13993 H 1305.05 -3.17695 -3.81292 0
M  V30 13994 H 1300.31 -4.56767 -4.06416 0
M  V30 13995 H 1304.48 -5.54337 -4.21525 0
M  V30 13996 H 1302.11 -6.24343 -4.33705 0
M  V30 13997 N 1303.68 1.3679 -0.7827 0
M  V30 13998 C 1304.91 2.04206 -0.362571 0
M  V30 13999 C 1305.33 1.58637 1.01074 0
M  V30 14000 O 1304.69 0.751692 1.64983 0
M  V30 14001 C 1304.74 3.58062 -0.4271 0
M  V30 14002 O 1303.84 4.08463 0.56845 0
M  V30 14003 H 1303.19 0.645638 -0.155073 0
M  V30 14004 H 1305.72 1.74883 -1.06194 0
M  V30 14005 H 1305.73 4.0698 -0.288298 0
M  V30 14006 H 1304.4 3.90582 -1.42893 0
M  V30 14007 H 1302.98 3.70835 0.391863 0
M  V30 14008 N 1305.16 0.53415 1.48272 0
M  V30 14009 C 1306.41 0.00156948 2.021 0
M  V30 14010 C 1306.73 -1.34371 1.41313 0
M  V30 14011 O 1306 -1.87117 0.579996 0
M  V30 14012 H 1304.58 -0.00240789 0.746996 0
M  V30 14013 H 1307.24 0.698928 1.81937 0
M  V30 14014 H 1306.34 -0.103671 3.11928 0
M  V30 14015 N 1306.64 -1.55279 0.269478 0
M  V30 14016 C 1307.57 -2.19684 -0.653573 0
M  V30 14017 C 1308.59 -1.17985 -1.12176 0
M  V30 14018 O 1309.77 -1.44739 -1.04464 0
M  V30 14019 C 1306.87 -2.80438 -1.90284 0
M  V30 14020 C 1306.05 -4.07774 -1.58239 0
M  V30 14021 C 1305.11 -4.52629 -2.68354 0
M  V30 14022 O 1304.13 -5.18524 -2.3478 0
M  V30 14023 N 1305.33 -4.22297 -3.98303 0
M  V30 14024 H 1308.1 -2.99525 -0.102379 0
M  V30 14025 H 1305.66 -1.61648 0.0903465 0
M  V30 14026 H 1307.65 -3.07392 -2.63234 0
M  V30 14027 H 1306.22 -2.04622 -2.36323 0
M  V30 14028 H 1305.44 -3.88168 -0.686983 0
M  V30 14029 H 1306.73 -4.90749 -1.34323 0
M  V30 14030 H 1306.13 -3.69441 -4.28404 0
M  V30 14031 H 1304.69 -4.54035 -4.67649 0
M  V30 14032 N 1308.12 0.00332656 -1.576 0
M  V30 14033 C 1309.37 0.688044 -1.89602 0
M  V30 14034 C 1309.68 1.75121 -0.871316 0
M  V30 14035 O 1310.89 2.49032 -1.08144 0
M  V30 14036 C 1309.34 1.27494 -3.36561 0
M  V30 14037 C 1308.95 0.246771 -4.4732 0
M  V30 14038 C 1310.69 1.93804 -3.77677 0
M  V30 14039 C 1308.6 0.843471 -5.85354 0
M  V30 14040 H 1307.53 0.260747 -0.707479 0
M  V30 14041 H 1310.18 -0.0566727 -1.83412 0
M  V30 14042 H 1308.56 2.07022 -3.37577 0
M  V30 14043 H 1309.74 -0.523668 -4.57815 0
M  V30 14044 H 1308.05 -0.3157 -4.15202 0
M  V30 14045 H 1310.65 2.39347 -4.78139 0
M  V30 14046 H 1310.99 2.7672 -3.11017 0
M  V30 14047 H 1311.53 1.21015 -3.78946 0
M  V30 14048 H 1308.27 0.0531655 -6.55478 0
M  V30 14049 H 1307.79 1.58315 -5.7853 0
M  V30 14050 H 1309.46 1.34311 -6.32906 0
M  V30 14051 N 1309.6 1.55164 0.276031 0
M  V30 14052 C 1310.53 1.90844 1.34539 0
M  V30 14053 C 1311.51 0.769968 1.51676 0
M  V30 14054 O 1312.69 1.02785 1.64769 0
M  V30 14055 C 1309.82 2.17769 2.70543 0
M  V30 14056 C 1308.78 3.33592 2.68142 0
M  V30 14057 C 1308.1 3.45991 4.07669 0
M  V30 14058 C 1309.4 4.70064 2.27678 0
M  V30 14059 H 1311.1 2.80412 1.04926 0
M  V30 14060 H 1308.64 1.34918 0.503303 0
M  V30 14061 H 1310.6 2.41317 3.45462 0
M  V30 14062 H 1309.32 1.24997 3.01734 0
M  V30 14063 H 1307.98 3.10007 1.95681 0
M  V30 14064 H 1307.63 2.50691 4.36077 0
M  V30 14065 H 1307.33 4.23862 4.06958 0
M  V30 14066 H 1308.85 3.71828 4.84331 0
M  V30 14067 H 1310.26 4.93176 2.92319 0
M  V30 14068 H 1308.66 5.50829 2.38134 0
M  V30 14069 H 1309.73 4.69091 1.22808 0
M  V30 14070 N 1311.07 -0.540404 1.48045 0
M  V30 14071 C 1312.32 -1.29678 1.55531 0
M  V30 14072 C 1312.65 -1.93197 0.224725 0
M  V30 14073 O 1311.9 -1.79308 -0.784028 0
M  V30 14074 C 1312.2 -2.41517 2.63447 0
M  V30 14075 C 1311.87 -1.95719 4.06208 0
M  V30 14076 C 1310.53 -1.82946 4.45067 0
M  V30 14077 C 1312.88 -1.6098 4.95717 0
M  V30 14078 C 1310.21 -1.33753 5.7125 0
M  V30 14079 C 1312.56 -1.13253 6.2238 0
M  V30 14080 C 1311.23 -0.990886 6.60104 0
M  V30 14081 H 1310.5 -0.474525 0.569129 0
M  V30 14082 H 1313.14 -0.604209 1.81718 0
M  V30 14083 H 1311.45 -3.16401 2.3108 0
M  V30 14084 H 1313.15 -2.9967 2.66457 0
M  V30 14085 H 1309.74 -2.06609 3.75514 0
M  V30 14086 H 1313.92 -1.69713 4.66381 0
M  V30 14087 H 1309.18 -1.21465 5.99213 0
M  V30 14088 H 1313.35 -0.854401 6.91139 0
M  V30 14089 H 1310.98 -0.607497 7.57769 0
M  V30 14090 N 1312.55 -1.36459 -0.788468 0
M  V30 14091 C 1313.46 -1.33017 -1.93245 0
M  V30 14092 C 1314.48 -0.232212 -1.72444 0
M  V30 14093 O 1315.65 -0.464743 -1.95965 0
M  V30 14094 C 1312.72 -1.1197 -3.28121 0
M  V30 14095 C 1311.78 -2.3125 -3.61693 0
M  V30 14096 C 1311.01 -2.11197 -4.90134 0
M  V30 14097 O 1311.24 -1.08764 -5.59934 0
M  V30 14098 O 1310.17 -2.98996 -5.22384 0
M  V30 14099 H 1314 -2.29333 -1.99098 0
M  V30 14100 H 1311.58 -1.17016 -0.928856 0
M  V30 14101 H 1313.46 -1.02154 -4.08831 0
M  V30 14102 H 1312.14 -0.187171 -3.23158 0
M  V30 14103 H 1311.05 -2.46635 -2.81286 0
M  V30 14104 H 1312.38 -3.23012 -3.71381 0
M  V30 14105 N 1314.03 1.01274 -1.20754 0
M  V30 14106 C 1315.45 1.27256 -0.963221 0
M  V30 14107 C 1315.65 1.98349 0.354972 0
M  V30 14108 O 1314.7 2.28116 1.08255 0
M  V30 14109 C 1316.02 2.1038 -2.14851 0
M  V30 14110 C 1317.56 2.23633 -2.18991 0
M  V30 14111 C 1318.04 3.10136 -3.37016 0
M  V30 14112 N 1319.53 3.17724 -3.37054 0
M  V30 14113 C 1320.26 3.84891 -4.25025 0
M  V30 14114 N 1319.76 4.54152 -5.23181 0
M  V30 14115 N 1321.55 3.81454 -4.12855 0
M  V30 14116 H 1313.7 0.535534 -2.05538 0
M  V30 14117 H 1315.97 0.299006 -0.899611 0
M  V30 14118 H 1315.67 1.65484 -3.10335 0
M  V30 14119 H 1315.55 3.11122 -2.13267 0
M  V30 14120 H 1317.93 2.67753 -1.24067 0
M  V30 14121 H 1318.02 1.22387 -2.24622 0
M  V30 14122 H 1317.66 2.66721 -4.32229 0
M  V30 14123 H 1317.59 4.11478 -3.28623 0
M  V30 14124 H 1320.08 2.68412 -2.66014 0
M  V30 14125 H 1320.39 5.03084 -5.86623 0
M  V30 14126 H 1318.74 4.52964 -5.27113 0
M  V30 14127 H 1321.93 3.26494 -3.35439 0
M  V30 14128 H 1322.1 4.33523 -4.81624 0
M  V30 14129 N 1315.51 1.01404 1.20644 0
M  V30 14130 C 1316.76 0.712655 1.90507 0
M  V30 14131 C 1317.11 -0.749299 1.7721 0
M  V30 14132 O 1316.4 -1.53709 1.14386 0
M  V30 14133 C 1316.6 1.07995 3.40693 0
M  V30 14134 C 1316.43 2.57606 3.68604 0
M  V30 14135 C 1315.2 3.2435 3.8746 0
M  V30 14136 C 1317.39 3.55788 3.71375 0
M  V30 14137 N 1315.38 4.63218 4.02868 0
M  V30 14138 C 1316.75 4.80207 3.92175 0
M  V30 14139 C 1318.8 3.49797 3.54325 0
M  V30 14140 C 1317.51 5.9936 3.97694 0
M  V30 14141 C 1319.53 4.68349 3.61114 0
M  V30 14142 C 1318.89 5.91575 3.82385 0
M  V30 14143 H 1314.99 0.312406 0.716887 0
M  V30 14144 H 1317.58 1.29835 1.4509 0
M  V30 14145 H 1315.75 0.522623 3.84868 0
M  V30 14146 H 1317.48 0.732364 3.98018 0
M  V30 14147 H 1314.23 2.7478 3.85737 0
M  V30 14148 H 1314.66 5.3531 4.14454 0
M  V30 14149 H 1319.3 2.55525 3.36848 0
M  V30 14150 H 1317.02 6.94015 4.13968 0
M  V30 14151 H 1320.6 4.65325 3.49233 0
M  V30 14152 H 1319.48 6.81776 3.87494 0
M  V30 14153 N 1316.99 -1.36373 0.789944 0
M  V30 14154 C 1318.23 -2.0106 0.367995 0
M  V30 14155 C 1318.59 -1.61336 -1.0409 0
M  V30 14156 O 1319.79 -2.18618 -1.56396 0
M  V30 14157 C 1318.06 -3.53492 0.527106 0
M  V30 14158 S 1319.62 -4.38375 0.193113 0
M  V30 14159 H 1316.44 -0.696965 0.140573 0
M  V30 14160 H 1319.04 -1.66256 1.02855 0
M  V30 14161 H 1317.75 -3.7989 1.55279 0
M  V30 14162 H 1317.28 -3.93116 -0.149364 0
M  V30 14163 H 1319.29 -4.85913 -1.00513 0
M  V30 14164 N 1318.47 -0.542005 -1.47987 0
M  V30 14165 C 1319.71 -0.010246 -2.01697 0
M  V30 14166 C 1320.03 1.34173 -1.42327 0
M  V30 14167 O 1321.23 1.96254 -1.87607 0
M  V30 14168 C 1319.69 0.0321032 -3.59886 0
M  V30 14169 C 1319.3 -1.31571 -4.28244 0
M  V30 14170 C 1321.04 0.512056 -4.214 0
M  V30 14171 C 1318.95 -1.23329 -5.78398 0
M  V30 14172 H 1317.88 -6.02097e-05 -0.754 0
M  V30 14173 H 1320.53 -0.687586 -1.70131 0
M  V30 14174 H 1318.91 0.774774 -3.88347 0
M  V30 14175 H 1320.09 -2.07489 -4.11442 0
M  V30 14176 H 1318.4 -1.73237 -3.78653 0
M  V30 14177 H 1321 0.591875 -5.31414 0
M  V30 14178 H 1321.34 1.52061 -3.87535 0
M  V30 14179 H 1321.87 -0.175293 -3.97414 0
M  V30 14180 H 1318.61 -2.21737 -6.16857 0
M  V30 14181 H 1318.13 -0.51567 -5.97579 0
M  V30 14182 H 1319.81 -0.928975 -6.40296 0
M  V30 14183 N 1319.94 1.55134 -0.277709 0
M  V30 14184 C 1321.19 1.99259 0.337662 0
M  V30 14185 C 1321.51 1.16755 1.56183 0
M  V30 14186 O 1320.78 0.257707 1.94198 0
M  V30 14187 H 1319.36 0.735995 0.127751 0
M  V30 14188 H 1322.02 1.91087 -0.383646 0
M  V30 14189 H 1321.12 3.05763 0.625747 0
M  V30 14190 N 1321.42 0.00503138 1.57599 0
M  V30 14191 C 1322.35 -0.983586 2.11773 0
M  V30 14192 C 1323.33 -1.35518 1.02805 0
M  V30 14193 O 1324.52 -1.43804 1.30514 0
M  V30 14194 C 1321.65 -2.27383 2.62515 0
M  V30 14195 C 1320.6 -2.0437 3.76054 0
M  V30 14196 C 1319.93 -3.39451 4.1313 0
M  V30 14197 C 1321.23 -1.40223 5.03125 0
M  V30 14198 H 1322.92 -0.532501 2.94627 0
M  V30 14199 H 1320.47 -0.254696 1.4173 0
M  V30 14200 H 1322.42 -2.96903 2.99043 0
M  V30 14201 H 1321.14 -2.74614 1.7679 0
M  V30 14202 H 1319.8 -1.37275 3.39928 0
M  V30 14203 H 1319.45 -3.84395 3.24422 0
M  V30 14204 H 1319.15 -3.24868 4.89627 0
M  V30 14205 H 1320.68 -4.10279 4.52221 0
M  V30 14206 H 1322.09 -1.99708 5.37392 0
M  V30 14207 H 1320.49 -1.36112 5.8446 0
M  V30 14208 H 1321.56 -0.372073 4.8347 0
M  V30 14209 N 1322.9 -1.55308 -0.267798 0
M  V30 14210 C 1324.13 -1.79929 -1.01533 0
M  V30 14211 C 1324.54 -0.57545 -1.80237 0
M  V30 14212 O 1323.88 0.465072 -1.77715 0
M  V30 14213 C 1323.94 -2.97568 -2.01726 0
M  V30 14214 C 1323.61 -4.34407 -1.41912 0
M  V30 14215 C 1324.6 -5.13197 -0.832151 0
M  V30 14216 C 1322.29 -4.81074 -1.44476 0
M  V30 14217 C 1324.28 -6.3679 -0.278781 0
M  V30 14218 C 1321.97 -6.04621 -0.887535 0
M  V30 14219 C 1322.97 -6.82316 -0.305548 0
M  V30 14220 O 1322.66 -8.03532 0.243133 0
M  V30 14221 H 1322.39 -0.603082 -0.305398 0
M  V30 14222 H 1324.94 -2.03162 -0.302378 0
M  V30 14223 H 1323.17 -2.7004 -2.76795 0
M  V30 14224 H 1324.86 -3.09466 -2.62651 0
M  V30 14225 H 1325.63 -4.78273 -0.805 0
M  V30 14226 H 1321.51 -4.20604 -1.88714 0
M  V30 14227 H 1325.05 -6.97378 0.176117 0
M  V30 14228 H 1320.95 -6.39026 -0.911943 0
M  V30 14229 H 1321.71 -8.18392 0.132991 0
M  V30 14230 N 1324.38 0.532545 -1.4833 0
M  V30 14231 C 1325.33 1.65832 -1.63103 0
M  V30 14232 C 1326.32 1.61929 -0.497538 0
M  V30 14233 O 1327.53 1.66817 -0.676176 0
M  V30 14234 H 1323.9 0.549152 -0.513748 0
M  V30 14235 H 1325.87 1.50515 -2.57658 0
M  V30 14236 C 1324.62 3.04113 -1.68555 0
M  V30 14237 H 1323.94 3.07809 -2.55135 0
M  V30 14238 H 1325.38 3.82506 -1.82936 0
M  V30 14239 C 1323.84 3.34225 -0.423711 0
M  V30 14240 O 1324.37 3.99005 0.464523 0
M  V30 14241 N 1322.58 2.89087 -0.296192 0
M  V30 14242 H 1322.13 2.36547 -1.01997 0
M  V30 14243 H 1322.08 3.09604 0.547082 0
M  V30 14244 N 1325.86 1.36875 0.78122 0
M  V30 14245 C 1327.1 1.31754 1.54171 0
M  V30 14246 C 1327.43 -0.100632 1.93939 0
M  V30 14247 O 1326.71 -1.05587 1.63345 0
M  V30 14248 C 1326.99 2.24789 2.81322 0
M  V30 14249 C 1326.85 3.75342 2.47868 0
M  V30 14250 C 1328.16 2.16442 3.83198 0
M  V30 14251 H 1325.28 0.479931 0.559317 0
M  V30 14252 H 1327.93 1.67497 0.896935 0
M  V30 14253 H 1326.08 1.94438 3.36342 0
M  V30 14254 H 1327.75 4.16247 1.98836 0
M  V30 14255 H 1325.99 3.94375 1.80696 0
M  V30 14256 H 1326.66 4.3586 3.38719 0
M  V30 14257 H 1329.14 2.43175 3.37647 0
M  V30 14258 H 1328.01 2.83695 4.69903 0
M  V30 14259 H 1328.27 1.15431 4.26765 0
M  V30 14260 N 1327.33 -1.00632 1.21289 0
M  V30 14261 C 1328.27 -2.09085 0.914258 0
M  V30 14262 C 1329.24 -1.62016 -0.137697 0
M  V30 14263 O 1330.43 -1.88498 -0.00902131 0
M  V30 14264 C 1327.56 -3.36645 0.37254 0
M  V30 14265 C 1326.6 -4.0262 1.40709 0
M  V30 14266 S 1327.43 -4.45203 2.97582 0
M  V30 14267 C 1328.59 -5.75951 2.45013 0
M  V30 14268 H 1328.82 -2.34094 1.83268 0
M  V30 14269 H 1326.36 -1.13893 1.04248 0
M  V30 14270 H 1328.31 -4.10446 0.0665561 0
M  V30 14271 H 1326.98 -3.09689 -0.524546 0
M  V30 14272 H 1326.17 -4.94427 0.977642 0
M  V30 14273 H 1325.77 -3.35088 1.66108 0
M  V30 14274 H 1328.06 -6.51634 1.85416 0
M  V30 14275 H 1329.01 -6.23706 3.35257 0
M  V30 14276 H 1329.41 -5.32707 1.8677 0
M  V30 14277 N 1328.81 -1.02043 -1.20104 0
M  V30 14278 C 1330.06 -0.711973 -1.89571 0
M  V30 14279 C 1330.39 0.758725 -1.79091 0
M  V30 14280 O 1329.64 1.56728 -1.17195 0
M  V30 14281 C 1329.94 -1.098 -3.40116 0
M  V30 14282 C 1329.61 -2.56555 -3.70797 0
M  V30 14283 C 1328.27 -2.96653 -3.78881 0
M  V30 14284 C 1330.62 -3.51543 -3.84795 0
M  V30 14285 C 1327.95 -4.30669 -3.98424 0
M  V30 14286 C 1330.3 -4.85252 -4.05849 0
M  V30 14287 C 1328.96 -5.2505 -4.12163 0
M  V30 14288 H 1328.23 -0.260529 -0.69369 0
M  V30 14289 H 1330.88 -1.28172 -1.42282 0
M  V30 14290 H 1329.19 -0.446738 -3.89245 0
M  V30 14291 H 1330.88 -0.836985 -3.92168 0
M  V30 14292 H 1327.47 -2.24488 -3.65107 0
M  V30 14293 H 1331.66 -3.21721 -3.77901 0
M  V30 14294 H 1326.91 -4.61052 -4.01548 0
M  V30 14295 H 1331.09 -5.58777 -4.15622 0
M  V30 14296 H 1328.71 -6.28908 -4.27059 0
M  V30 14297 N 1330.29 1.35952 -0.797165 0
M  V30 14298 C 1331.52 2.0328 -0.385316 0
M  V30 14299 C 1331.93 1.60095 1.00076 0
M  V30 14300 O 1331.29 0.794014 1.64322 0
M  V30 14301 C 1331.34 3.5871 -0.448284 0
M  V30 14302 O 1331.06 4.00323 -1.7797 0
M  V30 14303 C 1332.56 4.43291 -0.0280465 0
M  V30 14304 H 1329.78 0.652192 -0.157756 0
M  V30 14305 H 1332.33 1.73769 -1.07817 0
M  V30 14306 H 1330.48 3.86903 0.196224 0
M  V30 14307 H 1330.9 4.94941 -1.73592 0
M  V30 14308 H 1332.37 5.51862 -0.123234 0
M  V30 14309 H 1332.85 4.27059 1.02552 0
M  V30 14310 H 1333.45 4.20375 -0.645343 0
M  V30 14311 N 1331.77 0.549846 1.47697 0
M  V30 14312 C 1332.73 -0.191427 2.28399 0
M  V30 14313 C 1333.73 -0.849533 1.36527 0
M  V30 14314 O 1334.92 -0.706526 1.59229 0
M  V30 14315 C 1332.05 -1.27907 3.15995 0
M  V30 14316 H 1333.25 0.517375 2.95404 0
M  V30 14317 H 1330.8 0.30651 1.53265 0
M  V30 14318 H 1331.53 -2.0205 2.53665 0
M  V30 14319 H 1331.32 -0.812066 3.83599 0
M  V30 14320 H 1332.81 -1.79992 3.76819 0
M  V30 14321 N 1333.25 -1.54984 0.285932 0
M  V30 14322 C 1334.18 -2.19087 -0.638448 0
M  V30 14323 C 1335.16 -1.1553 -1.14418 0
M  V30 14324 O 1336.34 -1.44105 -1.21516 0
M  V30 14325 C 1333.47 -2.82273 -1.87188 0
M  V30 14326 C 1332.51 -3.99226 -1.5007 0
M  V30 14327 S 1333.35 -5.32463 -0.569552 0
M  V30 14328 C 1334.5 -5.99124 -1.81112 0
M  V30 14329 H 1334.74 -2.97152 -0.0938139 0
M  V30 14330 H 1332.27 -1.54241 0.0701344 0
M  V30 14331 H 1334.23 -3.19307 -2.57979 0
M  V30 14332 H 1332.89 -2.04082 -2.38767 0
M  V30 14333 H 1332.08 -4.42166 -2.41878 0
M  V30 14334 H 1331.68 -3.63671 -0.872871 0
M  V30 14335 H 1333.98 -6.19015 -2.75367 0
M  V30 14336 H 1334.92 -6.93623 -1.42454 0
M  V30 14337 H 1335.33 -5.28599 -1.98098 0
M  V30 14338 N 1334.72 -0.0133892 -1.57594 0
M  V30 14339 C 1336.14 0.527615 -1.7909 0
M  V30 14340 C 1336.49 1.73179 -0.922142 0
M  V30 14341 O 1335.61 2.1602 -0.128233 0
M  V30 14342 C 1336.21 0.963949 -3.24798 0
M  V30 14343 C 1334.77 1.45017 -3.47343 0
M  V30 14344 C 1333.91 0.407548 -2.74289 0
M  V30 14345 H 1336.86 -0.239505 -1.56882 0
M  V30 14346 H 1336.88 1.82924 -3.33645 0
M  V30 14347 H 1336.4 0.0873315 -3.88002 0
M  V30 14348 H 1334.5 2.34724 -2.89371 0
M  V30 14349 H 1334.61 1.4684 -4.56043 0
M  V30 14350 H 1332.97 0.872174 -2.39301 0
M  V30 14351 H 1333.76 -0.460333 -3.402 0
M  V30 14352 N 1336.2 1.55448 0.259558 0
M  V30 14353 C 1337.61 1.67256 0.8296 0
M  V30 14354 C 1337.96 0.60851 1.86525 0
M  V30 14355 O 1337.09 -0.247563 2.14979 0
M  V30 14356 C 1337.68 3.03213 1.51152 0
M  V30 14357 C 1336.24 3.17004 2.02943 0
M  V30 14358 C 1335.39 2.63096 0.876103 0
M  V30 14359 H 1338.34 1.5866 0.0356218 0
M  V30 14360 H 1338.36 2.96952 2.37906 0
M  V30 14361 H 1337.87 3.80635 0.75752 0
M  V30 14362 H 1335.98 2.44381 2.81263 0
M  V30 14363 H 1336.09 4.23748 2.2355 0
M  V30 14364 H 1334.45 2.20596 1.27317 0
M  V30 14365 H 1335.24 3.43033 0.13539 0
M  V30 14366 N 1337.68 -0.524672 1.4861 0
M  V30 14367 C 1338.61 -1.63782 1.66426 0
M  V30 14368 C 1339.59 -1.62177 0.513077 0
M  V30 14369 O 1340.78 -1.7929 0.74623 0
M  V30 14370 C 1337.91 -3.02354 1.70877 0
M  V30 14371 C 1336.86 -3.18819 2.85549 0
M  V30 14372 C 1336.19 -4.58506 2.75094 0
M  V30 14373 C 1337.49 -3.01086 4.26784 0
M  V30 14374 H 1339.18 -1.49127 2.59618 0
M  V30 14375 H 1336.73 -0.715997 1.24938 0
M  V30 14376 H 1338.68 -3.80105 1.81929 0
M  V30 14377 H 1337.4 -3.18044 0.742682 0
M  V30 14378 H 1336.06 -2.43487 2.74061 0
M  V30 14379 H 1335.71 -4.71038 1.76443 0
M  V30 14380 H 1335.41 -4.70466 3.52044 0
M  V30 14381 H 1336.93 -5.38348 2.88121 0
M  V30 14382 H 1338.35 -3.68624 4.39077 0
M  V30 14383 H 1336.75 -3.24536 5.04774 0
M  V30 14384 H 1337.82 -1.97454 4.42877 0
M  V30 14385 N 1339.16 -1.37287 -0.77395 0
M  V30 14386 C 1340.39 -1.35563 -1.56302 0
M  V30 14387 C 1340.8 0.0595356 -1.88706 0
M  V30 14388 O 1340.16 1.02072 -1.51286 0
M  V30 14389 C 1340.21 -2.19195 -2.87464 0
M  V30 14390 O 1339.93 -3.55197 -2.5645 0
M  V30 14391 C 1341.43 -2.25425 -3.81704 0
M  V30 14392 H 1338.65 -0.464431 -0.484298 0
M  V30 14393 H 1341.2 -1.80597 -0.959425 0
M  V30 14394 H 1339.35 -1.77676 -3.44253 0
M  V30 14395 H 1339.76 -3.99011 -3.40427 0
M  V30 14396 H 1341.24 -2.8827 -4.70749 0
M  V30 14397 H 1341.72 -1.26205 -4.20677 0
M  V30 14398 H 1342.32 -2.67247 -3.30846 0
M  V30 14399 N 1340.64 0.999871 -1.21821 0
M  V30 14400 C 1341.57 2.10708 -1.00621 0
M  V30 14401 C 1342.55 1.69954 0.0705417 0
M  V30 14402 O 1343.73 1.9399 -0.0903042 0
M  V30 14403 C 1340.86 3.42496 -0.575646 0
M  V30 14404 C 1339.82 3.97068 -1.59754 0
M  V30 14405 C 1339.14 5.24822 -1.02304 0
M  V30 14406 C 1340.44 4.28545 -2.98574 0
M  V30 14407 H 1342.14 2.28701 -1.93226 0
M  V30 14408 H 1339.68 1.09903 -0.930443 0
M  V30 14409 H 1341.64 4.19357 -0.414481 0
M  V30 14410 H 1340.36 3.2431 0.386059 0
M  V30 14411 H 1339.02 3.22332 -1.74636 0
M  V30 14412 H 1338.67 5.02972 -0.0529016 0
M  V30 14413 H 1338.37 5.62299 -1.70567 0
M  V30 14414 H 1339.89 6.04322 -0.873312 0
M  V30 14415 H 1341.3 4.96229 -2.87106 0
M  V30 14416 H 1339.7 4.77178 -3.63897 0
M  V30 14417 H 1340.77 3.36607 -3.49032 0
M  V30 14418 N 1342.11 1.02678 1.19562 0
M  V30 14419 C 1343.36 0.72059 1.88817 0
M  V30 14420 C 1343.68 -0.752942 1.79877 0
M  V30 14421 O 1342.95 -1.54233 1.20785 0
M  V30 14422 H 1341.53 0.26355 0.698964 0
M  V30 14423 H 1344.2 1.30056 1.4516 0
M  V30 14424 H 1343.29 1.01303 2.95202 0
M  V30 14425 N 1343.59 -1.35528 0.804364 0
M  V30 14426 C 1344.84 -1.98084 0.380196 0
M  V30 14427 C 1345.15 -1.64531 -1.05778 0
M  V30 14428 O 1346.36 -2.20435 -1.58495 0
M  V30 14429 C 1344.82 -3.54364 0.628848 0
M  V30 14430 C 1344.42 -3.96828 2.07921 0
M  V30 14431 C 1346.17 -4.23641 0.269927 0
M  V30 14432 C 1344.08 -5.45944 2.27374 0
M  V30 14433 H 1343.01 -0.741185 0.138422 0
M  V30 14434 H 1345.66 -1.54624 0.988107 0
M  V30 14435 H 1344.04 -3.9597 -0.0489837 0
M  V30 14436 H 1345.21 -3.6638 2.79467 0
M  V30 14437 H 1343.53 -3.40433 2.39779 0
M  V30 14438 H 1346.12 -5.33251 0.393344 0
M  V30 14439 H 1346.47 -4.08858 -0.783644 0
M  V30 14440 H 1347 -3.87448 0.901588 0
M  V30 14441 H 1343.74 -5.65693 3.31168 0
M  V30 14442 H 1343.26 -5.77969 1.6035 0
M  V30 14443 H 1344.94 -6.12376 2.08817 0
M  V30 14444 N 1345.07 -0.557671 -1.47404 0
M  V30 14445 C 1346.32 -0.0337884 -2.02472 0
M  V30 14446 C 1346.65 1.31624 -1.43197 0
M  V30 14447 O 1345.9 1.86989 -0.577366 0
M  V30 14448 C 1346.2 0.108324 -3.57236 0
M  V30 14449 C 1345.87 -1.17088 -4.35432 0
M  V30 14450 C 1344.53 -1.5214 -4.56516 0
M  V30 14451 C 1346.88 -2.01854 -4.80525 0
M  V30 14452 C 1344.21 -2.71803 -5.19942 0
M  V30 14453 C 1346.56 -3.2072 -5.45272 0
M  V30 14454 C 1345.22 -3.56085 -5.64588 0
M  V30 14455 H 1344.49 -0.012364 -0.740897 0
M  V30 14456 H 1347.14 -0.729276 -1.7707 0
M  V30 14457 H 1345.45 0.886781 -3.81633 0
M  V30 14458 H 1347.14 0.529031 -3.97495 0
M  V30 14459 H 1343.73 -0.887952 -4.19301 0
M  V30 14460 H 1347.92 -1.76081 -4.64014 0
M  V30 14461 H 1343.17 -2.99371 -5.33092 0
M  V30 14462 H 1347.35 -3.86689 -5.79176 0
M  V30 14463 H 1344.97 -4.48903 -6.13506 0
M  V30 14464 N 1346.55 1.54831 -0.294147 0
M  V30 14465 C 1347.46 2.26939 0.594621 0
M  V30 14466 C 1348.48 1.30209 1.15419 0
M  V30 14467 O 1349.65 1.6318 1.18044 0
M  V30 14468 C 1346.72 2.9909 1.75345 0
M  V30 14469 C 1345.78 4.11342 1.22865 0
M  V30 14470 C 1345.01 4.80043 2.33225 0
M  V30 14471 O 1345.23 4.48062 3.52983 0
M  V30 14472 O 1344.17 5.67593 2.00304 0
M  V30 14473 H 1347.99 3.03698 0.00989235 0
M  V30 14474 H 1345.58 1.49276 -0.0608528 0
M  V30 14475 H 1347.46 3.44369 2.42875 0
M  V30 14476 H 1346.14 2.25232 2.32492 0
M  V30 14477 H 1345.04 3.70478 0.519279 0
M  V30 14478 H 1346.38 4.87158 0.702703 0
M  V30 14479 N 1348.03 0.0217466 1.57585 0
M  V30 14480 C 1349.44 -0.334576 1.56054 0
M  V30 14481 C 1349.64 -1.73386 1.02663 0
M  V30 14482 O 1348.7 -2.43447 0.670078 0
M  V30 14483 C 1350.01 -0.189919 3.001 0
M  V30 14484 C 1351.56 -0.263238 3.11891 0
M  V30 14485 C 1352.04 -0.147455 4.57763 0
M  V30 14486 N 1353.53 -0.204672 4.62748 0
M  V30 14487 C 1354.26 -0.138755 5.73232 0
M  V30 14488 N 1353.76 -0.0221762 6.92796 0
M  V30 14489 N 1355.55 -0.192206 5.61771 0
M  V30 14490 H 1347.7 0.936849 1.90622 0
M  V30 14491 H 1349.96 0.361119 0.876526 0
M  V30 14492 H 1349.67 0.773687 3.43084 0
M  V30 14493 H 1349.54 -0.963148 3.64696 0
M  V30 14494 H 1351.93 -1.2173 2.68823 0
M  V30 14495 H 1352.01 0.540241 2.5003 0
M  V30 14496 H 1351.66 0.803155 5.0151 0
M  V30 14497 H 1351.59 -0.969703 5.17595 0
M  V30 14498 H 1354.08 -0.29522 3.76745 0
M  V30 14499 H 1354.39 0.021631 7.72797 0
M  V30 14500 H 1352.74 0.0125033 6.94999 0
M  V30 14501 H 1355.93 -0.28163 4.67252 0
M  V30 14502 H 1356.1 -0.137372 6.47854 0
M  V30 14503 N 1349.51 -1.55583 -0.251311 0
M  V30 14504 C 1350.73 -1.81597 -1.00186 0
M  V30 14505 C 1351.16 -0.598216 -1.78334 0
M  V30 14506 O 1350.51 0.452667 -1.75558 0
M  V30 14507 C 1350.56 -3.05301 -1.91895 0
M  V30 14508 O 1349.67 -2.81907 -3.01002 0
M  V30 14509 H 1349.01 -0.599578 -0.285311 0
M  V30 14510 H 1351.54 -2.02762 -0.273638 0
M  V30 14511 H 1351.55 -3.34616 -2.33444 0
M  V30 14512 H 1350.22 -3.93574 -1.34433 0
M  V30 14513 H 1348.8 -2.63747 -2.63613 0
M  V30 14514 N 1350.98 0.516783 -1.48886 0
M  V30 14515 C 1352.22 1.28221 -1.59181 0
M  V30 14516 C 1352.59 1.90156 -0.265466 0
M  V30 14517 O 1353.79 2.67695 -0.243489 0
M  V30 14518 C 1352.06 2.3326 -2.70785 0
M  V30 14519 S 1353.62 3.19353 -3.00931 0
M  V30 14520 H 1350.44 0.435976 -0.561646 0
M  V30 14521 H 1353.04 0.587238 -1.86472 0
M  V30 14522 H 1351.74 1.86263 -3.65697 0
M  V30 14523 H 1351.27 3.07447 -2.45438 0
M  V30 14524 H 1353.29 4.3361 -2.4124 0
M  V30 14525 N 1352.46 1.37696 0.766659 0
M  V30 14526 C 1353.88 1.18607 1.06792 0
M  V30 14527 C 1354.08 0.0257195 2.01484 0
M  V30 14528 O 1353.13 -0.632608 2.44447 0
M  V30 14529 C 1354.45 2.50692 1.66054 0
M  V30 14530 C 1355.99 2.57259 1.78288 0
M  V30 14531 C 1356.47 3.89488 2.40963 0
M  V30 14532 N 1357.96 3.90957 2.48408 0
M  V30 14533 C 1358.7 4.90023 2.97767 0
M  V30 14534 N 1358.19 5.99485 3.4726 0
M  V30 14535 N 1359.98 4.77423 2.96688 0
M  V30 14536 H 1352.14 2.11951 0.138031 0
M  V30 14537 H 1354.4 0.939873 0.123863 0
M  V30 14538 H 1354.1 3.35989 1.03945 0
M  V30 14539 H 1353.98 2.68148 2.65286 0
M  V30 14540 H 1356.37 1.72366 2.39528 0
M  V30 14541 H 1356.45 2.43682 0.777981 0
M  V30 14542 H 1356.09 4.74797 1.8036 0
M  V30 14543 H 1356.02 4.0037 3.42069 0
M  V30 14544 H 1358.51 3.11888 2.13388 0
M  V30 14545 H 1358.82 6.71022 3.8334 0
M  V30 14546 H 1357.17 6.03123 3.45351 0
M  V30 14547 H 1360.36 3.91026 2.57325 0
M  V30 14548 H 1360.53 5.54783 3.34844 0
M  V30 14549 N 1353.94 -0.993397 1.22349 0
M  V30 14550 C 1354.89 -2.0834 0.993123 0
M  V30 14551 C 1355.86 -1.65883 -0.0849717 0
M  V30 14552 O 1357.04 -1.90691 0.0645176 0
M  V30 14553 C 1354.18 -3.40252 0.576434 0
M  V30 14554 C 1353.29 -3.96055 1.72524 0
M  V30 14555 C 1352.43 -5.16123 1.25659 0
M  V30 14556 C 1351.47 -5.64062 2.37698 0
M  V30 14557 N 1350.61 -6.7537 1.91883 0
M  V30 14558 H 1355.45 -2.27381 1.92619 0
M  V30 14559 H 1352.98 -1.11476 0.959763 0
M  V30 14560 H 1354.94 -4.16001 0.316021 0
M  V30 14561 H 1353.57 -3.21214 -0.319626 0
M  V30 14562 H 1352.62 -3.17182 2.1 0
M  V30 14563 H 1353.93 -4.27614 2.56802 0
M  V30 14564 H 1353.09 -5.9916 0.953528 0
M  V30 14565 H 1351.83 -4.86186 0.384011 0
M  V30 14566 H 1350.83 -4.79614 2.68794 0
M  V30 14567 H 1352.06 -5.96025 3.25471 0
M  V30 14568 H 1350 -6.47217 1.06986 0
M  V30 14569 H 1349.92 -7.06246 2.69727 0
M  V30 14570 H 1351.19 -7.61914 1.64644 0
M  V30 14571 N 1355.42 -1.03311 -1.19015 0
M  V30 14572 C 1356.33 -0.627735 -2.26046 0
M  V30 14573 C 1357.34 0.342483 -1.70596 0
M  V30 14574 O 1358.52 0.199307 -2.00411 0
M  V30 14575 C 1355.58 0.0108274 -3.46698 0
M  V30 14576 C 1354.65 -1.00743 -4.17312 0
M  V30 14577 C 1353.88 -0.399245 -5.32205 0
M  V30 14578 O 1354.1 0.796649 -5.64809 0
M  V30 14579 O 1353.04 -1.12419 -5.91308 0
M  V30 14580 H 1356.86 -1.51923 -2.6297 0
M  V30 14581 H 1354.45 -0.803538 -1.25951 0
M  V30 14582 H 1356.33 0.366672 -4.19802 0
M  V30 14583 H 1355 0.876265 -3.11614 0
M  V30 14584 H 1353.91 -1.41494 -3.4631 0
M  V30 14585 H 1355.24 -1.84338 -4.56377 0
M  V30 14586 N 1356.9 1.35099 -0.81154 0
M  V30 14587 C 1357.84 2.31618 -0.213536 0
M  V30 14588 C 1358.84 1.56868 0.63944 0
M  V30 14589 O 1360.04 1.71957 0.532051 0
M  V30 14590 H 1356.42 0.750316 -0.0502963 0
M  V30 14591 H 1358.39 2.79593 -1.04262 0
M  V30 14592 C 1357.14 3.4214 0.619293 0
M  V30 14593 H 1356.46 3.9979 -0.0277192 0
M  V30 14594 H 1357.9 4.11941 1.00401 0
M  V30 14595 C 1356.36 2.85607 1.7869 0
M  V30 14596 O 1356.89 2.7956 2.8846 0
M  V30 14597 N 1355.1 2.42587 1.6 0
M  V30 14598 H 1354.64 2.47705 0.707105 0
M  V30 14599 H 1354.6 2.0511 2.38279 0
M  V30 14600 N 1358.37 0.56548 1.47106 0
M  V30 14601 C 1359.31 -0.225573 2.27082 0
M  V30 14602 C 1360.28 -0.912747 1.34565 0
M  V30 14603 O 1361.47 -0.930085 1.63956 0
M  V30 14604 C 1358.6 -1.32211 3.1183 0
M  V30 14605 C 1357.64 -0.742615 4.19985 0
M  V30 14606 S 1358.47 0.417211 5.33872 0
M  V30 14607 C 1359.63 -0.680945 6.22185 0
M  V30 14608 H 1359.86 0.453066 2.93828 0
M  V30 14609 H 1357.4 0.351982 1.50334 0
M  V30 14610 H 1359.35 -1.95004 3.61225 0
M  V30 14611 H 1358.02 -1.97262 2.44431 0
M  V30 14612 H 1357.21 -1.56632 4.79043 0
M  V30 14613 H 1356.81 -0.190696 3.73514 0
M  V30 14614 H 1359.1 -1.57099 6.59034 0
M  V30 14615 H 1360.05 -0.127524 7.07985 0
M  V30 14616 H 1360.45 -0.977339 5.55975 0
M  V30 14617 N 1359.85 -1.54672 0.302354 0
M  V30 14618 C 1360.78 -2.2653 -0.566265 0
M  V30 14619 C 1361.76 -1.26532 -1.13682 0
M  V30 14620 O 1362.95 -1.55307 -1.1659 0
M  V30 14621 C 1360.08 -3.00709 -1.73757 0
M  V30 14622 C 1359.03 -4.07865 -1.29731 0
M  V30 14623 C 1358.36 -4.69767 -2.55388 0
M  V30 14624 C 1359.66 -5.20547 -0.427567 0
M  V30 14625 H 1361.35 -2.99382 0.033071 0
M  V30 14626 H 1358.9 -1.4399 0.0173458 0
M  V30 14627 H 1360.85 -3.497 -2.35134 0
M  V30 14628 H 1359.58 -2.25437 -2.36317 0
M  V30 14629 H 1358.23 -3.59726 -0.706586 0
M  V30 14630 H 1357.88 -3.91134 -3.16265 0
M  V30 14631 H 1357.58 -5.42137 -2.26631 0
M  V30 14632 H 1359.11 -5.21521 -3.17566 0
M  V30 14633 H 1360.52 -5.65424 -0.947053 0
M  V30 14634 H 1358.92 -5.99645 -0.233704 0
M  V30 14635 H 1359.99 -4.81805 0.546993 0
M  V30 14636 N 1361.33 -0.0301034 -1.57571 0
M  V30 14637 C 1362.28 0.951421 -2.10277 0
M  V30 14638 C 1363.25 1.3224 -1.00508 0
M  V30 14639 O 1364.43 1.41554 -1.27934 0
M  V30 14640 C 1361.57 2.2282 -2.63525 0
M  V30 14641 C 1360.69 1.91359 -3.87306 0
M  V30 14642 C 1359.82 3.13339 -4.28943 0
M  V30 14643 C 1358.86 2.77701 -5.4548 0
M  V30 14644 N 1358 3.9231 -5.82269 0
M  V30 14645 H 1362.84 0.495049 -2.93859 0
M  V30 14646 H 1360.37 0.232756 -1.45247 0
M  V30 14647 H 1362.33 2.97502 -2.92487 0
M  V30 14648 H 1360.96 2.66072 -1.82772 0
M  V30 14649 H 1360.01 1.06915 -3.65066 0
M  V30 14650 H 1361.33 1.61112 -4.72064 0
M  V30 14651 H 1360.48 3.9634 -4.59347 0
M  V30 14652 H 1359.22 3.46747 -3.42954 0
M  V30 14653 H 1358.22 1.93113 -5.14769 0
M  V30 14654 H 1359.45 2.45508 -6.33169 0
M  V30 14655 H 1357.39 4.25559 -4.99235 0
M  V30 14656 H 1357.31 3.65691 -6.61669 0
M  V30 14657 H 1358.58 4.76012 -6.17279 0
M  V30 14658 N 1362.81 1.55714 0.243056 0
M  V30 14659 C 1364.04 1.81522 0.986577 0
M  V30 14660 C 1364.45 0.604051 1.79298 0
M  V30 14661 O 1363.79 -0.43674 1.78433 0
M  V30 14662 C 1363.85 3.0074 1.96967 0
M  V30 14663 C 1363.52 4.3661 1.34983 0
M  V30 14664 C 1364.51 5.14456 0.7504 0
M  V30 14665 C 1362.2 4.83311 1.36805 0
M  V30 14666 C 1364.19 6.37153 0.177438 0
M  V30 14667 C 1361.88 6.05956 0.791233 0
M  V30 14668 C 1362.88 6.82716 0.196959 0
M  V30 14669 O 1362.56 8.03044 -0.370938 0
M  V30 14670 H 1362.3 0.607864 0.295765 0
M  V30 14671 H 1364.85 2.03617 0.270018 0
M  V30 14672 H 1363.08 2.74409 2.72464 0
M  V30 14673 H 1364.77 3.13606 2.57694 0
M  V30 14674 H 1365.54 4.79493 0.728809 0
M  V30 14675 H 1361.41 4.23553 1.81999 0
M  V30 14676 H 1364.96 6.97009 -0.287042 0
M  V30 14677 H 1360.86 6.40396 0.810164 0
M  V30 14678 H 1361.62 8.18077 -0.263173 0
M  V30 14679 N 1364.29 -0.50888 1.49158 0
M  V30 14680 C 1365.7 -1.09054 1.51539 0
M  V30 14681 C 1366.05 -1.93938 0.297099 0
M  V30 14682 O 1365.17 -2.08092 -0.593849 0
M  V30 14683 C 1365.77 -1.98447 2.74599 0
M  V30 14684 C 1364.33 -2.5179 2.79783 0
M  V30 14685 C 1363.47 -1.29227 2.45348 0
M  V30 14686 H 1366.43 -0.293148 1.55969 0
M  V30 14687 H 1366.45 -2.83028 2.54314 0
M  V30 14688 H 1365.96 -1.3664 3.63251 0
M  V30 14689 H 1364.06 -3.17258 1.95392 0
M  V30 14690 H 1364.17 -2.89481 3.81756 0
M  V30 14691 H 1362.54 -1.61494 1.96957 0
M  V30 14692 H 1363.32 -0.6914 3.36266 0
M  V30 14693 N 1365.76 -1.381 -0.759346 0
M  V30 14694 C 1366.67 -1.37086 -1.9038 0
M  V30 14695 C 1367.69 -0.268738 -1.71912 0
M  V30 14696 O 1368.87 -0.506205 -1.94935 0
M  V30 14697 C 1365.93 -1.18905 -3.25672 0
M  V30 14698 C 1364.99 -2.3887 -3.56707 0
M  V30 14699 C 1364.23 -2.21546 -4.85544 0
M  V30 14700 O 1364.45 -1.20616 -5.57501 0
M  V30 14701 O 1363.38 -3.10009 -5.15924 0
M  V30 14702 H 1367.21 -2.33505 -1.94188 0
M  V30 14703 H 1364.79 -1.18959 -0.903826 0
M  V30 14704 H 1366.68 -1.10803 -4.06572 0
M  V30 14705 H 1365.35 -0.255675 -3.22689 0
M  V30 14706 H 1364.26 -2.52546 -2.75992 0
M  V30 14707 H 1365.59 -3.30817 -3.64446 0
M  V30 14708 N 1367.24 0.986894 -1.22875 0
M  V30 14709 C 1368.17 2.09628 -1.0285 0
M  V30 14710 C 1369.15 1.70019 0.0525118 0
M  V30 14711 O 1370.34 1.93883 -0.110874 0
M  V30 14712 C 1367.47 3.41866 -0.61194 0
M  V30 14713 C 1366.42 3.95351 -1.63956 0
M  V30 14714 C 1365.75 5.23707 -1.07865 0
M  V30 14715 C 1367.05 4.25354 -3.03102 0
M  V30 14716 H 1368.74 2.26639 -1.95641 0
M  V30 14717 H 1366.29 1.0891 -0.942048 0
M  V30 14718 H 1368.24 4.18893 -0.458936 0
M  V30 14719 H 1366.97 3.24701 0.35164 0
M  V30 14720 H 1365.62 3.20462 -1.78045 0
M  V30 14721 H 1365.27 5.02888 -0.106246 0
M  V30 14722 H 1364.97 5.60459 -1.76522 0
M  V30 14723 H 1366.5 6.03362 -0.937359 0
M  V30 14724 H 1367.91 4.93156 -2.92353 0
M  V30 14725 H 1366.31 4.73292 -3.68938 0
M  V30 14726 H 1367.38 3.32887 -3.52583 0
M  V30 14727 N 1368.72 1.0394 1.18466 0
M  V30 14728 C 1369.95 0.760909 1.92077 0
M  V30 14729 C 1370.36 -0.685622 1.7634 0
M  V30 14730 O 1369.7 -1.47894 1.08963 0
M  V30 14731 C 1369.76 1.04583 3.43952 0
M  V30 14732 C 1369.43 2.48602 3.83466 0
M  V30 14733 C 1370.42 3.46775 3.87354 0
M  V30 14734 C 1368.11 2.8328 4.14798 0
M  V30 14735 C 1370.1 4.77678 4.22022 0
M  V30 14736 C 1367.79 4.1439 4.49138 0
M  V30 14737 C 1368.79 5.11399 4.52725 0
M  V30 14738 O 1368.48 6.40159 4.86264 0
M  V30 14739 H 1368.21 0.276991 0.616646 0
M  V30 14740 H 1370.76 1.3898 1.5124 0
M  V30 14741 H 1368.99 0.359807 3.85022 0
M  V30 14742 H 1370.68 0.755336 3.9881 0
M  V30 14743 H 1371.45 3.21323 3.63286 0
M  V30 14744 H 1367.33 2.08444 4.11184 0
M  V30 14745 H 1370.87 5.53393 4.24737 0
M  V30 14746 H 1366.77 4.39611 4.72666 0
M  V30 14747 H 1367.54 6.4479 5.04171 0
M  V30 14748 N 1370.2 -1.34667 0.818693 0
M  V30 14749 C 1371.15 -2.29595 0.235551 0
M  V30 14750 C 1372.12 -1.53389 -0.63727 0
M  V30 14751 O 1373.3 -1.81777 -0.579804 0
M  V30 14752 C 1370.44 -3.39843 -0.600043 0
M  V30 14753 C 1369.55 -4.30995 0.294553 0
M  V30 14754 C 1368.69 -5.28343 -0.550203 0
M  V30 14755 C 1367.73 -6.11132 0.344043 0
M  V30 14756 N 1366.86 -7.00582 -0.461392 0
M  V30 14757 H 1371.7 -2.78872 1.05044 0
M  V30 14758 H 1369.24 -1.37239 0.529517 0
M  V30 14759 H 1371.2 -4.02443 -1.09978 0
M  V30 14760 H 1369.83 -2.91811 -1.38008 0
M  V30 14761 H 1368.88 -3.69294 0.912483 0
M  V30 14762 H 1370.19 -4.89031 0.982341 0
M  V30 14763 H 1369.35 -5.96374 -1.11459 0
M  V30 14764 H 1368.09 -4.70833 -1.27151 0
M  V30 14765 H 1367.09 -5.42038 0.920608 0
M  V30 14766 H 1368.32 -6.70722 1.0634 0
M  V30 14767 H 1366.26 -6.45546 -1.16645 0
M  V30 14768 H 1366.18 -7.55813 0.168095 0
M  V30 14769 H 1367.45 -7.72946 -1.00867 0
M  V30 14770 N 1371.68 -0.573274 -1.46804 0
M  V30 14771 C 1372.9 -0.0605984 -2.06811 0
M  V30 14772 C 1373.32 1.24024 -1.4235 0
M  V30 14773 O 1372.68 1.7477 -0.525515 0
M  V30 14774 C 1372.73 0.121828 -3.61295 0
M  V30 14775 O 1372.45 -1.12751 -4.23342 0
M  V30 14776 C 1373.95 0.669941 -4.38208 0
M  V30 14777 H 1371.17 -0.0531498 -0.668892 0
M  V30 14778 H 1373.71 -0.791259 -1.88572 0
M  V30 14779 H 1371.87 0.802674 -3.78993 0
M  V30 14780 H 1372.28 -0.935361 -5.16092 0
M  V30 14781 H 1373.76 0.746806 -5.46925 0
M  V30 14782 H 1374.23 1.68483 -4.05598 0
M  V30 14783 H 1374.84 0.0242721 -4.25293 0
M  V30 14784 N 1373.15 1.5451 -0.310553 0
M  V30 14785 C 1374.38 2.05204 0.301013 0
M  V30 14786 C 1374.8 1.1859 1.46007 0
M  V30 14787 O 1374.16 0.192081 1.8028 0
M  V30 14788 C 1374.21 3.53221 0.725767 0
M  V30 14789 O 1373.31 3.69596 1.82955 0
M  V30 14790 H 1372.66 0.661566 0.0568026 0
M  V30 14791 H 1375.19 1.99473 -0.455178 0
M  V30 14792 H 1375.2 3.9525 1.01198 0
M  V30 14793 H 1373.87 4.15721 -0.122046 0
M  V30 14794 H 1372.45 3.39472 1.54315 0
M  V30 14795 N 1374.63 0.0384594 1.57553 0
M  V30 14796 C 1375.57 -0.969185 2.077 0
M  V30 14797 C 1376.58 -1.2829 1.00227 0
M  V30 14798 O 1377.77 -1.24592 1.27824 0
M  V30 14799 C 1374.87 -2.29414 2.49444 0
M  V30 14800 C 1374.04 -2.16422 3.80106 0
M  V30 14801 C 1373.1 -3.31931 4.08299 0
M  V30 14802 O 1372.13 -3.08401 4.78412 0
M  V30 14803 N 1373.33 -4.56015 3.59208 0
M  V30 14804 H 1376.09 -0.541252 2.94772 0
M  V30 14805 H 1373.65 -0.148084 1.61221 0
M  V30 14806 H 1375.65 -3.05533 2.6539 0
M  V30 14807 H 1374.22 -2.63817 1.67688 0
M  V30 14808 H 1373.44 -1.24973 3.73866 0
M  V30 14809 H 1374.72 -2.04954 4.65694 0
M  V30 14810 H 1374.12 -4.78025 3.02503 0
M  V30 14811 H 1372.68 -5.29271 3.80415 0
M  V30 14812 N 1376.11 -1.55841 -0.234795 0
M  V30 14813 C 1377.06 -1.92165 -1.31055 0
M  V30 14814 C 1378.05 -0.802106 -1.49207 0
M  V30 14815 O 1379.26 -0.986832 -1.50538 0
M  V30 14816 H 1375.63 -0.610487 -0.439101 0
M  V30 14817 H 1377.61 -2.81955 -0.976926 0
M  V30 14818 C 1376.35 -2.24329 -2.65654 0
M  V30 14819 H 1375.68 -3.09982 -2.5249 0
M  V30 14820 H 1377.12 -2.53639 -3.3977 0
M  V30 14821 C 1375.58 -1.0638 -3.19664 0
M  V30 14822 O 1376.11 -0.318047 -4.00439 0
M  V30 14823 N 1374.31 -0.851167 -2.77855 0
M  V30 14824 H 1373.86 -1.45932 -2.12277 0
M  V30 14825 H 1373.82 -0.0636875 -3.14335 0
M  V30 14826 N 1377.59 0.500963 -1.49426 0
M  V30 14827 C 1378.55 1.58478 -1.65582 0
M  V30 14828 C 1379.55 1.51897 -0.52762 0
M  V30 14829 O 1380.74 1.55049 -0.794071 0
M  V30 14830 C 1377.87 2.9813 -1.65322 0
M  V30 14831 H 1379.07 1.45483 -2.6225 0
M  V30 14832 H 1376.62 0.725199 -1.38458 0
M  V30 14833 H 1377.36 3.16602 -0.702384 0
M  V30 14834 H 1377.14 3.04315 -2.47255 0
M  V30 14835 H 1378.63 3.76874 -1.79878 0
M  V30 14836 N 1379.07 1.38501 0.752011 0
M  V30 14837 C 1380 1.38577 1.87933 0
M  V30 14838 C 1380.98 0.251454 1.68231 0
M  V30 14839 O 1382.16 0.45477 1.888 0
M  V30 14840 C 1379.29 1.21164 3.25479 0
M  V30 14841 C 1378.25 2.31816 3.59785 0
M  V30 14842 C 1377.57 1.99508 4.96085 0
M  V30 14843 C 1378.87 3.74082 3.645 0
M  V30 14844 H 1380.57 2.32913 1.88127 0
M  V30 14845 H 1378.11 1.12113 0.903698 0
M  V30 14846 H 1380.07 1.19842 4.04 0
M  V30 14847 H 1378.79 0.232899 3.25769 0
M  V30 14848 H 1377.45 2.32327 2.83584 0
M  V30 14849 H 1377.1 1.00114 4.92936 0
M  V30 14850 H 1376.8 2.73617 5.20007 0
M  V30 14851 H 1378.32 1.99807 5.76983 0
M  V30 14852 H 1379.74 3.75593 4.33131 0
M  V30 14853 H 1378.13 4.47409 3.99931 0
M  V30 14854 H 1379.2 4.06284 2.64692 0
M  V30 14855 N 1380.55 -0.980364 1.23396 0
M  V30 14856 C 1381.82 -1.69607 0.974319 0
M  V30 14857 C 1382.2 -2.0492 -0.507064 0
M  V30 14858 O 1381.55 -1.74239 -1.47827 0
M  V30 14859 C 1381.76 -2.93743 1.88457 0
M  V30 14860 C 1383.11 -3.66256 2.14806 0
M  V30 14861 O 1384.13 -3.03776 1.86007 0
M  V30 14862 O 1382.99 -4.78698 2.63648 0
M  V30 14863 H 1380.09 -0.740878 0.367462 0
M  V30 14864 H 1382.63 -1.03558 1.34439 0
M  V30 14865 H 1381.4 -2.64244 2.88601 0
M  V30 14866 H 1381.03 -3.67528 1.51688 0
M  V30 14867 N 1382.02 -1.04567 -1.17913 0
M  V30 14868 C 1383.27 -0.752023 -1.88018 0
M  V30 14869 C 1383.6 0.720567 -1.8066 0
M  V30 14870 O 1382.85 1.54207 -1.20493 0
M  V30 14871 C 1383.15 -1.1699 -3.3771 0
M  V30 14872 C 1382.82 -2.64363 -3.65271 0
M  V30 14873 C 1381.48 -3.04622 -3.72503 0
M  V30 14874 C 1383.83 -3.59626 -3.77251 0
M  V30 14875 C 1381.16 -4.39023 -3.89199 0
M  V30 14876 C 1383.51 -4.93752 -3.95465 0
M  V30 14877 C 1382.18 -5.33675 -4.00933 0
M  V30 14878 H 1381.45 -0.275185 -0.688008 0
M  V30 14879 H 1384.09 -1.31161 -1.39532 0
M  V30 14880 H 1382.4 -0.529202 -3.8821 0
M  V30 14881 H 1384.1 -0.919981 -3.90304 0
M  V30 14882 H 1380.69 -2.32182 -3.60263 0
M  V30 14883 H 1384.87 -3.29665 -3.70992 0
M  V30 14884 H 1380.13 -4.69466 -3.91679 0
M  V30 14885 H 1384.3 -5.67467 -4.03676 0
M  V30 14886 H 1381.93 -6.37825 -4.13623 0
M  V30 14887 N 1383.5 1.34231 -0.825823 0
M  V30 14888 C 1384.45 2.31378 -0.23809 0
M  V30 14889 C 1385.44 1.57537 0.622767 0
M  V30 14890 O 1386.65 1.72512 0.513783 0
M  V30 14891 H 1383.02 0.74974 -0.0582516 0
M  V30 14892 H 1385 2.78471 -1.07221 0
M  V30 14893 C 1383.74 3.42778 0.582969 0
M  V30 14894 H 1383.07 3.99739 -0.0701208 0
M  V30 14895 H 1384.51 4.12983 0.960266 0
M  V30 14896 C 1382.97 2.87486 1.75651 0
M  V30 14897 O 1383.5 2.82603 2.85479 0
M  V30 14898 N 1381.7 2.4427 1.57418 0
M  V30 14899 H 1381.25 2.48441 0.680792 0
M  V30 14900 H 1381.21 2.07626 2.36091 0
M  V30 14901 N 1384.98 0.581051 1.46498 0
M  V30 14902 C 1386.21 0.0715652 2.06776 0
M  V30 14903 C 1386.62 -1.23267 1.43006 0
M  V30 14904 O 1385.98 -1.74489 0.534776 0
M  V30 14905 C 1386.03 -0.102666 3.61354 0
M  V30 14906 O 1385.75 1.14995 4.22739 0
M  V30 14907 C 1387.25 -0.646692 4.38558 0
M  V30 14908 H 1384.47 0.0566964 0.6686 0
M  V30 14909 H 1387.02 0.801248 1.8815 0
M  V30 14910 H 1385.17 -0.782564 3.79414 0
M  V30 14911 H 1385.59 0.962718 5.15589 0
M  V30 14912 H 1387.06 -0.717791 5.47313 0
M  V30 14913 H 1387.54 -1.6633 4.06486 0
M  V30 14914 H 1388.14 -0.00171739 4.253 0
M  V30 14915 N 1386.46 -1.54343 0.318742 0
M  V30 14916 C 1387.4 -2.24166 -0.549397 0
M  V30 14917 C 1388.37 -1.23068 -1.1155 0
M  V30 14918 O 1389.56 -1.51737 -1.15674 0
M  V30 14919 C 1386.7 -2.99938 -1.70678 0
M  V30 14920 C 1385.81 -4.15844 -1.17037 0
M  V30 14921 C 1384.95 -4.79158 -2.29305 0
M  V30 14922 C 1383.99 -5.87176 -1.72888 0
M  V30 14923 N 1383.12 -6.44372 -2.78799 0
M  V30 14924 H 1387.96 -2.97954 0.0526018 0
M  V30 14925 H 1385.5 -1.47052 0.0377307 0
M  V30 14926 H 1387.46 -3.42113 -2.38777 0
M  V30 14927 H 1386.09 -2.28494 -2.28014 0
M  V30 14928 H 1385.14 -3.78486 -0.381082 0
M  V30 14929 H 1386.45 -4.93612 -0.717507 0
M  V30 14930 H 1385.61 -5.24277 -3.05317 0
M  V30 14931 H 1384.35 -4.0076 -2.77926 0
M  V30 14932 H 1383.35 -5.41465 -0.953714 0
M  V30 14933 H 1384.58 -6.67469 -1.2515 0
M  V30 14934 H 1382.52 -5.6885 -3.2672 0
M  V30 14935 H 1382.44 -7.17539 -2.38062 0
M  V30 14936 H 1383.71 -6.94147 -3.54655 0
M  V30 14937 N 1387.94 -0.0468143 -1.5753 0
M  V30 14938 C 1389.18 0.628869 -1.92803 0
M  V30 14939 C 1389.51 1.70751 -0.925083 0
M  V30 14940 O 1388.79 1.94437 0.0495821 0
M  V30 14941 C 1389.07 1.22899 -3.38479 0
M  V30 14942 C 1388.93 0.158707 -4.4952 0
M  V30 14943 C 1390.24 2.1419 -3.84461 0
M  V30 14944 H 1387.36 0.227137 -0.701126 0
M  V30 14945 H 1390.01 -0.107689 -1.89695 0
M  V30 14946 H 1388.16 1.85674 -3.41259 0
M  V30 14947 H 1389.83 -0.472963 -4.58869 0
M  V30 14948 H 1388.07 -0.51375 -4.30747 0
M  V30 14949 H 1388.74 0.618545 -5.48523 0
M  V30 14950 H 1391.22 1.61382 -3.8353 0
M  V30 14951 H 1390.09 2.53125 -4.87051 0
M  V30 14952 H 1390.35 3.04024 -3.2097 0
M  V30 14953 N 1389.41 1.55964 0.226527 0
M  V30 14954 C 1390.66 1.78745 0.95165 0
M  V30 14955 C 1390.99 0.614714 1.84531 0
M  V30 14956 O 1390.24 -0.401137 1.91545 0
M  V30 14957 C 1390.54 3.07235 1.82597 0
M  V30 14958 C 1390.21 4.37627 1.08596 0
M  V30 14959 C 1388.87 4.73057 0.881531 0
M  V30 14960 C 1391.22 5.1815 0.563019 0
M  V30 14961 C 1388.55 5.86528 0.142172 0
M  V30 14962 C 1390.9 6.3239 -0.162972 0
M  V30 14963 C 1389.57 6.66425 -0.378704 0
M  V30 14964 H 1388.84 0.654075 0.348233 0
M  V30 14965 H 1391.48 1.9023 0.220187 0
M  V30 14966 H 1389.79 2.9085 2.62514 0
M  V30 14967 H 1391.49 3.22063 2.38907 0
M  V30 14968 H 1388.08 4.09806 1.25527 0
M  V30 14969 H 1392.26 4.91218 0.708446 0
M  V30 14970 H 1387.52 6.1139 -0.0352481 0
M  V30 14971 H 1391.69 6.94016 -0.575719 0
M  V30 14972 H 1389.32 7.54196 -0.953549 0
M  V30 14973 N 1390.89 -0.493031 1.4969 0
M  V30 14974 C 1392.14 -1.24576 1.60787 0
M  V30 14975 C 1392.49 -1.90134 0.2944 0
M  V30 14976 O 1391.79 -1.78118 -0.706023 0
M  V30 14977 C 1391.98 -2.33014 2.70997 0
M  V30 14978 C 1391.81 -1.7809 4.12933 0
M  V30 14979 C 1390.58 -1.59036 4.7962 0
M  V30 14980 C 1392.78 -1.28823 4.97905 0
M  V30 14981 N 1390.76 -0.991255 6.05844 0
M  V30 14982 C 1392.13 -0.810976 6.14673 0
M  V30 14983 C 1394.19 -1.17471 4.83844 0
M  V30 14984 C 1392.89 -0.23142 7.18928 0
M  V30 14985 C 1394.91 -0.609116 5.88255 0
M  V30 14986 C 1394.28 -0.142128 7.04257 0
M  V30 14987 H 1390.38 -0.44553 0.642672 0
M  V30 14988 H 1392.96 -0.551483 1.86726 0
M  V30 14989 H 1391.13 -2.99893 2.46817 0
M  V30 14990 H 1392.86 -3.00051 2.71572 0
M  V30 14991 H 1389.62 -1.83634 4.3655 0
M  V30 14992 H 1390.04 -0.710746 6.73259 0
M  V30 14993 H 1394.68 -1.52173 3.94466 0
M  V30 14994 H 1392.4 0.127848 8.07999 0
M  V30 14995 H 1395.99 -0.523948 5.79436 0
M  V30 14996 H 1394.87 0.288689 7.83668 0
M  V30 14997 N 1392.37 -1.38898 -0.744656 0
M  V30 14998 C 1393.62 -1.35795 -1.50623 0
M  V30 14999 C 1393.95 0.0491775 -1.94138 0
M  V30 15000 O 1393.22 1.01219 -1.66087 0
M  V30 15001 C 1393.51 -2.32168 -2.75263 0
M  V30 15002 C 1393.36 -3.81781 -2.3783 0
M  V30 15003 C 1394.68 -2.26526 -3.77325 0
M  V30 15004 H 1391.8 -0.494591 -0.546396 0
M  V30 15005 H 1394.44 -1.69816 -0.852211 0
M  V30 15006 H 1392.59 -2.03287 -3.31069 0
M  V30 15007 H 1394.26 -4.21373 -1.8773 0
M  V30 15008 H 1392.51 -3.99027 -1.70176 0
M  V30 15009 H 1393.18 -4.44687 -3.27044 0
M  V30 15010 H 1395.65 -2.52041 -3.31081 0
M  V30 15011 H 1394.53 -2.96053 -4.62216 0
M  V30 15012 H 1394.79 -1.26705 -4.23554 0
M  V30 15013 N 1393.85 0.973806 -1.23914 0
M  V30 15014 C 1394.8 2.05229 -0.993221 0
M  V30 15015 C 1395.78 1.60776 0.0631684 0
M  V30 15016 O 1396.97 1.76365 -0.149794 0
M  V30 15017 C 1394.1 3.38132 -0.593421 0
M  V30 15018 C 1393.19 3.89165 -1.68556 0
M  V30 15019 N 1393.58 4.13203 -2.91714 0
M  V30 15020 C 1391.88 4.17765 -1.56167 0
M  V30 15021 C 1392.58 4.54961 -3.62471 0
M  V30 15022 N 1391.56 4.59778 -2.90009 0
M  V30 15023 H 1395.36 2.21781 -1.92848 0
M  V30 15024 H 1392.87 1.15711 -1.1395 0
M  V30 15025 H 1394.87 4.14991 -0.398491 0
M  V30 15026 H 1393.53 3.2297 0.33472 0
M  V30 15027 H 1394.54 4.00832 -3.27954 0
M  V30 15028 H 1391.22 4.11571 -0.701112 0
M  V30 15029 H 1392.61 4.82022 -4.68085 0
M  V30 15030 N 1395.33 1.05191 1.17357 0
M  V30 15031 C 1396.57 0.771027 1.893 0
M  V30 15032 C 1396.93 -0.68931 1.792 0
M  V30 15033 O 1398.13 -1.0843 2.4596 0
M  V30 15034 C 1396.4 1.23822 3.35265 0
M  V30 15035 S 1397.96 1.0847 4.25182 0
M  V30 15036 H 1394.78 0.280008 0.653542 0
M  V30 15037 H 1397.38 1.34654 1.41734 0
M  V30 15038 H 1396.09 2.2962 3.40151 0
M  V30 15039 H 1395.62 0.656981 3.87875 0
M  V30 15040 H 1397.63 0.00886614 4.96199 0
M  V30 15041 N 1396.8 -1.33791 0.83293 0
M  V30 15042 C 1397.73 -2.31853 0.276846 0
M  V30 15043 C 1398.72 -1.58702 -0.612184 0
M  V30 15044 O 1399.9 -1.86629 -0.536975 0
M  V30 15045 C 1397.03 -3.42855 -0.55385 0
M  V30 15046 C 1395.98 -4.27333 0.238884 0
M  V30 15047 C 1395.31 -5.29895 -0.715187 0
M  V30 15048 C 1396.61 -5.01692 1.45265 0
M  V30 15049 H 1398.3 -2.78611 1.09618 0
M  V30 15050 H 1395.85 -1.33949 0.528562 0
M  V30 15051 H 1397.8 -4.10479 -0.953133 0
M  V30 15052 H 1396.53 -2.94771 -1.40634 0
M  V30 15053 H 1395.19 -3.61325 0.619656 0
M  V30 15054 H 1394.83 -4.7807 -1.56391 0
M  V30 15055 H 1394.53 -5.87296 -0.188921 0
M  V30 15056 H 1396.06 -6.00387 -1.11211 0
M  V30 15057 H 1397.47 -5.62117 1.12685 0
M  V30 15058 H 1395.87 -5.68715 1.91528 0
M  V30 15059 H 1396.94 -4.30809 2.22558 0
M  V30 15060 N 1398.28 -0.588812 -1.46187 0
M  V30 15061 C 1399.23 0.153638 -2.32092 0
M  V30 15062 C 1400.22 0.878346 -1.4485 0
M  V30 15063 O 1401.43 0.796042 -1.61441 0
M  V30 15064 H 1397.81 0.0684129 -0.748882 0
M  V30 15065 H 1399.78 -0.58961 -2.92517 0
M  V30 15066 C 1398.53 1.15003 -3.28131 0
M  V30 15067 H 1397.85 0.601804 -3.95245 0
M  V30 15068 H 1399.29 1.6398 -3.91007 0
M  V30 15069 C 1397.75 2.21411 -2.53926 0
M  V30 15070 O 1398.28 3.28862 -2.30679 0
M  V30 15071 N 1396.48 1.96184 -2.14383 0
M  V30 15072 H 1396.03 1.08812 -2.3349 0
M  V30 15073 H 1395.99 2.6759 -1.65055 0
M  V30 15074 N 1399.76 1.54172 -0.326923 0
M  V30 15075 C 1401.01 2.00233 0.274098 0
M  V30 15076 C 1401.33 1.21665 1.5239 0
M  V30 15077 O 1400.6 0.319359 1.93279 0
M  V30 15078 H 1399.18 0.739687 0.104271 0
M  V30 15079 H 1401.84 1.8977 -0.444244 0
M  V30 15080 H 1400.94 3.07599 0.528154 0
M  V30 15081 N 1401.24 0.0551678 1.57503 0
M  V30 15082 C 1402.17 -0.915714 2.14795 0
M  V30 15083 C 1403.15 -1.32179 1.07065 0
M  V30 15084 O 1404.33 -1.39579 1.35023 0
M  V30 15085 C 1401.46 -2.18916 2.69616 0
M  V30 15086 C 1400.42 -1.92303 3.82366 0
M  V30 15087 C 1399.74 -3.26136 4.23721 0
M  V30 15088 C 1401.04 -1.24146 5.07331 0
M  V30 15089 H 1402.74 -0.438499 2.96171 0
M  V30 15090 H 1400.28 -0.209477 1.42468 0
M  V30 15091 H 1402.24 -2.87239 3.08337 0
M  V30 15092 H 1400.96 -2.6885 1.85437 0
M  V30 15093 H 1399.62 -1.26391 3.44123 0
M  V30 15094 H 1399.27 -3.73879 3.36487 0
M  V30 15095 H 1398.97 -3.09126 4.99715 0
M  V30 15096 H 1400.49 -3.95684 4.65045 0
M  V30 15097 H 1401.91 -1.8251 5.43473 0
M  V30 15098 H 1400.3 -1.17449 5.88494 0
M  V30 15099 H 1401.37 -0.218073 4.84409 0
M  V30 15100 N 1402.72 -1.56081 -0.218252 0
M  V30 15101 C 1403.96 -1.79247 -0.942157 0
M  V30 15102 C 1404.29 -0.624492 -1.84202 0
M  V30 15103 O 1403.55 0.390973 -1.91755 0
M  V30 15104 C 1403.85 -3.08199 -1.80965 0
M  V30 15105 C 1403.51 -4.38197 -1.06274 0
M  V30 15106 C 1402.17 -4.73517 -0.856432 0
M  V30 15107 C 1404.53 -5.18441 -0.535532 0
M  V30 15108 C 1401.85 -5.86595 -0.111065 0
M  V30 15109 C 1404.21 -6.32295 0.196507 0
M  V30 15110 C 1402.87 -6.66215 0.414041 0
M  V30 15111 H 1402.14 -0.655913 -0.34476 0
M  V30 15112 H 1404.79 -1.90344 -0.210095 0
M  V30 15113 H 1403.09 -2.92238 -2.60967 0
M  V30 15114 H 1404.79 -3.23325 -2.37196 0
M  V30 15115 H 1401.38 -4.10466 -1.23352 0
M  V30 15116 H 1405.56 -4.91586 -0.682386 0
M  V30 15117 H 1400.82 -6.11363 0.0676711 0
M  V30 15118 H 1404.99 -6.93701 0.612516 0
M  V30 15119 H 1402.62 -7.5368 0.993532 0
M  V30 15120 N 1404.2 0.485086 -1.49949 0
M  V30 15121 C 1405.15 1.58207 -1.64179 0
M  V30 15122 C 1406.13 1.53037 -0.496844 0
M  V30 15123 O 1407.32 1.60297 -0.750582 0
M  V30 15124 C 1404.45 2.96735 -1.72637 0
M  V30 15125 C 1403.54 3.06841 -2.92762 0
M  V30 15126 N 1403.93 2.86795 -4.16632 0
M  V30 15127 C 1402.23 3.37961 -2.91029 0
M  V30 15128 C 1402.93 3.01502 -4.97465 0
M  V30 15129 N 1401.9 3.31085 -4.31142 0
M  V30 15130 H 1405.7 1.41387 -2.57657 0
M  V30 15131 H 1403.22 0.691542 -1.4694 0
M  V30 15132 H 1405.22 3.75592 -1.80932 0
M  V30 15133 H 1403.88 3.14612 -0.803072 0
M  V30 15134 H 1404.89 2.62653 -4.46356 0
M  V30 15135 H 1401.56 3.61915 -2.08143 0
M  V30 15136 H 1402.95 2.90361 -6.05921 0
M  V30 15137 N 1405.67 1.39291 0.737279 0
M  V30 15138 C 1406.9 1.39844 1.53162 0
M  V30 15139 C 1407.32 -0.00568546 1.88099 0
M  V30 15140 O 1406.68 -0.992085 1.51748 0
M  V30 15141 C 1406.73 2.27577 2.79716 0
M  V30 15142 O 1405.83 1.70408 3.75546 0
M  V30 15143 H 1405.17 0.476314 0.462624 0
M  V30 15144 H 1407.7 1.83258 0.909819 0
M  V30 15145 H 1407.71 2.42009 3.28475 0
M  V30 15146 H 1406.39 3.29621 2.53619 0
M  V30 15147 H 1404.97 1.65206 3.34307 0
M  V30 15148 N 1407.15 -0.967221 1.24429 0
M  V30 15149 C 1408.4 -1.71279 1.08588 0
M  V30 15150 C 1408.73 -1.90558 -0.374325 0
M  V30 15151 O 1408.01 -1.46742 -1.27659 0
M  V30 15152 C 1408.29 -3.10326 1.82674 0
M  V30 15153 C 1408.14 -2.98535 3.36447 0
M  V30 15154 C 1409.46 -4.09993 1.59981 0
M  V30 15155 H 1406.58 -0.621658 0.395867 0
M  V30 15156 H 1409.22 -1.12514 1.53103 0
M  V30 15157 H 1407.37 -3.60492 1.44836 0
M  V30 15158 H 1409.04 -2.55791 3.83886 0
M  V30 15159 H 1407.29 -2.34736 3.64803 0
M  V30 15160 H 1407.96 -3.97041 3.83487 0
M  V30 15161 H 1410.43 -3.68687 1.92897 0
M  V30 15162 H 1409.31 -5.05349 2.14274 0
M  V30 15163 H 1409.57 -4.38812 0.538173 0
M  V30 15164 N 1408.63 -1.05812 -1.16797 0
M  V30 15165 C 1409.88 -0.767008 -1.86547 0
M  V30 15166 C 1410.19 0.708979 -1.82299 0
M  V30 15167 O 1411.4 1.11428 -2.4758 0
M  V30 15168 C 1409.85 -1.32186 -3.34746 0
M  V30 15169 C 1409.46 -2.82774 -3.4748 0
M  V30 15170 C 1411.21 -1.10808 -4.09783 0
M  V30 15171 C 1409.11 -3.31529 -4.89737 0
M  V30 15172 H 1408.04 -0.283235 -0.698781 0
M  V30 15173 H 1410.69 -1.27621 -1.31853 0
M  V30 15174 H 1409.08 -0.740453 -3.89016 0
M  V30 15175 H 1410.25 -3.46825 -3.03396 0
M  V30 15176 H 1408.56 -3.02765 -2.85871 0
M  V30 15177 H 1411.16 -1.44728 -5.14741 0
M  V30 15178 H 1411.5 -0.046167 -4.16274 0
M  V30 15179 H 1412.04 -1.65502 -3.61737 0
M  V30 15180 H 1408.78 -4.37177 -4.88422 0
M  V30 15181 H 1408.3 -2.72224 -5.34466 0
M  V30 15182 H 1409.98 -3.26572 -5.58534 0
M  V30 15183 N 1410.11 1.33347 -0.840014 0
M  V30 15184 C 1411.04 2.31703 -0.289138 0
M  V30 15185 C 1412.02 1.59024 0.603759 0
M  V30 15186 O 1413.2 1.86911 0.527071 0
M  V30 15187 C 1410.33 3.43144 0.53566 0
M  V30 15188 C 1409.29 4.272 -0.261544 0
M  V30 15189 C 1408.61 5.30267 0.687075 0
M  V30 15190 C 1409.91 5.00915 -1.47924 0
M  V30 15191 H 1411.61 2.78026 -1.11094 0
M  V30 15192 H 1409.15 1.33666 -0.535658 0
M  V30 15193 H 1411.11 4.10979 0.931351 0
M  V30 15194 H 1409.83 2.95512 1.39069 0
M  V30 15195 H 1408.49 3.60991 -0.638809 0
M  V30 15196 H 1408.14 4.78893 1.53853 0
M  V30 15197 H 1407.84 5.87388 0.157773 0
M  V30 15198 H 1409.36 6.00968 1.08026 0
M  V30 15199 H 1410.78 5.61511 -1.15664 0
M  V30 15200 H 1409.17 5.67692 -1.94541 0
M  V30 15201 H 1410.24 4.29622 -2.24839 0
M  V30 15202 N 1411.59 0.596556 1.45873 0
M  V30 15203 C 1412.83 0.0874583 2.02311 0
M  V30 15204 C 1413.16 -1.27781 1.46636 0
M  V30 15205 O 1412.42 -1.85393 0.62674 0
M  V30 15206 C 1412.71 -0.0135714 3.57397 0
M  V30 15207 C 1412.38 1.28591 4.32175 0
M  V30 15208 C 1411.04 1.6419 4.52322 0
M  V30 15209 C 1413.39 2.14523 4.75005 0
M  V30 15210 C 1410.72 2.85493 5.12553 0
M  V30 15211 C 1413.07 3.35065 5.36577 0
M  V30 15212 C 1411.74 3.70929 5.54949 0
M  V30 15213 H 1411.01 0.0320033 0.740309 0
M  V30 15214 H 1413.66 0.775967 1.75074 0
M  V30 15215 H 1411.96 -0.785287 3.8385 0
M  V30 15216 H 1413.66 -0.423456 3.98758 0
M  V30 15217 H 1410.25 0.99881 4.16799 0
M  V30 15218 H 1414.43 1.88321 4.59183 0
M  V30 15219 H 1409.69 3.134 5.24967 0
M  V30 15220 H 1413.86 4.01909 5.6872 0
M  V30 15221 H 1411.49 4.65011 6.01389 0
M  V30 15222 N 1413.06 -1.53996 0.335095 0
M  V30 15223 C 1414.31 -2.01769 -0.257101 0
M  V30 15224 C 1414.66 -1.21883 -1.4887 0
M  V30 15225 O 1413.96 -0.295897 -1.89301 0
M  V30 15226 C 1414.15 -3.51769 -0.631907 0
M  V30 15227 C 1413.98 -4.46177 0.561818 0
M  V30 15228 C 1412.75 -4.9396 1.06451 0
M  V30 15229 C 1414.95 -4.94376 1.41763 0
M  V30 15230 N 1412.93 -5.72298 2.22144 0
M  V30 15231 C 1414.3 -5.70753 2.42158 0
M  V30 15232 C 1416.36 -4.76499 1.44406 0
M  V30 15233 C 1415.06 -6.31156 3.45014 0
M  V30 15234 C 1417.09 -5.37745 2.46139 0
M  V30 15235 C 1416.45 -6.13983 3.4526 0
M  V30 15236 H 1412.55 -0.779875 -0.0576132 0
M  V30 15237 H 1415.13 -1.88873 0.472746 0
M  V30 15238 H 1413.3 -3.64887 -1.33087 0
M  V30 15239 H 1415.03 -3.86295 -1.20656 0
M  V30 15240 H 1411.79 -4.69338 0.633942 0
M  V30 15241 H 1412.21 -6.16141 2.80534 0
M  V30 15242 H 1416.85 -4.17109 0.691369 0
M  V30 15243 H 1414.57 -6.89659 4.21184 0
M  V30 15244 H 1418.16 -5.25823 2.49 0
M  V30 15245 H 1417.04 -6.60532 4.2269 0
M  V30 15246 N 1414.54 -0.0635198 -1.57472 0
M  V30 15247 C 1415.79 0.607484 -1.93173 0
M  V30 15248 C 1416.12 1.70117 -0.942897 0
M  V30 15249 O 1415.37 1.95653 0.042832 0
M  V30 15250 C 1415.67 1.23117 -3.35525 0
M  V30 15251 C 1415.34 0.264457 -4.50124 0
M  V30 15252 C 1414 -0.00151762 -4.812 0
M  V30 15253 C 1416.35 -0.39737 -5.19683 0
M  V30 15254 C 1413.68 -0.936547 -5.79177 0
M  V30 15255 C 1416.03 -1.32067 -6.18661 0
M  V30 15256 C 1414.69 -1.59519 -6.48159 0
M  V30 15257 H 1413.96 0.222294 -0.706871 0
M  V30 15258 H 1416.61 -0.132633 -1.9104 0
M  V30 15259 H 1414.92 2.04684 -3.34084 0
M  V30 15260 H 1416.61 1.7575 -3.60434 0
M  V30 15261 H 1413.2 0.481945 -4.25882 0
M  V30 15262 H 1417.39 -0.20499 -4.95876 0
M  V30 15263 H 1412.64 -1.15658 -6.00361 0
M  V30 15264 H 1416.82 -1.83949 -6.71666 0
M  V30 15265 H 1414.44 -2.32134 -7.23891 0
M  V30 15266 N 1416.02 1.56195 0.209972 0
M  V30 15267 C 1417.43 1.69811 0.775969 0
M  V30 15268 C 1417.78 0.667543 1.84495 0
M  V30 15269 O 1416.91 -0.179043 2.15658 0
M  V30 15270 C 1417.5 3.07869 1.41429 0
M  V30 15271 C 1416.06 3.233 1.92755 0
M  V30 15272 C 1415.21 2.6575 0.791958 0
M  V30 15273 H 1418.16 1.58693 -0.0148727 0
M  V30 15274 H 1418.18 3.04371 2.28339 0
M  V30 15275 H 1417.69 3.82853 0.63604 0
M  V30 15276 H 1415.79 2.53206 2.73345 0
M  V30 15277 H 1415.91 4.30645 2.09956 0
M  V30 15278 H 1414.27 2.24535 1.20234 0
M  V30 15279 H 1415.05 3.4329 0.0261877 0
M  V30 15280 N 1417.5 -0.477127 1.50204 0
M  V30 15281 C 1418.43 -1.58405 1.71552 0
M  V30 15282 C 1419.41 -1.60463 0.564413 0
M  V30 15283 O 1420.59 -1.76826 0.802893 0
M  V30 15284 C 1417.72 -2.96765 1.8041 0
M  V30 15285 C 1416.68 -3.09573 2.95548 0
M  V30 15286 C 1416 -4.49522 2.89542 0
M  V30 15287 C 1417.3 -2.87356 4.36147 0
M  V30 15288 H 1419 -1.40792 2.64231 0
M  V30 15289 H 1416.54 -0.675886 1.27153 0
M  V30 15290 H 1418.5 -3.74125 1.9393 0
M  V30 15291 H 1417.22 -3.1552 0.843489 0
M  V30 15292 H 1415.88 -2.34645 2.81669 0
M  V30 15293 H 1415.53 -4.65186 1.91339 0
M  V30 15294 H 1415.23 -4.59028 3.66834 0
M  V30 15295 H 1416.75 -5.28909 3.05102 0
M  V30 15296 H 1418.17 -3.54469 4.50583 0
M  V30 15297 H 1416.56 -3.08313 5.14843 0
M  V30 15298 H 1417.63 -1.83264 4.48935 0
M  V30 15299 N 1418.98 -1.3968 -0.729882 0
M  V30 15300 C 1419.92 -1.38808 -1.84393 0
M  V30 15301 C 1420.89 -0.247035 -1.64253 0
M  V30 15302 O 1422.08 -0.44293 -1.85588 0
M  V30 15303 C 1419.22 -1.2424 -3.2196 0
M  V30 15304 C 1418.33 -2.47932 -3.53771 0
M  V30 15305 C 1417.47 -2.25913 -4.80767 0
M  V30 15306 C 1416.51 -3.45254 -5.05436 0
M  V30 15307 N 1415.64 -3.2252 -6.23638 0
M  V30 15308 H 1420.48 -2.34038 -1.84473 0
M  V30 15309 H 1418.02 -1.16252 -0.901332 0
M  V30 15310 H 1419.98 -1.13804 -4.01378 0
M  V30 15311 H 1418.61 -0.326375 -3.21146 0
M  V30 15312 H 1417.66 -2.68952 -2.69015 0
M  V30 15313 H 1418.97 -3.36806 -3.67917 0
M  V30 15314 H 1418.13 -2.12748 -5.68175 0
M  V30 15315 H 1416.86 -1.34441 -4.68804 0
M  V30 15316 H 1415.87 -3.58912 -4.16488 0
M  V30 15317 H 1417.09 -4.37634 -5.19282 0
M  V30 15318 H 1415.04 -2.33718 -6.12953 0
M  V30 15319 H 1414.96 -4.04954 -6.38395 0
M  V30 15320 H 1416.23 -3.1306 -7.13872 0
M  V30 15321 N 1420.45 0.960609 -1.2494 0
M  V30 15322 C 1421.42 2.03791 -1.04891 0
M  V30 15323 C 1422.42 1.608 -0.00375792 0
M  V30 15324 O 1423.61 1.72463 -0.24539 0
M  V30 15325 C 1420.74 3.35733 -0.591309 0
M  V30 15326 H 1421.93 2.2301 -2.00516 0
M  V30 15327 H 1419.49 1.13686 -1.07263 0
M  V30 15328 H 1420.22 3.22207 0.367816 0
M  V30 15329 H 1420.01 3.68283 -1.34574 0
M  V30 15330 H 1421.5 4.14921 -0.472283 0
M  V30 15331 N 1421.93 1.0643 1.16234 0
M  V30 15332 C 1422.86 0.697605 2.22836 0
M  V30 15333 C 1423.84 -0.310563 1.67241 0
M  V30 15334 O 1425.03 -0.185385 1.93313 0
M  V30 15335 C 1422.16 0.0847097 3.47197 0
M  V30 15336 C 1421.11 1.019 4.15693 0
M  V30 15337 C 1420.44 0.269339 5.34021 0
M  V30 15338 C 1421.74 2.34861 4.66516 0
M  V30 15339 H 1423.43 1.58883 2.53765 0
M  V30 15340 H 1420.98 0.765388 1.21975 0
M  V30 15341 H 1422.93 -0.1837 4.20999 0
M  V30 15342 H 1421.66 -0.84154 3.15572 0
M  V30 15343 H 1420.31 1.27218 3.43818 0
M  V30 15344 H 1419.96 -0.660072 4.9865 0
M  V30 15345 H 1419.66 0.892001 5.8079 0
M  V30 15346 H 1421.19 0.00850775 6.10599 0
M  V30 15347 H 1422.6 2.13922 5.31893 0
M  V30 15348 H 1421 2.92637 5.23912 0
M  V30 15349 H 1422.07 2.97834 3.82653 0
M  V30 15350 N 1423.41 -1.329 0.847073 0
M  V30 15351 C 1424.34 -2.27903 0.243522 0
M  V30 15352 C 1425.36 -1.52101 -0.58043 0
M  V30 15353 O 1426.54 -1.73818 -0.406158 0
M  V30 15354 C 1423.64 -3.32107 -0.675118 0
M  V30 15355 C 1422.82 -4.37258 0.111305 0
M  V30 15356 C 1421.88 -5.21085 -0.731933 0
M  V30 15357 O 1420.9 -5.68951 -0.168176 0
M  V30 15358 N 1422.1 -5.43175 -2.04794 0
M  V30 15359 H 1424.87 -2.80335 1.05983 0
M  V30 15360 H 1422.43 -1.4568 0.706322 0
M  V30 15361 H 1424.42 -3.85093 -1.2444 0
M  V30 15362 H 1422.99 -2.79891 -1.39212 0
M  V30 15363 H 1422.21 -3.8466 0.861991 0
M  V30 15364 H 1423.5 -5.04608 0.651756 0
M  V30 15365 H 1422.9 -5.06002 -2.5294 0
M  V30 15366 H 1421.46 -5.99186 -2.56552 0
M  V30 15367 N 1424.89 -0.604284 -1.45555 0
M  V30 15368 C 1426.12 -0.104301 -2.06337 0
M  V30 15369 C 1426.53 1.21523 -1.45013 0
M  V30 15370 O 1425.87 1.75039 -0.557422 0
M  V30 15371 C 1425.93 0.113202 -3.59322 0
M  V30 15372 C 1425.6 -1.12402 -4.42961 0
M  V30 15373 C 1426.59 -2.04136 -4.78147 0
M  V30 15374 C 1424.28 -1.35192 -4.83765 0
M  V30 15375 C 1426.27 -3.16991 -5.52988 0
M  V30 15376 C 1423.96 -2.48348 -5.5836 0
M  V30 15377 C 1424.96 -3.39076 -5.92888 0
M  V30 15378 O 1424.64 -4.50264 -6.65971 0
M  V30 15379 H 1424.38 -0.0644639 -0.672919 0
M  V30 15380 H 1426.93 -0.830982 -1.8784 0
M  V30 15381 H 1425.16 0.894739 -3.76206 0
M  V30 15382 H 1426.85 0.564372 -4.01957 0
M  V30 15383 H 1427.62 -1.87753 -4.47184 0
M  V30 15384 H 1423.49 -0.654731 -4.56327 0
M  V30 15385 H 1427.04 -3.87831 -5.79856 0
M  V30 15386 H 1422.94 -2.64686 -5.88737 0
M  V30 15387 H 1423.7 -4.48904 -6.84418 0
M  V30 15388 N 1426.37 1.53816 -0.343257 0
M  V30 15389 C 1427.61 2.00512 0.252845 0
M  V30 15390 C 1427.94 1.23274 1.51091 0
M  V30 15391 O 1427.21 0.339841 1.9293 0
M  V30 15392 H 1425.79 0.740751 0.0964202 0
M  V30 15393 H 1428.45 1.89288 -0.464347 0
M  V30 15394 H 1427.54 3.08142 0.495499 0
M  V30 15395 N 1427.84 0.0718701 1.57436 0
M  V30 15396 C 1429.07 -0.606253 1.97819 0
M  V30 15397 C 1429.49 -1.63144 0.950233 0
M  V30 15398 O 1428.84 -1.82391 -0.0631051 0
M  V30 15399 C 1428.9 -1.27476 3.38278 0
M  V30 15400 O 1428.62 -0.290603 4.37135 0
M  V30 15401 C 1430.12 -2.0407 3.93536 0
M  V30 15402 H 1427.34 -0.164305 0.650573 0
M  V30 15403 H 1429.88 0.144295 2.0399 0
M  V30 15404 H 1428.04 -1.97639 3.33193 0
M  V30 15405 H 1428.45 -0.77022 5.18814 0
M  V30 15406 H 1429.92 -2.46237 4.94036 0
M  V30 15407 H 1430.4 -2.89728 3.30083 0
M  V30 15408 H 1431.01 -1.38773 4.02022 0
M  V30 15409 N 1429.32 -1.56304 -0.201686 0
M  V30 15410 C 1430.29 -1.93171 -1.2336 0
M  V30 15411 C 1431.29 -0.812164 -1.38782 0
M  V30 15412 O 1432.48 -1.07967 -1.36707 0
M  V30 15413 C 1429.61 -2.19997 -2.60411 0
M  V30 15414 H 1430.8 -2.85483 -0.918654 0
M  V30 15415 H 1428.35 -1.49893 -0.442935 0
M  V30 15416 H 1429.09 -1.30301 -2.96972 0
M  V30 15417 H 1428.87 -3.01574 -2.5059 0
M  V30 15418 H 1430.36 -2.49547 -3.34838 0
M  V30 15419 N 1430.8 0.469154 -1.50455 0
M  V30 15420 C 1432.05 1.22109 -1.61541 0
M  V30 15421 C 1432.38 1.91905 -0.316646 0
M  V30 15422 O 1431.63 1.82845 0.697585 0
M  V30 15423 C 1431.93 2.28673 -2.7467 0
M  V30 15424 C 1431.6 1.76115 -4.15083 0
M  V30 15425 C 1430.26 1.61503 -4.53288 0
M  V30 15426 C 1432.61 1.37145 -5.02833 0
M  V30 15427 C 1429.94 1.06346 -5.76981 0
M  V30 15428 C 1432.29 0.834294 -6.27074 0
M  V30 15429 C 1430.95 0.674814 -6.6408 0
M  V30 15430 H 1430.22 0.44683 -0.591121 0
M  V30 15431 H 1432.87 0.516821 -1.84394 0
M  V30 15432 H 1431.18 3.05015 -2.45912 0
M  V30 15433 H 1432.87 2.86615 -2.80451 0
M  V30 15434 H 1429.46 1.88457 -3.84944 0
M  V30 15435 H 1433.65 1.47268 -4.73947 0
M  V30 15436 H 1428.9 0.927377 -6.04326 0
M  V30 15437 H 1433.08 0.523676 -6.94428 0
M  V30 15438 H 1430.7 0.245264 -7.59804 0
M  V30 15439 N 1432.28 1.40065 0.722464 0
M  V30 15440 C 1433.53 1.37698 1.47932 0
M  V30 15441 C 1433.85 -0.0222608 1.94987 0
M  V30 15442 O 1433.12 -0.975795 1.69868 0
M  V30 15443 H 1431.7 0.506766 0.548815 0
M  V30 15444 H 1434.36 1.75053 0.856884 0
M  V30 15445 H 1433.46 2.04756 2.35545 0
M  V30 15446 N 1433.76 -0.95397 1.25448 0
M  V30 15447 C 1434.71 -2.07206 1.05681 0
M  V30 15448 C 1435.7 -1.69395 -0.0124672 0
M  V30 15449 O 1436.91 -1.79429 0.143201 0
M  V30 15450 H 1433.28 -0.678231 0.324817 0
M  V30 15451 H 1435.25 -2.21034 2.00466 0
M  V30 15452 C 1434 -3.40725 0.692955 0
M  V30 15453 H 1433.32 -3.70287 1.50756 0
M  V30 15454 H 1434.76 -4.19814 0.594351 0
M  V30 15455 C 1433.22 -3.31495 -0.601028 0
M  V30 15456 O 1433.75 -3.66565 -1.64296 0
M  V30 15457 N 1431.96 -2.84612 -0.586899 0
M  V30 15458 H 1431.51 -2.56271 0.261375 0
M  V30 15459 H 1431.46 -2.78819 -1.45284 0
M  V30 15460 N 1435.24 -1.07045 -1.15668 0
M  V30 15461 C 1436.48 -0.790172 -1.86013 0
M  V30 15462 C 1436.8 0.685663 -1.82548 0
M  V30 15463 O 1436.07 1.49644 -1.26426 0
M  V30 15464 H 1434.65 -0.28931 -0.688701 0
M  V30 15465 H 1437.32 -1.35354 -1.40233 0
M  V30 15466 H 1436.41 -1.1219 -2.91239 0
M  V30 15467 N 1436.71 1.32449 -0.85411 0
M  V30 15468 C 1437.66 2.2889 -0.296341 0
M  V30 15469 C 1438.63 1.55024 0.596378 0
M  V30 15470 O 1439.82 1.8325 0.531406 0
M  V30 15471 C 1436.96 3.41315 0.509729 0
M  V30 15472 C 1436.07 4.30062 -0.40872 0
M  V30 15473 C 1435.2 5.29616 0.409928 0
M  V30 15474 C 1434.24 6.10005 -0.505953 0
M  V30 15475 N 1433.38 7.01559 0.275483 0
M  V30 15476 H 1438.22 2.75989 -1.12401 0
M  V30 15477 H 1435.76 1.35787 -0.565717 0
M  V30 15478 H 1437.71 4.05218 0.992697 0
M  V30 15479 H 1436.34 2.95367 1.30223 0
M  V30 15480 H 1435.4 3.66745 -1.01007 0
M  V30 15481 H 1436.71 4.86255 -1.11165 0
M  V30 15482 H 1435.86 5.99119 0.956083 0
M  V30 15483 H 1434.6 4.74039 1.14623 0
M  V30 15484 H 1433.61 5.39406 -1.064 0
M  V30 15485 H 1434.83 6.67667 -1.24086 0
M  V30 15486 H 1432.78 6.48412 0.994887 0
M  V30 15487 H 1432.69 7.55102 -0.368426 0
M  V30 15488 H 1433.96 7.75349 0.803382 0
M  V30 15489 N 1438.19 0.611994 1.45232 0
M  V30 15490 C 1439.42 0.115409 2.06578 0
M  V30 15491 C 1439.83 -1.20206 1.45588 0
M  V30 15492 O 1439.19 -1.73315 0.571668 0
M  V30 15493 C 1439.24 -0.0259943 3.61491 0
M  V30 15494 O 1438.96 1.23936 4.20204 0
M  V30 15495 C 1440.46 -0.553522 4.39831 0
M  V30 15496 H 1437.68 0.0708656 0.667247 0
M  V30 15497 H 1440.23 0.840977 1.86408 0
M  V30 15498 H 1438.38 -0.701909 3.80988 0
M  V30 15499 H 1438.8 1.07187 5.13431 0
M  V30 15500 H 1440.27 -0.601536 5.48713 0
M  V30 15501 H 1440.75 -1.57671 4.09923 0
M  V30 15502 H 1441.35 0.0884954 4.25208 0
M  V30 15503 N 1439.67 -1.53632 0.351409 0
M  V30 15504 C 1440.89 -2.0593 -0.246501 0
M  V30 15505 C 1441.32 -1.22419 -1.42812 0
M  V30 15506 O 1440.68 -0.239811 -1.79707 0
M  V30 15507 C 1440.73 -3.55021 -0.631862 0
M  V30 15508 O 1439.83 -3.74317 -1.73092 0
M  V30 15509 H 1439.17 -0.662839 -0.0392424 0
M  V30 15510 H 1441.7 -1.98196 0.507904 0
M  V30 15511 H 1441.71 -3.97795 -0.906831 0
M  V30 15512 H 1440.39 -4.15251 0.232224 0
M  V30 15513 H 1438.96 -3.43444 -1.4526 0
M  V30 15514 N 1441.15 -0.0802183 -1.57396 0
M  V30 15515 C 1442.42 0.628419 -1.8523 0
M  V30 15516 C 1442.8 1.87272 -0.974288 0
M  V30 15517 O 1442.15 2.2846 -0.0427687 0
M  V30 15518 C 1442.36 0.958033 -3.35593 0
M  V30 15519 C 1443.71 1.3279 -4.03301 0
M  V30 15520 O 1444.73 1.04951 -3.40388 0
M  V30 15521 O 1443.59 1.84865 -5.14283 0
M  V30 15522 H 1440.69 0.312945 -0.765503 0
M  V30 15523 H 1443.23 -0.111788 -1.69331 0
M  V30 15524 H 1442.01 0.074648 -3.91229 0
M  V30 15525 H 1441.63 1.75472 -3.56785 0
M  V30 15526 N 1442.63 1.56409 0.193394 0
M  V30 15527 C 1443.86 1.84569 0.928328 0
M  V30 15528 C 1444.26 0.660788 1.77286 0
M  V30 15529 O 1443.61 -0.379752 1.79732 0
M  V30 15530 C 1443.67 3.06854 1.87299 0
M  V30 15531 C 1443.33 4.40684 1.21025 0
M  V30 15532 C 1444.33 5.16583 0.58635 0
M  V30 15533 C 1442.01 4.87419 1.21359 0
M  V30 15534 C 1444.01 6.37395 -0.0253573 0
M  V30 15535 C 1441.7 6.08167 0.598052 0
M  V30 15536 C 1442.69 6.82997 -0.0203414 0
M  V30 15537 O 1442.38 8.01457 -0.626232 0
M  V30 15538 H 1442.11 0.616966 0.276277 0
M  V30 15539 H 1444.67 2.04373 0.205102 0
M  V30 15540 H 1442.9 2.82938 2.63596 0
M  V30 15541 H 1444.59 3.21645 2.47587 0
M  V30 15542 H 1445.35 4.81569 0.575894 0
M  V30 15543 H 1441.23 4.29129 1.68432 0
M  V30 15544 H 1444.78 6.95743 -0.508644 0
M  V30 15545 H 1440.67 6.42649 0.606017 0
M  V30 15546 H 1441.44 8.16825 -0.523305 0
M  V30 15547 N 1444.1 -0.461169 1.50702 0
M  V30 15548 C 1445.03 -1.56576 1.73223 0
M  V30 15549 C 1446.01 -1.59855 0.581401 0
M  V30 15550 O 1447.2 -1.75964 0.821602 0
M  V30 15551 C 1444.33 -2.94835 1.83548 0
M  V30 15552 C 1443.28 -3.06421 2.98815 0
M  V30 15553 C 1442.61 -4.46425 2.94293 0
M  V30 15554 C 1443.91 -2.82714 4.3917 0
M  V30 15555 H 1445.6 -1.37982 2.65709 0
M  V30 15556 H 1443.15 -0.662362 1.27862 0
M  V30 15557 H 1445.1 -3.72047 1.97887 0
M  V30 15558 H 1443.83 -3.14608 0.876906 0
M  V30 15559 H 1442.49 -2.31644 2.84142 0
M  V30 15560 H 1442.13 -4.63131 1.96262 0
M  V30 15561 H 1441.83 -4.55111 3.71682 0
M  V30 15562 H 1443.36 -5.25644 3.10695 0
M  V30 15563 H 1444.77 -3.4967 4.54317 0
M  V30 15564 H 1443.17 -3.02835 5.18084 0
M  V30 15565 H 1444.24 -1.78492 4.50853 0
M  V30 15566 N 1445.58 -1.40446 -0.715026 0
M  V30 15567 C 1446.51 -1.43511 -1.84193 0
M  V30 15568 C 1447.49 -0.295969 -1.67505 0
M  V30 15569 O 1448.68 -0.504667 -1.87528 0
M  V30 15570 C 1445.81 -1.29751 -3.22152 0
M  V30 15571 C 1444.76 -2.41274 -3.53512 0
M  V30 15572 C 1444.09 -2.12591 -4.90621 0
M  V30 15573 C 1445.39 -3.83614 -3.54454 0
M  V30 15574 H 1447.08 -2.37819 -1.81885 0
M  V30 15575 H 1444.63 -1.14469 -0.873655 0
M  V30 15576 H 1446.58 -1.30511 -4.0068 0
M  V30 15577 H 1445.3 -0.319189 -3.25037 0
M  V30 15578 H 1443.96 -2.39764 -2.77324 0
M  V30 15579 H 1443.61 -1.13148 -4.90109 0
M  V30 15580 H 1443.31 -2.87308 -5.1257 0
M  V30 15581 H 1444.84 -2.15034 -5.71483 0
M  V30 15582 H 1446.25 -3.86945 -4.23021 0
M  V30 15583 H 1444.65 -4.57855 -3.87929 0
M  V30 15584 H 1445.72 -4.13159 -2.53827 0
M  V30 15585 N 1447.06 0.947303 -1.25952 0
M  V30 15586 C 1447.99 2.0625 -1.09467 0
M  V30 15587 C 1448.97 1.701 -0.00160498 0
M  V30 15588 O 1450.16 1.93432 -0.172501 0
M  V30 15589 C 1447.29 3.39746 -0.720392 0
M  V30 15590 C 1446.24 3.89935 -1.76451 0
M  V30 15591 C 1445.57 5.2001 -1.24472 0
M  V30 15592 C 1446.87 4.15496 -3.16481 0
M  V30 15593 H 1448.56 2.203 -2.02752 0
M  V30 15594 H 1446.11 1.05858 -0.97622 0
M  V30 15595 H 1448.06 4.17221 -0.591972 0
M  V30 15596 H 1446.78 3.25656 0.248161 0
M  V30 15597 H 1445.44 3.14635 -1.8815 0
M  V30 15598 H 1445.09 5.02295 -0.266182 0
M  V30 15599 H 1444.79 5.54559 -1.94263 0
M  V30 15600 H 1446.31 6.00075 -1.12884 0
M  V30 15601 H 1447.73 4.83605 -3.07894 0
M  V30 15602 H 1446.12 4.61315 -3.83808 0
M  V30 15603 H 1447.19 3.21501 -3.62995 0
M  V30 15604 N 1448.54 1.07657 1.15099 0
M  V30 15605 C 1449.79 0.800025 1.85591 0
M  V30 15606 C 1450.11 -0.675973 1.82909 0
M  V30 15607 O 1449.38 -1.48971 1.27218 0
M  V30 15608 H 1447.96 0.292958 0.687157 0
M  V30 15609 H 1450.62 1.36096 1.39513 0
M  V30 15610 H 1449.72 1.13733 2.90639 0
M  V30 15611 N 1450.02 -1.31994 0.861122 0
M  V30 15612 C 1450.96 -2.30666 0.299352 0
M  V30 15613 C 1451.96 -1.59133 -0.580779 0
M  V30 15614 O 1453.16 -1.73813 -0.467864 0
M  V30 15615 H 1449.54 -0.747932 0.0781091 0
M  V30 15616 H 1451.51 -2.7553 1.14567 0
M  V30 15617 C 1450.26 -3.44203 -0.491883 0
M  V30 15618 H 1449.58 -3.99412 0.17608 0
M  V30 15619 H 1451.02 -4.15384 -0.850434 0
M  V30 15620 C 1449.48 -2.92042 -1.67967 0
M  V30 15621 O 1450.01 -2.90073 -2.77886 0
M  V30 15622 N 1448.22 -2.48358 -1.50887 0
M  V30 15623 H 1447.76 -2.50159 -0.614683 0
M  V30 15624 H 1447.72 -2.13813 -2.30503 0
M  V30 15625 N 1451.49 -0.619688 -1.44906 0
M  V30 15626 C 1452.74 -0.119633 -2.02146 0
M  V30 15627 C 1453.07 1.25432 -1.48651 0
M  V30 15628 O 1452.32 1.84372 -0.656155 0
M  V30 15629 C 1452.62 -0.0432891 -3.57374 0
M  V30 15630 C 1452.29 -1.35451 -4.30074 0
M  V30 15631 C 1450.95 -1.71365 -4.49653 0
M  V30 15632 C 1453.3 -2.22053 -4.71532 0
M  V30 15633 C 1450.63 -2.93611 -5.07946 0
M  V30 15634 C 1452.98 -3.43559 -5.31178 0
M  V30 15635 C 1451.65 -3.7971 -5.48977 0
M  V30 15636 H 1450.92 -0.0437769 -0.739706 0
M  V30 15637 H 1453.56 -0.803722 -1.73818 0
M  V30 15638 H 1451.87 0.72412 -3.8505 0
M  V30 15639 H 1453.57 0.359964 -3.99381 0
M  V30 15640 H 1450.16 -1.06499 -4.15158 0
M  V30 15641 H 1454.34 -1.95603 -4.56129 0
M  V30 15642 H 1449.6 -3.21712 -5.19915 0
M  V30 15643 H 1453.77 -4.10906 -5.62254 0
M  V30 15644 H 1451.4 -4.7452 -5.93915 0
M  V30 15645 N 1452.97 1.53444 -0.359552 0
M  V30 15646 C 1454.22 2.01464 0.232366 0
M  V30 15647 C 1454.55 1.24656 1.48911 0
M  V30 15648 O 1453.83 0.338574 1.9153 0
M  V30 15649 C 1454.11 3.56172 0.530403 0
M  V30 15650 C 1453.96 4.43678 -0.739556 0
M  V30 15651 C 1455.28 4.19412 1.33347 0
M  V30 15652 H 1452.4 0.732314 0.0829802 0
M  V30 15653 H 1455.04 1.83752 -0.483253 0
M  V30 15654 H 1453.19 3.71396 1.14004 0
M  V30 15655 H 1454.86 4.40263 -1.37719 0
M  V30 15656 H 1453.11 4.11892 -1.36117 0
M  V30 15657 H 1453.78 5.49856 -0.486062 0
M  V30 15658 H 1456.25 4.07984 0.817816 0
M  V30 15659 H 1455.13 5.277 1.51075 0
M  V30 15660 H 1455.39 3.7508 2.34024 0
M  V30 15661 N 1454.45 0.0885642 1.57351 0
M  V30 15662 C 1455.68 -0.584389 1.98163 0
M  V30 15663 C 1456.09 -1.62664 0.966281 0
M  V30 15664 O 1455.43 -1.83623 -0.053226 0
M  V30 15665 C 1455.49 -1.2959 3.35331 0
M  V30 15666 C 1455.16 -0.405168 4.552 0
M  V30 15667 C 1456.15 0.344053 5.1876 0
M  V30 15668 C 1453.84 -0.325136 5.01247 0
M  V30 15669 C 1455.83 1.16135 6.26731 0
M  V30 15670 C 1453.52 0.495821 6.09085 0
M  V30 15671 C 1454.52 1.23772 6.71691 0
M  V30 15672 O 1454.21 2.04511 7.77451 0
M  V30 15673 H 1453.94 -0.161852 0.656338 0
M  V30 15674 H 1456.49 0.162558 2.04756 0
M  V30 15675 H 1454.72 -2.08928 3.25401 0
M  V30 15676 H 1456.41 -1.86274 3.60634 0
M  V30 15677 H 1457.18 0.291916 4.84121 0
M  V30 15678 H 1453.06 -0.892245 4.52283 0
M  V30 15679 H 1456.6 1.74093 6.75528 0
M  V30 15680 H 1452.5 0.549463 6.43157 0
M  V30 15681 H 1453.27 1.97123 7.94409 0
M  V30 15682 N 1455.93 -1.56509 -0.185096 0
M  V30 15683 C 1457.16 -1.85327 -0.91986 0
M  V30 15684 C 1457.57 -0.672294 -1.76425 0
M  V30 15685 O 1456.93 0.358854 -1.78937 0
M  V30 15686 C 1456.98 -3.13047 -1.80787 0
M  V30 15687 O 1456.7 -4.26591 -0.997569 0
M  V30 15688 C 1458.2 -3.55114 -2.65347 0
M  V30 15689 H 1455.42 -0.615196 -0.267909 0
M  V30 15690 H 1457.97 -2.03622 -0.189338 0
M  V30 15691 H 1456.12 -2.96619 -2.4919 0
M  V30 15692 H 1456.53 -4.99384 -1.60362 0
M  V30 15693 H 1458.01 -4.47419 -3.23295 0
M  V30 15694 H 1458.49 -2.78576 -3.39547 0
M  V30 15695 H 1459.09 -3.74105 -2.023 0
M  V30 15696 N 1457.41 0.45317 -1.50944 0
M  V30 15697 C 1458.65 1.20389 -1.62827 0
M  V30 15698 C 1458.98 1.91559 -0.336982 0
M  V30 15699 O 1458.24 1.83574 0.678153 0
M  V30 15700 C 1458.54 2.25747 -2.7708 0
M  V30 15701 C 1458.2 1.71703 -4.16928 0
M  V30 15702 C 1456.86 1.56686 -4.54976 0
M  V30 15703 C 1459.22 1.31804 -5.04259 0
M  V30 15704 C 1456.54 1.0022 -5.78077 0
M  V30 15705 C 1458.9 0.767738 -6.27924 0
M  V30 15706 C 1457.56 0.604341 -6.64759 0
M  V30 15707 H 1456.83 0.440536 -0.595827 0
M  V30 15708 H 1459.48 0.497234 -1.84932 0
M  V30 15709 H 1457.78 3.0239 -2.49134 0
M  V30 15710 H 1459.48 2.83625 -2.83475 0
M  V30 15711 H 1456.07 1.84364 -3.86921 0
M  V30 15712 H 1460.25 1.42233 -4.75482 0
M  V30 15713 H 1455.51 0.863228 -6.05275 0
M  V30 15714 H 1459.68 0.449994 -6.94945 0
M  V30 15715 H 1457.31 0.164663 -7.60022 0
M  V30 15716 N 1458.88 1.40823 0.707568 0
M  V30 15717 C 1460.13 1.39741 1.4697 0
M  V30 15718 C 1460.46 0.00231194 1.942 0
M  V30 15719 O 1459.74 -0.967798 1.68713 0
M  V30 15720 C 1460.02 2.39385 2.69011 0
M  V30 15721 C 1459.87 3.87953 2.27624 0
M  V30 15722 C 1461.19 2.3645 3.71186 0
M  V30 15723 H 1458.31 0.508904 0.533091 0
M  V30 15724 H 1460.95 1.72015 0.806888 0
M  V30 15725 H 1459.1 2.11993 3.25563 0
M  V30 15726 H 1460.78 4.26202 1.76492 0
M  V30 15727 H 1459.02 4.03399 1.59537 0
M  V30 15728 H 1459.69 4.53201 3.15139 0
M  V30 15729 H 1462.17 2.60731 3.24282 0
M  V30 15730 H 1461.04 3.08204 4.54204 0
M  V30 15731 H 1461.3 1.3789 4.20046 0
M  V30 15732 N 1460.36 -0.94061 1.26453 0
M  V30 15733 C 1461.61 -1.68937 1.12197 0
M  V30 15734 C 1461.94 -1.91309 -0.33382 0
M  V30 15735 O 1461.22 -1.49417 -1.24518 0
M  V30 15736 C 1461.5 -3.06381 1.89215 0
M  V30 15737 C 1461.35 -2.91331 3.42704 0
M  V30 15738 C 1462.67 -4.06507 1.68642 0
M  V30 15739 H 1459.79 -0.613121 0.408964 0
M  V30 15740 H 1462.43 -1.09242 1.55455 0
M  V30 15741 H 1460.58 -3.57339 1.5245 0
M  V30 15742 H 1462.25 -2.47591 3.89226 0
M  V30 15743 H 1460.5 -2.26945 3.697 0
M  V30 15744 H 1461.17 -3.88818 3.91822 0
M  V30 15745 H 1463.64 -3.64512 2.00674 0
M  V30 15746 H 1462.52 -5.0069 2.24945 0
M  V30 15747 H 1462.78 -4.37572 0.631131 0
M  V30 15748 N 1461.84 -1.08266 -1.14527 0
M  V30 15749 C 1463.09 -0.806405 -1.84878 0
M  V30 15750 C 1463.4 0.670151 -1.83762 0
M  V30 15751 O 1464.61 1.06151 -2.49888 0
M  V30 15752 C 1463.06 -1.39257 -3.31867 0
M  V30 15753 C 1462.67 -2.90081 -3.41404 0
M  V30 15754 C 1464.42 -1.19475 -4.0734 0
M  V30 15755 C 1462.32 -3.41842 -4.82595 0
M  V30 15756 H 1461.25 -0.297993 -0.692615 0
M  V30 15757 H 1463.9 -1.30389 -1.29116 0
M  V30 15758 H 1462.29 -0.822802 -3.87358 0
M  V30 15759 H 1463.46 -3.53182 -2.95971 0
M  V30 15760 H 1461.78 -3.08761 -2.79385 0
M  V30 15761 H 1464.37 -1.55614 -5.11555 0
M  V30 15762 H 1464.72 -0.134455 -4.16083 0
M  V30 15763 H 1465.25 -1.73138 -3.58145 0
M  V30 15764 H 1461.99 -4.47439 -4.79039 0
M  V30 15765 H 1461.51 -2.835 -5.28572 0
M  V30 15766 H 1463.19 -3.38346 -5.51481 0
M  V30 15767 N 1463.32 1.31536 -0.86811 0
M  V30 15768 C 1464.55 2.00952 -0.492529 0
M  V30 15769 C 1464.96 1.65174 0.914487 0
M  V30 15770 O 1464.32 0.880002 1.59882 0
M  V30 15771 C 1464.37 3.55829 -0.637798 0
M  V30 15772 O 1464.09 3.90326 -1.9894 0
M  V30 15773 C 1465.59 4.42519 -0.262986 0
M  V30 15774 H 1462.81 0.642913 -0.192105 0
M  V30 15775 H 1465.36 1.6781 -1.16876 0
M  V30 15776 H 1463.51 3.87399 -0.0091406 0
M  V30 15777 H 1463.93 4.85043 -1.99583 0
M  V30 15778 H 1465.4 5.50433 -0.415591 0
M  V30 15779 H 1465.88 4.31895 0.797705 0
M  V30 15780 H 1466.48 4.16363 -0.867268 0
M  V30 15781 N 1464.8 0.627364 1.44575 0
M  V30 15782 C 1466.04 0.130545 2.02379 0
M  V30 15783 C 1466.38 -1.24301 1.49208 0
M  V30 15784 O 1465.65 -1.82425 0.674626 0
M  V30 15785 C 1465.93 0.11311 3.59922 0
M  V30 15786 C 1465.79 1.51874 4.23385 0
M  V30 15787 C 1467.11 -0.564341 4.36467 0
M  V30 15788 H 1464.23 0.0489125 0.735375 0
M  V30 15789 H 1466.87 0.803118 1.72192 0
M  V30 15790 H 1465.02 -0.459621 3.85772 0
M  V30 15791 H 1466.69 2.14007 4.08655 0
M  V30 15792 H 1464.93 2.07371 3.81024 0
M  V30 15793 H 1465.6 1.4586 5.3238 0
M  V30 15794 H 1468.08 -0.0773244 4.16028 0
M  V30 15795 H 1466.96 -0.545715 5.46181 0
M  V30 15796 H 1467.22 -1.63403 4.10794 0
M  V30 15797 N 1466.28 -1.53251 0.367684 0
M  V30 15798 C 1467.52 -2.03197 -0.221396 0
M  V30 15799 C 1467.88 -1.249 -1.45822 0
M  V30 15800 O 1469.08 -1.64863 -2.12306 0
M  V30 15801 C 1467.35 -3.53827 -0.504134 0
M  V30 15802 S 1468.91 -4.2564 -1.06658 0
M  V30 15803 H 1465.73 -0.708089 -0.0642774 0
M  V30 15804 H 1468.33 -1.88703 0.511037 0
M  V30 15805 H 1467.03 -4.08412 0.403477 0
M  V30 15806 H 1466.57 -3.72487 -1.26558 0
M  V30 15807 H 1468.58 -4.36987 -2.35068 0
M  V30 15808 N 1467.75 -0.0969077 -1.57302 0
M  V30 15809 C 1468.68 0.858443 -2.17147 0
M  V30 15810 C 1469.66 1.29294 -1.10531 0
M  V30 15811 O 1470.85 1.3595 -1.38676 0
M  V30 15812 C 1467.98 2.11691 -2.75326 0
M  V30 15813 C 1466.93 1.82097 -3.8733 0
M  V30 15814 C 1466.26 3.14787 -4.32219 0
M  V30 15815 C 1467.56 1.10651 -5.10444 0
M  V30 15816 H 1469.25 0.35982 -2.9723 0
M  V30 15817 H 1466.8 0.17163 -1.42974 0
M  V30 15818 H 1468.75 2.78963 -3.15844 0
M  V30 15819 H 1467.48 2.63839 -1.925 0
M  V30 15820 H 1466.14 1.17222 -3.47354 0
M  V30 15821 H 1465.78 3.64826 -3.46281 0
M  V30 15822 H 1465.48 2.95769 -5.07735 0
M  V30 15823 H 1467.01 3.83215 -4.75372 0
M  V30 15824 H 1468.42 1.68036 -5.48121 0
M  V30 15825 H 1466.82 1.01805 -5.91401 0
M  V30 15826 H 1467.89 0.0895634 -4.84817 0
M  V30 15827 N 1469.23 1.56605 0.176793 0
M  V30 15828 C 1470.18 1.95985 1.21896 0
M  V30 15829 C 1471.15 0.822983 1.44278 0
M  V30 15830 O 1472.33 1.08266 1.57109 0
M  V30 15831 C 1469.47 2.32029 2.55454 0
M  V30 15832 C 1468.59 3.58867 2.40497 0
M  V30 15833 C 1467.72 3.84148 3.66884 0
M  V30 15834 C 1466.76 5.04352 3.46837 0
M  V30 15835 N 1465.9 5.25794 4.6528 0
M  V30 15836 H 1470.74 2.84829 0.876137 0
M  V30 15837 H 1468.27 1.4094 0.421221 0
M  V30 15838 H 1470.23 2.50947 3.33289 0
M  V30 15839 H 1468.86 1.46301 2.87743 0
M  V30 15840 H 1467.91 3.47893 1.53866 0
M  V30 15841 H 1469.23 4.46859 2.21627 0
M  V30 15842 H 1468.38 4.03404 4.53155 0
M  V30 15843 H 1467.12 2.9452 3.88727 0
M  V30 15844 H 1466.12 4.84999 2.58952 0
M  V30 15845 H 1467.35 5.95505 3.26421 0
M  V30 15846 H 1465.3 4.39117 4.87352 0
M  V30 15847 H 1465.21 6.07999 4.49303 0
M  V30 15848 H 1466.48 5.49524 5.5285 0
M  V30 15849 N 1470.71 -0.445159 1.51182 0
M  V30 15850 C 1471.67 -1.52224 1.71349 0
M  V30 15851 C 1472.67 -1.49834 0.583632 0
M  V30 15852 O 1473.86 -1.51995 0.85107 0
M  V30 15853 C 1470.99 -2.91789 1.76273 0
M  V30 15854 H 1472.19 -1.35649 2.67468 0
M  V30 15855 H 1469.74 -0.673312 1.41054 0
M  V30 15856 H 1470.48 -3.13777 0.819405 0
M  V30 15857 H 1470.26 -2.94928 2.58379 0
M  V30 15858 H 1471.75 -3.69938 1.93741 0
M  V30 15859 N 1472.19 -1.41197 -0.700089 0
M  V30 15860 C 1473.44 -1.40034 -1.45722 0
M  V30 15861 C 1473.76 -0.00876281 -1.94998 0
M  V30 15862 O 1473.03 0.948647 -1.71399 0
M  V30 15863 H 1471.61 -0.515433 -0.540683 0
M  V30 15864 H 1474.27 -1.76394 -0.828926 0
M  V30 15865 H 1473.36 -2.08477 -2.32258 0
M  V30 15866 N 1473.67 0.933891 -1.2695 0
M  V30 15867 C 1474.6 2.05078 -1.11649 0
M  V30 15868 C 1475.58 1.70089 -0.0196463 0
M  V30 15869 O 1476.76 1.93239 -0.193007 0
M  V30 15870 C 1473.89 3.38963 -0.756387 0
M  V30 15871 C 1472.85 3.88041 -1.80577 0
M  V30 15872 C 1472.17 5.18661 -1.2998 0
M  V30 15873 C 1473.47 4.12116 -3.2087 0
M  V30 15874 H 1475.17 2.18137 -2.05077 0
M  V30 15875 H 1472.71 1.04817 -0.987392 0
M  V30 15876 H 1474.66 4.1657 -0.63619 0
M  V30 15877 H 1473.39 3.25901 0.213607 0
M  V30 15878 H 1472.05 3.12622 -1.91477 0
M  V30 15879 H 1471.7 5.01985 -0.319442 0
M  V30 15880 H 1471.4 5.52467 -2.00134 0
M  V30 15881 H 1472.92 5.98844 -1.19242 0
M  V30 15882 H 1474.33 4.80312 -3.13006 0
M  V30 15883 H 1472.73 4.57218 -3.88679 0
M  V30 15884 H 1473.8 3.17633 -3.66384 0
M  V30 15885 N 1475.14 1.08871 1.13951 0
M  V30 15886 C 1476.05 0.734869 2.22793 0
M  V30 15887 C 1477.07 -0.260699 1.72036 0
M  V30 15888 O 1478.25 -0.103461 2.01134 0
M  V30 15889 C 1475.31 0.154599 3.46355 0
M  V30 15890 C 1474.37 1.20539 4.1203 0
M  V30 15891 C 1473.6 0.652712 5.29694 0
M  V30 15892 O 1473.83 -0.526264 5.67967 0
M  V30 15893 O 1472.76 1.40503 5.85271 0
M  V30 15894 H 1476.59 1.64297 2.55422 0
M  V30 15895 H 1474.17 0.862716 1.21974 0
M  V30 15896 H 1476.05 -0.165962 4.21073 0
M  V30 15897 H 1474.73 -0.726592 3.1544 0
M  V30 15898 H 1473.64 1.57855 3.39164 0
M  V30 15899 H 1474.97 2.05902 4.47063 0
M  V30 15900 N 1476.62 -1.31073 0.875073 0
M  V30 15901 C 1477.85 -2.00688 0.503179 0
M  V30 15902 C 1478.26 -1.65657 -0.905714 0
M  V30 15903 O 1477.62 -0.888468 -1.59413 0
M  V30 15904 C 1477.67 -3.55486 0.65666 0
M  V30 15905 O 1477.39 -3.89265 2.01007 0
M  V30 15906 C 1478.89 -4.42374 0.28645 0
M  V30 15907 H 1476.11 -0.641885 0.195512 0
M  V30 15908 H 1478.66 -1.67188 1.17765 0
M  V30 15909 H 1476.81 -3.87389 0.0296852 0
M  V30 15910 H 1477.23 -4.83978 2.02153 0
M  V30 15911 H 1478.7 -5.50205 0.444776 0
M  V30 15912 H 1479.18 -4.32312 -0.774789 0
M  V30 15913 H 1479.78 -4.15898 0.889336 0
M  V30 15914 N 1478.1 -0.635022 -1.4424 0
M  V30 15915 C 1479.33 -0.146549 -2.06882 0
M  V30 15916 C 1479.75 1.17143 -1.4717 0
M  V30 15917 O 1479.11 1.71952 -0.574636 0
M  V30 15918 C 1479.16 -0.0494694 -3.60566 0
M  V30 15919 O 1478.26 0.993423 -4.00256 0
M  V30 15920 H 1477.6 -0.0865505 -0.658335 0
M  V30 15921 H 1480.13 -0.872803 -1.85049 0
M  V30 15922 H 1480.14 0.139839 -4.0776 0
M  V30 15923 H 1478.82 -1.01169 -4.03407 0
M  V30 15924 H 1477.39 0.778372 -3.64686 0
M  V30 15925 N 1479.58 1.53054 -0.375806 0
M  V30 15926 C 1480.81 2.05521 0.210828 0
M  V30 15927 C 1481.22 1.24837 1.4217 0
M  V30 15928 O 1480.56 0.284634 1.81481 0
M  V30 15929 C 1480.62 3.53417 0.658548 0
M  V30 15930 C 1480.29 4.54906 -0.437025 0
M  V30 15931 C 1481.28 5.03638 -1.29016 0
M  V30 15932 C 1478.97 4.98701 -0.600194 0
M  V30 15933 C 1480.96 5.94777 -2.29171 0
M  V30 15934 C 1478.65 5.89644 -1.6051 0
M  V30 15935 C 1479.65 6.37573 -2.44929 0
M  V30 15936 O 1479.33 7.26721 -3.43703 0
M  V30 15937 H 1479.07 0.674893 0.0386627 0
M  V30 15938 H 1481.62 1.98296 -0.535534 0
M  V30 15939 H 1479.85 3.58215 1.45667 0
M  V30 15940 H 1481.54 3.88692 1.16933 0
M  V30 15941 H 1482.31 4.70543 -1.17534 0
M  V30 15942 H 1478.18 4.60976 0.0471346 0
M  V30 15943 H 1481.73 6.3211 -2.95099 0
M  V30 15944 H 1477.63 6.22153 -1.72035 0
M  V30 15945 H 1478.39 7.44746 -3.39553 0
M  V30 15946 N 1481.06 0.105248 1.57248 0
M  V30 15947 C 1482.3 -0.550698 1.95803 0
M  V30 15948 C 1482.66 -1.65159 0.986933 0
M  V30 15949 O 1481.95 -1.91594 0.0146152 0
M  V30 15950 C 1482.14 -1.14178 3.38671 0
M  V30 15951 C 1481.97 -0.0996826 4.4959 0
M  V30 15952 C 1480.74 0.327365 5.04238 0
M  V30 15953 C 1482.94 0.676048 5.09837 0
M  V30 15954 N 1480.92 1.35667 5.98722 0
M  V30 15955 C 1482.29 1.55691 6.00134 0
M  V30 15956 C 1484.35 0.728451 4.92542 0
M  V30 15957 C 1483.05 2.48559 6.7499 0
M  V30 15958 C 1485.08 1.64478 5.68068 0
M  V30 15959 C 1484.44 2.51324 6.58039 0
M  V30 15960 H 1480.54 -0.171547 0.762952 0
M  V30 15961 H 1483.12 0.190175 1.93769 0
M  V30 15962 H 1481.29 -1.85243 3.41379 0
M  V30 15963 H 1483.03 -1.76092 3.64381 0
M  V30 15964 H 1479.78 -0.0623632 4.73559 0
M  V30 15965 H 1480.21 1.86983 6.50666 0
M  V30 15966 H 1484.85 0.0711612 4.2274 0
M  V30 15967 H 1482.57 3.15308 7.44047 0
M  V30 15968 H 1486.15 1.69059 5.56696 0
M  V30 15969 H 1485.03 3.21077 7.15457 0
M  V30 15970 N 1482.53 -1.56697 -0.168486 0
M  V30 15971 C 1483.76 -1.86292 -0.900152 0
M  V30 15972 C 1484.18 -0.690968 -1.75702 0
M  V30 15973 O 1483.53 0.339855 -1.79308 0
M  V30 15974 C 1483.59 -3.14946 -1.77457 0
M  V30 15975 O 1483.31 -4.27625 -0.952267 0
M  V30 15976 C 1484.81 -3.57908 -2.61566 0
M  V30 15977 H 1482.03 -0.618003 -0.261369 0
M  V30 15978 H 1484.57 -2.03811 -0.16773 0
M  V30 15979 H 1482.73 -2.99246 -2.4603 0
M  V30 15980 H 1483.14 -5.01057 -1.55056 0
M  V30 15981 H 1484.61 -4.50823 -3.18532 0
M  V30 15982 H 1485.09 -2.82162 -3.36573 0
M  V30 15983 H 1485.7 -3.7623 -1.98321 0
M  V30 15984 N 1484.01 0.437135 -1.51416 0
M  V30 15985 C 1485.26 1.18523 -1.653 0
M  V30 15986 C 1485.61 1.88911 -0.364764 0
M  V30 15987 O 1484.91 1.80615 0.63943 0
M  V30 15988 C 1485.1 2.22795 -2.79458 0
M  V30 15989 C 1484.93 1.62642 -4.19259 0
M  V30 15990 C 1483.7 1.41126 -4.85192 0
M  V30 15991 C 1485.9 1.10255 -5.02343 0
M  V30 15992 N 1483.88 0.765717 -6.09106 0
M  V30 15993 C 1485.25 0.582285 -6.1726 0
M  V30 15994 C 1487.31 0.994325 -4.8787 0
M  V30 15995 C 1486.01 -0.0355648 -7.19291 0
M  V30 15996 C 1488.03 0.390369 -5.9011 0
M  V30 15997 C 1487.4 -0.11935 -7.04299 0
M  V30 15998 H 1483.5 0.42137 -0.658765 0
M  V30 15999 H 1486.08 0.4818 -1.88645 0
M  V30 16000 H 1484.25 2.90526 -2.57777 0
M  V30 16001 H 1485.98 2.89765 -2.82521 0
M  V30 16002 H 1482.74 1.67305 -4.43064 0
M  V30 16003 H 1483.16 0.460381 -6.75433 0
M  V30 16004 H 1487.8 1.37428 -3.99842 0
M  V30 16005 H 1485.52 -0.427644 -8.06968 0
M  V30 16006 H 1489.11 0.308533 -5.80981 0
M  V30 16007 H 1487.99 -0.579344 -7.82057 0
M  V30 16008 N 1485.49 1.41566 0.692592 0
M  V30 16009 C 1486.74 1.41083 1.45265 0
M  V30 16010 C 1487.07 0.0209998 1.94489 0
M  V30 16011 O 1486.32 -0.96764 1.70104 0
M  V30 16012 C 1486.62 2.36683 2.67799 0
M  V30 16013 C 1486.29 3.83458 2.37215 0
M  V30 16014 C 1484.95 4.23441 2.28585 0
M  V30 16015 C 1487.3 4.76114 2.12048 0
M  V30 16016 C 1484.63 5.54086 1.92888 0
M  V30 16017 C 1486.98 6.07082 1.7786 0
M  V30 16018 C 1485.64 6.46083 1.67727 0
M  V30 16019 H 1484.91 0.51626 0.531561 0
M  V30 16020 H 1487.56 1.74385 0.791337 0
M  V30 16021 H 1485.87 1.96645 3.38877 0
M  V30 16022 H 1487.56 2.33581 3.25946 0
M  V30 16023 H 1484.15 3.51792 2.44828 0
M  V30 16024 H 1488.34 4.46025 2.17659 0
M  V30 16025 H 1483.59 5.83182 1.83599 0
M  V30 16026 H 1487.77 6.78378 1.57407 0
M  V30 16027 H 1485.39 7.47228 1.39836 0
M  V30 16028 N 1486.97 -0.927146 1.27443 0
M  V30 16029 C 1488.19 -1.71426 1.16739 0
M  V30 16030 C 1488.62 -1.86122 -0.272063 0
M  V30 16031 O 1487.98 -1.36165 -1.19703 0
M  V30 16032 C 1488.02 -3.09131 1.85661 0
M  V30 16033 O 1487.13 -3.95897 1.15495 0
M  V30 16034 H 1486.47 -0.525428 0.405983 0
M  V30 16035 H 1489 -1.16022 1.68523 0
M  V30 16036 H 1489.01 -3.59442 1.93042 0
M  V30 16037 H 1487.68 -2.97752 2.90373 0
M  V30 16038 H 1486.26 -3.54337 1.16187 0
M  V30 16039 N 1488.45 -1.09474 -1.13372 0
M  V30 16040 C 1489.4 -0.704018 -2.16858 0
M  V30 16041 C 1490.38 0.281867 -1.58412 0
M  V30 16042 O 1491.57 0.0921582 -1.7676 0
M  V30 16043 C 1488.7 -0.126682 -3.43066 0
M  V30 16044 C 1487.79 -1.13901 -4.08518 0
M  V30 16045 N 1488.18 -2.3263 -4.49129 0
M  V30 16046 C 1486.48 -0.977263 -4.35162 0
M  V30 16047 C 1487.18 -2.9703 -5.00148 0
M  V30 16048 N 1486.15 -2.24588 -4.95037 0
M  V30 16049 H 1489.96 -1.60796 -2.46012 0
M  V30 16050 H 1487.47 -0.97103 -1.30172 0
M  V30 16051 H 1489.47 0.171257 -4.16548 0
M  V30 16052 H 1488.13 0.772105 -3.15386 0
M  V30 16053 H 1489.14 -2.70218 -4.41817 0
M  V30 16054 H 1485.81 -0.1332 -4.17287 0
M  V30 16055 H 1487.2 -3.97966 -5.41362 0
M  V30 16056 N 1489.92 1.30607 -0.882012 0
M  V30 16057 C 1491.17 1.95531 -0.495038 0
M  V30 16058 C 1491.49 1.70418 0.96005 0
M  V30 16059 O 1492.69 2.29301 1.45373 0
M  V30 16060 C 1491.15 3.50094 -0.834382 0
M  V30 16061 C 1490.76 3.84031 -2.30704 0
M  V30 16062 C 1492.5 4.21347 -0.516463 0
M  V30 16063 C 1490.41 5.31759 -2.58817 0
M  V30 16064 H 1489.34 0.731854 -0.181399 0
M  V30 16065 H 1491.99 1.486 -1.07658 0
M  V30 16066 H 1490.37 3.95582 -0.181961 0
M  V30 16067 H 1491.54 3.49463 -3.00353 0
M  V30 16068 H 1489.86 3.25874 -2.5922 0
M  V30 16069 H 1492.46 5.30051 -0.703576 0
M  V30 16070 H 1492.8 4.12731 0.543935 0
M  V30 16071 H 1493.33 3.81533 -1.12595 0
M  V30 16072 H 1490.07 5.45422 -3.63586 0
M  V30 16073 H 1489.59 5.67637 -1.93774 0
M  V30 16074 H 1491.27 5.9916 -2.44165 0
M  V30 16075 N 1491.4 0.642663 1.43901 0
M  V30 16076 C 1492.37 -0.0457858 2.29154 0
M  V30 16077 C 1493.37 -0.760988 1.41653 0
M  V30 16078 O 1494.56 -0.603832 1.634 0
M  V30 16079 C 1491.69 -1.07552 3.23489 0
M  V30 16080 H 1492.88 0.704193 2.91515 0
M  V30 16081 H 1490.43 0.403361 1.51006 0
M  V30 16082 H 1491.17 -1.85509 2.66002 0
M  V30 16083 H 1490.95 -0.566468 3.87987 0
M  V30 16084 H 1492.44 -1.55663 3.87503 0
M  V30 16085 N 1492.88 -1.52852 0.383918 0
M  V30 16086 C 1494.13 -2.00694 -0.201206 0
M  V30 16087 C 1494.44 -1.2748 -1.48352 0
M  V30 16088 O 1495.65 -1.66005 -2.14836 0
M  V30 16089 C 1494.11 -3.57567 -0.409117 0
M  V30 16090 C 1493.71 -4.39675 0.859628 0
M  V30 16091 C 1495.46 -4.13713 -0.950899 0
M  V30 16092 C 1493.36 -5.88138 0.620292 0
M  V30 16093 H 1492.29 -0.749854 -0.0789656 0
M  V30 16094 H 1494.95 -1.764 0.505488 0
M  V30 16095 H 1493.33 -3.78088 -1.17753 0
M  V30 16096 H 1494.5 -4.30923 1.63224 0
M  V30 16097 H 1492.82 -3.94724 1.32597 0
M  V30 16098 H 1495.41 -5.22284 -1.14558 0
M  V30 16099 H 1495.76 -3.69463 -1.9184 0
M  V30 16100 H 1496.29 -3.97062 -0.242195 0
M  V30 16101 H 1493.03 -6.367 1.55864 0
M  V30 16102 H 1492.55 -5.99693 -0.113483 0
M  V30 16103 H 1494.23 -6.46506 0.252775 0
M  V30 16104 N 1494.36 -0.113586 -1.5719 0
M  V30 16105 C 1495.61 0.540306 -1.96092 0
M  V30 16106 C 1495.96 1.64633 -0.995678 0
M  V30 16107 O 1495.25 1.91584 -0.0247757 0
M  V30 16108 C 1495.45 1.1238 -3.39272 0
M  V30 16109 C 1495.28 0.0758384 -4.49636 0
M  V30 16110 C 1494.05 -0.354102 -5.04058 0
M  V30 16111 C 1496.24 -0.703077 -5.09472 0
M  V30 16112 N 1494.23 -1.3884 -5.97994 0
M  V30 16113 C 1495.6 -1.58872 -5.99299 0
M  V30 16114 C 1497.65 -0.754562 -4.92149 0
M  V30 16115 C 1496.36 -2.52135 -6.73662 0
M  V30 16116 C 1498.38 -1.67488 -5.67188 0
M  V30 16117 C 1497.74 -2.54811 -6.56697 0
M  V30 16118 H 1493.84 0.167498 -0.763851 0
M  V30 16119 H 1496.43 -0.200448 -1.93665 0
M  V30 16120 H 1494.6 1.8343 -3.42357 0
M  V30 16121 H 1496.33 1.74157 -3.6531 0
M  V30 16122 H 1493.08 0.0372483 -4.73585 0
M  V30 16123 H 1493.51 -1.90431 -6.49665 0
M  V30 16124 H 1498.15 -0.0935791 -4.22696 0
M  V30 16125 H 1495.87 -3.19249 -7.42365 0
M  V30 16126 H 1499.45 -1.72009 -5.55792 0
M  V30 16127 H 1498.33 -3.24867 -7.13745 0
M  V30 16128 N 1495.84 1.56784 0.160173 0
M  V30 16129 C 1497.09 1.8226 0.873253 0
M  V30 16130 C 1497.41 0.692384 1.82294 0
M  V30 16131 O 1496.68 -0.286961 1.93787 0
M  V30 16132 H 1495.26 0.672371 0.325463 0
M  V30 16133 H 1497.92 1.94264 0.157325 0
M  V30 16134 H 1497.01 2.76714 1.44345 0
M  V30 16135 N 1497.32 -0.429099 1.51646 0
M  V30 16136 C 1498.54 -1.20465 1.68828 0
M  V30 16137 C 1498.97 -1.84044 0.388514 0
M  V30 16138 O 1498.32 -1.69165 -0.652152 0
M  V30 16139 C 1498.37 -2.25831 2.81128 0
M  V30 16140 O 1497.48 -3.31511 2.45305 0
M  V30 16141 H 1496.82 -0.352568 0.562665 0
M  V30 16142 H 1499.35 -0.505698 1.98252 0
M  V30 16143 H 1499.36 -2.70484 3.05455 0
M  V30 16144 H 1498.03 -1.78934 3.7544 0
M  V30 16145 H 1496.61 -2.92277 2.31579 0
M  V30 16146 N 1498.79 -1.41931 -0.685074 0
M  V30 16147 C 1500.04 -1.41147 -1.44085 0
M  V30 16148 C 1500.36 -0.0275793 -1.95581 0
M  V30 16149 O 1501.56 0.102873 -2.71305 0
M  V30 16150 C 1500.02 -2.4823 -2.60596 0
M  V30 16151 C 1499.63 -3.92576 -2.15842 0
M  V30 16152 C 1501.37 -2.56597 -3.38169 0
M  V30 16153 C 1499.28 -4.91189 -3.29374 0
M  V30 16154 H 1498.21 -0.52494 -0.541252 0
M  V30 16155 H 1500.86 -1.67798 -0.7427 0
M  V30 16156 H 1499.24 -2.14727 -3.32729 0
M  V30 16157 H 1500.41 -4.35381 -1.50929 0
M  V30 16158 H 1498.73 -3.87965 -1.51235 0
M  V30 16159 H 1501.33 -3.27453 -4.22704 0
M  V30 16160 H 1501.67 -1.60618 -3.84067 0
M  V30 16161 H 1502.2 -2.89244 -2.73099 0
M  V30 16162 H 1498.94 -5.88609 -2.88477 0
M  V30 16163 H 1498.46 -4.53024 -3.93102 0
M  V30 16164 H 1500.14 -5.12433 -3.94996 0
M  V30 16165 N 1500.27 0.920374 -1.27933 0
M  V30 16166 C 1501.23 2.0035 -1.11321 0
M  V30 16167 C 1502.23 1.60706 -0.0549132 0
M  V30 16168 O 1503.42 1.71595 -0.300134 0
M  V30 16169 C 1500.56 3.33681 -0.69782 0
M  V30 16170 H 1501.75 2.16518 -2.07509 0
M  V30 16171 H 1499.3 1.10216 -1.10825 0
M  V30 16172 H 1500.04 3.23214 0.265122 0
M  V30 16173 H 1499.82 3.63815 -1.46223 0
M  V30 16174 H 1501.31 4.13208 -0.604048 0
M  V30 16175 N 1501.75 1.10074 1.1279 0
M  V30 16176 C 1502.68 0.768146 2.20503 0
M  V30 16177 C 1503.66 -0.257199 1.68144 0
M  V30 16178 O 1504.85 -0.12379 1.93805 0
M  V30 16179 C 1501.98 0.195125 3.46751 0
M  V30 16180 C 1500.93 1.15074 4.1224 0
M  V30 16181 C 1500.26 0.439098 5.32894 0
M  V30 16182 C 1501.56 2.49584 4.58808 0
M  V30 16183 H 1503.25 1.66876 2.48581 0
M  V30 16184 H 1500.8 0.803806 1.19478 0
M  V30 16185 H 1502.75 -0.0496695 4.21371 0
M  V30 16186 H 1501.47 -0.740717 3.1809 0
M  V30 16187 H 1500.13 1.38092 3.39597 0
M  V30 16188 H 1499.78 -0.501096 5.00498 0
M  V30 16189 H 1499.48 1.07632 5.77658 0
M  V30 16190 H 1501 0.202761 6.10263 0
M  V30 16191 H 1502.42 2.30736 5.24818 0
M  V30 16192 H 1500.81 3.09157 5.14336 0
M  V30 16193 H 1501.88 3.09857 3.72984 0
M  V30 16194 N 1503.23 -1.30138 0.888926 0
M  V30 16195 C 1504.47 -1.96654 0.519499 0
M  V30 16196 C 1504.83 -1.68872 -0.92196 0
M  V30 16197 O 1504.12 -0.985192 -1.64331 0
M  V30 16198 C 1504.32 -3.4975 0.735488 0
M  V30 16199 C 1504.14 -3.92414 2.19639 0
M  V30 16200 C 1502.91 -4.1782 2.84174 0
M  V30 16201 C 1505.11 -4.04943 3.17058 0
M  V30 16202 N 1503.09 -4.46973 4.20819 0
M  V30 16203 C 1504.47 -4.38024 4.38788 0
M  V30 16204 C 1506.52 -3.87382 3.12793 0
M  V30 16205 C 1505.22 -4.55375 5.568 0
M  V30 16206 C 1507.25 -4.05937 4.3008 0
M  V30 16207 C 1506.61 -4.39367 5.50578 0
M  V30 16208 H 1502.71 -0.744421 0.239501 0
M  V30 16209 H 1505.29 -1.57292 1.14749 0
M  V30 16210 H 1503.47 -3.88158 0.136957 0
M  V30 16211 H 1505.2 -4.03331 0.332568 0
M  V30 16212 H 1501.95 -4.11171 2.35022 0
M  V30 16213 H 1502.38 -4.65677 4.914 0
M  V30 16214 H 1507.02 -3.60609 2.20729 0
M  V30 16215 H 1504.74 -4.80989 6.49365 0
M  V30 16216 H 1508.32 -3.93814 4.28255 0
M  V30 16217 H 1507.2 -4.53428 6.39822 0
M  V30 16218 N 1504.71 -0.650285 -1.43559 0
M  V30 16219 C 1505.95 -0.162725 -2.02146 0
M  V30 16220 C 1506.28 1.21911 -1.51166 0
M  V30 16221 O 1505.56 1.81329 -0.703563 0
M  V30 16222 C 1505.84 -0.170356 -3.59697 0
M  V30 16223 C 1505.7 -1.5859 -4.20915 0
M  V30 16224 C 1507.01 0.494831 -4.37309 0
M  V30 16225 H 1504.13 -0.0606055 -0.734504 0
M  V30 16226 H 1506.78 -0.830411 -1.70892 0
M  V30 16227 H 1504.93 0.39819 -3.86454 0
M  V30 16228 H 1506.6 -2.20481 -4.05199 0
M  V30 16229 H 1504.84 -2.13407 -3.77677 0
M  V30 16230 H 1505.51 -1.54312 -5.29992 0
M  V30 16231 H 1507.99 0.0111281 -4.16099 0
M  V30 16232 H 1506.86 0.458753 -5.4698 0
M  V30 16233 H 1507.12 1.56846 -4.13342 0
M  V30 16234 N 1506.18 1.52647 -0.392018 0
M  V30 16235 C 1507.43 2.01912 0.18958 0
M  V30 16236 C 1507.76 1.27786 1.46234 0
M  V30 16237 O 1507.04 0.379124 1.90769 0
M  V30 16238 C 1507.32 3.57217 0.454734 0
M  V30 16239 C 1507.17 4.4201 -0.833501 0
M  V30 16240 C 1508.49 4.22146 1.24421 0
M  V30 16241 H 1505.61 0.733909 0.0674281 0
M  V30 16242 H 1508.25 1.82685 -0.52212 0
M  V30 16243 H 1506.4 3.73731 1.06101 0
M  V30 16244 H 1508.08 4.37242 -1.47027 0
M  V30 16245 H 1506.32 4.08912 -1.44823 0
M  V30 16246 H 1506.99 5.48701 -0.602585 0
M  V30 16247 H 1509.47 4.09627 0.731093 0
M  V30 16248 H 1508.34 5.30786 1.39848 0
M  V30 16249 H 1508.6 3.7996 2.26016 0
M  V30 16250 N 1507.66 0.121921 1.57128 0
M  V30 16251 C 1508.91 -0.535371 1.95295 0
M  V30 16252 C 1509.24 -1.665 1.00539 0
M  V30 16253 O 1508.49 -1.95677 0.0298129 0
M  V30 16254 C 1508.79 -1.10579 3.39863 0
M  V30 16255 C 1508.46 -0.0972144 4.50795 0
M  V30 16256 C 1507.12 0.180111 4.80863 0
M  V30 16257 C 1509.47 0.589973 5.1785 0
M  V30 16258 C 1506.8 1.15086 5.75302 0
M  V30 16259 C 1509.15 1.54937 6.13333 0
M  V30 16260 C 1507.82 1.83465 6.41792 0
M  V30 16261 H 1507.09 -0.195906 0.714634 0
M  V30 16262 H 1509.73 0.203445 1.90416 0
M  V30 16263 H 1508.04 -1.92143 3.4145 0
M  V30 16264 H 1509.73 -1.62252 3.66709 0
M  V30 16265 H 1506.32 -0.32355 4.27377 0
M  V30 16266 H 1510.51 0.38889 4.94774 0
M  V30 16267 H 1505.76 1.3786 5.95655 0
M  V30 16268 H 1509.94 2.08751 6.64376 0
M  V30 16269 H 1507.57 2.58841 7.14777 0
M  V30 16270 N 1509.14 -1.56867 -0.151857 0
M  V30 16271 C 1510.39 -1.83082 -0.865285 0
M  V30 16272 C 1510.72 -0.702056 -1.81387 0
M  V30 16273 O 1509.97 0.309291 -1.9324 0
M  V30 16274 C 1510.27 -3.15597 -1.6773 0
M  V30 16275 C 1509.94 -4.4231 -0.875929 0
M  V30 16276 C 1508.6 -4.76724 -0.654826 0
M  V30 16277 C 1510.95 -5.20246 -0.315162 0
M  V30 16278 C 1508.28 -5.86538 0.13783 0
M  V30 16279 C 1510.63 -6.30892 0.464508 0
M  V30 16280 C 1509.29 -6.63859 0.696233 0
M  V30 16281 H 1508.56 -0.669945 -0.31663 0
M  V30 16282 H 1511.21 -1.91064 -0.129175 0
M  V30 16283 H 1509.52 -3.03044 -2.48338 0
M  V30 16284 H 1511.21 -3.33094 -2.23269 0
M  V30 16285 H 1507.8 -4.15328 -1.05832 0
M  V30 16286 H 1511.99 -4.94038 -0.473273 0
M  V30 16287 H 1507.24 -6.10525 0.32691 0
M  V30 16288 H 1511.42 -6.90479 0.906187 0
M  V30 16289 H 1509.04 -7.48788 1.3123 0
M  V30 16290 N 1510.62 0.421051 -1.51871 0
M  V30 16291 C 1511.87 1.16677 -1.65018 0
M  V30 16292 C 1512.19 1.91329 -0.376596 0
M  V30 16293 O 1511.46 1.86221 0.608146 0
M  V30 16294 H 1510.04 0.433698 -0.608206 0
M  V30 16295 H 1512.7 0.48115 -1.88868 0
M  V30 16296 H 1511.8 1.88742 -2.48562 0
M  V30 16297 N 1512.1 1.42293 0.677538 0
M  V30 16298 C 1513.35 1.41909 1.43334 0
M  V30 16299 C 1513.66 0.037951 1.95563 0
M  V30 16300 O 1514.86 -0.0884836 2.71356 0
M  V30 16301 C 1513.32 2.49608 2.59275 0
M  V30 16302 C 1512.93 3.93716 2.13757 0
M  V30 16303 C 1514.67 2.58387 3.36803 0
M  V30 16304 C 1512.58 4.92929 3.26764 0
M  V30 16305 H 1511.51 0.527803 0.538461 0
M  V30 16306 H 1514.16 1.6819 0.733791 0
M  V30 16307 H 1512.54 2.16488 3.31585 0
M  V30 16308 H 1513.72 4.36176 1.48618 0
M  V30 16309 H 1512.03 3.88762 1.49175 0
M  V30 16310 H 1514.63 3.29691 4.20961 0
M  V30 16311 H 1514.97 1.62653 3.8321 0
M  V30 16312 H 1515.5 2.90688 2.71561 0
M  V30 16313 H 1512.24 5.90131 2.85352 0
M  V30 16314 H 1511.76 4.55103 3.90694 0
M  V30 16315 H 1513.44 5.1452 3.92273 0
M  V30 16316 N 1513.57 -0.913576 1.28419 0
M  V30 16317 C 1514.8 -1.69403 1.18263 0
M  V30 16318 C 1515.21 -1.87387 -0.26128 0
M  V30 16319 O 1514.56 -1.40082 -1.18839 0
M  V30 16320 C 1514.62 -3.1064 1.80951 0
M  V30 16321 C 1514.28 -3.15941 3.30198 0
M  V30 16322 C 1515.28 -2.97124 4.2663 0
M  V30 16323 C 1512.96 -3.38449 3.71157 0
M  V30 16324 C 1514.96 -3.00728 5.61998 0
M  V30 16325 C 1512.64 -3.41685 5.06651 0
M  V30 16326 C 1513.64 -3.22845 6.01881 0
M  V30 16327 O 1513.33 -3.25842 7.34903 0
M  V30 16328 H 1513.06 -0.536323 0.411502 0
M  V30 16329 H 1515.62 -1.15186 1.70063 0
M  V30 16330 H 1513.85 -3.664 1.23645 0
M  V30 16331 H 1515.54 -3.70712 1.6531 0
M  V30 16332 H 1516.3 -2.79562 3.96321 0
M  V30 16333 H 1512.18 -3.52158 2.97499 0
M  V30 16334 H 1515.72 -2.85941 6.36304 0
M  V30 16335 H 1511.62 -3.58775 5.3661 0
M  V30 16336 H 1512.39 -3.42203 7.43532 0
M  V30 16337 N 1515.05 -1.1067 -1.12204 0
M  V30 16338 C 1516.28 -0.873095 -1.88127 0
M  V30 16339 C 1516.7 0.571099 -1.79221 0
M  V30 16340 O 1516.06 1.40251 -1.14888 0
M  V30 16341 C 1516.11 -1.32922 -3.35208 0
M  V30 16342 O 1515.21 -0.495807 -4.09409 0
M  V30 16343 H 1514.55 -0.315138 -0.584452 0
M  V30 16344 H 1517.08 -1.47413 -1.41882 0
M  V30 16345 H 1517.09 -1.32023 -3.86049 0
M  V30 16346 H 1515.77 -2.38091 -3.41007 0
M  V30 16347 H 1514.35 -0.570216 -3.68515 0
M  V30 16348 N 1516.53 1.29665 -0.895815 0
M  V30 16349 C 1517.76 2.00399 -0.534333 0
M  V30 16350 C 1518.18 1.66632 0.872654 0
M  V30 16351 O 1517.54 0.888811 1.58018 0
M  V30 16352 C 1517.59 3.53154 -0.729023 0
M  V30 16353 O 1516.69 4.11812 0.22023 0
M  V30 16354 H 1516.03 0.630173 -0.209233 0
M  V30 16355 H 1518.56 1.65253 -1.20634 0
M  V30 16356 H 1518.57 4.03073 -0.632179 0
M  V30 16357 H 1517.25 3.77067 -1.75481 0
M  V30 16358 H 1515.82 3.72822 0.0761687 0
M  V30 16359 N 1518.01 0.657889 1.43212 0
M  V30 16360 C 1518.94 -0.0172114 2.33494 0
M  V30 16361 C 1519.92 -0.807087 1.49733 0
M  V30 16362 O 1521.1 -0.767631 1.78385 0
M  V30 16363 C 1518.23 -0.981029 3.33156 0
M  V30 16364 C 1517.19 -0.30094 4.26941 0
M  V30 16365 C 1516.51 -1.37653 5.16678 0
M  V30 16366 C 1517.81 0.809572 5.15988 0
M  V30 16367 H 1519.51 0.736749 2.90194 0
M  V30 16368 H 1517.05 0.355744 1.39537 0
M  V30 16369 H 1519.01 -1.46226 3.95216 0
M  V30 16370 H 1517.73 -1.76621 2.74723 0
M  V30 16371 H 1516.39 0.159893 3.66251 0
M  V30 16372 H 1516.04 -2.15326 4.54581 0
M  V30 16373 H 1515.74 -0.926704 5.80246 0
M  V30 16374 H 1517.26 -1.85903 5.81612 0
M  V30 16375 H 1518.68 0.410297 5.7183 0
M  V30 16376 H 1517.07 1.18415 5.88301 0
M  V30 16377 H 1518.14 1.66558 4.55397 0
M  V30 16378 N 1519.49 -1.52437 0.400108 0
M  V30 16379 C 1520.73 -2.02677 -0.171293 0
M  V30 16380 C 1521.09 -1.28088 -1.43566 0
M  V30 16381 O 1520.38 -0.37592 -1.87876 0
M  V30 16382 C 1520.57 -3.54133 -0.482141 0
M  V30 16383 C 1520.4 -4.43392 0.750551 0
M  V30 16384 C 1519.17 -4.89 1.27306 0
M  V30 16385 C 1521.37 -4.87918 1.62604 0
M  V30 16386 N 1519.35 -5.62361 2.46217 0
M  V30 16387 C 1520.72 -5.59969 2.66148 0
M  V30 16388 C 1522.78 -4.69945 1.64486 0
M  V30 16389 C 1521.48 -6.15955 3.71473 0
M  V30 16390 C 1523.51 -5.26821 2.68725 0
M  V30 16391 C 1522.87 -5.98787 3.7099 0
M  V30 16392 H 1518.97 -0.781617 -0.0244842 0
M  V30 16393 H 1521.55 -1.86698 0.552429 0
M  V30 16394 H 1519.72 -3.70203 -1.17491 0
M  V30 16395 H 1521.46 -3.91065 -1.04164 0
M  V30 16396 H 1518.21 -4.66227 0.832434 0
M  V30 16397 H 1518.64 -6.03688 3.06414 0
M  V30 16398 H 1523.28 -4.13801 0.867657 0
M  V30 16399 H 1521 -6.71175 4.50055 0
M  V30 16400 H 1524.58 -5.14789 2.71078 0
M  V30 16401 H 1523.46 -6.4201 4.50325 0
M  V30 16402 N 1520.96 -0.130252 -1.57061 0
M  V30 16403 C 1522.38 0.393318 -1.8251 0
M  V30 16404 C 1522.73 1.65862 -1.04806 0
M  V30 16405 O 1521.85 2.14473 -0.288118 0
M  V30 16406 C 1522.45 0.720366 -3.31053 0
M  V30 16407 C 1521.01 1.18852 -3.57143 0
M  V30 16408 C 1520.15 0.202964 -2.76556 0
M  V30 16409 H 1523.1 -0.355217 -1.54674 0
M  V30 16410 H 1523.12 1.57671 -3.46295 0
M  V30 16411 H 1522.64 -0.200719 -3.87581 0
M  V30 16412 H 1520.74 2.12612 -3.05985 0
M  V30 16413 H 1520.85 1.12607 -4.65678 0
M  V30 16414 H 1519.21 0.692264 -2.45112 0
M  V30 16415 H 1520 -0.711417 -3.35848 0
M  V30 16416 N 1522.44 1.56945 0.143535 0
M  V30 16417 C 1523.41 1.97616 1.16106 0
M  V30 16418 C 1524.41 0.863113 1.35672 0
M  V30 16419 O 1525.6 1.12966 1.32606 0
M  V30 16420 C 1522.73 2.29511 2.52067 0
M  V30 16421 H 1523.92 2.88696 0.812066 0
M  V30 16422 H 1521.47 1.51433 0.386999 0
M  V30 16423 H 1522.21 1.41233 2.91931 0
M  V30 16424 H 1521.99 3.10667 2.39225 0
M  V30 16425 H 1523.48 2.61802 3.25345 0
M  V30 16426 N 1523.92 -0.412991 1.52093 0
M  V30 16427 C 1525.17 -1.15737 1.65191 0
M  V30 16428 C 1525.48 -1.91753 0.38601 0
M  V30 16429 O 1526.69 -2.68586 0.396731 0
M  V30 16430 C 1525.15 -2.10619 2.91835 0
M  V30 16431 C 1524.75 -1.40137 4.25518 0
M  V30 16432 C 1526.5 -2.85339 3.14296 0
M  V30 16433 C 1524.4 -2.33645 5.4329 0
M  V30 16434 H 1523.33 -0.435732 0.615348 0
M  V30 16435 H 1525.99 -0.422172 1.78578 0
M  V30 16436 H 1524.37 -2.87675 2.72138 0
M  V30 16437 H 1525.54 -0.684719 4.55684 0
M  V30 16438 H 1523.86 -0.774734 4.09129 0
M  V30 16439 H 1526.45 -3.55437 3.99461 0
M  V30 16440 H 1526.8 -3.48071 2.28369 0
M  V30 16441 H 1527.33 -2.15384 3.34447 0
M  V30 16442 H 1524.07 -1.75566 6.31551 0
M  V30 16443 H 1523.59 -3.03294 5.17467 0
M  V30 16444 H 1525.27 -2.94255 5.76215 0
M  V30 16445 N 1525.4 -1.4265 -0.669982 0
M  V30 16446 C 1526.81 -1.38614 -1.25072 0
M  V30 16447 C 1527.16 -0.0818051 -1.96029 0
M  V30 16448 O 1526.29 0.81931 -2.0029 0
M  V30 16449 C 1526.88 -2.51085 -2.27469 0
M  V30 16450 C 1525.44 -2.50366 -2.81059 0
M  V30 16451 C 1524.59 -2.29632 -1.5545 0
M  V30 16452 H 1527.54 -1.51794 -0.463058 0
M  V30 16453 H 1527.56 -2.21612 -3.09303 0
M  V30 16454 H 1527.07 -3.46002 -1.75796 0
M  V30 16455 H 1525.17 -1.5928 -3.36839 0
M  V30 16456 H 1525.29 -3.47569 -3.29746 0
M  V30 16457 H 1523.65 -1.77982 -1.82193 0
M  V30 16458 H 1524.43 -3.26611 -1.05736 0
M  V30 16459 N 1526.88 0.906753 -1.28902 0
M  V30 16460 C 1527.81 2.01159 -1.07752 0
M  V30 16461 C 1528.79 1.62598 0.00851506 0
M  V30 16462 O 1529.97 1.87973 -0.140797 0
M  V30 16463 C 1527.1 3.3262 -0.638877 0
M  V30 16464 C 1526.15 3.90166 -1.72258 0
M  V30 16465 S 1526.98 4.20147 -3.32019 0
M  V30 16466 C 1528.13 5.5466 -2.90006 0
M  V30 16467 H 1528.37 2.18791 -2.01291 0
M  V30 16468 H 1525.9 1.05249 -1.12969 0
M  V30 16469 H 1527.86 4.08619 -0.392507 0
M  V30 16470 H 1526.52 3.12878 0.276792 0
M  V30 16471 H 1525.71 4.85095 -1.36745 0
M  V30 16472 H 1525.31 3.20829 -1.92211 0
M  V30 16473 H 1527.61 6.34839 -2.36612 0
M  V30 16474 H 1528.55 5.95092 -3.83759 0
M  V30 16475 H 1528.96 5.16181 -2.28511 0
M  V30 16476 N 1528.36 1.11264 1.11616 0
M  V30 16477 C 1529.32 0.7726 2.15786 0
M  V30 16478 C 1530.32 -0.207145 1.5946 0
M  V30 16479 O 1531.51 0.0171053 1.74192 0
M  V30 16480 C 1528.64 0.145927 3.40588 0
M  V30 16481 H 1529.83 1.69539 2.47379 0
M  V30 16482 H 1527.39 0.914278 1.2677 0
M  V30 16483 H 1528.12 -0.787178 3.14601 0
M  V30 16484 H 1527.91 0.851161 3.8275 0
M  V30 16485 H 1529.4 -0.0759176 4.17531 0
M  V30 16486 N 1529.83 -1.29188 0.902679 0
M  V30 16487 C 1531.24 -1.77521 0.578207 0
M  V30 16488 C 1531.6 -1.74017 -0.906227 0
M  V30 16489 O 1530.72 -1.32793 -1.70865 0
M  V30 16490 C 1531.32 -3.22352 1.04281 0
M  V30 16491 C 1529.87 -3.68451 0.769454 0
M  V30 16492 C 1529.02 -2.49225 1.21583 0
M  V30 16493 H 1531.97 -1.15807 1.0851 0
M  V30 16494 H 1531.99 -3.78604 0.379396 0
M  V30 16495 H 1531.51 -3.2487 2.12323 0
M  V30 16496 H 1529.61 -3.71405 -0.298223 0
M  V30 16497 H 1529.72 -4.59112 1.36943 0
M  V30 16498 H 1528.08 -2.46663 0.634766 0
M  V30 16499 H 1528.87 -2.54469 2.30436 0
M  V30 16500 N 1531.31 -0.665475 -1.42861 0
M  V30 16501 C 1532.59 -0.113252 -1.95272 0
M  V30 16502 C 1532.97 1.36972 -1.6063 0
M  V30 16503 O 1532.32 2.10129 -0.897662 0
M  V30 16504 C 1532.53 -0.372482 -3.47007 0
M  V30 16505 C 1533.87 -0.283982 -4.23649 0
M  V30 16506 O 1534.9 -0.305714 -3.54886 0
M  V30 16507 O 1533.76 -0.218171 -5.46064 0
M  V30 16508 H 1530.85 0.00253712 -0.826996 0
M  V30 16509 H 1533.4 -0.739561 -1.52737 0
M  V30 16510 H 1532.17 -1.40015 -3.65392 0
M  V30 16511 H 1531.79 0.286294 -3.96568 0
M  V30 16512 N 1532.79 1.52222 -0.408187 0
M  V30 16513 C 1533.72 2.23468 0.462332 0
M  V30 16514 C 1534.7 1.24257 1.04876 0
M  V30 16515 O 1535.88 1.53305 1.0968 0
M  V30 16516 C 1533.01 2.96256 1.64165 0
M  V30 16517 C 1532.06 4.09889 1.1787 0
M  V30 16518 S 1532.89 5.35305 0.144629 0
M  V30 16519 C 1534.05 6.11621 1.3293 0
M  V30 16520 H 1534.28 2.96958 -0.142615 0
M  V30 16521 H 1531.81 1.53196 -0.19248 0
M  V30 16522 H 1533.77 3.38798 2.3179 0
M  V30 16523 H 1532.43 2.2241 2.21794 0
M  V30 16524 H 1531.62 4.59989 2.05977 0
M  V30 16525 H 1531.23 3.69458 0.581119 0
M  V30 16526 H 1533.52 6.38939 2.25306 0
M  V30 16527 H 1534.46 7.02749 0.86885 0
M  V30 16528 H 1534.87 5.4267 1.55466 0
M  V30 16529 N 1534.27 0.138579 1.5699 0
M  V30 16530 C 1535.49 -0.525074 2.00643 0
M  V30 16531 C 1535.92 -1.58174 1.01796 0
M  V30 16532 O 1535.28 -1.81298 -0.00754003 0
M  V30 16533 C 1535.32 -1.11019 3.43085 0
M  V30 16534 O 1534.43 -2.22529 3.4721 0
M  V30 16535 H 1533.77 -0.129283 0.651292 0
M  V30 16536 H 1536.3 0.23283 2.03271 0
M  V30 16537 H 1536.31 -1.44093 3.81708 0
M  V30 16538 H 1534.98 -0.336325 4.14538 0
M  V30 16539 H 1533.56 -1.90747 3.20422 0
M  V30 16540 N 1535.75 -1.57019 -0.13521 0
M  V30 16541 C 1536.99 -1.83626 -0.844147 0
M  V30 16542 C 1537.31 -0.721298 -1.81169 0
M  V30 16543 O 1536.58 0.256095 -1.94219 0
M  V30 16544 H 1535.16 -0.677464 -0.314725 0
M  V30 16545 H 1537.83 -1.9449 -0.126399 0
M  V30 16546 H 1536.92 -2.78976 -1.39925 0
M  V30 16547 N 1537.22 0.404919 -1.52309 0
M  V30 16548 C 1538.13 1.51822 -1.7885 0
M  V30 16549 C 1539.15 1.60403 -0.674307 0
M  V30 16550 O 1540.33 1.77038 -0.960175 0
M  V30 16551 C 1537.39 2.87516 -1.9374 0
M  V30 16552 C 1536.45 2.88787 -3.17648 0
M  V30 16553 C 1535.69 4.18009 -3.31819 0
M  V30 16554 O 1535.91 5.12129 -2.51158 0
M  V30 16555 O 1534.84 4.26222 -4.24992 0
M  V30 16556 H 1538.67 1.32329 -2.73354 0
M  V30 16557 H 1536.25 0.591193 -1.37205 0
M  V30 16558 H 1538.14 3.6799 -2.05333 0
M  V30 16559 H 1536.81 3.07068 -1.02425 0
M  V30 16560 H 1535.72 2.07152 -3.11511 0
M  V30 16561 H 1537.05 2.74185 -4.08758 0
M  V30 16562 N 1538.7 1.43003 0.662408 0
M  V30 16563 C 1539.67 1.4713 1.75743 0
M  V30 16564 C 1540.67 0.357203 1.56782 0
M  V30 16565 O 1541.86 0.618566 1.62848 0
M  V30 16566 C 1538.99 1.31499 3.14517 0
M  V30 16567 H 1540.18 2.44641 1.73467 0
M  V30 16568 H 1537.73 1.29633 0.873208 0
M  V30 16569 H 1538.47 0.349596 3.2241 0
M  V30 16570 H 1538.25 2.12253 3.29683 0
M  V30 16571 H 1539.74 1.37298 3.94384 0
M  V30 16572 N 1540.18 -0.899904 1.29381 0
M  V30 16573 C 1541.14 -1.98554 1.14494 0
M  V30 16574 C 1542.14 -1.60599 0.0804732 0
M  V30 16575 O 1543.33 -1.71096 0.327395 0
M  V30 16576 C 1540.47 -3.32529 0.750818 0
M  V30 16577 H 1541.66 -2.13189 2.10928 0
M  V30 16578 H 1539.21 -1.08438 1.12565 0
M  V30 16579 H 1539.95 -3.23595 -0.213668 0
M  V30 16580 H 1539.73 -3.61443 1.51992 0
M  V30 16581 H 1541.22 -4.12195 0.669709 0
M  V30 16582 N 1541.66 -1.11854 -1.11024 0
M  V30 16583 C 1542.59 -0.724602 -2.1639 0
M  V30 16584 C 1543.57 0.281302 -1.60148 0
M  V30 16585 O 1544.75 0.176699 -1.8767 0
M  V30 16586 C 1541.88 -0.0715375 -3.38624 0
M  V30 16587 C 1540.93 -1.04328 -4.13543 0
M  V30 16588 S 1541.76 -2.5679 -4.69914 0
M  V30 16589 C 1542.92 -1.92797 -5.95466 0
M  V30 16590 H 1543.15 -1.61713 -2.49472 0
M  V30 16591 H 1540.68 -0.937015 -1.22717 0
M  V30 16592 H 1542.64 0.298896 -4.0941 0
M  V30 16593 H 1541.3 0.798007 -3.03794 0
M  V30 16594 H 1540.49 -0.533855 -5.01165 0
M  V30 16595 H 1540.1 -1.35636 -3.48538 0
M  V30 16596 H 1542.39 -1.26703 -6.65547 0
M  V30 16597 H 1543.33 -2.78434 -6.51061 0
M  V30 16598 H 1543.74 -1.38633 -5.47212 0
M  V30 16599 N 1543.14 1.28707 -0.909517 0
M  V30 16600 C 1544.07 2.29845 -0.411552 0
M  V30 16601 C 1545.05 1.62001 0.518615 0
M  V30 16602 O 1546.23 1.89442 0.427252 0
M  V30 16603 C 1543.36 3.45501 0.353013 0
M  V30 16604 C 1542.32 4.25213 -0.487625 0
M  V30 16605 C 1541.64 5.33164 0.405026 0
M  V30 16606 C 1542.94 4.9237 -1.74268 0
M  V30 16607 H 1544.64 2.71746 -1.25676 0
M  V30 16608 H 1542.18 1.30639 -0.605759 0
M  V30 16609 H 1544.14 4.15338 0.712191 0
M  V30 16610 H 1542.86 3.02469 1.23209 0
M  V30 16611 H 1541.52 3.57098 -0.829265 0
M  V30 16612 H 1541.17 4.86375 1.28252 0
M  V30 16613 H 1540.87 5.87399 -0.153811 0
M  V30 16614 H 1542.39 6.0585 0.760179 0
M  V30 16615 H 1543.8 5.5459 -1.45266 0
M  V30 16616 H 1542.2 5.56581 -2.2436 0
M  V30 16617 H 1543.27 4.171 -2.47297 0
M  V30 16618 N 1544.61 0.673042 1.42506 0
M  V30 16619 C 1545.86 0.194576 2.01563 0
M  V30 16620 C 1546.19 -1.19829 1.53203 0
M  V30 16621 O 1545.44 -1.8181 0.724131 0
M  V30 16622 C 1545.74 0.175896 3.56967 0
M  V30 16623 C 1545.41 1.51319 4.24751 0
M  V30 16624 C 1544.07 1.87936 4.42983 0
M  V30 16625 C 1546.42 2.394 4.62965 0
M  V30 16626 C 1543.75 3.12261 4.96699 0
M  V30 16627 C 1546.1 3.63036 5.18061 0
M  V30 16628 C 1544.77 3.99824 5.34506 0
M  V30 16629 H 1544.04 0.0712004 0.737571 0
M  V30 16630 H 1546.68 0.867679 1.70715 0
M  V30 16631 H 1544.99 -0.580712 3.87473 0
M  V30 16632 H 1546.69 -0.211488 4.00442 0
M  V30 16633 H 1543.28 1.21834 4.10919 0
M  V30 16634 H 1547.46 2.12397 4.48555 0
M  V30 16635 H 1542.72 3.40787 5.07617 0
M  V30 16636 H 1546.89 4.31491 5.46616 0
M  V30 16637 H 1544.52 4.96236 5.75894 0
M  V30 16638 N 1546.09 -1.52004 0.416254 0
M  V30 16639 C 1547.32 -2.0679 -0.158937 0
M  V30 16640 C 1547.74 -1.28366 -1.37491 0
M  V30 16641 O 1547.1 -0.315815 -1.78528 0
M  V30 16642 C 1547.15 -3.57381 -0.480717 0
M  V30 16643 O 1546.25 -3.81321 -1.5706 0
M  V30 16644 H 1545.59 -0.663907 -0.0110938 0
M  V30 16645 H 1548.12 -1.95863 0.591509 0
M  V30 16646 H 1548.13 -4.01283 -0.737297 0
M  V30 16647 H 1546.81 -4.13893 0.408137 0
M  V30 16648 H 1545.39 -3.49296 -1.30563 0
M  V30 16649 N 1547.57 -0.146903 -1.56914 0
M  V30 16650 C 1548.8 0.514426 -2.00919 0
M  V30 16651 C 1549.22 1.57632 -1.02634 0
M  V30 16652 O 1548.58 1.813 -0.00207478 0
M  V30 16653 C 1548.63 1.09197 -3.43669 0
M  V30 16654 O 1547.73 2.20684 -3.48385 0
M  V30 16655 H 1547.07 0.125827 -0.651969 0
M  V30 16656 H 1549.6 -0.243607 -2.03145 0
M  V30 16657 H 1549.61 1.42066 -3.82467 0
M  V30 16658 H 1548.29 0.314336 -4.1471 0
M  V30 16659 H 1546.86 1.89045 -3.21429 0
M  V30 16660 N 1549.05 1.57088 0.126881 0
M  V30 16661 C 1550.3 1.84071 0.834397 0
M  V30 16662 C 1550.62 0.730896 1.80784 0
M  V30 16663 O 1549.89 -0.245791 1.94352 0
M  V30 16664 H 1548.47 0.679123 0.311128 0
M  V30 16665 H 1551.13 1.94554 0.116083 0
M  V30 16666 H 1550.23 2.79714 1.38443 0
M  V30 16667 N 1550.53 -0.396836 1.52522 0
M  V30 16668 C 1551.77 -1.14432 1.67431 0
M  V30 16669 C 1552.11 -1.89842 0.409115 0
M  V30 16670 O 1551.38 -1.85244 -0.592863 0
M  V30 16671 C 1551.66 -2.12889 2.90431 0
M  V30 16672 C 1551.52 -1.41295 4.27031 0
M  V30 16673 C 1552.84 -3.13412 3.08967 0
M  V30 16674 H 1549.95 -0.414643 0.609295 0
M  V30 16675 H 1552.6 -0.428604 1.85103 0
M  V30 16676 H 1550.75 -2.73924 2.75495 0
M  V30 16677 H 1552.42 -0.832848 4.53719 0
M  V30 16678 H 1550.66 -0.714834 4.2787 0
M  V30 16679 H 1551.33 -2.13198 5.09167 0
M  V30 16680 H 1553.81 -2.62462 3.22883 0
M  V30 16681 H 1552.68 -3.79555 3.96522 0
M  V30 16682 H 1552.95 -3.81836 2.22831 0
M  V30 16683 N 1552.01 -1.43353 -0.654814 0
M  V30 16684 C 1553.25 -1.44885 -1.41473 0
M  V30 16685 C 1553.58 -0.0725577 -1.94365 0
M  V30 16686 O 1552.84 0.9222 -1.72609 0
M  V30 16687 C 1553.13 -2.437 -2.61429 0
M  V30 16688 C 1552.8 -3.89612 -2.26965 0
M  V30 16689 C 1551.46 -4.29353 -2.17278 0
M  V30 16690 C 1553.81 -4.81569 -1.99351 0
M  V30 16691 C 1551.14 -5.59005 -1.7813 0
M  V30 16692 C 1553.49 -6.11584 -1.61702 0
M  V30 16693 C 1552.16 -6.50303 -1.50539 0
M  V30 16694 H 1551.43 -0.530172 -0.517686 0
M  V30 16695 H 1554.08 -1.76422 -0.744824 0
M  V30 16696 H 1552.38 -2.05561 -3.33544 0
M  V30 16697 H 1554.08 -2.42141 -3.19638 0
M  V30 16698 H 1550.67 -3.58159 -2.35414 0
M  V30 16699 H 1554.85 -4.51639 -2.05757 0
M  V30 16700 H 1550.11 -5.87845 -1.68072 0
M  V30 16701 H 1554.28 -6.82312 -1.39365 0
M  V30 16702 H 1551.91 -7.50673 -1.19975 0
M  V30 16703 N 1553.48 0.89303 -1.29857 0
M  V30 16704 C 1554.73 1.64667 -1.19399 0
M  V30 16705 C 1555.08 1.90761 0.250619 0
M  V30 16706 O 1554.38 1.51171 1.1772 0
M  V30 16707 C 1554.57 2.99661 -1.94777 0
M  V30 16708 C 1554.4 2.86745 -3.46421 0
M  V30 16709 C 1553.17 2.87157 -4.15775 0
M  V30 16710 C 1555.37 2.63284 -4.41799 0
M  V30 16711 N 1553.35 2.65048 -5.53735 0
M  V30 16712 C 1554.72 2.5022 -5.67265 0
M  V30 16713 C 1556.78 2.48444 -4.31486 0
M  V30 16714 C 1555.48 2.23826 -6.83589 0
M  V30 16715 C 1557.51 2.23435 -5.47568 0
M  V30 16716 C 1556.87 2.11141 -6.72011 0
M  V30 16717 H 1552.97 0.60788 -0.491941 0
M  V30 16718 H 1555.55 1.053 -1.63768 0
M  V30 16719 H 1553.72 3.57076 -1.52812 0
M  V30 16720 H 1555.45 3.64169 -1.7653 0
M  V30 16721 H 1552.21 2.98689 -3.67535 0
M  V30 16722 H 1552.63 2.57028 -6.26311 0
M  V30 16723 H 1557.27 2.56689 -3.35962 0
M  V30 16724 H 1554.99 2.1432 -7.79161 0
M  V30 16725 H 1558.58 2.12787 -5.41491 0
M  V30 16726 H 1557.46 1.92058 -7.60318 0
M  V30 16727 N 1554.96 1.12442 1.10429 0
M  V30 16728 C 1555.89 0.736067 2.16003 0
M  V30 16729 C 1556.87 -0.272805 1.60295 0
M  V30 16730 O 1558.06 -0.166744 1.87761 0
M  V30 16731 C 1555.18 0.0894945 3.38582 0
M  V30 16732 C 1554.23 1.0652 4.12984 0
M  V30 16733 S 1555.06 2.59279 4.68546 0
M  V30 16734 C 1556.22 1.95952 5.94436 0
M  V30 16735 H 1556.45 1.63033 2.48611 0
M  V30 16736 H 1553.98 0.94351 1.22218 0
M  V30 16737 H 1555.94 -0.27718 4.09563 0
M  V30 16738 H 1554.6 -0.781885 3.04213 0
M  V30 16739 H 1553.8 0.560426 5.00874 0
M  V30 16740 H 1553.4 1.37482 3.47814 0
M  V30 16741 H 1555.69 1.30231 6.64866 0
M  V30 16742 H 1556.63 2.81882 6.49575 0
M  V30 16743 H 1557.04 1.41533 5.46469 0
M  V30 16744 N 1556.44 -1.28223 0.91633 0
M  V30 16745 C 1557.69 -1.9448 0.549734 0
M  V30 16746 C 1558.01 -1.72465 -0.909999 0
M  V30 16747 O 1557.28 -1.06583 -1.64368 0
M  V30 16748 H 1555.86 -0.719641 0.200315 0
M  V30 16749 H 1558.52 -1.56156 1.16625 0
M  V30 16750 H 1557.62 -3.03044 0.746363 0
M  V30 16751 N 1557.92 -0.68059 -1.42147 0
M  V30 16752 C 1558.85 -0.0199376 -2.33491 0
M  V30 16753 C 1559.83 0.783164 -1.50999 0
M  V30 16754 O 1561.01 0.739154 -1.79583 0
M  V30 16755 C 1558.14 0.927902 -3.34675 0
M  V30 16756 C 1557.1 0.232979 -4.27365 0
M  V30 16757 C 1556.42 1.29415 -5.18802 0
M  V30 16758 C 1557.72 -0.891559 -5.14634 0
M  V30 16759 H 1559.42 -0.782823 -2.88985 0
M  V30 16760 H 1556.96 -0.377898 -1.38953 0
M  V30 16761 H 1558.92 1.3992 -3.97493 0
M  V30 16762 H 1557.64 1.72228 -2.77498 0
M  V30 16763 H 1556.3 -0.21814 -3.6595 0
M  V30 16764 H 1555.95 2.08067 -4.57949 0
M  V30 16765 H 1555.65 0.834274 -5.81647 0
M  V30 16766 H 1557.17 1.76627 -5.84496 0
M  V30 16767 H 1558.59 -0.501219 -5.71105 0
M  V30 16768 H 1556.98 -1.27759 -5.86343 0
M  V30 16769 H 1558.05 -1.73781 -4.5269 0
M  V30 16770 N 1559.4 1.51781 -0.424309 0
M  V30 16771 C 1560.33 2.30313 0.384462 0
M  V30 16772 C 1561.31 1.35166 1.03268 0
M  V30 16773 O 1562.49 1.64081 1.0388 0
M  V30 16774 C 1559.62 3.13566 1.49311 0
M  V30 16775 C 1558.58 4.16884 0.969096 0
M  V30 16776 C 1557.9 4.88576 2.17251 0
M  V30 16777 C 1559.2 5.22298 0.0125613 0
M  V30 16778 H 1560.9 2.98172 -0.270871 0
M  V30 16779 H 1558.44 1.43396 -0.131712 0
M  V30 16780 H 1560.39 3.67279 2.06602 0
M  V30 16781 H 1559.12 2.43504 2.17655 0
M  V30 16782 H 1557.78 3.64203 0.418494 0
M  V30 16783 H 1557.43 4.15029 2.84183 0
M  V30 16784 H 1557.13 5.58432 1.82833 0
M  V30 16785 H 1558.65 5.45107 2.75119 0
M  V30 16786 H 1560.06 5.71161 0.494744 0
M  V30 16787 H 1558.46 5.99606 -0.243544 0
M  V30 16788 H 1559.53 4.75935 -0.92813 0
M  V30 16789 N 1560.87 0.155222 1.56834 0
M  V30 16790 C 1562.12 -0.493826 1.96386 0
M  V30 16791 C 1562.45 -1.6433 1.04048 0
M  V30 16792 O 1561.7 -1.9557 0.0713123 0
M  V30 16793 C 1562 -1.03346 3.42132 0
M  V30 16794 C 1561.67 -0.00157215 4.509 0
M  V30 16795 C 1560.33 0.282068 4.80373 0
M  V30 16796 C 1562.68 0.699684 5.16482 0
M  V30 16797 C 1560.01 1.27263 5.72731 0
M  V30 16798 C 1562.36 1.67912 6.09908 0
M  V30 16799 C 1561.03 1.97037 6.37756 0
M  V30 16800 H 1560.3 -0.180704 0.718629 0
M  V30 16801 H 1562.94 0.243789 1.89942 0
M  V30 16802 H 1561.25 -1.84857 3.45449 0
M  V30 16803 H 1562.95 -1.54437 3.70068 0
M  V30 16804 H 1559.54 -0.232824 4.27967 0
M  V30 16805 H 1563.72 0.493751 4.93838 0
M  V30 16806 H 1558.98 1.50464 5.92597 0
M  V30 16807 H 1563.15 2.22796 6.59799 0
M  V30 16808 H 1560.78 2.73944 7.09125 0
M  V30 16809 N 1562.35 -1.57153 -0.118549 0
M  V30 16810 C 1563.6 -1.84064 -0.824832 0
M  V30 16811 C 1563.91 -0.740941 -1.81023 0
M  V30 16812 O 1565.12 -0.896464 -2.56273 0
M  V30 16813 C 1563.58 -3.26338 -1.51761 0
M  V30 16814 C 1563.18 -4.44318 -0.573174 0
M  V30 16815 C 1564.93 -3.62496 -2.209 0
M  V30 16816 C 1562.83 -5.7762 -1.2692 0
M  V30 16817 H 1561.76 -0.686521 -0.311777 0
M  V30 16818 H 1564.42 -1.83336 -0.0775833 0
M  V30 16819 H 1562.8 -3.21537 -2.3115 0
M  V30 16820 H 1563.97 -4.60418 0.187529 0
M  V30 16821 H 1562.29 -4.16398 0.0112747 0
M  V30 16822 H 1564.88 -4.5936 -2.73666 0
M  V30 16823 H 1565.23 -2.89952 -2.9872 0
M  V30 16824 H 1565.76 -3.69084 -1.48399 0
M  V30 16825 H 1562.5 -6.53335 -0.532285 0
M  V30 16826 H 1562.02 -5.65406 -2.00191 0
M  V30 16827 H 1563.7 -6.21391 -1.80227 0
M  V30 16828 N 1563.83 0.388742 -1.5273 0
M  V30 16829 C 1565.24 0.966667 -1.59726 0
M  V30 16830 C 1565.59 1.90963 -0.450272 0
M  V30 16831 O 1564.72 2.12153 0.426611 0
M  V30 16832 C 1565.31 1.75998 -2.895 0
M  V30 16833 C 1563.87 2.28761 -2.98907 0
M  V30 16834 C 1563.02 1.09322 -2.54841 0
M  V30 16835 H 1565.97 0.16828 -1.57805 0
M  V30 16836 H 1565.99 2.61924 -2.76 0
M  V30 16837 H 1565.5 1.07342 -3.7296 0
M  V30 16838 H 1563.6 3.00728 -2.19985 0
M  V30 16839 H 1563.72 2.58229 -4.03552 0
M  V30 16840 H 1562.08 1.45332 -2.09167 0
M  V30 16841 H 1562.86 0.421999 -3.40696 0
M  V30 16842 N 1565.31 1.43698 0.647203 0
M  V30 16843 C 1566.55 1.45849 1.40911 0
M  V30 16844 C 1566.89 0.0846767 1.94015 0
M  V30 16845 O 1566.16 -0.89537 1.72665 0
M  V30 16846 C 1566.44 2.50579 2.58616 0
M  V30 16847 C 1566.3 3.97258 2.10965 0
M  V30 16848 C 1567.62 2.51981 3.60824 0
M  V30 16849 H 1564.74 0.531056 0.511027 0
M  V30 16850 H 1567.38 1.75283 0.733204 0
M  V30 16851 H 1565.53 2.25611 3.16278 0
M  V30 16852 H 1567.2 4.33304 1.58257 0
M  V30 16853 H 1565.44 4.09802 1.42284 0
M  V30 16854 H 1566.11 4.6616 2.95633 0
M  V30 16855 H 1568.59 2.7425 3.12932 0
M  V30 16856 H 1567.47 3.27191 4.40723 0
M  V30 16857 H 1567.73 1.55582 4.1382 0
M  V30 16858 N 1566.79 -0.886131 1.30328 0
M  V30 16859 C 1567.75 -1.97328 1.16594 0
M  V30 16860 C 1568.75 -1.60504 0.0975023 0
M  V30 16861 O 1569.94 -1.70739 0.345524 0
M  V30 16862 C 1567.07 -3.31714 0.786045 0
M  V30 16863 H 1568.26 -2.1094 2.13177 0
M  V30 16864 H 1565.82 -1.07238 1.13708 0
M  V30 16865 H 1566.55 -3.23804 -0.179334 0
M  V30 16866 H 1566.34 -3.5981 1.55817 0
M  V30 16867 H 1567.83 -4.11461 0.71339 0
M  V30 16868 N 1568.26 -1.13026 -1.09832 0
M  V30 16869 C 1569.49 -0.912803 -1.86233 0
M  V30 16870 C 1569.91 0.532955 -1.80392 0
M  V30 16871 O 1569.27 1.37783 -1.17837 0
M  V30 16872 C 1569.32 -1.40002 -3.32313 0
M  V30 16873 O 1568.42 -0.582537 -4.08265 0
M  V30 16874 H 1567.77 -0.327464 -0.577636 0
M  V30 16875 H 1570.3 -1.5039 -1.38723 0
M  V30 16876 H 1570.31 -1.40182 -3.83162 0
M  V30 16877 H 1568.98 -2.4527 -3.3588 0
M  V30 16878 H 1567.56 -0.648255 -3.67222 0
M  V30 16879 N 1569.74 1.27735 -0.923117 0
M  V30 16880 C 1570.67 2.29395 -0.435907 0
M  V30 16881 C 1571.65 1.62542 0.501403 0
M  V30 16882 O 1572.84 1.89884 0.407135 0
M  V30 16883 C 1569.97 3.45856 0.316348 0
M  V30 16884 C 1568.92 4.24672 -0.532697 0
M  V30 16885 C 1568.25 5.33563 0.348454 0
M  V30 16886 C 1569.55 4.90494 -1.79481 0
M  V30 16887 H 1571.24 2.70398 -1.28551 0
M  V30 16888 H 1568.79 1.29989 -0.619581 0
M  V30 16889 H 1570.74 4.1607 0.668098 0
M  V30 16890 H 1569.47 3.03758 1.19994 0
M  V30 16891 H 1568.12 3.56198 -0.867093 0
M  V30 16892 H 1567.77 4.87708 1.23086 0
M  V30 16893 H 1567.47 5.87202 -0.216104 0
M  V30 16894 H 1569 6.06622 0.695878 0
M  V30 16895 H 1570.41 5.53019 -1.5114 0
M  V30 16896 H 1568.81 5.5417 -2.30251 0
M  V30 16897 H 1569.88 4.14454 -2.51707 0
M  V30 16898 N 1571.22 0.688118 1.41784 0
M  V30 16899 C 1572.15 0.0323199 2.33478 0
M  V30 16900 C 1573.13 -0.775145 1.51412 0
M  V30 16901 O 1574.32 -0.72962 1.79973 0
M  V30 16902 C 1571.45 -0.910141 3.35162 0
M  V30 16903 C 1570.4 -0.210312 4.27483 0
M  V30 16904 C 1569.73 -1.26662 5.19481 0
M  V30 16905 C 1571.03 0.918839 5.14154 0
M  V30 16906 H 1572.72 0.798138 2.88566 0
M  V30 16907 H 1570.27 0.385262 1.38751 0
M  V30 16908 H 1572.22 -1.3781 3.98229 0
M  V30 16909 H 1570.94 -1.70754 2.78408 0
M  V30 16910 H 1569.6 0.237544 3.6583 0
M  V30 16911 H 1569.25 -2.05635 4.59046 0
M  V30 16912 H 1568.95 -0.803416 5.82082 0
M  V30 16913 H 1570.47 -1.73524 5.85424 0
M  V30 16914 H 1571.89 0.531499 5.70831 0
M  V30 16915 H 1570.29 1.30867 5.85657 0
M  V30 16916 H 1571.36 1.7618 4.51762 0
M  V30 16917 N 1572.7 -1.51554 0.432352 0
M  V30 16918 C 1573.63 -2.30514 -0.372243 0
M  V30 16919 C 1574.61 -1.35712 -1.02549 0
M  V30 16920 O 1575.79 -1.6463 -1.03009 0
M  V30 16921 C 1572.92 -3.14353 -1.47646 0
M  V30 16922 C 1571.88 -4.17392 -0.946974 0
M  V30 16923 C 1571.2 -4.89721 -2.14656 0
M  V30 16924 C 1572.5 -5.22298 0.0151377 0
M  V30 16925 H 1574.2 -2.98024 0.28668 0
M  V30 16926 H 1571.74 -1.43325 0.139315 0
M  V30 16927 H 1573.7 -3.68369 -2.04651 0
M  V30 16928 H 1572.42 -2.44654 -2.1636 0
M  V30 16929 H 1571.08 -3.6442 -0.399174 0
M  V30 16930 H 1570.73 -4.1653 -2.81978 0
M  V30 16931 H 1570.43 -5.59393 -1.79869 0
M  V30 16932 H 1571.95 -5.46559 -2.72224 0
M  V30 16933 H 1573.37 -5.71416 -0.464447 0
M  V30 16934 H 1571.76 -5.99468 0.275339 0
M  V30 16935 H 1572.83 -4.75436 0.953357 0
M  V30 16936 N 1574.18 -0.163538 -1.56749 0
M  V30 16937 C 1575.45 0.529349 -1.88301 0
M  V30 16938 C 1575.83 1.81844 -1.07219 0
M  V30 16939 O 1575.18 2.27912 -0.16381 0
M  V30 16940 C 1575.39 0.778796 -3.402 0
M  V30 16941 C 1576.74 1.11225 -4.09773 0
M  V30 16942 O 1577.76 0.867598 -3.45472 0
M  V30 16943 O 1576.62 1.57344 -5.2336 0
M  V30 16944 H 1573.72 0.271928 -0.781015 0
M  V30 16945 H 1576.26 -0.20139 -1.68501 0
M  V30 16946 H 1575.03 -0.132839 -3.91074 0
M  V30 16947 H 1574.66 1.56313 -3.65584 0
M  V30 16948 N 1575.65 1.57214 0.110213 0
M  V30 16949 C 1576.9 1.85586 0.817649 0
M  V30 16950 C 1577.23 0.750536 1.79111 0
M  V30 16951 O 1576.51 -0.242864 1.92978 0
M  V30 16952 C 1576.79 3.24565 1.55979 0
M  V30 16953 C 1576.64 4.45708 0.605339 0
M  V30 16954 C 1577.96 3.61233 2.51393 0
M  V30 16955 H 1575.08 0.675037 0.295794 0
M  V30 16956 H 1577.72 1.89824 0.0816541 0
M  V30 16957 H 1575.87 3.21083 2.18718 0
M  V30 16958 H 1577.55 4.61298 -0.0138894 0
M  V30 16959 H 1575.79 4.33722 -0.0824644 0
M  V30 16960 H 1576.46 5.39643 1.16143 0
M  V30 16961 H 1578.94 3.65563 1.98754 0
M  V30 16962 H 1577.81 4.59438 3.00346 0
M  V30 16963 H 1578.07 2.89116 3.34461 0
M  V30 16964 N 1577.13 -0.380637 1.52934 0
M  V30 16965 C 1578.38 -1.1265 1.68635 0
M  V30 16966 C 1578.71 -1.89397 0.429227 0
M  V30 16967 O 1577.99 -1.85863 -0.573182 0
M  V30 16968 C 1578.27 -2.09797 2.92673 0
M  V30 16969 C 1578.12 -1.36758 4.28506 0
M  V30 16970 C 1579.44 -3.10117 3.12274 0
M  V30 16971 H 1576.56 -0.408158 0.613658 0
M  V30 16972 H 1579.2 -0.408947 1.85547 0
M  V30 16973 H 1577.35 -2.70987 2.78385 0
M  V30 16974 H 1579.02 -0.784679 4.54577 0
M  V30 16975 H 1577.27 -0.669413 4.28604 0
M  V30 16976 H 1577.94 -2.07786 5.11399 0
M  V30 16977 H 1580.41 -2.59022 3.25648 0
M  V30 16978 H 1579.29 -3.75328 4.00525 0
M  V30 16979 H 1579.55 -3.79451 2.26868 0
M  V30 16980 N 1578.61 -1.44039 -0.639573 0
M  V30 16981 C 1579.84 -1.49626 -1.42462 0
M  V30 16982 C 1580.25 -0.117078 -1.88837 0
M  V30 16983 O 1579.59 0.885666 -1.6094 0
M  V30 16984 C 1579.65 -2.39182 -2.68388 0
M  V30 16985 C 1579.32 -3.86496 -2.43865 0
M  V30 16986 C 1580.31 -4.7725 -2.06224 0
M  V30 16987 C 1578 -4.31117 -2.57766 0
M  V30 16988 C 1579.99 -6.10625 -1.82801 0
M  V30 16989 C 1577.68 -5.64541 -2.33958 0
M  V30 16990 C 1578.68 -6.54113 -1.96533 0
M  V30 16991 O 1578.37 -7.85068 -1.72983 0
M  V30 16992 H 1578.1 -0.510054 -0.443645 0
M  V30 16993 H 1580.65 -1.89593 -0.790162 0
M  V30 16994 H 1578.88 -1.94127 -3.34442 0
M  V30 16995 H 1580.57 -2.35816 -3.30372 0
M  V30 16996 H 1581.34 -4.44051 -1.95048 0
M  V30 16997 H 1577.22 -3.61663 -2.85868 0
M  V30 16998 H 1580.76 -6.80499 -1.53514 0
M  V30 16999 H 1576.66 -5.97304 -2.44741 0
M  V30 17000 H 1577.43 -7.96782 -1.87298 0
M  V30 17001 N 1580.09 0.879207 -1.30796 0
M  V30 17002 C 1581.04 1.98553 -1.17667 0
M  V30 17003 C 1582.01 1.65974 -0.0647231 0
M  V30 17004 O 1583.19 1.89336 -0.235941 0
M  V30 17005 C 1580.33 3.3368 -0.880434 0
M  V30 17006 C 1579.44 3.78913 -2.07482 0
M  V30 17007 C 1578.58 5.02714 -1.71617 0
M  V30 17008 C 1577.62 5.40371 -2.87517 0
M  V30 17009 N 1576.75 6.55352 -2.5191 0
M  V30 17010 H 1581.59 2.09115 -2.12309 0
M  V30 17011 H 1579.13 1.02382 -1.05623 0
M  V30 17012 H 1581.09 4.11467 -0.689278 0
M  V30 17013 H 1579.72 3.22787 0.0291283 0
M  V30 17014 H 1578.77 2.96987 -2.37704 0
M  V30 17015 H 1580.08 4.02757 -2.94259 0
M  V30 17016 H 1579.24 5.88142 -1.4891 0
M  V30 17017 H 1577.98 4.80754 -0.820181 0
M  V30 17018 H 1576.98 4.53466 -3.10883 0
M  V30 17019 H 1578.21 5.64301 -3.77811 0
M  V30 17020 H 1576.15 6.34956 -1.64823 0
M  V30 17021 H 1576.07 6.79093 -3.32217 0
M  V30 17022 H 1577.34 7.43996 -2.32573 0
M  V30 17023 N 1581.57 1.13606 1.09231 0
M  V30 17024 C 1582.81 0.900386 1.81717 0
M  V30 17025 C 1583.15 -0.571984 1.85586 0
M  V30 17026 O 1582.42 -1.42336 1.32554 0
M  V30 17027 C 1582.7 1.49143 3.27763 0
M  V30 17028 C 1582.56 3.03306 3.32153 0
M  V30 17029 C 1583.88 1.16129 4.24502 0
M  V30 17030 H 1581 0.328531 0.659724 0
M  V30 17031 H 1583.64 1.40467 1.27941 0
M  V30 17032 H 1581.79 1.06256 3.73687 0
M  V30 17033 H 1583.46 3.54963 2.94617 0
M  V30 17034 H 1581.7 3.38192 2.71677 0
M  V30 17035 H 1582.37 3.39761 4.35047 0
M  V30 17036 H 1584.85 1.53193 3.86874 0
M  V30 17037 H 1583.73 1.60129 5.25024 0
M  V30 17038 H 1583.99 0.0752973 4.42036 0
M  V30 17039 N 1583.05 -1.27244 0.929878 0
M  V30 17040 C 1584.29 -1.93559 0.567267 0
M  V30 17041 C 1584.61 -1.73864 -0.896138 0
M  V30 17042 O 1585.81 -2.34538 -1.36763 0
M  V30 17043 C 1584.27 -3.46756 0.963743 0
M  V30 17044 C 1583.88 -3.75204 2.44798 0
M  V30 17045 C 1585.62 -4.19139 0.672487 0
M  V30 17046 C 1583.53 -5.21787 2.78375 0
M  V30 17047 H 1582.46 -0.724617 0.208437 0
M  V30 17048 H 1585.11 -1.44502 1.13099 0
M  V30 17049 H 1583.49 -3.94634 0.328654 0
M  V30 17050 H 1584.67 -3.38075 3.13116 0
M  V30 17051 H 1582.98 -3.16029 2.71136 0
M  V30 17052 H 1585.58 -5.27074 0.899816 0
M  V30 17053 H 1585.92 -4.14466 -0.390378 0
M  V30 17054 H 1586.45 -3.77091 1.26678 0
M  V30 17055 H 1583.19 -5.31552 3.83579 0
M  V30 17056 H 1582.71 -5.60054 2.14708 0
M  V30 17057 H 1584.39 -5.89685 2.66234 0
M  V30 17058 N 1584.52 -0.695628 -1.41417 0
M  V30 17059 C 1585.47 -0.0303383 -2.3078 0
M  V30 17060 C 1586.44 0.771218 -1.4711 0
M  V30 17061 O 1587.63 0.739239 -1.75897 0
M  V30 17062 C 1584.77 0.900034 -3.33157 0
M  V30 17063 C 1583.88 0.0900862 -4.31906 0
M  V30 17064 C 1583.01 1.01811 -5.21352 0
M  V30 17065 C 1582.05 0.201068 -6.1177 0
M  V30 17066 N 1581.19 1.0829 -6.93699 0
M  V30 17067 H 1586.03 -0.798148 -2.87113 0
M  V30 17068 H 1583.57 -0.405311 -1.41406 0
M  V30 17069 H 1585.52 1.45349 -3.91062 0
M  V30 17070 H 1584.15 1.63424 -2.78375 0
M  V30 17071 H 1583.21 -0.58029 -3.75948 0
M  V30 17072 H 1584.52 -0.543336 -4.95832 0
M  V30 17073 H 1583.67 1.64079 -5.84092 0
M  V30 17074 H 1582.41 1.68538 -4.57653 0
M  V30 17075 H 1581.42 -0.434686 -5.48079 0
M  V30 17076 H 1582.64 -0.462416 -6.77524 0
M  V30 17077 H 1580.59 1.73619 -6.32608 0
M  V30 17078 H 1580.5 0.505046 -7.54311 0
M  V30 17079 H 1581.77 1.69239 -7.60906 0
M  V30 17080 N 1586 1.51322 -0.440383 0
M  V30 17081 C 1587.42 1.5933 -0.0928372 0
M  V30 17082 C 1587.62 1.45107 1.39807 0
M  V30 17083 O 1586.67 1.29385 2.16831 0
M  V30 17084 C 1587.99 2.9433 -0.615663 0
M  V30 17085 C 1589.53 3.07647 -0.576373 0
M  V30 17086 C 1590.01 4.45176 -1.07622 0
M  V30 17087 N 1591.5 4.51504 -1.03434 0
M  V30 17088 C 1592.24 5.56249 -1.39194 0
M  V30 17089 N 1591.73 6.68398 -1.82254 0
M  V30 17090 N 1593.52 5.46624 -1.30991 0
M  V30 17091 H 1585.68 1.58812 -1.41041 0
M  V30 17092 H 1587.94 0.748795 -0.581386 0
M  V30 17093 H 1587.64 3.10117 -1.65892 0
M  V30 17094 H 1587.52 3.77176 -0.0422513 0
M  V30 17095 H 1589.91 2.91526 0.457904 0
M  V30 17096 H 1589.99 2.26633 -1.18622 0
M  V30 17097 H 1589.63 4.62044 -2.10898 0
M  V30 17098 H 1589.56 5.24734 -0.442882 0
M  V30 17099 H 1592.05 3.71013 -0.718156 0
M  V30 17100 H 1592.36 7.44347 -2.07769 0
M  V30 17101 H 1590.71 6.69598 -1.86183 0
M  V30 17102 H 1593.9 4.57894 -0.972145 0
M  V30 17103 H 1594.07 6.28143 -1.59188 0
M  V30 17104 N 1587.48 0.171848 1.5666 0
M  V30 17105 C 1588.71 -0.479221 2.01274 0
M  V30 17106 C 1589.12 -1.56771 1.05206 0
M  V30 17107 O 1588.48 -1.82423 0.0530164 0
M  V30 17108 C 1588.53 -1.05705 3.457 0
M  V30 17109 O 1588.25 -0.0120133 4.38098 0
M  V30 17110 C 1589.75 -1.78629 4.05717 0
M  V30 17111 H 1586.97 -0.122598 0.659705 0
M  V30 17112 H 1589.52 0.273733 2.0266 0
M  V30 17113 H 1587.67 -1.7605 3.45087 0
M  V30 17114 H 1588.09 -0.438714 5.22662 0
M  V30 17115 H 1589.56 -2.14319 5.08696 0
M  V30 17116 H 1590.04 -2.68149 3.4784 0
M  V30 17117 H 1590.64 -1.12925 4.10034 0
M  V30 17118 N 1588.96 -1.5727 -0.101874 0
M  V30 17119 C 1589.92 -2.00625 -1.10826 0
M  V30 17120 C 1590.92 -0.89878 -1.33336 0
M  V30 17121 O 1592.11 -1.16442 -1.29564 0
M  V30 17122 C 1589.24 -2.36113 -2.45893 0
M  V30 17123 H 1590.44 -2.90748 -0.735238 0
M  V30 17124 H 1587.99 -1.52406 -0.346713 0
M  V30 17125 H 1588.72 -1.48923 -2.88084 0
M  V30 17126 H 1588.51 -3.169 -2.30904 0
M  V30 17127 H 1590 -2.70336 -3.1829 0
M  V30 17128 N 1590.44 0.372521 -1.53134 0
M  V30 17129 C 1591.68 1.11589 -1.6898 0
M  V30 17130 C 1592.01 1.89503 -0.438049 0
M  V30 17131 O 1591.27 1.86911 0.579891 0
M  V30 17132 C 1591.56 2.10742 -2.88656 0
M  V30 17133 C 1591.23 1.49361 -4.25443 0
M  V30 17134 C 1589.89 1.32348 -4.62642 0
M  V30 17135 C 1592.24 1.04889 -5.10537 0
M  V30 17136 C 1589.57 0.694368 -5.82577 0
M  V30 17137 C 1591.92 0.433809 -6.31111 0
M  V30 17138 C 1590.59 0.251118 -6.67027 0
M  V30 17139 H 1589.86 0.408333 -0.618341 0
M  V30 17140 H 1592.51 0.398507 -1.87308 0
M  V30 17141 H 1590.81 2.88759 -2.64812 0
M  V30 17142 H 1592.51 2.682 -2.98111 0
M  V30 17143 H 1589.1 1.63594 -3.9615 0
M  V30 17144 H 1593.28 1.16829 -4.82353 0
M  V30 17145 H 1588.54 0.541171 -6.09 0
M  V30 17146 H 1592.71 0.0809859 -6.96353 0
M  V30 17147 H 1590.34 -0.23844 -7.59826 0
M  V30 17148 N 1591.91 1.44376 0.631925 0
M  V30 17149 C 1592.86 1.51181 1.74393 0
M  V30 17150 C 1593.83 0.359599 1.62161 0
M  V30 17151 O 1595.02 0.569725 1.82096 0
M  V30 17152 C 1592.16 1.46124 3.12637 0
M  V30 17153 C 1591.27 2.71714 3.35851 0
M  V30 17154 C 1590.4 2.58496 4.64062 0
M  V30 17155 C 1589.44 3.79252 4.80452 0
M  V30 17156 N 1588.58 3.64715 5.99939 0
M  V30 17157 H 1593.42 2.4619 1.67912 0
M  V30 17158 H 1590.96 1.22184 0.819108 0
M  V30 17159 H 1592.91 1.41183 3.92585 0
M  V30 17160 H 1591.54 0.546831 3.18135 0
M  V30 17161 H 1590.6 2.86845 2.49848 0
M  V30 17162 H 1591.91 3.61351 3.43841 0
M  V30 17163 H 1591.06 2.51383 5.5217 0
M  V30 17164 H 1589.8 1.66417 4.58428 0
M  V30 17165 H 1588.81 3.8675 3.90774 0
M  V30 17166 H 1590.03 4.72367 4.879 0
M  V30 17167 H 1587.98 2.75388 5.95397 0
M  V30 17168 H 1587.89 4.47969 6.08982 0
M  V30 17169 H 1589.16 3.61493 6.90611 0
M  V30 17170 N 1593.39 -0.872258 1.31261 0
M  V30 17171 C 1594.62 -1.65795 1.23772 0
M  V30 17172 C 1595.03 -1.87766 -0.197351 0
M  V30 17173 O 1594.39 -1.43418 -1.1286 0
M  V30 17174 C 1594.44 -3.02722 1.9759 0
M  V30 17175 O 1594.16 -2.81734 3.35496 0
M  V30 17176 C 1595.66 -3.97165 1.96913 0
M  V30 17177 H 1592.88 -0.516959 0.427778 0
M  V30 17178 H 1595.43 -1.0889 1.73099 0
M  V30 17179 H 1593.58 -3.56322 1.5203 0
M  V30 17180 H 1594 -3.6869 3.73052 0
M  V30 17181 H 1595.47 -4.90566 2.53079 0
M  V30 17182 H 1595.95 -4.28778 0.951089 0
M  V30 17183 H 1596.55 -3.495 2.42342 0
M  V30 17184 N 1594.87 -1.14184 -1.08627 0
M  V30 17185 C 1595.8 -0.849455 -2.17501 0
M  V30 17186 C 1596.78 0.194617 -1.68983 0
M  V30 17187 O 1597.97 0.0517757 -1.94131 0
M  V30 17188 C 1595.1 -0.323685 -3.45788 0
M  V30 17189 C 1594.05 -1.30294 -4.07685 0
M  V30 17190 C 1593.38 -0.636575 -5.30897 0
M  V30 17191 C 1594.68 -2.66441 -4.49229 0
M  V30 17192 H 1596.37 -1.75987 -2.42217 0
M  V30 17193 H 1593.92 -0.847595 -1.16412 0
M  V30 17194 H 1595.87 -0.106754 -4.21265 0
M  V30 17195 H 1594.59 0.62215 -3.20619 0
M  V30 17196 H 1593.25 -1.50601 -3.34238 0
M  V30 17197 H 1592.9 0.314995 -5.02013 0
M  V30 17198 H 1592.6 -1.28998 -5.73266 0
M  V30 17199 H 1594.12 -0.429117 -6.0909 0
M  V30 17200 H 1595.54 -2.50055 -5.15893 0
M  V30 17201 H 1593.93 -3.28033 -5.02508 0
M  V30 17202 H 1595 -3.23486 -3.61226 0
M  V30 17203 N 1596.35 1.26749 -0.936613 0
M  V30 17204 C 1597.59 1.94251 -0.582616 0
M  V30 17205 C 1597.93 1.73352 0.875361 0
M  V30 17206 O 1597.2 1.06784 1.62565 0
M  V30 17207 C 1597.49 3.48145 -0.920151 0
M  V30 17208 C 1597.34 3.78349 -2.43253 0
M  V30 17209 C 1598.66 4.37971 -0.432326 0
M  V30 17210 H 1595.78 0.705507 -0.213141 0
M  V30 17211 H 1598.42 1.49703 -1.17001 0
M  V30 17212 H 1596.57 3.8622 -0.420279 0
M  V30 17213 H 1598.24 3.50015 -3.00478 0
M  V30 17214 H 1596.48 3.24586 -2.87795 0
M  V30 17215 H 1597.15 4.85902 -2.61922 0
M  V30 17216 H 1599.63 4.07098 -0.860857 0
M  V30 17217 H 1598.51 5.44452 -0.697366 0
M  V30 17218 H 1598.77 4.37029 0.667694 0
M  V30 17219 N 1597.83 0.703118 1.41046 0
M  V30 17220 C 1599.1 0.164985 1.94903 0
M  V30 17221 C 1599.48 -1.32665 1.64205 0
M  V30 17222 O 1598.83 -2.07675 0.953058 0
M  V30 17223 C 1599.04 0.464354 3.45897 0
M  V30 17224 C 1600.39 0.396205 4.22747 0
M  V30 17225 O 1601.41 0.399698 3.5395 0
M  V30 17226 O 1600.27 0.362874 5.45294 0
M  V30 17227 H 1597.37 0.0193901 0.826773 0
M  V30 17228 H 1599.91 0.779796 1.50722 0
M  V30 17229 H 1598.68 1.49653 3.61552 0
M  V30 17230 H 1598.31 -0.18105 3.97188 0
M  V30 17231 N 1599.3 -1.51086 0.448402 0
M  V30 17232 C 1600.21 -2.3177 -0.363323 0
M  V30 17233 C 1601.23 -1.41159 -1.01736 0
M  V30 17234 O 1602.41 -1.74226 -1.01031 0
M  V30 17235 C 1599.47 -3.15211 -1.4437 0
M  V30 17236 C 1598.53 -4.21615 -0.808643 0
M  V30 17237 C 1597.77 -5.01069 -1.83754 0
M  V30 17238 O 1597.99 -4.81296 -3.06121 0
M  V30 17239 O 1596.92 -5.84863 -1.42193 0
M  V30 17240 H 1600.75 -3.02257 0.295653 0
M  V30 17241 H 1598.33 -1.47907 0.210703 0
M  V30 17242 H 1600.22 -3.67053 -2.07002 0
M  V30 17243 H 1598.89 -2.47476 -2.08656 0
M  V30 17244 H 1597.8 -3.73823 -0.143975 0
M  V30 17245 H 1599.13 -4.91756 -0.209098 0
M  V30 17246 N 1600.78 -0.180154 -1.56567 0
M  V30 17247 C 1602.03 0.463205 -1.97439 0
M  V30 17248 C 1602.36 1.62296 -1.06647 0
M  V30 17249 O 1601.64 1.94157 -0.115382 0
M  V30 17250 C 1601.92 0.937709 -3.47677 0
M  V30 17251 C 1601.77 -0.222835 -4.49248 0
M  V30 17252 C 1603.09 1.80836 -4.01231 0
M  V30 17253 H 1600.21 0.166899 -0.717854 0
M  V30 17254 H 1602.85 -0.268069 -1.88099 0
M  V30 17255 H 1601 1.56084 -3.55767 0
M  V30 17256 H 1602.67 -0.860155 -4.5321 0
M  V30 17257 H 1600.92 -0.876962 -4.24843 0
M  V30 17258 H 1601.59 0.151444 -5.51792 0
M  V30 17259 H 1604.06 1.28297 -3.95827 0
M  V30 17260 H 1602.94 2.10937 -5.06751 0
M  V30 17261 H 1603.2 2.75728 -3.45581 0
M  V30 17262 N 1602.26 1.57322 0.0935319 0
M  V30 17263 C 1603.19 1.98861 1.13961 0
M  V30 17264 C 1604.21 0.891385 1.36228 0
M  V30 17265 O 1605.39 1.16949 1.34853 0
M  V30 17266 C 1602.49 2.29369 2.49485 0
M  V30 17267 C 1601.67 3.6066 2.47473 0
M  V30 17268 C 1600.73 3.79087 3.64937 0
M  V30 17269 O 1599.75 4.50923 3.47357 0
M  V30 17270 N 1600.95 3.19784 4.84478 0
M  V30 17271 H 1603.72 2.89208 0.786048 0
M  V30 17272 H 1601.28 1.59416 0.282491 0
M  V30 17273 H 1603.27 2.38889 3.26671 0
M  V30 17274 H 1601.84 1.45021 2.76925 0
M  V30 17275 H 1601.06 3.62095 1.55823 0
M  V30 17276 H 1602.35 4.46908 2.43209 0
M  V30 17277 H 1601.75 2.61436 5.01665 0
M  V30 17278 H 1600.31 3.34786 5.59251 0
M  V30 17279 N 1603.74 -0.364395 1.53329 0
M  V30 17280 C 1604.65 -1.47027 1.82812 0
M  V30 17281 C 1605.66 -1.58559 0.716598 0
M  V30 17282 O 1606.84 -1.7443 1.00678 0
M  V30 17283 C 1603.91 -2.82278 2.01295 0
M  V30 17284 C 1602.97 -2.80264 3.25193 0
M  V30 17285 C 1602.2 -4.09065 3.42785 0
M  V30 17286 O 1602.42 -5.0529 2.64648 0
M  V30 17287 O 1601.36 -4.14804 4.36144 0
M  V30 17288 H 1605.18 -1.25035 2.76767 0
M  V30 17289 H 1602.77 -0.554608 1.38724 0
M  V30 17290 H 1604.65 -3.62416 2.15017 0
M  V30 17291 H 1603.32 -3.04244 1.10531 0
M  V30 17292 H 1602.23 -1.9882 3.16893 0
M  V30 17293 H 1603.56 -2.63252 4.15884 0
M  V30 17294 N 1605.22 -1.44709 -0.62426 0
M  V30 17295 C 1606.15 -1.54934 -1.74693 0
M  V30 17296 C 1607.13 -0.401897 -1.65284 0
M  V30 17297 O 1608.31 -0.622906 -1.83939 0
M  V30 17298 C 1605.44 -1.49976 -3.13248 0
M  V30 17299 C 1604.4 -2.63267 -3.37453 0
M  V30 17300 C 1603.72 -2.43362 -4.76108 0
M  V30 17301 C 1605.02 -4.0538 -3.2934 0
M  V30 17302 H 1606.72 -2.48905 -1.66393 0
M  V30 17303 H 1604.26 -1.19794 -0.799088 0
M  V30 17304 H 1606.22 -1.55729 -3.91569 0
M  V30 17305 H 1604.94 -0.525254 -3.22349 0
M  V30 17306 H 1603.6 -2.56915 -2.61515 0
M  V30 17307 H 1603.25 -1.44088 -4.81921 0
M  V30 17308 H 1602.95 -3.19324 -4.93261 0
M  V30 17309 H 1604.47 -2.50943 -5.56651 0
M  V30 17310 H 1605.88 -4.13064 -3.97556 0
M  V30 17311 H 1604.28 -4.81599 -3.58025 0
M  V30 17312 H 1605.35 -4.28465 -2.27038 0
M  V30 17313 N 1606.69 0.865285 -1.31722 0
M  V30 17314 C 1607.6 2.00542 -1.21738 0
M  V30 17315 C 1608.62 1.7349 -0.133124 0
M  V30 17316 O 1609.8 1.98303 -0.351809 0
M  V30 17317 C 1606.86 3.33993 -0.930045 0
M  V30 17318 C 1605.92 3.74337 -2.10167 0
M  V30 17319 C 1605.16 5.0142 -1.82795 0
M  V30 17320 O 1605.38 5.65242 -0.765345 0
M  V30 17321 O 1604.31 5.38642 -2.68604 0
M  V30 17322 H 1608.14 2.11898 -2.17561 0
M  V30 17323 H 1605.72 0.994313 -1.11507 0
M  V30 17324 H 1607.61 4.14008 -0.785846 0
M  V30 17325 H 1606.28 3.237 -0.00188642 0
M  V30 17326 H 1605.19 2.94943 -2.3013 0
M  V30 17327 H 1606.52 3.89261 -3.01225 0
M  V30 17328 N 1608.17 1.14759 1.0802 0
M  V30 17329 C 1609.14 0.840859 2.13219 0
M  V30 17330 C 1610.14 -0.156309 1.60038 0
M  V30 17331 O 1611.33 0.0725143 1.74049 0
M  V30 17332 C 1608.46 0.254208 3.39951 0
M  V30 17333 H 1609.65 1.77323 2.4186 0
M  V30 17334 H 1607.2 0.954146 1.23797 0
M  V30 17335 H 1607.94 -0.686692 3.16946 0
M  V30 17336 H 1607.72 0.972499 3.79848 0
M  V30 17337 H 1609.21 0.0569551 4.17561 0
M  V30 17338 N 1609.65 -1.26251 0.943322 0
M  V30 17339 C 1610.6 -2.26304 0.453315 0
M  V30 17340 C 1611.57 -1.58764 -0.488168 0
M  V30 17341 O 1612.75 -1.86476 -0.403906 0
M  V30 17342 C 1609.89 -3.44015 -0.273393 0
M  V30 17343 C 1609.01 -4.26225 0.70401 0
M  V30 17344 C 1608.14 -5.31182 -0.0441134 0
M  V30 17345 C 1607.18 -6.05071 0.924971 0
M  V30 17346 N 1606.32 -7.0179 0.208461 0
M  V30 17347 H 1611.16 -2.67591 1.31146 0
M  V30 17348 H 1608.69 -1.31567 0.657914 0
M  V30 17349 H 1610.65 -4.11094 -0.711192 0
M  V30 17350 H 1609.28 -3.03636 -1.09566 0
M  V30 17351 H 1608.33 -3.58915 1.26032 0
M  V30 17352 H 1609.65 -4.77442 1.44398 0
M  V30 17353 H 1608.8 -6.04282 -0.541091 0
M  V30 17354 H 1607.54 -4.80809 -0.816952 0
M  V30 17355 H 1606.54 -5.30795 1.43305 0
M  V30 17356 H 1607.77 -6.57533 1.69785 0
M  V30 17357 H 1605.71 -6.53725 -0.545846 0
M  V30 17358 H 1605.63 -7.5077 0.887725 0
M  V30 17359 H 1606.9 -7.79041 -0.267352 0
M  V30 17360 N 1611.13 -0.710588 -1.40671 0
M  V30 17361 C 1612.35 -0.256007 -2.05814 0
M  V30 17362 C 1612.78 1.09178 -1.53173 0
M  V30 17363 O 1612.14 1.68665 -0.664977 0
M  V30 17364 C 1612.19 -0.240528 -3.59797 0
M  V30 17365 O 1611.29 0.779859 -4.04959 0
M  V30 17366 H 1610.63 -0.121326 -0.652822 0
M  V30 17367 H 1613.16 -0.969667 -1.80163 0
M  V30 17368 H 1613.17 -0.0765027 -4.07928 0
M  V30 17369 H 1611.85 -1.22411 -3.97478 0
M  V30 17370 H 1610.42 0.583965 -3.68299 0
M  V30 17371 N 1612.61 1.50847 -0.456408 0
M  V30 17372 C 1613.54 2.26004 0.381421 0
M  V30 17373 C 1614.55 1.30757 0.969872 0
M  V30 17374 O 1615.74 1.56375 0.86077 0
M  V30 17375 C 1612.84 3.01506 1.54748 0
M  V30 17376 C 1612.01 4.23997 1.07448 0
M  V30 17377 C 1611.07 4.81917 2.11288 0
M  V30 17378 O 1610.1 5.43238 1.69945 0
M  V30 17379 N 1611.3 4.67622 3.43962 0
M  V30 17380 H 1614.07 2.98545 -0.262823 0
M  V30 17381 H 1611.63 1.59347 -0.286357 0
M  V30 17382 H 1613.62 3.37137 2.23877 0
M  V30 17383 H 1612.19 2.31856 2.0967 0
M  V30 17384 H 1611.41 3.93642 0.209584 0
M  V30 17385 H 1612.7 5.03446 0.736144 0
M  V30 17386 H 1612.1 4.18821 3.8027 0
M  V30 17387 H 1610.65 5.07562 4.0893 0
M  V30 17388 N 1614.09 0.188454 1.56469 0
M  V30 17389 C 1615.36 -0.499324 1.89119 0
M  V30 17390 C 1615.74 -1.80116 1.10098 0
M  V30 17391 O 1615.09 -2.27623 0.200048 0
M  V30 17392 C 1615.3 -0.724574 3.41396 0
M  V30 17393 C 1616.65 -1.04692 4.11491 0
M  V30 17394 O 1617.67 -0.812526 3.46809 0
M  V30 17395 O 1616.53 -1.48998 5.25797 0
M  V30 17396 H 1613.63 -0.259468 0.785242 0
M  V30 17397 H 1616.17 0.228172 1.68159 0
M  V30 17398 H 1614.94 0.195039 3.90814 0
M  V30 17399 H 1614.57 -1.50477 3.68025 0
M  V30 17400 N 1615.56 -1.5737 -0.0851874 0
M  V30 17401 C 1616.97 -1.7544 -0.638575 0
M  V30 17402 C 1617.33 -0.812041 -1.78607 0
M  V30 17403 O 1616.45 0.00710428 -2.16399 0
M  V30 17404 C 1617.05 -3.18134 -1.16517 0
M  V30 17405 C 1615.6 -3.37594 -1.66454 0
M  V30 17406 C 1614.75 -2.71203 -0.578274 0
M  V30 17407 H 1617.7 -1.58073 0.140931 0
M  V30 17408 H 1617.72 -3.21553 -2.0343 0
M  V30 17409 H 1617.24 -3.86696 -0.329794 0
M  V30 17410 H 1615.34 -2.74126 -2.5236 0
M  V30 17411 H 1615.45 -4.45968 -1.75071 0
M  V30 17412 H 1613.81 -2.33379 -1.02011 0
M  V30 17413 H 1614.6 -3.42413 0.246691 0
M  V30 17414 N 1617.04 0.356258 -1.53521 0
M  V30 17415 C 1618.29 1.09573 -1.69818 0
M  V30 17416 C 1618.61 1.89559 -0.457406 0
M  V30 17417 O 1617.88 1.88633 0.528616 0
M  V30 17418 H 1616.46 0.407512 -0.626054 0
M  V30 17419 H 1619.12 0.400612 -1.90738 0
M  V30 17420 H 1618.22 1.7803 -2.56343 0
M  V30 17421 N 1618.52 1.45038 0.616577 0
M  V30 17422 C 1619.48 1.52647 1.70973 0
M  V30 17423 C 1620.48 0.406902 1.55567 0
M  V30 17424 O 1621.67 0.670062 1.60797 0
M  V30 17425 C 1618.8 1.41438 3.10174 0
M  V30 17426 H 1620 2.50036 1.65596 0
M  V30 17427 H 1617.55 1.32346 0.831524 0
M  V30 17428 H 1618.29 0.451991 3.21135 0
M  V30 17429 H 1618.07 2.22634 3.22764 0
M  V30 17430 H 1619.56 1.49776 3.89817 0
M  V30 17431 N 1620 -0.858287 1.32179 0
M  V30 17432 C 1621.24 -1.6146 1.22713 0
M  V30 17433 C 1621.58 -1.93045 -0.211479 0
M  V30 17434 O 1620.85 -1.57034 -1.14764 0
M  V30 17435 C 1621.13 -2.93728 2.08317 0
M  V30 17436 C 1620.99 -2.68947 3.60538 0
M  V30 17437 C 1622.31 -3.94959 1.94153 0
M  V30 17438 H 1619.43 -0.585872 0.447128 0
M  V30 17439 H 1622.07 -0.99134 1.62088 0
M  V30 17440 H 1620.22 -3.4692 1.74867 0
M  V30 17441 H 1621.89 -2.22336 4.04183 0
M  V30 17442 H 1620.13 -2.02974 3.83385 0
M  V30 17443 H 1620.8 -3.63112 4.15756 0
M  V30 17444 H 1623.28 -3.51013 2.23449 0
M  V30 17445 H 1622.16 -4.85371 2.56332 0
M  V30 17446 H 1622.42 -4.32672 0.908132 0
M  V30 17447 N 1621.48 -1.1533 -1.07409 0
M  V30 17448 C 1622.72 -0.929181 -1.80261 0
M  V30 17449 C 1623.05 0.542387 -1.86472 0
M  V30 17450 O 1622.33 1.40209 -1.34802 0
M  V30 17451 C 1622.61 -1.54339 -3.25348 0
M  V30 17452 C 1622.47 -3.08551 -3.27286 0
M  V30 17453 C 1623.78 -1.22868 -4.22601 0
M  V30 17454 H 1620.9 -0.338985 -0.654414 0
M  V30 17455 H 1623.55 -1.42485 -1.2569 0
M  V30 17456 H 1621.7 -1.12187 -3.71949 0
M  V30 17457 H 1623.37 -3.59605 -2.88932 0
M  V30 17458 H 1621.61 -3.42471 -2.66263 0
M  V30 17459 H 1622.28 -3.4664 -4.29587 0
M  V30 17460 H 1624.76 -1.59328 -3.84388 0
M  V30 17461 H 1623.63 -1.68462 -5.2241 0
M  V30 17462 H 1623.89 -0.145612 -4.4186 0
M  V30 17463 N 1622.95 1.25748 -0.950004 0
M  V30 17464 C 1623.88 2.28419 -0.484467 0
M  V30 17465 C 1624.86 1.63569 0.466813 0
M  V30 17466 O 1626.05 1.90705 0.366766 0
M  V30 17467 C 1623.18 3.46449 0.242916 0
M  V30 17468 C 1622.13 4.23447 -0.622657 0
M  V30 17469 C 1621.46 5.34182 0.235199 0
M  V30 17470 C 1622.76 4.86576 -1.89845 0
M  V30 17471 H 1624.45 2.6761 -1.34257 0
M  V30 17472 H 1622 1.28646 -0.647014 0
M  V30 17473 H 1623.95 4.17394 0.579693 0
M  V30 17474 H 1622.68 3.06235 1.13523 0
M  V30 17475 H 1621.34 3.54279 -0.942453 0
M  V30 17476 H 1620.98 4.90209 1.12713 0
M  V30 17477 H 1620.68 5.86612 -0.340609 0
M  V30 17478 H 1622.21 6.07961 0.567048 0
M  V30 17479 H 1623.62 5.49688 -1.62837 0
M  V30 17480 H 1622.02 5.49162 -2.41954 0
M  V30 17481 H 1623.09 4.09021 -2.60441 0
M  V30 17482 N 1624.43 0.718038 1.40292 0
M  V30 17483 C 1625.68 0.258092 2.00445 0
M  V30 17484 C 1626 -1.15347 1.57226 0
M  V30 17485 O 1625.27 -1.78241 0.812822 0
M  V30 17486 H 1623.85 0.0924316 0.741259 0
M  V30 17487 H 1626.51 0.924216 1.71593 0
M  V30 17488 H 1625.61 0.293113 3.10721 0
M  V30 17489 N 1625.91 -1.50602 0.464402 0
M  V30 17490 C 1626.86 -2.28382 -0.333234 0
M  V30 17491 C 1627.83 -1.3314 -0.993125 0
M  V30 17492 O 1629.01 -1.62072 -1.00685 0
M  V30 17493 C 1626.15 -3.14841 -1.41313 0
M  V30 17494 C 1625.27 -4.25106 -0.768684 0
M  V30 17495 C 1624.4 -4.98833 -1.82591 0
M  V30 17496 C 1623.44 -6.00982 -1.16135 0
M  V30 17497 N 1622.58 -6.68012 -2.16112 0
M  V30 17498 H 1627.42 -2.96096 0.336354 0
M  V30 17499 H 1624.95 -1.46022 0.17772 0
M  V30 17500 H 1626.91 -3.63314 -2.05082 0
M  V30 17501 H 1625.54 -2.49186 -2.05197 0
M  V30 17502 H 1624.59 -3.80395 -0.0185964 0
M  V30 17503 H 1625.91 -4.98204 -0.243759 0
M  V30 17504 H 1625.06 -5.50991 -2.53957 0
M  V30 17505 H 1623.8 -4.25426 -2.38462 0
M  V30 17506 H 1622.8 -5.4809 -0.43328 0
M  V30 17507 H 1624.03 -6.76358 -0.609612 0
M  V30 17508 H 1621.97 -5.97401 -2.71013 0
M  V30 17509 H 1621.89 -7.36963 -1.68586 0
M  V30 17510 H 1623.16 -7.2479 -2.86879 0
M  V30 17511 N 1627.39 -0.19675 -1.56367 0
M  V30 17512 C 1628.61 0.450245 -2.02454 0
M  V30 17513 C 1629.04 1.54287 -1.07597 0
M  V30 17514 O 1628.4 1.81202 -0.0597529 0
M  V30 17515 C 1628.44 0.982087 -3.46969 0
M  V30 17516 O 1627.55 2.09489 -3.5523 0
M  V30 17517 H 1626.89 0.105022 -0.655642 0
M  V30 17518 H 1629.42 -0.308112 -2.02267 0
M  V30 17519 H 1629.43 1.29826 -3.86793 0
M  V30 17520 H 1628.1 0.18224 -4.15501 0
M  V30 17521 H 1626.68 1.78723 -3.27281 0
M  V30 17522 N 1628.87 1.57413 0.0768405 0
M  V30 17523 C 1629.8 2.06378 1.09226 0
M  V30 17524 C 1630.78 0.956269 1.40675 0
M  V30 17525 O 1631.96 1.22868 1.5039 0
M  V30 17526 C 1629.09 2.50349 2.40712 0
M  V30 17527 C 1628.05 3.64931 2.23628 0
M  V30 17528 C 1627.37 3.9494 3.60453 0
M  V30 17529 C 1628.67 4.95162 1.66169 0
M  V30 17530 H 1630.37 2.91463 0.684827 0
M  V30 17531 H 1627.91 1.40215 0.327974 0
M  V30 17532 H 1629.87 2.83216 3.12036 0
M  V30 17533 H 1628.59 1.62287 2.83426 0
M  V30 17534 H 1627.25 3.32339 1.54747 0
M  V30 17535 H 1626.9 3.04016 4.00728 0
M  V30 17536 H 1626.6 4.72091 3.49863 0
M  V30 17537 H 1628.12 4.30299 4.33215 0
M  V30 17538 H 1629.53 5.26292 2.27353 0
M  V30 17539 H 1627.93 5.76601 1.66289 0
M  V30 17540 H 1629 4.80885 0.62271 0
M  V30 17541 N 1630.34 -0.348112 1.53707 0
M  V30 17542 C 1631.57 -1.10903 1.74666 0
M  V30 17543 C 1631.99 -1.82499 0.483683 0
M  V30 17544 O 1631.34 -1.74191 -0.544419 0
M  V30 17545 C 1631.4 -2.12602 2.92374 0
M  V30 17546 O 1631.12 -1.43918 4.13787 0
M  V30 17547 C 1632.62 -3.01105 3.25347 0
M  V30 17548 H 1629.84 -0.330911 0.583728 0
M  V30 17549 H 1632.38 -0.401707 2.00516 0
M  V30 17550 H 1630.54 -2.78906 2.68869 0
M  V30 17551 H 1630.95 -2.11818 4.79826 0
M  V30 17552 H 1632.42 -3.68408 4.11071 0
M  V30 17553 H 1632.9 -3.66874 2.41455 0
M  V30 17554 H 1633.51 -2.40395 3.50842 0
M  V30 17555 N 1631.82 -1.45363 -0.608876 0
M  V30 17556 C 1632.73 -1.56471 -1.74797 0
M  V30 17557 C 1633.75 -0.449225 -1.68101 0
M  V30 17558 O 1634.92 -0.709731 -1.8848 0
M  V30 17559 C 1631.99 -1.52714 -3.11254 0
M  V30 17560 C 1631.05 -2.75291 -3.29414 0
M  V30 17561 C 1630.28 -2.71704 -4.59361 0
M  V30 17562 O 1630.51 -1.78959 -5.41599 0
M  V30 17563 O 1629.44 -3.62886 -4.80205 0
M  V30 17564 H 1633.27 -2.52751 -1.68377 0
M  V30 17565 H 1630.85 -1.27859 -0.772808 0
M  V30 17566 H 1632.73 -1.53222 -3.92557 0
M  V30 17567 H 1631.41 -0.595858 -3.18169 0
M  V30 17568 H 1630.32 -2.80345 -2.47704 0
M  V30 17569 H 1631.65 -3.67541 -3.27375 0
M  V30 17570 N 1633.3 0.851265 -1.32632 0
M  V30 17571 C 1634.72 1.14 -1.11696 0
M  V30 17572 C 1634.92 2.0125 0.100327 0
M  V30 17573 O 1633.97 2.40013 0.784233 0
M  V30 17574 C 1635.29 1.81406 -2.39817 0
M  V30 17575 C 1636.83 1.94027 -2.45607 0
M  V30 17576 C 1637.31 2.64848 -3.73657 0
M  V30 17577 N 1638.8 2.7237 -3.74658 0
M  V30 17578 C 1639.53 3.27827 -4.70443 0
M  V30 17579 N 1639.03 3.84068 -5.76596 0
M  V30 17580 N 1640.82 3.25962 -4.57936 0
M  V30 17581 H 1632.97 0.270302 -2.10673 0
M  V30 17582 H 1635.24 0.182395 -0.930288 0
M  V30 17583 H 1634.94 1.24753 -3.28831 0
M  V30 17584 H 1634.82 2.81535 -2.51034 0
M  V30 17585 H 1637.2 2.49838 -1.5705 0
M  V30 17586 H 1637.29 0.928844 -2.3834 0
M  V30 17587 H 1636.93 2.09699 -4.62589 0
M  V30 17588 H 1636.86 3.66436 -3.78196 0
M  V30 17589 H 1639.35 2.32474 -2.97933 0
M  V30 17590 H 1639.66 4.24551 -6.45737 0
M  V30 17591 H 1638.01 3.82391 -5.80347 0
M  V30 17592 H 1641.2 2.81274 -3.74169 0
M  V30 17593 H 1641.37 3.68881 -5.32758 0
M  V30 17594 N 1634.78 1.15898 1.06796 0
M  V30 17595 C 1635.74 0.863427 2.12315 0
M  V30 17596 C 1636.74 -0.139326 1.60195 0
M  V30 17597 O 1637.93 0.0909705 1.73962 0
M  V30 17598 C 1635.06 0.290251 3.39662 0
M  V30 17599 H 1636.26 1.79879 2.39966 0
M  V30 17600 H 1633.81 0.967223 1.22778 0
M  V30 17601 H 1634.54 -0.653037 3.17657 0
M  V30 17602 H 1634.33 1.01273 3.78796 0
M  V30 17603 H 1635.82 0.10124 4.17477 0
M  V30 17604 N 1636.26 -1.25243 0.956659 0
M  V30 17605 C 1637.19 -2.25019 0.435795 0
M  V30 17606 C 1638.2 -1.56473 -0.449435 0
M  V30 17607 O 1639.39 -1.76635 -0.257386 0
M  V30 17608 C 1636.49 -3.36634 -0.391226 0
M  V30 17609 C 1635.66 -4.34742 0.481483 0
M  V30 17610 C 1634.72 -5.25413 -0.287678 0
M  V30 17611 O 1633.75 -5.6833 0.314618 0
M  V30 17612 N 1634.95 -5.58578 -1.58023 0
M  V30 17613 H 1637.72 -2.70344 1.2936 0
M  V30 17614 H 1635.28 -1.3917 0.827245 0
M  V30 17615 H 1637.27 -3.94254 -0.913552 0
M  V30 17616 H 1635.84 -2.90682 -1.14991 0
M  V30 17617 H 1635.06 -3.75971 1.18489 0
M  V30 17618 H 1636.35 -4.97269 1.07707 0
M  V30 17619 H 1635.74 -5.25618 -2.09146 0
M  V30 17620 H 1634.3 -6.18774 -2.04848 0
M  V30 17621 N 1637.73 -0.725468 -1.3991 0
M  V30 17622 C 1638.66 -0.094211 -2.3331 0
M  V30 17623 C 1639.65 0.734728 -1.53414 0
M  V30 17624 O 1640.83 0.681647 -1.81844 0
M  V30 17625 C 1637.96 0.820958 -3.37457 0
M  V30 17626 C 1636.91 0.0968983 -4.2789 0
M  V30 17627 C 1636.24 1.12845 -5.22657 0
M  V30 17628 C 1637.54 -1.05483 -5.11537 0
M  V30 17629 H 1639.23 -0.874365 -2.86348 0
M  V30 17630 H 1636.78 -0.421913 -1.3768 0
M  V30 17631 H 1638.73 1.27203 -4.01743 0
M  V30 17632 H 1637.46 1.63312 -2.82837 0
M  V30 17633 H 1636.12 -0.334454 -3.65071 0
M  V30 17634 H 1635.76 1.93392 -4.64337 0
M  V30 17635 H 1635.46 0.648805 -5.84007 0
M  V30 17636 H 1636.99 1.57942 -5.89819 0
M  V30 17637 H 1638.4 -0.682657 -5.69221 0
M  V30 17638 H 1636.8 -1.46349 -5.81981 0
M  V30 17639 H 1637.87 -1.88095 -4.46932 0
M  V30 17640 N 1639.21 1.50354 -0.472382 0
M  V30 17641 C 1640.14 2.3142 0.310995 0
M  V30 17642 C 1641.12 1.38383 0.989151 0
M  V30 17643 O 1642.31 1.67303 0.986074 0
M  V30 17644 C 1639.44 3.18157 1.3926 0
M  V30 17645 C 1638.39 4.19756 0.835977 0
M  V30 17646 C 1637.72 4.9524 2.01597 0
M  V30 17647 C 1639.02 5.22074 -0.15361 0
M  V30 17648 H 1640.71 2.97159 -0.365595 0
M  V30 17649 H 1638.26 1.42905 -0.177266 0
M  V30 17650 H 1640.21 3.73666 1.94813 0
M  V30 17651 H 1638.94 2.50305 2.09798 0
M  V30 17652 H 1637.59 3.65351 0.302414 0
M  V30 17653 H 1637.24 4.2386 2.70836 0
M  V30 17654 H 1636.94 5.63966 1.64974 0
M  V30 17655 H 1638.47 5.53584 2.57637 0
M  V30 17656 H 1639.88 5.72446 0.312783 0
M  V30 17657 H 1638.28 5.98527 -0.43418 0
M  V30 17658 H 1639.35 4.72741 -1.07908 0
M  V30 17659 N 1640.69 0.205039 1.56261 0
M  V30 17660 C 1641.64 -0.711828 2.19549 0
M  V30 17661 C 1642.61 -1.2025 1.14582 0
M  V30 17662 O 1643.79 -1.26459 1.42873 0
M  V30 17663 C 1640.93 -1.92152 2.86656 0
M  V30 17664 C 1640.05 -1.47129 4.06174 0
M  V30 17665 C 1639.18 -2.63726 4.6111 0
M  V30 17666 C 1638.22 -2.15357 5.72964 0
M  V30 17667 N 1637.36 -3.25167 6.22263 0
M  V30 17668 H 1642.2 -0.165392 2.97541 0
M  V30 17669 H 1639.73 -0.0698889 1.46934 0
M  V30 17670 H 1641.69 -2.63152 3.23739 0
M  V30 17671 H 1640.32 -2.4411 2.11211 0
M  V30 17672 H 1639.37 -0.656797 3.74687 0
M  V30 17673 H 1640.69 -1.0765 4.87045 0
M  V30 17674 H 1639.84 -3.42833 5.0055 0
M  V30 17675 H 1638.58 -3.06484 3.79367 0
M  V30 17676 H 1637.58 -1.34706 5.33043 0
M  V30 17677 H 1638.81 -1.73618 6.56532 0
M  V30 17678 H 1636.76 -3.67438 5.43439 0
M  V30 17679 H 1636.67 -2.89888 6.98213 0
M  V30 17680 H 1637.94 -4.0446 6.66358 0
M  V30 17681 N 1642.17 -1.57451 -0.0684915 0
M  V30 17682 C 1643.12 -2.04959 -1.09975 0
M  V30 17683 C 1644.11 -0.955558 -1.39877 0
M  V30 17684 O 1645.32 -1.14066 -1.39245 0
M  V30 17685 H 1641.69 -0.653542 -0.372003 0
M  V30 17686 H 1643.66 -2.90713 -0.67294 0
M  V30 17687 C 1642.41 -2.51192 -2.40412 0
M  V30 17688 H 1641.74 -3.3497 -2.18254 0
M  V30 17689 H 1643.18 -2.88183 -3.11008 0
M  V30 17690 C 1641.63 -1.39624 -3.06605 0
M  V30 17691 O 1642.16 -0.740191 -3.94822 0
M  V30 17692 N 1640.37 -1.14054 -2.67283 0
M  V30 17693 H 1639.92 -1.67585 -1.95635 0
M  V30 17694 H 1639.88 -0.396106 -3.11895 0
M  V30 17695 N 1643.65 0.339955 -1.5389 0
M  V30 17696 C 1644.89 1.08139 -1.71563 0
M  V30 17697 C 1645.23 1.88193 -0.479292 0
M  V30 17698 O 1644.5 1.87317 0.523702 0
M  V30 17699 C 1644.78 2.01963 -2.98132 0
M  V30 17700 C 1644.64 1.25349 -4.31981 0
M  V30 17701 C 1645.96 3.01729 -3.20387 0
M  V30 17702 H 1643.08 0.391744 -0.624264 0
M  V30 17703 H 1645.72 0.359609 -1.86566 0
M  V30 17704 H 1643.87 2.63511 -2.85472 0
M  V30 17705 H 1645.54 0.66388 -4.56498 0
M  V30 17706 H 1643.78 0.555541 -4.30228 0
M  V30 17707 H 1644.45 1.94154 -5.16728 0
M  V30 17708 H 1646.93 2.50297 -3.32401 0
M  V30 17709 H 1645.81 3.64577 -4.10335 0
M  V30 17710 H 1646.07 3.73303 -2.36849 0
M  V30 17711 N 1645.13 1.45684 0.601159 0
M  V30 17712 C 1646.37 1.50036 1.35998 0
M  V30 17713 C 1646.7 0.144645 1.93961 0
M  V30 17714 O 1645.96 -0.857502 1.75913 0
M  V30 17715 C 1646.25 2.53235 2.52204 0
M  V30 17716 C 1645.92 3.97767 2.12348 0
M  V30 17717 C 1644.58 4.37121 2.01193 0
M  V30 17718 C 1646.93 4.88636 1.8134 0
M  V30 17719 C 1644.26 5.65231 1.5726 0
M  V30 17720 C 1646.61 6.17164 1.38892 0
M  V30 17721 C 1645.28 6.55442 1.26299 0
M  V30 17722 H 1644.55 0.54902 0.497652 0
M  V30 17723 H 1647.2 1.79065 0.678833 0
M  V30 17724 H 1645.5 2.17799 3.25685 0
M  V30 17725 H 1647.2 2.53837 3.10431 0
M  V30 17726 H 1643.79 3.6665 2.21959 0
M  V30 17727 H 1647.97 4.58964 1.88853 0
M  V30 17728 H 1643.23 5.93678 1.46139 0
M  V30 17729 H 1647.4 6.87015 1.13946 0
M  V30 17730 H 1645.03 7.54609 0.920316 0
M  V30 17731 N 1646.6 -0.84422 1.33082 0
M  V30 17732 C 1647.55 -1.95363 1.2289 0
M  V30 17733 C 1648.52 -1.65744 0.108705 0
M  V30 17734 O 1649.71 -1.88643 0.286057 0
M  V30 17735 C 1646.85 -3.31228 0.968594 0
M  V30 17736 C 1645.96 -3.73279 2.17455 0
M  V30 17737 C 1645.09 -4.97987 1.84885 0
M  V30 17738 C 1644.13 -5.32558 3.01743 0
M  V30 17739 N 1643.27 -6.48442 2.69197 0
M  V30 17740 H 1648.11 -2.03412 2.17778 0
M  V30 17741 H 1645.65 -0.995461 1.083 0
M  V30 17742 H 1647.6 -4.09494 0.798129 0
M  V30 17743 H 1646.23 -3.22751 0.0564631 0
M  V30 17744 H 1645.29 -2.9058 2.45494 0
M  V30 17745 H 1646.6 -3.94814 3.04834 0
M  V30 17746 H 1645.75 -5.83987 1.64451 0
M  V30 17747 H 1644.49 -4.7841 0.947356 0
M  V30 17748 H 1643.5 -4.45064 3.22797 0
M  V30 17749 H 1644.72 -5.54085 3.9264 0
M  V30 17750 H 1642.67 -6.30363 1.816 0
M  V30 17751 H 1642.58 -6.70046 3.50106 0
M  V30 17752 H 1643.85 -7.37568 2.52217 0
M  V30 17753 N 1648.08 -1.16463 -1.0618 0
M  V30 17754 C 1649.03 -0.87224 -2.13683 0
M  V30 17755 C 1650 0.179784 -1.65124 0
M  V30 17756 O 1651.18 0.0447406 -1.90748 0
M  V30 17757 C 1648.32 -0.380728 -3.42993 0
M  V30 17758 C 1647.44 -1.49571 -4.05281 0
M  V30 17759 C 1646.57 -0.959099 -5.2247 0
M  V30 17760 C 1645.61 -2.05021 -5.76743 0
M  V30 17761 N 1644.75 -1.5291 -6.85247 0
M  V30 17762 H 1649.59 -1.79288 -2.38033 0
M  V30 17763 H 1647.12 -0.894379 -1.16787 0
M  V30 17764 H 1649.08 -0.0773816 -4.17128 0
M  V30 17765 H 1647.71 0.502966 -3.18857 0
M  V30 17766 H 1646.76 -1.915 -3.28682 0
M  V30 17767 H 1648.08 -2.31904 -4.41613 0
M  V30 17768 H 1647.23 -0.609003 -6.03636 0
M  V30 17769 H 1645.97 -0.105086 -4.87587 0
M  V30 17770 H 1644.97 -2.40899 -4.94214 0
M  V30 17771 H 1646.2 -2.90821 -6.13678 0
M  V30 17772 H 1644.15 -0.697639 -6.5228 0
M  V30 17773 H 1644.06 -2.28859 -7.20527 0
M  V30 17774 H 1645.33 -1.20762 -7.70089 0
M  V30 17775 N 1649.56 1.24734 -0.963288 0
M  V30 17776 C 1650.51 2.27557 -0.481704 0
M  V30 17777 C 1651.5 1.63245 0.452488 0
M  V30 17778 O 1652.71 1.76981 0.328263 0
M  V30 17779 H 1649.08 0.73936 -0.137297 0
M  V30 17780 H 1651.05 2.65555 -1.361 0
M  V30 17781 C 1649.8 3.47023 0.216806 0
M  V30 17782 H 1649.13 3.9675 -0.492916 0
M  V30 17783 H 1650.57 4.20828 0.517659 0
M  V30 17784 C 1649.02 3.04466 1.44229 0
M  V30 17785 O 1649.55 3.11238 2.53956 0
M  V30 17786 N 1647.76 2.59563 1.30674 0
M  V30 17787 H 1647.31 2.54252 0.41395 0
M  V30 17788 H 1647.27 2.31453 2.12783 0
M  V30 17789 N 1651.04 0.732878 1.39523 0
M  V30 17790 C 1651.99 0.0676184 2.279 0
M  V30 17791 C 1652.97 -0.7148 1.44151 0
M  V30 17792 O 1654.16 -0.584158 1.67083 0
M  V30 17793 C 1651.29 -0.840482 3.32853 0
M  V30 17794 C 1650.38 -0.052326 4.24068 0
M  V30 17795 N 1650.77 0.973429 4.96345 0
M  V30 17796 C 1649.07 -0.282301 4.45106 0
M  V30 17797 C 1649.77 1.44851 5.63376 0
M  V30 17798 N 1648.74 0.767499 5.38155 0
M  V30 17799 H 1652.55 0.853533 2.81233 0
M  V30 17800 H 1650.06 0.567016 1.5218 0
M  V30 17801 H 1652.06 -1.33254 3.95031 0
M  V30 17802 H 1650.72 -1.62558 2.81078 0
M  V30 17803 H 1651.73 1.35474 4.99867 0
M  V30 17804 H 1648.41 -1.04237 4.04278 0
M  V30 17805 H 1649.8 2.30179 6.31242 0
M  V30 17806 N 1652.52 -1.50101 0.480349 0
M  V30 17807 C 1653.76 -2.02674 -0.0715373 0
M  V30 17808 C 1654.09 -1.36095 -1.38535 0
M  V30 17809 O 1653.37 -0.489703 -1.88234 0
M  V30 17810 C 1653.65 -3.59261 -0.245693 0
M  V30 17811 C 1653.51 -4.36399 1.08979 0
M  V30 17812 C 1654.82 -4.28682 -0.995966 0
M  V30 17813 H 1651.94 -0.736592 -0.0245244 0
M  V30 17814 H 1654.59 -1.7933 0.627743 0
M  V30 17815 H 1652.74 -3.79281 -0.841308 0
M  V30 17816 H 1654.41 -4.27926 1.72269 0
M  V30 17817 H 1652.65 -3.99773 1.68417 0
M  V30 17818 H 1653.32 -5.44254 0.921468 0
M  V30 17819 H 1655.8 -4.13193 -0.491025 0
M  V30 17820 H 1654.67 -5.38037 -1.08663 0
M  V30 17821 H 1654.93 -3.92491 -2.03479 0
M  V30 17822 N 1653.99 -0.213323 -1.5615 0
M  V30 17823 C 1654.94 0.716708 -2.21283 0
M  V30 17824 C 1655.94 1.20599 -1.18963 0
M  V30 17825 O 1657.14 1.16677 -1.37064 0
M  V30 17826 H 1653.52 0.249524 -0.709395 0
M  V30 17827 H 1655.49 0.14385 -2.98053 0
M  V30 17828 C 1654.24 1.91775 -2.9003 0
M  V30 17829 H 1653.56 1.55036 -3.68516 0
M  V30 17830 H 1655 2.54646 -3.39016 0
M  V30 17831 C 1653.46 2.768 -1.92051 0
M  V30 17832 O 1653.99 3.75299 -1.43225 0
M  V30 17833 N 1652.19 2.42666 -1.5988 0
M  V30 17834 H 1651.74 1.62622 -1.99779 0
M  V30 17835 H 1651.7 2.99836 -0.945833 0
M  V30 17836 N 1655.47 1.57485 0.0601405 0
M  V30 17837 C 1656.4 2.07525 1.07031 0
M  V30 17838 C 1657.38 0.971136 1.39653 0
M  V30 17839 O 1658.57 1.24456 1.49078 0
M  V30 17840 C 1655.7 2.52888 2.38044 0
M  V30 17841 C 1654.65 3.67282 2.19745 0
M  V30 17842 C 1653.98 3.98741 3.56244 0
M  V30 17843 C 1655.28 4.96896 1.60908 0
M  V30 17844 H 1656.97 2.92173 0.653875 0
M  V30 17845 H 1654.52 1.40555 0.313083 0
M  V30 17846 H 1656.47 2.8651 3.09014 0
M  V30 17847 H 1655.2 1.65284 2.81689 0
M  V30 17848 H 1653.85 3.33961 1.51213 0
M  V30 17849 H 1653.5 3.08249 3.97481 0
M  V30 17850 H 1653.2 4.75775 3.44836 0
M  V30 17851 H 1654.73 4.34869 4.28627 0
M  V30 17852 H 1656.14 5.28674 2.21758 0
M  V30 17853 H 1654.54 5.78332 1.60164 0
M  V30 17854 H 1655.61 4.81518 0.571671 0
M  V30 17855 N 1656.95 -0.331789 1.54068 0
M  V30 17856 C 1658.18 -1.08886 1.75577 0
M  V30 17857 C 1658.59 -1.82462 0.50043 0
M  V30 17858 O 1657.93 -1.7564 -0.53816 0
M  V30 17859 C 1657.99 -2.13858 2.88972 0
M  V30 17860 C 1657.66 -1.59754 4.28168 0
M  V30 17861 C 1658.65 -1.04365 5.09317 0
M  V30 17862 C 1656.34 -1.64245 4.74688 0
M  V30 17863 C 1658.33 -0.541856 6.35093 0
M  V30 17864 C 1656.02 -1.13679 6.00433 0
M  V30 17865 C 1657.02 -0.587426 6.80469 0
M  V30 17866 O 1656.71 -0.0893367 8.0385 0
M  V30 17867 H 1656.44 -0.330075 0.589938 0
M  V30 17868 H 1658.99 -0.386127 2.01738 0
M  V30 17869 H 1657.22 -2.87724 2.58363 0
M  V30 17870 H 1658.91 -2.75223 2.98341 0
M  V30 17871 H 1659.68 -1.00208 4.74535 0
M  V30 17872 H 1655.56 -2.05945 4.12441 0
M  V30 17873 H 1659.1 -0.1124 6.97509 0
M  V30 17874 H 1655 -1.1754 6.34708 0
M  V30 17875 H 1655.77 -0.205529 8.18242 0
M  V30 17876 N 1658.43 -1.46001 -0.593424 0
M  V30 17877 C 1659.84 -1.30719 -0.915678 0
M  V30 17878 C 1660.04 -0.270679 -1.99674 0
M  V30 17879 O 1659.1 0.330482 -2.50328 0
M  V30 17880 C 1660.41 -2.69034 -1.34318 0
M  V30 17881 C 1661.96 -2.77041 -1.45662 0
M  V30 17882 C 1662.44 -4.15913 -1.91783 0
M  V30 17883 N 1663.93 -4.18277 -1.98994 0
M  V30 17884 C 1664.66 -5.22612 -2.35932 0
M  V30 17885 N 1664.16 -6.37283 -2.71738 0
M  V30 17886 N 1665.95 -5.09975 -2.36394 0
M  V30 17887 H 1658.1 -2.12056 0.120882 0
M  V30 17888 H 1660.37 -0.947961 -0.00858574 0
M  V30 17889 H 1660.07 -3.4614 -0.622922 0
M  V30 17890 H 1659.95 -2.98434 -2.30688 0
M  V30 17891 H 1662.33 -2.0023 -2.16776 0
M  V30 17892 H 1662.41 -2.51338 -0.475706 0
M  V30 17893 H 1662.06 -4.93215 -1.2125 0
M  V30 17894 H 1661.99 -4.39016 -2.90813 0
M  V30 17895 H 1664.48 -3.35534 -1.73855 0
M  V30 17896 H 1664.79 -7.12679 -2.98846 0
M  V30 17897 H 1663.14 -6.40662 -2.69401 0
M  V30 17898 H 1666.33 -4.1943 -2.07836 0
M  V30 17899 H 1666.5 -5.91402 -2.64854 0
M  V30 17900 N 1659.91 0.83715 -1.33527 0
M  V30 17901 C 1661.13 1.62976 -1.28271 0
M  V30 17902 C 1661.56 1.87554 0.143201 0
M  V30 17903 O 1660.91 1.44088 1.10038 0
M  V30 17904 C 1660.96 2.95607 -2.06516 0
M  V30 17905 O 1660.07 3.87 -1.42494 0
M  V30 17906 H 1659.41 0.496212 -0.441214 0
M  V30 17907 H 1661.94 1.04137 -1.76115 0
M  V30 17908 H 1661.95 3.4529 -2.17344 0
M  V30 17909 H 1660.62 2.77041 -3.10195 0
M  V30 17910 H 1659.2 3.45492 -1.40321 0
M  V30 17911 N 1661.38 1.17024 1.05561 0
M  V30 17912 C 1662.29 0.898107 2.16728 0
M  V30 17913 C 1663.31 -0.132369 1.73496 0
M  V30 17914 O 1664.49 0.0460203 2.01347 0
M  V30 17915 C 1661.55 0.411091 3.44254 0
M  V30 17916 C 1660.61 1.5077 4.01954 0
M  V30 17917 C 1659.85 1.04383 5.23393 0
M  V30 17918 O 1660.07 -0.10351 5.70306 0
M  V30 17919 O 1659 1.8353 5.73237 0
M  V30 17920 H 1662.83 1.82791 2.42531 0
M  V30 17921 H 1660.41 0.950816 1.15238 0
M  V30 17922 H 1662.3 0.146837 4.21144 0
M  V30 17923 H 1660.97 -0.490605 3.19961 0
M  V30 17924 H 1659.88 1.82579 3.26521 0
M  V30 17925 H 1661.21 2.38497 4.30558 0
M  V30 17926 N 1662.86 -1.24221 0.969889 0
M  V30 17927 C 1664.09 -1.96943 0.650262 0
M  V30 17928 C 1664.51 -1.71437 -0.774018 0
M  V30 17929 O 1663.87 -0.979428 -1.52568 0
M  V30 17930 C 1663.92 -3.48303 0.933682 0
M  V30 17931 O 1663.02 -4.12395 0.0202425 0
M  V30 17932 H 1662.36 -0.616902 0.245618 0
M  V30 17933 H 1664.89 -1.57939 1.30063 0
M  V30 17934 H 1664.9 -3.98701 0.866106 0
M  V30 17935 H 1663.58 -3.66194 1.97166 0
M  V30 17936 H 1662.16 -3.72632 0.141327 0
M  V30 17937 N 1664.34 -0.740267 -1.39132 0
M  V30 17938 C 1665.27 -0.118951 -2.33197 0
M  V30 17939 C 1666.25 0.718416 -1.54184 0
M  V30 17940 O 1667.44 0.662322 -1.82557 0
M  V30 17941 C 1664.57 0.78512 -3.38309 0
M  V30 17942 C 1663.52 0.0515093 -4.27969 0
M  V30 17943 C 1662.85 1.07295 -5.23824 0
M  V30 17944 C 1664.15 -1.10903 -5.1039 0
M  V30 17945 H 1665.84 -0.904687 -2.85405 0
M  V30 17946 H 1663.39 -0.436493 -1.37225 0
M  V30 17947 H 1665.34 1.22935 -4.03069 0
M  V30 17948 H 1664.06 1.60303 -2.84553 0
M  V30 17949 H 1662.72 -0.373156 -3.64696 0
M  V30 17950 H 1662.37 1.88456 -4.66362 0
M  V30 17951 H 1662.07 0.586827 -5.84662 0
M  V30 17952 H 1663.59 1.51677 -5.91461 0
M  V30 17953 H 1665.01 -0.742993 -5.68465 0
M  V30 17954 H 1663.41 -1.52513 -5.80396 0
M  V30 17955 H 1664.48 -1.92825 -4.44912 0
M  V30 17956 N 1665.82 1.49844 -0.488302 0
M  V30 17957 C 1666.75 2.26762 0.333396 0
M  V30 17958 C 1667.76 1.32785 0.941918 0
M  V30 17959 O 1668.95 1.58165 0.827407 0
M  V30 17960 C 1666.05 3.04721 1.48318 0
M  V30 17961 C 1665.23 4.26181 0.984303 0
M  V30 17962 C 1664.28 4.8629 2.01018 0
M  V30 17963 O 1663.31 5.4672 1.58384 0
M  V30 17964 N 1664.51 4.74813 3.33965 0
M  V30 17965 H 1667.28 2.97921 -0.32609 0
M  V30 17966 H 1664.84 1.58704 -0.320092 0
M  V30 17967 H 1666.83 3.4181 2.16676 0
M  V30 17968 H 1665.4 2.36251 2.04705 0
M  V30 17969 H 1664.62 3.93998 0.126039 0
M  V30 17970 H 1665.91 5.04895 0.62919 0
M  V30 17971 H 1665.31 4.26793 3.71301 0
M  V30 17972 H 1663.86 5.16122 3.98072 0
M  V30 17973 N 1667.3 0.221601 1.56034 0
M  V30 17974 C 1668.23 -0.720818 2.1757 0
M  V30 17975 C 1669.24 -1.15751 1.14479 0
M  V30 17976 O 1670.43 -1.08865 1.41459 0
M  V30 17977 C 1667.53 -1.98817 2.74454 0
M  V30 17978 C 1666.7 -1.70703 4.02715 0
M  V30 17979 C 1665.76 -2.82146 4.44162 0
M  V30 17980 O 1664.79 -2.50614 5.11059 0
M  V30 17981 N 1665.99 -4.11101 4.09849 0
M  V30 17982 H 1668.76 -0.194436 2.99069 0
M  V30 17983 H 1666.32 0.0405962 1.61849 0
M  V30 17984 H 1668.31 -2.72562 2.99152 0
M  V30 17985 H 1666.88 -2.42503 1.97258 0
M  V30 17986 H 1666.1 -0.806022 3.85872 0
M  V30 17987 H 1667.39 -1.49351 4.86387 0
M  V30 17988 H 1666.78 -4.39562 3.56092 0
M  V30 17989 H 1665.34 -4.81389 4.3944 0
M  V30 17990 N 1668.77 -1.57515 -0.0517878 0
M  V30 17991 C 1669.72 -2.06114 -1.07795 0
M  V30 17992 C 1670.72 -0.97034 -1.38855 0
M  V30 17993 O 1671.92 -1.15536 -1.38027 0
M  V30 17994 H 1668.3 -0.657451 -0.365051 0
M  V30 17995 H 1670.27 -2.9141 -0.642068 0
M  V30 17996 C 1669.02 -2.53728 -2.37734 0
M  V30 17997 H 1668.34 -3.37266 -2.14689 0
M  V30 17998 H 1669.78 -2.91466 -3.07934 0
M  V30 17999 C 1668.24 -1.42868 -3.05107 0
M  V30 18000 O 1668.77 -0.782025 -3.94014 0
M  V30 18001 N 1666.98 -1.16882 -2.66058 0
M  V30 18002 H 1666.52 -1.6965 -1.93847 0
M  V30 18003 H 1666.48 -0.429164 -3.11457 0
M  V30 18004 N 1670.25 0.323614 -1.54242 0
M  V30 18005 C 1671.18 1.40344 -1.86616 0
M  V30 18006 C 1672.16 1.53972 -0.722963 0
M  V30 18007 O 1673.35 1.67852 -0.976692 0
M  V30 18008 C 1670.48 2.77112 -2.09347 0
M  V30 18009 C 1669.43 2.78273 -3.25189 0
M  V30 18010 C 1668.76 4.18116 -3.33291 0
M  V30 18011 C 1670.06 2.42025 -4.6284 0
M  V30 18012 H 1671.75 1.13499 -2.77053 0
M  V30 18013 H 1669.3 0.544553 -1.33306 0
M  V30 18014 H 1671.25 3.52719 -2.3058 0
M  V30 18015 H 1669.98 3.05435 -1.1566 0
M  V30 18016 H 1668.64 2.05121 -3.03844 0
M  V30 18017 H 1668.28 4.4358 -2.37163 0
M  V30 18018 H 1667.98 4.19799 -4.11147 0
M  V30 18019 H 1669.51 4.95536 -3.56758 0
M  V30 18020 H 1670.92 3.07346 -4.83954 0
M  V30 18021 H 1669.32 2.5496 -5.43245 0
M  V30 18022 H 1670.39 1.37175 -4.65092 0
M  V30 18023 N 1671.73 1.46313 0.585673 0
M  V30 18024 C 1672.66 1.59511 1.70524 0
M  V30 18025 C 1673.64 0.445578 1.6416 0
M  V30 18026 O 1674.83 0.671455 1.82223 0
M  V30 18027 C 1671.96 1.58229 3.09162 0
M  V30 18028 C 1670.91 2.72122 3.30354 0
M  V30 18029 C 1670.24 2.559 4.69489 0
M  V30 18030 C 1671.54 4.13969 3.18476 0
M  V30 18031 H 1673.23 2.53229 1.59735 0
M  V30 18032 H 1670.78 1.2187 0.767046 0
M  V30 18033 H 1672.73 1.66056 3.87303 0
M  V30 18034 H 1671.45 0.610535 3.20843 0
M  V30 18035 H 1670.11 2.63759 2.54611 0
M  V30 18036 H 1669.76 1.56814 4.77931 0
M  V30 18037 H 1669.46 3.32289 4.84621 0
M  V30 18038 H 1670.99 2.65613 5.49802 0
M  V30 18039 H 1672.4 4.23459 3.86465 0
M  V30 18040 H 1670.8 4.90922 3.45131 0
M  V30 18041 H 1671.87 4.34334 2.15598 0
M  V30 18042 N 1673.21 -0.830057 1.33969 0
M  V30 18043 C 1674.16 -1.9292 1.21516 0
M  V30 18044 C 1675.14 -1.60482 0.115907 0
M  V30 18045 O 1676.34 -1.73608 0.344875 0
M  V30 18046 C 1673.46 -3.29442 0.96554 0
M  V30 18047 C 1672.55 -3.68021 2.10763 0
M  V30 18048 N 1672.94 -3.78222 3.3583 0
M  V30 18049 C 1671.24 -3.97821 2.01629 0
M  V30 18050 C 1671.94 -4.11858 4.10789 0
M  V30 18051 N 1670.92 -4.24698 3.39312 0
M  V30 18052 H 1674.72 -1.98974 2.16302 0
M  V30 18053 H 1672.23 -1.0233 1.26104 0
M  V30 18054 H 1674.23 -4.07991 0.857238 0
M  V30 18055 H 1672.89 -3.24689 0.0262975 0
M  V30 18056 H 1673.9 -3.61901 3.7047 0
M  V30 18057 H 1670.58 -4.01229 1.15418 0
M  V30 18058 H 1671.97 -4.27014 5.18757 0
M  V30 18059 N 1674.69 -1.17582 -1.04939 0
M  V30 18060 C 1675.94 -0.96387 -1.77634 0
M  V30 18061 C 1676.26 0.508548 -1.88252 0
M  V30 18062 O 1675.53 1.36913 -1.40113 0
M  V30 18063 H 1674.11 -0.353636 -0.65799 0
M  V30 18064 H 1676.77 -1.48104 -1.26693 0
M  V30 18065 H 1675.86 -1.39438 -2.79219 0
M  V30 18066 N 1676.17 1.23705 -0.976463 0
M  V30 18067 C 1677.4 1.95771 -0.660107 0
M  V30 18068 C 1677.8 1.72541 0.776297 0
M  V30 18069 O 1677.15 1.01134 1.53355 0
M  V30 18070 C 1677.21 3.4892 -0.865752 0
M  V30 18071 C 1676.87 3.95862 -2.28347 0
M  V30 18072 C 1677.87 4.04844 -3.26186 0
M  V30 18073 C 1675.55 4.28953 -2.61351 0
M  V30 18074 C 1677.55 4.46265 -4.55111 0
M  V30 18075 C 1675.24 4.70057 -3.905 0
M  V30 18076 C 1676.23 4.78679 -4.87192 0
M  V30 18077 O 1675.92 5.1886 -6.14035 0
M  V30 18078 H 1675.65 0.630202 -0.244585 0
M  V30 18079 H 1678.21 1.58255 -1.30937 0
M  V30 18080 H 1676.44 3.86372 -0.159321 0
M  V30 18081 H 1678.13 4.02195 -0.547154 0
M  V30 18082 H 1678.89 3.79486 -3.02018 0
M  V30 18083 H 1674.77 4.21456 -1.86803 0
M  V30 18084 H 1678.32 4.5291 -5.30583 0
M  V30 18085 H 1674.21 4.94863 -4.14464 0
M  V30 18086 H 1674.98 5.36984 -6.1773 0
M  V30 18087 N 1677.64 0.747635 1.38738 0
M  V30 18088 C 1678.61 0.124321 2.28863 0
M  V30 18089 C 1679.61 -0.653816 1.46908 0
M  V30 18090 O 1680.8 -0.480963 1.67429 0
M  V30 18091 C 1677.93 -0.832601 3.30576 0
M  V30 18092 H 1679.12 0.918492 2.85489 0
M  V30 18093 H 1676.67 0.514262 1.47598 0
M  V30 18094 H 1677.41 -1.65267 2.79029 0
M  V30 18095 H 1677.19 -0.277109 3.9112 0
M  V30 18096 H 1678.68 -1.2649 3.97982 0
M  V30 18097 N 1679.12 -1.49583 0.496242 0
M  V30 18098 C 1680.37 -2.02438 -0.049963 0
M  V30 18099 C 1680.7 -1.37632 -1.37433 0
M  V30 18100 O 1679.95 -0.499552 -1.89217 0
M  V30 18101 C 1680.25 -3.56482 -0.255949 0
M  V30 18102 C 1679.92 -4.39901 0.989824 0
M  V30 18103 C 1678.58 -4.62417 1.33132 0
M  V30 18104 C 1680.93 -4.88461 1.81811 0
M  V30 18105 C 1678.26 -5.30737 2.50071 0
M  V30 18106 C 1680.61 -5.58067 2.97899 0
M  V30 18107 C 1679.27 -5.7883 3.32434 0
M  V30 18108 H 1678.54 -0.740774 -0.0182828 0
M  V30 18109 H 1681.19 -1.79934 0.655434 0
M  V30 18110 H 1679.5 -3.77639 -1.04383 0
M  V30 18111 H 1681.19 -3.94967 -0.692943 0
M  V30 18112 H 1677.78 -4.22614 0.713811 0
M  V30 18113 H 1681.97 -4.70898 1.56743 0
M  V30 18114 H 1677.22 -5.45015 2.77072 0
M  V30 18115 H 1681.4 -5.9467 3.6241 0
M  V30 18116 H 1679.02 -6.31544 4.23151 0
M  V30 18117 N 1680.6 -0.229873 -1.55915 0
M  V30 18118 C 1681.82 0.4072 -2.03363 0
M  V30 18119 C 1682.25 1.5197 -1.10845 0
M  V30 18120 O 1681.61 1.81034 -0.098175 0
M  V30 18121 C 1681.66 0.908268 -3.48974 0
M  V30 18122 O 1680.76 2.01907 -3.59593 0
M  V30 18123 H 1680.1 0.091091 -0.657722 0
M  V30 18124 H 1682.63 -0.350947 -2.01568 0
M  V30 18125 H 1682.64 1.21593 -3.8946 0
M  V30 18126 H 1681.32 0.0940655 -4.15794 0
M  V30 18127 H 1679.89 1.71741 -3.30998 0
M  V30 18128 N 1682.08 1.5754 0.0434337 0
M  V30 18129 C 1683.01 2.02385 1.07577 0
M  V30 18130 C 1684.02 0.934273 1.33324 0
M  V30 18131 O 1685.21 1.2118 1.31064 0
M  V30 18132 C 1682.31 2.3719 2.42062 0
M  V30 18133 C 1681.48 3.68351 2.35874 0
M  V30 18134 C 1680.54 3.90506 3.52692 0
M  V30 18135 O 1679.57 4.61746 3.32836 0
M  V30 18136 N 1680.77 3.35035 4.74059 0
M  V30 18137 H 1683.54 2.91563 0.693641 0
M  V30 18138 H 1681.1 1.60234 0.231631 0
M  V30 18139 H 1683.09 2.49161 3.18906 0
M  V30 18140 H 1681.66 1.53758 2.72171 0
M  V30 18141 H 1680.88 3.66869 1.44224 0
M  V30 18142 H 1682.17 4.54419 2.28868 0
M  V30 18143 H 1681.57 2.77264 4.93094 0
M  V30 18144 H 1680.12 3.52409 5.48317 0
M  V30 18145 N 1683.56 -0.31543 1.54411 0
M  V30 18146 C 1684.83 -1.07113 1.63665 0
M  V30 18147 C 1685.21 -2.05671 0.475688 0
M  V30 18148 O 1684.56 -2.22288 -0.52918 0
M  V30 18149 C 1684.77 -1.76584 3.0103 0
M  V30 18150 C 1686.12 -2.29309 3.57355 0
M  V30 18151 O 1687.14 -1.86638 3.03388 0
M  V30 18152 O 1686 -3.07452 4.51814 0
M  V30 18153 H 1683.1 -0.494217 0.663083 0
M  V30 18154 H 1685.64 -0.31467 1.66757 0
M  V30 18155 H 1684.41 -1.0494 3.76966 0
M  V30 18156 H 1684.04 -2.5902 3.01653 0
M  V30 18157 N 1685.03 -1.46622 -0.577906 0
M  V30 18158 C 1685.94 -1.60143 -1.71439 0
M  V30 18159 C 1686.96 -0.484781 -1.6711 0
M  V30 18160 O 1688.14 -0.749551 -1.86932 0
M  V30 18161 C 1685.2 -1.59282 -3.07945 0
M  V30 18162 C 1684.26 -2.82216 -3.235 0
M  V30 18163 C 1683.5 -2.81387 -4.53495 0
M  V30 18164 O 1683.72 -1.90407 -5.37681 0
M  V30 18165 O 1682.65 -3.72991 -4.724 0
M  V30 18166 H 1686.48 -2.56265 -1.62978 0
M  V30 18167 H 1684.06 -1.2947 -0.745514 0
M  V30 18168 H 1685.95 -1.61515 -3.89218 0
M  V30 18169 H 1684.62 -0.663212 -3.16833 0
M  V30 18170 H 1683.53 -2.85536 -2.41702 0
M  V30 18171 H 1684.86 -3.74402 -3.19506 0
M  V30 18172 N 1686.51 0.822941 -1.34408 0
M  V30 18173 C 1687.46 1.95524 -1.25988 0
M  V30 18174 C 1688.45 1.68662 -0.157994 0
M  V30 18175 O 1689.66 1.77079 -0.322966 0
M  V30 18176 H 1686.04 0.642117 -0.391394 0
M  V30 18177 H 1688.01 1.99747 -2.21683 0
M  V30 18178 C 1686.76 3.32026 -1.03218 0
M  V30 18179 H 1686.08 3.53244 -1.87239 0
M  V30 18180 H 1687.52 4.11706 -1.01363 0
M  V30 18181 C 1685.98 3.3586 0.264523 0
M  V30 18182 O 1686.51 3.81232 1.26589 0
M  V30 18183 N 1684.71 2.89072 0.297626 0
M  V30 18184 H 1684.26 2.52341 -0.517836 0
M  V30 18185 H 1684.22 2.92019 1.165 0
M  V30 18186 N 1687.99 1.18137 1.04314 0
M  V30 18187 C 1689.24 0.973277 1.77121 0
M  V30 18188 C 1689.56 -0.498558 1.88519 0
M  V30 18189 O 1688.83 -1.36168 1.40837 0
M  V30 18190 H 1687.41 0.35712 0.656105 0
M  V30 18191 H 1690.07 1.48774 1.25906 0
M  V30 18192 H 1689.17 1.40917 2.78476 0
M  V30 18193 N 1689.47 -1.23186 0.98301 0
M  V30 18194 C 1690.72 -1.90979 0.648851 0
M  V30 18195 C 1691.03 -1.77508 -0.82159 0
M  V30 18196 O 1692.24 -2.40128 -1.26692 0
M  V30 18197 C 1690.69 -3.42357 1.10995 0
M  V30 18198 C 1690.3 -3.64483 2.60492 0
M  V30 18199 C 1692.04 -4.1591 0.849653 0
M  V30 18200 C 1689.95 -5.09511 3.00255 0
M  V30 18201 H 1688.88 -0.715125 0.238983 0
M  V30 18202 H 1691.53 -1.39575 1.19126 0
M  V30 18203 H 1689.91 -3.92885 0.495735 0
M  V30 18204 H 1691.09 -3.24491 3.27173 0
M  V30 18205 H 1689.4 -3.04245 2.84296 0
M  V30 18206 H 1692 -5.22784 1.12256 0
M  V30 18207 H 1692.34 -4.15748 -0.214237 0
M  V30 18208 H 1692.88 -3.71379 1.42557 0
M  V30 18209 H 1689.62 -5.14805 4.05778 0
M  V30 18210 H 1689.14 -5.50443 2.38269 0
M  V30 18211 H 1690.81 -5.77862 2.91005 0
M  V30 18212 N 1690.95 -0.754982 -1.38339 0
M  V30 18213 C 1692.19 -0.312224 -2.00382 0
M  V30 18214 C 1692.53 1.10362 -1.59793 0
M  V30 18215 O 1691.8 1.75611 -0.83613 0
M  V30 18216 C 1692.08 -0.436701 -3.57442 0
M  V30 18217 C 1691.94 -1.89376 -4.07991 0
M  V30 18218 C 1693.26 0.169083 -4.39775 0
M  V30 18219 H 1690.37 -0.114922 -0.727985 0
M  V30 18220 H 1693.02 -0.954887 -1.64262 0
M  V30 18221 H 1691.17 0.11043 -3.88343 0
M  V30 18222 H 1692.84 -2.4993 -3.87728 0
M  V30 18223 H 1691.08 -2.40834 -3.60807 0
M  V30 18224 H 1691.75 -1.932 -5.17086 0
M  V30 18225 H 1694.23 -0.297554 -4.15035 0
M  V30 18226 H 1693.1 0.0517531 -5.48876 0
M  V30 18227 H 1693.37 1.25754 -4.23838 0
M  V30 18228 N 1692.42 1.49318 -0.504168 0
M  V30 18229 C 1693.65 2.07365 0.038102 0
M  V30 18230 C 1694.07 1.36164 1.29773 0
M  V30 18231 O 1693.43 0.419365 1.76383 0
M  V30 18232 C 1693.48 3.59576 0.271535 0
M  V30 18233 O 1692.58 3.8983 1.34561 0
M  V30 18234 H 1691.93 0.663425 -0.0276328 0
M  V30 18235 H 1694.46 1.92081 -0.704696 0
M  V30 18236 H 1694.47 4.04899 0.502083 0
M  V30 18237 H 1693.14 4.10809 -0.648754 0
M  V30 18238 H 1691.72 3.56314 1.09976 0
M  V30 18239 N 1693.9 0.238138 1.5579 0
M  V30 18240 C 1694.83 -0.697701 2.18323 0
M  V30 18241 C 1695.85 -1.1453 1.15701 0
M  V30 18242 O 1697.04 -1.07359 1.42605 0
M  V30 18243 C 1694.14 -1.95895 2.76547 0
M  V30 18244 C 1693.31 -1.66422 4.04503 0
M  V30 18245 C 1692.37 -2.77419 4.4713 0
M  V30 18246 O 1691.39 -2.45179 5.13689 0
M  V30 18247 N 1692.6 -4.06731 4.14187 0
M  V30 18248 H 1695.36 -0.162705 2.99258 0
M  V30 18249 H 1692.92 0.0577602 1.61797 0
M  V30 18250 H 1694.91 -2.69374 3.02026 0
M  V30 18251 H 1693.48 -2.40398 1.99819 0
M  V30 18252 H 1692.7 -0.76505 3.86705 0
M  V30 18253 H 1693.99 -1.44183 4.87943 0
M  V30 18254 H 1693.39 -4.3576 3.60735 0
M  V30 18255 H 1691.95 -4.76701 4.44521 0
M  V30 18256 N 1695.38 -1.57561 -0.0350783 0
M  V30 18257 C 1696.61 -1.93644 -0.742753 0
M  V30 18258 C 1697.03 -0.837655 -1.68419 0
M  V30 18259 O 1696.39 0.207069 -1.80114 0
M  V30 18260 C 1696.44 -3.28779 -1.48111 0
M  V30 18261 O 1695.54 -3.20604 -2.59398 0
M  V30 18262 H 1694.88 -0.633103 -0.200192 0
M  V30 18263 H 1697.41 -2.04599 0.00765271 0
M  V30 18264 H 1697.42 -3.63527 -1.85236 0
M  V30 18265 H 1696.1 -4.08316 -0.790608 0
M  V30 18266 H 1694.67 -2.97477 -2.2486 0
M  V30 18267 N 1696.86 0.307236 -1.54576 0
M  V30 18268 C 1697.77 1.4014 -1.88143 0
M  V30 18269 C 1698.78 1.5579 -0.774952 0
M  V30 18270 O 1699.96 1.70574 -1.07082 0
M  V30 18271 C 1697.03 2.74613 -2.11633 0
M  V30 18272 C 1696.09 2.68001 -3.35371 0
M  V30 18273 C 1695.32 3.96061 -3.57731 0
M  V30 18274 O 1695.54 4.95119 -2.83219 0
M  V30 18275 O 1694.48 3.98331 -4.51238 0
M  V30 18276 H 1698.3 1.14677 -2.81217 0
M  V30 18277 H 1695.89 0.502739 -1.40687 0
M  V30 18278 H 1697.77 3.54186 -2.2832 0
M  V30 18279 H 1696.44 2.99933 -1.21746 0
M  V30 18280 H 1695.35 1.86922 -3.24054 0
M  V30 18281 H 1696.68 2.47635 -4.25368 0
M  V30 18282 N 1698.34 1.46926 0.570122 0
M  V30 18283 C 1699.58 1.53113 1.32982 0
M  V30 18284 C 1699.92 0.187401 1.93294 0
M  V30 18285 O 1699.19 -0.802585 1.77169 0
M  V30 18286 C 1699.47 2.63936 2.44969 0
M  V30 18287 C 1699.33 4.07882 1.8961 0
M  V30 18288 C 1700.65 2.70753 3.46959 0
M  V30 18289 H 1697.76 0.557398 0.482158 0
M  V30 18290 H 1700.41 1.78923 0.639259 0
M  V30 18291 H 1698.56 2.42059 3.03874 0
M  V30 18292 H 1700.23 4.41084 1.35066 0
M  V30 18293 H 1698.47 4.16768 1.20361 0
M  V30 18294 H 1699.14 4.81175 2.70508 0
M  V30 18295 H 1701.62 2.90452 2.97954 0
M  V30 18296 H 1700.49 3.50093 4.2276 0
M  V30 18297 H 1700.76 1.77299 4.04991 0
M  V30 18298 N 1699.82 -0.815801 1.34842 0
M  V30 18299 C 1701.06 -1.56747 1.26938 0
M  V30 18300 C 1701.38 -1.9497 -0.156887 0
M  V30 18301 O 1702.58 -2.69128 -0.358132 0
M  V30 18302 C 1701.04 -2.82832 2.22562 0
M  V30 18303 C 1700.65 -2.51883 3.70485 0
M  V30 18304 C 1702.39 -3.60849 2.23581 0
M  V30 18305 C 1700.3 -3.74204 4.57957 0
M  V30 18306 H 1699.23 -0.58832 0.471588 0
M  V30 18307 H 1701.88 -0.897551 1.60051 0
M  V30 18308 H 1700.26 -3.51486 1.8241 0
M  V30 18309 H 1701.44 -1.91294 4.19217 0
M  V30 18310 H 1699.75 -1.87129 3.71983 0
M  V30 18311 H 1702.35 -4.51686 2.86154 0
M  V30 18312 H 1702.69 -3.97496 1.23703 0
M  V30 18313 H 1703.22 -2.99146 2.62215 0
M  V30 18314 H 1699.96 -3.42672 5.58799 0
M  V30 18315 H 1699.48 -4.34051 4.13956 0
M  V30 18316 H 1701.16 -4.41536 4.72921 0
M  V30 18317 N 1701.29 -1.18689 -1.03686 0
M  V30 18318 C 1702.71 -0.937386 -1.29171 0
M  V30 18319 C 1702.91 0.394863 -1.97593 0
M  V30 18320 O 1701.97 1.12829 -2.25889 0
M  V30 18321 C 1703.28 -2.10568 -2.14666 0
M  V30 18322 C 1704.83 -2.14441 -2.28 0
M  V30 18323 C 1705.3 -3.30699 -3.16863 0
M  V30 18324 N 1706.79 -3.30584 -3.24451 0
M  V30 18325 C 1707.53 -4.17184 -3.93376 0
M  V30 18326 N 1707.02 -5.13924 -4.646 0
M  V30 18327 N 1708.82 -4.05086 -3.89694 0
M  V30 18328 H 1700.97 -2.04417 -0.576836 0
M  V30 18329 H 1703.23 -0.893404 -0.31707 0
M  V30 18330 H 1702.94 -3.06938 -1.71702 0
M  V30 18331 H 1702.81 -2.06955 -3.15356 0
M  V30 18332 H 1705.2 -1.18647 -2.70198 0
M  V30 18333 H 1705.28 -2.22111 -1.26888 0
M  V30 18334 H 1704.92 -4.26768 -2.75375 0
M  V30 18335 H 1704.85 -3.20266 -4.18016 0
M  V30 18336 H 1707.34 -2.60552 -2.73717 0
M  V30 18337 H 1707.66 -5.76368 -5.14801 0
M  V30 18338 H 1706 -5.1788 -4.63492 0
M  V30 18339 H 1709.19 -3.28793 -3.33186 0
M  V30 18340 H 1709.37 -4.72792 -4.43139 0
M  V30 18341 N 1702.77 1.22662 -0.989529 0
M  V30 18342 C 1703.73 2.22695 -0.542183 0
M  V30 18343 C 1704.73 1.56411 0.373132 0
M  V30 18344 O 1705.92 1.73412 0.165556 0
M  V30 18345 C 1703.06 3.40241 0.211841 0
M  V30 18346 H 1704.25 2.63786 -1.42678 0
M  V30 18347 H 1701.8 1.35654 -0.776377 0
M  V30 18348 H 1702.54 3.04618 1.11257 0
M  V30 18349 H 1702.32 3.89563 -0.445319 0
M  V30 18350 H 1703.81 4.14436 0.513107 0
M  V30 18351 N 1704.25 0.762308 1.37937 0
M  V30 18352 C 1705.48 0.332974 2.03899 0
M  V30 18353 C 1705.89 -1.04654 1.57621 0
M  V30 18354 O 1705.23 -1.67759 0.748504 0
M  V30 18355 C 1705.29 0.286844 3.58354 0
M  V30 18356 C 1704.96 1.60936 4.27725 0
M  V30 18357 C 1705.95 2.56012 4.52497 0
M  V30 18358 C 1703.64 1.88119 4.65743 0
M  V30 18359 C 1705.63 3.76486 5.14332 0
M  V30 18360 C 1703.32 3.08865 5.273 0
M  V30 18361 C 1704.32 4.02868 5.51531 0
M  V30 18362 O 1704.01 5.2149 6.11804 0
M  V30 18363 H 1703.74 0.138852 0.661586 0
M  V30 18364 H 1706.29 1.0346 1.77441 0
M  V30 18365 H 1704.52 -0.471086 3.8382 0
M  V30 18366 H 1706.21 -0.114146 4.05739 0
M  V30 18367 H 1706.98 2.36289 4.23547 0
M  V30 18368 H 1702.86 1.15783 4.46223 0
M  V30 18369 H 1706.4 4.49873 5.33161 0
M  V30 18370 H 1702.3 3.28477 5.55673 0
M  V30 18371 H 1703.06 5.22188 6.30287 0
M  V30 18372 N 1705.73 -1.49049 0.51208 0
M  V30 18373 C 1707 -1.95383 -0.0920331 0
M  V30 18374 C 1707.38 -1.4539 -1.53053 0
M  V30 18375 O 1706.73 -0.672485 -2.1838 0
M  V30 18376 C 1706.94 -3.48999 0.00673901 0
M  V30 18377 C 1708.29 -4.24292 -0.161602 0
M  V30 18378 O 1709.31 -3.56135 -0.0679198 0
M  V30 18379 O 1708.17 -5.45343 -0.355351 0
M  V30 18380 H 1705.27 -0.822175 -0.0891992 0
M  V30 18381 H 1707.81 -1.59647 0.575406 0
M  V30 18382 H 1706.59 -3.78055 1.00948 0
M  V30 18383 H 1706.21 -3.91383 -0.700353 0
M  V30 18384 N 1707.21 -0.246397 -1.55662 0
M  V30 18385 C 1708.43 0.382645 -2.03331 0
M  V30 18386 C 1708.85 1.51573 -1.12566 0
M  V30 18387 O 1708.21 1.81962 -0.139992 0
M  V30 18388 C 1708.26 0.890907 -3.5035 0
M  V30 18389 O 1707.98 -0.197023 -4.37657 0
M  V30 18390 C 1709.48 1.59069 -4.13778 0
M  V30 18391 H 1706.7 0.0909834 -0.664803 0
M  V30 18392 H 1709.24 -0.370113 -2.01123 0
M  V30 18393 H 1707.4 1.59385 -3.53094 0
M  V30 18394 H 1707.81 0.188846 -5.2416 0
M  V30 18395 H 1709.29 1.89805 -5.18342 0
M  V30 18396 H 1709.76 2.51248 -3.60238 0
M  V30 18397 H 1710.37 0.932333 -4.14955 0
M  V30 18398 N 1708.68 1.57577 0.026722 0
M  V30 18399 C 1709.91 1.9364 0.728771 0
M  V30 18400 C 1710.33 0.846352 1.68767 0
M  V30 18401 O 1709.68 -0.177038 1.81639 0
M  V30 18402 C 1709.73 3.29644 1.48381 0
M  V30 18403 O 1709.46 4.34462 0.563393 0
M  V30 18404 C 1710.96 3.80004 2.2828 0
M  V30 18405 H 1708.18 0.639025 0.204666 0
M  V30 18406 H 1710.72 2.04493 -0.016449 0
M  V30 18407 H 1708.88 3.20181 2.18089 0
M  V30 18408 H 1709.29 5.12982 1.09315 0
M  V30 18409 H 1710.76 4.77671 2.76649 0
M  V30 18410 H 1711.24 3.11319 3.09802 0
M  V30 18411 H 1711.85 3.92558 1.63642 0
M  V30 18412 N 1710.16 -0.299034 1.54737 0
M  V30 18413 C 1711.11 -1.36887 1.85824 0
M  V30 18414 C 1712.08 -1.50287 0.70733 0
M  V30 18415 O 1713.26 -1.65114 0.956143 0
M  V30 18416 C 1710.4 -2.7286 2.11286 0
M  V30 18417 C 1709.52 -2.67893 3.38906 0
M  V30 18418 C 1708.65 -3.95873 3.542 0
M  V30 18419 C 1707.69 -3.85312 4.75606 0
M  V30 18420 N 1706.83 -5.05072 4.87695 0
M  V30 18421 H 1711.67 -1.09676 2.77083 0
M  V30 18422 H 1709.2 -0.530427 1.37204 0
M  V30 18423 H 1711.16 -3.51938 2.24043 0
M  V30 18424 H 1709.79 -2.98327 1.23291 0
M  V30 18425 H 1708.84 -1.80669 3.34758 0
M  V30 18426 H 1710.16 -2.5598 4.28107 0
M  V30 18427 H 1709.31 -4.83389 3.66633 0
M  V30 18428 H 1708.05 -4.10622 2.63136 0
M  V30 18429 H 1707.05 -2.9618 4.63203 0
M  V30 18430 H 1708.28 -3.72106 5.68079 0
M  V30 18431 H 1706.23 -5.20281 3.99554 0
M  V30 18432 H 1706.14 -4.9559 5.709 0
M  V30 18433 H 1707.41 -5.94233 5.04487 0
M  V30 18434 N 1711.64 -1.47227 -0.562322 0
M  V30 18435 C 1712.57 -1.55383 -1.6849 0
M  V30 18436 C 1713.58 -0.440437 -1.56729 0
M  V30 18437 O 1714.77 -0.709803 -1.63781 0
M  V30 18438 C 1711.87 -1.43723 -3.06915 0
M  V30 18439 C 1711.05 -2.69541 -3.4448 0
M  V30 18440 C 1710.11 -2.5179 -4.62048 0
M  V30 18441 O 1709.13 -3.25587 -4.66885 0
M  V30 18442 N 1710.33 -1.59282 -5.5822 0
M  V30 18443 H 1713.1 -2.52181 -1.61941 0
M  V30 18444 H 1710.66 -1.43541 -0.748832 0
M  V30 18445 H 1712.65 -1.2959 -3.83391 0
M  V30 18446 H 1711.22 -0.550272 -3.07719 0
M  V30 18447 H 1710.44 -2.98472 -2.57504 0
M  V30 18448 H 1711.73 -3.53079 -3.66351 0
M  V30 18449 H 1711.13 -0.984666 -5.57064 0
M  V30 18450 H 1709.68 -1.51103 -6.34043 0
M  V30 18451 N 1713.12 0.808639 -1.35273 0
M  V30 18452 C 1714.53 1.10389 -1.15267 0
M  V30 18453 C 1714.73 2.01467 0.0362501 0
M  V30 18454 O 1713.79 2.42386 0.707477 0
M  V30 18455 C 1715.1 1.73685 -2.45467 0
M  V30 18456 C 1716.65 1.86115 -2.51655 0
M  V30 18457 C 1717.13 2.52826 -3.81894 0
M  V30 18458 N 1718.62 2.60313 -3.83134 0
M  V30 18459 C 1719.35 3.12694 -4.80635 0
M  V30 18460 N 1718.85 3.6553 -5.88523 0
M  V30 18461 N 1720.64 3.11228 -4.68074 0
M  V30 18462 H 1712.79 0.203141 -2.11426 0
M  V30 18463 H 1715.05 0.152706 -0.93562 0
M  V30 18464 H 1714.76 1.14228 -3.32633 0
M  V30 18465 H 1714.63 2.73406 -2.59864 0
M  V30 18466 H 1717.02 2.44715 -1.64919 0
M  V30 18467 H 1717.1 0.852547 -2.41175 0
M  V30 18468 H 1716.75 1.94875 -4.69027 0
M  V30 18469 H 1716.68 3.54219 -3.89662 0
M  V30 18470 H 1719.17 2.22878 -3.05178 0
M  V30 18471 H 1719.48 4.03793 -6.58917 0
M  V30 18472 H 1717.83 3.63734 -5.92218 0
M  V30 18473 H 1721.02 2.69228 -3.82928 0
M  V30 18474 H 1721.19 3.51745 -5.44224 0
M  V30 18475 N 1714.6 1.19237 1.03055 0
M  V30 18476 C 1716.01 0.996569 1.57878 0
M  V30 18477 C 1716.36 -0.450987 1.90946 0
M  V30 18478 O 1715.48 -1.33009 1.70697 0
M  V30 18479 C 1716.08 1.80272 2.86858 0
M  V30 18480 C 1714.64 1.65097 3.3826 0
M  V30 18481 C 1713.78 1.79079 2.11721 0
M  V30 18482 H 1716.74 1.33633 0.856037 0
M  V30 18483 H 1716.76 1.29781 3.57683 0
M  V30 18484 H 1716.27 2.85621 2.62759 0
M  V30 18485 H 1714.37 0.623267 3.6735 0
M  V30 18486 H 1714.48 2.45527 4.11404 0
M  V30 18487 H 1712.85 1.22124 2.23512 0
M  V30 18488 H 1713.63 2.85885 1.90065 0
M  V30 18489 N 1716.07 -1.22136 0.99602 0
M  V30 18490 C 1717.35 -1.86506 0.589466 0
M  V30 18491 C 1717.73 -1.89355 -0.933159 0
M  V30 18492 O 1717.08 -1.38634 -1.8164 0
M  V30 18493 C 1717.29 -3.27224 1.21349 0
M  V30 18494 C 1718.64 -4.03692 1.31597 0
M  V30 18495 O 1719.66 -3.36502 1.16812 0
M  V30 18496 O 1718.52 -5.23973 1.55289 0
M  V30 18497 H 1715.61 -0.802279 0.200692 0
M  V30 18498 H 1718.16 -1.2989 1.0921 0
M  V30 18499 H 1716.93 -3.19802 2.25483 0
M  V30 18500 H 1716.56 -3.91449 0.696645 0
M  V30 18501 N 1717.55 -0.769612 -1.37531 0
M  V30 18502 C 1718.46 -0.15514 -2.34086 0
M  V30 18503 C 1719.48 0.682108 -1.60073 0
M  V30 18504 O 1720.65 0.602527 -1.92176 0
M  V30 18505 C 1717.72 0.715344 -3.3924 0
M  V30 18506 C 1716.78 -0.138116 -4.29078 0
M  V30 18507 C 1716.01 0.690916 -5.29209 0
M  V30 18508 O 1716.24 1.92812 -5.36824 0
M  V30 18509 O 1715.17 0.101247 -6.01815 0
M  V30 18510 H 1719 -0.952968 -2.88361 0
M  V30 18511 H 1716.58 -0.530738 -1.39655 0
M  V30 18512 H 1718.46 1.21236 -4.03584 0
M  V30 18513 H 1717.14 1.4914 -2.87296 0
M  V30 18514 H 1716.05 -0.681443 -3.67841 0
M  V30 18515 H 1717.38 -0.877202 -4.8432 0
M  V30 18516 N 1719.03 1.48775 -0.519977 0
M  V30 18517 C 1720.28 2.03398 0.00969356 0
M  V30 18518 C 1720.63 1.39091 1.32934 0
M  V30 18519 O 1719.92 0.524027 1.84295 0
M  V30 18520 C 1720.12 3.56844 0.199204 0
M  V30 18521 C 1719.95 4.36026 -1.10052 0
M  V30 18522 C 1718.72 4.77338 -1.65762 0
M  V30 18523 C 1720.92 4.73454 -2.00862 0
M  V30 18524 N 1718.9 5.41017 -2.90127 0
M  V30 18525 C 1720.27 5.37049 -3.09804 0
M  V30 18526 C 1722.32 4.55388 -2.0131 0
M  V30 18527 C 1721.03 5.84488 -4.19246 0
M  V30 18528 C 1723.05 5.03801 -3.09739 0
M  V30 18529 C 1722.41 5.67412 -4.174 0
M  V30 18530 H 1718.51 0.78109 -0.0377045 0
M  V30 18531 H 1721.1 1.81718 -0.699042 0
M  V30 18532 H 1719.27 3.78369 0.877013 0
M  V30 18533 H 1721 3.98106 0.727582 0
M  V30 18534 H 1717.76 4.58138 -1.20029 0
M  V30 18535 H 1718.18 5.7743 -3.53417 0
M  V30 18536 H 1722.82 4.05598 -1.19374 0
M  V30 18537 H 1720.54 6.33289 -5.01967 0
M  V30 18538 H 1724.13 4.9162 -3.11129 0
M  V30 18539 H 1723.01 6.04195 -4.99919 0
M  V30 18540 O 1720.55 0.396475 1.56558 0
M  V30 18541 H 1721.24 -0.147011 1.93141 0
M  V30 END ATOM
M  V30 BEGIN BOND
M  V30 END BOND
M  V30 END CTAB
M  END
$$$$
