drugbank_target|Q9Y266 Nuclear migration protein nudC (DB12695)
 OpenBabel12092121073D

  0  0  0     0  0            999 V3000
M  V30 BEGIN CTAB
M  V30 COUNTS 5321 5360 0 0 0
M  V30 BEGIN ATOM
M  V30 1 H -0.908 1.98254 -0.117106 0
M  V30 2 N 0 1.576 0 0
M  V30 3 C 0.933 2.03868 1.02534 0
M  V30 4 C 1.911 0.928543 1.3348 0
M  V30 5 O 3.095 1.19667 1.45644 0
M  V30 6 C 0.222 2.43627 2.35294 0
M  V30 7 C -0.732 3.65373 2.2001 0
M  V30 8 S 0.101 5.13292 1.52614 0
M  V30 9 C 1.257 5.56322 2.86805 0
M  V30 10 H 1.49 2.90518 0.631377 0
M  V30 11 H -0.977 1.52953 0.210867 0
M  V30 12 H 0.981 2.67203 3.11629 0
M  V30 13 H -0.358 1.57376 2.7183 0
M  V30 14 H -1.165 3.90944 3.18086 0
M  V30 15 H -1.563 3.418 1.51819 0
M  V30 16 H 0.729 5.58782 3.83104 0
M  V30 17 H 1.672 6.56266 2.65933 0
M  V30 18 H 2.08 4.83886 2.90714 0
M  V30 19 N 1.4781 -0.272755 1.55222 0
M  V30 20 C 2.7261 -1.00234 1.75492 0
M  V30 21 C 3.0471 -1.8681 0.5592 0
M  V30 22 O 2.3171 -1.91215 -0.425882 0
M  V30 23 H 0.8971 -0.373076 0.647166 0
M  V30 24 H 3.5591 -0.296926 1.92625 0
M  V30 25 H 2.6551 -1.63913 2.65592 0
M  V30 26 N 2.9562 -1.48159 -0.537278 0
M  V30 27 C 4.2042 -1.55497 -1.29094 0
M  V30 28 C 4.5252 -0.227454 -1.93669 0
M  V30 29 O 3.7952 0.750386 -1.80959 0
M  V30 30 H 2.3752 -0.572832 -0.47945 0
M  V30 31 H 5.0372 -1.84579 -0.625818 0
M  V30 32 H 4.1332 -2.33216 -2.07405 0
M  V30 33 N 4.4343 0.785586 -1.36625 0
M  V30 34 C 5.3443 1.92964 -1.33425 0
M  V30 35 C 6.3603 1.72394 -0.235851 0
M  V30 36 O 7.5363 1.95866 -0.468878 0
M  V30 37 C 4.6013 3.27884 -1.12662 0
M  V30 38 C 3.6623 3.61204 -2.32013 0
M  V30 39 C 2.8953 4.89687 -2.12231 0
M  V30 40 O 3.1183 5.59704 -1.09945 0
M  V30 41 O 2.0523 5.21752 -3.00098 0
M  V30 42 H 5.8783 1.98613 -2.29753 0
M  V30 43 H 3.4633 0.926384 -1.17211 0
M  V30 44 H 5.3453 4.08614 -1.03016 0
M  V30 45 H 4.0203 3.23118 -0.193991 0
M  V30 46 H 2.9273 2.80765 -2.47228 0
M  V30 47 H 4.2603 3.70698 -3.23796 0
M  V30 48 N 5.9124 1.20967 1.01018 0
M  V30 49 C 6.8444 0.922059 2.09835 0
M  V30 50 C 7.8574 -0.0927106 1.62536 0
M  V30 51 O 9.0464 0.139127 1.77957 0
M  V30 52 C 6.1464 0.362004 3.36961 0
M  V30 53 C 5.3194 1.42986 4.13369 0
M  V30 54 C 4.3784 0.879976 5.1879 0
M  V30 55 O 3.4044 1.56219 5.47343 0
M  V30 56 N 4.6064 -0.307396 5.79686 0
M  V30 57 H 7.3714 1.8588 2.35093 0
M  V30 58 H 4.9324 1.11422 1.1746 0
M  V30 59 H 6.9244 -0.0201474 4.04695 0
M  V30 60 H 5.4944 -0.479437 3.08902 0
M  V30 61 H 4.7144 1.98608 3.40512 0
M  V30 62 H 6.0024 2.14885 4.61196 0
M  V30 63 H 5.4004 -0.878796 5.58832 0
M  V30 64 H 3.9574 -0.631115 6.48737 0
M  V30 65 N 7.3905 -1.2043 1.01659 0
M  V30 66 C 8.3005 -2.2689 0.596484 0
M  V30 67 C 9.3165 -1.70107 -0.36599 0
M  V30 68 O 10.4925 -2.00117 -0.226942 0
M  V30 69 C 7.5575 -3.4665 -0.0586659 0
M  V30 70 C 6.6185 -4.18662 0.949751 0
M  V30 71 C 5.8515 -5.32705 0.32577 0
M  V30 72 O 6.0745 -5.63656 -0.874509 0
M  V30 73 O 5.0085 -5.92803 1.04249 0
M  V30 74 H 8.8345 -2.65041 1.4828 0
M  V30 75 H 6.4195 -1.27048 0.786082 0
M  V30 76 H 8.3015 -4.19256 -0.424564 0
M  V30 77 H 6.9765 -3.10375 -0.91918 0
M  V30 78 H 5.8835 -3.48229 1.36702 0
M  V30 79 H 7.2165 -4.58878 1.78023 0
M  V30 80 N 8.8686 -0.792821 -1.36206 0
M  V30 81 C 9.7786 -0.194808 -2.3379 0
M  V30 82 C 10.7946 0.654869 -1.61206 0
M  V30 83 O 11.9706 0.569856 -1.9317 0
M  V30 84 C 9.0356 0.657721 -3.40404 0
M  V30 85 C 8.0966 -0.210849 -4.28782 0
M  V30 86 C 7.3296 0.601086 -5.30304 0
M  V30 87 O 7.5526 1.83682 -5.40016 0
M  V30 88 O 6.4866 -0.000808277 -6.019 0
M  V30 89 H 10.3126 -1.00172 -2.86704 0
M  V30 90 H 7.8976 -0.554341 -1.38735 0
M  V30 91 H 9.7796 1.14375 -4.05581 0
M  V30 92 H 8.4546 1.44247 -2.89784 0
M  V30 93 H 7.3616 -0.743714 -3.66633 0
M  V30 94 H 8.6946 -0.959195 -4.82763 0
M  V30 95 N 10.3467 1.47872 -0.545128 0
M  V30 96 C 11.2567 2.33633 0.212746 0
M  V30 97 C 12.2727 1.4744 0.923983 0
M  V30 98 O 13.4487 1.80393 0.895572 0
M  V30 99 C 10.5137 3.23884 1.23693 0
M  V30 100 C 9.5747 4.25961 0.534417 0
M  V30 101 C 8.8077 5.11899 1.5098 0
M  V30 102 O 9.0307 5.00077 2.7437 0
M  V30 103 O 7.9647 5.92831 1.0409 0
M  V30 104 H 11.7907 2.99714 -0.490416 0
M  V30 105 H 9.3757 1.46235 -0.305871 0
M  V30 106 H 11.2577 3.79666 1.82843 0
M  V30 107 H 9.9327 2.60446 1.92222 0
M  V30 108 H 8.8397 3.73972 -0.0979679 0
M  V30 109 H 10.1727 4.92079 -0.109213 0
M  V30 110 N 11.8248 0.280983 1.55075 0
M  V30 111 C 13.2408 -0.0729964 1.59433 0
M  V30 112 C 13.4408 -1.5411 1.29817 0
M  V30 113 O 12.4968 -2.29086 1.06187 0
M  V30 114 C 13.8098 0.306921 2.9913 0
M  V30 115 C 15.3578 0.254023 3.11968 0
M  V30 116 C 15.8328 0.608467 4.5394 0
M  V30 117 N 17.3238 0.560241 4.59799 0
M  V30 118 C 18.0588 0.80722 5.6769 0
M  V30 119 N 17.5548 1.11912 6.83701 0
M  V30 120 N 19.3478 0.735623 5.57266 0
M  V30 121 H 11.4988 1.238 1.7259 0
M  V30 122 H 13.7618 0.500547 0.805082 0
M  V30 123 H 13.4678 1.32816 3.25657 0
M  V30 124 H 13.3418 -0.349363 3.75579 0
M  V30 125 H 15.7288 -0.75794 2.852 0
M  V30 126 H 15.8098 0.944649 2.37718 0
M  V30 127 H 15.4538 1.61814 4.81434 0
M  V30 128 H 15.3838 -0.104013 5.26497 0
M  V30 129 H 17.8748 0.329288 3.76463 0
M  V30 130 H 18.1878 1.29409 7.61888 0
M  V30 131 H 16.5328 1.15695 6.85303 0
M  V30 132 H 19.7238 0.491752 4.6551 0
M  V30 133 H 19.8968 0.931482 6.4127 0
M  V30 134 N 13.3029 -1.57598 0.00835791 0
M  V30 135 C 14.5499 -1.90928 -0.674732 0
M  V30 136 C 14.8779 -0.88277 -1.73313 0
M  V30 137 O 14.1329 0.111294 -1.95383 0
M  V30 138 C 14.4319 -3.3101 -1.34787 0
M  V30 139 C 14.0979 -4.48922 -0.421861 0
M  V30 140 C 12.7599 -4.8091 -0.166927 0
M  V30 141 C 15.1119 -5.20755 0.215211 0
M  V30 142 C 12.4399 -5.821 0.733232 0
M  V30 143 C 14.7919 -6.22905 1.1033 0
M  V30 144 C 13.4559 -6.53346 1.36733 0
M  V30 145 H 12.7259 -0.698656 -0.246902 0
M  V30 146 H 15.3729 -1.91387 0.0656779 0
M  V30 147 H 13.6779 -3.26714 -2.16253 0
M  V30 148 H 15.3749 -3.54061 -1.8826 0
M  V30 149 H 11.9649 -4.23934 -0.630729 0
M  V30 150 H 16.1489 -4.9629 0.0312829 0
M  V30 151 H 11.4049 -6.04042 0.945712 0
M  V30 152 H 15.5789 -6.77694 1.60325 0
M  V30 153 H 13.2059 -7.31573 2.06652 0
M  V30 154 N 14.781 0.264519 -1.55364 0
M  V30 155 C 16.058 1.01677 -1.67096 0
M  V30 156 C 16.438 2.03996 -0.543015 0
M  V30 157 O 15.786 2.23907 0.45585 0
M  V30 158 C 15.996 1.66596 -3.0667 0
M  V30 159 C 17.344 2.17442 -3.64697 0
M  V30 160 O 18.368 1.76568 -3.09358 0
M  V30 161 O 17.227 2.92439 -4.61673 0
M  V30 162 H 14.321 0.472161 -0.678965 0
M  V30 163 H 16.867 0.259703 -1.67701 0
M  V30 164 H 15.639 0.924962 -3.80211 0
M  V30 165 H 15.262 2.48968 -3.10001 0
M  V30 166 N 16.2591 1.48442 0.529413 0
M  V30 167 C 17.5071 1.56179 1.28267 0
M  V30 168 C 17.8281 0.237721 1.93546 0
M  V30 169 O 17.0981 -0.740779 1.81354 0
M  V30 170 H 15.6781 0.575367 0.476405 0
M  V30 171 H 18.3401 1.84909 0.61602 0
M  V30 172 H 17.4361 2.34312 2.06165 0
M  V30 173 N 17.7372 -0.778329 1.37039 0
M  V30 174 C 18.6702 -1.8984 1.26633 0
M  V30 175 C 19.6482 -1.61923 0.148197 0
M  V30 176 O 20.8322 -1.85742 0.321265 0
M  V30 177 C 17.9592 -3.24916 0.956403 0
M  V30 178 C 17.0052 -3.71752 2.09051 0
M  V30 179 S 17.8382 -3.86201 3.70957 0
M  V30 180 C 18.9942 -5.24135 3.42101 0
M  V30 181 H 19.2272 -1.98377 2.21436 0
M  V30 182 H 16.7602 -0.938738 1.22585 0
M  V30 183 H 18.7182 -4.02936 0.784409 0
M  V30 184 H 17.3792 -3.14089 0.0259713 0
M  V30 185 H 16.5722 -4.69661 1.8285 0
M  V30 186 H 16.1742 -3.00815 2.2223 0
M  V30 187 H 18.4662 -6.09086 2.96682 0
M  V30 188 H 19.4092 -5.55346 4.39314 0
M  V30 189 H 19.8172 -4.91761 2.77185 0
M  V30 190 N 19.2153 -1.21501 -1.00376 0
M  V30 191 C 20.1453 -0.999478 -2.11028 0
M  V30 192 C 21.1263 0.0759671 -1.6993 0
M  V30 193 O 22.3113 -0.0841106 -1.94018 0
M  V30 194 C 19.4413 -0.564709 -3.42678 0
M  V30 195 C 18.3953 -1.58486 -3.97576 0
M  V30 196 C 17.7213 -1.00628 -5.25146 0
M  V30 197 C 19.0213 -2.97204 -4.29496 0
M  V30 198 H 20.7153 -1.92495 -2.29317 0
M  V30 199 H 18.2613 -0.92693 -1.102 0
M  V30 200 H 20.2143 -0.401091 -4.19487 0
M  V30 201 H 18.9383 0.396411 -3.24185 0
M  V30 202 H 17.5973 -1.73606 -3.22888 0
M  V30 203 H 17.2453 -0.0368439 -5.02987 0
M  V30 204 H 16.9453 -1.68771 -5.62841 0
M  V30 205 H 18.4693 -0.854015 -6.04598 0
M  V30 206 H 19.8833 -2.8552 -4.97143 0
M  V30 207 H 18.2803 -3.62372 -4.78338 0
M  V30 208 H 19.3503 -3.47956 -3.3772 0
M  V30 209 N 20.6934 1.19889 -1.02296 0
M  V30 210 C 21.6234 2.25141 -0.619174 0
M  V30 211 C 22.6044 1.66051 0.368915 0
M  V30 212 O 23.7894 1.92546 0.252941 0
M  V30 213 C 20.9194 3.4728 0.0368783 0
M  V30 214 C 19.8734 4.19005 -0.872865 0
M  V30 215 C 19.1994 5.34637 -0.0822402 0
M  V30 216 C 20.4994 4.74452 -2.18387 0
M  V30 217 H 22.1934 2.59171 -1.49903 0
M  V30 218 H 19.7394 1.24579 -0.722222 0
M  V30 219 H 21.6924 4.20098 0.330958 0
M  V30 220 H 20.4164 3.12433 0.95149 0
M  V30 221 H 19.0754 3.48061 -1.15105 0
M  V30 222 H 18.7234 4.96034 0.83422 0
M  V30 223 H 18.4234 5.83557 -0.688149 0
M  V30 224 H 19.9474 6.10255 0.205238 0
M  V30 225 H 21.3614 5.39055 -1.95172 0
M  V30 226 H 19.7584 5.33834 -2.74119 0
M  V30 227 H 20.8284 3.92844 -2.84257 0
M  V30 228 N 22.1715 0.800033 1.35784 0
M  V30 229 C 23.1345 0.211565 2.28221 0
M  V30 230 C 24.1345 -0.59728 1.49296 0
M  V30 231 O 25.3245 -0.416721 1.69142 0
M  V30 232 C 22.4565 -0.705846 3.33513 0
M  V30 233 H 23.6495 1.02677 2.81776 0
M  V30 234 H 21.2025 0.570211 1.45528 0
M  V30 235 H 21.9375 -1.54498 2.85133 0
M  V30 236 H 21.7225 -0.127655 3.91892 0
M  V30 237 H 23.2125 -1.11211 4.02519 0
M  V30 238 N 23.6496 -1.47581 0.552962 0
M  V30 239 C 24.5826 -2.26883 -0.244857 0
M  V30 240 C 25.5606 -1.33784 -0.924147 0
M  V30 241 O 26.7446 -1.6316 -0.943981 0
M  V30 242 C 23.8716 -3.10695 -1.34856 0
M  V30 243 C 22.9176 -4.19339 -0.778268 0
M  V30 244 S 23.7506 -5.34207 0.37184 0
M  V30 245 C 24.9066 -6.21584 -0.733779 0
M  V30 246 H 25.1396 -2.94202 0.428087 0
M  V30 247 H 22.6726 -1.50628 0.339197 0
M  V30 248 H 24.6306 -3.59555 -1.98066 0
M  V30 249 H 23.2916 -2.42746 -1.99332 0
M  V30 250 H 22.4846 -4.77695 -1.60696 0
M  V30 251 H 22.0866 -3.73338 -0.222422 0
M  V30 252 H 24.3786 -6.57676 -1.62692 0
M  V30 253 H 25.3216 -7.07851 -0.187668 0
M  V30 254 H 25.7296 -5.55125 -1.02454 0
M  V30 255 N 25.1277 -0.289203 -1.54924 0
M  V30 256 C 26.0907 0.579144 -2.21762 0
M  V30 257 C 27.0907 1.07047 -1.1999 0
M  V30 258 O 28.2807 0.968384 -1.44803 0
M  V30 259 C 25.4127 1.80055 -2.8947 0
M  V30 260 H 26.6057 -0.00464908 -2.999 0
M  V30 261 H 24.1587 -0.0399306 -1.56249 0
M  V30 262 H 24.8937 2.42449 -2.15381 0
M  V30 263 H 24.6787 1.45602 -3.64064 0
M  V30 264 H 26.1687 2.41773 -3.40493 0
M  V30 265 N 26.6058 1.57591 -0.0167156 0
M  V30 266 C 27.5378 2.06343 0.997753 0
M  V30 267 C 28.5508 0.984469 1.29661 0
M  V30 268 O 29.7398 1.26093 1.26344 0
M  V30 269 C 26.8398 2.46255 2.32834 0
M  V30 270 C 26.0128 3.77083 2.21646 0
M  V30 271 C 25.0718 4.0368 3.37534 0
M  V30 272 O 24.0978 4.7411 3.14973 0
M  V30 273 N 25.2998 3.52881 4.60929 0
M  V30 274 H 28.0648 2.93997 0.581875 0
M  V30 275 H 25.6258 1.61002 0.170316 0
M  V30 276 H 27.6178 2.61149 3.09166 0
M  V30 277 H 26.1878 1.64032 2.66106 0
M  V30 278 H 25.4078 3.72106 1.30119 0
M  V30 279 H 26.6958 4.62822 2.11361 0
M  V30 280 H 26.0938 2.95878 4.82154 0
M  V30 281 H 24.6508 3.73076 5.34469 0
M  V30 282 N 28.0839 -0.256276 1.55502 0
M  V30 283 C 29.0159 -1.33981 1.85962 0
M  V30 284 C 30.0289 -1.44743 0.745212 0
M  V30 285 O 31.2179 -1.4626 1.02324 0
M  V30 286 C 28.3179 -2.7194 2.02242 0
M  V30 287 C 27.4909 -2.83562 3.33033 0
M  V30 288 C 26.5499 -4.02304 3.39172 0
M  V30 289 O 25.5759 -3.92273 4.12444 0
M  V30 290 N 26.7779 -5.15045 2.67784 0
M  V30 291 H 29.5429 -1.08191 2.7949 0
M  V30 292 H 27.1039 -0.446388 1.55624 0
M  V30 293 H 29.0959 -3.49697 2.03701 0
M  V30 294 H 27.6659 -2.90479 1.15502 0
M  V30 295 H 26.8859 -1.92555 3.43971 0
M  V30 296 H 28.1739 -2.88271 4.19258 0
M  V30 297 H 27.5719 -5.26085 2.07968 0
M  V30 298 H 26.1289 -5.90972 2.74947 0
M  V30 299 N 29.562 -1.4872 -0.521534 0
M  V30 300 C 30.512 -1.60269 -1.62166 0
M  V30 301 C 31.496 -0.45935 -1.54204 0
M  V30 302 O 32.688 -0.711241 -1.62081 0
M  V30 303 C 29.817 -1.65344 -3.00859 0
M  V30 304 C 28.903 -2.85187 -3.13894 0
M  V30 305 N 29.294 -4.09509 -2.96877 0
M  V30 306 C 27.592 -2.82695 -3.44963 0
M  V30 307 C 28.293 -4.89959 -3.13552 0
M  V30 308 N 27.269 -4.22934 -3.41508 0
M  V30 309 H 31.071 -2.5413 -1.47632 0
M  V30 310 H 28.585 -1.45209 -0.727194 0
M  V30 311 H 30.582 -1.71713 -3.79895 0
M  V30 312 H 29.242 -0.726058 -3.16478 0
M  V30 313 H 30.253 -4.39814 -2.73467 0
M  V30 314 H 26.93 -1.99249 -3.66887 0
M  V30 315 H 28.32 -5.98654 -3.05061 0
M  V30 316 N 31.0401 0.771051 -1.3745 0
M  V30 317 C 31.9501 1.91538 -1.35464 0
M  V30 318 C 32.9661 1.72134 -0.254123 0
M  V30 319 O 34.1421 1.95358 -0.489626 0
M  V30 320 C 31.2071 3.26671 -1.16134 0
M  V30 321 C 30.2681 3.58723 -2.35831 0
M  V30 322 C 29.5011 4.87409 -2.17413 0
M  V30 323 O 29.7241 5.58506 -1.15876 0
M  V30 324 O 28.6581 5.18539 -3.05615 0
M  V30 325 H 32.4841 1.96165 -2.31847 0
M  V30 326 H 30.0691 0.9139 -1.18187 0
M  V30 327 H 31.9511 4.07499 -1.07345 0
M  V30 328 H 30.6261 3.22894 -0.228251 0
M  V30 329 H 29.5331 2.78127 -2.50192 0
M  V30 330 H 30.8661 3.67243 -3.27709 0
M  V30 331 N 32.5182 1.22032 0.997298 0
M  V30 332 C 33.7662 1.04016 1.73278 0
M  V30 333 C 34.0872 -0.426255 1.90284 0
M  V30 334 O 33.3572 -1.30694 1.45931 0
M  V30 335 H 31.9372 0.381897 0.642 0
M  V30 336 H 34.5992 1.5347 1.20137 0
M  V30 337 H 33.6952 1.51441 2.72896 0
M  V30 338 N 33.9963 -1.19345 1.0293 0
M  V30 339 C 35.2443 -1.88665 0.724574 0
M  V30 340 C 35.5653 -1.80036 -0.749144 0
M  V30 341 O 34.8353 -1.2111 -1.53978 0
M  V30 342 H 33.4153 -0.698406 0.265025 0
M  V30 343 H 36.0773 -1.44885 1.30362 0
M  V30 344 H 35.1733 -2.94987 1.01926 0
M  V30 345 N 35.4744 -0.807222 -1.35358 0
M  V30 346 C 36.7204 -0.388463 -1.99045 0
M  V30 347 C 37.0534 1.04184 -1.63888 0
M  V30 348 O 36.3284 1.72292 -0.902535 0
M  V30 349 C 36.6114 -0.572783 -3.55515 0
M  V30 350 C 36.4644 -2.04807 -4.00468 0
M  V30 351 C 37.7834 0.00114064 -4.401 0
M  V30 352 H 34.9024 -0.142619 -0.723069 0
M  V30 353 H 37.5444 -1.01687 -1.60498 0
M  V30 354 H 35.6944 -0.0378425 -3.88482 0
M  V30 355 H 37.3664 -2.64544 -3.77908 0
M  V30 356 H 35.6094 -2.54427 -3.51353 0
M  V30 357 H 36.2804 -2.12792 -5.09337 0
M  V30 358 H 38.7564 -0.455716 -4.13597 0
M  V30 359 H 37.6324 -0.157737 -5.48673 0
M  V30 360 H 37.8934 1.09488 -4.28328 0
M  V30 361 N 36.9525 1.47285 -0.560781 0
M  V30 362 C 37.8845 2.28118 0.222438 0
M  V30 363 C 38.8975 1.37219 0.876056 0
M  V30 364 O 40.0865 1.62011 0.749307 0
M  V30 365 C 37.1865 3.1159 1.33285 0
M  V30 366 C 36.3595 4.30473 0.77534 0
M  V30 367 C 35.4185 4.95513 1.77069 0
M  V30 368 O 34.4445 5.53792 1.31539 0
M  V30 369 N 35.6465 4.90531 3.10418 0
M  V30 370 H 38.4115 2.95976 -0.470958 0
M  V30 371 H 35.9725 1.56955 -0.39709 0
M  V30 372 H 37.9645 3.51967 1.99752 0
M  V30 373 H 36.5345 2.45951 1.92943 0
M  V30 374 H 35.7545 3.94144 -0.0662113 0
M  V30 375 H 37.0425 5.07362 0.382272 0
M  V30 376 H 36.4405 4.44389 3.5005 0
M  V30 377 H 34.9975 5.34917 3.72434 0
M  V30 378 N 38.4306 0.297415 1.54768 0
M  V30 379 C 39.3406 -0.58983 2.27064 0
M  V30 380 C 40.3566 -1.15144 1.30453 0
M  V30 381 O 41.5326 -1.17699 1.63428 0
M  V30 382 C 38.5976 -1.74714 2.9946 0
M  V30 383 C 37.6586 -1.21997 4.11601 0
M  V30 384 C 36.8916 -2.32212 4.80535 0
M  V30 385 O 37.1146 -3.52036 4.48806 0
M  V30 386 O 36.0486 -1.99106 5.68014 0
M  V30 387 H 39.8746 -0.00348199 3.037 0
M  V30 388 H 37.4596 0.0640035 1.49263 0
M  V30 389 H 39.3416 -2.42147 3.44881 0
M  V30 390 H 38.0166 -2.32016 2.25722 0
M  V30 391 H 36.9236 -0.511458 3.70587 0
M  V30 392 H 38.2566 -0.692419 4.87305 0
M  V30 393 N 39.9087 -1.5758 0.0250728 0
M  V30 394 C 40.8387 -2.13007 -0.956575 0
M  V30 395 C 41.8197 -1.0452 -1.342 0
M  V30 396 O 43.0047 -1.32332 -1.42133 0
M  V30 397 C 40.1347 -2.65386 -2.24026 0
M  V30 398 C 39.0887 -3.78623 -1.99571 0
M  V30 399 C 38.4147 -4.17414 -3.3417 0
M  V30 400 C 39.7147 -5.04867 -1.33814 0
M  V30 401 H 41.4087 -2.9528 -0.494991 0
M  V30 402 H 38.9547 -1.42042 -0.236651 0
M  V30 403 H 40.9077 -3.02794 -2.93076 0
M  V30 404 H 39.6317 -1.80268 -2.72343 0
M  V30 405 H 38.2907 -3.41646 -1.32941 0
M  V30 406 H 37.9387 -3.29284 -3.80238 0
M  V30 407 H 37.6387 -4.93719 -3.18615 0
M  V30 408 H 39.1627 -4.57402 -4.04495 0
M  V30 409 H 40.5767 -5.39888 -1.92857 0
M  V30 410 H 38.9737 -5.86144 -1.28669 0
M  V30 411 H 40.0437 -4.83904 -0.310561 0
M  V30 412 N 41.3868 0.248026 -1.55636 0
M  V30 413 C 42.6328 0.97767 -1.77678 0
M  V30 414 C 42.9658 1.85016 -0.590135 0
M  V30 415 O 42.2408 1.90095 0.411611 0
M  V30 416 C 42.5238 1.83914 -3.09593 0
M  V30 417 C 42.3768 0.99491 -4.38659 0
M  V30 418 C 43.6958 2.82183 -3.37729 0
M  V30 419 H 40.8148 0.354005 -0.646413 0
M  V30 420 H 43.4568 0.248253 -1.88371 0
M  V30 421 H 41.6068 2.46104 -3.00608 0
M  V30 422 H 43.2788 0.391789 -4.59633 0
M  V30 423 H 41.5218 0.299231 -4.32767 0
M  V30 424 H 42.1928 1.63145 -5.2734 0
M  V30 425 H 44.6688 2.30129 -3.4667 0
M  V30 426 H 43.5448 3.39582 -4.31249 0
M  V30 427 H 43.8058 3.58588 -2.58586 0
M  V30 428 N 42.8649 1.48995 0.513639 0
M  V30 429 C 43.8129 1.65199 1.63744 0
M  V30 430 C 44.8069 0.51809 1.61283 0
M  V30 431 O 46.0129 0.697335 1.65943 0
M  V30 432 H 42.3879 0.52069 0.542574 0
M  V30 433 H 44.3589 2.59552 1.47226 0
M  V30 434 C 43.1079 1.72409 3.01945 0
M  V30 435 H 42.4309 2.59029 3.04539 0
M  V30 436 H 43.8709 1.87785 3.80148 0
M  V30 437 C 42.3299 0.46618 3.33659 0
M  V30 438 O 42.8599 -0.413744 3.99564 0
M  V30 439 N 41.0659 0.332931 2.88687 0
M  V30 440 H 40.6129 1.04996 2.35231 0
M  V30 441 H 40.5709 -0.507665 3.10274 0
M  V30 442 N 44.343 -0.763751 1.37857 0
M  V30 443 C 45.571 -1.55293 1.36718 0
M  V30 444 C 45.986 -1.88745 -0.0455434 0
M  V30 445 O 45.343 -1.52039 -1.00947 0
M  V30 446 C 45.394 -2.85831 2.2132 0
M  V30 447 O 45.115 -2.5381 3.57089 0
M  V30 448 C 46.616 -3.80023 2.28249 0
M  V30 449 H 43.836 -0.480841 0.468009 0
M  V30 450 H 46.38 -0.946009 1.81303 0
M  V30 451 H 44.535 -3.42926 1.80223 0
M  V30 452 H 44.949 -3.37459 4.01524 0
M  V30 453 H 46.423 -4.68599 2.91752 0
M  V30 454 H 46.9 -4.1973 1.2932 0
M  V30 455 H 47.506 -3.28855 2.69693 0
M  V30 456 N 45.8211 -1.22559 -0.990812 0
M  V30 457 C 47.0681 -1.05141 -1.73065 0
M  V30 458 C 47.3961 0.413191 -1.9006 0
M  V30 459 O 46.6511 1.32257 -1.44245 0
M  V30 460 C 46.9501 -1.71011 -3.13831 0
M  V30 461 C 46.6161 -3.20911 -3.16745 0
M  V30 462 C 45.2781 -3.61812 -3.17247 0
M  V30 463 C 47.6301 -4.16846 -3.12872 0
M  V30 464 C 44.9581 -4.97127 -3.1158 0
M  V30 465 C 47.3101 -5.5214 -3.08746 0
M  V30 466 C 45.9741 -5.92419 -3.07565 0
M  V30 467 H 45.2441 -0.384738 -0.633291 0
M  V30 468 H 47.8911 -1.5235 -1.16025 0
M  V30 469 H 46.1961 -1.16133 -3.74193 0
M  V30 470 H 47.8931 -1.55023 -3.69823 0
M  V30 471 H 44.4831 -2.88344 -3.17105 0
M  V30 472 H 48.6671 -3.86263 -3.11632 0
M  V30 473 H 43.9231 -5.27562 -3.09012 0
M  V30 474 H 48.0971 -6.26201 -3.04705 0
M  V30 475 H 45.7241 -6.97236 -3.02929 0
M  V30 476 N 47.2992 1.18797 -1.03562 0
M  V30 477 C 48.5462 1.8865 -0.736023 0
M  V30 478 C 48.8742 1.80041 0.735889 0
M  V30 479 O 48.1292 1.19179 1.55225 0
M  V30 480 C 48.4282 3.38692 -1.14117 0
M  V30 481 C 48.0942 3.67504 -2.6125 0
M  V30 482 C 46.7562 3.75078 -3.01447 0
M  V30 483 C 49.1082 3.80293 -3.56408 0
M  V30 484 C 46.4362 3.92915 -4.35701 0
M  V30 485 C 48.7882 3.99645 -4.90374 0
M  V30 486 C 47.4522 4.05453 -5.30249 0
M  V30 487 H 46.7222 0.690321 -0.26933 0
M  V30 488 H 49.3692 1.40641 -1.29971 0
M  V30 489 H 47.6742 3.88645 -0.496202 0
M  V30 490 H 49.3712 3.91072 -0.886789 0
M  V30 491 H 45.9612 3.62223 -2.29113 0
M  V30 492 H 50.1452 3.73779 -3.26501 0
M  V30 493 H 45.4012 3.95653 -4.66121 0
M  V30 494 H 49.5752 4.08482 -5.64017 0
M  V30 495 H 47.2022 4.19027 -6.34288 0
M  V30 496 N 48.7773 0.814389 1.34928 0
M  V30 497 C 50.0023 0.410097 2.03305 0
M  V30 498 C 50.4273 -0.973464 1.60951 0
M  V30 499 O 49.7853 -1.63185 0.789964 0
M  V30 500 C 49.8333 0.51049 3.56968 0
M  V30 501 O 48.9373 -0.473035 4.09678 0
M  V30 502 H 48.2783 0.170088 0.641846 0
M  V30 503 H 50.8083 1.10244 1.72358 0
M  V30 504 H 50.8183 0.383135 4.06197 0
M  V30 505 H 49.4933 1.51963 3.87144 0
M  V30 506 H 48.0703 -0.305272 3.71648 0
M  V30 507 N 50.2554 -1.46986 0.568584 0
M  V30 508 C 51.5024 -2.02441 0.0487986 0
M  V30 509 C 51.8304 -1.44169 -1.30559 0
M  V30 510 O 51.0854 -0.591213 -1.86556 0
M  V30 511 C 51.3844 -3.57306 -0.081836 0
M  V30 512 C 51.0504 -4.34552 1.20313 0
M  V30 513 C 49.7124 -4.55376 1.5552 0
M  V30 514 C 52.0644 -4.79016 2.05411 0
M  V30 515 C 49.3924 -5.17913 2.7565 0
M  V30 516 C 51.7444 -5.42879 3.24754 0
M  V30 517 C 50.4084 -5.61933 3.60261 0
M  V30 518 H 49.6784 -0.740785 0.0178567 0
M  V30 519 H 52.3254 -1.76525 0.742384 0
M  V30 520 H 50.6304 -3.8228 -0.858463 0
M  V30 521 H 52.3274 -3.97876 -0.499546 0
M  V30 522 H 48.9174 -4.18631 0.919014 0
M  V30 523 H 53.1014 -4.62696 1.79516 0
M  V30 524 H 48.3574 -5.30858 3.03315 0
M  V30 525 H 52.5314 -5.76293 3.90973 0
M  V30 526 H 50.1584 -6.10161 4.53439 0
M  V30 527 N 51.7335 -0.305618 -1.54608 0
M  V30 528 C 52.6635 0.561482 -2.26649 0
M  V30 529 C 53.6445 1.13415 -1.26772 0
M  V30 530 O 54.8295 1.16262 -1.55553 0
M  V30 531 C 51.9595 1.73122 -3.01075 0
M  V30 532 C 50.9135 1.2887 -4.08138 0
M  V30 533 C 50.2395 2.54396 -4.70305 0
M  V30 534 C 51.5395 0.416578 -5.20636 0
M  V30 535 H 53.2335 -0.0393902 -2.99374 0
M  V30 536 H 50.7795 -0.020385 -1.43986 0
M  V30 537 H 52.7325 2.34396 -3.50195 0
M  V30 538 H 51.4565 2.3584 -2.25936 0
M  V30 539 H 50.1155 0.698991 -3.59875 0
M  V30 540 H 49.7635 3.15439 -3.918 0
M  V30 541 H 49.4635 2.25486 -5.42614 0
M  V30 542 H 50.9875 3.16464 -5.2219 0
M  V30 543 H 52.4015 0.935116 -5.65622 0
M  V30 544 H 50.7985 0.221046 -5.99693 0
M  V30 545 H 51.8685 -0.557162 -4.81688 0
M  V30 546 N 53.2116 1.57565 -0.0334293 0
M  V30 547 C 54.6276 1.56297 0.322997 0
M  V30 548 C 54.8276 1.03945 1.7262 0
M  V30 549 O 53.8836 0.688109 2.42943 0
M  V30 550 C 55.1966 3.00232 0.167664 0
M  V30 551 C 56.7446 3.12078 0.240107 0
M  V30 552 C 57.2196 4.57859 0.113513 0
M  V30 553 N 58.7106 4.62887 0.170359 0
M  V30 554 C 59.4456 5.73319 0.0962517 0
M  V30 555 N 58.9416 6.92794 -0.0291881 0
M  V30 556 N 60.7346 5.61898 0.150551 0
M  V30 557 H 52.8856 1.89923 -0.950956 0
M  V30 558 H 55.1486 0.873824 -0.367608 0
M  V30 559 H 54.8546 3.42501 -0.799102 0
M  V30 560 H 54.7286 3.654 0.936083 0
M  V30 561 H 57.1156 2.69718 1.19733 0
M  V30 562 H 57.1966 2.49623 -0.558763 0
M  V30 563 H 56.8406 5.009 -0.840314 0
M  V30 564 H 56.7706 5.18299 0.931302 0
M  V30 565 H 59.2616 3.76954 0.26728 0
M  V30 566 H 59.5746 7.7276 -0.0789252 0
M  V30 567 H 57.9196 6.94971 -0.0640299 0
M  V30 568 H 61.1106 4.67448 0.246981 0
M  V30 569 H 61.2836 6.47938 0.0893365 0
M  V30 570 N 54.6897 -0.239769 1.55765 0
M  V30 571 C 56.1057 -0.588624 1.48349 0
M  V30 572 C 56.3057 -1.88005 0.72502 0
M  V30 573 O 55.3617 -2.51186 0.257269 0
M  V30 574 C 56.6747 -0.68474 2.928 0
M  V30 575 C 58.2227 -0.77659 3.03213 0
M  V30 576 C 58.6977 -0.904207 4.48986 0
M  V30 577 N 60.1887 -0.968896 4.52953 0
M  V30 578 C 60.9237 -1.08703 5.63002 0
M  V30 579 N 60.4197 -1.17026 6.82845 0
M  V30 580 N 62.2127 -1.12074 5.50814 0
M  V30 581 H 54.3637 0.607911 2.03515 0
M  V30 582 H 56.6267 0.21083 0.924259 0
M  V30 583 H 56.3327 0.194284 3.51163 0
M  V30 584 H 56.2067 -1.55435 3.43686 0
M  V30 585 H 58.5937 -1.64606 2.44926 0
M  V30 586 H 58.6747 0.118315 2.55526 0
M  V30 587 H 58.3187 -0.0392633 5.07885 0
M  V30 588 H 58.2487 -1.81426 4.9436 0
M  V30 589 H 60.7397 -0.915633 3.6664 0
M  V30 590 H 61.0527 -1.25966 7.62465 0
M  V30 591 H 59.3977 -1.13971 6.85591 0
M  V30 592 H 62.5887 -1.05226 4.5612 0
M  V30 593 H 62.7617 -1.20936 6.36615 0
M  V30 594 N 56.1678 -1.49265 -0.50573 0
M  V30 595 C 57.1148 -1.65585 -1.6078 0
M  V30 596 C 58.0848 -0.497396 -1.58478 0
M  V30 597 O 59.2698 -0.72385 -1.76536 0
M  V30 598 C 56.4098 -1.72408 -2.98948 0
M  V30 599 C 55.5228 -2.99525 -3.11301 0
M  V30 600 C 54.6578 -2.97356 -4.40174 0
M  V30 601 C 53.6968 -4.19074 -4.46143 0
M  V30 602 N 52.8338 -4.14841 -5.66437 0
M  V30 603 H 57.6738 -2.59688 -1.46172 0
M  V30 604 H 55.2108 -1.28761 -0.711261 0
M  V30 605 H 57.1688 -1.74344 -3.79025 0
M  V30 606 H 55.7988 -0.817753 -3.1227 0
M  V30 607 H 54.8508 -3.07222 -2.24318 0
M  V30 608 H 56.1628 -3.89518 -3.11572 0
M  V30 609 H 55.3168 -2.97829 -5.28567 0
M  V30 610 H 54.0558 -2.05133 -4.42461 0
M  V30 611 H 53.0608 -4.1885 -3.56153 0
M  V30 612 H 54.2858 -5.12483 -4.45575 0
M  V30 613 H 52.2318 -3.25453 -5.69575 0
M  V30 614 H 52.1488 -4.98564 -5.68304 0
M  V30 615 H 53.4168 -4.1941 -6.57051 0
M  V30 616 N 57.6459 0.756429 -1.3826 0
M  V30 617 C 58.8739 1.54565 -1.3754 0
M  V30 618 C 59.2889 1.88767 0.0355331 0
M  V30 619 O 58.6459 1.52572 1.0014 0
M  V30 620 C 58.6969 2.84654 -2.22833 0
M  V30 621 O 58.4179 2.51912 -3.5843 0
M  V30 622 C 59.9189 3.78807 -2.30261 0
M  V30 623 H 57.1389 0.478353 -0.470553 0
M  V30 624 H 59.6829 0.936381 -1.81803 0
M  V30 625 H 57.8379 3.41965 -1.8204 0
M  V30 626 H 58.2519 3.35325 -4.03308 0
M  V30 627 H 59.7259 4.67045 -2.94233 0
M  V30 628 H 60.2029 4.19038 -1.31545 0
M  V30 629 H 60.8089 3.2742 -2.71433 0
M  V30 630 N 59.124 1.23083 0.984299 0
M  V30 631 C 60.401 0.9689 1.69917 0
M  V30 632 C 60.781 -0.513604 2.04757 0
M  V30 633 O 60.129 -1.48383 1.73767 0
M  V30 634 C 60.339 1.87518 2.94343 0
M  V30 635 C 61.687 2.13636 3.6694 0
M  V30 636 O 62.711 1.85036 3.04368 0
M  V30 637 O 61.57 2.62119 4.79537 0
M  V30 638 H 58.664 0.365095 0.742048 0
M  V30 639 H 61.21 1.34107 1.03987 0
M  V30 640 H 59.982 2.87756 2.65164 0
M  V30 641 H 59.605 1.50514 3.6801 0
M  V30 642 N 60.6021 -1.18246 1.0419 0
M  V30 643 C 61.8491 -1.88257 0.746017 0
M  V30 644 C 62.1771 -1.80429 -0.726331 0
M  V30 645 O 61.4321 -1.2 -1.54591 0
M  V30 646 C 61.7311 -3.38082 1.15911 0
M  V30 647 C 61.3971 -3.66114 2.63195 0
M  V30 648 C 60.0591 -3.73474 3.03432 0
M  V30 649 C 62.4111 -3.78398 3.5842 0
M  V30 650 C 59.7391 -3.90599 4.37778 0
M  V30 651 C 62.0911 -3.97039 4.92487 0
M  V30 652 C 60.7551 -4.02635 5.32392 0
M  V30 653 H 60.0251 -0.688883 0.272987 0
M  V30 654 H 62.6721 -1.3995 1.30715 0
M  V30 655 H 60.9771 -3.88377 0.516806 0
M  V30 656 H 62.6741 -3.90596 0.907516 0
M  V30 657 H 59.2641 -3.61003 2.3103 0
M  V30 658 H 63.4481 -3.72042 3.28479 0
M  V30 659 H 58.7041 -3.93175 4.68213 0
M  V30 660 H 62.8781 -4.05486 5.66175 0
M  V30 661 H 60.5051 -4.15657 6.36501 0
M  V30 662 N 62.0802 -0.821533 -1.34494 0
M  V30 663 C 63.3272 -0.408946 -1.98328 0
M  V30 664 C 63.6552 1.02764 -1.65136 0
M  V30 665 O 62.9102 1.73026 -0.914349 0
M  V30 666 C 63.2092 -0.556512 -3.53041 0
M  V30 667 C 62.8752 -1.95861 -4.0614 0
M  V30 668 C 61.5372 -2.34217 -4.20352 0
M  V30 669 C 63.8892 -2.87523 -4.34718 0
M  V30 670 C 61.2172 -3.63572 -4.6047 0
M  V30 671 C 63.5692 -4.1634 -4.76281 0
M  V30 672 C 62.2332 -4.54675 -4.88699 0
M  V30 673 H 61.5032 -0.149644 -0.725732 0
M  V30 674 H 64.1502 -1.04521 -1.6046 0
M  V30 675 H 62.4552 0.163148 -3.9146 0
M  V30 676 H 64.1522 -0.217826 -4.00408 0
M  V30 677 H 60.7422 -1.65066 -3.95539 0
M  V30 678 H 64.9262 -2.59133 -4.23277 0
M  V30 679 H 60.1822 -3.93101 -4.68275 0
M  V30 680 H 64.3562 -4.87455 -4.97354 0
M  V30 681 H 61.9832 -5.54959 -5.19542 0
M  V30 682 N 63.5583 1.46682 -0.576371 0
M  V30 683 C 64.8073 2.01619 -0.0572825 0
M  V30 684 C 65.1203 1.45417 1.30818 0
M  V30 685 O 66.3263 1.92133 1.91825 0
M  V30 686 C 64.7823 3.59863 -0.0518371 0
M  V30 687 C 64.3903 4.25059 -1.41523 0
M  V30 688 C 66.1343 4.2248 0.413639 0
M  V30 689 C 64.0413 5.75364 -1.36785 0
M  V30 690 H 62.9713 0.753794 -0.0176448 0
M  V30 691 H 65.6223 1.68481 -0.727076 0
M  V30 692 H 64.0043 3.90048 0.683994 0
M  V30 693 H 65.1783 4.06491 -2.17029 0
M  V30 694 H 63.4933 3.7451 -1.8202 0
M  V30 695 H 66.0903 5.3265 0.467779 0
M  V30 696 H 66.4333 3.90976 1.42982 0
M  V30 697 H 66.9663 3.96897 -0.267929 0
M  V30 698 H 63.7053 6.11518 -2.36063 0
M  V30 699 H 63.2253 5.96214 -0.654895 0
M  V30 700 H 64.9043 6.37955 -1.07805 0
M  V30 701 N 65.0364 0.313813 1.54444 0
M  V30 702 C 66.2844 -0.291099 1.99993 0
M  V30 703 C 66.6054 -1.53418 1.20366 0
M  V30 704 O 65.8754 -1.93544 0.302927 0
M  V30 705 H 64.4554 -0.110552 0.738774 0
M  V30 706 H 67.1174 0.428106 1.9014 0
M  V30 707 H 66.2134 -0.554268 3.07139 0
M  V30 708 N 66.5145 -1.57545 0.0417849 0
M  V30 709 C 67.7625 -1.91937 -0.632829 0
M  V30 710 C 68.0835 -0.919978 -1.71934 0
M  V30 711 O 67.3535 0.0366064 -1.95866 0
M  V30 712 H 65.9335 -0.708493 -0.236742 0
M  V30 713 H 68.5955 -1.9468 0.0925745 0
M  V30 714 H 67.6915 -2.92912 -1.07746 0
M  V30 715 N 67.9926 0.231505 -1.5589 0
M  V30 716 C 68.9026 1.308 -1.94752 0
M  V30 717 C 69.9186 1.51826 -0.849989 0
M  V30 718 O 71.0946 1.6515 -1.15271 0
M  V30 719 C 68.1596 2.63968 -2.24771 0
M  V30 720 C 67.2206 2.51331 -3.48039 0
M  V30 721 C 66.4536 3.78148 -3.76616 0
M  V30 722 O 66.6766 4.80722 -3.07022 0
M  V30 723 O 65.6106 3.75857 -4.70123 0
M  V30 724 H 69.4366 1.0083 -2.86474 0
M  V30 725 H 67.0216 0.433547 -1.42971 0
M  V30 726 H 68.9036 3.42633 -2.45318 0
M  V30 727 H 67.5786 2.9364 -1.36225 0
M  V30 728 H 66.4856 1.709 -3.32782 0
M  V30 729 H 67.8186 2.26601 -4.36936 0
M  V30 730 N 69.4707 1.49531 0.497807 0
M  V30 731 C 70.3807 1.69176 1.62532 0
M  V30 732 C 71.3967 0.5744 1.64246 0
M  V30 733 O 72.5727 0.849497 1.82608 0
M  V30 734 C 69.6377 1.75695 2.98885 0
M  V30 735 C 68.6987 2.9929 3.07773 0
M  V30 736 C 67.9317 3.05488 4.37622 0
M  V30 737 O 68.1547 2.19192 5.26603 0
M  V30 738 O 67.0887 3.9798 4.51548 0
M  V30 739 H 70.9147 2.647 1.48887 0
M  V30 740 H 68.4997 1.3331 0.674441 0
M  V30 741 H 70.3817 1.82317 3.79919 0
M  V30 742 H 69.0567 0.8335 3.12785 0
M  V30 743 H 67.9637 2.98183 2.25915 0
M  V30 744 H 69.2967 3.91125 2.98801 0
M  V30 745 N 70.9488 -0.749086 1.3866 0
M  V30 746 C 72.1968 -1.50535 1.34847 0
M  V30 747 C 72.5178 -1.94909 -0.0595016 0
M  V30 748 O 71.7878 -1.67973 -1.00806 0
M  V30 749 H 70.3678 -0.558395 0.49619 0
M  V30 750 H 73.0298 -0.890165 1.73384 0
M  V30 751 H 72.1258 -2.39413 2.00219 0
M  V30 752 N 72.4269 -1.23603 -0.977757 0
M  V30 753 C 73.3599 -0.962772 -2.06896 0
M  V30 754 C 74.3379 0.0998743 -1.62293 0
M  V30 755 O 75.5219 -0.0349421 -1.88468 0
M  V30 756 C 72.6489 -0.45095 -3.35685 0
M  V30 757 C 71.6949 -1.50061 -3.99229 0
M  V30 758 S 72.5279 -3.07884 -4.38142 0
M  V30 759 C 73.6839 -2.58378 -5.7008 0
M  V30 760 H 73.9169 -1.88677 -2.29757 0
M  V30 761 H 71.4499 -1.06876 -1.11431 0
M  V30 762 H 73.4079 -0.162261 -4.10179 0
M  V30 763 H 72.0689 0.452179 -3.10828 0
M  V30 764 H 71.2619 -1.09269 -4.92013 0
M  V30 765 H 70.8639 -1.73878 -3.31123 0
M  V30 766 H 73.1559 -2.00563 -6.47133 0
M  V30 767 H 74.0989 -3.49711 -6.15717 0
M  V30 768 H 74.5069 -1.99143 -5.28207 0
M  V30 769 N 73.905 1.17692 -1.04816 0
M  V30 770 C 74.868 2.19787 -0.650117 0
M  V30 771 C 75.868 1.58044 0.296427 0
M  V30 772 O 77.058 1.74012 0.0808097 0
M  V30 773 C 74.19 3.40869 0.0456987 0
M  V30 774 H 75.383 2.56516 -1.5537 0
M  V30 775 H 72.936 1.31708 -0.841594 0
M  V30 776 H 73.671 3.09681 0.962726 0
M  V30 777 H 73.456 3.86928 -0.634727 0
M  V30 778 H 74.946 4.16445 0.310432 0
M  V30 779 N 75.3831 0.828654 1.34056 0
M  V30 780 C 76.2931 0.256725 2.33191 0
M  V30 781 C 77.3091 -0.611898 1.62886 0
M  V30 782 O 78.4851 -0.51844 1.94613 0
M  V30 783 C 75.5501 -0.567238 3.42028 0
M  V30 784 C 74.6111 0.324458 4.28072 0
M  V30 785 C 73.8441 -0.460274 5.31712 0
M  V30 786 O 74.0671 -1.693 5.44696 0
M  V30 787 O 73.0011 0.160391 6.01686 0
M  V30 788 H 76.8271 1.07739 2.83947 0
M  V30 789 H 74.4121 0.59093 1.37217 0
M  V30 790 H 76.2941 -1.03582 4.08471 0
M  V30 791 H 74.9691 -1.36513 2.93506 0
M  V30 792 H 73.8761 0.840659 3.64532 0
M  V30 793 H 75.2091 1.08685 4.8005 0
M  V30 794 N 76.8612 -1.46375 0.584142 0
M  V30 795 C 77.8082 -2.30323 -0.148286 0
M  V30 796 C 78.7782 -1.40703 -0.882713 0
M  V30 797 O 79.9632 -1.69651 -0.873099 0
M  V30 798 C 77.1032 -3.25196 -1.15507 0
M  V30 799 C 76.2162 -4.29915 -0.423943 0
M  V30 800 C 75.3512 -5.11914 -1.41838 0
M  V30 801 C 74.3902 -6.08381 -0.673736 0
M  V30 802 N 73.5272 -6.83242 -1.6163 0
M  V30 803 H 78.3672 -2.92427 0.573644 0
M  V30 804 H 75.9042 -1.44118 0.294703 0
M  V30 805 H 77.8622 -3.78646 -1.75166 0
M  V30 806 H 76.4922 -2.64898 -1.8447 0
M  V30 807 H 75.5442 -3.7931 0.287714 0
M  V30 808 H 76.8562 -4.98549 0.158128 0
M  V30 809 H 76.0102 -5.69648 -2.08773 0
M  V30 810 H 74.7492 -4.43243 -2.03438 0
M  V30 811 H 73.7542 -5.49799 0.00938483 0
M  V30 812 H 74.9792 -6.79071 -0.0631082 0
M  V30 813 H 72.9252 -6.1728 -2.22038 0
M  V30 814 H 72.8422 -7.48144 -1.08707 0
M  V30 815 H 74.1102 -7.45534 -2.27596 0
M  V30 816 N 78.3393 -0.321999 -1.54275 0
M  V30 817 C 79.2693 0.537411 -2.27231 0
M  V30 818 C 80.2503 1.12064 -1.27968 0
M  V30 819 O 81.4353 1.14606 -1.56777 0
M  V30 820 C 78.5653 1.69919 -3.02894 0
M  V30 821 C 77.5193 1.24534 -4.09482 0
M  V30 822 C 76.8453 2.49394 -4.72977 0
M  V30 823 C 78.1453 0.361335 -5.21049 0
M  V30 824 H 79.8393 -0.0711406 -2.99315 0
M  V30 825 H 77.3853 -0.0356555 -1.43956 0
M  V30 826 H 79.3383 2.30668 -3.52662 0
M  V30 827 H 78.0623 2.33431 -2.28424 0
M  V30 828 H 76.7213 0.660782 -3.60596 0
M  V30 829 H 76.3693 3.11265 -3.95124 0
M  V30 830 H 76.0693 2.19718 -5.44975 0
M  V30 831 H 77.5933 3.10908 -5.25517 0
M  V30 832 H 79.0073 0.875072 -5.66582 0
M  V30 833 H 77.4043 0.157428 -5.99893 0
M  V30 834 H 78.4743 -0.60822 -4.8107 0
M  V30 835 N 79.8174 1.5752 -0.0501392 0
M  V30 836 C 81.0664 1.91827 0.623328 0
M  V30 837 C 81.3794 0.930222 1.72065 0
M  V30 838 O 82.5854 1.1653 2.4522 0
M  V30 839 C 81.0414 3.40692 1.16003 0
M  V30 840 C 80.6494 4.479 0.0948811 0
M  V30 841 C 82.3934 3.84034 1.80881 0
M  V30 842 C 80.3004 5.87879 0.644411 0
M  V30 843 H 79.2304 0.715918 0.236596 0
M  V30 844 H 81.8814 1.83115 -0.118861 0
M  V30 845 H 80.2634 3.44405 1.9545 0
M  V30 846 H 81.4374 4.55775 -0.678675 0
M  V30 847 H 79.7524 4.13892 -0.45637 0
M  V30 848 H 82.3494 4.85984 2.22988 0
M  V30 849 H 82.6924 3.20225 2.6601 0
M  V30 850 H 83.2254 3.82833 1.0809 0
M  V30 851 H 79.9644 6.55282 -0.169229 0
M  V30 852 H 79.4844 5.83567 1.38598 0
M  V30 853 H 81.1634 6.37098 1.12763 0
M  V30 854 N 81.2955 -0.223234 1.56011 0
M  V30 855 C 82.5235 -0.964812 1.83027 0
M  V30 856 C 82.9385 -1.78013 0.62904 0
M  V30 857 O 82.2955 -1.78008 -0.402414 0
M  V30 858 C 82.3465 -1.88373 3.08542 0
M  V30 859 O 82.0675 -1.10137 4.2403 0
M  V30 860 C 83.5685 -2.73934 3.48533 0
M  V30 861 H 80.7885 -0.282842 0.608475 0
M  V30 862 H 83.3325 -0.238971 2.03099 0
M  V30 863 H 81.4875 -2.56354 2.9045 0
M  V30 864 H 81.9015 -1.72501 4.95322 0
M  V30 865 H 83.3755 -3.34117 4.39397 0
M  V30 866 H 83.8525 -3.46244 2.70207 0
M  V30 867 H 84.4585 -2.11369 3.69057 0
M  V30 868 N 82.7736 -1.49793 -0.48987 0
M  V30 869 C 83.7056 -1.63413 -1.60713 0
M  V30 870 C 84.7186 -0.516329 -1.54395 0
M  V30 871 O 85.9076 -0.788812 -1.60125 0
M  V30 872 C 83.0076 -1.58516 -2.99543 0
M  V30 873 C 82.1806 -2.86016 -3.30928 0
M  V30 874 C 81.2396 -2.74018 -4.49222 0
M  V30 875 O 80.2656 -3.47964 -4.50455 0
M  V30 876 N 81.4676 -1.86309 -5.4979 0
M  V30 877 H 84.2326 -2.59777 -1.49452 0
M  V30 878 H 81.7936 -1.47022 -0.677955 0
M  V30 879 H 83.7856 -1.48128 -3.76617 0
M  V30 880 H 82.3556 -0.69965 -3.0467 0
M  V30 881 H 81.5756 -3.10672 -2.42645 0
M  V30 882 H 82.8636 -3.70521 -3.487 0
M  V30 883 H 82.2616 -1.2551 -5.51601 0
M  V30 884 H 80.8186 -1.81837 -6.25922 0
M  V30 885 N 84.2517 0.741722 -1.39055 0
M  V30 886 C 85.4797 1.53098 -1.39171 0
M  V30 887 C 85.8947 1.88794 0.0155099 0
M  V30 888 O 85.2517 1.53626 0.985159 0
M  V30 889 C 85.3027 2.82274 -2.2584 0
M  V30 890 O 85.0237 2.48097 -3.61081 0
M  V30 891 C 86.5247 3.76343 -2.34266 0
M  V30 892 H 83.7447 0.473335 -0.4756 0
M  V30 893 H 86.2887 0.917045 -1.82785 0
M  V30 894 H 84.4437 3.40015 -1.85656 0
M  V30 895 H 84.8577 3.31029 -4.06842 0
M  V30 896 H 86.3317 4.63898 -2.9917 0
M  V30 897 H 86.8087 4.17619 -1.35982 0
M  V30 898 H 87.4147 3.24523 -2.74891 0
M  V30 899 N 85.7298 1.2412 0.971189 0
M  V30 900 C 86.9768 1.07881 1.71371 0
M  V30 901 C 87.3048 -0.382901 1.90694 0
M  V30 902 O 86.5598 -1.29945 1.46331 0
M  V30 903 C 86.8588 1.75983 3.11071 0
M  V30 904 C 86.5248 3.25909 3.11599 0
M  V30 905 C 85.1868 3.66813 3.11451 0
M  V30 906 C 87.5388 4.21771 3.062 0
M  V30 907 C 84.8668 5.02021 3.03631 0
M  V30 908 C 87.2188 5.56982 2.99923 0
M  V30 909 C 85.8828 5.97237 2.98102 0
M  V30 910 H 85.1528 0.394764 0.62709 0
M  V30 911 H 87.7998 1.54176 1.13587 0
M  V30 912 H 86.1048 1.22072 3.72298 0
M  V30 913 H 87.8018 1.60887 3.6731 0
M  V30 914 H 84.3918 2.93353 3.12477 0
M  V30 915 H 88.5758 3.91172 3.05447 0
M  V30 916 H 83.8318 5.32411 3.0058 0
M  V30 917 H 88.0058 6.30969 2.94704 0
M  V30 918 H 85.6328 7.01967 2.91798 0
M  V30 919 N 87.2079 -1.17134 1.05439 0
M  V30 920 C 88.4329 -1.91913 0.786396 0
M  V30 921 C 88.8579 -1.7643 -0.652234 0
M  V30 922 O 88.2159 -1.08372 -1.45345 0
M  V30 923 C 88.2639 -3.40921 1.17497 0
M  V30 924 O 87.3679 -4.11244 0.308589 0
M  V30 925 H 86.7089 -0.598215 0.288158 0
M  V30 926 H 89.2389 -1.48457 1.4079 0
M  V30 927 H 89.2489 -3.91668 1.14281 0
M  V30 928 H 87.9239 -3.5151 2.22292 0
M  V30 929 H 86.5009 -3.70731 0.40157 0
M  V30 930 N 88.686 -0.835752 -1.33615 0
M  V30 931 C 89.636 -0.238856 -2.26745 0
M  V30 932 C 90.62 0.604343 -1.49119 0
M  V30 933 O 91.812 0.456822 -1.71003 0
M  V30 934 C 88.941 0.587725 -3.38232 0
M  V30 935 C 88.027 -0.266811 -4.2326 0
M  V30 936 N 88.418 -1.34403 -4.87616 0
M  V30 937 C 86.716 -0.0533131 -4.45968 0
M  V30 938 C 87.417 -1.86819 -5.50884 0
M  V30 939 N 86.393 -1.17013 -5.30857 0
M  V30 940 H 90.195 -1.06266 -2.74016 0
M  V30 941 H 87.709 -0.679881 -1.47483 0
M  V30 942 H 89.706 1.03161 -4.03935 0
M  V30 943 H 88.366 1.40954 -2.9251 0
M  V30 944 H 89.377 -1.7269 -4.88261 0
M  V30 945 H 86.054 0.735312 -4.10974 0
M  V30 946 H 87.444 -2.7701 -6.1214 0
M  V30 947 N 90.1641 1.46063 -0.591896 0
M  V30 948 C 91.1141 2.27458 0.157172 0
M  V30 949 C 92.0981 1.3641 0.853301 0
M  V30 950 O 93.2901 1.60517 0.74588 0
M  V30 951 C 90.4191 3.22956 1.16423 0
M  V30 952 C 89.5051 4.2149 0.469742 0
M  V30 953 N 89.8961 5.03519 -0.479839 0
M  V30 954 C 88.1941 4.40161 0.719319 0
M  V30 955 C 88.8951 5.74904 -0.886591 0
M  V30 956 N 87.8711 5.43097 -0.233731 0
M  V30 957 H 91.6731 2.88272 -0.572392 0
M  V30 958 H 89.1871 1.57024 -0.414375 0
M  V30 959 H 91.1841 3.79986 1.71513 0
M  V30 960 H 89.8441 2.63701 1.89451 0
M  V30 961 H 90.8551 5.1078 -0.855823 0
M  V30 962 H 87.5321 3.92046 1.43548 0
M  V30 963 H 88.9221 6.50844 -1.66888 0
M  V30 964 N 91.6422 0.330177 1.54103 0
M  V30 965 C 92.5902 -0.548226 2.26047 0
M  V30 966 C 93.5842 -1.11309 1.27698 0
M  V30 967 O 94.7902 -1.06036 1.45452 0
M  V30 968 H 91.1652 -0.195456 0.726155 0
M  V30 969 H 93.1362 0.0807567 2.98291 0
M  V30 970 C 91.8852 -1.69415 3.03634 0
M  V30 971 H 91.2082 -1.26876 3.79134 0
M  V30 972 H 92.6482 -2.28423 3.5721 0
M  V30 973 C 91.1072 -2.61569 2.12328 0
M  V30 974 O 91.6372 -3.63462 1.7105 0
M  V30 975 N 89.8432 -2.29952 1.77681 0
M  V30 976 H 89.3902 -1.47134 2.11446 0
M  V30 977 H 89.3482 -2.91871 1.16869 0
M  V30 978 N 93.1203 -1.57491 0.0584922 0
M  V30 979 C 94.0523 -2.08916 -0.942694 0
M  V30 980 C 95.0653 -1.0185 -1.27006 0
M  V30 981 O 96.2543 -1.29398 -1.22957 0
M  V30 982 C 93.3543 -2.52341 -2.26224 0
M  V30 983 C 92.5273 -3.82827 -2.1157 0
M  V30 984 C 91.5863 -4.12487 -3.26712 0
M  V30 985 O 90.6123 -4.82295 -3.02292 0
M  V30 986 N 91.8143 -3.64978 -4.5141 0
M  V30 987 H 94.5793 -2.95437 -0.503722 0
M  V30 988 H 92.1403 -1.61397 -0.12757 0
M  V30 989 H 94.1323 -2.69254 -3.02133 0
M  V30 990 H 92.7023 -1.7103 -2.61663 0
M  V30 991 H 91.9223 -3.75425 -1.20208 0
M  V30 992 H 93.2103 -4.68263 -1.99015 0
M  V30 993 H 92.6083 -3.08558 -4.7414 0
M  V30 994 H 91.1653 -3.87115 -5.2439 0
M  V30 995 N 94.5984 0.214957 -1.56127 0
M  V30 996 C 95.5284 1.2695 -1.95974 0
M  V30 997 C 96.5094 1.48539 -0.828868 0
M  V30 998 O 97.6944 1.60611 -1.09168 0
M  V30 999 C 94.8244 2.61794 -2.28214 0
M  V30 1000 C 93.7784 2.54851 -3.43853 0
M  V30 1001 C 93.1044 3.93785 -3.61715 0
M  V30 1002 C 94.4044 2.09065 -4.78632 0
M  V30 1003 H 96.0984 0.93846 -2.84312 0
M  V30 1004 H 93.6444 0.449996 -1.36788 0
M  V30 1005 H 95.5974 3.35731 -2.54682 0
M  V30 1006 H 94.3214 2.96599 -1.36736 0
M  V30 1007 H 92.9804 1.8337 -3.17444 0
M  V30 1008 H 92.6284 4.25908 -2.67602 0
M  V30 1009 H 92.3284 3.90019 -4.39498 0
M  V30 1010 H 93.8524 4.69374 -3.90539 0
M  V30 1011 H 95.2664 2.7275 -5.04262 0
M  V30 1012 H 93.6634 2.16346 -5.59745 0
M  V30 1013 H 94.7334 1.04315 -4.73547 0
M  V30 1014 N 96.0765 1.50051 0.48192 0
M  V30 1015 C 97.0395 1.67584 1.5636 0
M  V30 1016 C 98.0395 0.546894 1.51214 0
M  V30 1017 O 99.2295 0.813725 1.54026 0
M  V30 1018 C 96.3615 1.691 2.96003 0
M  V30 1019 H 97.5545 2.64078 1.42136 0
M  V30 1020 H 95.1075 1.39369 0.707533 0
M  V30 1021 H 95.8425 0.742589 3.15684 0
M  V30 1022 H 95.6275 2.51105 3.01146 0
M  V30 1023 H 97.1175 1.84656 3.74556 0
M  V30 1024 N 97.5546 -0.734337 1.39446 0
M  V30 1025 C 98.4866 -1.85861 1.34121 0
M  V30 1026 C 99.4996 -1.60871 0.249864 0
M  V30 1027 O 100.689 -1.71093 0.508865 0
M  V30 1028 C 97.7886 -3.21899 1.05991 0
M  V30 1029 C 96.9616 -3.74239 2.26415 0
M  V30 1030 C 96.0206 -4.88841 1.94733 0
M  V30 1031 O 95.0466 -5.02468 2.67422 0
M  V30 1032 N 96.2486 -5.73261 0.913884 0
M  V30 1033 H 99.0136 -1.90934 2.31007 0
M  V30 1034 H 96.5746 -0.915102 1.33557 0
M  V30 1035 H 98.5666 -3.96136 0.828147 0
M  V30 1036 H 97.1366 -3.12091 0.178361 0
M  V30 1037 H 96.3566 -2.91347 2.65539 0
M  V30 1038 H 97.6446 -4.05942 3.06738 0
M  V30 1039 H 97.0426 -5.64842 0.311476 0
M  V30 1040 H 95.5996 -6.47563 0.742015 0
M  V30 1041 N 99.0327 -1.24633 -0.964593 0
M  V30 1042 C 99.9797 -1.04144 -2.05968 0
M  V30 1043 C 100.95 0.046262 -1.66036 0
M  V30 1044 O 102.135 -0.108972 -1.90489 0
M  V30 1045 C 99.2747 -0.65563 -3.38815 0
M  V30 1046 C 98.3877 -1.81714 -3.91923 0
M  V30 1047 C 97.5227 -1.37662 -5.13052 0
M  V30 1048 C 96.5617 -2.50788 -5.58365 0
M  V30 1049 N 95.6987 -2.07582 -6.70712 0
M  V30 1050 H 100.539 -1.9787 -2.22827 0
M  V30 1051 H 98.0757 -0.9855 -1.09208 0
M  V30 1052 H 100.034 -0.412954 -4.15151 0
M  V30 1053 H 98.6637 0.244627 -3.21872 0
M  V30 1054 H 97.7157 -2.1734 -3.12198 0
M  V30 1055 H 99.0277 -2.66705 -4.21509 0
M  V30 1056 H 98.1817 -1.093 -5.96773 0
M  V30 1057 H 96.9207 -0.497293 -4.85158 0
M  V30 1058 H 95.9257 -2.79906 -4.73215 0
M  V30 1059 H 97.1507 -3.39283 -5.88272 0
M  V30 1060 H 95.0967 -1.22051 -6.44546 0
M  V30 1061 H 95.0137 -2.86125 -6.99763 0
M  V30 1062 H 96.2817 -1.82369 -7.57867 0
M  V30 1063 N 100.511 1.16574 -1.06058 0
M  V30 1064 C 101.739 1.90952 -0.796552 0
M  V30 1065 C 102.154 1.77302 0.648808 0
M  V30 1066 O 101.511 1.11605 1.44397 0
M  V30 1067 C 101.562 3.41736 -1.17894 0
M  V30 1068 O 101.283 3.54975 -2.56758 0
M  V30 1069 C 102.784 4.33169 -0.942308 0
M  V30 1070 H 100.004 0.605594 -0.288959 0
M  V30 1071 H 102.548 1.47777 -1.41358 0
M  V30 1072 H 100.703 3.82623 -0.606491 0
M  V30 1073 H 101.117 4.4846 -2.72 0
M  V30 1074 H 102.591 5.37439 -1.25952 0
M  V30 1075 H 103.068 4.3903 0.122078 0
M  V30 1076 H 103.674 3.98007 -1.49902 0
M  V30 1077 N 101.989 0.842826 1.3317 0
M  V30 1078 C 103.405 0.531128 1.50503 0
M  V30 1079 C 103.605 -0.940734 1.78192 0
M  V30 1080 O 102.661 -1.72436 1.84451 0
M  V30 1081 C 103.974 1.40789 2.65705 0
M  V30 1082 C 105.522 1.40708 2.79589 0
M  V30 1083 C 105.997 2.26878 3.97857 0
M  V30 1084 N 107.488 2.24609 4.05099 0
M  V30 1085 C 108.223 2.88019 4.95815 0
M  V30 1086 N 107.719 3.60496 5.9162 0
M  V30 1087 N 109.512 2.77469 4.88843 0
M  V30 1088 H 101.663 1.79557 1.1346 0
M  V30 1089 H 103.926 0.766267 0.558156 0
M  V30 1090 H 103.632 2.454 2.51936 0
M  V30 1091 H 103.506 1.08677 3.61205 0
M  V30 1092 H 105.893 0.368668 2.92788 0
M  V30 1093 H 105.974 1.76829 1.84838 0
M  V30 1094 H 105.618 3.3078 3.85418 0
M  V30 1095 H 105.548 1.88096 4.91861 0
M  V30 1096 H 108.039 1.71906 3.36536 0
M  V30 1097 H 108.352 4.06076 6.57512 0
M  V30 1098 H 106.697 3.64604 5.91683 0
M  V30 1099 H 109.888 2.20406 4.12963 0
M  V30 1100 H 110.061 3.2717 5.59342 0
M  V30 1101 N 103.467 -1.45747 0.599634 0
M  V30 1102 C 104.883 -1.57424 0.26264 0
M  V30 1103 C 105.083 -1.59222 -1.23493 0
M  V30 1104 O 104.139 -1.51825 -2.01756 0
M  V30 1105 C 105.452 -2.86061 0.926795 0
M  V30 1106 C 107 -2.99722 0.901967 0
M  V30 1107 C 107.475 -4.31119 1.54598 0
M  V30 1108 N 108.966 -4.37858 1.5111 0
M  V30 1109 C 109.701 -5.3818 1.97863 0
M  V30 1110 N 109.197 -6.45083 2.52666 0
M  V30 1111 N 110.99 -5.29487 1.88679 0
M  V30 1112 H 103.141 -1.42823 1.57211 0
M  V30 1113 H 105.404 -0.68235 0.658105 0
M  V30 1114 H 105.11 -2.90605 1.98095 0
M  V30 1115 H 104.984 -3.74563 0.445238 0
M  V30 1116 H 107.371 -2.9475 -0.143617 0
M  V30 1117 H 107.452 -2.12652 1.42171 0
M  V30 1118 H 107.096 -4.36849 2.59085 0
M  V30 1119 H 107.026 -5.16992 1.00132 0
M  V30 1120 H 109.517 -3.61209 1.11068 0
M  V30 1121 H 109.83 -7.17869 2.86155 0
M  V30 1122 H 108.175 -6.45856 2.56701 0
M  V30 1123 H 111.366 -4.44877 1.4561 0
M  V30 1124 H 111.539 -6.07524 2.25429 0
M  V30 1125 N 104.945 -0.338344 -1.53925 0
M  V30 1126 C 105.855 0.529421 -2.28548 0
M  V30 1127 C 106.871 1.11645 -1.3346 0
M  V30 1128 O 108.047 1.13325 -1.66492 0
M  V30 1129 C 105.112 1.66713 -3.03987 0
M  V30 1130 C 104.173 1.11041 -4.14691 0
M  V30 1131 C 103.406 2.19389 -4.86522 0
M  V30 1132 O 103.629 3.40013 -4.57982 0
M  V30 1133 O 102.563 1.83976 -5.73094 0
M  V30 1134 H 106.389 -0.0770399 -3.03602 0
M  V30 1135 H 103.974 -0.103555 -1.49041 0
M  V30 1136 H 105.856 2.32918 -3.5118 0
M  V30 1137 H 104.531 2.25949 -2.31794 0
M  V30 1138 H 103.438 0.413024 -3.71813 0
M  V30 1139 H 104.771 0.562975 -4.8897 0
M  V30 1140 N 106.423 1.57458 -0.0668435 0
M  V30 1141 C 107.37 2.12439 0.902122 0
M  V30 1142 C 108.34 1.03565 1.2986 0
M  V30 1143 O 109.525 1.312 1.38532 0
M  V30 1144 C 106.665 2.6865 2.16614 0
M  V30 1145 C 105.778 3.91663 1.82274 0
M  V30 1146 C 104.913 4.36134 3.0325 0
M  V30 1147 C 103.952 5.51808 2.64904 0
M  V30 1148 N 103.089 5.9126 3.78624 0
M  V30 1149 H 107.929 2.94934 0.426382 0
M  V30 1150 H 105.466 1.4575 0.198819 0
M  V30 1151 H 107.424 2.99346 2.90599 0
M  V30 1152 H 106.054 1.88928 2.61737 0
M  V30 1153 H 105.106 3.6746 0.983719 0
M  V30 1154 H 106.418 4.75693 1.50059 0
M  V30 1155 H 105.572 4.68465 3.85519 0
M  V30 1156 H 104.311 3.50948 3.38655 0
M  V30 1157 H 103.316 5.19133 1.81055 0
M  V30 1158 H 104.541 6.38722 2.30675 0
M  V30 1159 H 102.487 5.09024 4.138 0
M  V30 1160 H 102.404 6.70018 3.5016 0
M  V30 1161 H 103.672 6.28212 4.61486 0
M  V30 1162 N 107.901 -0.206675 1.56239 0
M  V30 1163 C 109.317 -0.557025 1.49564 0
M  V30 1164 C 109.517 -1.86424 0.764735 0
M  V30 1165 O 108.573 -2.50584 0.310491 0
M  V30 1166 C 109.886 -0.622478 2.94186 0
M  V30 1167 C 111.434 -0.712099 3.04792 0
M  V30 1168 C 111.909 -0.808767 4.50803 0
M  V30 1169 N 113.4 -0.8726 4.54907 0
M  V30 1170 C 114.135 -0.967365 5.65181 0
M  V30 1171 N 113.631 -1.02515 6.85173 0
M  V30 1172 N 115.424 -1.00366 5.53067 0
M  V30 1173 H 107.575 0.650943 2.02179 0
M  V30 1174 H 109.838 0.230387 0.919579 0
M  V30 1175 H 109.544 0.268727 3.50672 0
M  V30 1176 H 109.418 -1.4811 3.46905 0
M  V30 1177 H 111.805 -1.59374 2.48363 0
M  V30 1178 H 111.886 0.172489 2.55218 0
M  V30 1179 H 111.53 0.0684754 5.07854 0
M  V30 1180 H 111.46 -1.70899 4.98098 0
M  V30 1181 H 113.951 -0.837657 3.68499 0
M  V30 1182 H 114.264 -1.09765 7.64965 0
M  V30 1183 H 112.609 -0.994026 6.87855 0
M  V30 1184 H 115.8 -0.95527 4.58249 0
M  V30 1185 H 115.973 -1.07405 6.39037 0
M  V30 1186 N 109.379 -1.50304 -0.473955 0
M  V30 1187 C 110.342 -1.6841 -1.55469 0
M  V30 1188 C 111.342 -0.554905 -1.50922 0
M  V30 1189 O 112.532 -0.821882 -1.53593 0
M  V30 1190 C 109.664 -1.70667 -2.95102 0
M  V30 1191 H 110.857 -2.64828 -1.40733 0
M  V30 1192 H 108.41 -1.39742 -0.700132 0
M  V30 1193 H 109.145 -0.75932 -3.15285 0
M  V30 1194 H 108.93 -2.52698 -2.9981 0
M  V30 1195 H 110.42 -1.8664 -3.73571 0
M  V30 1196 N 110.857 0.726932 -1.39834 0
M  V30 1197 C 112.273 1.03354 -1.21615 0
M  V30 1198 C 112.473 2.01327 -0.08338 0
M  V30 1199 O 111.529 2.46158 0.56238 0
M  V30 1200 C 112.842 1.58811 -2.55342 0
M  V30 1201 C 114.39 1.70851 -2.62257 0
M  V30 1202 C 114.865 2.29716 -3.96225 0
M  V30 1203 N 116.356 2.37116 -3.97907 0
M  V30 1204 C 117.091 2.83619 -4.98345 0
M  V30 1205 N 116.587 3.29958 -6.09179 0
M  V30 1206 N 118.38 2.82901 -4.8572 0
M  V30 1207 H 110.531 0.0773069 -2.12259 0
M  V30 1208 H 112.794 0.0969102 -0.943034 0
M  V30 1209 H 112.5 0.942855 -3.38826 0
M  V30 1210 H 112.374 2.57502 -2.75632 0
M  V30 1211 H 114.761 2.34497 -1.79152 0
M  V30 1212 H 114.842 0.707913 -2.45809 0
M  V30 1213 H 114.486 1.66696 -4.79765 0
M  V30 1214 H 114.416 3.30469 -4.09997 0
M  V30 1215 H 116.907 2.04374 -3.17868 0
M  V30 1216 H 117.22 3.63976 -6.8172 0
M  V30 1217 H 115.565 3.27946 -6.12761 0
M  V30 1218 H 118.756 2.46027 -3.98231 0
M  V30 1219 H 118.929 3.18827 -5.6414 0
M  V30 1220 N 112.336 1.25143 0.95797 0
M  V30 1221 C 113.268 1.01023 2.05735 0
M  V30 1222 C 114.281 -0.0236902 1.62783 0
M  V30 1223 O 115.47 0.21448 1.77207 0
M  V30 1224 C 112.57 0.504595 3.35122 0
M  V30 1225 C 111.743 1.6039 4.06932 0
M  V30 1226 C 110.802 1.09922 5.14591 0
M  V30 1227 O 109.828 1.79293 5.40225 0
M  V30 1228 N 111.03 -0.0612545 5.80468 0
M  V30 1229 H 113.795 1.95683 2.26998 0
M  V30 1230 H 111.356 1.16303 1.12629 0
M  V30 1231 H 113.348 0.151516 4.04416 0
M  V30 1232 H 111.918 -0.347989 3.10657 0
M  V30 1233 H 111.138 2.12872 3.31782 0
M  V30 1234 H 112.426 2.34252 4.51667 0
M  V30 1235 H 111.824 -0.640985 5.62057 0
M  V30 1236 H 110.381 -0.355395 6.5083 0
M  V30 1237 N 113.814 -1.1601 1.06675 0
M  V30 1238 C 114.724 -2.24156 0.692179 0
M  V30 1239 C 115.74 -1.71507 -0.293513 0
M  V30 1240 O 116.916 -2.009 -0.141861 0
M  V30 1241 C 113.981 -3.46587 0.0884131 0
M  V30 1242 C 113.042 -4.14257 1.12646 0
M  V30 1243 C 112.275 -5.30844 0.551416 0
M  V30 1244 O 112.498 -5.66858 -0.634656 0
M  V30 1245 O 111.432 -5.87848 1.29298 0
M  V30 1246 H 115.258 -2.58513 1.59388 0
M  V30 1247 H 112.843 -1.23599 0.83926 0
M  V30 1248 H 114.725 -4.20679 -0.246361 0
M  V30 1249 H 113.4 -3.13994 -0.786712 0
M  V30 1250 H 112.307 -3.42118 1.51348 0
M  V30 1251 H 113.64 -4.50914 1.97325 0
M  V30 1252 N 115.292 -0.849877 -1.32721 0
M  V30 1253 C 116.255 -0.296122 -2.27279 0
M  V30 1254 C 117.255 0.541458 -1.5141 0
M  V30 1255 O 118.445 0.353658 -1.70572 0
M  V30 1256 C 115.577 0.581579 -3.35902 0
M  V30 1257 H 116.77 -1.13064 -2.77771 0
M  V30 1258 H 114.323 -0.62383 -1.43311 0
M  V30 1259 H 115.058 1.43809 -2.9067 0
M  V30 1260 H 114.843 -0.0178814 -3.92096 0
M  V30 1261 H 116.333 0.961951 -4.0637 0
M  V30 1262 N 116.77 1.45427 -0.607355 0
M  V30 1263 C 117.68 2.34325 0.113463 0
M  V30 1264 C 118.696 1.51226 0.860617 0
M  V30 1265 O 119.872 1.84029 0.818255 0
M  V30 1266 C 116.937 3.28839 1.09844 0
M  V30 1267 C 115.998 4.27844 0.353271 0
M  V30 1268 C 115.231 5.17842 1.29133 0
M  V30 1269 O 115.454 5.11264 2.52913 0
M  V30 1270 O 114.388 5.96713 0.788523 0
M  V30 1271 H 118.214 2.97364 -0.617094 0
M  V30 1272 H 115.799 1.44807 -0.367619 0
M  V30 1273 H 117.681 3.8708 1.66575 0
M  V30 1274 H 116.356 2.68365 1.81003 0
M  V30 1275 H 115.263 3.7322 -0.256494 0
M  V30 1276 H 116.596 4.91173 -0.317822 0
M  V30 1277 N 118.248 0.346503 1.53744 0
M  V30 1278 C 119.664 -0.00530975 1.59599 0
M  V30 1279 C 119.864 -1.48465 1.36236 0
M  V30 1280 O 118.92 -2.24376 1.15808 0
M  V30 1281 C 120.233 0.433516 2.97559 0
M  V30 1282 C 121.781 0.386111 3.10609 0
M  V30 1283 C 122.256 0.800451 4.50951 0
M  V30 1284 N 123.747 0.754753 4.5701 0
M  V30 1285 C 124.482 1.04727 5.63755 0
M  V30 1286 N 123.978 1.4081 6.7834 0
M  V30 1287 N 125.771 0.971316 5.53644 0
M  V30 1288 H 117.922 1.31009 1.67184 0
M  V30 1289 H 120.185 0.534242 0.783128 0
M  V30 1290 H 119.891 1.46509 3.19731 0
M  V30 1291 H 119.765 -0.189753 3.76722 0
M  V30 1292 H 122.152 -0.636295 2.88158 0
M  V30 1293 H 122.233 1.04462 2.33498 0
M  V30 1294 H 121.877 1.82088 4.74137 0
M  V30 1295 H 121.807 0.119386 5.26465 0
M  V30 1296 H 124.298 0.488662 3.74727 0
M  V30 1297 H 124.611 1.61607 7.55714 0
M  V30 1298 H 122.956 1.44657 6.79779 0
M  V30 1299 H 126.147 0.688748 4.63005 0
M  V30 1300 H 126.32 1.20263 6.36742 0
M  V30 1301 N 119.726 -1.57421 0.075193 0
M  V30 1302 C 121.142 -1.57099 -0.281444 0
M  V30 1303 C 121.342 -1.08486 -1.69803 0
M  V30 1304 O 120.398 -0.752279 -2.41033 0
M  V30 1305 C 121.711 -3.00571 -0.0880041 0
M  V30 1306 C 123.259 -3.12605 -0.157281 0
M  V30 1307 C 123.734 -4.57999 0.0079207 0
M  V30 1308 N 125.225 -4.63176 -0.0475725 0
M  V30 1309 C 125.96 -5.73373 0.0557876 0
M  V30 1310 N 125.456 -6.92473 0.21286 0
M  V30 1311 N 127.249 -5.621 -0.00152098 0
M  V30 1312 H 119.4 -1.87335 1.00098 0
M  V30 1313 H 121.663 -0.86377 0.390646 0
M  V30 1314 H 121.369 -3.40262 0.889629 0
M  V30 1315 H 121.243 -3.67754 -0.838875 0
M  V30 1316 H 123.63 -2.72798 -1.1254 0
M  V30 1317 H 123.711 -2.48053 0.62475 0
M  V30 1318 H 123.355 -4.98496 0.972824 0
M  V30 1319 H 123.285 -5.20586 -0.793556 0
M  V30 1320 H 125.776 -3.7753 -0.167244 0
M  V30 1321 H 126.089 -7.72279 0.283781 0
M  V30 1322 H 124.434 -6.94556 0.248267 0
M  V30 1323 H 127.625 -4.67938 -0.122958 0
M  V30 1324 H 127.798 -6.47948 0.0824844 0
M  V30 1325 N 121.204 0.198386 -1.56346 0
M  V30 1326 C 122.114 1.2664 -1.97483 0
M  V30 1327 C 123.13 1.49989 -0.882002 0
M  V30 1328 O 124.306 1.62668 -1.18748 0
M  V30 1329 C 121.371 2.59141 -2.30319 0
M  V30 1330 C 120.432 2.43892 -3.53292 0
M  V30 1331 C 119.665 3.70074 -3.84553 0
M  V30 1332 O 119.888 4.74101 -3.1715 0
M  V30 1333 O 118.822 3.658 -4.7799 0
M  V30 1334 H 122.648 0.947304 -2.88548 0
M  V30 1335 H 120.233 0.403123 -1.43859 0
M  V30 1336 H 122.115 3.37352 -2.5253 0
M  V30 1337 H 120.79 2.90684 -1.42423 0
M  V30 1338 H 119.697 1.63803 -3.36332 0
M  V30 1339 H 121.03 2.17282 -4.41644 0
M  V30 1340 N 122.682 1.50554 0.465978 0
M  V30 1341 C 123.629 1.6979 1.56333 0
M  V30 1342 C 124.599 0.539239 1.57103 0
M  V30 1343 O 125.784 0.770401 1.74555 0
M  V30 1344 C 122.924 1.80273 2.94271 0
M  V30 1345 C 122.037 3.07674 3.0325 0
M  V30 1346 C 121.172 3.08922 4.32135 0
M  V30 1347 C 120.211 4.30755 4.34875 0
M  V30 1348 N 119.348 4.29714 5.55239 0
M  V30 1349 H 124.188 2.63472 1.39235 0
M  V30 1350 H 121.725 1.30602 0.676873 0
M  V30 1351 H 123.683 1.84332 3.74269 0
M  V30 1352 H 122.313 0.900258 3.09992 0
M  V30 1353 H 121.365 3.13062 2.16094 0
M  V30 1354 H 122.677 3.97642 3.01135 0
M  V30 1355 H 121.831 3.11738 5.20485 0
M  V30 1356 H 120.57 2.16792 4.36866 0
M  V30 1357 H 119.575 4.28146 3.44922 0
M  V30 1358 H 120.8 5.24117 4.31831 0
M  V30 1359 H 118.746 3.4044 5.60746 0
M  V30 1360 H 118.663 5.13456 5.54886 0
M  V30 1361 H 119.931 4.36683 6.457 0
M  V30 1362 N 124.16 -0.719506 1.40217 0
M  V30 1363 C 125.123 -1.8153 1.39927 0
M  V30 1364 C 126.123 -1.58095 0.293723 0
M  V30 1365 O 127.313 -1.65209 0.552429 0
M  V30 1366 C 124.445 -3.19561 1.18716 0
M  V30 1367 H 125.638 -1.83186 2.37451 0
M  V30 1368 H 123.191 -0.924746 1.26008 0
M  V30 1369 H 123.926 -3.23557 0.219366 0
M  V30 1370 H 123.711 -3.3797 1.98793 0
M  V30 1371 H 125.201 -3.99598 1.21291 0
M  V30 1372 N 125.638 -1.25649 -0.95132 0
M  V30 1373 C 126.548 -1.08073 -2.08224 0
M  V30 1374 C 127.564 -0.0169666 -1.73992 0
M  V30 1375 O 128.74 -0.218593 -2.0021 0
M  V30 1376 C 125.805 -0.704922 -3.39458 0
M  V30 1377 C 124.866 -1.84699 -3.87537 0
M  V30 1378 C 124.099 -1.48902 -5.12508 0
M  V30 1379 O 124.322 -0.386156 -5.69091 0
M  V30 1380 O 123.256 -2.32033 -5.55378 0
M  V30 1381 H 127.082 -2.02924 -2.25954 0
M  V30 1382 H 124.667 -1.04618 -1.06656 0
M  V30 1383 H 126.549 -0.507609 -4.18332 0
M  V30 1384 H 125.224 0.214291 -3.2299 0
M  V30 1385 H 124.131 -2.09919 -3.09653 0
M  V30 1386 H 125.464 -2.74557 -4.08509 0
M  V30 1387 N 127.117 1.15442 -1.07289 0
M  V30 1388 C 128.533 1.38201 -0.798288 0
M  V30 1389 C 128.733 1.92429 0.597769 0
M  V30 1390 O 127.789 2.12962 1.3566 0
M  V30 1391 C 129.102 2.35357 -1.87156 0
M  V30 1392 C 130.65 2.49021 -1.89624 0
M  V30 1393 C 131.125 3.49468 -2.96034 0
M  V30 1394 N 132.616 3.57003 -2.95132 0
M  V30 1395 C 133.351 4.34543 -3.74112 0
M  V30 1396 N 132.847 5.15421 -4.6294 0
M  V30 1397 N 134.64 4.29625 -3.62462 0
M  V30 1398 H 126.791 0.78584 -1.97328 0
M  V30 1399 H 129.054 0.408065 -0.855679 0
M  V30 1400 H 128.76 2.02626 -2.87464 0
M  V30 1401 H 128.634 3.35129 -1.73114 0
M  V30 1402 H 131.021 2.81051 -0.899687 0
M  V30 1403 H 131.102 1.4925 -2.07745 0
M  V30 1404 H 130.746 3.18173 -3.95889 0
M  V30 1405 H 130.676 4.48992 -2.75161 0
M  V30 1406 H 133.167 2.99276 -2.30743 0
M  V30 1407 H 133.48 5.7183 -5.19837 0
M  V30 1408 H 131.825 5.14729 -4.66989 0
M  V30 1409 H 135.016 3.65505 -2.92444 0
M  V30 1410 H 135.189 4.89807 -4.24256 0
M  V30 1411 N 128.595 0.856903 1.32268 0
M  V30 1412 C 129.558 0.308171 2.27119 0
M  V30 1413 C 130.558 -0.533421 1.51695 0
M  V30 1414 O 131.748 -0.344607 1.70757 0
M  V30 1415 C 128.88 -0.563757 3.36206 0
M  V30 1416 H 130.073 1.14535 2.77167 0
M  V30 1417 H 127.626 0.631421 1.42978 0
M  V30 1418 H 128.361 -1.42266 2.91429 0
M  V30 1419 H 128.146 0.0386749 3.92081 0
M  V30 1420 H 129.636 -0.940386 4.06874 0
M  V30 1421 N 130.073 -1.45103 0.615059 0
M  V30 1422 C 131.036 -2.29025 -0.0895485 0
M  V30 1423 C 132.036 -1.40174 -0.787906 0
M  V30 1424 O 133.226 -1.62217 -0.634933 0
M  V30 1425 C 130.358 -3.21376 -1.13711 0
M  V30 1426 H 131.551 -2.92807 0.648382 0
M  V30 1427 H 129.104 -1.51749 0.374444 0
M  V30 1428 H 129.839 -2.6241 -1.90556 0
M  V30 1429 H 129.624 -3.86834 -0.640475 0
M  V30 1430 H 131.114 -3.84459 -1.63036 0
M  V30 1431 N 131.551 -0.354651 -1.53558 0
M  V30 1432 C 132.967 -0.00315426 -1.596 0
M  V30 1433 C 133.167 1.47741 -1.37021 0
M  V30 1434 O 132.223 2.23759 -1.16996 0
M  V30 1435 C 133.536 -0.44929 -2.97325 0
M  V30 1436 C 135.084 -0.402578 -3.104 0
M  V30 1437 C 135.559 -0.824355 -4.5052 0
M  V30 1438 N 137.05 -0.778979 -4.56603 0
M  V30 1439 C 137.785 -1.07715 -5.63192 0
M  V30 1440 N 137.281 -1.44405 -6.77583 0
M  V30 1441 N 139.074 -1.00066 -5.53121 0
M  V30 1442 H 131.225 -1.31893 -1.66487 0
M  V30 1443 H 133.488 -0.538388 -0.780284 0
M  V30 1444 H 133.194 -1.48202 -3.1895 0
M  V30 1445 H 133.068 0.169772 -3.76818 0
M  V30 1446 H 135.455 0.621004 -2.88492 0
M  V30 1447 H 135.536 -1.05699 -2.32941 0
M  V30 1448 H 135.18 -1.846 -4.73165 0
M  V30 1449 H 135.11 -0.147304 -5.26394 0
M  V30 1450 H 137.601 -0.508528 -3.74463 0
M  V30 1451 H 137.914 -1.65612 -7.54846 0
M  V30 1452 H 136.259 -1.4826 -6.79002 0
M  V30 1453 H 139.45 -0.713293 -4.62633 0
M  V30 1454 H 139.623 -1.23638 -6.36096 0
M  V30 1455 N 133.029 1.57378 -0.0835403 0
M  V30 1456 C 133.959 2.1641 0.87686 0
M  V30 1457 C 134.94 1.09429 1.30228 0
M  V30 1458 O 136.125 1.37516 1.37124 0
M  V30 1459 C 133.255 2.73517 2.14022 0
M  V30 1460 C 132.209 3.85769 1.85381 0
M  V30 1461 C 131.535 4.29529 3.18448 0
M  V30 1462 C 132.835 5.09486 1.14984 0
M  V30 1463 H 134.529 2.96914 0.385059 0
M  V30 1464 H 132.075 1.42823 0.18377 0
M  V30 1465 H 134.028 3.13463 2.81636 0
M  V30 1466 H 132.752 1.90252 2.65465 0
M  V30 1467 H 131.411 3.46345 1.20169 0
M  V30 1468 H 131.059 3.43169 3.67755 0
M  V30 1469 H 130.759 5.05204 3.00071 0
M  V30 1470 H 132.283 4.72099 3.8724 0
M  V30 1471 H 133.697 5.46674 1.72687 0
M  V30 1472 H 132.094 5.90515 1.06826 0
M  V30 1473 H 133.164 4.84724 0.130749 0
M  V30 1474 N 134.507 -0.190092 1.56449 0
M  V30 1475 C 135.47 -1.21925 1.9408 0
M  V30 1476 C 136.47 -1.38176 0.822431 0
M  V30 1477 O 137.66 -1.35903 1.08977 0
M  V30 1478 C 134.792 -2.58773 2.21922 0
M  V30 1479 H 135.985 -0.897464 2.86157 0
M  V30 1480 H 133.538 -0.43181 1.50217 0
M  V30 1481 H 134.273 -2.95998 1.32499 0
M  V30 1482 H 134.058 -2.48348 3.03424 0
M  V30 1483 H 135.548 -3.32978 2.52022 0
M  V30 1484 N 135.985 -1.50799 -0.457987 0
M  V30 1485 C 136.932 -1.70617 -1.5543 0
M  V30 1486 C 137.902 -0.547562 -1.56815 0
M  V30 1487 O 139.087 -0.779647 -1.74144 0
M  V30 1488 C 136.227 -1.81831 -2.93311 0
M  V30 1489 C 135.34 -3.09278 -3.01615 0
M  V30 1490 C 134.475 -3.11209 -4.30491 0
M  V30 1491 C 133.514 -4.33055 -4.32585 0
M  V30 1492 N 132.651 -4.32652 -5.52952 0
M  V30 1493 H 137.491 -2.64207 -1.37836 0
M  V30 1494 H 135.028 -1.30959 -0.669937 0
M  V30 1495 H 136.986 -1.86314 -3.73287 0
M  V30 1496 H 135.616 -0.916685 -3.0951 0
M  V30 1497 H 134.668 -3.14203 -2.1443 0
M  V30 1498 H 135.98 -3.99233 -2.99022 0
M  V30 1499 H 135.134 -3.14494 -5.18824 0
M  V30 1500 H 133.873 -2.19106 -4.35711 0
M  V30 1501 H 132.878 -4.29969 -3.42647 0
M  V30 1502 H 134.103 -5.264 -4.29046 0
M  V30 1503 H 132.049 -3.43409 -5.58933 0
M  V30 1504 H 131.966 -5.16392 -5.52155 0
M  V30 1505 H 133.234 -4.40101 -6.43375 0
M  V30 1506 N 137.463 0.71206 -1.40597 0
M  V30 1507 C 138.373 1.8562 -1.43466 0
M  V30 1508 C 139.389 1.70902 -0.326902 0
M  V30 1509 O 140.565 1.93105 -0.572043 0
M  V30 1510 C 137.63 3.21451 -1.29884 0
M  V30 1511 C 136.691 3.48398 -2.50833 0
M  V30 1512 C 135.924 4.77749 -2.3789 0
M  V30 1513 O 136.147 5.53089 -1.39459 0
M  V30 1514 O 135.081 5.05111 -3.27333 0
M  V30 1515 H 138.907 1.86155 -2.39958 0
M  V30 1516 H 136.492 0.86295 -1.21957 0
M  V30 1517 H 138.374 4.02579 -1.24531 0
M  V30 1518 H 137.049 3.21636 -0.364997 0
M  V30 1519 H 135.956 2.67265 -2.61763 0
M  V30 1520 H 137.289 3.53014 -3.4299 0
M  V30 1521 N 138.941 1.26152 0.944643 0
M  V30 1522 C 139.904 1.07474 2.0244 0
M  V30 1523 C 140.904 0.0242064 1.60782 0
M  V30 1524 O 142.094 0.267302 1.72137 0
M  V30 1525 C 139.226 0.633956 3.34953 0
M  V30 1526 H 140.419 2.03336 2.20442 0
M  V30 1527 H 137.972 1.087 1.12312 0
M  V30 1528 H 138.707 -0.326811 3.22649 0
M  V30 1529 H 138.492 1.39247 3.66542 0
M  V30 1530 H 139.982 0.52501 4.14287 0
M  V30 1531 N 140.419 -1.14872 1.07899 0
M  V30 1532 C 141.366 -2.19791 0.704319 0
M  V30 1533 C 142.336 -1.63238 -0.306987 0
M  V30 1534 O 143.521 -1.8983 -0.192171 0
M  V30 1535 C 140.661 -3.44911 0.114244 0
M  V30 1536 C 139.774 -4.15637 1.1777 0
M  V30 1537 C 138.909 -5.28324 0.552037 0
M  V30 1538 C 137.948 -5.90875 1.59789 0
M  V30 1539 N 137.085 -6.95022 0.994404 0
M  V30 1540 H 141.925 -2.5119 1.60336 0
M  V30 1541 H 139.462 -1.23356 0.801352 0
M  V30 1542 H 141.42 -4.16477 -0.245544 0
M  V30 1543 H 140.05 -3.14011 -0.74813 0
M  V30 1544 H 139.102 -3.42512 1.65499 0
M  V30 1545 H 140.414 -4.5823 1.97046 0
M  V30 1546 H 139.568 -6.06538 0.1402 0
M  V30 1547 H 138.307 -4.86939 -0.272431 0
M  V30 1548 H 137.312 -5.11369 2.01945 0
M  V30 1549 H 138.537 -6.34337 2.42474 0
M  V30 1550 H 136.483 -6.55722 0.190939 0
M  V30 1551 H 136.4 -7.36073 1.72432 0
M  V30 1552 H 137.668 -7.77123 0.608253 0
M  V30 1553 N 141.898 -0.863906 -1.31812 0
M  V30 1554 C 143.123 -0.48527 -2.01643 0
M  V30 1555 C 143.548 0.913058 -1.64453 0
M  V30 1556 O 142.906 1.6014 -0.849985 0
M  V30 1557 C 142.954 -0.642625 -3.54828 0
M  V30 1558 O 142.058 0.320659 -4.11151 0
M  V30 1559 H 141.399 -0.193793 -0.635091 0
M  V30 1560 H 143.929 -1.16565 -1.68148 0
M  V30 1561 H 143.939 -0.533628 -4.04495 0
M  V30 1562 H 142.614 -1.66227 -3.81237 0
M  V30 1563 H 141.191 0.167126 -3.72525 0
M  V30 1564 N 143.376 1.44774 -0.622745 0
M  V30 1565 C 144.286 2.34433 0.0886031 0
M  V30 1566 C 145.302 1.52131 0.844529 0
M  V30 1567 O 146.478 1.84886 0.798691 0
M  V30 1568 C 143.543 3.29986 1.0635 0
M  V30 1569 C 142.604 4.28195 0.307873 0
M  V30 1570 C 141.837 5.19183 1.23633 0
M  V30 1571 O 142.06 5.13918 2.47476 0
M  V30 1572 O 140.994 5.97515 0.725189 0
M  V30 1573 H 144.82 2.96693 -0.648599 0
M  V30 1574 H 142.405 1.44408 -0.382957 0
M  V30 1575 H 144.287 3.88825 1.6246 0
M  V30 1576 H 142.962 2.70269 1.78146 0
M  V30 1577 H 141.869 3.72927 -0.296064 0
M  V30 1578 H 143.202 4.90808 -0.3699 0
M  V30 1579 N 144.854 0.36279 1.53368 0
M  V30 1580 C 146.082 -0.228613 2.05633 0
M  V30 1581 C 146.497 -1.42676 1.23649 0
M  V30 1582 O 145.854 -1.80394 0.27647 0
M  V30 1583 C 145.905 -0.624845 3.56059 0
M  V30 1584 O 145.626 0.525675 4.34935 0
M  V30 1585 C 147.127 -1.27493 4.24571 0
M  V30 1586 H 144.347 -0.0407183 0.669763 0
M  V30 1587 H 146.891 0.520352 1.97769 0
M  V30 1588 H 145.046 -1.32373 3.64083 0
M  V30 1589 H 145.46 0.205969 5.24095 0
M  V30 1590 H 146.934 -1.50277 5.31151 0
M  V30 1591 H 147.411 -2.23439 3.78116 0
M  V30 1592 H 148.017 -0.617558 4.20792 0
M  V30 1593 N 146.332 -1.57332 0.0918853 0
M  V30 1594 C 147.557 -1.98995 -0.584442 0
M  V30 1595 C 147.982 -0.970528 -1.61128 0
M  V30 1596 O 147.34 0.0613904 -1.81196 0
M  V30 1597 C 147.388 -3.39636 -1.21161 0
M  V30 1598 O 146.492 -3.40447 -2.32744 0
M  V30 1599 H 145.833 -0.647165 -0.148572 0
M  V30 1600 H 148.363 -2.03873 0.172347 0
M  V30 1601 H 148.373 -3.7726 -1.55367 0
M  V30 1602 H 147.048 -4.13356 -0.459313 0
M  V30 1603 H 145.625 -3.14614 -2.0018 0
M  V30 1604 N 147.81 0.181792 -1.56548 0
M  V30 1605 C 149.058 0.89832 -1.81038 0
M  V30 1606 C 149.379 1.83232 -0.667164 0
M  V30 1607 O 148.649 1.93372 0.313673 0
M  V30 1608 H 147.229 0.33471 -0.667816 0
M  V30 1609 H 149.891 0.184116 -1.94028 0
M  V30 1610 H 148.987 1.4815 -2.74696 0
M  V30 1611 N 149.288 1.51039 0.449983 0
M  V30 1612 C 150.699 1.557 1.03026 0
M  V30 1613 C 151.05 0.372939 1.92623 0
M  V30 1614 O 150.175 -0.511771 2.10261 0
M  V30 1615 C 150.77 2.82171 1.87523 0
M  V30 1616 C 149.329 2.89444 2.40622 0
M  V30 1617 C 148.476 2.50228 1.19504 0
M  V30 1618 H 151.427 1.56999 0.231745 0
M  V30 1619 H 151.448 2.65219 2.72835 0
M  V30 1620 H 150.96 3.68331 1.22286 0
M  V30 1621 H 149.061 2.07685 3.0935 0
M  V30 1622 H 149.174 3.92816 2.74285 0
M  V30 1623 H 147.538 2.03139 1.53644 0
M  V30 1624 H 148.321 3.38719 0.558972 0
M  V30 1625 N 150.766 -0.704594 1.40972 0
M  V30 1626 C 151.698 -1.82974 1.38033 0
M  V30 1627 C 152.711 -1.60305 0.283931 0
M  V30 1628 O 153.9 -1.69975 0.545042 0
M  V30 1629 C 151 -3.19578 1.12795 0
M  V30 1630 C 150.173 -3.69352 2.34302 0
M  V30 1631 C 149.232 -4.84601 2.05058 0
M  V30 1632 O 148.258 -4.96682 2.7802 0
M  V30 1633 N 149.46 -5.71194 1.03528 0
M  V30 1634 H 152.225 -1.85991 2.35005 0
M  V30 1635 H 149.786 -0.886567 1.35468 0
M  V30 1636 H 151.778 -3.9429 0.911987 0
M  V30 1637 H 150.348 -3.11642 0.24452 0
M  V30 1638 H 149.568 -2.85649 2.71659 0
M  V30 1639 H 150.856 -3.99345 3.1528 0
M  V30 1640 H 150.254 -5.64054 0.431217 0
M  V30 1641 H 148.811 -6.45843 0.879205 0
M  V30 1642 N 152.244 -1.26651 -0.937939 0
M  V30 1643 C 153.493 -1.11775 -1.67897 0
M  V30 1644 C 153.806 0.33794 -1.92659 0
M  V30 1645 O 155.012 0.607434 -2.64618 0
M  V30 1646 C 153.468 -1.9523 -3.02346 0
M  V30 1647 C 153.076 -3.45393 -2.8532 0
M  V30 1648 C 154.82 -1.88972 -3.80118 0
M  V30 1649 C 152.727 -4.21083 -4.15263 0
M  V30 1650 H 151.657 -0.414696 -0.629717 0
M  V30 1651 H 154.308 -1.50988 -1.04283 0
M  V30 1652 H 152.69 -1.48853 -3.66959 0
M  V30 1653 H 153.864 -3.99561 -2.29537 0
M  V30 1654 H 152.179 -3.52921 -2.20988 0
M  V30 1655 H 154.776 -2.42805 -4.76392 0
M  V30 1656 H 155.119 -0.86113 -4.07296 0
M  V30 1657 H 155.652 -2.33189 -3.22285 0
M  V30 1658 H 152.391 -5.24425 -3.93267 0
M  V30 1659 H 151.911 -3.71695 -4.70747 0
M  V30 1660 H 153.59 -4.29706 -4.83696 0
M  V30 1661 N 153.722 1.14298 -1.08507 0
M  V30 1662 C 154.669 2.19414 -0.715965 0
M  V30 1663 C 155.639 1.63399 0.298326 0
M  V30 1664 O 156.824 1.89929 0.182101 0
M  V30 1665 C 153.964 3.44845 -0.132534 0
M  V30 1666 C 153.077 4.15007 -1.19973 0
M  V30 1667 C 152.212 5.28024 -0.580048 0
M  V30 1668 C 151.251 5.9002 -1.62921 0
M  V30 1669 N 150.388 6.94485 -1.03125 0
M  V30 1670 H 155.228 2.50336 -1.61666 0
M  V30 1671 H 152.765 1.2293 -0.807882 0
M  V30 1672 H 154.723 4.16601 0.223454 0
M  V30 1673 H 153.353 3.14403 0.731467 0
M  V30 1674 H 152.405 3.41629 -1.67313 0
M  V30 1675 H 153.717 4.57178 -1.99473 0
M  V30 1676 H 152.871 6.06455 -0.172364 0
M  V30 1677 H 151.61 4.87076 0.246603 0
M  V30 1678 H 150.615 5.10291 -2.04654 0
M  V30 1679 H 151.84 6.33042 -2.45835 0
M  V30 1680 H 149.786 6.55612 -0.225711 0
M  V30 1681 H 149.703 7.35148 -1.76334 0
M  V30 1682 H 150.971 7.7679 -0.649458 0
M  V30 1683 N 155.201 0.870884 1.31352 0
M  V30 1684 C 156.111 0.330783 2.32256 0
M  V30 1685 C 157.127 -0.559767 1.6475 0
M  V30 1686 O 158.303 -0.456263 1.96164 0
M  V30 1687 C 155.368 -0.458137 3.4366 0
M  V30 1688 C 154.429 0.460482 4.26823 0
M  V30 1689 C 153.662 -0.290881 5.32907 0
M  V30 1690 O 153.885 -1.51885 5.49806 0
M  V30 1691 O 152.819 0.351732 6.00871 0
M  V30 1692 H 156.645 1.16718 2.80376 0
M  V30 1693 H 154.23 0.634285 1.35267 0
M  V30 1694 H 156.112 -0.905343 4.1156 0
M  V30 1695 H 154.787 -1.27106 2.97701 0
M  V30 1696 H 153.694 0.956207 3.61673 0
M  V30 1697 H 155.027 1.23903 4.7635 0
M  V30 1698 N 156.679 -1.44442 0.630414 0
M  V30 1699 C 157.609 -2.33418 -0.0618083 0
M  V30 1700 C 158.59 -1.48165 -0.835541 0
M  V30 1701 O 159.775 -1.76886 -0.801564 0
M  V30 1702 C 156.905 -3.31222 -1.04449 0
M  V30 1703 C 155.859 -4.26288 -0.382436 0
M  V30 1704 C 155.185 -5.13954 -1.47497 0
M  V30 1705 C 156.485 -5.1744 0.710865 0
M  V30 1706 H 158.179 -2.91548 0.681184 0
M  V30 1707 H 155.725 -1.40191 0.329026 0
M  V30 1708 H 157.678 -3.92351 -1.53748 0
M  V30 1709 H 156.402 -2.71299 -1.81836 0
M  V30 1710 H 155.061 -3.6649 0.0899054 0
M  V30 1711 H 154.709 -4.50385 -2.2397 0
M  V30 1712 H 154.409 -5.7837 -1.03737 0
M  V30 1713 H 155.933 -5.77955 -1.96979 0
M  V30 1714 H 157.347 -5.72509 0.300996 0
M  V30 1715 H 155.744 -5.90455 1.07156 0
M  V30 1716 H 156.814 -4.58496 1.57829 0
M  V30 1717 N 158.157 -0.370918 -1.53173 0
M  V30 1718 C 159.385 0.217704 -2.05751 0
M  V30 1719 C 159.8 1.42018 -1.24404 0
M  V30 1720 O 159.157 1.80245 -0.286033 0
M  V30 1721 C 159.208 0.605954 -3.56385 0
M  V30 1722 O 158.929 -0.548734 -4.3465 0
M  V30 1723 C 160.43 1.2524 -4.25241 0
M  V30 1724 H 157.65 0.0371659 -0.66997 0
M  V30 1725 H 160.194 -0.530832 -1.9749 0
M  V30 1726 H 158.349 1.3044 -3.6478 0
M  V30 1727 H 158.763 -0.23376 -5.23979 0
M  V30 1728 H 160.237 1.47458 -5.3194 0
M  V30 1729 H 160.714 2.2143 -3.79296 0
M  V30 1730 H 161.32 0.595233 -4.21114 0
M  V30 1731 N 159.635 1.57281 -0.100228 0
M  V30 1732 C 160.912 1.86014 0.604812 0
M  V30 1733 C 161.292 0.998025 1.86018 0
M  V30 1734 O 160.64 0.0718184 2.28387 0
M  V30 1735 C 160.85 3.36784 0.915278 0
M  V30 1736 C 162.198 4.04957 1.27651 0
M  V30 1737 O 163.222 3.41695 1.00613 0
M  V30 1738 O 162.081 5.16593 1.7831 0
M  V30 1739 H 159.175 0.76942 0.303185 0
M  V30 1740 H 161.721 1.69176 -0.133313 0
M  V30 1741 H 160.493 3.91292 0.0248896 0
M  V30 1742 H 160.116 3.58987 1.70921 0
M  V30 1743 N 161.113 -0.173488 1.56642 0
M  V30 1744 C 162.023 -1.23482 1.99473 0
M  V30 1745 C 163.039 -1.48567 0.905752 0
M  V30 1746 O 164.215 -1.60758 1.21321 0
M  V30 1747 C 161.28 -2.55444 2.34413 0
M  V30 1748 C 160.341 -2.38241 3.57127 0
M  V30 1749 C 159.574 -3.63909 3.90392 0
M  V30 1750 O 159.797 -4.68996 3.24653 0
M  V30 1751 O 158.731 -3.58149 4.83749 0
M  V30 1752 H 162.557 -0.901279 2.90018 0
M  V30 1753 H 160.142 -0.380185 1.44482 0
M  V30 1754 H 162.024 -3.33292 2.57865 0
M  V30 1755 H 160.699 -2.88382 1.4703 0
M  V30 1756 H 159.606 -1.58431 3.38896 0
M  V30 1757 H 160.939 -2.10228 4.45045 0
M  V30 1758 N 162.591 -1.51276 -0.441967 0
M  V30 1759 C 163.501 -1.75092 -1.56141 0
M  V30 1760 C 164.517 -0.634963 -1.62001 0
M  V30 1761 O 165.693 -0.916686 -1.79329 0
M  V30 1762 C 162.758 -1.86666 -2.92158 0
M  V30 1763 C 161.819 -3.10506 -2.96453 0
M  V30 1764 C 161.052 -3.21519 -4.25982 0
M  V30 1765 O 161.275 -2.38586 -5.18105 0
M  V30 1766 O 160.209 -4.14465 -4.36466 0
M  V30 1767 H 164.035 -2.70044 -1.38961 0
M  V30 1768 H 161.62 -1.35722 -0.624499 0
M  V30 1769 H 163.502 -1.96292 -3.72891 0
M  V30 1770 H 162.177 -0.949014 -3.09476 0
M  V30 1771 H 161.084 -3.06363 -2.14692 0
M  V30 1772 H 162.417 -4.01945 -2.84079 0
M  V30 1773 N 164.069 0.697108 -1.41344 0
M  V30 1774 C 165.032 1.79281 -1.42797 0
M  V30 1775 C 166.032 1.57607 -0.318837 0
M  V30 1776 O 167.222 1.64309 -0.578642 0
M  V30 1777 C 164.354 3.17632 -1.23785 0
M  V30 1778 H 165.547 1.79385 -2.40335 0
M  V30 1779 H 163.1 0.904582 -1.27464 0
M  V30 1780 H 163.835 3.23167 -0.270814 0
M  V30 1781 H 163.62 3.34765 -2.04144 0
M  V30 1782 H 165.11 3.97617 -1.27633 0
M  V30 1783 N 165.547 1.27147 0.931209 0
M  V30 1784 C 166.457 1.11372 2.06478 0
M  V30 1785 C 167.473 0.044645 1.73943 0
M  V30 1786 O 168.649 0.250417 1.99837 0
M  V30 1787 C 165.714 0.758838 3.38294 0
M  V30 1788 C 164.775 1.90841 3.84549 0
M  V30 1789 C 164.008 1.57036 5.10074 0
M  V30 1790 O 164.231 0.476645 5.68405 0
M  V30 1791 O 163.165 2.40839 5.51616 0
M  V30 1792 H 166.991 2.06493 2.22698 0
M  V30 1793 H 164.576 1.06301 1.04978 0
M  V30 1794 H 166.458 0.574098 4.17471 0
M  V30 1795 H 165.133 -0.162879 3.2329 0
M  V30 1796 H 164.04 2.14819 3.06274 0
M  V30 1797 H 165.373 2.81021 4.04089 0
M  V30 1798 N 167.025 -1.13721 1.09112 0
M  V30 1799 C 168.441 -1.36914 0.820174 0
M  V30 1800 C 168.641 -1.93356 -0.567079 0
M  V30 1801 O 167.697 -2.15093 -1.32255 0
M  V30 1802 C 169.01 -2.3235 1.90877 0
M  V30 1803 C 170.558 -2.45973 1.93562 0
M  V30 1804 C 171.033 -3.44714 3.01556 0
M  V30 1805 N 172.524 -3.52263 3.00775 0
M  V30 1806 C 173.259 -4.28536 3.80978 0
M  V30 1807 N 172.755 -5.07991 4.71081 0
M  V30 1808 N 174.548 -4.23804 3.69251 0
M  V30 1809 H 166.699 -0.754348 1.98553 0
M  V30 1810 H 168.962 -0.3944 0.862063 0
M  V30 1811 H 168.668 -1.98027 2.90651 0
M  V30 1812 H 168.542 -3.32332 1.78424 0
M  V30 1813 H 170.929 -2.79584 0.944286 0
M  V30 1814 H 171.01 -1.45926 2.10093 0
M  V30 1815 H 170.654 -3.11835 4.00901 0
M  V30 1816 H 170.584 -4.44558 2.82269 0
M  V30 1817 H 173.075 -2.95567 2.35475 0
M  V30 1818 H 173.388 -5.63487 5.28869 0
M  V30 1819 H 171.733 -5.07235 4.75119 0
M  V30 1820 H 174.924 -3.60806 2.98222 0
M  V30 1821 H 175.097 -4.82995 4.31995 0
M  V30 1822 N 168.503 -0.877838 -1.30888 0
M  V30 1823 C 169.433 -0.35534 -2.3078 0
M  V30 1824 C 170.414 0.557994 -1.60687 0
M  V30 1825 O 171.599 0.473355 -1.88343 0
M  V30 1826 C 168.729 0.437221 -3.44537 0
M  V30 1827 C 167.683 -0.383715 -4.26276 0
M  V30 1828 C 167.009 0.535014 -5.32017 0
M  V30 1829 C 168.309 -1.62201 -4.96476 0
M  V30 1830 H 170.003 -1.19007 -2.74732 0
M  V30 1831 H 167.549 -0.573698 -1.32078 0
M  V30 1832 H 169.502 0.813334 -4.13477 0
M  V30 1833 H 168.226 1.30553 -2.99372 0
M  V30 1834 H 166.885 -0.741874 -3.59015 0
M  V30 1835 H 166.533 1.40083 -4.831 0
M  V30 1836 H 166.233 -0.0104211 -5.87599 0
M  V30 1837 H 167.757 0.907799 -6.03814 0
M  V30 1838 H 169.171 -1.31689 -5.5797 0
M  V30 1839 H 167.568 -2.10711 -5.61891 0
M  V30 1840 H 168.638 -2.37044 -4.23011 0
M  V30 1841 N 169.982 1.44106 -0.638065 0
M  V30 1842 C 170.914 2.28976 0.101205 0
M  V30 1843 C 171.927 1.4167 0.802088 0
M  V30 1844 O 173.116 1.65755 0.662375 0
M  V30 1845 C 170.216 3.18217 1.16581 0
M  V30 1846 C 169.389 4.33978 0.546066 0
M  V30 1847 C 168.448 5.04202 1.50554 0
M  V30 1848 O 167.474 5.59986 1.01999 0
M  V30 1849 N 168.676 5.06296 2.8398 0
M  V30 1850 H 171.441 2.93064 -0.627186 0
M  V30 1851 H 169.002 1.54629 -0.479731 0
M  V30 1852 H 170.994 3.62061 1.80815 0
M  V30 1853 H 169.564 2.55833 1.79634 0
M  V30 1854 H 168.784 3.93239 -0.275046 0
M  V30 1855 H 170.072 5.08675 0.112793 0
M  V30 1856 H 169.47 4.62319 3.26002 0
M  V30 1857 H 168.027 5.53907 3.43556 0
M  V30 1858 N 171.46 0.379036 1.52974 0
M  V30 1859 C 172.39 -0.452706 2.29069 0
M  V30 1860 C 173.371 -1.07237 1.32039 0
M  V30 1861 O 174.556 -1.08708 1.60923 0
M  V30 1862 C 171.686 -1.5856 3.08992 0
M  V30 1863 C 170.64 -1.0925 4.13822 0
M  V30 1864 C 169.966 -2.31668 4.81907 0
M  V30 1865 C 171.266 -0.167702 5.22031 0
M  V30 1866 H 172.96 0.182181 2.98845 0
M  V30 1867 H 170.506 0.0890592 1.43724 0
M  V30 1868 H 172.459 -2.1742 3.6098 0
M  V30 1869 H 171.183 -2.24792 2.36931 0
M  V30 1870 H 169.842 -0.526494 3.628 0
M  V30 1871 H 169.49 -2.96386 4.06404 0
M  V30 1872 H 169.19 -1.9934 5.52754 0
M  V30 1873 H 170.714 -2.91189 5.36695 0
M  V30 1874 H 172.128 -0.664186 5.6944 0
M  V30 1875 H 170.525 0.0653265 6.00064 0
M  V30 1876 H 171.595 0.786347 4.78482 0
M  V30 1877 N 172.938 -1.57226 0.108567 0
M  V30 1878 C 173.848 -2.18292 -0.859401 0
M  V30 1879 C 174.864 -1.15612 -1.30038 0
M  V30 1880 O 176.04 -1.48039 -1.36552 0
M  V30 1881 C 173.105 -2.762 -2.09558 0
M  V30 1882 C 172.166 -3.93881 -1.70752 0
M  V30 1883 C 171.399 -4.49018 -2.88477 0
M  V30 1884 O 171.622 -4.03068 -4.036 0
M  V30 1885 O 170.556 -5.39852 -2.66164 0
M  V30 1886 H 174.382 -3.01441 -0.369769 0
M  V30 1887 H 171.967 -1.48945 -0.1165 0
M  V30 1888 H 173.849 -3.13156 -2.81978 0
M  V30 1889 H 172.524 -1.96089 -2.57548 0
M  V30 1890 H 171.431 -3.61713 -0.954714 0
M  V30 1891 H 172.764 -4.75396 -1.27513 0
M  V30 1892 N 174.416 0.165178 -1.56732 0
M  V30 1893 C 175.665 0.879143 -1.81532 0
M  V30 1894 C 175.978 1.83144 -0.686842 0
M  V30 1895 O 177.184 2.58823 -0.819944 0
M  V30 1896 C 175.64 1.61388 -3.21686 0
M  V30 1897 C 175.248 0.704904 -4.4242 0
M  V30 1898 C 176.992 2.3157 -3.55774 0
M  V30 1899 C 174.899 1.44022 -5.73595 0
M  V30 1900 H 173.829 0.332033 -0.676957 0
M  V30 1901 H 176.48 0.132008 -1.83025 0
M  V30 1902 H 174.862 2.40599 -3.14529 0
M  V30 1903 H 176.036 -0.0506815 -4.60772 0
M  V30 1904 H 174.351 0.112419 -4.16248 0
M  V30 1905 H 176.948 2.8719 -4.51028 0
M  V30 1906 H 177.291 3.07201 -2.8095 0
M  V30 1907 H 177.824 1.59297 -3.64513 0
M  V30 1908 H 174.563 0.72612 -6.51466 0
M  V30 1909 H 174.083 2.16898 -5.5921 0
M  V30 1910 H 175.762 1.98606 -6.15764 0
M  V30 1911 N 175.894 1.51508 0.433938 0
M  V30 1912 C 177.171 1.54888 1.19453 0
M  V30 1913 C 177.551 0.315154 2.08734 0
M  V30 1914 O 176.899 -0.699558 2.17528 0
M  V30 1915 C 177.109 2.86467 1.99342 0
M  V30 1916 C 178.457 3.38545 2.56267 0
M  V30 1917 O 179.481 2.88041 2.0955 0
M  V30 1918 O 178.34 4.26675 3.41483 0
M  V30 1919 H 175.434 0.622863 0.544032 0
M  V30 1920 H 177.98 1.63823 0.442732 0
M  V30 1921 H 176.752 3.67718 1.33788 0
M  V30 1922 H 176.375 2.8071 2.8158 0
M  V30 1923 N 177.372 -0.689602 1.41712 0
M  V30 1924 C 178.304 -1.815 1.39966 0
M  V30 1925 C 179.317 -1.59995 0.300917 0
M  V30 1926 O 180.506 -1.69387 0.563039 0
M  V30 1927 C 177.606 -3.18364 1.16179 0
M  V30 1928 C 176.779 -3.66847 2.38206 0
M  V30 1929 C 175.838 -4.82398 2.10186 0
M  V30 1930 O 174.864 -4.93706 2.83272 0
M  V30 1931 N 176.066 -5.70064 1.0958 0
M  V30 1932 H 178.831 -1.83488 2.36965 0
M  V30 1933 H 176.392 -0.872149 1.36401 0
M  V30 1934 H 178.384 -3.93301 0.953756 0
M  V30 1935 H 176.954 -3.11365 0.27756 0
M  V30 1936 H 176.174 -2.82751 2.74673 0
M  V30 1937 H 177.462 -3.95978 3.19498 0
M  V30 1938 H 176.86 -5.63565 0.491019 0
M  V30 1939 H 175.417 -6.44874 0.947656 0
M  V30 1940 N 178.85 -1.27639 -0.924453 0
M  V30 1941 C 179.797 -1.10644 -2.0255 0
M  V30 1942 C 180.767 -0.00658438 -1.66099 0
M  V30 1943 O 181.952 -0.16952 -1.90045 0
M  V30 1944 C 179.092 -0.76309 -3.36557 0
M  V30 1945 C 178.205 -1.94091 -3.85944 0
M  V30 1946 C 177.34 -1.53914 -5.08413 0
M  V30 1947 C 176.379 -2.68425 -5.50104 0
M  V30 1948 N 175.516 -2.28815 -6.63768 0
M  V30 1949 H 180.356 -2.04858 -2.16419 0
M  V30 1950 H 177.893 -1.01974 -1.06017 0
M  V30 1951 H 179.851 -0.544822 -4.13627 0
M  V30 1952 H 178.481 0.142102 -3.22487 0
M  V30 1953 H 177.533 -2.27162 -3.05125 0
M  V30 1954 H 178.845 -2.7998 -4.12811 0
M  V30 1955 H 177.999 -1.28231 -5.92994 0
M  V30 1956 H 176.738 -0.651391 -4.8333 0
M  V30 1957 H 175.743 -2.94819 -4.64071 0
M  V30 1958 H 176.968 -3.57826 -5.7718 0
M  V30 1959 H 174.914 -1.42495 -6.40337 0
M  V30 1960 H 174.831 -3.08242 -6.90306 0
M  V30 1961 H 176.099 -2.06387 -7.51681 0
M  V30 1962 N 180.328 1.1314 -1.09713 0
M  V30 1963 C 181.275 2.18642 -0.739196 0
M  V30 1964 C 182.245 1.63706 0.280978 0
M  V30 1965 O 183.43 1.90111 0.161946 0
M  V30 1966 C 180.57 3.44685 -0.169102 0
M  V30 1967 C 179.683 4.13711 -1.24367 0
M  V30 1968 C 178.818 5.27379 -0.636019 0
M  V30 1969 C 177.857 5.88259 -1.69169 0
M  V30 1970 N 176.994 6.93352 -1.10485 0
M  V30 1971 H 181.834 2.48607 -1.64312 0
M  V30 1972 H 179.371 1.22066 -0.820875 0
M  V30 1973 H 181.329 4.16815 0.179256 0
M  V30 1974 H 179.959 3.15161 0.698079 0
M  V30 1975 H 179.011 3.39835 -1.70927 0
M  V30 1976 H 180.323 4.55037 -2.04311 0
M  V30 1977 H 179.477 6.06238 -0.236677 0
M  V30 1978 H 178.216 4.8731 0.194928 0
M  V30 1979 H 177.221 5.08092 -2.10055 0
M  V30 1980 H 178.446 6.30399 -2.52536 0
M  V30 1981 H 176.392 6.55335 -0.295234 0
M  V30 1982 H 176.309 7.33236 -1.84121 0
M  V30 1983 H 177.577 7.76057 -0.73181 0
M  V30 1984 N 181.806 0.884767 1.30421 0
M  V30 1985 C 183.083 0.423185 1.90967 0
M  V30 1986 C 183.463 -1.09605 1.80416 0
M  V30 1987 O 182.811 -1.93126 1.22125 0
M  V30 1988 C 183.021 0.921056 3.36627 0
M  V30 1989 C 184.369 0.955903 4.137 0
M  V30 1990 O 185.393 0.867706 3.4547 0
M  V30 1991 O 184.252 1.08614 5.35598 0
M  V30 1992 H 181.346 0.129369 0.816819 0
M  V30 1993 H 183.892 0.973653 1.3899 0
M  V30 1994 H 182.664 1.96489 3.3839 0
M  V30 1995 H 182.287 0.349741 3.96059 0
M  V30 1996 N 183.284 -1.43765 0.645699 0
M  V30 1997 C 184.247 -2.29163 -0.0409488 0
M  V30 1998 C 185.247 -1.41813 -0.757996 0
M  V30 1999 O 186.437 -1.63527 -0.600382 0
M  V30 2000 C 183.569 -3.23716 -1.06869 0
M  V30 2001 H 184.762 -2.91366 0.710345 0
M  V30 2002 H 182.315 -1.5092 0.406547 0
M  V30 2003 H 183.05 -2.66393 -1.84947 0
M  V30 2004 H 182.835 -3.88105 -0.558277 0
M  V30 2005 H 184.325 -3.87831 -1.54845 0
M  V30 2006 N 184.763 -0.387143 -1.52771 0
M  V30 2007 C 185.673 0.456442 -2.30117 0
M  V30 2008 C 186.689 1.07342 -1.36944 0
M  V30 2009 O 187.865 1.07971 -1.70013 0
M  V30 2010 C 184.93 1.56957 -3.09136 0
M  V30 2011 C 183.991 0.977916 -4.18014 0
M  V30 2012 C 183.224 2.038 -4.93256 0
M  V30 2013 O 183.447 3.25271 -4.68567 0
M  V30 2014 O 182.381 1.6565 -5.78657 0
M  V30 2015 H 186.207 -0.17359 -3.03203 0
M  V30 2016 H 183.792 -0.150919 -1.48636 0
M  V30 2017 H 185.674 2.21628 -3.58412 0
M  V30 2018 H 184.349 2.18461 -2.38865 0
M  V30 2019 H 183.256 0.294525 -3.72939 0
M  V30 2020 H 184.589 0.407128 -4.90513 0
M  V30 2021 N 186.241 1.57166 -0.116904 0
M  V30 2022 C 187.189 2.16457 0.851418 0
M  V30 2023 C 188.183 1.11323 1.27686 0
M  V30 2024 O 189.389 1.2963 1.24884 0
M  V30 2025 H 185.764 0.69271 0.292672 0
M  V30 2026 H 187.735 2.96605 0.32685 0
M  V30 2027 C 186.484 2.77689 2.09246 0
M  V30 2028 H 185.807 3.58285 1.77402 0
M  V30 2029 H 187.247 3.22716 2.7501 0
M  V30 2030 C 185.706 1.74667 2.88085 0
M  V30 2031 O 186.236 1.19877 3.83396 0
M  V30 2032 N 184.442 1.44656 2.52038 0
M  V30 2033 H 183.989 1.89402 1.74599 0
M  V30 2034 H 183.947 0.759675 3.05084 0
M  V30 2035 N 187.719 -0.156864 1.56817 0
M  V30 2036 C 188.669 -1.19891 1.93934 0
M  V30 2037 C 189.653 -1.39061 0.809372 0
M  V30 2038 O 190.845 -1.40789 1.07273 0
M  V30 2039 C 187.974 -2.53493 2.31508 0
M  V30 2040 C 187.06 -2.37957 3.51052 0
M  V30 2041 N 187.451 -1.92158 4.67877 0
M  V30 2042 C 185.749 -2.68739 3.55943 0
M  V30 2043 C 186.45 -1.8943 5.49992 0
M  V30 2044 N 185.426 -2.32375 4.91429 0
M  V30 2045 H 189.228 -0.836746 2.81737 0
M  V30 2046 H 186.742 -0.365012 1.58245 0
M  V30 2047 H 188.739 -3.28811 2.56299 0
M  V30 2048 H 187.399 -2.905 1.45051 0
M  V30 2049 H 188.41 -1.62274 4.91821 0
M  V30 2050 H 185.087 -3.09687 2.80001 0
M  V30 2051 H 186.477 -1.55596 6.53636 0
M  V30 2052 N 189.197 -1.51736 -0.425897 0
M  V30 2053 C 190.107 -1.76738 -1.54275 0
M  V30 2054 C 191.123 -0.65211 -1.61318 0
M  V30 2055 O 192.299 -0.935654 -1.78346 0
M  V30 2056 C 189.364 -1.89755 -2.90162 0
M  V30 2057 C 188.425 -3.13633 -2.93143 0
M  V30 2058 C 187.658 -3.2602 -4.22548 0
M  V30 2059 O 187.881 -2.44067 -5.15546 0
M  V30 2060 O 186.815 -4.19071 -4.32046 0
M  V30 2061 H 190.641 -2.71502 -1.36089 0
M  V30 2062 H 188.226 -1.36376 -0.610069 0
M  V30 2063 H 190.108 -2.00236 -3.70788 0
M  V30 2064 H 188.783 -0.981785 -3.08452 0
M  V30 2065 H 187.69 -3.08622 -2.11431 0
M  V30 2066 H 189.023 -4.04936 -2.798 0
M  V30 2067 N 190.675 0.682077 -1.42076 0
M  V30 2068 C 191.638 1.77756 -1.44691 0
M  V30 2069 C 192.638 1.5726 -0.335535 0
M  V30 2070 O 193.828 1.63686 -0.596037 0
M  V30 2071 C 190.96 3.16301 -1.27146 0
M  V30 2072 H 192.153 1.76826 -2.42224 0
M  V30 2073 H 189.706 0.891012 -1.28416 0
M  V30 2074 H 190.441 3.22862 -0.305075 0
M  V30 2075 H 190.226 3.32581 -2.07683 0
M  V30 2076 H 191.716 3.96241 -1.31843 0
M  V30 2077 N 192.153 1.28127 0.917671 0
M  V30 2078 C 193.085 1.07517 2.02417 0
M  V30 2079 C 194.098 0.0281099 1.62776 0
M  V30 2080 O 195.287 0.270748 1.76435 0
M  V30 2081 C 192.387 0.610957 3.33347 0
M  V30 2082 C 191.56 1.73255 4.01624 0
M  V30 2083 C 190.619 1.26238 5.10833 0
M  V30 2084 O 189.645 1.96389 5.34247 0
M  V30 2085 N 190.847 0.123448 5.80369 0
M  V30 2086 H 193.612 2.02806 2.20658 0
M  V30 2087 H 191.173 1.19827 1.08871 0
M  V30 2088 H 193.165 0.280101 4.0373 0
M  V30 2089 H 191.735 -0.24898 3.11607 0
M  V30 2090 H 190.955 2.23319 3.24842 0
M  V30 2091 H 192.243 2.48503 4.43986 0
M  V30 2092 H 191.641 -0.461847 5.63812 0
M  V30 2093 H 190.198 -0.148158 6.51632 0
M  V30 2094 N 193.631 -1.12557 1.10312 0
M  V30 2095 C 194.561 -2.20341 0.772798 0
M  V30 2096 C 195.542 -1.68198 -0.25365 0
M  V30 2097 O 196.727 -1.93831 -0.119699 0
M  V30 2098 C 193.857 -3.46709 0.202443 0
M  V30 2099 C 192.811 -4.11996 1.15943 0
M  V30 2100 C 192.137 -5.328 0.450345 0
M  V30 2101 C 193.437 -4.5828 2.50552 0
M  V30 2102 H 195.131 -2.48229 1.674 0
M  V30 2103 H 192.677 -1.19308 0.806326 0
M  V30 2104 H 194.63 -4.2138 -0.0407752 0
M  V30 2105 H 193.354 -3.18245 -0.734001 0
M  V30 2106 H 192.013 -3.39305 1.38808 0
M  V30 2107 H 191.661 -5.00602 -0.490531 0
M  V30 2108 H 191.361 -5.7743 1.08851 0
M  V30 2109 H 192.885 -6.10219 0.215642 0
M  V30 2110 H 194.299 -5.2433 2.31843 0
M  V30 2111 H 192.696 -5.13683 3.10242 0
M  V30 2112 H 193.766 -3.72329 3.10643 0
M  V30 2113 N 195.109 -0.891671 -1.2995 0
M  V30 2114 C 196.056 -0.361736 -2.27948 0
M  V30 2115 C 197.026 0.551761 -1.56668 0
M  V30 2116 O 198.211 0.478736 -1.84696 0
M  V30 2117 C 195.351 0.411825 -3.42634 0
M  V30 2118 C 194.464 -0.531651 -4.28716 0
M  V30 2119 C 193.599 0.258167 -5.30572 0
M  V30 2120 C 192.638 -0.680349 -6.08307 0
M  V30 2121 N 191.775 0.0745613 -7.0206 0
M  V30 2122 H 196.615 -1.20254 -2.72659 0
M  V30 2123 H 194.152 -0.604352 -1.34112 0
M  V30 2124 H 196.11 0.876304 -4.07893 0
M  V30 2125 H 194.74 1.21715 -2.98974 0
M  V30 2126 H 193.792 -1.11463 -3.63703 0
M  V30 2127 H 195.104 -1.25038 -4.82874 0
M  V30 2128 H 194.258 0.784204 -6.0161 0
M  V30 2129 H 192.997 1.01008 -4.77126 0
M  V30 2130 H 192.002 -1.21796 -5.3614 0
M  V30 2131 H 193.227 -1.43145 -6.63842 0
M  V30 2132 H 191.173 0.808883 -6.50994 0
M  V30 2133 H 191.09 -0.584409 -7.53738 0
M  V30 2134 H 192.358 0.581123 -7.77331 0
M  V30 2135 N 196.587 1.43421 -0.653314 0
M  V30 2136 C 197.535 2.32546 0.0501531 0
M  V30 2137 C 198.529 1.48617 0.812985 0
M  V30 2138 O 199.735 1.64825 0.723375 0
M  V30 2139 H 196.11 0.751185 0.0350032 0
M  V30 2140 H 198.081 2.89602 -0.719261 0
M  V30 2141 C 196.83 3.32925 1.00279 0
M  V30 2142 H 196.153 3.97532 0.425236 0
M  V30 2143 H 197.593 3.9792 1.46409 0
M  V30 2144 C 196.052 2.63532 2.09886 0
M  V30 2145 O 196.582 2.45092 3.18265 0
M  V30 2146 N 194.788 2.22905 1.86445 0
M  V30 2147 H 194.335 2.38103 0.98309 0
M  V30 2148 H 194.293 1.76805 2.59976 0
M  V30 2149 N 198.065 0.39524 1.52563 0
M  V30 2150 C 199.313 -0.184678 2.01254 0
M  V30 2151 C 199.634 -1.46822 1.28329 0
M  V30 2152 O 198.904 -1.91666 0.405094 0
M  V30 2153 H 197.484 -0.0712355 0.743596 0
M  V30 2154 H 200.146 0.528293 1.87603 0
M  V30 2155 H 199.242 -0.390681 3.09645 0
M  V30 2156 N 199.544 -1.57102 0.125237 0
M  V30 2157 C 200.769 -2.0019 -0.542101 0
M  V30 2158 C 201.194 -1.00449 -1.59034 0
M  V30 2159 O 200.552 0.0229423 -1.81285 0
M  V30 2160 C 200.6 -3.42129 -1.13929 0
M  V30 2161 O 199.704 -3.45307 -2.2547 0
M  V30 2162 H 199.045 -0.650171 -0.134812 0
M  V30 2163 H 201.575 -2.03461 0.215553 0
M  V30 2164 H 201.585 -3.80471 -1.4733 0
M  V30 2165 H 200.26 -4.14237 -0.371531 0
M  V30 2166 H 198.837 -3.1879 -1.93462 0
M  V30 2167 N 201.022 0.148545 -1.56898 0
M  V30 2168 C 201.952 1.18524 -2.01182 0
M  V30 2169 C 202.933 1.4489 -0.891123 0
M  V30 2170 O 204.118 1.55836 -1.15882 0
M  V30 2171 C 201.248 2.51879 -2.39112 0
M  V30 2172 C 200.202 2.40038 -3.54353 0
M  V30 2173 C 199.528 3.78089 -3.78091 0
M  V30 2174 C 200.828 1.88577 -4.87069 0
M  V30 2175 H 202.522 0.817029 -2.88036 0
M  V30 2176 H 200.068 0.391575 -1.38574 0
M  V30 2177 H 202.021 3.24627 -2.68692 0
M  V30 2178 H 200.745 2.90532 -1.49193 0
M  V30 2179 H 199.404 1.69742 -3.24936 0
M  V30 2180 H 199.052 4.14175 -2.85426 0
M  V30 2181 H 198.752 3.71028 -4.55645 0
M  V30 2182 H 200.276 4.52387 -4.10095 0
M  V30 2183 H 201.69 2.51117 -5.15377 0
M  V30 2184 H 200.087 1.9241 -5.68417 0
M  V30 2185 H 201.157 0.84136 -4.77545 0
M  V30 2186 N 202.5 1.5196 0.417844 0
M  V30 2187 C 203.777 1.56146 1.17803 0
M  V30 2188 C 204.157 0.337275 2.08388 0
M  V30 2189 O 203.505 -0.676447 2.18258 0
M  V30 2190 C 203.715 2.88566 1.96293 0
M  V30 2191 C 205.063 3.41244 2.52662 0
M  V30 2192 O 206.087 2.90247 2.06483 0
M  V30 2193 O 204.946 4.30273 3.36938 0
M  V30 2194 H 202.04 0.628598 0.537395 0
M  V30 2195 H 204.586 1.64283 0.425331 0
M  V30 2196 H 203.358 3.69116 1.2988 0
M  V30 2197 H 202.981 2.83681 2.78587 0
M  V30 2198 N 203.978 -0.674533 1.42435 0
M  V30 2199 C 205.203 -1.46784 1.46524 0
M  V30 2200 C 205.628 -1.87938 0.078066 0
M  V30 2201 O 204.986 -1.56014 -0.92354 0
M  V30 2202 C 205.034 -2.69307 2.39805 0
M  V30 2203 O 204.138 -3.67587 1.86959 0
M  V30 2204 H 203.479 -0.440959 0.496439 0
M  V30 2205 H 206.009 -0.827326 1.87127 0
M  V30 2206 H 206.019 -3.17374 2.56393 0
M  V30 2207 H 204.694 -2.38692 3.40586 0
M  V30 2208 H 203.271 -3.2662 1.79927 0
M  V30 2209 N 205.456 -1.28612 -0.910864 0
M  V30 2210 C 206.867 -1.14406 -1.47541 0
M  V30 2211 C 207.218 0.264901 -1.94403 0
M  V30 2212 O 206.343 1.15942 -1.82719 0
M  V30 2213 C 206.938 -2.07073 -2.68153 0
M  V30 2214 C 205.497 -1.96923 -3.20778 0
M  V30 2215 C 204.644 -1.98646 -1.93481 0
M  V30 2216 H 207.595 -1.41259 -0.723291 0
M  V30 2217 H 207.616 -1.63642 -3.43514 0
M  V30 2218 H 207.128 -3.09611 -2.34015 0
M  V30 2219 H 205.229 -0.97433 -3.59635 0
M  V30 2220 H 205.342 -2.84026 -3.85832 0
M  V30 2221 H 203.706 -1.43093 -2.10705 0
M  V30 2222 H 204.489 -3.02868 -1.61634 0
M  V30 2223 N 206.934 1.1197 -1.10907 0
M  V30 2224 C 208.182 1.83225 -0.852819 0
M  V30 2225 C 208.503 1.84769 0.623341 0
M  V30 2226 O 207.773 1.3143 1.45269 0
M  V30 2227 H 206.353 0.67849 -0.312507 0
M  V30 2228 H 209.015 1.3556 -1.40033 0
M  V30 2229 H 208.111 2.87265 -1.22005 0
M  V30 2230 N 208.412 0.89855 1.29475 0
M  V30 2231 C 209.359 0.373819 2.27753 0
M  V30 2232 C 210.329 -0.543444 1.56958 0
M  V30 2233 O 211.514 -0.468934 1.84948 0
M  V30 2234 C 208.654 -0.393648 3.42848 0
M  V30 2235 C 207.767 0.554379 4.28428 0
M  V30 2236 C 206.902 -0.230026 5.30702 0
M  V30 2237 C 205.941 0.712599 6.07938 0
M  V30 2238 N 205.078 -0.0373283 7.0209 0
M  V30 2239 H 209.918 1.21699 2.72017 0
M  V30 2240 H 207.455 0.611456 1.33789 0
M  V30 2241 H 209.413 -0.85466 4.08352 0
M  V30 2242 H 208.043 -1.20128 2.99615 0
M  V30 2243 H 207.095 1.13391 3.63107 0
M  V30 2244 H 208.407 1.27597 4.82204 0
M  V30 2245 H 207.561 -0.752288 6.02018 0
M  V30 2246 H 206.3 -0.984758 4.77654 0
M  V30 2247 H 205.305 1.24637 5.35486 0
M  V30 2248 H 206.53 1.46664 6.63074 0
M  V30 2249 H 204.476 -0.774348 6.51414 0
M  V30 2250 H 204.393 0.624374 7.53417 0
M  V30 2251 H 205.661 -0.539891 7.77628 0
M  V30 2252 N 209.89 -1.43072 0.660911 0
M  V30 2253 C 210.822 -2.29108 -0.0647641 0
M  V30 2254 C 211.835 -1.42928 -0.779448 0
M  V30 2255 O 213.024 -1.66788 -0.635921 0
M  V30 2256 C 210.124 -3.20032 -1.11503 0
M  V30 2257 C 209.297 -4.34792 -0.476955 0
M  V30 2258 C 208.356 -5.06534 -1.42513 0
M  V30 2259 O 207.382 -5.61538 -0.930771 0
M  V30 2260 N 208.584 -5.1075 -2.75889 0
M  V30 2261 H 211.349 -2.92029 0.673731 0
M  V30 2262 H 208.91 -1.53846 0.50427 0
M  V30 2263 H 210.902 -3.64892 -1.75032 0
M  V30 2264 H 209.472 -2.58658 -1.75541 0
M  V30 2265 H 208.692 -3.92752 0.337572 0
M  V30 2266 H 209.98 -5.0879 -0.0318525 0
M  V30 2267 H 209.378 -4.67447 -3.18606 0
M  V30 2268 H 207.935 -5.59302 -3.347 0
M  V30 2269 N 211.368 -0.403325 -1.52352 0
M  V30 2270 C 212.645 0.232611 -1.94212 0
M  V30 2271 C 213.025 1.63133 -1.33981 0
M  V30 2272 O 212.373 2.22659 -0.513344 0
M  V30 2273 C 212.583 0.244811 -3.4814 0
M  V30 2274 C 213.931 0.46698 -4.22024 0
M  V30 2275 O 214.955 0.324419 -3.5472 0
M  V30 2276 O 213.814 0.74747 -5.41364 0
M  V30 2277 H 210.908 0.148223 -0.813609 0
M  V30 2278 H 213.454 -0.458848 -1.63379 0
M  V30 2279 H 212.226 -0.734378 -3.84347 0
M  V30 2280 H 211.849 0.980611 -3.85318 0
M  V30 2281 N 212.846 1.57033 -0.133567 0
M  V30 2282 C 214.074 2.00044 0.528195 0
M  V30 2283 C 214.489 1.01349 1.59291 0
M  V30 2284 O 213.846 0.00848369 1.82498 0
M  V30 2285 C 213.897 3.43018 1.1411 0
M  V30 2286 O 213.618 4.37939 0.11892 0
M  V30 2287 C 215.119 4.01237 1.88477 0
M  V30 2288 H 212.339 0.656517 0.138661 0
M  V30 2289 H 214.883 2.03267 -0.224196 0
M  V30 2290 H 213.038 3.40688 1.84418 0
M  V30 2291 H 213.452 5.21436 0.56613 0
M  V30 2292 H 214.926 5.03314 2.26669 0
M  V30 2293 H 215.403 3.41193 2.76558 0
M  V30 2294 H 216.009 4.07156 1.22898 0
M  V30 2295 N 214.325 -0.140222 1.56975 0
M  V30 2296 C 215.235 -1.19223 2.02047 0
M  V30 2297 C 216.251 -1.46612 0.937062 0
M  V30 2298 O 217.427 -1.58148 1.24704 0
M  V30 2299 C 214.492 -2.50414 2.39778 0
M  V30 2300 C 213.553 -2.30612 3.621 0
M  V30 2301 C 212.786 -3.55547 3.98023 0
M  V30 2302 O 213.009 -4.62004 3.34528 0
M  V30 2303 O 211.943 -3.47808 4.91237 0
M  V30 2304 H 215.769 -0.839559 2.91865 0
M  V30 2305 H 213.354 -0.349453 1.45256 0
M  V30 2306 H 215.236 -3.27747 2.64877 0
M  V30 2307 H 213.911 -2.85198 1.53114 0
M  V30 2308 H 212.818 -1.51207 3.4218 0
M  V30 2309 H 214.151 -2.00741 4.49404 0
M  V30 2310 N 215.803 -1.52179 -0.40978 0
M  V30 2311 C 216.713 -1.78364 -1.52392 0
M  V30 2312 C 217.729 -0.669183 -1.60617 0
M  V30 2313 O 218.905 -0.954518 -1.77344 0
M  V30 2314 C 215.97 -1.92822 -2.88133 0
M  V30 2315 C 215.031 -3.16725 -2.898 0
M  V30 2316 C 214.264 -3.30483 -4.19067 0
M  V30 2317 O 214.487 -2.49522 -5.12928 0
M  V30 2318 O 213.421 -4.2363 -4.27576 0
M  V30 2319 H 217.247 -2.72931 -1.33201 0
M  V30 2320 H 214.832 -1.37016 -0.59557 0
M  V30 2321 H 216.714 -2.04157 -3.68643 0
M  V30 2322 H 215.389 -1.01444 -3.07393 0
M  V30 2323 H 214.296 -3.10848 -2.08146 0
M  V30 2324 H 215.629 -4.07881 -2.75489 0
M  V30 2325 N 217.281 0.66697 -1.42791 0
M  V30 2326 C 218.558 1.4234 -1.34159 0
M  V30 2327 C 218.938 2.11093 0.0172729 0
M  V30 2328 O 218.286 2.03808 1.03318 0
M  V30 2329 C 218.496 2.41942 -2.51526 0
M  V30 2330 C 219.844 3.06353 -2.93995 0
M  V30 2331 O 220.868 2.52269 -2.51473 0
M  V30 2332 O 219.727 4.04376 -3.67617 0
M  V30 2333 H 216.821 0.635277 -0.529483 0
M  V30 2334 H 219.367 0.695034 -1.54814 0
M  V30 2335 H 218.139 1.89991 -3.42081 0
M  V30 2336 H 217.762 3.22249 -2.32898 0
M  V30 2337 N 218.759 1.29093 0.90403 0
M  V30 2338 C 219.669 1.15727 2.0407 0
M  V30 2339 C 220.685 0.0815308 1.73809 0
M  V30 2340 O 221.861 0.292749 1.99261 0
M  V30 2341 C 218.926 0.830424 3.36608 0
M  V30 2342 C 217.987 1.98955 3.80415 0
M  V30 2343 C 217.22 1.6782 5.06628 0
M  V30 2344 O 217.443 0.597105 5.67266 0
M  V30 2345 O 216.377 2.52486 5.46383 0
M  V30 2346 H 220.203 2.11171 2.18267 0
M  V30 2347 H 217.788 1.08504 1.027 0
M  V30 2348 H 219.67 0.662521 4.16159 0
M  V30 2349 H 218.345 -0.0942678 3.23563 0
M  V30 2350 H 217.252 2.21267 3.01648 0
M  V30 2351 H 218.585 2.89529 3.98037 0
M  V30 2352 N 220.237 -1.11381 1.11499 0
M  V30 2353 C 221.147 -2.21019 0.786628 0
M  V30 2354 C 222.163 -1.72597 -0.220507 0
M  V30 2355 O 223.339 -2.01321 -0.0565251 0
M  V30 2356 C 220.404 -3.459 0.235333 0
M  V30 2357 C 219.465 -4.09107 1.30115 0
M  V30 2358 C 218.698 -5.28027 0.776068 0
M  V30 2359 O 218.921 -5.6904 -0.393661 0
M  V30 2360 O 217.855 -5.81835 1.54114 0
M  V30 2361 H 221.681 -2.51521 1.70209 0
M  V30 2362 H 219.266 -1.19928 0.890928 0
M  V30 2363 H 221.148 -4.21346 -0.067715 0
M  V30 2364 H 219.823 -3.17049 -0.652828 0
M  V30 2365 H 218.73 -3.35391 1.65722 0
M  V30 2366 H 220.063 -4.42139 2.16273 0
M  V30 2367 N 221.715 -0.905404 -1.28997 0
M  V30 2368 C 222.625 -0.392246 -2.31298 0
M  V30 2369 C 223.641 0.515889 -1.66176 0
M  V30 2370 O 224.817 0.404093 -1.97304 0
M  V30 2371 C 221.882 0.36686 -3.44754 0
M  V30 2372 C 220.943 -0.573485 -4.25452 0
M  V30 2373 C 220.176 0.149488 -5.33491 0
M  V30 2374 O 220.399 1.37255 -5.5364 0
M  V30 2375 O 219.333 -0.510919 -5.99728 0
M  V30 2376 H 223.159 -1.2411 -2.77183 0
M  V30 2377 H 220.744 -0.669926 -1.33538 0
M  V30 2378 H 222.626 0.795907 -4.13816 0
M  V30 2379 H 221.301 1.19169 -3.00966 0
M  V30 2380 H 220.208 -1.05176 -3.59011 0
M  V30 2381 H 221.541 -1.36489 -4.72897 0
M  V30 2382 N 223.193 1.4272 -0.668489 0
M  V30 2383 C 224.47 1.95248 -0.117373 0
M  V30 2384 C 224.85 1.60919 1.36632 0
M  V30 2385 O 224.198 0.902095 2.09939 0
M  V30 2386 C 224.408 3.46927 -0.379806 0
M  V30 2387 C 225.756 4.23588 -0.292923 0
M  V30 2388 O 226.78 3.5482 -0.313204 0
M  V30 2389 O 225.639 5.46017 -0.229697 0
M  V30 2390 H 222.733 0.827 0.00079152 0
M  V30 2391 H 225.279 1.52581 -0.742783 0
M  V30 2392 H 224.051 3.65096 -1.40786 0
M  V30 2393 H 223.674 3.96627 0.277923 0
M  V30 2394 N 224.671 0.411399 1.52136 0
M  V30 2395 C 225.581 -0.419774 2.30814 0
M  V30 2396 C 226.597 -1.0515 1.38634 0
M  V30 2397 O 227.773 -1.05252 1.71709 0
M  V30 2398 C 224.838 -1.52019 3.11594 0
M  V30 2399 C 223.899 -0.91129 4.19516 0
M  V30 2400 C 223.132 -1.95927 4.96436 0
M  V30 2401 O 223.355 -3.17775 4.73683 0
M  V30 2402 O 222.289 -1.56423 5.81219 0
M  V30 2403 H 226.115 0.221805 3.02889 0
M  V30 2404 H 223.7 0.174547 1.48377 0
M  V30 2405 H 225.582 -2.15898 3.61892 0
M  V30 2406 H 224.257 -2.14633 2.42311 0
M  V30 2407 H 223.164 -0.235157 3.7336 0
M  V30 2408 H 224.497 -0.32904 4.91099 0
M  V30 2409 N 226.149 -1.5696 0.141893 0
M  V30 2410 C 227.096 -2.16501 -0.799737 0
M  V30 2411 C 228.066 -1.09643 -1.24771 0
M  V30 2412 O 229.251 -1.3766 -1.32115 0
M  V30 2413 C 226.391 -2.78679 -2.03549 0
M  V30 2414 C 225.504 -3.99914 -1.6338 0
M  V30 2415 C 224.639 -4.50106 -2.82096 0
M  V30 2416 C 223.678 -5.63819 -2.38275 0
M  V30 2417 N 222.815 -6.08651 -3.49983 0
M  V30 2418 H 227.655 -2.96632 -0.285179 0
M  V30 2419 H 225.192 -1.46533 -0.129053 0
M  V30 2420 H 227.15 -3.1287 -2.75986 0
M  V30 2421 H 225.78 -2.012 -2.52425 0
M  V30 2422 H 224.832 -3.71735 -0.807279 0
M  V30 2423 H 226.144 -4.82311 -1.27192 0
M  V30 2424 H 225.298 -4.86325 -3.62729 0
M  V30 2425 H 224.037 -3.66706 -3.21525 0
M  V30 2426 H 223.042 -5.2718 -1.56081 0
M  V30 2427 H 224.267 -6.49 -1.99938 0
M  V30 2428 H 222.213 -5.28188 -3.89042 0
M  V30 2429 H 222.13 -6.85961 -3.17794 0
M  V30 2430 H 223.398 -6.49515 -4.30988 0
M  V30 2431 N 227.627 0.131896 -1.57047 0
M  V30 2432 C 228.904 0.871495 -1.75112 0
M  V30 2433 C 229.284 1.9866 -0.713949 0
M  V30 2434 O 228.632 2.26965 0.264447 0
M  V30 2435 C 228.842 1.40007 -3.19686 0
M  V30 2436 C 230.19 1.85752 -3.81813 0
M  V30 2437 O 231.214 1.49715 -3.23209 0
M  V30 2438 O 230.073 2.5226 -4.84796 0
M  V30 2439 H 227.167 0.412919 -0.716538 0
M  V30 2440 H 229.713 0.116641 -1.69299 0
M  V30 2441 H 228.485 0.599404 -3.86682 0
M  V30 2442 H 228.108 2.218 -3.29986 0
M  V30 2443 N 229.106 1.52395 0.401703 0
M  V30 2444 C 230.053 1.76268 1.48991 0
M  V30 2445 C 231.023 0.605386 1.54675 0
M  V30 2446 O 232.208 0.843742 1.7113 0
M  V30 2447 C 229.348 1.92592 2.86361 0
M  V30 2448 C 228.461 3.20259 2.89928 0
M  V30 2449 C 227.596 3.26972 4.18644 0
M  V30 2450 C 226.635 4.48812 4.16214 0
M  V30 2451 N 225.772 4.52877 5.36514 0
M  V30 2452 H 230.612 2.6914 1.27935 0
M  V30 2453 H 228.149 1.33355 0.620871 0
M  V30 2454 H 230.107 2.0004 3.66115 0
M  V30 2455 H 228.737 1.03093 3.05895 0
M  V30 2456 H 227.789 3.21945 2.02621 0
M  V30 2457 H 229.101 4.10056 2.83999 0
M  V30 2458 H 228.255 3.33533 5.06794 0
M  V30 2459 H 226.994 2.35126 4.27278 0
M  V30 2460 H 225.999 4.4239 3.26453 0
M  V30 2461 H 227.224 5.41961 4.09213 0
M  V30 2462 H 225.17 3.63917 5.45802 0
M  V30 2463 H 225.087 5.36529 5.32609 0
M  V30 2464 H 226.355 4.63676 6.26597 0
M  V30 2465 N 230.584 -0.659388 1.43143 0
M  V30 2466 C 231.832 -1.41654 1.44147 0
M  V30 2467 C 232.153 -1.94893 0.0645739 0
M  V30 2468 O 231.423 -1.74044 -0.899198 0
M  V30 2469 H 230.003 -0.525708 0.530697 0
M  V30 2470 H 232.665 -0.778097 1.78694 0
M  V30 2471 H 231.761 -2.26195 2.1504 0
M  V30 2472 N 232.062 -1.29571 -0.897171 0
M  V30 2473 C 233.009 -1.14916 -2.00158 0
M  V30 2474 C 233.979 -0.0418149 -1.66047 0
M  V30 2475 O 235.164 -0.209793 -1.89643 0
M  V30 2476 C 232.304 -0.834307 -3.34863 0
M  V30 2477 C 231.417 -2.02234 -3.8174 0
M  V30 2478 C 230.552 -1.64664 -5.05034 0
M  V30 2479 C 229.591 -2.80033 -5.44286 0
M  V30 2480 N 228.728 -2.42843 -6.58765 0
M  V30 2481 H 233.568 -2.09403 -2.12025 0
M  V30 2482 H 231.105 -1.042 -1.0383 0
M  V30 2483 H 233.063 -0.632436 -4.12379 0
M  V30 2484 H 231.693 0.0736656 -3.22716 0
M  V30 2485 H 230.745 -2.33583 -3.00238 0
M  V30 2486 H 232.057 -2.88673 -4.06779 0
M  V30 2487 H 231.211 -1.4078 -5.9014 0
M  V30 2488 H 229.95 -0.753766 -4.8184 0
M  V30 2489 H 228.955 -3.04596 -4.57713 0
M  V30 2490 H 230.18 -3.69989 -5.6946 0
M  V30 2491 H 228.126 -1.56046 -6.3717 0
M  V30 2492 H 228.043 -3.22815 -6.83613 0
M  V30 2493 H 229.311 -2.22285 -7.47134 0
M  V30 2494 N 233.54 1.10788 -1.12088 0
M  V30 2495 C 234.47 2.19083 -0.807755 0
M  V30 2496 C 235.451 1.6858 0.226859 0
M  V30 2497 O 236.636 1.93997 0.0888475 0
M  V30 2498 C 233.766 3.46344 -0.257576 0
M  V30 2499 C 232.72 4.101 -1.22483 0
M  V30 2500 C 232.046 5.32016 -0.535052 0
M  V30 2501 C 233.346 4.54236 -2.57811 0
M  V30 2502 H 235.04 2.45534 -1.71328 0
M  V30 2503 H 232.586 1.1801 -0.825205 0
M  V30 2504 H 234.539 4.21392 -0.0262679 0
M  V30 2505 H 233.263 3.19373 0.683278 0
M  V30 2506 H 231.922 3.37054 -1.44189 0
M  V30 2507 H 231.57 5.01319 0.410827 0
M  V30 2508 H 231.27 5.75625 -1.18024 0
M  V30 2509 H 232.794 6.09799 -0.312695 0
M  V30 2510 H 234.208 5.20575 -2.40155 0
M  V30 2511 H 232.605 5.08682 -3.18375 0
M  V30 2512 H 233.675 3.6734 -3.16528 0
M  V30 2513 N 235.018 0.912232 1.28515 0
M  V30 2514 C 235.965 0.397954 2.27343 0
M  V30 2515 C 236.935 -0.526766 1.57526 0
M  V30 2516 O 238.12 -0.449292 1.85435 0
M  V30 2517 C 235.26 -0.357263 3.43246 0
M  V30 2518 C 234.373 0.599788 4.27816 0
M  V30 2519 C 233.508 -0.173725 5.30916 0
M  V30 2520 C 232.547 0.777039 6.07148 0
M  V30 2521 N 231.684 0.0371398 7.0209 0
M  V30 2522 H 236.524 1.24577 2.70711 0
M  V30 2523 H 234.061 0.625612 1.33133 0
M  V30 2524 H 236.019 -0.8113 4.09236 0
M  V30 2525 H 234.649 -1.16943 3.00872 0
M  V30 2526 H 233.701 1.17235 3.61884 0
M  V30 2527 H 235.013 1.32704 4.80823 0
M  V30 2528 H 234.167 -0.688394 6.02782 0
M  V30 2529 H 232.906 -0.934041 4.78672 0
M  V30 2530 H 231.911 1.3031 5.34134 0
M  V30 2531 H 233.136 1.53689 6.61481 0
M  V30 2532 H 231.082 -0.705213 6.52198 0
M  V30 2533 H 230.999 0.704249 7.52713 0
M  V30 2534 H 232.267 -0.457383 7.78157 0
M  V30 2535 N 236.496 -1.42363 0.676048 0
M  V30 2536 C 237.907 -1.84649 0.275948 0
M  V30 2537 C 238.258 -1.56588 -1.18214 0
M  V30 2538 O 237.383 -1.02634 -1.90513 0
M  V30 2539 C 237.978 -3.35178 0.494053 0
M  V30 2540 C 236.537 -3.76109 0.148061 0
M  V30 2541 C 235.684 -2.65931 0.785891 0
M  V30 2542 H 238.635 -1.32192 0.878121 0
M  V30 2543 H 238.656 -3.79655 -0.25343 0
M  V30 2544 H 238.168 -3.55571 1.55535 0
M  V30 2545 H 236.269 -3.61323 -0.909742 0
M  V30 2546 H 236.382 -4.7546 0.589454 0
M  V30 2547 H 234.746 -2.53773 0.217113 0
M  V30 2548 H 235.529 -2.89146 1.85067 0
M  V30 2549 N 237.974 -0.419461 -1.51915 0
M  V30 2550 C 238.922 0.415502 -2.28859 0
M  V30 2551 C 239.916 1.03674 -1.3397 0
M  V30 2552 O 241.122 0.973757 -1.51387 0
M  V30 2553 H 237.497 0.152786 -0.736315 0
M  V30 2554 H 239.468 -0.254531 -2.97312 0
M  V30 2555 C 238.217 1.51425 -3.12995 0
M  V30 2556 H 237.54 1.04556 -3.85886 0
M  V30 2557 H 238.98 2.07208 -3.6992 0
M  V30 2558 C 237.439 2.48745 -2.27217 0
M  V30 2559 O 237.969 3.52871 -1.9195 0
M  V30 2560 N 236.175 2.19202 -1.90785 0
M  V30 2561 H 235.722 1.34556 -2.19664 0
M  V30 2562 H 235.68 2.84561 -1.33687 0
M  V30 2563 N 239.452 1.56882 -0.150215 0
M  V30 2564 C 240.382 2.19935 0.784284 0
M  V30 2565 C 241.363 1.14854 1.25469 0
M  V30 2566 O 242.548 1.43209 1.31168 0
M  V30 2567 C 239.678 2.82349 2.02229 0
M  V30 2568 C 238.632 3.93285 1.68853 0
M  V30 2569 C 237.958 4.42649 2.99944 0
M  V30 2570 C 239.258 5.13904 0.932714 0
M  V30 2571 H 240.952 2.9828 0.258781 0
M  V30 2572 H 238.498 1.43473 0.123029 0
M  V30 2573 H 240.451 3.25126 2.68088 0
M  V30 2574 H 239.175 2.0134 2.57157 0
M  V30 2575 H 237.834 3.5113 1.05371 0
M  V30 2576 H 237.482 3.58458 3.52869 0
M  V30 2577 H 237.182 5.17476 2.78374 0
M  V30 2578 H 238.706 4.88099 3.66868 0
M  V30 2579 H 240.12 5.53506 1.49345 0
M  V30 2580 H 238.517 5.94515 0.81684 0
M  V30 2581 H 239.587 4.84842 -0.0749568 0
M  V30 2582 N 240.93 -0.123565 1.57115 0
M  V30 2583 C 242.178 -0.83051 1.84247 0
M  V30 2584 C 242.499 -1.80629 0.73471 0
M  V30 2585 O 241.769 -1.94403 -0.241688 0
M  V30 2586 H 240.349 -0.309694 0.679778 0
M  V30 2587 H 243.011 -0.111976 1.94578 0
M  V30 2588 H 242.107 -1.37852 2.80006 0
M  V30 2589 N 242.408 -1.52605 -0.393616 0
M  V30 2590 C 243.356 -1.77688 -1.50099 0
M  V30 2591 C 244.35 -0.644615 -1.56656 0
M  V30 2592 O 245.556 -0.826997 -1.59877 0
M  V30 2593 H 241.931 -0.562159 -0.499481 0
M  V30 2594 H 243.902 -2.7043 -1.26135 0
M  V30 2595 C 242.651 -1.95858 -2.87289 0
M  V30 2596 H 241.974 -2.8241 -2.82992 0
M  V30 2597 H 243.414 -2.174 -3.64024 0
M  V30 2598 C 241.873 -0.729848 -3.28899 0
M  V30 2599 O 242.403 0.0949217 -4.01588 0
M  V30 2600 N 240.609 -0.561283 -2.85128 0
M  V30 2601 H 240.156 -1.23357 -2.26143 0
M  V30 2602 H 240.114 0.2595 -3.13327 0
M  V30 2603 N 243.887 0.651787 -1.4349 0
M  V30 2604 C 245.135 1.40888 -1.44897 0
M  V30 2605 C 245.456 1.94856 -0.0749086 0
M  V30 2606 O 244.726 1.74518 0.889956 0
M  V30 2607 H 243.306 0.522887 -0.533478 0
M  V30 2608 H 245.968 0.768609 -1.79104 0
M  V30 2609 H 245.064 2.25052 -2.16236 0
M  V30 2610 N 245.365 1.30045 0.890287 0
M  V30 2611 C 246.328 1.15963 1.977 0
M  V30 2612 C 247.328 0.0923777 1.60534 0
M  V30 2613 O 248.518 0.340071 1.70848 0
M  V30 2614 C 245.65 0.775451 3.31963 0
M  V30 2615 H 246.843 2.12502 2.11619 0
M  V30 2616 H 244.396 1.13366 1.07601 0
M  V30 2617 H 245.131 -0.189671 3.23745 0
M  V30 2618 H 244.916 1.54668 3.60306 0
M  V30 2619 H 246.406 0.700251 4.11687 0
M  V30 2620 N 246.843 -1.10192 1.12674 0
M  V30 2621 C 248.12 -1.78717 0.794965 0
M  V30 2622 C 248.5 -1.98628 -0.714853 0
M  V30 2623 O 247.848 -1.58135 -1.64941 0
M  V30 2624 C 248.058 -3.11546 1.5729 0
M  V30 2625 C 249.406 -3.86382 1.76052 0
M  V30 2626 O 250.43 -3.21274 1.53823 0
M  V30 2627 O 249.289 -5.03246 2.13087 0
M  V30 2628 H 246.383 -0.774702 0.289423 0
M  V30 2629 H 248.929 -1.16819 1.23091 0
M  V30 2630 H 247.701 -2.92489 2.59935 0
M  V30 2631 H 247.324 -3.81164 1.13137 0
M  V30 2632 N 248.321 -0.919034 -1.28029 0
M  V30 2633 C 249.251 -0.428581 -2.29533 0
M  V30 2634 C 250.232 0.50659 -1.62381 0
M  V30 2635 O 251.417 0.413195 -1.89753 0
M  V30 2636 C 248.547 0.327388 -3.45753 0
M  V30 2637 C 247.501 -0.519137 -4.2484 0
M  V30 2638 C 246.827 0.365486 -5.33449 0
M  V30 2639 C 248.127 -1.77914 -4.91064 0
M  V30 2640 H 249.821 -1.27687 -2.70807 0
M  V30 2641 H 247.367 -0.615428 -1.30186 0
M  V30 2642 H 249.32 0.681378 -4.15855 0
M  V30 2643 H 248.044 1.20963 -3.03374 0
M  V30 2644 H 246.703 -0.855717 -3.56473 0
M  V30 2645 H 246.351 1.24642 -4.87312 0
M  V30 2646 H 246.051 -0.197356 -5.87268 0
M  V30 2647 H 247.575 0.715241 -6.06396 0
M  V30 2648 H 248.989 -1.49374 -5.53498 0
M  V30 2649 H 247.386 -2.2848 -5.54903 0
M  V30 2650 H 248.456 -2.50382 -4.15255 0
M  V30 2651 N 249.799 1.42003 -0.683588 0
M  V30 2652 C 251.21 1.84501 -0.285736 0
M  V30 2653 C 251.561 1.57213 1.17382 0
M  V30 2654 O 250.686 1.03642 1.89966 0
M  V30 2655 C 251.281 3.34912 -0.511821 0
M  V30 2656 C 249.84 3.76025 -0.168005 0
M  V30 2657 C 248.987 2.6551 -0.799983 0
M  V30 2658 H 251.938 1.31724 -0.885119 0
M  V30 2659 H 251.959 3.79784 0.233292 0
M  V30 2660 H 251.471 3.54741 -1.57418 0
M  V30 2661 H 249.572 3.61801 0.890567 0
M  V30 2662 H 249.685 4.75141 -0.614661 0
M  V30 2663 H 248.049 2.53654 -0.230568 0
M  V30 2664 H 248.832 2.8816 -1.86597 0
M  V30 2665 N 251.277 0.427512 1.51691 0
M  V30 2666 C 252.225 -0.403359 2.29076 0
M  V30 2667 C 253.219 -1.02962 1.34518 0
M  V30 2668 O 254.425 -0.965715 1.51901 0
M  V30 2669 H 250.8 -0.148879 0.737115 0
M  V30 2670 H 252.771 0.270295 2.97173 0
M  V30 2671 C 251.52 -1.49763 3.13794 0
M  V30 2672 H 250.843 -1.02508 3.86435 0
M  V30 2673 H 252.283 -2.05244 3.71014 0
M  V30 2674 C 250.742 -2.47536 2.28533 0
M  V30 2675 O 251.272 -3.51848 1.93819 0
M  V30 2676 N 249.478 -2.18187 1.91945 0
M  V30 2677 H 249.025 -1.33389 2.20375 0
M  V30 2678 H 248.983 -2.83848 1.35195 0
M  V30 2679 N 252.755 -1.56801 0.158532 0
M  V30 2680 C 253.985 -2.00568 -0.495583 0
M  V30 2681 C 254.393 -1.03774 -1.58201 0
M  V30 2682 O 253.736 -0.0285797 -1.83678 0
M  V30 2683 C 253.798 -3.40768 -1.14532 0
M  V30 2684 C 253.462 -4.56553 -0.202101 0
M  V30 2685 C 254.459 -5.16714 0.574675 0
M  V30 2686 C 252.144 -5.02197 -0.101648 0
M  V30 2687 C 254.138 -6.20939 1.43924 0
M  V30 2688 C 251.825 -6.06274 0.766508 0
M  V30 2689 C 252.823 -6.65515 1.53555 0
M  V30 2690 O 252.511 -7.67575 2.38922 0
M  V30 2691 H 252.243 -0.662893 -0.13247 0
M  V30 2692 H 254.797 -2.03829 0.253559 0
M  V30 2693 H 253.027 -3.34381 -1.94233 0
M  V30 2694 H 254.716 -3.6857 -1.70033 0
M  V30 2695 H 255.482 -4.82341 0.507167 0
M  V30 2696 H 251.361 -4.55807 -0.689994 0
M  V30 2697 H 254.905 -6.67107 2.03996 0
M  V30 2698 H 250.802 -6.40073 0.835266 0
M  V30 2699 H 251.57 -7.84844 2.32296 0
M  V30 2700 N 254.233 0.115231 -1.57178 0
M  V30 2701 C 255.649 0.468877 -1.52557 0
M  V30 2702 C 255.849 1.81649 -0.872125 0
M  V30 2703 O 254.905 2.48347 -0.45606 0
M  V30 2704 C 256.218 0.4499 -2.97315 0
M  V30 2705 C 257.766 0.533185 -3.08425 0
M  V30 2706 C 258.241 0.54456 -4.54751 0
M  V30 2707 N 259.732 0.605892 -4.5922 0
M  V30 2708 C 260.467 0.636203 -5.6986 0
M  V30 2709 N 259.963 0.623931 -6.89985 0
M  V30 2710 N 261.756 0.679496 -5.57978 0
M  V30 2711 H 253.907 -0.767712 -1.9804 0
M  V30 2712 H 256.17 -0.283609 -0.904583 0
M  V30 2713 H 255.876 -0.472721 -3.48509 0
M  V30 2714 H 255.75 1.27632 -3.5495 0
M  V30 2715 H 258.137 1.44623 -2.57232 0
M  V30 2716 H 258.218 -0.320995 -2.53778 0
M  V30 2717 H 257.862 -0.364452 -5.06591 0
M  V30 2718 H 257.792 1.41568 -5.07214 0
M  V30 2719 H 260.283 0.621386 -3.72756 0
M  V30 2720 H 260.596 0.649787 -7.70063 0
M  V30 2721 H 258.941 0.591296 -6.9248 0
M  V30 2722 H 262.132 0.686472 -4.63039 0
M  V30 2723 H 262.305 0.69965 -6.44212 0
M  V30 2724 N 255.711 1.52812 0.385517 0
M  V30 2725 C 256.957 1.69225 1.12847 0
M  V30 2726 C 257.312 0.42864 1.87564 0
M  V30 2727 O 256.605 -0.57779 1.8268 0
M  V30 2728 C 256.799 2.86856 2.13187 0
M  V30 2729 C 256.628 4.24535 1.48325 0
M  V30 2730 C 255.398 4.89701 1.24585 0
M  V30 2731 C 257.596 5.05794 0.931501 0
M  V30 2732 N 255.578 6.11353 0.558644 0
M  V30 2733 C 256.949 6.1888 0.372552 0
M  V30 2734 C 259.004 4.90963 0.828248 0
M  V30 2735 C 257.707 7.18757 -0.279556 0
M  V30 2736 C 259.733 5.91095 0.189956 0
M  V30 2737 C 259.095 7.03489 -0.358207 0
M  V30 2738 H 255.194 0.67268 0.39878 0
M  V30 2739 H 257.778 1.9017 0.417528 0
M  V30 2740 H 255.949 2.67484 2.81614 0
M  V30 2741 H 257.681 2.92188 2.80014 0
M  V30 2742 H 254.436 4.48485 1.52178 0
M  V30 2743 H 254.86 6.76606 0.230983 0
M  V30 2744 H 259.502 4.04274 1.23784 0
M  V30 2745 H 257.22 8.05052 -0.701152 0
M  V30 2746 H 260.806 5.81694 0.111264 0
M  V30 2747 H 259.686 7.79642 -0.844314 0
M  V30 2748 N 257.189 -0.644168 1.43834 0
M  V30 2749 C 258.417 -1.43147 1.49387 0
M  V30 2750 C 258.832 -1.88452 0.114583 0
M  V30 2751 O 258.189 -1.60047 -0.876989 0
M  V30 2752 C 258.24 -2.66046 2.44748 0
M  V30 2753 O 257.961 -2.22633 3.77314 0
M  V30 2754 C 259.462 -3.59311 2.59635 0
M  V30 2755 H 256.682 -0.439447 0.507077 0
M  V30 2756 H 259.226 -0.78895 1.88669 0
M  V30 2757 H 257.381 -3.26418 2.08638 0
M  V30 2758 H 257.795 -3.02216 4.28679 0
M  V30 2759 H 259.269 -4.42187 3.30416 0
M  V30 2760 H 259.746 -4.07259 1.64427 0
M  V30 2761 H 260.352 -3.04816 2.96593 0
M  V30 2762 N 258.668 -1.30515 -0.883378 0
M  V30 2763 C 259.6 -1.12846 -1.99496 0
M  V30 2764 C 260.613 -0.0712571 -1.62644 0
M  V30 2765 O 261.802 -0.317432 -1.75655 0
M  V30 2766 C 258.902 -0.699123 -3.3161 0
M  V30 2767 C 258.075 -1.83842 -3.96889 0
M  V30 2768 C 257.134 -1.39737 -5.07307 0
M  V30 2769 O 256.16 -2.10485 -5.28852 0
M  V30 2770 N 257.362 -0.277279 -5.79837 0
M  V30 2771 H 260.127 -2.08585 -2.15203 0
M  V30 2772 H 257.688 -1.22672 -1.05656 0
M  V30 2773 H 259.68 -0.387044 -4.02845 0
M  V30 2774 H 258.25 0.166276 -3.12157 0
M  V30 2775 H 257.47 -2.31853 -3.18807 0
M  V30 2776 H 258.758 -2.60187 -4.37241 0
M  V30 2777 H 258.156 0.3122 -5.64838 0
M  V30 2778 H 256.713 -0.0246623 -6.51795 0
M  V30 2779 N 260.146 1.09593 -1.13257 0
M  V30 2780 C 261.374 1.855 -0.916378 0
M  V30 2781 C 261.789 1.81069 0.534738 0
M  V30 2782 O 261.146 1.20562 1.37007 0
M  V30 2783 C 261.197 3.33546 -1.39388 0
M  V30 2784 O 260.918 3.37927 -2.78813 0
M  V30 2785 C 262.419 4.26299 -1.21588 0
M  V30 2786 H 259.639 0.585991 -0.326887 0
M  V30 2787 H 262.183 1.38488 -1.5047 0
M  V30 2788 H 260.338 3.77992 -0.848597 0
M  V30 2789 H 260.752 4.30254 -2.9997 0
M  V30 2790 H 262.226 5.28341 -1.59876 0
M  V30 2791 H 262.703 4.38918 -0.157376 0
M  V30 2792 H 263.309 3.87668 -1.7491 0
M  V30 2793 N 261.624 0.925811 1.2754 0
M  V30 2794 C 262.554 0.440748 2.29303 0
M  V30 2795 C 263.535 -0.497971 1.62648 0
M  V30 2796 O 264.72 -0.403126 1.8997 0
M  V30 2797 C 261.85 -0.309048 3.45922 0
M  V30 2798 C 260.804 0.54166 4.24559 0
M  V30 2799 C 260.13 -0.337191 5.33636 0
M  V30 2800 C 261.43 1.80516 4.90114 0
M  V30 2801 H 263.124 1.29121 2.70126 0
M  V30 2802 H 260.67 0.622323 1.29858 0
M  V30 2803 H 262.623 -0.659315 4.1621 0
M  V30 2804 H 261.347 -1.19352 3.04011 0
M  V30 2805 H 260.006 0.874609 3.56014 0
M  V30 2806 H 259.654 -1.22056 4.87966 0
M  V30 2807 H 259.354 0.228497 5.87156 0
M  V30 2808 H 260.878 -0.683072 6.06767 0
M  V30 2809 H 262.292 1.52307 5.52698 0
M  V30 2810 H 260.689 2.3142 5.53683 0
M  V30 2811 H 261.759 2.52581 4.13921 0
M  V30 2812 N 263.102 -1.41638 0.69111 0
M  V30 2813 C 264.327 -2.06148 0.227583 0
M  V30 2814 C 264.752 -1.51652 -1.11281 0
M  V30 2815 O 264.11 -0.64164 -1.69566 0
M  V30 2816 C 264.158 -3.60095 0.190858 0
M  V30 2817 O 263.262 -4.03845 -0.835664 0
M  V30 2818 H 262.603 -0.654434 0.112306 0
M  V30 2819 H 265.133 -1.81484 0.944714 0
M  V30 2820 H 265.143 -4.07995 0.020207 0
M  V30 2821 H 263.818 -3.99129 1.16915 0
M  V30 2822 H 262.395 -3.67458 -0.63473 0
M  V30 2823 N 264.58 -0.43555 -1.51462 0
M  V30 2824 C 265.49 0.383001 -2.31453 0
M  V30 2825 C 266.506 1.02931 -1.4029 0
M  V30 2826 O 267.682 1.02507 -1.73362 0
M  V30 2827 C 264.747 1.47043 -3.13973 0
M  V30 2828 C 263.808 0.844433 -4.20913 0
M  V30 2829 C 263.041 1.88004 -4.9949 0
M  V30 2830 O 263.264 3.10199 -4.78678 0
M  V30 2831 O 262.198 1.47157 -5.83634 0
M  V30 2832 H 266.024 -0.269964 -3.02498 0
M  V30 2833 H 263.609 -0.19813 -1.4808 0
M  V30 2834 H 265.491 2.10113 -3.65281 0
M  V30 2835 H 264.166 2.10751 -2.45695 0
M  V30 2836 H 263.073 0.175729 -3.73687 0
M  V30 2837 H 264.406 0.250869 -4.9156 0
M  V30 2838 N 266.058 1.56714 -0.166846 0
M  V30 2839 C 266.988 2.20754 0.760913 0
M  V30 2840 C 267.969 1.16178 1.24244 0
M  V30 2841 O 269.154 1.44592 1.29641 0
M  V30 2842 C 266.284 2.84478 1.99223 0
M  V30 2843 C 265.238 3.95053 1.64672 0
M  V30 2844 C 264.564 4.45805 2.95232 0
M  V30 2845 C 265.864 5.14865 0.878155 0
M  V30 2846 H 267.558 2.98537 0.22713 0
M  V30 2847 H 265.104 1.43596 0.107805 0
M  V30 2848 H 267.057 3.27951 2.64624 0
M  V30 2849 H 265.781 2.04056 2.55007 0
M  V30 2850 H 264.44 3.52228 1.01641 0
M  V30 2851 H 264.088 3.62181 3.49047 0
M  V30 2852 H 263.788 5.204 2.7287 0
M  V30 2853 H 265.312 4.91962 3.6167 0
M  V30 2854 H 266.726 5.55059 1.43466 0
M  V30 2855 H 265.123 5.95348 0.753738 0
M  V30 2856 H 266.193 4.84735 -0.126377 0
M  V30 2857 N 267.536 -0.106894 1.57237 0
M  V30 2858 C 268.813 -0.843526 1.76477 0
M  V30 2859 C 269.193 -1.97499 0.745464 0
M  V30 2860 O 268.541 -2.27357 -0.228306 0
M  V30 2861 C 268.751 -1.34903 3.21873 0
M  V30 2862 C 270.099 -1.79654 3.8472 0
M  V30 2863 O 271.123 -1.44554 3.2555 0
M  V30 2864 O 269.982 -2.44515 4.88748 0
M  V30 2865 H 267.076 -0.401468 0.723016 0
M  V30 2866 H 269.622 -0.0896927 1.69463 0
M  V30 2867 H 268.394 -0.53781 3.87586 0
M  V30 2868 H 268.017 -2.16522 3.33473 0
M  V30 2869 N 269.014 -1.53014 -0.377408 0
M  V30 2870 C 269.944 -1.81589 -1.46791 0
M  V30 2871 C 270.925 -0.668622 -1.56408 0
M  V30 2872 O 272.11 -0.917337 -1.71168 0
M  V30 2873 C 269.24 -1.99519 -2.8427 0
M  V30 2874 C 268.194 -3.15249 -2.89486 0
M  V30 2875 C 267.52 -3.18451 -4.29527 0
M  V30 2876 C 268.82 -4.54084 -2.58079 0
M  V30 2877 H 270.514 -2.7291 -1.23127 0
M  V30 2878 H 268.06 -1.31319 -0.590883 0
M  V30 2879 H 270.013 -2.18092 -3.60575 0
M  V30 2880 H 268.737 -1.04897 -3.09296 0
M  V30 2881 H 267.396 -2.96477 -2.15631 0
M  V30 2882 H 267.044 -2.2149 -4.5161 0
M  V30 2883 H 266.744 -3.962 -4.33934 0
M  V30 2884 H 268.268 -3.39193 -5.07721 0
M  V30 2885 H 269.682 -4.72899 -3.24098 0
M  V30 2886 H 268.079 -5.33987 -2.7382 0
M  V30 2887 H 269.149 -4.60006 -1.53372 0
M  V30 2888 N 270.492 0.636531 -1.44174 0
M  V30 2889 C 271.455 1.73063 -1.50273 0
M  V30 2890 C 272.455 1.56113 -0.385397 0
M  V30 2891 O 273.645 1.61707 -0.64781 0
M  V30 2892 C 270.777 3.12096 -1.37145 0
M  V30 2893 H 271.97 1.69031 -2.47727 0
M  V30 2894 H 269.523 0.849706 -1.31186 0
M  V30 2895 H 270.258 3.21728 -0.407636 0
M  V30 2896 H 270.043 3.25805 -2.18159 0
M  V30 2897 H 271.533 3.91846 -1.44382 0
M  V30 2898 N 271.97 1.30982 0.876444 0
M  V30 2899 C 273.216 1.20474 1.63138 0
M  V30 2900 C 273.549 -0.238096 1.92735 0
M  V30 2901 O 272.824 -1.1692 1.55435 0
M  V30 2902 C 273.107 2.04244 2.96574 0
M  V30 2903 C 272.96 3.56793 2.73896 0
M  V30 2904 C 274.279 1.88684 3.97601 0
M  V30 2905 H 271.398 0.439001 0.591985 0
M  V30 2906 H 274.04 1.60704 1.01361 0
M  V30 2907 H 272.19 1.70063 3.493 0
M  V30 2908 H 273.862 4.01077 2.27892 0
M  V30 2909 H 272.105 3.80548 2.08245 0
M  V30 2910 H 272.776 4.10706 3.68815 0
M  V30 2911 H 275.252 2.18584 3.54062 0
M  V30 2912 H 274.128 2.4961 4.88862 0
M  V30 2913 H 274.389 0.848343 4.33884 0
M  V30 2914 N 273.449 -1.08991 1.13837 0
M  V30 2915 C 274.86 -1.62746 0.914917 0
M  V30 2916 C 275.211 -1.88403 -0.547594 0
M  V30 2917 O 274.336 -1.63706 -1.41525 0
M  V30 2918 C 274.931 -2.95662 1.65437 0
M  V30 2919 C 273.49 -3.46225 1.47666 0
M  V30 2920 C 272.637 -2.20562 1.6807 0
M  V30 2921 H 275.588 -0.922946 1.29102 0
M  V30 2922 H 275.609 -3.63825 1.11407 0
M  V30 2923 H 275.121 -2.76956 2.71877 0
M  V30 2924 H 273.222 -3.70046 0.435478 0
M  V30 2925 H 273.335 -4.23368 2.24268 0
M  V30 2926 H 271.699 -2.29439 1.10589 0
M  V30 2927 H 272.482 -2.0437 2.7584 0
M  V30 2928 N 274.927 -0.932562 -1.27047 0
M  V30 2929 C 276.174 -0.575559 -1.94148 0
M  V30 2930 C 276.502 0.883984 -1.73251 0
M  V30 2931 O 275.757 1.64655 -1.0577 0
M  V30 2932 C 276.056 -0.853713 -3.47054 0
M  V30 2933 C 275.722 -2.29577 -3.88079 0
M  V30 2934 C 274.384 -2.68999 -3.9899 0
M  V30 2935 C 276.736 -3.23331 -4.08787 0
M  V30 2936 C 274.064 -4.01289 -4.28 0
M  V30 2937 C 276.416 -4.55207 -4.39282 0
M  V30 2938 C 275.08 -4.94457 -4.48407 0
M  V30 2939 H 274.35 -0.210612 -0.710439 0
M  V30 2940 H 276.997 -1.17744 -1.51025 0
M  V30 2941 H 275.302 -0.169204 -3.91434 0
M  V30 2942 H 276.999 -0.55639 -3.97121 0
M  V30 2943 H 273.589 -1.97994 -3.80127 0
M  V30 2944 H 277.773 -2.94074 -3.99793 0
M  V30 2945 H 273.029 -4.31374 -4.33275 0
M  V30 2946 H 277.203 -5.27852 -4.54252 0
M  V30 2947 H 274.83 -5.96994 -4.7064 0
M  V30 2948 N 276.405 1.4127 -0.698611 0
M  V30 2949 C 277.645 2.03044 -0.235062 0
M  V30 2950 C 278.009 1.54146 1.14468 0
M  V30 2951 O 279.21 2.07867 1.70425 0
M  V30 2952 C 277.481 3.56192 -0.293651 0
M  V30 2953 S 279.04 4.38696 0.0954053 0
M  V30 2954 H 275.858 0.704697 -0.0944648 0
M  V30 2955 H 278.46 1.72656 -0.917064 0
M  V30 2956 H 277.164 3.89274 -1.29977 0
M  V30 2957 H 276.695 3.91285 0.407397 0
M  V30 2958 H 278.71 4.78257 1.3223 0
M  V30 2959 N 277.883 0.443576 1.51229 0
M  V30 2960 C 279.129 -0.120975 2.02439 0
M  V30 2961 C 279.462 -1.41815 1.32674 0
M  V30 2962 O 278.737 -1.89373 0.443622 0
M  V30 2963 C 279.02 -0.333291 3.58554 0
M  V30 2964 C 278.873 0.982968 4.38928 0
M  V30 2965 C 280.192 -1.10028 4.26124 0
M  V30 2966 H 277.311 -0.0424923 0.735774 0
M  V30 2967 H 279.953 0.583794 1.80809 0
M  V30 2968 H 278.103 -0.933614 3.77115 0
M  V30 2969 H 279.775 1.61775 4.32003 0
M  V30 2970 H 278.018 1.58611 4.03763 0
M  V30 2971 H 278.689 0.788379 5.46341 0
M  V30 2972 H 281.165 -0.591711 4.11871 0
M  V30 2973 H 280.041 -1.21761 5.35225 0
M  V30 2974 H 280.302 -2.12996 3.87408 0
M  V30 2975 N 279.361 -1.56624 0.175154 0
M  V30 2976 C 280.309 -2.19468 -0.770495 0
M  V30 2977 C 281.303 -1.15985 -1.23466 0
M  V30 2978 O 282.509 -1.34176 -1.19987 0
M  V30 2979 H 278.884 -0.703095 -0.266761 0
M  V30 2980 H 280.855 -2.97613 -0.216542 0
M  V30 2981 C 279.604 -2.85264 -1.98796 0
M  V30 2982 H 278.927 -3.64623 -1.63983 0
M  V30 2983 H 280.367 -3.327 -2.62843 0
M  V30 2984 C 278.826 -1.85239 -2.81404 0
M  V30 2985 O 279.356 -1.34024 -3.78682 0
M  V30 2986 N 277.562 -1.53911 -2.46495 0
M  V30 2987 H 277.109 -1.95751 -1.67449 0
M  V30 2988 H 277.067 -0.872382 -3.02054 0
M  V30 2989 N 280.839 0.0985539 -1.57292 0
M  V30 2990 C 282.086 0.802678 -1.85912 0
M  V30 2991 C 282.414 1.78901 -0.763186 0
M  V30 2992 O 281.669 1.94178 0.243559 0
M  V30 2993 C 281.968 1.56927 -3.21105 0
M  V30 2994 C 281.634 0.725376 -4.45027 0
M  V30 2995 C 280.296 0.492726 -4.78671 0
M  V30 2996 C 282.648 0.138493 -5.21016 0
M  V30 2997 C 279.976 -0.336727 -5.85733 0
M  V30 2998 C 282.328 -0.678264 -6.28953 0
M  V30 2999 C 280.992 -0.921039 -6.61115 0
M  V30 3000 H 280.262 0.293721 -0.680301 0
M  V30 3001 H 282.909 0.0642841 -1.91392 0
M  V30 3002 H 281.214 2.37914 -3.11294 0
M  V30 3003 H 282.911 2.11841 -3.40477 0
M  V30 3004 H 279.501 0.916815 -4.18679 0
M  V30 3005 H 283.685 0.305404 -4.95359 0
M  V30 3006 H 278.941 -0.533836 -6.09065 0
M  V30 3007 H 283.115 -1.1399 -6.87007 0
M  V30 3008 H 280.742 -1.56556 -7.43905 0
M  V30 3009 N 282.317 1.53212 0.369288 0
M  V30 3010 C 283.733 1.42902 0.710712 0
M  V30 3011 C 283.933 0.565135 1.93413 0
M  V30 3012 O 282.989 0.0461484 2.52458 0
M  V30 3013 C 284.302 2.86042 0.927382 0
M  V30 3014 C 285.85 2.9565 1.02762 0
M  V30 3015 C 286.325 4.39843 1.27679 0
M  V30 3016 N 287.816 4.43256 1.34457 0
M  V30 3017 C 288.551 5.51929 1.55439 0
M  V30 3018 N 288.047 6.70655 1.73762 0
M  V30 3019 N 289.84 5.39502 1.57779 0
M  V30 3020 H 281.991 2.07888 -0.435457 0
M  V30 3021 H 284.254 0.938661 -0.132739 0
M  V30 3022 H 283.96 3.51557 0.100287 0
M  V30 3023 H 283.834 3.29472 1.83653 0
M  V30 3024 H 286.221 2.30291 1.84527 0
M  V30 3025 H 286.302 2.5562 0.0959504 0
M  V30 3026 H 285.946 5.05774 0.464175 0
M  V30 3027 H 285.876 4.77443 2.22162 0
M  V30 3028 H 288.367 3.5769 1.21926 0
M  V30 3029 H 288.68 7.49248 1.89335 0
M  V30 3030 H 287.025 6.73648 1.70948 0
M  V30 3031 H 290.216 4.45713 1.43029 0
M  V30 3032 H 290.389 6.2426 1.7379 0
M  V30 3033 N 283.795 -0.628877 1.44509 0
M  V30 3034 C 284.725 -1.75187 1.54376 0
M  V30 3035 C 285.706 -1.65411 0.396618 0
M  V30 3036 O 286.891 -1.84137 0.617031 0
M  V30 3037 C 284.021 -3.13725 1.48976 0
M  V30 3038 C 282.975 -3.38291 2.62189 0
M  V30 3039 C 282.301 -4.76883 2.41841 0
M  V30 3040 C 283.601 -3.30632 4.04326 0
M  V30 3041 H 285.295 -1.67187 2.48373 0
M  V30 3042 H 282.841 -0.802909 1.19538 0
M  V30 3043 H 284.794 -3.92064 1.54478 0
M  V30 3044 H 283.518 -3.22515 0.514961 0
M  V30 3045 H 282.177 -2.62334 2.56079 0
M  V30 3046 H 281.825 -4.82378 1.42548 0
M  V30 3047 H 281.525 -4.94278 3.17747 0
M  V30 3048 H 283.049 -5.57449 2.49165 0
M  V30 3049 H 284.463 -3.98873 4.11793 0
M  V30 3050 H 282.86 -3.59561 4.80454 0
M  V30 3051 H 283.93 -2.28404 4.27738 0
M  V30 3052 N 285.273 -1.31445 -0.869486 0
M  V30 3053 C 286.22 -1.19135 -1.97675 0
M  V30 3054 C 287.19 -0.0770266 -1.65921 0
M  V30 3055 O 288.375 -0.249972 -1.89155 0
M  V30 3056 C 285.515 -0.905149 -3.33018 0
M  V30 3057 C 284.628 -2.10285 -3.77365 0
M  V30 3058 C 283.763 -1.75339 -5.01427 0
M  V30 3059 C 282.802 -2.91515 -5.38224 0
M  V30 3060 N 281.939 -2.56762 -6.53466 0
M  V30 3061 H 286.779 -2.13853 -2.07535 0
M  V30 3062 H 284.316 -1.06379 -1.01597 0
M  V30 3063 H 286.274 -0.719765 -4.10944 0
M  V30 3064 H 284.904 0.00519624 -3.228 0
M  V30 3065 H 283.956 -2.39899 -2.95216 0
M  V30 3066 H 285.268 -2.97237 -4.00564 0
M  V30 3067 H 284.422 -1.53266 -5.87022 0
M  V30 3068 H 283.161 -0.855801 -4.80133 0
M  V30 3069 H 282.166 -3.14237 -4.51149 0
M  V30 3070 H 283.391 -3.81985 -5.61484 0
M  V30 3071 H 281.337 -1.69526 -6.33717 0
M  V30 3072 H 281.254 -3.37243 -6.76612 0
M  V30 3073 H 282.522 -2.38083 -7.42251 0
M  V30 3074 N 286.751 1.08385 -1.14413 0
M  V30 3075 C 287.999 1.80419 -0.910679 0
M  V30 3076 C 288.32 1.86658 0.564243 0
M  V30 3077 O 287.59 1.35985 1.41014 0
M  V30 3078 H 286.17 0.668204 -0.333934 0
M  V30 3079 H 288.832 1.31037 -1.44275 0
M  V30 3080 H 287.928 2.83238 -1.31082 0
M  V30 3081 N 288.23 0.939286 1.26551 0
M  V30 3082 C 289.177 0.446088 2.26448 0
M  V30 3083 C 290.147 -0.493234 1.58608 0
M  V30 3084 O 291.332 -0.409857 1.86346 0
M  V30 3085 C 288.472 -0.284375 3.43926 0
M  V30 3086 C 287.585 0.690399 4.26448 0
M  V30 3087 C 286.72 -0.0610712 5.31165 0
M  V30 3088 C 285.759 0.905649 6.05363 0
M  V30 3089 N 284.896 0.186055 7.01853 0
M  V30 3090 H 289.736 1.30291 2.68008 0
M  V30 3091 H 287.273 0.65371 1.31776 0
M  V30 3092 H 289.231 -0.724313 4.10864 0
M  V30 3093 H 287.861 -1.10535 3.03285 0
M  V30 3094 H 286.913 1.24885 3.59316 0
M  V30 3095 H 288.225 1.42873 4.779 0
M  V30 3096 H 287.379 -0.56038 6.04106 0
M  V30 3097 H 286.118 -0.832297 4.80546 0
M  V30 3098 H 285.123 1.4161 5.3125 0
M  V30 3099 H 286.348 1.67685 6.58072 0
M  V30 3100 H 284.294 -0.566714 6.53548 0
M  V30 3101 H 284.211 0.863752 7.51049 0
M  V30 3102 H 285.479 -0.292221 7.78952 0
M  V30 3103 N 289.708 -1.40897 0.706093 0
M  V30 3104 C 290.985 -1.94868 0.169099 0
M  V30 3105 C 291.365 -1.64485 -1.32318 0
M  V30 3106 O 290.713 -0.95744 -2.07474 0
M  V30 3107 C 290.923 -3.45798 0.471654 0
M  V30 3108 C 292.271 -4.22663 0.405127 0
M  V30 3109 O 293.295 -3.53865 0.407168 0
M  V30 3110 O 292.154 -5.45216 0.374383 0
M  V30 3111 H 289.248 -0.82673 0.0211352 0
M  V30 3112 H 291.794 -1.50558 0.782976 0
M  V30 3113 H 290.566 -3.61235 1.50416 0
M  V30 3114 H 290.189 -3.97225 -0.172666 0
M  V30 3115 N 291.186 -0.45159 -1.50991 0
M  V30 3116 C 292.119 0.398179 -2.24699 0
M  V30 3117 C 293.097 1.01276 -1.27208 0
M  V30 3118 O 294.281 1.05247 -1.56382 0
M  V30 3119 C 291.408 1.55618 -3.00833 0
M  V30 3120 C 290.454 1.0609 -4.13095 0
M  V30 3121 S 291.287 -0.00865136 -5.35499 0
M  V30 3122 C 292.443 1.15369 -6.15175 0
M  V30 3123 H 292.676 -0.227555 -2.96428 0
M  V30 3124 H 290.209 -0.236251 -1.52582 0
M  V30 3125 H 292.167 2.21997 -3.45293 0
M  V30 3126 H 290.828 2.15337 -2.28667 0
M  V30 3127 H 290.021 1.92726 -4.65696 0
M  V30 3128 H 289.623 0.47513 -3.7097 0
M  V30 3129 H 291.915 2.06925 -6.45126 0
M  V30 3130 H 292.858 0.667344 -7.04948 0
M  V30 3131 H 293.266 1.3987 -5.46897 0
M  V30 3132 N 292.664 1.56529 -0.183458 0
M  V30 3133 C 293.91 1.97537 0.459036 0
M  V30 3134 C 294.243 1.06989 1.62071 0
M  V30 3135 O 293.518 0.11948 1.94133 0
M  V30 3136 C 293.801 3.47874 0.930368 0
M  V30 3137 C 293.654 4.492 -0.232317 0
M  V30 3138 C 294.973 4.01612 1.79989 0
M  V30 3139 H 292.092 0.718204 0.165383 0
M  V30 3140 H 294.734 1.88042 -0.272038 0
M  V30 3141 H 292.884 3.56095 1.55333 0
M  V30 3142 H 294.556 4.53027 -0.86972 0
M  V30 3143 H 292.799 4.24657 -0.885928 0
M  V30 3144 H 293.47 5.51823 0.139796 0
M  V30 3145 H 295.946 3.96097 1.27461 0
M  V30 3146 H 294.822 5.07195 2.09867 0
M  V30 3147 H 295.083 3.46163 2.74998 0
M  V30 3148 N 294.142 -0.090211 1.57342 0
M  V30 3149 C 295.388 -0.793982 1.86611 0
M  V30 3150 C 295.721 -1.78142 0.773252 0
M  V30 3151 O 294.996 -1.93271 -0.218304 0
M  V30 3152 C 295.279 -1.51839 3.26523 0
M  V30 3153 C 295.132 -0.548609 4.46442 0
M  V30 3154 C 296.451 -2.46779 3.64401 0
M  V30 3155 H 293.57 -0.287186 0.678744 0
M  V30 3156 H 296.212 -0.0575076 1.89913 0
M  V30 3157 H 294.362 -2.14617 3.23839 0
M  V30 3158 H 296.034 0.0725513 4.61243 0
M  V30 3159 H 294.277 0.137614 4.33582 0
M  V30 3160 H 294.948 -1.09271 5.41076 0
M  V30 3161 H 297.424 -1.94089 3.68061 0
M  V30 3162 H 296.3 -2.94479 4.63221 0
M  V30 3163 H 296.561 -3.30758 2.93346 0
M  V30 3164 N 295.62 -1.53406 -0.361157 0
M  V30 3165 C 296.897 -1.60411 -1.11927 0
M  V30 3166 C 297.277 -0.414385 -2.06993 0
M  V30 3167 O 296.625 0.594976 -2.20618 0
M  V30 3168 C 296.835 -2.95652 -1.85448 0
M  V30 3169 C 298.183 -3.50386 -2.39823 0
M  V30 3170 O 299.207 -2.97711 -1.95568 0
M  V30 3171 O 298.066 -4.42482 -3.20737 0
M  V30 3172 H 295.16 -0.64811 -0.513695 0
M  V30 3173 H 297.706 -1.65749 -0.364065 0
M  V30 3174 H 296.478 -3.73682 -1.16091 0
M  V30 3175 H 296.101 -2.93825 -2.67866 0
M  V30 3176 N 297.098 0.621204 -1.44841 0
M  V30 3177 C 298.347 1.37658 -1.47422 0
M  V30 3178 C 298.66 1.95264 -0.114629 0
M  V30 3179 O 299.866 2.71494 -0.0180199 0
M  V30 3180 C 298.322 2.49285 -2.59586 0
M  V30 3181 C 297.93 1.98149 -4.01797 0
M  V30 3182 C 299.674 3.26409 -2.71399 0
M  V30 3183 C 297.581 3.07178 -5.05367 0
M  V30 3184 H 296.511 0.517344 -0.548517 0
M  V30 3185 H 299.162 0.667257 -1.70938 0
M  V30 3186 H 297.544 3.22839 -2.29328 0
M  V30 3187 H 298.718 1.31395 -4.41669 0
M  V30 3188 H 297.033 1.33812 -3.94314 0
M  V30 3189 H 299.63 4.07706 -3.45948 0
M  V30 3190 H 299.973 3.76535 -1.77559 0
M  V30 3191 H 300.506 2.5995 -3.01116 0
M  V30 3192 H 297.245 2.61985 -6.00869 0
M  V30 3193 H 296.765 3.72542 -4.70077 0
M  V30 3194 H 298.444 3.71789 -5.29511 0
M  V30 3195 N 298.576 1.31904 0.862503 0
M  V30 3196 C 299.508 1.16005 1.97675 0
M  V30 3197 C 300.521 0.0971234 1.6251 0
M  V30 3198 O 301.71 0.345337 1.75128 0
M  V30 3199 C 298.81 0.751791 3.30456 0
M  V30 3200 C 297.983 1.90133 3.93914 0
M  V30 3201 C 297.042 1.4779 5.05019 0
M  V30 3202 O 296.068 2.18872 5.25437 0
M  V30 3203 N 297.27 0.369491 5.79323 0
M  V30 3204 H 300.035 2.11982 2.11857 0
M  V30 3205 H 297.596 1.24337 1.03691 0
M  V30 3206 H 299.588 0.451084 4.02178 0
M  V30 3207 H 298.158 -0.116593 3.12382 0
M  V30 3208 H 297.378 2.36896 3.15078 0
M  V30 3209 H 298.666 2.67111 4.33047 0
M  V30 3210 H 298.064 -0.222299 5.65263 0
M  V30 3211 H 296.621 0.128354 6.51674 0
M  V30 3212 N 300.054 -1.07777 1.14986 0
M  V30 3213 C 301.47 -1.32373 0.891596 0
M  V30 3214 C 301.67 -1.9609 -0.463788 0
M  V30 3215 O 300.726 -2.21801 -1.20667 0
M  V30 3216 C 302.039 -2.21905 2.02925 0
M  V30 3217 C 303.587 -2.35367 2.06329 0
M  V30 3218 C 304.062 -3.28245 3.19405 0
M  V30 3219 N 305.553 -3.35824 3.19024 0
M  V30 3220 C 306.288 -4.07739 4.03158 0
M  V30 3221 N 305.784 -4.82306 4.97346 0
M  V30 3222 N 307.577 -4.03635 3.91197 0
M  V30 3223 H 299.728 -0.648039 2.02273 0
M  V30 3224 H 301.991 -0.348149 0.881757 0
M  V30 3225 H 301.697 -1.82342 3.0074 0
M  V30 3226 H 301.571 -3.22407 1.95789 0
M  V30 3227 H 303.958 -2.74186 1.09116 0
M  V30 3228 H 304.039 -1.34585 2.17533 0
M  V30 3229 H 303.683 -2.90146 4.16867 0
M  V30 3230 H 303.613 -4.28971 3.05437 0
M  V30 3231 H 306.104 -2.8267 2.50811 0
M  V30 3232 H 306.417 -5.34661 5.57994 0
M  V30 3233 H 304.762 -4.81337 5.01338 0
M  V30 3234 H 307.953 -3.44491 3.16928 0
M  V30 3235 H 308.126 -4.59417 4.5699 0
M  V30 3236 N 301.532 -0.945985 -1.26051 0
M  V30 3237 C 302.948 -0.649045 -1.45807 0
M  V30 3238 C 303.148 0.796158 -1.85104 0
M  V30 3239 O 302.204 1.57233 -1.97571 0
M  V30 3240 C 303.517 -1.61458 -2.53677 0
M  V30 3241 C 305.065 -1.62481 -2.67524 0
M  V30 3242 C 305.54 -2.57776 -3.7857 0
M  V30 3243 N 307.031 -2.5609 -3.85969 0
M  V30 3244 C 307.766 -3.26508 -4.7136 0
M  V30 3245 N 307.262 -4.0637 -5.61102 0
M  V30 3246 N 309.055 -3.15437 -4.65248 0
M  V30 3247 H 301.206 -1.88005 -0.988328 0
M  V30 3248 H 303.469 -0.808198 -0.4955 0
M  V30 3249 H 303.175 -2.64644 -2.31638 0
M  V30 3250 H 303.049 -1.37036 -3.51427 0
M  V30 3251 H 305.436 -0.600167 -2.88933 0
M  V30 3252 H 305.517 -1.90958 -1.70202 0
M  V30 3253 H 305.161 -3.60361 -3.57913 0
M  V30 3254 H 305.091 -2.26587 -4.75359 0
M  V30 3255 H 307.582 -1.98105 -3.21812 0
M  V30 3256 H 307.895 -4.57042 -6.23164 0
M  V30 3257 H 306.24 -4.10469 -5.60839 0
M  V30 3258 H 309.431 -2.52525 -3.94143 0
M  V30 3259 H 309.604 -3.70584 -5.31575 0
M  V30 3260 N 303.011 1.40521 -0.713556 0
M  V30 3261 C 303.961 2.27971 -0.036165 0
M  V30 3262 C 304.945 1.43151 0.734623 0
M  V30 3263 O 306.137 1.66261 0.607158 0
M  V30 3264 C 303.266 3.31661 0.886331 0
M  V30 3265 C 302.352 4.23955 0.110836 0
M  V30 3266 N 302.743 4.97641 -0.904847 0
M  V30 3267 C 301.041 4.44674 0.343692 0
M  V30 3268 C 301.742 5.65322 -1.37064 0
M  V30 3269 N 300.718 5.39162 -0.693168 0
M  V30 3270 H 304.52 2.82384 -0.814645 0
M  V30 3271 H 302.034 1.52948 -0.545963 0
M  V30 3272 H 304.031 3.93154 1.38692 0
M  V30 3273 H 302.691 2.78808 1.66421 0
M  V30 3274 H 303.702 5.01689 -1.28563 0
M  V30 3275 H 300.379 4.02801 1.09805 0
M  V30 3276 H 301.769 6.34359 -2.21447 0
M  V30 3277 N 304.489 0.459591 1.5075 0
M  V30 3278 C 305.419 -0.330644 2.31147 0
M  V30 3279 C 306.4 -1.00087 1.37538 0
M  V30 3280 O 307.585 -1.00025 1.66459 0
M  V30 3281 C 304.715 -1.41958 3.16962 0
M  V30 3282 C 303.669 -0.871608 4.19031 0
M  V30 3283 C 302.995 -2.05797 4.9351 0
M  V30 3284 C 304.295 0.109251 5.22186 0
M  V30 3285 H 305.989 0.340336 2.97459 0
M  V30 3286 H 303.535 0.165119 1.4305 0
M  V30 3287 H 305.488 -1.9798 3.71997 0
M  V30 3288 H 304.212 -2.11917 2.48513 0
M  V30 3289 H 302.871 -0.333442 3.6508 0
M  V30 3290 H 302.519 -2.74427 4.21544 0
M  V30 3291 H 302.219 -1.6976 5.62544 0
M  V30 3292 H 303.743 -2.62331 5.51375 0
M  V30 3293 H 305.157 -0.361405 5.7216 0
M  V30 3294 H 303.554 0.383316 5.98875 0
M  V30 3295 H 304.624 1.03887 4.73641 0
M  V30 3296 N 305.967 -1.56429 0.191757 0
M  V30 3297 C 307.383 -1.58754 -0.164137 0
M  V30 3298 C 307.583 -1.20782 -1.61288 0
M  V30 3299 O 306.639 -0.928999 -2.34789 0
M  V30 3300 C 307.952 -3.00396 0.135195 0
M  V30 3301 C 309.5 -3.1291 0.0750351 0
M  V30 3302 C 309.975 -4.56679 0.347632 0
M  V30 3303 N 311.466 -4.62252 0.296131 0
M  V30 3304 C 312.201 -5.71379 0.480948 0
M  V30 3305 N 311.697 -6.88986 0.725933 0
M  V30 3306 N 313.49 -5.60563 0.415435 0
M  V30 3307 H 305.641 -1.79393 1.13718 0
M  V30 3308 H 307.904 -0.832414 0.453643 0
M  V30 3309 H 307.61 -3.32726 1.13958 0
M  V30 3310 H 307.484 -3.72963 -0.563773 0
M  V30 3311 H 309.871 -2.80394 -0.919948 0
M  V30 3312 H 309.952 -2.42736 0.807029 0
M  V30 3313 H 309.596 -4.89907 1.33992 0
M  V30 3314 H 309.526 -5.25039 -0.405212 0
M  V30 3315 H 312.017 -3.7773 0.113259 0
M  V30 3316 H 312.33 -7.68046 0.855857 0
M  V30 3317 H 310.675 -6.90801 0.762788 0
M  V30 3318 H 313.866 -4.67561 0.224486 0
M  V30 3319 H 314.039 -6.45551 0.562889 0
M  V30 3320 N 307.445 0.0818655 -1.57387 0
M  V30 3321 C 308.691 0.784074 -1.8703 0
M  V30 3322 C 309.024 1.77729 -0.782689 0
M  V30 3323 O 308.299 1.93384 0.208051 0
M  V30 3324 C 308.582 1.50105 -3.27323 0
M  V30 3325 C 308.435 0.524925 -4.46727 0
M  V30 3326 C 309.754 2.44843 -3.65705 0
M  V30 3327 H 306.873 0.283582 -0.680257 0
M  V30 3328 H 309.515 0.0474352 -1.89941 0
M  V30 3329 H 307.665 2.12897 -3.24972 0
M  V30 3330 H 309.337 -0.0970111 -4.61198 0
M  V30 3331 H 307.58 -0.160606 -4.33503 0
M  V30 3332 H 308.251 1.064 -5.41648 0
M  V30 3333 H 310.727 1.92135 -3.69085 0
M  V30 3334 H 309.603 2.92018 -4.64776 0
M  V30 3335 H 309.864 3.29197 -2.95096 0
M  V30 3336 N 308.923 1.53595 0.353017 0
M  V30 3337 C 310.171 1.70049 1.09215 0
M  V30 3338 C 310.492 0.461406 1.89463 0
M  V30 3339 O 309.762 -0.524633 1.88744 0
M  V30 3340 H 308.342 0.626912 0.40619 0
M  V30 3341 H 311.004 1.90822 0.396585 0
M  V30 3342 H 310.1 2.56718 1.77488 0
M  V30 3343 N 310.401 -0.613514 1.45168 0
M  V30 3344 C 311.331 -1.7354 1.56225 0
M  V30 3345 C 312.312 -1.64981 0.41414 0
M  V30 3346 O 313.497 -1.83472 0.636526 0
M  V30 3347 C 310.627 -3.12128 1.52295 0
M  V30 3348 C 309.581 -3.35491 2.65762 0
M  V30 3349 C 308.907 -4.74291 2.46885 0
M  V30 3350 C 310.207 -3.26325 4.0781 0
M  V30 3351 H 311.901 -1.64543 2.50132 0
M  V30 3352 H 309.447 -0.790185 1.20383 0
M  V30 3353 H 311.4 -3.90404 1.58628 0
M  V30 3354 H 310.124 -3.2195 0.549139 0
M  V30 3355 H 308.783 -2.59603 2.58847 0
M  V30 3356 H 308.431 -4.80839 1.47657 0
M  V30 3357 H 308.131 -4.9088 3.22972 0
M  V30 3358 H 309.655 -5.54775 2.55063 0
M  V30 3359 H 311.069 -3.94483 4.16 0
M  V30 3360 H 309.466 -3.54445 4.8424 0
M  V30 3361 H 310.536 -2.23855 4.30136 0
M  V30 3362 N 311.879 -1.3236 -0.855495 0
M  V30 3363 C 312.826 -1.21225 -1.964 0
M  V30 3364 C 313.796 -0.0946204 -1.6583 0
M  V30 3365 O 314.981 -0.27002 -1.8888 0
M  V30 3366 C 312.121 -0.940419 -3.32039 0
M  V30 3367 C 311.234 -2.14276 -3.75113 0
M  V30 3368 C 310.369 -1.80648 -4.9954 0
M  V30 3369 C 309.408 -2.97208 -5.35102 0
M  V30 3370 N 308.545 -2.63678 -6.50706 0
M  V30 3371 H 313.385 -2.16042 -2.05255 0
M  V30 3372 H 310.922 -1.07451 -1.00463 0
M  V30 3373 H 312.88 -0.763311 -4.10158 0
M  V30 3374 H 311.51 -0.0290413 -3.22787 0
M  V30 3375 H 310.562 -2.43017 -2.92655 0
M  V30 3376 H 311.874 -3.01468 -3.97389 0
M  V30 3377 H 311.028 -1.59484 -5.85363 0
M  V30 3378 H 309.767 -0.906678 -4.79198 0
M  V30 3379 H 308.772 -3.19004 -4.47791 0
M  V30 3380 H 309.997 -3.87918 -5.57401 0
M  V30 3381 H 307.943 -1.76238 -6.31883 0
M  V30 3382 H 307.86 -3.444 -6.72997 0
M  V30 3383 H 309.128 -2.45942 -7.39684 0
M  V30 3384 N 313.357 1.07166 -1.15556 0
M  V30 3385 C 314.605 1.79443 -0.929764 0
M  V30 3386 C 314.926 1.87246 0.544414 0
M  V30 3387 O 314.196 1.37473 1.39564 0
M  V30 3388 H 312.776 0.664625 -0.341003 0
M  V30 3389 H 315.438 1.29499 -1.45657 0
M  V30 3390 H 314.534 2.81832 -1.34079 0
M  V30 3391 N 314.835 0.952656 1.25548 0
M  V30 3392 C 315.767 0.428609 2.25157 0
M  V30 3393 C 316.78 -0.454428 1.56329 0
M  V30 3394 O 317.969 -0.263023 1.76552 0
M  V30 3395 C 315.069 -0.401972 3.36508 0
M  V30 3396 C 314.242 0.467601 4.34893 0
M  V30 3397 C 313.301 -0.30445 5.25319 0
M  V30 3398 O 312.327 0.296473 5.68427 0
M  V30 3399 N 313.529 -1.59805 5.5807 0
M  V30 3400 H 316.294 1.28497 2.70756 0
M  V30 3401 H 313.855 0.822798 1.39433 0
M  V30 3402 H 315.847 -0.926134 3.9396 0
M  V30 3403 H 314.417 -1.15918 2.90313 0
M  V30 3404 H 313.637 1.17288 3.76347 0
M  V30 3405 H 314.925 1.06119 4.97611 0
M  V30 3406 H 314.323 -2.10823 5.24948 0
M  V30 3407 H 312.88 -2.06822 6.18116 0
M  V30 3408 N 316.313 -1.40141 0.720998 0
M  V30 3409 C 317.724 -1.83678 0.334553 0
M  V30 3410 C 318.075 -1.6027 -1.13173 0
M  V30 3411 O 317.2 -1.08643 -1.87152 0
M  V30 3412 C 317.795 -3.33437 0.600437 0
M  V30 3413 C 316.354 -3.75447 0.267642 0
M  V30 3414 C 315.501 -2.63296 0.870097 0
M  V30 3415 H 318.452 -1.29331 0.919732 0
M  V30 3416 H 318.473 -3.80269 -0.132517 0
M  V30 3417 H 317.985 -3.50442 1.66768 0
M  V30 3418 H 316.086 -3.64035 -0.794329 0
M  V30 3419 H 316.199 -4.73344 0.74042 0
M  V30 3420 H 314.563 -2.52954 0.297739 0
M  V30 3421 H 315.346 -2.83112 1.94172 0
M  V30 3422 N 317.792 -0.46758 -1.50504 0
M  V30 3423 C 318.755 0.317059 -2.26996 0
M  V30 3424 C 319.755 0.923513 -1.31635 0
M  V30 3425 O 320.945 0.793239 -1.55091 0
M  V30 3426 C 318.077 1.45134 -3.08462 0
M  V30 3427 H 319.27 -0.353723 -2.97807 0
M  V30 3428 H 316.823 -0.221545 -1.54722 0
M  V30 3429 H 317.558 2.15728 -2.4214 0
M  V30 3430 H 317.343 1.02232 -3.78538 0
M  V30 3431 H 318.833 2.00493 -3.66323 0
M  V30 3432 N 319.27 1.56325 -0.20005 0
M  V30 3433 C 320.519 1.96895 0.437652 0
M  V30 3434 C 320.832 1.08999 1.62415 0
M  V30 3435 O 322.038 1.39372 2.32997 0
M  V30 3436 C 320.494 3.50198 0.830025 0
M  V30 3437 C 320.102 4.46765 -0.332461 0
M  V30 3438 C 321.846 3.99526 1.43453 0
M  V30 3439 C 319.753 5.91344 0.0811468 0
M  V30 3440 H 318.683 0.735209 0.167282 0
M  V30 3441 H 321.334 1.81148 -0.292853 0
M  V30 3442 H 319.716 3.61467 1.61734 0
M  V30 3443 H 320.89 4.47231 -1.11 0
M  V30 3444 H 319.205 4.07657 -0.848789 0
M  V30 3445 H 321.802 5.05025 1.75652 0
M  V30 3446 H 322.145 3.44122 2.34277 0
M  V30 3447 H 322.678 3.91393 0.71109 0
M  V30 3448 H 319.417 6.50685 -0.793033 0
M  V30 3449 H 318.937 5.94121 0.823445 0
M  V30 3450 H 320.616 6.44945 0.515252 0
M  V30 3451 N 320.748 -0.0735177 1.57428 0
M  V30 3452 C 321.997 -0.771809 1.86349 0
M  V30 3453 C 322.31 -1.78828 0.792452 0
M  V30 3454 O 323.516 -2.53602 0.96945 0
M  V30 3455 C 321.972 -1.42358 3.30548 0
M  V30 3456 C 321.58 -0.445761 4.45777 0
M  V30 3457 C 323.324 -2.10434 3.6867 0
M  V30 3458 C 321.231 -1.10335 5.81016 0
M  V30 3459 H 320.161 -0.291999 0.695164 0
M  V30 3460 H 322.812 -0.0250749 1.83483 0
M  V30 3461 H 321.194 -2.21852 3.28021 0
M  V30 3462 H 322.368 0.319239 4.59693 0
M  V30 3463 H 320.683 0.130457 4.16196 0
M  V30 3464 H 323.28 -2.60405 4.67004 0
M  V30 3465 H 323.623 -2.90298 2.98383 0
M  V30 3466 H 324.156 -1.37773 3.7318 0
M  V30 3467 H 320.895 -0.345061 6.54591 0
M  V30 3468 H 320.415 -1.83925 5.70904 0
M  V30 3469 H 322.094 -1.62367 6.26295 0
M  V30 3470 N 322.226 -1.5378 -0.344866 0
M  V30 3471 C 323.503 -1.61589 -1.10219 0
M  V30 3472 C 323.883 -0.436316 -2.06542 0
M  V30 3473 O 323.231 0.571543 -2.21237 0
M  V30 3474 C 323.441 -2.97602 -1.82301 0
M  V30 3475 C 324.789 -3.5291 -2.36093 0
M  V30 3476 O 325.813 -2.99768 -1.924 0
M  V30 3477 O 324.672 -4.45859 -3.16026 0
M  V30 3478 H 321.766 -0.653522 -0.506792 0
M  V30 3479 H 324.312 -1.66126 -0.346465 0
M  V30 3480 H 323.084 -3.74893 -1.12121 0
M  V30 3481 H 322.707 -2.9665 -2.64735 0
M  V30 3482 N 323.704 0.605807 -1.45491 0
M  V30 3483 C 324.952 1.36207 -1.49305 0
M  V30 3484 C 325.273 1.94519 -0.136863 0
M  V30 3485 O 324.543 1.77261 0.833983 0
M  V30 3486 H 323.123 0.50565 -0.549843 0
M  V30 3487 H 325.785 0.711239 -1.81459 0
M  V30 3488 H 324.881 2.18058 -2.23287 0
M  V30 3489 N 325.182 1.32811 0.848464 0
M  V30 3490 C 326.092 1.24278 1.98978 0
M  V30 3491 C 327.108 0.155176 1.73307 0
M  V30 3492 O 328.284 0.376999 1.9784 0
M  V30 3493 C 325.349 0.972444 3.32783 0
M  V30 3494 C 324.41 2.14911 3.71634 0
M  V30 3495 C 323.643 1.89157 4.99054 0
M  V30 3496 O 323.866 0.837165 5.64223 0
M  V30 3497 O 322.8 2.75433 5.35183 0
M  V30 3498 H 326.626 2.20238 2.09115 0
M  V30 3499 H 324.211 1.12762 0.980052 0
M  V30 3500 H 326.093 0.838432 4.12975 0
M  V30 3501 H 324.768 0.043051 3.23671 0
M  V30 3502 H 323.675 2.33862 2.91992 0
M  V30 3503 H 325.008 3.06151 3.85399 0
M  V30 3504 N 326.66 -1.06551 1.16123 0
M  V30 3505 C 327.59 -2.15935 0.88851 0
M  V30 3506 C 328.571 -1.69306 -0.164135 0
M  V30 3507 O 329.756 -1.94193 -0.0167857 0
M  V30 3508 C 326.886 -3.45149 0.385942 0
M  V30 3509 C 325.84 -4.05271 1.3762 0
M  V30 3510 C 325.166 -5.29664 0.732137 0
M  V30 3511 C 326.466 -4.44355 2.74493 0
M  V30 3512 H 328.16 -2.39006 1.80323 0
M  V30 3513 H 325.706 -1.14866 0.868435 0
M  V30 3514 H 327.659 -4.21004 0.182647 0
M  V30 3515 H 326.383 -3.21689 -0.564274 0
M  V30 3516 H 325.042 -3.3147 1.56599 0
M  V30 3517 H 324.69 -5.02499 -0.224483 0
M  V30 3518 H 324.39 -5.70848 1.39307 0
M  V30 3519 H 325.914 -6.08218 0.538802 0
M  V30 3520 H 327.328 -5.11303 2.59311 0
M  V30 3521 H 325.725 -4.96515 3.37035 0
M  V30 3522 H 326.795 -3.55339 3.29943 0
M  V30 3523 N 328.138 -0.959301 -1.25041 0
M  V30 3524 C 329.368 -0.63303 -1.96663 0
M  V30 3525 C 329.776 0.800031 -1.71453 0
M  V30 3526 O 329.119 1.54736 -0.99008 0
M  V30 3527 C 329.181 -0.817523 -3.50081 0
M  V30 3528 C 328.845 -2.22863 -3.98975 0
M  V30 3529 C 329.842 -3.20569 -4.09306 0
M  V30 3530 C 327.527 -2.55407 -4.32519 0
M  V30 3531 C 329.521 -4.4891 -4.52503 0
M  V30 3532 C 327.208 -3.83976 -4.754 0
M  V30 3533 C 328.206 -4.8054 -4.85356 0
M  V30 3534 O 327.894 -6.06817 -5.27284 0
M  V30 3535 H 327.626 -0.235866 -0.633516 0
M  V30 3536 H 330.18 -1.2874 -1.60047 0
M  V30 3537 H 328.41 -0.105992 -3.86555 0
M  V30 3538 H 330.099 -0.491604 -4.02912 0
M  V30 3539 H 330.865 -2.96753 -3.83618 0
M  V30 3540 H 326.744 -1.8097 -4.23994 0
M  V30 3541 H 330.288 -5.24283 -4.60188 0
M  V30 3542 H 326.185 -4.07596 -5.00535 0
M  V30 3543 H 326.953 -6.10262 -5.45457 0
M  V30 3544 N 329.616 1.39756 -0.72842 0
M  V30 3545 C 330.564 2.32485 -0.0731849 0
M  V30 3546 C 331.558 1.52717 0.733063 0
M  V30 3547 O 332.764 1.68428 0.634988 0
M  V30 3548 H 329.139 0.751984 -0.00486469 0
M  V30 3549 H 331.11 2.85382 -0.871761 0
M  V30 3550 C 329.859 3.37773 0.824908 0
M  V30 3551 H 329.182 3.99227 0.213915 0
M  V30 3552 H 330.622 4.05121 1.25111 0
M  V30 3553 C 329.081 2.74287 1.95622 0
M  V30 3554 O 329.611 2.61618 3.04826 0
M  V30 3555 N 327.817 2.32475 1.74367 0
M  V30 3556 H 327.364 2.4298 0.855494 0
M  V30 3557 H 327.322 1.90337 2.50238 0
M  V30 3558 N 331.094 0.475555 1.50254 0
M  V30 3559 C 332.004 -0.321501 2.32387 0
M  V30 3560 C 333.02 -0.991755 1.42969 0
M  V30 3561 O 334.196 -0.978747 1.76018 0
M  V30 3562 C 331.261 -1.38667 3.17762 0
M  V30 3563 C 330.322 -0.732538 4.23004 0
M  V30 3564 C 329.555 -1.74695 5.04299 0
M  V30 3565 O 329.778 -2.97399 4.86734 0
M  V30 3566 O 328.712 -1.31631 5.8733 0
M  V30 3567 H 332.538 0.350071 3.01676 0
M  V30 3568 H 330.123 0.237321 1.47503 0
M  V30 3569 H 332.005 -2.00354 3.70724 0
M  V30 3570 H 330.68 -2.04163 2.51196 0
M  V30 3571 H 329.587 -0.0765902 3.74022 0
M  V30 3572 H 330.92 -0.120452 4.92053 0
M  V30 3573 N 332.573 -1.56217 0.208337 0
M  V30 3574 C 333.819 -1.98242 -0.427552 0
M  V30 3575 C 334.152 -1.09554 -1.60348 0
M  V30 3576 O 333.427 -0.15035 -1.93918 0
M  V30 3577 C 333.71 -3.4931 -0.874907 0
M  V30 3578 C 333.563 -4.48773 0.303751 0
M  V30 3579 C 334.882 -4.04424 -1.73577 0
M  V30 3580 H 332.001 -0.720744 -0.153936 0
M  V30 3581 H 334.643 -1.87586 0.30192 0
M  V30 3582 H 332.793 -3.58522 -1.49648 0
M  V30 3583 H 334.465 -4.51586 0.941682 0
M  V30 3584 H 332.708 -4.23194 0.953375 0
M  V30 3585 H 333.379 -5.51976 -0.0519883 0
M  V30 3586 H 335.855 -3.98075 -1.21143 0
M  V30 3587 H 334.731 -5.1047 -2.01771 0
M  V30 3588 H 334.992 -3.50494 -2.69456 0
M  V30 3589 N 334.051 0.0651679 -1.57465 0
M  V30 3590 C 334.998 1.07675 -2.04144 0
M  V30 3591 C 335.968 1.38071 -0.923335 0
M  V30 3592 O 337.153 1.49026 -1.19146 0
M  V30 3593 C 334.293 2.38337 -2.49579 0
M  V30 3594 C 333.406 2.14413 -3.75035 0
M  V30 3595 C 332.541 3.38686 -4.09225 0
M  V30 3596 C 331.58 3.10156 -5.27702 0
M  V30 3597 N 330.717 4.26778 -5.57499 0
M  V30 3598 H 335.557 0.671716 -2.90331 0
M  V30 3599 H 333.094 0.3201 -1.43575 0
M  V30 3600 H 335.052 3.14632 -2.73975 0
M  V30 3601 H 333.682 2.7663 -1.6636 0
M  V30 3602 H 332.734 1.2878 -3.57939 0
M  V30 3603 H 334.046 1.89344 -4.61466 0
M  V30 3604 H 333.2 4.23373 -4.34558 0
M  V30 3605 H 331.939 3.66837 -3.21374 0
M  V30 3606 H 330.944 2.23866 -5.02159 0
M  V30 3607 H 332.169 2.8332 -6.17176 0
M  V30 3608 H 330.115 4.54948 -4.72608 0
M  V30 3609 H 330.032 4.05005 -6.38362 0
M  V30 3610 H 331.3 5.12443 -5.87386 0
M  V30 3611 N 335.529 1.53961 0.336706 0
M  V30 3612 C 336.775 1.7179 1.07777 0
M  V30 3613 C 337.108 0.483263 1.88091 0
M  V30 3614 O 336.383 -0.519747 1.87427 0
M  V30 3615 C 336.666 2.98558 2.01334 0
M  V30 3616 C 336.519 4.32245 1.24437 0
M  V30 3617 C 337.838 3.21023 3.01052 0
M  V30 3618 H 334.957 0.625089 0.390426 0
M  V30 3619 H 337.599 1.86641 0.35567 0
M  V30 3620 H 335.749 2.86028 2.62908 0
M  V30 3621 H 337.421 4.56637 0.654243 0
M  V30 3622 H 335.664 4.30344 0.546458 0
M  V30 3623 H 336.335 5.17137 1.93063 0
M  V30 3624 H 338.811 3.32929 2.49595 0
M  V30 3625 H 337.687 4.11104 3.6371 0
M  V30 3626 H 337.948 2.37637 3.72802 0
M  V30 3627 N 337.007 -0.598083 1.45811 0
M  V30 3628 C 337.917 -1.73632 1.57763 0
M  V30 3629 C 338.933 -1.67763 0.461676 0
M  V30 3630 O 340.109 -1.87949 0.723685 0
M  V30 3631 C 337.174 -3.10114 1.55018 0
M  V30 3632 C 336.235 -3.27364 2.77726 0
M  V30 3633 C 335.468 -4.57334 2.75102 0
M  V30 3634 O 335.691 -5.40258 1.8297 0
M  V30 3635 O 334.625 -4.77502 3.66437 0
M  V30 3636 H 338.451 -1.66498 2.53992 0
M  V30 3637 H 336.036 -0.763308 1.28429 0
M  V30 3638 H 337.918 -3.9141 1.56129 0
M  V30 3639 H 336.593 -3.17718 0.619431 0
M  V30 3640 H 335.5 -2.45619 2.82174 0
M  V30 3641 H 336.833 -3.24641 3.69958 0
M  V30 3642 N 338.485 -1.33259 -0.841409 0
M  V30 3643 C 339.395 -1.25332 -1.98316 0
M  V30 3644 C 340.411 -0.164364 -1.73222 0
M  V30 3645 O 341.587 -0.387486 -1.97637 0
M  V30 3646 C 338.652 -0.990078 -3.32262 0
M  V30 3647 C 337.713 -2.16879 -3.70489 0
M  V30 3648 C 336.946 -1.91801 -4.98044 0
M  V30 3649 O 337.169 -0.867075 -5.63771 0
M  V30 3650 O 336.103 -2.78267 -5.33714 0
M  V30 3651 H 339.929 -2.21344 -2.07944 0
M  V30 3652 H 337.514 -1.1328 -0.974058 0
M  V30 3653 H 339.396 -0.860321 -4.12524 0
M  V30 3654 H 338.071 -0.0602155 -3.23644 0
M  V30 3655 H 336.978 -2.35407 -2.90748 0
M  V30 3656 H 338.311 -3.0819 -3.8377 0
M  V30 3657 N 339.963 1.05934 -1.16686 0
M  V30 3658 C 341.188 1.83029 -0.975455 0
M  V30 3659 C 341.613 1.82096 0.471452 0
M  V30 3660 O 340.971 1.22443 1.33706 0
M  V30 3661 C 341.019 3.27372 -1.51195 0
M  V30 3662 O 340.123 4.06054 -0.720701 0
M  V30 3663 H 339.464 0.566194 -0.346872 0
M  V30 3664 H 341.994 1.33541 -1.55009 0
M  V30 3665 H 342.004 3.78186 -1.53099 0
M  V30 3666 H 340.679 3.27366 -2.56523 0
M  V30 3667 H 339.256 3.64812 -0.772458 0
M  V30 3668 N 341.441 0.965919 1.2453 0
M  V30 3669 C 342.666 0.643971 1.97149 0
M  V30 3670 C 343.091 -0.779487 1.71189 0
M  V30 3671 O 342.449 -1.5288 0.974553 0
M  V30 3672 C 342.497 0.922557 3.48599 0
M  V30 3673 O 341.601 0.00707672 4.12399 0
M  V30 3674 H 340.942 0.243647 0.617683 0
M  V30 3675 H 343.472 1.29558 1.58353 0
M  V30 3676 H 343.482 0.853373 3.98976 0
M  V30 3677 H 342.157 1.95996 3.66822 0
M  V30 3678 H 340.734 0.12943 3.72675 0
M  V30 3679 N 342.919 -1.39368 0.735821 0
M  V30 3680 C 344.165 -2.01272 0.293439 0
M  V30 3681 C 344.52 -1.57344 -1.10728 0
M  V30 3682 O 343.813 -0.792744 -1.74431 0
M  V30 3683 C 344.007 -3.5583 0.334651 0
M  V30 3684 C 343.836 -4.14764 1.73784 0
M  V30 3685 C 342.606 -4.47315 2.35026 0
M  V30 3686 C 344.804 -4.38246 2.69157 0
M  V30 3687 N 342.786 -4.91756 3.6749 0
M  V30 3688 C 344.157 -4.849 3.86357 0
M  V30 3689 C 346.212 -4.20315 2.66908 0
M  V30 3690 C 344.915 -5.15505 5.01645 0
M  V30 3691 C 346.941 -4.52033 3.8134 0
M  V30 3692 C 346.303 -4.98895 4.97276 0
M  V30 3693 H 342.402 -0.766756 0.153652 0
M  V30 3694 H 344.986 -1.69276 0.961967 0
M  V30 3695 H 343.157 -3.87212 -0.303527 0
M  V30 3696 H 344.889 -4.04503 -0.126358 0
M  V30 3697 H 341.644 -4.35143 1.86943 0
M  V30 3698 H 342.068 -5.18333 4.35499 0
M  V30 3699 H 346.71 -3.83287 1.78468 0
M  V30 3700 H 344.428 -5.51437 5.90713 0
M  V30 3701 H 348.014 -4.39781 3.80899 0
M  V30 3702 H 346.894 -5.22973 5.84353 0
M  V30 3703 N 344.397 -0.483516 -1.5 0
M  V30 3704 C 345.327 0.293829 -2.31644 0
M  V30 3705 C 346.308 0.978864 -1.39112 0
M  V30 3706 O 347.493 0.973644 -1.68029 0
M  V30 3707 C 344.623 1.36897 -3.19181 0
M  V30 3708 C 343.577 0.804833 -4.20365 0
M  V30 3709 C 342.903 1.9792 -4.96721 0
M  V30 3710 C 344.203 -0.192313 -5.21946 0
M  V30 3711 H 345.897 -0.387616 -2.9688 0
M  V30 3712 H 343.443 -0.187856 -1.42769 0
M  V30 3713 H 345.396 1.92037 -3.751 0
M  V30 3714 H 344.12 2.07936 -2.51853 0
M  V30 3715 H 342.779 0.275319 -3.65565 0
M  V30 3716 H 342.427 2.67686 -4.25856 0
M  V30 3717 H 342.127 1.60789 -5.65173 0
M  V30 3718 H 343.651 2.53526 -5.55479 0
M  V30 3719 H 345.065 0.270333 -5.72662 0
M  V30 3720 H 343.462 -0.478543 -5.98189 0
M  V30 3721 H 344.532 -1.11409 -4.71928 0
M  V30 3722 N 345.875 1.56104 -0.216619 0
M  V30 3723 C 347.124 1.97348 0.416744 0
M  V30 3724 C 347.437 1.10715 1.6125 0
M  V30 3725 O 348.643 1.41836 2.31506 0
M  V30 3726 C 347.099 3.51059 0.792835 0
M  V30 3727 C 346.707 4.46387 -0.379828 0
M  V30 3728 C 348.451 4.01026 1.39208 0
M  V30 3729 C 346.358 5.91397 0.0184223 0
M  V30 3730 H 345.288 0.736942 0.159475 0
M  V30 3731 H 347.939 1.80827 -0.31205 0
M  V30 3732 H 346.321 3.63162 1.57891 0
M  V30 3733 H 347.495 4.46029 -1.15737 0
M  V30 3734 H 345.81 4.06734 -0.891979 0
M  V30 3735 H 348.407 5.0686 1.70286 0
M  V30 3736 H 348.75 3.46587 2.30614 0
M  V30 3737 H 349.283 3.92125 0.669537 0
M  V30 3738 H 346.022 6.49807 -0.862002 0
M  V30 3739 H 345.542 5.94961 0.760384 0
M  V30 3740 H 347.221 6.45455 0.446818 0
M  V30 3741 N 347.353 -0.0568162 1.57498 0
M  V30 3742 C 348.263 -1.08346 2.08083 0
M  V30 3743 C 349.279 -1.41439 1.01346 0
M  V30 3744 O 350.455 -1.51316 1.32912 0
M  V30 3745 C 347.52 -2.37352 2.52715 0
M  V30 3746 C 346.581 -2.11093 3.73816 0
M  V30 3747 C 345.814 -3.33949 4.1631 0
M  V30 3748 O 346.037 -4.43622 3.58547 0
M  V30 3749 O 344.971 -3.21279 5.08983 0
M  V30 3750 H 348.797 -0.683667 2.95905 0
M  V30 3751 H 346.382 -0.271965 1.46904 0
M  V30 3752 H 348.264 -3.13246 2.81877 0
M  V30 3753 H 346.939 -2.76681 1.68016 0
M  V30 3754 H 345.846 -1.32856 3.49714 0
M  V30 3755 H 347.179 -1.76637 4.59413 0
M  V30 3756 N 348.832 -1.54138 -0.328536 0
M  V30 3757 C 350.109 -1.62749 -1.08499 0
M  V30 3758 C 350.489 -0.458198 -2.06067 0
M  V30 3759 O 349.837 0.548046 -2.2183 0
M  V30 3760 C 350.047 -2.99519 -1.79135 0
M  V30 3761 C 351.395 -3.55394 -2.32337 0
M  V30 3762 O 352.419 -3.01792 -1.89209 0
M  V30 3763 O 351.278 -4.49186 -3.11279 0
M  V30 3764 H 348.372 -0.65886 -0.499832 0
M  V30 3765 H 350.918 -1.66484 -0.328826 0
M  V30 3766 H 349.69 -3.76061 -1.08139 0
M  V30 3767 H 349.313 -2.99441 -2.61574 0
M  V30 3768 N 350.31 0.590341 -1.46126 0
M  V30 3769 C 351.558 1.34616 -1.50742 0
M  V30 3770 C 351.879 1.94363 -0.157486 0
M  V30 3771 O 351.149 1.78136 0.815136 0
M  V30 3772 H 349.729 0.499789 -0.555175 0
M  V30 3773 H 352.391 0.691953 -1.82203 0
M  V30 3774 H 351.487 2.15678 -2.25587 0
M  V30 3775 N 351.788 1.33704 0.83433 0
M  V30 3776 C 352.735 1.24335 1.94447 0
M  V30 3777 C 353.705 0.120991 1.65659 0
M  V30 3778 O 354.89 0.300035 1.88426 0
M  V30 3779 C 352.03 0.993124 3.30501 0
M  V30 3780 C 351.143 2.20217 3.71657 0
M  V30 3781 C 350.278 1.88572 4.96602 0
M  V30 3782 C 349.317 3.05683 5.30306 0
M  V30 3783 N 348.454 2.73997 6.46429 0
M  V30 3784 H 353.294 2.1928 2.01792 0
M  V30 3785 H 350.831 1.09035 0.987404 0
M  V30 3786 H 352.789 0.828467 4.08892 0
M  V30 3787 H 351.419 0.0803902 3.227 0
M  V30 3788 H 350.471 2.47642 2.88752 0
M  V30 3789 H 351.783 3.07752 3.92543 0
M  V30 3790 H 350.937 1.68776 5.82752 0
M  V30 3791 H 349.676 0.982799 4.77695 0
M  V30 3792 H 348.681 3.26088 4.42659 0
M  V30 3793 H 349.906 3.96737 5.51159 0
M  V30 3794 H 347.852 1.86268 6.28999 0
M  V30 3795 H 347.769 3.55064 6.67432 0
M  V30 3796 H 349.037 2.57679 7.35678 0
M  V30 3797 N 353.266 -1.05314 1.17247 0
M  V30 3798 C 354.512 -1.78557 0.961513 0
M  V30 3799 C 354.845 -1.87419 -0.508697 0
M  V30 3800 O 354.12 -1.37307 -1.37757 0
M  V30 3801 C 354.403 -3.22514 1.60176 0
M  V30 3802 C 354.256 -3.21673 3.14399 0
M  V30 3803 C 355.575 -4.20318 1.30463 0
M  V30 3804 H 352.694 -0.6482 0.350723 0
M  V30 3805 H 355.336 -1.23102 1.44727 0
M  V30 3806 H 353.486 -3.69867 1.18871 0
M  V30 3807 H 355.158 -2.82405 3.64753 0
M  V30 3808 H 353.401 -2.60048 3.47214 0
M  V30 3809 H 354.072 -4.23271 3.54324 0
M  V30 3810 H 356.548 -3.81454 1.66229 0
M  V30 3811 H 355.424 -5.19289 1.77848 0
M  V30 3812 H 355.685 -4.41526 0.22521 0
M  V30 3813 N 354.744 -0.972509 -1.24016 0
M  V30 3814 C 355.99 -0.637978 -1.92504 0
M  V30 3815 C 356.323 0.825383 -1.75787 0
M  V30 3816 O 355.598 1.59442 -1.11393 0
M  V30 3817 C 355.881 -1.01942 -3.45369 0
M  V30 3818 C 355.734 -2.53983 -3.71231 0
M  V30 3819 C 357.053 -0.55751 -4.36555 0
M  V30 3820 H 354.172 -0.233248 -0.699117 0
M  V30 3821 H 356.814 -1.21238 -1.46292 0
M  V30 3822 H 354.964 -0.530656 -3.84859 0
M  V30 3823 H 356.636 -3.10374 -3.41271 0
M  V30 3824 H 354.879 -2.96968 -3.16216 0
M  V30 3825 H 355.55 -2.75723 -4.78206 0
M  V30 3826 H 358.026 -0.977029 -4.04467 0
M  V30 3827 H 356.902 -0.85292 -5.42233 0
M  V30 3828 H 357.163 0.542328 -4.38761 0
M  V30 3829 N 356.222 1.38976 -0.743202 0
M  V30 3830 C 357.45 2.04636 -0.30525 0
M  V30 3831 C 357.865 1.56044 1.06281 0
M  V30 3832 O 357.222 0.728921 1.67311 0
M  V30 3833 C 357.273 3.60193 -0.307177 0
M  V30 3834 O 356.994 4.06998 -1.62124 0
M  V30 3835 C 358.495 4.4306 0.145928 0
M  V30 3836 H 355.715 0.65788 -0.132041 0
M  V30 3837 H 358.259 1.77866 -1.00915 0
M  V30 3838 H 356.414 3.85835 0.347898 0
M  V30 3839 H 356.828 5.01371 -1.54036 0
M  V30 3840 H 358.302 5.51921 0.0934183 0
M  V30 3841 H 358.779 4.22706 1.19231 0
M  V30 3842 H 359.385 4.22584 -0.479886 0
M  V30 3843 N 357.7 0.491464 1.49741 0
M  V30 3844 C 358.946 -0.0565092 2.02721 0
M  V30 3845 C 359.279 -1.37522 1.37118 0
M  V30 3846 O 358.554 -1.87866 0.503645 0
M  V30 3847 C 358.837 -0.219051 3.59433 0
M  V30 3848 C 358.69 1.12211 4.35579 0
M  V30 3849 C 360.009 -0.964157 4.29409 0
M  V30 3850 H 357.128 -0.0190627 0.736753 0
M  V30 3851 H 359.77 0.641021 1.7886 0
M  V30 3852 H 357.92 -0.813165 3.79895 0
M  V30 3853 H 359.592 1.75437 4.26637 0
M  V30 3854 H 357.835 1.71377 3.98513 0
M  V30 3855 H 358.506 0.961794 5.43556 0
M  V30 3856 H 360.982 -0.460378 4.13545 0
M  V30 3857 H 359.858 -1.04671 5.38828 0
M  V30 3858 H 360.119 -2.00563 3.93988 0
M  V30 3859 N 359.178 -1.55987 0.224894 0
M  V30 3860 C 360.128 -2.17076 -0.697296 0
M  V30 3861 C 361.112 -1.12006 -1.15514 0
M  V30 3862 O 362.304 -1.37985 -1.10857 0
M  V30 3863 C 359.433 -2.85679 -1.90374 0
M  V30 3864 C 358.519 -3.97977 -1.46543 0
M  V30 3865 N 358.91 -5.00359 -0.739909 0
M  V30 3866 C 357.208 -4.10128 -1.75245 0
M  V30 3867 C 357.909 -5.79407 -0.515939 0
M  V30 3868 N 356.885 -5.32892 -1.07364 0
M  V30 3869 H 360.687 -2.93592 -0.134594 0
M  V30 3870 H 358.201 -1.62379 0.0262885 0
M  V30 3871 H 360.198 -3.27857 -2.57518 0
M  V30 3872 H 358.858 -2.1066 -2.47088 0
M  V30 3873 H 359.869 -5.16412 -0.392253 0
M  V30 3874 H 356.546 -3.46263 -2.33255 0
M  V30 3875 H 357.936 -6.71872 0.0617349 0
M  V30 3876 N 360.656 0.0484629 -1.57525 0
M  V30 3877 C 361.586 1.0549 -2.08313 0
M  V30 3878 C 362.567 1.38929 -0.981463 0
M  V30 3879 O 363.752 1.48151 -1.25558 0
M  V30 3880 C 360.882 2.36162 -2.54646 0
M  V30 3881 C 359.836 2.17016 -3.68901 0
M  V30 3882 C 359.162 3.53278 -4.01371 0
M  V30 3883 C 360.462 1.57219 -4.98076 0
M  V30 3884 H 362.156 0.632195 -2.92649 0
M  V30 3885 H 359.702 0.302654 -1.40784 0
M  V30 3886 H 361.655 3.06882 -2.88793 0
M  V30 3887 H 360.379 2.80456 -1.67368 0
M  V30 3888 H 359.038 1.48733 -3.35073 0
M  V30 3889 H 358.686 3.95185 -3.11188 0
M  V30 3890 H 358.386 3.41299 -4.78318 0
M  V30 3891 H 359.91 4.25391 -4.38035 0
M  V30 3892 H 361.324 2.17832 -5.30304 0
M  V30 3893 H 359.721 1.55871 -5.79503 0
M  V30 3894 H 360.791 0.535956 -4.81929 0
M  V30 3895 N 362.134 1.5431 0.320358 0
M  V30 3896 C 363.044 1.86946 1.41734 0
M  V30 3897 C 364.06 0.761689 1.56443 0
M  V30 3898 O 365.236 1.05629 1.71477 0
M  V30 3899 C 362.301 2.09293 2.76401 0
M  V30 3900 C 361.362 3.33082 2.70841 0
M  V30 3901 C 360.595 3.54353 3.99086 0
M  V30 3902 O 360.818 2.79002 4.97508 0
M  V30 3903 O 359.752 4.47838 4.0215 0
M  V30 3904 H 363.578 2.80232 1.17062 0
M  V30 3905 H 361.163 1.40255 0.514673 0
M  V30 3906 H 363.045 2.25303 3.56113 0
M  V30 3907 H 361.72 1.19194 3.00956 0
M  V30 3908 H 360.627 3.22454 1.89668 0
M  V30 3909 H 361.96 4.23249 2.5124 0
M  V30 3910 N 363.613 -0.582584 1.46437 0
M  V30 3911 C 364.56 -1.69164 1.5701 0
M  V30 3912 C 365.53 -1.60847 0.414403 0
M  V30 3913 O 366.715 -1.80058 0.631171 0
M  V30 3914 C 363.855 -3.075 1.56646 0
M  V30 3915 C 362.968 -3.2644 2.82951 0
M  V30 3916 C 362.103 -4.55026 2.7409 0
M  V30 3917 C 361.142 -4.6731 3.95333 0
M  V30 3918 N 360.279 -5.87221 3.84858 0
M  V30 3919 H 365.119 -1.59464 2.51744 0
M  V30 3920 H 362.656 -0.777186 1.24893 0
M  V30 3921 H 364.614 -3.8757 1.5442 0
M  V30 3922 H 363.244 -3.16096 0.654439 0
M  V30 3923 H 362.296 -2.39974 2.95155 0
M  V30 3924 H 363.608 -3.31385 3.72808 0
M  V30 3925 H 362.762 -5.43324 2.6997 0
M  V30 3926 H 361.501 -4.52519 1.81873 0
M  V30 3927 H 360.506 -3.77429 3.99784 0
M  V30 3928 H 361.731 -4.71595 4.88646 0
M  V30 3929 H 359.677 -5.85712 2.95427 0
M  V30 3930 H 359.594 -5.93435 4.6837 0
M  V30 3931 H 360.862 -6.7795 3.84713 0
M  V30 3932 N 365.091 -1.34144 -0.827227 0
M  V30 3933 C 366.34 -1.25602 -1.5782 0
M  V30 3934 C 366.653 0.173445 -1.94829 0
M  V30 3935 O 367.859 0.380984 -2.68814 0
M  V30 3936 C 366.315 -2.20151 -2.84713 0
M  V30 3937 C 365.923 -3.68331 -2.55021 0
M  V30 3938 C 367.667 -2.20508 -3.62735 0
M  V30 3939 C 365.574 -4.54762 -3.78082 0
M  V30 3940 H 364.504 -0.466573 -0.592306 0
M  V30 3941 H 367.155 -1.59283 -0.911116 0
M  V30 3942 H 365.537 -1.79417 -3.53023 0
M  V30 3943 H 366.711 -4.17577 -1.94849 0
M  V30 3944 H 365.026 -3.7038 -1.90283 0
M  V30 3945 H 367.623 -2.82306 -4.54101 0
M  V30 3946 H 367.966 -1.20322 -3.98533 0
M  V30 3947 H 368.499 -2.59664 -3.01362 0
M  V30 3948 H 365.238 -5.55867 -3.47407 0
M  V30 3949 H 364.758 -4.10254 -4.37552 0
M  V30 3950 H 366.437 -4.69153 -4.45538 0
M  V30 3951 N 366.569 1.04691 -1.17803 0
M  V30 3952 C 367.517 2.14665 -0.895635 0
M  V30 3953 C 368.511 1.68806 0.141679 0
M  V30 3954 O 369.717 1.79999 -0.00587914 0
M  V30 3955 H 366.092 0.701038 -0.272121 0
M  V30 3956 H 368.063 2.35685 -1.83017 0
M  V30 3957 C 366.812 3.45019 -0.430962 0
M  V30 3958 H 366.135 3.8071 -1.22064 0
M  V30 3959 H 367.575 4.23125 -0.272301 0
M  V30 3960 C 366.034 3.25943 0.852207 0
M  V30 3961 O 366.564 3.5296 1.91786 0
M  V30 3962 N 364.77 2.79304 0.802346 0
M  V30 3963 H 364.317 2.57518 -0.0650788 0
M  V30 3964 H 364.275 2.66921 1.66134 0
M  V30 3965 N 368.047 0.979072 1.23499 0
M  V30 3966 C 368.994 0.517904 2.24914 0
M  V30 3967 C 369.964 -0.442525 1.60097 0
M  V30 3968 O 371.149 -0.350365 1.87556 0
M  V30 3969 C 368.289 -0.174813 3.44657 0
M  V30 3970 C 367.402 0.825721 4.24035 0
M  V30 3971 C 366.537 0.107946 5.3109 0
M  V30 3972 C 365.576 1.09778 6.02175 0
M  V30 3973 N 364.713 0.40925 7.00906 0
M  V30 3974 H 369.553 1.38751 2.63727 0
M  V30 3975 H 367.09 0.695303 1.2963 0
M  V30 3976 H 369.048 -0.593233 4.12961 0
M  V30 3977 H 367.678 -1.0083 3.06648 0
M  V30 3978 H 366.73 1.36253 3.55161 0
M  V30 3979 H 368.042 1.58005 4.73113 0
M  V30 3980 H 367.196 -0.367904 6.05583 0
M  V30 3981 H 365.935 -0.678994 4.8295 0
M  V30 3982 H 364.94 1.5844 5.26476 0
M  V30 3983 H 366.165 1.88536 6.52404 0
M  V30 3984 H 364.111 -0.358506 6.5502 0
M  V30 3985 H 364.028 1.10226 7.47921 0
M  V30 3986 H 365.296 -0.0442557 7.79487 0
M  V30 3987 N 369.525 -1.3858 0.750561 0
M  V30 3988 C 370.458 -2.28095 0.0693139 0
M  V30 3989 C 371.436 -1.45217 -0.731491 0
M  V30 3990 O 372.62 -1.74587 -0.71076 0
M  V30 3991 C 369.747 -3.26282 -0.90871 0
M  V30 3992 C 368.793 -4.26056 -0.194507 0
M  V30 3993 S 369.626 -5.24026 1.10257 0
M  V30 3994 C 370.782 -6.2577 0.127542 0
M  V30 3995 H 371.015 -2.85526 0.8284 0
M  V30 3996 H 368.548 -1.44536 0.543014 0
M  V30 3997 H 370.506 -3.83367 -1.46766 0
M  V30 3998 H 369.167 -2.6784 -1.64075 0
M  V30 3999 H 368.36 -4.95249 -0.93512 0
M  V30 4000 H 367.962 -3.72852 0.292837 0
M  V30 4001 H 370.254 -6.73796 -0.707516 0
M  V30 4002 H 371.197 -7.03712 0.787044 0
M  V30 4003 H 371.605 -5.63938 -0.251803 0
M  V30 4004 N 371.003 -0.499398 -1.49478 0
M  V30 4005 C 371.913 0.284489 -2.32869 0
M  V30 4006 C 372.929 0.968885 -1.44529 0
M  V30 4007 O 374.105 0.95062 -1.77553 0
M  V30 4008 C 371.17 1.33594 -3.19928 0
M  V30 4009 C 370.231 0.665149 -4.24116 0
M  V30 4010 C 369.464 1.6665 -5.07014 0
M  V30 4011 O 369.687 2.89618 -4.91404 0
M  V30 4012 O 368.621 1.22271 -5.8935 0
M  V30 4013 H 372.447 -0.39802 -3.01081 0
M  V30 4014 H 370.032 -0.260758 -1.47107 0
M  V30 4015 H 371.914 1.94431 -3.73864 0
M  V30 4016 H 370.589 2.0014 -2.54412 0
M  V30 4017 H 369.496 0.0170769 -3.74096 0
M  V30 4018 H 370.829 0.0421555 -4.92182 0
M  V30 4019 N 372.481 1.55866 -0.233164 0
M  V30 4020 C 373.727 1.99643 0.389148 0
M  V30 4021 C 374.082 1.11836 1.56558 0
M  V30 4022 O 373.375 0.170848 1.90837 0
M  V30 4023 C 373.569 3.46856 0.861724 0
M  V30 4024 C 373.398 4.48904 -0.267376 0
M  V30 4025 C 372.168 4.99888 -0.737577 0
M  V30 4026 C 374.366 5.02624 -1.08966 0
M  V30 4027 N 372.348 5.8566 -1.84052 0
M  V30 4028 C 373.719 5.85434 -2.04125 0
M  V30 4029 C 375.774 4.84959 -1.12779 0
M  V30 4030 C 374.477 6.52466 -3.02789 0
M  V30 4031 C 376.503 5.52759 -2.10266 0
M  V30 4032 C 375.865 6.35346 -3.04162 0
M  V30 4033 H 371.964 0.774402 0.108742 0
M  V30 4034 H 374.548 1.91572 -0.347596 0
M  V30 4035 H 372.719 3.55352 1.5678 0
M  V30 4036 H 374.451 3.77531 1.45783 0
M  V30 4037 H 371.206 4.7249 -0.324122 0
M  V30 4038 H 371.63 6.33246 -2.39434 0
M  V30 4039 H 376.272 4.20751 -0.415749 0
M  V30 4040 H 373.99 7.15849 -3.74948 0
M  V30 4041 H 377.576 5.41051 -2.13905 0
M  V30 4042 H 376.456 6.86883 -3.78366 0
M  V30 4043 N 373.959 -0.0401083 1.57549 0
M  V30 4044 C 375.205 -0.728793 1.89895 0
M  V30 4045 C 375.56 -1.73551 0.830535 0
M  V30 4046 O 374.853 -1.90914 -0.162007 0
M  V30 4047 C 375.047 -1.44902 3.26708 0
M  V30 4048 C 374.876 -0.513568 4.46758 0
M  V30 4049 C 373.646 -0.138698 5.0511 0
M  V30 4050 C 375.844 0.203341 5.13898 0
M  V30 4051 N 373.826 0.799159 6.08676 0
M  V30 4052 C 375.197 0.997246 6.11927 0
M  V30 4053 C 377.252 0.271459 4.97159 0
M  V30 4054 C 375.955 1.85299 6.95023 0
M  V30 4055 C 377.981 1.11429 5.80808 0
M  V30 4056 C 377.343 1.89615 6.78399 0
M  V30 4057 H 373.442 -0.241125 0.743897 0
M  V30 4058 H 376.026 0.0108016 1.94697 0
M  V30 4059 H 374.197 -2.15914 3.22856 0
M  V30 4060 H 375.929 -2.08921 3.46603 0
M  V30 4061 H 372.684 -0.498496 4.70969 0
M  V30 4062 H 373.108 1.26227 6.65128 0
M  V30 4063 H 377.75 -0.318709 4.21597 0
M  V30 4064 H 375.468 2.454 7.69938 0
M  V30 4065 H 379.054 1.17038 5.69906 0
M  V30 4066 H 377.934 2.53779 7.42001 0
M  V30 4067 N 375.437 -1.54477 -0.31217 0
M  V30 4068 C 376.662 -1.77526 -1.07235 0
M  V30 4069 C 377.087 -0.527775 -1.80544 0
M  V30 4070 O 376.445 0.52121 -1.73646 0
M  V30 4071 C 376.493 -2.97535 -2.03728 0
M  V30 4072 O 375.597 -2.69878 -3.11833 0
M  V30 4073 H 374.938 -0.58792 -0.30862 0
M  V30 4074 H 377.468 -2.01532 -0.352993 0
M  V30 4075 H 377.478 -3.25198 -2.46395 0
M  V30 4076 H 376.153 -3.87996 -1.49774 0
M  V30 4077 H 374.73 -2.53199 -2.7376 0
M  V30 4078 N 376.915 0.57481 -1.46744 0
M  V30 4079 C 378.331 0.898981 -1.31873 0
M  V30 4080 C 378.531 1.99313 -0.29605 0
M  V30 4081 O 377.587 2.50728 0.298621 0
M  V30 4082 C 378.9 1.30886 -2.7072 0
M  V30 4083 C 380.448 1.42127 -2.78871 0
M  V30 4084 C 380.923 1.86478 -4.18318 0
M  V30 4085 N 382.414 1.93658 -4.20774 0
M  V30 4086 C 383.149 2.29267 -5.2557 0
M  V30 4087 N 382.645 2.63612 -6.40688 0
M  V30 4088 N 384.438 2.29889 -5.1294 0
M  V30 4089 H 376.589 -0.147839 -2.11885 0
M  V30 4090 H 378.852 -0.00347013 -0.947994 0
M  V30 4091 H 378.558 0.578853 -3.46904 0
M  V30 4092 H 378.432 2.26874 -3.01343 0
M  V30 4093 H 380.819 2.14213 -2.0297 0
M  V30 4094 H 380.9 0.443705 -2.51922 0
M  V30 4095 H 380.544 1.14968 -4.94717 0
M  V30 4096 H 380.474 2.85207 -4.42679 0
M  V30 4097 H 382.965 1.69574 -3.37718 0
M  V30 4098 H 383.278 2.89759 -7.16421 0
M  V30 4099 H 381.623 2.61232 -6.44036 0
M  V30 4100 H 384.814 2.02485 -4.22039 0
M  V30 4101 H 384.987 2.57312 -5.94722 0
M  V30 4102 N 378.394 1.34581 0.820102 0
M  V30 4103 C 379.324 1.29038 1.94606 0
M  V30 4104 C 380.305 0.1673 1.69275 0
M  V30 4105 O 381.49 0.360112 1.90832 0
M  V30 4106 C 378.62 1.04793 3.31113 0
M  V30 4107 C 377.574 2.13597 3.70891 0
M  V30 4108 C 376.9 1.74537 5.05412 0
M  V30 4109 C 378.2 3.55451 3.8269 0
M  V30 4110 H 379.894 2.23248 1.99501 0
M  V30 4111 H 377.44 1.0747 0.958449 0
M  V30 4112 H 379.393 0.995592 4.0947 0
M  V30 4113 H 378.117 0.0702565 3.26524 0
M  V30 4114 H 376.776 2.17905 2.9481 0
M  V30 4115 H 376.424 0.754226 4.97313 0
M  V30 4116 H 376.124 2.47361 5.32997 0
M  V30 4117 H 377.648 1.70803 5.86224 0
M  V30 4118 H 379.062 3.5354 4.51312 0
M  V30 4119 H 377.459 4.26922 4.21732 0
M  V30 4120 H 378.529 3.92587 2.84611 0
M  V30 4121 N 379.872 -1.04064 1.18357 0
M  V30 4122 C 381.118 -1.77528 0.980397 0
M  V30 4123 C 381.451 -1.87948 -0.48879 0
M  V30 4124 O 380.726 -1.3876 -1.36293 0
M  V30 4125 C 381.009 -3.20797 1.63588 0
M  V30 4126 C 380.862 -3.1832 3.17793 0
M  V30 4127 C 382.181 -4.18911 1.34914 0
M  V30 4128 H 379.3 -0.644443 0.357578 0
M  V30 4129 H 381.942 -1.2156 1.46024 0
M  V30 4130 H 380.092 -3.68586 1.22788 0
M  V30 4131 H 381.764 -2.78521 3.67728 0
M  V30 4132 H 380.007 -2.56351 3.49952 0
M  V30 4133 H 380.678 -4.19489 3.58794 0
M  V30 4134 H 383.154 -3.7967 1.70265 0
M  V30 4135 H 382.03 -5.17374 1.83346 0
M  V30 4136 H 382.291 -4.41262 0.272027 0
M  V30 4137 N 381.35 -0.985608 -1.22978 0
M  V30 4138 C 382.575 -0.675254 -1.961 0
M  V30 4139 C 383 0.752154 -1.72407 0
M  V30 4140 O 382.358 1.5131 -0.998751 0
M  V30 4141 C 382.406 -0.977899 -3.47087 0
M  V30 4142 O 381.51 -0.072685 -4.12336 0
M  V30 4143 H 380.851 -0.253443 -0.613728 0
M  V30 4144 H 383.381 -1.32061 -1.56272 0
M  V30 4145 H 383.391 -0.916739 -3.97567 0
M  V30 4146 H 382.066 -2.01807 -3.63657 0
M  V30 4147 H 380.643 -0.188703 -3.72422 0
M  V30 4148 N 382.828 1.3818 -0.7579 0
M  V30 4149 C 384.053 2.04827 -0.325679 0
M  V30 4150 C 384.478 1.56788 1.03919 0
M  V30 4151 O 383.836 0.721811 1.66312 0
M  V30 4152 C 383.884 3.58774 -0.362447 0
M  V30 4153 O 382.988 4.07372 0.642033 0
M  V30 4154 H 382.329 0.64833 -0.143402 0
M  V30 4155 H 384.859 1.7677 -1.03023 0
M  V30 4156 H 384.869 4.07434 -0.214844 0
M  V30 4157 H 383.544 3.93096 -1.35824 0
M  V30 4158 H 382.121 3.70068 0.458688 0
M  V30 4159 N 384.306 0.507319 1.49211 0
M  V30 4160 C 385.583 -0.0982702 1.95353 0
M  V30 4161 C 385.963 -1.53516 1.449 0
M  V30 4162 O 385.311 -2.18594 0.66551 0
M  V30 4163 C 385.521 -0.00440283 3.49 0
M  V30 4164 C 386.869 -0.175147 4.24239 0
M  V30 4165 O 387.893 -0.0792891 3.56112 0
M  V30 4166 O 386.752 -0.37276 5.45227 0
M  V30 4167 H 383.846 -0.0918236 0.821887 0
M  V30 4168 H 386.392 0.570307 1.5983 0
M  V30 4169 H 385.164 0.997402 3.78375 0
M  V30 4170 H 384.787 -0.712845 3.91158 0
M  V30 4171 N 385.784 -1.5574 0.241426 0
M  V30 4172 C 387.195 -1.84842 -0.262755 0
M  V30 4173 C 387.546 -1.16317 -1.58003 0
M  V30 4174 O 386.671 -0.439653 -2.11887 0
M  V30 4175 C 387.266 -3.35332 -0.483523 0
M  V30 4176 C 385.825 -3.6468 -0.931977 0
M  V30 4177 C 384.972 -2.77299 -0.0061151 0
M  V30 4178 H 387.923 -1.51761 0.464129 0
M  V30 4179 H 387.944 -3.56615 -1.32688 0
M  V30 4180 H 387.456 -3.85178 0.47537 0
M  V30 4181 H 385.557 -3.20307 -1.90353 0
M  V30 4182 H 385.67 -4.72498 -0.792628 0
M  V30 4183 H 384.034 -2.49408 -0.516503 0
M  V30 4184 H 384.817 -3.2995 0.948052 0
M  V30 4185 N 387.262 0.0317525 -1.57568 0
M  V30 4186 C 388.172 1.05021 -2.0978 0
M  V30 4187 C 389.188 1.39809 -1.03583 0
M  V30 4188 O 390.364 1.49182 -1.35302 0
M  V30 4189 C 387.429 2.33301 -2.56459 0
M  V30 4190 C 386.49 2.0512 -3.77127 0
M  V30 4191 C 385.723 3.27283 -4.2157 0
M  V30 4192 O 385.946 4.37861 -3.65559 0
M  V30 4193 O 384.88 3.13141 -5.14029 0
M  V30 4194 H 388.706 0.636505 -2.96955 0
M  V30 4195 H 386.291 0.248559 -1.47318 0
M  V30 4196 H 388.173 3.08722 -2.86825 0
M  V30 4197 H 386.848 2.73973 -1.72397 0
M  V30 4198 H 385.755 1.27276 -3.51784 0
M  V30 4199 H 387.088 1.69305 -4.62165 0
M  V30 4200 N 388.74 1.54641 0.303973 0
M  V30 4201 C 389.989 1.7299 1.03717 0
M  V30 4202 C 390.302 0.521168 1.88529 0
M  V30 4203 O 391.508 0.586408 2.65092 0
M  V30 4204 C 389.964 3.06051 1.89369 0
M  V30 4205 C 389.572 4.34393 1.09574 0
M  V30 4206 C 391.316 3.3376 2.62306 0
M  V30 4207 C 389.223 5.58506 1.94486 0
M  V30 4208 H 388.153 0.64473 0.390947 0
M  V30 4209 H 390.804 1.81124 0.294328 0
M  V30 4210 H 389.186 2.91874 2.67629 0
M  V30 4211 H 390.36 4.59396 0.359485 0
M  V30 4212 H 388.675 4.13597 0.482324 0
M  V30 4213 H 391.272 4.23687 3.26181 0
M  V30 4214 H 391.615 2.52503 3.3098 0
M  V30 4215 H 392.148 3.48894 1.91097 0
M  V30 4216 H 388.887 6.42422 1.30287 0
M  V30 4217 H 388.407 5.37694 2.65792 0
M  V30 4218 H 390.086 5.95651 2.52605 0
M  V30 4219 N 390.218 -0.567019 1.47046 0
M  V30 4220 C 391.166 -1.69593 1.59188 0
M  V30 4221 C 392.16 -1.63046 0.459609 0
M  V30 4222 O 393.366 -1.6835 0.637058 0
M  V30 4223 H 389.741 -0.560993 0.500791 0
M  V30 4224 H 391.712 -1.56488 2.54075 0
M  V30 4225 C 390.461 -3.07964 1.61411 0
M  V30 4226 H 389.784 -3.13679 2.47881 0
M  V30 4227 H 391.224 -3.86671 1.73958 0
M  V30 4228 C 389.683 -3.35123 0.34559 0
M  V30 4229 O 390.213 -3.97812 -0.557521 0
M  V30 4230 N 388.419 -2.89699 0.22864 0
M  V30 4231 H 387.966 -2.38863 0.964479 0
M  V30 4232 H 387.924 -3.08242 -0.619192 0
M  V30 4233 N 391.696 -1.35014 -0.812953 0
M  V30 4234 C 392.924 -1.31031 -1.6012 0
M  V30 4235 C 393.339 0.113558 -1.88458 0
M  V30 4236 O 392.696 1.06363 -1.48301 0
M  V30 4237 C 392.747 -2.10872 -2.93624 0
M  V30 4238 O 392.468 -3.47706 -2.66518 0
M  V30 4239 C 393.969 -2.14401 -3.88004 0
M  V30 4240 H 391.189 -0.45037 -0.497401 0
M  V30 4241 H 393.733 -1.77775 -1.01076 0
M  V30 4242 H 391.888 -1.67744 -3.492 0
M  V30 4243 H 392.302 -3.89097 -3.51715 0
M  V30 4244 H 393.776 -2.74669 -4.78812 0
M  V30 4245 H 394.253 -1.14105 -4.24119 0
M  V30 4246 H 394.859 -2.57662 -3.38364 0
M  V30 4247 N 393.175 1.03435 -1.18907 0
M  V30 4248 C 394.122 2.11591 -0.921837 0
M  V30 4249 C 395.092 1.65499 0.141226 0
M  V30 4250 O 396.277 1.908 0.000242829 0
M  V30 4251 C 393.417 3.42012 -0.460616 0
M  V30 4252 C 392.53 4.01682 -1.58982 0
M  V30 4253 C 391.665 5.20091 -1.08069 0
M  V30 4254 C 390.704 5.71805 -2.18416 0
M  V30 4255 N 389.841 6.81494 -1.68849 0
M  V30 4256 H 394.681 2.33787 -1.8479 0
M  V30 4257 H 392.218 1.1467 -0.921373 0
M  V30 4258 H 394.176 4.16834 -0.174642 0
M  V30 4259 H 392.806 3.19944 0.428467 0
M  V30 4260 H 391.858 3.24127 -1.99113 0
M  V30 4261 H 393.17 4.36084 -2.4214 0
M  V30 4262 H 392.324 6.02051 -0.749615 0
M  V30 4263 H 391.063 4.87209 -0.218771 0
M  V30 4264 H 390.068 4.88461 -2.5236 0
M  V30 4265 H 391.293 6.06728 -3.05054 0
M  V30 4266 H 389.239 6.50475 -0.849572 0
M  V30 4267 H 389.156 7.14994 -2.45601 0
M  V30 4268 H 390.424 7.67063 -1.38689 0
M  V30 4269 N 394.653 0.992116 1.22453 0
M  V30 4270 C 395.6 0.541731 2.24352 0
M  V30 4271 C 396.57 -0.425519 1.60557 0
M  V30 4272 O 397.755 -0.330453 1.87917 0
M  V30 4273 C 394.895 -0.138248 3.44823 0
M  V30 4274 C 394.008 0.870649 4.23136 0
M  V30 4275 C 393.143 0.164269 5.30946 0
M  V30 4276 C 392.182 1.16159 6.00977 0
M  V30 4277 N 391.319 0.483568 7.00433 0
M  V30 4278 H 396.159 1.41541 2.62241 0
M  V30 4279 H 393.696 0.709013 1.28885 0
M  V30 4280 H 395.654 -0.5494 4.13567 0
M  V30 4281 H 394.284 -0.975721 3.077 0
M  V30 4282 H 393.336 1.40013 3.53696 0
M  V30 4283 H 394.648 1.63014 4.7141 0
M  V30 4284 H 393.802 -0.303653 6.0594 0
M  V30 4285 H 392.541 -0.627733 4.83643 0
M  V30 4286 H 391.546 1.64015 5.24766 0
M  V30 4287 H 392.771 1.95445 6.50368 0
M  V30 4288 H 390.717 -0.289012 6.55363 0
M  V30 4289 H 390.634 1.18152 7.4671 0
M  V30 4290 H 391.902 0.0384219 7.79491 0
M  V30 4291 N 396.131 -1.37776 0.765217 0
M  V30 4292 C 397.38 -1.99092 0.323307 0
M  V30 4293 C 397.693 -1.61434 -1.10446 0
M  V30 4294 O 398.899 -2.15805 -1.64743 0
M  V30 4295 C 397.355 -3.56019 0.527098 0
M  V30 4296 C 396.963 -4.0262 1.96471 0
M  V30 4297 C 398.707 -4.2424 0.148483 0
M  V30 4298 C 396.614 -5.52233 2.11644 0
M  V30 4299 H 395.544 -0.744846 0.117137 0
M  V30 4300 H 398.195 -1.57391 0.943417 0
M  V30 4301 H 396.577 -3.95667 -0.162372 0
M  V30 4302 H 397.751 -3.74234 2.68859 0
M  V30 4303 H 396.066 -3.47161 2.29931 0
M  V30 4304 H 398.663 -5.34159 0.240456 0
M  V30 4305 H 399.006 -4.06446 -0.900422 0
M  V30 4306 H 399.539 -3.89872 0.79025 0
M  V30 4307 H 396.278 -5.74945 3.1483 0
M  V30 4308 H 395.798 -5.82324 1.4373 0
M  V30 4309 H 397.477 -6.18106 1.91193 0
M  V30 4310 N 397.609 -0.515225 -1.4894 0
M  V30 4311 C 398.557 0.269115 -2.31038 0
M  V30 4312 C 399.551 0.949443 -1.40292 0
M  V30 4313 O 400.757 0.87551 -1.57273 0
M  V30 4314 H 397.132 0.10565 -0.744542 0
M  V30 4315 H 399.103 -0.443096 -2.95092 0
M  V30 4316 C 397.852 1.31213 -3.21991 0
M  V30 4317 H 397.175 0.798034 -3.91754 0
M  V30 4318 H 398.615 1.83263 -3.82349 0
M  V30 4319 C 397.074 2.33791 -2.42576 0
M  V30 4320 O 397.604 3.3995 -2.14003 0
M  V30 4321 N 395.81 2.06625 -2.0434 0
M  V30 4322 H 395.357 1.20314 -2.27777 0
M  V30 4323 H 395.315 2.75483 -1.51514 0
M  V30 4324 N 399.087 1.5561 -0.249682 0
M  V30 4325 C 400.498 1.84979 0.252949 0
M  V30 4326 C 400.849 1.17153 1.57384 0
M  V30 4327 O 399.974 0.450884 2.11651 0
M  V30 4328 C 400.569 3.35584 0.465732 0
M  V30 4329 C 399.128 3.65169 0.912624 0
M  V30 4330 C 398.275 2.77299 -0.00859085 0
M  V30 4331 H 401.226 1.51513 -0.47217 0
M  V30 4332 H 401.247 3.57313 1.30795 0
M  V30 4333 H 400.759 3.8492 -0.49579 0
M  V30 4334 H 398.86 3.21312 1.88652 0
M  V30 4335 H 398.973 4.72912 0.767559 0
M  V30 4336 H 397.337 2.49678 0.50327 0
M  V30 4337 H 398.12 3.29442 -0.965537 0
M  V30 4338 N 400.565 -0.0233959 1.57583 0
M  V30 4339 C 401.475 -1.03907 2.10334 0
M  V30 4340 C 402.491 -1.39257 1.04323 0
M  V30 4341 O 403.667 -1.48462 1.36091 0
M  V30 4342 C 400.732 -2.31938 2.57693 0
M  V30 4343 C 399.793 -2.03117 3.78209 0
M  V30 4344 C 399.026 -3.25043 4.233 0
M  V30 4345 O 399.249 -4.35916 3.67876 0
M  V30 4346 O 398.183 -3.10411 5.15683 0
M  V30 4347 H 402.009 -0.620748 2.97288 0
M  V30 4348 H 399.594 -0.240743 1.47448 0
M  V30 4349 H 401.476 -3.07196 2.88458 0
M  V30 4350 H 400.151 -2.73055 1.73847 0
M  V30 4351 H 399.058 -1.25408 3.52454 0
M  V30 4352 H 400.391 -1.66852 4.63056 0
M  V30 4353 N 402.043 -1.548 -0.295768 0
M  V30 4354 C 402.991 -1.86874 -1.38495 0
M  V30 4355 C 403.985 -0.742938 -1.52239 0
M  V30 4356 O 405.191 -0.926999 -1.54294 0
M  V30 4357 H 401.566 -0.592786 -0.462719 0
M  V30 4358 H 403.537 -2.77904 -1.08682 0
M  V30 4359 C 402.286 -2.13732 -2.74252 0
M  V30 4360 H 401.609 -2.99835 -2.64459 0
M  V30 4361 H 403.049 -2.4011 -3.49461 0
M  V30 4362 C 401.508 -0.937539 -3.23592 0
M  V30 4363 O 402.038 -0.160665 -4.01379 0
M  V30 4364 N 400.244 -0.741478 -2.80981 0
M  V30 4365 H 399.791 -1.37489 -2.1784 0
M  V30 4366 H 399.749 0.0597103 -3.14343 0
M  V30 4367 N 403.521 0.559213 -1.47345 0
M  V30 4368 C 404.746 1.34676 -1.57725 0
M  V30 4369 C 405.171 1.86723 -0.227164 0
M  V30 4370 O 404.529 1.6286 0.796642 0
M  V30 4371 C 404.577 2.49399 -2.60447 0
M  V30 4372 O 403.681 3.51567 -2.15578 0
M  V30 4373 H 403.022 0.400115 -0.52991 0
M  V30 4374 H 405.552 0.676009 -1.93109 0
M  V30 4375 H 405.562 2.95996 -2.80803 0
M  V30 4376 H 404.237 2.10873 -3.58477 0
M  V30 4377 H 402.814 3.11289 -2.05313 0
M  V30 4378 N 404.999 1.35443 0.805782 0
M  V30 4379 C 405.946 1.28431 1.91766 0
M  V30 4380 C 406.916 0.156102 1.65365 0
M  V30 4381 O 408.101 0.339936 1.87747 0
M  V30 4382 C 405.241 1.06301 3.2832 0
M  V30 4383 C 404.354 2.2805 3.66902 0
M  V30 4384 C 403.489 1.99064 4.92491 0
M  V30 4385 C 402.528 3.16863 5.23703 0
M  V30 4386 N 401.665 2.87647 6.40471 0
M  V30 4387 H 406.505 2.23511 1.97096 0
M  V30 4388 H 404.042 1.11105 0.964054 0
M  V30 4389 H 406 0.915012 4.07042 0
M  V30 4390 H 404.63 0.148822 3.22457 0
M  V30 4391 H 403.682 2.53711 2.83434 0
M  V30 4392 H 404.994 3.1601 3.85927 0
M  V30 4393 H 404.148 1.81099 5.7904 0
M  V30 4394 H 402.887 1.0839 4.75503 0
M  V30 4395 H 401.892 3.35404 4.35642 0
M  V30 4396 H 403.117 4.08339 5.4262 0
M  V30 4397 H 401.063 1.99568 6.24907 0
M  V30 4398 H 400.98 3.69141 6.59751 0
M  V30 4399 H 402.248 2.73226 7.30047 0
M  V30 4400 N 406.477 -1.02803 1.19454 0
M  V30 4401 C 407.407 -2.12999 0.956758 0
M  V30 4402 C 408.388 -1.69743 -0.110188 0
M  V30 4403 O 409.573 -1.94148 0.0450038 0
M  V30 4404 C 406.703 -3.43746 0.495553 0
M  V30 4405 C 405.657 -4.00688 1.50443 0
M  V30 4406 C 404.983 -5.27067 0.900275 0
M  V30 4407 C 406.283 -4.35397 2.8849 0
M  V30 4408 H 407.977 -2.33148 1.87836 0
M  V30 4409 H 405.523 -1.12045 0.904539 0
M  V30 4410 H 407.476 -4.2021 0.316493 0
M  V30 4411 H 406.2 -3.23321 -0.461646 0
M  V30 4412 H 404.859 -3.2632 1.67065 0
M  V30 4413 H 404.507 -5.02959 -0.064503 0
M  V30 4414 H 404.207 -5.66127 1.57397 0
M  V30 4415 H 405.731 -6.06196 0.73203 0
M  V30 4416 H 407.145 -5.02795 2.75446 0
M  V30 4417 H 405.542 -4.85541 3.52661 0
M  V30 4418 H 406.612 -3.44662 3.41081 0
M  V30 4419 N 407.956 -0.998596 -1.21925 0
M  V30 4420 C 409.181 -0.696015 -1.95372 0
M  V30 4421 C 409.606 0.733826 -1.73195 0
M  V30 4422 O 408.964 1.50242 -1.01474 0
M  V30 4423 C 409.012 -1.01466 -3.4603 0
M  V30 4424 O 408.116 -0.116415 -4.12236 0
M  V30 4425 H 407.457 -0.259938 -0.611006 0
M  V30 4426 H 409.987 -1.33711 -1.54863 0
M  V30 4427 H 409.997 -0.958855 -3.96573 0
M  V30 4428 H 408.672 -2.05653 -3.61497 0
M  V30 4429 H 407.249 -0.228193 -3.72201 0
M  V30 4430 N 409.434 1.37368 -0.772513 0
M  V30 4431 C 410.711 1.93839 -0.26188 0
M  V30 4432 C 411.091 1.7061 1.24319 0
M  V30 4433 O 410.439 1.05534 2.02669 0
M  V30 4434 C 410.649 3.43154 -0.636102 0
M  V30 4435 C 411.997 4.20249 -0.606324 0
M  V30 4436 O 413.021 3.5152 -0.575538 0
M  V30 4437 O 411.88 5.42809 -0.634086 0
M  V30 4438 H 408.974 0.82478 -0.0605555 0
M  V30 4439 H 411.52 1.4665 -0.853917 0
M  V30 4440 H 410.292 3.53647 -1.6748 0
M  V30 4441 H 409.915 3.97596 -0.0170516 0
M  V30 4442 N 410.912 0.523116 1.48665 0
M  V30 4443 C 411.842 -0.23231 2.32342 0
M  V30 4444 C 412.823 -0.941637 1.41659 0
M  V30 4445 O 414.008 -0.928751 1.70552 0
M  V30 4446 C 411.138 -1.28387 3.22698 0
M  V30 4447 C 410.092 -0.693098 4.22351 0
M  V30 4448 C 409.418 -1.8468 5.01794 0
M  V30 4449 C 410.718 0.33063 5.21252 0
M  V30 4450 H 412.412 0.466192 2.95748 0
M  V30 4451 H 409.958 0.225643 1.42221 0
M  V30 4452 H 411.911 -1.82024 3.80059 0
M  V30 4453 H 410.635 -2.01186 2.57278 0
M  V30 4454 H 409.294 -0.178299 3.66166 0
M  V30 4455 H 408.942 -2.56301 4.32804 0
M  V30 4456 H 408.642 -1.45747 5.69238 0
M  V30 4457 H 410.166 -2.38709 5.62006 0
M  V30 4458 H 411.58 -0.118407 5.73178 0
M  V30 4459 H 409.977 0.636974 5.9671 0
M  V30 4460 H 411.047 1.23883 4.68808 0
M  V30 4461 N 412.39 -1.55475 0.257931 0
M  V30 4462 C 413.667 -1.91155 -0.414629 0
M  V30 4463 C 414.047 -1.18008 -1.75035 0
M  V30 4464 O 413.395 -0.301193 -2.26506 0
M  V30 4465 C 413.605 -3.44283 -0.571859 0
M  V30 4466 C 414.953 -4.15744 -0.862678 0
M  V30 4467 O 415.977 -3.50083 -0.657314 0
M  V30 4468 O 414.836 -5.31909 -1.2544 0
M  V30 4469 H 411.93 -0.796016 -0.22425 0
M  V30 4470 H 414.476 -1.66976 0.302814 0
M  V30 4471 H 413.248 -3.89558 0.368844 0
M  V30 4472 H 412.871 -3.7436 -1.33943 0
M  V30 4473 N 413.868 0.0150385 -1.57593 0
M  V30 4474 C 415.093 0.718067 -1.94573 0
M  V30 4475 C 415.518 1.6734 -0.859005 0
M  V30 4476 O 414.876 1.80362 0.184147 0
M  V30 4477 C 414.924 1.43918 -3.30636 0
M  V30 4478 O 414.028 2.55299 -3.23876 0
M  V30 4479 H 413.369 0.192125 -0.635597 0
M  V30 4480 H 415.899 -0.0336708 -2.04572 0
M  V30 4481 H 415.909 1.80598 -3.65853 0
M  V30 4482 H 414.584 0.738619 -4.09289 0
M  V30 4483 H 413.161 2.21058 -3.00312 0
M  V30 4484 N 415.346 1.54954 0.287554 0
M  V30 4485 C 416.256 1.8991 1.37736 0
M  V30 4486 C 417.272 0.794701 1.54792 0
M  V30 4487 O 418.448 1.09243 1.69198 0
M  V30 4488 C 415.513 2.15108 2.71899 0
M  V30 4489 C 414.574 3.38752 2.63715 0
M  V30 4490 C 413.807 3.62739 3.91479 0
M  V30 4491 O 414.03 2.89492 4.91478 0
M  V30 4492 O 412.964 4.56267 3.92561 0
M  V30 4493 H 416.79 2.82652 1.11092 0
M  V30 4494 H 414.375 1.41315 0.484807 0
M  V30 4495 H 416.257 2.32806 3.51254 0
M  V30 4496 H 414.932 1.25551 2.9836 0
M  V30 4497 H 413.839 3.26405 1.82786 0
M  V30 4498 H 415.172 4.28483 2.42205 0
M  V30 4499 N 416.824 -0.551391 1.4764 0
M  V30 4500 C 418.052 -1.33357 1.58189 0
M  V30 4501 C 418.467 -1.87342 0.234199 0
M  V30 4502 O 417.824 -1.65301 -0.77343 0
M  V30 4503 C 417.875 -2.49942 2.61173 0
M  V30 4504 O 417.596 -1.98187 3.90709 0
M  V30 4505 C 419.097 -3.42072 2.8196 0
M  V30 4506 H 416.317 -0.40631 0.533998 0
M  V30 4507 H 418.861 -0.667367 1.93304 0
M  V30 4508 H 417.016 -3.12489 2.28975 0
M  V30 4509 H 417.43 -2.74342 4.47031 0
M  V30 4510 H 418.904 -4.20278 3.57869 0
M  V30 4511 H 419.381 -3.95978 1.89995 0
M  V30 4512 H 419.987 -2.85336 3.15378 0
M  V30 4513 N 418.302 -1.35869 -0.798587 0
M  V30 4514 C 419.718 -1.16082 -1.09532 0
M  V30 4515 C 419.918 0.0213124 -2.01489 0
M  V30 4516 O 418.974 0.689488 -2.42904 0
M  V30 4517 C 420.287 -2.46748 -1.7186 0
M  V30 4518 C 421.835 -2.53028 -1.84244 0
M  V30 4519 C 422.31 -3.83758 -2.49988 0
M  V30 4520 N 423.801 -3.85053 -2.57465 0
M  V30 4521 C 424.536 -4.8294 -3.09122 0
M  V30 4522 N 424.032 -5.91217 -3.61157 0
M  V30 4523 N 425.825 -4.70369 -3.0775 0
M  V30 4524 H 417.976 -2.11571 -0.187461 0
M  V30 4525 H 420.239 -0.936726 -0.145765 0
M  V30 4526 H 419.945 -3.33471 -1.11759 0
M  V30 4527 H 419.819 -2.61883 -2.71472 0
M  V30 4528 H 422.206 -1.66729 -2.43486 0
M  V30 4529 H 422.287 -2.418 -0.834643 0
M  V30 4530 H 421.931 -4.70459 -1.91393 0
M  V30 4531 H 421.861 -3.92278 -3.5132 0
M  V30 4532 H 424.352 -3.06822 -2.20609 0
M  V30 4533 H 424.665 -6.61892 -3.98896 0
M  V30 4534 H 423.01 -5.94899 -3.59333 0
M  V30 4535 H 426.201 -3.84914 -2.66381 0
M  V30 4536 H 426.374 -5.46816 -3.47701 0
M  V30 4537 N 419.78 1.02168 -1.19998 0
M  V30 4538 C 421.005 1.79833 -1.03319 0
M  V30 4539 C 421.43 1.83504 0.413281 0
M  V30 4540 O 420.788 1.26635 1.29743 0
M  V30 4541 C 420.836 3.22396 -1.61533 0
M  V30 4542 O 419.94 4.03555 -0.849519 0
M  V30 4543 H 419.281 0.554872 -0.364709 0
M  V30 4544 H 421.811 1.28542 -1.59179 0
M  V30 4545 H 421.821 3.73124 -1.65054 0
M  V30 4546 H 420.496 3.19039 -2.66809 0
M  V30 4547 H 419.073 3.62169 -0.888129 0
M  V30 4548 N 421.258 1.00505 1.21394 0
M  V30 4549 C 422.191 0.51032 2.22421 0
M  V30 4550 C 423.169 -0.436 1.56645 0
M  V30 4551 O 424.353 -0.358709 1.85055 0
M  V30 4552 C 421.48 -0.258733 3.3771 0
M  V30 4553 C 420.526 0.635395 4.2174 0
M  V30 4554 S 421.359 2.09783 4.92698 0
M  V30 4555 C 422.515 1.33862 6.11418 0
M  V30 4556 H 422.748 1.36637 2.64041 0
M  V30 4557 H 420.281 0.812991 1.31262 0
M  V30 4558 H 422.239 -0.696372 4.0455 0
M  V30 4559 H 420.9 -1.0902 2.94573 0
M  V30 4560 H 420.093 0.0430189 5.03982 0
M  V30 4561 H 419.695 1.01031 3.60095 0
M  V30 4562 H 421.987 0.612541 6.74725 0
M  V30 4563 H 422.93 2.13675 6.75092 0
M  V30 4564 H 423.338 0.846568 5.58116 0
M  V30 4565 N 422.737 -1.36956 0.779787 0
M  V30 4566 C 423.983 -1.99787 0.348281 0
M  V30 4567 C 424.316 -1.61756 -1.07465 0
M  V30 4568 O 423.591 -0.867639 -1.74075 0
M  V30 4569 C 423.874 -3.56597 0.50104 0
M  V30 4570 C 423.727 -4.04513 1.96697 0
M  V30 4571 C 425.046 -4.40008 -0.0898097 0
M  V30 4572 H 422.165 -0.725796 0.128022 0
M  V30 4573 H 424.807 -1.62514 0.984331 0
M  V30 4574 H 422.957 -3.88479 -0.0404347 0
M  V30 4575 H 424.629 -3.83161 2.56876 0
M  V30 4576 H 422.872 -3.56408 2.47297 0
M  V30 4577 H 423.543 -5.1352 2.02486 0
M  V30 4578 H 426.019 -4.14431 0.372293 0
M  V30 4579 H 424.895 -5.4888 0.0471605 0
M  V30 4580 H 425.156 -4.26035 -1.18096 0
M  V30 4581 N 424.215 -0.530993 -1.48385 0
M  V30 4582 C 425.125 0.23503 -2.3342 0
M  V30 4583 C 426.141 0.93801 -1.46552 0
M  V30 4584 O 427.317 0.912745 -1.7953 0
M  V30 4585 C 424.382 1.26778 -3.22689 0
M  V30 4586 C 423.443 0.575038 -4.25431 0
M  V30 4587 C 422.676 1.55858 -5.10435 0
M  V30 4588 O 422.899 2.79129 -4.97437 0
M  V30 4589 O 421.833 1.09742 -5.91811 0
M  V30 4590 H 425.659 -0.461794 -3.00169 0
M  V30 4591 H 423.244 -0.291903 -1.46521 0
M  V30 4592 H 425.126 1.86457 -3.77904 0
M  V30 4593 H 423.801 1.94699 -2.586 0
M  V30 4594 H 422.708 -0.0622782 -3.74048 0
M  V30 4595 H 424.041 -0.062253 -4.92161 0
M  V30 4596 N 425.693 1.55336 -0.266172 0
M  V30 4597 C 426.64 2.22172 0.625165 0
M  V30 4598 C 427.61 1.19211 1.15663 0
M  V30 4599 O 428.795 1.47723 1.20758 0
M  V30 4600 C 425.935 2.93972 1.8076 0
M  V30 4601 C 425.048 4.11632 1.31084 0
M  V30 4602 C 424.183 4.71099 2.45436 0
M  V30 4603 C 423.222 5.8097 1.92718 0
M  V30 4604 N 422.359 6.34538 3.00509 0
M  V30 4605 H 427.199 2.9796 0.0485582 0
M  V30 4606 H 424.736 1.47095 0.0122024 0
M  V30 4607 H 426.694 3.33811 2.50251 0
M  V30 4608 H 425.324 2.20623 2.35638 0
M  V30 4609 H 424.376 3.76975 0.509326 0
M  V30 4610 H 425.688 4.90893 0.884633 0
M  V30 4611 H 424.842 5.13612 3.22936 0
M  V30 4612 H 423.581 3.91096 2.91368 0
M  V30 4613 H 422.586 5.37916 1.13695 0
M  V30 4614 H 423.811 6.62836 1.47733 0
M  V30 4615 H 421.757 5.57433 3.45839 0
M  V30 4616 H 421.674 7.09046 2.62279 0
M  V30 4617 H 422.942 6.81709 3.78011 0
M  V30 4618 N 427.171 -0.0066808 1.57599 0
M  V30 4619 C 428.104 -1.03397 2.03431 0
M  V30 4620 C 429.082 -1.33872 0.922877 0
M  V30 4621 O 430.266 -1.4615 1.19048 0
M  V30 4622 C 427.393 -2.36325 2.42628 0
M  V30 4623 C 426.439 -2.21557 3.64438 0
M  V30 4624 S 427.272 -1.54789 5.12641 0
M  V30 4625 C 428.428 -2.8916 5.55101 0
M  V30 4626 H 428.661 -0.643687 2.90248 0
M  V30 4627 H 426.194 -0.217349 1.52863 0
M  V30 4628 H 428.152 -3.12759 2.65879 0
M  V30 4629 H 426.813 -2.72495 1.56222 0
M  V30 4630 H 426.006 -3.1974 3.89592 0
M  V30 4631 H 425.608 -1.53267 3.41153 0
M  V30 4632 H 427.9 -3.8547 5.57153 0
M  V30 4633 H 428.843 -2.68713 6.55133 0
M  V30 4634 H 429.251 -2.92762 4.82649 0
M  V30 4635 N 428.649 -1.55105 -0.279332 0
M  V30 4636 C 429.582 -1.82467 -1.37044 0
M  V30 4637 C 430.56 -0.677261 -1.47824 0
M  V30 4638 O 431.744 -0.919578 -1.64548 0
M  V30 4639 C 428.871 -1.98066 -2.7475 0
M  V30 4640 C 427.917 -3.20594 -2.81286 0
M  V30 4641 S 428.75 -4.78116 -2.41175 0
M  V30 4642 C 429.906 -4.9668 -3.80867 0
M  V30 4643 H 430.139 -2.74728 -1.1363 0
M  V30 4644 H 427.672 -1.46794 -0.478625 0
M  V30 4645 H 429.63 -2.07739 -3.54055 0
M  V30 4646 H 428.291 -1.06704 -2.9542 0
M  V30 4647 H 427.484 -3.28376 -3.82341 0
M  V30 4648 H 427.086 -3.09479 -2.09996 0
M  V30 4649 H 429.378 -4.82033 -4.76078 0
M  V30 4650 H 430.321 -5.98741 -3.78041 0
M  V30 4651 H 430.729 -4.24698 -3.71876 0
M  V30 4652 N 430.127 0.543554 -1.4793 0
M  V30 4653 C 431.357 1.32324 -1.58663 0
M  V30 4654 C 431.765 1.8766 -0.240896 0
M  V30 4655 O 431.108 1.66411 0.778011 0
M  V30 4656 C 431.17 2.52094 -2.56299 0
M  V30 4657 C 430.834 2.17944 -4.01683 0
M  V30 4658 C 431.831 1.74422 -4.89768 0
M  V30 4659 C 429.516 2.28884 -4.47121 0
M  V30 4660 C 431.51 1.42287 -6.21316 0
M  V30 4661 C 429.197 1.96361 -5.78693 0
M  V30 4662 C 430.195 1.53132 -6.65612 0
M  V30 4663 O 429.883 1.21029 -7.94737 0
M  V30 4664 H 429.615 0.409174 -0.538101 0
M  V30 4665 H 432.169 0.663887 -1.94375 0
M  V30 4666 H 430.399 3.20965 -2.15681 0
M  V30 4667 H 432.088 3.14165 -2.57012 0
M  V30 4668 H 432.854 1.65452 -4.55907 0
M  V30 4669 H 428.733 2.61488 -3.79664 0
M  V30 4670 H 432.277 1.08472 -6.89115 0
M  V30 4671 H 428.174 2.04967 -6.12094 0
M  V30 4672 H 428.942 1.34543 -8.07366 0
M  V30 4673 N 431.605 1.3629 0.791371 0
M  V30 4674 C 432.882 1.20962 1.53712 0
M  V30 4675 C 433.262 -0.205021 2.10102 0
M  V30 4676 O 432.61 -1.21042 1.93807 0
M  V30 4677 C 432.82 2.29002 2.63361 0
M  V30 4678 C 434.168 2.65572 3.31295 0
M  V30 4679 O 435.192 2.2803 2.73643 0
M  V30 4680 O 434.051 3.3018 4.35481 0
M  V30 4681 H 431.145 0.47086 0.679867 0
M  V30 4682 H 433.691 1.48016 0.830021 0
M  V30 4683 H 432.463 3.2382 2.19674 0
M  V30 4684 H 432.086 2.03303 3.41692 0
M  V30 4685 N 433.083 -1.0153 1.20538 0
M  V30 4686 C 434.015 -2.10224 0.913155 0
M  V30 4687 C 435.028 -1.62495 -0.0995998 0
M  V30 4688 O 436.217 -1.78014 0.131582 0
M  V30 4689 C 433.317 -3.37111 0.347717 0
M  V30 4690 C 432.49 -4.13971 1.41233 0
M  V30 4691 C 431.549 -5.19158 0.857976 0
M  V30 4692 O 430.575 -5.48 1.53897 0
M  V30 4693 N 431.777 -5.7955 -0.331966 0
M  V30 4694 H 434.542 -2.35879 1.84881 0
M  V30 4695 H 432.103 -1.17931 1.10923 0
M  V30 4696 H 434.095 -4.04683 -0.0373026 0
M  V30 4697 H 432.665 -3.08696 -0.492527 0
M  V30 4698 H 431.885 -3.41351 1.97163 0
M  V30 4699 H 433.173 -4.62103 2.12928 0
M  V30 4700 H 432.571 -5.58455 -0.902478 0
M  V30 4701 H 431.128 -6.48464 -0.65861 0
M  V30 4702 N 434.561 -1.01147 -1.20859 0
M  V30 4703 C 435.977 -0.725422 -1.42161 0
M  V30 4704 C 436.177 0.696919 -1.89064 0
M  V30 4705 O 435.233 1.46539 -2.05627 0
M  V30 4706 C 436.546 -1.74678 -2.44761 0
M  V30 4707 C 438.094 -1.76433 -2.58535 0
M  V30 4708 C 438.569 -2.77481 -3.64374 0
M  V30 4709 N 440.06 -2.76189 -3.71852 0
M  V30 4710 C 440.795 -3.51035 -4.53389 0
M  V30 4711 N 440.291 -4.35541 -5.38773 0
M  V30 4712 N 442.084 -3.39655 -4.47873 0
M  V30 4713 H 434.235 -1.92979 -0.887282 0
M  V30 4714 H 436.498 -0.833327 -0.451962 0
M  V30 4715 H 436.204 -2.76551 -2.17285 0
M  V30 4716 H 436.078 -1.55472 -3.43669 0
M  V30 4717 H 438.465 -0.75248 -2.85345 0
M  V30 4718 H 438.546 -1.99712 -1.5984 0
M  V30 4719 H 438.19 -3.78827 -3.38308 0
M  V30 4720 H 438.12 -2.51466 -4.6268 0
M  V30 4721 H 440.611 -2.14885 -3.10858 0
M  V30 4722 H 440.924 -4.89432 -5.98061 0
M  V30 4723 H 439.269 -4.39621 -5.38292 0
M  V30 4724 H 442.46 -2.73063 -3.80203 0
M  V30 4725 H 442.633 -3.9824 -5.11184 0
M  V30 4726 N 436.039 1.36541 -0.78704 0
M  V30 4727 C 436.971 2.28761 -0.141773 0
M  V30 4728 C 437.984 1.49365 0.647599 0
M  V30 4729 O 439.173 1.71836 0.483173 0
M  V30 4730 C 436.273 3.28771 0.822368 0
M  V30 4731 C 435.446 4.3732 0.0835594 0
M  V30 4732 C 434.505 5.17307 0.963296 0
M  V30 4733 O 433.531 5.67638 0.421419 0
M  V30 4734 N 434.733 5.33515 2.28784 0
M  V30 4735 H 437.498 2.84777 -0.933919 0
M  V30 4736 H 435.059 1.48682 -0.640735 0
M  V30 4737 H 437.051 3.79169 1.41468 0
M  V30 4738 H 435.621 2.73412 1.5154 0
M  V30 4739 H 434.841 3.88118 -0.689809 0
M  V30 4740 H 436.129 5.0701 -0.426358 0
M  V30 4741 H 435.527 4.94234 2.75226 0
M  V30 4742 H 434.084 5.87165 2.82985 0
M  V30 4743 N 437.518 0.538854 1.48102 0
M  V30 4744 C 438.465 -0.219042 2.29758 0
M  V30 4745 C 439.435 -0.925562 1.37922 0
M  V30 4746 O 440.62 -0.924855 1.66886 0
M  V30 4747 C 437.76 -1.25452 3.2149 0
M  V30 4748 C 436.873 -0.555943 4.28408 0
M  V30 4749 C 436.008 -1.57512 5.0731 0
M  V30 4750 C 435.047 -0.860498 6.06021 0
M  V30 4751 N 434.184 -1.82564 6.77949 0
M  V30 4752 H 439.024 0.483449 2.94052 0
M  V30 4753 H 436.561 0.250247 1.44956 0
M  V30 4754 H 438.519 -1.86727 3.7308 0
M  V30 4755 H 437.149 -1.92528 2.591 0
M  V30 4756 H 436.201 0.170938 3.80016 0
M  V30 4757 H 437.513 0.00474616 4.988 0
M  V30 4758 H 436.667 -2.26191 5.62959 0
M  V30 4759 H 435.406 -2.16972 4.36778 0
M  V30 4760 H 434.411 -0.159686 5.49568 0
M  V30 4761 H 435.636 -0.271897 6.78555 0
M  V30 4762 H 433.582 -2.40915 6.10161 0
M  V30 4763 H 433.499 -1.31662 7.44447 0
M  V30 4764 H 434.767 -2.50414 7.38182 0
M  V30 4765 N 438.996 -1.55193 0.274407 0
M  V30 4766 C 440.221 -2.04446 -0.348824 0
M  V30 4767 C 440.646 -1.15149 -1.48735 0
M  V30 4768 O 440.004 -0.149952 -1.80679 0
M  V30 4769 C 440.052 -3.51431 -0.808009 0
M  V30 4770 O 439.156 -3.65225 -1.91531 0
M  V30 4771 H 438.497 -0.66006 -0.0722276 0
M  V30 4772 H 441.027 -2.00481 0.408498 0
M  V30 4773 H 441.037 -3.92781 -1.10395 0
M  V30 4774 H 439.712 -4.15892 0.0249865 0
M  V30 4775 H 438.289 -3.35778 -1.62196 0
M  V30 4776 N 440.474 -0.00167713 -1.576 0
M  V30 4777 C 441.407 1.02317 -2.03977 0
M  V30 4778 C 442.385 1.33381 -0.929963 0
M  V30 4779 O 443.569 1.45517 -1.19822 0
M  V30 4780 C 440.696 2.35035 -2.43878 0
M  V30 4781 C 439.742 2.19621 -3.65607 0
M  V30 4782 S 440.575 1.52068 -5.13455 0
M  V30 4783 C 441.731 2.86212 -5.56627 0
M  V30 4784 H 441.964 0.628285 -2.90585 0
M  V30 4785 H 439.497 0.209239 -1.52976 0
M  V30 4786 H 441.455 3.11345 -2.67534 0
M  V30 4787 H 440.116 2.71663 -1.57665 0
M  V30 4788 H 439.309 3.1767 -3.91282 0
M  V30 4789 H 438.911 1.51455 -3.41961 0
M  V30 4790 H 441.203 3.82509 -5.59189 0
M  V30 4791 H 442.146 2.65235 -6.56549 0
M  V30 4792 H 442.554 2.90199 -4.84195 0
M  V30 4793 N 441.952 1.55251 0.271103 0
M  V30 4794 C 443.2 1.75599 1.00047 0
M  V30 4795 C 443.521 0.561188 1.8675 0
M  V30 4796 O 442.791 -0.423846 1.9126 0
M  V30 4797 H 441.371 0.647562 0.372387 0
M  V30 4798 H 444.033 1.92656 0.294876 0
M  V30 4799 H 443.129 2.65766 1.6363 0
M  V30 4800 N 443.43 -0.535701 1.48216 0
M  V30 4801 C 444.36 -1.65014 1.65204 0
M  V30 4802 C 445.341 -1.62554 0.501011 0
M  V30 4803 O 446.526 -1.7984 0.732886 0
M  V30 4804 C 443.656 -3.03616 1.68626 0
M  V30 4805 C 442.61 -3.20932 2.83172 0
M  V30 4806 C 441.936 -4.60537 2.71679 0
M  V30 4807 C 443.236 -3.04249 4.24535 0
M  V30 4808 H 444.93 -1.51053 2.58502 0
M  V30 4809 H 442.476 -0.725262 1.24402 0
M  V30 4810 H 444.429 -3.81446 1.79099 0
M  V30 4811 H 443.153 -3.18587 0.719026 0
M  V30 4812 H 441.812 -2.45517 2.72244 0
M  V30 4813 H 441.46 -4.72336 1.72937 0
M  V30 4814 H 441.16 -4.73069 3.48538 0
M  V30 4815 H 442.684 -5.40475 2.84112 0
M  V30 4816 H 444.098 -3.71877 4.36326 0
M  V30 4817 H 442.495 -3.28278 5.02348 0
M  V30 4818 H 443.565 -2.00739 4.41397 0
M  V30 4819 N 444.908 -1.36708 -0.784132 0
M  V30 4820 C 446.319 -1.27947 -1.35965 0
M  V30 4821 C 446.67 0.0784013 -1.96043 0
M  V30 4822 O 445.795 0.979989 -1.92938 0
M  V30 4823 C 446.39 -2.31689 -2.47195 0
M  V30 4824 C 444.949 -2.26601 -3.00548 0
M  V30 4825 C 444.096 -2.16184 -1.73666 0
M  V30 4826 H 447.047 -1.4751 -0.585358 0
M  V30 4827 H 447.068 -1.95638 -3.26352 0
M  V30 4828 H 446.58 -3.30506 -2.03439 0
M  V30 4829 H 444.681 -1.31268 -3.48711 0
M  V30 4830 H 444.794 -3.19508 -3.57004 0
M  V30 4831 H 443.158 -1.62524 -1.96107 0
M  V30 4832 H 443.941 -3.16896 -1.32031 0
M  V30 4833 N 446.386 1.0089 -1.21074 0
M  V30 4834 C 447.614 1.78191 -1.05145 0
M  V30 4835 C 448.029 1.84537 0.398952 0
M  V30 4836 O 447.386 1.30393 1.27687 0
M  V30 4837 C 447.437 3.22288 -1.63746 0
M  V30 4838 O 447.158 3.16315 -3.03111 0
M  V30 4839 C 448.659 4.16106 -1.52875 0
M  V30 4840 H 445.879 0.560129 -0.369454 0
M  V30 4841 H 448.423 1.26945 -1.60328 0
M  V30 4842 H 446.578 3.70655 -1.12664 0
M  V30 4843 H 446.992 4.06817 -3.31059 0
M  V30 4844 H 448.466 5.15026 -1.98626 0
M  V30 4845 H 448.943 4.36541 -0.482521 0
M  V30 4846 H 449.549 3.73625 -2.03185 0
M  V30 4847 N 447.864 1.01787 1.20321 0
M  V30 4848 C 449.089 0.727009 1.9424 0
M  V30 4849 C 449.514 -0.706179 1.74341 0
M  V30 4850 O 448.872 -1.48609 1.03852 0
M  V30 4851 C 448.92 1.06958 3.44372 0
M  V30 4852 O 448.024 0.181983 4.11998 0
M  V30 4853 H 447.365 0.269626 0.606793 0
M  V30 4854 H 449.895 1.36158 1.52716 0
M  V30 4855 H 449.905 1.02182 3.94997 0
M  V30 4856 H 448.58 2.11378 3.58179 0
M  V30 4857 H 447.157 0.287378 3.71791 0
M  V30 4858 N 449.342 -1.36122 0.79427 0
M  V30 4859 C 450.619 -1.93398 0.292685 0
M  V30 4860 C 450.999 -1.72567 -1.21589 0
M  V30 4861 O 450.347 -1.08745 -2.00965 0
M  V30 4862 C 450.557 -3.42099 0.690614 0
M  V30 4863 C 451.905 -4.19231 0.673105 0
M  V30 4864 O 452.929 -3.50559 0.631389 0
M  V30 4865 O 451.788 -5.41732 0.720362 0
M  V30 4866 H 448.882 -0.823712 0.0736693 0
M  V30 4867 H 451.428 -1.45273 0.87714 0
M  V30 4868 H 450.2 -3.50938 1.73085 0
M  V30 4869 H 449.823 -3.97519 0.0803036 0
M  V30 4870 N 450.82 -0.546701 -1.47814 0
M  V30 4871 C 451.73 0.21026 -2.33656 0
M  V30 4872 C 452.746 0.922413 -1.47538 0
M  V30 4873 O 453.922 0.893652 -1.80488 0
M  V30 4874 C 450.987 1.23348 -3.24016 0
M  V30 4875 C 450.048 0.529883 -4.26017 0
M  V30 4876 C 449.281 1.50435 -5.12059 0
M  V30 4877 O 449.504 2.73837 -5.00369 0
M  V30 4878 O 448.438 1.03459 -5.92942 0
M  V30 4879 H 452.264 -0.493605 -2.99662 0
M  V30 4880 H 449.849 -0.307427 -1.46203 0
M  V30 4881 H 451.731 1.82438 -3.79861 0
M  V30 4882 H 450.406 1.91945 -2.60651 0
M  V30 4883 H 449.313 -0.101948 -3.73961 0
M  V30 4884 H 450.646 -0.11445 -4.92067 0
M  V30 4885 N 452.299 1.55045 -0.282633 0
M  V30 4886 C 453.231 2.2023 0.634924 0
M  V30 4887 C 454.244 1.18931 1.11172 0
M  V30 4888 O 455.433 1.4562 1.03233 0
M  V30 4889 C 452.533 2.82041 1.87899 0
M  V30 4890 C 451.706 4.091 1.54776 0
M  V30 4891 C 450.765 4.54887 2.64507 0
M  V30 4892 O 449.791 5.20496 2.30375 0
M  V30 4893 N 450.993 4.25659 3.94709 0
M  V30 4894 H 453.758 2.99601 0.0769811 0
M  V30 4895 H 451.319 1.61565 -0.104048 0
M  V30 4896 H 453.311 3.09613 2.60619 0
M  V30 4897 H 451.881 2.06618 2.3458 0
M  V30 4898 H 451.101 3.88736 0.654049 0
M  V30 4899 H 452.389 4.9187 1.30158 0
M  V30 4900 H 451.787 3.7306 4.25256 0
M  V30 4901 H 450.344 4.57984 4.63782 0
M  V30 4902 N 453.777 0.010035 1.57597 0
M  V30 4903 C 454.724 -0.978122 2.09049 0
M  V30 4904 C 455.694 -1.33509 0.988159 0
M  V30 4905 O 456.879 -1.43172 1.26121 0
M  V30 4906 C 454.019 -2.26158 2.60666 0
M  V30 4907 C 453.132 -1.96275 3.84838 0
M  V30 4908 C 452.267 -3.18776 4.24918 0
M  V30 4909 C 451.306 -2.84625 5.41899 0
M  V30 4910 N 450.443 -3.99693 5.77226 0
M  V30 4911 H 455.283 -0.532431 2.93205 0
M  V30 4912 H 452.82 -0.251234 1.44939 0
M  V30 4913 H 454.778 -3.01202 2.88675 0
M  V30 4914 H 453.408 -2.68378 1.79369 0
M  V30 4915 H 452.46 -1.11555 3.63675 0
M  V30 4916 H 453.772 -1.67111 4.69974 0
M  V30 4917 H 452.926 -4.02157 4.54262 0
M  V30 4918 H 451.665 -3.51087 3.38511 0
M  V30 4919 H 450.67 -1.99653 5.12268 0
M  V30 4920 H 451.895 -2.53551 6.29991 0
M  V30 4921 H 449.841 -4.31882 4.93776 0
M  V30 4922 H 449.758 -3.74087 6.56959 0
M  V30 4923 H 451.026 -4.83834 6.11167 0
M  V30 4924 N 455.255 -1.55392 -0.262866 0
M  V30 4925 C 456.202 -1.88966 -1.32516 0
M  V30 4926 C 457.172 -0.742187 -1.48596 0
M  V30 4927 O 458.357 -0.99439 -1.62839 0
M  V30 4928 C 455.497 -2.17592 -2.67858 0
M  V30 4929 C 454.61 -3.45061 -2.59917 0
M  V30 4930 C 453.745 -3.63336 -3.87505 0
M  V30 4931 C 452.784 -4.84462 -3.74116 0
M  V30 4932 N 451.921 -4.99342 -4.93561 0
M  V30 4933 H 456.761 -2.79566 -1.03184 0
M  V30 4934 H 454.298 -1.38404 -0.498285 0
M  V30 4935 H 456.256 -2.3219 -3.46617 0
M  V30 4936 H 454.886 -1.30215 -2.95371 0
M  V30 4937 H 453.938 -3.38881 -1.72812 0
M  V30 4938 H 455.25 -4.3396 -2.45926 0
M  V30 4939 H 454.404 -3.77807 -4.74707 0
M  V30 4940 H 453.143 -2.72641 -4.04374 0
M  V30 4941 H 452.148 -4.69985 -2.85297 0
M  V30 4942 H 453.373 -5.76603 -3.58757 0
M  V30 4943 H 451.319 -4.1158 -5.10821 0
M  V30 4944 H 451.236 -5.82303 -4.82141 0
M  V30 4945 H 452.504 -5.18208 -5.82306 0
M  V30 4946 N 456.733 0.527833 -1.48498 0
M  V30 4947 C 457.665 1.6482 -1.5927 0
M  V30 4948 C 458.678 1.55659 -0.476869 0
M  V30 4949 O 459.867 1.62081 -0.747806 0
M  V30 4950 C 456.967 3.0348 -1.50842 0
M  V30 4951 C 456.14 3.381 -2.77502 0
M  V30 4952 C 455.199 4.5605 -2.62497 0
M  V30 4953 O 454.225 4.59165 -3.36387 0
M  V30 4954 N 455.427 5.54353 -1.72257 0
M  V30 4955 H 458.192 1.56015 -2.55889 0
M  V30 4956 H 455.753 0.715152 -1.45249 0
M  V30 4957 H 457.745 3.80264 -1.38496 0
M  V30 4958 H 456.315 3.06352 -0.621887 0
M  V30 4959 H 455.535 2.50473 -3.04396 0
M  V30 4960 H 456.823 3.58017 -3.61527 0
M  V30 4961 H 456.221 5.54617 -1.11431 0
M  V30 4962 H 454.778 6.30347 -1.65849 0
M  V30 4963 N 458.211 1.37122 0.776871 0
M  V30 4964 C 459.121 1.34651 1.9211 0
M  V30 4965 C 460.137 0.246824 1.7224 0
M  V30 4966 O 461.313 0.48134 1.95563 0
M  V30 4967 C 458.378 1.14748 3.2716 0
M  V30 4968 C 457.439 2.34308 3.5972 0
M  V30 4969 C 456.672 2.15345 4.88326 0
M  V30 4970 O 456.895 1.13507 5.58992 0
M  V30 4971 O 455.829 3.03414 5.1983 0
M  V30 4972 H 459.655 2.31013 1.97146 0
M  V30 4973 H 457.24 1.17799 0.918901 0
M  V30 4974 H 459.122 1.05616 4.0795 0
M  V30 4975 H 457.797 0.214562 3.22988 0
M  V30 4976 H 456.704 2.49011 2.79185 0
M  V30 4977 H 458.037 3.26149 3.68629 0
M  V30 4978 N 459.689 -1.00246 1.21608 0
M  V30 4979 C 460.938 -1.73476 1.02902 0
M  V30 4980 C 461.251 -1.90643 -0.437561 0
M  V30 4981 O 462.457 -2.61105 -0.74407 0
M  V30 4982 C 460.913 -3.12079 1.79261 0
M  V30 4983 C 460.521 -3.02877 3.30106 0
M  V30 4984 C 462.265 -3.89421 1.68972 0
M  V30 4985 C 460.172 -4.36575 3.98944 0
M  V30 4986 H 459.102 -0.650408 0.381425 0
M  V30 4987 H 461.753 -1.11985 1.45367 0
M  V30 4988 H 460.135 -3.74196 1.2959 0
M  V30 4989 H 461.309 -2.49983 3.87098 0
M  V30 4990 H 459.624 -2.39022 3.40965 0
M  V30 4991 H 462.221 -4.88362 2.17731 0
M  V30 4992 H 462.564 -4.1122 0.648397 0
M  V30 4993 H 463.097 -3.33963 2.16133 0
M  V30 4994 H 459.836 -4.19978 5.03288 0
M  V30 4995 H 459.356 -4.8942 3.4674 0
M  V30 4996 H 461.035 -5.05364 4.04 0
M  V30 4997 N 461.167 -1.02423 -1.1978 0
M  V30 4998 C 462.097 -0.62157 -2.25075 0
M  V30 4999 C 463.078 0.367148 -1.6609 0
M  V30 5000 O 464.263 0.250892 -1.92573 0
M  V30 5001 C 461.393 0.0331826 -3.47284 0
M  V30 5002 C 460.347 -0.877323 -4.18912 0
M  V30 5003 C 459.673 -0.0879296 -5.34628 0
M  V30 5004 C 460.973 -2.18892 -4.74219 0
M  V30 5005 H 462.667 -1.50179 -2.59011 0
M  V30 5006 H 460.213 -0.723547 -1.24502 0
M  V30 5007 H 462.166 0.326488 -4.20133 0
M  V30 5008 H 460.89 0.948164 -3.12534 0
M  V30 5009 H 459.549 -1.15475 -3.47938 0
M  V30 5010 H 459.197 0.828941 -4.96123 0
M  V30 5011 H 458.897 -0.694359 -5.83483 0
M  V30 5012 H 460.421 0.198743 -6.10276 0
M  V30 5013 H 461.835 -1.95746 -5.38847 0
M  V30 5014 H 460.232 -2.74686 -5.33542 0
M  V30 5015 H 461.302 -2.84674 -3.92541 0
M  V30 5016 N 462.645 1.35699 -0.801477 0
M  V30 5017 C 463.592 2.29876 -0.206294 0
M  V30 5018 C 464.562 1.52565 0.656752 0
M  V30 5019 O 465.747 1.81024 0.602906 0
M  V30 5020 C 462.887 3.39052 0.643272 0
M  V30 5021 C 462 4.31335 -0.239644 0
M  V30 5022 C 461.135 5.27599 0.61744 0
M  V30 5023 C 460.174 6.11521 -0.26619 0
M  V30 5024 N 459.311 6.99938 0.550571 0
M  V30 5025 H 464.151 2.80187 -1.01484 0
M  V30 5026 H 461.688 1.37902 -0.511997 0
M  V30 5027 H 463.646 4.0101 1.15094 0
M  V30 5028 H 462.276 2.9003 1.41713 0
M  V30 5029 H 461.328 3.70426 -0.865381 0
M  V30 5030 H 462.64 4.90243 -0.919985 0
M  V30 5031 H 461.794 5.94906 1.19045 0
M  V30 5032 H 460.533 4.69176 1.33137 0
M  V30 5033 H 459.538 5.43166 -0.851507 0
M  V30 5034 H 460.763 6.72022 -0.9779 0
M  V30 5035 H 458.709 6.44008 1.24856 0
M  V30 5036 H 458.626 7.55966 -0.071832 0
M  V30 5037 H 459.894 7.71599 1.10702 0
M  V30 5038 N 464.123 0.554532 1.47522 0
M  V30 5039 C 465.07 -0.19466 2.29978 0
M  V30 5040 C 466.04 -0.910882 1.38896 0
M  V30 5041 O 467.225 -0.907102 1.67858 0
M  V30 5042 C 464.365 -1.22035 3.22802 0
M  V30 5043 C 463.478 -0.510474 4.28973 0
M  V30 5044 C 462.613 -1.52123 5.08952 0
M  V30 5045 C 461.652 -0.796173 6.069 0
M  V30 5046 N 460.789 -1.75363 6.79847 0
M  V30 5047 H 465.629 0.51461 2.93523 0
M  V30 5048 H 463.166 0.265607 1.44682 0
M  V30 5049 H 465.124 -1.8276 3.7504 0
M  V30 5050 H 463.754 -1.89769 2.61127 0
M  V30 5051 H 462.806 0.211234 3.79813 0
M  V30 5052 H 464.118 0.0576503 4.98767 0
M  V30 5053 H 463.272 -2.20207 5.65326 0
M  V30 5054 H 462.011 -2.12327 4.39054 0
M  V30 5055 H 461.016 -0.101388 5.49707 0
M  V30 5056 H 462.241 -0.199911 6.78806 0
M  V30 5057 H 460.187 -2.3443 6.12682 0
M  V30 5058 H 460.104 -1.23759 7.45801 0
M  V30 5059 H 461.372 -2.4257 7.40797 0
M  V30 5060 N 465.601 -1.54893 0.290851 0
M  V30 5061 C 466.848 -1.99933 -0.321391 0
M  V30 5062 C 467.176 -1.17927 -1.54672 0
M  V30 5063 O 466.431 -0.240902 -1.94212 0
M  V30 5064 C 466.73 -3.49815 -0.732397 0
M  V30 5065 C 466.396 -4.4921 0.390056 0
M  V30 5066 C 465.058 -4.76107 0.698223 0
M  V30 5067 C 467.41 -5.08453 1.14562 0
M  V30 5068 C 464.738 -5.59514 1.76526 0
M  V30 5069 C 467.09 -5.9302 2.2025 0
M  V30 5070 C 465.754 -6.18232 2.51684 0
M  V30 5071 H 465.024 -0.731608 -0.117605 0
M  V30 5072 H 467.671 -1.87107 0.407839 0
M  V30 5073 H 465.976 -3.60199 -1.54155 0
M  V30 5074 H 467.673 -3.82083 -1.21712 0
M  V30 5075 H 464.263 -4.28372 0.13976 0
M  V30 5076 H 468.447 -4.87683 0.920801 0
M  V30 5077 H 463.703 -5.77289 2.01364 0
M  V30 5078 H 467.877 -6.37955 2.7926 0
M  V30 5079 H 465.504 -6.82653 3.34499 0
M  V30 5080 N 467.08 -0.0183926 -1.57589 0
M  V30 5081 C 468.013 1.00148 -2.0505 0
M  V30 5082 C 468.991 1.32387 -0.944058 0
M  V30 5083 O 470.175 1.44237 -1.21358 0
M  V30 5084 C 467.302 2.32435 -2.46357 0
M  V30 5085 C 466.348 2.15731 -3.67916 0
M  V30 5086 S 467.181 1.46613 -5.15039 0
M  V30 5087 C 468.337 2.80293 -5.59631 0
M  V30 5088 H 468.57 0.597429 -2.91235 0
M  V30 5089 H 466.103 0.193002 -1.53189 0
M  V30 5090 H 468.061 3.0849 -2.70822 0
M  V30 5091 H 466.722 2.69975 -1.60537 0
M  V30 5092 H 465.915 3.13502 -3.9463 0
M  V30 5093 H 465.517 1.4782 -3.43548 0
M  V30 5094 H 467.809 3.76557 -5.63215 0
M  V30 5095 H 468.752 2.58256 -6.59325 0
M  V30 5096 H 469.16 2.85047 -4.87246 0
M  V30 5097 N 468.558 1.5553 0.254621 0
M  V30 5098 C 469.835 1.6774 1.00611 0
M  V30 5099 C 470.215 0.555993 2.03647 0
M  V30 5100 O 469.563 -0.441583 2.24193 0
M  V30 5101 C 469.773 3.07725 1.6464 0
M  V30 5102 C 471.121 3.66074 2.15116 0
M  V30 5103 O 472.145 3.10476 1.74595 0
M  V30 5104 O 471.004 4.63526 2.89493 0
M  V30 5105 H 468.098 0.681958 0.467828 0
M  V30 5106 H 470.644 1.67863 0.24902 0
M  V30 5107 H 469.416 3.80792 0.900734 0
M  V30 5108 H 469.039 3.1158 2.46989 0
M  V30 5109 N 470.036 -0.519951 1.48776 0
M  V30 5110 C 470.968 -1.63973 1.60142 0
M  V30 5111 C 471.981 -1.55404 0.485117 0
M  V30 5112 O 473.17 -1.61682 0.756391 0
M  V30 5113 C 470.27 -3.02676 1.52449 0
M  V30 5114 C 469.443 -3.36624 2.79291 0
M  V30 5115 C 468.502 -4.54652 2.64912 0
M  V30 5116 O 467.528 -4.57374 3.38818 0
M  V30 5117 N 468.73 -5.53432 1.75195 0
M  V30 5118 H 471.495 -1.54656 2.56713 0
M  V30 5119 H 469.056 -0.707439 1.45626 0
M  V30 5120 H 471.048 -3.79525 1.4051 0
M  V30 5121 H 469.618 -3.06018 0.638125 0
M  V30 5122 H 468.838 -2.48855 3.0572 0
M  V30 5123 H 470.126 -3.56094 3.6342 0
M  V30 5124 H 469.524 -5.54018 1.14371 0
M  V30 5125 H 468.081 -6.29459 1.69189 0
M  V30 5126 N 471.514 -1.37532 -0.769588 0
M  V30 5127 C 472.464 -1.29984 -1.87318 0
M  V30 5128 C 473.448 -0.187242 -1.59807 0
M  V30 5129 O 474.64 -0.421827 -1.719 0
M  V30 5130 C 471.769 -1.11126 -3.24817 0
M  V30 5131 C 470.855 -2.26939 -3.58273 0
M  V30 5132 N 471.246 -3.52336 -3.62895 0
M  V30 5133 C 469.544 -2.19141 -3.8845 0
M  V30 5134 C 470.245 -4.28719 -3.9316 0
M  V30 5135 N 469.221 -3.57884 -4.0917 0
M  V30 5136 H 473.023 -2.24946 -1.89147 0
M  V30 5137 H 470.537 -1.30535 -0.966143 0
M  V30 5138 H 472.534 -1.03803 -4.0377 0
M  V30 5139 H 471.194 -0.17083 -3.2425 0
M  V30 5140 H 472.205 -3.86216 -3.45048 0
M  V30 5141 H 468.882 -1.33167 -3.95693 0
M  V30 5142 H 470.272 -5.37254 -4.03494 0
M  V30 5143 N 472.992 0.995999 -1.22138 0
M  V30 5144 C 474.403 1.54961 -1.04135 0
M  V30 5145 C 474.754 1.92159 0.396147 0
M  V30 5146 O 473.879 1.74435 1.28069 0
M  V30 5147 C 474.474 2.81581 -1.88408 0
M  V30 5148 C 473.033 3.33396 -1.74712 0
M  V30 5149 C 472.18 2.06509 -1.85066 0
M  V30 5150 H 475.131 0.817436 -1.36028 0
M  V30 5151 H 475.152 3.53822 -1.39966 0
M  V30 5152 H 474.664 2.54476 -2.93025 0
M  V30 5153 H 472.765 3.65416 -0.728159 0
M  V30 5154 H 472.878 4.04208 -2.57202 0
M  V30 5155 H 471.242 2.19925 -1.28472 0
M  V30 5156 H 472.025 1.81804 -2.91208 0
M  V30 5157 N 474.47 1.03057 1.19235 0
M  V30 5158 C 475.38 0.622922 2.26179 0
M  V30 5159 C 476.396 -0.346113 1.70523 0
M  V30 5160 O 477.572 -0.203572 2.00369 0
M  V30 5161 C 474.637 -0.0182063 3.46695 0
M  V30 5162 C 473.698 0.998546 4.17526 0
M  V30 5163 C 472.931 0.387917 5.32288 0
M  V30 5164 O 473.154 -0.808668 5.64639 0
M  V30 5165 O 472.088 1.1116 5.91546 0
M  V30 5166 H 475.914 1.51363 2.63292 0
M  V30 5167 H 473.499 0.800856 1.26122 0
M  V30 5168 H 475.381 -0.375606 4.19723 0
M  V30 5169 H 474.056 -0.882895 3.11427 0
M  V30 5170 H 472.963 1.40756 3.4661 0
M  V30 5171 H 474.296 1.83366 4.56769 0
M  V30 5172 N 475.948 -1.35272 0.808662 0
M  V30 5173 C 476.881 -2.27595 0.165994 0
M  V30 5174 C 477.859 -1.48189 -0.669241 0
M  V30 5175 O 479.043 -1.77444 -0.636073 0
M  V30 5176 C 476.17 -3.29843 -0.769505 0
M  V30 5177 C 475.216 -4.26498 -0.0136267 0
M  V30 5178 S 476.049 -5.18878 1.32384 0
M  V30 5179 C 477.205 -6.24666 0.392838 0
M  V30 5180 H 477.438 -2.81755 0.948756 0
M  V30 5181 H 474.971 -1.42103 0.603828 0
M  V30 5182 H 476.929 -3.89247 -1.30374 0
M  V30 5183 H 475.59 -2.74558 -1.52567 0
M  V30 5184 H 474.783 -4.98769 -0.724227 0
M  V30 5185 H 474.385 -3.71274 0.450713 0
M  V30 5186 H 476.677 -6.7619 -0.4211 0
M  V30 5187 H 477.62 -6.99741 1.0848 0
M  V30 5188 H 478.028 -5.64499 -0.0123908 0
M  V30 5189 N 477.426 -0.562348 -1.47226 0
M  V30 5190 C 478.703 0.0256985 -1.95583 0
M  V30 5191 C 479.083 1.48032 -1.50498 0
M  V30 5192 O 478.431 2.15973 -0.746181 0
M  V30 5193 C 478.641 -0.125129 -3.48776 0
M  V30 5194 C 479.989 0.0175728 -4.24596 0
M  V30 5195 O 481.013 -0.0529341 -3.56161 0
M  V30 5196 O 479.872 0.170145 -5.46235 0
M  V30 5197 H 476.966 0.0612565 -0.824728 0
M  V30 5198 H 479.512 -0.629233 -1.57603 0
M  V30 5199 H 478.284 -1.13715 -3.74412 0
M  V30 5200 H 477.907 0.567178 -3.93534 0
M  V30 5201 N 478.904 1.54736 -0.299062 0
M  V30 5202 C 480.151 2.00101 0.310784 0
M  V30 5203 C 480.479 1.18746 1.54045 0
M  V30 5204 O 479.734 0.251198 1.94081 0
M  V30 5205 C 480.033 3.50199 0.713835 0
M  V30 5206 C 479.699 4.48997 -0.413873 0
M  V30 5207 C 478.361 4.7573 -0.723462 0
M  V30 5208 C 480.713 5.07839 -1.17257 0
M  V30 5209 C 478.041 5.5857 -1.79491 0
M  V30 5210 C 480.393 5.91844 -2.23392 0
M  V30 5211 C 479.057 6.16889 -2.54959 0
M  V30 5212 H 478.327 0.732221 0.113724 0
M  V30 5213 H 480.974 1.86888 -0.417756 0
M  V30 5214 H 479.279 3.61012 1.52243 0
M  V30 5215 H 480.976 3.82723 1.19684 0
M  V30 5216 H 477.566 4.28292 -0.162476 0
M  V30 5217 H 481.75 4.87188 -0.946651 0
M  V30 5218 H 477.006 5.76213 -2.04423 0
M  V30 5219 H 481.18 6.36465 -2.8264 0
M  V30 5220 H 478.807 6.80869 -3.38114 0
M  V30 5221 N 480.382 0.0267497 1.57577 0
M  V30 5222 C 481.607 -0.666227 1.96408 0
M  V30 5223 C 482.032 -1.65004 0.903071 0
M  V30 5224 O 481.39 -1.80787 -0.136263 0
M  V30 5225 C 481.438 -1.35101 3.34335 0
M  V30 5226 O 480.542 -2.46623 3.30531 0
M  V30 5227 H 479.883 -0.175206 0.640468 0
M  V30 5228 H 482.413 0.0878977 2.04411 0
M  V30 5229 H 482.423 -1.70834 3.70513 0
M  V30 5230 H 481.098 -0.629844 4.11103 0
M  V30 5231 H 479.675 -2.13019 3.06068 0
M  V30 5232 N 481.861 -1.55662 -0.24637 0
M  V30 5233 C 482.808 -1.90361 -1.30504 0
M  V30 5234 C 483.778 -0.757905 -1.47801 0
M  V30 5235 O 484.963 -1.01161 -1.61775 0
M  V30 5236 C 482.103 -2.2042 -2.65535 0
M  V30 5237 C 481.216 -3.47799 -2.56242 0
M  V30 5238 C 480.351 -3.67426 -3.8363 0
M  V30 5239 C 479.39 -4.88403 -3.68956 0
M  V30 5240 N 478.527 -5.04548 -4.88237 0
M  V30 5241 H 483.367 -2.80645 -1.00213 0
M  V30 5242 H 480.904 -1.38924 -0.483577 0
M  V30 5243 H 482.862 -2.35853 -3.44135 0
M  V30 5244 H 481.492 -1.3334 -2.93973 0
M  V30 5245 H 480.544 -3.40694 -1.69208 0
M  V30 5246 H 481.856 -4.36544 -2.4131 0
M  V30 5247 H 481.01 -3.82821 -4.70673 0
M  V30 5248 H 479.749 -2.76914 -4.01459 0
M  V30 5249 H 478.754 -4.72984 -2.80296 0
M  V30 5250 H 479.979 -5.80375 -3.52621 0
M  V30 5251 H 477.925 -4.16974 -5.06427 0
M  V30 5252 H 477.842 -5.87384 -4.75937 0
M  V30 5253 H 479.11 -5.24355 -5.76777 0
M  V30 5254 N 483.339 0.512053 -1.4905 0
M  V30 5255 C 484.302 1.59704 -1.64399 0
M  V30 5256 C 485.302 1.52285 -0.516317 0
M  V30 5257 O 486.492 1.55635 -0.782527 0
M  V30 5258 C 483.624 2.9935 -1.63102 0
M  V30 5259 H 484.817 1.47428 -2.61161 0
M  V30 5260 H 482.37 0.735469 -1.37915 0
M  V30 5261 H 483.105 3.17116 -0.678836 0
M  V30 5262 H 482.89 3.06144 -2.44986 0
M  V30 5263 H 484.38 3.782 -1.77072 0
M  V30 5264 N 484.817 1.37938 0.762283 0
M  V30 5265 C 485.764 1.34467 1.87583 0
M  V30 5266 C 486.734 0.208633 1.64785 0
M  V30 5267 O 487.919 0.399494 1.86571 0
M  V30 5268 C 485.059 1.16692 3.24772 0
M  V30 5269 C 484.172 2.39608 3.59461 0
M  V30 5270 C 483.307 2.14631 4.85908 0
M  V30 5271 C 482.346 3.33364 5.13357 0
M  V30 5272 N 481.483 3.07877 6.30996 0
M  V30 5273 H 486.323 2.29669 1.89885 0
M  V30 5274 H 483.86 1.14116 0.928219 0
M  V30 5275 H 485.818 1.04405 4.03925 0
M  V30 5276 H 484.448 0.251333 3.2182 0
M  V30 5277 H 483.5 2.626 2.75219 0
M  V30 5278 H 484.812 3.28128 3.75678 0
M  V30 5279 H 483.966 1.99429 5.72986 0
M  V30 5280 H 482.705 1.23463 4.71814 0
M  V30 5281 H 481.71 3.49094 4.24751 0
M  V30 5282 H 482.935 4.25395 5.29354 0
M  V30 5283 H 480.881 2.19348 6.18241 0
M  V30 5284 H 480.798 3.89944 6.47673 0
M  V30 5285 H 482.066 2.96313 7.20985 0
M  V30 5286 N 486.295 -0.989507 1.22664 0
M  V30 5287 C 487.542 -1.72953 1.05325 0
M  V30 5288 C 487.87 -1.90104 -0.411168 0
M  V30 5289 O 487.125 -1.44386 -1.32103 0
M  V30 5290 C 487.424 -3.13649 1.71345 0
M  V30 5291 C 487.09 -3.16403 3.21248 0
M  V30 5292 C 485.752 -3.16862 3.62149 0
M  V30 5293 C 488.104 -3.12428 4.17179 0
M  V30 5294 C 485.432 -3.11051 4.97458 0
M  V30 5295 C 487.784 -3.08159 5.52468 0
M  V30 5296 C 486.448 -3.06935 5.92746 0
M  V30 5297 H 485.718 -0.632881 0.385412 0
M  V30 5298 H 488.365 -1.15863 1.52473 0
M  V30 5299 H 486.67 -3.74069 1.16532 0
M  V30 5300 H 488.367 -3.69658 1.55416 0
M  V30 5301 H 484.957 -3.16798 2.88682 0
M  V30 5302 H 489.141 -3.11221 3.86595 0
M  V30 5303 H 484.397 -3.0845 5.27891 0
M  V30 5304 H 488.571 -3.04039 6.26525 0
M  V30 5305 H 486.198 -3.02186 6.97558 0
M  V30 5306 N 487.773 -1.03688 -1.18687 0
M  V30 5307 C 488.721 -0.618292 -2.24232 0
M  V30 5308 C 489.715 0.353045 -1.6568 0
M  V30 5309 O 490.921 0.220749 -1.78641 0
M  V30 5310 H 487.296 -0.181711 -0.729716 0
M  V30 5311 H 489.267 -1.51893 -2.56848 0
M  V30 5312 C 488.016 0.00677342 -3.47699 0
M  V30 5313 H 487.339 -0.731692 -3.93047 0
M  V30 5314 H 488.779 0.262492 -4.23187 0
M  V30 5315 C 487.238 1.25572 -3.12623 0
M  V30 5316 O 487.768 2.34691 -3.26011 0
M  V30 5317 N 485.974 1.14755 -2.66982 0
M  V30 5318 H 485.521 0.259601 -2.56289 0
M  V30 5319 H 485.479 1.98412 -2.43885 0
M  V30 5320 O 489.29 1.30511 -0.951271 0
M  V30 5321 H 489.981 1.84711 -0.583235 0
M  V30 END ATOM
M  V30 BEGIN BOND
M  V30 END BOND
M  V30 END CTAB
M  END
$$$$
