drugbank_target|Q9Y463 Dual specificity tyrosine-phosphorylation-regulated kinase 1B (DB12010)
 OpenBabel12092121153D

  0  0  0     0  0            999 V3000
M  V30 BEGIN CTAB
M  V30 COUNTS 9725 9859 0 0 0
M  V30 BEGIN ATOM
M  V30 1 H -0.908 1.98254 -0.117106 0
M  V30 2 N 0 1.576 0 0
M  V30 3 C 0.933 2.03868 1.02534 0
M  V30 4 C 1.911 0.928543 1.3348 0
M  V30 5 O 3.095 1.19667 1.45644 0
M  V30 6 C 0.222 2.43627 2.35294 0
M  V30 7 C -0.732 3.65373 2.2001 0
M  V30 8 S 0.101 5.13292 1.52614 0
M  V30 9 C 1.257 5.56322 2.86805 0
M  V30 10 H 1.49 2.90518 0.631377 0
M  V30 11 H -0.977 1.52953 0.210867 0
M  V30 12 H 0.981 2.67203 3.11629 0
M  V30 13 H -0.358 1.57376 2.7183 0
M  V30 14 H -1.165 3.90944 3.18086 0
M  V30 15 H -1.563 3.418 1.51819 0
M  V30 16 H 0.729 5.58782 3.83104 0
M  V30 17 H 1.672 6.56266 2.65933 0
M  V30 18 H 2.08 4.83886 2.90714 0
M  V30 19 N 1.4781 -0.272755 1.55222 0
M  V30 20 C 2.4411 -1.32041 1.87344 0
M  V30 21 C 3.4411 -1.42342 0.74803 0
M  V30 22 O 4.6311 -1.41488 1.0162 0
M  V30 23 C 1.7631 -2.70173 2.07893 0
M  V30 24 H 2.9561 -1.04789 2.80997 0
M  V30 25 H 0.5091 -0.51083 1.47717 0
M  V30 26 H 1.2441 -3.02605 1.16622 0
M  V30 27 H 1.0291 -2.64082 2.89833 0
M  V30 28 H 2.5191 -3.45869 2.34017 0
M  V30 29 N 2.9562 -1.48159 -0.537278 0
M  V30 30 C 4.2022 -1.56035 -1.29541 0
M  V30 31 C 4.5352 -0.230377 -1.92829 0
M  V30 32 O 3.8102 0.762952 -1.78911 0
M  V30 33 C 4.0932 -2.69323 -2.39034 0
M  V30 34 C 3.9462 -4.12002 -1.80485 0
M  V30 35 C 5.2652 -2.78408 -3.40847 0
M  V30 36 H 2.3842 -0.567992 -0.469632 0
M  V30 37 H 5.0262 -1.80302 -0.599277 0
M  V30 38 H 3.1762 -2.48763 -2.98412 0
M  V30 39 H 4.8482 -4.43981 -1.25215 0
M  V30 40 H 3.0912 -4.19344 -1.11055 0
M  V30 41 H 3.7622 -4.87077 -2.59731 0
M  V30 42 H 6.2382 -2.97012 -2.91416 0
M  V30 43 H 5.1142 -3.59416 -4.14863 0
M  V30 44 H 5.3752 -1.86269 -4.00944 0
M  V30 45 N 4.4343 0.785586 -1.36625 0
M  V30 46 C 5.8453 1.36101 -1.27803 0
M  V30 47 C 6.1963 1.96035 0.0804875 0
M  V30 48 O 5.3213 1.92834 0.982042 0
M  V30 49 C 5.9163 2.47442 -2.31426 0
M  V30 50 C 4.4753 3.00789 -2.26281 0
M  V30 51 C 3.6223 1.73896 -2.15999 0
M  V30 52 H 6.5733 0.586928 -1.47448 0
M  V30 53 H 6.5943 3.2656 -1.95291 0
M  V30 54 H 6.1063 2.03791 -3.30289 0
M  V30 55 H 4.2073 3.48851 -1.30896 0
M  V30 56 H 4.3203 3.57343 -3.19128 0
M  V30 57 H 2.6843 1.9628 -1.62316 0
M  V30 58 H 3.4673 1.32368 -3.16755 0
M  V30 59 N 5.9124 1.20967 1.01018 0
M  V30 60 C 7.3234 1.02319 1.56165 0
M  V30 61 C 7.6744 -0.418546 1.91684 0
M  V30 62 O 6.7994 -1.30096 1.72928 0
M  V30 63 C 7.3944 1.85109 2.8376 0
M  V30 64 C 5.9534 1.70809 3.35412 0
M  V30 65 C 5.1004 1.82643 2.08655 0
M  V30 66 H 8.0514 1.35065 0.833255 0
M  V30 67 H 8.0724 1.35827 3.55431 0
M  V30 68 H 7.5844 2.90035 2.57878 0
M  V30 69 H 5.6854 0.685464 3.66241 0
M  V30 70 H 5.7984 2.52467 4.07182 0
M  V30 71 H 4.1624 1.25896 2.21409 0
M  V30 72 H 4.9454 2.89066 1.85191 0
M  V30 73 N 7.3905 -1.2043 1.01659 0
M  V30 74 C 8.6385 -1.89423 0.704522 0
M  V30 75 C 8.9595 -1.79231 -0.768197 0
M  V30 76 O 8.2295 -1.1947 -1.55254 0
M  V30 77 H 6.8095 -0.701178 0.257602 0
M  V30 78 H 9.4715 -1.4626 1.28818 0
M  V30 79 H 8.5675 -2.96052 0.987916 0
M  V30 80 N 8.8686 -0.792821 -1.36206 0
M  V30 81 C 9.8186 -0.166598 -2.27391 0
M  V30 82 C 10.8026 0.651479 -1.47121 0
M  V30 83 O 11.9946 0.510994 -1.69463 0
M  V30 84 C 9.1236 0.695033 -3.36191 0
M  V30 85 C 8.2096 -0.132019 -4.23894 0
M  V30 86 N 8.6006 -1.18822 -4.91645 0
M  V30 87 C 6.8986 0.0885952 -4.45912 0
M  V30 88 C 7.5996 -1.69198 -5.56549 0
M  V30 89 N 6.5756 -1.00065 -5.34311 0
M  V30 90 H 10.3776 -0.974947 -2.77258 0
M  V30 91 H 7.8916 -0.632616 -1.49572 0
M  V30 92 H 9.8886 1.1596 -4.00448 0
M  V30 93 H 8.5486 1.50189 -2.87877 0
M  V30 94 H 9.5596 -1.57069 -4.93507 0
M  V30 95 H 6.2366 0.865688 -4.08426 0
M  V30 96 H 7.6266 -2.57395 -6.20643 0
M  V30 97 N 10.3467 1.47872 -0.545128 0
M  V30 98 C 11.5947 2.02093 -0.016553 0
M  V30 99 C 11.9157 1.42305 1.3332 0
M  V30 100 O 11.1857 0.593853 1.86682 0
M  V30 101 H 9.7657 0.746993 -0.00313038 0
M  V30 102 H 12.4277 1.81414 -0.712397 0
M  V30 103 H 11.5237 3.11996 0.0805422 0
M  V30 104 N 11.8248 0.280983 1.55075 0
M  V30 105 C 13.2358 -0.215629 1.85451 0
M  V30 106 C 13.5868 -1.54991 1.203 0
M  V30 107 O 12.7118 -2.10699 0.493435 0
M  V30 108 C 13.3068 -0.398026 3.36454 0
M  V30 109 C 11.8658 -0.838866 3.66933 0
M  V30 110 C 11.0128 0.064458 2.77225 0
M  V30 111 H 13.9638 0.502601 1.50531 0
M  V30 112 H 13.9848 -1.23569 3.59876 0
M  V30 113 H 13.4968 0.573241 3.83843 0
M  V30 114 H 11.5978 -1.8214 3.25048 0
M  V30 115 H 11.7108 -0.672123 4.74362 0
M  V30 116 H 10.0748 -0.452863 2.50642 0
M  V30 117 H 10.8578 1.03172 3.2743 0
M  V30 118 N 13.3029 -1.57598 0.00835791 0
M  V30 119 C 14.5499 -1.90928 -0.674732 0
M  V30 120 C 14.8779 -0.88277 -1.73313 0
M  V30 121 O 14.1329 0.111294 -1.95383 0
M  V30 122 C 14.4319 -3.3101 -1.34787 0
M  V30 123 C 14.0979 -4.48922 -0.421861 0
M  V30 124 C 12.7599 -4.8091 -0.166927 0
M  V30 125 C 15.1119 -5.20755 0.215211 0
M  V30 126 C 12.4399 -5.821 0.733232 0
M  V30 127 C 14.7919 -6.22905 1.1033 0
M  V30 128 C 13.4559 -6.53346 1.36733 0
M  V30 129 H 12.7259 -0.698656 -0.246902 0
M  V30 130 H 15.3729 -1.91387 0.0656779 0
M  V30 131 H 13.6779 -3.26714 -2.16253 0
M  V30 132 H 15.3749 -3.54061 -1.8826 0
M  V30 133 H 11.9649 -4.23934 -0.630729 0
M  V30 134 H 16.1489 -4.9629 0.0312829 0
M  V30 135 H 11.4049 -6.04042 0.945712 0
M  V30 136 H 15.5789 -6.77694 1.60325 0
M  V30 137 H 13.2059 -7.31573 2.06652 0
M  V30 138 N 14.781 0.264519 -1.55364 0
M  V30 139 C 16.006 1.01726 -1.80739 0
M  V30 140 C 16.431 1.78836 -0.583044 0
M  V30 141 O 15.789 1.75167 0.467566 0
M  V30 142 C 15.837 1.94482 -3.03659 0
M  V30 143 O 14.941 3.03386 -2.7934 0
M  V30 144 H 14.282 0.290395 -0.597132 0
M  V30 145 H 16.812 0.290854 -2.02522 0
M  V30 146 H 16.822 2.36278 -3.32621 0
M  V30 147 H 15.497 1.37772 -3.92418 0
M  V30 148 H 14.074 2.65844 -2.61498 0
M  V30 149 N 16.2591 1.48442 0.529413 0
M  V30 150 C 17.5071 1.56179 1.28267 0
M  V30 151 C 17.8281 0.237721 1.93546 0
M  V30 152 O 17.0981 -0.740779 1.81354 0
M  V30 153 H 15.6781 0.575367 0.476405 0
M  V30 154 H 18.3401 1.84909 0.61602 0
M  V30 155 H 17.4361 2.34312 2.06165 0
M  V30 156 N 17.7372 -0.778329 1.37039 0
M  V30 157 C 18.9842 -1.53665 1.31884 0
M  V30 158 C 19.3122 -1.9425 -0.0986303 0
M  V30 159 O 18.5672 -1.63832 -1.07041 0
M  V30 160 C 18.8662 -2.81845 2.19768 0
M  V30 161 C 18.5322 -2.60345 3.68146 0
M  V30 162 C 17.1942 -2.5419 4.08584 0
M  V30 163 C 19.5462 -2.40923 4.62175 0
M  V30 164 C 16.8742 -2.26594 5.41177 0
M  V30 165 C 19.2262 -2.14852 5.94997 0
M  V30 166 C 17.8902 -2.07137 6.34547 0
M  V30 167 H 17.1602 -0.562299 0.482598 0
M  V30 168 H 19.8072 -0.897069 1.69189 0
M  V30 169 H 18.1122 -3.50328 1.75436 0
M  V30 170 H 19.8092 -3.39692 2.13097 0
M  V30 171 H 16.3992 -2.65996 3.36072 0
M  V30 172 H 20.5832 -2.44673 4.31797 0
M  V30 173 H 15.8392 -2.19111 5.70789 0
M  V30 174 H 20.0132 -1.98822 6.67415 0
M  V30 175 H 17.6402 -1.85518 7.37216 0
M  V30 176 N 19.2153 -1.21501 -1.00376 0
M  V30 177 C 20.6263 -1.03146 -1.55621 0
M  V30 178 C 20.9773 0.408375 -1.91903 0
M  V30 179 O 20.1023 1.29177 -1.73616 0
M  V30 180 C 20.6973 -1.86612 -2.82775 0
M  V30 181 C 19.2563 -1.72586 -3.34501 0
M  V30 182 C 18.4033 -1.83747 -2.07683 0
M  V30 183 H 21.3543 -1.35505 -0.826081 0
M  V30 184 H 21.3753 -1.3771 -3.54706 0
M  V30 185 H 20.8873 -2.91399 -2.56336 0
M  V30 186 H 18.9883 -0.704877 -3.65872 0
M  V30 187 H 19.1013 -2.54623 -4.05837 0
M  V30 188 H 17.4653 -1.27069 -2.20739 0
M  V30 189 H 18.2483 -2.90044 -1.83655 0
M  V30 190 N 20.6934 1.19889 -1.02296 0
M  V30 191 C 21.9414 1.89046 -0.714558 0
M  V30 192 C 22.2624 1.79636 0.758681 0
M  V30 193 O 21.5324 1.20292 1.54618 0
M  V30 194 H 20.1124 0.699802 -0.261317 0
M  V30 195 H 22.7744 1.45574 -1.29592 0
M  V30 196 H 21.8704 2.95524 -1.0036 0
M  V30 197 N 22.1715 0.800033 1.35784 0
M  V30 198 C 23.5825 0.439142 1.81462 0
M  V30 199 C 23.9335 -1.03813 1.66485 0
M  V30 200 O 23.0585 -1.80626 1.19177 0
M  V30 201 C 23.6535 0.790314 3.29453 0
M  V30 202 C 22.2125 0.482111 3.733 0
M  V30 203 C 21.3595 1.01938 2.57883 0
M  V30 204 H 24.3105 0.992254 1.23855 0
M  V30 205 H 24.3315 0.0853677 3.80404 0
M  V30 206 H 23.8435 1.86554 3.40322 0
M  V30 207 H 21.9445 -0.584652 3.67984 0
M  V30 208 H 22.0575 1.01015 4.6833 0
M  V30 209 H 20.4215 0.442043 2.50835 0
M  V30 210 H 21.2045 2.10059 2.71533 0
M  V30 211 N 23.6496 -1.47581 0.552962 0
M  V30 212 C 24.5816 -2.27997 -0.234533 0
M  V30 213 C 25.5946 -1.36753 -0.883321 0
M  V30 214 O 26.7836 -1.61612 -0.757889 0
M  V30 215 C 23.8836 -3.10879 -1.34935 0
M  V30 216 C 23.0566 -4.30056 -0.798158 0
M  V30 217 C 22.1156 -4.94567 -1.79694 0
M  V30 218 O 21.1416 -5.53087 -1.34474 0
M  V30 219 N 22.3436 -4.88878 -3.13015 0
M  V30 220 H 25.1086 -2.96222 0.455255 0
M  V30 221 H 22.6696 -1.57163 0.388761 0
M  V30 222 H 24.6616 -3.50903 -2.01616 0
M  V30 223 H 23.2316 -2.44924 -1.94244 0
M  V30 224 H 22.4516 -3.94174 0.0453079 0
M  V30 225 H 23.7396 -5.07152 -0.409173 0
M  V30 226 H 23.1376 -4.42526 -3.52402 0
M  V30 227 H 21.6946 -5.32934 -3.75266 0
M  V30 228 N 25.1277 -0.289203 -1.54924 0
M  V30 229 C 26.0377 0.601863 -2.26748 0
M  V30 230 C 27.0537 1.15834 -1.2984 0
M  V30 231 O 28.2297 1.18564 -1.62802 0
M  V30 232 C 25.2947 1.76299 -2.98529 0
M  V30 233 C 24.3557 1.24178 -4.10948 0
M  V30 234 C 23.5887 2.34757 -4.79296 0
M  V30 235 O 23.8117 3.54411 -4.46933 0
M  V30 236 O 22.7457 2.02115 -5.66951 0
M  V30 237 H 26.5717 0.0195879 -3.03694 0
M  V30 238 H 24.1567 -0.0560868 -1.49295 0
M  V30 239 H 26.0387 2.43973 -3.43592 0
M  V30 240 H 24.7137 2.33209 -2.24488 0
M  V30 241 H 23.6207 0.531104 -3.70311 0
M  V30 242 H 24.9537 0.718252 -4.86931 0
M  V30 243 N 26.6058 1.57591 -0.0167156 0
M  V30 244 C 27.5558 2.05953 0.978137 0
M  V30 245 C 28.5398 0.957532 1.29306 0
M  V30 246 O 29.7318 1.22119 1.28125 0
M  V30 247 C 26.8608 2.58006 2.26468 0
M  V30 248 C 25.9468 3.75113 1.97867 0
M  V30 249 N 26.3378 4.86187 1.39486 0
M  V30 250 C 24.6358 3.83363 2.27924 0
M  V30 251 C 25.3368 5.67502 1.27735 0
M  V30 252 N 24.3128 5.14023 1.76866 0
M  V30 253 H 28.1148 2.89236 0.521522 0
M  V30 254 H 25.6288 1.61301 0.188596 0
M  V30 255 H 27.6258 2.90937 2.98599 0
M  V30 256 H 26.2858 1.76148 2.72767 0
M  V30 257 H 27.2968 5.06695 1.07147 0
M  V30 258 H 23.9738 3.1239 2.76982 0
M  V30 259 H 25.3638 6.66791 0.826978 0
M  V30 260 N 28.0839 -0.256276 1.55502 0
M  V30 261 C 29.3119 -1.00342 1.8094 0
M  V30 262 C 29.7269 -1.79307 0.59114 0
M  V30 263 O 29.0839 -1.77114 -0.440081 0
M  V30 264 C 29.1349 -1.94875 3.04476 0
M  V30 265 O 28.8559 -1.19107 4.21598 0
M  V30 266 C 30.3569 -2.81266 3.42644 0
M  V30 267 H 27.5769 -0.295685 0.602338 0
M  V30 268 H 30.1209 -0.281998 2.02546 0
M  V30 269 H 28.2759 -2.62457 2.84947 0
M  V30 270 H 28.6899 -1.82969 4.91551 0
M  V30 271 H 30.1639 -3.43362 4.32211 0
M  V30 272 H 30.6409 -3.51897 2.62802 0
M  V30 273 H 31.2469 -2.1915 3.64491 0
M  V30 274 N 29.562 -1.4872 -0.521534 0
M  V30 275 C 30.494 -1.59968 -1.64143 0
M  V30 276 C 31.507 -0.483463 -1.55456 0
M  V30 277 O 32.696 -0.75467 -1.61762 0
M  V30 278 C 29.796 -1.52127 -3.02838 0
M  V30 279 C 28.969 -2.78932 -3.36921 0
M  V30 280 C 28.028 -2.64428 -4.54933 0
M  V30 281 O 27.054 -3.38331 -4.57735 0
M  V30 282 N 28.256 -1.74606 -5.53618 0
M  V30 283 H 31.021 -2.56548 -1.54929 0
M  V30 284 H 28.582 -1.45551 -0.708988 0
M  V30 285 H 30.574 -1.40106 -3.79674 0
M  V30 286 H 29.144 -0.634868 -3.06085 0
M  V30 287 H 28.364 -3.05455 -2.4918 0
M  V30 288 H 29.652 -3.63041 -3.56481 0
M  V30 289 H 29.05 -1.13782 -5.54139 0
M  V30 290 H 27.607 -1.6852 -6.29638 0
M  V30 291 N 31.0401 0.771051 -1.3745 0
M  V30 292 C 32.2861 1.5319 -1.32894 0
M  V30 293 C 32.6191 1.94008 0.0862511 0
M  V30 294 O 31.8941 1.64124 1.04373 0
M  V30 295 C 32.1771 2.79648 -2.26868 0
M  V30 296 C 32.0301 2.45079 -3.77169 0
M  V30 297 C 33.3491 3.81583 -2.19277 0
M  V30 298 H 30.4681 0.555744 -0.484064 0
M  V30 299 H 33.1101 0.884492 -1.68157 0
M  V30 300 H 31.2601 3.34891 -1.96926 0
M  V30 301 H 32.9321 1.95745 -4.1771 0
M  V30 302 H 31.1751 1.77767 -3.95704 0
M  V30 303 H 31.8461 3.35478 -4.38359 0
M  V30 304 H 34.3221 3.35835 -2.45671 0
M  V30 305 H 33.1981 4.67787 -2.87171 0
M  V30 306 H 33.4591 4.25897 -1.18592 0
M  V30 307 N 32.5182 1.22032 0.997298 0
M  V30 308 C 33.4482 1.01065 2.10495 0
M  V30 309 C 34.4292 -0.0669542 1.69968 0
M  V30 310 O 35.6142 0.0943987 1.9397 0
M  V30 311 C 32.7442 0.582874 3.42374 0
M  V30 312 C 31.6982 1.60592 3.96729 0
M  V30 313 C 31.0242 1.03412 5.24605 0
M  V30 314 C 32.3242 2.99478 4.27914 0
M  V30 315 H 34.0182 1.93708 2.28292 0
M  V30 316 H 31.5642 0.932761 1.09707 0
M  V30 317 H 33.5172 0.423332 4.19268 0
M  V30 318 H 32.2412 -0.379213 3.24391 0
M  V30 319 H 30.9002 1.75316 3.21963 0
M  V30 320 H 30.5482 0.063518 5.0296 0
M  V30 321 H 30.2482 1.71754 5.61938 0
M  V30 322 H 31.7722 0.886066 6.04137 0
M  V30 323 H 33.1862 2.88153 4.95622 0
M  V30 324 H 31.5832 3.64903 4.76409 0
M  V30 325 H 32.6532 3.49742 3.3587 0
M  V30 326 N 33.9963 -1.19345 1.0293 0
M  V30 327 C 35.4073 -1.70725 0.755633 0
M  V30 328 C 35.7583 -1.82326 -0.724676 0
M  V30 329 O 34.8833 -1.49471 -1.56484 0
M  V30 330 C 35.4783 -3.10084 1.36503 0
M  V30 331 C 34.0373 -3.58723 1.13994 0
M  V30 332 C 33.1843 -2.35577 1.46283 0
M  V30 333 H 36.1353 -1.0418 1.19718 0
M  V30 334 H 36.1563 -3.72787 0.762217 0
M  V30 335 H 35.6683 -3.01609 2.44241 0
M  V30 336 H 33.7693 -3.72512 0.0807901 0
M  V30 337 H 33.8823 -4.42816 1.82894 0
M  V30 338 H 32.2463 -2.38935 0.88217 0
M  V30 339 H 33.0293 -2.29731 2.55105 0
M  V30 340 N 35.4744 -0.807222 -1.35358 0
M  V30 341 C 36.7514 -0.311126 -1.9311 0
M  V30 342 C 37.1314 1.19937 -1.73719 0
M  V30 343 O 36.4794 1.99918 -1.10657 0
M  V30 344 C 36.6894 -0.723226 -3.41424 0
M  V30 345 C 38.0374 -0.713078 -4.18569 0
M  V30 346 O 39.0614 -0.664811 -3.49941 0
M  V30 347 O 37.9204 -0.772022 -5.41019 0
M  V30 348 H 35.0144 -0.081526 -0.822972 0
M  V30 349 H 37.5604 -0.890962 -1.4443 0
M  V30 350 H 36.3324 -1.76426 -3.4927 0
M  V30 351 H 35.9554 -0.118232 -3.97424 0
M  V30 352 N 36.9525 1.47285 -0.560781 0
M  V30 353 C 38.1985 2.02764 -0.0381184 0
M  V30 354 C 38.5315 1.43384 1.30976 0
M  V30 355 O 37.8065 0.590733 1.85312 0
M  V30 356 C 38.0895 3.60064 0.0511427 0
M  V30 357 C 37.9425 4.2987 -1.32408 0
M  V30 358 C 39.2615 4.33439 0.762795 0
M  V30 359 H 36.3805 0.736841 -0.0153264 0
M  V30 360 H 39.0225 1.75675 -0.723759 0
M  V30 361 H 37.1725 3.83274 0.635065 0
M  V30 362 H 38.8445 4.17989 -1.95148 0
M  V30 363 H 37.0875 3.90085 -1.8978 0
M  V30 364 H 37.7585 5.38478 -1.21431 0
M  V30 365 H 40.2345 4.15243 0.266965 0
M  V30 366 H 39.1105 5.43124 0.794221 0
M  V30 367 H 39.3715 4.02915 1.81966 0
M  V30 368 N 38.4306 0.297415 1.54768 0
M  V30 369 C 39.8466 -0.0560823 1.59501 0
M  V30 370 C 40.0466 -1.52725 1.31444 0
M  V30 371 O 39.1026 -2.27947 1.08611 0
M  V30 372 C 40.4156 0.338631 2.98787 0
M  V30 373 C 41.9636 0.287097 3.11681 0
M  V30 374 C 42.4386 0.656579 4.53269 0
M  V30 375 N 43.9296 0.608977 4.59179 0
M  V30 376 C 44.6646 0.867385 5.66802 0
M  V30 377 N 44.1606 1.19157 6.82476 0
M  V30 378 N 45.9536 0.794687 5.56454 0
M  V30 379 H 38.1046 1.25624 1.71267 0
M  V30 380 H 40.3676 0.509057 0.799728 0
M  V30 381 H 40.0736 1.36263 3.2423 0
M  V30 382 H 39.9476 -0.309508 3.75928 0
M  V30 383 H 42.3346 -0.727649 2.85988 0
M  V30 384 H 42.4156 0.969809 2.36703 0
M  V30 385 H 42.0596 1.66912 4.7969 0
M  V30 386 H 41.9896 -0.0481649 5.26578 0
M  V30 387 H 44.4806 0.369198 3.76092 0
M  V30 388 H 44.7936 1.37482 7.60473 0
M  V30 389 H 43.1386 1.22958 6.84037 0
M  V30 390 H 46.3296 0.541098 4.64962 0
M  V30 391 H 46.5026 0.999445 6.40246 0
M  V30 392 N 39.9087 -1.5758 0.0250728 0
M  V30 393 C 40.8387 -2.13007 -0.956575 0
M  V30 394 C 41.8197 -1.0452 -1.342 0
M  V30 395 O 43.0047 -1.32332 -1.42133 0
M  V30 396 C 40.1347 -2.65386 -2.24026 0
M  V30 397 C 39.0887 -3.78623 -1.99571 0
M  V30 398 C 38.4147 -4.17414 -3.3417 0
M  V30 399 C 39.7147 -5.04867 -1.33814 0
M  V30 400 H 41.4087 -2.9528 -0.494991 0
M  V30 401 H 38.9547 -1.42042 -0.236651 0
M  V30 402 H 40.9077 -3.02794 -2.93076 0
M  V30 403 H 39.6317 -1.80268 -2.72343 0
M  V30 404 H 38.2907 -3.41646 -1.32941 0
M  V30 405 H 37.9387 -3.29284 -3.80238 0
M  V30 406 H 37.6387 -4.93719 -3.18615 0
M  V30 407 H 39.1627 -4.57402 -4.04495 0
M  V30 408 H 40.5767 -5.39888 -1.92857 0
M  V30 409 H 38.9737 -5.86144 -1.28669 0
M  V30 410 H 40.0437 -4.83904 -0.310561 0
M  V30 411 N 41.3868 0.248026 -1.55636 0
M  V30 412 C 42.3168 1.31079 -1.93237 0
M  V30 413 C 43.2978 1.50264 -0.797174 0
M  V30 414 O 44.4828 1.62891 -1.05737 0
M  V30 415 C 41.6128 2.66575 -2.22609 0
M  V30 416 C 40.5668 2.62087 -3.3837 0
M  V30 417 C 39.8928 4.01369 -3.53281 0
M  V30 418 C 41.1928 2.19171 -4.7409 0
M  V30 419 H 42.8868 0.998556 -2.82257 0
M  V30 420 H 40.4328 0.47891 -1.35803 0
M  V30 421 H 42.3858 3.41057 -2.47503 0
M  V30 422 H 41.1098 2.99432 -1.30414 0
M  V30 423 H 39.7688 1.90063 -3.13483 0
M  V30 424 H 39.4168 4.31489 -2.58508 0
M  V30 425 H 39.1168 3.99254 -4.31127 0
M  V30 426 H 40.6408 4.77552 -3.80495 0
M  V30 427 H 42.0548 2.83384 -4.98363 0
M  V30 428 H 40.4518 2.2817 -5.5503 0
M  V30 429 H 41.5218 1.14336 -4.71227 0
M  V30 430 N 42.8649 1.48995 0.513639 0
M  V30 431 C 44.2759 1.5119 1.09537 0
M  V30 432 C 44.6269 0.290906 1.94031 0
M  V30 433 O 43.7519 -0.60049 2.07902 0
M  V30 434 C 44.3469 2.73964 1.99322 0
M  V30 435 C 42.9059 2.78978 2.52682 0
M  V30 436 C 42.0529 2.44934 1.30009 0
M  V30 437 H 45.0039 1.55875 0.298125 0
M  V30 438 H 45.0249 2.53409 2.83838 0
M  V30 439 H 44.5369 3.62813 1.37799 0
M  V30 440 H 42.6379 1.94378 3.1788 0
M  V30 441 H 42.7509 3.8083 2.90698 0
M  V30 442 H 41.1149 1.9644 1.62122 0
M  V30 443 H 41.8979 3.36043 0.702131 0
M  V30 444 N 44.343 -0.763751 1.37857 0
M  V30 445 C 45.759 -1.06542 1.18832 0
M  V30 446 C 45.959 -2.01478 0.0299722 0
M  V30 447 O 45.015 -2.4458 -0.627447 0
M  V30 448 C 46.328 -1.65525 2.51042 0
M  V30 449 C 47.876 -1.77745 2.57635 0
M  V30 450 C 48.351 -2.4014 3.89996 0
M  V30 451 N 49.842 -2.47582 3.91481 0
M  V30 452 C 50.577 -2.96732 4.9065 0
M  V30 453 N 50.073 -3.45993 6.00217 0
M  V30 454 N 51.866 -2.95679 4.78048 0
M  V30 455 H 44.017 -0.133556 2.1198 0
M  V30 456 H 46.28 -0.121879 0.940133 0
M  V30 457 H 45.986 -1.03236 3.36207 0
M  V30 458 H 45.86 -2.64719 2.68707 0
M  V30 459 H 48.247 -2.39164 1.72872 0
M  V30 460 H 48.328 -0.772836 2.43846 0
M  V30 461 H 47.972 -1.79358 4.75177 0
M  V30 462 H 47.902 -3.41223 4.01092 0
M  V30 463 H 50.393 -2.1273 3.12337 0
M  V30 464 H 50.706 -3.81922 6.7183 0
M  V30 465 H 49.051 -3.44077 6.03851 0
M  V30 466 H 52.242 -2.56499 3.91568 0
M  V30 467 H 52.415 -3.33672 5.55488 0
M  V30 468 N 45.8211 -1.22559 -0.990812 0
M  V30 469 C 47.2371 -0.985996 -1.255 0
M  V30 470 C 47.4371 0.319173 -1.98956 0
M  V30 471 O 46.4931 1.04127 -2.3003 0
M  V30 472 C 47.8061 -2.18607 -2.06474 0
M  V30 473 C 49.3541 -2.22985 -2.19651 0
M  V30 474 C 49.8291 -3.4255 -3.04012 0
M  V30 475 N 51.3201 -3.42725 -3.11599 0
M  V30 476 C 52.0551 -4.31892 -3.7717 0
M  V30 477 N 51.5511 -5.31279 -4.44651 0
M  V30 478 N 53.3441 -4.19662 -3.73952 0
M  V30 479 H 45.4951 -2.06469 -0.49841 0
M  V30 480 H 47.7581 -0.904853 -0.282747 0
M  V30 481 H 47.4641 -3.13267 -1.59865 0
M  V30 482 H 47.3381 -2.18838 -3.07229 0
M  V30 483 H 49.7251 -1.28871 -2.65474 0
M  V30 484 H 49.8061 -2.26791 -1.18319 0
M  V30 485 H 49.4501 -4.36965 -2.58889 0
M  V30 486 H 49.3801 -3.35984 -4.0549 0
M  V30 487 H 51.8711 -2.70807 -2.63575 0
M  V30 488 H 52.1841 -5.95593 -4.92431 0
M  V30 489 H 50.5291 -5.3519 -4.43392 0
M  V30 490 H 53.7201 -3.41268 -3.20396 0
M  V30 491 H 53.8931 -4.89358 -4.24774 0
M  V30 492 N 47.2992 1.18797 -1.03562 0
M  V30 493 C 48.2292 2.24472 -0.643019 0
M  V30 494 C 49.2102 1.66433 0.351283 0
M  V30 495 O 50.3952 1.92803 0.232505 0
M  V30 496 C 47.5252 3.473 4.24935e-05 0
M  V30 497 C 46.4792 4.18055 -0.917257 0
M  V30 498 C 45.8052 5.34519 -0.138941 0
M  V30 499 C 47.1052 4.72109 -2.23407 0
M  V30 500 H 48.7992 2.57566 -1.52643 0
M  V30 501 H 46.3452 1.23806 -0.735394 0
M  V30 502 H 48.2982 4.20426 0.286383 0
M  V30 503 H 47.0222 3.13424 0.918299 0
M  V30 504 H 45.6812 3.46821 -1.1879 0
M  V30 505 H 45.3292 4.96891 0.781562 0
M  V30 506 H 45.0292 5.82794 -0.750005 0
M  V30 507 H 46.5532 6.10438 0.1405 0
M  V30 508 H 47.9672 5.36955 -2.00879 0
M  V30 509 H 46.3642 5.30897 -2.79765 0
M  V30 510 H 47.4342 3.89807 -2.88407 0
M  V30 511 N 48.7773 0.814389 1.34928 0
M  V30 512 C 50.1883 0.458364 1.80986 0
M  V30 513 C 50.5393 -1.02042 1.67577 0
M  V30 514 O 49.6643 -1.79352 1.21086 0
M  V30 515 C 50.2593 0.825212 3.28597 0
M  V30 516 C 48.8183 0.521677 3.72767 0
M  V30 517 C 47.9653 1.04668 2.56788 0
M  V30 518 H 50.9163 1.00533 1.22795 0
M  V30 519 H 50.9373 0.12571 3.80292 0
M  V30 520 H 50.4493 1.90154 3.38324 0
M  V30 521 H 48.5503 -0.545589 3.68584 0
M  V30 522 H 48.6633 1.05977 4.67232 0
M  V30 523 H 47.0273 0.468622 2.50352 0
M  V30 524 H 47.8103 2.12927 2.6929 0
M  V30 525 N 50.2554 -1.46986 0.568584 0
M  V30 526 C 51.1854 -2.32946 -0.160753 0
M  V30 527 C 52.1664 -1.44487 -0.897631 0
M  V30 528 O 53.3514 -1.73327 -0.875867 0
M  V30 529 C 50.4814 -3.26494 -1.18403 0
M  V30 530 C 49.4354 -4.24282 -0.562895 0
M  V30 531 C 48.7614 -5.07236 -1.69163 0
M  V30 532 C 50.0614 -5.19989 0.490761 0
M  V30 533 H 51.7554 -2.94175 0.556916 0
M  V30 534 H 49.3014 -1.4146 0.26927 0
M  V30 535 H 51.2544 -3.85477 -1.70251 0
M  V30 536 H 49.9784 -2.63343 -1.93179 0
M  V30 537 H 48.6374 -3.66541 -0.0656164 0
M  V30 538 H 48.2854 -4.4048 -2.42871 0
M  V30 539 H 47.9854 -5.7345 -1.28174 0
M  V30 540 H 49.5094 -5.6908 -2.21314 0
M  V30 541 H 50.9234 -5.73271 0.0579047 0
M  V30 542 H 49.3204 -5.94469 0.820165 0
M  V30 543 H 50.3904 -4.64777 1.3824 0
M  V30 544 N 51.7335 -0.305618 -1.54608 0
M  V30 545 C 52.6965 0.555591 -2.22364 0
M  V30 546 C 53.6965 1.05768 -1.21119 0
M  V30 547 O 54.8865 0.952972 -1.45822 0
M  V30 548 C 52.0185 1.76974 -2.91364 0
M  V30 549 H 53.2115 -0.0364572 -2.99878 0
M  V30 550 H 50.7645 -0.0565007 -1.56198 0
M  V30 551 H 51.4995 2.40151 -2.17941 0
M  V30 552 H 51.2845 1.41732 -3.65588 0
M  V30 553 H 52.7745 2.38148 -3.43038 0
M  V30 554 N 53.2116 1.57565 -0.0334293 0
M  V30 555 C 54.4586 1.91978 0.644272 0
M  V30 556 C 54.7866 0.910231 1.71887 0
M  V30 557 O 54.0416 -0.0801961 1.95536 0
M  V30 558 C 54.3406 3.33112 1.29504 0
M  V30 559 C 54.0066 4.49537 0.350388 0
M  V30 560 C 52.6686 4.81115 0.0903974 0
M  V30 561 C 55.0206 5.20347 -0.298032 0
M  V30 562 C 52.3486 5.8086 -0.825746 0
M  V30 563 C 54.7006 6.2107 -1.20226 0
M  V30 564 C 53.3646 6.51088 -1.4711 0
M  V30 565 H 52.6346 0.702496 0.235756 0
M  V30 566 H 55.2816 1.91259 -0.0961176 0
M  V30 567 H 53.5866 3.30113 2.11028 0
M  V30 568 H 55.2836 3.57011 1.82603 0
M  V30 569 H 51.8736 4.24883 0.563205 0
M  V30 570 H 56.0576 4.96178 -0.110234 0
M  V30 571 H 51.3136 6.02461 -1.04169 0
M  V30 572 H 55.4876 6.75057 -1.71086 0
M  V30 573 H 53.1146 7.28193 -2.18264 0
M  V30 574 N 54.6897 -0.239769 1.55765 0
M  V30 575 C 56.1057 -0.588624 1.48349 0
M  V30 576 C 56.3057 -1.88005 0.72502 0
M  V30 577 O 55.3617 -2.51186 0.257269 0
M  V30 578 C 56.6747 -0.68474 2.928 0
M  V30 579 C 58.2227 -0.77659 3.03213 0
M  V30 580 C 58.6977 -0.904207 4.48986 0
M  V30 581 N 60.1887 -0.968896 4.52953 0
M  V30 582 C 60.9237 -1.08703 5.63002 0
M  V30 583 N 60.4197 -1.17026 6.82845 0
M  V30 584 N 62.2127 -1.12074 5.50814 0
M  V30 585 H 54.3637 0.607911 2.03515 0
M  V30 586 H 56.6267 0.21083 0.924259 0
M  V30 587 H 56.3327 0.194284 3.51163 0
M  V30 588 H 56.2067 -1.55435 3.43686 0
M  V30 589 H 58.5937 -1.64606 2.44926 0
M  V30 590 H 58.6747 0.118315 2.55526 0
M  V30 591 H 58.3187 -0.0392633 5.07885 0
M  V30 592 H 58.2487 -1.81426 4.9436 0
M  V30 593 H 60.7397 -0.915633 3.6664 0
M  V30 594 H 61.0527 -1.25966 7.62465 0
M  V30 595 H 59.3977 -1.13971 6.85591 0
M  V30 596 H 62.5887 -1.05226 4.5612 0
M  V30 597 H 62.7617 -1.20936 6.36615 0
M  V30 598 N 56.1678 -1.49265 -0.50573 0
M  V30 599 C 57.4448 -1.49012 -1.26707 0
M  V30 600 C 57.8248 -0.215205 -2.1 0
M  V30 601 O 57.1728 0.802547 -2.13943 0
M  V30 602 C 57.3828 -2.7663 -2.12783 0
M  V30 603 C 58.7308 -3.25932 -2.72127 0
M  V30 604 O 59.7548 -2.77715 -2.23054 0
M  V30 605 O 58.6138 -4.09897 -3.61451 0
M  V30 606 H 55.7078 -0.596197 -0.57313 0
M  V30 607 H 58.2538 -1.61524 -0.52039 0
M  V30 608 H 57.0258 -3.60916 -1.5118 0
M  V30 609 H 56.6488 -2.66956 -2.94653 0
M  V30 610 N 57.6459 0.756429 -1.3826 0
M  V30 611 C 58.6089 1.85176 -1.35065 0
M  V30 612 C 59.6089 1.58818 -0.251703 0
M  V30 613 O 60.7989 1.66615 -0.508433 0
M  V30 614 C 57.9309 3.22596 -1.10201 0
M  V30 615 H 59.1239 1.89417 -2.3251 0
M  V30 616 H 56.6769 0.95783 -1.23512 0
M  V30 617 H 57.4119 3.24025 -0.133504 0
M  V30 618 H 57.1969 3.43122 -1.89762 0
M  V30 619 H 58.6869 4.02673 -1.10654 0
M  V30 620 N 59.124 1.23083 0.984299 0
M  V30 621 C 60.352 1.08714 1.76037 0
M  V30 622 C 60.767 -0.361691 1.85303 0
M  V30 623 O 60.124 -1.25034 1.32939 0
M  V30 624 C 60.175 1.70206 3.18923 0
M  V30 625 O 59.896 3.09423 3.10144 0
M  V30 626 C 61.397 1.61227 4.12941 0
M  V30 627 H 58.617 0.380664 0.552572 0
M  V30 628 H 61.161 1.62853 1.23689 0
M  V30 629 H 59.316 1.20109 3.6831 0
M  V30 630 H 59.73 3.39188 4.00065 0
M  V30 631 H 61.204 2.08962 5.10919 0
M  V30 632 H 61.681 0.570375 4.35481 0
M  V30 633 H 62.287 2.10671 3.69456 0
M  V30 634 N 60.6021 -1.18246 1.0419 0
M  V30 635 C 61.8271 -1.92736 0.765996 0
M  V30 636 C 62.2521 -1.75728 -0.67091 0
M  V30 637 O 61.6101 -1.06825 -1.46486 0
M  V30 638 C 61.6581 -3.42148 1.13875 0
M  V30 639 O 60.7621 -4.11548 0.264954 0
M  V30 640 H 60.1031 -0.601238 0.281797 0
M  V30 641 H 62.6331 -1.49942 1.39207 0
M  V30 642 H 62.6431 -3.92858 1.1012 0
M  V30 643 H 61.3181 -3.53848 2.18551 0
M  V30 644 H 59.8951 -3.71137 0.362226 0
M  V30 645 N 62.0802 -0.821533 -1.34494 0
M  V30 646 C 63.0432 -0.247847 -2.27856 0
M  V30 647 C 64.0432 0.573453 -1.50227 0
M  V30 648 O 65.2332 0.389759 -1.69784 0
M  V30 649 C 62.3652 0.652698 -3.34593 0
M  V30 650 H 63.5582 -1.07146 -2.80107 0
M  V30 651 H 61.1112 -0.593291 -1.44602 0
M  V30 652 H 61.8462 1.49943 -2.87555 0
M  V30 653 H 61.6312 0.065292 -3.92046 0
M  V30 654 H 63.1212 1.04793 -4.04238 0
M  V30 655 N 63.5583 1.46682 -0.576371 0
M  V30 656 C 64.9693 1.86112 -0.148091 0
M  V30 657 C 65.3203 1.48073 1.2872 0
M  V30 658 O 64.4453 0.892656 1.97131 0
M  V30 659 C 65.0403 3.37786 -0.261982 0
M  V30 660 C 63.5993 3.76235 0.111384 0
M  V30 661 C 62.7463 2.70713 -0.60083 0
M  V30 662 H 65.6973 1.37927 -0.78497 0
M  V30 663 H 65.7183 3.77007 0.514364 0
M  V30 664 H 65.2303 3.6544 -1.30671 0
M  V30 665 H 63.3313 3.54198 1.15649 0
M  V30 666 H 63.4443 4.78391 -0.26052 0
M  V30 667 H 61.8083 2.54666 -0.0417783 0
M  V30 668 H 62.5913 3.01208 -1.64708 0
M  V30 669 N 65.0364 0.313813 1.54444 0
M  V30 670 C 65.9664 -0.549454 2.26943 0
M  V30 671 C 66.9474 -1.12741 1.27372 0
M  V30 672 O 68.1324 -1.15436 1.56167 0
M  V30 673 C 65.2624 -1.71523 3.01989 0
M  V30 674 C 64.2164 -1.26703 4.08816 0
M  V30 675 C 63.5424 -2.51898 4.71647 0
M  V30 676 C 64.8424 -0.388962 5.2085 0
M  V30 677 H 66.5364 0.0552661 2.99349 0
M  V30 678 H 64.0824 0.0280207 1.43973 0
M  V30 679 H 66.0354 -2.32535 3.51433 0
M  V30 680 H 64.7594 -2.34639 2.27183 0
M  V30 681 H 63.4184 -0.679896 3.6024 0
M  V30 682 H 63.0664 -3.13356 3.93468 0
M  V30 683 H 62.7664 -2.22605 5.43802 0
M  V30 684 H 64.2904 -3.1369 5.23861 0
M  V30 685 H 65.7044 -0.905107 5.6611 0
M  V30 686 H 64.1014 -0.18924 5.99802 0
M  V30 687 H 65.1714 0.582699 4.81386 0
M  V30 688 N 66.5145 -1.57545 0.0417849 0
M  V30 689 C 67.9305 -1.56467 -0.314704 0
M  V30 690 C 68.1305 -1.04859 -1.72066 0
M  V30 691 O 67.1865 -0.700983 -2.42575 0
M  V30 692 C 68.4995 -3.00317 -0.15174 0
M  V30 693 C 70.0475 -3.12201 -0.223553 0
M  V30 694 C 70.5225 -4.57913 -0.0892295 0
M  V30 695 N 72.0135 -4.6297 -0.145808 0
M  V30 696 C 72.7485 -5.73362 -0.0658459 0
M  V30 697 N 72.2445 -6.92769 0.0659282 0
M  V30 698 N 74.0375 -5.6197 -0.12075 0
M  V30 699 H 66.1885 -1.89416 0.961014 0
M  V30 700 H 68.4515 -0.871862 0.372237 0
M  V30 701 H 68.1575 -3.42073 0.817254 0
M  V30 702 H 68.0315 -3.65892 -0.916692 0
M  V30 703 H 70.4185 -2.70349 -1.18301 0
M  V30 704 H 70.4995 -2.49323 0.571994 0
M  V30 705 H 70.1435 -5.00448 0.866867 0
M  V30 706 H 70.0735 -5.18786 -0.903802 0
M  V30 707 H 72.5645 -3.7709 -0.247286 0
M  V30 708 H 72.8775 -7.72707 0.119905 0
M  V30 709 H 71.2225 -6.94927 0.100885 0
M  V30 710 H 74.4135 -4.67572 -0.222187 0
M  V30 711 H 74.5865 -6.47977 -0.0549735 0
M  V30 712 N 67.9926 0.231505 -1.5589 0
M  V30 713 C 68.9396 1.28682 -1.91598 0
M  V30 714 C 69.9096 1.47071 -0.771974 0
M  V30 715 O 71.0946 1.60802 -1.027 0
M  V30 716 C 68.2346 2.6342 -2.22944 0
M  V30 717 C 67.3476 2.52912 -3.50228 0
M  V30 718 C 66.4826 3.80106 -3.7107 0
M  V30 719 C 65.5216 3.64279 -4.91902 0
M  V30 720 N 64.6586 4.834 -5.09184 0
M  V30 721 H 69.4986 0.975305 -2.81588 0
M  V30 722 H 67.0356 0.470299 -1.39379 0
M  V30 723 H 68.9936 3.41869 -2.39126 0
M  V30 724 H 67.6236 2.92687 -1.36139 0
M  V30 725 H 66.6756 1.6595 -3.42294 0
M  V30 726 H 67.9876 2.37133 -4.38827 0
M  V30 727 H 67.1416 4.66999 -3.87295 0
M  V30 728 H 65.8806 3.98799 -2.80733 0
M  V30 729 H 64.8856 2.7577 -4.75637 0
M  V30 730 H 66.1106 3.47067 -5.83714 0
M  V30 731 H 64.0566 5.02425 -4.21788 0
M  V30 732 H 63.9736 4.70311 -5.91898 0
M  V30 733 H 65.2416 5.71747 -5.29835 0
M  V30 734 N 69.4707 1.49531 0.497807 0
M  V30 735 C 70.4007 1.6935 1.60757 0
M  V30 736 C 71.3817 0.542218 1.61227 0
M  V30 737 O 72.5667 0.778417 1.77917 0
M  V30 738 C 69.6967 1.76298 2.99226 0
M  V30 739 C 68.6507 2.91248 3.13622 0
M  V30 740 C 67.9767 2.83312 4.53474 0
M  V30 741 C 69.2767 4.3214 2.93346 0
M  V30 742 H 70.9707 2.62263 1.44425 0
M  V30 743 H 68.5167 1.26208 0.693367 0
M  V30 744 H 70.4697 1.88749 3.76765 0
M  V30 745 H 69.1937 0.799871 3.16654 0
M  V30 746 H 67.8527 2.78404 2.38509 0
M  V30 747 H 67.5007 1.84902 4.67782 0
M  V30 748 H 67.2007 3.60465 4.64046 0
M  V30 749 H 68.7247 2.97775 5.33069 0
M  V30 750 H 70.1387 4.45649 3.60652 0
M  V30 751 H 68.5357 5.1054 3.15387 0
M  V30 752 H 69.6057 4.46363 1.89441 0
M  V30 753 N 70.9488 -0.749086 1.3866 0
M  V30 754 C 72.1738 -1.54344 1.38538 0
M  V30 755 C 72.5988 -1.88088 -0.0216655 0
M  V30 756 O 71.9568 -1.50899 -1.00494 0
M  V30 757 C 72.0048 -2.8164 2.25192 0
M  V30 758 O 71.1088 -3.7698 1.67212 0
M  V30 759 H 70.4498 -0.466654 0.472367 0
M  V30 760 H 72.9798 -0.925355 1.82478 0
M  V30 761 H 72.9898 -3.30519 2.3921 0
M  V30 762 H 71.6648 -2.56411 3.27454 0
M  V30 763 H 70.2418 -3.35699 1.6236 0
M  V30 764 N 72.4269 -1.23603 -0.977757 0
M  V30 765 C 73.6729 -1.07129 -1.72195 0
M  V30 766 C 74.0059 0.390501 -1.90233 0
M  V30 767 O 73.2809 1.28902 -1.45653 0
M  V30 768 C 73.5639 -1.80031 -3.11867 0
M  V30 769 C 73.4169 -3.33899 -3.01383 0
M  V30 770 C 74.7359 -1.56492 -4.11337 0
M  V30 771 H 71.8549 -0.390571 -0.624999 0
M  V30 772 H 74.4969 -1.52142 -1.13811 0
M  V30 773 H 72.6469 -1.41768 -3.6171 0
M  V30 774 H 74.3189 -3.81699 -2.59043 0
M  V30 775 H 72.5619 -3.62796 -2.37827 0
M  V30 776 H 73.2329 -3.801 -4.00285 0
M  V30 777 H 75.7089 -1.89757 -3.70313 0
M  V30 778 H 74.5849 -2.09973 -5.07151 0
M  V30 779 H 74.8459 -0.500874 -4.39254 0
M  V30 780 N 73.905 1.17692 -1.04816 0
M  V30 781 C 75.182 1.83768 -0.669963 0
M  V30 782 C 75.562 1.93232 0.849986 0
M  V30 783 O 74.91 1.46397 1.75443 0
M  V30 784 C 75.12 3.21641 -1.35455 0
M  V30 785 C 76.468 3.97592 -1.49017 0
M  V30 786 O 77.492 3.31107 -1.31326 0
M  V30 787 O 76.351 5.16729 -1.77914 0
M  V30 788 H 73.445 0.792799 -0.235368 0
M  V30 789 H 75.991 1.25021 -1.14751 0
M  V30 790 H 74.763 3.097 -2.39168 0
M  V30 791 H 74.386 3.88052 -0.866107 0
M  V30 792 N 75.3831 0.828654 1.34056 0
M  V30 793 C 76.3131 0.269443 2.3194 0
M  V30 794 C 77.2941 -0.617247 1.58506 0
M  V30 795 O 78.4791 -0.542931 1.86456 0
M  V30 796 C 75.6091 -0.564793 3.42677 0
M  V30 797 C 74.5631 0.225241 4.27407 0
M  V30 798 C 73.8891 -0.7321 5.29664 0
M  V30 799 C 75.1891 1.43663 5.02154 0
M  V30 800 H 76.8831 1.08728 2.7896 0
M  V30 801 H 74.4291 0.524283 1.34117 0
M  V30 802 H 76.3821 -0.966233 4.10173 0
M  V30 803 H 75.1061 -1.41574 2.9432 0
M  V30 804 H 73.7651 0.608117 3.61521 0
M  V30 805 H 73.4131 -1.57916 4.77568 0
M  V30 806 H 73.1131 -0.20767 5.87233 0
M  V30 807 H 74.6371 -1.13128 6.00029 0
M  V30 808 H 76.0511 1.1089 5.62473 0
M  V30 809 H 74.4481 1.89711 5.69324 0
M  V30 810 H 75.5181 2.21181 4.31517 0
M  V30 811 N 76.8612 -1.46375 0.584142 0
M  V30 812 C 78.1102 -2.01585 0.0679741 0
M  V30 813 C 78.4232 -1.46109 -1.30045 0
M  V30 814 O 79.6292 -1.93148 -1.90804 0
M  V30 815 C 78.0852 -3.5983 0.0709207 0
M  V30 816 C 77.6932 -4.24303 1.43775 0
M  V30 817 C 79.4372 -4.22693 -0.391228 0
M  V30 818 C 77.3442 -5.74631 1.39834 0
M  V30 819 H 76.2742 -0.753689 0.0216421 0
M  V30 820 H 78.9252 -1.68093 0.736001 0
M  V30 821 H 77.3072 -3.90405 -0.663299 0
M  V30 822 H 78.4812 -4.05335 2.19181 0
M  V30 823 H 76.7962 -3.73539 1.84004 0
M  V30 824 H 79.3932 -5.3289 -0.439524 0
M  V30 825 H 79.7362 -3.91728 -1.40906 0
M  V30 826 H 80.2692 -3.96749 0.288974 0
M  V30 827 H 77.0082 -6.10258 2.39303 0
M  V30 828 H 76.5282 -5.95858 0.686505 0
M  V30 829 H 78.2072 -6.37375 1.11187 0
M  V30 830 N 78.3393 -0.321999 -1.54275 0
M  V30 831 C 79.2863 0.544664 -2.24281 0
M  V30 832 C 80.2563 1.1129 -1.23303 0
M  V30 833 O 81.4413 1.15354 -1.51981 0
M  V30 834 C 78.5813 1.70045 -3.00298 0
M  V30 835 C 77.6943 1.16159 -4.1609 0
M  V30 836 C 76.8293 2.28293 -4.79641 0
M  V30 837 C 75.8683 1.71648 -5.8754 0
M  V30 838 N 75.0053 2.77438 -6.44959 0
M  V30 839 H 79.8453 -0.0588907 -2.97942 0
M  V30 840 H 77.3823 -0.0408345 -1.47043 0
M  V30 841 H 79.3403 2.38054 -3.42616 0
M  V30 842 H 77.9703 2.27531 -2.28975 0
M  V30 843 H 77.0223 0.373092 -3.78566 0
M  V30 844 H 78.3343 0.707087 -4.93763 0
M  V30 845 H 77.4883 3.0421 -5.2492 0
M  V30 846 H 76.2273 2.77079 -4.01346 0
M  V30 847 H 75.2323 0.942282 -5.41665 0
M  V30 848 H 76.4573 1.23741 -6.67731 0
M  V30 849 H 74.4033 3.25519 -5.69538 0
M  V30 850 H 74.3203 2.36547 -7.1804 0
M  V30 851 H 75.5883 3.53189 -6.94894 0
M  V30 852 N 79.8174 1.5752 -0.0501392 0
M  V30 853 C 81.0454 1.96963 0.633492 0
M  V30 854 C 81.4604 0.927631 1.6444 0
M  V30 855 O 80.8174 -0.0882665 1.82286 0
M  V30 856 C 80.8684 3.36487 1.32132 0
M  V30 857 O 80.5894 4.36693 0.350894 0
M  V30 858 C 82.0904 3.90682 2.09481 0
M  V30 859 H 79.3104 0.648244 0.173266 0
M  V30 860 H 81.8544 2.0417 -0.116134 0
M  V30 861 H 80.0094 3.30434 2.02218 0
M  V30 862 H 80.4234 5.17702 0.841735 0
M  V30 863 H 81.8974 4.90591 2.5303 0
M  V30 864 H 82.3744 3.26053 2.94255 0
M  V30 865 H 82.9804 4.00069 1.44307 0
M  V30 866 N 81.2955 -0.223234 1.56011 0
M  V30 867 C 82.5255 -0.963413 1.82762 0
M  V30 868 C 82.9335 -1.78516 0.626804 0
M  V30 869 O 82.2765 -1.78974 -0.414014 0
M  V30 870 C 82.3385 -1.93126 3.0322 0
M  V30 871 C 82.0025 -1.2942 4.38291 0
M  V30 872 C 82.9995 -0.684916 5.15369 0
M  V30 873 C 80.6845 -1.30647 4.85012 0
M  V30 874 C 82.6785 -0.0963971 6.37327 0
M  V30 875 C 80.3655 -0.71411 6.06913 0
M  V30 876 C 81.3635 -0.110123 6.82911 0
M  V30 877 O 81.0515 0.47303 8.02507 0
M  V30 878 H 80.7835 -0.288011 0.611576 0
M  V30 879 H 83.3375 -0.244103 2.03944 0
M  V30 880 H 81.5675 -2.68952 2.77852 0
M  V30 881 H 83.2565 -2.53685 3.16857 0
M  V30 882 H 84.0225 -0.667774 4.80381 0
M  V30 883 H 79.9015 -1.76598 4.25833 0
M  V30 884 H 83.4455 0.375657 6.96588 0
M  V30 885 H 79.3425 -0.728659 6.41374 0
M  V30 886 H 80.1105 0.367186 8.17676 0
M  V30 887 N 82.7736 -1.49793 -0.48987 0
M  V30 888 C 83.7206 -1.67281 -1.59014 0
M  V30 889 C 84.6906 -0.514177 -1.57941 0
M  V30 890 O 85.8756 -0.742533 -1.75759 0
M  V30 891 C 83.0156 -1.75569 -2.97102 0
M  V30 892 C 82.1286 -3.0281 -3.08107 0
M  V30 893 C 81.2636 -3.02008 -4.36995 0
M  V30 894 C 80.3026 -4.23782 -4.41673 0
M  V30 895 N 79.4396 -4.20826 -5.62005 0
M  V30 896 H 84.2796 -2.61224 -1.43409 0
M  V30 897 H 81.8166 -1.29508 -0.697565 0
M  V30 898 H 83.7746 -1.78354 -3.77155 0
M  V30 899 H 82.4046 -0.850827 -3.11385 0
M  V30 900 H 81.4566 -3.09584 -2.21047 0
M  V30 901 H 82.7686 -3.92801 -3.07423 0
M  V30 902 H 81.9226 -3.03418 -5.25378 0
M  V30 903 H 80.6616 -2.09815 -4.4026 0
M  V30 904 H 79.6666 -4.22604 -3.5169 0
M  V30 905 H 80.8916 -5.17181 -4.40115 0
M  V30 906 H 78.8376 -3.31476 -5.66091 0
M  V30 907 H 78.7546 -5.04564 -5.62984 0
M  V30 908 H 80.0226 -4.26355 -6.52565 0
M  V30 909 N 84.2517 0.741722 -1.39055 0
M  V30 910 C 85.2017 1.84661 -1.33732 0
M  V30 911 C 86.1857 1.59397 -0.219401 0
M  V30 912 O 87.3777 1.71015 -0.456375 0
M  V30 913 C 84.5067 3.22512 -1.17647 0
M  V30 914 C 83.5927 3.53628 -2.34112 0
M  V30 915 N 83.9837 3.55723 -3.59576 0
M  V30 916 C 82.2817 3.83956 -2.26923 0
M  V30 917 C 82.9827 3.84443 -4.36553 0
M  V30 918 N 81.9587 4.01877 -3.66055 0
M  V30 919 H 85.7607 1.84576 -2.28711 0
M  V30 920 H 83.2747 0.939647 -1.32455 0
M  V30 921 H 85.2717 4.01597 -1.11917 0
M  V30 922 H 83.9317 3.2384 -0.236124 0
M  V30 923 H 84.9427 3.37196 -3.93089 0
M  V30 924 H 81.6197 3.92929 -1.41113 0
M  V30 925 H 83.0097 3.92588 -5.45274 0
M  V30 926 N 85.7298 1.2412 0.971189 0
M  V30 927 C 86.9788 1.07284 1.70801 0
M  V30 928 C 87.2918 -0.388902 1.91695 0
M  V30 929 O 88.4978 -0.677379 2.62914 0
M  V30 930 C 86.9538 1.87145 3.07416 0
M  V30 931 C 86.5618 3.37707 2.94377 0
M  V30 932 C 88.3058 1.78828 3.84995 0
M  V30 933 C 86.2128 4.09925 4.26281 0
M  V30 934 H 85.1428 0.397854 0.64049 0
M  V30 935 H 87.7938 1.4817 1.0825 0
M  V30 936 H 86.1758 1.39071 3.70777 0
M  V30 937 H 87.3498 3.93335 2.4005 0
M  V30 938 H 85.6648 3.46938 2.30267 0
M  V30 939 H 88.2618 2.30089 4.82662 0
M  V30 940 H 88.6048 0.75284 4.09436 0
M  V30 941 H 89.1378 2.24563 3.28354 0
M  V30 942 H 85.8768 5.13813 4.07033 0
M  V30 943 H 85.3968 3.59083 4.80437 0
M  V30 944 H 87.0758 4.1673 4.94919 0
M  V30 945 N 87.2079 -1.17134 1.05439 0
M  V30 946 C 88.1559 -2.23289 0.651511 0
M  V30 947 C 89.1499 -1.66186 -0.328411 0
M  V30 948 O 90.3559 -1.78949 -0.194206 0
M  V30 949 H 86.7309 -0.726938 0.192523 0
M  V30 950 H 88.7019 -2.54565 1.55689 0
M  V30 951 C 87.4509 -3.47671 0.0448436 0
M  V30 952 H 86.7739 -3.91918 0.78996 0
M  V30 953 H 88.2139 -4.2353 -0.19964 0
M  V30 954 C 86.6729 -3.14453 -1.20918 0
M  V30 955 O 87.2029 -3.29459 -2.29825 0
M  V30 956 N 85.4089 -2.68657 -1.10779 0
M  V30 957 H 84.9559 -2.56646 -0.221526 0
M  V30 958 H 84.9139 -2.46804 -1.9477 0
M  V30 959 N 88.686 -0.835752 -1.33615 0
M  V30 960 C 89.596 -0.269088 -2.33052 0
M  V30 961 C 90.612 0.603251 -1.63208 0
M  V30 962 O 91.788 0.508112 -1.94885 0
M  V30 963 C 88.853 0.549091 -3.42324 0
M  V30 964 C 87.914 -0.347156 -4.27894 0
M  V30 965 C 87.147 0.43207 -5.31948 0
M  V30 966 O 87.37 1.66409 -5.45586 0
M  V30 967 O 86.304 -0.192298 -6.01593 0
M  V30 968 H 90.13 -1.09243 -2.83372 0
M  V30 969 H 87.715 -0.598198 -1.36901 0
M  V30 970 H 89.597 1.01414 -4.09015 0
M  V30 971 H 88.272 1.34955 -2.94226 0
M  V30 972 H 87.179 -0.859979 -3.64081 0
M  V30 973 H 88.512 -1.1123 -4.79467 0
M  V30 974 N 90.1641 1.46063 -0.591896 0
M  V30 975 C 91.4101 2.02638 -0.0811191 0
M  V30 976 C 91.7431 1.4613 1.27905 0
M  V30 977 O 91.0181 0.629908 1.84017 0
M  V30 978 C 91.3011 3.60091 -0.0252436 0
M  V30 979 C 91.1541 4.26965 -1.41496 0
M  V30 980 C 92.4731 4.3496 0.670685 0
M  V30 981 H 89.5921 0.73635 -0.0309524 0
M  V30 982 H 92.2341 1.741 -0.760859 0
M  V30 983 H 90.3841 3.84535 0.553624 0
M  V30 984 H 92.0561 4.13756 -2.0397 0
M  V30 985 H 90.2991 3.85971 -1.98011 0
M  V30 986 H 90.9701 5.35781 -1.32825 0
M  V30 987 H 93.4461 4.15716 0.178825 0
M  V30 988 H 92.3221 5.44686 0.678837 0
M  V30 989 H 92.5831 4.06685 1.73379 0
M  V30 990 N 91.6422 0.330177 1.54103 0
M  V30 991 C 92.8722 -0.271784 2.04805 0
M  V30 992 C 93.2802 -1.45816 1.20559 0
M  V30 993 O 92.6232 -1.82247 0.2306 0
M  V30 994 C 92.6852 -0.763238 3.51305 0
M  V30 995 C 92.3492 0.301705 4.56003 0
M  V30 996 C 93.3462 1.13999 5.07248 0
M  V30 997 C 91.0312 0.451793 5.00264 0
M  V30 998 C 93.0252 2.11402 6.01322 0
M  V30 999 C 90.7122 1.42924 5.94151 0
M  V30 1000 C 91.7102 2.25882 6.44567 0
M  V30 1001 O 91.3982 3.21965 7.3661 0
M  V30 1002 H 91.1302 -0.058693 0.673447 0
M  V30 1003 H 93.6842 0.476395 1.99799 0
M  V30 1004 H 91.9142 -1.56244 3.5373 0
M  V30 1005 H 93.6032 -1.28427 3.85047 0
M  V30 1006 H 94.3692 1.03505 4.73827 0
M  V30 1007 H 90.2482 -0.184044 4.60632 0
M  V30 1008 H 93.7922 2.76192 6.40596 0
M  V30 1009 H 89.6892 1.53479 6.26988 0
M  V30 1010 H 90.4572 3.17281 7.54503 0
M  V30 1011 N 93.1203 -1.57491 0.0584922 0
M  V30 1012 C 94.3503 -1.9701 -0.622134 0
M  V30 1013 C 94.7583 -0.935034 -1.6448 0
M  V30 1014 O 94.1013 0.0882904 -1.83488 0
M  V30 1015 C 94.1633 -3.32794 -1.35972 0
M  V30 1016 C 93.8273 -4.54343 -0.492043 0
M  V30 1017 C 94.8243 -5.19323 0.244901 0
M  V30 1018 C 92.5093 -5.00534 -0.420821 0
M  V30 1019 C 94.5033 -6.28835 1.04143 0
M  V30 1020 C 92.1903 -6.09921 0.379389 0
M  V30 1021 C 93.1883 -6.73933 1.10919 0
M  V30 1022 O 92.8763 -7.81216 1.89623 0
M  V30 1023 H 92.6083 -0.653127 -0.174359 0
M  V30 1024 H 95.1623 -2.05029 0.123418 0
M  V30 1025 H 93.3923 -3.21351 -2.15105 0
M  V30 1026 H 95.0813 -3.5701 -1.93129 0
M  V30 1027 H 95.8473 -4.8459 0.19939 0
M  V30 1028 H 91.7263 -4.50496 -0.978474 0
M  V30 1029 H 95.2703 -6.7873 1.61157 0
M  V30 1030 H 91.1673 -6.44089 0.426512 0
M  V30 1031 H 91.9353 -7.98029 1.81913 0
M  V30 1032 N 94.5984 0.214957 -1.56127 0
M  V30 1033 C 95.5614 1.24997 -1.92116 0
M  V30 1034 C 96.5614 1.39467 -0.800344 0
M  V30 1035 O 97.7514 1.37619 -1.06802 0
M  V30 1036 C 94.8834 2.62271 -2.17777 0
M  V30 1037 H 96.0764 0.942875 -2.84693 0
M  V30 1038 H 93.6294 0.455654 -1.49511 0
M  V30 1039 H 94.3644 2.98068 -1.27773 0
M  V30 1040 H 94.1494 2.53143 -2.99434 0
M  V30 1041 H 95.6394 3.36946 -2.46693 0
M  V30 1042 N 96.0765 1.50051 0.48192 0
M  V30 1043 C 97.0235 1.68122 1.58125 0
M  V30 1044 C 97.9935 0.522545 1.57666 0
M  V30 1045 O 99.1785 0.751844 1.75362 0
M  V30 1046 C 96.3185 1.77142 2.96167 0
M  V30 1047 C 95.4315 3.0444 3.06497 0
M  V30 1048 C 94.5665 3.04321 4.35387 0
M  V30 1049 C 93.6055 4.26118 4.3942 0
M  V30 1050 N 92.7425 4.238 5.59766 0
M  V30 1051 H 97.5825 2.6198 1.42022 0
M  V30 1052 H 95.1195 1.29877 0.690687 0
M  V30 1053 H 97.0775 1.80352 3.76203 0
M  V30 1054 H 95.7075 0.867329 3.1093 0
M  V30 1055 H 94.7595 3.10752 2.19402 0
M  V30 1056 H 96.0715 3.94426 3.05336 0
M  V30 1057 H 95.2255 3.062 5.23762 0
M  V30 1058 H 93.9645 2.12147 4.39141 0
M  V30 1059 H 92.9695 4.24463 3.49444 0
M  V30 1060 H 94.1945 5.19507 4.37366 0
M  V30 1061 H 92.1405 3.34474 5.64326 0
M  V30 1062 H 92.0575 5.07542 5.60301 0
M  V30 1063 H 93.3255 4.2981 6.50295 0
M  V30 1064 N 97.5546 -0.734337 1.39446 0
M  V30 1065 C 98.5016 -1.84835 1.38219 0
M  V30 1066 C 99.4716 -1.64331 0.24179 0
M  V30 1067 O 100.657 -1.85728 0.437002 0
M  V30 1068 C 97.7966 -3.22355 1.23212 0
M  V30 1069 C 96.9096 -3.5456 2.46801 0
M  V30 1070 C 96.0446 -4.81485 2.24377 0
M  V30 1071 C 95.0836 -5.06536 3.43639 0
M  V30 1072 N 94.2206 -6.24665 3.20528 0
M  V30 1073 H 99.0606 -1.85219 2.33448 0
M  V30 1074 H 96.5976 -0.905039 1.15963 0
M  V30 1075 H 98.5556 -4.0174 1.12522 0
M  V30 1076 H 97.1856 -3.21248 0.316121 0
M  V30 1077 H 96.2376 -2.69872 2.68092 0
M  V30 1078 H 97.5496 -3.6899 3.3563 0
M  V30 1079 H 96.7036 -5.68852 2.10933 0
M  V30 1080 H 95.4426 -4.6923 1.32944 0
M  V30 1081 H 94.4476 -4.17632 3.5758 0
M  V30 1082 H 95.6726 -5.20676 4.35974 0
M  V30 1083 H 93.6186 -6.13696 2.3176 0
M  V30 1084 H 93.5356 -6.39685 4.02913 0
M  V30 1085 H 94.8036 -7.14868 3.10779 0
M  V30 1086 N 99.0327 -1.24633 -0.964593 0
M  V30 1087 C 99.9797 -1.04144 -2.05968 0
M  V30 1088 C 100.95 0.046262 -1.66036 0
M  V30 1089 O 102.135 -0.108972 -1.90489 0
M  V30 1090 C 99.2747 -0.65563 -3.38815 0
M  V30 1091 C 98.3877 -1.81714 -3.91923 0
M  V30 1092 C 97.5227 -1.37662 -5.13052 0
M  V30 1093 C 96.5617 -2.50788 -5.58365 0
M  V30 1094 N 95.6987 -2.07582 -6.70712 0
M  V30 1095 H 100.539 -1.9787 -2.22827 0
M  V30 1096 H 98.0757 -0.9855 -1.09208 0
M  V30 1097 H 100.034 -0.412954 -4.15151 0
M  V30 1098 H 98.6637 0.244627 -3.21872 0
M  V30 1099 H 97.7157 -2.1734 -3.12198 0
M  V30 1100 H 99.0277 -2.66705 -4.21509 0
M  V30 1101 H 98.1817 -1.093 -5.96773 0
M  V30 1102 H 96.9207 -0.497293 -4.85158 0
M  V30 1103 H 95.9257 -2.79906 -4.73215 0
M  V30 1104 H 97.1507 -3.39283 -5.88272 0
M  V30 1105 H 95.0967 -1.22051 -6.44546 0
M  V30 1106 H 95.0137 -2.86125 -6.99763 0
M  V30 1107 H 96.2817 -1.82369 -7.57867 0
M  V30 1108 N 100.511 1.16574 -1.06058 0
M  V30 1109 C 101.927 1.3904 -0.783585 0
M  V30 1110 C 102.127 1.91784 0.618145 0
M  V30 1111 O 101.183 2.11511 1.37911 0
M  V30 1112 C 102.496 2.37329 -1.84649 0
M  V30 1113 C 104.044 2.51018 -1.86973 0
M  V30 1114 C 104.519 3.52588 -2.92311 0
M  V30 1115 N 106.01 3.60113 -2.91329 0
M  V30 1116 C 106.745 4.38486 -3.69482 0
M  V30 1117 N 106.241 5.20302 -4.57447 0
M  V30 1118 N 108.034 4.33446 -3.57885 0
M  V30 1119 H 100.185 0.806725 -1.96483 0
M  V30 1120 H 102.448 0.417117 -0.851303 0
M  V30 1121 H 102.154 2.05663 -2.85299 0
M  V30 1122 H 102.028 3.36946 -1.6955 0
M  V30 1123 H 104.415 2.81989 -0.869827 0
M  V30 1124 H 104.496 1.51445 -2.0615 0
M  V30 1125 H 104.14 3.22354 -3.92492 0
M  V30 1126 H 104.07 4.51886 -2.70383 0
M  V30 1127 H 106.561 3.01707 -2.27555 0
M  V30 1128 H 106.874 5.77311 -5.13743 0
M  V30 1129 H 105.219 5.19653 -4.61503 0
M  V30 1130 H 108.41 3.68586 -2.88551 0
M  V30 1131 H 108.583 4.94279 -4.19037 0
M  V30 1132 N 101.989 0.842826 1.3317 0
M  V30 1133 C 103.405 0.531128 1.50503 0
M  V30 1134 C 103.605 -0.940734 1.78192 0
M  V30 1135 O 102.661 -1.72436 1.84451 0
M  V30 1136 C 103.974 1.40789 2.65705 0
M  V30 1137 C 105.522 1.40708 2.79589 0
M  V30 1138 C 105.997 2.26878 3.97857 0
M  V30 1139 N 107.488 2.24609 4.05099 0
M  V30 1140 C 108.223 2.88019 4.95815 0
M  V30 1141 N 107.719 3.60496 5.9162 0
M  V30 1142 N 109.512 2.77469 4.88843 0
M  V30 1143 H 101.663 1.79557 1.1346 0
M  V30 1144 H 103.926 0.766267 0.558156 0
M  V30 1145 H 103.632 2.454 2.51936 0
M  V30 1146 H 103.506 1.08677 3.61205 0
M  V30 1147 H 105.893 0.368668 2.92788 0
M  V30 1148 H 105.974 1.76829 1.84838 0
M  V30 1149 H 105.618 3.3078 3.85418 0
M  V30 1150 H 105.548 1.88096 4.91861 0
M  V30 1151 H 108.039 1.71906 3.36536 0
M  V30 1152 H 108.352 4.06076 6.57512 0
M  V30 1153 H 106.697 3.64604 5.91683 0
M  V30 1154 H 109.888 2.20406 4.12963 0
M  V30 1155 H 110.061 3.2717 5.59342 0
M  V30 1156 N 103.467 -1.45747 0.599634 0
M  V30 1157 C 104.43 -2.28917 -0.113835 0
M  V30 1158 C 105.43 -1.3933 -0.802729 0
M  V30 1159 O 106.62 -1.61534 -0.652103 0
M  V30 1160 C 103.752 -3.20152 -1.17114 0
M  V30 1161 H 104.945 -2.93478 0.617289 0
M  V30 1162 H 102.498 -1.52137 0.358327 0
M  V30 1163 H 103.233 -2.60374 -1.93329 0
M  V30 1164 H 103.018 -3.86133 -0.681468 0
M  V30 1165 H 104.508 -3.82708 -1.67105 0
M  V30 1166 N 104.945 -0.338344 -1.53925 0
M  V30 1167 C 105.877 0.555117 -2.22376 0
M  V30 1168 C 106.89 1.06812 -1.22862 0
M  V30 1169 O 108.079 0.979163 -1.49247 0
M  V30 1170 C 105.179 1.77609 -2.88631 0
M  V30 1171 C 104.352 1.39927 -4.14414 0
M  V30 1172 C 103.411 2.47936 -4.64127 0
M  V30 1173 O 102.437 2.11461 -5.28463 0
M  V30 1174 N 103.639 3.79107 -4.39612 0
M  V30 1175 H 106.404 -0.0310778 -2.99684 0
M  V30 1176 H 103.965 -0.162226 -1.61085 0
M  V30 1177 H 105.957 2.49287 -3.18807 0
M  V30 1178 H 104.527 2.26978 -2.14941 0
M  V30 1179 H 103.747 0.513481 -3.90841 0
M  V30 1180 H 105.035 1.12341 -4.96243 0
M  V30 1181 H 104.433 4.11531 -3.88148 0
M  V30 1182 H 102.99 4.4697 -4.74406 0
M  V30 1183 N 106.423 1.57458 -0.0668435 0
M  V30 1184 C 107.355 2.09413 0.931601 0
M  V30 1185 C 108.368 1.02522 1.26464 0
M  V30 1186 O 109.557 1.30049 1.22269 0
M  V30 1187 C 106.657 2.53537 2.24882 0
M  V30 1188 C 105.83 3.83944 2.09537 0
M  V30 1189 C 104.889 4.14214 3.2452 0
M  V30 1190 O 103.915 4.83891 2.9973 0
M  V30 1191 N 105.117 3.67367 4.49469 0
M  V30 1192 H 107.882 2.95699 0.488048 0
M  V30 1193 H 105.443 1.61462 0.119009 0
M  V30 1194 H 107.435 2.70853 3.00701 0
M  V30 1195 H 106.005 1.72415 2.60753 0
M  V30 1196 H 105.225 3.76057 1.18215 0
M  V30 1197 H 106.513 4.69312 1.96529 0
M  V30 1198 H 105.911 3.11068 4.72497 0
M  V30 1199 H 104.468 3.89891 5.2233 0
M  V30 1200 N 107.901 -0.206675 1.56239 0
M  V30 1201 C 108.864 -1.23976 1.92776 0
M  V30 1202 C 109.864 -1.39041 0.807729 0
M  V30 1203 O 111.054 -1.37051 1.0753 0
M  V30 1204 C 108.186 -2.61112 2.19165 0
M  V30 1205 H 109.379 -0.927764 2.85189 0
M  V30 1206 H 106.932 -0.447718 1.4975 0
M  V30 1207 H 107.667 -2.97386 1.29352 0
M  V30 1208 H 107.452 -2.51552 3.00772 0
M  V30 1209 H 108.942 -3.35633 2.48476 0
M  V30 1210 N 109.379 -1.50304 -0.473955 0
M  V30 1211 C 110.79 -1.54042 -1.0549 0
M  V30 1212 C 111.141 -0.342248 -1.93192 0
M  V30 1213 O 110.266 0.545157 -2.09421 0
M  V30 1214 C 110.861 -2.79152 -1.91989 0
M  V30 1215 C 109.42 -2.8558 -2.45196 0
M  V30 1216 C 108.567 -2.48295 -1.2347 0
M  V30 1217 H 111.518 -1.5661 -0.256693 0
M  V30 1218 H 111.539 -2.60845 -2.7702 0
M  V30 1219 H 111.051 -3.66339 -1.28131 0
M  V30 1220 H 109.152 -2.02738 -3.12615 0
M  V30 1221 H 109.265 -3.88403 -2.80499 0
M  V30 1222 H 107.629 -2.00669 -1.56856 0
M  V30 1223 H 108.412 -3.37787 -0.612789 0
M  V30 1224 N 110.857 0.726932 -1.39834 0
M  V30 1225 C 112.268 1.30558 -1.3346 0
M  V30 1226 C 112.619 1.962 -0.00273003 0
M  V30 1227 O 111.744 1.96826 0.899371 0
M  V30 1228 C 112.339 2.37404 -2.41713 0
M  V30 1229 C 110.898 2.90921 -2.38835 0
M  V30 1230 C 110.045 1.64578 -2.2318 0
M  V30 1231 H 112.996 0.523862 -1.49804 0
M  V30 1232 H 113.017 3.17984 -2.08966 0
M  V30 1233 H 112.529 1.89599 -3.38635 0
M  V30 1234 H 110.63 3.42985 -1.45575 0
M  V30 1235 H 110.743 3.43487 -3.33997 0
M  V30 1236 H 109.107 1.89219 -1.70494 0
M  V30 1237 H 109.89 1.18814 -3.22084 0
M  V30 1238 N 112.336 1.25143 0.95797 0
M  V30 1239 C 113.268 1.01023 2.05735 0
M  V30 1240 C 114.281 -0.0236902 1.62783 0
M  V30 1241 O 115.47 0.21448 1.77207 0
M  V30 1242 C 112.57 0.504595 3.35122 0
M  V30 1243 C 111.743 1.6039 4.06932 0
M  V30 1244 C 110.802 1.09922 5.14591 0
M  V30 1245 O 109.828 1.79293 5.40225 0
M  V30 1246 N 111.03 -0.0612545 5.80468 0
M  V30 1247 H 113.795 1.95683 2.26998 0
M  V30 1248 H 111.356 1.16303 1.12629 0
M  V30 1249 H 113.348 0.151516 4.04416 0
M  V30 1250 H 111.918 -0.347989 3.10657 0
M  V30 1251 H 111.138 2.12872 3.31782 0
M  V30 1252 H 112.426 2.34252 4.51667 0
M  V30 1253 H 111.824 -0.640985 5.62057 0
M  V30 1254 H 110.381 -0.355395 6.5083 0
M  V30 1255 N 113.814 -1.1601 1.06675 0
M  V30 1256 C 115.091 -1.82679 0.699114 0
M  V30 1257 C 115.471 -1.94559 -0.819137 0
M  V30 1258 O 114.819 -1.49169 -1.73092 0
M  V30 1259 C 115.029 -3.19445 1.40555 0
M  V30 1260 C 116.377 -3.95171 1.55323 0
M  V30 1261 O 117.401 -3.28976 1.36577 0
M  V30 1262 O 116.26 -5.13833 1.86112 0
M  V30 1263 H 113.354 -0.788954 0.247951 0
M  V30 1264 H 115.9 -1.23179 1.16726 0
M  V30 1265 H 114.672 -3.05856 2.44065 0
M  V30 1266 H 114.295 -3.86625 0.927733 0
M  V30 1267 N 115.292 -0.849877 -1.32721 0
M  V30 1268 C 116.517 -0.463856 -2.02146 0
M  V30 1269 C 116.942 0.930449 -1.63476 0
M  V30 1270 O 116.3 1.61033 -0.832952 0
M  V30 1271 C 116.348 -0.604955 -3.55489 0
M  V30 1272 O 115.452 0.36425 -4.10788 0
M  V30 1273 H 114.793 -0.187046 -0.637111 0
M  V30 1274 H 117.323 -1.14775 -1.69375 0
M  V30 1275 H 117.333 -0.490696 -4.05038 0
M  V30 1276 H 116.008 -1.62174 -3.82978 0
M  V30 1277 H 114.585 0.206628 -3.72327 0
M  V30 1278 N 116.77 1.45427 -0.607355 0
M  V30 1279 C 117.995 2.07124 -0.107006 0
M  V30 1280 C 118.42 1.44906 1.19933 0
M  V30 1281 O 117.778 0.541687 1.73019 0
M  V30 1282 C 117.826 3.60595 0.0194119 0
M  V30 1283 O 116.93 3.98285 1.0697 0
M  V30 1284 H 116.271 0.659868 -0.0739597 0
M  V30 1285 H 118.801 1.86683 -0.837297 0
M  V30 1286 H 118.811 4.07419 0.2177 0
M  V30 1287 H 117.486 4.05266 -0.934453 0
M  V30 1288 H 116.063 3.63133 0.847889 0
M  V30 1289 N 118.248 0.346503 1.53744 0
M  V30 1290 C 119.196 -0.52422 2.26616 0
M  V30 1291 C 120.19 -1.09948 1.28871 0
M  V30 1292 O 121.396 -1.04488 1.46568 0
M  V30 1293 H 117.771 -0.187743 0.728187 0
M  V30 1294 H 119.742 0.11239 2.98188 0
M  V30 1295 C 118.491 -1.66186 3.05414 0
M  V30 1296 H 117.814 -1.22848 3.80458 0
M  V30 1297 H 119.254 -2.24622 3.59612 0
M  V30 1298 C 117.713 -2.59302 2.1509 0
M  V30 1299 O 118.243 -3.61628 1.74895 0
M  V30 1300 N 116.449 -2.28055 1.8011 0
M  V30 1301 H 115.996 -1.44883 2.12994 0
M  V30 1302 H 115.954 -2.90615 1.19958 0
M  V30 1303 N 119.726 -1.57421 0.075193 0
M  V30 1304 C 120.673 -2.12915 -0.890843 0
M  V30 1305 C 121.643 -1.04252 -1.29309 0
M  V30 1306 O 122.828 -1.31933 -1.37834 0
M  V30 1307 C 119.968 -2.69795 -2.15186 0
M  V30 1308 C 119.081 -3.92624 -1.80194 0
M  V30 1309 C 118.216 -4.37736 -3.00933 0
M  V30 1310 C 117.255 -5.53205 -2.61974 0
M  V30 1311 N 116.392 -5.9326 -3.75483 0
M  V30 1312 H 121.232 -2.95156 -0.410735 0
M  V30 1313 H 118.769 -1.45854 -0.191086 0
M  V30 1314 H 120.727 -3.00883 -2.89008 0
M  V30 1315 H 119.357 -1.90313 -2.60731 0
M  V30 1316 H 118.409 -3.67977 -0.964218 0
M  V30 1317 H 119.721 -4.76482 -1.47534 0
M  V30 1318 H 118.875 -4.70503 -3.8303 0
M  V30 1319 H 117.614 -3.52739 -3.36789 0
M  V30 1320 H 116.619 -5.20086 -1.783 0
M  V30 1321 H 117.844 -6.39936 -2.27284 0
M  V30 1322 H 115.79 -5.11212 -4.11094 0
M  V30 1323 H 115.707 -6.71865 -3.46602 0
M  V30 1324 H 116.975 -6.30651 -4.58148 0
M  V30 1325 N 121.204 0.198386 -1.56346 0
M  V30 1326 C 122.151 1.24589 -1.94284 0
M  V30 1327 C 123.121 1.454 -0.802997 0
M  V30 1328 O 124.306 1.58588 -1.06087 0
M  V30 1329 C 121.446 2.58631 -2.28482 0
M  V30 1330 C 120.559 2.45426 -3.55514 0
M  V30 1331 C 119.694 3.7215 -3.79049 0
M  V30 1332 C 118.733 3.53763 -4.99518 0
M  V30 1333 N 117.87 4.72491 -5.19323 0
M  V30 1334 H 122.71 0.915356 -2.83593 0
M  V30 1335 H 120.247 0.440629 -1.40346 0
M  V30 1336 H 122.205 3.3672 -2.46324 0
M  V30 1337 H 120.835 2.89734 -1.42317 0
M  V30 1338 H 119.887 1.58652 -3.45737 0
M  V30 1339 H 121.199 2.27772 -4.43758 0
M  V30 1340 H 120.353 4.58679 -3.97113 0
M  V30 1341 H 119.092 3.92754 -2.89129 0
M  V30 1342 H 118.097 2.65619 -4.8138 0
M  V30 1343 H 119.322 3.34607 -5.90944 0
M  V30 1344 H 117.268 4.93365 -4.3235 0
M  V30 1345 H 117.185 4.5765 -6.01741 0
M  V30 1346 H 118.453 5.6038 -5.41843 0
M  V30 1347 N 122.682 1.50554 0.465978 0
M  V30 1348 C 123.592 1.72585 1.58907 0
M  V30 1349 C 124.608 0.60911 1.6299 0
M  V30 1350 O 125.784 0.88804 1.80765 0
M  V30 1351 C 122.849 1.81995 2.95091 0
M  V30 1352 C 121.91 3.05751 3.01355 0
M  V30 1353 C 121.143 3.14702 4.31043 0
M  V30 1354 O 121.366 2.30313 5.21835 0
M  V30 1355 O 120.3 4.07468 4.43005 0
M  V30 1356 H 124.126 2.67799 1.43239 0
M  V30 1357 H 121.711 1.34711 0.646013 0
M  V30 1358 H 123.593 1.90335 3.75966 0
M  V30 1359 H 122.268 0.899659 3.10947 0
M  V30 1360 H 121.175 3.02908 2.19539 0
M  V30 1361 H 122.508 3.97375 2.90437 0
M  V30 1362 N 124.16 -0.719506 1.40217 0
M  V30 1363 C 125.107 -1.83359 1.40172 0
M  V30 1364 C 126.077 -1.64065 0.259206 0
M  V30 1365 O 127.262 -1.85254 0.456677 0
M  V30 1366 C 124.402 -3.2103 1.26624 0
M  V30 1367 C 123.515 -3.51923 2.50548 0
M  V30 1368 C 122.65 -4.79079 2.29471 0
M  V30 1369 C 121.689 -5.02863 3.48992 0
M  V30 1370 N 120.826 -6.2123 3.27135 0
M  V30 1371 H 125.666 -1.82733 2.35399 0
M  V30 1372 H 123.203 -0.892688 1.16917 0
M  V30 1373 H 125.161 -4.00524 1.16776 0
M  V30 1374 H 123.791 -3.20895 0.350176 0
M  V30 1375 H 122.843 -2.67014 2.70939 0
M  V30 1376 H 124.155 -3.6541 3.39525 0
M  V30 1377 H 123.309 -5.66582 2.16955 0
M  V30 1378 H 122.048 -4.67794 1.37913 0
M  V30 1379 H 121.053 -4.13816 3.6199 0
M  V30 1380 H 122.278 -5.16023 4.41472 0
M  V30 1381 H 120.224 -6.11204 2.38256 0
M  V30 1382 H 120.141 -6.35375 4.09675 0
M  V30 1383 H 121.409 -7.11532 3.18344 0
M  V30 1384 N 125.638 -1.25649 -0.95132 0
M  V30 1385 C 126.585 -1.06323 -2.04851 0
M  V30 1386 C 127.555 0.0286491 -1.66075 0
M  V30 1387 O 128.74 -0.12917 -1.90362 0
M  V30 1388 C 125.88 -0.691529 -3.381 0
M  V30 1389 C 124.993 -1.85861 -3.89974 0
M  V30 1390 C 124.128 -1.43096 -5.11563 0
M  V30 1391 C 123.167 -2.56696 -5.55674 0
M  V30 1392 N 122.304 -2.14684 -6.68472 0
M  V30 1393 H 127.144 -2.00222 -2.20715 0
M  V30 1394 H 124.681 -0.997027 -1.08156 0
M  V30 1395 H 126.639 -0.456963 -4.1469 0
M  V30 1396 H 125.269 0.210474 -3.22113 0
M  V30 1397 H 124.321 -2.20639 -3.09875 0
M  V30 1398 H 125.633 -2.71161 -4.18657 0
M  V30 1399 H 124.787 -1.15624 -5.9558 0
M  V30 1400 H 123.526 -0.548722 -4.84603 0
M  V30 1401 H 122.531 -2.84909 -4.7022 0
M  V30 1402 H 123.756 -3.45503 -5.8464 0
M  V30 1403 H 121.702 -1.28881 -6.43215 0
M  V30 1404 H 121.619 -2.9353 -6.96689 0
M  V30 1405 H 122.887 -1.90397 -7.5589 0
M  V30 1406 N 127.117 1.15442 -1.07289 0
M  V30 1407 C 128.363 1.86489 -0.796846 0
M  V30 1408 C 128.696 1.82078 0.675371 0
M  V30 1409 O 127.971 1.24346 1.4956 0
M  V30 1410 C 128.254 3.35626 -1.30489 0
M  V30 1411 C 128.107 3.48673 -2.84161 0
M  V30 1412 C 129.426 4.30357 -0.920907 0
M  V30 1413 H 126.545 0.677144 -0.290939 0
M  V30 1414 H 129.187 1.35633 -1.33056 0
M  V30 1415 H 127.337 3.79068 -0.850883 0
M  V30 1416 H 129.009 3.14099 -3.37846 0
M  V30 1417 H 127.252 2.90253 -3.22391 0
M  V30 1418 H 127.923 4.53453 -3.14777 0
M  V30 1419 H 130.399 3.94871 -1.3121 0
M  V30 1420 H 129.275 5.33193 -1.30372 0
M  V30 1421 H 129.536 4.4176 0.173226 0
M  V30 1422 N 128.595 0.856903 1.32268 0
M  V30 1423 C 129.525 0.31858 2.31316 0
M  V30 1424 C 130.506 -0.583487 1.59779 0
M  V30 1425 O 131.691 -0.503259 1.87566 0
M  V30 1426 C 128.821 -0.491979 3.43798 0
M  V30 1427 C 127.775 0.315849 4.26833 0
M  V30 1428 C 127.101 -0.619586 5.31098 0
M  V30 1429 C 128.401 1.54282 4.98993 0
M  V30 1430 H 130.095 1.14621 2.76591 0
M  V30 1431 H 127.641 0.552613 1.32974 0
M  V30 1432 H 129.594 -0.879012 4.1213 0
M  V30 1433 H 128.318 -1.35299 2.97257 0
M  V30 1434 H 126.977 0.684664 3.6015 0
M  V30 1435 H 126.625 -1.47751 4.8081 0
M  V30 1436 H 126.325 -0.0830621 5.87541 0
M  V30 1437 H 127.849 -1.00375 6.02293 0
M  V30 1438 H 129.263 1.22796 5.59995 0
M  V30 1439 H 127.66 2.01745 5.65172 0
M  V30 1440 H 128.73 2.30285 4.26728 0
M  V30 1441 N 130.073 -1.45103 0.615059 0
M  V30 1442 C 131.021 -2.32331 -0.111791 0
M  V30 1443 C 132.015 -1.46409 -0.852102 0
M  V30 1444 O 133.221 -1.62849 -0.766821 0
M  V30 1445 H 129.596 -0.749993 -0.0549072 0
M  V30 1446 H 131.567 -2.91407 0.642225 0
M  V30 1447 C 130.316 -3.3015 -1.09071 0
M  V30 1448 H 129.639 -3.96265 -0.530485 0
M  V30 1449 H 131.079 -3.93898 -1.56908 0
M  V30 1450 C 129.538 -2.57875 -2.168 0
M  V30 1451 O 130.068 -2.36567 -3.24652 0
M  V30 1452 N 128.274 -2.17884 -1.92289 0
M  V30 1453 H 127.821 -2.35413 -1.04587 0
M  V30 1454 H 127.779 -1.6985 -2.64572 0
M  V30 1455 N 131.551 -0.354651 -1.53558 0
M  V30 1456 C 132.501 0.513179 -2.2215 0
M  V30 1457 C 133.485 1.05734 -1.21281 0
M  V30 1458 O 134.677 0.989202 -1.46778 0
M  V30 1459 C 131.806 1.65798 -3.00609 0
M  V30 1460 C 130.892 1.12722 -4.08845 0
M  V30 1461 N 131.283 0.318563 -5.04796 0
M  V30 1462 C 129.581 1.40307 -4.23356 0
M  V30 1463 C 130.282 0.0292224 -5.81693 0
M  V30 1464 N 129.258 0.623891 -5.40008 0
M  V30 1465 H 133.06 -0.111586 -2.93688 0
M  V30 1466 H 130.574 -0.162091 -1.61589 0
M  V30 1467 H 132.571 2.29176 -3.48258 0
M  V30 1468 H 131.231 2.28591 -2.306 0
M  V30 1469 H 132.242 -0.0413091 -5.17884 0
M  V30 1470 H 128.919 2.03458 -3.6457 0
M  V30 1471 H 130.309 -0.623808 -6.68998 0
M  V30 1472 N 133.029 1.57378 -0.0835403 0
M  V30 1473 C 134.277 1.93547 0.581718 0
M  V30 1474 C 134.598 0.96524 1.69435 0
M  V30 1475 O 133.868 0.0153369 1.95894 0
M  V30 1476 H 132.448 0.714521 0.217874 0
M  V30 1477 H 135.11 1.94366 -0.144158 0
M  V30 1478 H 134.206 2.95665 0.999423 0
M  V30 1479 N 134.507 -0.190092 1.56449 0
M  V30 1480 C 135.737 -0.92443 1.84764 0
M  V30 1481 C 136.145 -1.77146 0.664529 0
M  V30 1482 O 135.488 -1.79812 -0.375957 0
M  V30 1483 C 135.55 -1.86651 3.07248 0
M  V30 1484 C 135.214 -1.20094 4.40938 0
M  V30 1485 C 136.211 -0.575445 5.16706 0
M  V30 1486 C 133.896 -1.2033 4.87674 0
M  V30 1487 C 135.89 0.0388111 6.37388 0
M  V30 1488 C 133.577 -0.585214 6.08291 0
M  V30 1489 C 134.575 0.0347578 6.82991 0
M  V30 1490 O 134.263 0.643147 8.01323 0
M  V30 1491 H 133.995 -0.274974 0.617548 0
M  V30 1492 H 136.549 -0.200788 2.04416 0
M  V30 1493 H 134.779 -2.62998 2.83494 0
M  V30 1494 H 136.468 -2.46907 3.22167 0
M  V30 1495 H 137.234 -0.565728 4.81689 0
M  V30 1496 H 133.113 -1.67526 4.29484 0
M  V30 1497 H 136.657 0.523329 6.95634 0
M  V30 1498 H 132.554 -0.592451 6.42775 0
M  V30 1499 H 133.322 0.540545 8.16713 0
M  V30 1500 N 135.985 -1.50799 -0.457987 0
M  V30 1501 C 137.262 -1.52968 -1.21902 0
M  V30 1502 C 137.642 -0.281906 -2.09209 0
M  V30 1503 O 136.99 0.734076 -2.16388 0
M  V30 1504 C 137.2 -2.8326 -2.03875 0
M  V30 1505 C 138.548 -3.34425 -2.6162 0
M  V30 1506 O 139.572 -2.8467 -2.14106 0
M  V30 1507 O 138.431 -4.21188 -3.48228 0
M  V30 1508 H 135.525 -0.614129 -0.553873 0
M  V30 1509 H 138.071 -1.63098 -0.468739 0
M  V30 1510 H 136.843 -3.65543 -1.39621 0
M  V30 1511 H 136.466 -2.76195 -2.8601 0
M  V30 1512 N 137.463 0.71206 -1.40597 0
M  V30 1513 C 138.74 1.46536 -1.29563 0
M  V30 1514 C 139.12 2.10931 0.0844217 0
M  V30 1515 O 138.468 2.00418 1.0975 0
M  V30 1516 C 138.678 2.49821 -2.43701 0
M  V30 1517 C 140.026 3.15551 -2.841 0
M  V30 1518 O 141.05 2.60142 -2.4332 0
M  V30 1519 O 139.909 4.15867 -3.54566 0
M  V30 1520 H 137.003 0.651801 -0.509004 0
M  V30 1521 H 139.549 0.743935 -1.52524 0
M  V30 1522 H 138.321 2.00778 -3.35863 0
M  V30 1523 H 137.944 3.29495 -2.22528 0
M  V30 1524 N 138.941 1.26152 0.944643 0
M  V30 1525 C 140.218 1.02247 1.66748 0
M  V30 1526 C 140.598 -0.448202 2.06287 0
M  V30 1527 O 139.946 -1.42779 1.78399 0
M  V30 1528 C 140.156 1.96788 2.88228 0
M  V30 1529 C 141.504 2.25201 3.59958 0
M  V30 1530 O 142.528 1.94626 2.98327 0
M  V30 1531 O 141.387 2.77242 4.70956 0
M  V30 1532 H 138.481 0.388517 0.730057 0
M  V30 1533 H 141.027 1.37348 0.99668 0
M  V30 1534 H 139.799 2.96047 2.55875 0
M  V30 1535 H 139.422 1.62145 3.63035 0
M  V30 1536 N 140.419 -1.14872 1.07899 0
M  V30 1537 C 141.367 -2.21857 0.698727 0
M  V30 1538 C 142.361 -1.66845 -0.293086 0
M  V30 1539 O 143.567 -1.79321 -0.156204 0
M  V30 1540 H 139.942 -0.722691 0.207899 0
M  V30 1541 H 141.913 -2.51205 1.61054 0
M  V30 1542 C 140.662 -3.47498 0.11858 0
M  V30 1543 H 139.985 -3.90154 0.872914 0
M  V30 1544 H 141.425 -4.23858 -0.109759 0
M  V30 1545 C 139.884 -3.16947 -1.1422 0
M  V30 1546 O 140.414 -3.3426 -2.22785 0
M  V30 1547 N 138.62 -2.70946 -1.05055 0
M  V30 1548 H 138.167 -2.57058 -0.167038 0
M  V30 1549 H 138.125 -2.50879 -1.89491 0
M  V30 1550 N 141.898 -0.863906 -1.31812 0
M  V30 1551 C 142.848 -0.286898 -2.26188 0
M  V30 1552 C 143.832 0.572577 -1.50367 0
M  V30 1553 O 145.024 0.420447 -1.71934 0
M  V30 1554 C 142.153 0.515849 -3.39402 0
M  V30 1555 C 141.239 -0.356531 -4.22599 0
M  V30 1556 N 141.63 -1.44716 -4.84656 0
M  V30 1557 C 139.928 -0.147898 -4.45755 0
M  V30 1558 C 140.629 -1.98462 -5.46798 0
M  V30 1559 N 139.605 -1.28247 -5.28255 0
M  V30 1560 H 143.407 -1.12055 -2.717 0
M  V30 1561 H 140.921 -0.711012 -1.46008 0
M  V30 1562 H 142.918 0.945701 -4.06032 0
M  V30 1563 H 141.578 1.34718 -2.95434 0
M  V30 1564 H 142.589 -1.83008 -4.84488 0
M  V30 1565 H 139.266 0.647973 -4.12441 0
M  V30 1566 H 140.656 -2.89932 -6.06126 0
M  V30 1567 N 143.376 1.44774 -0.622745 0
M  V30 1568 C 144.653 1.95522 -0.0551974 0
M  V30 1569 C 145.033 1.5649 1.41683 0
M  V30 1570 O 144.381 0.834848 2.12703 0
M  V30 1571 C 144.591 3.4796 -0.269242 0
M  V30 1572 C 145.939 4.24306 -0.158014 0
M  V30 1573 O 146.963 3.55637 -0.200162 0
M  V30 1574 O 145.822 5.46471 -0.0558693 0
M  V30 1575 H 142.916 0.826556 0.0271015 0
M  V30 1576 H 145.462 1.54866 -0.693864 0
M  V30 1577 H 144.234 3.6939 -1.29099 0
M  V30 1578 H 143.857 3.95543 0.403966 0
M  V30 1579 N 144.854 0.36279 1.53368 0
M  V30 1580 C 146.084 -0.228281 2.05335 0
M  V30 1581 C 146.492 -1.43226 1.23625 0
M  V30 1582 O 145.835 -1.81717 0.269206 0
M  V30 1583 C 145.897 -0.688549 3.52845 0
M  V30 1584 C 145.561 0.398362 4.5526 0
M  V30 1585 C 146.558 1.24732 5.04716 0
M  V30 1586 C 144.243 0.557805 4.99193 0
M  V30 1587 C 146.237 2.2411 5.96702 0
M  V30 1588 C 143.924 1.55495 5.90986 0
M  V30 1589 C 144.922 2.39503 6.39631 0
M  V30 1590 O 144.61 3.37517 7.29615 0
M  V30 1591 H 144.342 -0.044395 0.674541 0
M  V30 1592 H 146.896 0.518668 1.98744 0
M  V30 1593 H 145.126 -1.48706 3.56964 0
M  V30 1594 H 146.815 -1.20231 3.87685 0
M  V30 1595 H 147.581 1.13532 4.71525 0
M  V30 1596 H 143.46 -0.0862959 4.60919 0
M  V30 1597 H 147.004 2.89718 6.34594 0
M  V30 1598 H 142.901 1.66744 6.23592 0
M  V30 1599 H 143.669 3.33213 7.47604 0
M  V30 1600 N 146.332 -1.57332 0.0918853 0
M  V30 1601 C 147.581 -1.93412 -0.572249 0
M  V30 1602 C 147.894 -0.975515 -1.69538 0
M  V30 1603 O 149.1 -1.22991 -2.42045 0
M  V30 1604 C 147.556 -3.43648 -1.0693 0
M  V30 1605 C 147.164 -4.47994 0.0239049 0
M  V30 1606 C 148.908 -3.88695 -1.70635 0
M  V30 1607 C 146.815 -5.89381 -0.488319 0
M  V30 1608 H 145.745 -0.721939 -0.217532 0
M  V30 1609 H 148.396 -1.82735 0.167369 0
M  V30 1610 H 146.778 -3.49466 -1.8625 0
M  V30 1611 H 147.952 -4.53815 0.799277 0
M  V30 1612 H 146.267 -4.12536 0.565946 0
M  V30 1613 H 148.864 -4.91725 -2.10025 0
M  V30 1614 H 149.207 -3.27166 -2.57426 0
M  V30 1615 H 149.74 -3.85564 -0.979023 0
M  V30 1616 H 146.479 -6.54602 0.342906 0
M  V30 1617 H 145.999 -5.87037 -1.23077 0
M  V30 1618 H 147.678 -6.39863 -0.958317 0
M  V30 1619 N 147.81 0.181792 -1.56548 0
M  V30 1620 C 149.056 0.901431 -1.81665 0
M  V30 1621 C 149.389 1.82347 -0.668075 0
M  V30 1622 O 148.664 1.91669 0.330615 0
M  V30 1623 C 148.947 1.70618 -3.17115 0
M  V30 1624 C 148.8 0.807964 -4.42484 0
M  V30 1625 C 150.119 2.67605 -3.49393 0
M  V30 1626 H 147.238 0.32627 -0.660846 0
M  V30 1627 H 149.88 0.168134 -1.89255 0
M  V30 1628 H 148.03 2.33133 -3.10775 0
M  V30 1629 H 149.702 0.19649 -4.60881 0
M  V30 1630 H 147.945 0.115411 -4.33646 0
M  V30 1631 H 148.616 1.40632 -5.33785 0
M  V30 1632 H 151.092 2.15218 -3.56118 0
M  V30 1633 H 149.968 3.20985 -4.45264 0
M  V30 1634 H 150.229 3.47298 -2.73563 0
M  V30 1635 N 149.288 1.51039 0.449983 0
M  V30 1636 C 150.704 1.38934 0.785462 0
M  V30 1637 C 150.904 0.461817 1.96136 0
M  V30 1638 O 149.96 -0.0877389 2.52348 0
M  V30 1639 C 151.273 2.80724 1.0777 0
M  V30 1640 C 152.821 2.89787 1.1829 0
M  V30 1641 C 153.296 4.32457 1.50815 0
M  V30 1642 N 154.787 4.35505 1.57764 0
M  V30 1643 C 155.522 5.42914 1.84477 0
M  V30 1644 N 155.018 6.60502 2.09068 0
M  V30 1645 N 156.811 5.3038 1.86155 0
M  V30 1646 H 148.962 2.09904 -0.324647 0
M  V30 1647 H 151.225 0.944378 -0.0827957 0
M  V30 1648 H 150.931 3.50531 0.286498 0
M  V30 1649 H 150.805 3.19273 2.00859 0
M  V30 1650 H 153.192 2.20186 1.96474 0
M  V30 1651 H 153.273 2.54752 0.231314 0
M  V30 1652 H 152.917 5.02603 0.731622 0
M  V30 1653 H 152.847 4.64995 2.47158 0
M  V30 1654 H 155.338 3.50724 1.40715 0
M  V30 1655 H 155.651 7.38158 2.28785 0
M  V30 1656 H 153.996 6.63639 2.06416 0
M  V30 1657 H 157.187 4.37505 1.66454 0
M  V30 1658 H 157.36 6.1417 2.06637 0
M  V30 1659 N 150.766 -0.704594 1.40972 0
M  V30 1660 C 151.991 -1.49858 1.43378 0
M  V30 1661 C 152.416 -1.88061 0.038184 0
M  V30 1662 O 151.774 -1.5402 -0.956425 0
M  V30 1663 C 151.822 -2.74333 2.34038 0
M  V30 1664 O 150.926 -3.7147 1.7912 0
M  V30 1665 H 150.267 -0.45139 0.486974 0
M  V30 1666 H 152.797 -0.866832 1.8533 0
M  V30 1667 H 152.807 -3.22741 2.49604 0
M  V30 1668 H 151.482 -2.45863 3.35446 0
M  V30 1669 H 150.059 -3.30363 1.72958 0
M  V30 1670 N 152.244 -1.26651 -0.937939 0
M  V30 1671 C 153.492 -1.12165 -1.68118 0
M  V30 1672 C 153.813 0.334983 -1.92101 0
M  V30 1673 O 153.083 1.23583 -1.52 0
M  V30 1674 H 151.663 -0.412093 -0.623048 0
M  V30 1675 H 154.325 -1.59027 -1.12678 0
M  V30 1676 H 153.421 -1.64289 -2.6536 0
M  V30 1677 N 153.722 1.14298 -1.08507 0
M  V30 1678 C 154.632 2.23027 -0.727753 0
M  V30 1679 C 155.648 1.71952 0.26619 0
M  V30 1680 O 156.824 2.011 0.109882 0
M  V30 1681 C 153.889 3.46403 -0.143541 0
M  V30 1682 C 152.95 4.12413 -1.19223 0
M  V30 1683 C 152.183 5.29899 -0.635798 0
M  V30 1684 O 152.406 5.67796 0.544393 0
M  V30 1685 O 151.34 5.85717 -1.38634 0
M  V30 1686 H 155.166 2.55945 -1.63481 0
M  V30 1687 H 152.751 1.22248 -0.858817 0
M  V30 1688 H 154.633 4.21018 0.179404 0
M  V30 1689 H 153.308 3.15206 0.736659 0
M  V30 1690 H 152.215 3.39667 -1.56772 0
M  V30 1691 H 153.548 4.47718 -2.04474 0
M  V30 1692 N 155.201 0.870884 1.31352 0
M  V30 1693 C 156.617 0.562932 1.49343 0
M  V30 1694 C 156.817 -0.902725 1.80148 0
M  V30 1695 O 155.873 -1.68484 1.88067 0
M  V30 1696 C 157.186 1.46393 2.62659 0
M  V30 1697 C 158.734 1.46607 2.76542 0
M  V30 1698 C 159.209 2.35266 3.92955 0
M  V30 1699 N 160.7 2.33151 4.00243 0
M  V30 1700 C 161.435 2.98471 4.89594 0
M  V30 1701 N 160.931 3.72964 5.8384 0
M  V30 1702 N 162.724 2.87775 4.82848 0
M  V30 1703 H 154.875 1.81923 1.09626 0
M  V30 1704 H 157.138 0.777934 0.541777 0
M  V30 1705 H 156.844 2.50689 2.46674 0
M  V30 1706 H 156.718 1.16314 3.58819 0
M  V30 1707 H 159.105 0.43069 2.9194 0
M  V30 1708 H 159.186 1.8071 1.81046 0
M  V30 1709 H 158.83 3.38881 3.78315 0
M  V30 1710 H 158.76 1.98487 4.87761 0
M  V30 1711 H 161.251 1.79006 3.32814 0
M  V30 1712 H 161.564 4.19932 6.4875 0
M  V30 1713 H 159.909 3.77073 5.83816 0
M  V30 1714 H 163.1 2.29116 4.08195 0
M  V30 1715 H 163.273 3.38961 5.52277 0
M  V30 1716 N 156.679 -1.44442 0.630414 0
M  V30 1717 C 157.925 -2.02894 0.143332 0
M  V30 1718 C 158.28 -1.48697 -1.22094 0
M  V30 1719 O 157.573 -0.661171 -1.79831 0
M  V30 1720 C 157.767 -3.57332 0.0697835 0
M  V30 1721 C 157.596 -4.26512 1.42539 0
M  V30 1722 C 156.366 -4.63516 2.01198 0
M  V30 1723 C 158.564 -4.57004 2.35907 0
M  V30 1724 N 156.546 -5.17661 3.30001 0
M  V30 1725 C 157.917 -5.12223 3.49324 0
M  V30 1726 C 159.972 -4.38955 2.34995 0
M  V30 1727 C 158.675 -5.51295 4.62024 0
M  V30 1728 C 160.701 -4.79075 3.46758 0
M  V30 1729 C 160.063 -5.34407 4.58899 0
M  V30 1730 H 156.162 -0.776041 0.0963523 0
M  V30 1731 H 158.746 -1.75945 0.833752 0
M  V30 1732 H 156.917 -3.83894 -0.589915 0
M  V30 1733 H 158.649 -4.02451 -0.42606 0
M  V30 1734 H 155.404 -4.47811 1.54151 0
M  V30 1735 H 155.828 -5.4921 3.95851 0
M  V30 1736 H 160.47 -3.95469 1.49545 0
M  V30 1737 H 158.188 -5.93736 5.48182 0
M  V30 1738 H 161.774 -4.66824 3.47227 0
M  V30 1739 H 160.654 -5.64878 5.4395 0
M  V30 1740 N 158.157 -0.370918 -1.53173 0
M  V30 1741 C 159.087 0.464847 -2.28826 0
M  V30 1742 C 160.068 1.07936 -1.31468 0
M  V30 1743 O 161.253 1.0956 -1.60344 0
M  V30 1744 C 158.383 1.60196 -3.08147 0
M  V30 1745 C 157.337 1.11443 -4.13237 0
M  V30 1746 C 156.663 2.3422 -4.80672 0
M  V30 1747 C 157.963 0.195384 -5.21934 0
M  V30 1748 H 159.657 -0.166329 -2.98938 0
M  V30 1749 H 157.203 -0.0814359 -1.4377 0
M  V30 1750 H 159.156 2.19332 -3.59822 0
M  V30 1751 H 157.88 2.26045 -2.35735 0
M  V30 1752 H 156.539 0.545727 -3.62515 0
M  V30 1753 H 156.187 2.98537 -4.04827 0
M  V30 1754 H 155.887 2.02269 -5.51689 0
M  V30 1755 H 157.411 2.94032 -5.35143 0
M  V30 1756 H 158.825 0.694375 -5.69079 0
M  V30 1757 H 157.222 -0.0335027 -6.00091 0
M  V30 1758 H 158.292 -0.760961 -4.78892 0
M  V30 1759 N 159.635 1.57281 -0.100228 0
M  V30 1760 C 160.545 2.17833 0.870965 0
M  V30 1761 C 161.561 1.14921 1.30649 0
M  V30 1762 O 162.737 1.47313 1.37335 0
M  V30 1763 C 159.802 2.75085 2.1102 0
M  V30 1764 C 158.863 3.9297 1.72838 0
M  V30 1765 C 158.096 4.47482 2.90854 0
M  V30 1766 O 158.319 4.00922 4.05731 0
M  V30 1767 O 157.253 5.38433 2.69023 0
M  V30 1768 H 161.079 3.0124 0.38575 0
M  V30 1769 H 158.664 1.48881 0.124397 0
M  V30 1770 H 160.546 3.11656 2.83634 0
M  V30 1771 H 159.221 1.94721 2.58584 0
M  V30 1772 H 158.128 3.61201 0.973883 0
M  V30 1773 H 159.461 4.74713 1.30033 0
M  V30 1774 N 161.113 -0.173488 1.56642 0
M  V30 1775 C 162.529 -0.525174 1.50712 0
M  V30 1776 C 162.729 -1.8476 0.804107 0
M  V30 1777 O 161.785 -2.49869 0.363574 0
M  V30 1778 C 163.098 -0.559937 2.95441 0
M  V30 1779 C 164.646 -0.647288 3.06234 0
M  V30 1780 C 165.121 -0.712963 4.52417 0
M  V30 1781 N 166.612 -0.775911 4.56655 0
M  V30 1782 C 167.347 -0.847264 5.67106 0
M  V30 1783 N 166.843 -0.879585 6.87194 0
M  V30 1784 N 168.636 -0.886117 5.55071 0
M  V30 1785 H 160.787 0.693681 2.00753 0
M  V30 1786 H 163.05 0.249841 0.914485 0
M  V30 1787 H 162.756 0.343049 3.50023 0
M  V30 1788 H 162.63 -1.40718 3.49969 0
M  V30 1789 H 165.017 -1.5407 2.51687 0
M  V30 1790 H 165.098 0.226586 2.54794 0
M  V30 1791 H 164.742 0.176183 5.07594 0
M  V30 1792 H 164.672 -1.60295 5.0161 0
M  V30 1793 H 167.163 -0.759304 3.70193 0
M  V30 1794 H 167.476 -0.935144 7.67121 0
M  V30 1795 H 165.821 -0.847898 6.89808 0
M  V30 1796 H 169.012 -0.857853 4.60172 0
M  V30 1797 H 169.185 -0.938263 6.41171 0
M  V30 1798 N 162.591 -1.51276 -0.441967 0
M  V30 1799 C 163.821 -1.67273 -1.21257 0
M  V30 1800 C 164.229 -0.367624 -1.85594 0
M  V30 1801 O 163.572 0.663349 -1.71305 0
M  V30 1802 C 163.634 -2.72807 -2.34129 0
M  V30 1803 C 163.298 -4.1554 -1.90198 0
M  V30 1804 C 164.295 -5.00471 -1.40801 0
M  V30 1805 C 161.98 -4.61616 -1.9803 0
M  V30 1806 C 163.974 -6.29536 -0.998174 0
M  V30 1807 C 161.661 -5.90679 -1.56658 0
M  V30 1808 C 162.659 -6.74466 -1.07633 0
M  V30 1809 O 162.347 -8.01116 -0.668459 0
M  V30 1810 H 162.079 -0.564614 -0.371734 0
M  V30 1811 H 164.633 -1.9843 -0.530521 0
M  V30 1812 H 162.863 -2.36954 -3.05597 0
M  V30 1813 H 164.552 -2.77729 -2.96009 0
M  V30 1814 H 165.318 -4.66079 -1.34148 0
M  V30 1815 H 161.197 -3.96526 -2.35135 0
M  V30 1816 H 164.741 -6.94885 -0.61482 0
M  V30 1817 H 160.638 -6.24586 -1.62979 0
M  V30 1818 H 161.406 -8.14633 -0.794722 0
M  V30 1819 N 164.069 0.697108 -1.41344 0
M  V30 1820 C 164.979 1.84088 -1.45427 0
M  V30 1821 C 165.995 1.70545 -0.34501 0
M  V30 1822 O 167.171 1.92488 -0.592492 0
M  V30 1823 C 164.236 3.20056 -1.33286 0
M  V30 1824 C 163.297 3.45718 -2.54514 0
M  V30 1825 C 162.53 4.75199 -2.42944 0
M  V30 1826 O 162.753 5.51579 -1.45318 0
M  V30 1827 O 161.687 5.0161 -3.32672 0
M  V30 1828 H 165.513 1.836 -2.41919 0
M  V30 1829 H 163.098 0.849966 -1.22866 0
M  V30 1830 H 164.98 4.01236 -1.28794 0
M  V30 1831 H 163.655 3.2123 -0.39909 0
M  V30 1832 H 162.562 2.64474 -2.64583 0
M  V30 1833 H 163.895 3.49356 -3.46715 0
M  V30 1834 N 165.547 1.27147 0.931209 0
M  V30 1835 C 166.796 1.12664 1.67302 0
M  V30 1836 C 167.109 -0.327718 1.92835 0
M  V30 1837 O 168.315 -0.593392 2.64936 0
M  V30 1838 C 166.771 1.9683 3.01307 0
M  V30 1839 C 166.379 3.46901 2.83485 0
M  V30 1840 C 168.123 1.90985 3.79111 0
M  V30 1841 C 166.03 4.23279 4.13024 0
M  V30 1842 H 164.96 0.41803 0.627509 0
M  V30 1843 H 167.611 1.51539 1.03481 0
M  V30 1844 H 165.993 1.50797 3.66164 0
M  V30 1845 H 167.167 4.00773 2.27415 0
M  V30 1846 H 165.482 3.54088 2.19113 0
M  V30 1847 H 168.079 2.45328 4.75098 0
M  V30 1848 H 168.422 0.882718 4.06834 0
M  V30 1849 H 168.955 2.34895 3.21044 0
M  V30 1850 H 165.694 5.26503 3.90481 0
M  V30 1851 H 165.214 3.74186 4.6877 0
M  V30 1852 H 166.893 4.32265 4.81411 0
M  V30 1853 N 167.025 -1.13721 1.09112 0
M  V30 1854 C 168.302 -1.81155 0.737706 0
M  V30 1855 C 168.682 -1.96253 -0.777683 0
M  V30 1856 O 168.03 -1.52807 -1.69889 0
M  V30 1857 C 168.24 -3.16392 1.47299 0
M  V30 1858 C 169.588 -3.91787 1.63671 0
M  V30 1859 O 170.612 -3.26005 1.43524 0
M  V30 1860 O 169.471 -5.0977 1.96969 0
M  V30 1861 H 166.565 -0.783518 0.26463 0
M  V30 1862 H 169.111 -1.20676 1.19312 0
M  V30 1863 H 167.883 -3.0061 2.50498 0
M  V30 1864 H 167.506 -3.8457 1.00953 0
M  V30 1865 N 168.503 -0.877838 -1.30888 0
M  V30 1866 C 169.728 -0.506629 -2.01117 0
M  V30 1867 C 170.153 0.895564 -1.65412 0
M  V30 1868 O 169.511 1.5923 -0.866922 0
M  V30 1869 C 169.559 -0.680223 -3.54126 0
M  V30 1870 O 168.663 0.277033 -4.11468 0
M  V30 1871 H 168.004 -0.200518 -0.633 0
M  V30 1872 H 170.534 -1.18342 -1.66902 0
M  V30 1873 H 170.544 -0.5765 -4.03907 0
M  V30 1874 H 169.219 -1.70261 -3.79452 0
M  V30 1875 H 167.796 0.127606 -3.72682 0
M  V30 1876 N 169.982 1.44106 -0.638065 0
M  V30 1877 C 170.912 2.33448 0.0494287 0
M  V30 1878 C 171.893 1.48606 0.827672 0
M  V30 1879 O 173.078 1.77308 0.792173 0
M  V30 1880 C 170.208 3.31771 1.02691 0
M  V30 1881 C 169.162 4.26485 0.359823 0
M  V30 1882 C 168.488 5.14729 1.44769 0
M  V30 1883 C 169.788 5.17056 -0.738296 0
M  V30 1884 H 171.482 2.91183 -0.696636 0
M  V30 1885 H 169.028 1.40014 -0.336456 0
M  V30 1886 H 170.981 3.93161 1.51666 0
M  V30 1887 H 169.705 2.7226 1.80395 0
M  V30 1888 H 168.364 3.66437 -0.10934 0
M  V30 1889 H 168.012 4.51566 2.21578 0
M  V30 1890 H 167.712 5.78913 1.00668 0
M  V30 1891 H 169.236 5.78991 1.93911 0
M  V30 1892 H 170.65 5.72342 -0.331354 0
M  V30 1893 H 169.047 5.89879 -1.10286 0
M  V30 1894 H 170.117 4.57652 -1.60258 0
M  V30 1895 N 171.46 0.379036 1.52974 0
M  V30 1896 C 172.709 -0.207612 2.00629 0
M  V30 1897 C 173.022 -1.48758 1.27006 0
M  V30 1898 O 174.228 -2.15365 1.65318 0
M  V30 1899 C 172.684 -0.42053 3.57435 0
M  V30 1900 C 172.292 0.845587 4.39948 0
M  V30 1901 C 174.036 -0.964102 4.13407 0
M  V30 1902 C 171.943 0.601513 5.88333 0
M  V30 1903 H 170.873 -0.0813591 0.749598 0
M  V30 1904 H 173.524 0.499853 1.76561 0
M  V30 1905 H 171.906 -1.18959 3.7771 0
M  V30 1906 H 173.08 1.61848 4.31442 0
M  V30 1907 H 171.395 1.31336 3.95145 0
M  V30 1908 H 173.992 -1.16225 5.21916 0
M  V30 1909 H 174.335 -1.93019 3.68849 0
M  V30 1910 H 174.868 -0.25487 3.96983 0
M  V30 1911 H 171.607 1.53831 6.37194 0
M  V30 1912 H 171.127 -0.132628 5.99653 0
M  V30 1913 H 172.806 0.232134 6.46583 0
M  V30 1914 N 172.938 -1.57226 0.108567 0
M  V30 1915 C 174.186 -1.94448 -0.550853 0
M  V30 1916 C 174.507 -0.992074 -1.67878 0
M  V30 1917 O 173.777 -0.0465 -1.95845 0
M  V30 1918 H 172.357 -0.717897 -0.206479 0
M  V30 1919 H 175.019 -1.94112 0.175062 0
M  V30 1920 H 174.115 -2.97218 -0.952259 0
M  V30 1921 N 174.416 0.165178 -1.56732 0
M  V30 1922 C 175.363 1.2044 -1.96883 0
M  V30 1923 C 176.333 1.43664 -0.833657 0
M  V30 1924 O 177.518 1.56302 -1.09427 0
M  V30 1925 C 174.658 2.53727 -2.33916 0
M  V30 1926 C 173.771 2.3783 -3.6064 0
M  V30 1927 C 172.906 3.64026 -3.86857 0
M  V30 1928 C 171.945 3.43088 -5.06909 0
M  V30 1929 N 171.082 4.61369 -5.29229 0
M  V30 1930 H 175.922 0.854996 -2.85471 0
M  V30 1931 H 173.459 0.41076 -1.41249 0
M  V30 1932 H 175.417 3.31419 -2.53411 0
M  V30 1933 H 174.047 2.8665 -1.48431 0
M  V30 1934 H 173.099 1.51282 -3.49024 0
M  V30 1935 H 174.411 2.18308 -4.4849 0
M  V30 1936 H 173.565 4.50152 -4.06753 0
M  V30 1937 H 172.304 3.86533 -2.97394 0
M  V30 1938 H 171.309 2.55349 -4.86906 0
M  V30 1939 H 172.534 3.21997 -5.97909 0
M  V30 1940 H 170.48 4.84084 -4.42718 0
M  V30 1941 H 170.397 4.44783 -6.11313 0
M  V30 1942 H 171.665 5.48761 -5.53608 0
M  V30 1943 N 175.894 1.51508 0.433938 0
M  V30 1944 C 177.142 1.6402 1.18075 0
M  V30 1945 C 177.463 0.360328 1.91642 0
M  V30 1946 O 176.733 -0.623945 1.85698 0
M  V30 1947 H 175.313 0.6045 0.43885 0
M  V30 1948 H 177.975 1.88452 0.497178 0
M  V30 1949 H 177.071 2.46949 1.90847 0
M  V30 1950 N 177.372 -0.689602 1.41712 0
M  V30 1951 C 178.597 -1.48329 1.44959 0
M  V30 1952 C 179.022 -1.8801 0.0581283 0
M  V30 1953 O 178.38 -1.55026 -0.940035 0
M  V30 1954 C 178.428 -2.71835 2.36935 0
M  V30 1955 O 177.532 -3.69549 1.8305 0
M  V30 1956 H 176.873 -0.446199 0.491734 0
M  V30 1957 H 179.403 -0.847127 1.86239 0
M  V30 1958 H 179.413 -3.20076 2.53013 0
M  V30 1959 H 178.088 -2.42291 3.38035 0
M  V30 1960 H 176.665 -3.2851 1.76452 0
M  V30 1961 N 178.85 -1.27639 -0.924453 0
M  V30 1962 C 180.097 -1.14167 -1.67249 0
M  V30 1963 C 180.425 0.311863 -1.91984 0
M  V30 1964 O 179.68 1.24425 -1.51053 0
M  V30 1965 C 179.979 -1.87407 -3.04325 0
M  V30 1966 C 179.645 -3.37249 -2.99289 0
M  V30 1967 C 178.307 -3.7812 -2.97622 0
M  V30 1968 C 180.659 -4.32845 -2.90336 0
M  V30 1969 C 177.987 -5.12944 -2.8479 0
M  V30 1970 C 180.339 -5.6773 -2.79045 0
M  V30 1971 C 179.003 -6.07889 -2.7573 0
M  V30 1972 H 178.273 -0.417766 -0.612007 0
M  V30 1973 H 180.92 -1.58286 -1.07786 0
M  V30 1974 H 179.225 -1.35805 -3.67511 0
M  V30 1975 H 180.922 -1.74408 -3.61086 0
M  V30 1976 H 177.512 -3.04748 -3.01374 0
M  V30 1977 H 181.696 -4.02239 -2.90719 0
M  V30 1978 H 176.952 -5.432 -2.80612 0
M  V30 1979 H 181.126 -6.41472 -2.71083 0
M  V30 1980 H 178.753 -7.12314 -2.65544 0
M  V30 1981 N 180.328 1.1314 -1.09713 0
M  V30 1982 C 181.576 1.84119 -0.833338 0
M  V30 1983 C 181.897 1.84097 0.642904 0
M  V30 1984 O 181.167 1.29881 1.46655 0
M  V30 1985 H 179.747 0.681766 -0.305293 0
M  V30 1986 H 182.409 1.37038 -1.38588 0
M  V30 1987 H 181.505 2.88543 -1.18951 0
M  V30 1988 N 181.806 0.884767 1.30421 0
M  V30 1989 C 182.738 0.308655 2.27112 0
M  V30 1990 C 183.751 -0.536655 1.53701 0
M  V30 1991 O 184.94 -0.35624 1.74909 0
M  V30 1992 C 182.04 -0.579782 3.33904 0
M  V30 1993 C 181.213 0.236417 4.36761 0
M  V30 1994 C 180.272 -0.582482 5.22966 0
M  V30 1995 O 179.298 -0.00525502 5.692 0
M  V30 1996 N 180.5 -1.89163 5.48815 0
M  V30 1997 H 183.265 1.13964 2.77186 0
M  V30 1998 H 180.826 0.747731 1.43599 0
M  V30 1999 H 182.818 -1.13366 3.88497 0
M  V30 2000 H 181.388 -1.31144 2.83761 0
M  V30 2001 H 180.608 0.97174 3.82035 0
M  V30 2002 H 181.896 0.795924 5.02536 0
M  V30 2003 H 181.294 -2.38352 5.13035 0
M  V30 2004 H 179.851 -2.39296 6.06284 0
M  V30 2005 N 183.284 -1.43765 0.645699 0
M  V30 2006 C 184.53 -2.02197 0.156271 0
M  V30 2007 C 184.863 -1.50776 -1.22393 0
M  V30 2008 O 184.138 -0.697771 -1.81553 0
M  V30 2009 C 184.421 -3.59749 0.158872 0
M  V30 2010 C 184.274 -4.21419 1.57245 0
M  V30 2011 C 185.593 -4.37149 -0.50879 0
M  V30 2012 H 182.712 -0.734694 0.0582602 0
M  V30 2013 H 185.354 -1.71157 0.824951 0
M  V30 2014 H 183.504 -3.86325 -0.410525 0
M  V30 2015 H 185.176 -4.059 2.19186 0
M  V30 2016 H 183.419 -3.78356 2.122 0
M  V30 2017 H 184.09 -5.30482 1.52619 0
M  V30 2018 H 186.566 -4.16093 -0.024412 0
M  V30 2019 H 185.442 -5.4683 -0.476213 0
M  V30 2020 H 185.703 -4.12839 -1.58165 0
M  V30 2021 N 184.763 -0.387143 -1.52771 0
M  V30 2022 C 186.009 0.196025 -2.0185 0
M  V30 2023 C 186.342 1.46641 -1.27319 0
M  V30 2024 O 185.617 1.90889 -0.373032 0
M  V30 2025 C 185.9 0.466136 -3.5707 0
M  V30 2026 C 185.753 -0.819385 -4.42274 0
M  V30 2027 C 187.072 1.25768 -4.21747 0
M  V30 2028 H 184.191 0.0697708 -0.73369 0
M  V30 2029 H 186.833 -0.516286 -1.82851 0
M  V30 2030 H 184.983 1.07293 -3.7339 0
M  V30 2031 H 186.655 -1.4563 -4.37709 0
M  V30 2032 H 184.898 -1.43517 -4.09372 0
M  V30 2033 H 185.569 -0.585065 -5.48891 0
M  V30 2034 H 188.045 0.744167 -4.09391 0
M  V30 2035 H 186.921 1.41541 -5.30337 0
M  V30 2036 H 187.182 2.27228 -3.79236 0
M  V30 2037 N 186.241 1.57166 -0.116904 0
M  V30 2038 C 187.188 2.15202 0.83408 0
M  V30 2039 C 188.158 1.07644 1.26499 0
M  V30 2040 O 189.343 1.35541 1.34288 0
M  V30 2041 C 186.483 2.75405 2.07957 0
M  V30 2042 C 185.596 3.97264 1.69721 0
M  V30 2043 C 184.731 4.45561 2.89221 0
M  V30 2044 C 183.77 5.59956 2.47215 0
M  V30 2045 N 182.907 6.03006 3.59622 0
M  V30 2046 H 187.747 2.96141 0.332335 0
M  V30 2047 H 185.284 1.46309 0.152349 0
M  V30 2048 H 187.242 3.08439 2.80929 0
M  V30 2049 H 185.872 1.97159 2.55594 0
M  V30 2050 H 184.924 3.70404 0.866316 0
M  V30 2051 H 186.236 4.80226 1.34849 0
M  V30 2052 H 185.39 4.80493 3.7042 0
M  V30 2053 H 184.129 3.61544 3.27318 0
M  V30 2054 H 183.134 5.2463 1.64448 0
M  V30 2055 H 184.359 6.45738 2.10238 0
M  V30 2056 H 182.305 5.21931 3.97396 0
M  V30 2057 H 182.222 6.80819 3.28667 0
M  V30 2058 H 183.49 6.42576 4.41267 0
M  V30 2059 N 187.719 -0.156864 1.56817 0
M  V30 2060 C 188.682 -1.17781 1.96622 0
M  V30 2061 C 189.682 -1.36401 0.851555 0
M  V30 2062 O 190.872 -1.33561 1.11836 0
M  V30 2063 C 188.004 -2.54008 2.27361 0
M  V30 2064 H 189.197 -0.836564 2.87996 0
M  V30 2065 H 186.75 -0.39985 1.51099 0
M  V30 2066 H 187.485 -2.9312 1.38748 0
M  V30 2067 H 187.27 -2.41856 3.08623 0
M  V30 2068 H 188.76 -3.27558 2.59029 0
M  V30 2069 N 189.197 -1.51736 -0.425897 0
M  V30 2070 C 190.427 -1.68549 -1.19476 0
M  V30 2071 C 190.835 -0.387288 -1.85194 0
M  V30 2072 O 190.178 0.645142 -1.71999 0
M  V30 2073 C 190.24 -2.75275 -2.31223 0
M  V30 2074 C 189.904 -4.17534 -1.8578 0
M  V30 2075 C 190.901 -5.01936 -1.35485 0
M  V30 2076 C 188.586 -4.6369 -1.93123 0
M  V30 2077 C 190.58 -6.30559 -0.931347 0
M  V30 2078 C 188.267 -5.92307 -1.50384 0
M  V30 2079 C 189.265 -6.75569 -1.00473 0
M  V30 2080 O 188.953 -8.0178 -0.583452 0
M  V30 2081 H 188.685 -0.568525 -0.365725 0
M  V30 2082 H 191.239 -1.98982 -0.509444 0
M  V30 2083 H 189.469 -2.40182 -3.03067 0
M  V30 2084 H 191.158 -2.80853 -2.93047 0
M  V30 2085 H 191.924 -4.67475 -1.29197 0
M  V30 2086 H 187.803 -3.98997 -2.30916 0
M  V30 2087 H 191.347 -6.95498 -0.541084 0
M  V30 2088 H 187.244 -6.2628 -1.56346 0
M  V30 2089 H 188.012 -8.1543 -0.708275 0
M  V30 2090 N 190.675 0.682077 -1.42076 0
M  V30 2091 C 191.952 1.43755 -1.32642 0
M  V30 2092 C 192.332 2.11063 0.0396611 0
M  V30 2093 O 191.68 2.02701 1.05474 0
M  V30 2094 C 191.89 2.44596 -2.48946 0
M  V30 2095 C 193.238 3.09454 -2.9073 0
M  V30 2096 O 194.262 2.54922 -2.48783 0
M  V30 2097 O 193.121 4.08253 -3.63307 0
M  V30 2098 H 190.215 0.640857 -0.522715 0
M  V30 2099 H 192.761 0.711415 -1.54068 0
M  V30 2100 H 191.533 1.93609 -3.40046 0
M  V30 2101 H 191.156 3.24701 -2.29467 0
M  V30 2102 N 192.153 1.28127 0.917671 0
M  V30 2103 C 193.103 1.08361 2.00604 0
M  V30 2104 C 194.087 0.00847518 1.60898 0
M  V30 2105 O 195.279 0.228167 1.75523 0
M  V30 2106 C 192.408 0.743376 3.35155 0
M  V30 2107 C 191.494 1.85716 3.81275 0
M  V30 2108 N 191.885 3.09822 3.99805 0
M  V30 2109 C 190.183 1.74612 4.10398 0
M  V30 2110 C 190.884 3.82368 4.38372 0
M  V30 2111 N 189.86 3.10192 4.4641 0
M  V30 2112 H 193.662 2.02531 2.12975 0
M  V30 2113 H 191.176 1.18989 1.10523 0
M  V30 2114 H 193.173 0.582859 4.12805 0
M  V30 2115 H 191.833 -0.190595 3.2414 0
M  V30 2116 H 192.844 3.45475 3.85833 0
M  V30 2117 H 189.521 0.883657 4.08041 0
M  V30 2118 H 190.911 4.89082 4.60704 0
M  V30 2119 N 193.631 -1.12557 1.10312 0
M  V30 2120 C 194.563 -2.17971 0.708625 0
M  V30 2121 C 195.576 -1.60806 -0.254027 0
M  V30 2122 O 196.765 -1.78458 -0.0386891 0
M  V30 2123 C 193.865 -3.38891 0.0248198 0
M  V30 2124 C 193.038 -4.25548 1.01132 0
M  V30 2125 C 192.097 -5.24972 0.35924 0
M  V30 2126 O 191.123 -5.60174 1.00965 0
M  V30 2127 N 192.325 -5.73747 -0.882847 0
M  V30 2128 H 195.09 -2.52427 1.61557 0
M  V30 2129 H 192.651 -1.27967 0.991771 0
M  V30 2130 H 194.643 -4.02485 -0.422852 0
M  V30 2131 H 193.213 -3.02596 -0.784514 0
M  V30 2132 H 192.433 -3.58589 1.6373 0
M  V30 2133 H 193.721 -4.80294 1.67914 0
M  V30 2134 H 193.119 -5.4731 -1.43065 0
M  V30 2135 H 191.676 -6.39234 -1.27369 0
M  V30 2136 N 195.109 -0.891671 -1.2995 0
M  V30 2137 C 196.337 -0.52866 -2.00032 0
M  V30 2138 C 196.752 0.884574 -1.66795 0
M  V30 2139 O 196.109 1.5827 -0.908669 0
M  V30 2140 C 196.16 -0.701814 -3.54622 0
M  V30 2141 O 195.881 -2.05942 -3.86678 0
M  V30 2142 C 197.382 -0.342683 -4.41973 0
M  V30 2143 H 194.602 -0.203659 -0.639347 0
M  V30 2144 H 197.146 -1.19881 -1.65677 0
M  V30 2145 H 195.301 -0.0789468 -3.8732 0
M  V30 2146 H 195.715 -2.08291 -4.81368 0
M  V30 2147 H 197.189 -0.514709 -5.49595 0
M  V30 2148 H 197.666 0.71975 -4.33262 0
M  V30 2149 H 198.272 -0.942154 -4.14733 0
M  V30 2150 N 196.587 1.43421 -0.653314 0
M  V30 2151 C 197.519 2.29071 0.0769134 0
M  V30 2152 C 198.532 1.42513 0.787017 0
M  V30 2153 O 199.721 1.66449 0.644757 0
M  V30 2154 C 196.821 3.19436 1.13199 0
M  V30 2155 C 195.994 4.34533 0.500006 0
M  V30 2156 C 195.053 5.05771 1.45198 0
M  V30 2157 O 194.079 5.61037 0.960538 0
M  V30 2158 N 195.281 5.0928 2.78594 0
M  V30 2159 H 198.046 2.92382 -0.658235 0
M  V30 2160 H 195.607 1.54112 -0.496104 0
M  V30 2161 H 197.599 3.63958 1.76964 0
M  V30 2162 H 196.169 2.57724 1.7691 0
M  V30 2163 H 195.389 3.92925 -0.316738 0
M  V30 2164 H 196.677 5.08766 0.0588345 0
M  V30 2165 H 196.075 4.65751 3.2108 0
M  V30 2166 H 194.632 5.57519 3.37662 0
M  V30 2167 N 198.065 0.39524 1.52563 0
M  V30 2168 C 198.975 -0.444232 2.30356 0
M  V30 2169 C 199.991 -1.06615 1.37511 0
M  V30 2170 O 201.167 -1.07067 1.70583 0
M  V30 2171 C 198.232 -1.55315 3.09964 0
M  V30 2172 C 197.293 -0.955734 4.18526 0
M  V30 2173 C 196.526 -2.01181 4.9433 0
M  V30 2174 O 196.749 -3.22781 4.70285 0
M  V30 2175 O 195.683 -1.62579 5.79527 0
M  V30 2176 H 199.509 0.189667 3.03107 0
M  V30 2177 H 197.094 0.1588 1.48554 0
M  V30 2178 H 198.976 -2.19724 3.59582 0
M  V30 2179 H 197.651 -2.17191 2.4002 0
M  V30 2180 H 196.558 -0.274743 3.7309 0
M  V30 2181 H 197.891 -0.381109 4.90722 0
M  V30 2182 N 199.544 -1.57102 0.125237 0
M  V30 2183 C 200.474 -2.18659 -0.819174 0
M  V30 2184 C 201.455 -1.12843 -1.27281 0
M  V30 2185 O 202.64 -1.41104 -1.33429 0
M  V30 2186 C 199.77 -2.79096 -2.06695 0
M  V30 2187 C 198.724 -3.90548 -1.75088 0
M  V30 2188 C 198.05 -4.37821 -3.06948 0
M  V30 2189 C 199.35 -5.12356 -1.01435 0
M  V30 2190 H 201.044 -2.9783 -0.306202 0
M  V30 2191 H 198.59 -1.4326 -0.145839 0
M  V30 2192 H 200.543 -3.2082 -2.73226 0
M  V30 2193 H 199.267 -1.97223 -2.60328 0
M  V30 2194 H 197.926 -3.49409 -1.10944 0
M  V30 2195 H 197.574 -3.52799 -3.58527 0
M  V30 2196 H 197.274 -5.12982 -2.86571 0
M  V30 2197 H 198.798 -4.822 -3.74587 0
M  V30 2198 H 200.212 -5.5106 -1.58132 0
M  V30 2199 H 198.609 -5.9314 -0.911319 0
M  V30 2200 H 199.679 -4.849 -0.00218681 0
M  V30 2201 N 201.022 0.148545 -1.56898 0
M  V30 2202 C 202.268 0.862694 -1.83536 0
M  V30 2203 C 202.601 1.80889 -0.706604 0
M  V30 2204 O 201.876 1.92328 0.289885 0
M  V30 2205 C 202.159 1.63853 -3.20662 0
M  V30 2206 C 202.012 0.713925 -4.44098 0
M  V30 2207 C 203.331 2.60133 -3.54991 0
M  V30 2208 H 200.45 0.312179 -0.667618 0
M  V30 2209 H 203.092 0.127953 -1.89569 0
M  V30 2210 H 201.242 2.26489 -3.1565 0
M  V30 2211 H 202.914 0.098686 -4.61194 0
M  V30 2212 H 201.157 0.0234019 -4.33794 0
M  V30 2213 H 201.828 1.29278 -5.36648 0
M  V30 2214 H 204.304 2.07616 -3.60603 0
M  V30 2215 H 203.18 3.11468 -4.51972 0
M  V30 2216 H 203.441 3.41417 -2.80868 0
M  V30 2217 N 202.5 1.5196 0.417844 0
M  V30 2218 C 203.463 1.74065 1.49111 0
M  V30 2219 C 204.463 0.610537 1.48758 0
M  V30 2220 O 205.653 0.87832 1.50437 0
M  V30 2221 C 202.785 1.81502 2.88565 0
M  V30 2222 H 203.978 2.69869 1.30807 0
M  V30 2223 H 201.531 1.42244 0.647785 0
M  V30 2224 H 202.266 0.875813 3.1225 0
M  V30 2225 H 202.051 2.63651 2.90225 0
M  V30 2226 H 203.541 2.00376 3.66387 0
M  V30 2227 N 203.978 -0.674533 1.42435 0
M  V30 2228 C 205.227 -1.43034 1.42212 0
M  V30 2229 C 205.54 -1.95555 0.0420788 0
M  V30 2230 O 206.746 -2.71374 -0.0827558 0
M  V30 2231 C 205.202 -2.58748 2.50155 0
M  V30 2232 C 204.81 -2.12925 3.94166 0
M  V30 2233 C 206.554 -3.36257 2.59098 0
M  V30 2234 C 204.461 -3.25723 4.93618 0
M  V30 2235 H 203.391 -0.537345 0.528939 0
M  V30 2236 H 206.042 -0.73024 1.68344 0
M  V30 2237 H 204.424 -3.31128 2.17188 0
M  V30 2238 H 205.598 -1.47697 4.36488 0
M  V30 2239 H 203.913 -1.48354 3.89076 0
M  V30 2240 H 206.51 -4.20264 3.30578 0
M  V30 2241 H 206.853 -3.82866 1.63461 0
M  V30 2242 H 207.386 -2.70947 2.9126 0
M  V30 2243 H 204.125 -2.84105 5.90732 0
M  V30 2244 H 203.645 -3.89732 4.55926 0
M  V30 2245 H 205.324 -3.91186 5.15347 0
M  V30 2246 N 205.456 -1.28612 -0.910864 0
M  V30 2247 C 206.403 -1.12786 -2.01365 0
M  V30 2248 C 207.373 -0.024201 -1.66082 0
M  V30 2249 O 208.558 -0.189667 -1.89855 0
M  V30 2250 C 205.698 -0.798743 -3.35729 0
M  V30 2251 C 204.811 -1.98173 -3.83864 0
M  V30 2252 C 203.946 -1.59298 -5.06752 0
M  V30 2253 C 202.985 -2.74245 -5.47226 0
M  V30 2254 N 202.122 -2.35842 -6.61304 0
M  V30 2255 H 206.962 -2.07142 -2.14234 0
M  V30 2256 H 204.499 -1.03093 -1.0493 0
M  V30 2257 H 206.457 -0.588662 -4.13026 0
M  V30 2258 H 205.087 0.10789 -3.2262 0
M  V30 2259 H 204.139 -2.30386 -3.02699 0
M  V30 2260 H 205.451 -2.84343 -4.09818 0
M  V30 2261 H 204.605 -1.34513 -5.916 0
M  V30 2262 H 203.344 -0.702618 -4.82612 0
M  V30 2263 H 202.349 -2.99725 -4.60918 0
M  V30 2264 H 203.574 -3.63928 -5.73353 0
M  V30 2265 H 201.52 -1.49279 -6.38789 0
M  V30 2266 H 201.437 -3.15546 -6.86998 0
M  V30 2267 H 202.705 -2.14348 -7.4945 0
M  V30 2268 N 206.934 1.1197 -1.10907 0
M  V30 2269 C 208.183 1.82947 -0.849302 0
M  V30 2270 C 208.496 1.85275 0.627112 0
M  V30 2271 O 209.702 2.52296 1.00295 0
M  V30 2272 C 208.158 3.28529 -1.46959 0
M  V30 2273 C 207.766 3.34546 -2.97965 0
M  V30 2274 C 209.51 4.04443 -1.28942 0
M  V30 2275 C 207.417 4.74491 -3.53004 0
M  V30 2276 H 206.347 0.685477 -0.314065 0
M  V30 2277 H 208.998 1.2604 -1.33365 0
M  V30 2278 H 207.38 3.85333 -0.912917 0
M  V30 2279 H 208.554 2.87654 -3.59989 0
M  V30 2280 H 206.869 2.72108 -3.15192 0
M  V30 2281 H 209.466 5.07787 -1.67502 0
M  V30 2282 H 209.809 4.15656 -0.231456 0
M  V30 2283 H 210.342 3.5401 -1.81443 0
M  V30 2284 H 207.081 4.68474 -4.58489 0
M  V30 2285 H 206.601 5.21816 -2.9575 0
M  V30 2286 H 208.28 5.4344 -3.51115 0
M  V30 2287 N 208.412 0.89855 1.29475 0
M  V30 2288 C 209.661 0.519863 1.94885 0
M  V30 2289 C 209.974 -0.9383 1.71625 0
M  V30 2290 O 211.18 -1.42445 2.31131 0
M  V30 2291 C 209.636 0.878836 3.49005 0
M  V30 2292 C 209.244 2.35569 3.81066 0
M  V30 2293 C 210.988 0.570004 4.20656 0
M  V30 2294 C 208.895 2.65558 5.28425 0
M  V30 2295 H 207.825 0.190692 0.729488 0
M  V30 2296 H 210.476 1.09539 1.47219 0
M  V30 2297 H 208.858 0.232253 3.95318 0
M  V30 2298 H 210.032 3.04773 3.45616 0
M  V30 2299 H 208.347 2.63343 3.22552 0
M  V30 2300 H 210.944 0.770925 5.29113 0
M  V30 2301 H 211.287 -0.491404 4.1339 0
M  V30 2302 H 211.82 1.17438 3.8007 0
M  V30 2303 H 208.559 3.70493 5.40754 0
M  V30 2304 H 208.079 2.00977 5.65127 0
M  V30 2305 H 209.758 2.51765 5.96006 0
M  V30 2306 N 209.89 -1.43072 0.660911 0
M  V30 2307 C 210.837 -2.30785 -0.0259884 0
M  V30 2308 C 211.807 -1.45184 -0.806888 0
M  V30 2309 O 212.992 -1.74041 -0.781943 0
M  V30 2310 C 210.132 -3.30861 -0.981067 0
M  V30 2311 C 209.245 -4.31558 -0.195458 0
M  V30 2312 C 208.38 -5.18712 -1.14503 0
M  V30 2313 C 207.419 -6.11097 -0.350299 0
M  V30 2314 N 206.556 -6.90849 -1.25186 0
M  V30 2315 H 211.396 -2.88975 0.727846 0
M  V30 2316 H 208.933 -1.42353 0.370682 0
M  V30 2317 H 210.891 -3.87399 -1.54849 0
M  V30 2318 H 209.521 -2.74304 -1.70169 0
M  V30 2319 H 208.573 -3.77252 0.488374 0
M  V30 2320 H 209.885 -4.9701 0.422176 0
M  V30 2321 H 209.039 -5.79914 -1.78284 0
M  V30 2322 H 207.778 -4.53404 -1.79656 0
M  V30 2323 H 206.783 -5.48976 0.300808 0
M  V30 2324 H 208.008 -6.7845 0.296941 0
M  V30 2325 H 205.954 -6.28182 -1.89005 0
M  V30 2326 H 205.871 -7.52854 -0.688971 0
M  V30 2327 H 207.139 -7.5655 -1.87757 0
M  V30 2328 N 211.368 -0.403325 -1.52352 0
M  V30 2329 C 212.316 0.439752 -2.28405 0
M  V30 2330 C 213.31 1.05089 -1.32863 0
M  V30 2331 O 214.516 0.989759 -1.50345 0
M  V30 2332 H 210.891 0.160587 -0.734653 0
M  V30 2333 H 212.862 -0.222983 -2.97566 0
M  V30 2334 C 211.611 1.54736 -3.11371 0
M  V30 2335 H 210.934 1.08643 -3.84755 0
M  V30 2336 H 212.374 2.1112 -3.67701 0
M  V30 2337 C 210.833 2.51141 -2.24566 0
M  V30 2338 O 211.363 3.54887 -1.88196 0
M  V30 2339 N 209.569 2.21213 -1.8845 0
M  V30 2340 H 209.116 1.36878 -2.18225 0
M  V30 2341 H 209.074 2.85963 -1.30662 0
M  V30 2342 N 212.846 1.57033 -0.133567 0
M  V30 2343 C 213.793 2.16074 0.811208 0
M  V30 2344 C 214.763 1.08979 1.2535 0
M  V30 2345 O 215.948 1.36958 1.32843 0
M  V30 2346 C 213.088 2.77595 2.05024 0
M  V30 2347 C 212.201 3.99042 1.65498 0
M  V30 2348 C 211.336 4.48603 2.84479 0
M  V30 2349 C 210.375 5.62547 2.41262 0
M  V30 2350 N 209.512 6.06787 3.53206 0
M  V30 2351 H 214.352 2.96477 0.300906 0
M  V30 2352 H 211.889 1.46462 0.136822 0
M  V30 2353 H 213.847 3.11402 2.77642 0
M  V30 2354 H 212.477 1.99859 2.53488 0
M  V30 2355 H 211.529 3.71302 0.826981 0
M  V30 2356 H 212.841 4.81629 1.29748 0
M  V30 2357 H 211.995 4.84395 3.65303 0
M  V30 2358 H 210.734 3.64995 3.23465 0
M  V30 2359 H 209.739 5.26345 1.58874 0
M  V30 2360 H 210.964 6.47931 2.03377 0
M  V30 2361 H 208.91 5.26117 3.91838 0
M  V30 2362 H 208.827 6.84266 3.21427 0
M  V30 2363 H 210.095 6.4722 4.34427 0
M  V30 2364 N 214.325 -0.140222 1.56975 0
M  V30 2365 C 215.272 -1.17292 1.98774 0
M  V30 2366 C 216.242 -1.4232 0.856408 0
M  V30 2367 O 217.427 -1.54541 1.119 0
M  V30 2368 C 214.567 -2.49973 2.37923 0
M  V30 2369 C 213.68 -2.32062 3.64378 0
M  V30 2370 C 212.815 -3.57825 3.926 0
M  V30 2371 C 211.854 -3.3498 5.12303 0
M  V30 2372 N 210.991 -4.52891 5.36502 0
M  V30 2373 H 215.831 -0.809472 2.86795 0
M  V30 2374 H 213.368 -0.388237 1.41884 0
M  V30 2375 H 215.326 -3.27346 2.58652 0
M  V30 2376 H 213.956 -2.84252 1.52972 0
M  V30 2377 H 213.008 -1.45711 3.51387 0
M  V30 2378 H 214.32 -2.11145 4.51906 0
M  V30 2379 H 213.474 -4.43624 4.13863 0
M  V30 2380 H 212.213 -3.81753 3.03506 0
M  V30 2381 H 211.218 -2.4757 4.90906 0
M  V30 2382 H 212.443 -3.12444 6.02956 0
M  V30 2383 H 210.389 -4.76979 4.50363 0
M  V30 2384 H 210.306 -4.35001 6.18312 0
M  V30 2385 H 211.574 -5.39884 5.62268 0
M  V30 2386 N 215.803 -1.52179 -0.40978 0
M  V30 2387 C 216.766 -1.74853 -1.48186 0
M  V30 2388 C 217.766 -0.618417 -1.48433 0
M  V30 2389 O 218.956 -0.886286 -1.49969 0
M  V30 2390 C 216.088 -1.8303 -2.87598 0
M  V30 2391 H 217.281 -2.70559 -1.29374 0
M  V30 2392 H 214.834 -1.42586 -0.640233 0
M  V30 2393 H 215.569 -0.89236 -3.11781 0
M  V30 2394 H 215.354 -2.65187 -2.88822 0
M  V30 2395 H 216.844 -2.02316 -3.65319 0
M  V30 2396 N 217.281 0.66697 -1.42791 0
M  V30 2397 C 218.528 1.42699 -1.43678 0
M  V30 2398 C 218.856 1.94419 -0.0560425 0
M  V30 2399 O 218.111 1.7182 0.936831 0
M  V30 2400 C 218.41 2.6349 -2.4147 0
M  V30 2401 C 218.076 2.30267 -3.8767 0
M  V30 2402 C 216.738 2.20918 -4.27491 0
M  V30 2403 C 219.09 2.03435 -4.79858 0
M  V30 2404 C 216.418 1.82873 -5.57471 0
M  V30 2405 C 218.77 1.66892 -6.10188 0
M  V30 2406 C 217.434 1.56058 -6.49001 0
M  V30 2407 H 216.704 0.522171 -0.525755 0
M  V30 2408 H 219.351 0.759785 -1.75783 0
M  V30 2409 H 217.656 3.35279 -2.0272 0
M  V30 2410 H 219.353 3.21684 -2.39417 0
M  V30 2411 H 215.943 2.38449 -3.56146 0
M  V30 2412 H 220.127 2.09586 -4.49875 0
M  V30 2413 H 215.383 1.7306 -5.86396 0
M  V30 2414 H 219.557 1.45157 -6.81104 0
M  V30 2415 H 217.184 1.26348 -7.49627 0
M  V30 2416 N 218.759 1.29093 0.90403 0
M  V30 2417 C 219.689 1.16401 2.02418 0
M  V30 2418 C 220.67 0.0593085 1.69997 0
M  V30 2419 O 221.855 0.238021 1.92736 0
M  V30 2420 C 218.985 0.835233 3.37107 0
M  V30 2421 C 217.939 1.89578 3.83724 0
M  V30 2422 C 217.265 1.42041 5.15489 0
M  V30 2423 C 218.565 3.30394 4.04521 0
M  V30 2424 H 220.259 2.10109 2.13295 0
M  V30 2425 H 217.805 1.01157 1.02486 0
M  V30 2426 H 219.758 0.733169 4.14973 0
M  V30 2427 H 218.482 -0.137543 3.2631 0
M  V30 2428 H 217.141 1.98715 3.08071 0
M  V30 2429 H 216.789 0.436426 5.01103 0
M  V30 2430 H 216.489 2.12964 5.4765 0
M  V30 2431 H 218.013 1.33176 5.959 0
M  V30 2432 H 219.427 3.24123 4.72882 0
M  V30 2433 H 217.824 3.99237 4.48029 0
M  V30 2434 H 218.894 3.73692 3.09002 0
M  V30 2435 N 220.237 -1.11381 1.11499 0
M  V30 2436 C 221.185 -2.19522 0.768956 0
M  V30 2437 C 222.179 -1.67693 -0.239857 0
M  V30 2438 O 223.385 -1.79727 -0.0990755 0
M  V30 2439 H 219.76 -0.715711 0.230786 0
M  V30 2440 H 221.731 -2.45954 1.68964 0
M  V30 2441 C 220.48 -3.46945 0.229073 0
M  V30 2442 H 219.803 -3.8718 0.996596 0
M  V30 2443 H 221.243 -4.23993 0.0251441 0
M  V30 2444 C 219.702 -3.2042 -1.04079 0
M  V30 2445 O 220.232 -3.41178 -2.12038 0
M  V30 2446 N 218.438 -2.74151 -0.963823 0
M  V30 2447 H 217.985 -2.57459 -0.0851722 0
M  V30 2448 H 217.943 -2.56781 -1.81414 0
M  V30 2449 N 221.715 -0.905404 -1.28997 0
M  V30 2450 C 222.647 -0.344748 -2.26592 0
M  V30 2451 C 223.66 0.512135 -1.54535 0
M  V30 2452 O 224.849 0.328368 -1.75454 0
M  V30 2453 C 221.949 0.526587 -3.34784 0
M  V30 2454 C 221.122 -0.305871 -4.36329 0
M  V30 2455 C 220.181 0.499209 -5.23827 0
M  V30 2456 O 219.207 -0.0853004 -5.69136 0
M  V30 2457 N 220.409 1.80408 -5.51755 0
M  V30 2458 H 223.174 -1.18359 -2.75338 0
M  V30 2459 H 220.735 -0.770481 -1.42391 0
M  V30 2460 H 222.727 1.07171 -3.90252 0
M  V30 2461 H 221.297 1.26613 -2.85811 0
M  V30 2462 H 220.517 -1.0324 -3.80441 0
M  V30 2463 H 221.805 -0.875773 -5.01206 0
M  V30 2464 H 221.203 2.3016 -5.16762 0
M  V30 2465 H 219.76 2.29621 -6.10014 0
M  V30 2466 N 223.193 1.4272 -0.668489 0
M  V30 2467 C 224.156 2.292 0.00448567 0
M  V30 2468 C 225.156 1.43001 0.735339 0
M  V30 2469 O 226.346 1.64461 0.57429 0
M  V30 2470 C 223.478 3.25375 1.01705 0
M  V30 2471 H 224.671 2.90199 -0.756608 0
M  V30 2472 H 222.224 1.50254 -0.430506 0
M  V30 2473 H 222.959 2.69301 1.80686 0
M  V30 2474 H 222.744 3.88944 0.496463 0
M  V30 2475 H 224.234 3.90245 1.48655 0
M  V30 2476 N 224.671 0.411399 1.52136 0
M  V30 2477 C 225.603 -0.448386 2.24771 0
M  V30 2478 C 226.616 -1.00828 1.27818 0
M  V30 2479 O 227.805 -0.906841 1.53749 0
M  V30 2480 C 224.905 -1.63636 2.96777 0
M  V30 2481 C 224.078 -1.19995 4.20618 0
M  V30 2482 C 223.137 -2.25509 4.75428 0
M  V30 2483 O 222.163 -1.86007 5.3795 0
M  V30 2484 N 223.365 -3.577 4.57199 0
M  V30 2485 H 226.13 0.174025 2.99194 0
M  V30 2486 H 223.691 0.238897 1.60128 0
M  V30 2487 H 225.683 -2.33793 3.30338 0
M  V30 2488 H 224.253 -2.16465 2.25526 0
M  V30 2489 H 223.473 -0.326421 3.92846 0
M  V30 2490 H 224.761 -0.885365 5.01038 0
M  V30 2491 H 224.159 -3.92543 4.07341 0
M  V30 2492 H 222.716 -4.23827 4.95191 0
M  V30 2493 N 226.149 -1.5696 0.141893 0
M  V30 2494 C 227.398 -1.95135 -0.510427 0
M  V30 2495 C 227.711 -1.02896 -1.66348 0
M  V30 2496 O 228.917 -1.30629 -2.38009 0
M  V30 2497 C 227.373 -3.46876 -0.959427 0
M  V30 2498 C 226.981 -4.47691 0.166419 0
M  V30 2499 C 228.725 -3.93927 -1.58183 0
M  V30 2500 C 226.632 -5.90636 -0.300565 0
M  V30 2501 H 225.562 -0.728494 -0.194454 0
M  V30 2502 H 228.213 -1.8211 0.22542 0
M  V30 2503 H 226.595 -3.55215 -1.75038 0
M  V30 2504 H 227.769 -4.51043 0.94325 0
M  V30 2505 H 226.084 -4.10527 0.696905 0
M  V30 2506 H 228.681 -4.98158 -1.94275 0
M  V30 2507 H 229.024 -3.3519 -2.46888 0
M  V30 2508 H 229.557 -3.88484 -0.855863 0
M  V30 2509 H 226.296 -6.5318 0.550989 0
M  V30 2510 H 225.816 -5.90655 -1.04338 0
M  V30 2511 H 227.495 -6.42588 -0.754265 0
M  V30 2512 N 227.627 0.131896 -1.57047 0
M  V30 2513 C 228.537 1.1815 -2.02676 0
M  V30 2514 C 229.553 1.46113 -0.944824 0
M  V30 2515 O 230.729 1.57485 -1.25541 0
M  V30 2516 C 227.794 2.49139 -2.41103 0
M  V30 2517 C 226.855 2.28688 -3.63318 0
M  V30 2518 C 226.088 3.53431 -3.99903 0
M  V30 2519 O 226.311 4.60223 -3.36973 0
M  V30 2520 O 225.245 3.45198 -4.93074 0
M  V30 2521 H 229.071 0.824069 -2.92306 0
M  V30 2522 H 226.656 0.341745 -1.45439 0
M  V30 2523 H 228.538 3.26338 -2.66611 0
M  V30 2524 H 227.213 2.84382 -1.54624 0
M  V30 2525 H 226.12 1.4939 -3.42977 0
M  V30 2526 H 227.453 1.98355 -4.50462 0
M  V30 2527 N 229.106 1.52395 0.401703 0
M  V30 2528 C 230.036 1.79231 1.49661 0
M  V30 2529 C 231.017 0.643654 1.57452 0
M  V30 2530 O 232.202 0.889989 1.72606 0
M  V30 2531 C 229.332 1.94971 2.87409 0
M  V30 2532 C 228.286 3.10604 2.94465 0
M  V30 2533 C 227.612 3.11577 4.34538 0
M  V30 2534 C 228.912 4.49921 2.6527 0
M  V30 2535 H 230.606 2.70917 1.27454 0
M  V30 2536 H 228.152 1.30362 0.6117 0
M  V30 2537 H 230.105 2.12328 3.63999 0
M  V30 2538 H 228.829 0.999632 3.10926 0
M  V30 2539 H 227.488 2.93009 2.20321 0
M  V30 2540 H 227.136 2.14277 4.55076 0
M  V30 2541 H 226.836 3.89247 4.40183 0
M  V30 2542 H 228.36 3.31073 5.13053 0
M  V30 2543 H 229.774 4.67683 3.31581 0
M  V30 2544 H 228.171 5.29564 2.82281 0
M  V30 2545 H 229.241 4.57507 1.60671 0
M  V30 2546 N 230.584 -0.659388 1.43143 0
M  V30 2547 C 232 -0.974337 1.26407 0
M  V30 2548 C 232.2 -2.007 0.179341 0
M  V30 2549 O 231.256 -2.4856 -0.444295 0
M  V30 2550 C 232.569 -1.46447 2.62628 0
M  V30 2551 C 234.117 -1.58144 2.7011 0
M  V30 2552 C 234.592 -2.1055 4.06734 0
M  V30 2553 N 236.083 -2.17861 4.08767 0
M  V30 2554 C 236.818 -2.59519 5.1131 0
M  V30 2555 N 236.314 -3.00518 6.24228 0
M  V30 2556 N 238.107 -2.59404 4.98664 0
M  V30 2557 H 230.258 0.0240528 2.12386 0
M  V30 2558 H 232.521 -0.0518065 0.946583 0
M  V30 2559 H 232.227 -0.780123 3.42939 0
M  V30 2560 H 232.101 -2.44058 2.87603 0
M  V30 2561 H 234.488 -2.25682 1.90136 0
M  V30 2562 H 234.569 -0.589828 2.48907 0
M  V30 2563 H 234.213 -1.43616 4.87172 0
M  V30 2564 H 234.143 -3.10531 4.25298 0
M  V30 2565 H 236.634 -1.88975 3.27257 0
M  V30 2566 H 236.947 -3.31036 6.98309 0
M  V30 2567 H 235.292 -2.98337 6.2771 0
M  V30 2568 H 238.483 -2.26747 4.09516 0
M  V30 2569 H 238.656 -2.91548 5.78709 0
M  V30 2570 N 232.062 -1.29571 -0.897171 0
M  V30 2571 C 232.992 -1.17473 -2.01798 0
M  V30 2572 C 233.973 -0.068323 -1.69963 0
M  V30 2573 O 235.158 -0.248239 -1.92607 0
M  V30 2574 C 232.288 -0.853099 -3.36659 0
M  V30 2575 C 231.242 -1.9161 -3.82713 0
M  V30 2576 C 230.568 -1.44773 -5.14728 0
M  V30 2577 C 231.868 -3.32535 -4.02763 0
M  V30 2578 H 233.562 -2.11237 -2.12177 0
M  V30 2579 H 231.108 -1.01699 -1.01948 0
M  V30 2580 H 233.061 -0.755165 -4.14578 0
M  V30 2581 H 231.785 0.120236 -3.26379 0
M  V30 2582 H 230.444 -2.00346 -3.07013 0
M  V30 2583 H 230.092 -0.462995 -5.00865 0
M  V30 2584 H 229.792 -2.15865 -5.46513 0
M  V30 2585 H 231.316 -1.36334 -5.95185 0
M  V30 2586 H 232.73 -3.26626 -4.71156 0
M  V30 2587 H 231.127 -4.01607 -4.45905 0
M  V30 2588 H 232.197 -3.75326 -3.07016 0
M  V30 2589 N 233.54 1.10788 -1.12088 0
M  V30 2590 C 234.47 2.19083 -0.807755 0
M  V30 2591 C 235.451 1.6858 0.226859 0
M  V30 2592 O 236.636 1.93997 0.0888475 0
M  V30 2593 C 233.766 3.46344 -0.257576 0
M  V30 2594 C 232.72 4.101 -1.22483 0
M  V30 2595 C 232.046 5.32016 -0.535052 0
M  V30 2596 C 233.346 4.54236 -2.57811 0
M  V30 2597 H 235.04 2.45534 -1.71328 0
M  V30 2598 H 232.586 1.1801 -0.825205 0
M  V30 2599 H 234.539 4.21392 -0.0262679 0
M  V30 2600 H 233.263 3.19373 0.683278 0
M  V30 2601 H 231.922 3.37054 -1.44189 0
M  V30 2602 H 231.57 5.01319 0.410827 0
M  V30 2603 H 231.27 5.75625 -1.18024 0
M  V30 2604 H 232.794 6.09799 -0.312695 0
M  V30 2605 H 234.208 5.20575 -2.40155 0
M  V30 2606 H 232.605 5.08682 -3.18375 0
M  V30 2607 H 233.675 3.6734 -3.16528 0
M  V30 2608 N 235.018 0.912232 1.28515 0
M  V30 2609 C 235.928 0.404506 2.31086 0
M  V30 2610 C 236.944 -0.50707 1.66448 0
M  V30 2611 O 238.12 -0.393624 1.97516 0
M  V30 2612 C 235.185 -0.348572 3.44943 0
M  V30 2613 C 234.246 0.59604 4.25142 0
M  V30 2614 C 233.479 -0.121194 5.33562 0
M  V30 2615 O 233.702 -1.34317 5.5436 0
M  V30 2616 O 232.636 0.542716 5.99448 0
M  V30 2617 H 236.462 1.25579 2.76521 0
M  V30 2618 H 234.047 0.676998 1.33181 0
M  V30 2619 H 235.929 -0.77395 4.14232 0
M  V30 2620 H 234.604 -1.17571 3.01594 0
M  V30 2621 H 233.511 1.07079 3.58448 0
M  V30 2622 H 234.844 1.38995 4.72167 0
M  V30 2623 N 236.496 -1.42363 0.676048 0
M  V30 2624 C 237.426 -2.33497 0.0124832 0
M  V30 2625 C 238.407 -1.50748 -0.787981 0
M  V30 2626 O 239.592 -1.79346 -0.744884 0
M  V30 2627 C 236.722 -3.34377 -0.938582 0
M  V30 2628 C 235.676 -4.27289 -0.246622 0
M  V30 2629 C 235.002 -5.18386 -1.31071 0
M  V30 2630 C 236.302 -5.14916 0.875125 0
M  V30 2631 H 237.996 -2.89233 0.773593 0
M  V30 2632 H 235.542 -1.39073 0.37346 0
M  V30 2633 H 237.495 -3.97044 -1.41188 0
M  V30 2634 H 236.219 -2.76947 -1.73113 0
M  V30 2635 H 234.878 -3.66018 0.206456 0
M  V30 2636 H 234.526 -4.57282 -2.09528 0
M  V30 2637 H 234.226 -5.81378 -0.852839 0
M  V30 2638 H 235.75 -5.83929 -1.78492 0
M  V30 2639 H 237.164 -5.71262 0.482983 0
M  V30 2640 H 235.561 -5.86747 1.25887 0
M  V30 2641 H 236.631 -4.53242 1.72335 0
M  V30 2642 N 237.974 -0.419461 -1.51915 0
M  V30 2643 C 238.907 0.445751 -2.23804 0
M  V30 2644 C 239.885 1.03951 -1.25031 0
M  V30 2645 O 241.069 1.08541 -1.54114 0
M  V30 2646 C 238.196 1.61964 -2.97465 0
M  V30 2647 C 237.242 1.14828 -4.10751 0
M  V30 2648 S 238.075 0.104938 -5.35397 0
M  V30 2649 C 239.231 1.28391 -6.1259 0
M  V30 2650 H 239.464 -0.164627 -2.96844 0
M  V30 2651 H 236.997 -0.203833 -1.53049 0
M  V30 2652 H 238.955 2.29271 -3.40507 0
M  V30 2653 H 237.616 2.20139 -2.24048 0
M  V30 2654 H 236.809 2.02561 -4.61503 0
M  V30 2655 H 236.411 0.553712 -3.69878 0
M  V30 2656 H 238.703 2.20563 -6.40592 0
M  V30 2657 H 239.646 0.816724 -7.03374 0
M  V30 2658 H 240.054 1.51439 -5.43807 0
M  V30 2659 N 239.452 1.56882 -0.150215 0
M  V30 2660 C 240.4 2.18214 0.805313 0
M  V30 2661 C 241.394 1.14006 1.25296 0
M  V30 2662 O 242.6 1.3225 1.22107 0
M  V30 2663 H 238.975 0.698762 0.277913 0
M  V30 2664 H 240.946 2.97231 0.263862 0
M  V30 2665 C 239.695 2.82065 2.03309 0
M  V30 2666 H 239.018 3.61968 1.69763 0
M  V30 2667 H 240.458 3.28477 2.68103 0
M  V30 2668 C 238.917 1.80739 2.84315 0
M  V30 2669 O 239.447 1.27983 3.80767 0
M  V30 2670 N 237.653 1.4997 2.48913 0
M  V30 2671 H 237.2 1.93062 1.70542 0
M  V30 2672 H 237.158 0.824217 3.03404 0
M  V30 2673 N 240.93 -0.123565 1.57115 0
M  V30 2674 C 241.862 -1.17739 1.96648 0
M  V30 2675 C 242.875 -1.37906 0.865201 0
M  V30 2676 O 244.064 -1.37062 1.14351 0
M  V30 2677 C 241.164 -2.53821 2.24562 0
M  V30 2678 C 240.337 -2.54317 3.55867 0
M  V30 2679 C 239.396 -3.72112 3.72047 0
M  V30 2680 O 238.422 -3.55907 4.44206 0
M  V30 2681 N 239.624 -4.90498 3.10471 0
M  V30 2682 H 242.389 -0.841147 2.87654 0
M  V30 2683 H 239.95 -0.31289 1.58848 0
M  V30 2684 H 241.942 -3.31175 2.32606 0
M  V30 2685 H 240.512 -2.79645 1.39705 0
M  V30 2686 H 239.732 -1.62711 3.59053 0
M  V30 2687 H 241.02 -2.51701 4.42181 0
M  V30 2688 H 240.418 -5.06567 2.51806 0
M  V30 2689 H 238.975 -5.65544 3.24043 0
M  V30 2690 N 242.408 -1.52605 -0.393616 0
M  V30 2691 C 243.358 -1.73436 -1.48 0
M  V30 2692 C 244.342 -0.588386 -1.49756 0
M  V30 2693 O 245.534 -0.846047 -1.5547 0
M  V30 2694 C 242.663 -1.90247 -2.85764 0
M  V30 2695 C 241.749 -3.10763 -2.88595 0
M  V30 2696 N 242.14 -4.33196 -2.61103 0
M  V30 2697 C 240.438 -3.10914 -3.19763 0
M  V30 2698 C 241.139 -5.1477 -2.70899 0
M  V30 2699 N 240.115 -4.50356 -3.04435 0
M  V30 2700 H 243.917 -2.65727 -1.25563 0
M  V30 2701 H 241.431 -1.5085 -0.601513 0
M  V30 2702 H 243.428 -2.03291 -3.63976 0
M  V30 2703 H 242.088 -0.991663 -3.09186 0
M  V30 2704 H 243.099 -4.61408 -2.35209 0
M  V30 2705 H 239.776 -2.29626 -3.4868 0
M  V30 2706 H 241.166 -6.22355 -2.53227 0
M  V30 2707 N 243.887 0.651787 -1.4349 0
M  V30 2708 C 245.164 1.40909 -1.35661 0
M  V30 2709 C 245.544 2.11099 -0.00511733 0
M  V30 2710 O 244.892 2.04892 1.0115 0
M  V30 2711 C 245.102 2.3926 -2.54078 0
M  V30 2712 C 246.45 3.03217 -2.97228 0
M  V30 2713 O 247.474 2.49588 -2.54135 0
M  V30 2714 O 246.333 4.00455 -3.71885 0
M  V30 2715 H 243.427 0.629625 -0.536191 0
M  V30 2716 H 245.973 0.678575 -1.55542 0
M  V30 2717 H 244.745 1.86352 -3.44076 0
M  V30 2718 H 244.368 3.1976 -2.36303 0
M  V30 2719 N 245.365 1.30045 0.890287 0
M  V30 2720 C 246.593 1.21472 1.67487 0
M  V30 2721 C 247.008 -0.223241 1.87476 0
M  V30 2722 O 246.365 -1.14828 1.41847 0
M  V30 2723 C 246.416 1.93394 3.05419 0
M  V30 2724 O 246.137 3.31576 2.86337 0
M  V30 2725 C 247.638 1.91414 3.99844 0
M  V30 2726 H 244.858 0.420604 0.522813 0
M  V30 2727 H 247.402 1.7158 1.11268 0
M  V30 2728 H 245.557 1.47099 3.58386 0
M  V30 2729 H 245.971 3.67929 3.73802 0
M  V30 2730 H 247.445 2.46285 4.94012 0
M  V30 2731 H 247.922 0.891833 4.3005 0
M  V30 2732 H 248.528 2.37496 3.52811 0
M  V30 2733 N 246.843 -1.10192 1.12674 0
M  V30 2734 C 247.753 -2.20172 0.810026 0
M  V30 2735 C 248.769 -1.72821 -0.202188 0
M  V30 2736 O 249.945 -2.01369 -0.0351691 0
M  V30 2737 C 247.01 -3.45631 0.272007 0
M  V30 2738 C 246.071 -4.07704 1.34447 0
M  V30 2739 C 245.304 -5.27175 0.832029 0
M  V30 2740 O 245.527 -5.69425 -0.333284 0
M  V30 2741 O 244.461 -5.80168 1.60277 0
M  V30 2742 H 248.287 -2.49701 1.72867 0
M  V30 2743 H 245.872 -1.18977 0.903597 0
M  V30 2744 H 247.754 -4.21394 -0.0230219 0
M  V30 2745 H 246.429 -3.17723 -0.619164 0
M  V30 2746 H 245.336 -3.33614 1.6927 0
M  V30 2747 H 246.669 -4.3982 2.2095 0
M  V30 2748 N 248.321 -0.919034 -1.28029 0
M  V30 2749 C 249.254 -0.355887 -2.25408 0
M  V30 2750 C 250.232 0.542874 -1.5327 0
M  V30 2751 O 251.416 0.485338 -1.82145 0
M  V30 2752 C 248.543 0.490759 -3.35126 0
M  V30 2753 C 247.589 -0.343358 -4.25116 0
M  V30 2754 S 248.422 -1.75344 -5.05979 0
M  V30 2755 C 249.578 -0.914244 -6.19187 0
M  V30 2756 H 249.811 -1.18123 -2.72826 0
M  V30 2757 H 247.344 -0.720636 -1.36551 0
M  V30 2758 H 249.302 0.973404 -3.98792 0
M  V30 2759 H 247.963 1.29054 -2.86363 0
M  V30 2760 H 247.156 0.304266 -5.03081 0
M  V30 2761 H 246.758 -0.759851 -3.662 0
M  V30 2762 H 249.05 -0.146282 -6.77342 0
M  V30 2763 H 249.993 -1.66661 -6.88208 0
M  V30 2764 H 250.401 -0.460082 -5.62622 0
M  V30 2765 N 249.799 1.42003 -0.683588 0
M  V30 2766 C 250.746 2.30798 -0.0107309 0
M  V30 2767 C 251.716 1.4645 0.783688 0
M  V30 2768 O 252.901 1.75263 0.754156 0
M  V30 2769 C 250.041 3.3238 0.928306 0
M  V30 2770 C 249.154 4.31814 0.126776 0
M  V30 2771 C 248.289 5.20468 1.06236 0
M  V30 2772 C 247.328 6.11577 0.253035 0
M  V30 2773 N 246.465 6.92754 1.14179 0
M  V30 2774 H 251.305 2.8778 -0.773727 0
M  V30 2775 H 248.842 1.41745 -0.393283 0
M  V30 2776 H 250.8 3.89813 1.48666 0
M  V30 2777 H 249.43 2.76976 1.65783 0
M  V30 2778 H 248.482 3.76427 -0.54833 0
M  V30 2779 H 249.794 4.96276 -0.501192 0
M  V30 2780 H 248.948 5.82677 1.69035 0
M  V30 2781 H 247.687 4.56204 1.7242 0
M  V30 2782 H 246.692 5.48428 -0.388108 0
M  V30 2783 H 247.917 6.77892 -0.404839 0
M  V30 2784 H 245.863 6.3111 1.78987 0
M  V30 2785 H 245.78 7.53855 0.569111 0
M  V30 2786 H 247.048 7.59441 1.75697 0
M  V30 2787 N 251.277 0.427512 1.51691 0
M  V30 2788 C 252.507 -0.140986 2.06118 0
M  V30 2789 C 252.915 -1.37854 1.29588 0
M  V30 2790 O 252.258 -1.80411 0.346036 0
M  V30 2791 C 252.32 -0.538276 3.55447 0
M  V30 2792 C 251.984 0.591095 4.53161 0
M  V30 2793 C 252.981 1.46027 4.98971 0
M  V30 2794 C 250.666 0.769028 4.96378 0
M  V30 2795 C 252.66 2.49216 5.8666 0
M  V30 2796 C 250.347 1.80421 5.83859 0
M  V30 2797 C 251.345 2.66417 6.28897 0
M  V30 2798 O 251.033 3.68159 7.14643 0
M  V30 2799 H 250.765 -0.0157455 0.675817 0
M  V30 2800 H 253.319 0.602495 1.96365 0
M  V30 2801 H 251.549 -1.33432 3.6295 0
M  V30 2802 H 253.238 -1.0368 3.92435 0
M  V30 2803 H 254.004 1.33429 4.66285 0
M  V30 2804 H 249.883 0.109273 4.6087 0
M  V30 2805 H 253.427 3.16372 6.21735 0
M  V30 2806 H 249.324 1.93042 6.15959 0
M  V30 2807 H 250.092 3.64622 7.32798 0
M  V30 2808 N 252.755 -1.56801 0.158532 0
M  V30 2809 C 253.985 -2.00568 -0.495583 0
M  V30 2810 C 254.393 -1.03774 -1.58201 0
M  V30 2811 O 253.736 -0.0285797 -1.83678 0
M  V30 2812 C 253.798 -3.40768 -1.14532 0
M  V30 2813 C 253.462 -4.56553 -0.202101 0
M  V30 2814 C 254.459 -5.16714 0.574675 0
M  V30 2815 C 252.144 -5.02197 -0.101648 0
M  V30 2816 C 254.138 -6.20939 1.43924 0
M  V30 2817 C 251.825 -6.06274 0.766508 0
M  V30 2818 C 252.823 -6.65515 1.53555 0
M  V30 2819 O 252.511 -7.67575 2.38922 0
M  V30 2820 H 252.243 -0.662893 -0.13247 0
M  V30 2821 H 254.797 -2.03829 0.253559 0
M  V30 2822 H 253.027 -3.34381 -1.94233 0
M  V30 2823 H 254.716 -3.6857 -1.70033 0
M  V30 2824 H 255.482 -4.82341 0.507167 0
M  V30 2825 H 251.361 -4.55807 -0.689994 0
M  V30 2826 H 254.905 -6.67107 2.03996 0
M  V30 2827 H 250.802 -6.40073 0.835266 0
M  V30 2828 H 251.57 -7.84844 2.32296 0
M  V30 2829 N 254.233 0.115231 -1.57178 0
M  V30 2830 C 255.482 0.820945 -1.84237 0
M  V30 2831 C 255.795 1.80866 -0.744761 0
M  V30 2832 O 257.001 2.56083 -0.901871 0
M  V30 2833 C 255.457 1.51072 -3.26658 0
M  V30 2834 C 255.065 0.563795 -4.44438 0
M  V30 2835 C 256.809 2.20134 -3.62962 0
M  V30 2836 C 254.716 1.25701 -5.77887 0
M  V30 2837 H 253.646 0.310328 -0.687177 0
M  V30 2838 H 256.297 0.0737134 -1.83352 0
M  V30 2839 H 254.679 2.30471 -3.22024 0
M  V30 2840 H 255.853 -0.197247 -4.60378 0
M  V30 2841 H 254.168 -0.0200638 -4.16395 0
M  V30 2842 H 256.765 2.72696 -4.59936 0
M  V30 2843 H 257.108 2.98107 -2.90582 0
M  V30 2844 H 257.641 1.47619 -3.69396 0
M  V30 2845 H 254.38 0.518493 -6.53446 0
M  V30 2846 H 253.9 1.98997 -5.65827 0
M  V30 2847 H 255.579 1.78915 -6.2177 0
M  V30 2848 N 255.711 1.52812 0.385517 0
M  V30 2849 C 256.957 1.68275 1.13188 0
M  V30 2850 C 257.29 0.423179 1.89533 0
M  V30 2851 O 256.565 -0.579113 1.85679 0
M  V30 2852 C 256.848 2.92001 2.1073 0
M  V30 2853 C 256.701 4.28067 1.38125 0
M  V30 2854 C 258.02 3.11283 3.11113 0
M  V30 2855 H 255.139 0.612352 0.410115 0
M  V30 2856 H 257.781 1.85415 0.414869 0
M  V30 2857 H 255.931 2.77519 2.71874 0
M  V30 2858 H 257.603 4.54324 0.799187 0
M  V30 2859 H 255.846 4.28388 0.683092 0
M  V30 2860 H 256.517 5.10733 2.09417 0
M  V30 2861 H 258.993 3.2482 2.6006 0
M  V30 2862 H 257.869 3.99325 3.76605 0
M  V30 2863 H 258.13 2.25656 3.80173 0
M  V30 2864 N 257.189 -0.644168 1.43834 0
M  V30 2865 C 258.139 -1.7501 1.46135 0
M  V30 2866 C 259.123 -1.57507 0.328685 0
M  V30 2867 O 260.315 -1.67465 0.5731 0
M  V30 2868 C 257.444 -3.13641 1.39585 0
M  V30 2869 C 256.53 -3.3666 2.57916 0
M  V30 2870 N 256.921 -3.30107 3.83227 0
M  V30 2871 C 255.219 -3.67411 2.52834 0
M  V30 2872 C 255.92 -3.53456 4.61999 0
M  V30 2873 N 254.896 -3.75705 3.9287 0
M  V30 2874 H 258.698 -1.68382 2.40883 0
M  V30 2875 H 256.212 -0.846169 1.38614 0
M  V30 2876 H 258.209 -3.92933 1.39317 0
M  V30 2877 H 256.869 -3.21444 0.45865 0
M  V30 2878 H 257.88 -3.09316 4.15384 0
M  V30 2879 H 254.557 -3.82275 1.67845 0
M  V30 2880 H 255.947 -3.54093 5.71024 0
M  V30 2881 N 258.668 -1.30515 -0.883378 0
M  V30 2882 C 259.598 -1.19607 -2.00541 0
M  V30 2883 C 260.579 -0.086346 -1.69881 0
M  V30 2884 O 261.764 -0.268654 -1.92333 0
M  V30 2885 C 258.894 -0.888758 -3.35736 0
M  V30 2886 C 257.848 -1.95659 -3.8066 0
M  V30 2887 C 257.174 -1.50224 -5.13164 0
M  V30 2888 C 258.474 -3.36788 -3.99213 0
M  V30 2889 H 260.168 -2.13476 -2.09925 0
M  V30 2890 H 257.714 -1.02775 -1.00863 0
M  V30 2891 H 259.667 -0.799094 -4.13754 0
M  V30 2892 H 258.391 0.0856125 -3.26488 0
M  V30 2893 H 257.05 -2.03591 -3.04871 0
M  V30 2894 H 256.698 -0.516092 -5.00345 0
M  V30 2895 H 256.398 -2.2165 -5.44192 0
M  V30 2896 H 257.922 -1.42639 -5.93706 0
M  V30 2897 H 259.336 -3.31605 -4.67665 0
M  V30 2898 H 257.733 -4.06314 -4.41621 0
M  V30 2899 H 258.803 -3.78561 -3.03017 0
M  V30 2900 N 260.146 1.09593 -1.13257 0
M  V30 2901 C 261.093 2.1618 -0.808381 0
M  V30 2902 C 262.063 1.64517 0.228754 0
M  V30 2903 O 263.248 1.9053 0.101381 0
M  V30 2904 C 260.388 3.43973 -0.278675 0
M  V30 2905 C 259.501 4.09545 -1.37466 0
M  V30 2906 C 258.636 5.25088 -0.803479 0
M  V30 2907 C 257.675 5.82579 -1.87799 0
M  V30 2908 N 256.812 6.89486 -1.32488 0
M  V30 2909 H 261.652 2.43254 -1.72138 0
M  V30 2910 H 259.189 1.19392 -0.859294 0
M  V30 2911 H 261.147 4.17174 0.0465583 0
M  V30 2912 H 259.777 3.17223 0.597459 0
M  V30 2913 H 258.829 3.34226 -1.81652 0
M  V30 2914 H 260.141 4.48307 -2.18684 0
M  V30 2915 H 259.295 6.05178 -0.429427 0
M  V30 2916 H 258.034 4.87684 0.0397956 0
M  V30 2917 H 257.039 5.01152 -2.26113 0
M  V30 2918 H 258.264 6.22045 -2.72463 0
M  V30 2919 H 256.21 6.54064 -0.503575 0
M  V30 2920 H 256.127 7.27007 -2.07355 0
M  V30 2921 H 257.395 7.73336 -0.978336 0
M  V30 2922 N 261.624 0.925811 1.2754 0
M  V30 2923 C 263.04 0.625767 1.46821 0
M  V30 2924 C 263.24 -0.825506 1.83814 0
M  V30 2925 O 262.296 -1.60356 1.95044 0
M  V30 2926 C 263.609 1.57402 2.56213 0
M  V30 2927 C 265.157 1.58204 2.70075 0
M  V30 2928 C 265.632 2.51721 3.82623 0
M  V30 2929 N 267.123 2.49917 3.89994 0
M  V30 2930 C 267.858 3.18968 4.76494 0
M  V30 2931 N 267.354 3.97391 5.67496 0
M  V30 2932 N 269.147 3.07996 4.70208 0
M  V30 2933 H 261.298 1.86409 1.01811 0
M  V30 2934 H 263.561 0.800213 0.508295 0
M  V30 2935 H 263.267 2.60925 2.35819 0
M  V30 2936 H 263.141 1.31428 3.53563 0
M  V30 2937 H 265.528 0.554124 2.89851 0
M  V30 2938 H 265.609 1.88226 1.73218 0
M  V30 2939 H 265.253 3.54622 3.63601 0
M  V30 2940 H 265.183 2.18996 4.78903 0
M  V30 2941 H 267.674 1.9296 3.24923 0
M  V30 2942 H 267.987 4.4707 6.30356 0
M  V30 2943 H 266.332 4.01495 5.67298 0
M  V30 2944 H 269.523 2.46223 3.9811 0
M  V30 2945 H 269.696 3.6208 5.37403 0
M  V30 2946 N 263.102 -1.41638 0.69111 0
M  V30 2947 C 264.052 -2.28 -0.000107832 0
M  V30 2948 C 265.036 -1.41964 -0.757304 0
M  V30 2949 O 266.228 -1.65274 -0.633532 0
M  V30 2950 C 263.357 -3.30209 -0.938983 0
M  V30 2951 C 262.443 -4.23725 -0.17827 0
M  V30 2952 N 262.834 -4.99017 0.825563 0
M  V30 2953 C 261.132 -4.44071 -0.414392 0
M  V30 2954 C 261.833 -5.67431 1.28052 0
M  V30 2955 N 260.809 -5.40197 0.607304 0
M  V30 2956 H 264.611 -2.83644 0.769617 0
M  V30 2957 H 262.125 -1.53797 0.521562 0
M  V30 2958 H 264.122 -3.90898 -1.44929 0
M  V30 2959 H 262.782 -2.76126 -1.70836 0
M  V30 2960 H 263.793 -5.03671 1.20566 0
M  V30 2961 H 260.47 -4.01004 -1.162 0
M  V30 2962 H 261.86 -6.37801 2.11327 0
M  V30 2963 N 264.58 -0.43555 -1.51462 0
M  V30 2964 C 265.827 0.131514 -2.02072 0
M  V30 2965 C 266.155 1.42868 -1.31981 0
M  V30 2966 O 265.41 1.91076 -0.422883 0
M  V30 2967 C 265.709 0.39942 -3.55161 0
M  V30 2968 C 265.375 -0.81172 -4.43533 0
M  V30 2969 C 264.037 -1.14387 -4.67407 0
M  V30 2970 C 266.389 -1.61976 -4.95392 0
M  V30 2971 C 263.717 -2.28477 -5.40384 0
M  V30 2972 C 266.069 -2.75164 -5.6962 0
M  V30 2973 C 264.733 -3.08835 -5.91758 0
M  V30 2974 H 264.003 0.0481244 -0.739436 0
M  V30 2975 H 266.65 -0.58238 -1.8243 0
M  V30 2976 H 264.955 1.19519 -3.73125 0
M  V30 2977 H 266.652 0.85157 -3.91854 0
M  V30 2978 H 263.242 -0.542898 -4.25148 0
M  V30 2979 H 267.426 -1.37637 -4.76833 0
M  V30 2980 H 262.682 -2.5488 -5.55739 0
M  V30 2981 H 266.856 -3.38147 -6.08793 0
M  V30 2982 H 264.483 -3.97353 -6.48086 0
M  V30 2983 N 266.058 1.56714 -0.166846 0
M  V30 2984 C 266.991 2.13577 0.80375 0
M  V30 2985 C 267.969 1.06464 1.22899 0
M  V30 2986 O 269.153 1.34413 1.32157 0
M  V30 2987 C 266.28 2.67168 2.0818 0
M  V30 2988 C 265.326 3.86612 1.80093 0
M  V30 2989 S 266.159 5.26565 0.97416 0
M  V30 2990 C 267.315 5.83558 2.26297 0
M  V30 2991 H 267.548 2.9557 0.320267 0
M  V30 2992 H 265.081 1.54326 0.0477555 0
M  V30 2993 H 267.039 2.98692 2.8159 0
M  V30 2994 H 265.7 1.85269 2.53642 0
M  V30 2995 H 264.893 4.22422 2.7491 0
M  V30 2996 H 264.495 3.55951 1.14781 0
M  V30 2997 H 266.787 5.962 3.21795 0
M  V30 2998 H 267.73 6.80731 1.94962 0
M  V30 2999 H 268.138 5.11944 2.37853 0
M  V30 3000 N 267.536 -0.106894 1.57237 0
M  V30 3001 C 268.783 -0.812526 1.85484 0
M  V30 3002 C 269.111 -1.79304 0.753687 0
M  V30 3003 O 268.366 -1.94047 -0.253853 0
M  V30 3004 C 268.665 -1.58628 3.20268 0
M  V30 3005 C 268.331 -0.748967 4.44636 0
M  V30 3006 C 266.993 -0.518104 4.78403 0
M  V30 3007 C 269.345 -0.166122 5.20935 0
M  V30 3008 C 266.673 0.305659 5.85903 0
M  V30 3009 C 269.025 0.644899 6.29304 0
M  V30 3010 C 267.689 0.885965 6.61594 0
M  V30 3011 H 266.959 -0.297324 0.678734 0
M  V30 3012 H 269.606 -0.0744332 1.91355 0
M  V30 3013 H 267.911 -2.39562 3.10028 0
M  V30 3014 H 269.608 -2.13643 3.39349 0
M  V30 3015 H 266.198 -0.939006 4.18187 0
M  V30 3016 H 270.382 -0.33167 4.95191 0
M  V30 3017 H 265.638 0.501528 6.0934 0
M  V30 3018 H 269.812 1.10345 6.87602 0
M  V30 3019 H 267.439 1.52609 7.44725 0
M  V30 3020 N 269.014 -1.53014 -0.377408 0
M  V30 3021 C 270.43 -1.42523 -0.718281 0
M  V30 3022 C 270.63 -0.55487 -1.9371 0
M  V30 3023 O 269.686 -0.0327593 -2.52479 0
M  V30 3024 C 270.999 -2.85546 -0.942539 0
M  V30 3025 C 272.547 -2.95101 -1.04329 0
M  V30 3026 C 273.022 -4.3916 -1.3001 0
M  V30 3027 N 274.513 -4.42536 -1.36806 0
M  V30 3028 C 275.248 -5.51097 -1.58364 0
M  V30 3029 N 274.744 -6.69724 -1.77317 0
M  V30 3030 N 276.537 -5.38657 -1.60638 0
M  V30 3031 H 268.688 -2.08116 0.424426 0
M  V30 3032 H 270.951 -0.939352 0.127759 0
M  V30 3033 H 270.657 -3.51499 -0.118929 0
M  V30 3034 H 270.531 -3.28493 -1.85397 0
M  V30 3035 H 272.918 -2.29309 -1.85745 0
M  V30 3036 H 272.999 -2.55566 -0.109505 0
M  V30 3037 H 272.643 -5.05521 -0.490991 0
M  V30 3038 H 272.573 -4.76258 -2.24691 0
M  V30 3039 H 275.064 -3.57039 -1.23821 0
M  V30 3040 H 275.377 -7.48233 -1.93306 0
M  V30 3041 H 273.722 -6.72732 -1.74518 0
M  V30 3042 H 276.913 -4.44948 -1.45391 0
M  V30 3043 H 277.086 -6.2333 -1.77098 0
M  V30 3044 N 270.492 0.636531 -1.44174 0
M  V30 3045 C 271.44 1.76995 -1.50915 0
M  V30 3046 C 272.434 1.65053 -0.381295 0
M  V30 3047 O 273.64 1.71197 -0.55601 0
M  V30 3048 H 270.015 0.584247 -0.473455 0
M  V30 3049 H 271.986 1.68432 -2.4632 0
M  V30 3050 C 270.735 3.15314 -1.46534 0
M  V30 3051 H 270.058 3.25149 -2.32633 0
M  V30 3052 H 271.498 3.9453 -1.55312 0
M  V30 3053 C 269.957 3.3639 -0.185305 0
M  V30 3054 O 270.487 3.94699 0.746688 0
M  V30 3055 N 268.693 2.9046 -0.0901606 0
M  V30 3056 H 268.24 2.43193 -0.849416 0
M  V30 3057 H 268.198 3.04937 0.765553 0
M  V30 3058 N 271.97 1.30982 0.876444 0
M  V30 3059 C 272.92 1.14688 1.97055 0
M  V30 3060 C 273.904 0.0596593 1.60789 0
M  V30 3061 O 275.096 0.283892 1.74708 0
M  V30 3062 C 272.225 0.849627 3.3262 0
M  V30 3063 C 271.311 1.97752 3.75173 0
M  V30 3064 N 271.702 3.22384 3.89746 0
M  V30 3065 C 270 1.8758 4.04635 0
M  V30 3066 C 270.701 3.96121 4.25985 0
M  V30 3067 N 269.677 3.24237 4.36315 0
M  V30 3068 H 273.479 2.09204 2.06424 0
M  V30 3069 H 270.993 1.22445 1.06682 0
M  V30 3070 H 272.99 0.713895 4.10742 0
M  V30 3071 H 271.65 -0.087376 3.24582 0
M  V30 3072 H 272.661 3.57575 3.74647 0
M  V30 3073 H 269.338 1.01303 4.05024 0
M  V30 3074 H 270.728 5.03491 4.44911 0
M  V30 3075 N 273.449 -1.08991 1.13837 0
M  V30 3076 C 274.379 -2.17771 0.842507 0
M  V30 3077 C 275.36 -1.6892 -0.20001 0
M  V30 3078 O 276.545 -1.94113 -0.0579731 0
M  V30 3079 C 273.675 -3.4589 0.312644 0
M  V30 3080 C 272.629 -4.08099 1.28992 0
M  V30 3081 C 271.955 -5.31098 0.619623 0
M  V30 3082 C 273.255 -4.50077 2.65005 0
M  V30 3083 H 274.949 -2.42777 1.75213 0
M  V30 3084 H 272.495 -1.16682 0.843875 0
M  V30 3085 H 274.448 -4.21297 0.0933043 0
M  V30 3086 H 273.172 -3.20419 -0.632382 0
M  V30 3087 H 271.831 -3.34717 1.49533 0
M  V30 3088 H 271.479 -5.0191 -0.33102 0
M  V30 3089 H 271.179 -5.73674 1.27167 0
M  V30 3090 H 272.703 -6.09224 0.409669 0
M  V30 3091 H 274.117 -5.16688 2.48407 0
M  V30 3092 H 272.514 -5.03553 3.26427 0
M  V30 3093 H 273.584 -3.62257 3.22332 0
M  V30 3094 N 274.927 -0.932562 -1.27047 0
M  V30 3095 C 276.167 -0.582919 -1.95912 0
M  V30 3096 C 276.531 0.860629 -1.71631 0
M  V30 3097 O 277.732 1.31878 -2.34225 0
M  V30 3098 C 276.003 -0.905673 -3.45734 0
M  V30 3099 S 277.562 -0.665277 -4.33727 0
M  V30 3100 H 274.38 -0.215 -0.677714 0
M  V30 3101 H 276.982 -1.20204 -1.54179 0
M  V30 3102 H 275.686 -1.95386 -3.60905 0
M  V30 3103 H 275.217 -0.275939 -3.92431 0
M  V30 3104 H 277.232 0.474635 -4.93925 0
M  V30 3105 N 276.405 1.4127 -0.698611 0
M  V30 3106 C 277.335 2.33447 -0.049629 0
M  V30 3107 C 278.316 1.51982 0.763898 0
M  V30 3108 O 279.501 1.80509 0.716257 0
M  V30 3109 C 276.631 3.35828 0.885267 0
M  V30 3110 C 275.585 4.27627 0.178613 0
M  V30 3111 C 274.911 5.20406 1.22807 0
M  V30 3112 C 276.211 5.13459 -0.956933 0
M  V30 3113 H 277.905 2.87966 -0.81951 0
M  V30 3114 H 275.451 1.38461 -0.395538 0
M  V30 3115 H 277.404 3.9924 1.34854 0
M  V30 3116 H 276.128 2.79666 1.68685 0
M  V30 3117 H 274.787 3.65643 -0.26466 0
M  V30 3118 H 274.435 4.60558 2.02226 0
M  V30 3119 H 274.135 5.82661 0.760239 0
M  V30 3120 H 275.659 5.86695 1.69179 0
M  V30 3121 H 277.073 5.70421 -0.573805 0
M  V30 3122 H 275.47 5.8467 -1.35205 0
M  V30 3123 H 276.54 4.50443 -1.79524 0
M  V30 3124 N 277.883 0.443576 1.51229 0
M  V30 3125 C 279.129 -0.120975 2.02439 0
M  V30 3126 C 279.462 -1.41815 1.32674 0
M  V30 3127 O 278.737 -1.89373 0.443622 0
M  V30 3128 C 279.02 -0.333291 3.58554 0
M  V30 3129 C 278.873 0.982968 4.38928 0
M  V30 3130 C 280.192 -1.10028 4.26124 0
M  V30 3131 H 277.311 -0.0424923 0.735774 0
M  V30 3132 H 279.953 0.583794 1.80809 0
M  V30 3133 H 278.103 -0.933614 3.77115 0
M  V30 3134 H 279.775 1.61775 4.32003 0
M  V30 3135 H 278.018 1.58611 4.03763 0
M  V30 3136 H 278.689 0.788379 5.46341 0
M  V30 3137 H 281.165 -0.591711 4.11871 0
M  V30 3138 H 280.041 -1.21761 5.35225 0
M  V30 3139 H 280.302 -2.12996 3.87408 0
M  V30 3140 N 279.361 -1.56624 0.175154 0
M  V30 3141 C 280.608 -1.96999 -0.468811 0
M  V30 3142 C 280.936 -1.06129 -1.62994 0
M  V30 3143 O 280.191 -0.0961771 -1.95464 0
M  V30 3144 C 280.49 -3.43419 -0.989864 0
M  V30 3145 C 280.156 -4.50866 0.0557687 0
M  V30 3146 C 278.818 -4.79975 0.343134 0
M  V30 3147 C 281.17 -5.15551 0.765308 0
M  V30 3148 C 278.498 -5.71066 1.34536 0
M  V30 3149 C 280.85 -6.07724 1.75654 0
M  V30 3150 C 279.514 -6.35199 2.05132 0
M  V30 3151 H 278.784 -0.720869 -0.17155 0
M  V30 3152 H 281.431 -1.89616 0.267924 0
M  V30 3153 H 279.736 -3.47772 -1.80449 0
M  V30 3154 H 281.433 -3.72002 -1.49719 0
M  V30 3155 H 278.023 -4.28229 -0.178381 0
M  V30 3156 H 282.207 -4.9317 0.556513 0
M  V30 3157 H 277.463 -5.90635 1.57988 0
M  V30 3158 H 281.637 -6.56912 2.31169 0
M  V30 3159 H 279.264 -7.05584 2.8294 0
M  V30 3160 N 280.839 0.0985539 -1.57292 0
M  V30 3161 C 281.749 1.13824 -2.05137 0
M  V30 3162 C 282.765 1.44076 -0.975604 0
M  V30 3163 O 283.941 1.54786 -1.28853 0
M  V30 3164 C 281.006 2.43969 -2.46333 0
M  V30 3165 C 280.067 2.2093 -3.68087 0
M  V30 3166 C 279.3 3.44869 -4.0731 0
M  V30 3167 O 279.523 4.52972 -3.46659 0
M  V30 3168 O 278.457 3.34661 -5.00285 0
M  V30 3169 H 282.283 0.761881 -2.93988 0
M  V30 3170 H 279.868 0.310818 -1.46131 0
M  V30 3171 H 281.75 3.20609 -2.73473 0
M  V30 3172 H 280.425 2.81038 -1.60621 0
M  V30 3173 H 279.332 1.42081 -3.46069 0
M  V30 3174 H 280.665 1.88755 -4.54568 0
M  V30 3175 N 282.317 1.53212 0.369288 0
M  V30 3176 C 283.247 1.82365 1.45826 0
M  V30 3177 C 284.228 0.676907 1.56051 0
M  V30 3178 O 285.413 0.926401 1.70679 0
M  V30 3179 C 282.543 2.01023 2.83208 0
M  V30 3180 C 281.497 3.1678 2.8781 0
M  V30 3181 C 280.823 3.20724 4.27832 0
M  V30 3182 C 282.123 4.55447 2.55667 0
M  V30 3183 H 283.817 2.73559 1.21678 0
M  V30 3184 H 281.363 1.3163 0.583911 0
M  V30 3185 H 283.316 2.20001 3.59413 0
M  V30 3186 H 282.04 1.06536 3.08736 0
M  V30 3187 H 280.699 2.97616 2.14056 0
M  V30 3188 H 280.347 2.23882 4.50429 0
M  V30 3189 H 280.047 3.98496 4.31827 0
M  V30 3190 H 281.571 3.41881 5.05915 0
M  V30 3191 H 282.985 4.74611 3.21586 0
M  V30 3192 H 281.382 5.35432 2.70984 0
M  V30 3193 H 282.452 4.60812 1.5093 0
M  V30 3194 N 283.795 -0.628877 1.44509 0
M  V30 3195 C 284.725 -1.75187 1.54376 0
M  V30 3196 C 285.706 -1.65411 0.396618 0
M  V30 3197 O 286.891 -1.84137 0.617031 0
M  V30 3198 C 284.021 -3.13725 1.48976 0
M  V30 3199 C 282.975 -3.38291 2.62189 0
M  V30 3200 C 282.301 -4.76883 2.41841 0
M  V30 3201 C 283.601 -3.30632 4.04326 0
M  V30 3202 H 285.295 -1.67187 2.48373 0
M  V30 3203 H 282.841 -0.802909 1.19538 0
M  V30 3204 H 284.794 -3.92064 1.54478 0
M  V30 3205 H 283.518 -3.22515 0.514961 0
M  V30 3206 H 282.177 -2.62334 2.56079 0
M  V30 3207 H 281.825 -4.82378 1.42548 0
M  V30 3208 H 281.525 -4.94278 3.17747 0
M  V30 3209 H 283.049 -5.57449 2.49165 0
M  V30 3210 H 284.463 -3.98873 4.11793 0
M  V30 3211 H 282.86 -3.59561 4.80454 0
M  V30 3212 H 283.93 -2.28404 4.27738 0
M  V30 3213 N 285.273 -1.31445 -0.869486 0
M  V30 3214 C 286.498 -1.24256 -1.66058 0
M  V30 3215 C 286.923 0.188928 -1.87149 0
M  V30 3216 O 286.281 1.13522 -1.4136 0
M  V30 3217 C 286.329 -1.9924 -3.00559 0
M  V30 3218 O 285.433 -1.33007 -3.90362 0
M  V30 3219 H 284.774 -0.428973 -0.506831 0
M  V30 3220 H 287.304 -1.73521 -1.08404 0
M  V30 3221 H 287.314 -2.08854 -3.50491 0
M  V30 3222 H 285.989 -3.03342 -2.84528 0
M  V30 3223 H 284.566 -1.31848 -3.48813 0
M  V30 3224 N 286.751 1.08385 -1.14413 0
M  V30 3225 C 287.981 1.8425 -0.934644 0
M  V30 3226 C 288.389 1.81907 0.520234 0
M  V30 3227 O 287.732 1.22126 1.37226 0
M  V30 3228 C 287.794 3.32853 -1.35828 0
M  V30 3229 C 287.458 3.5893 -2.82875 0
M  V30 3230 C 288.455 3.53756 -3.80989 0
M  V30 3231 C 286.14 3.86934 -3.20293 0
M  V30 3232 C 288.134 3.76216 -5.14529 0
M  V30 3233 C 285.821 4.09047 -4.54008 0
M  V30 3234 C 286.819 4.03682 -5.50936 0
M  V30 3235 O 286.507 4.25214 -6.82238 0
M  V30 3236 H 286.239 0.588502 -0.332628 0
M  V30 3237 H 288.793 1.37792 -1.52324 0
M  V30 3238 H 287.023 3.8007 -0.713019 0
M  V30 3239 H 288.712 3.90154 -1.11957 0
M  V30 3240 H 289.478 3.32135 -3.53428 0
M  V30 3241 H 285.357 3.9023 -2.45442 0
M  V30 3242 H 288.901 3.71943 -5.90173 0
M  V30 3243 H 284.798 4.30151 -4.8129 0
M  V30 3244 H 285.566 4.42619 -6.88499 0
M  V30 3245 N 288.23 0.939286 1.26551 0
M  V30 3246 C 289.178 0.43815 2.28436 0
M  V30 3247 C 290.172 -0.483587 1.62351 0
M  V30 3248 O 291.378 -0.362009 1.76322 0
M  V30 3249 H 287.753 0.123149 0.741848 0
M  V30 3250 H 289.724 1.31002 2.68106 0
M  V30 3251 C 288.473 -0.283052 3.46546 0
M  V30 3252 H 287.796 0.417043 3.97619 0
M  V30 3253 H 289.236 -0.597948 4.19763 0
M  V30 3254 C 287.695 -1.50018 3.01656 0
M  V30 3255 O 288.225 -2.59855 3.0633 0
M  V30 3256 N 286.431 -1.35608 2.57019 0
M  V30 3257 H 285.978 -0.46244 2.53415 0
M  V30 3258 H 285.936 -2.17165 2.27347 0
M  V30 3259 N 289.708 -1.40897 0.706093 0
M  V30 3260 C 290.638 -2.33418 0.0620085 0
M  V30 3261 C 291.619 -1.52385 -0.755827 0
M  V30 3262 O 292.804 -1.80886 -0.706674 0
M  V30 3263 C 289.934 -3.36293 -0.867445 0
M  V30 3264 C 288.888 -4.27716 -0.155932 0
M  V30 3265 C 288.214 -5.2105 -1.20046 0
M  V30 3266 C 289.514 -5.12944 0.984149 0
M  V30 3267 H 291.208 -2.87527 0.83477 0
M  V30 3268 H 288.754 -1.38249 0.402875 0
M  V30 3269 H 290.707 -3.99949 -1.32735 0
M  V30 3270 H 289.431 -2.80556 -1.67199 0
M  V30 3271 H 288.09 -3.65498 0.284047 0
M  V30 3272 H 287.738 -4.61624 -1.99781 0
M  V30 3273 H 287.438 -5.83056 -0.729328 0
M  V30 3274 H 288.962 -5.87584 -1.66066 0
M  V30 3275 H 290.376 -5.70109 0.604048 0
M  V30 3276 H 288.773 -5.83945 1.38304 0
M  V30 3277 H 289.843 -4.49485 1.81911 0
M  V30 3278 N 291.186 -0.45159 -1.50991 0
M  V30 3279 C 292.416 0.108177 -2.06317 0
M  V30 3280 C 292.824 1.35774 -1.31765 0
M  V30 3281 O 292.167 1.79838 -0.374694 0
M  V30 3282 C 292.229 0.481659 -3.56259 0
M  V30 3283 C 291.893 -0.663114 -4.52163 0
M  V30 3284 C 292.89 -1.53947 -4.96585 0
M  V30 3285 C 290.575 -0.8479 -4.95092 0
M  V30 3286 C 292.569 -2.58518 -5.82621 0
M  V30 3287 C 290.256 -1.89686 -5.80915 0
M  V30 3288 C 291.254 -2.76388 -6.24579 0
M  V30 3289 O 290.942 -3.79482 -7.08695 0
M  V30 3290 H 290.674 0.00499183 -0.675982 0
M  V30 3291 H 293.228 -0.633659 -1.95381 0
M  V30 3292 H 291.458 1.27641 -3.65027 0
M  V30 3293 H 293.147 0.974233 -3.94035 0
M  V30 3294 H 293.913 -1.4083 -4.64103 0
M  V30 3295 H 289.792 -0.18258 -4.60638 0
M  V30 3296 H 293.336 -3.26224 -6.16623 0
M  V30 3297 H 289.233 -2.02817 -6.12809 0
M  V30 3298 H 290.001 -3.76234 -7.26905 0
M  V30 3299 N 292.664 1.56529 -0.183458 0
M  V30 3300 C 293.941 1.88959 0.50536 0
M  V30 3301 C 294.321 1.09523 1.80466 0
M  V30 3302 O 293.669 0.19278 2.27685 0
M  V30 3303 C 293.879 3.41162 0.73547 0
M  V30 3304 C 295.227 4.11155 1.06005 0
M  V30 3305 O 296.251 3.46548 0.823594 0
M  V30 3306 O 295.11 5.25318 1.50675 0
M  V30 3307 H 292.204 0.78441 0.261973 0
M  V30 3308 H 294.75 1.68231 -0.222802 0
M  V30 3309 H 293.522 3.90874 -0.182561 0
M  V30 3310 H 293.145 3.67543 1.51651 0
M  V30 3311 N 294.142 -0.090211 1.57342 0
M  V30 3312 C 295.072 -1.10976 2.05443 0
M  V30 3313 C 296.053 -1.41482 0.944284 0
M  V30 3314 O 297.238 -1.51428 1.21586 0
M  V30 3315 C 294.368 -2.42831 2.48295 0
M  V30 3316 C 293.322 -2.26721 3.63018 0
M  V30 3317 C 292.648 -3.63796 3.91863 0
M  V30 3318 C 293.948 -1.7037 4.93732 0
M  V30 3319 H 295.642 -0.709564 2.9087 0
M  V30 3320 H 293.188 -0.339874 1.39932 0
M  V30 3321 H 295.141 -3.14431 2.80555 0
M  V30 3322 H 293.865 -2.84795 1.59873 0
M  V30 3323 H 292.524 -1.57565 3.31012 0
M  V30 3324 H 292.172 -4.03297 3.00601 0
M  V30 3325 H 291.872 -3.53861 4.69101 0
M  V30 3326 H 293.396 -4.36855 4.26603 0
M  V30 3327 H 294.81 -2.31816 5.24342 0
M  V30 3328 H 293.207 -1.71181 5.75167 0
M  V30 3329 H 294.277 -0.663542 4.80339 0
M  V30 3330 N 295.62 -1.53406 -0.361157 0
M  V30 3331 C 296.55 -1.83136 -1.44857 0
M  V30 3332 C 297.531 -0.685174 -1.5569 0
M  V30 3333 O 298.716 -0.93544 -1.70186 0
M  V30 3334 C 295.846 -2.02522 -2.82138 0
M  V30 3335 C 294.8 -3.18302 -2.86126 0
M  V30 3336 C 294.126 -3.22989 -4.26125 0
M  V30 3337 C 295.426 -4.56796 -2.53248 0
M  V30 3338 H 297.12 -2.74201 -1.20226 0
M  V30 3339 H 294.666 -1.31938 -0.576922 0
M  V30 3340 H 296.619 -2.21904 -3.58241 0
M  V30 3341 H 295.343 -1.08172 -3.08166 0
M  V30 3342 H 294.002 -2.98747 -2.12475 0
M  V30 3343 H 293.65 -2.26267 -4.49235 0
M  V30 3344 H 293.35 -4.00781 -4.29708 0
M  V30 3345 H 294.874 -3.44559 -5.04094 0
M  V30 3346 H 296.288 -4.7631 -3.19064 0
M  V30 3347 H 294.685 -5.36862 -2.68141 0
M  V30 3348 H 295.755 -4.61606 -1.48484 0
M  V30 3349 N 297.098 0.621204 -1.44841 0
M  V30 3350 C 298.514 0.94048 -1.28946 0
M  V30 3351 C 298.714 2.00154 -0.23249 0
M  V30 3352 O 297.77 2.49651 0.378237 0
M  V30 3353 C 299.083 1.39433 -2.66419 0
M  V30 3354 C 300.631 1.50927 -2.74208 0
M  V30 3355 C 301.106 1.99692 -4.12174 0
M  V30 3356 N 302.597 2.06947 -4.144 0
M  V30 3357 C 303.332 2.45871 -5.1801 0
M  V30 3358 N 302.828 2.83862 -6.31977 0
M  V30 3359 N 304.621 2.46092 -5.05366 0
M  V30 3360 H 296.772 -0.0803548 -2.12248 0
M  V30 3361 H 299.035 0.0266913 -0.947624 0
M  V30 3362 H 298.741 0.688925 -3.44887 0
M  V30 3363 H 298.615 2.36347 -2.93973 0
M  V30 3364 H 301.002 2.20561 -1.96053 0
M  V30 3365 H 301.083 0.523627 -2.50383 0
M  V30 3366 H 300.727 1.30649 -4.90809 0
M  V30 3367 H 300.657 2.99146 -4.33381 0
M  V30 3368 H 303.148 1.80232 -3.32152 0
M  V30 3369 H 303.461 3.12405 -7.0684 0
M  V30 3370 H 301.806 2.8159 -6.35399 0
M  V30 3371 H 304.997 2.1581 -4.15384 0
M  V30 3372 H 305.17 2.76102 -5.86235 0
M  V30 3373 N 298.576 1.31904 0.862503 0
M  V30 3374 C 299.524 1.20125 1.9918 0
M  V30 3375 C 300.518 0.107824 1.69056 0
M  V30 3376 O 301.724 0.270223 1.7796 0
M  V30 3377 H 298.099 0.372148 0.65346 0
M  V30 3378 H 300.07 2.15652 2.06244 0
M  V30 3379 C 298.819 0.933099 3.34946 0
M  V30 3380 H 298.142 1.76664 3.5865 0
M  V30 3381 H 299.582 0.890892 4.14535 0
M  V30 3382 C 298.041 -0.364172 3.34926 0
M  V30 3383 O 298.571 -1.37858 3.77304 0
M  V30 3384 N 296.777 -0.383362 2.8806 0
M  V30 3385 H 296.324 0.442651 2.53768 0
M  V30 3386 H 296.282 -1.25123 2.8843 0
M  V30 3387 N 300.054 -1.07777 1.14986 0
M  V30 3388 C 301.282 -1.84018 0.945773 0
M  V30 3389 C 301.697 -1.81897 -0.505863 0
M  V30 3390 O 301.054 -1.22726 -1.35072 0
M  V30 3391 C 301.105 -3.31287 1.44677 0
M  V30 3392 O 300.826 -3.33449 2.84154 0
M  V30 3393 C 302.327 -4.24311 1.28355 0
M  V30 3394 H 299.547 -0.580716 0.336169 0
M  V30 3395 H 302.091 -1.36077 1.52654 0
M  V30 3396 H 300.246 -3.76594 0.908625 0
M  V30 3397 H 300.66 -4.25427 3.06777 0
M  V30 3398 H 302.134 -5.2573 1.68261 0
M  V30 3399 H 302.611 -4.38612 0.227184 0
M  V30 3400 H 303.217 -3.84836 1.81056 0
M  V30 3401 N 301.532 -0.945985 -1.26051 0
M  V30 3402 C 302.482 -0.430164 -2.23905 0
M  V30 3403 C 303.466 0.47579 -1.53704 0
M  V30 3404 O 304.658 0.310252 -1.7426 0
M  V30 3405 C 301.787 0.298957 -3.41996 0
M  V30 3406 C 300.873 -0.624566 -4.19476 0
M  V30 3407 N 301.264 -1.75245 -4.74471 0
M  V30 3408 C 299.562 -0.431082 -4.43912 0
M  V30 3409 C 300.263 -2.32834 -5.3307 0
M  V30 3410 N 299.239 -1.61583 -5.1903 0
M  V30 3411 H 303.041 -1.29107 -2.64024 0
M  V30 3412 H 300.555 -0.802428 -1.41191 0
M  V30 3413 H 302.552 0.685565 -4.11225 0
M  V30 3414 H 301.212 1.15657 -3.03403 0
M  V30 3415 H 302.223 -2.13449 -4.71868 0
M  V30 3416 H 298.9 0.384364 -4.15727 0
M  V30 3417 H 300.29 -3.27893 -5.86461 0
M  V30 3418 N 303.011 1.40521 -0.713556 0
M  V30 3419 C 304.258 2.00923 -0.25219 0
M  V30 3420 C 304.586 1.56571 1.15395 0
M  V30 3421 O 303.841 0.775874 1.79663 0
M  V30 3422 C 304.14 3.56317 -0.278 0
M  V30 3423 C 303.806 4.20246 -1.63415 0
M  V30 3424 C 302.468 4.37422 -2.00538 0
M  V30 3425 C 304.82 4.55923 -2.52554 0
M  V30 3426 C 302.148 4.87558 -3.2635 0
M  V30 3427 C 304.5 5.07458 -3.77716 0
M  V30 3428 C 303.164 5.22843 -4.14959 0
M  V30 3429 H 302.434 0.735231 -0.0922829 0
M  V30 3430 H 305.081 1.68161 -0.916188 0
M  V30 3431 H 303.386 3.88976 0.469567 0
M  V30 3432 H 305.083 4.00883 0.0967819 0
M  V30 3433 H 301.673 4.07263 -1.33546 0
M  V30 3434 H 305.857 4.42291 -2.25149 0
M  V30 3435 H 301.113 4.97654 -3.55176 0
M  V30 3436 H 305.287 5.34041 -4.4696 0
M  V30 3437 H 302.914 5.61454 -5.12516 0
M  V30 3438 N 304.489 0.459591 1.5075 0
M  V30 3439 C 305.905 0.113092 1.59199 0
M  V30 3440 C 306.105 -1.37951 1.46874 0
M  V30 3441 O 305.161 -2.15168 1.32132 0
M  V30 3442 C 306.474 0.653043 2.93523 0
M  V30 3443 C 308.022 0.615449 3.0689 0
M  V30 3444 C 308.497 1.13275 4.43771 0
M  V30 3445 N 309.988 1.09167 4.50152 0
M  V30 3446 C 310.723 1.46256 5.54434 0
M  V30 3447 N 310.219 1.90739 6.66026 0
M  V30 3448 N 312.012 1.37932 5.44914 0
M  V30 3449 H 304.163 1.43049 1.57005 0
M  V30 3450 H 306.426 0.590861 0.741341 0
M  V30 3451 H 306.132 1.69822 3.07983 0
M  V30 3452 H 306.006 0.0902132 3.77092 0
M  V30 3453 H 308.393 -0.420793 2.92084 0
M  V30 3454 H 308.474 1.21495 2.25106 0
M  V30 3455 H 308.118 2.16757 4.59324 0
M  V30 3456 H 308.048 0.509576 5.24129 0
M  V30 3457 H 310.539 0.76528 3.7007 0
M  V30 3458 H 310.852 2.17218 7.41644 0
M  V30 3459 H 309.197 1.94683 6.67176 0
M  V30 3460 H 312.388 1.0303 4.56621 0
M  V30 3461 H 312.561 1.67164 6.26067 0
M  V30 3462 N 305.967 -1.56429 0.191757 0
M  V30 3463 C 307.215 -1.97095 -0.447006 0
M  V30 3464 C 307.536 -1.07967 -1.62383 0
M  V30 3465 O 306.806 -0.150248 -1.95323 0
M  V30 3466 H 305.386 -0.727832 -0.168135 0
M  V30 3467 H 308.048 -1.92911 0.27771 0
M  V30 3468 H 307.144 -3.01848 -0.793371 0
M  V30 3469 N 307.445 0.0818655 -1.57387 0
M  V30 3470 C 308.691 0.784074 -1.8703 0
M  V30 3471 C 309.024 1.77729 -0.782689 0
M  V30 3472 O 308.299 1.93384 0.208051 0
M  V30 3473 C 308.582 1.50105 -3.27323 0
M  V30 3474 C 308.435 0.524925 -4.46727 0
M  V30 3475 C 309.754 2.44843 -3.65705 0
M  V30 3476 H 306.873 0.283582 -0.680257 0
M  V30 3477 H 309.515 0.0474352 -1.89941 0
M  V30 3478 H 307.665 2.12897 -3.24972 0
M  V30 3479 H 309.337 -0.0970111 -4.61198 0
M  V30 3480 H 307.58 -0.160606 -4.33503 0
M  V30 3481 H 308.251 1.064 -5.41648 0
M  V30 3482 H 310.727 1.92135 -3.69085 0
M  V30 3483 H 309.603 2.92018 -4.64776 0
M  V30 3484 H 309.864 3.29197 -2.95096 0
M  V30 3485 N 308.923 1.53595 0.353017 0
M  V30 3486 C 310.148 1.7462 1.11904 0
M  V30 3487 C 310.573 0.479721 1.8188 0
M  V30 3488 O 309.931 -0.567066 1.72204 0
M  V30 3489 C 309.979 2.92029 2.11545 0
M  V30 3490 O 309.083 2.61516 3.18878 0
M  V30 3491 H 308.424 0.579531 0.324099 0
M  V30 3492 H 310.954 2.00525 0.406301 0
M  V30 3493 H 310.964 3.18551 2.5493 0
M  V30 3494 H 309.639 3.83888 1.60008 0
M  V30 3495 H 308.216 2.45852 2.80377 0
M  V30 3496 N 310.401 -0.613514 1.45168 0
M  V30 3497 C 311.331 -1.7354 1.56225 0
M  V30 3498 C 312.312 -1.64981 0.41414 0
M  V30 3499 O 313.497 -1.83472 0.636526 0
M  V30 3500 C 310.627 -3.12128 1.52295 0
M  V30 3501 C 309.581 -3.35491 2.65762 0
M  V30 3502 C 308.907 -4.74291 2.46885 0
M  V30 3503 C 310.207 -3.26325 4.0781 0
M  V30 3504 H 311.901 -1.64543 2.50132 0
M  V30 3505 H 309.447 -0.790185 1.20383 0
M  V30 3506 H 311.4 -3.90404 1.58628 0
M  V30 3507 H 310.124 -3.2195 0.549139 0
M  V30 3508 H 308.783 -2.59603 2.58847 0
M  V30 3509 H 308.431 -4.80839 1.47657 0
M  V30 3510 H 308.131 -4.9088 3.22972 0
M  V30 3511 H 309.655 -5.54775 2.55063 0
M  V30 3512 H 311.069 -3.94483 4.16 0
M  V30 3513 H 309.466 -3.54445 4.8424 0
M  V30 3514 H 310.536 -2.23855 4.30136 0
M  V30 3515 N 311.879 -1.3236 -0.855495 0
M  V30 3516 C 312.827 -1.2118 -1.9854 0
M  V30 3517 C 313.821 -0.116788 -1.68997 0
M  V30 3518 O 315.027 -0.279657 -1.77814 0
M  V30 3519 H 311.402 -0.375608 -0.651477 0
M  V30 3520 H 313.373 -2.16743 -2.05098 0
M  V30 3521 C 312.122 -0.950849 -3.34446 0
M  V30 3522 H 311.445 -1.78563 -3.57708 0
M  V30 3523 H 312.885 -0.912863 -4.14057 0
M  V30 3524 C 311.344 0.346404 -3.35114 0
M  V30 3525 O 311.874 1.35855 -3.7803 0
M  V30 3526 N 310.08 0.36808 -2.88259 0
M  V30 3527 H 309.627 -0.456102 -2.5353 0
M  V30 3528 H 309.585 1.23591 -2.89089 0
M  V30 3529 N 313.357 1.07166 -1.15556 0
M  V30 3530 C 314.287 2.16403 -0.877046 0
M  V30 3531 C 315.268 1.69217 0.173111 0
M  V30 3532 O 316.453 1.94181 0.027084 0
M  V30 3533 C 313.583 3.45349 -0.367632 0
M  V30 3534 C 312.537 4.05995 -1.35468 0
M  V30 3535 C 311.863 5.30045 -0.704038 0
M  V30 3536 C 313.163 4.45804 -2.72132 0
M  V30 3537 H 314.857 2.39959 -1.79053 0
M  V30 3538 H 312.403 1.15325 -0.862331 0
M  V30 3539 H 314.356 4.21095 -0.160317 0
M  V30 3540 H 313.08 3.21385 0.581326 0
M  V30 3541 H 311.739 3.32296 -1.54839 0
M  V30 3542 H 311.387 5.02373 0.251128 0
M  V30 3543 H 311.087 5.71579 -1.36277 0
M  V30 3544 H 312.611 6.08495 -0.50654 0
M  V30 3545 H 314.025 5.12671 -2.56595 0
M  V30 3546 H 312.422 4.98296 -3.34397 0
M  V30 3547 H 313.492 3.57083 -3.28054 0
M  V30 3548 N 314.835 0.952656 1.25548 0
M  V30 3549 C 316.063 0.623496 1.97282 0
M  V30 3550 C 316.478 -0.803987 1.70826 0
M  V30 3551 O 315.835 -1.53755 0.983147 0
M  V30 3552 C 315.886 0.870209 3.5087 0
M  V30 3553 O 315.607 2.24156 3.76412 0
M  V30 3554 C 317.108 0.553164 4.39835 0
M  V30 3555 H 314.328 0.233931 0.628902 0
M  V30 3556 H 316.872 1.27649 1.59768 0
M  V30 3557 H 315.027 0.263652 3.86502 0
M  V30 3558 H 315.441 2.31021 4.70882 0
M  V30 3559 H 316.915 0.776342 5.46513 0
M  V30 3560 H 317.392 -0.512215 4.36203 0
M  V30 3561 H 317.998 1.13896 4.09766 0
M  V30 3562 N 316.313 -1.40141 0.720998 0
M  V30 3563 C 317.729 -1.54632 0.395113 0
M  V30 3564 C 317.929 -1.69115 -1.09555 0
M  V30 3565 O 316.985 -1.68377 -1.88163 0
M  V30 3566 C 318.298 -2.77177 1.1659 0
M  V30 3567 C 319.846 -2.91 1.15274 0
M  V30 3568 C 320.321 -4.16465 1.90579 0
M  V30 3569 N 321.812 -4.23476 1.87675 0
M  V30 3570 C 322.547 -5.19475 2.42762 0
M  V30 3571 N 322.043 -6.21348 3.06428 0
M  V30 3572 N 323.836 -5.11592 2.32874 0
M  V30 3573 H 315.987 -1.28986 1.68749 0
M  V30 3574 H 318.25 -0.62412 0.713567 0
M  V30 3575 H 317.956 -2.72771 2.22011 0
M  V30 3576 H 317.83 -3.69442 0.76108 0
M  V30 3577 H 320.217 -2.94907 0.106702 0
M  V30 3578 H 320.298 -1.99838 1.59682 0
M  V30 3579 H 319.942 -4.1332 2.95176 0
M  V30 3580 H 319.872 -5.06646 1.43587 0
M  V30 3581 H 322.363 -3.50497 1.41281 0
M  V30 3582 H 322.676 -6.91034 3.45965 0
M  V30 3583 H 321.021 -6.21777 3.10514 0
M  V30 3584 H 324.212 -4.30936 1.82789 0
M  V30 3585 H 324.385 -5.86233 2.76106 0
M  V30 3586 N 317.792 -0.46758 -1.50504 0
M  V30 3587 C 318.739 0.328413 -2.28452 0
M  V30 3588 C 319.709 0.990313 -1.33349 0
M  V30 3589 O 320.894 1.00343 -1.62284 0
M  V30 3590 C 318.034 1.40648 -3.15138 0
M  V30 3591 C 317.147 0.759709 -4.25267 0
M  V30 3592 C 316.282 1.81537 -4.99217 0
M  V30 3593 C 315.321 1.14866 -6.01226 0
M  V30 3594 N 314.458 2.14702 -6.68467 0
M  V30 3595 H 319.298 -0.342603 -2.96024 0
M  V30 3596 H 316.835 -0.180801 -1.45985 0
M  V30 3597 H 318.793 2.04315 -3.63746 0
M  V30 3598 H 317.423 2.04671 -2.49619 0
M  V30 3599 H 316.475 0.0105671 -3.80399 0
M  V30 3600 H 317.787 0.233243 -4.98254 0
M  V30 3601 H 316.941 2.52793 -5.51526 0
M  V30 3602 H 315.68 2.37564 -4.25928 0
M  V30 3603 H 314.685 0.42171 -5.4818 0
M  V30 3604 H 315.91 0.595334 -6.76485 0
M  V30 3605 H 313.856 2.69752 -5.97972 0
M  V30 3606 H 313.773 1.6703 -7.37317 0
M  V30 3607 H 315.041 2.85348 -7.25394 0
M  V30 3608 N 319.27 1.56325 -0.20005 0
M  V30 3609 C 320.2 2.22318 0.713916 0
M  V30 3610 C 321.181 1.18788 1.21752 0
M  V30 3611 O 322.366 1.47309 1.26545 0
M  V30 3612 C 319.496 2.88639 1.93144 0
M  V30 3613 C 318.45 3.98457 1.56255 0
M  V30 3614 C 317.776 4.51967 2.85709 0
M  V30 3615 C 319.076 5.16612 0.768747 0
M  V30 3616 H 320.77 2.98952 0.163755 0
M  V30 3617 H 318.316 1.43792 0.0773219 0
M  V30 3618 H 320.269 3.33491 2.57608 0
M  V30 3619 H 318.993 2.09419 2.50621 0
M  V30 3620 H 317.652 3.54305 0.941471 0
M  V30 3621 H 317.3 3.69503 3.41287 0
M  V30 3622 H 317 5.26071 2.6177 0
M  V30 3623 H 318.524 4.99523 3.51154 0
M  V30 3624 H 319.938 5.57977 1.3166 0
M  V30 3625 H 318.335 5.96812 0.627286 0
M  V30 3626 H 319.405 4.84358 -0.229168 0
M  V30 3627 N 320.748 -0.0735177 1.57428 0
M  V30 3628 C 321.711 -1.07192 2.02589 0
M  V30 3629 C 322.711 -1.31695 0.922661 0
M  V30 3630 O 323.901 -1.27445 1.18758 0
M  V30 3631 C 321.033 -2.41599 2.40506 0
M  V30 3632 H 322.226 -0.682727 2.92025 0
M  V30 3633 H 319.779 -0.319193 1.53006 0
M  V30 3634 H 320.514 -2.85354 1.5409 0
M  V30 3635 H 320.299 -2.25156 3.21009 0
M  V30 3636 H 321.789 -3.13367 2.76027 0
M  V30 3637 N 322.226 -1.5378 -0.344866 0
M  V30 3638 C 323.158 -1.77988 -1.44406 0
M  V30 3639 C 324.171 -0.661138 -1.48771 0
M  V30 3640 O 325.36 -0.937842 -1.51877 0
M  V30 3641 C 322.46 -1.86345 -2.8307 0
M  V30 3642 C 321.633 -3.16256 -3.0216 0
M  V30 3643 C 320.692 -3.15588 -4.21059 0
M  V30 3644 O 319.718 -3.89314 -4.15239 0
M  V30 3645 N 320.92 -2.37864 -5.29529 0
M  V30 3646 H 323.685 -2.72839 -1.24012 0
M  V30 3647 H 321.246 -1.52814 -0.534737 0
M  V30 3648 H 323.238 -1.83351 -3.60783 0
M  V30 3649 H 321.808 -0.986858 -2.96614 0
M  V30 3650 H 321.028 -3.32385 -2.11929 0
M  V30 3651 H 322.316 -4.0207 -3.11797 0
M  V30 3652 H 321.714 -1.77514 -5.37127 0
M  V30 3653 H 320.271 -2.40668 -6.05741 0
M  V30 3654 N 323.704 0.605807 -1.45491 0
M  V30 3655 C 324.636 1.73031 -1.5031 0
M  V30 3656 C 325.649 1.57968 -0.393687 0
M  V30 3657 O 326.838 1.65817 -0.660839 0
M  V30 3658 C 323.938 3.11049 -1.34543 0
M  V30 3659 C 323.111 3.52334 -2.59189 0
M  V30 3660 C 322.17 4.69323 -2.37954 0
M  V30 3661 O 321.196 4.7635 -3.11575 0
M  V30 3662 N 322.398 5.62705 -1.4263 0
M  V30 3663 H 325.163 1.6936 -2.4726 0
M  V30 3664 H 322.724 0.79114 -1.41254 0
M  V30 3665 H 324.716 3.87071 -1.18144 0
M  V30 3666 H 323.286 3.09217 -0.458623 0
M  V30 3667 H 322.506 2.66256 -2.90691 0
M  V30 3668 H 323.794 3.76677 -3.42041 0
M  V30 3669 H 323.192 5.59744 -0.818758 0
M  V30 3670 H 321.749 6.38252 -1.32202 0
M  V30 3671 N 325.182 1.32811 0.848464 0
M  V30 3672 C 326.112 1.24882 1.97299 0
M  V30 3673 C 327.093 0.131357 1.69592 0
M  V30 3674 O 328.278 0.319553 1.91553 0
M  V30 3675 C 325.408 0.97746 3.33261 0
M  V30 3676 C 324.362 2.05682 3.75338 0
M  V30 3677 C 323.688 1.63777 5.09 0
M  V30 3678 C 324.988 3.47254 3.90144 0
M  V30 3679 H 326.682 2.18966 2.04191 0
M  V30 3680 H 324.228 1.05413 0.981029 0
M  V30 3681 H 326.181 0.908513 4.1149 0
M  V30 3682 H 324.905 0.000980011 3.266 0
M  V30 3683 H 323.564 2.11603 2.99366 0
M  V30 3684 H 323.212 0.648569 4.98801 0
M  V30 3685 H 322.912 2.36 5.38124 0
M  V30 3686 H 324.436 1.5833 5.89715 0
M  V30 3687 H 325.85 3.43888 4.58709 0
M  V30 3688 H 324.247 4.1788 4.30693 0
M  V30 3689 H 325.317 3.86462 2.92874 0
M  V30 3690 N 326.66 -1.06551 1.16123 0
M  V30 3691 C 327.9 -1.80889 0.951766 0
M  V30 3692 C 328.264 -1.85062 -0.511465 0
M  V30 3693 O 329.465 -2.55353 -0.83954 0
M  V30 3694 C 327.736 -3.21609 1.55893 0
M  V30 3695 S 329.295 -4.12593 1.49373 0
M  V30 3696 H 326.113 -0.623156 0.342341 0
M  V30 3697 H 328.715 -1.27943 1.47821 0
M  V30 3698 H 327.419 -3.16165 2.61664 0
M  V30 3699 H 326.95 -3.79631 1.0317 0
M  V30 3700 H 328.965 -4.93753 0.492196 0
M  V30 3701 N 328.138 -0.959301 -1.25041 0
M  V30 3702 C 329.366 -0.633949 -1.96948 0
M  V30 3703 C 329.781 0.794916 -1.7125 0
M  V30 3704 O 329.138 1.53231 -0.991287 0
M  V30 3705 C 329.189 -0.888805 -3.50403 0
M  V30 3706 O 328.91 -2.26149 -3.75218 0
M  V30 3707 C 330.411 -0.576482 -4.39536 0
M  V30 3708 H 327.631 -0.237263 -0.627652 0
M  V30 3709 H 330.175 -1.28495 -1.59089 0
M  V30 3710 H 328.33 -0.284145 -3.86357 0
M  V30 3711 H 328.744 -2.33514 -4.6965 0
M  V30 3712 H 330.218 -0.805314 -5.46094 0
M  V30 3713 H 330.695 0.489075 -4.36468 0
M  V30 3714 H 331.301 -1.16067 -4.09156 0
M  V30 3715 N 329.616 1.39756 -0.72842 0
M  V30 3716 C 330.579 2.29012 -0.0927297 0
M  V30 3717 C 331.579 1.45992 0.674025 0
M  V30 3718 O 332.769 1.66749 0.50402 0
M  V30 3719 C 329.901 3.29396 0.878137 0
M  V30 3720 H 331.094 2.86729 -0.879011 0
M  V30 3721 H 328.647 1.48293 -0.493847 0
M  V30 3722 H 329.382 2.76722 1.69101 0
M  V30 3723 H 329.167 3.907 0.331051 0
M  V30 3724 H 330.657 3.96199 1.3197 0
M  V30 3725 N 331.094 0.475555 1.50254 0
M  V30 3726 C 332.024 -0.30611 2.31485 0
M  V30 3727 C 333.005 -0.986228 1.38591 0
M  V30 3728 O 334.19 -0.982541 1.67511 0
M  V30 3729 C 331.32 -1.38588 3.1845 0
M  V30 3730 C 330.274 -0.827115 4.19932 0
M  V30 3731 C 329.6 -2.00551 4.95665 0
M  V30 3732 C 330.9 0.16463 5.2204 0
M  V30 3733 H 332.594 0.371866 2.97082 0
M  V30 3734 H 330.14 0.180282 1.42867 0
M  V30 3735 H 332.093 -1.94023 3.74076 0
M  V30 3736 H 330.817 -2.09269 2.50747 0
M  V30 3737 H 329.476 -0.294702 3.65414 0
M  V30 3738 H 329.124 -2.6994 4.2443 0
M  V30 3739 H 328.824 -1.63784 5.64313 0
M  V30 3740 H 330.348 -2.56468 5.54127 0
M  V30 3741 H 331.762 -0.300699 5.72511 0
M  V30 3742 H 330.159 0.446813 5.98434 0
M  V30 3743 H 331.229 1.08905 4.72512 0
M  V30 3744 N 332.573 -1.56217 0.208337 0
M  V30 3745 C 333.503 -2.22694 -0.702116 0
M  V30 3746 C 334.484 -1.19432 -1.2112 0
M  V30 3747 O 335.669 -1.47978 -1.25762 0
M  V30 3748 C 332.799 -2.8966 -1.9161 0
M  V30 3749 C 331.753 -3.9928 -1.5414 0
M  V30 3750 C 331.079 -4.53476 -2.83308 0
M  V30 3751 C 332.379 -5.17012 -0.741339 0
M  V30 3752 H 334.073 -2.99034 -0.147898 0
M  V30 3753 H 331.619 -1.43831 -0.0696951 0
M  V30 3754 H 333.572 -3.34852 -2.55836 0
M  V30 3755 H 332.296 -2.10746 -2.49507 0
M  V30 3756 H 330.955 -3.54799 -0.922668 0
M  V30 3757 H 330.603 -3.71308 -3.39322 0
M  V30 3758 H 330.303 -5.27451 -2.58976 0
M  V30 3759 H 331.827 -5.01378 -3.485 0
M  V30 3760 H 333.241 -5.58667 -1.28699 0
M  V30 3761 H 331.638 -5.97137 -0.595627 0
M  V30 3762 H 332.708 -4.8423 0.254851 0
M  V30 3763 N 334.051 0.0651679 -1.57465 0
M  V30 3764 C 335.298 0.763063 -1.87573 0
M  V30 3765 C 335.626 1.77242 -0.800961 0
M  V30 3766 O 334.881 1.94651 0.202316 0
M  V30 3767 C 335.18 1.50081 -3.24362 0
M  V30 3768 C 334.846 0.630816 -4.46466 0
M  V30 3769 C 333.508 0.391082 -4.79608 0
M  V30 3770 C 335.86 0.0279465 -5.21193 0
M  V30 3771 C 333.188 -0.460894 -5.84887 0
M  V30 3772 C 335.54 -0.811522 -6.27373 0
M  V30 3773 C 334.204 -1.06106 -6.59013 0
M  V30 3774 H 333.474 0.279224 -0.686378 0
M  V30 3775 H 336.121 0.0236726 -1.91485 0
M  V30 3776 H 334.426 2.31258 -3.16271 0
M  V30 3777 H 336.123 2.04571 -3.44894 0
M  V30 3778 H 332.713 0.8278 -4.2053 0
M  V30 3779 H 336.897 0.200262 -4.95896 0
M  V30 3780 H 332.153 -0.662907 -6.07796 0
M  V30 3781 H 336.327 -1.28537 -6.84435 0
M  V30 3782 H 333.954 -1.723 -7.40417 0
M  V30 3783 N 335.529 1.53961 0.336706 0
M  V30 3784 C 336.459 1.85417 1.41925 0
M  V30 3785 C 337.44 0.709856 1.5458 0
M  V30 3786 O 338.625 0.962396 1.68676 0
M  V30 3787 C 335.755 2.06985 2.78881 0
M  V30 3788 C 334.709 3.22813 2.81026 0
M  V30 3789 C 334.035 3.29727 4.20932 0
M  V30 3790 C 335.335 4.60767 2.45949 0
M  V30 3791 H 337.029 2.76079 1.15848 0
M  V30 3792 H 334.575 1.32839 0.555859 0
M  V30 3793 H 336.528 2.27575 3.54665 0
M  V30 3794 H 335.252 1.13061 3.06406 0
M  V30 3795 H 333.911 3.0209 2.07695 0
M  V30 3796 H 333.559 2.33385 4.45579 0
M  V30 3797 H 333.259 4.07566 4.23277 0
M  V30 3798 H 334.783 3.52536 4.98549 0
M  V30 3799 H 336.197 4.81325 3.11446 0
M  V30 3800 H 334.594 5.4106 2.59566 0
M  V30 3801 H 335.664 4.6391 1.41122 0
M  V30 3802 N 337.007 -0.598083 1.45811 0
M  V30 3803 C 337.97 -1.69018 1.54808 0
M  V30 3804 C 338.97 -1.55037 0.426652 0
M  V30 3805 O 340.16 -1.59932 0.690456 0
M  V30 3806 C 337.292 -3.0835 1.45371 0
M  V30 3807 H 338.485 -1.62403 2.52121 0
M  V30 3808 H 336.038 -0.814626 1.33392 0
M  V30 3809 H 336.773 -3.20534 0.492793 0
M  V30 3810 H 336.558 -3.19907 2.26721 0
M  V30 3811 H 338.048 -3.8788 1.54721 0
M  V30 3812 N 338.485 -1.33259 -0.841409 0
M  V30 3813 C 339.713 -1.27605 -1.62864 0
M  V30 3814 C 340.128 0.153507 -1.88175 0
M  V30 3815 O 339.485 1.09485 -1.46011 0
M  V30 3816 C 339.536 -2.04596 -2.98031 0
M  V30 3817 O 339.257 -3.41975 -2.73834 0
M  V30 3818 C 340.758 -2.06122 -3.92465 0
M  V30 3819 H 337.978 -0.439718 -0.506842 0
M  V30 3820 H 340.522 -1.75591 -1.04824 0
M  V30 3821 H 338.677 -1.60299 -3.5268 0
M  V30 3822 H 339.091 -3.81549 -3.59889 0
M  V30 3823 H 340.565 -2.64451 -4.84531 0
M  V30 3824 H 341.042 -1.05083 -4.26444 0
M  V30 3825 H 341.648 -2.50427 -3.43753 0
M  V30 3826 N 339.963 1.05934 -1.16686 0
M  V30 3827 C 341.374 1.60263 -0.957745 0
M  V30 3828 C 341.725 1.89789 0.49745 0
M  V30 3829 O 340.85 1.67401 1.37135 0
M  V30 3830 C 341.445 2.91172 -1.73218 0
M  V30 3831 C 340.004 3.42188 -1.56794 0
M  V30 3832 C 339.151 2.16028 -1.73859 0
M  V30 3833 H 342.102 0.888392 -1.31504 0
M  V30 3834 H 342.123 3.60744 -1.21014 0
M  V30 3835 H 341.635 2.6965 -2.79124 0
M  V30 3836 H 339.736 3.68762 -0.533437 0
M  V30 3837 H 339.849 4.17273 -2.35414 0
M  V30 3838 H 338.213 2.26426 -1.16633 0
M  V30 3839 H 338.996 1.96985 -2.81161 0
M  V30 3840 N 341.441 0.965919 1.2453 0
M  V30 3841 C 342.351 0.502154 2.29163 0
M  V30 3842 C 343.367 -0.436017 1.68448 0
M  V30 3843 O 344.543 -0.309497 1.99008 0
M  V30 3844 C 341.608 -0.201956 3.46111 0
M  V30 3845 C 340.669 0.775821 4.22232 0
M  V30 3846 C 339.902 0.105217 5.33596 0
M  V30 3847 O 340.125 -1.10683 5.59558 0
M  V30 3848 O 339.059 0.796475 5.96607 0
M  V30 3849 H 342.885 1.37194 2.70946 0
M  V30 3850 H 340.47 0.732875 1.30189 0
M  V30 3851 H 342.352 -0.597564 4.17142 0
M  V30 3852 H 341.027 -1.04673 3.06309 0
M  V30 3853 H 339.934 1.22185 3.53584 0
M  V30 3854 H 341.267 1.58896 4.65846 0
M  V30 3855 N 342.919 -1.39368 0.735821 0
M  V30 3856 C 343.849 -2.33234 0.111506 0
M  V30 3857 C 344.83 -1.53954 -0.723334 0
M  V30 3858 O 346.015 -1.82344 -0.668147 0
M  V30 3859 C 343.145 -3.38057 -0.795917 0
M  V30 3860 C 342.099 -4.2795 -0.065172 0
M  V30 3861 C 341.425 -5.23479 -1.08967 0
M  V30 3862 C 342.725 -5.10741 1.09273 0
M  V30 3863 H 344.419 -2.85692 0.895571 0
M  V30 3864 H 341.965 -1.37364 0.432109 0
M  V30 3865 H 343.918 -4.02675 -1.24221 0
M  V30 3866 H 342.642 -2.8404 -1.61211 0
M  V30 3867 H 341.301 -3.64813 0.361511 0
M  V30 3868 H 340.949 -4.65758 -1.89944 0
M  V30 3869 H 340.649 -5.84472 -0.605489 0
M  V30 3870 H 342.173 -5.90974 -1.53565 0
M  V30 3871 H 343.587 -5.68699 0.724841 0
M  V30 3872 H 341.984 -5.8088 1.50659 0
M  V30 3873 H 343.054 -4.45525 1.91404 0
M  V30 3874 N 344.397 -0.483516 -1.5 0
M  V30 3875 C 345.622 0.0667119 -2.07293 0
M  V30 3876 C 346.047 1.3164 -1.3436 0
M  V30 3877 O 345.405 1.76945 -0.394987 0
M  V30 3878 C 345.453 0.321126 -3.59167 0
M  V30 3879 O 344.557 1.39927 -3.87936 0
M  V30 3880 H 343.898 -0.0184758 -0.663743 0
M  V30 3881 H 346.428 -0.678125 -1.93035 0
M  V30 3882 H 346.438 0.557906 -4.04168 0
M  V30 3883 H 345.113 -0.592007 -4.11665 0
M  V30 3884 H 343.69 1.14882 -3.54763 0
M  V30 3885 N 345.875 1.56104 -0.216619 0
M  V30 3886 C 347.124 1.97348 0.416744 0
M  V30 3887 C 347.437 1.10715 1.6125 0
M  V30 3888 O 348.643 1.41836 2.31506 0
M  V30 3889 C 347.099 3.51059 0.792835 0
M  V30 3890 C 346.707 4.46387 -0.379828 0
M  V30 3891 C 348.451 4.01026 1.39208 0
M  V30 3892 C 346.358 5.91397 0.0184223 0
M  V30 3893 H 345.288 0.736942 0.159475 0
M  V30 3894 H 347.939 1.80827 -0.31205 0
M  V30 3895 H 346.321 3.63162 1.57891 0
M  V30 3896 H 347.495 4.46029 -1.15737 0
M  V30 3897 H 345.81 4.06734 -0.891979 0
M  V30 3898 H 348.407 5.0686 1.70286 0
M  V30 3899 H 348.75 3.46587 2.30614 0
M  V30 3900 H 349.283 3.92125 0.669537 0
M  V30 3901 H 346.022 6.49807 -0.862002 0
M  V30 3902 H 345.542 5.94961 0.760384 0
M  V30 3903 H 347.221 6.45455 0.446818 0
M  V30 3904 N 347.353 -0.0568162 1.57498 0
M  V30 3905 C 348.602 -0.752001 1.87157 0
M  V30 3906 C 348.915 -1.77978 0.811375 0
M  V30 3907 O 350.121 -2.52559 0.996293 0
M  V30 3908 C 348.577 -1.38844 3.3204 0
M  V30 3909 C 348.185 -0.398456 4.46225 0
M  V30 3910 C 349.929 -2.06512 3.70882 0
M  V30 3911 C 347.836 -1.04166 5.82154 0
M  V30 3912 H 346.766 -0.28461 0.698222 0
M  V30 3913 H 349.417 -0.00561272 1.83499 0
M  V30 3914 H 347.799 -2.1836 3.30356 0
M  V30 3915 H 348.973 0.367977 4.59328 0
M  V30 3916 H 347.288 0.174592 4.16034 0
M  V30 3917 H 349.885 -2.55437 4.6974 0
M  V30 3918 H 350.228 -2.87117 3.01445 0
M  V30 3919 H 350.761 -1.33808 3.7462 0
M  V30 3920 H 347.5 -0.275614 6.5492 0
M  V30 3921 H 347.02 -1.7786 5.72823 0
M  V30 3922 H 348.699 -1.55715 6.27982 0
M  V30 3923 N 348.832 -1.54138 -0.328536 0
M  V30 3924 C 349.782 -1.79557 -1.4051 0
M  V30 3925 C 350.766 -0.651373 -1.47126 0
M  V30 3926 O 351.958 -0.911226 -1.51742 0
M  V30 3927 C 349.087 -2.02196 -2.77438 0
M  V30 3928 C 348.173 -3.22724 -2.75155 0
M  V30 3929 N 348.564 -4.43881 -2.42494 0
M  V30 3930 C 346.862 -3.24196 -3.06289 0
M  V30 3931 C 347.563 -5.25797 -2.48822 0
M  V30 3932 N 346.539 -4.62862 -2.8506 0
M  V30 3933 H 350.341 -2.70814 -1.1418 0
M  V30 3934 H 347.855 -1.53265 -0.536991 0
M  V30 3935 H 349.852 -2.18546 -3.55026 0
M  V30 3936 H 348.512 -1.12191 -3.04702 0
M  V30 3937 H 349.523 -4.70969 -2.15428 0
M  V30 3938 H 346.2 -2.44208 -3.38627 0
M  V30 3939 H 347.59 -6.32535 -2.26603 0
M  V30 3940 N 350.31 0.590341 -1.46126 0
M  V30 3941 C 351.55 1.35995 -1.52593 0
M  V30 3942 C 351.914 1.91243 -0.170368 0
M  V30 3943 O 353.115 2.68576 -0.109775 0
M  V30 3944 C 351.386 2.46465 -2.58823 0
M  V30 3945 S 352.945 3.33953 -2.84641 0
M  V30 3946 H 349.763 0.463425 -0.53922 0
M  V30 3947 H 352.365 0.67944 -1.83314 0
M  V30 3948 H 351.069 2.04256 -3.5596 0
M  V30 3949 H 350.6 3.19297 -2.2981 0
M  V30 3950 H 352.615 4.45094 -2.19331 0
M  V30 3951 N 351.788 1.33704 0.83433 0
M  V30 3952 C 353.065 1.16011 1.57483 0
M  V30 3953 C 353.445 -0.27176 2.09343 0
M  V30 3954 O 352.793 -1.27146 1.89858 0
M  V30 3955 C 353.003 2.20507 2.70514 0
M  V30 3956 C 354.351 2.54898 3.39577 0
M  V30 3957 O 355.375 2.19209 2.80759 0
M  V30 3958 O 354.234 3.16158 4.45765 0
M  V30 3959 H 351.328 0.448992 0.694503 0
M  V30 3960 H 353.874 1.453 0.876691 0
M  V30 3961 H 352.646 3.16667 2.29865 0
M  V30 3962 H 352.269 1.92329 3.47987 0
M  V30 3963 N 353.266 -1.05314 1.17247 0
M  V30 3964 C 354.196 -2.1498 0.911362 0
M  V30 3965 C 355.177 -1.69471 -0.146169 0
M  V30 3966 O 356.362 -1.942 0.003812 0
M  V30 3967 C 353.492 -3.4472 0.422528 0
M  V30 3968 C 352.446 -4.03789 1.4191 0
M  V30 3969 C 351.772 -5.28858 0.788274 0
M  V30 3970 C 353.072 -4.41418 2.7919 0
M  V30 3971 H 354.766 -2.3708 1.82848 0
M  V30 3972 H 352.312 -1.13938 0.880569 0
M  V30 3973 H 354.265 -4.20787 0.227289 0
M  V30 3974 H 352.989 -3.22269 -0.530123 0
M  V30 3975 H 351.648 -3.2979 1.60106 0
M  V30 3976 H 351.296 -5.02709 -0.171173 0
M  V30 3977 H 350.996 -5.69338 1.45353 0
M  V30 3978 H 352.52 -6.07612 0.603282 0
M  V30 3979 H 353.934 -5.08524 2.64719 0
M  V30 3980 H 352.331 -4.92913 3.42282 0
M  V30 3981 H 353.401 -3.51819 3.33693 0
M  V30 3982 N 354.744 -0.972509 -1.24016 0
M  V30 3983 C 355.691 -0.505969 -2.25186 0
M  V30 3984 C 356.661 0.451009 -1.5986 0
M  V30 3985 O 357.846 0.360307 -1.87367 0
M  V30 3986 C 354.986 0.193089 -3.44559 0
M  V30 3987 C 354.099 -0.803222 -4.24467 0
M  V30 3988 C 353.234 -0.0797793 -5.3114 0
M  V30 3989 C 352.273 -1.06583 -6.02749 0
M  V30 3990 N 351.41 -0.372074 -7.01113 0
M  V30 3991 H 356.25 -1.37351 -2.64459 0
M  V30 3992 H 353.787 -0.688419 -1.29997 0
M  V30 3993 H 355.745 0.615125 -4.1264 0
M  V30 3994 H 354.375 1.02455 -3.06109 0
M  V30 3995 H 353.427 -1.34368 -3.55878 0
M  V30 3996 H 354.739 -1.55494 -4.73944 0
M  V30 3997 H 353.893 0.400015 -6.0538 0
M  V30 3998 H 352.632 0.704597 -4.82583 0
M  V30 3999 H 351.637 -1.55645 -5.27309 0
M  V30 4000 H 352.862 -1.85074 -6.53395 0
M  V30 4001 H 350.808 0.393238 -6.5482 0
M  V30 4002 H 350.725 -1.06258 -7.48495 0
M  V30 4003 H 351.993 0.0855932 -7.79453 0
M  V30 4004 N 356.222 1.38976 -0.743202 0
M  V30 4005 C 357.633 1.83123 -0.363732 0
M  V30 4006 C 357.984 1.6205 1.10609 0
M  V30 4007 O 357.109 1.11606 1.854 0
M  V30 4008 C 357.704 3.32439 -0.653408 0
M  V30 4009 C 356.263 3.74974 -0.327338 0
M  V30 4010 C 355.41 2.61878 -0.911875 0
M  V30 4011 H 358.361 1.27852 -0.940191 0
M  V30 4012 H 358.382 3.80432 0.0720031 0
M  V30 4013 H 357.894 3.47745 -1.72323 0
M  V30 4014 H 355.995 3.65252 0.736314 0
M  V30 4015 H 356.108 4.72106 -0.815631 0
M  V30 4016 H 354.472 2.52448 -0.337944 0
M  V30 4017 H 355.255 2.79987 -1.98651 0
M  V30 4018 N 357.7 0.491464 1.49741 0
M  V30 4019 C 358.61 -0.296835 2.32715 0
M  V30 4020 C 359.626 -0.976536 1.44013 0
M  V30 4021 O 360.802 -0.960023 1.77047 0
M  V30 4022 C 357.867 -1.35288 3.19215 0
M  V30 4023 C 356.928 -0.687632 4.23757 0
M  V30 4024 C 356.161 -1.69336 5.06123 0
M  V30 4025 O 356.384 -2.92219 4.89861 0
M  V30 4026 O 355.318 -1.25394 5.88693 0
M  V30 4027 H 359.144 0.382048 3.01287 0
M  V30 4028 H 356.729 0.252953 1.47243 0
M  V30 4029 H 358.611 -1.96411 3.72828 0
M  V30 4030 H 357.286 -2.01487 2.53347 0
M  V30 4031 H 356.193 -0.0369159 3.74082 0
M  V30 4032 H 357.526 -0.0682566 4.92153 0
M  V30 4033 N 359.178 -1.55987 0.224894 0
M  V30 4034 C 360.126 -2.21808 -0.700283 0
M  V30 4035 C 361.12 -1.19854 -1.19714 0
M  V30 4036 O 362.326 -1.37925 -1.15658 0
M  V30 4037 H 358.701 -0.711226 -0.244258 0
M  V30 4038 H 360.672 -2.98152 -0.121749 0
M  V30 4039 C 359.421 -2.91444 -1.8962 0
M  V30 4040 H 358.744 -3.69655 -1.52299 0
M  V30 4041 H 360.184 -3.40894 -2.52125 0
M  V30 4042 C 358.643 -1.94098 -2.75368 0
M  V30 4043 O 359.173 -1.46004 -3.74227 0
M  V30 4044 N 357.379 -1.61675 -2.41474 0
M  V30 4045 H 356.926 -2.00979 -1.61137 0
M  V30 4046 H 356.884 -0.968036 -2.99126 0
M  V30 4047 N 360.656 0.0484629 -1.57525 0
M  V30 4048 C 361.905 0.742065 -1.87553 0
M  V30 4049 C 362.218 1.77545 -0.820802 0
M  V30 4050 O 363.424 2.52027 -1.00967 0
M  V30 4051 C 361.88 1.37081 -3.32771 0
M  V30 4052 C 361.488 0.374786 -4.4643 0
M  V30 4053 C 363.232 2.04542 -3.71972 0
M  V30 4054 C 361.139 1.01077 -5.82698 0
M  V30 4055 H 360.069 0.280903 -0.699721 0
M  V30 4056 H 362.72 -0.00411877 -1.835 0
M  V30 4057 H 361.102 2.16605 -3.31509 0
M  V30 4058 H 362.276 -0.392331 -4.59127 0
M  V30 4059 H 360.591 -0.196653 -4.15935 0
M  V30 4060 H 363.188 2.52943 -4.71088 0
M  V30 4061 H 363.531 2.85515 -3.02964 0
M  V30 4062 H 364.064 1.31819 -3.75325 0
M  V30 4063 H 360.803 0.240878 -6.55057 0
M  V30 4064 H 360.323 1.74819 -5.73758 0
M  V30 4065 H 362.002 1.52383 -6.28799 0
M  V30 4066 N 362.134 1.5431 0.320358 0
M  V30 4067 C 363.064 1.86912 1.3995 0
M  V30 4068 C 364.045 0.726211 1.53819 0
M  V30 4069 O 365.23 0.980233 1.67646 0
M  V30 4070 C 362.36 2.09932 2.7667 0
M  V30 4071 C 361.314 3.25776 2.77586 0
M  V30 4072 C 360.64 3.34173 4.17412 0
M  V30 4073 C 361.94 4.6335 2.41048 0
M  V30 4074 H 363.634 2.77292 1.12914 0
M  V30 4075 H 361.18 1.33421 0.541738 0
M  V30 4076 H 363.133 2.31324 3.52232 0
M  V30 4077 H 361.857 1.16304 3.0519 0
M  V30 4078 H 360.516 3.04276 2.04479 0
M  V30 4079 H 360.164 2.38098 4.43078 0
M  V30 4080 H 359.864 4.12033 4.18931 0
M  V30 4081 H 361.388 3.57803 4.94782 0
M  V30 4082 H 362.802 4.84602 3.06324 0
M  V30 4083 H 361.199 5.43782 2.53813 0
M  V30 4084 H 362.269 4.65381 1.36193 0
M  V30 4085 N 363.613 -0.582584 1.46437 0
M  V30 4086 C 364.543 -1.70187 1.59871 0
M  V30 4087 C 365.524 -1.64066 0.449042 0
M  V30 4088 O 366.709 -1.82081 0.6753 0
M  V30 4089 C 363.839 -3.08827 1.58881 0
M  V30 4090 C 362.793 -3.29779 2.72819 0
M  V30 4091 C 362.119 -4.68947 2.5689 0
M  V30 4092 C 363.419 -3.17601 4.1464 0
M  V30 4093 H 365.113 -1.592 2.53566 0
M  V30 4094 H 362.659 -0.764472 1.22032 0
M  V30 4095 H 364.612 -3.86951 1.66873 0
M  V30 4096 H 363.336 -3.20713 0.617306 0
M  V30 4097 H 361.995 -2.54054 2.64296 0
M  V30 4098 H 361.643 -4.77599 1.57823 0
M  V30 4099 H 361.343 -4.83919 3.33312 0
M  V30 4100 H 362.867 -5.4924 2.66773 0
M  V30 4101 H 364.281 -3.8557 4.24274 0
M  V30 4102 H 362.678 -3.44094 4.9165 0
M  V30 4103 H 363.748 -2.14681 4.34788 0
M  V30 4104 N 365.091 -1.34144 -0.827227 0
M  V30 4105 C 366.331 -1.27603 -1.59677 0
M  V30 4106 C 366.695 0.153035 -1.91389 0
M  V30 4107 O 367.896 0.342566 -2.66608 0
M  V30 4108 C 366.167 -2.13784 -2.86411 0
M  V30 4109 S 367.726 -2.24552 -3.76991 0
M  V30 4110 H 364.544 -0.453789 -0.547354 0
M  V30 4111 H 367.146 -1.69309 -0.977479 0
M  V30 4112 H 365.85 -3.16627 -2.61104 0
M  V30 4113 H 365.381 -1.72959 -3.5334 0
M  V30 4114 H 367.396 -1.41514 -4.75593 0
M  V30 4115 N 366.569 1.04691 -1.17803 0
M  V30 4116 C 367.517 2.14665 -0.895635 0
M  V30 4117 C 368.511 1.68806 0.141679 0
M  V30 4118 O 369.717 1.79999 -0.00587914 0
M  V30 4119 H 366.092 0.701038 -0.272121 0
M  V30 4120 H 368.063 2.35685 -1.83017 0
M  V30 4121 C 366.812 3.45019 -0.430962 0
M  V30 4122 H 366.135 3.8071 -1.22064 0
M  V30 4123 H 367.575 4.23125 -0.272301 0
M  V30 4124 C 366.034 3.25943 0.852207 0
M  V30 4125 O 366.564 3.5296 1.91786 0
M  V30 4126 N 364.77 2.79304 0.802346 0
M  V30 4127 H 364.317 2.57518 -0.0650788 0
M  V30 4128 H 364.275 2.66921 1.66134 0
M  V30 4129 N 368.047 0.979072 1.23499 0
M  V30 4130 C 369.458 0.684391 1.73704 0
M  V30 4131 C 369.809 -0.799448 1.79174 0
M  V30 4132 O 368.934 -1.62531 1.42873 0
M  V30 4133 C 369.529 1.23564 3.15464 0
M  V30 4134 C 368.088 0.99063 3.6313 0
M  V30 4135 C 367.235 1.36416 2.41425 0
M  V30 4136 H 370.186 1.15307 1.09041 0
M  V30 4137 H 370.207 0.607417 3.7562 0
M  V30 4138 H 369.719 2.31561 3.1145 0
M  V30 4139 H 367.82 -0.0733136 3.72528 0
M  V30 4140 H 367.933 1.64427 4.5 0
M  V30 4141 H 366.297 0.782616 2.42378 0
M  V30 4142 H 367.08 2.45387 2.40083 0
M  V30 4143 N 369.525 -1.3858 0.750561 0
M  V30 4144 C 370.472 -2.30483 0.120835 0
M  V30 4145 C 371.442 -1.50022 -0.712923 0
M  V30 4146 O 372.627 -1.78662 -0.669676 0
M  V30 4147 C 369.767 -3.36431 -0.768666 0
M  V30 4148 C 368.88 -4.31927 0.0793922 0
M  V30 4149 C 368.015 -5.24944 -0.81283 0
M  V30 4150 C 367.054 -6.12088 0.0390447 0
M  V30 4151 N 366.191 -6.97412 -0.809969 0
M  V30 4152 H 371.031 -2.83761 0.91015 0
M  V30 4153 H 368.568 -1.39707 0.460463 0
M  V30 4154 H 370.526 -3.96462 -1.29898 0
M  V30 4155 H 369.156 -2.8457 -1.5238 0
M  V30 4156 H 368.208 -3.73382 0.727303 0
M  V30 4157 H 369.52 -4.93319 0.737401 0
M  V30 4158 H 368.674 -5.90078 -1.41042 0
M  V30 4159 H 367.413 -4.63911 -1.50458 0
M  V30 4160 H 366.418 -5.45952 0.649328 0
M  V30 4161 H 367.643 -6.75189 0.727809 0
M  V30 4162 H 365.589 -6.38931 -1.48672 0
M  V30 4163 H 365.506 -7.55712 -0.208789 0
M  V30 4164 H 366.774 -7.66959 -1.39263 0
M  V30 4165 N 371.003 -0.499398 -1.49478 0
M  V30 4166 C 372.419 -0.155261 -1.58843 0
M  V30 4167 C 372.619 1.34008 -1.50479 0
M  V30 4168 O 371.675 2.11589 -1.37791 0
M  V30 4169 C 372.988 -0.730636 -2.91689 0
M  V30 4170 C 374.536 -0.696599 -3.0515 0
M  V30 4171 C 375.011 -1.25001 -4.40612 0
M  V30 4172 N 376.502 -1.21064 -4.47099 0
M  V30 4173 C 377.237 -1.60905 -5.50361 0
M  V30 4174 N 376.733 -2.08331 -6.60735 0
M  V30 4175 N 378.526 -1.52331 -5.41065 0
M  V30 4176 H 370.677 -1.47162 -1.53158 0
M  V30 4177 H 372.94 -0.610309 -0.725415 0
M  V30 4178 H 372.646 -1.77928 -3.03372 0
M  V30 4179 H 372.52 -0.190161 -3.7672 0
M  V30 4180 H 374.907 0.343204 -2.93097 0
M  V30 4181 H 374.988 -1.2742 -2.21806 0
M  V30 4182 H 374.632 -2.28859 -4.53416 0
M  V30 4183 H 374.562 -0.64836 -5.22593 0
M  V30 4184 H 377.053 -0.863128 -3.67911 0
M  V30 4185 H 377.366 -2.36805 -7.35624 0
M  V30 4186 H 375.711 -2.12304 -6.6178 0
M  V30 4187 H 378.902 -1.151 -4.53729 0
M  V30 4188 H 379.075 -1.83704 -6.21415 0
M  V30 4189 N 372.481 1.55866 -0.233164 0
M  V30 4190 C 373.706 2.03449 0.402906 0
M  V30 4191 C 374.131 1.11166 1.51736 0
M  V30 4192 O 373.489 0.101996 1.81013 0
M  V30 4193 C 373.537 3.49165 0.9009 0
M  V30 4194 O 372.641 3.60019 2.01147 0
M  V30 4195 H 371.982 0.657913 0.0897025 0
M  V30 4196 H 374.512 2.01493 -0.355201 0
M  V30 4197 H 374.522 3.89716 1.2077 0
M  V30 4198 H 373.197 4.15813 0.0852889 0
M  V30 4199 H 371.774 3.3136 1.71042 0
M  V30 4200 N 373.959 -0.0401083 1.57549 0
M  V30 4201 C 374.922 -1.02871 2.04817 0
M  V30 4202 C 375.922 -1.29708 0.950388 0
M  V30 4203 O 377.112 -1.24897 1.21435 0
M  V30 4204 C 374.244 -2.36443 2.45576 0
M  V30 4205 H 375.437 -0.620631 2.93408 0
M  V30 4206 H 372.99 -0.286667 1.53649 0
M  V30 4207 H 373.725 -2.82021 1.60108 0
M  V30 4208 H 373.51 -2.18296 3.25713 0
M  V30 4209 H 375 -3.07441 2.82612 0
M  V30 4210 N 375.437 -1.54477 -0.31217 0
M  V30 4211 C 376.686 -1.72438 -1.04633 0
M  V30 4212 C 376.999 -0.511163 -1.88803 0
M  V30 4213 O 378.205 -0.572341 -2.65399 0
M  V30 4214 C 376.661 -3.05043 -1.9099 0
M  V30 4215 C 376.269 -4.33806 -1.11877 0
M  V30 4216 C 378.013 -3.32364 -2.64073 0
M  V30 4217 C 375.92 -5.57467 -1.97445 0
M  V30 4218 H 374.85 -0.642647 -0.394361 0
M  V30 4219 H 377.501 -1.80966 -0.303929 0
M  V30 4220 H 375.883 -2.90451 -2.69173 0
M  V30 4221 H 377.057 -4.59199 -0.383843 0
M  V30 4222 H 375.372 -4.13336 -0.504252 0
M  V30 4223 H 377.969 -4.21951 -3.28423 0
M  V30 4224 H 378.312 -2.50745 -3.32314 0
M  V30 4225 H 378.845 -3.47875 -1.92944 0
M  V30 4226 H 375.584 -6.41722 -1.33692 0
M  V30 4227 H 375.104 -5.36277 -2.6864 0
M  V30 4228 H 376.783 -5.94303 -2.5576 0
M  V30 4229 N 376.915 0.57481 -1.46744 0
M  V30 4230 C 377.862 1.68329 -1.57905 0
M  V30 4231 C 378.832 1.60625 -0.422927 0
M  V30 4232 O 380.017 1.79721 -0.640711 0
M  V30 4233 C 377.157 3.06665 -1.58274 0
M  V30 4234 C 376.27 3.24935 -2.84678 0
M  V30 4235 C 375.405 4.53566 -2.76499 0
M  V30 4236 C 374.444 4.65207 -3.97806 0
M  V30 4237 N 373.581 5.85172 -3.87967 0
M  V30 4238 H 378.421 1.58127 -2.52587 0
M  V30 4239 H 375.958 0.770552 -1.25303 0
M  V30 4240 H 377.916 3.86745 -1.56473 0
M  V30 4241 H 376.546 3.15745 -0.671194 0
M  V30 4242 H 375.598 2.38405 -2.96424 0
M  V30 4243 H 376.91 3.29403 -3.7456 0
M  V30 4244 H 376.064 5.41885 -2.72848 0
M  V30 4245 H 374.803 4.51548 -1.8427 0
M  V30 4246 H 373.808 3.75304 -4.0178 0
M  V30 4247 H 375.033 4.68997 -4.9114 0
M  V30 4248 H 372.979 5.84137 -2.98529 0
M  V30 4249 H 372.896 5.90943 -4.71511 0
M  V30 4250 H 374.164 6.759 -3.88303 0
M  V30 4251 N 378.394 1.34581 0.820102 0
M  V30 4252 C 379.643 1.26437 1.57151 0
M  V30 4253 C 379.956 -0.163111 1.94919 0
M  V30 4254 O 381.162 -0.366722 2.69012 0
M  V30 4255 C 379.618 2.21658 2.83541 0
M  V30 4256 C 379.226 3.69679 2.53065 0
M  V30 4257 C 380.97 2.22428 3.61561 0
M  V30 4258 C 378.877 4.56761 3.75664 0
M  V30 4259 H 377.807 0.469707 0.589823 0
M  V30 4260 H 380.458 1.59763 0.902656 0
M  V30 4261 H 378.84 1.81287 3.52067 0
M  V30 4262 H 380.014 4.18605 1.92631 0
M  V30 4263 H 378.329 3.71384 1.88316 0
M  V30 4264 H 380.926 2.8471 4.52597 0
M  V30 4265 H 381.269 1.22434 3.97889 0
M  V30 4266 H 381.802 2.61259 2.99981 0
M  V30 4267 H 378.541 5.57702 3.44454 0
M  V30 4268 H 378.061 4.12568 4.35371 0
M  V30 4269 H 379.74 4.71509 4.43044 0
M  V30 4270 N 379.872 -1.04064 1.18357 0
M  V30 4271 C 381.118 -1.77528 0.980397 0
M  V30 4272 C 381.451 -1.87948 -0.48879 0
M  V30 4273 O 380.726 -1.3876 -1.36293 0
M  V30 4274 C 381.009 -3.20797 1.63588 0
M  V30 4275 C 380.862 -3.1832 3.17793 0
M  V30 4276 C 382.181 -4.18911 1.34914 0
M  V30 4277 H 379.3 -0.644443 0.357578 0
M  V30 4278 H 381.942 -1.2156 1.46024 0
M  V30 4279 H 380.092 -3.68586 1.22788 0
M  V30 4280 H 381.764 -2.78521 3.67728 0
M  V30 4281 H 380.007 -2.56351 3.49952 0
M  V30 4282 H 380.678 -4.19489 3.58794 0
M  V30 4283 H 383.154 -3.7967 1.70265 0
M  V30 4284 H 382.03 -5.17374 1.83346 0
M  V30 4285 H 382.291 -4.41262 0.272027 0
M  V30 4286 N 381.35 -0.985608 -1.22978 0
M  V30 4287 C 382.627 -0.573599 -1.87001 0
M  V30 4288 C 383.007 0.949213 -1.88555 0
M  V30 4289 O 382.355 1.82811 -1.37086 0
M  V30 4290 C 382.565 -1.18564 -3.28243 0
M  V30 4291 C 383.913 -1.28163 -4.04796 0
M  V30 4292 O 384.937 -1.13949 -3.37482 0
M  V30 4293 O 383.796 -1.50832 -5.25273 0
M  V30 4294 H 380.89 -0.193868 -0.803955 0
M  V30 4295 H 383.436 -1.08102 -1.30813 0
M  V30 4296 H 382.208 -2.22758 -3.21706 0
M  V30 4297 H 381.831 -0.663363 -3.92027 0
M  V30 4298 N 382.828 1.3818 -0.7579 0
M  V30 4299 C 384.075 2.00019 -0.315985 0
M  V30 4300 C 384.403 1.60163 1.10355 0
M  V30 4301 O 383.658 0.83264 1.77103 0
M  V30 4302 C 383.957 3.55252 -0.391218 0
M  V30 4303 C 383.623 4.14834 -1.76702 0
M  V30 4304 C 382.285 4.30821 -2.14353 0
M  V30 4305 C 384.637 4.47658 -2.66931 0
M  V30 4306 C 381.965 4.76928 -3.41696 0
M  V30 4307 C 384.317 4.95184 -3.93669 0
M  V30 4308 C 382.981 5.09377 -4.31383 0
M  V30 4309 H 382.251 0.731923 -0.115627 0
M  V30 4310 H 384.898 1.65161 -0.969223 0
M  V30 4311 H 383.203 3.90273 0.34558 0
M  V30 4312 H 384.9 4.00988 -0.030805 0
M  V30 4313 H 381.49 4.02808 -1.46435 0
M  V30 4314 H 385.674 4.34904 -2.39106 0
M  V30 4315 H 380.93 4.86103 -3.70829 0
M  V30 4316 H 385.104 5.19551 -4.63724 0
M  V30 4317 H 382.731 5.44865 -5.30119 0
M  V30 4318 N 384.306 0.507319 1.49211 0
M  V30 4319 C 385.554 -0.0348839 2.0207 0
M  V30 4320 C 385.875 -1.36898 1.38866 0
M  V30 4321 O 385.145 -1.88133 0.546151 0
M  V30 4322 H 383.725 -0.0158812 0.746831 0
M  V30 4323 H 386.387 0.665998 1.83168 0
M  V30 4324 H 385.483 -0.159917 3.1169 0
M  V30 4325 N 385.784 -1.5574 0.241426 0
M  V30 4326 C 387.009 -2.0366 -0.392111 0
M  V30 4327 C 387.434 -1.11969 -1.51144 0
M  V30 4328 O 386.792 -0.111594 -1.80956 0
M  V30 4329 C 386.84 -3.49638 -0.882371 0
M  V30 4330 O 385.944 -3.6108 -1.99235 0
M  V30 4331 H 385.285 -0.658379 -0.0862122 0
M  V30 4332 H 387.815 -2.01302 0.365881 0
M  V30 4333 H 387.825 -3.90351 -1.18702 0
M  V30 4334 H 386.5 -4.15852 -0.0632361 0
M  V30 4335 H 385.077 -3.32262 -1.69282 0
M  V30 4336 N 387.262 0.0317525 -1.57568 0
M  V30 4337 C 388.487 0.738664 -1.938 0
M  V30 4338 C 388.912 1.68242 -0.841208 0
M  V30 4339 O 388.27 1.80157 0.203267 0
M  V30 4340 C 388.318 1.47417 -3.29091 0
M  V30 4341 O 387.422 2.5872 -3.2115 0
M  V30 4342 H 386.763 0.198856 -0.633524 0
M  V30 4343 H 389.293 -0.0119713 -2.04596 0
M  V30 4344 H 389.303 1.84468 -3.63917 0
M  V30 4345 H 387.978 0.781988 -4.08482 0
M  V30 4346 H 386.555 2.24231 -2.97951 0
M  V30 4347 N 388.74 1.54641 0.303973 0
M  V30 4348 C 389.98 1.75516 1.04755 0
M  V30 4349 C 390.344 0.528211 1.84591 0
M  V30 4350 O 391.545 0.614645 2.61678 0
M  V30 4351 C 389.816 3.00685 1.93193 0
M  V30 4352 S 391.375 3.42549 2.74237 0
M  V30 4353 H 388.193 0.616987 0.353339 0
M  V30 4354 H 390.795 1.92842 0.321292 0
M  V30 4355 H 389.499 3.8811 1.33411 0
M  V30 4356 H 389.03 2.85937 2.70191 0
M  V30 4357 H 391.045 2.99386 3.95705 0
M  V30 4358 N 390.218 -0.567019 1.47046 0
M  V30 4359 C 391.15 -1.68985 1.54844 0
M  V30 4360 C 392.163 -1.56869 0.435431 0
M  V30 4361 O 393.352 -1.64006 0.70457 0
M  V30 4362 C 390.452 -3.07373 1.42742 0
M  V30 4363 C 389.625 -3.45339 2.6844 0
M  V30 4364 C 388.684 -4.62849 2.50314 0
M  V30 4365 O 387.71 -4.67922 3.24095 0
M  V30 4366 N 388.912 -5.58726 1.57499 0
M  V30 4367 H 391.677 -1.62745 2.51663 0
M  V30 4368 H 389.238 -0.753411 1.43302 0
M  V30 4369 H 391.23 -3.83803 1.28365 0
M  V30 4370 H 389.8 -3.07893 0.540445 0
M  V30 4371 H 389.02 -2.58455 2.97648 0
M  V30 4372 H 390.308 -3.67476 3.51907 0
M  V30 4373 H 389.706 -5.57376 0.966876 0
M  V30 4374 H 388.263 -6.34523 1.49078 0
M  V30 4375 N 391.696 -1.35014 -0.812953 0
M  V30 4376 C 392.626 -1.30069 -1.93919 0
M  V30 4377 C 393.607 -0.176275 -1.69184 0
M  V30 4378 O 394.792 -0.370227 -1.90638 0
M  V30 4379 C 391.922 -1.06547 -3.30552 0
M  V30 4380 C 390.876 -2.15561 -3.69753 0
M  V30 4381 C 390.202 -1.77214 -5.04479 0
M  V30 4382 C 391.502 -3.57476 -3.808 0
M  V30 4383 H 393.196 -2.24303 -1.98314 0
M  V30 4384 H 390.742 -1.07977 -0.952736 0
M  V30 4385 H 392.695 -1.01729 -4.08937 0
M  V30 4386 H 391.419 -0.0875719 -3.26483 0
M  V30 4387 H 390.078 -2.19466 -2.9365 0
M  V30 4388 H 389.726 -0.780589 -4.96906 0
M  V30 4389 H 389.426 -2.50184 -5.31678 0
M  V30 4390 H 390.95 -1.7391 -5.8531 0
M  V30 4391 H 392.364 -3.55929 -4.4943 0
M  V30 4392 H 390.761 -4.29152 -4.19462 0
M  V30 4393 H 391.831 -3.94091 -2.82525 0
M  V30 4394 N 393.175 1.03435 -1.18907 0
M  V30 4395 C 394.423 1.76394 -0.986382 0
M  V30 4396 C 394.744 1.88883 0.484567 0
M  V30 4397 O 394.014 1.41843 1.3512 0
M  V30 4398 H 392.594 0.65344 -0.361975 0
M  V30 4399 H 395.256 1.248 -1.49703 0
M  V30 4400 H 394.352 2.77424 -1.42978 0
M  V30 4401 N 394.653 0.992116 1.22453 0
M  V30 4402 C 395.585 0.500024 2.23679 0
M  V30 4403 C 396.598 -0.404463 1.57696 0
M  V30 4404 O 397.787 -0.206722 1.77299 0
M  V30 4405 C 394.887 -0.294711 3.37616 0
M  V30 4406 C 394.06 0.605723 4.33186 0
M  V30 4407 C 393.119 -0.13717 5.26021 0
M  V30 4408 O 392.145 0.477164 5.67196 0
M  V30 4409 N 393.347 -1.4197 5.62872 0
M  V30 4410 H 396.112 1.37045 2.66531 0
M  V30 4411 H 393.673 0.866741 1.36745 0
M  V30 4412 H 395.665 -0.800329 3.96707 0
M  V30 4413 H 394.235 -1.06623 2.93854 0
M  V30 4414 H 393.455 1.29202 3.72425 0
M  V30 4415 H 394.743 1.21896 4.93983 0
M  V30 4416 H 394.141 -1.94015 5.31389 0
M  V30 4417 H 392.698 -1.87052 6.24383 0
M  V30 4418 N 396.131 -1.37776 0.765217 0
M  V30 4419 C 397.547 -1.53297 0.444108 0
M  V30 4420 C 397.747 -1.72515 -1.04119 0
M  V30 4421 O 396.803 -1.74278 -1.82711 0
M  V30 4422 C 398.116 -2.73328 1.25349 0
M  V30 4423 C 399.664 -2.87185 1.24473 0
M  V30 4424 C 400.139 -4.10191 2.03733 0
M  V30 4425 N 401.63 -4.17291 2.01053 0
M  V30 4426 C 402.365 -5.11488 2.59166 0
M  V30 4427 N 401.861 -6.11285 3.26041 0
M  V30 4428 N 403.654 -5.03924 2.49032 0
M  V30 4429 H 395.805 -1.23552 1.72768 0
M  V30 4430 H 398.068 -0.601103 0.733062 0
M  V30 4431 H 397.774 -2.6557 2.30577 0
M  V30 4432 H 397.648 -3.66834 0.87823 0
M  V30 4433 H 400.035 -2.94418 0.20047 0
M  V30 4434 H 400.116 -1.94657 1.65959 0
M  V30 4435 H 399.76 -4.0372 3.08176 0
M  V30 4436 H 399.69 -5.01821 1.59633 0
M  V30 4437 H 402.181 -3.45825 1.5236 0
M  V30 4438 H 402.494 -6.79678 3.67774 0
M  V30 4439 H 400.839 -6.11583 3.30138 0
M  V30 4440 H 404.03 -4.24902 1.96407 0
M  V30 4441 H 404.203 -5.77152 2.94617 0
M  V30 4442 N 397.609 -0.515225 -1.4894 0
M  V30 4443 C 398.858 0.0261361 -2.01683 0
M  V30 4444 C 399.171 1.36719 -1.39883 0
M  V30 4445 O 400.377 1.99606 -1.84037 0
M  V30 4446 C 398.833 0.0970111 -3.59769 0
M  V30 4447 C 398.441 -1.23825 -4.30548 0
M  V30 4448 C 400.185 0.587981 -4.20408 0
M  V30 4449 C 398.092 -1.12877 -5.80528 0
M  V30 4450 H 397.022 0.0135398 -0.753878 0
M  V30 4451 H 399.673 -0.656787 -1.71343 0
M  V30 4452 H 398.055 0.844694 -3.86886 0
M  V30 4453 H 399.229 -2.00034 -4.15118 0
M  V30 4454 H 397.544 -1.66379 -3.81716 0
M  V30 4455 H 400.141 0.68763 -5.3026 0
M  V30 4456 H 400.484 1.59026 -3.84729 0
M  V30 4457 H 401.017 -0.103582 -3.97665 0
M  V30 4458 H 397.756 -2.10575 -6.20756 0
M  V30 4459 H 397.276 -0.407799 -5.98412 0
M  V30 4460 H 398.955 -0.813332 -6.41868 0
M  V30 4461 N 399.087 1.5561 -0.249682 0
M  V30 4462 C 400.317 2.03116 0.377803 0
M  V30 4463 C 400.725 1.12822 1.51881 0
M  V30 4464 O 400.068 0.13562 1.83199 0
M  V30 4465 C 400.13 3.46866 0.944693 0
M  V30 4466 C 399.794 4.56955 -0.0644259 0
M  V30 4467 C 400.791 5.12485 -0.874957 0
M  V30 4468 C 398.476 5.01936 -0.19132 0
M  V30 4469 C 400.47 6.11491 -1.79881 0
M  V30 4470 C 398.157 6.00773 -1.11868 0
M  V30 4471 C 399.155 6.5543 -1.92095 0
M  V30 4472 O 398.843 7.5234 -2.83267 0
M  V30 4473 H 398.575 0.669489 0.0935961 0
M  V30 4474 H 401.129 2.02004 -0.371966 0
M  V30 4475 H 399.359 3.45136 1.74407 0
M  V30 4476 H 401.048 3.77856 1.48255 0
M  V30 4477 H 401.814 4.78564 -0.787523 0
M  V30 4478 H 397.693 4.59055 0.423072 0
M  V30 4479 H 401.237 6.54078 -2.42543 0
M  V30 4480 H 397.134 6.34114 -1.20703 0
M  V30 4481 H 397.902 7.69966 -2.7766 0
M  V30 4482 N 400.565 -0.0233959 1.57583 0
M  V30 4483 C 401.497 -1.04994 2.03737 0
M  V30 4484 C 402.51 -1.32125 0.951152 0
M  V30 4485 O 403.699 -1.29512 1.22837 0
M  V30 4486 C 400.799 -2.39026 2.40249 0
M  V30 4487 C 399.972 -2.31171 3.7132 0
M  V30 4488 C 399.031 -3.47698 3.94959 0
M  V30 4489 O 398.057 -3.26937 4.65941 0
M  V30 4490 N 399.259 -4.6976 3.41037 0
M  V30 4491 H 402.024 -0.656507 2.92421 0
M  V30 4492 H 399.585 -0.211235 1.60516 0
M  V30 4493 H 401.577 -3.15712 2.53196 0
M  V30 4494 H 400.147 -2.70194 1.57207 0
M  V30 4495 H 399.367 -1.39547 3.68674 0
M  V30 4496 H 400.655 -2.23071 4.57293 0
M  V30 4497 H 400.053 -4.89528 2.83512 0
M  V30 4498 H 398.61 -5.43791 3.59353 0
M  V30 4499 N 402.043 -1.548 -0.295768 0
M  V30 4500 C 403.273 -1.78069 -1.04762 0
M  V30 4501 C 403.681 -0.542847 -1.81245 0
M  V30 4502 O 403.024 0.497051 -1.76848 0
M  V30 4503 C 403.086 -2.93881 -2.07061 0
M  V30 4504 C 402.75 -4.31777 -1.49725 0
M  V30 4505 C 403.747 -5.11613 -0.924581 0
M  V30 4506 C 401.432 -4.78389 -1.5313 0
M  V30 4507 C 403.426 -6.36184 -0.393594 0
M  V30 4508 C 401.113 -6.02921 -0.996447 0
M  V30 4509 C 402.111 -6.81654 -0.428569 0
M  V30 4510 O 401.799 -8.0384 0.0981593 0
M  V30 4511 H 401.531 -0.597475 -0.316226 0
M  V30 4512 H 404.085 -2.02584 -0.338973 0
M  V30 4513 H 402.315 -2.65003 -2.81621 0
M  V30 4514 H 404.004 -3.04679 -2.6819 0
M  V30 4515 H 404.77 -4.76743 -0.891136 0
M  V30 4516 H 400.649 -4.17132 -1.9627 0
M  V30 4517 H 404.193 -6.97582 0.0503014 0
M  V30 4518 H 400.09 -6.37277 -1.02706 0
M  V30 4519 H 400.858 -8.18499 -0.0146455 0
M  V30 4520 N 403.521 0.559213 -1.47345 0
M  V30 4521 C 404.77 1.31281 -1.53128 0
M  V30 4522 C 405.083 1.94602 -0.197344 0
M  V30 4523 O 406.289 2.71173 -0.133154 0
M  V30 4524 C 404.745 2.38051 -2.69925 0
M  V30 4525 C 404.353 1.8093 -4.0984 0
M  V30 4526 C 406.097 3.14604 -2.84999 0
M  V30 4527 C 404.004 2.85468 -5.1794 0
M  V30 4528 H 402.934 0.493614 -0.569966 0
M  V30 4529 H 405.585 0.594155 -1.73615 0
M  V30 4530 H 403.967 3.12822 -2.42814 0
M  V30 4531 H 405.141 1.12544 -4.46845 0
M  V30 4532 H 403.456 1.16967 -3.99634 0
M  V30 4533 H 406.053 3.92666 -3.62929 0
M  V30 4534 H 406.396 3.68665 -1.93369 0
M  V30 4535 H 406.929 2.46945 -3.1187 0
M  V30 4536 H 403.668 2.36264 -6.1144 0
M  V30 4537 H 403.188 3.52269 -4.85455 0
M  V30 4538 H 404.867 3.48996 -5.44803 0
M  V30 4539 N 404.999 1.35443 0.805782 0
M  V30 4540 C 405.931 1.24285 1.92577 0
M  V30 4541 C 406.944 0.165962 1.61952 0
M  V30 4542 O 408.133 0.419303 1.73505 0
M  V30 4543 C 405.233 0.891272 3.2697 0
M  V30 4544 C 404.406 2.06669 3.85495 0
M  V30 4545 C 403.465 1.69077 4.98297 0
M  V30 4546 O 402.491 2.4096 5.15681 0
M  V30 4547 N 403.693 0.614869 5.77234 0
M  V30 4548 H 406.458 2.20777 2.02676 0
M  V30 4549 H 404.019 1.28623 0.983243 0
M  V30 4550 H 406.011 0.621256 3.99903 0
M  V30 4551 H 404.581 0.016004 3.12596 0
M  V30 4552 H 403.801 2.50046 3.04747 0
M  V30 4553 H 405.089 2.85237 4.21328 0
M  V30 4554 H 404.487 0.017648 5.65697 0
M  V30 4555 H 403.044 0.404636 6.50543 0
M  V30 4556 N 406.477 -1.02803 1.19454 0
M  V30 4557 C 407.702 -1.80378 1.02364 0
M  V30 4558 C 408.127 -1.83282 -0.423007 0
M  V30 4559 O 407.485 -1.25945 -1.30413 0
M  V30 4560 C 407.533 -3.23248 1.59821 0
M  V30 4561 O 406.637 -4.04 0.828105 0
M  V30 4562 H 405.978 -0.556799 0.361761 0
M  V30 4563 H 408.508 -1.29385 1.58495 0
M  V30 4564 H 408.518 -3.73994 1.63073 0
M  V30 4565 H 407.193 -3.2045 2.65113 0
M  V30 4566 H 405.77 -3.62635 0.86891 0
M  V30 4567 N 407.956 -0.998596 -1.21925 0
M  V30 4568 C 409.372 -0.710303 -1.42923 0
M  V30 4569 C 409.572 0.716933 -1.88314 0
M  V30 4570 O 408.628 1.48712 -2.04062 0
M  V30 4571 C 409.941 -1.72072 -2.466 0
M  V30 4572 C 411.489 -1.73681 -2.60392 0
M  V30 4573 C 411.964 -2.73601 -3.67296 0
M  V30 4574 N 413.455 -2.7223 -3.7476 0
M  V30 4575 C 414.19 -3.46206 -4.57087 0
M  V30 4576 N 413.686 -4.29802 -5.43362 0
M  V30 4577 N 415.479 -3.34886 -4.51451 0
M  V30 4578 H 407.63 -1.92028 -0.9077 0
M  V30 4579 H 409.893 -0.828487 -0.460775 0
M  V30 4580 H 409.599 -2.74231 -2.20206 0
M  V30 4581 H 409.473 -1.51818 -3.45299 0
M  V30 4582 H 411.86 -0.722173 -2.86127 0
M  V30 4583 H 411.941 -1.98005 -1.61949 0
M  V30 4584 H 411.585 -3.75217 -3.42307 0
M  V30 4585 H 411.515 -2.46545 -4.65321 0
M  V30 4586 H 414.006 -2.11576 -3.1312 0
M  V30 4587 H 414.319 -4.83061 -6.03218 0
M  V30 4588 H 412.664 -4.33887 -5.42925 0
M  V30 4589 H 415.855 -2.69015 -3.83078 0
M  V30 4590 H 416.028 -3.92796 -5.15379 0
M  V30 4591 N 409.434 1.37368 -0.772513 0
M  V30 4592 C 410.681 1.99673 -0.337182 0
M  V30 4593 C 411.009 1.61324 1.0865 0
M  V30 4594 O 410.264 0.851377 1.7621 0
M  V30 4595 C 410.563 3.54817 -0.428876 0
M  V30 4596 C 410.229 4.12936 -1.81092 0
M  V30 4597 C 408.891 4.28523 -2.1891 0
M  V30 4598 C 411.243 4.44801 -2.71664 0
M  V30 4599 C 408.571 4.73277 -3.46735 0
M  V30 4600 C 410.923 4.90981 -3.98899 0
M  V30 4601 C 409.587 5.04773 -4.36761 0
M  V30 4602 H 408.857 0.730656 -0.123384 0
M  V30 4603 H 411.504 1.64124 -0.986686 0
M  V30 4604 H 409.809 3.90618 0.304167 0
M  V30 4605 H 411.506 4.00933 -0.0733334 0
M  V30 4606 H 408.096 4.01233 -1.50699 0
M  V30 4607 H 412.28 4.32344 -2.43706 0
M  V30 4608 H 407.536 4.82142 -3.75964 0
M  V30 4609 H 411.71 5.14603 -4.69208 0
M  V30 4610 H 409.337 5.39211 -5.35868 0
M  V30 4611 N 410.912 0.523116 1.48665 0
M  V30 4612 C 412.142 -0.00961724 2.06598 0
M  V30 4613 C 412.55 -1.29333 1.38093 0
M  V30 4614 O 411.893 -1.77846 0.46007 0
M  V30 4615 C 411.955 -0.311135 3.58151 0
M  V30 4616 C 411.619 0.878092 4.48485 0
M  V30 4617 C 412.616 1.77464 4.88674 0
M  V30 4618 C 410.301 1.08315 4.90483 0
M  V30 4619 C 412.295 2.86021 5.69623 0
M  V30 4620 C 409.982 2.17187 5.71203 0
M  V30 4621 C 410.98 3.05873 6.10681 0
M  V30 4622 O 410.668 4.12862 6.89783 0
M  V30 4623 H 410.4 0.0272658 0.67545 0
M  V30 4624 H 412.954 0.726156 1.92136 0
M  V30 4625 H 411.184 -1.10079 3.70701 0
M  V30 4626 H 412.873 -0.785125 3.98234 0
M  V30 4627 H 413.639 1.62813 4.56855 0
M  V30 4628 H 409.518 0.402149 4.59243 0
M  V30 4629 H 413.062 3.55272 6.00356 0
M  V30 4630 H 408.959 2.31824 6.02435 0
M  V30 4631 H 409.727 4.10487 7.08126 0
M  V30 4632 N 412.39 -1.55475 0.257931 0
M  V30 4633 C 413.806 -1.59307 -0.0966563 0
M  V30 4634 C 414.006 -1.27514 -1.5602 0
M  V30 4635 O 413.062 -1.02774 -2.30637 0
M  V30 4636 C 414.375 -2.99552 0.262481 0
M  V30 4637 C 415.923 -3.1231 0.207683 0
M  V30 4638 C 416.398 -4.54793 0.541012 0
M  V30 4639 N 417.889 -4.6058 0.491921 0
M  V30 4640 C 418.624 -5.68825 0.722857 0
M  V30 4641 N 418.12 -6.85287 1.0175 0
M  V30 4642 N 419.913 -5.58296 0.652815 0
M  V30 4643 H 412.064 -1.74409 1.21224 0
M  V30 4644 H 414.327 -0.812424 0.48854 0
M  V30 4645 H 414.033 -3.27593 1.27967 0
M  V30 4646 H 413.907 -3.75019 -0.40508 0
M  V30 4647 H 416.294 -2.84044 -0.800195 0
M  V30 4648 H 416.375 -2.39095 0.909255 0
M  V30 4649 H 416.019 -4.83783 1.5465 0
M  V30 4650 H 415.949 -5.26285 -0.18216 0
M  V30 4651 H 418.44 -3.7691 0.273366 0
M  V30 4652 H 418.753 -7.63725 1.18084 0
M  V30 4653 H 417.098 -6.86945 1.05509 0
M  V30 4654 H 420.289 -4.66189 0.422592 0
M  V30 4655 H 420.462 -6.42582 0.836182 0
M  V30 4656 N 413.868 0.0150385 -1.57593 0
M  V30 4657 C 415.093 0.718067 -1.94573 0
M  V30 4658 C 415.518 1.6734 -0.859005 0
M  V30 4659 O 414.876 1.80362 0.184147 0
M  V30 4660 C 414.924 1.43918 -3.30636 0
M  V30 4661 O 414.028 2.55299 -3.23876 0
M  V30 4662 H 413.369 0.192125 -0.635597 0
M  V30 4663 H 415.899 -0.0336708 -2.04572 0
M  V30 4664 H 415.909 1.80598 -3.65853 0
M  V30 4665 H 414.584 0.738619 -4.09289 0
M  V30 4666 H 413.161 2.21058 -3.00312 0
M  V30 4667 N 415.346 1.54954 0.287554 0
M  V30 4668 C 416.757 1.65732 0.859634 0
M  V30 4669 C 417.108 0.574767 1.87592 0
M  V30 4670 O 416.233 -0.286299 2.14498 0
M  V30 4671 C 416.828 3.00438 1.56597 0
M  V30 4672 C 415.387 3.13292 2.08627 0
M  V30 4673 C 414.534 2.61473 0.923416 0
M  V30 4674 H 417.485 1.5857 0.0642338 0
M  V30 4675 H 417.506 2.92613 2.43224 0
M  V30 4676 H 417.018 3.79207 0.826053 0
M  V30 4677 H 415.119 2.39268 2.85625 0
M  V30 4678 H 415.232 4.19647 2.31157 0
M  V30 4679 H 413.596 2.18264 1.31275 0
M  V30 4680 H 414.379 3.42733 0.197241 0
M  V30 4681 N 416.824 -0.551391 1.4764 0
M  V30 4682 C 417.734 -1.68525 1.63207 0
M  V30 4683 C 418.75 -1.6621 0.514815 0
M  V30 4684 O 419.926 -1.85551 0.783113 0
M  V30 4685 C 416.991 -3.05025 1.64805 0
M  V30 4686 C 416.052 -3.18362 2.88 0
M  V30 4687 C 415.285 -4.4835 2.89513 0
M  V30 4688 O 415.508 -5.34163 2.00065 0
M  V30 4689 O 414.442 -4.65602 3.81443 0
M  V30 4690 H 418.268 -1.58333 2.59161 0
M  V30 4691 H 415.853 -0.722063 1.30792 0
M  V30 4692 H 417.735 -3.86245 1.68502 0
M  V30 4693 H 416.41 -3.15587 0.720197 0
M  V30 4694 H 415.317 -2.36518 2.89845 0
M  V30 4695 H 416.65 -3.12707 3.80099 0
M  V30 4696 N 418.302 -1.35869 -0.798587 0
M  V30 4697 C 419.548 -1.2978 -1.55836 0
M  V30 4698 C 419.881 0.125322 -1.93795 0
M  V30 4699 O 419.156 1.07658 -1.61987 0
M  V30 4700 C 419.439 -2.21188 -2.84162 0
M  V30 4701 C 419.292 -3.72155 -2.52628 0
M  V30 4702 C 420.611 -2.11545 -3.85923 0
M  V30 4703 H 417.73 -0.472769 -0.565383 0
M  V30 4704 H 420.372 -1.66341 -0.918192 0
M  V30 4705 H 418.522 -1.90139 -3.38791 0
M  V30 4706 H 420.194 -4.13682 -2.04121 0
M  V30 4707 H 418.437 -3.92042 -1.85704 0
M  V30 4708 H 419.108 -4.31511 -3.44242 0
M  V30 4709 H 421.584 -2.38855 -3.40716 0
M  V30 4710 H 420.46 -2.77688 -4.73477 0
M  V30 4711 H 420.721 -1.09987 -4.282 0
M  V30 4712 N 419.78 1.02168 -1.19998 0
M  V30 4713 C 420.71 2.12488 -0.96804 0
M  V30 4714 C 421.691 1.69799 0.101185 0
M  V30 4715 O 422.876 1.94121 -0.0552993 0
M  V30 4716 C 420.006 3.43479 -0.513776 0
M  V30 4717 C 418.96 3.99884 -1.52566 0
M  V30 4718 C 418.286 5.26582 -0.928214 0
M  V30 4719 C 419.586 4.33861 -2.90795 0
M  V30 4720 H 421.28 2.32149 -1.89069 0
M  V30 4721 H 418.826 1.11564 -0.910468 0
M  V30 4722 H 420.779 4.20036 -0.338774 0
M  V30 4723 H 419.503 3.23561 0.444493 0
M  V30 4724 H 418.162 3.25429 -1.68794 0
M  V30 4725 H 417.81 5.02986 0.0378289 0
M  V30 4726 H 417.51 5.65284 -1.60397 0
M  V30 4727 H 419.034 6.05799 -0.764167 0
M  V30 4728 H 420.448 5.01327 -2.78109 0
M  V30 4729 H 418.845 4.83664 -3.55231 0
M  V30 4730 H 419.915 3.42848 -3.42904 0
M  V30 4731 N 421.258 1.00505 1.21394 0
M  V30 4732 C 422.188 0.585684 2.26035 0
M  V30 4733 C 423.169 -0.393525 1.65485 0
M  V30 4734 O 424.354 -0.281497 1.92149 0
M  V30 4735 C 421.484 -0.0884283 3.47187 0
M  V30 4736 C 420.438 0.810567 4.20254 0
M  V30 4737 C 419.764 0.00286382 5.347 0
M  V30 4738 C 421.064 2.1132 4.77641 0
M  V30 4739 H 422.758 1.46039 2.61368 0
M  V30 4740 H 420.304 0.703648 1.25638 0
M  V30 4741 H 422.257 -0.393286 4.19561 0
M  V30 4742 H 420.981 -0.997766 3.10986 0
M  V30 4743 H 419.64 1.09925 3.49731 0
M  V30 4744 H 419.288 -0.907765 4.94741 0
M  V30 4745 H 418.988 0.601444 5.84514 0
M  V30 4746 H 420.512 -0.295808 6.09883 0
M  V30 4747 H 421.926 1.87148 5.41893 0
M  V30 4748 H 420.323 2.66164 5.37845 0
M  V30 4749 H 421.393 2.78393 3.9702 0
M  V30 4750 N 422.737 -1.36956 0.779787 0
M  V30 4751 C 423.985 -1.99097 0.347079 0
M  V30 4752 C 424.306 -1.62206 -1.08232 0
M  V30 4753 O 423.576 -0.891373 -1.74446 0
M  V30 4754 H 422.156 -0.736409 0.125342 0
M  V30 4755 H 424.818 -1.67308 0.999696 0
M  V30 4756 H 423.914 -3.09107 0.431162 0
M  V30 4757 N 424.215 -0.530993 -1.48385 0
M  V30 4758 C 425.443 -0.00134122 -2.069 0
M  V30 4759 C 425.858 1.2805 -1.3874 0
M  V30 4760 O 425.215 1.76204 -0.475244 0
M  V30 4761 C 425.266 0.225256 -3.60798 0
M  V30 4762 O 424.987 -1.0058 -4.26398 0
M  V30 4763 C 426.488 0.795172 -4.3611 0
M  V30 4764 H 423.708 -0.0339704 -0.67014 0
M  V30 4765 H 426.252 -0.736926 -1.90761 0
M  V30 4766 H 424.407 0.910891 -3.76539 0
M  V30 4767 H 424.821 -0.787165 -5.1856 0
M  V30 4768 H 426.295 0.903143 -5.44562 0
M  V30 4769 H 426.772 1.80031 -4.00606 0
M  V30 4770 H 427.378 0.146069 -4.25049 0
M  V30 4771 N 425.693 1.55336 -0.266172 0
M  V30 4772 C 427.104 1.85236 0.233315 0
M  V30 4773 C 427.455 1.18816 1.56132 0
M  V30 4774 O 426.58 0.473307 2.11161 0
M  V30 4775 C 427.175 3.36059 0.430113 0
M  V30 4776 C 425.734 3.66116 0.873842 0
M  V30 4777 C 424.881 2.77274 -0.0380016 0
M  V30 4778 H 427.832 1.51004 -0.488214 0
M  V30 4779 H 427.853 3.58681 1.26998 0
M  V30 4780 H 427.365 3.84373 -0.536588 0
M  V30 4781 H 425.466 3.23295 1.85233 0
M  V30 4782 H 425.579 4.73699 0.717358 0
M  V30 4783 H 423.943 2.50198 0.476759 0
M  V30 4784 H 424.726 3.284 -1.00042 0
M  V30 4785 N 427.171 -0.0066808 1.57599 0
M  V30 4786 C 428.401 -0.703066 1.94269 0
M  V30 4787 C 428.809 -1.68206 0.866222 0
M  V30 4788 O 428.152 -1.82966 -0.164087 0
M  V30 4789 C 428.214 -1.49616 3.26887 0
M  V30 4790 C 427.878 -0.679494 4.5192 0
M  V30 4791 C 428.875 0.0299508 5.19891 0
M  V30 4792 C 426.56 -0.627433 4.98366 0
M  V30 4793 C 428.554 0.780514 6.32603 0
M  V30 4794 C 426.241 0.126861 6.10968 0
M  V30 4795 C 427.239 0.829574 6.77943 0
M  V30 4796 O 426.927 1.57157 7.88389 0
M  V30 4797 H 426.659 -0.201217 0.645359 0
M  V30 4798 H 429.213 0.0385326 2.05364 0
M  V30 4799 H 427.443 -2.28209 3.12182 0
M  V30 4800 H 429.132 -2.07726 3.48719 0
M  V30 4801 H 429.898 -0.00115963 4.85 0
M  V30 4802 H 425.777 -1.16392 4.46065 0
M  V30 4803 H 429.321 1.32954 6.84813 0
M  V30 4804 H 425.218 0.159815 6.45302 0
M  V30 4805 H 425.986 1.48758 8.04868 0
M  V30 4806 N 428.649 -1.55105 -0.279332 0
M  V30 4807 C 429.926 -1.66119 -1.03267 0
M  V30 4808 C 430.306 -0.523525 -2.04505 0
M  V30 4809 O 429.654 0.477194 -2.23462 0
M  V30 4810 C 429.864 -3.05067 -1.69515 0
M  V30 4811 C 431.212 -3.62606 -2.20912 0
M  V30 4812 O 432.236 -3.07659 -1.79512 0
M  V30 4813 O 431.095 -4.58861 -2.96831 0
M  V30 4814 H 428.189 -0.674429 -0.478618 0
M  V30 4815 H 430.735 -1.67446 -0.275694 0
M  V30 4816 H 429.507 -3.79311 -0.9612 0
M  V30 4817 H 429.13 -3.07611 -2.51915 0
M  V30 4818 N 430.127 0.543554 -1.4793 0
M  V30 4819 C 431.057 1.65888 -1.64327 0
M  V30 4820 C 432.038 1.62818 -0.492383 0
M  V30 4821 O 433.223 1.80226 -0.723338 0
M  V30 4822 C 430.353 3.04506 -1.67013 0
M  V30 4823 C 429.307 3.2243 -2.81466 0
M  V30 4824 C 428.633 4.61972 -2.69233 0
M  V30 4825 C 429.933 3.06496 -4.22915 0
M  V30 4826 H 431.627 1.52421 -2.57698 0
M  V30 4827 H 429.173 0.731849 -1.24016 0
M  V30 4828 H 431.126 3.82391 -1.77074 0
M  V30 4829 H 429.85 3.18964 -0.70212 0
M  V30 4830 H 428.509 2.46957 -2.70938 0
M  V30 4831 H 428.157 4.73247 -1.7043 0
M  V30 4832 H 427.857 4.74911 -3.46025 0
M  V30 4833 H 429.381 5.41974 -2.81242 0
M  V30 4834 H 430.795 3.74186 -4.34348 0
M  V30 4835 H 429.192 3.30938 -5.006 0
M  V30 4836 H 430.262 2.03077 -4.40327 0
M  V30 4837 N 431.605 1.3629 0.791371 0
M  V30 4838 C 432.568 1.30309 1.88553 0
M  V30 4839 C 433.568 0.211204 1.59407 0
M  V30 4840 O 434.758 0.465865 1.67855 0
M  V30 4841 C 431.89 1.01956 3.25297 0
M  V30 4842 H 433.083 2.27614 1.95273 0
M  V30 4843 H 430.636 1.21035 0.988953 0
M  V30 4844 H 431.371 0.050998 3.2426 0
M  V30 4845 H 431.156 1.80968 3.4784 0
M  V30 4846 H 432.646 1.0037 4.05359 0
M  V30 4847 N 433.083 -1.0153 1.20538 0
M  V30 4848 C 434.332 -1.74558 1.01057 0
M  V30 4849 C 434.645 -1.90168 -0.457756 0
M  V30 4850 O 435.851 -2.60301 -0.771722 0
M  V30 4851 C 434.307 -3.13963 1.75941 0
M  V30 4852 C 433.915 -3.06361 3.26875 0
M  V30 4853 C 435.659 -3.91191 1.64832 0
M  V30 4854 C 433.566 -4.40782 3.94291 0
M  V30 4855 H 432.496 -0.654417 0.374505 0
M  V30 4856 H 435.147 -1.13521 1.44171 0
M  V30 4857 H 433.529 -3.75549 1.25614 0
M  V30 4858 H 434.703 -2.54074 3.84425 0
M  V30 4859 H 433.018 -2.42625 3.38411 0
M  V30 4860 H 435.615 -4.90644 2.12539 0
M  V30 4861 H 435.958 -4.11884 0.604745 0
M  V30 4862 H 436.491 -3.36236 2.12579 0
M  V30 4863 H 433.23 -4.25292 4.98805 0
M  V30 4864 H 432.75 -4.9307 3.41529 0
M  V30 4865 H 434.429 -5.09621 3.98617 0
M  V30 4866 N 434.561 -1.01147 -1.20859 0
M  V30 4867 C 435.838 -0.613136 -1.85742 0
M  V30 4868 C 436.218 0.909004 -1.90526 0
M  V30 4869 O 435.566 1.79862 -1.40932 0
M  V30 4870 C 435.776 -1.255 -3.25654 0
M  V30 4871 C 437.124 -1.3672 -4.01986 0
M  V30 4872 O 438.148 -1.21082 -3.34989 0
M  V30 4873 O 437.007 -1.6194 -5.21956 0
M  V30 4874 H 434.101 -0.210878 -0.799662 0
M  V30 4875 H 436.647 -1.10853 -1.2849 0
M  V30 4876 H 435.419 -2.29532 -3.16908 0
M  V30 4877 H 435.042 -0.746369 -3.90532 0
M  V30 4878 N 436.039 1.36541 -0.78704 0
M  V30 4879 C 436.972 2.27831 -0.129765 0
M  V30 4880 C 437.95 1.47105 0.692732 0
M  V30 4881 O 439.134 1.7641 0.664222 0
M  V30 4882 C 436.261 3.28577 0.821883 0
M  V30 4883 C 435.307 4.26422 0.0814771 0
M  V30 4884 S 436.14 5.20919 -1.24112 0
M  V30 4885 C 437.296 6.25212 -0.293409 0
M  V30 4886 H 437.529 2.83229 -0.903811 0
M  V30 4887 H 435.062 1.43046 -0.581144 0
M  V30 4888 H 437.02 3.87123 1.3655 0
M  V30 4889 H 435.681 2.72096 1.56916 0
M  V30 4890 H 434.874 4.97554 0.803485 0
M  V30 4891 H 434.476 3.71944 -0.391589 0
M  V30 4892 H 436.768 6.75435 0.528622 0
M  V30 4893 H 437.711 7.01378 -0.973344 0
M  V30 4894 H 438.119 5.64407 0.102196 0
M  V30 4895 N 437.518 0.538854 1.48102 0
M  V30 4896 C 438.764 0.0161732 2.03394 0
M  V30 4897 C 439.119 -1.31154 1.40771 0
M  V30 4898 O 438.412 -1.83613 0.547421 0
M  V30 4899 C 438.606 -0.153808 3.57069 0
M  V30 4900 C 438.435 1.15588 4.34591 0
M  V30 4901 C 437.205 1.71818 4.75191 0
M  V30 4902 C 439.403 2.06867 4.70861 0
M  V30 4903 N 437.385 2.96983 5.37284 0
M  V30 4904 C 438.756 3.16609 5.33066 0
M  V30 4905 C 440.811 2.07085 4.52791 0
M  V30 4906 C 439.514 4.26645 5.79109 0
M  V30 4907 C 441.54 3.16121 4.99821 0
M  V30 4908 C 440.902 4.24582 5.62058 0
M  V30 4909 H 437.001 0.0476346 0.780548 0
M  V30 4910 H 439.585 0.722094 1.80815 0
M  V30 4911 H 437.756 -0.828825 3.79454 0
M  V30 4912 H 439.488 -0.676896 3.98999 0
M  V30 4913 H 436.243 1.25845 4.56574 0
M  V30 4914 H 436.667 3.60732 5.72889 0
M  V30 4915 H 441.309 1.24522 4.04047 0
M  V30 4916 H 439.027 5.0998 6.26854 0
M  V30 4917 H 442.613 3.17355 4.87624 0
M  V30 4918 H 441.493 5.07562 5.97788 0
M  V30 4919 N 438.996 -1.55193 0.274407 0
M  V30 4920 C 440.221 -2.04446 -0.348824 0
M  V30 4921 C 440.646 -1.15149 -1.48735 0
M  V30 4922 O 440.004 -0.149952 -1.80679 0
M  V30 4923 C 440.052 -3.51431 -0.808009 0
M  V30 4924 O 439.156 -3.65225 -1.91531 0
M  V30 4925 H 438.497 -0.66006 -0.0722276 0
M  V30 4926 H 441.027 -2.00481 0.408498 0
M  V30 4927 H 441.037 -3.92781 -1.10395 0
M  V30 4928 H 439.712 -4.15892 0.0249865 0
M  V30 4929 H 438.289 -3.35778 -1.62196 0
M  V30 4930 N 440.474 -0.00167713 -1.576 0
M  V30 4931 C 441.404 0.988091 -2.11563 0
M  V30 4932 C 442.385 1.35736 -1.02517 0
M  V30 4933 O 443.57 1.44082 -1.30208 0
M  V30 4934 C 440.7 2.27941 -2.62031 0
M  V30 4935 C 439.654 2.0517 -3.75619 0
M  V30 4936 C 438.98 3.4033 -4.12407 0
M  V30 4937 C 440.28 1.41294 -5.02825 0
M  V30 4938 H 441.974 0.538771 -2.94513 0
M  V30 4939 H 439.52 0.257712 -1.41675 0
M  V30 4940 H 441.473 2.97539 -2.9841 0
M  V30 4941 H 440.197 2.74989 -1.76205 0
M  V30 4942 H 438.856 1.37998 -3.39635 0
M  V30 4943 H 438.504 3.85085 -3.23603 0
M  V30 4944 H 438.204 3.25909 -4.88935 0
M  V30 4945 H 439.728 4.1124 -4.51347 0
M  V30 4946 H 441.142 2.00851 -5.36965 0
M  V30 4947 H 439.539 1.37356 -5.84169 0
M  V30 4948 H 440.609 0.382362 -4.8339 0
M  V30 4949 N 441.952 1.55251 0.271103 0
M  V30 4950 C 443.2 1.75599 1.00047 0
M  V30 4951 C 443.521 0.561188 1.8675 0
M  V30 4952 O 442.791 -0.423846 1.9126 0
M  V30 4953 H 441.371 0.647562 0.372387 0
M  V30 4954 H 444.033 1.92656 0.294876 0
M  V30 4955 H 443.129 2.65766 1.6363 0
M  V30 4956 N 443.43 -0.535701 1.48216 0
M  V30 4957 C 444.67 -1.30238 1.57536 0
M  V30 4958 C 445.034 -1.90479 0.241229 0
M  V30 4959 O 446.235 -2.67983 0.20938 0
M  V30 4960 C 444.506 -2.3669 2.67792 0
M  V30 4961 S 446.065 -3.23159 2.9684 0
M  V30 4962 H 442.883 -0.443093 0.556048 0
M  V30 4963 H 445.485 -0.610937 1.85709 0
M  V30 4964 H 444.189 -1.90905 3.63296 0
M  V30 4965 H 443.72 -3.10548 2.41502 0
M  V30 4966 H 445.735 -4.36647 2.35699 0
M  V30 4967 N 444.908 -1.36708 -0.784132 0
M  V30 4968 C 446.157 -1.30559 -1.53744 0
M  V30 4969 C 446.47 0.111374 -1.95283 0
M  V30 4970 O 447.676 0.29527 -2.6989 0
M  V30 4971 C 446.132 -2.29098 -2.77565 0
M  V30 4972 C 445.74 -3.76258 -2.43174 0
M  V30 4973 C 447.484 -2.31936 -3.55536 0
M  V30 4974 C 445.391 -4.6656 -3.63422 0
M  V30 4975 H 444.321 -0.48518 -0.577162 0
M  V30 4976 H 446.972 -1.62101 -0.859981 0
M  V30 4977 H 445.354 -1.90557 -3.47137 0
M  V30 4978 H 446.528 -4.23565 -1.81465 0
M  V30 4979 H 444.843 -3.76246 -1.78403 0
M  V30 4980 H 447.44 -2.9661 -4.44889 0
M  V30 4981 H 447.783 -1.3294 -3.94503 0
M  V30 4982 H 448.316 -2.6912 -2.92949 0
M  V30 4983 H 445.055 -5.66638 -3.29547 0
M  V30 4984 H 444.575 -4.23966 -4.24279 0
M  V30 4985 H 446.254 -4.8309 -4.30387 0
M  V30 4986 N 446.386 1.0089 -1.21074 0
M  V30 4987 C 447.316 2.1145 -0.990523 0
M  V30 4988 C 448.297 1.69897 0.0831699 0
M  V30 4989 O 449.482 1.94052 -0.0758853 0
M  V30 4990 C 446.612 3.42914 -0.550177 0
M  V30 4991 C 445.566 3.98244 -1.56799 0
M  V30 4992 C 444.892 5.25568 -0.984013 0
M  V30 4993 C 446.192 4.30752 -2.95381 0
M  V30 4994 H 447.886 2.3013 -1.91521 0
M  V30 4995 H 445.432 1.10592 -0.92225 0
M  V30 4996 H 447.385 4.19653 -0.383305 0
M  V30 4997 H 446.109 3.24014 0.41015 0
M  V30 4998 H 444.768 3.23621 -1.72236 0
M  V30 4999 H 444.416 5.02998 -0.0155216 0
M  V30 5000 H 444.116 5.63551 -1.66384 0
M  V30 5001 H 445.64 6.04955 -0.828378 0
M  V30 5002 H 447.054 4.98349 -2.8341 0
M  V30 5003 H 445.451 4.79869 -3.60341 0
M  V30 5004 H 446.521 3.39192 -3.46521 0
M  V30 5005 N 447.864 1.01787 1.20321 0
M  V30 5006 C 449.11 0.708985 1.90003 0
M  V30 5007 C 449.443 -0.759572 1.78729 0
M  V30 5008 O 448.718 -1.55198 1.17234 0
M  V30 5009 C 449.001 1.1469 3.41348 0
M  V30 5010 C 448.854 2.67586 3.61549 0
M  V30 5011 C 450.173 0.71915 4.34185 0
M  V30 5012 H 447.292 0.259034 0.689978 0
M  V30 5013 H 449.934 1.26584 1.41692 0
M  V30 5014 H 448.084 0.673128 3.82624 0
M  V30 5015 H 449.756 3.22826 3.29517 0
M  V30 5016 H 447.999 3.085 3.04976 0
M  V30 5017 H 448.67 2.93281 4.67643 0
M  V30 5018 H 451.146 1.12647 4.00562 0
M  V30 5019 H 450.022 1.05358 5.38694 0
M  V30 5020 H 450.283 -0.379111 4.40472 0
M  V30 5021 N 449.342 -1.36122 0.79427 0
M  V30 5022 C 450.252 -2.33769 0.197296 0
M  V30 5023 C 451.268 -1.61276 -0.653153 0
M  V30 5024 O 452.444 -1.9323 -0.5678 0
M  V30 5025 C 449.509 -3.40474 -0.654098 0
M  V30 5026 C 448.57 -4.28759 0.215411 0
M  V30 5027 C 447.803 -5.30368 -0.595443 0
M  V30 5028 O 448.026 -5.40211 -1.83107 0
M  V30 5029 O 446.96 -6.019 0.00721351 0
M  V30 5030 H 450.786 -2.86597 1.00478 0
M  V30 5031 H 448.371 -1.38676 0.555818 0
M  V30 5032 H 450.253 -4.05703 -1.13944 0
M  V30 5033 H 448.928 -2.89937 -1.43938 0
M  V30 5034 H 447.835 -3.66554 0.747615 0
M  V30 5035 H 449.168 -4.82661 0.964332 0
M  V30 5036 N 450.82 -0.546701 -1.47814 0
M  V30 5037 C 451.753 0.254472 -2.26777 0
M  V30 5038 C 452.731 0.929809 -1.33392 0
M  V30 5039 O 453.915 0.950889 -1.62759 0
M  V30 5040 C 451.042 1.36171 -3.10121 0
M  V30 5041 C 450.088 0.796038 -4.19005 0
M  V30 5042 S 450.921 -0.349191 -5.3436 0
M  V30 5043 C 452.077 0.760122 -6.21267 0
M  V30 5044 H 452.31 -0.415612 -2.94381 0
M  V30 5045 H 449.843 -0.332809 -1.5077 0
M  V30 5046 H 451.801 1.99588 -3.58713 0
M  V30 5047 H 450.462 2.00359 -2.41899 0
M  V30 5048 H 449.655 1.62719 -4.7701 0
M  V30 5049 H 449.257 0.238246 -3.7324 0
M  V30 5050 H 451.549 1.65479 -6.5698 0
M  V30 5051 H 452.492 0.217673 -7.07765 0
M  V30 5052 H 452.9 1.04806 -5.54685 0
M  V30 5053 N 452.299 1.55045 -0.282633 0
M  V30 5054 C 453.249 2.19514 0.616249 0
M  V30 5055 C 454.233 1.16216 1.11277 0
M  V30 5056 O 455.425 1.42004 1.05659 0
M  V30 5057 C 452.554 2.92548 1.7964 0
M  V30 5058 C 451.64 4.03142 1.31671 0
M  V30 5059 N 452.031 5.0276 0.553695 0
M  V30 5060 C 450.329 4.1635 1.59903 0
M  V30 5061 C 451.03 5.80923 0.30054 0
M  V30 5062 N 450.006 5.3651 0.875116 0
M  V30 5063 H 453.808 2.93889 0.0255363 0
M  V30 5064 H 451.322 1.62169 -0.0865362 0
M  V30 5065 H 453.319 3.37188 2.45173 0
M  V30 5066 H 451.979 2.19685 2.39099 0
M  V30 5067 H 452.99 5.17512 0.20032 0
M  V30 5068 H 449.667 3.54682 2.20243 0
M  V30 5069 H 451.057 6.7118 -0.311053 0
M  V30 5070 N 453.777 0.010035 1.57597 0
M  V30 5071 C 455.005 -0.683413 1.95287 0
M  V30 5072 C 455.42 -1.66747 0.885481 0
M  V30 5073 O 454.777 -1.82003 -0.134629 0
M  V30 5074 C 454.828 -1.40652 3.33015 0
M  V30 5075 O 454.549 -0.461916 4.35658 0
M  V30 5076 C 456.05 -2.19356 3.85225 0
M  V30 5077 H 453.27 -0.189708 0.643624 0
M  V30 5078 H 455.814 0.0641359 2.04399 0
M  V30 5079 H 453.969 -2.10562 3.2518 0
M  V30 5080 H 454.383 -0.973215 5.15392 0
M  V30 5081 H 455.857 -2.65433 4.83993 0
M  V30 5082 H 456.334 -3.02457 3.18459 0
M  V30 5083 H 456.94 -1.54442 3.96267 0
M  V30 5084 N 455.255 -1.55392 -0.262866 0
M  V30 5085 C 456.503 -1.76127 -0.991147 0
M  V30 5086 C 456.824 -0.571083 -1.8645 0
M  V30 5087 O 456.094 0.413698 -1.91482 0
M  V30 5088 H 454.674 -0.649528 -0.368948 0
M  V30 5089 H 457.336 -1.9281 -0.284655 0
M  V30 5090 H 456.432 -2.6663 -1.62219 0
M  V30 5091 N 456.733 0.527833 -1.48498 0
M  V30 5092 C 457.643 1.65907 -1.65867 0
M  V30 5093 C 458.659 1.6537 -0.541192 0
M  V30 5094 O 459.835 1.84282 -0.812534 0
M  V30 5095 C 456.9 3.02364 -1.69637 0
M  V30 5096 C 455.961 3.1374 -2.93028 0
M  V30 5097 C 455.194 4.43688 -2.96609 0
M  V30 5098 O 455.417 5.30913 -2.08538 0
M  V30 5099 O 454.351 4.59475 -3.88802 0
M  V30 5100 H 458.177 1.5419 -2.61647 0
M  V30 5101 H 455.762 0.701163 -1.31924 0
M  V30 5102 H 457.644 3.83515 -1.74625 0
M  V30 5103 H 456.319 3.14401 -0.770312 0
M  V30 5104 H 455.226 2.31877 -2.93571 0
M  V30 5105 H 456.559 3.06621 -3.85026 0
M  V30 5106 N 458.211 1.37122 0.776871 0
M  V30 5107 C 459.622 1.28667 1.35284 0
M  V30 5108 C 459.973 -0.0680035 1.96082 0
M  V30 5109 O 459.098 -0.969743 1.93455 0
M  V30 5110 C 459.693 2.32997 2.45963 0
M  V30 5111 C 458.252 2.28191 2.99342 0
M  V30 5112 C 457.399 2.17101 1.72517 0
M  V30 5113 H 460.35 1.47819 0.577527 0
M  V30 5114 H 460.371 1.97366 3.2531 0
M  V30 5115 H 459.883 3.3158 2.01684 0
M  V30 5116 H 457.984 1.33115 3.4801 0
M  V30 5117 H 458.097 3.21397 3.55304 0
M  V30 5118 H 456.461 1.63562 1.95242 0
M  V30 5119 H 457.244 3.17591 1.30348 0
M  V30 5120 N 459.689 -1.00246 1.21608 0
M  V30 5121 C 460.619 -2.10921 1.00172 0
M  V30 5122 C 461.6 -1.69938 -0.0741587 0
M  V30 5123 O 462.785 -1.94009 0.0861753 0
M  V30 5124 C 459.915 -3.42618 0.568355 0
M  V30 5125 C 458.869 -3.97407 1.58909 0
M  V30 5126 C 458.195 -5.25038 1.01187 0
M  V30 5127 C 459.495 -4.2918 2.97661 0
M  V30 5128 H 461.189 -2.29112 1.92739 0
M  V30 5129 H 458.735 -1.10101 0.928102 0
M  V30 5130 H 460.688 -4.19444 0.405555 0
M  V30 5131 H 459.412 -3.24227 -0.392961 0
M  V30 5132 H 458.071 -3.22703 1.73949 0
M  V30 5133 H 457.719 -5.02982 0.0421965 0
M  V30 5134 H 457.419 -5.62661 1.6937 0
M  V30 5135 H 458.943 -6.04507 0.860448 0
M  V30 5136 H 460.357 -4.96839 2.86049 0
M  V30 5137 H 458.754 -4.77952 3.6288 0
M  V30 5138 H 459.824 -3.3735 3.48315 0
M  V30 5139 N 461.167 -1.02423 -1.1978 0
M  V30 5140 C 462.414 -0.717988 -1.89344 0
M  V30 5141 C 462.742 0.753036 -1.79331 0
M  V30 5142 O 461.997 1.56355 -1.17692 0
M  V30 5143 C 462.296 -1.1088 -3.39765 0
M  V30 5144 C 461.962 -2.57731 -3.6998 0
M  V30 5145 C 460.624 -2.97854 -3.77937 0
M  V30 5146 C 462.976 -3.52763 -3.83677 0
M  V30 5147 C 460.304 -4.31931 -3.97054 0
M  V30 5148 C 462.656 -4.86538 -4.04306 0
M  V30 5149 C 461.32 -5.26356 -4.10494 0
M  V30 5150 H 460.59 -0.26273 -0.692859 0
M  V30 5151 H 463.237 -1.28623 -1.41875 0
M  V30 5152 H 461.542 -0.459094 -3.89101 0
M  V30 5153 H 463.239 -0.849432 -3.919 0
M  V30 5154 H 459.829 -2.25646 -3.64393 0
M  V30 5155 H 464.013 -3.2292 -3.76877 0
M  V30 5156 H 459.269 -4.62324 -4.00083 0
M  V30 5157 H 463.443 -5.60093 -4.13846 0
M  V30 5158 H 461.07 -6.3026 -4.2506 0
M  V30 5159 N 462.645 1.35699 -0.801477 0
M  V30 5160 C 463.87 2.03687 -0.390678 0
M  V30 5161 C 464.295 1.60015 0.988778 0
M  V30 5162 O 463.653 0.774357 1.63931 0
M  V30 5163 C 463.701 3.57439 -0.476404 0
M  V30 5164 O 462.805 4.09208 0.512106 0
M  V30 5165 H 462.146 0.64344 -0.163956 0
M  V30 5166 H 464.676 1.73403 -1.08594 0
M  V30 5167 H 464.686 4.06544 -0.344357 0
M  V30 5168 H 463.361 3.88576 -1.48262 0
M  V30 5169 H 461.938 3.7134 0.340721 0
M  V30 5170 N 464.123 0.554532 1.47522 0
M  V30 5171 C 465.371 0.0294208 2.02079 0
M  V30 5172 C 465.692 -1.32411 1.43151 0
M  V30 5173 O 464.962 -1.863 0.605728 0
M  V30 5174 H 463.542 0.00788672 0.746958 0
M  V30 5175 H 466.204 0.723934 1.80956 0
M  V30 5176 H 465.3 -0.0606745 3.12041 0
M  V30 5177 N 465.601 -1.54893 0.290851 0
M  V30 5178 C 466.826 -2.04804 -0.32712 0
M  V30 5179 C 467.251 -1.16721 -1.47506 0
M  V30 5180 O 466.609 -0.169107 -1.8051 0
M  V30 5181 C 466.657 -3.52268 -0.770689 0
M  V30 5182 O 465.761 -3.67236 -1.87647 0
M  V30 5183 H 465.102 -0.660789 -0.0652227 0
M  V30 5184 H 467.632 -2.00036 0.429739 0
M  V30 5185 H 467.642 -3.9393 -1.06223 0
M  V30 5186 H 466.317 -4.15843 0.069096 0
M  V30 5187 H 464.894 -3.37479 -1.58626 0
M  V30 5188 N 467.08 -0.0183926 -1.57589 0
M  V30 5189 C 468.028 0.985111 -2.10709 0
M  V30 5190 C 469.022 1.34397 -1.0312 0
M  V30 5191 O 470.228 1.32746 -1.21567 0
M  V30 5192 H 466.603 0.335418 -0.673052 0
M  V30 5193 H 468.574 0.511689 -2.9398 0
M  V30 5194 C 467.323 2.26202 -2.64061 0
M  V30 5195 H 466.646 1.9946 -3.4649 0
M  V30 5196 H 468.086 2.94652 -3.04887 0
M  V30 5197 C 466.545 2.98444 -1.5631 0
M  V30 5198 O 467.075 3.90142 -0.956674 0
M  V30 5199 N 465.281 2.6059 -1.28612 0
M  V30 5200 H 464.828 1.86101 -1.78112 0
M  V30 5201 H 464.786 3.09238 -0.567406 0
M  V30 5202 N 468.558 1.5553 0.254621 0
M  V30 5203 C 469.468 1.92789 1.33677 0
M  V30 5204 C 470.484 0.827356 1.53071 0
M  V30 5205 O 471.66 1.12807 1.66843 0
M  V30 5206 C 468.725 2.20827 2.67275 0
M  V30 5207 C 467.786 3.4427 2.5647 0
M  V30 5208 C 467.019 3.70961 3.83697 0
M  V30 5209 O 467.242 2.99852 4.85227 0
M  V30 5210 O 466.176 4.64491 3.82794 0
M  V30 5211 H 470.002 2.84945 1.05071 0
M  V30 5212 H 467.587 1.42312 0.454723 0
M  V30 5213 H 469.469 2.40204 3.46237 0
M  V30 5214 H 468.144 1.31851 2.9563 0
M  V30 5215 H 467.051 3.30209 1.75821 0
M  V30 5216 H 468.384 4.33524 2.33062 0
M  V30 5217 N 470.036 -0.519951 1.48776 0
M  V30 5218 C 471.282 -1.27711 1.57536 0
M  V30 5219 C 471.615 -1.92547 0.252866 0
M  V30 5220 O 470.89 -1.7979 -0.742021 0
M  V30 5221 C 471.173 -2.35875 2.72094 0
M  V30 5222 C 471.026 -1.75664 4.1408 0
M  V30 5223 C 472.345 -3.37575 2.82367 0
M  V30 5224 H 469.464 -0.462971 0.573434 0
M  V30 5225 H 472.106 -0.578194 1.80989 0
M  V30 5226 H 470.256 -2.95488 2.52228 0
M  V30 5227 H 471.928 -1.20025 4.45412 0
M  V30 5228 H 470.171 -1.06154 4.20611 0
M  V30 5229 H 470.842 -2.54029 4.90075 0
M  V30 5230 H 473.318 -2.87929 3.00393 0
M  V30 5231 H 472.194 -4.1064 3.64233 0
M  V30 5232 H 472.455 -3.98743 1.90936 0
M  V30 5233 N 471.514 -1.37532 -0.769588 0
M  V30 5234 C 472.791 -1.23392 -1.51768 0
M  V30 5235 C 473.171 0.17157 -2.10402 0
M  V30 5236 O 472.519 1.17943 -1.95708 0
M  V30 5237 C 472.729 -2.33163 -2.59685 0
M  V30 5238 C 474.077 -2.70809 -3.27028 0
M  V30 5239 O 475.101 -2.32355 -2.69981 0
M  V30 5240 O 473.96 -3.37066 -4.30173 0
M  V30 5241 H 471.054 -0.481617 -0.67229 0
M  V30 5242 H 473.6 -1.49318 -0.806368 0
M  V30 5243 H 472.372 -3.27273 -2.14494 0
M  V30 5244 H 471.995 -2.08713 -3.38415 0
M  V30 5245 N 472.992 0.995999 -1.22138 0
M  V30 5246 C 473.924 2.08745 -0.946485 0
M  V30 5247 C 474.937 1.62633 0.0737356 0
M  V30 5248 O 476.126 1.77782 -0.159886 0
M  V30 5249 C 473.226 3.36516 -0.401305 0
M  V30 5250 C 472.399 4.11672 -1.47801 0
M  V30 5251 C 471.458 5.17728 -0.940461 0
M  V30 5252 O 470.484 5.45482 -1.62596 0
M  V30 5253 N 471.686 5.80005 0.239723 0
M  V30 5254 H 474.451 2.32908 -1.88611 0
M  V30 5255 H 472.012 1.16152 -1.12785 0
M  V30 5256 H 474.004 4.04691 -0.0270837 0
M  V30 5257 H 472.574 3.0944 0.443354 0
M  V30 5258 H 471.794 3.38171 -2.02568 0
M  V30 5259 H 473.082 4.58657 -2.20253 0
M  V30 5260 H 472.48 5.5982 0.813518 0
M  V30 5261 H 471.037 6.4943 0.555361 0
M  V30 5262 N 474.47 1.03057 1.19235 0
M  V30 5263 C 475.403 0.557384 2.21288 0
M  V30 5264 C 476.381 -0.402675 1.57535 0
M  V30 5265 O 477.565 -0.319376 1.85775 0
M  V30 5266 C 474.692 -0.187041 3.38183 0
M  V30 5267 C 473.738 0.72471 4.20298 0
M  V30 5268 S 474.571 2.20187 4.88137 0
M  V30 5269 C 475.727 1.46801 6.08441 0
M  V30 5270 H 475.96 1.42207 2.61083 0
M  V30 5271 H 473.493 0.840651 1.29508 0
M  V30 5272 H 475.451 -0.610405 4.05936 0
M  V30 5273 H 474.112 -1.02748 2.96819 0
M  V30 5274 H 473.305 0.149911 5.03777 0
M  V30 5275 H 472.907 1.08647 3.57871 0
M  V30 5276 H 475.199 0.755522 6.73274 0
M  V30 5277 H 476.142 2.27946 6.70407 0
M  V30 5278 H 476.55 0.964762 5.56195 0
M  V30 5279 N 475.948 -1.35272 0.808662 0
M  V30 5280 C 476.896 -2.31663 0.208606 0
M  V30 5281 C 477.89 -1.56731 -0.642778 0
M  V30 5282 O 479.096 -1.71843 -0.53571 0
M  V30 5283 H 475.471 -0.750421 0.0486993 0
M  V30 5284 H 477.442 -2.79814 1.03666 0
M  V30 5285 C 476.191 -3.42008 -0.626573 0
M  V30 5286 H 475.514 -3.99795 0.0192103 0
M  V30 5287 H 476.954 -4.11727 -1.01278 0
M  V30 5288 C 475.413 -2.85226 -1.79298 0
M  V30 5289 O 475.943 -2.78945 -2.89055 0
M  V30 5290 N 474.149 -2.42245 -1.60516 0
M  V30 5291 H 473.696 -2.47554 -0.712375 0
M  V30 5292 H 473.654 -2.04603 -2.38715 0
M  V30 5293 N 477.426 -0.562348 -1.47226 0
M  V30 5294 C 478.842 -0.222492 -1.58042 0
M  V30 5295 C 479.042 1.27505 -1.56028 0
M  V30 5296 O 478.098 2.05555 -1.46641 0
M  V30 5297 C 479.411 -0.853694 -2.88327 0
M  V30 5298 C 480.959 -0.825397 -3.01921 0
M  V30 5299 C 481.434 -1.43576 -4.34914 0
M  V30 5300 N 482.925 -1.39918 -4.41562 0
M  V30 5301 C 483.66 -1.84103 -5.43041 0
M  V30 5302 N 483.156 -2.36167 -6.51304 0
M  V30 5303 N 484.949 -1.75142 -5.34118 0
M  V30 5304 H 477.1 -1.53525 -1.46778 0
M  V30 5305 H 479.363 -0.640527 -0.698877 0
M  V30 5306 H 479.069 -1.90635 -2.95552 0
M  V30 5307 H 478.943 -0.34977 -3.75575 0
M  V30 5308 H 481.33 0.218583 -2.94289 0
M  V30 5309 H 481.411 -1.36713 -2.16202 0
M  V30 5310 H 481.055 -2.47884 -4.43301 0
M  V30 5311 H 480.985 -0.869427 -5.19373 0
M  V30 5312 H 483.476 -1.0184 -3.63919 0
M  V30 5313 H 483.789 -2.67793 -7.24919 0
M  V30 5314 H 482.134 -2.40181 -6.52179 0
M  V30 5315 H 485.325 -1.34241 -4.48439 0
M  V30 5316 H 485.498 -2.09895 -6.13065 0
M  V30 5317 N 478.904 1.54736 -0.299062 0
M  V30 5318 C 480.153 1.99279 0.311549 0
M  V30 5319 C 480.466 1.19107 1.55154 0
M  V30 5320 O 481.672 1.53908 2.23662 0
M  V30 5321 C 480.128 3.54768 0.605632 0
M  V30 5322 C 479.736 4.43746 -0.615914 0
M  V30 5323 C 481.48 4.07841 1.17754 0
M  V30 5324 C 479.387 5.90663 -0.29509 0
M  V30 5325 H 478.317 0.744359 0.120187 0
M  V30 5326 H 480.968 1.78919 -0.407464 0
M  V30 5327 H 479.35 3.71021 1.38419 0
M  V30 5328 H 480.524 4.39267 -1.39218 0
M  V30 5329 H 478.839 4.01434 -1.10633 0
M  V30 5330 H 481.436 5.15174 1.43179 0
M  V30 5331 H 481.779 3.58324 2.11918 0
M  V30 5332 H 482.312 3.95123 0.460739 0
M  V30 5333 H 479.051 6.44325 -1.20524 0
M  V30 5334 H 478.571 5.98155 0.44394 0
M  V30 5335 H 480.25 6.46916 0.104048 0
M  V30 5336 N 480.382 0.0267497 1.57577 0
M  V30 5337 C 481.628 -0.653371 1.91987 0
M  V30 5338 C 481.961 -1.71915 0.903263 0
M  V30 5339 O 481.236 -1.94358 -0.0743387 0
M  V30 5340 C 481.519 -1.272 3.36886 0
M  V30 5341 C 481.372 -0.215938 4.49281 0
M  V30 5342 C 482.691 -2.19069 3.81703 0
M  V30 5343 H 479.81 -0.236047 0.698177 0
M  V30 5344 H 482.452 0.0835236 1.89816 0
M  V30 5345 H 480.602 -1.90005 3.38866 0
M  V30 5346 H 482.274 0.41449 4.59434 0
M  V30 5347 H 480.517 0.458855 4.31366 0
M  V30 5348 H 481.188 -0.688347 5.47691 0
M  V30 5349 H 483.664 -1.66253 3.81444 0
M  V30 5350 H 482.54 -2.59307 4.83788 0
M  V30 5351 H 482.801 -3.08087 3.17072 0
M  V30 5352 N 481.861 -1.55662 -0.24637 0
M  V30 5353 C 482.771 -1.93495 -1.32653 0
M  V30 5354 C 483.787 -0.835462 -1.5263 0
M  V30 5355 O 484.963 -1.1369 -1.66242 0
M  V30 5356 C 482.028 -2.22242 -2.66101 0
M  V30 5357 C 481.089 -3.45625 -2.54641 0
M  V30 5358 C 480.322 -3.72991 -3.81724 0
M  V30 5359 O 480.545 -3.02421 -4.8363 0
M  V30 5360 O 479.479 -4.66515 -3.80325 0
M  V30 5361 H 483.305 -2.85498 -1.03559 0
M  V30 5362 H 480.89 -1.42551 -0.44717 0
M  V30 5363 H 482.772 -2.42037 -3.44958 0
M  V30 5364 H 481.447 -1.33417 -2.94926 0
M  V30 5365 H 480.354 -3.31136 -1.74067 0
M  V30 5366 H 481.687 -4.34754 -2.3076 0
M  V30 5367 N 483.339 0.512053 -1.4905 0
M  V30 5368 C 484.585 1.26874 -1.58212 0
M  V30 5369 C 484.918 1.9241 -0.263073 0
M  V30 5370 O 484.193 1.80181 0.732476 0
M  V30 5371 C 484.476 2.34428 -2.73341 0
M  V30 5372 C 484.329 1.73466 -4.15006 0
M  V30 5373 C 485.648 3.36073 -2.84154 0
M  V30 5374 H 482.767 0.459924 -0.575881 0
M  V30 5375 H 485.409 0.568587 -1.81293 0
M  V30 5376 H 483.559 2.94146 -2.53792 0
M  V30 5377 H 485.231 1.17661 -4.46042 0
M  V30 5378 H 483.474 1.03921 -4.21168 0
M  V30 5379 H 484.145 2.51426 -4.91415 0
M  V30 5380 H 486.621 2.86332 -3.01916 0
M  V30 5381 H 485.497 4.08703 -3.66406 0
M  V30 5382 H 485.758 3.97725 -1.93048 0
M  V30 5383 N 484.817 1.37938 0.762283 0
M  V30 5384 C 485.747 1.37176 1.88958 0
M  V30 5385 C 486.728 0.238945 1.68413 0
M  V30 5386 O 487.913 0.440726 1.89133 0
M  V30 5387 C 485.043 1.18742 3.2637 0
M  V30 5388 C 483.997 2.29136 3.61498 0
M  V30 5389 C 483.323 1.95816 4.97554 0
M  V30 5390 C 484.623 3.71363 3.6727 0
M  V30 5391 H 486.317 2.31509 1.89853 0
M  V30 5392 H 483.863 1.11438 0.912005 0
M  V30 5393 H 485.816 1.16837 4.04879 0
M  V30 5394 H 484.54 0.208683 3.25933 0
M  V30 5395 H 483.199 2.30213 2.85303 0
M  V30 5396 H 482.847 0.964475 4.93667 0
M  V30 5397 H 482.547 2.69745 5.22026 0
M  V30 5398 H 484.071 1.95513 5.78452 0
M  V30 5399 H 485.485 3.72364 4.35911 0
M  V30 5400 H 483.882 4.44425 4.03245 0
M  V30 5401 H 484.952 4.04305 2.67704 0
M  V30 5402 N 486.295 -0.989507 1.22664 0
M  V30 5403 C 487.543 -1.72612 1.05117 0
M  V30 5404 C 487.864 -1.90552 -0.414131 0
M  V30 5405 O 487.134 -1.4676 -1.29762 0
M  V30 5406 H 485.714 -0.639555 0.385977 0
M  V30 5407 H 488.376 -1.19158 1.54232 0
M  V30 5408 H 487.472 -2.71926 1.53175 0
M  V30 5409 N 487.773 -1.03688 -1.18687 0
M  V30 5410 C 489.022 -0.733235 -1.879 0
M  V30 5411 C 489.335 0.741745 -1.8099 0
M  V30 5412 O 490.541 1.15875 -2.4553 0
M  V30 5413 C 488.997 -1.26127 -3.37076 0
M  V30 5414 C 488.605 -2.76461 -3.52524 0
M  V30 5415 C 490.349 -1.03398 -4.11715 0
M  V30 5416 C 488.256 -3.22642 -4.95637 0
M  V30 5417 H 487.186 -0.270584 -0.703776 0
M  V30 5418 H 489.837 -1.25222 -1.34133 0
M  V30 5419 H 488.219 -0.670165 -3.90288 0
M  V30 5420 H 489.393 -3.41296 -3.09602 0
M  V30 5421 H 487.708 -2.97559 -2.91286 0
M  V30 5422 H 490.305 -1.3542 -5.17267 0
M  V30 5423 H 490.648 0.0289246 -4.1629 0
M  V30 5424 H 491.181 -1.5895 -3.64664 0
M  V30 5425 H 487.92 -4.28296 -4.96228 0
M  V30 5426 H 487.44 -2.62539 -5.39289 0
M  V30 5427 H 489.119 -3.16444 -5.64333 0
M  V30 5428 N 489.251 1.34841 -0.815825 0
M  V30 5429 C 490.662 1.80937 -0.46029 0
M  V30 5430 C 491.013 1.67685 1.01863 0
M  V30 5431 O 490.138 1.21277 1.79223 0
M  V30 5432 C 490.733 3.28509 -0.828708 0
M  V30 5433 C 489.292 3.72712 -0.525644 0
M  V30 5434 C 488.439 2.56676 -1.04941 0
M  V30 5435 H 491.39 1.22688 -1.00664 0
M  V30 5436 H 491.411 3.80279 -0.129757 0
M  V30 5437 H 490.923 3.38122 -1.90513 0
M  V30 5438 H 489.024 3.68642 0.541666 0
M  V30 5439 H 489.137 4.67119 -1.06474 0
M  V30 5440 H 487.501 2.50302 -0.471286 0
M  V30 5441 H 488.284 2.69063 -2.13214 0
M  V30 5442 N 490.729 0.570148 1.46925 0
M  V30 5443 C 492.14 0.1402 1.86173 0
M  V30 5444 C 492.491 -1.29347 1.47526 0
M  V30 5445 O 491.616 -1.97508 0.884292 0
M  V30 5446 C 492.211 0.247661 3.37894 0
M  V30 5447 C 490.77 -0.127332 3.76185 0
M  V30 5448 C 489.917 0.589349 2.70965 0
M  V30 5449 H 492.868 0.779117 1.38259 0
M  V30 5450 H 492.889 -0.530341 3.76786 0
M  V30 5451 H 492.401 1.29121 3.65991 0
M  V30 5452 H 490.502 -1.17149 3.53704 0
M  V30 5453 H 490.615 0.240238 4.78497 0
M  V30 5454 H 488.979 0.0309824 2.54681 0
M  V30 5455 H 489.762 1.6343 3.01903 0
M  V30 5456 N 492.207 -1.54576 0.307264 0
M  V30 5457 C 493.17 -2.22423 -0.553224 0
M  V30 5458 C 494.17 -1.21231 -1.05639 0
M  V30 5459 O 495.36 -1.45923 -0.951419 0
M  V30 5460 C 492.492 -2.91552 -1.76664 0
M  V30 5461 H 493.685 -2.99874 0.0396484 0
M  V30 5462 H 491.238 -1.56192 0.0581629 0
M  V30 5463 H 491.973 -2.18196 -2.39918 0
M  V30 5464 H 491.758 -3.65738 -1.41343 0
M  V30 5465 H 493.248 -3.43292 -2.37783 0
M  V30 5466 N 493.685 -0.035106 -1.57561 0
M  V30 5467 C 494.648 0.929819 -2.09492 0
M  V30 5468 C 495.648 1.25026 -1.01119 0
M  V30 5469 O 496.838 1.18961 -1.27255 0
M  V30 5470 C 493.97 2.24457 -2.56577 0
M  V30 5471 H 495.163 0.479935 -2.96035 0
M  V30 5472 H 492.716 0.213033 -1.54841 0
M  V30 5473 H 493.451 2.74061 -1.73382 0
M  V30 5474 H 493.236 2.02508 -3.35757 0
M  V30 5475 H 494.726 2.93607 -2.96959 0
M  V30 5476 N 495.163 1.55791 0.238111 0
M  V30 5477 C 496.096 1.86036 1.32158 0
M  V30 5478 C 497.074 0.716216 1.45976 0
M  V30 5479 O 498.258 0.962882 1.62052 0
M  V30 5480 C 495.385 2.05281 2.69402 0
M  V30 5481 C 494.431 3.27939 2.72687 0
M  V30 5482 S 495.264 4.84342 2.28413 0
M  V30 5483 C 496.42 5.06604 3.67565 0
M  V30 5484 H 496.653 2.77644 1.06306 0
M  V30 5485 H 494.186 1.48012 0.439537 0
M  V30 5486 H 496.144 2.17053 3.48423 0
M  V30 5487 H 494.805 1.14499 2.92487 0
M  V30 5488 H 493.998 3.38398 3.73501 0
M  V30 5489 H 493.6 3.14938 2.01717 0
M  V30 5490 H 495.892 4.94486 4.6313 0
M  V30 5491 H 496.835 6.08554 3.62033 0
M  V30 5492 H 497.243 4.34409 3.60485 0
M  V30 5493 N 496.642 -0.504142 1.49319 0
M  V30 5494 C 497.572 -1.61473 1.68667 0
M  V30 5495 C 498.553 -1.61455 0.535378 0
M  V30 5496 O 499.738 -1.78245 0.770868 0
M  V30 5497 C 496.868 -2.99971 1.75028 0
M  V30 5498 C 495.822 -3.14854 2.89916 0
M  V30 5499 C 495.148 -4.54671 2.81387 0
M  V30 5500 C 496.448 -2.95176 4.30893 0
M  V30 5501 H 498.142 -1.45535 2.61648 0
M  V30 5502 H 495.688 -0.698711 1.25913 0
M  V30 5503 H 497.641 -3.77562 1.8715 0
M  V30 5504 H 496.365 -3.1699 0.786441 0
M  V30 5505 H 495.024 -2.39687 2.77391 0
M  V30 5506 H 494.672 -4.68562 1.82917 0
M  V30 5507 H 494.372 -4.6557 3.58494 0
M  V30 5508 H 495.896 -5.34327 2.95512 0
M  V30 5509 H 497.31 -3.62538 4.44116 0
M  V30 5510 H 495.707 -3.17549 5.09198 0
M  V30 5511 H 496.777 -1.91332 4.45556 0
M  V30 5512 N 498.12 -1.38341 -0.754957 0
M  V30 5513 C 499.397 -1.24995 -1.50451 0
M  V30 5514 C 499.777 0.149244 -2.10572 0
M  V30 5515 O 499.125 1.15861 -1.96948 0
M  V30 5516 C 499.335 -2.35904 -2.57197 0
M  V30 5517 C 500.683 -2.74262 -3.24138 0
M  V30 5518 O 501.707 -2.35205 -2.67501 0
M  V30 5519 O 500.566 -3.4161 -4.26574 0
M  V30 5520 H 497.66 -0.48872 -0.667144 0
M  V30 5521 H 500.206 -1.50165 -0.790486 0
M  V30 5522 H 498.978 -3.2953 -2.11011 0
M  V30 5523 H 498.601 -2.12291 -3.36182 0
M  V30 5524 N 499.598 0.982988 -1.23187 0
M  V30 5525 C 500.53 2.07729 -0.968572 0
M  V30 5526 C 501.543 1.62702 0.0564821 0
M  V30 5527 O 502.732 1.77603 -0.178733 0
M  V30 5528 C 499.832 3.36071 -0.436974 0
M  V30 5529 C 499.005 4.10081 -1.52159 0
M  V30 5530 C 498.064 5.16701 -0.99532 0
M  V30 5531 O 497.09 5.43727 -1.68373 0
M  V30 5532 N 498.292 5.80226 0.178192 0
M  V30 5533 H 501.057 2.30894 -1.9107 0
M  V30 5534 H 498.618 1.14949 -1.1401 0
M  V30 5535 H 500.61 4.04639 -0.0700051 0
M  V30 5536 H 499.18 3.09893 0.410509 0
M  V30 5537 H 498.4 3.36004 -2.06144 0
M  V30 5538 H 499.688 4.56295 -2.25105 0
M  V30 5539 H 499.086 5.60651 0.754096 0
M  V30 5540 H 497.643 6.49982 0.486449 0
M  V30 5541 N 501.076 1.04316 1.18135 0
M  V30 5542 C 502.039 0.640794 2.2006 0
M  V30 5543 C 503.039 -0.303124 1.57917 0
M  V30 5544 O 504.229 -0.0881855 1.73977 0
M  V30 5545 C 501.361 -0.060148 3.40847 0
M  V30 5546 H 502.554 1.54281 2.57172 0
M  V30 5547 H 500.107 0.836004 1.32063 0
M  V30 5548 H 500.842 -0.975845 3.0927 0
M  V30 5549 H 500.627 0.618319 3.87194 0
M  V30 5550 H 502.117 -0.328082 4.16309 0
M  V30 5551 N 502.554 -1.34406 0.822964 0
M  V30 5552 C 503.965 -1.8069 0.469879 0
M  V30 5553 C 504.316 -1.68223 -1.00972 0
M  V30 5554 O 503.441 -1.22226 -1.78577 0
M  V30 5555 C 504.036 -3.28064 0.846118 0
M  V30 5556 C 502.595 -3.72428 0.545402 0
M  V30 5557 C 501.742 -2.56116 1.06301 0
M  V30 5558 H 504.693 -1.22153 1.01313 0
M  V30 5559 H 504.714 -3.80205 0.149922 0
M  V30 5560 H 504.226 -3.37107 1.92304 0
M  V30 5561 H 502.327 -3.68924 -0.522109 0
M  V30 5562 H 502.44 -4.66548 1.0895 0
M  V30 5563 H 500.804 -2.50048 0.484554 0
M  V30 5564 H 501.587 -2.67928 2.14638 0
M  V30 5565 N 504.032 -0.577932 -1.46621 0
M  V30 5566 C 504.979 0.158048 -2.30258 0
M  V30 5567 C 505.949 0.888669 -1.40328 0
M  V30 5568 O 507.134 0.880283 -1.6928 0
M  V30 5569 C 504.274 1.16884 -3.24703 0
M  V30 5570 C 503.387 0.442163 -4.29731 0
M  V30 5571 C 502.522 1.44007 -5.11308 0
M  V30 5572 C 501.561 0.69952 -6.0809 0
M  V30 5573 N 500.698 1.64525 -6.82551 0
M  V30 5574 H 505.538 -0.561242 -2.92667 0
M  V30 5575 H 503.075 -0.288591 -1.44241 0
M  V30 5576 H 505.033 1.7677 -3.779 0
M  V30 5577 H 503.663 1.85591 -2.64113 0
M  V30 5578 H 502.715 -0.271632 -3.79429 0
M  V30 5579 H 504.027 -0.136992 -4.98612 0
M  V30 5580 H 503.181 2.11186 -5.68758 0
M  V30 5581 H 501.92 2.05315 -4.42377 0
M  V30 5582 H 500.925 0.0139217 -5.49798 0
M  V30 5583 H 502.15 0.091894 -6.79038 0
M  V30 5584 H 500.096 2.24653 -6.16334 0
M  V30 5585 H 500.013 1.11878 -7.47676 0
M  V30 5586 H 501.281 2.30754 -7.44562 0
M  V30 5587 N 505.51 1.54411 -0.315457 0
M  V30 5588 C 506.473 2.22713 0.54142 0
M  V30 5589 C 507.473 1.2179 1.04995 0
M  V30 5590 O 508.663 1.46426 0.943667 0
M  V30 5591 C 505.795 2.92485 1.75116 0
M  V30 5592 H 506.988 2.99849 -0.0555508 0
M  V30 5593 H 504.541 1.56159 -0.0664453 0
M  V30 5594 H 505.276 2.19466 2.38758 0
M  V30 5595 H 505.061 3.66483 1.39401 0
M  V30 5596 H 506.551 3.44548 2.35959 0
M  V30 5597 N 506.988 0.0434614 1.5754 0
M  V30 5598 C 508.404 -0.313039 1.565 0
M  V30 5599 C 508.604 -1.71954 1.05043 0
M  V30 5600 O 507.66 -2.425 0.703564 0
M  V30 5601 C 508.973 -0.148544 3.00333 0
M  V30 5602 C 510.521 -0.220231 3.12224 0
M  V30 5603 C 510.996 -0.0843565 4.57922 0
M  V30 5604 N 512.487 -0.140881 4.62986 0
M  V30 5605 C 513.222 -0.0597443 5.73369 0
M  V30 5606 N 512.718 0.0733004 6.92761 0
M  V30 5607 N 514.511 -0.11477 5.61983 0
M  V30 5608 H 506.662 0.96303 1.89313 0
M  V30 5609 H 508.925 0.373164 0.871466 0
M  V30 5610 H 508.631 0.820894 3.41986 0
M  V30 5611 H 508.505 -0.912798 3.65989 0
M  V30 5612 H 510.892 -1.18014 2.70475 0
M  V30 5613 H 510.973 0.574646 2.49262 0
M  V30 5614 H 510.617 0.872192 5.00355 0
M  V30 5615 H 510.547 -0.898281 5.18882 0
M  V30 5616 H 513.038 -0.243273 3.77116 0
M  V30 5617 H 513.351 0.128128 7.72694 0
M  V30 5618 H 511.696 0.10828 6.94916 0
M  V30 5619 H 514.887 -0.217212 4.67596 0
M  V30 5620 H 515.06 -0.0480779 6.47982 0
M  V30 5621 N 508.466 -1.55915 -0.229846 0
M  V30 5622 C 509.413 -1.91734 -1.28478 0
M  V30 5623 C 510.383 -0.773539 -1.46988 0
M  V30 5624 O 511.568 -1.02871 -1.60693 0
M  V30 5625 C 508.708 -2.23224 -2.63182 0
M  V30 5626 C 507.821 -3.50497 -2.52539 0
M  V30 5627 C 506.956 -3.71474 -3.79711 0
M  V30 5628 C 505.995 -4.92289 -3.63755 0
M  V30 5629 N 505.132 -5.09698 -4.82858 0
M  V30 5630 H 509.972 -2.81692 -0.972308 0
M  V30 5631 H 507.509 -1.39429 -0.468815 0
M  V30 5632 H 509.467 -2.3949 -3.41614 0
M  V30 5633 H 508.097 -1.36451 -2.92542 0
M  V30 5634 H 507.149 -3.4247 -1.65585 0
M  V30 5635 H 508.461 -4.39079 -2.36666 0
M  V30 5636 H 507.615 -3.87791 -4.66586 0
M  V30 5637 H 506.354 -2.81157 -3.985 0
M  V30 5638 H 505.359 -4.7593 -2.75264 0
M  V30 5639 H 506.584 -5.84083 -3.46445 0
M  V30 5640 H 504.53 -4.22322 -5.01976 0
M  V30 5641 H 504.447 -5.92399 -4.69681 0
M  V30 5642 H 505.715 -5.30443 -5.71183 0
M  V30 5643 N 509.944 0.496216 -1.49584 0
M  V30 5644 C 511.174 1.27209 -1.62793 0
M  V30 5645 C 511.582 1.86799 -0.300476 0
M  V30 5646 O 510.925 1.68802 0.724674 0
M  V30 5647 C 510.987 2.43812 -2.64189 0
M  V30 5648 C 510.651 2.05055 -4.08414 0
M  V30 5649 C 511.648 1.58752 -4.9507 0
M  V30 5650 C 509.333 2.14543 -4.54177 0
M  V30 5651 C 511.327 1.22448 -6.25528 0
M  V30 5652 C 509.014 1.77851 -5.84647 0
M  V30 5653 C 510.012 1.31878 -6.70147 0
M  V30 5654 O 509.7 0.956834 -7.98185 0
M  V30 5655 H 509.432 0.391848 -0.550846 0
M  V30 5656 H 511.986 0.601712 -1.96389 0
M  V30 5657 H 510.216 3.13941 -2.25783 0
M  V30 5658 H 511.905 3.05829 -2.66877 0
M  V30 5659 H 512.671 1.50863 -4.60939 0
M  V30 5660 H 508.55 2.49277 -3.87791 0
M  V30 5661 H 512.094 0.864933 -6.92217 0
M  V30 5662 H 507.991 1.8539 -6.18305 0
M  V30 5663 H 508.759 1.08789 -8.11238 0
M  V30 5664 N 511.423 1.38739 0.74761 0
M  V30 5665 C 512.67 1.35274 1.50689 0
M  V30 5666 C 512.998 -0.0553359 1.94421 0
M  V30 5667 O 512.253 -1.03365 1.66175 0
M  V30 5668 C 512.552 2.25992 2.7688 0
M  V30 5669 C 512.218 3.73854 2.5208 0
M  V30 5670 C 510.88 4.14145 2.45025 0
M  V30 5671 C 513.232 4.67427 2.30568 0
M  V30 5672 C 510.56 5.4609 2.14483 0
M  V30 5673 C 512.912 5.99635 2.01545 0
M  V30 5674 C 511.576 6.39004 1.92951 0
M  V30 5675 H 510.846 0.495003 0.55141 0
M  V30 5676 H 513.493 1.71145 0.859158 0
M  V30 5677 H 511.798 1.83196 3.46333 0
M  V30 5678 H 513.495 2.20611 3.34861 0
M  V30 5679 H 510.085 3.41913 2.58444 0
M  V30 5680 H 514.269 4.3714 2.34994 0
M  V30 5681 H 509.525 5.75528 2.06342 0
M  V30 5682 H 513.699 6.71678 1.83906 0
M  V30 5683 H 511.326 7.41165 1.6905 0
M  V30 5684 N 512.901 -0.976442 1.23707 0
M  V30 5685 C 513.811 -2.10359 1.03856 0
M  V30 5686 C 514.827 -1.73991 -0.0180919 0
M  V30 5687 O 516.003 -2.0061 0.178211 0
M  V30 5688 C 513.068 -3.40809 0.636387 0
M  V30 5689 C 512.129 -3.91179 1.76854 0
M  V30 5690 C 511.362 -5.15404 1.38546 0
M  V30 5691 O 511.585 -5.69754 0.27142 0
M  V30 5692 O 510.519 -5.5994 2.20797 0
M  V30 5693 H 514.345 -2.29997 1.98331 0
M  V30 5694 H 511.93 -1.08742 1.02448 0
M  V30 5695 H 513.812 -4.19269 0.423223 0
M  V30 5696 H 512.487 -3.22493 -0.279322 0
M  V30 5697 H 511.394 -3.13819 2.03638 0
M  V30 5698 H 512.727 -4.13958 2.6627 0
M  V30 5699 N 514.379 -1.04941 -1.1758 0
M  V30 5700 C 515.795 -0.770282 -1.39781 0
M  V30 5701 C 515.995 0.636417 -1.91186 0
M  V30 5702 O 515.051 1.39923 -2.10185 0
M  V30 5703 C 516.364 -1.82376 -2.3908 0
M  V30 5704 C 517.912 -1.84569 -2.52791 0
M  V30 5705 C 518.387 -2.88933 -3.55361 0
M  V30 5706 N 519.878 -2.8788 -3.62877 0
M  V30 5707 C 520.613 -3.65282 -4.41992 0
M  V30 5708 N 520.109 -4.52461 -5.24643 0
M  V30 5709 N 521.902 -3.53732 -4.36841 0
M  V30 5710 H 514.053 -1.95705 -0.825438 0
M  V30 5711 H 516.316 -0.847284 -0.425222 0
M  V30 5712 H 516.022 -2.83323 -2.08376 0
M  V30 5713 H 515.896 -1.66327 -3.38549 0
M  V30 5714 H 518.283 -0.842879 -2.82807 0
M  V30 5715 H 518.364 -2.04696 -1.53406 0
M  V30 5716 H 518.008 -3.89398 -3.26085 0
M  V30 5717 H 517.938 -2.66059 -4.54445 0
M  V30 5718 H 520.429 -2.24666 -3.03864 0
M  V30 5719 H 520.742 -5.08211 -5.82187 0
M  V30 5720 H 519.087 -4.56524 -5.24033 0
M  V30 5721 H 522.278 -2.85021 -3.71323 0
M  V30 5722 H 522.451 -4.14302 -4.98255 0
M  V30 5723 N 515.857 1.33968 -0.830081 0
M  V30 5724 C 516.787 2.31911 -0.271911 0
M  V30 5725 C 517.768 1.58571 0.61556 0
M  V30 5726 O 518.953 1.86514 0.540946 0
M  V30 5727 C 516.083 3.42737 0.561146 0
M  V30 5728 C 515.037 4.27383 -0.229789 0
M  V30 5729 C 514.363 5.29742 0.726463 0
M  V30 5730 C 515.663 5.02 -1.44197 0
M  V30 5731 H 517.357 2.78844 -1.09025 0
M  V30 5732 H 514.903 1.34061 -0.52571 0
M  V30 5733 H 516.856 4.10276 0.961867 0
M  V30 5734 H 515.58 2.94471 1.41261 0
M  V30 5735 H 514.239 3.61456 -0.611964 0
M  V30 5736 H 513.887 4.77736 1.57408 0
M  V30 5737 H 513.587 5.87255 0.20142 0
M  V30 5738 H 515.111 6.00149 1.12489 0
M  V30 5739 H 516.525 5.62355 -1.11488 0
M  V30 5740 H 514.922 5.69122 -1.90317 0
M  V30 5741 H 515.992 4.31281 -2.2164 0
M  V30 5742 N 517.335 0.585699 1.46312 0
M  V30 5743 C 518.746 0.159938 1.86014 0
M  V30 5744 C 519.097 -1.27775 1.48889 0
M  V30 5745 O 518.222 -1.96559 0.90519 0
M  V30 5746 C 518.817 0.283485 3.37612 0
M  V30 5747 C 517.376 -0.0874256 3.76298 0
M  V30 5748 C 516.523 0.618055 2.70325 0
M  V30 5749 H 519.474 0.793737 1.37425 0
M  V30 5750 H 519.495 -0.490348 3.77327 0
M  V30 5751 H 519.007 1.32995 3.64601 0
M  V30 5752 H 517.108 -1.13391 3.54927 0
M  V30 5753 H 517.221 0.290975 4.78216 0
M  V30 5754 H 515.585 0.057993 2.54634 0
M  V30 5755 H 516.368 1.66623 3.00153 0
M  V30 5756 N 518.813 -1.54241 0.323641 0
M  V30 5757 C 520.061 -2.00174 -0.278359 0
M  V30 5758 C 520.382 -1.2134 -1.52648 0
M  V30 5759 O 519.652 -0.315244 -1.93347 0
M  V30 5760 H 518.232 -0.739463 -0.105845 0
M  V30 5761 H 520.894 -1.89864 0.440204 0
M  V30 5762 H 519.99 -3.07486 -0.5347 0
M  V30 5763 N 520.291 -0.0518155 -1.57515 0
M  V30 5764 C 521.539 0.620595 -1.92336 0
M  V30 5765 C 521.86 1.71345 -0.930907 0
M  V30 5766 O 521.13 1.95885 0.0241341 0
M  V30 5767 H 519.71 0.232226 -0.709986 0
M  V30 5768 H 522.372 -0.104969 -1.94617 0
M  V30 5769 H 521.468 1.05879 -2.93592 0
M  V30 5770 N 521.769 1.56035 0.221574 0
M  V30 5771 C 523.017 1.78693 0.944102 0
M  V30 5772 C 523.338 0.620317 1.8487 0
M  V30 5773 O 522.608 -0.362784 1.92512 0
M  V30 5774 H 521.188 0.659082 0.351597 0
M  V30 5775 H 523.85 1.93497 0.233435 0
M  V30 5776 H 522.946 2.70837 1.55093 0
M  V30 5777 N 523.247 -0.488276 1.49845 0
M  V30 5778 C 524.493 -1.24065 1.61182 0
M  V30 5779 C 524.848 -1.9004 0.300435 0
M  V30 5780 O 524.141 -1.78341 -0.700365 0
M  V30 5781 C 524.335 -2.32152 2.71735 0
M  V30 5782 C 524.164 -1.76778 4.13497 0
M  V30 5783 C 522.934 -1.57513 4.80123 0
M  V30 5784 C 525.132 -1.27242 4.98311 0
M  V30 5785 N 523.114 -0.972015 6.06156 0
M  V30 5786 C 524.485 -0.791457 6.14928 0
M  V30 5787 C 526.54 -1.15934 4.84214 0
M  V30 5788 C 525.243 -0.208593 7.18997 0
M  V30 5789 C 527.269 -0.590436 5.88445 0
M  V30 5790 C 526.631 -0.119767 7.04298 0
M  V30 5791 H 522.73 -0.443487 0.644083 0
M  V30 5792 H 525.314 -0.545551 1.86901 0
M  V30 5793 H 523.485 -2.99108 2.47768 0
M  V30 5794 H 525.217 -2.99187 2.72523 0
M  V30 5795 H 521.972 -1.82247 4.37131 0
M  V30 5796 H 522.396 -0.689367 6.73481 0
M  V30 5797 H 527.038 -1.5092 3.94947 0
M  V30 5798 H 524.756 0.153501 8.07954 0
M  V30 5799 H 528.342 -0.505548 5.79599 0
M  V30 5800 H 527.222 0.313568 7.83573 0
M  V30 5801 N 524.725 -1.39134 -0.740242 0
M  V30 5802 C 525.953 -1.39334 -1.5295 0
M  V30 5803 C 526.368 0.0135008 -1.88795 0
M  V30 5804 O 525.725 0.983524 -1.5373 0
M  V30 5805 C 525.776 -2.2614 -2.82034 0
M  V30 5806 O 525.497 -3.61345 -2.47712 0
M  V30 5807 C 526.998 -2.34666 -3.76094 0
M  V30 5808 H 524.218 -0.476103 -0.472828 0
M  V30 5809 H 526.762 -1.82883 -0.9151 0
M  V30 5810 H 524.917 -1.86018 -3.39818 0
M  V30 5811 H 525.331 -4.07194 -3.30595 0
M  V30 5812 H 526.805 -2.99663 -4.63579 0
M  V30 5813 H 527.282 -1.36426 -4.17474 0
M  V30 5814 H 527.888 -2.75236 -3.2423 0
M  V30 5815 N 526.204 0.969867 -1.24223 0
M  V30 5816 C 527.134 2.08191 -1.05729 0
M  V30 5817 C 528.115 1.70075 0.0290765 0
M  V30 5818 O 529.3 1.93712 -0.137583 0
M  V30 5819 C 526.43 3.40991 -0.658995 0
M  V30 5820 C 525.384 3.93054 -1.69389 0
M  V30 5821 C 524.71 5.22171 -1.15072 0
M  V30 5822 C 526.01 4.21137 -3.08935 0
M  V30 5823 H 527.704 2.23921 -1.98746 0
M  V30 5824 H 525.25 1.07602 -0.956967 0
M  V30 5825 H 527.203 4.18221 -0.51662 0
M  V30 5826 H 525.927 3.25155 0.30686 0
M  V30 5827 H 524.586 3.17977 -1.82444 0
M  V30 5828 H 524.234 5.02694 -0.175539 0
M  V30 5829 H 523.934 5.57973 -1.84229 0
M  V30 5830 H 525.458 6.02013 -1.02042 0
M  V30 5831 H 526.872 4.8908 -2.99121 0
M  V30 5832 H 525.269 4.68163 -3.75425 0
M  V30 5833 H 526.339 3.27996 -3.57137 0
M  V30 5834 N 527.682 1.05563 1.17022 0
M  V30 5835 C 529.098 0.777684 1.39371 0
M  V30 5836 C 529.298 -0.626269 1.91521 0
M  V30 5837 O 528.354 -1.38806 2.10924 0
M  V30 5838 C 529.667 1.83642 2.3811 0
M  V30 5839 C 531.215 1.85907 2.51809 0
M  V30 5840 C 531.69 2.90813 3.53824 0
M  V30 5841 N 533.181 2.898 3.61345 0
M  V30 5842 C 533.916 3.6762 4.40049 0
M  V30 5843 N 533.412 4.55237 5.22237 0
M  V30 5844 N 535.205 3.56044 4.34959 0
M  V30 5845 H 527.356 1.9614 0.815047 0
M  V30 5846 H 529.619 0.849527 0.420722 0
M  V30 5847 H 529.325 2.84425 2.06871 0
M  V30 5848 H 529.199 1.6812 3.37662 0
M  V30 5849 H 531.586 0.857865 2.82356 0
M  V30 5850 H 531.667 2.05506 1.52318 0
M  V30 5851 H 531.311 3.91122 3.24015 0
M  V30 5852 H 531.241 2.68465 4.53028 0
M  V30 5853 H 533.732 2.26274 3.02669 0
M  V30 5854 H 534.045 5.11291 5.79484 0
M  V30 5855 H 532.39 4.59296 5.21605 0
M  V30 5856 H 535.581 2.86986 3.69806 0
M  V30 5857 H 535.754 4.16938 4.96051 0
M  V30 5858 N 529.16 -1.33526 0.837174 0
M  V30 5859 C 530.576 -1.50727 0.524743 0
M  V30 5860 C 530.776 -1.77792 -0.948279 0
M  V30 5861 O 529.832 -1.83719 -1.73216 0
M  V30 5862 C 531.145 -2.66299 1.39661 0
M  V30 5863 C 532.693 -2.80183 1.39521 0
M  V30 5864 C 533.168 -3.98815 2.25189 0
M  V30 5865 N 534.659 -4.06047 2.2289 0
M  V30 5866 C 535.394 -4.97032 2.85915 0
M  V30 5867 N 534.89 -5.93143 3.57985 0
M  V30 5868 N 536.683 -4.90015 2.75394 0
M  V30 5869 H 528.834 -1.1422 1.79074 0
M  V30 5870 H 531.097 -0.561399 0.763894 0
M  V30 5871 H 530.803 -2.52974 2.4433 0
M  V30 5872 H 530.677 -3.61663 1.07145 0
M  V30 5873 H 533.064 -2.92942 0.356253 0
M  V30 5874 H 533.145 -1.85586 1.76044 0
M  V30 5875 H 532.789 -3.86817 3.29143 0
M  V30 5876 H 532.719 -4.92654 1.86009 0
M  V30 5877 H 535.21 -3.37262 1.70478 0
M  V30 5878 H 535.523 -6.59227 4.03286 0
M  V30 5879 H 533.868 -5.93223 3.62093 0
M  V30 5880 H 537.059 -4.13894 2.18654 0
M  V30 5881 H 537.232 -5.60724 3.24796 0
M  V30 5882 N 530.638 -0.59345 -1.46 0
M  V30 5883 C 531.866 -0.0890934 -2.06708 0
M  V30 5884 C 532.281 1.2205 -1.44046 0
M  V30 5885 O 531.638 1.74029 -0.549551 0
M  V30 5886 C 531.689 0.0720263 -3.61428 0
M  V30 5887 O 531.41 -1.18574 -4.21748 0
M  V30 5888 C 532.911 0.609487 -4.3909 0
M  V30 5889 H 530.131 -0.0623628 -0.668096 0
M  V30 5890 H 532.675 -0.817171 -1.87464 0
M  V30 5891 H 530.83 0.750369 -3.80063 0
M  V30 5892 H 531.244 -1.0064 -5.14754 0
M  V30 5893 H 532.718 0.671363 -5.47902 0
M  V30 5894 H 533.195 1.62878 -4.07882 0
M  V30 5895 H 533.801 -0.03434 -4.25286 0
M  V30 5896 N 532.116 1.54067 -0.331816 0
M  V30 5897 C 533.063 2.24623 0.530372 0
M  V30 5898 C 534.033 1.24009 1.10503 0
M  V30 5899 O 535.218 1.52712 1.14384 0
M  V30 5900 C 532.358 3.01374 1.68129 0
M  V30 5901 C 531.471 4.16821 1.13507 0
M  V30 5902 C 530.606 4.81085 2.25234 0
M  V30 5903 C 529.645 5.88621 1.67903 0
M  V30 5904 N 528.782 6.46713 2.73326 0
M  V30 5905 H 533.622 2.97898 -0.0778607 0
M  V30 5906 H 531.159 1.47014 -0.0501965 0
M  V30 5907 H 533.117 3.44125 2.35868 0
M  V30 5908 H 531.747 2.30419 2.26069 0
M  V30 5909 H 530.799 3.78796 0.348979 0
M  V30 5910 H 532.111 4.94203 0.675633 0
M  V30 5911 H 531.265 5.26846 3.00862 0
M  V30 5912 H 530.004 4.03102 2.74518 0
M  V30 5913 H 529.009 5.42254 0.907773 0
M  V30 5914 H 530.234 6.68506 1.19487 0
M  V30 5915 H 528.18 5.71599 3.21886 0
M  V30 5916 H 528.097 7.19532 2.3197 0
M  V30 5917 H 529.365 6.97129 3.48758 0
M  V30 5918 N 533.594 0.0601682 1.57485 0
M  V30 5919 C 534.504 -0.926121 2.15546 0
M  V30 5920 C 535.52 -1.33532 1.11558 0
M  V30 5921 O 536.696 -1.4104 1.4377 0
M  V30 5922 C 533.761 -2.17952 2.69625 0
M  V30 5923 C 532.822 -1.82783 3.88444 0
M  V30 5924 C 532.055 -3.02148 4.39935 0
M  V30 5925 O 532.278 -4.15803 3.90466 0
M  V30 5926 O 531.212 -2.82639 5.31412 0
M  V30 5927 H 535.038 -0.462289 3.00161 0
M  V30 5928 H 532.623 -0.162246 1.48516 0
M  V30 5929 H 534.505 -2.91474 3.04337 0
M  V30 5930 H 533.18 -2.63456 1.88077 0
M  V30 5931 H 532.087 -1.06549 3.58606 0
M  V30 5932 H 533.42 -1.42072 4.7125 0
M  V30 5933 N 535.072 -1.5615 -0.213296 0
M  V30 5934 C 536.002 -1.96109 -1.26742 0
M  V30 5935 C 536.983 -0.830448 -1.48451 0
M  V30 5936 O 538.168 -1.09339 -1.60495 0
M  V30 5937 C 535.298 -2.28492 -2.61551 0
M  V30 5938 C 534.252 -3.44124 -2.54485 0
M  V30 5939 C 533.578 -3.62134 -3.93399 0
M  V30 5940 C 534.878 -4.78855 -2.08556 0
M  V30 5941 H 536.572 -2.84412 -0.935434 0
M  V30 5942 H 534.118 -1.36836 -0.44854 0
M  V30 5943 H 536.071 -2.55039 -3.3546 0
M  V30 5944 H 534.795 -1.37052 -2.96453 0
M  V30 5945 H 533.454 -3.17639 -1.83033 0
M  V30 5946 H 533.102 -2.68055 -4.25623 0
M  V30 5947 H 532.802 -4.39913 -3.89551 0
M  V30 5948 H 534.326 -3.91038 -4.68958 0
M  V30 5949 H 535.74 -5.04552 -2.72213 0
M  V30 5950 H 534.137 -5.59975 -2.1575 0
M  V30 5951 H 535.207 -4.73657 -1.03811 0
M  V30 5952 N 536.55 0.480323 -1.50102 0
M  V30 5953 C 537.966 0.813295 -1.37323 0
M  V30 5954 C 538.166 1.97027 -0.422206 0
M  V30 5955 O 537.222 2.5212 0.138563 0
M  V30 5956 C 538.535 1.13404 -2.78496 0
M  V30 5957 C 540.083 1.24104 -2.87345 0
M  V30 5958 C 540.558 1.59497 -4.29331 0
M  V30 5959 N 542.049 1.66507 -4.32238 0
M  V30 5960 C 542.784 1.95378 -5.39087 0
M  V30 5961 N 542.28 2.22333 -6.56155 0
M  V30 5962 N 544.073 1.96803 -5.26522 0
M  V30 5963 H 536.224 -0.282291 -2.10516 0
M  V30 5964 H 538.487 -0.063752 -0.945854 0
M  V30 5965 H 538.193 0.357064 -3.49883 0
M  V30 5966 H 538.067 2.07251 -3.15162 0
M  V30 5967 H 540.454 2.00871 -2.16183 0
M  V30 5968 H 540.535 0.282593 -2.54234 0
M  V30 5969 H 540.179 0.832736 -5.01027 0
M  V30 5970 H 540.109 2.56477 -4.59921 0
M  V30 5971 H 542.6 1.47753 -3.47818 0
M  V30 5972 H 542.913 2.43611 -7.33399 0
M  V30 5973 H 541.258 2.19745 -6.59346 0
M  V30 5974 H 544.449 1.75235 -4.34062 0
M  V30 5975 H 544.622 2.18969 -6.09883 0
M  V30 5976 N 538.028 1.39524 0.732853 0
M  V30 5977 C 538.975 1.38416 1.84688 0
M  V30 5978 C 539.945 0.243539 1.64305 0
M  V30 5979 O 541.13 0.438979 1.85681 0
M  V30 5980 C 538.27 1.23555 3.22224 0
M  V30 5981 C 537.383 2.47179 3.54298 0
M  V30 5982 C 536.518 2.2489 4.81246 0
M  V30 5983 C 535.557 3.44178 5.0617 0
M  V30 5984 N 534.694 3.21192 6.24323 0
M  V30 5985 H 539.534 2.33645 1.84971 0
M  V30 5986 H 537.071 1.16059 0.903804 0
M  V30 5987 H 539.029 1.12949 4.0162 0
M  V30 5988 H 537.659 0.31954 3.21215 0
M  V30 5989 H 536.711 2.68379 2.69587 0
M  V30 5990 H 538.023 3.36022 3.68633 0
M  V30 5991 H 537.177 2.11538 5.68627 0
M  V30 5992 H 535.916 1.33443 4.69089 0
M  V30 5993 H 534.921 3.58025 4.17251 0
M  V30 5994 H 536.146 4.36528 5.20212 0
M  V30 5995 H 534.092 2.32413 6.1345 0
M  V30 5996 H 534.009 4.03594 6.39256 0
M  V30 5997 H 535.277 3.1154 7.14537 0
M  V30 5998 N 539.506 -0.963266 1.24736 0
M  V30 5999 C 540.783 -1.68248 0.9976 0
M  V30 6000 C 541.163 -2.05599 -0.478776 0
M  V30 6001 O 540.511 -1.7626 -1.45412 0
M  V30 6002 C 540.721 -2.91118 1.92487 0
M  V30 6003 C 542.069 -3.63261 2.19833 0
M  V30 6004 O 543.093 -3.01184 1.90176 0
M  V30 6005 O 541.952 -4.75019 2.7022 0
M  V30 6006 H 539.046 -0.735744 0.377637 0
M  V30 6007 H 541.592 -1.01696 1.35853 0
M  V30 6008 H 540.364 -2.60242 2.92215 0
M  V30 6009 H 539.987 -3.65402 1.56738 0
M  V30 6010 N 540.985 -1.06182 -1.16461 0
M  V30 6011 C 542.215 -0.797425 -1.9059 0
M  V30 6012 C 542.623 0.651845 -1.77616 0
M  V30 6013 O 541.966 1.45788 -1.11766 0
M  V30 6014 C 542.028 -1.11128 -3.41893 0
M  V30 6015 C 541.692 -2.55874 -3.78652 0
M  V30 6016 C 542.689 -3.54104 -3.80665 0
M  V30 6017 C 540.374 -2.91144 -4.09317 0
M  V30 6018 C 542.368 -4.85645 -4.12829 0
M  V30 6019 C 540.055 -4.22885 -4.41148 0
M  V30 6020 C 541.053 -5.19945 -4.42883 0
M  V30 6021 O 540.741 -6.49322 -4.73959 0
M  V30 6022 H 540.473 -0.288709 -0.611247 0
M  V30 6023 H 543.027 -1.41841 -1.4856 0
M  V30 6024 H 541.257 -0.433217 -3.84266 0
M  V30 6025 H 542.946 -0.831306 -3.97296 0
M  V30 6026 H 543.712 -3.28197 -3.57088 0
M  V30 6027 H 539.591 -2.16252 -4.07131 0
M  V30 6028 H 543.135 -5.61398 -4.14099 0
M  V30 6029 H 539.032 -4.48551 -4.6419 0
M  V30 6030 H 539.8 -6.54294 -4.91774 0
M  V30 6031 N 542.463 1.3308 -0.844243 0
M  V30 6032 C 543.395 2.27954 -0.238671 0
M  V30 6033 C 544.408 1.51978 0.583665 0
M  V30 6034 O 545.597 1.73731 0.409857 0
M  V30 6035 C 542.697 3.31963 0.682185 0
M  V30 6036 C 541.87 4.37281 -0.101998 0
M  V30 6037 C 540.929 5.20928 0.743022 0
M  V30 6038 O 539.955 5.68914 0.180285 0
M  V30 6039 N 541.157 5.42738 2.0595 0
M  V30 6040 H 543.922 2.8056 -1.05386 0
M  V30 6041 H 541.483 1.4583 -0.70322 0
M  V30 6042 H 543.475 3.84828 1.25259 0
M  V30 6043 H 542.045 2.79594 1.39808 0
M  V30 6044 H 541.265 3.84843 -0.853802 0
M  V30 6045 H 542.553 5.04746 -0.641015 0
M  V30 6046 H 541.951 5.05463 2.54016 0
M  V30 6047 H 540.508 5.98639 2.57827 0
M  V30 6048 N 543.941 0.601185 1.45683 0
M  V30 6049 C 545.189 0.0936957 2.01883 0
M  V30 6050 C 545.51 -1.2779 1.47291 0
M  V30 6051 O 544.78 -1.84279 0.664691 0
M  V30 6052 H 543.36 0.0316466 0.746329 0
M  V30 6053 H 546.022 0.781137 1.78562 0
M  V30 6054 H 545.118 0.0386297 3.12076 0
M  V30 6055 N 545.419 -1.53889 0.339982 0
M  V30 6056 C 546.83 -1.86139 -0.144671 0
M  V30 6057 C 547.181 -1.2613 -1.50285 0
M  V30 6058 O 546.306 -0.573515 -2.08662 0
M  V30 6059 C 546.901 -3.37728 -0.269285 0
M  V30 6060 C 545.46 -3.69868 -0.698168 0
M  V30 6061 C 544.607 -2.76777 0.170249 0
M  V30 6062 H 547.558 -1.48503 0.559704 0
M  V30 6063 H 547.579 -3.64331 -1.0974 0
M  V30 6064 H 547.091 -3.81375 0.719366 0
M  V30 6065 H 545.192 -3.31764 -1.69597 0
M  V30 6066 H 545.305 -4.76582 -0.490533 0
M  V30 6067 H 543.669 -2.52188 -0.356844 0
M  V30 6068 H 544.452 -3.23253 1.15597 0
M  V30 6069 N 546.897 -0.0685191 -1.57451 0
M  V30 6070 C 548.145 0.60016 -1.92983 0
M  V30 6071 C 548.466 1.70348 -0.949028 0
M  V30 6072 O 547.736 1.959 0.00335647 0
M  V30 6073 H 546.316 0.224682 -0.712409 0
M  V30 6074 H 548.978 -0.125605 -1.94495 0
M  V30 6075 H 548.074 1.02759 -2.94698 0
M  V30 6076 N 548.375 1.56261 0.205012 0
M  V30 6077 C 549.603 1.84141 0.943386 0
M  V30 6078 C 550.018 0.649772 1.77266 0
M  V30 6079 O 549.375 -0.381612 1.78466 0
M  V30 6080 C 549.426 3.10719 1.84759 0
M  V30 6081 O 549.147 4.25286 1.05181 0
M  V30 6082 C 550.648 3.51706 2.69848 0
M  V30 6083 H 547.868 0.611734 0.275721 0
M  V30 6084 H 550.412 2.03364 0.215253 0
M  V30 6085 H 548.567 2.93422 2.52947 0
M  V30 6086 H 548.981 4.97301 1.66709 0
M  V30 6087 H 550.455 4.43266 3.28967 0
M  V30 6088 H 550.932 2.7423 3.43067 0
M  V30 6089 H 551.538 3.71499 2.07047 0
M  V30 6090 N 549.853 -0.472356 1.50355 0
M  V30 6091 C 551.269 -0.806001 1.37753 0
M  V30 6092 C 551.469 -1.968 0.432649 0
M  V30 6093 O 550.525 -2.52189 -0.12519 0
M  V30 6094 C 551.838 -1.11926 2.79093 0
M  V30 6095 C 553.386 -1.22579 2.87999 0
M  V30 6096 C 553.861 -1.57218 4.3017 0
M  V30 6097 N 555.352 -1.64212 4.33115 0
M  V30 6098 C 556.087 -1.92517 5.40116 0
M  V30 6099 N 555.583 -2.1885 6.57325 0
M  V30 6100 N 557.376 -1.94008 5.27558 0
M  V30 6101 H 549.527 0.293451 2.10363 0
M  V30 6102 H 551.79 0.0687672 0.945503 0
M  V30 6103 H 551.496 -0.338504 3.50067 0
M  V30 6104 H 551.37 -2.05577 3.16256 0
M  V30 6105 H 553.757 -1.99722 2.17245 0
M  V30 6106 H 553.838 -0.269107 2.54381 0
M  V30 6107 H 553.482 -0.806154 5.01461 0
M  V30 6108 H 553.412 -2.54034 4.61275 0
M  V30 6109 H 555.903 -1.45906 3.48597 0
M  V30 6110 H 556.216 -2.39718 7.3468 0
M  V30 6111 H 554.561 -2.16245 6.60502 0
M  V30 6112 H 557.752 -1.72931 4.34986 0
M  V30 6113 H 557.925 -2.15731 6.11035 0
M  V30 6114 N 551.331 -1.39911 -0.725443 0
M  V30 6115 C 552.747 -1.21725 -1.03224 0
M  V30 6116 C 552.947 -0.0855224 -2.01318 0
M  V30 6117 O 552.003 0.55976 -2.46217 0
M  V30 6118 C 553.316 -2.55511 -1.58539 0
M  V30 6119 C 554.864 -2.62439 -1.70572 0
M  V30 6120 C 555.339 -3.9647 -2.29294 0
M  V30 6121 N 556.83 -3.98159 -2.36692 0
M  V30 6122 C 557.565 -4.98647 -2.83088 0
M  V30 6123 N 557.061 -6.0953 -3.2931 0
M  V30 6124 N 558.854 -4.8602 -2.82384 0
M  V30 6125 H 551.005 -2.12267 -0.075048 0
M  V30 6126 H 553.268 -0.943136 -0.0959066 0
M  V30 6127 H 552.974 -3.38926 -0.939249 0
M  V30 6128 H 552.848 -2.75905 -2.57208 0
M  V30 6129 H 555.235 -1.79401 -2.34306 0
M  V30 6130 H 555.316 -2.45885 -0.705297 0
M  V30 6131 H 554.96 -4.79942 -1.66186 0
M  V30 6132 H 554.89 -4.10349 -3.30032 0
M  V30 6133 H 557.381 -3.18085 -2.04035 0
M  V30 6134 H 557.694 -6.82106 -3.6325 0
M  V30 6135 H 556.039 -6.1311 -3.27294 0
M  V30 6136 H 559.23 -3.98493 -2.45603 0
M  V30 6137 H 559.403 -5.64478 -3.18226 0
M  V30 6138 N 552.809 0.956637 -1.25245 0
M  V30 6139 C 553.739 2.07058 -1.07931 0
M  V30 6140 C 554.72 1.70096 0.0110361 0
M  V30 6141 O 555.905 1.93555 -0.158121 0
M  V30 6142 C 553.035 3.40272 -0.695124 0
M  V30 6143 C 551.989 3.91235 -1.73549 0
M  V30 6144 C 551.315 5.20921 -1.20604 0
M  V30 6145 C 552.615 4.17837 -3.13385 0
M  V30 6146 H 554.309 2.218 -2.01109 0
M  V30 6147 H 551.855 1.06581 -0.968326 0
M  V30 6148 H 553.808 4.1765 -0.560949 0
M  V30 6149 H 552.532 3.25462 0.272355 0
M  V30 6150 H 551.191 3.16025 -1.85807 0
M  V30 6151 H 550.839 5.02479 -0.228846 0
M  V30 6152 H 550.539 5.55987 -1.90136 0
M  V30 6153 H 552.063 6.00897 -1.08421 0
M  V30 6154 H 553.477 4.8588 -3.04292 0
M  V30 6155 H 551.874 4.64154 -3.80369 0
M  V30 6156 H 552.944 3.2419 -3.60595 0
M  V30 6157 N 554.287 1.06798 1.15896 0
M  V30 6158 C 555.219 0.641263 2.20046 0
M  V30 6159 C 556.232 -0.303355 1.59949 0
M  V30 6160 O 557.421 -0.0935478 1.78255 0
M  V30 6161 C 554.521 -0.0794029 3.38807 0
M  V30 6162 C 553.694 0.879986 4.28457 0
M  V30 6163 C 552.753 0.197638 5.25829 0
M  V30 6164 O 551.779 0.836913 5.63014 0
M  V30 6165 N 552.981 -1.05886 5.70761 0
M  V30 6166 H 555.746 1.53718 2.57276 0
M  V30 6167 H 553.307 0.951951 1.30956 0
M  V30 6168 H 555.299 -0.546418 4.00994 0
M  V30 6169 H 553.869 -0.877193 3.0004 0
M  V30 6170 H 553.089 1.52625 3.63454 0
M  V30 6171 H 554.377 1.53065 4.8523 0
M  V30 6172 H 553.775 -1.59828 5.42652 0
M  V30 6173 H 552.332 -1.46965 6.35015 0
M  V30 6174 N 555.766 -1.3263 0.851289 0
M  V30 6175 C 556.676 -2.32722 0.296268 0
M  V30 6176 C 557.692 -1.63901 -0.584162 0
M  V30 6177 O 558.868 -1.95465 -0.485334 0
M  V30 6178 C 555.933 -3.42942 -0.509103 0
M  V30 6179 C 554.994 -4.2746 0.397069 0
M  V30 6180 C 554.227 -5.32416 -0.36996 0
M  V30 6181 O 554.45 -5.47491 -1.6003 0
M  V30 6182 O 553.384 -6.01327 0.262493 0
M  V30 6183 H 557.21 -2.82078 1.12543 0
M  V30 6184 H 554.795 -1.36194 0.614135 0
M  V30 6185 H 556.677 -4.1017 -0.96634 0
M  V30 6186 H 555.352 -2.95781 -1.31512 0
M  V30 6187 H 554.259 -3.63053 0.902411 0
M  V30 6188 H 555.592 -4.78136 1.16818 0
M  V30 6189 N 557.244 -0.608902 -1.45362 0
M  V30 6190 C 558.49 -0.104762 -2.02529 0
M  V30 6191 C 558.823 1.26191 -1.47613 0
M  V30 6192 O 558.098 1.8327 -0.65134 0
M  V30 6193 C 558.381 -0.0672661 -3.60037 0
M  V30 6194 C 558.234 -1.4647 -4.25284 0
M  V30 6195 C 559.553 0.619877 -4.35713 0
M  V30 6196 H 556.672 -0.0395438 -0.735938 0
M  V30 6197 H 559.314 -0.781126 -1.73201 0
M  V30 6198 H 557.464 0.50871 -3.85155 0
M  V30 6199 H 559.136 -2.08785 -4.11347 0
M  V30 6200 H 557.379 -2.02502 -3.83634 0
M  V30 6201 H 558.05 -1.39069 -5.34195 0
M  V30 6202 H 560.526 0.130297 -4.15896 0
M  V30 6203 H 559.402 0.615224 -5.45441 0
M  V30 6204 H 559.663 1.68621 -4.0868 0
M  V30 6205 N 558.722 1.53707 -0.348139 0
M  V30 6206 C 559.652 2.28111 0.498766 0
M  V30 6207 C 560.633 1.29851 1.09876 0
M  V30 6208 O 561.818 1.587 1.11928 0
M  V30 6209 C 558.948 3.05735 1.64753 0
M  V30 6210 C 557.902 4.11537 1.17565 0
M  V30 6211 C 557.228 4.77142 2.4133 0
M  V30 6212 C 558.528 5.21587 0.272844 0
M  V30 6213 H 560.222 2.99152 -0.121934 0
M  V30 6214 H 557.768 1.43875 -0.0600842 0
M  V30 6215 H 559.721 3.56526 2.24649 0
M  V30 6216 H 558.445 2.32354 2.2952 0
M  V30 6217 H 557.104 3.61665 0.599483 0
M  V30 6218 H 556.752 4.0035 3.04514 0
M  V30 6219 H 556.452 5.48626 2.10436 0
M  V30 6220 H 557.976 5.30719 3.01943 0
M  V30 6221 H 559.39 5.67986 0.778779 0
M  V30 6222 H 557.787 6.00074 0.0555849 0
M  V30 6223 H 558.857 4.79969 -0.689785 0
M  V30 6224 N 560.2 0.0768682 1.57412 0
M  V30 6225 C 561.448 -0.589918 1.93299 0
M  V30 6226 C 561.769 -1.69842 0.958049 0
M  V30 6227 O 561.039 -1.95899 0.00703261 0
M  V30 6228 H 559.619 -0.220901 0.713591 0
M  V30 6229 H 562.281 0.135917 1.94425 0
M  V30 6230 H 561.377 -1.01195 2.95239 0
M  V30 6231 N 561.678 -1.56367 -0.196722 0
M  V30 6232 C 562.924 -1.80796 -0.918725 0
M  V30 6233 C 563.257 -0.650645 -1.82976 0
M  V30 6234 O 562.532 0.348889 -1.91345 0
M  V30 6235 C 562.815 -3.15472 -1.73636 0
M  V30 6236 C 562.668 -4.41693 -0.85015 0
M  V30 6237 C 563.987 -3.46824 -2.70927 0
M  V30 6238 H 561.106 -0.657702 -0.332561 0
M  V30 6239 H 563.748 -1.89086 -0.186186 0
M  V30 6240 H 561.898 -3.08536 -2.36088 0
M  V30 6241 H 563.57 -4.60673 -0.240459 0
M  V30 6242 H 561.813 -4.33517 -0.156785 0
M  V30 6243 H 562.484 -5.32419 -1.45719 0
M  V30 6244 H 564.96 -3.54049 -2.18607 0
M  V30 6245 H 563.836 -4.4218 -3.25219 0
M  V30 6246 H 564.097 -2.70236 -3.49893 0
M  V30 6247 N 563.156 0.464375 -1.50603 0
M  V30 6248 C 564.088 1.57916 -1.66118 0
M  V30 6249 C 565.101 1.53497 -0.54246 0
M  V30 6250 O 566.29 1.58763 -0.815877 0
M  V30 6251 C 563.39 2.96809 -1.63577 0
M  V30 6252 C 562.563 3.26026 -2.91592 0
M  V30 6253 C 561.622 4.44506 -2.81604 0
M  V30 6254 O 560.648 4.44484 -3.55559 0
M  V30 6255 N 561.85 5.46549 -1.95614 0
M  V30 6256 H 564.615 1.45022 -2.62276 0
M  V30 6257 H 562.176 0.652903 -1.48151 0
M  V30 6258 H 564.168 3.74048 -1.54499 0
M  V30 6259 H 562.738 3.03438 -0.751262 0
M  V30 6260 H 561.958 2.37337 -3.14746 0
M  V30 6261 H 563.246 3.42361 -3.76386 0
M  V30 6262 H 562.644 5.49391 -1.34854 0
M  V30 6263 H 561.201 6.22746 -1.92435 0
M  V30 6264 N 564.634 1.40294 0.718013 0
M  V30 6265 C 565.862 1.4175 1.50714 0
M  V30 6266 C 566.277 0.0165366 1.88793 0
M  V30 6267 O 565.634 -0.958942 1.55276 0
M  V30 6268 C 565.685 2.30598 2.784 0
M  V30 6269 O 565.406 3.6524 2.41932 0
M  V30 6270 C 566.907 2.4062 3.72313 0
M  V30 6271 H 564.127 0.483565 0.465194 0
M  V30 6272 H 566.671 1.84316 0.885889 0
M  V30 6273 H 564.826 1.91401 3.36815 0
M  V30 6274 H 565.24 4.12402 3.24076 0
M  V30 6275 H 566.714 3.07001 4.58753 0
M  V30 6276 H 567.191 1.4305 4.15251 0
M  V30 6277 H 567.797 2.80359 3.19811 0
M  V30 6278 N 566.112 -0.949982 1.2575 0
M  V30 6279 C 567.36 -1.6918 1.10555 0
M  V30 6280 C 567.681 -1.91773 -0.353298 0
M  V30 6281 O 566.951 -1.50814 -1.25027 0
M  V30 6282 H 565.531 -0.626952 0.406129 0
M  V30 6283 H 568.193 -1.1419 1.57945 0
M  V30 6284 H 567.289 -2.66915 1.61749 0
M  V30 6285 N 567.59 -1.07411 -1.15328 0
M  V30 6286 C 568.838 -0.796073 -1.85761 0
M  V30 6287 C 569.159 0.679864 -1.82764 0
M  V30 6288 O 568.429 1.49242 -1.269 0
M  V30 6289 H 567.009 -0.291495 -0.687779 0
M  V30 6290 H 569.671 -1.35799 -1.39802 0
M  V30 6291 H 568.767 -1.13114 -2.90881 0
M  V30 6292 N 569.068 1.32177 -0.85831 0
M  V30 6293 C 570.479 1.79381 -0.517621 0
M  V30 6294 C 570.83 1.70841 0.964769 0
M  V30 6295 O 569.955 1.26917 1.75274 0
M  V30 6296 C 570.55 3.25706 -0.932801 0
M  V30 6297 C 569.109 3.70851 -0.643953 0
M  V30 6298 C 568.256 2.53208 -1.13054 0
M  V30 6299 H 571.207 1.19424 -1.04516 0
M  V30 6300 H 571.228 3.79673 -0.250674 0
M  V30 6301 H 570.74 3.31889 -2.01174 0
M  V30 6302 H 568.841 3.70178 0.424112 0
M  V30 6303 H 568.954 4.63495 -1.21281 0
M  V30 6304 H 567.318 2.48676 -0.550679 0
M  V30 6305 H 568.101 2.62143 -2.21666 0
M  V30 6306 N 570.547 0.616602 1.45037 0
M  V30 6307 C 571.795 0.115103 2.01772 0
M  V30 6308 C 572.116 -1.2622 1.48639 0
M  V30 6309 O 571.386 -1.83563 0.684199 0
M  V30 6310 H 569.966 0.0395607 0.745952 0
M  V30 6311 H 572.628 0.800032 1.77723 0
M  V30 6312 H 571.724 0.0717274 3.12018 0
M  V30 6313 N 572.025 -1.5352 0.356285 0
M  V30 6314 C 573.273 -2.00719 -0.235837 0
M  V30 6315 C 573.594 -1.24551 -1.5004 0
M  V30 6316 O 572.864 -0.356185 -1.92635 0
M  V30 6317 H 571.444 -0.741542 -0.0901366 0
M  V30 6318 H 574.106 -1.88887 0.480378 0
M  V30 6319 H 573.202 -3.08551 -0.469357 0
M  V30 6320 N 573.503 -0.0852151 -1.57369 0
M  V30 6321 C 574.919 0.271436 -1.57275 0
M  V30 6322 C 575.119 1.69109 -1.09565 0
M  V30 6323 O 574.175 2.40549 -0.767611 0
M  V30 6324 C 575.488 0.0688638 -3.00621 0
M  V30 6325 C 577.036 0.137373 -3.12698 0
M  V30 6326 C 577.511 -0.0370832 -4.57985 0
M  V30 6327 N 579.002 0.0180794 -4.63196 0
M  V30 6328 C 579.737 -0.0922953 -5.73326 0
M  V30 6329 N 579.233 -0.256948 -6.92323 0
M  V30 6330 N 581.026 -0.0342702 -5.6209 0
M  V30 6331 H 573.177 -1.01288 -1.86693 0
M  V30 6332 H 575.44 -0.396138 -0.861266 0
M  V30 6333 H 575.146 -0.911277 -3.39689 0
M  V30 6334 H 575.02 0.815442 -3.6828 0
M  V30 6335 H 577.407 1.10801 -2.73509 0
M  V30 6336 H 577.488 -0.640532 -2.47651 0
M  V30 6337 H 577.132 -1.00455 -4.97867 0
M  V30 6338 H 577.062 0.760392 -5.21081 0
M  V30 6339 H 579.553 0.143202 -3.77629 0
M  V30 6340 H 579.866 -0.332949 -7.72082 0
M  V30 6341 H 578.211 -0.292487 -6.94384 0
M  V30 6342 H 581.402 0.0931605 -4.68007 0
M  V30 6343 H 581.575 -0.12374 -6.47882 0
M  V30 6344 N 574.981 1.5647 0.188427 0
M  V30 6345 C 576.397 1.50204 0.539532 0
M  V30 6346 C 576.597 0.78644 1.85519 0
M  V30 6347 O 575.653 0.339714 2.50204 0
M  V30 6348 C 576.966 2.94893 0.588103 0
M  V30 6349 C 578.514 3.05602 0.67648 0
M  V30 6350 C 578.989 4.51716 0.756101 0
M  V30 6351 N 580.48 4.55894 0.819451 0
M  V30 6352 C 581.215 5.66272 0.90134 0
M  V30 6353 N 580.711 6.86323 0.945118 0
M  V30 6354 N 582.504 5.54201 0.939043 0
M  V30 6355 H 574.655 2.01406 -0.674493 0
M  V30 6356 H 576.918 0.916828 -0.241103 0
M  V30 6357 H 576.624 3.50334 -0.309633 0
M  V30 6358 H 576.498 3.4861 1.44051 0
M  V30 6359 H 578.885 2.50206 1.56465 0
M  V30 6360 H 578.966 2.54999 -0.202262 0
M  V30 6361 H 578.61 5.07739 -0.12774 0
M  V30 6362 H 578.54 5.00058 1.65074 0
M  V30 6363 H 581.031 3.69452 0.794594 0
M  V30 6364 H 581.344 7.66194 1.0083 0
M  V30 6365 H 579.689 6.88968 0.913683 0
M  V30 6366 H 582.88 4.59333 0.901725 0
M  V30 6367 H 583.053 6.40247 0.999402 0
M  V30 6368 N 576.459 -0.456382 1.50847 0
M  V30 6369 C 577.422 -1.53493 1.70213 0
M  V30 6370 C 578.422 -1.50264 0.572481 0
M  V30 6371 O 579.612 -1.52623 0.839751 0
M  V30 6372 C 576.744 -2.93091 1.741 0
M  V30 6373 H 577.937 -1.37633 2.66453 0
M  V30 6374 H 575.49 -0.683776 1.4055 0
M  V30 6375 H 576.225 -3.14378 0.796063 0
M  V30 6376 H 576.01 -2.9684 2.5618 0
M  V30 6377 H 577.5 -3.71368 1.90987 0
M  V30 6378 N 577.937 -1.40673 -0.710563 0
M  V30 6379 C 579.185 -1.38947 -1.46759 0
M  V30 6380 C 579.506 0.00572879 -1.94999 0
M  V30 6381 O 578.776 0.961358 -1.70689 0
M  V30 6382 H 577.356 -0.5114 -0.544499 0
M  V30 6383 H 580.018 -1.75773 -0.842012 0
M  V30 6384 H 579.114 -2.06745 -2.33801 0
M  V30 6385 N 579.415 0.9433 -1.26252 0
M  V30 6386 C 580.325 2.07532 -1.09397 0
M  V30 6387 C 581.341 1.73977 -0.0280449 0
M  V30 6388 O 582.517 2.00067 -0.231337 0
M  V30 6389 C 579.582 3.39002 -0.726523 0
M  V30 6390 C 578.643 3.86353 -1.87163 0
M  V30 6391 C 577.876 5.11549 -1.52162 0
M  V30 6392 O 578.099 5.68834 -0.422385 0
M  V30 6393 O 577.033 5.53889 -2.35565 0
M  V30 6394 H 580.859 2.24658 -2.04359 0
M  V30 6395 H 578.444 1.05988 -1.05295 0
M  V30 6396 H 580.326 4.18 -0.534236 0
M  V30 6397 H 579.001 3.2312 0.193721 0
M  V30 6398 H 577.908 3.0831 -2.11886 0
M  V30 6399 H 579.241 4.06752 -2.77152 0
M  V30 6400 N 580.893 1.08022 1.14757 0
M  V30 6401 C 582.304 0.829144 1.67279 0
M  V30 6402 C 582.655 -0.644721 1.85305 0
M  V30 6403 O 581.78 -1.49838 1.56133 0
M  V30 6404 C 582.375 1.49855 3.03857 0
M  V30 6405 C 580.934 1.29482 3.53428 0
M  V30 6406 C 580.081 1.56386 2.28995 0
M  V30 6407 H 583.032 1.24134 0.988762 0
M  V30 6408 H 583.053 0.923572 3.69121 0
M  V30 6409 H 582.565 2.57123 2.90705 0
M  V30 6410 H 580.666 0.242669 3.71809 0
M  V30 6411 H 580.779 2.01974 4.34446 0
M  V30 6412 H 579.143 0.985217 2.34874 0
M  V30 6413 H 579.926 2.64851 2.18423 0
M  V30 6414 N 582.371 -1.3172 0.865308 0
M  V30 6415 C 583.619 -1.96487 0.472995 0
M  V30 6416 C 583.94 -1.68761 -0.976975 0
M  V30 6417 O 583.21 -1.00051 -1.68424 0
M  V30 6418 H 581.79 -0.726947 0.171922 0
M  V30 6419 H 584.452 -1.60612 1.10407 0
M  V30 6420 H 583.548 -3.0574 0.62687 0
M  V30 6421 N 583.85 -0.624285 -1.44708 0
M  V30 6422 C 584.8 0.106466 -2.27751 0
M  V30 6423 C 585.784 0.822703 -1.38277 0
M  V30 6424 O 586.976 0.709939 -1.62138 0
M  V30 6425 C 584.105 1.092 -3.25469 0
M  V30 6426 C 583.191 0.375737 -4.22432 0
M  V30 6427 N 583.582 -0.591881 -5.02325 0
M  V30 6428 C 581.88 0.621093 -4.41654 0
M  V30 6429 C 582.581 -1.01443 -5.72786 0
M  V30 6430 N 581.557 -0.354651 -5.42442 0
M  V30 6431 H 585.359 -0.636464 -2.86926 0
M  V30 6432 H 582.873 -0.44925 -1.56062 0
M  V30 6433 H 584.87 1.63006 -3.83712 0
M  V30 6434 H 583.529 1.8353 -2.67856 0
M  V30 6435 H 584.541 -0.969389 -5.08747 0
M  V30 6436 H 581.218 1.34779 -3.95147 0
M  V30 6437 H 582.608 -1.81345 -6.46965 0
M  V30 6438 N 585.328 1.53329 -0.364422 0
M  V30 6439 C 586.553 2.06132 0.229033 0
M  V30 6440 C 586.978 1.23625 1.41769 0
M  V30 6441 O 586.336 0.255038 1.79497 0
M  V30 6442 C 586.384 3.55544 0.60174 0
M  V30 6443 O 585.488 3.75771 1.69912 0
M  V30 6444 H 584.829 0.663148 0.0336213 0
M  V30 6445 H 587.359 1.97758 -0.524689 0
M  V30 6446 H 587.369 3.98549 0.873073 0
M  V30 6447 H 586.044 4.15039 -0.267421 0
M  V30 6448 H 584.621 3.44663 1.42343 0
M  V30 6449 N 586.806 0.0935595 1.57322 0
M  V30 6450 C 588.217 -0.435807 1.81542 0
M  V30 6451 C 588.568 -1.68263 1.00907 0
M  V30 6452 O 587.693 -2.15087 0.237983 0
M  V30 6453 C 588.288 -0.797436 3.29282 0
M  V30 6454 C 586.847 -1.27155 3.54272 0
M  V30 6455 C 585.994 -0.267455 2.76007 0
M  V30 6456 H 588.945 0.31902 1.5546 0
M  V30 6457 H 588.966 -1.6571 3.42521 0
M  V30 6458 H 588.478 0.110206 3.87943 0
M  V30 6459 H 586.579 -2.19696 3.00939 0
M  V30 6460 H 586.692 -1.23445 4.62923 0
M  V30 6461 H 585.056 -0.749282 2.43429 0
M  V30 6462 H 585.839 0.632839 3.37417 0
M  V30 6463 N 588.284 -1.56567 -0.180126 0
M  V30 6464 C 589.247 -1.94852 -1.20686 0
M  V30 6465 C 590.247 -0.831212 -1.3765 0
M  V30 6466 O 591.437 -1.09841 -1.35206 0
M  V30 6467 C 588.569 -2.23565 -2.57355 0
M  V30 6468 H 589.762 -2.86722 -0.879225 0
M  V30 6469 H 587.315 -1.50489 -0.422237 0
M  V30 6470 H 588.05 -1.34381 -2.95148 0
M  V30 6471 H 587.835 -3.04999 -2.46411 0
M  V30 6472 H 589.325 -2.54137 -3.31367 0
M  V30 6473 N 589.762 0.448376 -1.51087 0
M  V30 6474 C 591.039 1.20926 -1.53741 0
M  V30 6475 C 591.419 2.09025 -0.295222 0
M  V30 6476 O 590.767 2.16851 0.720283 0
M  V30 6477 C 590.977 2.02067 -2.84552 0
M  V30 6478 C 592.325 2.59486 -3.36084 0
M  V30 6479 O 593.349 2.12289 -2.86028 0
M  V30 6480 O 592.208 3.45539 -4.23397 0
M  V30 6481 H 589.302 0.549951 -0.617643 0
M  V30 6482 H 591.848 0.458344 -1.63393 0
M  V30 6483 H 590.62 1.37291 -3.66425 0
M  V30 6484 H 590.243 2.84246 -2.78011 0
M  V30 6485 N 591.24 1.41047 0.703093 0
M  V30 6486 C 592.47 1.43133 1.48985 0
M  V30 6487 C 592.878 0.0328537 1.89171 0
M  V30 6488 O 592.221 -0.956469 1.56835 0
M  V30 6489 C 592.283 2.26991 2.78775 0
M  V30 6490 C 591.947 3.7525 2.60837 0
M  V30 6491 C 592.944 4.67591 2.27276 0
M  V30 6492 C 590.629 4.19208 2.76712 0
M  V30 6493 C 592.623 6.01877 2.09817 0
M  V30 6494 C 590.31 5.53561 2.5887 0
M  V30 6495 C 591.308 6.4471 2.25472 0
M  V30 6496 O 590.996 7.76584 2.07778 0
M  V30 6497 H 590.728 0.489788 0.465922 0
M  V30 6498 H 593.282 1.85886 0.873822 0
M  V30 6499 H 591.512 1.79038 3.42757 0
M  V30 6500 H 593.201 2.20867 3.40547 0
M  V30 6501 H 593.967 4.34923 2.14633 0
M  V30 6502 H 589.846 3.48572 3.01693 0
M  V30 6503 H 593.39 6.72986 1.83671 0
M  V30 6504 H 589.287 5.85811 2.71102 0
M  V30 6505 H 590.055 7.87649 2.22601 0
M  V30 6506 N 592.718 -0.936591 1.26751 0
M  V30 6507 C 593.648 -2.05315 1.11212 0
M  V30 6508 C 594.629 -1.70092 0.0160262 0
M  V30 6509 O 595.814 -1.93279 0.188894 0
M  V30 6510 C 592.944 -3.39123 0.749171 0
M  V30 6511 C 591.898 -3.88425 1.79751 0
M  V30 6512 C 591.224 -5.18936 1.28876 0
M  V30 6513 C 592.524 -4.12798 3.19992 0
M  V30 6514 H 594.218 -2.18573 2.04613 0
M  V30 6515 H 591.764 -1.05027 0.985159 0
M  V30 6516 H 593.717 -4.16704 0.627323 0
M  V30 6517 H 592.441 -3.25855 -0.220543 0
M  V30 6518 H 591.1 -3.13028 1.90811 0
M  V30 6519 H 590.748 -5.02051 0.308757 0
M  V30 6520 H 590.448 -5.52892 1.98958 0
M  V30 6521 H 591.972 -5.99096 1.17967 0
M  V30 6522 H 593.386 -4.80977 3.11983 0
M  V30 6523 H 591.783 -4.58044 3.87705 0
M  V30 6524 H 592.853 -3.18412 3.65707 0
M  V30 6525 N 594.196 -1.08629 -1.14182 0
M  V30 6526 C 595.612 -0.814363 -1.3726 0
M  V30 6527 C 595.812 0.575271 -1.93114 0
M  V30 6528 O 594.868 1.33165 -2.1453 0
M  V30 6529 C 596.181 -1.8989 -2.33157 0
M  V30 6530 C 597.729 -1.92518 -2.46791 0
M  V30 6531 C 598.204 -3.00092 -3.45989 0
M  V30 6532 N 599.695 -2.99279 -3.53534 0
M  V30 6533 C 600.43 -3.79158 -4.30147 0
M  V30 6534 N 599.926 -4.68923 -5.09983 0
M  V30 6535 N 601.719 -3.67451 -4.25366 0
M  V30 6536 H 593.87 -1.98232 -0.762758 0
M  V30 6537 H 596.133 -0.860383 -0.398051 0
M  V30 6538 H 595.839 -2.89809 -1.99257 0
M  V30 6539 H 595.713 -1.77013 -3.33086 0
M  V30 6540 H 598.1 -0.932425 -2.79982 0
M  V30 6541 H 598.181 -2.09473 -1.46816 0
M  V30 6542 H 597.825 -3.99575 -3.13532 0
M  V30 6543 H 597.755 -2.80382 -4.45751 0
M  V30 6544 H 600.246 -2.3422 -2.96563 0
M  V30 6545 H 600.559 -5.26475 -5.65724 0
M  V30 6546 H 598.904 -4.72964 -5.09244 0
M  V30 6547 H 602.095 -2.9669 -3.62067 0
M  V30 6548 H 602.268 -4.29944 -4.84822 0
M  V30 6549 N 595.674 1.31259 -0.872281 0
M  V30 6550 C 596.921 1.96622 -0.484365 0
M  V30 6551 C 597.249 1.68939 0.963841 0
M  V30 6552 O 596.504 0.97974 1.6941 0
M  V30 6553 C 596.803 3.50659 -0.690889 0
M  V30 6554 C 596.469 3.98366 -2.11224 0
M  V30 6555 C 595.131 4.11104 -2.50094 0
M  V30 6556 C 597.483 4.23425 -3.0391 0
M  V30 6557 C 594.811 4.46254 -3.80887 0
M  V30 6558 C 597.163 4.60039 -4.3422 0
M  V30 6559 C 595.827 4.70984 -4.73001 0
M  V30 6560 H 595.097 0.71949 -0.177242 0
M  V30 6561 H 597.744 1.56353 -1.10571 0
M  V30 6562 H 596.049 3.91798 0.0135782 0
M  V30 6563 H 597.746 3.99284 -0.370534 0
M  V30 6564 H 594.336 3.88949 -1.80047 0
M  V30 6565 H 598.52 4.13075 -2.75104 0
M  V30 6566 H 593.776 4.52926 -4.10692 0
M  V30 6567 H 597.95 4.78381 -5.06088 0
M  V30 6568 H 595.577 4.97977 -5.7439 0
M  V30 6569 N 597.152 0.631951 1.44375 0
M  V30 6570 C 598.084 -0.110911 2.28931 0
M  V30 6571 C 599.097 -0.808086 1.41329 0
M  V30 6572 O 600.286 -0.669396 1.65473 0
M  V30 6573 C 597.386 -1.17928 3.1772 0
M  V30 6574 C 596.559 -0.564458 4.33743 0
M  V30 6575 C 595.618 -1.5269 5.0356 0
M  V30 6576 O 594.644 -1.04372 5.59549 0
M  V30 6577 N 595.846 -2.86123 5.05088 0
M  V30 6578 H 598.611 0.614758 2.93327 0
M  V30 6579 H 596.172 0.473171 1.54831 0
M  V30 6580 H 598.164 -1.82348 3.61291 0
M  V30 6581 H 596.734 -1.80717 2.55069 0
M  V30 6582 H 595.954 0.258373 3.93352 0
M  V30 6583 H 597.242 -0.134355 5.08623 0
M  V30 6584 H 596.64 -3.27959 4.60933 0
M  V30 6585 H 595.197 -3.45901 5.52445 0
M  V30 6586 N 598.631 -1.53133 0.372548 0
M  V30 6587 C 599.908 -1.93704 -0.271693 0
M  V30 6588 C 600.288 -1.30667 -1.65799 0
M  V30 6589 O 599.636 -0.46838 -2.23648 0
M  V30 6590 C 599.846 -3.47576 -0.314903 0
M  V30 6591 C 601.194 -4.20998 -0.551912 0
M  V30 6592 O 602.218 -3.53994 -0.39582 0
M  V30 6593 O 601.077 -5.39748 -0.85639 0
M  V30 6594 H 598.171 -0.810457 -0.164586 0
M  V30 6595 H 600.717 -1.6427 0.425838 0
M  V30 6596 H 599.489 -3.85749 0.656792 0
M  V30 6597 H 599.112 -3.83264 -1.05804 0
M  V30 6598 N 600.109 -0.101901 -1.5727 0
M  V30 6599 C 601.039 0.851544 -2.17419 0
M  V30 6600 C 602.02 1.28942 -1.10941 0
M  V30 6601 O 603.205 1.35509 -1.39107 0
M  V30 6602 C 600.335 2.10816 -2.75996 0
M  V30 6603 C 599.289 1.80867 -3.87906 0
M  V30 6604 C 598.615 3.13413 -4.33216 0
M  V30 6605 C 599.915 1.0903 -5.10793 0
M  V30 6606 H 601.609 0.350381 -2.97343 0
M  V30 6607 H 599.155 0.16709 -1.43027 0
M  V30 6608 H 601.108 2.77959 -3.16729 0
M  V30 6609 H 599.832 2.63227 -1.93337 0
M  V30 6610 H 598.491 1.16119 -3.47724 0
M  V30 6611 H 598.139 3.63725 -3.47438 0
M  V30 6612 H 597.839 2.94155 -5.08671 0
M  V30 6613 H 599.363 3.81704 -4.76586 0
M  V30 6614 H 600.777 1.66295 -5.48652 0
M  V30 6615 H 599.174 0.99927 -5.91722 0
M  V30 6616 H 600.244 0.0741704 -4.84843 0
M  V30 6617 N 601.587 1.56661 0.17182 0
M  V30 6618 C 602.833 1.82235 0.889845 0
M  V30 6619 C 603.166 0.679673 1.81918 0
M  V30 6620 O 602.441 -0.318404 1.91876 0
M  V30 6621 C 602.724 3.18195 1.68595 0
M  V30 6622 C 602.577 4.42989 0.779773 0
M  V30 6623 C 603.896 3.5109 2.65375 0
M  V30 6624 H 601.015 0.66291 0.322056 0
M  V30 6625 H 603.657 1.89358 0.15608 0
M  V30 6626 H 601.807 3.12253 2.3115 0
M  V30 6627 H 603.479 4.60997 0.16714 0
M  V30 6628 H 601.722 4.33711 0.0877964 0
M  V30 6629 H 602.393 5.3467 1.3723 0
M  V30 6630 H 604.869 3.57482 2.12946 0
M  V30 6631 H 603.745 4.47298 3.18144 0
M  V30 6632 H 604.006 2.75768 3.45549 0
M  V30 6633 N 603.065 -0.440357 1.51323 0
M  V30 6634 C 603.995 -1.54174 1.75364 0
M  V30 6635 C 604.976 -1.59039 0.603375 0
M  V30 6636 O 606.161 -1.74815 0.845774 0
M  V30 6637 C 603.291 -2.92277 1.87593 0
M  V30 6638 C 602.245 -3.02274 3.03009 0
M  V30 6639 C 601.571 -4.42327 3.00418 0
M  V30 6640 C 602.871 -2.76634 4.43024 0
M  V30 6641 H 604.565 -1.34307 2.67585 0
M  V30 6642 H 602.111 -0.644678 1.28763 0
M  V30 6643 H 604.064 -3.69284 2.02995 0
M  V30 6644 H 602.788 -3.13369 0.920179 0
M  V30 6645 H 601.447 -2.27706 2.87307 0
M  V30 6646 H 601.095 -4.60382 2.02626 0
M  V30 6647 H 600.795 -4.49946 3.77918 0
M  V30 6648 H 602.319 -5.21312 3.17909 0
M  V30 6649 H 603.733 -3.43376 4.59093 0
M  V30 6650 H 602.13 -2.95666 5.22208 0
M  V30 6651 H 603.2 -1.72262 4.5327 0
M  V30 6652 N 604.543 -1.41418 -0.695603 0
M  V30 6653 C 605.959 -1.23887 -1.00619 0
M  V30 6654 C 606.159 -0.128206 -2.01092 0
M  V30 6655 O 605.215 0.507408 -2.47349 0
M  V30 6656 C 606.528 -2.58816 -1.53083 0
M  V30 6657 C 608.076 -2.65998 -1.64967 0
M  V30 6658 C 608.551 -4.01244 -2.20833 0
M  V30 6659 N 610.042 -4.0309 -2.28194 0
M  V30 6660 C 610.777 -5.04539 -2.72448 0
M  V30 6661 N 610.273 -6.16378 -3.16306 0
M  V30 6662 N 612.066 -4.91901 -2.72011 0
M  V30 6663 H 604.217 -2.12379 -0.0300061 0
M  V30 6664 H 606.48 -0.944958 -0.0758797 0
M  V30 6665 H 606.186 -3.40842 -0.867147 0
M  V30 6666 H 606.06 -2.81299 -2.51298 0
M  V30 6667 H 608.447 -1.84331 -2.30448 0
M  V30 6668 H 608.528 -2.47325 -0.652982 0
M  V30 6669 H 608.172 -4.83359 -1.55968 0
M  V30 6670 H 608.102 -4.17257 -3.21254 0
M  V30 6671 H 610.593 -3.22341 -1.97242 0
M  V30 6672 H 610.906 -6.89658 -3.487 0
M  V30 6673 H 609.251 -6.19914 -3.14215 0
M  V30 6674 H 612.442 -4.03613 -2.37095 0
M  V30 6675 H 612.615 -5.71102 -3.06181 0
M  V30 6676 N 606.021 0.929856 -1.27246 0
M  V30 6677 C 606.954 2.03069 -1.04106 0
M  V30 6678 C 607.932 1.62556 0.0378417 0
M  V30 6679 O 609.116 1.88197 -0.106869 0
M  V30 6680 C 606.243 3.33718 -0.578778 0
M  V30 6681 C 605.289 3.93209 -1.65193 0
M  V30 6682 S 606.122 4.26068 -3.24386 0
M  V30 6683 C 607.278 5.598 -2.79954 0
M  V30 6684 H 607.511 2.22386 -1.97311 0
M  V30 6685 H 605.044 1.07269 -1.11053 0
M  V30 6686 H 607.002 4.09261 -0.31874 0
M  V30 6687 H 605.663 3.12328 0.333182 0
M  V30 6688 H 604.856 4.87482 -1.27973 0
M  V30 6689 H 604.458 3.24243 -1.86393 0
M  V30 6690 H 606.75 6.39004 -2.25123 0
M  V30 6691 H 607.693 6.01917 -3.72963 0
M  V30 6692 H 608.101 5.20219 -2.19164 0
M  V30 6693 N 607.499 1.09233 1.13605 0
M  V30 6694 C 608.429 0.751738 2.21068 0
M  V30 6695 C 609.41 -0.269688 1.67948 0
M  V30 6696 O 610.595 -0.13819 1.93708 0
M  V30 6697 C 607.725 0.16935 3.46887 0
M  V30 6698 C 606.679 1.12007 4.13084 0
M  V30 6699 C 606.005 0.399483 5.33206 0
M  V30 6700 C 607.305 2.46168 4.6065 0
M  V30 6701 H 608.999 1.65024 2.49815 0
M  V30 6702 H 606.545 0.794905 1.20072 0
M  V30 6703 H 608.498 -0.0809824 4.21322 0
M  V30 6704 H 607.222 -0.764335 3.1753 0
M  V30 6705 H 605.881 1.35564 3.40614 0
M  V30 6706 H 605.529 -0.538277 5.00112 0
M  V30 6707 H 605.229 1.03337 5.78442 0
M  V30 6708 H 606.753 0.157403 6.10397 0
M  V30 6709 H 608.167 2.26829 5.26518 0
M  V30 6710 H 606.564 3.05326 5.1662 0
M  V30 6711 H 607.634 3.07076 3.75276 0
M  V30 6712 N 608.977 -1.30795 0.87923 0
M  V30 6713 C 609.887 -2.32041 0.345565 0
M  V30 6714 C 610.903 -1.65103 -0.549265 0
M  V30 6715 O 612.079 -1.9645 -0.443763 0
M  V30 6716 C 609.144 -3.43944 -0.436245 0
M  V30 6717 C 608.205 -4.26521 0.48765 0
M  V30 6718 C 607.438 -5.33081 -0.256943 0
M  V30 6719 O 607.661 -5.50762 -1.48381 0
M  V30 6720 O 606.595 -6.00635 0.389985 0
M  V30 6721 H 610.421 -2.79627 1.18501 0
M  V30 6722 H 608.006 -1.3486 0.642885 0
M  V30 6723 H 609.888 -4.12128 -0.879119 0
M  V30 6724 H 608.563 -2.98504 -1.25208 0
M  V30 6725 H 607.47 -3.61057 0.979216 0
M  V30 6726 H 608.803 -4.75551 1.26933 0
M  V30 6727 N 610.455 -0.639598 -1.44038 0
M  V30 6728 C 611.685 -0.154586 -2.06021 0
M  V30 6729 C 612.093 1.17951 -1.47933 0
M  V30 6730 O 611.436 1.73627 -0.59994 0
M  V30 6731 C 611.498 0.0255459 -3.59491 0
M  V30 6732 C 611.162 -1.2317 -4.40089 0
M  V30 6733 C 612.159 -2.15735 -4.73027 0
M  V30 6734 C 609.844 -1.46949 -4.80324 0
M  V30 6735 C 611.838 -3.30382 -5.45093 0
M  V30 6736 C 609.525 -2.61891 -5.52138 0
M  V30 6737 C 610.523 -3.53433 -5.84443 0
M  V30 6738 O 610.211 -4.6637 -6.54793 0
M  V30 6739 H 609.943 -0.0808543 -0.671147 0
M  V30 6740 H 612.497 -0.876541 -1.85758 0
M  V30 6741 H 610.727 0.802733 -3.78276 0
M  V30 6742 H 612.416 0.466184 -4.03214 0
M  V30 6743 H 613.182 -1.98602 -4.42473 0
M  V30 6744 H 609.061 -0.765815 -4.54595 0
M  V30 6745 H 612.605 -4.01856 -5.70226 0
M  V30 6746 H 608.502 -2.78964 -5.82108 0
M  V30 6747 H 609.27 -4.6546 -6.73267 0
M  V30 6748 N 611.933 1.52934 -0.380664 0
M  V30 6749 C 612.843 2.29921 0.466192 0
M  V30 6750 C 613.859 1.36488 1.07922 0
M  V30 6751 O 615.035 1.69553 1.0869 0
M  V30 6752 C 612.1 3.08468 1.58266 0
M  V30 6753 C 611.161 4.17595 0.995627 0
M  V30 6754 C 610.394 4.92387 2.05889 0
M  V30 6755 O 610.617 4.67184 3.27254 0
M  V30 6756 O 609.551 5.77949 1.68102 0
M  V30 6757 H 613.377 3.03274 -0.160735 0
M  V30 6758 H 610.962 1.48698 -0.144617 0
M  V30 6759 H 612.844 3.57469 2.23145 0
M  V30 6760 H 611.519 2.37937 2.19471 0
M  V30 6761 H 610.426 3.72811 0.310332 0
M  V30 6762 H 611.759 4.90336 0.427918 0
M  V30 6763 N 613.412 0.11024 1.57214 0
M  V30 6764 C 614.823 -0.416527 1.81994 0
M  V30 6765 C 615.174 -1.67183 1.02686 0
M  V30 6766 O 614.299 -2.14823 0.260782 0
M  V30 6767 C 614.894 -0.762466 3.30109 0
M  V30 6768 C 613.453 -1.23391 3.556 0
M  V30 6769 C 612.6 -0.238166 2.76275 0
M  V30 6770 H 615.551 0.335491 1.55113 0
M  V30 6771 H 615.572 -1.62068 3.44259 0
M  V30 6772 H 615.084 0.151346 3.87805 0
M  V30 6773 H 613.185 -2.16492 3.03253 0
M  V30 6774 H 613.298 -1.18528 4.64207 0
M  V30 6775 H 611.662 -0.723421 2.4421 0
M  V30 6776 H 612.445 0.668591 3.36727 0
M  V30 6777 N 614.89 -1.56749 -0.16351 0
M  V30 6778 C 615.853 -1.96121 -1.18613 0
M  V30 6779 C 616.853 -0.845765 -1.36761 0
M  V30 6780 O 618.043 -1.11268 -1.34033 0
M  V30 6781 C 615.175 -2.26282 -2.54969 0
M  V30 6782 H 616.368 -2.87639 -0.848764 0
M  V30 6783 H 613.921 -1.50928 -0.406251 0
M  V30 6784 H 614.656 -1.37504 -2.93706 0
M  V30 6785 H 614.441 -3.07595 -2.43162 0
M  V30 6786 H 615.931 -2.57638 -3.28653 0
M  V30 6787 N 616.368 0.432326 -1.51554 0
M  V30 6788 C 617.331 1.50765 -1.72634 0
M  V30 6789 C 618.331 1.49334 -0.596314 0
M  V30 6790 O 619.521 1.51268 -0.863925 0
M  V30 6791 C 616.653 2.90284 -1.7874 0
M  V30 6792 H 617.846 1.33377 -2.68609 0
M  V30 6793 H 615.399 0.661329 -1.4162 0
M  V30 6794 H 616.134 3.13071 -0.845977 0
M  V30 6795 H 615.919 2.92727 -2.6087 0
M  V30 6796 H 617.409 3.68282 -1.96871 0
M  V30 6797 N 617.846 1.41785 0.688094 0
M  V30 6798 C 619.262 1.24419 0.999608 0
M  V30 6799 C 619.462 0.138868 2.01021 0
M  V30 6800 O 618.518 -0.494283 2.47615 0
M  V30 6801 C 619.831 2.59625 1.51709 0
M  V30 6802 C 621.379 2.66869 1.63554 0
M  V30 6803 C 621.854 4.0241 2.18702 0
M  V30 6804 N 623.345 4.04295 2.26053 0
M  V30 6805 C 624.08 5.05977 2.69768 0
M  V30 6806 N 623.576 6.18047 3.13033 0
M  V30 6807 N 625.369 4.93336 2.69398 0
M  V30 6808 H 617.52 2.12392 0.0187427 0
M  V30 6809 H 619.783 0.945347 0.0708673 0
M  V30 6810 H 619.489 3.41297 0.849059 0
M  V30 6811 H 619.363 2.82628 2.49803 0
M  V30 6812 H 621.75 1.8555 2.29467 0
M  V30 6813 H 621.831 2.47668 0.639857 0
M  V30 6814 H 621.475 4.8418 1.53402 0
M  V30 6815 H 621.405 4.18955 3.19037 0
M  V30 6816 H 623.896 3.23383 1.9553 0
M  V30 6817 H 624.209 6.91498 3.45038 0
M  V30 6818 H 622.554 6.21572 3.10923 0
M  V30 6819 H 625.745 4.04865 2.34952 0
M  V30 6820 H 625.918 5.72717 3.03148 0
M  V30 6821 N 619.324 -0.923095 1.27737 0
M  V30 6822 C 620.573 -1.66581 1.13727 0
M  V30 6823 C 620.886 -1.9304 -0.315433 0
M  V30 6824 O 622.092 -2.65309 -0.57651 0
M  V30 6825 C 620.548 -3.00047 1.98745 0
M  V30 6826 C 620.156 -2.8127 3.48699 0
M  V30 6827 C 621.9 -3.77887 1.93395 0
M  V30 6828 C 619.807 -4.1032 4.25901 0
M  V30 6829 H 618.737 -0.624834 0.422017 0
M  V30 6830 H 621.388 -1.02514 1.52194 0
M  V30 6831 H 619.77 -3.65197 1.53125 0
M  V30 6832 H 620.944 -2.24859 4.02213 0
M  V30 6833 H 619.259 -2.16854 3.55476 0
M  V30 6834 H 621.856 -4.73526 2.48348 0
M  V30 6835 H 622.199 -4.06264 0.908605 0
M  V30 6836 H 622.732 -3.19541 2.36935 0
M  V30 6837 H 619.471 -3.8712 5.28978 0
M  V30 6838 H 618.991 -4.66377 3.77163 0
M  V30 6839 H 620.67 -4.78648 4.35321 0
M  V30 6840 N 620.802 -1.09834 -1.13024 0
M  V30 6841 C 622.027 -0.85909 -1.88771 0
M  V30 6842 C 622.452 0.584402 -1.78791 0
M  V30 6843 O 621.81 1.41101 -1.13842 0
M  V30 6844 C 621.858 -1.30427 -3.36186 0
M  V30 6845 O 620.962 -0.465368 -4.09766 0
M  V30 6846 H 620.303 -0.310786 -0.586778 0
M  V30 6847 H 622.833 -1.46355 -1.42973 0
M  V30 6848 H 622.843 -1.2915 -3.8702 0
M  V30 6849 H 621.518 -2.3555 -3.42767 0
M  V30 6850 H 620.095 -0.542814 -3.68928 0
M  V30 6851 N 622.28 1.30327 -0.886154 0
M  V30 6852 C 623.691 1.78243 -0.555554 0
M  V30 6853 C 624.042 1.72849 0.928314 0
M  V30 6854 O 623.167 1.30607 1.72542 0
M  V30 6855 C 623.762 3.23654 -1.00168 0
M  V30 6856 C 622.321 3.69401 -0.722471 0
M  V30 6857 C 621.468 2.50753 -1.18399 0
M  V30 6858 H 624.419 1.1718 -1.07026 0
M  V30 6859 H 624.44 3.79056 -0.331152 0
M  V30 6860 H 623.952 3.27548 -2.08169 0
M  V30 6861 H 622.053 3.70995 0.345496 0
M  V30 6862 H 622.166 4.60818 -1.31085 0
M  V30 6863 H 620.53 2.47452 -0.603303 0
M  V30 6864 H 621.313 2.57383 -2.27176 0
M  V30 6865 N 623.758 0.647228 1.43697 0
M  V30 6866 C 624.688 -0.0345631 2.33474 0
M  V30 6867 C 625.669 -0.818193 1.4913 0
M  V30 6868 O 626.854 -0.780867 1.77809 0
M  V30 6869 C 623.984 -1.00576 3.32418 0
M  V30 6870 C 622.938 -0.33266 4.26705 0
M  V30 6871 C 622.264 -1.41489 5.1564 0
M  V30 6872 C 623.564 0.771204 5.16575 0
M  V30 6873 H 625.258 0.715163 2.90733 0
M  V30 6874 H 622.804 0.345364 1.39797 0
M  V30 6875 H 624.757 -1.49159 3.94119 0
M  V30 6876 H 623.481 -1.78657 2.73403 0
M  V30 6877 H 622.14 0.13267 3.6636 0
M  V30 6878 H 621.788 -2.18698 4.52968 0
M  V30 6879 H 621.488 -0.969799 5.79542 0
M  V30 6880 H 623.012 -1.9022 5.80214 0
M  V30 6881 H 624.426 0.36779 5.72119 0
M  V30 6882 H 622.823 1.1404 5.89165 0
M  V30 6883 H 623.893 1.63169 4.56622 0
M  V30 6884 N 625.236 -1.5273 0.388769 0
M  V30 6885 C 626.484 -2.01174 -0.193208 0
M  V30 6886 C 626.805 -1.27705 -1.47365 0
M  V30 6887 O 626.075 -0.396966 -1.91836 0
M  V30 6888 H 624.655 -0.743287 -0.0743871 0
M  V30 6889 H 627.317 -1.87826 0.520336 0
M  V30 6890 H 626.413 -3.09477 -0.403803 0
M  V30 6891 N 626.714 -0.118576 -1.57153 0
M  V30 6892 C 627.677 0.817464 -2.14127 0
M  V30 6893 C 628.677 1.1949 -1.07604 0
M  V30 6894 O 629.867 1.12048 -1.33382 0
M  V30 6895 C 626.999 2.10541 -2.68115 0
M  V30 6896 H 628.192 0.322339 -2.98163 0
M  V30 6897 H 625.745 0.130655 -1.55753 0
M  V30 6898 H 626.48 2.64485 -1.87665 0
M  V30 6899 H 626.265 1.84425 -3.4602 0
M  V30 6900 H 627.755 2.77453 -3.12105 0
M  V30 6901 N 628.193 1.56834 0.155195 0
M  V30 6902 C 629.123 2.00678 1.19376 0
M  V30 6903 C 630.104 0.884973 1.45266 0
M  V30 6904 O 631.289 1.1522 1.56326 0
M  V30 6905 C 628.419 2.38042 2.5289 0
M  V30 6906 C 627.373 3.53332 2.41538 0
M  V30 6907 C 626.699 3.76485 3.79688 0
M  V30 6908 C 627.999 4.86265 1.9064 0
M  V30 6909 H 629.693 2.87688 0.829232 0
M  V30 6910 H 627.239 1.38407 0.397445 0
M  V30 6911 H 629.192 2.67314 3.25763 0
M  V30 6912 H 627.916 1.4796 2.91162 0
M  V30 6913 H 626.575 3.24213 1.71117 0
M  V30 6914 H 626.223 2.83667 4.15382 0
M  V30 6915 H 625.923 4.54068 3.72956 0
M  V30 6916 H 627.447 4.08174 4.54122 0
M  V30 6917 H 628.861 5.14308 2.53299 0
M  V30 6918 H 627.258 5.67597 1.94818 0
M  V30 6919 H 628.328 4.77184 0.861596 0
M  V30 6920 N 629.671 -0.424282 1.51781 0
M  V30 6921 C 630.603 -1.53457 1.70246 0
M  V30 6922 C 631.616 -1.52004 0.582967 0
M  V30 6923 O 632.805 -1.56544 0.857683 0
M  V30 6924 C 629.905 -2.92368 1.71389 0
M  V30 6925 C 629.078 -3.1818 3.00133 0
M  V30 6926 C 628.137 -4.36884 2.9329 0
M  V30 6927 O 627.163 -4.34901 3.67219 0
M  V30 6928 N 628.365 -5.4117 2.10036 0
M  V30 6929 H 631.13 -1.38017 2.66029 0
M  V30 6930 H 628.691 -0.613394 1.4983 0
M  V30 6931 H 630.683 -3.6982 1.64362 0
M  V30 6932 H 629.253 -3.0134 0.831449 0
M  V30 6933 H 628.473 -2.28908 3.20928 0
M  V30 6934 H 629.761 -3.32261 3.85331 0
M  V30 6935 H 629.159 -5.45623 1.49373 0
M  V30 6936 H 627.716 -6.17425 2.08878 0
M  V30 6937 N 631.149 -1.42148 -0.680565 0
M  V30 6938 C 632.099 -1.41634 -1.78672 0
M  V30 6939 C 633.083 -0.288494 -1.58293 0
M  V30 6940 O 634.275 -0.530295 -1.68869 0
M  V30 6941 C 631.404 -1.31558 -3.17092 0
M  V30 6942 C 630.49 -2.49265 -3.43115 0
M  V30 6943 N 630.881 -3.74702 -3.39753 0
M  V30 6944 C 629.179 -2.43401 -3.73727 0
M  V30 6945 C 629.88 -4.52854 -3.651 0
M  V30 6946 N 628.856 -3.83181 -3.85582 0
M  V30 6947 H 632.658 -2.3652 -1.74458 0
M  V30 6948 H 630.172 -1.36415 -0.881171 0
M  V30 6949 H 632.169 -1.29272 -3.96351 0
M  V30 6950 H 630.829 -0.376696 -3.22508 0
M  V30 6951 H 631.84 -4.07378 -3.19787 0
M  V30 6952 H 628.517 -1.58062 -3.86423 0
M  V30 6953 H 629.907 -5.61827 -3.6851 0
M  V30 6954 N 632.627 0.916307 -1.28225 0
M  V30 6955 C 633.875 1.6619 -1.15002 0
M  V30 6956 C 634.196 1.92642 0.302329 0
M  V30 6957 O 633.466 1.54076 1.20985 0
M  V30 6958 H 632.046 0.615964 -0.422608 0
M  V30 6959 H 634.708 1.09963 -1.60917 0
M  V30 6960 H 633.804 2.62533 -1.68769 0
M  V30 6961 N 634.105 1.10431 1.1244 0
M  V30 6962 C 635.352 0.846717 1.83948 0
M  V30 6963 C 635.68 -0.627709 1.84093 0
M  V30 6964 O 634.935 -1.47876 1.28184 0
M  V30 6965 C 635.234 1.34022 3.3132 0
M  V30 6966 C 634.9 2.82606 3.51347 0
M  V30 6967 C 633.562 3.23182 3.56521 0
M  V30 6968 C 635.914 3.78356 3.58464 0
M  V30 6969 C 633.242 4.58258 3.66356 0
M  V30 6970 C 635.594 5.13234 3.69829 0
M  V30 6971 C 634.258 5.53384 3.73259 0
M  V30 6972 H 633.528 0.309836 0.673114 0
M  V30 6973 H 636.175 1.38091 1.32677 0
M  V30 6974 H 634.48 0.726047 3.85014 0
M  V30 6975 H 636.177 1.11739 3.85118 0
M  V30 6976 H 632.767 2.50212 3.47983 0
M  V30 6977 H 636.951 3.48115 3.53737 0
M  V30 6978 H 632.207 4.88787 3.67284 0
M  V30 6979 H 636.381 5.87272 3.74279 0
M  V30 6980 H 634.008 6.58045 3.80633 0
M  V30 6981 N 635.583 -1.29855 0.893053 0
M  V30 6982 C 636.83 -1.95826 0.515585 0
M  V30 6983 C 637.158 -1.70451 -0.936842 0
M  V30 6984 O 636.413 -1.00657 -1.67829 0
M  V30 6985 C 636.712 -3.49515 0.746588 0
M  V30 6986 C 636.378 -3.94955 2.17535 0
M  V30 6987 C 635.04 -4.07073 2.56603 0
M  V30 6988 C 637.392 -4.18536 3.10607 0
M  V30 6989 C 634.72 -4.40138 3.87938 0
M  V30 6990 C 637.072 -4.53073 4.41484 0
M  V30 6991 C 635.736 -4.634 4.80434 0
M  V30 6992 H 635.006 -0.71658 0.188666 0
M  V30 6993 H 637.653 -1.54574 1.13045 0
M  V30 6994 H 635.958 -3.9177 0.0487551 0
M  V30 6995 H 637.655 -3.98644 0.434009 0
M  V30 6996 H 634.245 -3.86035 1.86212 0
M  V30 6997 H 638.429 -4.08646 2.81641 0
M  V30 6998 H 633.685 -4.46335 4.17846 0
M  V30 6999 H 637.859 -4.70269 5.13634 0
M  V30 7000 H 635.486 -4.88775 5.82239 0
M  V30 7001 N 637.061 -0.65484 -1.43351 0
M  V30 7002 C 638.477 -0.32255 -1.56307 0
M  V30 7003 C 638.677 1.17324 -1.63821 0
M  V30 7004 O 637.733 1.95813 -1.59417 0
M  V30 7005 C 639.046 -1.03533 -2.82314 0
M  V30 7006 C 640.594 -1.01574 -2.9606 0
M  V30 7007 C 641.069 -1.70945 -4.24902 0
M  V30 7008 N 642.56 -1.67716 -4.3177 0
M  V30 7009 C 643.295 -2.18265 -5.30234 0
M  V30 7010 N 642.791 -2.7711 -6.34966 0
M  V30 7011 N 644.584 -2.08756 -5.21898 0
M  V30 7012 H 636.735 -1.62549 -1.36717 0
M  V30 7013 H 638.998 -0.683676 -0.656727 0
M  V30 7014 H 638.704 -2.09045 -2.8283 0
M  V30 7015 H 638.578 -0.587913 -3.7259 0
M  V30 7016 H 640.965 0.0309834 -2.95084 0
M  V30 7017 H 641.046 -1.50186 -2.07069 0
M  V30 7018 H 640.69 -2.75574 -4.26639 0
M  V30 7019 H 640.62 -1.19797 -5.12793 0
M  V30 7020 H 643.111 -1.24777 -3.56706 0
M  V30 7021 H 643.424 -3.13353 -7.06421 0
M  V30 7022 H 641.769 -2.81171 -6.35585 0
M  V30 7023 H 644.96 -1.62488 -4.38994 0
M  V30 7024 H 645.133 -2.48459 -5.98475 0
M  V30 7025 N 638.539 1.52521 -0.396863 0
M  V30 7026 C 639.955 1.5953 -0.0471659 0
M  V30 7027 C 640.155 1.41044 1.43906 0
M  V30 7028 O 639.211 1.23122 2.20448 0
M  V30 7029 C 640.524 2.95972 -0.531113 0
M  V30 7030 C 642.072 3.09172 -0.488024 0
M  V30 7031 C 642.547 4.48075 -0.948281 0
M  V30 7032 N 644.038 4.54281 -0.9046 0
M  V30 7033 C 644.773 5.60007 -1.23205 0
M  V30 7034 N 644.269 6.73343 -1.63036 0
M  V30 7035 N 646.062 5.50151 -1.15282 0
M  V30 7036 H 638.213 1.62786 -1.36435 0
M  V30 7037 H 640.476 0.76514 -0.559701 0
M  V30 7038 H 640.182 3.14741 -1.56942 0
M  V30 7039 H 640.056 3.77143 0.0657922 0
M  V30 7040 H 642.443 2.90095 0.541211 0
M  V30 7041 H 642.524 2.29937 -1.12083 0
M  V30 7042 H 642.168 4.67894 -1.97578 0
M  V30 7043 H 642.098 5.25788 -0.292412 0
M  V30 7044 H 644.589 3.72918 -0.6116 0
M  V30 7045 H 644.902 7.49992 -1.86365 0
M  V30 7046 H 643.247 6.74655 -1.66929 0
M  V30 7047 H 646.438 4.6049 -0.840602 0
M  V30 7048 H 646.611 6.32444 -1.41133 0
M  V30 7049 N 640.017 0.126909 1.57088 0
M  V30 7050 C 641.245 -0.53667 1.99819 0
M  V30 7051 C 641.66 -1.5972 1.00673 0
M  V30 7052 O 641.017 -1.825 0.000747365 0
M  V30 7053 C 641.068 -1.15563 3.42531 0
M  V30 7054 O 640.789 -0.137483 4.37884 0
M  V30 7055 C 642.29 -1.90176 4.00435 0
M  V30 7056 H 639.51 -0.141443 0.655923 0
M  V30 7057 H 642.054 0.215578 2.03361 0
M  V30 7058 H 640.209 -1.85861 3.39904 0
M  V30 7059 H 640.623 -0.588229 5.21191 0
M  V30 7060 H 642.097 -2.28801 5.02349 0
M  V30 7061 H 642.574 -2.78002 3.40017 0
M  V30 7062 H 643.18 -1.24623 4.06632 0
M  V30 7063 N 641.495 -1.56914 -0.146875 0
M  V30 7064 C 642.458 -1.97368 -1.16526 0
M  V30 7065 C 643.458 -0.860223 -1.35856 0
M  V30 7066 O 644.648 -1.12684 -1.32846 0
M  V30 7067 C 641.78 -2.28974 -2.52555 0
M  V30 7068 H 642.973 -2.88523 -0.818209 0
M  V30 7069 H 640.526 -1.5135 -0.390221 0
M  V30 7070 H 641.261 -1.40611 -2.92231 0
M  V30 7071 H 641.046 -3.10157 -2.39886 0
M  V30 7072 H 642.536 -2.61109 -3.25902 0
M  V30 7073 N 642.974 0.416227 -1.52004 0
M  V30 7074 C 644.251 1.17637 -1.56272 0
M  V30 7075 C 644.631 2.08352 -0.339493 0
M  V30 7076 O 643.979 2.1833 0.674124 0
M  V30 7077 C 644.189 1.95986 -2.88774 0
M  V30 7078 C 645.537 2.52299 -3.41512 0
M  V30 7079 O 646.561 2.06174 -2.90467 0
M  V30 7080 O 645.42 3.3648 -4.30631 0
M  V30 7081 H 642.514 0.536726 -0.629169 0
M  V30 7082 H 645.06 0.423583 -1.64329 0
M  V30 7083 H 643.832 1.29487 -3.69254 0
M  V30 7084 H 643.455 2.78285 -2.83978 0
M  V30 7085 N 644.452 1.42507 0.673017 0
M  V30 7086 C 645.362 1.4853 1.81593 0
M  V30 7087 C 646.378 0.373907 1.69935 0
M  V30 7088 O 647.554 0.625078 1.91454 0
M  V30 7089 C 644.619 1.387 3.17747 0
M  V30 7090 C 643.68 2.60346 3.41348 0
M  V30 7091 C 642.913 2.50975 4.71007 0
M  V30 7092 O 643.136 1.54659 5.49033 0
M  V30 7093 O 642.07 3.41138 4.95892 0
M  V30 7094 H 645.896 2.45001 1.79467 0
M  V30 7095 H 643.481 1.2429 0.82899 0
M  V30 7096 H 645.363 1.35586 3.98992 0
M  V30 7097 H 644.038 0.453555 3.20507 0
M  V30 7098 H 642.945 2.69034 2.59945 0
M  V30 7099 H 644.278 3.52595 3.43421 0
M  V30 7100 N 645.93 -0.909495 1.28709 0
M  V30 7101 C 646.893 -1.99399 1.13016 0
M  V30 7102 C 647.893 -1.60654 0.068536 0
M  V30 7103 O 649.083 -1.71334 0.314671 0
M  V30 7104 C 646.215 -3.33078 0.726085 0
M  V30 7105 H 647.408 -2.14751 2.09338 0
M  V30 7106 H 644.961 -1.09272 1.11756 0
M  V30 7107 H 645.696 -3.23428 -0.23771 0
M  V30 7108 H 645.481 -3.62562 1.49302 0
M  V30 7109 H 646.971 -4.12681 0.639058 0
M  V30 7110 N 647.408 -1.11026 -1.11852 0
M  V30 7111 C 648.636 -0.878818 -1.87308 0
M  V30 7112 C 649.051 0.57111 -1.79955 0
M  V30 7113 O 648.408 1.39409 -1.17777 0
M  V30 7114 C 648.459 -1.3264 -3.36287 0
M  V30 7115 O 648.18 -2.71948 -3.43476 0
M  V30 7116 C 649.681 -1.12974 -4.28663 0
M  V30 7117 H 646.901 -0.315015 -0.592458 0
M  V30 7118 H 649.445 -1.47649 -1.41492 0
M  V30 7119 H 647.6 -0.772269 -3.79625 0
M  V30 7120 H 648.014 -2.91241 -4.3621 0
M  V30 7121 H 649.488 -1.49198 -5.31454 0
M  V30 7122 H 649.965 -0.0689127 -4.39146 0
M  V30 7123 H 650.571 -1.67064 -3.91113 0
M  V30 7124 N 648.886 1.2938 -0.899927 0
M  V30 7125 C 649.834 2.29675 -0.367698 0
M  V30 7126 C 650.828 1.60787 0.533282 0
M  V30 7127 O 652.034 1.75126 0.416058 0
M  V30 7128 H 648.409 0.745284 -0.100279 0
M  V30 7129 H 650.38 2.72008 -1.22696 0
M  V30 7130 C 649.129 3.45512 0.389483 0
M  V30 7131 H 648.452 3.98713 -0.294575 0
M  V30 7132 H 649.892 4.17725 0.726744 0
M  V30 7133 C 648.351 2.969 1.59223 0
M  V30 7134 O 648.881 2.98195 2.69152 0
M  V30 7135 N 647.087 2.52728 1.43447 0
M  V30 7136 H 646.634 2.51873 0.540148 0
M  V30 7137 H 646.592 2.20561 2.24054 0
M  V30 7138 N 650.364 0.662433 1.43002 0
M  V30 7139 C 651.592 0.187615 2.06048 0
M  V30 7140 C 652.007 -1.15039 1.49705 0
M  V30 7141 O 651.364 -1.71209 0.631956 0
M  V30 7142 C 651.415 0.100498 3.6136 0
M  V30 7143 O 651.136 1.38562 4.15611 0
M  V30 7144 C 652.637 -0.399298 4.41498 0
M  V30 7145 H 649.857 0.0941675 0.664359 0
M  V30 7146 H 652.401 0.905681 1.83351 0
M  V30 7147 H 650.556 -0.568181 3.83211 0
M  V30 7148 H 650.97 1.25084 5.09366 0
M  V30 7149 H 652.444 -0.409187 5.50481 0
M  V30 7150 H 652.921 -1.43232 4.15188 0
M  V30 7151 H 653.527 0.23721 4.24638 0
M  V30 7152 N 651.842 -1.52309 0.404946 0
M  V30 7153 C 653.09 -2.01368 -0.17186 0
M  V30 7154 C 653.411 -1.29261 -1.46002 0
M  V30 7155 O 652.681 -0.41729 -1.91404 0
M  V30 7156 H 651.261 -0.744034 -0.0664993 0
M  V30 7157 H 653.923 -1.87263 0.540228 0
M  V30 7158 H 653.019 -3.09888 -0.370957 0
M  V30 7159 N 653.32 -0.135238 -1.57019 0
M  V30 7160 C 654.731 0.387521 -1.82634 0
M  V30 7161 C 655.082 1.65528 -1.05332 0
M  V30 7162 O 654.207 2.14381 -0.294926 0
M  V30 7163 C 654.802 0.709852 -3.3128 0
M  V30 7164 C 653.361 1.17718 -3.57518 0
M  V30 7165 C 652.508 0.194183 -2.76619 0
M  V30 7166 H 655.459 -0.360126 -1.5456 0
M  V30 7167 H 655.48 1.5657 -3.46794 0
M  V30 7168 H 654.992 -0.213024 -3.87515 0
M  V30 7169 H 653.093 2.1164 -3.06658 0
M  V30 7170 H 653.206 1.11128 -4.66034 0
M  V30 7171 H 651.57 0.684478 -2.4533 0
M  V30 7172 H 652.353 -0.722076 -3.3562 0
M  V30 7173 N 654.798 1.5699 0.138552 0
M  V30 7174 C 655.761 1.97984 1.15478 0
M  V30 7175 C 656.761 0.867416 1.35398 0
M  V30 7176 O 657.951 1.13387 1.32246 0
M  V30 7177 C 655.083 2.3031 2.51337 0
M  V30 7178 H 656.276 2.88953 0.802896 0
M  V30 7179 H 653.829 1.51555 0.382189 0
M  V30 7180 H 654.564 1.42159 2.91481 0
M  V30 7181 H 654.349 3.11425 2.38237 0
M  V30 7182 H 655.839 2.62834 3.24512 0
M  V30 7183 N 656.276 -0.40816 1.52223 0
M  V30 7184 C 657.524 -1.15274 1.66001 0
M  V30 7185 C 657.845 -1.91003 0.392803 0
M  V30 7186 O 657.115 -1.8673 -0.592336 0
M  V30 7187 H 655.695 -0.428526 0.611861 0
M  V30 7188 H 658.357 -0.46512 1.89269 0
M  V30 7189 H 657.453 -1.86628 2.50153 0
M  V30 7190 N 657.755 -1.42862 -0.66545 0
M  V30 7191 C 658.98 -1.47456 -1.45848 0
M  V30 7192 C 659.405 -0.0900312 -1.87884 0
M  V30 7193 O 658.763 0.913587 -1.56599 0
M  V30 7194 C 658.811 -2.41514 -2.67774 0
M  V30 7195 O 657.915 -1.89296 -3.66389 0
M  V30 7196 H 657.256 -0.499236 -0.437789 0
M  V30 7197 H 659.786 -1.8765 -0.815394 0
M  V30 7198 H 659.796 -2.58409 -3.15735 0
M  V30 7199 H 658.471 -3.42099 -2.36519 0
M  V30 7200 H 657.048 -1.82003 -3.25468 0
M  V30 7201 N 659.233 0.902656 -1.29189 0
M  V30 7202 C 660.458 1.69167 -1.19989 0
M  V30 7203 C 660.883 1.86607 0.236495 0
M  V30 7204 O 660.241 1.38425 1.17082 0
M  V30 7205 C 660.289 3.05532 -1.91527 0
M  V30 7206 O 659.393 3.93621 -1.2303 0
M  V30 7207 H 658.734 0.517584 -0.415936 0
M  V30 7208 H 661.264 1.12785 -1.70706 0
M  V30 7209 H 661.274 3.55693 -1.99866 0
M  V30 7210 H 659.949 2.92156 -2.96003 0
M  V30 7211 H 658.526 3.52055 -1.22928 0
M  V30 7212 N 660.711 1.11618 1.11262 0
M  V30 7213 C 661.674 0.779447 2.15539 0
M  V30 7214 C 662.674 -0.202081 1.59525 0
M  V30 7215 O 663.864 0.0226356 1.74185 0
M  V30 7216 C 660.996 0.15674 3.40539 0
M  V30 7217 H 662.189 1.70324 2.4684 0
M  V30 7218 H 659.742 0.918298 1.26479 0
M  V30 7219 H 660.477 -0.777186 3.1485 0
M  V30 7220 H 660.262 0.863308 3.82478 0
M  V30 7221 H 661.752 -0.062661 4.17553 0
M  V30 7222 N 662.189 -1.289 0.906776 0
M  V30 7223 C 663.414 -1.99939 0.551303 0
M  V30 7224 C 663.839 -1.67366 -0.858496 0
M  V30 7225 O 663.197 -0.902176 -1.57259 0
M  V30 7226 C 663.245 -3.52523 0.758937 0
M  V30 7227 O 662.349 -4.11983 -0.185308 0
M  V30 7228 H 661.69 -0.628376 0.214568 0
M  V30 7229 H 664.22 -1.64225 1.2203 0
M  V30 7230 H 664.23 -4.02522 0.666329 0
M  V30 7231 H 662.905 -3.75566 1.78671 0
M  V30 7232 H 661.482 -3.72873 -0.0445577 0
M  V30 7233 N 663.667 -0.670007 -1.42649 0
M  V30 7234 C 664.895 -0.19854 -2.05945 0
M  V30 7235 C 665.31 1.14243 -1.50313 0
M  V30 7236 O 664.667 1.70872 -0.641027 0
M  V30 7237 C 664.718 -0.11966 -3.61302 0
M  V30 7238 O 664.439 -1.40764 -4.1487 0
M  V30 7239 C 665.94 0.375878 -4.41704 0
M  V30 7240 H 663.16 -0.0976894 -0.663851 0
M  V30 7241 H 665.704 -0.915392 -1.82868 0
M  V30 7242 H 663.859 0.547851 -3.83507 0
M  V30 7243 H 664.273 -1.27784 -5.08696 0
M  V30 7244 H 665.747 0.379988 -5.50691 0
M  V30 7245 H 666.224 1.41028 -4.15942 0
M  V30 7246 H 666.83 -0.259727 -4.24506 0
M  V30 7247 N 665.145 1.52092 -0.413018 0
M  V30 7248 C 666.37 2.06756 0.163338 0
M  V30 7249 C 666.795 1.28073 1.37764 0
M  V30 7250 O 666.153 0.312015 1.78595 0
M  V30 7251 C 666.201 3.57278 0.488322 0
M  V30 7252 O 665.305 3.80986 1.57871 0
M  V30 7253 H 664.646 0.663882 0.0125068 0
M  V30 7254 H 667.176 1.95988 -0.587339 0
M  V30 7255 H 667.186 4.01125 0.745836 0
M  V30 7256 H 665.861 4.13978 -0.399327 0
M  V30 7257 H 664.438 3.49017 1.31306 0
M  V30 7258 N 666.623 0.143563 1.56945 0
M  V30 7259 C 668.034 -0.37783 1.82837 0
M  V30 7260 C 668.385 -1.64967 1.06209 0
M  V30 7261 O 667.51 -2.14221 0.306291 0
M  V30 7262 C 668.105 -0.692274 3.31652 0
M  V30 7263 C 666.664 -1.1582 3.58138 0
M  V30 7264 C 665.811 -0.17951 2.76718 0
M  V30 7265 H 668.762 0.368317 1.54367 0
M  V30 7266 H 668.783 -1.54729 3.47619 0
M  V30 7267 H 668.295 0.233572 3.87397 0
M  V30 7268 H 666.396 -2.10011 3.07776 0
M  V30 7269 H 666.509 -1.08655 4.66616 0
M  V30 7270 H 664.873 -0.671458 2.4569 0
M  V30 7271 H 665.656 0.739865 3.35233 0
M  V30 7272 N 668.101 -1.57061 -0.130224 0
M  V30 7273 C 669.064 -1.98593 -1.14426 0
M  V30 7274 C 670.064 -0.874584 -1.34936 0
M  V30 7275 O 671.254 -1.14086 -1.31643 0
M  V30 7276 C 668.386 -2.31639 -2.50112 0
M  V30 7277 H 669.579 -2.89374 -0.787561 0
M  V30 7278 H 667.132 -1.51756 -0.374146 0
M  V30 7279 H 667.867 -1.43703 -2.90723 0
M  V30 7280 H 667.652 -3.12684 -2.36583 0
M  V30 7281 H 669.142 -2.64551 -3.23114 0
M  V30 7282 N 669.579 0.400081 -1.52437 0
M  V30 7283 C 670.99 0.97851 -1.59003 0
M  V30 7284 C 671.341 1.91293 -0.436068 0
M  V30 7285 O 670.466 2.1183 0.442365 0
M  V30 7286 C 671.061 1.78145 -2.88184 0
M  V30 7287 C 669.62 2.30976 -2.97199 0
M  V30 7288 C 668.767 1.11212 -2.54022 0
M  V30 7289 H 671.718 0.180002 -1.57676 0
M  V30 7290 H 671.739 2.63968 -2.74046 0
M  V30 7291 H 671.251 1.1011 -3.72152 0
M  V30 7292 H 669.352 3.02355 -2.17744 0
M  V30 7293 H 669.465 2.61221 -4.01622 0
M  V30 7294 H 667.829 1.46882 -2.08081 0
M  V30 7295 H 668.612 0.447307 -3.40373 0
M  V30 7296 N 671.057 1.43213 0.657864 0
M  V30 7297 C 671.987 1.50815 1.78262 0
M  V30 7298 C 672.968 0.363211 1.66177 0
M  V30 7299 O 674.153 0.579806 1.85343 0
M  V30 7300 C 671.283 1.42625 3.16663 0
M  V30 7301 C 670.237 2.5532 3.43505 0
M  V30 7302 C 669.563 2.32184 4.81658 0
M  V30 7303 C 670.863 3.97583 3.38711 0
M  V30 7304 H 672.557 2.44954 1.72157 0
M  V30 7305 H 670.103 1.17896 0.82683 0
M  V30 7306 H 672.056 1.46548 3.95097 0
M  V30 7307 H 670.78 0.449877 3.23487 0
M  V30 7308 H 669.439 2.50742 2.6744 0
M  V30 7309 H 669.087 1.32801 4.85153 0
M  V30 7310 H 668.787 3.07724 5.00579 0
M  V30 7311 H 670.311 2.37883 5.62356 0
M  V30 7312 H 671.725 4.03673 4.07089 0
M  V30 7313 H 670.122 4.73112 3.69168 0
M  V30 7314 H 671.192 4.23049 2.36976 0
M  V30 7315 N 672.536 -0.895792 1.29666 0
M  V30 7316 C 673.813 -1.62723 1.08538 0
M  V30 7317 C 674.193 -2.07848 -0.369119 0
M  V30 7318 O 673.541 -1.8372 -1.35864 0
M  V30 7319 C 673.751 -2.80505 2.07648 0
M  V30 7320 C 675.099 -3.51098 2.3878 0
M  V30 7321 O 676.123 -2.90679 2.05874 0
M  V30 7322 O 674.982 -4.60028 2.9502 0
M  V30 7323 H 672.076 -0.714692 0.416106 0
M  V30 7324 H 674.622 -0.943517 1.41053 0
M  V30 7325 H 673.394 -2.44386 3.05599 0
M  V30 7326 H 673.017 -3.5658 1.75887 0
M  V30 7327 N 674.014 -1.12206 -1.10668 0
M  V30 7328 C 675.242 -0.898635 -1.86366 0
M  V30 7329 C 675.657 0.551991 -1.80551 0
M  V30 7330 O 675.014 1.38152 -1.19249 0
M  V30 7331 C 675.065 -1.36199 -3.34861 0
M  V30 7332 O 674.786 -2.75576 -3.40573 0
M  V30 7333 C 676.287 -1.17515 -4.2744 0
M  V30 7334 H 673.507 -0.321281 -0.589084 0
M  V30 7335 H 676.051 -1.49142 -1.39918 0
M  V30 7336 H 674.206 -0.81249 -3.78784 0
M  V30 7337 H 674.62 -2.95851 -4.33096 0
M  V30 7338 H 676.094 -1.54827 -5.29842 0
M  V30 7339 H 676.571 -0.115486 -4.39048 0
M  V30 7340 H 677.177 -1.71203 -3.89319 0
M  V30 7341 N 675.492 1.28418 -0.913599 0
M  V30 7342 C 676.732 1.96756 -0.553771 0
M  V30 7343 C 677.096 1.70334 0.886013 0
M  V30 7344 O 678.297 2.32242 1.35341 0
M  V30 7345 C 676.568 3.47041 -0.854249 0
M  V30 7346 S 678.127 4.34667 -0.600816 0
M  V30 7347 H 674.945 0.680831 -0.204915 0
M  V30 7348 H 677.547 1.55947 -1.17902 0
M  V30 7349 H 676.251 3.63766 -1.90007 0
M  V30 7350 H 675.782 3.92797 -0.217651 0
M  V30 7351 H 677.797 4.93166 0.547906 0
M  V30 7352 N 676.97 0.677563 1.42291 0
M  V30 7353 C 678.381 0.277912 1.8462 0
M  V30 7354 C 678.732 -1.18048 1.56714 0
M  V30 7355 O 677.857 -1.90404 1.02836 0
M  V30 7356 C 678.452 0.497619 3.35126 0
M  V30 7357 C 677.011 0.152063 3.76093 0
M  V30 7358 C 676.158 0.78872 2.65847 0
M  V30 7359 H 679.109 0.879527 1.32098 0
M  V30 7360 H 679.13 -0.24939 3.79682 0
M  V30 7361 H 678.642 1.55913 3.55405 0
M  V30 7362 H 676.743 -0.905896 3.6142 0
M  V30 7363 H 676.856 0.594514 4.75397 0
M  V30 7364 H 675.22 0.219813 2.5375 0
M  V30 7365 H 676.003 1.85374 2.88949 0
M  V30 7366 N 678.448 -1.51871 0.421078 0
M  V30 7367 C 679.673 -2.0684 -0.152371 0
M  V30 7368 C 680.098 -1.28802 -1.37083 0
M  V30 7369 O 679.456 -0.321482 -1.78427 0
M  V30 7370 C 679.504 -3.57532 -0.469368 0
M  V30 7371 O 678.608 -3.81818 -1.55848 0
M  V30 7372 H 677.949 -0.663939 -0.00898586 0
M  V30 7373 H 680.479 -1.95674 0.597724 0
M  V30 7374 H 680.489 -4.01515 -0.724553 0
M  V30 7375 H 679.164 -4.13761 0.421276 0
M  V30 7376 H 677.741 -3.49709 -1.29453 0
M  V30 7377 N 679.926 -0.151884 -1.56866 0
M  V30 7378 C 681.151 0.508044 -2.01081 0
M  V30 7379 C 681.576 1.57306 -1.03134 0
M  V30 7380 O 680.934 1.81298 -0.0078309 0
M  V30 7381 C 680.982 1.08106 -3.44014 0
M  V30 7382 O 680.086 2.19577 -3.49084 0
M  V30 7383 H 679.427 0.123757 -0.652365 0
M  V30 7384 H 681.957 -0.250055 -2.03066 0
M  V30 7385 H 681.967 1.40851 -3.82916 0
M  V30 7386 H 680.642 0.301168 -4.14808 0
M  V30 7387 H 679.219 1.88023 -3.22027 0
M  V30 7388 N 681.404 1.57128 0.121893 0
M  V30 7389 C 682.629 1.89254 0.848385 0
M  V30 7390 C 683.054 0.743527 1.72781 0
M  V30 7391 O 682.412 -0.306056 1.78698 0
M  V30 7392 C 682.46 3.20113 1.66012 0
M  V30 7393 O 681.564 3.05815 2.76679 0
M  V30 7394 H 680.905 0.621103 0.234793 0
M  V30 7395 H 683.435 2.0433 0.10516 0
M  V30 7396 H 683.445 3.52761 2.04996 0
M  V30 7397 H 682.12 4.03336 1.01452 0
M  V30 7398 H 680.697 2.84627 2.40918 0
M  V30 7399 N 682.882 -0.391992 1.52647 0
M  V30 7400 C 684.11 -1.1586 1.71418 0
M  V30 7401 C 684.525 -1.8381 0.431216 0
M  V30 7402 O 683.882 -1.7256 -0.594085 0
M  V30 7403 C 683.933 -2.20888 2.86165 0
M  V30 7404 O 683.654 -1.5571 4.09495 0
M  V30 7405 C 685.155 -3.103 3.1659 0
M  V30 7406 H 682.375 -0.347494 0.574011 0
M  V30 7407 H 684.919 -0.458972 1.99283 0
M  V30 7408 H 683.074 -2.86492 2.6077 0
M  V30 7409 H 683.488 -2.25474 4.73563 0
M  V30 7410 H 684.962 -3.8003 4.00351 0
M  V30 7411 H 685.439 -3.73639 2.30848 0
M  V30 7412 H 686.045 -2.50345 3.43813 0
M  V30 7413 N 684.36 -1.4356 -0.65026 0
M  V30 7414 C 685.323 -1.48615 -1.74489 0
M  V30 7415 C 686.323 -0.370483 -1.56474 0
M  V30 7416 O 687.513 -0.632351 -1.62317 0
M  V30 7417 C 684.645 -1.34161 -3.13391 0
M  V30 7418 H 685.838 -2.46103 -1.71387 0
M  V30 7419 H 683.391 -1.30369 -0.862186 0
M  V30 7420 H 684.126 -0.376918 -3.22102 0
M  V30 7421 H 683.911 -2.1504 -3.27872 0
M  V30 7422 H 685.401 -1.40637 -3.93206 0
M  V30 7423 N 685.838 0.888903 -1.30139 0
M  V30 7424 C 687.063 1.67884 -1.21777 0
M  V30 7425 C 687.488 1.86848 0.216689 0
M  V30 7426 O 686.846 1.39659 1.15608 0
M  V30 7427 C 686.894 3.03483 -1.94757 0
M  V30 7428 O 685.998 3.92294 -1.27198 0
M  V30 7429 H 685.339 0.513144 -0.421402 0
M  V30 7430 H 687.869 1.10968 -1.71893 0
M  V30 7431 H 687.879 3.53553 -2.03627 0
M  V30 7432 H 686.554 2.89 -2.99085 0
M  V30 7433 H 685.131 3.50732 -1.26655 0
M  V30 7434 N 687.317 1.12792 1.10072 0
M  V30 7435 C 688.542 0.908838 1.86427 0
M  V30 7436 C 688.967 -0.536793 1.80278 0
M  V30 7437 O 688.325 -1.38033 1.17543 0
M  V30 7438 C 688.373 1.39295 3.3261 0
M  V30 7439 O 687.477 0.573846 4.08388 0
M  V30 7440 H 686.818 0.326234 0.578331 0
M  V30 7441 H 689.348 1.50094 1.39043 0
M  V30 7442 H 689.358 1.39366 3.83459 0
M  V30 7443 H 688.033 2.44555 3.36401 0
M  V30 7444 H 686.61 0.640438 3.67359 0
M  V30 7445 N 688.795 -1.27931 0.920396 0
M  V30 7446 C 690.044 -1.93975 0.552867 0
M  V30 7447 C 690.357 -1.73193 -0.909035 0
M  V30 7448 O 691.563 -2.33515 -1.38502 0
M  V30 7449 C 690.019 -3.47463 0.937947 0
M  V30 7450 C 689.627 -3.77013 2.42003 0
M  V30 7451 C 691.371 -4.19628 0.64132 0
M  V30 7452 C 689.278 -5.23841 2.74489 0
M  V30 7453 H 688.208 -0.726146 0.203046 0
M  V30 7454 H 690.859 -1.45339 1.12022 0
M  V30 7455 H 689.241 -3.94867 0.299317 0
M  V30 7456 H 690.415 -3.40393 3.10595 0
M  V30 7457 H 688.73 -3.18035 2.6878 0
M  V30 7458 H 691.327 -5.27729 0.860622 0
M  V30 7459 H 691.67 -4.14164 -0.421168 0
M  V30 7460 H 692.203 -3.78022 1.23872 0
M  V30 7461 H 688.942 -5.34388 3.79618 0
M  V30 7462 H 688.462 -5.61634 2.1054 0
M  V30 7463 H 690.141 -5.91647 2.61845 0
M  V30 7464 N 690.273 -0.685099 -1.4193 0
M  V30 7465 C 691.498 -0.218842 -2.06242 0
M  V30 7466 C 691.923 1.11923 -1.51178 0
M  V30 7467 O 691.281 1.69837 -0.634446 0
M  V30 7468 C 691.329 -0.175592 -3.60172 0
M  V30 7469 O 690.433 0.852776 -4.03487 0
M  V30 7470 H 689.774 -0.109531 -0.654904 0
M  V30 7471 H 692.304 -0.937013 -1.81882 0
M  V30 7472 H 692.314 -0.00291151 -4.08 0
M  V30 7473 H 690.989 -1.15222 -3.99621 0
M  V30 7474 H 689.566 0.650301 -3.67186 0
M  V30 7475 N 691.751 1.51645 -0.429126 0
M  V30 7476 C 692.976 2.06917 0.141399 0
M  V30 7477 C 693.401 1.29527 1.36398 0
M  V30 7478 O 692.759 0.33094 1.78254 0
M  V30 7479 C 692.807 3.57776 0.4504 0
M  V30 7480 O 691.911 3.82639 1.53821 0
M  V30 7481 H 691.252 0.663978 0.0054647 0
M  V30 7482 H 693.782 1.95355 -0.608093 0
M  V30 7483 H 693.792 4.01894 0.703249 0
M  V30 7484 H 692.467 4.13532 -0.443213 0
M  V30 7485 H 691.044 3.5039 1.27597 0
M  V30 7486 N 693.229 0.160201 1.56784 0
M  V30 7487 C 694.454 -0.497373 2.01348 0
M  V30 7488 C 694.879 -1.56757 1.03966 0
M  V30 7489 O 694.237 -1.81292 0.0174455 0
M  V30 7490 C 694.285 -1.0628 3.44582 0
M  V30 7491 O 693.389 -2.17723 3.50244 0
M  V30 7492 H 692.73 -0.120295 0.653012 0
M  V30 7493 H 695.26 0.260821 2.02931 0
M  V30 7494 H 695.27 -1.38819 3.83658 0
M  V30 7495 H 693.945 -0.279166 4.14962 0
M  V30 7496 H 692.522 -1.86313 3.2302 0
M  V30 7497 N 694.707 -1.5719 -0.113559 0
M  V30 7498 C 695.955 -1.84772 -0.818761 0
M  V30 7499 C 696.276 -0.746196 -1.80158 0
M  V30 7500 O 695.546 0.229305 -1.94553 0
M  V30 7501 H 694.126 -0.681737 -0.305359 0
M  V30 7502 H 696.788 -1.94645 -0.0995845 0
M  V30 7503 H 695.884 -2.80878 -1.36067 0
M  V30 7504 N 696.185 0.383891 -1.52853 0
M  V30 7505 C 697.433 1.12619 -1.67814 0
M  V30 7506 C 697.754 1.90354 -0.423141 0
M  V30 7507 O 697.024 1.87649 0.562554 0
M  V30 7508 H 695.604 0.418738 -0.618601 0
M  V30 7509 H 698.266 0.43495 -1.89985 0
M  V30 7510 H 697.362 1.82624 -2.5309 0
M  V30 7511 N 697.663 1.43903 0.642637 0
M  V30 7512 C 698.888 1.49758 1.43483 0
M  V30 7513 C 699.313 0.119911 1.87717 0
M  V30 7514 O 698.671 -0.888558 1.58033 0
M  V30 7515 C 698.719 2.45744 2.63898 0
M  V30 7516 O 697.823 1.95101 3.63331 0
M  V30 7517 H 697.164 0.506138 0.429791 0
M  V30 7518 H 699.694 1.88923 0.785438 0
M  V30 7519 H 699.704 2.63399 3.11584 0
M  V30 7520 H 698.379 3.45818 2.31046 0
M  V30 7521 H 696.956 1.87158 3.22531 0
M  V30 7522 N 699.141 -0.881989 1.30609 0
M  V30 7523 C 700.366 -1.67236 1.22665 0
M  V30 7524 C 700.791 -1.8696 -0.206777 0
M  V30 7525 O 700.149 -1.4027 -1.14865 0
M  V30 7526 C 700.197 -3.02446 1.96363 0
M  V30 7527 O 699.301 -3.91614 1.29276 0
M  V30 7528 H 698.642 -0.510902 0.424117 0
M  V30 7529 H 701.172 -1.10055 1.72479 0
M  V30 7530 H 701.182 -3.52468 2.055 0
M  V30 7531 H 699.857 -2.8741 3.00613 0
M  V30 7532 H 698.434 -3.50055 1.28514 0
M  V30 7533 N 700.619 -1.13374 -1.09472 0
M  V30 7534 C 701.867 -0.893422 -1.8128 0
M  V30 7535 C 702.188 0.582029 -1.86111 0
M  V30 7536 O 701.458 1.42305 -1.34633 0
M  V30 7537 H 700.038 -0.327543 -0.67136 0
M  V30 7538 H 702.7 -1.43018 -1.32408 0
M  V30 7539 H 701.796 -1.28374 -2.84476 0
M  V30 7540 N 702.098 1.27442 -0.927168 0
M  V30 7541 C 703.323 1.99036 -0.583042 0
M  V30 7542 C 703.748 1.68711 0.83176 0
M  V30 7543 O 703.106 0.927081 1.55804 0
M  V30 7544 C 703.154 3.51271 -0.814925 0
M  V30 7545 O 702.258 4.12226 0.119742 0
M  V30 7546 H 701.599 0.624883 -0.224538 0
M  V30 7547 H 704.129 1.62263 -1.24628 0
M  V30 7548 H 704.139 4.01411 -0.730282 0
M  V30 7549 H 702.814 3.72676 -1.84623 0
M  V30 7550 H 701.391 3.72897 -0.0147688 0
M  V30 7551 N 703.576 0.692616 1.41565 0
M  V30 7552 C 704.801 0.229776 2.06123 0
M  V30 7553 C 705.226 -1.11119 1.5177 0
M  V30 7554 O 704.584 -1.69498 0.643444 0
M  V30 7555 C 704.632 0.19469 3.60074 0
M  V30 7556 O 703.736 -0.831366 4.03933 0
M  V30 7557 H 703.077 0.113002 0.654314 0
M  V30 7558 H 705.607 0.946645 1.81383 0
M  V30 7559 H 705.617 0.0245487 4.07993 0
M  V30 7560 H 704.292 1.17339 3.99004 0
M  V30 7561 H 702.869 -0.630819 3.67526 0
M  V30 7562 N 705.054 -1.51416 0.437162 0
M  V30 7563 C 706.279 -2.0699 -0.130424 0
M  V30 7564 C 706.704 -1.30249 -1.35709 0
M  V30 7565 O 706.062 -0.340388 -1.78076 0
M  V30 7566 C 706.11 -3.5801 -0.43142 0
M  V30 7567 O 705.214 -3.8345 -1.5179 0
M  V30 7568 H 704.555 -0.663997 -0.00194339 0
M  V30 7569 H 707.085 -1.95029 0.618445 0
M  V30 7570 H 707.095 -4.02261 -0.681926 0
M  V30 7571 H 705.77 -4.13291 0.465137 0
M  V30 7572 H 704.347 -3.51062 -1.25737 0
M  V30 7573 N 706.532 -0.168513 -1.56696 0
M  V30 7574 C 707.809 0.523367 -1.88468 0
M  V30 7575 C 708.189 1.81503 -1.07796 0
M  V30 7576 O 707.537 2.27859 -0.171045 0
M  V30 7577 C 707.747 0.767991 -3.40445 0
M  V30 7578 C 709.095 1.09924 -4.10124 0
M  V30 7579 O 710.119 0.856625 -3.45746 0
M  V30 7580 O 708.978 1.55681 -5.23856 0
M  V30 7581 H 706.072 0.269447 -0.781874 0
M  V30 7582 H 708.618 -0.206739 -1.68436 0
M  V30 7583 H 707.39 -0.145254 -3.9103 0
M  V30 7584 H 707.013 1.55151 -3.66079 0
M  V30 7585 N 708.01 1.57248 0.105221 0
M  V30 7586 C 708.958 2.02337 1.14728 0
M  V30 7587 C 709.952 0.922652 1.42069 0
M  V30 7588 O 711.158 1.10785 1.41869 0
M  V30 7589 H 707.533 0.644682 0.387155 0
M  V30 7590 H 709.504 2.89063 0.740607 0
M  V30 7591 C 708.253 2.45513 2.46209 0
M  V30 7592 H 707.576 3.29785 2.26013 0
M  V30 7593 H 709.016 2.80846 3.1765 0
M  V30 7594 C 707.475 1.3243 3.09781 0
M  V30 7595 O 708.005 0.647841 3.96442 0
M  V30 7596 N 706.211 1.07785 2.69872 0
M  V30 7597 H 705.758 1.62973 1.99493 0
M  V30 7598 H 705.716 0.323204 3.12734 0
M  V30 7599 N 709.488 -0.375779 1.53054 0
M  V30 7600 C 710.904 -0.716764 1.426 0
M  V30 7601 C 711.104 -1.93651 0.556931 0
M  V30 7602 O 710.16 -2.52475 0.0354461 0
M  V30 7603 C 711.473 -0.939499 2.85646 0
M  V30 7604 C 713.021 -1.04015 2.95212 0
M  V30 7605 C 713.496 -1.29543 4.39298 0
M  V30 7606 N 714.987 -1.36335 4.42682 0
M  V30 7607 C 715.722 -1.57778 5.51266 0
M  V30 7608 N 715.218 -1.76604 6.69913 0
M  V30 7609 N 717.011 -1.60065 5.38828 0
M  V30 7610 H 709.162 0.42664 2.08071 0
M  V30 7611 H 711.425 0.128758 0.939215 0
M  V30 7612 H 711.131 -0.115189 3.51511 0
M  V30 7613 H 711.005 -1.85048 3.2869 0
M  V30 7614 H 713.392 -1.85501 2.29507 0
M  V30 7615 H 713.473 -0.106785 2.55577 0
M  V30 7616 H 713.117 -0.485611 5.05573 0
M  V30 7617 H 713.047 -2.24184 4.76497 0
M  V30 7618 H 715.538 -1.23441 3.5717 0
M  V30 7619 H 715.851 -1.9251 7.48438 0
M  V30 7620 H 714.196 -1.73802 6.72917 0
M  V30 7621 H 717.387 -1.44917 4.45103 0
M  V30 7622 H 717.56 -1.76435 6.23518 0
M  V30 7623 N 710.966 -1.44241 -0.634997 0
M  V30 7624 C 712.194 -1.50296 -1.42193 0
M  V30 7625 C 712.609 -0.12658 -1.88375 0
M  V30 7626 O 711.966 0.86678 -1.60603 0
M  V30 7627 C 712.017 -2.46437 -2.64482 0
M  V30 7628 O 711.738 -3.78724 -2.20226 0
M  V30 7629 C 713.239 -2.61918 -3.57651 0
M  V30 7630 H 710.459 -0.509865 -0.43621 0
M  V30 7631 H 713.003 -1.89167 -0.776921 0
M  V30 7632 H 711.158 -2.10712 -3.25083 0
M  V30 7633 H 711.572 -4.30595 -2.9948 0
M  V30 7634 H 713.046 -3.33225 -4.40074 0
M  V30 7635 H 713.523 -1.67017 -4.06204 0
M  V30 7636 H 714.129 -2.98528 -3.02921 0
M  V30 7637 N 712.444 0.87505 -1.31075 0
M  V30 7638 C 713.674 1.65818 -1.2324 0
M  V30 7639 C 714.082 1.8808 0.205536 0
M  V30 7640 O 713.425 1.43548 1.14628 0
M  V30 7641 C 713.487 3.05131 -1.90093 0
M  V30 7642 C 713.151 3.05999 -3.39432 0
M  V30 7643 C 714.148 2.84328 -4.35263 0
M  V30 7644 C 711.833 3.27281 -3.81041 0
M  V30 7645 C 713.827 2.83912 -5.70678 0
M  V30 7646 C 711.514 3.26493 -5.16571 0
M  V30 7647 C 712.512 3.04834 -6.112 0
M  V30 7648 O 712.2 3.03882 -7.44252 0
M  V30 7649 H 711.932 0.52387 -0.427242 0
M  V30 7650 H 714.486 1.10086 -1.73408 0
M  V30 7651 H 712.716 3.62568 -1.34468 0
M  V30 7652 H 714.405 3.65641 -1.76242 0
M  V30 7653 H 715.171 2.67673 -4.04445 0
M  V30 7654 H 711.05 3.43171 -3.07822 0
M  V30 7655 H 714.594 2.66925 -6.44513 0
M  V30 7656 H 710.491 3.42687 -5.47025 0
M  V30 7657 H 711.259 3.19979 -7.53363 0
M  V30 7658 N 713.922 1.13953 1.08869 0
M  V30 7659 C 715.338 0.878924 1.33218 0
M  V30 7660 C 715.538 -0.482478 1.95638 0
M  V30 7661 O 714.594 -1.22778 2.2064 0
M  V30 7662 C 715.907 2.00798 2.23832 0
M  V30 7663 C 717.455 2.04073 2.37325 0
M  V30 7664 C 717.93 3.16258 3.31278 0
M  V30 7665 N 719.421 3.15805 3.38853 0
M  V30 7666 C 720.156 3.99249 4.11567 0
M  V30 7667 N 719.652 4.92721 4.87029 0
M  V30 7668 N 721.445 3.87327 4.0735 0
M  V30 7669 H 713.596 2.01645 0.66731 0
M  V30 7670 H 715.859 0.878395 0.356547 0
M  V30 7671 H 715.565 2.98986 1.85203 0
M  V30 7672 H 715.439 1.92704 3.24261 0
M  V30 7673 H 717.826 1.06495 2.75214 0
M  V30 7674 H 717.907 2.16239 1.36654 0
M  V30 7675 H 717.551 4.14079 2.9411 0
M  V30 7676 H 717.481 3.0133 4.31866 0
M  V30 7677 H 719.972 2.48102 2.8505 0
M  V30 7678 H 720.285 5.52867 5.39961 0
M  V30 7679 H 718.63 4.96723 4.86098 0
M  V30 7680 H 721.821 3.13627 3.475 0
M  V30 7681 H 721.994 4.52585 4.63757 0
M  V30 7682 N 715.4 -1.26948 0.933913 0
M  V30 7683 C 716.63 -1.97898 0.593279 0
M  V30 7684 C 717.038 -1.69806 -0.834412 0
M  V30 7685 O 716.381 -0.958704 -1.56699 0
M  V30 7686 C 716.443 -3.51657 0.746825 0
M  V30 7687 C 716.107 -4.03384 2.14779 0
M  V30 7688 C 717.104 -4.15682 3.12257 0
M  V30 7689 C 714.789 -4.37577 2.46641 0
M  V30 7690 C 716.783 -4.61455 4.39702 0
M  V30 7691 C 714.47 -4.8304 3.7432 0
M  V30 7692 C 715.468 -4.94939 4.70664 0
M  V30 7693 O 715.156 -5.39403 5.96071 0
M  V30 7694 H 714.888 -0.63814 0.223055 0
M  V30 7695 H 717.442 -1.62608 1.2549 0
M  V30 7696 H 715.672 -3.8669 0.0280889 0
M  V30 7697 H 717.361 -4.03821 0.410328 0
M  V30 7698 H 718.127 -3.89519 2.88964 0
M  V30 7699 H 714.006 -4.27554 1.72391 0
M  V30 7700 H 717.55 -4.70658 5.14905 0
M  V30 7701 H 713.447 -5.08646 3.97429 0
M  V30 7702 H 714.215 -5.57641 5.99148 0
M  V30 7703 N 716.879 -0.700114 -1.41195 0
M  V30 7704 C 718.104 -0.240704 -2.05998 0
M  V30 7705 C 718.529 1.10313 -1.52357 0
M  V30 7706 O 717.887 1.69154 -0.652424 0
M  V30 7707 C 717.935 -0.213783 -3.59966 0
M  V30 7708 O 717.039 0.809933 -4.04368 0
M  V30 7709 H 716.38 -0.116471 -0.653705 0
M  V30 7710 H 718.91 -0.956251 -1.80878 0
M  V30 7711 H 718.92 -0.0461852 -4.07974 0
M  V30 7712 H 717.595 -1.19454 -3.98376 0
M  V30 7713 H 716.172 0.611319 -3.67855 0
M  V30 7714 N 718.357 1.51182 -0.445186 0
M  V30 7715 C 719.305 2.29531 0.376597 0
M  V30 7716 C 720.299 1.35711 1.01385 0
M  V30 7717 O 721.505 1.53018 0.947922 0
M  V30 7718 H 717.88 0.738803 0.140267 0
M  V30 7719 H 719.851 2.96838 -0.304958 0
M  V30 7720 C 718.6 3.1552 1.4609 0
M  V30 7721 H 717.923 3.87605 0.979912 0
M  V30 7722 H 719.363 3.73384 2.009 0
M  V30 7723 C 717.822 2.31406 2.44852 0
M  V30 7724 O 718.352 1.97912 3.49562 0
M  V30 7725 N 716.558 1.94478 2.15932 0
M  V30 7726 H 716.105 2.21917 1.30808 0
M  V30 7727 H 716.063 1.38498 2.82251 0
M  V30 7728 N 719.835 0.176821 1.56605 0
M  V30 7729 C 721.251 -0.179278 1.5859 0
M  V30 7730 C 721.451 -1.62433 1.19238 0
M  V30 7731 O 720.507 -2.35665 0.906552 0
M  V30 7732 C 721.82 0.106524 3.00511 0
M  V30 7733 C 723.368 0.0451731 3.12967 0
M  V30 7734 C 723.843 0.304038 4.5699 0
M  V30 7735 N 725.334 0.252008 4.62514 0
M  V30 7736 C 726.069 0.426404 5.71812 0
M  V30 7737 N 725.565 0.660155 6.89648 0
M  V30 7738 N 727.358 0.361926 5.60934 0
M  V30 7739 H 719.509 1.12001 1.8047 0
M  V30 7740 H 721.772 0.445679 0.836704 0
M  V30 7741 H 721.478 1.10778 3.33798 0
M  V30 7742 H 721.352 -0.599337 3.72408 0
M  V30 7743 H 723.739 -0.946662 2.79504 0
M  V30 7744 H 723.82 0.78383 2.43495 0
M  V30 7745 H 723.464 1.29311 4.91163 0
M  V30 7746 H 723.394 -0.455294 5.24628 0
M  V30 7747 H 725.885 0.0772102 3.77821 0
M  V30 7748 H 726.198 0.782529 7.68828 0
M  V30 7749 H 724.543 0.696835 6.91498 0
M  V30 7750 H 727.734 0.17986 4.67754 0
M  V30 7751 H 727.907 0.501263 6.46058 0
M  V30 7752 N 721.313 -1.57302 -0.09688 0
M  V30 7753 C 722.543 -1.89926 -0.813114 0
M  V30 7754 C 722.951 -0.76852 -1.72888 0
M  V30 7755 O 722.294 0.268549 -1.81726 0
M  V30 7756 C 722.356 -3.17787 -1.68082 0
M  V30 7757 C 722.02 -4.4729 -0.937061 0
M  V30 7758 C 723.017 -5.1921 -0.267687 0
M  V30 7759 C 720.702 -4.93957 -0.911671 0
M  V30 7760 C 722.696 -6.36034 0.417129 0
M  V30 7761 C 720.383 -6.10693 -0.223068 0
M  V30 7762 C 721.381 -6.8158 0.440155 0
M  V30 7763 O 721.069 -7.96092 1.11772 0
M  V30 7764 H 720.801 -0.632783 -0.237828 0
M  V30 7765 H 723.355 -2.05248 -0.0790818 0
M  V30 7766 H 721.585 -2.98607 -2.45705 0
M  V30 7767 H 723.274 -3.36257 -2.27346 0
M  V30 7768 H 724.04 -4.84198 -0.278774 0
M  V30 7769 H 719.919 -4.38671 -1.41734 0
M  V30 7770 H 723.463 -6.91301 0.93537 0
M  V30 7771 H 719.36 -6.45159 -0.209821 0
M  V30 7772 H 720.128 -8.12064 1.02443 0
M  V30 7773 N 722.791 0.367657 -1.53252 0
M  V30 7774 C 724.031 1.11923 -1.71034 0
M  V30 7775 C 724.395 1.86618 -0.45143 0
M  V30 7776 O 725.596 2.63996 -0.505915 0
M  V30 7777 C 723.867 2.05461 -2.92439 0
M  V30 7778 S 725.426 2.88167 -3.30916 0
M  V30 7779 H 722.244 0.378549 -0.601848 0
M  V30 7780 H 724.846 0.400757 -1.91348 0
M  V30 7781 H 723.55 1.49346 -3.82262 0
M  V30 7782 H 723.081 2.81784 -2.7452 0
M  V30 7783 H 725.096 4.07746 -2.82767 0
M  V30 7784 N 724.269 1.44576 0.627338 0
M  V30 7785 C 725.517 1.47267 1.38408 0
M  V30 7786 C 725.838 0.107971 1.94701 0
M  V30 7787 O 725.108 -0.860206 1.76004 0
M  V30 7788 H 723.688 0.542276 0.513756 0
M  V30 7789 H 726.35 1.80383 0.738099 0
M  V30 7790 H 725.446 2.20025 2.21349 0
M  V30 7791 N 725.747 -0.868086 1.31537 0
M  V30 7792 C 726.995 -1.61807 1.21091 0
M  V30 7793 C 727.316 -1.93631 -0.230623 0
M  V30 7794 O 726.586 -1.5846 -1.15183 0
M  V30 7795 H 725.166 -0.599854 0.445178 0
M  V30 7796 H 727.828 -1.03915 1.64887 0
M  V30 7797 H 726.924 -2.56088 1.78396 0
M  V30 7798 N 727.225 -1.14528 -1.08264 0
M  V30 7799 C 728.636 -0.925261 -1.6216 0
M  V30 7800 C 728.987 0.535587 -1.88748 0
M  V30 7801 O 728.112 1.4048 -1.64604 0
M  V30 7802 C 728.707 -1.67316 -2.94603 0
M  V30 7803 C 727.266 -1.49868 -3.45278 0
M  V30 7804 C 726.413 -1.69471 -2.19487 0
M  V30 7805 H 729.364 -1.29687 -0.914707 0
M  V30 7806 H 729.385 -1.13721 -3.63109 0
M  V30 7807 H 728.897 -2.73635 -2.75219 0
M  V30 7808 H 726.998 -0.459032 -3.69762 0
M  V30 7809 H 727.111 -2.2696 -4.21931 0
M  V30 7810 H 725.475 -1.12048 -2.2873 0
M  V30 7811 H 726.258 -2.77136 -2.0261 0
M  V30 7812 N 728.703 1.26451 -0.940633 0
M  V30 7813 C 729.951 1.93395 -0.586748 0
M  V30 7814 C 730.272 1.7417 0.876921 0
M  V30 7815 O 729.542 1.097 1.62304 0
M  V30 7816 H 728.122 0.715687 -0.214012 0
M  V30 7817 H 730.784 1.53902 -1.19584 0
M  V30 7818 H 729.88 3.01565 -0.804059 0
M  V30 7819 N 730.181 0.707592 1.40822 0
M  V30 7820 C 731.592 0.317011 1.83989 0
M  V30 7821 C 731.943 -1.14697 1.59182 0
M  V30 7822 O 731.068 -1.8818 1.06852 0
M  V30 7823 C 731.663 0.568593 3.33995 0
M  V30 7824 C 730.222 0.231804 3.75686 0
M  V30 7825 C 729.369 0.844933 2.64114 0
M  V30 7826 H 732.32 0.907349 1.30203 0
M  V30 7827 H 732.341 -0.168798 3.80125 0
M  V30 7828 H 731.853 1.63417 3.52018 0
M  V30 7829 H 729.954 -0.82903 3.6326 0
M  V30 7830 H 730.067 0.695219 4.74029 0
M  V30 7831 H 728.431 0.273588 2.53226 0
M  V30 7832 H 729.214 1.91462 2.84951 0
M  V30 7833 N 731.66 -1.50943 0.453197 0
M  V30 7834 C 733.071 -1.86699 -0.00619892 0
M  V30 7835 C 733.422 -1.3693 -1.40515 0
M  V30 7836 O 732.547 -0.726715 -2.03833 0
M  V30 7837 C 733.142 -3.38795 -0.018025 0
M  V30 7838 C 731.701 -3.74028 -0.421885 0
M  V30 7839 C 730.848 -2.74752 0.375087 0
M  V30 7840 H 733.799 -1.43942 0.668317 0
M  V30 7841 H 733.82 -3.71468 -0.824125 0
M  V30 7842 H 733.332 -3.74988 1.00028 0
M  V30 7843 H 731.433 -3.43431 -1.44521 0
M  V30 7844 H 731.546 -4.78908 -0.135664 0
M  V30 7845 H 729.91 -2.5414 -0.168794 0
M  V30 7846 H 730.693 -3.13787 1.39256 0
M  V30 7847 N 733.138 -0.185124 -1.56509 0
M  V30 7848 C 734.387 0.456421 -1.96468 0
M  V30 7849 C 734.7 1.63448 -1.07444 0
M  V30 7850 O 735.906 2.34316 -1.37143 0
M  V30 7851 C 734.362 0.863404 -3.4939 0
M  V30 7852 C 733.97 -0.289815 -4.47062 0
M  V30 7853 C 735.714 1.47259 -3.98139 0
M  V30 7854 C 733.621 0.137571 -5.9124 0
M  V30 7855 H 732.551 0.17429 -0.733579 0
M  V30 7856 H 735.202 -0.275554 -1.81419 0
M  V30 7857 H 733.584 1.65176 -3.59907 0
M  V30 7858 H 734.758 -1.06728 -4.4827 0
M  V30 7859 H 733.073 -0.809851 -4.08449 0
M  V30 7860 H 735.67 1.80463 -5.03326 0
M  V30 7861 H 736.013 2.3755 -3.41871 0
M  V30 7862 H 736.546 0.748405 -3.90696 0
M  V30 7863 H 733.285 -0.730907 -6.51412 0
M  V30 7864 H 732.805 0.8801 -5.93308 0
M  V30 7865 H 734.484 0.576771 -6.44424 0
M  V30 7866 N 734.616 1.57351 0.0885366 0
M  V30 7867 C 735.844 1.90631 0.804196 0
M  V30 7868 C 736.259 0.779474 1.71958 0
M  V30 7869 O 735.616 -0.248179 1.80805 0
M  V30 7870 C 735.667 3.23568 1.61202 0
M  V30 7871 O 735.388 4.31917 0.733447 0
M  V30 7872 C 736.889 3.70753 2.43016 0
M  V30 7873 H 734.109 0.630501 0.229585 0
M  V30 7874 H 736.653 2.044 0.0638092 0
M  V30 7875 H 734.808 3.11377 2.30485 0
M  V30 7876 H 735.222 5.08297 1.29361 0
M  V30 7877 H 736.696 4.66447 2.9518 0
M  V30 7878 H 737.173 2.98922 3.2178 0
M  V30 7879 H 737.779 3.85834 1.7892 0
M  V30 7880 N 736.094 -0.359525 1.53444 0
M  V30 7881 C 737.371 -1.11756 1.6053 0
M  V30 7882 C 737.751 -2.06949 0.416587 0
M  V30 7883 O 737.099 -2.20681 -0.592628 0
M  V30 7884 C 737.309 -1.85133 2.95849 0
M  V30 7885 C 738.657 -2.3945 3.50641 0
M  V30 7886 O 739.681 -1.95251 2.97918 0
M  V30 7887 O 738.54 -3.20266 4.42823 0
M  V30 7888 H 735.634 -0.513005 0.648656 0
M  V30 7889 H 738.18 -0.362301 1.65787 0
M  V30 7890 H 736.952 -1.15694 3.73806 0
M  V30 7891 H 736.575 -2.67554 2.9411 0
M  V30 7892 N 737.572 -1.44907 -0.619662 0
M  V30 7893 C 738.812 -1.49822 -1.39042 0
M  V30 7894 C 739.176 -0.131803 -1.91547 0
M  V30 7895 O 740.377 -0.0556413 -2.68742 0
M  V30 7896 C 738.648 -2.53805 -2.5163 0
M  V30 7897 S 740.207 -2.77855 -3.3962 0
M  V30 7898 H 737.025 -0.529774 -0.474195 0
M  V30 7899 H 739.627 -1.81907 -0.716236 0
M  V30 7900 H 738.331 -3.51772 -2.11387 0
M  V30 7901 H 737.862 -2.23331 -3.23863 0
M  V30 7902 H 739.877 -2.10319 -4.49422 0
M  V30 7903 N 739.05 0.861098 -1.31996 0
M  V30 7904 C 739.96 2.00154 -1.22374 0
M  V30 7905 C 740.976 1.73447 -0.138631 0
M  V30 7906 O 742.152 1.98191 -0.358104 0
M  V30 7907 C 739.217 3.33696 -0.940645 0
M  V30 7908 C 738.278 3.73668 -2.11355 0
M  V30 7909 C 737.511 5.00837 -1.84386 0
M  V30 7910 O 737.734 5.64996 -0.783287 0
M  V30 7911 O 736.668 5.37787 -2.70313 0
M  V30 7912 H 740.494 2.11207 -2.18233 0
M  V30 7913 H 738.079 0.990768 -1.11822 0
M  V30 7914 H 739.961 4.13756 -0.798987 0
M  V30 7915 H 738.636 3.23698 -0.0121636 0
M  V30 7916 H 737.543 2.94211 -2.31065 0
M  V30 7917 H 738.876 3.88303 -3.02459 0
M  V30 7918 N 740.528 1.15101 1.07655 0
M  V30 7919 C 741.461 0.788522 2.14144 0
M  V30 7920 C 742.439 -0.233635 1.60913 0
M  V30 7921 O 743.623 -0.120908 1.88112 0
M  V30 7922 C 740.75 0.172033 3.38263 0
M  V30 7923 C 739.796 1.16559 4.10264 0
M  V30 7924 S 740.629 2.70627 4.62084 0
M  V30 7925 C 741.785 2.10389 5.8948 0
M  V30 7926 H 742.018 1.69047 2.44561 0
M  V30 7927 H 739.551 0.973033 1.19881 0
M  V30 7928 H 741.509 -0.177223 4.10117 0
M  V30 7929 H 740.17 -0.707468 3.06029 0
M  V30 7930 H 739.363 0.6824 4.99359 0
M  V30 7931 H 738.965 1.45923 3.44358 0
M  V30 7932 H 741.257 1.46405 6.61492 0
M  V30 7933 H 742.2 2.97639 6.42508 0
M  V30 7934 H 742.608 1.54816 5.42856 0
M  V30 7935 N 742.006 -1.2595 0.947325 0
M  V30 7936 C 742.954 -2.28152 0.452687 0
M  V30 7937 C 743.948 -1.62655 -0.473239 0
M  V30 7938 O 745.154 -1.76549 -0.350774 0
M  V30 7939 H 741.529 -0.741049 0.12787 0
M  V30 7940 H 743.5 -2.67267 1.32707 0
M  V30 7941 C 742.249 -3.46719 -0.26098 0
M  V30 7942 H 741.572 -3.97345 0.442352 0
M  V30 7943 H 743.012 -4.20135 -0.571208 0
M  V30 7944 C 741.471 -3.02605 -1.48094 0
M  V30 7945 O 742.001 -3.07979 -2.57899 0
M  V30 7946 N 740.207 -2.57877 -1.33969 0
M  V30 7947 H 739.754 -2.53704 -0.446295 0
M  V30 7948 H 739.712 -2.28725 -2.15713 0
M  V30 7949 N 743.484 -0.715051 -1.40445 0
M  V30 7950 C 744.709 -0.26254 -2.05732 0
M  V30 7951 C 745.134 1.08691 -1.53519 0
M  V30 7952 O 744.492 1.68453 -0.670328 0
M  V30 7953 C 744.54 -0.25195 -3.59719 0
M  V30 7954 O 743.644 0.766998 -4.05205 0
M  V30 7955 H 742.985 -0.123398 -0.652433 0
M  V30 7956 H 745.515 -0.975382 -1.79854 0
M  V30 7957 H 745.525 -0.0894537 -4.07902 0
M  V30 7958 H 744.2 -1.23672 -3.97087 0
M  V30 7959 H 742.777 0.572269 -3.68483 0
M  V30 7960 N 744.962 1.50701 -0.461195 0
M  V30 7961 C 746.373 1.867 -0.00370227 0
M  V30 7962 C 746.724 1.37673 1.39787 0
M  V30 7963 O 745.849 0.737515 2.03445 0
M  V30 7964 C 746.444 3.388 5.75786e-05 0
M  V30 7965 C 745.003 3.74247 0.402044 0
M  V30 7966 C 744.15 2.74549 -0.389652 0
M  V30 7967 H 747.101 1.43585 -0.675942 0
M  V30 7968 H 747.122 3.719 0.804414 0
M  V30 7969 H 746.634 3.74452 -1.02015 0
M  V30 7970 H 744.735 3.44192 1.42697 0
M  V30 7971 H 744.848 4.78973 0.110265 0
M  V30 7972 H 743.212 2.54226 0.155314 0
M  V30 7973 H 743.995 3.13044 -1.40919 0
M  V30 7974 N 746.441 0.193421 1.56409 0
M  V30 7975 C 747.373 -0.759944 2.16235 0
M  V30 7976 C 748.386 -1.17797 1.12373 0
M  V30 7977 O 749.575 -1.11399 1.39472 0
M  V30 7978 C 746.675 -2.03735 2.70823 0
M  V30 7979 C 745.848 -1.77939 3.9957 0
M  V30 7980 C 744.907 -2.90111 4.39001 0
M  V30 7981 O 743.933 -2.59791 5.06456 0
M  V30 7982 N 745.135 -4.18426 4.02368 0
M  V30 7983 H 747.9 -0.248348 2.98669 0
M  V30 7984 H 745.461 0.0113966 1.61896 0
M  V30 7985 H 747.453 -2.77914 2.94187 0
M  V30 7986 H 746.023 -2.46022 1.92852 0
M  V30 7987 H 745.243 -0.875491 3.84355 0
M  V30 7988 H 746.531 -1.58099 4.83614 0
M  V30 7989 H 745.929 -4.45913 3.48106 0
M  V30 7990 H 744.486 -4.89237 4.30686 0
M  V30 7991 N 747.919 -1.57396 -0.0801906 0
M  V30 7992 C 749.165 -1.87113 -0.782083 0
M  V30 7993 C 749.498 -0.78458 -1.77646 0
M  V30 7994 O 748.773 0.205993 -1.93406 0
M  V30 7995 C 749.056 -3.27483 -1.49756 0
M  V30 7996 C 748.909 -4.46782 -0.520171 0
M  V30 7997 C 750.228 -3.65965 -2.44454 0
M  V30 7998 H 747.347 -0.680559 -0.282858 0
M  V30 7999 H 749.989 -1.89946 -0.0454139 0
M  V30 8000 H 748.139 -3.25199 -2.12551 0
M  V30 8001 H 749.811 -4.61187 0.101919 0
M  V30 8002 H 748.054 -4.33485 0.165219 0
M  V30 8003 H 748.725 -5.41761 -1.05824 0
M  V30 8004 H 751.201 -3.69289 -1.91742 0
M  V30 8005 H 750.077 -4.65086 -2.91524 0
M  V30 8006 H 750.338 -2.95446 -3.28883 0
M  V30 8007 N 749.397 0.351382 -1.53633 0
M  V30 8008 C 750.808 0.927429 -1.62036 0
M  V30 8009 C 751.159 1.89809 -0.496706 0
M  V30 8010 O 750.284 2.1313 0.374749 0
M  V30 8011 C 750.879 1.68886 -2.93706 0
M  V30 8012 C 749.438 2.21404 -3.04397 0
M  V30 8013 C 748.585 1.03075 -2.57431 0
M  V30 8014 H 751.536 0.129748 -1.58169 0
M  V30 8015 H 751.557 2.55116 -2.82305 0
M  V30 8016 H 751.069 0.982149 -3.75467 0
M  V30 8017 H 749.17 2.95274 -2.27253 0
M  V30 8018 H 749.283 2.48312 -4.09729 0
M  V30 8019 H 747.647 1.40188 -2.12649 0
M  V30 8020 H 748.43 0.338793 -3.41624 0
M  V30 8021 N 750.875 1.45233 0.611969 0
M  V30 8022 C 752.286 1.4354 1.19387 0
M  V30 8023 C 752.637 0.160713 1.95541 0
M  V30 8024 O 751.762 -0.737954 2.03429 0
M  V30 8025 C 752.357 2.60045 2.17169 0
M  V30 8026 C 750.916 2.61486 2.70744 0
M  V30 8027 C 750.063 2.35708 1.46072 0
M  V30 8028 H 753.014 1.53536 0.401529 0
M  V30 8029 H 753.035 2.33893 3.00124 0
M  V30 8030 H 752.547 3.52803 1.61714 0
M  V30 8031 H 750.648 1.72721 3.30149 0
M  V30 8032 H 750.761 3.60572 3.15476 0
M  V30 8033 H 749.125 1.85178 1.74875 0
M  V30 8034 H 749.908 3.30606 0.924922 0
M  V30 8035 N 752.353 -0.854086 1.3245 0
M  V30 8036 C 753.578 -1.64597 1.26185 0
M  V30 8037 C 754.003 -1.87357 -0.167074 0
M  V30 8038 O 753.361 -1.42675 -1.11864 0
M  V30 8039 C 753.409 -2.98213 2.02734 0
M  V30 8040 O 752.513 -3.88784 1.37554 0
M  V30 8041 H 751.854 -0.50179 0.434859 0
M  V30 8042 H 754.384 -1.06372 1.74775 0
M  V30 8043 H 754.394 -3.4803 2.1293 0
M  V30 8044 H 753.069 -2.80969 3.06642 0
M  V30 8045 H 751.646 -3.4725 1.3591 0
M  V30 8046 N 753.831 -1.1567 -1.07043 0
M  V30 8047 C 754.763 -0.814095 -2.14255 0
M  V30 8048 C 755.776 0.175293 -1.61854 0
M  V30 8049 O 756.965 -0.0483984 -1.78434 0
M  V30 8050 C 754.065 -0.190082 -3.38367 0
M  V30 8051 C 753.238 -1.21768 -4.20109 0
M  V30 8052 C 752.297 -0.614863 -5.22595 0
M  V30 8053 O 751.323 -1.28167 -5.54583 0
M  V30 8054 N 752.525 0.601955 -5.77371 0
M  V30 8055 H 755.29 -1.73677 -2.44247 0
M  V30 8056 H 752.851 -1.05301 -1.22977 0
M  V30 8057 H 754.843 0.22604 -4.04068 0
M  V30 8058 H 753.413 0.635992 -3.06062 0
M  V30 8059 H 752.633 -1.81025 -3.50177 0
M  V30 8060 H 753.921 -1.9114 -4.71533 0
M  V30 8061 H 753.319 1.162 -5.53637 0
M  V30 8062 H 751.876 0.96039 -6.44686 0
M  V30 8063 N 755.309 1.25446 -0.953992 0
M  V30 8064 C 756.72 1.75047 -0.649255 0
M  V30 8065 C 757.071 1.77527 0.835385 0
M  V30 8066 O 756.196 1.39569 1.65377 0
M  V30 8067 C 756.791 3.17889 -1.17183 0
M  V30 8068 C 755.35 3.65052 -0.917267 0
M  V30 8069 C 754.497 2.44124 -1.31525 0
M  V30 8070 H 757.448 1.11342 -1.13087 0
M  V30 8071 H 757.469 3.76768 -0.531616 0
M  V30 8072 H 756.981 3.16052 -2.25239 0
M  V30 8073 H 755.082 3.72305 0.148354 0
M  V30 8074 H 755.195 4.53222 -1.55328 0
M  V30 8075 H 753.559 2.43906 -0.733624 0
M  V30 8076 H 754.342 2.44979 -2.405 0
M  V30 8077 N 756.787 0.722489 1.40064 0
M  V30 8078 C 757.717 0.0892452 2.33329 0
M  V30 8079 C 758.698 -0.737992 1.53257 0
M  V30 8080 O 759.883 -0.685516 1.81698 0
M  V30 8081 C 757.013 -0.828139 3.37282 0
M  V30 8082 C 755.967 -0.106005 4.27869 0
M  V30 8083 C 755.293 -1.13957 5.22415 0
M  V30 8084 C 756.593 1.04395 5.11761 0
M  V30 8085 H 758.287 0.868269 2.86534 0
M  V30 8086 H 755.833 0.418982 1.3777 0
M  V30 8087 H 757.786 -1.28058 4.01471 0
M  V30 8088 H 756.51 -1.63914 2.82489 0
M  V30 8089 H 755.169 0.326683 3.65142 0
M  V30 8090 H 754.817 -1.9438 4.63924 0
M  V30 8091 H 754.517 -0.661233 5.83868 0
M  V30 8092 H 756.041 -1.59197 5.89482 0
M  V30 8093 H 757.455 0.670541 5.69365 0
M  V30 8094 H 755.852 1.4511 5.82291 0
M  V30 8095 H 756.922 1.87144 4.47331 0
M  V30 8096 N 758.265 -1.50454 0.469181 0
M  V30 8097 C 759.681 -1.59124 0.123226 0
M  V30 8098 C 759.881 -1.47749 -1.37013 0
M  V30 8099 O 758.937 -1.335 -2.14322 0
M  V30 8100 C 760.25 -2.93101 0.67172 0
M  V30 8101 C 761.798 -3.06491 0.634978 0
M  V30 8102 C 762.273 -4.43041 1.16098 0
M  V30 8103 N 763.764 -4.49448 1.12031 0
M  V30 8104 C 764.499 -5.53491 1.49784 0
M  V30 8105 N 763.995 -6.64798 1.94976 0
M  V30 8106 N 765.788 -5.44025 1.41399 0
M  V30 8107 H 757.939 -1.56091 1.44046 0
M  V30 8108 H 760.202 -0.737564 0.59557 0
M  V30 8109 H 759.908 -3.06895 1.7178 0
M  V30 8110 H 759.782 -3.77027 0.114222 0
M  V30 8111 H 762.169 -2.92346 -0.402187 0
M  V30 8112 H 762.25 -2.24328 1.22926 0
M  V30 8113 H 761.894 -4.57935 2.19677 0
M  V30 8114 H 761.824 -5.23794 0.542939 0
M  V30 8115 H 764.315 -3.69575 0.788828 0
M  V30 8116 H 764.628 -7.40246 2.21936 0
M  V30 8117 H 762.973 -6.65923 1.98927 0
M  V30 8118 H 766.164 -4.55955 1.05935 0
M  V30 8119 H 766.337 -6.2499 1.71147 0
M  V30 8120 N 759.743 -0.201713 -1.56304 0
M  V30 8121 C 761.154 0.309711 -1.84113 0
M  V30 8122 C 761.505 1.60912 -1.12258 0
M  V30 8123 O 760.63 2.12937 -0.385587 0
M  V30 8124 C 761.225 0.568706 -3.33993 0
M  V30 8125 C 759.784 1.02448 -3.6219 0
M  V30 8126 C 758.931 0.0766842 -2.77194 0
M  V30 8127 H 761.882 -0.425356 -1.52893 0
M  V30 8128 H 761.903 1.41721 -3.53122 0
M  V30 8129 H 761.415 -0.37719 -3.86263 0
M  V30 8130 H 759.516 1.98443 -3.15359 0
M  V30 8131 H 759.629 0.912619 -4.70328 0
M  V30 8132 H 757.993 0.579809 -2.48013 0
M  V30 8133 H 758.776 -0.863774 -3.32256 0
M  V30 8134 N 761.222 1.57436 0.0718424 0
M  V30 8135 C 762.468 1.88388 0.766904 0
M  V30 8136 C 762.823 0.7954 1.75189 0
M  V30 8137 O 762.116 -0.200438 1.90549 0
M  V30 8138 C 762.31 3.23723 1.51455 0
M  V30 8139 C 762.139 4.45632 0.603475 0
M  V30 8140 C 760.909 5.04728 0.240437 0
M  V30 8141 C 763.107 5.14203 -0.0997624 0
M  V30 8142 N 761.089 6.10163 -0.676363 0
M  V30 8143 C 762.46 6.13812 -0.873755 0
M  V30 8144 C 764.515 4.97605 -0.171238 0
M  V30 8145 C 763.218 6.98615 -1.71258 0
M  V30 8146 C 765.244 5.82935 -0.997041 0
M  V30 8147 C 764.606 6.82082 -1.75908 0
M  V30 8148 H 760.705 0.738888 0.256064 0
M  V30 8149 H 763.289 1.94679 0.0284273 0
M  V30 8150 H 761.46 3.1844 2.22375 0
M  V30 8151 H 763.192 3.42324 2.15862 0
M  V30 8152 H 759.947 4.69869 0.593284 0
M  V30 8153 H 760.371 6.67537 -1.12801 0
M  V30 8154 H 765.013 4.20869 0.403586 0
M  V30 8155 H 762.731 7.74726 -2.29838 0
M  V30 8156 H 766.317 5.72149 -1.05532 0
M  V30 8157 H 765.197 7.46964 -2.38778 0
M  V30 8158 N 762.7 -0.34323 1.53817 0
M  V30 8159 C 763.663 -1.40444 1.8113 0
M  V30 8160 C 764.663 -1.45604 0.682366 0
M  V30 8161 O 765.853 -1.45974 0.950649 0
M  V30 8162 C 762.985 -2.79369 1.95361 0
M  V30 8163 H 764.178 -1.17489 2.75928 0
M  V30 8164 H 761.731 -0.577636 1.45234 0
M  V30 8165 H 762.466 -3.07607 1.02707 0
M  V30 8166 H 762.251 -2.7702 2.77493 0
M  V30 8167 H 763.741 -3.56178 2.18008 0
M  V30 8168 N 764.178 -1.45556 -0.604258 0
M  V30 8169 C 765.426 -1.4945 -1.36048 0
M  V30 8170 C 765.747 -0.138933 -1.94504 0
M  V30 8171 O 765.017 0.832097 -1.7735 0
M  V30 8172 H 763.597 -0.550381 -0.505064 0
M  V30 8173 H 766.259 -1.81535 -0.709308 0
M  V30 8174 H 765.355 -2.23519 -2.17821 0
M  V30 8175 N 765.656 0.84705 -1.32902 0
M  V30 8176 C 766.904 1.5986 -1.2365 0
M  V30 8177 C 767.225 1.93974 0.199789 0
M  V30 8178 O 766.495 1.60273 1.12648 0
M  V30 8179 H 765.075 0.592696 -0.454665 0
M  V30 8180 H 767.737 1.01278 -1.66519 0
M  V30 8181 H 766.833 2.53218 -1.82448 0
M  V30 8182 N 767.134 1.16236 1.06428 0
M  V30 8183 C 768.411 0.853294 1.76006 0
M  V30 8184 C 768.791 -0.649162 2.00871 0
M  V30 8185 O 768.139 -1.59653 1.63472 0
M  V30 8186 C 768.349 1.67448 3.06206 0
M  V30 8187 C 769.697 1.8866 3.80385 0
M  V30 8188 O 770.721 1.64303 3.16043 0
M  V30 8189 O 769.58 2.29518 4.95968 0
M  V30 8190 H 766.674 0.314737 0.764767 0
M  V30 8191 H 769.22 1.26865 1.12709 0
M  V30 8192 H 767.992 2.69411 2.83784 0
M  V30 8193 H 767.615 1.25608 3.77238 0
M  V30 8194 N 768.612 -1.24939 0.960631 0
M  V30 8195 C 769.858 -1.93104 0.61958 0
M  V30 8196 C 770.191 -1.74991 -0.84212 0
M  V30 8197 O 769.466 -1.09867 -1.60498 0
M  V30 8198 C 769.749 -3.46326 0.986422 0
M  V30 8199 C 769.602 -3.73638 2.50429 0
M  V30 8200 C 770.921 -4.37067 0.515827 0
M  V30 8201 H 768.04 -0.701311 0.226566 0
M  V30 8202 H 770.682 -1.47442 1.19836 0
M  V30 8203 H 768.832 -3.85348 0.493907 0
M  V30 8204 H 770.504 -3.44217 3.07103 0
M  V30 8205 H 768.747 -3.19035 2.93937 0
M  V30 8206 H 769.418 -4.80815 2.71147 0
M  V30 8207 H 771.894 -4.05381 0.938389 0
M  V30 8208 H 770.77 -5.43022 0.80114 0
M  V30 8209 H 771.031 -4.38224 -0.584171 0
M  V30 8210 N 770.09 -0.729906 -1.39679 0
M  V30 8211 C 771.501 -0.346241 -1.83461 0
M  V30 8212 C 771.852 1.1215 -1.60987 0
M  V30 8213 O 770.977 1.86456 -1.09832 0
M  V30 8214 C 771.572 -0.621656 -3.33048 0
M  V30 8215 C 770.131 -0.291543 -3.75269 0
M  V30 8216 C 769.278 -0.886844 -2.62736 0
M  V30 8217 H 772.229 -0.927949 -1.28743 0
M  V30 8218 H 772.25 0.108301 -3.80346 0
M  V30 8219 H 771.762 -1.68996 -3.49373 0
M  V30 8220 H 769.863 0.771133 -3.64533 0
M  V30 8221 H 769.976 -0.770544 -4.72863 0
M  V30 8222 H 768.34 -0.313839 -2.52759 0
M  V30 8223 H 769.123 -1.95971 -2.81869 0
M  V30 8224 N 771.568 1.50203 -0.477153 0
M  V30 8225 C 772.518 2.25561 0.332625 0
M  V30 8226 C 773.502 1.29401 0.956249 0
M  V30 8227 O 774.694 1.54267 0.867795 0
M  V30 8228 C 771.823 3.12984 1.41052 0
M  V30 8229 C 770.909 4.16595 0.79433 0
M  V30 8230 N 771.3 5.05722 -0.0889633 0
M  V30 8231 C 769.598 4.33279 1.0576 0
M  V30 8232 C 770.299 5.80039 -0.439286 0
M  V30 8233 N 769.275 5.43278 0.187018 0
M  V30 8234 H 773.077 2.91836 -0.347718 0
M  V30 8235 H 770.591 1.59759 -0.291686 0
M  V30 8236 H 772.588 3.65582 2.00388 0
M  V30 8237 H 771.248 2.48258 2.09279 0
M  V30 8238 H 772.259 5.15869 -0.458205 0
M  V30 8239 H 768.936 3.79769 1.7344 0
M  V30 8240 H 770.326 6.61802 -1.1605 0
M  V30 8241 N 773.046 0.209999 1.56195 0
M  V30 8242 C 773.993 -0.704854 2.19774 0
M  V30 8243 C 774.963 -1.19886 1.14964 0
M  V30 8244 O 776.148 -1.26005 1.43274 0
M  V30 8245 C 773.288 -1.91241 2.87265 0
M  V30 8246 C 772.401 -1.45838 4.06639 0
M  V30 8247 C 771.536 -2.6226 4.61945 0
M  V30 8248 C 770.575 -2.13537 5.73645 0
M  V30 8249 N 769.712 -3.2319 6.23292 0
M  V30 8250 H 774.552 -0.155944 2.97592 0
M  V30 8251 H 772.089 -0.0652235 1.46955 0
M  V30 8252 H 774.047 -2.62123 3.24573 0
M  V30 8253 H 772.677 -2.43439 2.11985 0
M  V30 8254 H 771.729 -0.644897 3.74894 0
M  V30 8255 H 773.041 -1.06103 4.87384 0
M  V30 8256 H 772.195 -3.41243 5.01636 0
M  V30 8257 H 770.934 -3.05278 3.80338 0
M  V30 8258 H 769.939 -1.33013 5.33468 0
M  V30 8259 H 771.164 -1.71533 6.57079 0
M  V30 8260 H 769.11 -3.65711 5.44602 0
M  V30 8261 H 769.027 -2.8767 6.99129 0
M  V30 8262 H 770.295 -4.02342 6.67639 0
M  V30 8263 N 774.524 -1.57472 -0.0634922 0
M  V30 8264 C 775.752 -1.91887 -0.773767 0
M  V30 8265 C 776.167 -0.806733 -1.70696 0
M  V30 8266 O 775.524 0.219383 -1.81177 0
M  V30 8267 C 775.575 -3.26092 -1.56034 0
M  V30 8268 O 775.296 -4.33029 -0.66464 0
M  V30 8269 C 776.797 -3.74573 -2.37087 0
M  V30 8270 H 774.017 -0.634074 -0.219525 0
M  V30 8271 H 776.561 -2.04476 -0.0312828 0
M  V30 8272 H 774.716 -3.15004 -2.25502 0
M  V30 8273 H 775.13 -5.10291 -1.21258 0
M  V30 8274 H 776.604 -4.71084 -2.87722 0
M  V30 8275 H 777.081 -3.04003 -3.16984 0
M  V30 8276 H 777.687 -3.88631 -1.72759 0
M  V30 8277 N 776.003 0.335068 -1.53997 0
M  V30 8278 C 776.953 1.4127 -1.7896 0
M  V30 8279 C 777.937 1.474 -0.64513 0
M  V30 8280 O 779.129 1.52127 -0.904785 0
M  V30 8281 C 776.258 2.78292 -2.01018 0
M  V30 8282 C 775.344 2.7652 -3.21555 0
M  V30 8283 N 775.735 2.44374 -4.42849 0
M  V30 8284 C 774.033 3.0766 -3.22895 0
M  V30 8285 C 774.734 2.51049 -5.24737 0
M  V30 8286 N 773.71 2.8702 -4.6165 0
M  V30 8287 H 777.512 1.15327 -2.70327 0
M  V30 8288 H 775.026 0.543483 -1.53036 0
M  V30 8289 H 777.023 3.55949 -2.17039 0
M  V30 8290 H 775.683 3.05175 -1.10898 0
M  V30 8291 H 776.694 2.17422 -4.70051 0
M  V30 8292 H 773.371 3.3966 -2.42771 0
M  V30 8293 H 774.761 2.29283 -6.31569 0
M  V30 8294 N 777.481 1.45874 0.596531 0
M  V30 8295 C 778.413 1.51408 1.7207 0
M  V30 8296 C 779.426 0.403738 1.57714 0
M  V30 8297 O 780.615 0.671384 1.65393 0
M  V30 8298 C 777.715 1.3652 3.10186 0
M  V30 8299 C 776.888 2.61428 3.50677 0
M  V30 8300 C 775.947 2.40937 4.67799 0
M  V30 8301 O 774.973 3.14602 4.74357 0
M  V30 8302 N 776.175 1.4621 5.61785 0
M  V30 8303 H 778.94 2.48333 1.67782 0
M  V30 8304 H 776.501 1.41755 0.782129 0
M  V30 8305 H 778.493 1.20606 3.86311 0
M  V30 8306 H 777.063 0.478302 3.08919 0
M  V30 8307 H 776.283 2.92381 2.644 0
M  V30 8308 H 777.571 3.44432 3.74491 0
M  V30 8309 H 776.969 0.854382 5.59211 0
M  V30 8310 H 775.526 1.36264 6.37397 0
M  V30 8311 N 778.959 -0.83999 1.33349 0
M  V30 8312 C 779.922 -1.93128 1.23426 0
M  V30 8313 C 780.922 -1.60065 0.153599 0
M  V30 8314 O 782.112 -1.69425 0.405049 0
M  V30 8315 C 779.244 -3.28761 0.901622 0
M  V30 8316 H 780.437 -2.03352 2.20427 0
M  V30 8317 H 777.99 -1.03194 1.17391 0
M  V30 8318 H 778.725 -3.24233 -0.0659337 0
M  V30 8319 H 778.51 -3.54138 1.68311 0
M  V30 8320 H 780 -4.08714 0.856913 0
M  V30 8321 N 780.437 -1.16799 -1.0581 0
M  V30 8322 C 781.848 -0.95945 -1.60161 0
M  V30 8323 C 782.199 0.49543 -1.89842 0
M  V30 8324 O 781.324 1.36957 -1.67546 0
M  V30 8325 C 781.919 -1.73527 -2.90987 0
M  V30 8326 C 780.478 -1.57158 -3.42021 0
M  V30 8327 C 779.625 -1.74089 -2.15843 0
M  V30 8328 H 782.576 -1.31598 -0.886992 0
M  V30 8329 H 782.597 -1.21397 -3.60615 0
M  V30 8330 H 782.109 -2.79411 -2.69353 0
M  V30 8331 H 780.21 -0.537361 -3.68705 0
M  V30 8332 H 780.323 -2.35858 -4.17022 0
M  V30 8333 H 778.687 -1.16874 -2.26302 0
M  V30 8334 H 779.47 -2.81371 -1.96686 0
M  V30 8335 N 781.915 1.24427 -0.967243 0
M  V30 8336 C 782.878 2.23637 -0.501927 0
M  V30 8337 C 783.878 1.55712 0.401283 0
M  V30 8338 O 785.068 1.73085 0.196808 0
M  V30 8339 C 782.2 3.39804 0.273176 0
M  V30 8340 H 783.393 2.66317 -1.37897 0
M  V30 8341 H 780.946 1.37033 -0.751783 0
M  V30 8342 H 781.681 3.02562 1.16733 0
M  V30 8343 H 781.466 3.90303 -0.37498 0
M  V30 8344 H 782.956 4.13443 0.587776 0
M  V30 8345 N 783.393 0.737304 1.3929 0
M  V30 8346 C 784.618 0.295237 2.05288 0
M  V30 8347 C 785.043 -1.06235 1.55228 0
M  V30 8348 O 784.401 -1.67365 0.697043 0
M  V30 8349 C 784.449 0.309146 3.59272 0
M  V30 8350 O 783.553 -0.702437 4.06374 0
M  V30 8351 H 782.894 0.133762 0.650387 0
M  V30 8352 H 785.424 1.00387 1.78279 0
M  V30 8353 H 785.434 0.154336 4.07708 0
M  V30 8354 H 784.109 1.29974 3.95069 0
M  V30 8355 H 782.686 -0.513574 3.69346 0
M  V30 8356 N 784.871 -1.49948 0.485112 0
M  V30 8357 C 785.834 -2.27351 -0.290546 0
M  V30 8358 C 786.834 -1.32704 -0.908087 0
M  V30 8359 O 788.024 -1.56007 -0.775085 0
M  V30 8360 C 785.156 -3.10135 -1.41524 0
M  V30 8361 H 786.349 -2.97374 0.388454 0
M  V30 8362 H 783.902 -1.54453 0.239586 0
M  V30 8363 H 784.637 -2.44641 -2.12888 0
M  V30 8364 H 784.422 -3.79705 -0.978074 0
M  V30 8365 H 785.912 -3.68638 -1.96204 0
M  V30 8366 N 786.349 -0.21828 -1.56081 0
M  V30 8367 C 787.574 0.422302 -2.03055 0
M  V30 8368 C 787.999 1.5279 -1.09713 0
M  V30 8369 O 787.357 1.81102 -0.0847187 0
M  V30 8370 C 787.405 0.934177 -3.48289 0
M  V30 8371 O 786.509 2.04574 -3.58083 0
M  V30 8372 H 785.85 0.0959764 -0.657027 0
M  V30 8373 H 788.38 -0.335958 -2.01823 0
M  V30 8374 H 788.39 1.24484 -3.88546 0
M  V30 8375 H 787.065 0.124963 -4.15712 0
M  V30 8376 H 785.642 1.74196 -3.29712 0
M  V30 8377 N 787.827 1.57504 0.0551401 0
M  V30 8378 C 789.052 1.92682 0.767352 0
M  V30 8379 C 789.477 0.81614 1.69472 0
M  V30 8380 O 788.835 -0.229989 1.79835 0
M  V30 8381 C 788.883 3.26866 1.52286 0
M  V30 8382 O 787.987 3.17274 2.63459 0
M  V30 8383 H 787.328 0.630502 0.208238 0
M  V30 8384 H 789.858 2.04592 0.0184026 0
M  V30 8385 H 789.868 3.61138 1.8985 0
M  V30 8386 H 788.543 4.07276 0.842541 0
M  V30 8387 H 787.12 2.94589 2.2863 0
M  V30 8388 N 789.305 -0.326896 1.54172 0
M  V30 8389 C 790.235 -1.40741 1.86317 0
M  V30 8390 C 791.216 -1.54125 0.719684 0
M  V30 8391 O 792.401 -1.6806 0.973117 0
M  V30 8392 C 789.531 -2.77557 2.08757 0
M  V30 8393 C 788.485 -2.78965 3.24596 0
M  V30 8394 C 787.811 -4.18824 3.32401 0
M  V30 8395 C 789.111 -2.4301 4.62324 0
M  V30 8396 H 790.805 -1.14088 2.76811 0
M  V30 8397 H 788.351 -0.547389 1.3319 0
M  V30 8398 H 790.304 -3.53209 2.29829 0
M  V30 8399 H 789.028 -3.0568 1.15009 0
M  V30 8400 H 787.687 -2.05767 3.03406 0
M  V30 8401 H 787.335 -4.44083 2.36218 0
M  V30 8402 H 787.035 -4.20673 4.10253 0
M  V30 8403 H 788.559 -4.96294 3.55703 0
M  V30 8404 H 789.973 -3.08375 4.83299 0
M  V30 8405 H 788.37 -2.56116 5.42701 0
M  V30 8406 H 789.44 -1.38165 4.64799 0
M  V30 8407 N 790.784 -1.46188 -0.588786 0
M  V30 8408 C 792.195 -1.45421 -1.17088 0
M  V30 8409 C 792.546 -0.191801 -1.9526 0
M  V30 8410 O 791.671 0.705497 -2.04577 0
M  V30 8411 C 792.266 -2.63467 -2.13004 0
M  V30 8412 C 790.825 -2.6576 -2.6655 0
M  V30 8413 C 789.972 -2.38002 -1.42304 0
M  V30 8414 H 792.923 -1.54156 -0.377052 0
M  V30 8415 H 792.944 -2.38638 -2.96365 0
M  V30 8416 H 792.456 -3.55331 -1.56081 0
M  V30 8417 H 790.557 -1.77952 -3.27359 0
M  V30 8418 H 790.67 -3.65545 -3.09699 0
M  V30 8419 H 789.034 -1.87936 -1.71907 0
M  V30 8420 H 789.817 -3.32035 -0.872209 0
M  V30 8421 N 792.262 0.832906 -1.33792 0
M  V30 8422 C 793.51 1.58539 -1.25338 0
M  V30 8423 C 793.831 1.94175 0.179204 0
M  V30 8424 O 793.101 1.61458 1.10941 0
M  V30 8425 H 791.681 0.58784 -0.460926 0
M  V30 8426 H 794.343 0.995064 -1.67584 0
M  V30 8427 H 793.439 2.51268 -1.85123 0
M  V30 8428 N 793.74 1.17359 1.05189 0
M  V30 8429 C 794.968 0.986529 1.81866 0
M  V30 8430 C 795.383 -0.46522 1.82979 0
M  V30 8431 O 794.74 -1.32305 1.25705 0
M  V30 8432 C 794.791 1.52021 3.27982 0
M  V30 8433 O 794.512 2.91511 3.27037 0
M  V30 8434 C 796.013 1.37774 4.21347 0
M  V30 8435 H 793.233 0.349021 0.573084 0
M  V30 8436 H 795.777 1.55648 1.32643 0
M  V30 8437 H 793.932 0.992287 3.74476 0
M  V30 8438 H 794.346 3.16178 4.18488 0
M  V30 8439 H 795.82 1.7993 5.21852 0
M  V30 8440 H 796.297 0.32483 4.37997 0
M  V30 8441 H 796.903 1.89583 3.80708 0
M  V30 8442 N 795.218 -1.23913 0.973828 0
M  V30 8443 C 796.466 -1.91771 0.637817 0
M  V30 8444 C 796.787 -1.76434 -0.830435 0
M  V30 8445 O 796.057 -1.13965 -1.59339 0
M  V30 8446 H 794.637 -0.709761 0.232912 0
M  V30 8447 H 797.299 -1.50677 1.23622 0
M  V30 8448 H 796.395 -2.99327 0.883731 0
M  V30 8449 N 796.696 -0.74468 -1.38897 0
M  V30 8450 C 797.659 -0.11945 -2.28889 0
M  V30 8451 C 798.659 0.656942 -1.46768 0
M  V30 8452 O 799.849 0.484525 -1.67326 0
M  V30 8453 C 796.981 0.839635 -3.30398 0
M  V30 8454 H 798.174 -0.912414 -2.85683 0
M  V30 8455 H 795.727 -0.511119 -1.47707 0
M  V30 8456 H 796.462 1.6586 -2.78677 0
M  V30 8457 H 796.247 0.285432 -3.9106 0
M  V30 8458 H 797.737 1.27337 -3.97712 0
M  V30 8459 N 798.174 1.49689 -0.493057 0
M  V30 8460 C 799.106 2.26867 0.326195 0
M  V30 8461 C 800.119 1.33083 0.937697 0
M  V30 8462 O 801.308 1.58427 0.822382 0
M  V30 8463 C 798.408 3.0519 1.4735 0
M  V30 8464 C 797.581 4.26491 0.970767 0
M  V30 8465 C 796.64 4.86926 1.99473 0
M  V30 8466 O 795.666 5.47221 1.56647 0
M  V30 8467 N 796.868 4.75871 3.32456 0
M  V30 8468 H 799.633 2.97816 -0.335547 0
M  V30 8469 H 797.194 1.58602 -0.325129 0
M  V30 8470 H 799.186 3.42496 2.15589 0
M  V30 8471 H 797.756 2.369 2.03954 0
M  V30 8472 H 796.976 3.94036 0.113529 0
M  V30 8473 H 798.264 5.05092 0.613156 0
M  V30 8474 H 797.662 4.2797 3.69944 0
M  V30 8475 H 796.219 5.17383 3.96431 0
M  V30 8476 N 799.652 0.226554 1.55963 0
M  V30 8477 C 800.582 -0.676079 2.23498 0
M  V30 8478 C 801.563 -1.19718 1.20837 0
M  V30 8479 O 802.748 -1.24027 1.49436 0
M  V30 8480 C 799.878 -1.88217 2.91876 0
M  V30 8481 C 798.832 -1.4947 4.01052 0
M  V30 8482 C 798.158 -2.77997 4.56751 0
M  V30 8483 C 799.458 -0.680951 5.17842 0
M  V30 8484 H 801.152 -0.112989 2.99187 0
M  V30 8485 H 798.698 -0.0529046 1.43903 0
M  V30 8486 H 800.651 -2.51911 3.37815 0
M  V30 8487 H 799.375 -2.47031 2.13643 0
M  V30 8488 H 798.034 -0.881199 3.55852 0
M  V30 8489 H 797.682 -3.34966 3.75243 0
M  V30 8490 H 797.382 -2.52803 5.30438 0
M  V30 8491 H 798.906 -3.42625 5.05411 0
M  V30 8492 H 800.32 -1.22171 5.60131 0
M  V30 8493 H 798.717 -0.525898 5.97791 0
M  V30 8494 H 799.787 0.311346 4.83899 0
M  V30 8495 N 801.13 -1.57531 -0.0467866 0
M  V30 8496 C 802.541 -1.76945 -0.595603 0
M  V30 8497 C 802.892 -0.855354 -1.76573 0
M  V30 8498 O 802.017 -0.045668 -2.16352 0
M  V30 8499 C 802.612 -3.20881 -1.08725 0
M  V30 8500 C 801.171 -3.41553 -1.58172 0
M  V30 8501 C 800.318 -2.72533 -0.511968 0
M  V30 8502 H 803.269 -1.57682 0.179436 0
M  V30 8503 H 803.29 -3.26419 -1.95528 0
M  V30 8504 H 802.802 -3.87385 -0.235398 0
M  V30 8505 H 800.903 -2.80199 -2.456 0
M  V30 8506 H 801.016 -4.50104 -1.64143 0
M  V30 8507 H 799.38 -2.35797 -0.962899 0
M  V30 8508 H 800.163 -3.41709 0.330117 0
M  V30 8509 N 802.608 0.318715 -1.54344 0
M  V30 8510 C 804.019 0.89285 -1.63967 0
M  V30 8511 C 804.37 1.88712 -0.536855 0
M  V30 8512 O 803.495 2.13877 0.329457 0
M  V30 8513 C 804.09 1.62618 -2.97222 0
M  V30 8514 C 802.649 2.14897 -3.09025 0
M  V30 8515 C 801.796 0.975909 -2.5956 0
M  V30 8516 H 804.747 0.0961687 -1.58408 0
M  V30 8517 H 804.768 2.4907 -2.87653 0
M  V30 8518 H 804.28 0.902286 -3.77466 0
M  V30 8519 H 802.381 2.90387 -2.33465 0
M  V30 8520 H 802.494 2.39565 -4.14904 0
M  V30 8521 H 800.858 1.35646 -2.15574 0
M  V30 8522 H 801.641 0.266253 -3.42266 0
M  V30 8523 N 804.086 1.46499 0.581025 0
M  V30 8524 C 805.018 1.53225 1.70455 0
M  V30 8525 C 806.031 0.420443 1.57277 0
M  V30 8526 O 807.22 0.688888 1.64671 0
M  V30 8527 C 804.32 1.39803 3.08721 0
M  V30 8528 C 803.493 2.65132 3.47884 0
M  V30 8529 C 802.552 2.45886 4.65217 0
M  V30 8530 O 801.578 3.19615 4.70993 0
M  V30 8531 N 802.78 1.5216 5.60203 0
M  V30 8532 H 805.545 2.50098 1.65139 0
M  V30 8533 H 803.106 1.42576 0.76705 0
M  V30 8534 H 805.098 1.24697 3.8501 0
M  V30 8535 H 803.668 0.51104 3.08394 0
M  V30 8536 H 802.888 2.95169 2.61284 0
M  V30 8537 H 804.176 3.48385 3.70817 0
M  V30 8538 H 803.574 0.913646 5.58273 0
M  V30 8539 H 802.131 1.43017 6.35916 0
M  V30 8540 N 805.565 -0.825799 1.34232 0
M  V30 8541 C 806.976 -1.39835 1.23706 0
M  V30 8542 C 807.327 -1.95709 -0.138649 0
M  V30 8543 O 806.452 -1.89833 -1.03886 0
M  V30 8544 C 807.047 -2.54203 2.23978 0
M  V30 8545 C 805.606 -3.07374 2.17251 0
M  V30 8546 C 804.753 -1.80232 2.10741 0
M  V30 8547 H 807.704 -0.630442 1.4564 0
M  V30 8548 H 807.725 -3.32214 1.8551 0
M  V30 8549 H 807.237 -2.13506 3.24094 0
M  V30 8550 H 805.338 -3.52583 1.20483 0
M  V30 8551 H 805.451 -3.6666 3.08379 0
M  V30 8552 H 803.815 -2.01012 1.56417 0
M  V30 8553 H 804.598 -1.41713 3.12686 0
M  V30 8554 N 807.043 -1.17915 -1.04565 0
M  V30 8555 C 808.459 -0.927761 -1.29864 0
M  V30 8556 C 808.659 0.409536 -1.97294 0
M  V30 8557 O 807.715 1.14505 -2.25044 0
M  V30 8558 C 809.028 -2.08967 -2.16225 0
M  V30 8559 C 810.576 -2.12741 -2.29587 0
M  V30 8560 C 811.051 -3.28335 -3.19312 0
M  V30 8561 N 812.542 -3.28164 -3.26898 0
M  V30 8562 C 813.277 -4.14249 -3.96466 0
M  V30 8563 N 812.773 -5.10457 -4.68407 0
M  V30 8564 N 814.566 -4.02179 -3.92694 0
M  V30 8565 H 806.717 -2.03983 -0.592011 0
M  V30 8566 H 808.98 -0.891023 -0.323701 0
M  V30 8567 H 808.686 -3.05654 -1.73979 0
M  V30 8568 H 808.56 -2.04606 -3.16885 0
M  V30 8569 H 810.947 -1.16636 -2.71072 0
M  V30 8570 H 811.028 -2.21162 -1.28535 0
M  V30 8571 H 810.672 -4.2471 -2.78539 0
M  V30 8572 H 810.602 -3.17151 -4.20384 0
M  V30 8573 H 813.093 -2.58511 -2.75646 0
M  V30 8574 H 813.406 -5.72526 -5.1907 0
M  V30 8575 H 811.751 -5.14422 -4.67328 0
M  V30 8576 H 814.942 -3.26308 -3.3562 0
M  V30 8577 H 815.115 -4.69486 -4.4664 0
M  V30 8578 N 808.521 1.23394 -0.980386 0
M  V30 8579 C 809.751 1.9556 -0.666319 0
M  V30 8580 C 810.159 1.72786 0.770815 0
M  V30 8581 O 809.502 1.0162 1.53033 0
M  V30 8582 C 809.564 3.48643 -0.876825 0
M  V30 8583 C 809.228 3.95135 -2.29602 0
M  V30 8584 C 810.225 4.03806 -3.2747 0
M  V30 8585 C 807.91 4.28122 -2.62711 0
M  V30 8586 C 809.904 4.44818 -4.56526 0
M  V30 8587 C 807.591 4.68814 -3.9199 0
M  V30 8588 C 808.589 4.77129 -4.88709 0
M  V30 8589 O 808.277 5.16908 -6.15679 0
M  V30 8590 H 808.009 0.629422 -0.246585 0
M  V30 8591 H 810.563 1.57839 -1.31438 0
M  V30 8592 H 808.793 3.86319 -0.171587 0
M  V30 8593 H 810.482 4.0202 -0.55992 0
M  V30 8594 H 811.248 3.78526 -3.03222 0
M  V30 8595 H 807.127 4.20861 -1.8814 0
M  V30 8596 H 810.671 4.51223 -5.32018 0
M  V30 8597 H 806.568 4.93545 -4.16033 0
M  V30 8598 H 807.336 5.3502 -6.19432 0
M  V30 8599 N 809.999 0.752036 1.385 0
M  V30 8600 C 810.929 0.138718 2.33088 0
M  V30 8601 C 811.91 -0.705318 1.54788 0
M  V30 8602 O 813.095 -0.646821 1.83112 0
M  V30 8603 C 810.225 -0.75641 3.38963 0
M  V30 8604 C 809.179 -0.0152239 4.27997 0
M  V30 8605 C 808.505 -1.0285 5.24715 0
M  V30 8606 C 809.805 1.15226 5.09431 0
M  V30 8607 H 811.499 0.928852 2.84627 0
M  V30 8608 H 809.045 0.448111 1.3685 0
M  V30 8609 H 810.998 -1.19513 4.04097 0
M  V30 8610 H 809.722 -1.57885 2.85902 0
M  V30 8611 H 808.381 0.404061 3.64366 0
M  V30 8612 H 808.029 -1.84496 4.67943 0
M  V30 8613 H 807.729 -0.537238 5.85139 0
M  V30 8614 H 809.253 -1.46657 5.92726 0
M  V30 8615 H 810.667 0.791161 5.67815 0
M  V30 8616 H 809.064 1.57428 5.79082 0
M  V30 8617 H 810.134 1.9659 4.43261 0
M  V30 8618 N 811.477 -1.49425 0.500989 0
M  V30 8619 C 812.725 -2.02053 -0.0434495 0
M  V30 8620 C 813.046 -1.38285 -1.37486 0
M  V30 8621 O 812.316 -0.538171 -1.88363 0
M  V30 8622 H 810.896 -0.746757 -0.0190469 0
M  V30 8623 H 813.558 -1.83449 0.658227 0
M  V30 8624 H 812.654 -3.11619 -0.173129 0
M  V30 8625 N 812.955 -0.234822 -1.55841 0
M  V30 8626 C 814.371 0.120295 -1.59146 0
M  V30 8627 C 814.571 1.57896 -1.25184 0
M  V30 8628 O 813.627 2.32138 -0.993393 0
M  V30 8629 C 814.94 -0.217984 -2.99909 0
M  V30 8630 C 816.488 -0.161298 -3.12584 0
M  V30 8631 C 816.963 -0.473438 -4.55546 0
M  V30 8632 N 818.454 -0.423494 -4.6126 0
M  V30 8633 C 819.189 -0.638334 -5.69836 0
M  V30 8634 N 818.685 -0.915659 -6.86722 0
M  V30 8635 N 820.478 -0.569864 -5.59204 0
M  V30 8636 H 812.629 -1.18622 -1.76189 0
M  V30 8637 H 814.892 -0.476426 -0.819587 0
M  V30 8638 H 814.598 -1.2309 -3.29457 0
M  V30 8639 H 814.472 0.460707 -3.74376 0
M  V30 8640 H 816.859 0.842274 -2.82825 0
M  V30 8641 H 816.94 -0.873661 -2.40418 0
M  V30 8642 H 816.584 -1.47451 -4.86025 0
M  V30 8643 H 816.514 0.260268 -5.25956 0
M  V30 8644 H 819.005 -0.217383 -3.77274 0
M  V30 8645 H 819.318 -1.06734 -7.65394 0
M  V30 8646 H 817.663 -0.953 -6.88435 0
M  V30 8647 H 820.854 -0.35334 -4.66765 0
M  V30 8648 H 821.027 -0.740698 -6.43753 0
M  V30 8649 N 814.433 1.57553 0.0384317 0
M  V30 8650 C 815.844 1.77258 0.586211 0
M  V30 8651 C 816.195 0.864706 1.76117 0
M  V30 8652 O 815.32 0.057141 2.16325 0
M  V30 8653 C 815.915 3.21453 1.07021 0
M  V30 8654 C 814.474 3.42387 1.56358 0
M  V30 8655 C 813.621 2.72801 0.497508 0
M  V30 8656 H 816.572 1.57585 -0.187796 0
M  V30 8657 H 816.593 3.27451 1.93794 0
M  V30 8658 H 816.105 3.87505 0.214851 0
M  V30 8659 H 814.206 2.81497 2.44111 0
M  V30 8660 H 814.319 4.50968 1.61754 0
M  V30 8661 H 812.683 2.36305 0.95038 0
M  V30 8662 H 813.466 3.41529 -0.348234 0
M  V30 8663 N 815.911 -0.310526 1.54511 0
M  V30 8664 C 817.322 -0.884142 1.64438 0
M  V30 8665 C 817.673 -1.88425 0.546855 0
M  V30 8666 O 816.798 -2.14049 -0.31811 0
M  V30 8667 C 817.393 -1.6104 2.9808 0
M  V30 8668 C 815.952 -2.13255 3.1016 0
M  V30 8669 C 815.099 -0.96213 2.60074 0
M  V30 8670 H 818.05 -0.0877666 1.58457 0
M  V30 8671 H 818.071 -2.47541 2.8897 0
M  V30 8672 H 817.583 -0.882255 3.77939 0
M  V30 8673 H 815.684 -2.89145 2.35002 0
M  V30 8674 H 815.797 -2.37361 4.16169 0
M  V30 8675 H 814.161 -1.34501 2.16291 0
M  V30 8676 H 814.944 -0.248098 3.42402 0
M  V30 8677 N 817.389 -1.46805 -0.573248 0
M  V30 8678 C 818.614 -1.56433 -1.36175 0
M  V30 8679 C 819.039 -0.209336 -1.86932 0
M  V30 8680 O 818.397 0.812146 -1.62092 0
M  V30 8681 C 818.445 -2.58055 -2.51873 0
M  V30 8682 O 817.549 -2.12214 -3.53609 0
M  V30 8683 H 816.89 -0.526068 -0.405153 0
M  V30 8684 H 819.42 -1.92456 -0.694405 0
M  V30 8685 H 819.43 -2.77966 -2.98662 0
M  V30 8686 H 818.105 -3.56448 -2.14284 0
M  V30 8687 H 816.682 -2.02333 -3.13234 0
M  V30 8688 N 818.867 0.818669 -1.34668 0
M  V30 8689 C 820.278 1.39177 -1.24446 0
M  V30 8690 C 820.629 1.9578 0.128268 0
M  V30 8691 O 819.754 1.90382 1.02877 0
M  V30 8692 C 820.349 2.53012 -2.25323 0
M  V30 8693 C 818.908 3.06218 -2.18878 0
M  V30 8694 C 818.055 1.79112 -2.11694 0
M  V30 8695 H 821.006 0.622709 -1.45973 0
M  V30 8696 H 821.027 3.31226 -1.8727 0
M  V30 8697 H 820.539 2.11784 -3.25221 0
M  V30 8698 H 818.64 3.51939 -1.22351 0
M  V30 8699 H 818.753 3.65019 -3.10319 0
M  V30 8700 H 817.117 2.0018 -1.57481 0
M  V30 8701 H 817.9 1.40053 -3.13433 0
M  V30 8702 N 820.346 1.18468 1.03938 0
M  V30 8703 C 821.574 1.00576 1.80809 0
M  V30 8704 C 821.989 -0.445786 1.83462 0
M  V30 8705 O 821.346 -1.30964 1.27101 0
M  V30 8706 C 821.397 1.55491 3.26351 0
M  V30 8707 O 821.118 2.94963 3.23926 0
M  V30 8708 C 822.619 1.42236 4.19862 0
M  V30 8709 H 819.839 0.35508 0.56935 0
M  V30 8710 H 822.383 1.57046 1.30984 0
M  V30 8711 H 820.538 1.03195 3.73403 0
M  V30 8712 H 820.952 3.20598 4.15111 0
M  V30 8713 H 822.426 1.85455 5.19914 0
M  V30 8714 H 822.903 0.371267 4.37628 0
M  V30 8715 H 823.509 1.9361 3.78675 0
M  V30 8716 N 821.824 -1.22873 0.986916 0
M  V30 8717 C 823.049 -1.96028 0.677341 0
M  V30 8718 C 823.474 -1.72487 -0.750319 0
M  V30 8719 O 822.832 -1.00036 -1.51203 0
M  V30 8720 C 822.88 -3.46983 0.981593 0
M  V30 8721 O 821.984 -4.12328 0.0770729 0
M  V30 8722 H 821.325 -0.613458 0.254096 0
M  V30 8723 H 823.855 -1.56132 1.32227 0
M  V30 8724 H 823.865 -3.9747 0.920969 0
M  V30 8725 H 822.54 -3.63442 2.02194 0
M  V30 8726 H 821.117 -3.72402 0.192666 0
M  V30 8727 N 823.302 -0.75937 -1.38099 0
M  V30 8728 C 824.713 -0.385078 -1.82686 0
M  V30 8729 C 825.064 1.0871 -1.6333 0
M  V30 8730 O 824.189 1.84084 -1.13762 0
M  V30 8731 C 824.784 -0.692161 -3.31654 0
M  V30 8732 C 823.343 -0.371077 -3.74566 0
M  V30 8733 C 822.49 -0.942375 -2.60796 0
M  V30 8734 H 825.441 -0.955048 -1.26746 0
M  V30 8735 H 825.462 0.0276001 -3.8049 0
M  V30 8736 H 824.974 -1.76369 -3.4571 0
M  V30 8737 H 823.075 0.693637 -3.66087 0
M  V30 8738 H 823.188 -0.870672 -4.71122 0
M  V30 8739 H 821.552 -0.367383 -2.52036 0
M  V30 8740 H 822.335 -2.01905 -2.77649 0
M  V30 8741 N 824.78 1.49157 -0.508906 0
M  V30 8742 C 826.191 1.86593 -0.0630975 0
M  V30 8743 C 826.542 1.42051 1.35337 0
M  V30 8744 O 825.667 0.801866 2.00995 0
M  V30 8745 C 826.262 3.38629 -0.107729 0
M  V30 8746 C 824.821 3.75336 0.282776 0
M  V30 8747 C 823.968 2.7317 -0.4768 0
M  V30 8748 H 826.919 1.41362 -0.72128 0
M  V30 8749 H 826.94 3.74271 0.685689 0
M  V30 8750 H 826.452 3.71017 -1.13876 0
M  V30 8751 H 824.553 3.48558 1.31675 0
M  V30 8752 H 824.666 4.79081 -0.0421728 0
M  V30 8753 H 823.03 2.54591 0.0743552 0
M  V30 8754 H 823.813 3.08403 -1.50807 0
M  V30 8755 N 826.258 0.243083 1.55714 0
M  V30 8756 C 827.669 -0.260788 1.8487 0
M  V30 8757 C 828.02 -1.57879 1.16485 0
M  V30 8758 O 827.145 -2.1184 0.441908 0
M  V30 8759 C 827.74 -0.479954 3.35383 0
M  V30 8760 C 826.299 -0.928096 3.64778 0
M  V30 8761 C 825.446 -0.00316416 2.773 0
M  V30 8762 H 828.397 0.465743 1.51712 0
M  V30 8763 H 828.418 -1.32308 3.56756 0
M  V30 8764 H 827.93 0.479468 3.85127 0
M  V30 8765 H 826.031 -1.90012 3.20509 0
M  V30 8766 H 826.144 -0.7876 4.72582 0
M  V30 8767 H 824.508 -0.513849 2.49463 0
M  V30 8768 H 825.291 0.951562 3.29849 0
M  V30 8769 N 827.736 -1.57571 -0.0300757 0
M  V30 8770 C 829.147 -1.77567 -0.576802 0
M  V30 8771 C 829.498 -0.874034 -1.75656 0
M  V30 8772 O 828.623 -0.0686124 -2.16291 0
M  V30 8773 C 829.218 -3.22016 -1.05315 0
M  V30 8774 C 827.777 -3.43212 -1.5454 0
M  V30 8775 C 826.924 -2.73061 -0.483033 0
M  V30 8776 H 829.875 -1.57483 0.196151 0
M  V30 8777 H 829.896 -3.28474 -1.92055 0
M  V30 8778 H 829.408 -3.87613 -0.194298 0
M  V30 8779 H 827.509 -2.82788 -2.42615 0
M  V30 8780 H 827.622 -4.5182 -1.5936 0
M  V30 8781 H 825.986 -2.36805 -0.937835 0
M  V30 8782 H 826.769 -3.4134 0.366341 0
M  V30 8783 N 829.214 0.302327 -1.54673 0
M  V30 8784 C 830.124 1.39542 -1.88587 0
M  V30 8785 C 831.14 1.55543 -0.779895 0
M  V30 8786 O 832.316 1.70233 -1.07623 0
M  V30 8787 C 829.381 2.7394 -2.12504 0
M  V30 8788 C 828.442 2.66935 -3.3622 0
M  V30 8789 C 827.675 3.94923 -3.58987 0
M  V30 8790 O 827.898 4.94218 -2.84789 0
M  V30 8791 O 826.832 3.96896 -4.52501 0
M  V30 8792 H 830.658 1.13784 -2.81579 0
M  V30 8793 H 828.243 0.49827 -1.40846 0
M  V30 8794 H 830.125 3.5346 -2.29443 0
M  V30 8795 H 828.8 2.99544 -1.22698 0
M  V30 8796 H 827.707 1.85892 -3.24646 0
M  V30 8797 H 829.04 2.46283 -4.26152 0
M  V30 8798 N 830.692 1.47107 0.565454 0
M  V30 8799 C 831.622 1.61846 1.68309 0
M  V30 8800 C 832.603 0.468159 1.63531 0
M  V30 8801 O 833.788 0.696504 1.8128 0
M  V30 8802 C 830.918 1.62474 3.06952 0
M  V30 8803 C 829.872 2.76649 3.26572 0
M  V30 8804 C 829.198 2.62345 4.65917 0
M  V30 8805 C 830.498 4.18319 3.12741 0
M  V30 8806 H 832.192 2.55407 1.5623 0
M  V30 8807 H 829.738 1.22916 0.750179 0
M  V30 8808 H 831.691 1.71378 3.84977 0
M  V30 8809 H 830.415 0.654692 3.19971 0
M  V30 8810 H 829.074 2.67242 2.50952 0
M  V30 8811 H 828.722 1.63386 4.75725 0
M  V30 8812 H 828.422 3.38936 4.79996 0
M  V30 8813 H 829.946 2.73165 5.46089 0
M  V30 8814 H 831.36 4.28745 3.80593 0
M  V30 8815 H 829.757 4.95632 3.38333 0
M  V30 8816 H 830.827 4.37263 2.09592 0
M  V30 8817 N 832.17 -0.811516 1.35101 0
M  V30 8818 C 833.103 -1.92872 1.21966 0
M  V30 8819 C 834.081 -1.62236 0.108667 0
M  V30 8820 O 835.265 -1.8647 0.275875 0
M  V30 8821 C 832.392 -3.27152 0.876886 0
M  V30 8822 C 831.438 -3.7674 1.99924 0
M  V30 8823 S 832.271 -3.95132 3.61429 0
M  V30 8824 C 833.427 -5.32322 3.29218 0
M  V30 8825 H 833.66 -2.03718 2.16532 0
M  V30 8826 H 831.193 -0.968352 1.20259 0
M  V30 8827 H 833.151 -4.04729 0.685917 0
M  V30 8828 H 831.812 -3.14059 -0.0506289 0
M  V30 8829 H 831.005 -4.73981 1.71343 0
M  V30 8830 H 830.607 -3.06145 2.14829 0
M  V30 8831 H 832.899 -6.1614 2.8174 0
M  V30 8832 H 833.842 -5.65893 4.25641 0
M  V30 8833 H 834.25 -4.98374 2.65111 0
M  V30 8834 N 833.648 -1.19017 -1.03309 0
M  V30 8835 C 834.925 -0.899659 -1.73682 0
M  V30 8836 C 835.305 0.595677 -2.02521 0
M  V30 8837 O 834.653 1.55263 -1.67648 0
M  V30 8838 C 834.863 -1.75508 -3.01659 0
M  V30 8839 C 836.211 -1.98679 -3.75249 0
M  V30 8840 O 837.235 -1.72624 -3.11576 0
M  V30 8841 O 836.094 -2.42587 -4.89708 0
M  V30 8842 H 833.188 -0.334903 -0.756154 0
M  V30 8843 H 835.734 -1.29809 -1.09305 0
M  V30 8844 H 834.506 -2.7684 -2.76542 0
M  V30 8845 H 834.129 -1.35565 -3.73775 0
M  V30 8846 N 835.127 1.22348 -0.993418 0
M  V30 8847 C 836.373 1.91393 -0.67056 0
M  V30 8848 C 836.706 1.77163 0.795428 0
M  V30 8849 O 835.981 1.14084 1.57528 0
M  V30 8850 C 836.264 3.43589 -1.0779 0
M  V30 8851 C 836.117 3.66867 -2.60248 0
M  V30 8852 C 837.436 4.35545 -0.631527 0
M  V30 8853 H 834.555 0.695057 -0.24508 0
M  V30 8854 H 837.197 1.44213 -1.23703 0
M  V30 8855 H 835.347 3.83903 -0.595902 0
M  V30 8856 H 837.019 3.35954 -3.16121 0
M  V30 8857 H 835.262 3.1113 -3.02293 0
M  V30 8858 H 835.933 4.73457 -2.838 0
M  V30 8859 H 838.409 4.0275 -1.04554 0
M  V30 8860 H 837.285 5.40707 -0.944831 0
M  V30 8861 H 837.546 4.39618 0.467779 0
M  V30 8862 N 836.605 0.766683 1.37694 0
M  V30 8863 C 837.83 0.338715 2.04615 0
M  V30 8864 C 838.255 -1.02918 1.57447 0
M  V30 8865 O 837.613 -1.65849 0.732386 0
M  V30 8866 C 837.661 0.385284 3.58536 0
M  V30 8867 O 836.765 -0.616081 4.07772 0
M  V30 8868 H 836.106 0.147527 0.647404 0
M  V30 8869 H 838.636 1.04146 1.7611 0
M  V30 8870 H 838.646 0.240782 4.07289 0
M  V30 8871 H 837.321 1.38325 3.92223 0
M  V30 8872 H 835.898 -0.435115 3.70353 0
M  V30 8873 N 838.083 -1.48885 0.516809 0
M  V30 8874 C 839.013 -2.32241 -0.242157 0
M  V30 8875 C 839.994 -1.41258 -0.947633 0
M  V30 8876 O 841.179 -1.70156 -0.935973 0
M  V30 8877 C 838.309 -3.22151 -1.29754 0
M  V30 8878 C 837.263 -4.22053 -0.710995 0
M  V30 8879 C 836.589 -5.01007 -1.86806 0
M  V30 8880 C 837.889 -5.21388 0.30853 0
M  V30 8881 H 839.583 -2.95943 0.453651 0
M  V30 8882 H 837.129 -1.42316 0.219612 0
M  V30 8883 H 839.082 -3.79284 -1.83634 0
M  V30 8884 H 837.806 -2.56423 -2.02274 0
M  V30 8885 H 836.465 -3.66087 -0.193819 0
M  V30 8886 H 836.113 -4.31713 -2.58133 0
M  V30 8887 H 835.813 -5.68615 -1.48159 0
M  V30 8888 H 837.337 -5.60989 -2.4109 0
M  V30 8889 H 838.751 -5.73122 -0.142703 0
M  V30 8890 H 837.148 -5.96975 0.611673 0
M  V30 8891 H 838.218 -4.69329 1.21894 0
M  V30 8892 N 839.561 -0.251338 -1.55583 0
M  V30 8893 C 840.807 0.37272 -1.99346 0
M  V30 8894 C 841.14 1.57266 -1.13934 0
M  V30 8895 O 840.415 1.9343 -0.20377 0
M  V30 8896 C 840.698 0.778245 -3.5159 0
M  V30 8897 C 840.551 -0.427394 -4.47765 0
M  V30 8898 C 841.87 1.62358 -4.09057 0
M  V30 8899 H 838.989 0.134002 -0.724715 0
M  V30 8900 H 841.631 -0.353536 -1.86682 0
M  V30 8901 H 839.781 1.39704 -3.62512 0
M  V30 8902 H 841.453 -1.06586 -4.48818 0
M  V30 8903 H 839.696 -1.06972 -4.20404 0
M  V30 8904 H 840.367 -0.10025 -5.51909 0
M  V30 8905 H 842.843 1.1012 -4.01264 0
M  V30 8906 H 841.719 1.87617 -5.1584 0
M  V30 8907 H 841.98 2.59688 -3.57791 0
M  V30 8908 N 841.039 1.57585 0.0217189 0
M  V30 8909 C 842.287 1.89231 0.709641 0
M  V30 8910 C 842.608 0.849964 1.75501 0
M  V30 8911 O 841.878 -0.115485 1.95559 0
M  V30 8912 H 840.458 0.69838 0.265092 0
M  V30 8913 H 843.12 1.94895 -0.0140688 0
M  V30 8914 H 842.216 2.88333 1.19459 0
M  V30 8915 N 842.517 -0.29412 1.54831 0
M  V30 8916 C 843.765 -1.02643 1.74094 0
M  V30 8917 C 844.086 -1.87563 0.533402 0
M  V30 8918 O 843.356 -1.9061 -0.452192 0
M  V30 8919 H 841.936 -0.381959 0.641963 0
M  V30 8920 H 844.598 -0.323444 1.92197 0
M  V30 8921 H 843.694 -1.67558 2.63307 0
M  V30 8922 N 843.995 -1.47404 -0.557645 0
M  V30 8923 C 845.406 -1.47872 -1.13977 0
M  V30 8924 C 845.757 -0.233176 -1.94809 0
M  V30 8925 O 844.882 0.661945 -2.06027 0
M  V30 8926 C 845.477 -2.67926 -2.07368 0
M  V30 8927 C 844.036 -2.71354 -2.60852 0
M  V30 8928 C 843.183 -2.40967 -1.37223 0
M  V30 8929 H 846.134 -1.54921 -0.344268 0
M  V30 8930 H 846.155 -2.44871 -2.91236 0
M  V30 8931 H 845.667 -3.58562 -1.48509 0
M  V30 8932 H 843.768 -1.84855 -3.23511 0
M  V30 8933 H 843.881 -3.72032 -3.01876 0
M  V30 8934 H 842.245 -1.91541 -1.67882 0
M  V30 8935 H 843.028 -3.33811 -0.801583 0
M  V30 8936 N 845.473 0.80434 -1.35529 0
M  V30 8937 C 846.436 1.89788 -1.28503 0
M  V30 8938 C 847.436 1.59601 -0.195983 0
M  V30 8939 O 848.626 1.68292 -0.449827 0
M  V30 8940 C 845.758 3.26255 -0.98847 0
M  V30 8941 H 846.951 1.97436 -2.25741 0
M  V30 8942 H 844.504 1.00046 -1.20086 0
M  V30 8943 H 845.239 3.24294 -0.0200541 0
M  V30 8944 H 845.024 3.49551 -1.77641 0
M  V30 8945 H 846.514 4.06298 -0.964975 0
M  V30 8946 N 846.951 1.19563 1.02676 0
M  V30 8947 C 848.228 0.908857 1.73203 0
M  V30 8948 C 848.608 -0.584928 2.02834 0
M  V30 8949 O 847.956 -1.54372 1.68469 0
M  V30 8950 C 848.166 1.77105 3.00724 0
M  V30 8951 C 849.514 2.00667 3.7419 0
M  V30 8952 O 850.538 1.74274 3.10656 0
M  V30 8953 O 849.397 2.4518 4.88415 0
M  V30 8954 H 846.491 0.338909 0.754367 0
M  V30 8955 H 849.037 1.30387 1.08616 0
M  V30 8956 H 847.809 2.78303 2.7507 0
M  V30 8957 H 847.432 1.37546 3.73051 0
M  V30 8958 N 848.429 -1.21819 0.999893 0
M  V30 8959 C 849.669 -1.92473 0.687996 0
M  V30 8960 C 850.033 -1.76033 -0.766569 0
M  V30 8961 O 851.234 -2.41013 -1.19021 0
M  V30 8962 C 849.505 -3.40332 1.09129 0
M  V30 8963 S 851.064 -4.29496 0.898822 0
M  V30 8964 H 847.882 -0.665097 0.251329 0
M  V30 8965 H 850.484 -1.47454 1.28364 0
M  V30 8966 H 849.188 -3.49812 2.14615 0
M  V30 8967 H 848.719 -3.90365 0.487724 0
M  V30 8968 H 850.734 -4.95769 -0.206873 0
M  V30 8969 N 849.908 -0.773975 -1.37286 0
M  V30 8970 C 851.133 -0.349561 -2.04433 0
M  V30 8971 C 851.558 1.02082 -1.5799 0
M  V30 8972 O 850.916 1.65458 -0.741172 0
M  V30 8973 C 850.964 -0.404292 -3.58326 0
M  V30 8974 O 850.068 0.594447 -4.08093 0
M  V30 8975 H 849.409 -0.150959 -0.646612 0
M  V30 8976 H 851.939 -1.05079 -1.75555 0
M  V30 8977 H 851.949 -0.262378 -4.07155 0
M  V30 8978 H 850.624 -1.40403 -3.91484 0
M  V30 8979 H 849.201 0.415468 -3.70578 0
M  V30 8980 N 851.386 1.48609 -0.524698 0
M  V30 8981 C 852.797 1.86516 -0.0828846 0
M  V30 8982 C 853.148 1.43478 1.33822 0
M  V30 8983 O 852.273 0.823139 2.00133 0
M  V30 8984 C 852.868 3.38495 -0.143639 0
M  V30 8985 C 851.427 3.75615 0.242951 0
M  V30 8986 C 850.574 2.72649 -0.505747 0
M  V30 8987 H 853.525 1.40589 -0.736233 0
M  V30 8988 H 853.546 3.74977 0.645955 0
M  V30 8989 H 853.058 3.69789 -1.17805 0
M  V30 8990 H 851.159 3.49935 1.27971 0
M  V30 8991 H 851.272 4.7901 -0.0929834 0
M  V30 8992 H 849.636 2.54656 0.0473482 0
M  V30 8993 H 850.419 3.06786 -1.54069 0
M  V30 8994 N 852.864 0.259585 1.55447 0
M  V30 8995 C 854.275 -0.241165 1.85136 0
M  V30 8996 C 854.626 -1.56634 1.18153 0
M  V30 8997 O 853.751 -2.11359 0.464351 0
M  V30 8998 C 854.346 -0.444355 3.35873 0
M  V30 8999 C 852.905 -0.889354 3.65742 0
M  V30 9000 C 852.052 0.0262474 2.77288 0
M  V30 9001 H 855.003 0.481808 1.51209 0
M  V30 9002 H 855.024 -1.28517 3.58139 0
M  V30 9003 H 854.536 0.520289 3.84597 0
M  V30 9004 H 852.637 -1.86602 3.22507 0
M  V30 9005 H 852.75 -0.737432 4.73391 0
M  V30 9006 H 851.114 -0.487361 2.49994 0
M  V30 9007 H 851.897 0.986494 3.28821 0
M  V30 9008 N 854.342 -1.57594 -0.0133615 0
M  V30 9009 C 855.292 -2.04048 -1.01726 0
M  V30 9010 C 856.276 -0.932682 -1.3111 0
M  V30 9011 O 857.468 -1.19652 -1.30432 0
M  V30 9012 C 854.597 -2.53637 -2.31351 0
M  V30 9013 C 853.683 -3.71269 -2.04989 0
M  V30 9014 N 854.074 -4.83436 -1.48739 0
M  V30 9015 C 852.372 -3.78943 -2.35198 0
M  V30 9016 C 853.073 -5.64961 -1.38542 0
M  V30 9017 N 852.049 -5.10554 -1.86643 0
M  V30 9018 H 855.851 -2.88188 -0.576623 0
M  V30 9019 H 853.365 -1.60912 -0.219344 0
M  V30 9020 H 855.362 -2.85186 -3.04096 0
M  V30 9021 H 854.022 -1.7091 -2.76079 0
M  V30 9022 H 855.033 -5.04558 -1.16798 0
M  V30 9023 H 851.71 -3.07047 -2.82893 0
M  V30 9024 H 853.1 -6.65092 -0.954075 0
M  V30 9025 N 855.82 0.285905 -1.54985 0
M  V30 9026 C 857.231 0.857869 -1.65824 0
M  V30 9027 C 857.582 1.87531 -0.576763 0
M  V30 9028 O 856.707 2.14528 0.284016 0
M  V30 9029 C 857.302 1.56277 -3.00604 0
M  V30 9030 C 855.861 2.08294 -3.13513 0
M  V30 9031 C 855.008 0.920633 -2.61571 0
M  V30 9032 H 857.959 0.0625463 -1.58577 0
M  V30 9033 H 857.98 2.42912 -2.92872 0
M  V30 9034 H 857.492 0.822017 -3.79295 0
M  V30 9035 H 855.593 2.8537 -2.39572 0
M  V30 9036 H 855.706 2.3071 -4.19892 0
M  V30 9037 H 854.07 1.31043 -2.18403 0
M  V30 9038 H 854.853 0.193594 -3.42754 0
M  V30 9039 N 857.298 1.47698 0.54982 0
M  V30 9040 C 858.261 1.60282 1.63837 0
M  V30 9041 C 859.261 0.477394 1.5355 0
M  V30 9042 O 860.451 0.742665 1.57576 0
M  V30 9043 C 857.583 1.55431 3.03404 0
M  V30 9044 H 858.776 2.57325 1.54026 0
M  V30 9045 H 856.329 1.35999 0.770329 0
M  V30 9046 H 857.064 0.597912 3.1874 0
M  V30 9047 H 856.849 2.37116 3.12279 0
M  V30 9048 H 858.339 1.6739 3.82584 0
M  V30 9049 N 858.776 -0.797141 1.35954 0
M  V30 9050 C 860.187 -1.37179 1.26644 0
M  V30 9051 C 860.538 -1.9596 -0.0971046 0
M  V30 9052 O 859.663 -1.91994 -0.998355 0
M  V30 9053 C 860.258 -2.49395 2.2932 0
M  V30 9054 C 858.817 -3.02697 2.23722 0
M  V30 9055 C 857.964 -1.75721 2.14517 0
M  V30 9056 H 860.915 -0.599407 1.46945 0
M  V30 9057 H 860.936 -3.28204 1.92515 0
M  V30 9058 H 860.448 -2.06584 3.2855 0
M  V30 9059 H 858.549 -3.49948 1.27934 0
M  V30 9060 H 858.662 -3.60036 3.16087 0
M  V30 9061 H 857.026 -1.97649 1.60646 0
M  V30 9062 H 857.809 -1.35049 3.15621 0
M  V30 9063 N 860.254 -1.20106 -1.0204 0
M  V30 9064 C 861.217 -0.948261 -2.08664 0
M  V30 9065 C 862.217 0.0746753 -1.60627 0
M  V30 9066 O 863.407 -0.160981 -1.73455 0
M  V30 9067 C 860.539 -0.426854 -3.38217 0
M  V30 9068 H 861.732 -1.894 -2.32524 0
M  V30 9069 H 859.285 -1.0159 -1.18782 0
M  V30 9070 H 860.02 0.524532 -3.2003 0
M  V30 9071 H 859.805 -1.16451 -3.74408 0
M  V30 9072 H 861.295 -0.269346 -4.1673 0
M  V30 9073 N 861.732 1.21287 -1.00634 0
M  V30 9074 C 863.143 1.72136 -0.722914 0
M  V30 9075 C 863.494 1.8091 0.759338 0
M  V30 9076 O 862.619 1.46458 1.59308 0
M  V30 9077 C 863.214 3.12633 -1.30561 0
M  V30 9078 C 861.773 3.60833 -1.07127 0
M  V30 9079 C 860.92 2.38326 -1.4176 0
M  V30 9080 H 863.871 1.06445 -1.17708 0
M  V30 9081 H 863.892 3.74174 -0.690937 0
M  V30 9082 H 863.404 3.06215 -2.38441 0
M  V30 9083 H 861.505 3.72599 -0.00968671 0
M  V30 9084 H 861.618 4.46226 -1.74411 0
M  V30 9085 H 859.982 2.40575 -0.836412 0
M  V30 9086 H 860.765 2.34558 -2.50674 0
M  V30 9087 N 863.21 0.781244 1.36873 0
M  V30 9088 C 864.142 0.132075 2.28819 0
M  V30 9089 C 865.155 -0.653925 1.49089 0
M  V30 9090 O 866.344 -0.490453 1.7163 0
M  V30 9091 C 863.444 -0.836297 3.28419 0
M  V30 9092 C 862.617 -0.102097 4.37281 0
M  V30 9093 C 861.676 -0.985217 5.16894 0
M  V30 9094 O 860.702 -0.445478 5.67454 0
M  V30 9095 N 861.904 -2.31043 5.3254 0
M  V30 9096 H 864.669 0.921838 2.85171 0
M  V30 9097 H 862.23 0.634427 1.48952 0
M  V30 9098 H 864.222 -1.43074 3.78566 0
M  V30 9099 H 862.792 -1.52698 2.72767 0
M  V30 9100 H 862.012 0.67335 3.88407 0
M  V30 9101 H 863.3 0.404862 5.07187 0
M  V30 9102 H 862.698 -2.77318 4.93063 0
M  V30 9103 H 861.255 -2.85472 5.8596 0
M  V30 9104 N 864.689 -1.48329 0.532571 0
M  V30 9105 C 865.639 -2.2664 -0.24868 0
M  V30 9106 C 866.623 -1.32861 -0.907563 0
M  V30 9107 O 867.815 -1.57382 -0.809942 0
M  V30 9108 C 864.944 -3.18004 -1.29339 0
M  V30 9109 C 864.03 -4.19256 -0.639166 0
M  V30 9110 N 864.421 -5.05043 0.276597 0
M  V30 9111 C 862.719 -4.36906 -0.896062 0
M  V30 9112 C 863.42 -5.78009 0.654261 0
M  V30 9113 N 862.396 -5.43598 0.0147447 0
M  V30 9114 H 866.198 -2.90344 0.455792 0
M  V30 9115 H 863.712 -1.58566 0.350778 0
M  V30 9116 H 865.709 -3.72767 -1.86682 0
M  V30 9117 H 864.369 -2.55855 -1.99921 0
M  V30 9118 H 865.38 -5.13813 0.649351 0
M  V30 9119 H 862.057 -3.85945 -1.59226 0
M  V30 9120 H 863.447 -6.57039 1.40532 0
M  V30 9121 N 866.167 -0.267825 -1.55308 0
M  V30 9122 C 867.578 0.231344 -1.85261 0
M  V30 9123 C 867.929 1.56006 -1.18982 0
M  V30 9124 O 867.054 2.1111 -0.475554 0
M  V30 9125 C 867.649 0.426537 -3.36104 0
M  V30 9126 C 866.208 0.869945 -3.66209 0
M  V30 9127 C 865.355 -0.0409522 -2.7727 0
M  V30 9128 H 868.306 -0.489821 -1.50952 0
M  V30 9129 H 868.327 1.26616 -3.58816 0
M  V30 9130 H 867.839 -0.540678 -3.84315 0
M  V30 9131 H 865.94 1.84889 -3.23492 0
M  V30 9132 H 866.053 0.712316 -4.73775 0
M  V30 9133 H 864.417 0.474097 -2.50249 0
M  V30 9134 H 865.2 -1.00392 -3.28293 0
M  V30 9135 N 867.645 1.57599 0.00500368 0
M  V30 9136 C 868.608 2.07058 0.982832 0
M  V30 9137 C 869.608 0.979045 1.27559 0
M  V30 9138 O 870.798 1.24187 1.22161 0
M  V30 9139 C 867.93 2.50782 2.30914 0
M  V30 9140 H 869.123 2.94718 0.555119 0
M  V30 9141 H 866.676 1.54249 0.25237 0
M  V30 9142 H 867.411 1.66351 2.78385 0
M  V30 9143 H 867.196 3.30495 2.10987 0
M  V30 9144 H 868.686 2.89391 3.0107 0
M  V30 9145 N 869.123 -0.277682 1.55134 0
M  V30 9146 C 870.086 -1.32635 1.86924 0
M  V30 9147 C 871.086 -1.42578 0.743507 0
M  V30 9148 O 872.276 -1.4181 1.01171 0
M  V30 9149 C 869.408 -2.70832 2.07034 0
M  V30 9150 H 870.601 -1.0568 2.80663 0
M  V30 9151 H 868.154 -0.515517 1.47554 0
M  V30 9152 H 868.889 -3.02974 1.15661 0
M  V30 9153 H 868.674 -2.65001 2.88993 0
M  V30 9154 H 870.164 -3.46611 2.32918 0
M  V30 9155 N 870.601 -1.47988 -0.541979 0
M  V30 9156 C 871.826 -1.59286 -1.32826 0
M  V30 9157 C 872.251 -0.24894 -1.86445 0
M  V30 9158 O 871.609 0.777581 -1.63778 0
M  V30 9159 C 871.657 -2.6334 -2.46343 0
M  V30 9160 O 870.761 -2.19667 -3.49028 0
M  V30 9161 H 870.102 -0.534543 -0.393903 0
M  V30 9162 H 872.632 -1.93885 -0.653427 0
M  V30 9163 H 872.642 -2.84238 -2.92699 0
M  V30 9164 H 871.317 -3.60913 -2.06675 0
M  V30 9165 H 869.894 -2.08932 -3.08872 0
M  V30 9166 N 872.079 0.78992 -1.36375 0
M  V30 9167 C 873.042 1.88414 -1.30509 0
M  V30 9168 C 874.042 1.59384 -0.2129 0
M  V30 9169 O 875.232 1.67805 -0.467651 0
M  V30 9170 C 872.364 3.25188 -1.02302 0
M  V30 9171 H 873.557 1.95031 -2.27822 0
M  V30 9172 H 871.11 0.987664 -1.2114 0
M  V30 9173 H 871.845 3.24254 -0.0544486 0
M  V30 9174 H 871.63 3.47647 -1.81338 0
M  V30 9175 H 873.12 4.05252 -1.00801 0
M  V30 9176 N 873.557 1.20646 1.01402 0
M  V30 9177 C 874.487 0.98155 2.11867 0
M  V30 9178 C 875.468 -0.0903712 1.6986 0
M  V30 9179 O 876.653 0.0676586 1.94082 0
M  V30 9180 C 873.783 0.535636 3.43145 0
M  V30 9181 C 872.737 1.55109 3.98905 0
M  V30 9182 C 872.063 0.961725 5.2598 0
M  V30 9183 C 873.363 2.93552 4.32001 0
M  V30 9184 H 875.057 1.90544 2.3094 0
M  V30 9185 H 872.603 0.917554 1.10982 0
M  V30 9186 H 874.556 0.365512 4.19812 0
M  V30 9187 H 873.28 -0.423882 3.23838 0
M  V30 9188 H 871.939 1.70862 3.24348 0
M  V30 9189 H 871.587 -0.00580108 5.03 0
M  V30 9190 H 871.287 1.63993 5.64252 0
M  V30 9191 H 872.811 0.802726 6.053 0
M  V30 9192 H 874.225 2.81295 4.99546 0
M  V30 9193 H 872.622 3.58303 4.81393 0
M  V30 9194 H 873.692 3.4508 3.40658 0
M  V30 9195 N 875.035 -1.20752 1.01276 0
M  V30 9196 C 876.451 -1.42084 0.726934 0
M  V30 9197 C 876.651 -1.89138 -0.694907 0
M  V30 9198 O 875.707 -2.05783 -1.4632 0
M  V30 9199 C 877.02 -2.44575 1.74938 0
M  V30 9200 C 878.568 -2.58347 1.76708 0
M  V30 9201 C 879.043 -3.64078 2.77869 0
M  V30 9202 N 880.534 -3.71558 2.76585 0
M  V30 9203 C 881.269 -4.53016 3.51517 0
M  V30 9204 N 880.765 -5.38309 4.36114 0
M  V30 9205 N 882.558 -4.47512 3.40132 0
M  V30 9206 H 874.709 -0.885228 1.93074 0
M  V30 9207 H 876.972 -0.451075 0.833808 0
M  V30 9208 H 876.678 -2.1699 2.76782 0
M  V30 9209 H 876.552 -3.43503 1.55838 0
M  V30 9210 H 878.939 -2.85265 0.755516 0
M  V30 9211 H 879.02 -1.59628 1.99882 0
M  V30 9212 H 878.664 -3.37905 3.79187 0
M  V30 9213 H 878.594 -4.62412 2.51958 0
M  V30 9214 H 881.085 -3.10629 2.15216 0
M  V30 9215 H 881.398 -5.9754 4.90068 0
M  V30 9216 H 879.743 -5.37824 4.40194 0
M  V30 9217 H 882.934 -3.79912 2.73467 0
M  V30 9218 H 883.107 -5.10759 3.98784 0
M  V30 9219 N 876.513 -0.788492 -1.36457 0
M  V30 9220 C 877.741 -0.372365 -2.03522 0
M  V30 9221 C 878.156 1.01093 -1.59454 0
M  V30 9222 O 877.513 1.64824 -0.783535 0
M  V30 9223 C 877.564 -0.425435 -3.58988 0
M  V30 9224 O 877.285 -1.75418 -4.01448 0
M  V30 9225 C 878.786 0.000180167 -4.433 0
M  V30 9226 H 876.006 -0.1536 -0.653183 0
M  V30 9227 H 878.55 -1.06708 -1.74452 0
M  V30 9228 H 876.705 0.220856 -3.8677 0
M  V30 9229 H 877.119 -1.70437 -4.96036 0
M  V30 9230 H 878.593 -0.0880919 -5.5193 0
M  V30 9231 H 879.07 1.05269 -4.26398 0
M  V30 9232 H 879.676 -0.618563 -4.20778 0
M  V30 9233 N 877.991 1.48044 -0.54043 0
M  V30 9234 C 879.407 1.58354 -0.199006 0
M  V30 9235 C 879.607 1.54118 1.29807 0
M  V30 9236 O 878.663 1.43573 2.07709 0
M  V30 9237 C 879.976 2.89563 -0.810797 0
M  V30 9238 C 881.524 3.03113 -0.780486 0
M  V30 9239 C 881.999 4.36997 -1.37104 0
M  V30 9240 N 883.49 4.43591 -1.33347 0
M  V30 9241 C 884.225 5.45714 -1.76021 0
M  V30 9242 N 883.721 6.54738 -2.26473 0
M  V30 9243 N 885.514 5.36659 -1.67194 0
M  V30 9244 H 877.665 1.49041 -1.51329 0
M  V30 9245 H 879.928 0.708309 -0.630081 0
M  V30 9246 H 879.634 2.9835 -1.86227 0
M  V30 9247 H 879.508 3.76053 -0.293977 0
M  V30 9248 H 881.895 2.93932 0.262246 0
M  V30 9249 H 881.976 2.18207 -1.33489 0
M  V30 9250 H 881.62 4.46932 -2.41276 0
M  V30 9251 H 881.55 5.20607 -0.792229 0
M  V30 9252 H 884.041 3.65391 -0.964259 0
M  V30 9253 H 884.354 7.28814 -2.57002 0
M  V30 9254 H 882.699 6.55673 -2.30473 0
M  V30 9255 H 885.89 4.50382 -1.27569 0
M  V30 9256 H 886.063 6.16113 -2.00771 0
M  V30 9257 N 879.47 0.276058 1.55163 0
M  V30 9258 C 880.403 -0.652386 2.18676 0
M  V30 9259 C 881.381 -1.15151 1.148 0
M  V30 9260 O 882.565 -1.22431 1.43328 0
M  V30 9261 C 879.692 -1.88982 2.81076 0
M  V30 9262 C 878.738 -1.52609 3.98262 0
M  V30 9263 S 879.571 -0.603445 5.32089 0
M  V30 9264 C 880.727 -1.84923 5.97958 0
M  V30 9265 H 880.96 -0.112733 2.97086 0
M  V30 9266 H 878.493 0.0603118 1.54282 0
M  V30 9267 H 880.451 -2.60007 3.17658 0
M  V30 9268 H 879.112 -2.40061 2.02557 0
M  V30 9269 H 878.305 -2.44689 4.40617 0
M  V30 9270 H 877.907 -0.89601 3.63108 0
M  V30 9271 H 880.199 -2.79303 6.17249 0
M  V30 9272 H 881.142 -1.46868 6.92702 0
M  V30 9273 H 881.55 -2.0146 5.27327 0
M  V30 9274 N 880.948 -1.576 0.00335426 0
M  V30 9275 C 882.176 -1.94996 -0.691685 0
M  V30 9276 C 882.591 -0.878405 -1.67121 0
M  V30 9277 O 881.948 0.142343 -1.81944 0
M  V30 9278 C 881.999 -3.32416 -1.42063 0
M  V30 9279 O 881.72 -4.35458 -0.48038 0
M  V30 9280 C 883.221 -3.84291 -2.20987 0
M  V30 9281 H 880.441 -0.642814 -0.192434 0
M  V30 9282 H 882.985 -2.04425 0.0554706 0
M  V30 9283 H 881.14 -3.24285 -2.11939 0
M  V30 9284 H 881.554 -5.14975 -0.995054 0
M  V30 9285 H 883.028 -4.82863 -2.67483 0
M  V30 9286 H 883.505 -3.17174 -3.03805 0
M  V30 9287 H 884.111 -3.95609 -1.56121 0
M  V30 9288 N 882.426 0.269451 -1.5528 0
M  V30 9289 C 883.674 0.998604 -1.75705 0
M  V30 9290 C 883.995 1.86691 -0.563175 0
M  V30 9291 O 883.265 1.91305 0.421811 0
M  V30 9292 H 881.845 0.371698 -0.647958 0
M  V30 9293 H 884.507 0.292826 -1.92688 0
M  V30 9294 H 883.603 1.63348 -2.6594 0
M  V30 9295 N 883.904 1.48273 0.534124 0
M  V30 9296 C 885.152 1.55771 1.28762 0
M  V30 9297 C 885.473 0.231575 1.9362 0
M  V30 9298 O 884.743 -0.746533 1.81118 0
M  V30 9299 H 883.323 0.573851 0.47823 0
M  V30 9300 H 885.985 1.84712 0.621888 0
M  V30 9301 H 885.081 2.33657 2.06908 0
M  V30 9302 N 885.382 -0.782676 1.36792 0
M  V30 9303 C 886.798 -1.08169 1.17352 0
M  V30 9304 C 886.998 -2.015 0.0022037 0
M  V30 9305 O 886.054 -2.43692 -0.661093 0
M  V30 9306 C 887.367 -1.68969 2.48737 0
M  V30 9307 C 888.915 -1.81278 2.55161 0
M  V30 9308 C 889.39 -2.45492 3.86649 0
M  V30 9309 N 890.881 -2.52954 3.88032 0
M  V30 9310 C 891.616 -3.03465 4.86515 0
M  V30 9311 N 891.112 -3.54232 5.95392 0
M  V30 9312 N 892.905 -3.02239 4.73928 0
M  V30 9313 H 885.056 -0.162757 2.11775 0
M  V30 9314 H 887.319 -0.134823 0.938364 0
M  V30 9315 H 887.025 -1.07859 3.34753 0
M  V30 9316 H 886.899 -2.68397 2.65034 0
M  V30 9317 H 889.286 -2.41524 1.69559 0
M  V30 9318 H 889.367 -0.806367 2.42758 0
M  V30 9319 H 889.011 -1.85889 4.7266 0
M  V30 9320 H 888.941 -3.46718 3.96351 0
M  V30 9321 H 891.432 -2.17014 3.09376 0
M  V30 9322 H 891.745 -3.91145 6.66503 0
M  V30 9323 H 890.09 -3.52366 5.99052 0
M  V30 9324 H 893.281 -2.61871 3.87996 0
M  V30 9325 H 893.454 -3.41295 5.50837 0
M  V30 9326 N 886.86 -1.21182 -1.00761 0
M  V30 9327 C 888.271 -1.02652 -1.55947 0
M  V30 9328 C 888.622 0.414466 -1.91772 0
M  V30 9329 O 887.747 1.29727 -1.73204 0
M  V30 9330 C 888.342 -1.85713 -2.83366 0
M  V30 9331 C 886.901 -1.71523 -3.35048 0
M  V30 9332 C 886.048 -1.83087 -2.08265 0
M  V30 9333 H 888.999 -1.35242 -0.830379 0
M  V30 9334 H 889.02 -1.36583 -3.55141 0
M  V30 9335 H 888.532 -2.90584 -2.5726 0
M  V30 9336 H 886.633 -0.693257 -3.66094 0
M  V30 9337 H 886.746 -2.53333 -4.06644 0
M  V30 9338 H 885.11 -1.26367 -2.21141 0
M  V30 9339 H 885.893 -2.8946 -1.84575 0
M  V30 9340 N 888.338 1.20213 -1.01915 0
M  V30 9341 C 889.749 1.7136 -0.741131 0
M  V30 9342 C 890.1 1.81705 0.740107 0
M  V30 9343 O 889.225 1.48139 1.57746 0
M  V30 9344 C 889.82 3.11231 -1.33869 0
M  V30 9345 C 888.379 3.59677 -1.10948 0
M  V30 9346 C 887.526 2.36809 -1.4428 0
M  V30 9347 H 890.477 1.05191 -1.1883 0
M  V30 9348 H 890.498 3.7342 -0.730585 0
M  V30 9349 H 890.01 3.03669 -2.41675 0
M  V30 9350 H 888.111 3.72568 -0.0492052 0
M  V30 9351 H 888.224 4.44351 -1.79134 0
M  V30 9352 H 886.588 2.39674 -0.861881 0
M  V30 9353 H 887.371 2.31886 -2.53148 0
M  V30 9354 N 889.816 0.795718 1.36037 0
M  V30 9355 C 890.746 0.212803 2.32528 0
M  V30 9356 C 891.727 -0.655716 1.56953 0
M  V30 9357 O 892.912 -0.588238 1.85077 0
M  V30 9358 C 890.042 -0.648189 3.41198 0
M  V30 9359 C 888.996 0.120948 4.27829 0
M  V30 9360 C 888.322 -0.861044 5.27722 0
M  V30 9361 C 889.622 1.31375 5.05508 0
M  V30 9362 H 891.316 1.01893 2.81528 0
M  V30 9363 H 888.862 0.491422 1.35355 0
M  V30 9364 H 890.815 -1.06597 4.07695 0
M  V30 9365 H 889.539 -1.48709 2.9078 0
M  V30 9366 H 888.198 0.519777 3.62897 0
M  V30 9367 H 887.846 -1.69515 4.73575 0
M  V30 9368 H 887.546 -0.350808 5.86552 0
M  V30 9369 H 889.07 -1.27726 5.97092 0
M  V30 9370 H 890.484 0.971406 5.6501 0
M  V30 9371 H 888.881 1.75772 5.73781 0
M  V30 9372 H 889.951 2.10593 4.36782 0
M  V30 9373 N 891.294 -1.47756 0.548274 0
M  V30 9374 C 892.705 -1.8636 0.112547 0
M  V30 9375 C 893.056 -1.45589 -1.31523 0
M  V30 9376 O 892.181 -0.854874 -1.98799 0
M  V30 9377 C 892.776 -3.38224 0.197473 0
M  V30 9378 C 891.335 -3.75954 -0.183163 0
M  V30 9379 C 890.482 -2.7181 0.549059 0
M  V30 9380 H 893.433 -1.394 0.758506 0
M  V30 9381 H 893.454 -3.75957 -0.586217 0
M  V30 9382 H 892.966 -3.67868 1.23673 0
M  V30 9383 H 891.067 -3.51926 -1.22387 0
M  V30 9384 H 891.18 -4.78801 0.169178 0
M  V30 9385 H 889.544 -2.54699 -0.00682862 0
M  V30 9386 H 890.327 -3.04296 1.5893 0
M  V30 9387 N 892.772 -0.284283 -1.55015 0
M  V30 9388 C 894.183 0.211681 -1.85496 0
M  V30 9389 C 894.534 1.54735 -1.2063 0
M  V30 9390 O 893.659 2.10594 -0.497918 0
M  V30 9391 C 894.254 0.390864 -3.36538 0
M  V30 9392 C 892.813 0.831055 -3.67111 0
M  V30 9393 C 891.96 -0.0703581 -2.77211 0
M  V30 9394 H 894.911 -0.505803 -1.50424 0
M  V30 9395 H 894.932 1.22803 -3.60138 0
M  V30 9396 H 894.444 -0.581409 -3.8372 0
M  V30 9397 H 892.545 1.81447 -3.25434 0
M  V30 9398 H 892.658 0.662026 -4.74504 0
M  V30 9399 H 891.022 0.447528 -2.50737 0
M  V30 9400 H 891.805 -1.03868 -3.2721 0
M  V30 9401 N 894.251 1.57596 -0.0117121 0
M  V30 9402 C 895.662 1.79033 0.529521 0
M  V30 9403 C 896.013 0.920299 1.73277 0
M  V30 9404 O 895.138 0.125934 2.16033 0
M  V30 9405 C 895.733 3.24695 0.967405 0
M  V30 9406 C 894.292 3.47188 1.45387 0
M  V30 9407 C 893.439 2.74245 0.410466 0
M  V30 9408 H 896.39 1.56908 -0.237836 0
M  V30 9409 H 896.411 3.33451 1.83278 0
M  V30 9410 H 895.923 3.87992 0.0914605 0
M  V30 9411 H 894.024 2.89121 2.35032 0
M  V30 9412 H 894.137 4.55886 1.47325 0
M  V30 9413 H 892.501 2.39209 0.874721 0
M  V30 9414 H 893.284 3.40248 -0.456713 0
M  V30 9415 N 895.729 -0.261212 1.5542 0
M  V30 9416 C 897.006 -1.01321 1.67312 0
M  V30 9417 C 897.386 -2.0388 0.547356 0
M  V30 9418 O 896.734 -2.24003 -0.451083 0
M  V30 9419 C 896.944 -1.65943 3.07024 0
M  V30 9420 C 898.292 -2.16666 3.65159 0
M  V30 9421 O 899.316 -1.75909 3.09733 0
M  V30 9422 O 898.175 -2.91455 4.62294 0
M  V30 9423 H 895.269 -0.470714 0.679968 0
M  V30 9424 H 897.815 -0.256133 1.67756 0
M  V30 9425 H 896.587 -0.916868 3.80407 0
M  V30 9426 H 896.21 -2.48308 3.1053 0
M  V30 9427 N 897.207 -1.48554 -0.526253 0
M  V30 9428 C 898.484 -1.47252 -1.28748 0
M  V30 9429 C 898.864 -0.186245 -2.10277 0
M  V30 9430 O 898.212 0.831954 -2.12816 0
M  V30 9431 C 898.422 -2.73672 -2.16575 0
M  V30 9432 C 899.77 -3.22151 -2.76593 0
M  V30 9433 O 900.794 -2.74614 -2.2686 0
M  V30 9434 O 899.653 -4.04877 -3.67066 0
M  V30 9435 H 896.747 -0.588242 -0.581292 0
M  V30 9436 H 899.293 -1.60792 -0.5426 0
M  V30 9437 H 898.065 -3.58798 -1.56139 0
M  V30 9438 H 897.688 -2.6287 -2.98304 0
M  V30 9439 N 898.685 0.775411 -1.37205 0
M  V30 9440 C 900.096 1.35147 -1.28811 0
M  V30 9441 C 900.447 1.96089 0.0659168 0
M  V30 9442 O 899.572 1.93558 0.967684 0
M  V30 9443 C 900.167 2.45715 -2.33258 0
M  V30 9444 C 898.726 2.99099 -2.2851 0
M  V30 9445 C 897.873 1.72286 -2.17285 0
M  V30 9446 H 900.824 0.575954 -1.4788 0
M  V30 9447 H 900.845 3.251 -1.97712 0
M  V30 9448 H 900.357 2.01331 -3.31795 0
M  V30 9449 H 898.458 3.47868 -1.33485 0
M  V30 9450 H 898.571 3.54962 -3.21774 0
M  V30 9451 H 896.935 1.95068 -1.6377 0
M  V30 9452 H 897.718 1.3001 -3.1773 0
M  V30 9453 N 900.163 1.21714 1.00117 0
M  V30 9454 C 901.126 0.981338 2.07129 0
M  V30 9455 C 902.126 -0.0491116 1.60725 0
M  V30 9456 O 903.316 0.188555 1.73177 0
M  V30 9457 C 900.448 0.480608 3.37495 0
M  V30 9458 H 901.641 1.93075 2.29482 0
M  V30 9459 H 899.194 1.03467 1.17151 0
M  V30 9460 H 899.929 -0.473552 3.20824 0
M  V30 9461 H 899.714 1.22393 3.72508 0
M  V30 9462 H 901.204 0.33561 4.16249 0
M  V30 9463 N 901.641 -1.19671 1.02551 0
M  V30 9464 C 902.869 -1.93233 0.739513 0
M  V30 9465 C 903.284 -1.75298 -0.701158 0
M  V30 9466 O 902.641 -1.07269 -1.47647 0
M  V30 9467 C 902.692 -3.45085 1.07697 0
M  V30 9468 O 902.413 -3.62441 2.46106 0
M  V30 9469 C 903.914 -4.35776 0.813298 0
M  V30 9470 H 901.134 -0.613905 0.270853 0
M  V30 9471 H 903.678 -1.51909 1.36909 0
M  V30 9472 H 901.833 -3.84255 0.492635 0
M  V30 9473 H 902.247 -4.56337 2.58567 0
M  V30 9474 H 903.721 -5.40941 1.09941 0
M  V30 9475 H 904.198 -4.38474 -0.252359 0
M  V30 9476 H 904.804 -4.02282 1.38021 0
M  V30 9477 N 903.119 -0.802921 -1.35613 0
M  V30 9478 C 904.049 -0.225131 -2.32412 0
M  V30 9479 C 905.03 0.647383 -1.57299 0
M  V30 9480 O 906.215 0.578414 -1.85386 0
M  V30 9481 C 903.345 0.630085 -3.41537 0
M  V30 9482 C 902.299 -0.143635 -4.27759 0
M  V30 9483 C 901.625 0.833046 -5.28171 0
M  V30 9484 C 902.925 -1.34054 -5.04804 0
M  V30 9485 H 904.619 -1.03385 -2.80984 0
M  V30 9486 H 902.165 -0.498593 -1.35093 0
M  V30 9487 H 904.118 1.04433 -4.08254 0
M  V30 9488 H 902.842 1.47165 -2.91565 0
M  V30 9489 H 901.501 -0.539015 -3.62616 0
M  V30 9490 H 901.149 1.67001 -4.74468 0
M  V30 9491 H 900.849 0.319697 -5.8673 0
M  V30 9492 H 902.373 1.24558 -5.97761 0
M  V30 9493 H 903.787 -1.00136 -5.64487 0
M  V30 9494 H 902.184 -1.78812 -5.72841 0
M  V30 9495 H 903.254 -2.12906 -4.35659 0
M  V30 9496 N 904.597 1.47463 -0.556102 0
M  V30 9497 C 905.845 2.02075 -0.0315712 0
M  V30 9498 C 906.166 1.43292 1.32259 0
M  V30 9499 O 905.436 0.60771 1.86236 0
M  V30 9500 H 904.016 0.74695 -0.0086816 0
M  V30 9501 H 906.678 1.80879 -0.725859 0
M  V30 9502 H 905.774 3.12047 0.0573538 0
M  V30 9503 N 906.075 0.2925 1.54862 0
M  V30 9504 C 907.486 -0.201841 1.85606 0
M  V30 9505 C 907.837 -1.54093 1.21449 0
M  V30 9506 O 906.962 -2.10327 0.509079 0
M  V30 9507 C 907.557 -0.373011 3.3674 0
M  V30 9508 C 906.116 -0.811574 3.67547 0
M  V30 9509 C 905.263 0.0850583 2.7717 0
M  V30 9510 H 908.214 0.513774 1.50153 0
M  V30 9511 H 908.235 -1.20892 3.60785 0
M  V30 9512 H 907.747 0.601751 3.83407 0
M  V30 9513 H 905.848 -1.79719 3.26392 0
M  V30 9514 H 905.961 -0.636853 4.74848 0
M  V30 9515 H 904.325 -0.434224 2.50971 0
M  V30 9516 H 905.108 1.05602 3.26654 0
M  V30 9517 N 907.553 -1.57587 0.0200696 0
M  V30 9518 C 908.503 -2.0616 -0.973751 0
M  V30 9519 C 909.487 -0.960282 -1.29102 0
M  V30 9520 O 910.679 -1.22391 -1.27865 0
M  V30 9521 C 907.808 -2.58487 -2.25919 0
M  V30 9522 C 906.894 -3.75533 -1.97068 0
M  V30 9523 N 907.285 -4.86482 -1.38451 0
M  V30 9524 C 905.583 -3.83847 -2.27107 0
M  V30 9525 C 906.284 -5.67773 -1.26527 0
M  V30 9526 N 905.26 -5.14398 -1.75772 0
M  V30 9527 H 909.062 -2.89346 -0.515365 0
M  V30 9528 H 906.576 -1.61341 -0.185163 0
M  V30 9529 H 908.573 -2.91572 -2.97979 0
M  V30 9530 H 907.233 -1.76728 -2.72392 0
M  V30 9531 H 908.244 -5.06922 -1.06069 0
M  V30 9532 H 904.921 -3.12978 -2.76316 0
M  V30 9533 H 906.311 -6.66966 -0.812785 0
M  V30 9534 N 909.032 0.252966 -1.55557 0
M  V30 9535 C 909.962 1.31691 -1.9282 0
M  V30 9536 C 910.943 1.50516 -0.7924 0
M  V30 9537 O 912.128 1.63225 -1.05219 0
M  V30 9538 C 909.258 2.67281 -2.21762 0
M  V30 9539 C 908.212 2.6316 -3.37536 0
M  V30 9540 C 907.538 4.02488 -3.52005 0
M  V30 9541 C 908.838 2.20675 -4.73392 0
M  V30 9542 H 910.532 1.00751 -2.81939 0
M  V30 9543 H 908.078 0.483219 -1.3565 0
M  V30 9544 H 910.031 3.41842 -2.46419 0
M  V30 9545 H 908.755 2.99845 -1.29463 0
M  V30 9546 H 907.414 1.91057 -3.12878 0
M  V30 9547 H 907.062 4.32307 -2.57137 0
M  V30 9548 H 906.762 4.00621 -4.29857 0
M  V30 9549 H 908.286 4.78758 -3.78977 0
M  V30 9550 H 909.7 2.84965 -4.97461 0
M  V30 9551 H 908.097 2.29931 -5.54303 0
M  V30 9552 H 909.167 1.15831 -4.70862 0
M  V30 9553 N 910.51 1.48831 0.518367 0
M  V30 9554 C 911.758 1.57128 1.27103 0
M  V30 9555 C 912.079 0.252098 1.93364 0
M  V30 9556 O 911.349 -0.727281 1.819 0
M  V30 9557 H 909.929 0.578891 0.472116 0
M  V30 9558 H 912.591 1.85361 0.602262 0
M  V30 9559 H 911.687 2.35838 2.04418 0
M  V30 9560 N 911.988 -0.768124 1.37614 0
M  V30 9561 C 912.918 -1.89537 1.36374 0
M  V30 9562 C 913.899 -1.68513 0.231803 0
M  V30 9563 O 915.084 -1.89318 0.432705 0
M  V30 9564 C 912.214 -3.26871 1.17358 0
M  V30 9565 C 911.168 -3.62466 2.27602 0
M  V30 9566 C 910.494 -4.9838 1.93705 0
M  V30 9567 C 911.794 -3.68841 3.69802 0
M  V30 9568 H 913.488 -1.90832 2.30702 0
M  V30 9569 H 911.034 -0.91672 1.11051 0
M  V30 9570 H 912.987 -4.05371 1.15119 0
M  V30 9571 H 911.711 -3.26018 0.194865 0
M  V30 9572 H 910.37 -2.86276 2.29002 0
M  V30 9573 H 910.018 -4.94071 0.943539 0
M  V30 9574 H 909.718 -5.23165 2.6753 0
M  V30 9575 H 911.242 -5.79276 1.93059 0
M  V30 9576 H 912.656 -4.37485 3.70513 0
M  V30 9577 H 911.053 -4.05126 4.42711 0
M  V30 9578 H 912.123 -2.69415 4.03167 0
M  V30 9579 N 913.466 -1.22244 -0.994698 0
M  V30 9580 C 914.882 -0.982006 -1.25813 0
M  V30 9581 C 915.082 0.325488 -1.98854 0
M  V30 9582 O 914.138 1.04857 -2.29698 0
M  V30 9583 C 915.451 -2.1795 -2.07167 0
M  V30 9584 C 916.999 -2.22287 -2.20358 0
M  V30 9585 C 917.474 -3.41583 -3.05098 0
M  V30 9586 N 918.965 -3.41734 -3.12686 0
M  V30 9587 C 919.7 -4.30692 -3.78539 0
M  V30 9588 N 919.196 -5.29865 -4.46335 0
M  V30 9589 N 920.989 -4.18473 -3.75283 0
M  V30 9590 H 913.14 -2.0631 -0.504963 0
M  V30 9591 H 915.403 -0.90395 -0.285618 0
M  V30 9592 H 915.109 -3.12758 -1.60858 0
M  V30 9593 H 914.983 -2.17862 -3.07922 0
M  V30 9594 H 917.37 -1.28028 -2.65881 0
M  V30 9595 H 917.451 -2.26414 -1.19039 0
M  V30 9596 H 917.095 -4.36141 -2.60275 0
M  V30 9597 H 917.025 -3.34695 -4.06555 0
M  V30 9598 H 919.516 -2.69969 -2.64433 0
M  V30 9599 H 919.829 -5.94027 -4.9432 0
M  V30 9600 H 918.174 -5.3378 -4.45089 0
M  V30 9601 H 921.365 -3.40249 -3.21478 0
M  V30 9602 H 921.538 -4.88007 -4.26326 0
M  V30 9603 N 914.944 1.19125 -1.03184 0
M  V30 9604 C 916.192 1.8851 -0.728587 0
M  V30 9605 C 916.513 1.80195 0.74531 0
M  V30 9606 O 915.783 1.21437 1.5372 0
M  V30 9607 H 914.363 0.69784 -0.266511 0
M  V30 9608 H 917.025 1.44607 -1.3067 0
M  V30 9609 H 916.121 2.9477 -1.02554 0
M  V30 9610 N 916.422 0.810101 1.35185 0
M  V30 9611 C 917.668 0.392698 1.98962 0
M  V30 9612 C 918.001 -1.03835 1.64109 0
M  V30 9613 O 917.276 -1.721 0.9062 0
M  V30 9614 C 917.559 0.580349 3.55393 0
M  V30 9615 C 917.412 2.05658 4.00031 0
M  V30 9616 C 918.731 0.00822618 4.40099 0
M  V30 9617 H 915.85 0.144157 0.722764 0
M  V30 9618 H 918.492 1.02029 1.60281 0
M  V30 9619 H 916.642 0.0461106 3.88473 0
M  V30 9620 H 918.314 2.65348 3.77344 0
M  V30 9621 H 916.557 2.55174 3.50811 0
M  V30 9622 H 917.228 2.13875 5.08883 0
M  V30 9623 H 919.704 0.464517 4.13499 0
M  V30 9624 H 918.58 0.169414 5.48638 0
M  V30 9625 H 918.841 -1.08576 4.2856 0
M  V30 9626 N 917.9 -1.47166 0.563914 0
M  V30 9627 C 919.311 -1.86231 0.132307 0
M  V30 9628 C 919.662 -1.46976 -1.29971 0
M  V30 9629 O 918.787 -0.875911 -1.97881 0
M  V30 9630 C 919.382 -3.37996 0.233335 0
M  V30 9631 C 917.941 -3.76127 -0.143278 0
M  V30 9632 C 917.088 -2.71212 0.577857 0
M  V30 9633 H 920.039 -1.38588 0.773249 0
M  V30 9634 H 920.06 -3.76558 -0.546309 0
M  V30 9635 H 919.572 -3.66535 1.27568 0
M  V30 9636 H 917.673 -3.53205 -1.18648 0
M  V30 9637 H 917.786 -4.78595 0.219952 0
M  V30 9638 H 916.15 -2.54692 0.020186 0
M  V30 9639 H 916.933 -3.02593 1.62149 0
M  V30 9640 N 919.378 -0.300708 -1.54705 0
M  V30 9641 C 920.31 0.609179 -2.20956 0
M  V30 9642 C 921.323 1.09776 -1.20221 0
M  V30 9643 O 922.512 1.01527 -1.46815 0
M  V30 9644 C 919.612 1.84595 -2.84214 0
M  V30 9645 C 918.785 1.49991 -4.10879 0
M  V30 9646 C 917.844 2.5918 -4.57943 0
M  V30 9647 O 916.87 2.24285 -5.23149 0
M  V30 9648 N 918.072 3.89714 -4.30236 0
M  V30 9649 H 920.837 0.0420111 -2.99671 0
M  V30 9650 H 918.398 -0.122896 -1.61433 0
M  V30 9651 H 920.39 2.56988 -3.12633 0
M  V30 9652 H 918.96 2.32152 -2.09342 0
M  V30 9653 H 918.18 0.608637 -3.89473 0
M  V30 9654 H 919.468 1.24409 -4.93356 0
M  V30 9655 H 918.866 4.20874 -3.77997 0
M  V30 9656 H 917.423 4.58406 -4.63365 0
M  V30 9657 N 920.856 1.57574 -0.0284266 0
M  V30 9658 C 922.081 1.96479 0.664137 0
M  V30 9659 C 922.506 0.904826 1.64908 0
M  V30 9660 O 921.864 -0.134339 1.80802 0
M  V30 9661 C 921.912 3.34479 1.34745 0
M  V30 9662 O 921.016 3.30794 2.46271 0
M  V30 9663 H 920.357 0.640654 0.174524 0
M  V30 9664 H 922.887 2.04402 -0.0900729 0
M  V30 9665 H 922.897 3.70694 1.7044 0
M  V30 9666 H 921.572 4.1117 0.625468 0
M  V30 9667 H 920.149 3.06294 2.12693 0
M  V30 9668 N 922.334 -0.244713 1.55689 0
M  V30 9669 C 923.562 -0.989944 1.8168 0
M  V30 9670 C 923.977 -1.78863 0.604449 0
M  V30 9671 O 923.334 -1.77437 -0.426907 0
M  V30 9672 C 923.385 -1.92607 3.05916 0
M  V30 9673 O 923.106 -1.1597 4.22472 0
M  V30 9674 C 924.607 -2.78711 3.44724 0
M  V30 9675 H 921.827 -0.2912 0.604519 0
M  V30 9676 H 924.371 -0.266938 2.0275 0
M  V30 9677 H 922.526 -2.60333 2.8689 0
M  V30 9678 H 922.94 -1.79311 4.92898 0
M  V30 9679 H 924.414 -3.40141 4.34751 0
M  V30 9680 H 924.891 -3.49935 2.6541 0
M  V30 9681 H 925.497 -2.16435 3.66109 0
M  V30 9682 N 923.813 -1.49104 -0.510467 0
M  V30 9683 C 924.776 -1.64569 -1.59529 0
M  V30 9684 C 925.776 -0.517937 -1.5223 0
M  V30 9685 O 926.966 -0.784183 -1.55551 0
M  V30 9686 C 924.098 -1.6342 -2.99177 0
M  V30 9687 H 925.291 -2.61318 -1.4715 0
M  V30 9688 H 922.844 -1.37993 -0.734001 0
M  V30 9689 H 923.579 -0.68221 -3.17043 0
M  V30 9690 H 923.364 -2.45312 -3.05883 0
M  V30 9691 H 924.854 -1.77474 -3.78011 0
M  V30 9692 N 925.291 0.760815 -1.38019 0
M  V30 9693 C 926.254 1.85604 -1.34476 0
M  V30 9694 C 927.254 1.58897 -0.24666 0
M  V30 9695 O 928.444 1.66776 -0.50314 0
M  V30 9696 C 925.576 3.22945 -1.09176 0
M  V30 9697 H 926.769 1.90155 -2.31908 0
M  V30 9698 H 924.322 0.961746 -1.23208 0
M  V30 9699 H 925.057 3.24066 -0.123216 0
M  V30 9700 H 924.842 3.43723 -1.88672 0
M  V30 9701 H 926.332 4.03022 -1.09375 0
M  V30 9702 N 926.769 1.22769 0.988202 0
M  V30 9703 C 927.994 1.08239 1.76915 0
M  V30 9704 C 928.419 -0.362519 1.84574 0
M  V30 9705 O 927.777 -1.26202 1.30165 0
M  V30 9706 C 927.825 1.70363 3.17819 0
M  V30 9707 O 926.929 0.960484 4.01059 0
M  V30 9708 H 926.27 0.379872 0.544604 0
M  V30 9709 H 928.8 1.62663 1.24104 0
M  V30 9710 H 928.81 1.7528 3.6843 0
M  V30 9711 H 927.485 2.75505 3.1156 0
M  V30 9712 H 926.062 0.987667 3.59582 0
M  V30 9713 N 928.247 -1.18576 1.03814 0
M  V30 9714 C 929.472 -1.92978 0.759873 0
M  V30 9715 C 929.897 -1.75514 -0.676486 0
M  V30 9716 O 929.255 -1.06359 -1.46824 0
M  V30 9717 C 929.303 -3.42507 1.12788 0
M  V30 9718 O 928.407 -4.1163 0.251886 0
M  V30 9719 H 927.748 -0.602129 0.279886 0
M  V30 9720 H 930.278 -1.50383 1.3873 0
M  V30 9721 H 930.288 -3.93206 1.08872 0
M  V30 9722 H 928.963 -3.5454 2.17427 0
M  V30 9723 H 927.54 -3.7125 0.350441 0
M  V30 9724 O 929.764 -0.952659 -1.3041 0
M  V30 9725 H 930.455 -0.5852 -1.84649 0
M  V30 END ATOM
M  V30 BEGIN BOND
M  V30 END BOND
M  V30 END CTAB
M  END
$$$$
