drugbank_target|Q9Y487 V-type proton ATPase 116 kDa subunit a isoform 2 (DB01133)
 OpenBabel12092121233D

  0  0  0     0  0            999 V3000
M  V30 BEGIN CTAB
M  V30 COUNTS 13853 14020 0 0 0
M  V30 BEGIN ATOM
M  V30 1 H -0.908 1.98254 -0.117106 0
M  V30 2 N 0 1.576 0 0
M  V30 3 C 0.933 2.03868 1.02534 0
M  V30 4 C 1.911 0.928543 1.3348 0
M  V30 5 O 3.095 1.19667 1.45644 0
M  V30 6 C 0.222 2.43627 2.35294 0
M  V30 7 C -0.732 3.65373 2.2001 0
M  V30 8 S 0.101 5.13292 1.52614 0
M  V30 9 C 1.257 5.56322 2.86805 0
M  V30 10 H 1.49 2.90518 0.631377 0
M  V30 11 H -0.977 1.52953 0.210867 0
M  V30 12 H 0.981 2.67203 3.11629 0
M  V30 13 H -0.358 1.57376 2.7183 0
M  V30 14 H -1.165 3.90944 3.18086 0
M  V30 15 H -1.563 3.418 1.51819 0
M  V30 16 H 0.729 5.58782 3.83104 0
M  V30 17 H 1.672 6.56266 2.65933 0
M  V30 18 H 2.08 4.83886 2.90714 0
M  V30 19 N 1.4781 -0.272755 1.55222 0
M  V30 20 C 2.7261 -1.00234 1.75492 0
M  V30 21 C 3.0471 -1.8681 0.5592 0
M  V30 22 O 2.3171 -1.91215 -0.425882 0
M  V30 23 H 0.8971 -0.373076 0.647166 0
M  V30 24 H 3.5591 -0.296926 1.92625 0
M  V30 25 H 2.6551 -1.63913 2.65592 0
M  V30 26 N 2.9562 -1.48159 -0.537278 0
M  V30 27 C 4.1812 -1.59707 -1.32319 0
M  V30 28 C 4.6062 -0.254859 -1.86365 0
M  V30 29 O 3.9642 0.772378 -1.64024 0
M  V30 30 C 4.0122 -2.6412 -2.45505 0
M  V30 31 O 3.1162 -2.20774 -3.48328 0
M  V30 32 H 2.4572 -0.535791 -0.392204 0
M  V30 33 H 4.9872 -1.94092 -0.647268 0
M  V30 34 H 4.9972 -2.85166 -2.91795 0
M  V30 35 H 3.6722 -3.61567 -2.05528 0
M  V30 36 H 2.2492 -2.09911 -3.08207 0
M  V30 37 N 4.4343 0.785586 -1.36625 0
M  V30 38 C 5.3643 1.91259 -1.33949 0
M  V30 39 C 6.3453 1.68795 -0.210325 0
M  V30 40 O 7.5303 1.89854 -0.408561 0
M  V30 41 C 4.6603 3.28339 -1.13186 0
M  V30 42 C 3.6143 3.65335 -2.22967 0
M  V30 43 C 2.9403 5.00806 -1.87342 0
M  V30 44 C 4.2403 3.7352 -3.65075 0
M  V30 45 H 5.9343 1.93755 -2.28253 0
M  V30 46 H 3.4803 0.930788 -1.09874 0
M  V30 47 H 5.4333 4.06804 -1.09948 0
M  V30 48 H 4.1573 3.2624 -0.153332 0
M  V30 49 H 2.8163 2.89169 -2.25337 0
M  V30 50 H 2.4643 4.95233 -0.880545 0
M  V30 51 H 2.1643 5.26529 -2.60846 0
M  V30 52 H 3.6883 5.81687 -1.85667 0
M  V30 53 H 5.1023 4.42168 -3.64911 0
M  V30 54 H 3.4993 4.10731 -4.37516 0
M  V30 55 H 4.5693 2.74527 -3.99703 0
M  V30 56 N 5.9124 1.20967 1.01018 0
M  V30 57 C 7.1594 1.02374 1.74716 0
M  V30 58 C 7.4874 -0.443375 1.89379 0
M  V30 59 O 6.7424 -1.34535 1.42123 0
M  V30 60 C 7.0414 1.65997 3.16512 0
M  V30 61 C 6.7074 3.15831 3.2181 0
M  V30 62 C 5.3694 3.56719 3.22963 0
M  V30 63 C 7.7214 4.11816 3.19464 0
M  V30 64 C 5.0494 4.92107 3.19449 0
M  V30 65 C 7.4014 5.47158 3.17491 0
M  V30 66 C 6.0654 5.87451 3.16951 0
M  V30 67 H 5.3354 0.374614 0.639332 0
M  V30 68 H 7.9824 1.50485 1.18434 0
M  V30 69 H 6.2874 1.10166 3.75993 0
M  V30 70 H 7.9844 1.49119 3.72242 0
M  V30 71 H 4.5744 2.83263 3.21652 0
M  V30 72 H 8.7584 3.81257 3.17737 0
M  V30 73 H 4.0144 5.22579 3.17366 0
M  V30 74 H 8.1884 6.21274 3.14629 0
M  V30 75 H 5.8154 6.92329 3.13983 0
M  V30 76 N 7.3905 -1.2043 1.01659 0
M  V30 77 C 8.8065 -1.41852 0.731442 0
M  V30 78 C 9.0065 -1.89358 -0.688898 0
M  V30 79 O 8.0625 -2.06247 -1.45666 0
M  V30 80 C 9.3755 -2.44019 1.75714 0
M  V30 81 C 10.9235 -2.57785 1.77527 0
M  V30 82 C 11.3985 -3.63194 2.79023 0
M  V30 83 N 12.8895 -3.70678 2.77763 0
M  V30 84 C 13.6245 -4.51897 3.52954 0
M  V30 85 N 13.1205 -5.36921 4.37821 0
M  V30 86 N 14.9135 -4.4643 3.41551 0
M  V30 87 H 7.0645 -0.879093 1.93354 0
M  V30 88 H 9.3275 -0.448425 0.835236 0
M  V30 89 H 9.0335 -2.1611 2.77469 0
M  V30 90 H 8.9075 -3.43007 1.56927 0
M  V30 91 H 11.2945 -2.85023 0.764569 0
M  V30 92 H 11.3755 -1.58992 2.00387 0
M  V30 93 H 11.0195 -3.36699 3.80258 0
M  V30 94 H 10.9495 -4.61609 2.53425 0
M  V30 95 H 13.4405 -3.09944 2.16201 0
M  V30 96 H 13.7535 -5.95981 4.91962 0
M  V30 97 H 12.0985 -5.36424 4.41899 0
M  V30 98 H 15.2895 -3.79042 2.74672 0
M  V30 99 H 15.4625 -5.09491 4.00404 0
M  V30 100 N 8.8686 -0.792821 -1.36206 0
M  V30 101 C 10.0936 -0.377701 -2.03932 0
M  V30 102 C 10.5186 0.998947 -1.59382 0
M  V30 103 O 9.8766 1.64421 -0.763903 0
M  V30 104 C 9.9246 -0.453635 -3.57735 0
M  V30 105 O 9.0286 0.538151 -4.08874 0
M  V30 106 H 8.3696 -0.159855 -0.644471 0
M  V30 107 H 10.8996 -1.07488 -1.7409 0
M  V30 108 H 10.9096 -0.318464 -4.06755 0
M  V30 109 H 9.5846 -1.45784 -3.89512 0
M  V30 110 H 8.1616 0.364359 -3.71116 0
M  V30 111 N 10.3467 1.47872 -0.545128 0
M  V30 112 C 11.2567 2.33633 0.212746 0
M  V30 113 C 12.2727 1.4744 0.923983 0
M  V30 114 O 13.4487 1.80393 0.895572 0
M  V30 115 C 10.5137 3.23884 1.23693 0
M  V30 116 C 9.5747 4.25961 0.534417 0
M  V30 117 C 8.8077 5.11899 1.5098 0
M  V30 118 O 9.0307 5.00077 2.7437 0
M  V30 119 O 7.9647 5.92831 1.0409 0
M  V30 120 H 11.7907 2.99714 -0.490416 0
M  V30 121 H 9.3757 1.46235 -0.305871 0
M  V30 122 H 11.2577 3.79666 1.82843 0
M  V30 123 H 9.9327 2.60446 1.92222 0
M  V30 124 H 8.8397 3.73972 -0.0979679 0
M  V30 125 H 10.1727 4.92079 -0.109213 0
M  V30 126 N 11.8248 0.280983 1.55075 0
M  V30 127 C 13.0528 -0.337293 2.04132 0
M  V30 128 C 13.4678 -1.4903 1.15912 0
M  V30 129 O 12.8248 -1.81606 0.180459 0
M  V30 130 C 12.8758 -0.812706 3.52246 0
M  V30 131 O 12.5968 0.294387 4.3711 0
M  V30 132 C 14.0978 -1.4982 4.17216 0
M  V30 133 H 11.3178 -0.0761638 0.666663 0
M  V30 134 H 13.8618 0.414787 2.00249 0
M  V30 135 H 12.0168 -1.51486 3.56554 0
M  V30 136 H 12.4308 -0.0721325 5.2445 0
M  V30 137 H 13.9048 -1.7822 5.22438 0
M  V30 138 H 14.3818 -2.43168 3.65741 0
M  V30 139 H 14.9878 -0.839742 4.16927 0
M  V30 140 N 13.3029 -1.57598 0.00835791 0
M  V30 141 C 14.2359 -2.04409 -1.01451 0
M  V30 142 C 15.2139 -0.935609 -1.32985 0
M  V30 143 O 16.3979 -1.20437 -1.45007 0
M  V30 144 C 13.5249 -2.44872 -2.33999 0
M  V30 145 C 12.5709 -3.66535 -2.18069 0
M  V30 146 S 13.4039 -5.14095 -1.4989 0
M  V30 147 C 14.5599 -5.57835 -2.8385 0
M  V30 148 H 14.7929 -2.90849 -0.615961 0
M  V30 149 H 12.3259 -1.53063 -0.202752 0
M  V30 150 H 14.2839 -2.68852 -3.10208 0
M  V30 151 H 12.9449 -1.58815 -2.70992 0
M  V30 152 H 12.1379 -3.92626 -3.16008 0
M  V30 153 H 11.7399 -3.426 -1.50004 0
M  V30 154 H 14.0319 -5.60806 -3.80136 0
M  V30 155 H 14.9749 -6.57667 -2.62449 0
M  V30 156 H 15.3829 -4.85421 -2.88144 0
M  V30 157 N 14.781 0.264519 -1.55364 0
M  V30 158 C 16.021 1.00254 -1.78125 0
M  V30 159 C 16.385 1.83187 -0.575017 0
M  V30 160 O 17.586 2.60029 -0.681042 0
M  V30 161 C 15.857 1.85478 -3.05504 0
M  V30 162 S 17.416 2.6543 -3.49417 0
M  V30 163 H 14.234 0.337522 -0.625779 0
M  V30 164 H 16.836 0.272111 -1.93597 0
M  V30 165 H 15.54 1.23491 -3.9138 0
M  V30 166 H 15.071 2.62827 -2.92721 0
M  V30 167 H 17.086 3.87958 -3.09359 0
M  V30 168 N 16.2591 1.48442 0.529413 0
M  V30 169 C 17.1891 1.65902 1.64313 0
M  V30 170 C 18.1701 0.507897 1.6234 0
M  V30 171 O 19.3551 0.740503 1.79528 0
M  V30 172 C 16.4851 1.69911 3.02898 0
M  V30 173 C 15.4391 2.8453 3.19729 0
M  V30 174 C 14.7651 2.73629 4.59381 0
M  V30 175 C 16.0651 4.25821 3.02447 0
M  V30 176 H 17.7591 2.5914 1.49955 0
M  V30 177 H 15.3051 1.24709 0.719982 0
M  V30 178 H 17.2581 1.80715 3.80684 0
M  V30 179 H 15.9821 0.732524 3.18279 0
M  V30 180 H 14.6411 2.73283 2.44361 0
M  V30 181 H 14.2891 1.74938 4.71599 0
M  V30 182 H 13.9891 3.50541 4.71588 0
M  V30 183 H 15.5131 2.86401 5.39265 0
M  V30 184 H 16.9271 4.37898 3.70024 0
M  V30 185 H 15.3241 5.03735 3.26146 0
M  V30 186 H 16.3941 4.42244 1.98867 0
M  V30 187 N 17.7372 -0.778329 1.37039 0
M  V30 188 C 18.7002 -1.87301 1.32102 0
M  V30 189 C 19.7002 -1.59198 0.226405 0
M  V30 190 O 20.8902 -1.67403 0.481861 0
M  V30 191 C 18.0222 -3.24309 1.05055 0
M  V30 192 H 19.2152 -1.93093 2.29467 0
M  V30 193 H 16.7682 -0.977358 1.21973 0
M  V30 194 H 17.5032 -3.24196 0.0819373 0
M  V30 195 H 17.2882 -3.46098 1.84279 0
M  V30 196 H 18.7782 -4.04382 1.04234 0
M  V30 197 N 19.2153 -1.21501 -1.00376 0
M  V30 198 C 20.1473 -0.933174 -2.09343 0
M  V30 199 C 21.1603 0.0840896 -1.62583 0
M  V30 200 O 22.3493 -0.148563 -1.77881 0
M  V30 201 C 19.4493 -0.379869 -3.36764 0
M  V30 202 C 18.6223 -1.45176 -4.12605 0
M  V30 203 C 17.6813 -0.907476 -5.18316 0
M  V30 204 O 16.7073 -1.5912 -5.46507 0
M  V30 205 N 17.9093 0.276649 -5.7984 0
M  V30 206 H 20.6743 -1.87124 -2.34104 0
M  V30 207 H 18.2353 -1.12043 -1.16867 0
M  V30 208 H 20.2273 -0.00131488 -4.047 0
M  V30 209 H 18.7973 0.463048 -3.09151 0
M  V30 210 H 18.0173 -2.00411 -3.39454 0
M  V30 211 H 19.3053 -2.17328 -4.6005 0
M  V30 212 H 18.7033 0.849147 -5.59291 0
M  V30 213 H 17.2603 0.596702 -6.49063 0
M  V30 214 N 20.6934 1.19889 -1.02296 0
M  V30 215 C 21.6234 2.25141 -0.619174 0
M  V30 216 C 22.6044 1.66051 0.368915 0
M  V30 217 O 23.7894 1.92546 0.252941 0
M  V30 218 C 20.9194 3.4728 0.0368783 0
M  V30 219 C 19.8734 4.19005 -0.872865 0
M  V30 220 C 19.1994 5.34637 -0.0822402 0
M  V30 221 C 20.4994 4.74452 -2.18387 0
M  V30 222 H 22.1934 2.59171 -1.49903 0
M  V30 223 H 19.7394 1.24579 -0.722222 0
M  V30 224 H 21.6924 4.20098 0.330958 0
M  V30 225 H 20.4164 3.12433 0.95149 0
M  V30 226 H 19.0754 3.48061 -1.15105 0
M  V30 227 H 18.7234 4.96034 0.83422 0
M  V30 228 H 18.4234 5.83557 -0.688149 0
M  V30 229 H 19.9474 6.10255 0.205238 0
M  V30 230 H 21.3614 5.39055 -1.95172 0
M  V30 231 H 19.7584 5.33834 -2.74119 0
M  V30 232 H 20.8284 3.92844 -2.84257 0
M  V30 233 N 22.1715 0.800033 1.35784 0
M  V30 234 C 23.4185 0.377342 1.98953 0
M  V30 235 C 23.7465 -1.05378 1.6348 0
M  V30 236 O 23.0015 -1.74459 0.886707 0
M  V30 237 C 23.3005 0.500276 3.53881 0
M  V30 238 C 22.9665 1.89375 4.09204 0
M  V30 239 C 21.6285 2.27499 4.24025 0
M  V30 240 C 23.9805 2.8057 4.39238 0
M  V30 241 C 21.3085 3.562 4.66195 0
M  V30 242 C 23.6605 4.0871 4.82844 0
M  V30 243 C 22.3245 4.46843 4.95871 0
M  V30 244 H 21.5945 0.138079 0.728021 0
M  V30 245 H 24.2415 1.01955 1.62103 0
M  V30 246 H 22.5465 -0.225405 3.91151 0
M  V30 247 H 24.2435 0.154097 4.00704 0
M  V30 248 H 20.8335 1.58753 3.98115 0
M  V30 249 H 25.0175 2.52367 4.27346 0
M  V30 250 H 20.2735 3.85602 4.74469 0
M  V30 251 H 24.4475 4.79481 5.05046 0
M  V30 252 H 22.0745 5.46623 5.28306 0
M  V30 253 N 23.6496 -1.47581 0.552962 0
M  V30 254 C 24.5796 -2.32762 -0.185451 0
M  V30 255 C 25.5606 -1.43527 -0.912905 0
M  V30 256 O 26.7456 -1.72388 -0.894201 0
M  V30 257 C 23.8756 -3.25219 -1.21859 0
M  V30 258 C 22.8296 -4.23661 -0.607864 0
M  V30 259 C 22.1556 -5.05413 -1.74533 0
M  V30 260 C 23.4556 -5.20481 0.435582 0
M  V30 261 H 25.1496 -2.94749 0.525684 0
M  V30 262 H 22.6956 -1.41738 0.254251 0
M  V30 263 H 24.6486 -3.8365 -1.7433 0
M  V30 264 H 23.3726 -2.61279 -1.95961 0
M  V30 265 H 22.0316 -3.66451 -0.104489 0
M  V30 266 H 21.6796 -4.3788 -2.47529 0
M  V30 267 H 21.3796 -5.72059 -1.34249 0
M  V30 268 H 22.9036 -5.66701 -2.27338 0
M  V30 269 H 24.3176 -5.733 -0.00290157 0
M  V30 270 H 22.7146 -5.95305 0.757067 0
M  V30 271 H 23.7846 -4.66217 1.33303 0
M  V30 272 N 25.1277 -0.289203 -1.54924 0
M  V30 273 C 26.0597 0.625583 -2.20497 0
M  V30 274 C 27.0727 1.10667 -1.19402 0
M  V30 275 O 28.2617 1.02615 -1.46056 0
M  V30 276 C 25.3617 1.86702 -2.82835 0
M  V30 277 C 24.5347 1.5304 -4.09753 0
M  V30 278 C 23.5937 2.62576 -4.56005 0
M  V30 279 O 22.6197 2.28167 -5.21468 0
M  V30 280 N 23.8217 3.92901 -4.27328 0
M  V30 281 H 26.5867 0.0642801 -2.99631 0
M  V30 282 H 24.1477 -0.110896 -1.6152 0
M  V30 283 H 26.1397 2.59304 -3.10715 0
M  V30 284 H 24.7097 2.33702 -2.07611 0
M  V30 285 H 23.9297 0.637564 -3.8901 0
M  V30 286 H 25.2177 1.28072 -4.92418 0
M  V30 287 H 24.6157 4.23671 -3.74859 0
M  V30 288 H 23.1727 4.61837 -4.59946 0
M  V30 289 N 26.6058 1.57591 -0.0167156 0
M  V30 290 C 27.8308 1.9598 0.67872 0
M  V30 291 C 28.2558 0.892546 1.65575 0
M  V30 292 O 27.6138 -0.147772 1.80697 0
M  V30 293 C 27.6618 3.33468 1.37227 0
M  V30 294 O 26.7658 3.28954 2.48722 0
M  V30 295 H 26.1068 0.639339 0.17928 0
M  V30 296 H 28.6368 2.04463 -0.0748802 0
M  V30 297 H 28.6468 3.69417 1.7319 0
M  V30 298 H 27.3218 4.10694 0.656007 0
M  V30 299 H 25.8988 3.04705 2.14963 0
M  V30 300 N 28.0839 -0.256276 1.55502 0
M  V30 301 C 29.3319 -0.983672 1.76545 0
M  V30 302 C 29.6529 -1.86206 0.578982 0
M  V30 303 O 28.9229 -1.91656 -0.405577 0
M  V30 304 H 27.5029 -0.366191 0.651086 0
M  V30 305 H 30.1649 -0.276479 1.92929 0
M  V30 306 H 29.2609 -1.61087 2.67315 0
M  V30 307 N 29.562 -1.4872 -0.521534 0
M  V30 308 C 30.79 -1.60843 -1.30142 0
M  V30 309 C 31.205 -0.271897 -1.86832 0
M  V30 310 O 30.562 0.739969 -1.66825 0
M  V30 311 C 30.613 -2.66155 -2.4463 0
M  V30 312 O 30.334 -3.94623 -1.90275 0
M  V30 313 C 31.835 -2.88795 -3.36322 0
M  V30 314 H 29.055 -0.542075 -0.395468 0
M  V30 315 H 31.599 -1.94609 -0.628285 0
M  V30 316 H 29.754 -2.35224 -3.07812 0
M  V30 317 H 30.168 -4.52468 -2.65279 0
M  V30 318 H 31.642 -3.66264 -4.12983 0
M  V30 319 H 32.119 -1.97934 -3.9207 0
M  V30 320 H 32.725 -3.21063 -2.78924 0
M  V30 321 N 31.0401 0.771051 -1.3745 0
M  V30 322 C 32.0031 1.86598 -1.33093 0
M  V30 323 C 33.0031 1.59076 -0.234845 0
M  V30 324 O 34.1931 1.67145 -0.490732 0
M  V30 325 C 31.3251 3.23747 -1.06773 0
M  V30 326 H 32.5181 1.91873 -2.30488 0
M  V30 327 H 30.0711 0.970876 -1.2249 0
M  V30 328 H 30.8061 3.24148 -0.099129 0
M  V30 329 H 30.5911 3.45115 -1.86112 0
M  V30 330 H 32.0811 4.03824 -1.06377 0
M  V30 331 N 32.5182 1.22032 0.997298 0
M  V30 332 C 33.7482 1.06686 1.76923 0
M  V30 333 C 34.1562 -0.385838 1.85224 0
M  V30 334 O 33.4992 -1.27929 1.31833 0
M  V30 335 C 33.5612 1.59802 3.22031 0
M  V30 336 C 33.2252 3.08362 3.37286 0
M  V30 337 C 34.2222 4.05835 3.24952 0
M  V30 338 C 31.9072 3.47727 3.6248 0
M  V30 339 C 33.9012 5.4066 3.37588 0
M  V30 340 C 31.5882 4.82701 3.74757 0
M  V30 341 C 32.5862 5.78977 3.62319 0
M  V30 342 O 32.2742 7.11502 3.74193 0
M  V30 343 H 32.0062 0.374767 0.562606 0
M  V30 344 H 34.5602 1.61991 1.26286 0
M  V30 345 H 32.7902 0.989003 3.73839 0
M  V30 346 H 34.4792 1.40184 3.80924 0
M  V30 347 H 35.2452 3.76766 3.05405 0
M  V30 348 H 31.1242 2.73317 3.7124 0
M  V30 349 H 34.6682 6.15788 3.27796 0
M  V30 350 H 30.5652 5.11453 3.9381 0
M  V30 351 H 31.3332 7.19019 3.91093 0
M  V30 352 N 33.9963 -1.19345 1.0293 0
M  V30 353 C 34.9063 -2.26245 0.620515 0
M  V30 354 C 35.9223 -1.70486 -0.347928 0
M  V30 355 O 37.0983 -2.00347 -0.205704 0
M  V30 356 C 34.1633 -3.46693 -0.0218957 0
M  V30 357 C 33.2243 -4.17632 0.994102 0
M  V30 358 C 32.4573 -5.32329 0.382253 0
M  V30 359 O 32.6803 -5.64552 -0.814676 0
M  V30 360 O 31.6143 -5.91664 1.10531 0
M  V30 361 H 35.4403 -2.63453 1.51083 0
M  V30 362 H 33.0253 -1.26207 0.799513 0
M  V30 363 H 34.9073 -4.19683 -0.380072 0
M  V30 364 H 33.5823 -3.11333 -0.886209 0
M  V30 365 H 32.4893 -3.4676 1.40387 0
M  V30 366 H 33.8223 -4.56964 1.8288 0
M  V30 367 N 35.4744 -0.807222 -1.35358 0
M  V30 368 C 36.7144 -0.393534 -2.00576 0
M  V30 369 C 37.0784 1.0203 -1.62647 0
M  V30 370 O 38.2794 1.53603 -2.20589 0
M  V30 371 C 36.5504 -0.572017 -3.52793 0
M  V30 372 S 38.1094 -0.248845 -4.38094 0
M  V30 373 H 34.9274 -0.149425 -0.695121 0
M  V30 374 H 37.5294 -1.04961 -1.64935 0
M  V30 375 H 36.2334 -1.60097 -3.77885 0
M  V30 376 H 35.7644 0.099359 -3.93275 0
M  V30 377 H 37.7794 0.943253 -4.87152 0
M  V30 378 N 36.9525 1.47285 -0.560781 0
M  V30 379 C 37.8825 2.32857 0.173105 0
M  V30 380 C 38.8635 1.44009 0.905281 0
M  V30 381 O 40.0485 1.7286 0.885046 0
M  V30 382 C 37.1785 3.25861 1.20133 0
M  V30 383 C 36.1325 4.23978 0.585388 0
M  V30 384 C 35.4585 5.06332 1.7185 0
M  V30 385 C 36.7585 5.20242 -0.463178 0
M  V30 386 H 38.4525 2.94466 -0.541307 0
M  V30 387 H 35.9985 1.41601 -0.261764 0
M  V30 388 H 37.9515 3.84569 1.72293 0
M  V30 389 H 36.6755 2.62315 1.94573 0
M  V30 390 H 35.3345 3.66501 0.085054 0
M  V30 391 H 34.9825 4.39186 2.45203 0
M  V30 392 H 34.6825 5.72762 1.31213 0
M  V30 393 H 36.2065 5.67899 2.24329 0
M  V30 394 H 37.6205 5.73293 -0.027502 0
M  V30 395 H 36.0175 5.94896 -0.788627 0
M  V30 396 H 37.0875 4.65504 -1.35773 0
M  V30 397 N 38.4306 0.297415 1.54768 0
M  V30 398 C 39.6556 -0.318435 2.04941 0
M  V30 399 C 40.0806 -1.4701 1.17345 0
M  V30 400 O 39.4386 -1.80436 0.176758 0
M  V30 401 C 39.4866 -0.755749 3.52592 0
M  V30 402 O 38.5906 -1.86088 3.68028 0
M  V30 403 H 37.9316 -0.062421 0.661059 0
M  V30 404 H 40.4616 0.438215 1.99852 0
M  V30 405 H 40.4716 -1.04552 3.94376 0
M  V30 406 H 39.1466 0.0867233 4.1581 0
M  V30 407 H 37.7236 -1.57193 3.38149 0
M  V30 408 N 39.9087 -1.5758 0.0250728 0
M  V30 409 C 40.8717 -2.08896 -0.943139 0
M  V30 410 C 41.8717 -1.00321 -1.25668 0
M  V30 411 O 43.0617 -1.26495 -1.19769 0
M  V30 412 C 40.1937 -2.55143 -2.26086 0
M  V30 413 H 41.3867 -2.95723 -0.498775 0
M  V30 414 H 38.9397 -1.54703 -0.222888 0
M  V30 415 H 39.6747 -1.71633 -2.75159 0
M  V30 416 H 39.4597 -3.34461 -2.04641 0
M  V30 417 H 40.9497 -2.95083 -2.95492 0
M  V30 418 N 41.3868 0.248026 -1.55636 0
M  V30 419 C 42.3168 1.31079 -1.93237 0
M  V30 420 C 43.2978 1.50264 -0.797174 0
M  V30 421 O 44.4828 1.62891 -1.05737 0
M  V30 422 C 41.6128 2.66575 -2.22609 0
M  V30 423 C 40.5668 2.62087 -3.3837 0
M  V30 424 C 39.8928 4.01369 -3.53281 0
M  V30 425 C 41.1928 2.19171 -4.7409 0
M  V30 426 H 42.8868 0.998556 -2.82257 0
M  V30 427 H 40.4328 0.47891 -1.35803 0
M  V30 428 H 42.3858 3.41057 -2.47503 0
M  V30 429 H 41.1098 2.99432 -1.30414 0
M  V30 430 H 39.7688 1.90063 -3.13483 0
M  V30 431 H 39.4168 4.31489 -2.58508 0
M  V30 432 H 39.1168 3.99254 -4.31127 0
M  V30 433 H 40.6408 4.77552 -3.80495 0
M  V30 434 H 42.0548 2.83384 -4.98363 0
M  V30 435 H 40.4518 2.2817 -5.5503 0
M  V30 436 H 41.5218 1.14336 -4.71227 0
M  V30 437 N 42.8649 1.48995 0.513639 0
M  V30 438 C 44.1129 1.57531 1.26604 0
M  V30 439 C 44.4339 0.258236 1.93283 0
M  V30 440 O 43.7039 -0.721502 1.8213 0
M  V30 441 H 42.2839 0.580387 0.470276 0
M  V30 442 H 44.9459 1.85552 0.596373 0
M  V30 443 H 44.0419 2.36486 2.03669 0
M  V30 444 N 44.343 -0.763751 1.37857 0
M  V30 445 C 45.253 -1.90817 1.36478 0
M  V30 446 C 46.269 -1.71997 0.263248 0
M  V30 447 O 47.445 -1.95095 0.499979 0
M  V30 448 C 44.51 -3.2605 1.17864 0
M  V30 449 C 43.571 -3.57467 2.3773 0
M  V30 450 C 42.804 -4.86249 2.19995 0
M  V30 451 O 43.027 -5.57884 1.18836 0
M  V30 452 O 41.961 -5.16911 3.08361 0
M  V30 453 H 45.787 -1.94933 2.32884 0
M  V30 454 H 43.372 -0.907619 1.1867 0
M  V30 455 H 45.254 -4.06924 1.09504 0
M  V30 456 H 43.929 -3.22769 0.245372 0
M  V30 457 H 42.836 -2.76796 2.51664 0
M  V30 458 H 44.169 -3.655 3.29652 0
M  V30 459 N 45.8211 -1.22559 -0.990812 0
M  V30 460 C 46.7681 -0.997519 -2.0813 0
M  V30 461 C 47.7381 0.0814702 -1.659 0
M  V30 462 O 48.9231 -0.0685424 -1.90677 0
M  V30 463 C 46.0631 -0.583615 -3.40129 0
M  V30 464 C 45.1761 -1.7336 -3.9569 0
M  V30 465 C 44.3111 -1.26748 -5.15857 0
M  V30 466 C 43.3501 -2.38888 -5.63559 0
M  V30 467 N 42.4871 -1.93308 -6.74964 0
M  V30 468 H 47.3271 -1.93099 -2.26973 0
M  V30 469 H 44.8641 -0.962114 -1.11273 0
M  V30 470 H 46.8221 -0.324801 -4.15934 0
M  V30 471 H 45.4521 0.312845 -3.2128 0
M  V30 472 H 44.5041 -2.10669 -3.16738 0
M  V30 473 H 45.8161 -2.57704 -4.27071 0
M  V30 474 H 44.9701 -0.966173 -5.98957 0
M  V30 475 H 43.7091 -0.394272 -4.86104 0
M  V30 476 H 42.7141 -2.69805 -4.79046 0
M  V30 477 H 43.9391 -3.26728 -5.95336 0
M  V30 478 H 41.8851 -1.08352 -6.4699 0
M  V30 479 H 41.8021 -2.71217 -7.05675 0
M  V30 480 H 43.0701 -1.66252 -7.61564 0
M  V30 481 N 47.2992 1.18797 -1.03562 0
M  V30 482 C 48.5472 1.88278 -0.734569 0
M  V30 483 C 48.8682 1.8043 0.739586 0
M  V30 484 O 48.1382 1.21925 1.53333 0
M  V30 485 H 46.7182 0.696991 -0.268725 0
M  V30 486 H 49.3802 1.44192 -1.31129 0
M  V30 487 H 48.4762 2.94443 -1.03489 0
M  V30 488 N 48.7773 0.814389 1.34928 0
M  V30 489 C 49.7073 0.244827 2.32213 0
M  V30 490 C 50.6883 -0.634024 1.57842 0
M  V30 491 O 51.8733 -0.562676 1.8587 0
M  V30 492 C 49.0033 -0.601106 3.42058 0
M  V30 493 C 47.9573 0.179896 4.27622 0
M  V30 494 C 47.2833 -0.788237 5.28858 0
M  V30 495 C 48.5833 1.38329 5.03649 0
M  V30 496 H 50.2773 1.05763 2.80097 0
M  V30 497 H 47.8233 0.510029 1.34665 0
M  V30 498 H 49.7763 -1.00968 4.09125 0
M  V30 499 H 48.5003 -1.44688 2.92802 0
M  V30 500 H 47.1593 0.569739 3.62146 0
M  V30 501 H 46.8073 -1.62973 4.75866 0
M  V30 502 H 46.5073 -0.269942 5.8698 0
M  V30 503 H 48.0313 -1.19485 5.98795 0
M  V30 504 H 49.4453 1.04918 5.63618 0
M  V30 505 H 47.8423 1.83662 5.71304 0
M  V30 506 H 48.9123 2.16592 4.33839 0
M  V30 507 N 50.2554 -1.46986 0.568584 0
M  V30 508 C 51.5014 -2.02741 0.0488709 0
M  V30 509 C 51.8344 -1.44077 -1.30214 0
M  V30 510 O 51.1094 -0.600552 -1.84996 0
M  V30 511 C 51.3924 -3.60086 -0.032047 0
M  V30 512 C 51.2454 -4.29162 1.34686 0
M  V30 513 C 52.5644 -4.33838 -0.739798 0
M  V30 514 H 49.6834 -0.736749 0.0192338 0
M  V30 515 H 52.3254 -1.75289 0.733065 0
M  V30 516 H 50.4754 -3.83606 -0.61473 0
M  V30 517 H 52.1474 -4.16948 1.97362 0
M  V30 518 H 50.3904 -3.89073 1.91846 0
M  V30 519 H 51.0614 -5.37826 1.24285 0
M  V30 520 H 53.5374 -4.15378 -0.244939 0
M  V30 521 H 52.4134 -5.43537 -0.765406 0
M  V30 522 H 52.6744 -4.03875 -1.79827 0
M  V30 523 N 51.7335 -0.305618 -1.54608 0
M  V30 524 C 52.6655 0.602161 -2.21149 0
M  V30 525 C 53.6785 1.09394 -1.20569 0
M  V30 526 O 54.8675 1.0106 -1.47136 0
M  V30 527 C 51.9675 1.83692 -2.84799 0
M  V30 528 C 51.1405 1.48686 -4.11353 0
M  V30 529 C 50.1995 2.57725 -4.58764 0
M  V30 530 O 49.2255 2.22623 -5.23858 0
M  V30 531 N 50.4275 3.88346 -4.31471 0
M  V30 532 H 53.1925 0.0324966 -2.99682 0
M  V30 533 H 50.7535 -0.128021 -1.61393 0
M  V30 534 H 52.7455 2.55994 -3.13448 0
M  V30 535 H 51.3155 2.31486 -2.10078 0
M  V30 536 H 50.5355 0.596269 -3.89664 0
M  V30 537 H 51.8235 1.22842 -4.93748 0
M  V30 538 H 51.2215 4.19671 -3.79331 0
M  V30 539 H 49.7785 4.56932 -4.64818 0
M  V30 540 N 53.2116 1.57565 -0.0334293 0
M  V30 541 C 54.4586 1.91978 0.644272 0
M  V30 542 C 54.7866 0.910231 1.71887 0
M  V30 543 O 54.0416 -0.0801961 1.95536 0
M  V30 544 C 54.3406 3.33112 1.29504 0
M  V30 545 C 54.0066 4.49537 0.350388 0
M  V30 546 C 52.6686 4.81115 0.0903974 0
M  V30 547 C 55.0206 5.20347 -0.298032 0
M  V30 548 C 52.3486 5.8086 -0.825746 0
M  V30 549 C 54.7006 6.2107 -1.20226 0
M  V30 550 C 53.3646 6.51088 -1.4711 0
M  V30 551 H 52.6346 0.702496 0.235756 0
M  V30 552 H 55.2816 1.91259 -0.0961176 0
M  V30 553 H 53.5866 3.30113 2.11028 0
M  V30 554 H 55.2836 3.57011 1.82603 0
M  V30 555 H 51.8736 4.24883 0.563205 0
M  V30 556 H 56.0576 4.96178 -0.110234 0
M  V30 557 H 51.3136 6.02461 -1.04169 0
M  V30 558 H 55.4876 6.75057 -1.71086 0
M  V30 559 H 53.1146 7.28193 -2.18264 0
M  V30 560 N 54.6897 -0.239769 1.55765 0
M  V30 561 C 56.1057 -0.588624 1.48349 0
M  V30 562 C 56.3057 -1.88005 0.72502 0
M  V30 563 O 55.3617 -2.51186 0.257269 0
M  V30 564 C 56.6747 -0.68474 2.928 0
M  V30 565 C 58.2227 -0.77659 3.03213 0
M  V30 566 C 58.6977 -0.904207 4.48986 0
M  V30 567 N 60.1887 -0.968896 4.52953 0
M  V30 568 C 60.9237 -1.08703 5.63002 0
M  V30 569 N 60.4197 -1.17026 6.82845 0
M  V30 570 N 62.2127 -1.12074 5.50814 0
M  V30 571 H 54.3637 0.607911 2.03515 0
M  V30 572 H 56.6267 0.21083 0.924259 0
M  V30 573 H 56.3327 0.194284 3.51163 0
M  V30 574 H 56.2067 -1.55435 3.43686 0
M  V30 575 H 58.5937 -1.64606 2.44926 0
M  V30 576 H 58.6747 0.118315 2.55526 0
M  V30 577 H 58.3187 -0.0392633 5.07885 0
M  V30 578 H 58.2487 -1.81426 4.9436 0
M  V30 579 H 60.7397 -0.915633 3.6664 0
M  V30 580 H 61.0527 -1.25966 7.62465 0
M  V30 581 H 59.3977 -1.13971 6.85591 0
M  V30 582 H 62.5887 -1.05226 4.5612 0
M  V30 583 H 62.7617 -1.20936 6.36615 0
M  V30 584 N 56.1678 -1.49265 -0.50573 0
M  V30 585 C 57.4448 -1.49012 -1.26707 0
M  V30 586 C 57.8248 -0.215205 -2.1 0
M  V30 587 O 57.1728 0.802547 -2.13943 0
M  V30 588 C 57.3828 -2.7663 -2.12783 0
M  V30 589 C 58.7308 -3.25932 -2.72127 0
M  V30 590 O 59.7548 -2.77715 -2.23054 0
M  V30 591 O 58.6138 -4.09897 -3.61451 0
M  V30 592 H 55.7078 -0.596197 -0.57313 0
M  V30 593 H 58.2538 -1.61524 -0.52039 0
M  V30 594 H 57.0258 -3.60916 -1.5118 0
M  V30 595 H 56.6488 -2.66956 -2.94653 0
M  V30 596 N 57.6459 0.756429 -1.3826 0
M  V30 597 C 58.5759 1.88374 -1.37976 0
M  V30 598 C 59.5569 1.68311 -0.246082 0
M  V30 599 O 60.7419 1.88944 -0.44874 0
M  V30 600 C 57.8719 3.25864 -1.20125 0
M  V30 601 C 56.8259 3.60523 -2.30666 0
M  V30 602 C 56.1519 4.9672 -1.97923 0
M  V30 603 C 57.4519 3.65692 -3.72916 0
M  V30 604 H 59.1459 1.88869 -2.32312 0
M  V30 605 H 56.6919 0.907272 -1.11824 0
M  V30 606 H 58.6449 4.0438 -1.18552 0
M  V30 607 H 57.3689 3.25841 -0.222498 0
M  V30 608 H 56.0279 2.84324 -2.3142 0
M  V30 609 H 55.6759 4.93253 -0.985393 0
M  V30 610 H 55.3759 5.20878 -2.71955 0
M  V30 611 H 56.8999 5.77618 -1.97964 0
M  V30 612 H 58.3139 4.34328 -3.74208 0
M  V30 613 H 56.7109 4.01358 -4.4613 0
M  V30 614 H 57.7809 2.65987 -4.05436 0
M  V30 615 N 59.124 1.23083 0.984299 0
M  V30 616 C 60.072 1.00593 2.09723 0
M  V30 617 C 61.066 -0.0538014 1.69315 0
M  V30 618 O 62.272 0.0993719 1.79725 0
M  V30 619 H 58.647 0.30817 0.685956 0
M  V30 620 H 60.618 1.95012 2.2586 0
M  V30 621 C 59.367 0.609601 3.42314 0
M  V30 622 H 58.69 1.41675 3.73856 0
M  V30 623 H 60.13 0.491726 4.21139 0
M  V30 624 C 58.589 -0.681745 3.2993 0
M  V30 625 O 59.119 -1.73192 3.62446 0
M  V30 626 N 57.325 -0.656178 2.83095 0
M  V30 627 H 56.872 0.198759 2.56832 0
M  V30 628 H 56.83 -1.52044 2.75191 0
M  V30 629 N 60.6021 -1.18246 1.0419 0
M  V30 630 C 61.5341 -2.2142 0.592088 0
M  V30 631 C 62.5471 -1.59233 -0.338909 0
M  V30 632 O 63.7361 -1.78002 -0.133231 0
M  V30 633 C 60.8361 -3.38546 -0.154854 0
M  V30 634 C 60.0091 -4.3031 0.784328 0
M  V30 635 C 59.0681 -5.26138 0.0804583 0
M  V30 636 O 58.0941 -5.64738 0.711292 0
M  V30 637 N 59.2961 -5.68261 -1.18574 0
M  V30 638 H 62.0611 -2.60636 1.47949 0
M  V30 639 H 59.6221 -1.33044 0.922544 0
M  V30 640 H 61.6141 -3.99678 -0.635606 0
M  V30 641 H 60.1841 -2.98012 -0.943811 0
M  V30 642 H 59.4041 -3.66764 1.44491 0
M  V30 643 H 60.6921 -4.8852 1.42218 0
M  V30 644 H 60.0901 -5.38957 -1.71876 0
M  V30 645 H 58.6471 -6.31584 -1.61074 0
M  V30 646 N 62.0802 -0.821533 -1.34494 0
M  V30 647 C 63.0282 -0.230702 -2.31453 0
M  V30 648 C 64.0222 0.627793 -1.57338 0
M  V30 649 O 65.2282 0.519288 -1.72347 0
M  V30 650 H 61.6032 -0.0558577 -0.749923 0
M  V30 651 H 63.5742 -1.06332 -2.78812 0
M  V30 652 C 62.3232 0.59391 -3.4259 0
M  V30 653 H 61.6462 -0.0573588 -3.99759 0
M  V30 654 H 63.0862 0.973446 -4.12674 0
M  V30 655 C 61.5452 1.76568 -2.86924 0
M  V30 656 O 62.0752 2.8638 -2.81691 0
M  V30 657 N 60.2812 1.58198 -2.43766 0
M  V30 658 H 59.8282 0.68872 -2.48222 0
M  V30 659 H 59.7862 2.36752 -2.06871 0
M  V30 660 N 63.5583 1.46682 -0.576371 0
M  V30 661 C 64.8043 2.02712 -0.0596221 0
M  V30 662 C 65.1373 1.44765 1.29448 0
M  V30 663 O 64.4123 0.610355 1.84675 0
M  V30 664 C 64.6953 3.60098 0.0129503 0
M  V30 665 C 64.5483 4.28441 -1.3696 0
M  V30 666 C 65.8673 4.34224 0.71678 0
M  V30 667 H 62.9863 0.736637 -0.0231407 0
M  V30 668 H 65.6283 1.74898 -0.742351 0
M  V30 669 H 63.7783 3.83926 0.594378 0
M  V30 670 H 65.4503 4.15896 -1.9957 0
M  V30 671 H 63.6933 3.8805 -1.93907 0
M  V30 672 H 64.3643 5.3716 -1.27135 0
M  V30 673 H 66.8403 4.15503 0.222908 0
M  V30 674 H 65.7163 5.43936 0.73657 0
M  V30 675 H 65.9773 4.04823 1.77682 0
M  V30 676 N 65.0364 0.313813 1.54444 0
M  V30 677 C 66.2614 -0.296681 2.05267 0
M  V30 678 C 66.6864 -1.45757 1.18897 0
M  V30 679 O 66.0444 -1.80239 0.195886 0
M  V30 680 C 66.0924 -0.71831 3.53373 0
M  V30 681 O 65.1964 -1.82175 3.69981 0
M  V30 682 H 64.5374 -0.0554061 0.661684 0
M  V30 683 H 67.0674 0.459387 1.99376 0
M  V30 684 H 67.0774 -1.00364 3.95463 0
M  V30 685 H 65.7524 0.130821 4.15694 0
M  V30 686 H 64.3294 -1.53598 3.39797 0
M  V30 687 N 66.5145 -1.57545 0.0417849 0
M  V30 688 C 67.7395 -1.97035 -0.647455 0
M  V30 689 C 68.1645 -0.918775 -1.64135 0
M  V30 690 O 67.5225 0.119006 -1.80909 0
M  V30 691 C 67.5705 -3.35609 -1.31905 0
M  V30 692 O 66.6745 -3.3287 -2.43457 0
M  V30 693 H 66.0155 -0.64211 -0.169086 0
M  V30 694 H 68.5455 -2.04318 0.107399 0
M  V30 695 H 68.5555 -3.72126 -1.67291 0
M  V30 696 H 67.2305 -4.11685 -0.590586 0
M  V30 697 H 65.8075 -3.08087 -2.10088 0
M  V30 698 N 67.9926 0.231505 -1.5589 0
M  V30 699 C 69.2396 0.957352 -1.78441 0
M  V30 700 C 69.5676 1.84726 -0.60882 0
M  V30 701 O 68.8226 1.91416 0.40725 0
M  V30 702 C 69.1216 1.83577 -3.0665 0
M  V30 703 C 68.7876 1.09993 -4.37278 0
M  V30 704 C 67.4496 0.896629 -4.72773 0
M  V30 705 C 69.8016 0.579558 -5.17968 0
M  V30 706 C 67.1296 0.160896 -5.86479 0
M  V30 707 C 69.4816 -0.142783 -6.32439 0
M  V30 708 C 68.1456 -0.357427 -6.66542 0
M  V30 709 H 67.4156 0.35032 -0.65296 0
M  V30 710 H 70.0626 0.226259 -1.90159 0
M  V30 711 H 68.3676 2.63441 -2.90011 0
M  V30 712 H 70.0646 2.39934 -3.21298 0
M  V30 713 H 66.6546 1.26835 -4.09403 0
M  V30 714 H 70.8386 0.724125 -4.90989 0
M  V30 715 H 66.0946 -0.0157293 -6.11398 0
M  V30 716 H 70.2686 -0.553559 -6.94196 0
M  V30 717 H 67.8956 -0.929466 -7.54497 0
M  V30 718 N 69.4707 1.49531 0.497807 0
M  V30 719 C 70.4027 1.62559 1.61578 0
M  V30 720 C 71.4157 0.508134 1.54667 0
M  V30 721 O 72.6047 0.780309 1.60541 0
M  V30 722 C 69.7047 1.56925 3.00379 0
M  V30 723 C 68.8777 2.84257 3.3244 0
M  V30 724 C 67.9367 2.71632 4.50669 0
M  V30 725 O 66.9627 3.4557 4.52294 0
M  V30 726 N 68.1647 1.83391 5.5077 0
M  V30 727 H 70.9297 2.58981 1.50828 0
M  V30 728 H 68.4907 1.4666 0.685743 0
M  V30 729 H 70.4827 1.46129 3.77397 0
M  V30 730 H 69.0527 0.683483 3.05037 0
M  V30 731 H 68.2727 3.09381 2.44289 0
M  V30 732 H 69.5607 3.68666 3.5066 0
M  V30 733 H 68.9587 1.22583 5.52259 0
M  V30 734 H 67.5157 1.78515 6.26878 0
M  V30 735 N 70.9488 -0.749086 1.3866 0
M  V30 736 C 72.3648 -1.05276 1.19955 0
M  V30 737 C 72.5648 -2.01435 0.05134 0
M  V30 738 O 71.6208 -2.45232 -0.60147 0
M  V30 739 C 72.9338 -1.62853 2.52783 0
M  V30 740 C 74.4818 -1.75002 2.59506 0
M  V30 741 C 74.9568 -2.35991 3.92521 0
M  V30 742 N 76.4478 -2.43416 3.94085 0
M  V30 743 C 77.1828 -2.91511 4.9377 0
M  V30 744 N 76.6788 -3.39608 6.03853 0
M  V30 745 N 78.4718 -2.90592 4.81157 0
M  V30 746 H 70.6228 -0.111066 2.12109 0
M  V30 747 H 72.8858 -0.111901 0.941373 0
M  V30 748 H 72.5918 -0.99664 3.37283 0
M  V30 749 H 72.4658 -2.61854 2.715 0
M  V30 750 H 74.8528 -2.37317 1.75398 0
M  V30 751 H 74.9338 -0.74693 2.44652 0
M  V30 752 H 74.5778 -1.74308 4.77053 0
M  V30 753 H 74.5078 -3.3695 4.04688 0
M  V30 754 H 76.9988 -2.09405 3.14576 0
M  V30 755 H 77.3118 -3.74775 6.75843 0
M  V30 756 H 75.6568 -3.37653 6.07466 0
M  V30 757 H 78.8478 -2.52332 3.94267 0
M  V30 758 H 79.0208 -3.27762 5.58996 0
M  V30 759 N 72.4269 -1.23603 -0.977757 0
M  V30 760 C 73.3739 -1.01954 -2.07061 0
M  V30 761 C 74.3439 0.0638697 -1.65977 0
M  V30 762 O 75.5289 -0.0887624 -1.90593 0
M  V30 763 C 72.6689 -0.619658 -3.39491 0
M  V30 764 C 71.7819 -1.77547 -3.93829 0
M  V30 765 C 70.9169 -1.32212 -5.14484 0
M  V30 766 C 69.9559 -2.44852 -5.60994 0
M  V30 767 N 69.0929 -2.00456 -6.72876 0
M  V30 768 H 73.9329 -1.95495 -2.24913 0
M  V30 769 H 71.4699 -0.973861 -1.10247 0
M  V30 770 H 73.4279 -0.368898 -4.15566 0
M  V30 771 H 72.0579 0.278752 -3.21594 0
M  V30 772 H 71.1099 -2.14016 -3.14486 0
M  V30 773 H 72.4219 -2.62219 -4.24314 0
M  V30 774 H 71.5759 -1.02965 -5.97899 0
M  V30 775 H 70.3149 -0.445808 -4.85658 0
M  V30 776 H 69.3199 -2.74871 -4.76157 0
M  V30 777 H 70.5449 -3.33024 -5.91837 0
M  V30 778 H 68.4909 -1.15208 -6.45804 0
M  V30 779 H 68.4079 -2.78687 -7.02759 0
M  V30 780 H 69.6759 -1.7432 -7.59758 0
M  V30 781 N 73.905 1.17692 -1.04816 0
M  V30 782 C 75.152 1.87859 -0.75599 0
M  V30 783 C 75.48 1.80812 0.716752 0
M  V30 784 O 74.735 1.20819 1.53952 0
M  V30 785 C 75.034 3.37462 -1.17703 0
M  V30 786 C 74.7 3.64713 -2.65133 0
M  V30 787 C 73.362 3.71859 -3.05408 0
M  V30 788 C 75.714 3.76492 -3.60421 0
M  V30 789 C 73.042 3.88271 -4.39843 0
M  V30 790 C 75.394 3.94421 -4.94585 0
M  V30 791 C 74.058 3.99806 -5.3452 0
M  V30 792 H 73.328 0.687425 -0.276636 0
M  V30 793 H 75.975 1.39255 -1.31455 0
M  V30 794 H 74.28 3.88097 -0.537395 0
M  V30 795 H 75.977 3.90109 -0.928218 0
M  V30 796 H 72.567 3.59772 -2.32942 0
M  V30 797 H 76.751 3.70295 -3.30447 0
M  V30 798 H 72.007 3.90687 -4.70291 0
M  V30 799 H 76.181 4.02477 -5.68318 0
M  V30 800 H 73.808 4.12276 -6.38696 0
M  V30 801 N 75.3831 0.828654 1.34056 0
M  V30 802 C 76.6291 0.42008 1.98402 0
M  V30 803 C 76.9621 -1.01564 1.65525 0
M  V30 804 O 76.2371 -1.70834 0.929831 0
M  V30 805 C 76.5201 0.62927 3.54559 0
M  V30 806 C 76.3731 2.11152 3.97159 0
M  V30 807 C 77.6921 0.0688756 4.40046 0
M  V30 808 H 74.8111 0.154104 0.720709 0
M  V30 809 H 77.4531 1.04228 1.5886 0
M  V30 810 H 75.6031 0.0996418 3.88372 0
M  V30 811 H 77.2751 2.70522 3.73651 0
M  V30 812 H 75.5181 2.59985 3.47261 0
M  V30 813 H 76.1891 2.20868 5.05887 0
M  V30 814 H 78.6651 0.521458 4.1282 0
M  V30 815 H 77.5411 0.245006 5.48353 0
M  V30 816 H 77.8021 -1.0266 4.30015 0
M  V30 817 N 76.8612 -1.46375 0.584142 0
M  V30 818 C 78.1092 -2.01978 0.0701287 0
M  V30 819 C 78.4302 -1.4579 -1.295 0
M  V30 820 O 77.7002 -0.64314 -1.85042 0
M  V30 821 H 76.2802 -0.746648 0.0229345 0
M  V30 822 H 78.9422 -1.79461 0.760245 0
M  V30 823 H 78.0382 -3.121 0.0022064 0
M  V30 824 N 78.3393 -0.321999 -1.54275 0
M  V30 825 C 79.2493 0.553631 -2.27974 0
M  V30 826 C 80.2653 1.13054 -1.32268 0
M  V30 827 O 81.4413 1.15084 -1.6528 0
M  V30 828 C 78.5063 1.69927 -3.02201 0
M  V30 829 C 77.5673 1.15433 -4.1349 0
M  V30 830 C 76.8003 2.24537 -4.84168 0
M  V30 831 O 77.0233 3.44852 -4.5435 0
M  V30 832 O 75.9573 1.90044 -5.7111 0
M  V30 833 H 79.7833 -0.0448345 -3.03667 0
M  V30 834 H 77.3683 -0.0877418 -1.49142 0
M  V30 835 H 79.2503 2.3663 -3.48689 0
M  V30 836 H 77.9253 2.28395 -2.29385 0
M  V30 837 H 76.8323 0.452436 -3.71354 0
M  V30 838 H 78.1653 0.614805 -4.88345 0
M  V30 839 N 79.8174 1.5752 -0.0501392 0
M  V30 840 C 81.0634 1.92936 0.624798 0
M  V30 841 C 81.3964 0.928685 1.70555 0
M  V30 842 O 80.6714 -0.0454779 1.94447 0
M  V30 843 C 80.9544 3.38737 1.22185 0
M  V30 844 C 80.8074 4.49552 0.149218 0
M  V30 845 C 82.1264 3.84913 2.13378 0
M  V30 846 H 79.2454 0.701604 0.225657 0
M  V30 847 H 81.8874 1.89671 -0.111693 0
M  V30 848 H 80.0374 3.4165 1.84953 0
M  V30 849 H 81.7094 4.58768 -0.482648 0
M  V30 850 H 79.9524 4.30638 -0.522841 0
M  V30 851 H 80.6234 5.48653 0.606966 0
M  V30 852 H 83.0994 3.8387 1.60572 0
M  V30 853 H 81.9754 4.87584 2.52097 0
M  V30 854 H 82.2364 3.21611 3.03346 0
M  V30 855 N 81.2955 -0.223234 1.56011 0
M  V30 856 C 82.2425 -1.27664 1.92277 0
M  V30 857 C 83.2125 -1.46659 0.779763 0
M  V30 858 O 84.3975 -1.60256 1.03551 0
M  V30 859 C 81.5375 -2.62234 2.24338 0
M  V30 860 C 80.6505 -2.51051 3.51564 0
M  V30 861 C 79.7855 -3.78133 3.7308 0
M  V30 862 C 78.8245 -3.61665 4.93827 0
M  V30 863 N 77.9615 -4.80693 5.11741 0
M  V30 864 H 82.8015 -0.960358 2.82101 0
M  V30 865 H 80.3385 -0.462901 1.39627 0
M  V30 866 H 82.2965 -3.40596 2.40936 0
M  V30 867 H 80.9265 -2.91961 1.3769 0
M  V30 868 H 79.9785 -1.64132 3.43169 0
M  V30 869 H 81.2905 -2.34803 4.40079 0
M  V30 870 H 80.4445 -4.64938 3.89766 0
M  V30 871 H 79.1835 -3.97304 2.82844 0
M  V30 872 H 78.1885 -2.73244 4.77093 0
M  V30 873 H 79.4135 -3.43966 5.85546 0
M  V30 874 H 77.3595 -5.00181 4.24446 0
M  V30 875 H 77.2765 -4.67165 5.94384 0
M  V30 876 H 78.5445 -5.6893 5.3286 0
M  V30 877 N 82.7736 -1.49793 -0.48987 0
M  V30 878 C 84.1896 -1.36803 -0.822022 0
M  V30 879 C 84.3896 -0.409652 -1.97292 0
M  V30 880 O 83.4456 0.154614 -2.52026 0
M  V30 881 C 84.7586 -2.77768 -1.15175 0
M  V30 882 C 86.3066 -2.86549 -1.25931 0
M  V30 883 C 86.7816 -4.28306 -1.62228 0
M  V30 884 N 88.2726 -4.31169 -1.69256 0
M  V30 885 C 89.0076 -5.37832 -1.98807 0
M  V30 886 N 88.5036 -6.54726 -2.26507 0
M  V30 887 N 90.2966 -5.25258 -2.00152 0
M  V30 888 H 82.4476 -2.10691 0.268881 0
M  V30 889 H 84.7106 -0.946241 0.057728 0
M  V30 890 H 84.4166 -3.49648 -0.379335 0
M  V30 891 H 84.2906 -3.13836 -2.09253 0
M  V30 892 H 86.6776 -2.14899 -2.02243 0
M  V30 893 H 86.7586 -2.54049 -0.298776 0
M  V30 894 H 86.4026 -5.00486 -0.864622 0
M  V30 895 H 86.3326 -4.58279 -2.594 0
M  V30 896 H 88.8236 -3.4687 -1.49965 0
M  V30 897 H 89.1366 -7.31833 -2.48276 0
M  V30 898 H 87.4816 -6.57933 -2.23939 0
M  V30 899 H 90.6726 -4.32938 -1.77996 0
M  V30 900 H 90.8456 -6.08476 -2.22848 0
M  V30 901 N 84.2517 0.741722 -1.39055 0
M  V30 902 C 85.4917 1.51385 -1.37338 0
M  V30 903 C 85.8557 1.91972 0.0330513 0
M  V30 904 O 87.0567 2.68229 0.175174 0
M  V30 905 C 85.3277 2.72481 -2.31276 0
M  V30 906 S 86.8867 3.62211 -2.47687 0
M  V30 907 H 83.7047 0.517906 -0.487129 0
M  V30 908 H 86.3067 0.86969 -1.7509 0
M  V30 909 H 85.0107 2.40793 -3.32336 0
M  V30 910 H 84.5417 3.41832 -1.94716 0
M  V30 911 H 86.5567 4.65812 -1.70978 0
M  V30 912 N 85.7298 1.2412 0.971189 0
M  V30 913 C 86.6398 1.04747 2.09917 0
M  V30 914 C 87.6558 -0.0107162 1.73997 0
M  V30 915 O 88.8318 0.186714 2.00533 0
M  V30 916 C 85.8968 0.650828 3.40537 0
M  V30 917 C 84.9578 1.7851 3.90426 0
M  V30 918 C 84.1908 1.40729 5.14812 0
M  V30 919 O 84.4138 0.29557 5.69634 0
M  V30 920 O 83.3478 2.23168 5.58999 0
M  V30 921 H 87.1738 1.99304 2.29154 0
M  V30 922 H 84.7588 1.02908 1.08307 0
M  V30 923 H 86.6408 0.440992 4.19086 0
M  V30 924 H 85.3158 -0.265649 3.22608 0
M  V30 925 H 84.2228 2.04966 3.12953 0
M  V30 926 H 85.5558 2.68023 4.12825 0
M  V30 927 N 87.2079 -1.17134 1.05439 0
M  V30 928 C 88.1179 -2.24878 0.668365 0
M  V30 929 C 89.1339 -1.71186 -0.311687 0
M  V30 930 O 90.3099 -2.00738 -0.163161 0
M  V30 931 C 87.3749 -3.46662 0.051648 0
M  V30 932 C 86.4359 -4.15429 1.08246 0
M  V30 933 C 85.6689 -5.31399 0.495082 0
M  V30 934 O 85.8919 -5.66153 -0.694743 0
M  V30 935 O 84.8259 -5.89187 1.23056 0
M  V30 936 H 88.6519 -2.60189 1.56637 0
M  V30 937 H 86.2369 -1.24482 0.826104 0
M  V30 938 H 88.1189 -4.20394 -0.290966 0
M  V30 939 H 86.7939 -3.13142 -0.819971 0
M  V30 940 H 85.7009 -3.43704 1.47711 0
M  V30 941 H 87.0339 -4.52982 1.92532 0
M  V30 942 N 88.686 -0.835752 -1.33615 0
M  V30 943 C 89.616 -0.281739 -2.31794 0
M  V30 944 C 90.597 0.608833 -1.58831 0
M  V30 945 O 91.782 0.533035 -1.86741 0
M  V30 946 C 88.912 0.546612 -3.42971 0
M  V30 947 C 87.866 -0.247904 -4.27281 0
M  V30 948 C 87.192 0.704001 -5.30045 0
M  V30 949 C 88.492 -1.46324 -5.01385 0
M  V30 950 H 90.186 -1.10206 -2.78379 0
M  V30 951 H 87.732 -0.531388 -1.33837 0
M  V30 952 H 89.685 0.944467 -4.1068 0
M  V30 953 H 88.409 1.40011 -2.95067 0
M  V30 954 H 87.068 -0.627281 -3.61194 0
M  V30 955 H 86.716 1.55381 -4.78399 0
M  V30 956 H 86.416 0.176524 -5.87335 0
M  V30 957 H 87.94 1.09944 -6.0062 0
M  V30 958 H 89.354 -1.13871 -5.61877 0
M  V30 959 H 87.751 -1.92728 -5.6831 0
M  V30 960 H 88.821 -2.23467 -4.30338 0
M  V30 961 N 90.1641 1.46063 -0.591896 0
M  V30 962 C 91.0741 2.34192 0.13831 0
M  V30 963 C 92.0901 1.50305 0.876608 0
M  V30 964 O 93.2661 1.8315 0.837728 0
M  V30 965 C 90.3311 3.27656 1.13326 0
M  V30 966 C 89.3921 4.27445 0.39863 0
M  V30 967 C 88.6251 5.16443 1.34618 0
M  V30 968 O 88.8481 5.08553 2.58321 0
M  V30 969 O 87.7821 5.95843 0.851768 0
M  V30 970 H 91.6081 2.98002 -0.58552 0
M  V30 971 H 89.1931 1.45188 -0.352239 0
M  V30 972 H 91.0751 3.85291 1.70671 0
M  V30 973 H 89.7501 2.6643 1.83839 0
M  V30 974 H 88.6571 3.73471 -0.216895 0
M  V30 975 H 89.9901 4.91482 -0.265709 0
M  V30 976 N 91.6422 0.330177 1.54103 0
M  V30 977 C 93.0582 -0.0222371 1.59585 0
M  V30 978 C 93.2582 -1.49902 1.34654 0
M  V30 979 O 92.3142 -2.25592 1.13421 0
M  V30 980 C 93.6272 0.401932 2.98002 0
M  V30 981 C 95.1752 0.353145 3.11001 0
M  V30 982 C 95.6502 0.752576 4.51775 0
M  V30 983 N 97.1412 0.706239 4.57784 0
M  V30 984 C 97.8762 0.987417 5.64834 0
M  V30 985 N 97.3722 1.33607 6.79795 0
M  V30 986 N 99.1652 0.91254 5.54643 0
M  V30 987 H 91.3162 1.29228 1.68564 0
M  V30 988 H 93.5792 0.525906 0.78875 0
M  V30 989 H 93.2852 1.4311 3.21267 0
M  V30 990 H 93.1592 -0.229699 3.765 0
M  V30 991 H 95.5462 -0.666822 2.87467 0
M  V30 992 H 95.6272 1.0198 2.34593 0
M  V30 993 H 95.2712 1.77049 4.76042 0
M  V30 994 H 95.2012 0.0635409 5.26562 0
M  V30 995 H 97.6922 0.44889 3.75224 0
M  V30 996 H 98.0052 1.53582 7.57385 0
M  V30 997 H 96.3502 1.37439 6.81275 0
M  V30 998 H 99.5412 0.639601 4.6371 0
M  V30 999 H 99.7142 1.13503 6.37982 0
M  V30 1000 N 93.1203 -1.57491 0.0584922 0
M  V30 1001 C 94.3693 -1.92155 -0.613146 0
M  V30 1002 C 94.6823 -0.939334 -1.71569 0
M  V30 1003 O 95.8883 -1.17829 -2.44599 0
M  V30 1004 C 94.3443 -3.41303 -1.14195 0
M  V30 1005 C 93.9523 -4.47944 -0.0711265 0
M  V30 1006 C 95.6963 -3.84988 -1.78841 0
M  V30 1007 C 93.6033 -5.88212 -0.613225 0
M  V30 1008 H 92.5333 -0.717162 -0.232796 0
M  V30 1009 H 95.1843 -1.83049 0.12857 0
M  V30 1010 H 93.5663 -3.45437 -1.93621 0
M  V30 1011 H 94.7403 -4.55408 0.702836 0
M  V30 1012 H 93.0553 -4.13644 0.478313 0
M  V30 1013 H 95.6523 -4.87159 -2.20408 0
M  V30 1014 H 95.9953 -3.21632 -2.64308 0
M  V30 1015 H 96.5283 -3.83401 -1.06059 0
M  V30 1016 H 93.2673 -6.55183 0.203978 0
M  V30 1017 H 92.7873 -5.84294 -1.35501 0
M  V30 1018 H 94.4663 -6.37687 -1.09383 0
M  V30 1019 N 94.5984 0.214957 -1.56127 0
M  V30 1020 C 95.5284 1.2695 -1.95974 0
M  V30 1021 C 96.5094 1.48539 -0.828868 0
M  V30 1022 O 97.6944 1.60611 -1.09168 0
M  V30 1023 C 94.8244 2.61794 -2.28214 0
M  V30 1024 C 93.7784 2.54851 -3.43853 0
M  V30 1025 C 93.1044 3.93785 -3.61715 0
M  V30 1026 C 94.4044 2.09065 -4.78632 0
M  V30 1027 H 96.0984 0.93846 -2.84312 0
M  V30 1028 H 93.6444 0.449996 -1.36788 0
M  V30 1029 H 95.5974 3.35731 -2.54682 0
M  V30 1030 H 94.3214 2.96599 -1.36736 0
M  V30 1031 H 92.9804 1.8337 -3.17444 0
M  V30 1032 H 92.6284 4.25908 -2.67602 0
M  V30 1033 H 92.3284 3.90019 -4.39498 0
M  V30 1034 H 93.8524 4.69374 -3.90539 0
M  V30 1035 H 95.2664 2.7275 -5.04262 0
M  V30 1036 H 93.6634 2.16346 -5.59745 0
M  V30 1037 H 94.7334 1.04315 -4.73547 0
M  V30 1038 N 96.0765 1.50051 0.48192 0
M  V30 1039 C 97.3225 1.60736 1.2366 0
M  V30 1040 C 97.6555 0.301786 1.91841 0
M  V30 1041 O 96.9305 -0.696025 1.8162 0
M  V30 1042 C 97.2135 2.78009 2.28874 0
M  V30 1043 C 97.0665 4.18416 1.65069 0
M  V30 1044 C 98.3855 2.90867 3.30279 0
M  V30 1045 H 95.5045 0.585031 0.448228 0
M  V30 1046 H 98.1465 1.82402 0.531946 0
M  V30 1047 H 96.2965 2.59667 2.88973 0
M  V30 1048 H 97.9685 4.48322 1.0865 0
M  V30 1049 H 96.2115 4.23177 0.954148 0
M  V30 1050 H 96.8825 4.96381 2.41474 0
M  V30 1051 H 99.3585 3.07623 2.80191 0
M  V30 1052 H 98.2345 3.74566 4.01238 0
M  V30 1053 H 98.4955 2.01021 3.93755 0
M  V30 1054 N 97.5546 -0.734337 1.39446 0
M  V30 1055 C 98.7846 -1.52137 1.39778 0
M  V30 1056 C 99.1926 -1.89198 -0.00929312 0
M  V30 1057 O 98.5356 -1.54666 -0.991168 0
M  V30 1058 C 98.5976 -2.83762 2.20724 0
M  V30 1059 C 98.2616 -2.69131 3.69347 0
M  V30 1060 C 99.2586 -2.37635 4.62413 0
M  V30 1061 C 96.9436 -2.85982 4.1294 0
M  V30 1062 C 98.9376 -2.23172 5.97054 0
M  V30 1063 C 96.6246 -2.71137 5.47657 0
M  V30 1064 C 97.6226 -2.39777 6.39528 0
M  V30 1065 O 97.3106 -2.25026 7.71763 0
M  V30 1066 H 97.0426 -0.476717 0.479288 0
M  V30 1067 H 99.5966 -0.915012 1.83893 0
M  V30 1068 H 97.8266 -3.4666 1.71359 0
M  V30 1069 H 99.5156 -3.45383 2.13226 0
M  V30 1070 H 100.282 -2.24267 4.30034 0
M  V30 1071 H 96.1606 -3.09383 3.41765 0
M  V30 1072 H 99.7046 -1.98617 6.68728 0
M  V30 1073 H 95.6016 -2.84083 5.79626 0
M  V30 1074 H 96.3696 -2.40091 7.82495 0
M  V30 1075 N 99.0327 -1.24633 -0.964593 0
M  V30 1076 C 99.9627 -1.06611 -2.07741 0
M  V30 1077 C 100.944 0.0218666 -1.70086 0
M  V30 1078 O 102.129 -0.145793 -1.93652 0
M  V30 1079 C 99.2587 -0.673444 -3.40708 0
M  V30 1080 C 98.2127 -1.71054 -3.92332 0
M  V30 1081 C 97.5387 -1.17285 -5.21678 0
M  V30 1082 C 98.8387 -3.10718 -4.19824 0
M  V30 1083 H 100.533 -1.99693 -2.23076 0
M  V30 1084 H 98.0787 -0.96152 -1.07195 0
M  V30 1085 H 100.032 -0.534345 -4.17998 0
M  V30 1086 H 98.7557 0.293073 -3.25282 0
M  V30 1087 H 97.4147 -1.83791 -3.17201 0
M  V30 1088 H 97.0627 -0.196847 -5.02615 0
M  V30 1089 H 96.7627 -1.86592 -5.57187 0
M  V30 1090 H 98.2867 -1.04593 -6.01575 0
M  V30 1091 H 99.7007 -3.01192 -4.87808 0
M  V30 1092 H 98.0977 -3.77406 -4.66567 0
M  V30 1093 H 99.1677 -3.58524 -3.26479 0
M  V30 1094 N 100.511 1.16574 -1.06058 0
M  V30 1095 C 101.757 1.87324 -0.777022 0
M  V30 1096 C 102.09 1.81351 0.694645 0
M  V30 1097 O 101.365 1.22753 1.50871 0
M  V30 1098 C 101.648 3.36991 -1.26922 0
M  V30 1099 C 101.501 3.51667 -2.80447 0
M  V30 1100 C 102.82 4.3131 -0.87521 0
M  V30 1101 H 99.9388 0.680191 -0.28374 0
M  V30 1102 H 102.581 1.37036 -1.3161 0
M  V30 1103 H 100.731 3.79949 -0.81063 0
M  V30 1104 H 102.403 3.17664 -3.34495 0
M  V30 1105 H 100.646 2.93656 -3.19294 0
M  V30 1106 H 101.317 4.56766 -3.0995 0
M  V30 1107 H 103.793 3.9624 -1.27014 0
M  V30 1108 H 102.669 5.34545 -1.2471 0
M  V30 1109 H 102.93 4.41552 0.220071 0
M  V30 1110 N 101.989 0.842826 1.3317 0
M  V30 1111 C 102.921 0.236245 2.27979 0
M  V30 1112 C 103.934 -0.585282 1.51915 0
M  V30 1113 O 105.123 -0.411705 1.73687 0
M  V30 1114 C 102.223 -0.685717 3.3189 0
M  V30 1115 C 101.396 0.0973448 4.37292 0
M  V30 1116 C 100.455 -0.748565 5.20848 0
M  V30 1117 O 99.4809 -0.186339 5.68895 0
M  V30 1118 N 100.683 -2.06527 5.42519 0
M  V30 1119 H 103.448 1.05088 2.80672 0
M  V30 1120 H 101.009 0.701667 1.45905 0
M  V30 1121 H 103.001 -1.25669 3.84694 0
M  V30 1122 H 101.571 -1.40105 2.79445 0
M  V30 1123 H 100.791 0.849706 3.84933 0
M  V30 1124 H 102.079 0.635643 5.04814 0
M  V30 1125 H 101.477 -2.54554 5.05192 0
M  V30 1126 H 100.034 -2.58464 5.98364 0
M  V30 1127 N 103.467 -1.45747 0.599634 0
M  V30 1128 C 104.377 -2.34262 -0.125888 0
M  V30 1129 C 105.393 -1.50768 -0.868625 0
M  V30 1130 O 106.569 -1.83592 -0.828003 0
M  V30 1131 C 103.634 -3.28252 -1.11587 0
M  V30 1132 C 102.695 -4.27651 -0.375956 0
M  V30 1133 C 101.928 -5.1715 -1.31877 0
M  V30 1134 O 102.151 -5.09916 -2.55621 0
M  V30 1135 O 101.085 -5.96286 -0.820157 0
M  V30 1136 H 104.911 -2.97688 0.601315 0
M  V30 1137 H 102.496 -1.44999 0.359934 0
M  V30 1138 H 104.378 -3.86191 -1.68626 0
M  V30 1139 H 103.053 -2.67401 -1.82424 0
M  V30 1140 H 101.96 -3.7335 0.236698 0
M  V30 1141 H 103.293 -4.91334 0.29177 0
M  V30 1142 N 104.945 -0.338344 -1.53925 0
M  V30 1143 C 106.194 0.260732 -2.00008 0
M  V30 1144 C 106.507 1.52073 -1.23017 0
M  V30 1145 O 107.713 2.19672 -1.5955 0
M  V30 1146 C 106.169 0.51515 -3.56194 0
M  V30 1147 C 105.777 -0.728645 -4.42035 0
M  V30 1148 C 107.521 1.07337 -4.10706 0
M  V30 1149 C 105.428 -0.445315 -5.89721 0
M  V30 1150 H 104.358 0.101205 -0.747177 0
M  V30 1151 H 107.009 -0.452866 -1.77824 0
M  V30 1152 H 105.391 1.28932 -3.74423 0
M  V30 1153 H 106.565 -1.50352 -4.35581 0
M  V30 1154 H 104.88 -1.20813 -3.98489 0
M  V30 1155 H 107.477 1.30022 -5.18651 0
M  V30 1156 H 107.82 2.0273 -3.63602 0
M  V30 1157 H 108.353 0.360034 -3.96167 0
M  V30 1158 H 105.092 -1.36883 -6.41049 0
M  V30 1159 H 104.612 0.291569 -5.99091 0
M  V30 1160 H 106.291 -0.0606218 -6.46972 0
M  V30 1161 N 106.423 1.57458 -0.0668435 0
M  V30 1162 C 107.371 2.13639 0.919851 0
M  V30 1163 C 108.365 1.07204 1.31163 0
M  V30 1164 O 109.571 1.25591 1.28945 0
M  V30 1165 H 105.946 0.683048 0.314562 0
M  V30 1166 H 107.917 2.95415 0.421047 0
M  V30 1167 C 106.666 2.70892 2.17975 0
M  V30 1168 H 105.989 3.5246 1.88711 0
M  V30 1169 H 107.429 3.13803 2.85138 0
M  V30 1170 C 105.888 1.65414 2.93496 0
M  V30 1171 O 106.418 1.07619 3.87015 0
M  V30 1172 N 104.624 1.36564 2.56512 0
M  V30 1173 H 104.171 1.83751 1.80536 0
M  V30 1174 H 104.129 0.66223 3.07347 0
M  V30 1175 N 107.901 -0.206675 1.56239 0
M  V30 1176 C 109.317 -0.557025 1.49564 0
M  V30 1177 C 109.517 -1.86424 0.764735 0
M  V30 1178 O 108.573 -2.50584 0.310491 0
M  V30 1179 C 109.886 -0.622478 2.94186 0
M  V30 1180 C 111.434 -0.712099 3.04792 0
M  V30 1181 C 111.909 -0.808767 4.50803 0
M  V30 1182 N 113.4 -0.8726 4.54907 0
M  V30 1183 C 114.135 -0.967365 5.65181 0
M  V30 1184 N 113.631 -1.02515 6.85173 0
M  V30 1185 N 115.424 -1.00366 5.53067 0
M  V30 1186 H 107.575 0.650943 2.02179 0
M  V30 1187 H 109.838 0.230387 0.919579 0
M  V30 1188 H 109.544 0.268727 3.50672 0
M  V30 1189 H 109.418 -1.4811 3.46905 0
M  V30 1190 H 111.805 -1.59374 2.48363 0
M  V30 1191 H 111.886 0.172489 2.55218 0
M  V30 1192 H 111.53 0.0684754 5.07854 0
M  V30 1193 H 111.46 -1.70899 4.98098 0
M  V30 1194 H 113.951 -0.837657 3.68499 0
M  V30 1195 H 114.264 -1.09765 7.64965 0
M  V30 1196 H 112.609 -0.994026 6.87855 0
M  V30 1197 H 115.8 -0.95527 4.58249 0
M  V30 1198 H 115.973 -1.07405 6.39037 0
M  V30 1199 N 109.379 -1.50304 -0.473955 0
M  V30 1200 C 110.342 -1.6841 -1.55469 0
M  V30 1201 C 111.342 -0.554905 -1.50922 0
M  V30 1202 O 112.532 -0.821882 -1.53593 0
M  V30 1203 C 109.664 -1.70667 -2.95102 0
M  V30 1204 H 110.857 -2.64828 -1.40733 0
M  V30 1205 H 108.41 -1.39742 -0.700132 0
M  V30 1206 H 109.145 -0.75932 -3.15285 0
M  V30 1207 H 108.93 -2.52698 -2.9981 0
M  V30 1208 H 110.42 -1.8664 -3.73571 0
M  V30 1209 N 110.857 0.726932 -1.39834 0
M  V30 1210 C 112.134 1.47902 -1.28001 0
M  V30 1211 C 112.514 2.1083 0.106789 0
M  V30 1212 O 111.862 1.99242 1.11869 0
M  V30 1213 C 112.072 2.52392 -2.41038 0
M  V30 1214 C 113.42 3.18546 -2.80737 0
M  V30 1215 O 114.444 2.62708 -2.40547 0
M  V30 1216 O 113.303 4.19604 -3.50135 0
M  V30 1217 H 110.397 0.657163 -0.502062 0
M  V30 1218 H 112.943 0.760071 -1.51727 0
M  V30 1219 H 111.715 2.04329 -3.33715 0
M  V30 1220 H 111.338 3.31837 -2.19021 0
M  V30 1221 N 112.336 1.25143 0.95797 0
M  V30 1222 C 113.585 1.0909 1.69654 0
M  V30 1223 C 113.898 -0.368548 1.92097 0
M  V30 1224 O 115.104 -0.649455 2.63618 0
M  V30 1225 C 113.56 1.90395 3.05414 0
M  V30 1226 C 113.168 3.4081 2.90779 0
M  V30 1227 C 114.912 1.82901 3.83076 0
M  V30 1228 C 112.819 4.14423 4.21909 0
M  V30 1229 H 111.749 0.404625 0.636235 0
M  V30 1230 H 114.4 1.4931 1.06672 0
M  V30 1231 H 112.782 1.42996 3.69281 0
M  V30 1232 H 113.956 3.95859 2.35865 0
M  V30 1233 H 112.271 3.49361 2.26575 0
M  V30 1234 H 114.868 2.35196 4.80195 0
M  V30 1235 H 115.211 0.796224 4.08615 0
M  V30 1236 H 115.744 2.28033 3.25954 0
M  V30 1237 H 112.483 5.18102 4.01561 0
M  V30 1238 H 112.003 3.64159 4.76601 0
M  V30 1239 H 113.682 4.21956 4.90471 0
M  V30 1240 N 113.814 -1.1601 1.06675 0
M  V30 1241 C 115.225 -1.68235 0.809565 0
M  V30 1242 C 115.576 -1.8454 -0.666303 0
M  V30 1243 O 114.701 -1.54374 -1.5165 0
M  V30 1244 C 115.296 -3.05585 1.46299 0
M  V30 1245 C 113.855 -3.54915 1.25349 0
M  V30 1246 C 113.002 -2.30804 1.53703 0
M  V30 1247 H 115.953 -1.00318 1.22971 0
M  V30 1248 H 115.974 -3.70174 0.880431 0
M  V30 1249 H 115.486 -2.93686 2.53713 0
M  V30 1250 H 113.587 -3.72067 0.199261 0
M  V30 1251 H 113.7 -4.36774 1.9689 0
M  V30 1252 H 112.064 -2.36007 0.957739 0
M  V30 1253 H 112.847 -2.21499 2.62284 0
M  V30 1254 N 115.292 -0.849877 -1.32721 0
M  V30 1255 C 116.222 -0.306308 -2.31482 0
M  V30 1256 C 117.203 0.591952 -1.59468 0
M  V30 1257 O 118.388 0.513199 -1.87296 0
M  V30 1258 C 115.518 0.510204 -3.43532 0
M  V30 1259 C 114.472 -0.293209 -4.26994 0
M  V30 1260 C 113.798 0.647743 -5.30762 0
M  V30 1261 C 115.098 -1.51634 -4.99804 0
M  V30 1262 H 116.792 -1.13153 -2.77195 0
M  V30 1263 H 114.338 -0.545553 -1.33266 0
M  V30 1264 H 116.291 0.900856 -4.11658 0
M  V30 1265 H 115.015 1.36874 -2.96535 0
M  V30 1266 H 113.674 -0.665555 -3.60508 0
M  V30 1267 H 113.322 1.50299 -4.8002 0
M  V30 1268 H 113.022 0.11422 -5.87489 0
M  V30 1269 H 114.546 1.03567 -6.01753 0
M  V30 1270 H 115.96 -1.19824 -5.60638 0
M  V30 1271 H 114.357 -1.98745 -5.66234 0
M  V30 1272 H 115.427 -2.28018 -4.27943 0
M  V30 1273 N 116.77 1.45427 -0.607355 0
M  V30 1274 C 118.181 1.85756 -0.187535 0
M  V30 1275 C 118.532 1.5077 1.25551 0
M  V30 1276 O 117.657 0.93427 1.95193 0
M  V30 1277 C 118.252 3.37154 -0.333572 0
M  V30 1278 C 116.811 3.76387 0.0315542 0
M  V30 1279 C 115.958 2.69377 -0.658117 0
M  V30 1280 H 118.909 1.36231 -0.81405 0
M  V30 1281 H 118.93 3.78014 0.43428 0
M  V30 1282 H 118.442 3.62586 -1.38393 0
M  V30 1283 H 116.543 3.56571 1.0811 0
M  V30 1284 H 116.656 4.77731 -0.361935 0
M  V30 1285 H 115.02 2.5452 -0.0957873 0
M  V30 1286 H 115.803 2.97646 -1.7106 0
M  V30 1287 N 118.248 0.346503 1.53744 0
M  V30 1288 C 119.158 -0.517293 2.28826 0
M  V30 1289 C 120.174 -1.10935 1.3405 0
M  V30 1290 O 121.35 -1.1244 1.6709 0
M  V30 1291 C 118.415 -1.65098 3.04866 0
M  V30 1292 C 117.476 -1.0884 4.15274 0
M  V30 1293 C 116.709 -2.16806 4.87679 0
M  V30 1294 O 116.932 -3.3758 4.59778 0
M  V30 1295 O 115.866 -1.80934 5.74061 0
M  V30 1296 H 119.692 0.0931396 3.03557 0
M  V30 1297 H 117.277 0.111458 1.48984 0
M  V30 1298 H 119.159 -2.31053 3.5241 0
M  V30 1299 H 117.834 -2.24717 2.32989 0
M  V30 1300 H 116.741 -0.3933 3.72027 0
M  V30 1301 H 118.074 -0.537036 4.89261 0
M  V30 1302 N 119.726 -1.57421 0.075193 0
M  V30 1303 C 120.974 -1.93236 -0.591974 0
M  V30 1304 C 121.295 -0.956241 -1.69944 0
M  V30 1305 O 120.565 -0.00494792 -1.95899 0
M  V30 1306 H 119.145 -0.713355 -0.22166 0
M  V30 1307 H 121.807 -1.9444 0.133848 0
M  V30 1308 H 120.903 -2.95131 -1.01509 0
M  V30 1309 N 121.204 0.198386 -1.56346 0
M  V30 1310 C 122.114 1.2664 -1.97483 0
M  V30 1311 C 123.13 1.49989 -0.882002 0
M  V30 1312 O 124.306 1.62668 -1.18748 0
M  V30 1313 C 121.371 2.59141 -2.30319 0
M  V30 1314 C 120.432 2.43892 -3.53292 0
M  V30 1315 C 119.665 3.70074 -3.84553 0
M  V30 1316 O 119.888 4.74101 -3.1715 0
M  V30 1317 O 118.822 3.658 -4.7799 0
M  V30 1318 H 122.648 0.947304 -2.88548 0
M  V30 1319 H 120.233 0.403123 -1.43859 0
M  V30 1320 H 122.115 3.37352 -2.5253 0
M  V30 1321 H 120.79 2.90684 -1.42423 0
M  V30 1322 H 119.697 1.63803 -3.36332 0
M  V30 1323 H 121.03 2.17282 -4.41644 0
M  V30 1324 N 122.682 1.50554 0.465978 0
M  V30 1325 C 123.645 1.69233 1.54574 0
M  V30 1326 C 124.645 0.562901 1.50626 0
M  V30 1327 O 125.835 0.830016 1.53155 0
M  V30 1328 C 122.967 1.7223 2.94193 0
M  V30 1329 H 124.16 2.65571 1.39327 0
M  V30 1330 H 121.713 1.40111 0.692711 0
M  V30 1331 H 122.448 0.77603 3.14878 0
M  V30 1332 H 122.233 2.54285 2.98466 0
M  V30 1333 H 123.723 1.88618 3.72576 0
M  V30 1334 N 124.16 -0.719506 1.40217 0
M  V30 1335 C 125.385 -1.51371 1.4178 0
M  V30 1336 C 125.81 -1.88091 0.0182355 0
M  V30 1337 O 125.168 -1.52997 -0.972707 0
M  V30 1338 C 125.216 -2.768 2.31115 0
M  V30 1339 O 124.32 -3.73349 1.7517 0
M  V30 1340 H 123.661 -0.456529 0.482159 0
M  V30 1341 H 126.191 -0.88644 1.844 0
M  V30 1342 H 126.201 -3.25371 2.46167 0
M  V30 1343 H 124.876 -2.49407 3.3282 0
M  V30 1344 H 123.453 -3.32179 1.69444 0
M  V30 1345 N 125.638 -1.25649 -0.95132 0
M  V30 1346 C 127.049 -1.09654 -1.51106 0
M  V30 1347 C 127.4 0.326615 -1.93462 0
M  V30 1348 O 126.525 1.21697 -1.78938 0
M  V30 1349 C 127.12 -1.98437 -2.74605 0
M  V30 1350 C 125.679 -1.86618 -3.2688 0
M  V30 1351 C 124.826 -1.9239 -1.99703 0
M  V30 1352 H 127.777 -1.38887 -0.767865 0
M  V30 1353 H 127.798 -1.5263 -3.48546 0
M  V30 1354 H 127.31 -3.02009 -2.43746 0
M  V30 1355 H 125.411 -0.859421 -3.62553 0
M  V30 1356 H 125.524 -2.71607 -3.94673 0
M  V30 1357 H 123.888 -1.36317 -2.15151 0
M  V30 1358 H 124.671 -2.97573 -1.71188 0
M  V30 1359 N 127.117 1.15442 -1.07289 0
M  V30 1360 C 128.528 1.67803 -0.818475 0
M  V30 1361 C 128.879 1.8489 0.656507 0
M  V30 1362 O 128.004 1.55176 1.50829 0
M  V30 1363 C 128.599 3.04805 -1.47917 0
M  V30 1364 C 127.158 3.54245 -1.27229 0
M  V30 1365 C 126.305 2.29986 -1.54925 0
M  V30 1366 H 129.256 0.996646 -1.23502 0
M  V30 1367 H 129.277 3.69702 -0.90005 0
M  V30 1368 H 128.789 2.92336 -2.55267 0
M  V30 1369 H 126.89 3.71956 -0.21899 0
M  V30 1370 H 127.003 4.35723 -1.99203 0
M  V30 1371 H 125.367 2.35496 -0.970242 0
M  V30 1372 H 126.15 2.20105 -2.63455 0
M  V30 1373 N 128.595 0.856903 1.32268 0
M  V30 1374 C 129.558 0.308171 2.27119 0
M  V30 1375 C 130.558 -0.533421 1.51695 0
M  V30 1376 O 131.748 -0.344607 1.70757 0
M  V30 1377 C 128.88 -0.563757 3.36206 0
M  V30 1378 H 130.073 1.14535 2.77167 0
M  V30 1379 H 127.626 0.631421 1.42978 0
M  V30 1380 H 128.361 -1.42266 2.91429 0
M  V30 1381 H 128.146 0.0386749 3.92081 0
M  V30 1382 H 129.636 -0.940386 4.06874 0
M  V30 1383 N 130.073 -1.45103 0.615059 0
M  V30 1384 C 131.484 -1.85654 0.197383 0
M  V30 1385 C 131.835 -1.51433 -1.24749 0
M  V30 1386 O 130.96 -0.944608 -1.94695 0
M  V30 1387 C 131.555 -3.36972 0.351448 0
M  V30 1388 C 130.114 -3.76398 -0.011593 0
M  V30 1389 C 129.261 -2.69024 0.672394 0
M  V30 1390 H 132.212 -1.35797 0.821263 0
M  V30 1391 H 132.233 -3.78239 -0.414227 0
M  V30 1392 H 131.745 -3.61847 1.40314 0
M  V30 1393 H 129.846 -3.5714 -1.06217 0
M  V30 1394 H 129.959 -4.77532 0.387265 0
M  V30 1395 H 128.323 -2.54465 0.109284 0
M  V30 1396 H 129.106 -2.96735 1.72636 0
M  V30 1397 N 131.551 -0.354651 -1.53558 0
M  V30 1398 C 132.962 0.126902 -1.86268 0
M  V30 1399 C 133.313 1.49075 -1.27558 0
M  V30 1400 O 132.438 2.08105 -0.5934 0
M  V30 1401 C 133.033 0.237046 -3.3797 0
M  V30 1402 C 131.592 0.662842 -3.70518 0
M  V30 1403 C 130.739 -0.196652 -2.76602 0
M  V30 1404 H 133.69 -0.573849 -1.47962 0
M  V30 1405 H 133.711 1.06259 -3.65362 0
M  V30 1406 H 133.223 -0.755725 -3.80671 0
M  V30 1407 H 131.324 1.66424 -3.33367 0
M  V30 1408 H 131.437 0.445034 -4.77029 0
M  V30 1409 H 129.801 0.332763 -2.52517 0
M  V30 1410 H 130.584 -1.18676 -3.22135 0
M  V30 1411 N 133.029 1.57378 -0.0835403 0
M  V30 1412 C 133.959 2.1641 0.87686 0
M  V30 1413 C 134.94 1.09429 1.30228 0
M  V30 1414 O 136.125 1.37516 1.37124 0
M  V30 1415 C 133.255 2.73517 2.14022 0
M  V30 1416 C 132.209 3.85769 1.85381 0
M  V30 1417 C 131.535 4.29529 3.18448 0
M  V30 1418 C 132.835 5.09486 1.14984 0
M  V30 1419 H 134.529 2.96914 0.385059 0
M  V30 1420 H 132.075 1.42823 0.18377 0
M  V30 1421 H 134.028 3.13463 2.81636 0
M  V30 1422 H 132.752 1.90252 2.65465 0
M  V30 1423 H 131.411 3.46345 1.20169 0
M  V30 1424 H 131.059 3.43169 3.67755 0
M  V30 1425 H 130.759 5.05204 3.00071 0
M  V30 1426 H 132.283 4.72099 3.8724 0
M  V30 1427 H 133.697 5.46674 1.72687 0
M  V30 1428 H 132.094 5.90515 1.06826 0
M  V30 1429 H 133.164 4.84724 0.130749 0
M  V30 1430 N 134.507 -0.190092 1.56449 0
M  V30 1431 C 135.454 -1.23557 1.94942 0
M  V30 1432 C 136.424 -1.44972 0.810696 0
M  V30 1433 O 137.609 -1.58023 1.06927 0
M  V30 1434 C 134.749 -2.57416 2.2985 0
M  V30 1435 C 133.862 -2.43537 3.5681 0
M  V30 1436 C 132.997 -3.70134 3.81017 0
M  V30 1437 C 132.036 -3.51109 5.01387 0
M  V30 1438 N 131.173 -4.6973 5.21822 0
M  V30 1439 H 136.013 -0.900304 2.84075 0
M  V30 1440 H 133.55 -0.43318 1.40577 0
M  V30 1441 H 135.508 -3.35409 2.48106 0
M  V30 1442 H 134.138 -2.88975 1.43852 0
M  V30 1443 H 133.19 -1.56816 3.46573 0
M  V30 1444 H 134.502 -2.25415 4.4496 0
M  V30 1445 H 133.656 -4.56566 3.9954 0
M  V30 1446 H 132.395 -3.91215 2.91207 0
M  V30 1447 H 131.4 -2.63063 4.82782 0
M  V30 1448 H 132.625 -3.31468 5.9271 0
M  V30 1449 H 130.571 -4.91065 4.34961 0
M  V30 1450 H 130.488 -4.54452 6.0416 0
M  V30 1451 H 131.756 -5.57499 5.44808 0
M  V30 1452 N 135.985 -1.50799 -0.457987 0
M  V30 1453 C 136.917 -1.66786 -1.57211 0
M  V30 1454 C 137.93 -0.548962 -1.53265 0
M  V30 1455 O 139.119 -0.8226 -1.58416 0
M  V30 1456 C 136.219 -1.64834 -2.96113 0
M  V30 1457 C 135.392 -2.92971 -3.24787 0
M  V30 1458 C 134.451 -2.83485 -4.43309 0
M  V30 1459 O 133.477 -3.5744 -4.42973 0
M  V30 1460 N 134.679 -1.97929 -5.45714 0
M  V30 1461 H 137.444 -2.62889 -1.43909 0
M  V30 1462 H 135.005 -1.48427 -0.646617 0
M  V30 1463 H 136.997 -1.56084 -3.7339 0
M  V30 1464 H 135.567 -0.764118 -3.03117 0
M  V30 1465 H 134.787 -3.15749 -2.36 0
M  V30 1466 H 136.075 -3.77834 -3.40762 0
M  V30 1467 H 135.473 -1.37182 -5.48815 0
M  V30 1468 H 134.03 -1.95073 -6.21924 0
M  V30 1469 N 137.463 0.71206 -1.40597 0
M  V30 1470 C 138.709 1.47416 -1.39271 0
M  V30 1471 C 139.042 1.942 0.00388791 0
M  V30 1472 O 138.317 1.68403 0.973179 0
M  V30 1473 C 138.6 2.69774 -2.38525 0
M  V30 1474 C 138.453 2.28861 -3.87224 0
M  V30 1475 C 139.772 3.71939 -2.35264 0
M  V30 1476 H 136.891 0.534713 -0.5072 0
M  V30 1477 H 139.533 0.812375 -1.71757 0
M  V30 1478 H 137.683 3.26238 -2.10953 0
M  V30 1479 H 139.355 1.77852 -4.25636 0
M  V30 1480 H 137.598 1.60824 -4.02887 0
M  V30 1481 H 138.269 3.16584 -4.52193 0
M  V30 1482 H 140.745 3.25113 -2.59694 0
M  V30 1483 H 139.621 4.55186 -3.06753 0
M  V30 1484 H 139.882 4.20484 -1.36549 0
M  V30 1485 N 138.941 1.26152 0.944643 0
M  V30 1486 C 139.871 1.09902 2.06019 0
M  V30 1487 C 140.852 0.00519538 1.70099 0
M  V30 1488 O 142.037 0.176583 1.93396 0
M  V30 1489 C 139.167 0.727562 3.39594 0
M  V30 1490 C 138.121 1.77274 3.89561 0
M  V30 1491 C 137.447 1.25569 5.19747 0
M  V30 1492 C 138.747 3.17357 4.14827 0
M  V30 1493 H 140.441 2.03217 2.19871 0
M  V30 1494 H 137.987 0.978452 1.05652 0
M  V30 1495 H 139.94 0.600777 4.17095 0
M  V30 1496 H 138.664 -0.241287 3.25707 0
M  V30 1497 H 137.323 1.88814 3.14237 0
M  V30 1498 H 136.971 0.276783 5.02238 0
M  V30 1499 H 136.671 1.95433 5.54148 0
M  V30 1500 H 138.195 1.1415 5.99835 0
M  V30 1501 H 139.609 3.08914 4.82954 0
M  V30 1502 H 138.006 3.84781 4.60504 0
M  V30 1503 H 139.076 3.63673 3.20734 0
M  V30 1504 N 140.419 -1.14872 1.07899 0
M  V30 1505 C 141.329 -2.2341 0.715915 0
M  V30 1506 C 142.345 -1.71808 -0.275306 0
M  V30 1507 O 143.521 -2.01039 -0.120545 0
M  V30 1508 C 140.586 -3.46474 0.125168 0
M  V30 1509 C 139.647 -4.13039 1.17034 0
M  V30 1510 C 138.88 -5.30229 0.607688 0
M  V30 1511 O 139.103 -5.675 -0.574497 0
M  V30 1512 O 138.037 -5.86444 1.35526 0
M  V30 1513 H 141.863 -2.56808 1.62121 0
M  V30 1514 H 139.448 -1.22702 0.852322 0
M  V30 1515 H 141.33 -4.20917 -0.201729 0
M  V30 1516 H 140.005 -3.14811 -0.753364 0
M  V30 1517 H 138.912 -3.40493 1.54968 0
M  V30 1518 H 140.245 -4.48796 2.02097 0
M  V30 1519 N 141.898 -0.863906 -1.31812 0
M  V30 1520 C 142.831 -0.259963 -2.26714 0
M  V30 1521 C 143.809 0.607392 -1.50829 0
M  V30 1522 O 144.993 0.562155 -1.79922 0
M  V30 1523 C 142.12 0.632456 -3.32743 0
M  V30 1524 C 141.166 -0.162743 -4.26189 0
M  V30 1525 S 141.999 -1.53726 -5.12961 0
M  V30 1526 C 143.155 -0.650803 -6.22507 0
M  V30 1527 H 143.388 -1.06445 -2.77591 0
M  V30 1528 H 140.921 -0.662071 -1.39485 0
M  V30 1529 H 142.879 1.14167 -3.94305 0
M  V30 1530 H 141.54 1.41083 -2.80632 0
M  V30 1531 H 140.733 0.517366 -5.01338 0
M  V30 1532 H 140.335 -0.60385 -3.69093 0
M  V30 1533 H 142.627 0.141134 -6.77353 0
M  V30 1534 H 143.57 -1.37322 -6.94657 0
M  V30 1535 H 143.978 -0.221041 -5.64067 0
M  V30 1536 N 143.376 1.44774 -0.622745 0
M  V30 1537 C 144.308 2.28856 0.125485 0
M  V30 1538 C 145.321 1.40811 0.817069 0
M  V30 1539 O 146.51 1.65044 0.679918 0
M  V30 1540 C 143.61 3.16963 1.19949 0
M  V30 1541 C 142.783 4.33374 0.592064 0
M  V30 1542 C 141.842 5.02577 1.55893 0
M  V30 1543 O 140.868 5.58873 1.07933 0
M  V30 1544 N 142.07 5.03256 2.89334 0
M  V30 1545 H 144.835 2.93713 -0.596068 0
M  V30 1546 H 142.396 1.55129 -0.463303 0
M  V30 1547 H 144.388 3.60123 1.84644 0
M  V30 1548 H 142.958 2.53913 1.82337 0
M  V30 1549 H 142.178 3.93509 -0.233322 0
M  V30 1550 H 143.466 5.08527 0.166738 0
M  V30 1551 H 142.864 4.58836 3.30887 0
M  V30 1552 H 141.421 5.50232 3.49412 0
M  V30 1553 N 144.854 0.36279 1.53368 0
M  V30 1554 C 145.764 -0.492994 2.29362 0
M  V30 1555 C 146.78 -1.09507 1.35219 0
M  V30 1556 O 147.956 -1.10662 1.68273 0
M  V30 1557 C 145.021 -1.61855 3.066 0
M  V30 1558 C 144.082 -1.04429 4.16405 0
M  V30 1559 C 143.315 -2.11621 4.89951 0
M  V30 1560 O 143.538 -3.32684 4.63333 0
M  V30 1561 O 142.472 -1.74835 5.75948 0
M  V30 1562 H 146.298 0.125331 3.03441 0
M  V30 1563 H 143.883 0.127253 1.48857 0
M  V30 1564 H 145.765 -2.27302 3.54841 0
M  V30 1565 H 144.44 -2.22233 2.3536 0
M  V30 1566 H 143.347 -0.353819 3.72423 0
M  V30 1567 H 144.68 -0.485113 4.89804 0
M  V30 1568 N 146.332 -1.57332 0.0918853 0
M  V30 1569 C 147.264 -2.10869 -0.898168 0
M  V30 1570 C 148.277 -1.04521 -1.24817 0
M  V30 1571 O 149.466 -1.31977 -1.20184 0
M  V30 1572 C 146.566 -2.57083 -2.2082 0
M  V30 1573 C 145.739 -3.87229 -2.03402 0
M  V30 1574 C 144.798 -4.19324 -3.17889 0
M  V30 1575 O 143.824 -4.88598 -2.91994 0
M  V30 1576 N 145.026 -3.74471 -4.43567 0
M  V30 1577 H 147.791 -2.96439 -0.440943 0
M  V30 1578 H 145.352 -1.61631 -0.0933064 0
M  V30 1579 H 147.344 -2.75602 -2.96354 0
M  V30 1580 H 145.914 -1.76541 -2.57977 0
M  V30 1581 H 145.134 -3.7789 -1.12218 0
M  V30 1582 H 146.422 -4.72379 -1.89038 0
M  V30 1583 H 145.82 -3.18546 -4.67488 0
M  V30 1584 H 144.377 -3.98151 -5.16061 0
M  V30 1585 N 147.81 0.181792 -1.56548 0
M  V30 1586 C 148.74 1.22765 -1.98623 0
M  V30 1587 C 149.721 1.46747 -0.860189 0
M  V30 1588 O 150.906 1.58259 -1.12551 0
M  V30 1589 C 148.036 2.56894 -2.33715 0
M  V30 1590 C 146.99 2.475 -3.49182 0
M  V30 1591 C 146.316 3.86023 -3.69986 0
M  V30 1592 C 147.616 1.98866 -4.82959 0
M  V30 1593 H 149.31 0.877942 -2.86239 0
M  V30 1594 H 146.856 0.42088 -1.37712 0
M  V30 1595 H 148.809 3.30253 -2.61746 0
M  V30 1596 H 147.533 2.93632 -1.42997 0
M  V30 1597 H 146.192 1.76596 -3.21262 0
M  V30 1598 H 145.84 4.20136 -2.76576 0
M  V30 1599 H 145.54 3.80609 -4.47672 0
M  V30 1600 H 147.064 4.60984 -4.00407 0
M  V30 1601 H 148.478 2.61992 -5.09934 0
M  V30 1602 H 146.875 2.04424 -5.64208 0
M  V30 1603 H 147.945 0.942465 -4.75653 0
M  V30 1604 N 149.288 1.51039 0.449983 0
M  V30 1605 C 150.22 1.67617 1.56324 0
M  V30 1606 C 151.233 0.557083 1.52972 0
M  V30 1607 O 152.422 0.830989 1.57977 0
M  V30 1608 C 149.522 1.66402 2.95235 0
M  V30 1609 C 148.695 2.9469 3.23229 0
M  V30 1610 C 147.754 2.85832 4.41799 0
M  V30 1611 O 146.78 3.59785 4.41071 0
M  V30 1612 N 147.982 2.00821 5.44657 0
M  V30 1613 H 150.747 2.63648 1.42512 0
M  V30 1614 H 148.308 1.48767 0.638737 0
M  V30 1615 H 150.3 1.58062 3.72557 0
M  V30 1616 H 148.87 0.780182 3.02708 0
M  V30 1617 H 148.09 3.16996 2.34323 0
M  V30 1618 H 149.378 3.79636 3.38754 0
M  V30 1619 H 148.776 1.40091 5.48079 0
M  V30 1620 H 147.333 1.98368 6.20881 0
M  V30 1621 N 150.766 -0.704594 1.40972 0
M  V30 1622 C 151.713 -1.81862 1.42109 0
M  V30 1623 C 152.683 -1.63781 0.276593 0
M  V30 1624 O 153.868 -1.84759 0.4763 0
M  V30 1625 C 151.008 -3.19669 1.30022 0
M  V30 1626 C 150.121 -3.49246 2.54267 0
M  V30 1627 C 149.256 -4.76618 2.3454 0
M  V30 1628 C 148.295 -4.99133 3.54306 0
M  V30 1629 N 147.432 -6.17726 3.33706 0
M  V30 1630 H 152.272 -1.80226 2.37324 0
M  V30 1631 H 149.809 -0.880238 1.17857 0
M  V30 1632 H 151.767 -3.99263 1.21018 0
M  V30 1633 H 150.397 -3.20506 0.384192 0
M  V30 1634 H 149.449 -2.64125 2.73756 0
M  V30 1635 H 150.761 -3.61788 3.43381 0
M  V30 1636 H 149.915 -5.64249 2.22952 0
M  V30 1637 H 148.654 -4.66305 1.42867 0
M  V30 1638 H 147.659 -4.09953 3.66359 0
M  V30 1639 H 148.884 -5.11311 4.4692 0
M  V30 1640 H 146.83 -6.08642 2.44725 0
M  V30 1641 H 146.747 -6.30995 4.16391 0
M  V30 1642 H 148.015 -7.08115 3.25873 0
M  V30 1643 N 152.244 -1.26651 -0.937939 0
M  V30 1644 C 153.174 -1.10993 -2.05433 0
M  V30 1645 C 154.155 -0.0142161 -1.70094 0
M  V30 1646 O 155.34 -0.186837 -1.93299 0
M  V30 1647 C 152.47 -0.745561 -3.39203 0
M  V30 1648 C 151.424 -1.79337 -3.88616 0
M  V30 1649 C 150.75 -1.28324 -5.19073 0
M  V30 1650 C 152.05 -3.19553 -4.13138 0
M  V30 1651 H 153.744 -2.0438 -2.1879 0
M  V30 1652 H 151.29 -0.984041 -1.05131 0
M  V30 1653 H 153.243 -0.622888 -4.16771 0
M  V30 1654 H 151.967 0.22401 -3.25831 0
M  V30 1655 H 150.626 -1.90477 -3.13231 0
M  V30 1656 H 150.274 -0.303414 -5.02084 0
M  V30 1657 H 149.974 -1.98369 -5.53103 0
M  V30 1658 H 151.498 -1.1733 -5.99221 0
M  V30 1659 H 152.912 -3.11471 -4.81309 0
M  V30 1660 H 151.309 -3.87218 -4.58457 0
M  V30 1661 H 152.379 -3.65368 -3.18801 0
M  V30 1662 N 153.722 1.14298 -1.08507 0
M  V30 1663 C 154.632 2.23027 -0.727753 0
M  V30 1664 C 155.648 1.71952 0.26619 0
M  V30 1665 O 156.824 2.011 0.109882 0
M  V30 1666 C 153.889 3.46403 -0.143541 0
M  V30 1667 C 152.95 4.12413 -1.19223 0
M  V30 1668 C 152.183 5.29899 -0.635798 0
M  V30 1669 O 152.406 5.67796 0.544393 0
M  V30 1670 O 151.34 5.85717 -1.38634 0
M  V30 1671 H 155.166 2.55945 -1.63481 0
M  V30 1672 H 152.751 1.22248 -0.858817 0
M  V30 1673 H 154.633 4.21018 0.179404 0
M  V30 1674 H 153.308 3.15206 0.736659 0
M  V30 1675 H 152.215 3.39667 -1.56772 0
M  V30 1676 H 153.548 4.47718 -2.04474 0
M  V30 1677 N 155.201 0.870884 1.31352 0
M  V30 1678 C 156.447 0.482987 1.96965 0
M  V30 1679 C 156.78 -0.962462 1.68672 0
M  V30 1680 O 156.055 -1.6779 0.98371 0
M  V30 1681 C 156.338 0.741752 3.52378 0
M  V30 1682 C 156.191 2.2368 3.9024 0
M  V30 1683 C 157.51 0.208838 4.39604 0
M  V30 1684 H 154.629 0.176955 0.715441 0
M  V30 1685 H 157.271 1.09229 1.55464 0
M  V30 1686 H 155.421 0.223149 3.87859 0
M  V30 1687 H 157.093 2.82273 3.64856 0
M  V30 1688 H 155.336 2.70901 3.38814 0
M  V30 1689 H 156.007 2.3685 4.98604 0
M  V30 1690 H 158.483 0.652529 4.10952 0
M  V30 1691 H 157.359 0.419336 5.47296 0
M  V30 1692 H 157.62 -0.889275 4.33064 0
M  V30 1693 N 156.679 -1.44442 0.630414 0
M  V30 1694 C 157.589 -2.34476 -0.0761693 0
M  V30 1695 C 158.605 -1.52576 -0.836449 0
M  V30 1696 O 159.781 -1.85307 -0.788874 0
M  V30 1697 C 156.846 -3.30545 -1.04599 0
M  V30 1698 C 155.907 -4.28352 -0.28516 0
M  V30 1699 C 155.14 -5.19831 -1.20878 0
M  V30 1700 O 155.363 -5.15223 -2.44747 0
M  V30 1701 O 154.297 -5.97892 -0.693491 0
M  V30 1702 H 158.123 -2.96345 0.664324 0
M  V30 1703 H 155.708 -1.44203 0.39061 0
M  V30 1704 H 157.59 -3.89681 -1.60396 0
M  V30 1705 H 156.265 -2.7121 -1.76711 0
M  V30 1706 H 155.172 -3.72764 0.315837 0
M  V30 1707 H 156.505 -4.90605 0.395924 0
M  V30 1708 N 158.157 -0.370918 -1.53173 0
M  V30 1709 C 159.087 0.464847 -2.28826 0
M  V30 1710 C 160.068 1.07936 -1.31468 0
M  V30 1711 O 161.253 1.0956 -1.60344 0
M  V30 1712 C 158.383 1.60196 -3.08147 0
M  V30 1713 C 157.337 1.11443 -4.13237 0
M  V30 1714 C 156.663 2.3422 -4.80672 0
M  V30 1715 C 157.963 0.195384 -5.21934 0
M  V30 1716 H 159.657 -0.166329 -2.98938 0
M  V30 1717 H 157.203 -0.0814359 -1.4377 0
M  V30 1718 H 159.156 2.19332 -3.59822 0
M  V30 1719 H 157.88 2.26045 -2.35735 0
M  V30 1720 H 156.539 0.545727 -3.62515 0
M  V30 1721 H 156.187 2.98537 -4.04827 0
M  V30 1722 H 155.887 2.02269 -5.51689 0
M  V30 1723 H 157.411 2.94032 -5.35143 0
M  V30 1724 H 158.825 0.694375 -5.69079 0
M  V30 1725 H 157.222 -0.0335027 -6.00091 0
M  V30 1726 H 158.292 -0.760961 -4.78892 0
M  V30 1727 N 159.635 1.57281 -0.100228 0
M  V30 1728 C 161.051 1.57527 0.256416 0
M  V30 1729 C 161.251 1.11173 1.68056 0
M  V30 1730 O 160.307 0.79053 2.39806 0
M  V30 1731 C 161.62 3.00673 0.0401747 0
M  V30 1732 C 163.168 3.12815 0.107528 0
M  V30 1733 C 163.643 4.57929 -0.0807834 0
M  V30 1734 N 165.134 4.63193 -0.0261207 0
M  V30 1735 C 165.869 5.73212 -0.146999 0
M  V30 1736 N 165.365 6.92047 -0.322999 0
M  V30 1737 N 167.158 5.62031 -0.0879044 0
M  V30 1738 H 159.309 1.85718 -1.03065 0
M  V30 1739 H 161.572 0.857446 -0.404339 0
M  V30 1740 H 161.278 3.38804 -0.943649 0
M  V30 1741 H 161.152 3.69042 0.780262 0
M  V30 1742 H 163.539 2.74554 1.08186 0
M  V30 1743 H 163.62 2.47028 -0.664134 0
M  V30 1744 H 163.264 4.96886 -1.05201 0
M  V30 1745 H 163.194 5.21783 0.710635 0
M  V30 1746 H 165.685 3.77748 0.107161 0
M  V30 1747 H 165.998 7.7173 -0.406608 0
M  V30 1748 H 164.343 6.94074 -0.358733 0
M  V30 1749 H 167.534 4.68075 0.048498 0
M  V30 1750 H 167.707 6.47734 -0.185557 0
M  V30 1751 N 161.113 -0.173488 1.56642 0
M  V30 1752 C 162.023 -1.23482 1.99473 0
M  V30 1753 C 163.039 -1.48567 0.905752 0
M  V30 1754 O 164.215 -1.60758 1.21321 0
M  V30 1755 C 161.28 -2.55444 2.34413 0
M  V30 1756 C 160.341 -2.38241 3.57127 0
M  V30 1757 C 159.574 -3.63909 3.90392 0
M  V30 1758 O 159.797 -4.68996 3.24653 0
M  V30 1759 O 158.731 -3.58149 4.83749 0
M  V30 1760 H 162.557 -0.901279 2.90018 0
M  V30 1761 H 160.142 -0.380185 1.44482 0
M  V30 1762 H 162.024 -3.33292 2.57865 0
M  V30 1763 H 160.699 -2.88382 1.4703 0
M  V30 1764 H 159.606 -1.58431 3.38896 0
M  V30 1765 H 160.939 -2.10228 4.45045 0
M  V30 1766 N 162.591 -1.51276 -0.441967 0
M  V30 1767 C 163.837 -1.63958 -1.19355 0
M  V30 1768 C 164.17 -0.352543 -1.90973 0
M  V30 1769 O 163.445 0.647627 -1.83401 0
M  V30 1770 C 163.728 -2.83979 -2.21422 0
M  V30 1771 C 163.581 -4.22646 -1.53918 0
M  V30 1772 C 164.9 -2.99521 -3.22451 0
M  V30 1773 H 162.019 -0.596709 -0.432559 0
M  V30 1774 H 164.661 -1.83748 -0.483398 0
M  V30 1775 H 162.811 -2.67237 -2.81987 0
M  V30 1776 H 164.483 -4.51045 -0.967256 0
M  V30 1777 H 162.726 -4.25558 -0.841615 0
M  V30 1778 H 163.397 -5.02609 -2.28229 0
M  V30 1779 H 165.873 -3.14944 -2.71937 0
M  V30 1780 H 164.749 -3.85072 -3.91166 0
M  V30 1781 H 165.01 -2.11391 -3.88287 0
M  V30 1782 N 164.069 0.697108 -1.41344 0
M  V30 1783 C 165.297 1.48593 -1.43972 0
M  V30 1784 C 165.712 1.88747 -0.0445612 0
M  V30 1785 O 165.069 1.56682 0.935785 0
M  V30 1786 C 165.12 2.74946 -2.34706 0
M  V30 1787 O 164.841 2.36484 -3.68791 0
M  V30 1788 C 166.342 3.687 -2.46121 0
M  V30 1789 H 163.562 0.457964 -0.490418 0
M  V30 1790 H 166.106 0.858429 -1.8561 0
M  V30 1791 H 164.261 3.33937 -1.9638 0
M  V30 1792 H 164.675 3.17918 -4.17167 0
M  V30 1793 H 166.149 4.54145 -3.13777 0
M  V30 1794 H 166.626 4.13081 -1.49199 0
M  V30 1795 H 167.232 3.15613 -2.85076 0
M  V30 1796 N 165.547 1.27147 0.931209 0
M  V30 1797 C 166.494 1.09568 2.03134 0
M  V30 1798 C 167.464 -0.00222433 1.661 0
M  V30 1799 O 168.649 0.159439 1.90133 0
M  V30 1800 C 165.789 0.745231 3.36957 0
M  V30 1801 C 164.902 1.92041 3.86968 0
M  V30 1802 C 164.037 1.51216 5.09222 0
M  V30 1803 C 163.076 2.65504 5.5152 0
M  V30 1804 N 162.213 2.25291 6.64972 0
M  V30 1805 H 167.053 2.03708 2.17502 0
M  V30 1806 H 164.59 1.01411 1.06556 0
M  V30 1807 H 166.548 0.522878 4.1391 0
M  V30 1808 H 165.178 -0.159202 3.22407 0
M  V30 1809 H 164.23 2.25541 3.06326 0
M  V30 1810 H 165.542 2.77787 4.1429 0
M  V30 1811 H 164.696 1.25084 5.93666 0
M  V30 1812 H 163.435 0.625749 4.83669 0
M  V30 1813 H 162.44 2.92354 4.65628 0
M  V30 1814 H 163.665 3.54761 5.7907 0
M  V30 1815 H 161.611 1.39098 6.41083 0
M  V30 1816 H 161.528 3.04577 6.91931 0
M  V30 1817 H 162.796 2.02398 7.52765 0
M  V30 1818 N 167.025 -1.13721 1.09112 0
M  V30 1819 C 167.973 -2.21103 0.722219 0
M  V30 1820 C 168.967 -1.67147 -0.275374 0
M  V30 1821 O 170.173 -1.79477 -0.137176 0
M  V30 1822 H 166.548 -0.720445 0.215553 0
M  V30 1823 H 168.519 -2.49483 1.63709 0
M  V30 1824 C 167.268 -3.47352 0.15543 0
M  V30 1825 H 166.591 -3.89206 0.914246 0
M  V30 1826 H 168.031 -4.2395 -0.0647967 0
M  V30 1827 C 166.49 -3.1814 -1.10852 0
M  V30 1828 O 167.02 -3.36604 -2.19227 0
M  V30 1829 N 165.226 -2.72045 -1.02176 0
M  V30 1830 H 164.773 -2.57221 -0.139764 0
M  V30 1831 H 164.731 -2.52875 -1.8682 0
M  V30 1832 N 168.503 -0.877838 -1.30888 0
M  V30 1833 C 169.45 -0.337538 -2.28318 0
M  V30 1834 C 170.42 0.568346 -1.56074 0
M  V30 1835 O 171.605 0.498298 -1.84178 0
M  V30 1836 C 168.745 0.448142 -3.42178 0
M  V30 1837 C 167.858 -0.48615 -4.29256 0
M  V30 1838 C 166.993 0.314427 -5.30269 0
M  V30 1839 C 166.032 -0.615791 -6.08995 0
M  V30 1840 N 165.169 0.14902 -7.01942 0
M  V30 1841 H 170.009 -1.17356 -2.73919 0
M  V30 1842 H 167.546 -0.590094 -1.34745 0
M  V30 1843 H 169.504 0.919517 -4.06941 0
M  V30 1844 H 168.134 1.24879 -2.97666 0
M  V30 1845 H 167.186 -1.076 -3.64865 0
M  V30 1846 H 168.498 -1.19909 -4.84173 0
M  V30 1847 H 167.652 0.847969 -6.00745 0
M  V30 1848 H 166.391 1.06062 -4.76027 0
M  V30 1849 H 165.396 -1.16102 -5.37401 0
M  V30 1850 H 166.621 -1.36097 -6.65323 0
M  V30 1851 H 164.567 0.877884 -6.50099 0
M  V30 1852 H 164.484 -0.504433 -7.54315 0
M  V30 1853 H 165.752 0.663537 -7.76671 0
M  V30 1854 N 169.982 1.44106 -0.638065 0
M  V30 1855 C 170.892 2.34513 0.0637334 0
M  V30 1856 C 171.908 1.53018 0.828346 0
M  V30 1857 O 173.084 1.85723 0.779036 0
M  V30 1858 C 170.149 3.31095 1.02844 0
M  V30 1859 C 169.21 4.28497 0.26244 0
M  V30 1860 C 168.443 5.20465 1.1812 0
M  V30 1861 O 168.666 5.16514 2.42011 0
M  V30 1862 O 167.6 5.98251 0.661774 0
M  V30 1863 H 171.426 2.95989 -0.68003 0
M  V30 1864 H 169.011 1.43994 -0.398252 0
M  V30 1865 H 170.893 3.90526 1.58327 0
M  V30 1866 H 169.568 2.72144 1.7527 0
M  V30 1867 H 168.475 3.72592 -0.335602 0
M  V30 1868 H 169.808 4.90388 -0.421936 0
M  V30 1869 N 171.46 0.379036 1.52974 0
M  V30 1870 C 172.407 -0.461048 2.26148 0
M  V30 1871 C 173.377 -1.06637 1.27349 0
M  V30 1872 O 174.562 -1.09633 1.56157 0
M  V30 1873 C 171.702 -1.58782 3.06402 0
M  V30 1874 C 170.815 -1.00636 4.20115 0
M  V30 1875 C 169.95 -2.10334 4.87784 0
M  V30 1876 C 168.989 -1.49724 5.93506 0
M  V30 1877 N 168.126 -2.5331 6.54812 0
M  V30 1878 H 172.966 0.169429 2.97518 0
M  V30 1879 H 170.503 0.0953806 1.4679 0
M  V30 1880 H 172.461 -2.25174 3.51215 0
M  V30 1881 H 171.091 -2.18876 2.37261 0
M  V30 1882 H 170.143 -0.232332 3.7969 0
M  V30 1883 H 171.455 -0.523343 4.96047 0
M  V30 1884 H 170.609 -2.84519 5.35849 0
M  V30 1885 H 169.348 -2.61992 4.11353 0
M  V30 1886 H 168.353 -0.740598 5.44789 0
M  V30 1887 H 169.578 -0.988732 6.71864 0
M  V30 1888 H 167.524 -3.04156 5.81227 0
M  V30 1889 H 167.441 -2.09734 7.26325 0
M  V30 1890 H 168.709 -3.27155 7.07524 0
M  V30 1891 N 172.938 -1.57226 0.108567 0
M  V30 1892 C 173.868 -2.17778 -0.84232 0
M  V30 1893 C 174.849 -1.11487 -1.2847 0
M  V30 1894 O 176.034 -1.39681 -1.34918 0
M  V30 1895 C 173.164 -2.76888 -2.09644 0
M  V30 1896 C 172.118 -3.88669 -1.79221 0
M  V30 1897 C 171.444 -4.34541 -3.11574 0
M  V30 1898 C 172.744 -5.11251 -1.06864 0
M  V30 1899 H 174.438 -2.97489 -0.337774 0
M  V30 1900 H 171.984 -1.43097 -0.161025 0
M  V30 1901 H 173.937 -3.17904 -2.76614 0
M  V30 1902 H 172.661 -1.94451 -2.62405 0
M  V30 1903 H 171.32 -3.48213 -1.14644 0
M  V30 1904 H 170.968 -3.48977 -3.62249 0
M  V30 1905 H 170.668 -5.09914 -2.91996 0
M  V30 1906 H 172.192 -4.782 -3.7968 0
M  V30 1907 H 173.606 -5.49352 -1.63968 0
M  V30 1908 H 172.003 -5.9214 -0.974178 0
M  V30 1909 H 173.073 -4.8487 -0.0536168 0
M  V30 1910 N 174.416 0.165178 -1.56732 0
M  V30 1911 C 175.832 0.517174 -1.50988 0
M  V30 1912 C 176.032 1.84331 -0.813894 0
M  V30 1913 O 175.088 2.49672 -0.37682 0
M  V30 1914 C 176.401 0.544261 -2.95733 0
M  V30 1915 C 177.949 0.631039 -3.06573 0
M  V30 1916 C 178.424 0.68896 -4.52788 0
M  V30 1917 N 179.915 0.751683 -4.5706 0
M  V30 1918 C 180.65 0.817177 -5.67547 0
M  V30 1919 N 180.146 0.843129 -6.8765 0
M  V30 1920 N 181.939 0.856668 -5.55534 0
M  V30 1921 H 174.09 -0.704318 -2.00382 0
M  V30 1922 H 176.353 -0.254687 -0.913148 0
M  V30 1923 H 176.059 -0.361607 -3.49836 0
M  V30 1924 H 175.933 1.3886 -3.5071 0
M  V30 1925 H 178.32 1.52733 -2.52501 0
M  V30 1926 H 178.401 -0.240095 -2.54671 0
M  V30 1927 H 178.045 -0.2031 -5.07494 0
M  V30 1928 H 177.975 1.57633 -5.02454 0
M  V30 1929 H 180.466 0.739661 -3.70591 0
M  V30 1930 H 180.779 0.894448 -7.67606 0
M  V30 1931 H 179.124 0.811304 -6.90248 0
M  V30 1932 H 182.315 0.833437 -4.60621 0
M  V30 1933 H 182.488 0.904247 -6.4166 0
M  V30 1934 N 175.894 1.51508 0.433938 0
M  V30 1935 C 176.841 1.73068 1.52696 0
M  V30 1936 C 177.811 0.572441 1.55924 0
M  V30 1937 O 178.996 0.807253 1.72882 0
M  V30 1938 C 176.136 1.86474 2.90381 0
M  V30 1939 C 175.249 3.14037 2.96656 0
M  V30 1940 C 174.384 3.18019 4.25485 0
M  V30 1941 C 173.423 4.39882 4.2564 0
M  V30 1942 N 172.56 4.41394 5.45999 0
M  V30 1943 H 177.4 2.66366 1.33615 0
M  V30 1944 H 174.937 1.32008 0.649018 0
M  V30 1945 H 176.895 1.92229 3.70275 0
M  V30 1946 H 175.525 0.965809 3.08013 0
M  V30 1947 H 174.577 3.17575 2.09404 0
M  V30 1948 H 175.889 4.0394 2.92633 0
M  V30 1949 H 175.043 3.22708 5.13755 0
M  V30 1950 H 173.782 2.2601 4.3217 0
M  V30 1951 H 172.787 4.35366 3.35763 0
M  V30 1952 H 174.012 5.33159 4.20617 0
M  V30 1953 H 171.958 3.52258 5.53399 0
M  V30 1954 H 171.875 5.25111 5.4387 0
M  V30 1955 H 173.143 4.50281 6.36292 0
M  V30 1956 N 177.372 -0.689602 1.41712 0
M  V30 1957 C 178.32 -1.82475 1.44242 0
M  V30 1958 C 179.314 -1.66354 0.319774 0
M  V30 1959 O 180.52 -1.73143 0.492089 0
M  V30 1960 H 176.895 -0.601416 0.451445 0
M  V30 1961 H 178.866 -1.77458 2.39899 0
M  V30 1962 C 177.615 -3.20535 1.3473 0
M  V30 1963 H 176.938 -3.33559 2.20405 0
M  V30 1964 H 178.378 -4.00023 1.40562 0
M  V30 1965 C 176.837 -3.36846 0.0603281 0
M  V30 1966 O 177.367 -3.91656 -0.892663 0
M  V30 1967 N 175.573 -2.90595 -0.0177039 0
M  V30 1968 H 175.12 -2.46178 0.758572 0
M  V30 1969 H 175.078 -3.01886 -0.878201 0
M  V30 1970 N 178.85 -1.27639 -0.924453 0
M  V30 1971 C 179.78 -1.13166 -2.04244 0
M  V30 1972 C 180.761 -0.032256 -1.70069 0
M  V30 1973 O 181.946 -0.207328 -1.9309 0
M  V30 1974 C 179.076 -0.781496 -3.38393 0
M  V30 1975 C 178.03 -1.83449 -3.86692 0
M  V30 1976 C 177.356 -1.33822 -5.17683 0
M  V30 1977 C 178.656 -3.23917 -4.09726 0
M  V30 1978 H 180.35 -2.06689 -2.1661 0
M  V30 1979 H 177.896 -0.995136 -1.04082 0
M  V30 1980 H 179.849 -0.667057 -4.16087 0
M  V30 1981 H 178.573 0.189439 -3.2605 0
M  V30 1982 H 177.232 -1.93789 -3.11193 0
M  V30 1983 H 176.88 -0.35665 -5.01734 0
M  V30 1984 H 176.58 -2.04224 -5.50968 0
M  V30 1985 H 178.104 -1.23679 -5.97943 0
M  V30 1986 H 179.518 -3.16559 -4.77978 0
M  V30 1987 H 177.915 -3.92059 -4.54324 0
M  V30 1988 H 178.985 -3.68729 -3.14908 0
M  V30 1989 N 180.328 1.1314 -1.09713 0
M  V30 1990 C 181.258 2.20748 -0.761102 0
M  V30 1991 C 182.239 1.68061 0.262566 0
M  V30 1992 O 183.424 1.93765 0.129977 0
M  V30 1993 C 180.554 3.46812 -0.184054 0
M  V30 1994 C 179.508 4.12606 -1.13757 0
M  V30 1995 C 178.834 5.33031 -0.422083 0
M  V30 1996 C 180.134 4.59603 -2.48118 0
M  V30 1997 H 181.828 2.49113 -1.66082 0
M  V30 1998 H 179.374 1.19734 -0.799987 0
M  V30 1999 H 181.327 4.21353 0.0631215 0
M  V30 2000 H 180.051 3.17851 0.750868 0
M  V30 2001 H 178.71 3.40036 -1.37007 0
M  V30 2002 H 178.358 5.00335 0.517072 0
M  V30 2003 H 178.058 5.77999 -1.05788 0
M  V30 2004 H 179.582 6.10325 -0.183277 0
M  V30 2005 H 180.996 5.25552 -2.29059 0
M  V30 2006 H 179.393 5.15321 -3.07514 0
M  V30 2007 H 180.463 3.73971 -3.08665 0
M  V30 2008 N 181.806 0.884767 1.30421 0
M  V30 2009 C 182.716 0.355398 2.31892 0
M  V30 2010 C 183.732 -0.542261 1.65335 0
M  V30 2011 O 184.908 -0.435432 1.96637 0
M  V30 2012 C 181.973 -0.421661 3.44126 0
M  V30 2013 C 181.034 0.505727 4.26311 0
M  V30 2014 C 180.267 -0.234343 5.33185 0
M  V30 2015 O 180.49 -1.46045 5.51386 0
M  V30 2016 O 179.424 0.415443 6.00465 0
M  V30 2017 H 183.25 1.19685 2.79122 0
M  V30 2018 H 180.835 0.648596 1.34587 0
M  V30 2019 H 182.717 -0.861641 4.12497 0
M  V30 2020 H 181.392 -1.23942 2.99032 0
M  V30 2021 H 180.299 0.994513 3.60639 0
M  V30 2022 H 181.632 1.28948 4.75009 0
M  V30 2023 N 183.284 -1.43765 0.645699 0
M  V30 2024 C 184.214 -2.33471 -0.0370477 0
M  V30 2025 C 185.195 -1.49042 -0.819779 0
M  V30 2026 O 186.38 -1.77726 -0.782758 0
M  V30 2027 C 183.51 -3.32311 -1.0093 0
M  V30 2028 C 182.464 -4.2667 -0.337201 0
M  V30 2029 C 181.79 -5.1549 -1.42037 0
M  V30 2030 C 183.09 -5.16657 0.765706 0
M  V30 2031 H 184.784 -2.90809 0.712069 0
M  V30 2032 H 182.33 -1.39834 0.343876 0
M  V30 2033 H 184.283 -3.9396 -1.49578 0
M  V30 2034 H 183.007 -2.73213 -1.78948 0
M  V30 2035 H 181.666 -3.66374 0.128771 0
M  V30 2036 H 181.314 -4.52735 -2.1918 0
M  V30 2037 H 181.014 -5.79438 -0.975966 0
M  V30 2038 H 182.538 -5.80012 -1.90838 0
M  V30 2039 H 183.952 -5.72158 0.361702 0
M  V30 2040 H 182.349 -5.89286 1.13413 0
M  V30 2041 H 183.419 -4.56796 1.62683 0
M  V30 2042 N 184.763 -0.387143 -1.52771 0
M  V30 2043 C 186.012 0.19697 -2.00736 0
M  V30 2044 C 186.325 1.48082 -1.27793 0
M  V30 2045 O 187.531 2.14485 -1.66458 0
M  V30 2046 C 185.987 0.401568 -3.57653 0
M  V30 2047 C 185.595 -0.868907 -4.39493 0
M  V30 2048 C 187.339 0.942164 -4.13912 0
M  V30 2049 C 185.246 -0.632705 -5.88006 0
M  V30 2050 H 184.176 0.0773827 -0.750019 0
M  V30 2051 H 186.827 -0.50921 -1.76293 0
M  V30 2052 H 185.209 1.16954 -3.78335 0
M  V30 2053 H 186.383 -1.64133 -4.30577 0
M  V30 2054 H 184.698 -1.33429 -3.94443 0
M  V30 2055 H 187.295 1.13455 -5.22525 0
M  V30 2056 H 187.638 1.9106 -3.69867 0
M  V30 2057 H 188.171 0.233814 -3.97112 0
M  V30 2058 H 184.91 -1.57208 -6.36369 0
M  V30 2059 H 184.43 0.100825 -5.99715 0
M  V30 2060 H 186.109 -0.26642 -6.46451 0
M  V30 2061 N 186.241 1.57166 -0.116904 0
M  V30 2062 C 187.151 2.18745 0.847812 0
M  V30 2063 C 188.167 1.163 1.29423 0
M  V30 2064 O 189.343 1.48761 1.35765 0
M  V30 2065 C 186.408 2.77307 2.0809 0
M  V30 2066 C 185.469 3.94781 1.68661 0
M  V30 2067 C 184.702 4.50541 2.86091 0
M  V30 2068 O 184.925 4.05202 4.01456 0
M  V30 2069 O 183.859 5.41256 2.63298 0
M  V30 2070 H 187.685 3.01632 0.353778 0
M  V30 2071 H 185.27 1.49005 0.108599 0
M  V30 2072 H 187.152 3.14647 2.80313 0
M  V30 2073 H 185.827 1.97452 2.56504 0
M  V30 2074 H 184.734 3.62214 0.935518 0
M  V30 2075 H 186.067 4.76065 1.24991 0
M  V30 2076 N 187.719 -0.156864 1.56817 0
M  V30 2077 C 188.949 -0.885031 1.86684 0
M  V30 2078 C 189.357 -1.75696 0.701954 0
M  V30 2079 O 188.7 -1.80569 -0.337732 0
M  V30 2080 C 188.762 -1.80092 3.11138 0
M  V30 2081 C 188.426 -1.10714 4.43386 0
M  V30 2082 C 189.423 -0.465714 5.1781 0
M  V30 2083 C 187.108 -1.09959 4.90117 0
M  V30 2084 C 189.102 0.174002 6.37162 0
M  V30 2085 C 186.789 -0.456055 6.09396 0
M  V30 2086 C 187.787 0.179622 6.82764 0
M  V30 2087 O 187.475 0.812975 7.99779 0
M  V30 2088 H 187.207 -0.261813 0.623242 0
M  V30 2089 H 189.761 -0.157383 2.04796 0
M  V30 2090 H 187.991 -2.56926 2.89009 0
M  V30 2091 H 189.68 -2.40018 3.27332 0
M  V30 2092 H 190.446 -0.463427 4.82781 0
M  V30 2093 H 186.325 -1.58378 4.3294 0
M  V30 2094 H 189.869 0.670765 6.94368 0
M  V30 2095 H 185.766 -0.455975 6.43888 0
M  V30 2096 H 186.534 0.71366 8.15383 0
M  V30 2097 N 189.197 -1.51736 -0.425897 0
M  V30 2098 C 190.425 -1.68794 -1.1965 0
M  V30 2099 C 190.84 -0.390164 -1.84725 0
M  V30 2100 O 190.197 0.632376 -1.71194 0
M  V30 2101 C 190.248 -2.81174 -2.27208 0
M  V30 2102 O 189.969 -4.05925 -1.64793 0
M  V30 2103 C 191.47 -3.09599 -3.17275 0
M  V30 2104 H 188.69 -0.566128 -0.360194 0
M  V30 2105 H 191.234 -1.98211 -0.503249 0
M  V30 2106 H 189.389 -2.54324 -2.9223 0
M  V30 2107 H 189.803 -4.68423 -2.35967 0
M  V30 2108 H 191.277 -3.91786 -3.88854 0
M  V30 2109 H 191.754 -2.22468 -3.78688 0
M  V30 2110 H 192.36 -3.38151 -2.57941 0
M  V30 2111 N 190.675 0.682077 -1.42076 0
M  V30 2112 C 191.625 1.78823 -1.41444 0
M  V30 2113 C 192.609 1.58323 -0.28681 0
M  V30 2114 O 193.801 1.68926 -0.528498 0
M  V30 2115 C 190.93 3.17232 -1.3122 0
M  V30 2116 C 190.016 3.4338 -2.489 0
M  V30 2117 N 190.407 3.40152 -3.7434 0
M  V30 2118 C 188.705 3.73986 -2.43003 0
M  V30 2119 C 189.406 3.65581 -4.52466 0
M  V30 2120 N 188.382 3.85989 -3.8277 0
M  V30 2121 H 192.184 1.7471 -2.36334 0
M  V30 2122 H 189.698 0.882622 -1.36321 0
M  V30 2123 H 191.695 3.96489 -1.2885 0
M  V30 2124 H 190.355 3.22547 -0.373263 0
M  V30 2125 H 191.366 3.20221 -4.07037 0
M  V30 2126 H 188.043 3.86591 -1.57651 0
M  V30 2127 H 189.433 3.69108 -5.61435 0
M  V30 2128 N 192.153 1.28127 0.917671 0
M  V30 2129 C 193.086 1.06039 2.02067 0
M  V30 2130 C 194.064 -0.0223285 1.62585 0
M  V30 2131 O 195.248 0.124823 1.88086 0
M  V30 2132 C 192.375 0.610596 3.33151 0
M  V30 2133 C 191.421 1.68937 3.91615 0
M  V30 2134 S 192.254 3.28437 4.22953 0
M  V30 2135 C 193.41 2.85283 5.57103 0
M  V30 2136 H 193.643 1.99425 2.20493 0
M  V30 2137 H 191.176 1.12071 1.06205 0
M  V30 2138 H 193.134 0.357778 4.08938 0
M  V30 2139 H 191.795 -0.303364 3.12632 0
M  V30 2140 H 190.988 1.32619 4.86239 0
M  V30 2141 H 190.59 1.89478 3.2245 0
M  V30 2142 H 192.882 2.3121 6.36827 0
M  V30 2143 H 193.825 3.7869 5.98331 0
M  V30 2144 H 194.233 2.24118 5.18104 0
M  V30 2145 N 193.631 -1.12557 1.10312 0
M  V30 2146 C 194.561 -2.20341 0.772798 0
M  V30 2147 C 195.542 -1.68198 -0.25365 0
M  V30 2148 O 196.727 -1.93831 -0.119699 0
M  V30 2149 C 193.857 -3.46709 0.202443 0
M  V30 2150 C 192.811 -4.11996 1.15943 0
M  V30 2151 C 192.137 -5.328 0.450345 0
M  V30 2152 C 193.437 -4.5828 2.50552 0
M  V30 2153 H 195.131 -2.48229 1.674 0
M  V30 2154 H 192.677 -1.19308 0.806326 0
M  V30 2155 H 194.63 -4.2138 -0.0407752 0
M  V30 2156 H 193.354 -3.18245 -0.734001 0
M  V30 2157 H 192.013 -3.39305 1.38808 0
M  V30 2158 H 191.661 -5.00602 -0.490531 0
M  V30 2159 H 191.361 -5.7743 1.08851 0
M  V30 2160 H 192.885 -6.10219 0.215642 0
M  V30 2161 H 194.299 -5.2433 2.31843 0
M  V30 2162 H 192.696 -5.13683 3.10242 0
M  V30 2163 H 193.766 -3.72329 3.10643 0
M  V30 2164 N 195.109 -0.891671 -1.2995 0
M  V30 2165 C 196.525 -0.58662 -1.48428 0
M  V30 2166 C 196.725 0.873951 -1.81561 0
M  V30 2167 O 195.781 1.65471 -1.90724 0
M  V30 2168 C 197.094 -1.50553 -2.60296 0
M  V30 2169 C 198.642 -1.50988 -2.74175 0
M  V30 2170 C 199.117 -2.41488 -3.89163 0
M  V30 2171 N 200.608 -2.39489 -3.96483 0
M  V30 2172 C 201.343 -3.06223 -4.84784 0
M  V30 2173 N 200.839 -3.82206 -5.77833 0
M  V30 2174 N 202.632 -2.95421 -4.78208 0
M  V30 2175 H 194.783 -1.83644 -1.06718 0
M  V30 2176 H 197.046 -0.786455 -0.529332 0
M  V30 2177 H 196.752 -2.54581 -2.42654 0
M  V30 2178 H 196.626 -1.22008 -3.56923 0
M  V30 2179 H 199.013 -0.47708 -2.91218 0
M  V30 2180 H 199.094 -1.83567 -1.78148 0
M  V30 2181 H 198.738 -3.44857 -3.72876 0
M  V30 2182 H 198.668 -2.06222 -4.84541 0
M  V30 2183 H 201.159 -1.84278 -3.29924 0
M  V30 2184 H 201.472 -4.302 -6.41988 0
M  V30 2185 H 199.817 -3.86313 -5.77743 0
M  V30 2186 H 203.008 -2.35581 -4.04499 0
M  V30 2187 H 203.181 -3.47704 -5.46814 0
M  V30 2188 N 196.587 1.43421 -0.653314 0
M  V30 2189 C 197.833 2.02111 -0.166992 0
M  V30 2190 C 198.166 1.51423 1.21592 0
M  V30 2191 O 197.441 0.707389 1.8118 0
M  V30 2192 C 197.724 3.5966 -0.177948 0
M  V30 2193 C 197.577 4.20579 -1.59478 0
M  V30 2194 C 198.896 4.37413 0.4856 0
M  V30 2195 H 196.015 0.734374 -0.0621557 0
M  V30 2196 H 198.657 1.70717 -0.834016 0
M  V30 2197 H 196.807 3.86537 0.390032 0
M  V30 2198 H 198.479 4.04732 -2.21336 0
M  V30 2199 H 196.722 3.77226 -2.14204 0
M  V30 2200 H 197.393 5.29665 -1.5543 0
M  V30 2201 H 199.869 4.161 0.00234528 0
M  V30 2202 H 198.745 5.47075 0.447207 0
M  V30 2203 H 199.006 4.13672 1.55974 0
M  V30 2204 N 198.065 0.39524 1.52563 0
M  V30 2205 C 199.293 -0.184943 2.06072 0
M  V30 2206 C 199.708 -1.40021 1.26647 0
M  V30 2207 O 199.065 -1.79767 0.314672 0
M  V30 2208 C 199.116 -0.549179 3.57304 0
M  V30 2209 O 198.837 0.617813 4.33722 0
M  V30 2210 C 200.338 -1.18459 4.2718 0
M  V30 2211 H 197.558 -0.0265025 0.670476 0
M  V30 2212 H 200.102 0.562184 1.96621 0
M  V30 2213 H 198.257 -1.2462 3.66809 0
M  V30 2214 H 198.671 0.317091 5.23541 0
M  V30 2215 H 200.145 -1.38976 5.34219 0
M  V30 2216 H 200.622 -2.15368 3.82771 0
M  V30 2217 H 201.228 -0.528163 4.22008 0
M  V30 2218 N 199.544 -1.57102 0.125237 0
M  V30 2219 C 200.491 -2.15641 -0.822655 0
M  V30 2220 C 201.461 -1.08313 -1.25927 0
M  V30 2221 O 202.646 -1.36251 -1.33567 0
M  V30 2222 C 199.786 -2.76504 -2.06494 0
M  V30 2223 C 198.899 -3.98158 -1.67612 0
M  V30 2224 C 198.034 -4.47088 -2.86854 0
M  V30 2225 C 197.073 -5.6126 -2.44242 0
M  V30 2226 N 196.21 -6.04905 -3.56419 0
M  V30 2227 H 201.05 -2.96313 -0.316625 0
M  V30 2228 H 198.587 -1.46388 -0.144588 0
M  V30 2229 H 200.545 -3.09925 -2.79289 0
M  V30 2230 H 199.175 -1.98512 -2.54545 0
M  V30 2231 H 198.227 -3.70858 -0.846661 0
M  V30 2232 H 199.539 -4.80934 -1.32301 0
M  V30 2233 H 198.693 -4.82451 -3.67867 0
M  V30 2234 H 197.432 -3.63275 -3.25396 0
M  V30 2235 H 196.437 -5.25495 -1.61663 0
M  V30 2236 H 197.662 -6.46843 -2.0681 0
M  V30 2237 H 195.608 -5.24032 -3.94623 0
M  V30 2238 H 195.525 -6.82552 -3.25051 0
M  V30 2239 H 196.793 -6.44907 -4.37853 0
M  V30 2240 N 201.022 0.148545 -1.56898 0
M  V30 2241 C 202.25 0.876389 -1.87422 0
M  V30 2242 C 202.665 1.74809 -0.713256 0
M  V30 2243 O 202.022 1.79725 0.317025 0
M  V30 2244 C 202.073 1.73438 -3.17178 0
M  V30 2245 O 201.794 0.897809 -4.28802 0
M  V30 2246 C 203.295 2.56993 -3.61205 0
M  V30 2247 H 200.515 0.253489 -0.621277 0
M  V30 2248 H 203.059 0.141798 -2.04008 0
M  V30 2249 H 201.214 2.42205 -3.0235 0
M  V30 2250 H 201.628 1.48672 -5.02988 0
M  V30 2251 H 203.102 3.12773 -4.54838 0
M  V30 2252 H 203.579 3.32958 -2.86419 0
M  V30 2253 H 204.185 1.9352 -3.78722 0
M  V30 2254 N 202.5 1.5196 0.417844 0
M  V30 2255 C 203.747 1.65591 1.16559 0
M  V30 2256 C 204.075 0.381565 1.90721 0
M  V30 2257 O 203.33 -0.635156 1.85106 0
M  V30 2258 C 203.629 2.82269 2.19223 0
M  V30 2259 C 203.295 4.20819 1.61933 0
M  V30 2260 C 201.957 4.58506 1.46033 0
M  V30 2261 C 204.309 5.07196 1.20008 0
M  V30 2262 C 201.637 5.80257 0.867113 0
M  V30 2263 C 203.989 6.29544 0.621086 0
M  V30 2264 C 202.653 6.65987 0.449144 0
M  V30 2265 H 201.923 0.605939 0.42652 0
M  V30 2266 H 204.57 1.86041 0.45397 0
M  V30 2267 H 202.875 2.56118 2.96498 0
M  V30 2268 H 204.572 2.90012 2.76936 0
M  V30 2269 H 201.162 3.91116 1.7529 0
M  V30 2270 H 205.346 4.7867 1.31105 0
M  V30 2271 H 200.602 6.07124 0.721833 0
M  V30 2272 H 204.776 6.95805 0.287798 0
M  V30 2273 H 202.403 7.60199 -0.012632 0
M  V30 2274 N 203.978 -0.674533 1.42435 0
M  V30 2275 C 205.224 -1.43671 1.43131 0
M  V30 2276 C 205.557 -1.94142 0.0476021 0
M  V30 2277 O 204.832 -1.70924 -0.928188 0
M  V30 2278 C 205.115 -2.63355 2.45594 0
M  V30 2279 C 204.968 -2.18514 3.93156 0
M  V30 2280 C 206.287 -3.65571 2.45043 0
M  V30 2281 H 203.406 -0.521077 0.521198 0
M  V30 2282 H 206.048 -0.766551 1.7385 0
M  V30 2283 H 204.198 -3.2053 2.19528 0
M  V30 2284 H 205.87 -1.66504 4.30202 0
M  V30 2285 H 204.113 -1.50086 4.07009 0
M  V30 2286 H 204.784 -3.04484 4.60428 0
M  V30 2287 H 207.26 -3.18113 2.68223 0
M  V30 2288 H 206.136 -4.46893 3.18713 0
M  V30 2289 H 206.397 -4.16716 1.47649 0
M  V30 2290 N 205.456 -1.28612 -0.910864 0
M  V30 2291 C 206.403 -1.12786 -2.01365 0
M  V30 2292 C 207.373 -0.024201 -1.66082 0
M  V30 2293 O 208.558 -0.189667 -1.89855 0
M  V30 2294 C 205.698 -0.798743 -3.35729 0
M  V30 2295 C 204.811 -1.98173 -3.83864 0
M  V30 2296 C 203.946 -1.59298 -5.06752 0
M  V30 2297 C 202.985 -2.74245 -5.47226 0
M  V30 2298 N 202.122 -2.35842 -6.61304 0
M  V30 2299 H 206.962 -2.07142 -2.14234 0
M  V30 2300 H 204.499 -1.03093 -1.0493 0
M  V30 2301 H 206.457 -0.588662 -4.13026 0
M  V30 2302 H 205.087 0.10789 -3.2262 0
M  V30 2303 H 204.139 -2.30386 -3.02699 0
M  V30 2304 H 205.451 -2.84343 -4.09818 0
M  V30 2305 H 204.605 -1.34513 -5.916 0
M  V30 2306 H 203.344 -0.702618 -4.82612 0
M  V30 2307 H 202.349 -2.99725 -4.60918 0
M  V30 2308 H 203.574 -3.63928 -5.73353 0
M  V30 2309 H 201.52 -1.49279 -6.38789 0
M  V30 2310 H 201.437 -3.15546 -6.86998 0
M  V30 2311 H 202.705 -2.14348 -7.4945 0
M  V30 2312 N 206.934 1.1197 -1.10907 0
M  V30 2313 C 208.35 1.35591 -0.841852 0
M  V30 2314 C 208.55 1.94233 0.536246 0
M  V30 2315 O 207.606 2.1717 1.28816 0
M  V30 2316 C 208.919 2.29284 -1.94549 0
M  V30 2317 C 210.467 2.42862 -1.97451 0
M  V30 2318 C 210.942 3.39873 -3.07002 0
M  V30 2319 N 212.433 3.47433 -3.06341 0
M  V30 2320 C 213.168 4.22421 -3.87748 0
M  V30 2321 N 212.664 5.00432 -4.79103 0
M  V30 2322 N 214.457 4.17876 -3.75946 0
M  V30 2323 H 206.608 0.722664 -1.99728 0
M  V30 2324 H 208.871 0.380635 -0.868229 0
M  V30 2325 H 208.577 1.93378 -2.93765 0
M  V30 2326 H 208.451 3.29452 -1.83688 0
M  V30 2327 H 210.838 2.78046 -0.988645 0
M  V30 2328 H 210.919 1.42566 -2.12388 0
M  V30 2329 H 210.563 3.05417 -4.05811 0
M  V30 2330 H 210.493 4.40011 -2.89306 0
M  V30 2331 H 212.984 2.91784 -2.40147 0
M  V30 2332 H 213.297 5.55002 -5.37766 0
M  V30 2333 H 211.642 4.99612 -4.83128 0
M  V30 2334 H 214.833 3.56016 -3.03924 0
M  V30 2335 H 215.006 4.76061 -4.39624 0
M  V30 2336 N 208.412 0.89855 1.29475 0
M  V30 2337 C 209.36 0.365253 2.29714 0
M  V30 2338 C 210.354 -0.534993 1.6073 0
M  V30 2339 O 211.56 -0.417921 1.75081 0
M  V30 2340 H 207.935 0.0994853 0.74539 0
M  V30 2341 H 209.906 1.22406 2.72138 0
M  V30 2342 C 208.655 -0.393159 3.4547 0
M  V30 2343 H 207.978 0.290332 3.98744 0
M  V30 2344 H 209.418 -0.731189 4.17648 0
M  V30 2345 C 207.877 -1.59539 2.9673 0
M  V30 2346 O 208.407 -2.69469 2.97908 0
M  V30 2347 N 206.613 -1.43716 2.52575 0
M  V30 2348 H 206.16 -0.542828 2.51816 0
M  V30 2349 H 206.118 -2.24288 2.20323 0
M  V30 2350 N 209.89 -1.43072 0.660911 0
M  V30 2351 C 211.136 -2.0202 0.177708 0
M  V30 2352 C 211.469 -1.52066 -1.20787 0
M  V30 2353 O 210.744 -0.716987 -1.80802 0
M  V30 2354 C 211.027 -3.59561 0.197019 0
M  V30 2355 C 210.88 -4.19727 1.61706 0
M  V30 2356 C 212.199 -4.37664 -0.462396 0
M  V30 2357 H 209.318 -0.734034 0.0660494 0
M  V30 2358 H 211.96 -1.70272 0.843058 0
M  V30 2359 H 210.11 -3.86739 -0.369527 0
M  V30 2360 H 211.782 -4.03553 2.23479 0
M  V30 2361 H 210.025 -3.76084 2.16201 0
M  V30 2362 H 210.696 -5.28834 1.58237 0
M  V30 2363 H 213.172 -4.16095 0.0197215 0
M  V30 2364 H 212.048 -5.47305 -0.418188 0
M  V30 2365 H 212.309 -4.14493 -1.53778 0
M  V30 2366 N 211.368 -0.403325 -1.52352 0
M  V30 2367 C 212.278 0.432009 -2.30588 0
M  V30 2368 C 213.294 1.05884 -1.38075 0
M  V30 2369 O 214.47 1.06161 -1.71148 0
M  V30 2370 C 211.535 1.53669 -3.10784 0
M  V30 2371 C 210.596 0.933525 -4.19027 0
M  V30 2372 C 209.829 1.98557 -4.9539 0
M  V30 2373 O 210.052 3.20283 -4.71991 0
M  V30 2374 O 208.986 1.59504 -5.80381 0
M  V30 2375 H 212.812 -0.205739 -3.03002 0
M  V30 2376 H 210.397 -0.166675 -1.48467 0
M  V30 2377 H 212.279 2.17814 -3.60742 0
M  V30 2378 H 210.954 2.15915 -2.41169 0
M  V30 2379 H 209.861 0.254954 -3.7323 0
M  V30 2380 H 211.194 0.35508 -4.90918 0
M  V30 2381 N 212.846 1.57033 -0.133567 0
M  V30 2382 C 214.093 1.95686 0.520877 0
M  V30 2383 C 214.421 1.0177 1.6575 0
M  V30 2384 O 213.676 0.0443195 1.9565 0
M  V30 2385 C 213.975 3.40674 1.08057 0
M  V30 2386 C 213.641 4.50855 0.0637899 0
M  V30 2387 C 212.303 4.80716 -0.215757 0
M  V30 2388 C 214.655 5.17398 -0.62835 0
M  V30 2389 C 211.983 5.74433 -1.19348 0
M  V30 2390 C 214.335 6.12167 -1.5948 0
M  V30 2391 C 212.999 6.40414 -1.88218 0
M  V30 2392 H 212.269 0.716067 0.190602 0
M  V30 2393 H 214.916 1.9026 -0.217556 0
M  V30 2394 H 213.221 3.42865 1.89606 0
M  V30 2395 H 214.918 3.67902 1.59529 0
M  V30 2396 H 211.508 4.27605 0.291855 0
M  V30 2397 H 215.692 4.94472 -0.425562 0
M  V30 2398 H 210.948 5.94616 -1.42272 0
M  V30 2399 H 215.122 6.6281 -2.13671 0
M  V30 2400 H 212.749 7.12838 -2.64133 0
M  V30 2401 N 214.325 -0.140222 1.56975 0
M  V30 2402 C 215.235 -1.19223 2.02047 0
M  V30 2403 C 216.251 -1.46612 0.937062 0
M  V30 2404 O 217.427 -1.58148 1.24704 0
M  V30 2405 C 214.492 -2.50414 2.39778 0
M  V30 2406 C 213.553 -2.30612 3.621 0
M  V30 2407 C 212.786 -3.55547 3.98023 0
M  V30 2408 O 213.009 -4.62004 3.34528 0
M  V30 2409 O 211.943 -3.47808 4.91237 0
M  V30 2410 H 215.769 -0.839559 2.91865 0
M  V30 2411 H 213.354 -0.349453 1.45256 0
M  V30 2412 H 215.236 -3.27747 2.64877 0
M  V30 2413 H 213.911 -2.85198 1.53114 0
M  V30 2414 H 212.818 -1.51207 3.4218 0
M  V30 2415 H 214.151 -2.00741 4.49404 0
M  V30 2416 N 215.803 -1.52179 -0.40978 0
M  V30 2417 C 217.214 -1.58377 -0.988615 0
M  V30 2418 C 217.565 -0.423879 -1.91566 0
M  V30 2419 O 216.69 0.455844 -2.11544 0
M  V30 2420 C 217.285 -2.87044 -1.79976 0
M  V30 2421 C 215.844 -2.95722 -2.32863 0
M  V30 2422 C 214.991 -2.53309 -1.12828 0
M  V30 2423 H 217.942 -1.57558 -0.190039 0
M  V30 2424 H 217.963 -2.7236 -2.65707 0
M  V30 2425 H 217.475 -3.71444 -1.12478 0
M  V30 2426 H 215.576 -2.15814 -3.03735 0
M  V30 2427 H 215.689 -3.99951 -2.63773 0
M  V30 2428 H 214.053 -2.07142 -1.48204 0
M  V30 2429 H 214.836 -3.40082 -0.46897 0
M  V30 2430 N 217.281 0.66697 -1.42791 0
M  V30 2431 C 218.509 1.45505 -1.47091 0
M  V30 2432 C 218.924 1.8861 -0.0845873 0
M  V30 2433 O 218.281 1.58632 0.90234 0
M  V30 2434 C 218.332 2.69906 -2.40485 0
M  V30 2435 O 218.053 2.28608 -3.73725 0
M  V30 2436 C 219.554 3.63396 -2.53886 0
M  V30 2437 H 216.774 0.447459 -0.500022 0
M  V30 2438 H 219.318 0.818866 -1.8739 0
M  V30 2439 H 217.473 3.29696 -2.03419 0
M  V30 2440 H 217.887 3.08997 -4.23817 0
M  V30 2441 H 219.361 4.47387 -3.2334 0
M  V30 2442 H 219.838 4.09824 -1.57927 0
M  V30 2443 H 220.444 3.09495 -2.91706 0
M  V30 2444 N 218.759 1.29093 0.90403 0
M  V30 2445 C 219.989 1.19516 1.68522 0
M  V30 2446 C 220.397 -0.24738 1.87576 0
M  V30 2447 O 219.74 -1.17798 1.40959 0
M  V30 2448 C 219.802 1.83249 3.0929 0
M  V30 2449 C 219.466 3.32531 3.13484 0
M  V30 2450 C 220.463 4.28821 2.93953 0
M  V30 2451 C 218.148 3.73656 3.35688 0
M  V30 2452 C 220.142 5.64212 2.96553 0
M  V30 2453 C 217.829 5.0917 3.37919 0
M  V30 2454 C 218.827 6.04258 3.18373 0
M  V30 2455 O 218.515 7.37298 3.20385 0
M  V30 2456 H 218.247 0.415467 0.533257 0
M  V30 2457 H 220.801 1.70912 1.13922 0
M  V30 2458 H 219.031 1.26358 3.65473 0
M  V30 2459 H 220.72 1.68054 3.69476 0
M  V30 2460 H 221.486 3.98382 2.76616 0
M  V30 2461 H 217.365 3.00101 3.49943 0
M  V30 2462 H 220.909 6.38407 2.81216 0
M  V30 2463 H 216.806 5.39256 3.54787 0
M  V30 2464 H 217.574 7.46048 3.36681 0
M  V30 2465 N 220.237 -1.11381 1.11499 0
M  V30 2466 C 221.147 -2.21019 0.786628 0
M  V30 2467 C 222.163 -1.72597 -0.220507 0
M  V30 2468 O 223.339 -2.01321 -0.0565251 0
M  V30 2469 C 220.404 -3.459 0.235333 0
M  V30 2470 C 219.465 -4.09107 1.30115 0
M  V30 2471 C 218.698 -5.28027 0.776068 0
M  V30 2472 O 218.921 -5.6904 -0.393661 0
M  V30 2473 O 217.855 -5.81835 1.54114 0
M  V30 2474 H 221.681 -2.51521 1.70209 0
M  V30 2475 H 219.266 -1.19928 0.890928 0
M  V30 2476 H 221.148 -4.21346 -0.067715 0
M  V30 2477 H 219.823 -3.17049 -0.652828 0
M  V30 2478 H 218.73 -3.35391 1.65722 0
M  V30 2479 H 220.063 -4.42139 2.16273 0
M  V30 2480 N 221.715 -0.905404 -1.28997 0
M  V30 2481 C 222.625 -0.392246 -2.31298 0
M  V30 2482 C 223.641 0.515889 -1.66176 0
M  V30 2483 O 224.817 0.404093 -1.97304 0
M  V30 2484 C 221.882 0.36686 -3.44754 0
M  V30 2485 C 220.943 -0.573485 -4.25452 0
M  V30 2486 C 220.176 0.149488 -5.33491 0
M  V30 2487 O 220.399 1.37255 -5.5364 0
M  V30 2488 O 219.333 -0.510919 -5.99728 0
M  V30 2489 H 223.159 -1.2411 -2.77183 0
M  V30 2490 H 220.744 -0.669926 -1.33538 0
M  V30 2491 H 222.626 0.795907 -4.13816 0
M  V30 2492 H 221.301 1.19169 -3.00966 0
M  V30 2493 H 220.208 -1.05176 -3.59011 0
M  V30 2494 H 221.541 -1.36489 -4.72897 0
M  V30 2495 N 223.193 1.4272 -0.668489 0
M  V30 2496 C 224.44 2.01624 -0.18814 0
M  V30 2497 C 224.768 1.5282 1.20317 0
M  V30 2498 O 224.023 0.718323 1.8204 0
M  V30 2499 C 224.322 3.57021 -0.164499 0
M  V30 2500 C 223.988 4.25232 -1.49962 0
M  V30 2501 C 222.65 4.4358 -1.8652 0
M  V30 2502 C 225.002 4.63727 -2.37921 0
M  V30 2503 C 222.33 4.97694 -3.10674 0
M  V30 2504 C 224.682 5.19218 -3.6138 0
M  V30 2505 C 223.346 5.3578 -3.98115 0
M  V30 2506 H 222.616 0.737795 -0.0688454 0
M  V30 2507 H 225.263 1.70991 -0.862225 0
M  V30 2508 H 223.568 3.87285 0.593079 0
M  V30 2509 H 225.265 4.00372 0.224271 0
M  V30 2510 H 221.855 4.11306 -1.20522 0
M  V30 2511 H 226.039 4.4923 -2.10964 0
M  V30 2512 H 221.295 5.08702 -3.39164 0
M  V30 2513 H 225.469 5.4799 -4.29743 0
M  V30 2514 H 223.096 5.77475 -4.94395 0
M  V30 2515 N 224.671 0.411399 1.52136 0
M  V30 2516 C 226.082 -0.0576826 1.86611 0
M  V30 2517 C 226.433 -1.44238 1.33003 0
M  V30 2518 O 225.558 -2.05759 0.670228 0
M  V30 2519 C 226.153 -0.111448 3.38617 0
M  V30 2520 C 224.712 -0.52487 3.72723 0
M  V30 2521 C 223.859 0.299176 2.75681 0
M  V30 2522 H 226.81 0.628368 1.4573 0
M  V30 2523 H 226.831 -0.926252 3.69054 0
M  V30 2524 H 226.343 0.896488 3.77604 0
M  V30 2525 H 224.444 -1.53936 3.39315 0
M  V30 2526 H 224.557 -0.267681 4.78352 0
M  V30 2527 H 222.921 -0.238814 2.53578 0
M  V30 2528 H 223.704 1.3055 3.17508 0
M  V30 2529 N 226.149 -1.5696 0.141893 0
M  V30 2530 C 227.374 -2.00754 -0.520838 0
M  V30 2531 C 227.799 -1.0213 -1.57959 0
M  V30 2532 O 227.157 0.00371324 -1.813 0
M  V30 2533 C 227.205 -3.43318 -1.10294 0
M  V30 2534 O 226.309 -3.47679 -2.21795 0
M  V30 2535 H 225.65 -0.651564 -0.127908 0
M  V30 2536 H 228.18 -2.03221 0.23712 0
M  V30 2537 H 228.19 -3.82012 -1.43287 0
M  V30 2538 H 226.865 -4.14608 -0.327574 0
M  V30 2539 H 225.442 -3.20824 -1.9007 0
M  V30 2540 N 227.627 0.131896 -1.57047 0
M  V30 2541 C 228.557 1.16384 -2.02428 0
M  V30 2542 C 229.538 1.43936 -0.90644 0
M  V30 2543 O 230.723 1.54599 -1.17528 0
M  V30 2544 C 227.853 2.49328 -2.4177 0
M  V30 2545 C 226.807 2.36266 -3.56879 0
M  V30 2546 C 226.133 3.74057 -3.8208 0
M  V30 2547 C 227.433 1.834 -4.89042 0
M  V30 2548 H 229.127 0.786433 -2.88887 0
M  V30 2549 H 226.673 0.376855 -1.38981 0
M  V30 2550 H 228.626 3.21759 -2.7212 0
M  V30 2551 H 227.35 2.88934 -1.52266 0
M  V30 2552 H 226.009 1.66286 -3.26718 0
M  V30 2553 H 225.657 4.11125 -2.89803 0
M  V30 2554 H 225.357 3.66174 -4.59554 0
M  V30 2555 H 226.881 4.48012 -4.1487 0
M  V30 2556 H 228.295 2.45636 -5.18011 0
M  V30 2557 H 226.692 1.8637 -5.70426 0
M  V30 2558 H 227.762 0.790662 -4.7841 0
M  V30 2559 N 229.106 1.52395 0.401703 0
M  V30 2560 C 230.016 1.7917 1.51444 0
M  V30 2561 C 231.032 0.677691 1.6026 0
M  V30 2562 O 232.208 0.963909 1.76835 0
M  V30 2563 C 229.273 1.94347 2.87107 0
M  V30 2564 C 228.334 3.18257 2.88116 0
M  V30 2565 C 227.567 3.32701 4.17308 0
M  V30 2566 O 227.79 2.52238 5.11598 0
M  V30 2567 O 226.724 4.25891 4.25324 0
M  V30 2568 H 230.55 2.73633 1.31752 0
M  V30 2569 H 228.135 1.3733 0.588296 0
M  V30 2570 H 230.017 2.06109 3.67555 0
M  V30 2571 H 228.692 1.03073 3.06851 0
M  V30 2572 H 227.599 3.11947 2.06494 0
M  V30 2573 H 228.932 4.09336 2.73322 0
M  V30 2574 N 230.584 -0.659388 1.43143 0
M  V30 2575 C 231.809 -1.45221 1.48073 0
M  V30 2576 C 232.234 -1.87845 0.097995 0
M  V30 2577 O 231.592 -1.56985 -0.90694 0
M  V30 2578 C 231.64 -2.66748 2.42647 0
M  V30 2579 O 230.744 -3.65583 1.90848 0
M  V30 2580 H 230.085 -0.435669 0.501088 0
M  V30 2581 H 232.615 -0.807432 1.87994 0
M  V30 2582 H 232.625 -3.14637 2.59745 0
M  V30 2583 H 231.3 -2.35067 3.43098 0
M  V30 2584 H 229.877 -3.24693 1.83381 0
M  V30 2585 N 232.062 -1.29571 -0.897171 0
M  V30 2586 C 233.339 -1.08365 -1.62839 0
M  V30 2587 C 233.719 0.371331 -2.07808 0
M  V30 2588 O 233.067 1.3606 -1.83576 0
M  V30 2589 C 233.277 -2.0735 -2.80726 0
M  V30 2590 C 234.625 -2.38406 -3.51351 0
M  V30 2591 O 235.649 -2.05564 -2.90898 0
M  V30 2592 O 234.508 -2.9453 -4.60341 0
M  V30 2593 H 231.602 -0.415345 -0.715134 0
M  V30 2594 H 234.148 -1.40952 -0.945018 0
M  V30 2595 H 232.92 -3.05339 -2.44711 0
M  V30 2596 H 232.543 -1.75507 -3.56767 0
M  V30 2597 N 233.54 1.10788 -1.12088 0
M  V30 2598 C 234.765 1.87002 -0.896949 0
M  V30 2599 C 235.19 1.79933 0.548261 0
M  V30 2600 O 234.548 1.16662 1.38779 0
M  V30 2601 C 234.596 3.3349 -1.37174 0
M  V30 2602 O 233.7 4.08745 -0.547831 0
M  V30 2603 H 233.041 0.580397 -0.322545 0
M  V30 2604 H 235.571 1.39996 -1.49206 0
M  V30 2605 H 235.581 3.84339 -1.36922 0
M  V30 2606 H 234.256 3.37951 -2.42408 0
M  V30 2607 H 232.833 3.6776 -0.617034 0
M  V30 2608 N 235.018 0.912232 1.28515 0
M  V30 2609 C 235.948 0.416403 2.29757 0
M  V30 2610 C 236.929 -0.515194 1.6211 0
M  V30 2611 O 238.114 -0.423253 1.89532 0
M  V30 2612 C 235.244 -0.34572 3.45575 0
M  V30 2613 C 234.198 0.496599 4.25109 0
M  V30 2614 C 233.524 -0.393771 5.33248 0
M  V30 2615 C 234.824 1.75307 4.92001 0
M  V30 2616 H 236.518 1.26249 2.7148 0
M  V30 2617 H 234.064 0.608515 1.30511 0
M  V30 2618 H 236.017 -0.703422 4.15488 0
M  V30 2619 H 234.741 -1.2257 3.02728 0
M  V30 2620 H 233.4 0.8368 3.56922 0
M  V30 2621 H 233.048 -1.27225 4.86644 0
M  V30 2622 H 232.748 0.166209 5.87365 0
M  V30 2623 H 234.272 -0.747389 6.06009 0
M  V30 2624 H 235.686 1.46437 5.54283 0
M  V30 2625 H 234.083 2.25534 5.56106 0
M  V30 2626 H 235.153 2.48176 4.16577 0
M  V30 2627 N 236.496 -1.42363 0.676048 0
M  V30 2628 C 237.426 -2.33497 0.0124832 0
M  V30 2629 C 238.407 -1.50748 -0.787981 0
M  V30 2630 O 239.592 -1.79346 -0.744884 0
M  V30 2631 C 236.722 -3.34377 -0.938582 0
M  V30 2632 C 235.676 -4.27289 -0.246622 0
M  V30 2633 C 235.002 -5.18386 -1.31071 0
M  V30 2634 C 236.302 -5.14916 0.875125 0
M  V30 2635 H 237.996 -2.89233 0.773593 0
M  V30 2636 H 235.542 -1.39073 0.37346 0
M  V30 2637 H 237.495 -3.97044 -1.41188 0
M  V30 2638 H 236.219 -2.76947 -1.73113 0
M  V30 2639 H 234.878 -3.66018 0.206456 0
M  V30 2640 H 234.526 -4.57282 -2.09528 0
M  V30 2641 H 234.226 -5.81378 -0.852839 0
M  V30 2642 H 235.75 -5.83929 -1.78492 0
M  V30 2643 H 237.164 -5.71262 0.482983 0
M  V30 2644 H 235.561 -5.86747 1.25887 0
M  V30 2645 H 236.631 -4.53242 1.72335 0
M  V30 2646 N 237.974 -0.419461 -1.51915 0
M  V30 2647 C 239.251 0.211999 -1.94448 0
M  V30 2648 C 239.631 1.61703 -1.35703 0
M  V30 2649 O 238.979 2.22102 -0.536931 0
M  V30 2650 C 239.189 0.207872 -3.4838 0
M  V30 2651 C 240.537 0.422192 -4.22496 0
M  V30 2652 O 241.561 0.286778 -3.55044 0
M  V30 2653 O 240.42 0.690009 -5.42126 0
M  V30 2654 H 237.514 0.139586 -0.815135 0
M  V30 2655 H 240.06 -0.476151 -1.62883 0
M  V30 2656 H 238.832 -0.775102 -3.83546 0
M  V30 2657 H 238.455 0.939688 -3.86336 0
M  V30 2658 N 239.452 1.56882 -0.150215 0
M  V30 2659 C 240.682 2.00302 0.506213 0
M  V30 2660 C 241.09 1.02934 1.58749 0
M  V30 2661 O 240.433 0.0188384 1.8369 0
M  V30 2662 C 240.495 3.40156 1.16337 0
M  V30 2663 C 240.159 4.56439 0.226311 0
M  V30 2664 C 241.156 5.17012 -0.547265 0
M  V30 2665 C 238.841 5.02136 0.128279 0
M  V30 2666 C 240.835 6.21693 -1.40629 0
M  V30 2667 C 238.522 6.06672 -0.734345 0
M  V30 2668 C 239.52 6.6632 -1.50023 0
M  V30 2669 O 239.208 7.68831 -2.34848 0
M  V30 2670 H 238.94 0.662182 0.135984 0
M  V30 2671 H 241.494 2.03961 -0.242746 0
M  V30 2672 H 239.724 3.33346 1.96004 0
M  V30 2673 H 241.413 3.67663 1.71985 0
M  V30 2674 H 242.179 4.82603 -0.48158 0
M  V30 2675 H 238.058 4.55435 0.714157 0
M  V30 2676 H 241.602 6.68179 -2.00455 0
M  V30 2677 H 237.499 6.40507 -0.801309 0
M  V30 2678 H 238.267 7.86065 -2.28131 0
M  V30 2679 N 240.93 -0.123565 1.57115 0
M  V30 2680 C 242.155 -0.850398 1.89164 0
M  V30 2681 C 242.58 -1.7286 0.741688 0
M  V30 2682 O 241.938 -1.78665 -0.307958 0
M  V30 2683 C 241.986 -1.66353 3.19936 0
M  V30 2684 O 241.09 -2.77004 3.0552 0
M  V30 2685 H 240.431 -0.235454 0.620852 0
M  V30 2686 H 242.961 -0.107335 2.04318 0
M  V30 2687 H 242.971 -2.05372 3.52543 0
M  V30 2688 H 241.646 -1.01881 4.03228 0
M  V30 2689 H 240.223 -2.41221 2.84371 0
M  V30 2690 N 242.408 -1.52605 -0.393616 0
M  V30 2691 C 243.648 -1.6911 -1.1481 0
M  V30 2692 C 244.012 -0.41969 -1.87357 0
M  V30 2693 O 245.213 -0.461034 -2.64817 0
M  V30 2694 C 243.484 -2.88909 -2.10395 0
M  V30 2695 S 245.043 -3.25977 -2.93742 0
M  V30 2696 H 241.861 -0.595337 -0.38871 0
M  V30 2697 H 244.463 -1.90641 -0.433178 0
M  V30 2698 H 243.167 -3.79672 -1.55812 0
M  V30 2699 H 242.698 -2.69698 -2.86403 0
M  V30 2700 H 244.713 -2.75806 -4.12487 0
M  V30 2701 N 243.887 0.651787 -1.4349 0
M  V30 2702 C 244.82 1.77668 -1.43211 0
M  V30 2703 C 245.798 1.59931 -0.29338 0
M  V30 2704 O 246.982 1.82095 -0.487191 0
M  V30 2705 C 244.109 3.14986 -1.24505 0
M  V30 2706 C 243.155 3.51421 -2.41673 0
M  V30 2707 S 243.988 3.51234 -4.04222 0
M  V30 2708 C 245.144 4.91206 -3.87902 0
M  V30 2709 H 245.377 1.77635 -2.38397 0
M  V30 2710 H 242.91 0.824558 -1.30539 0
M  V30 2711 H 244.868 3.94237 -1.144 0
M  V30 2712 H 243.529 3.1258 -0.308651 0
M  V30 2713 H 242.722 4.51291 -2.24393 0
M  V30 2714 H 242.324 2.79585 -2.48411 0
M  V30 2715 H 244.616 5.79902 -3.50315 0
M  V30 2716 H 245.559 5.13537 -4.8753 0
M  V30 2717 H 245.967 4.64808 -3.20334 0
M  V30 2718 N 245.365 1.30045 0.890287 0
M  V30 2719 C 246.297 1.11786 2.00091 0
M  V30 2720 C 247.31 0.0626307 1.62679 0
M  V30 2721 O 248.499 0.308112 1.75821 0
M  V30 2722 C 245.599 0.681527 3.31977 0
M  V30 2723 C 244.772 1.81735 3.97858 0
M  V30 2724 C 243.831 1.37045 5.08041 0
M  V30 2725 O 242.857 2.07677 5.29961 0
M  V30 2726 N 244.059 0.246525 5.79976 0
M  V30 2727 H 246.824 2.07441 2.16306 0
M  V30 2728 H 244.385 1.2211 1.06305 0
M  V30 2729 H 246.377 0.365675 4.03045 0
M  V30 2730 H 244.947 -0.182828 3.12065 0
M  V30 2731 H 244.167 2.30159 3.20032 0
M  V30 2732 H 245.455 2.57865 4.38615 0
M  V30 2733 H 244.853 -0.34215 5.64664 0
M  V30 2734 H 243.41 -0.00990438 6.51799 0
M  V30 2735 N 246.843 -1.10192 1.12674 0
M  V30 2736 C 248.259 -1.34235 0.863317 0
M  V30 2737 C 248.459 -1.95062 -0.505277 0
M  V30 2738 O 247.515 -2.19192 -1.25345 0
M  V30 2739 C 248.828 -2.2616 1.98172 0
M  V30 2740 C 250.376 -2.3969 2.0129 0
M  V30 2741 C 250.851 -3.34946 3.1237 0
M  V30 2742 N 252.342 -3.42515 3.11829 0
M  V30 2743 C 253.077 -4.16199 3.94419 0
M  V30 2744 N 252.573 -4.92747 4.87004 0
M  V30 2745 N 254.366 -4.11843 3.82547 0
M  V30 2746 H 246.517 -0.690798 2.00853 0
M  V30 2747 H 248.78 -0.366774 0.874174 0
M  V30 2748 H 248.486 -1.8868 2.96804 0
M  V30 2749 H 248.36 -3.26488 1.88906 0
M  V30 2750 H 250.747 -2.76438 1.03276 0
M  V30 2751 H 250.828 -1.39169 2.14629 0
M  V30 2752 H 250.472 -2.98923 4.10619 0
M  V30 2753 H 250.402 -4.35353 2.96269 0
M  V30 2754 H 252.893 -2.87926 2.44759 0
M  V30 2755 H 253.206 -5.46376 5.46528 0
M  V30 2756 H 251.551 -4.91862 4.91016 0
M  V30 2757 H 254.742 -3.51136 3.0955 0
M  V30 2758 H 254.915 -4.69007 4.47142 0
M  V30 2759 N 248.321 -0.919034 -1.28029 0
M  V30 2760 C 249.251 -0.428581 -2.29533 0
M  V30 2761 C 250.232 0.50659 -1.62381 0
M  V30 2762 O 251.417 0.413195 -1.89753 0
M  V30 2763 C 248.547 0.327388 -3.45753 0
M  V30 2764 C 247.501 -0.519137 -4.2484 0
M  V30 2765 C 246.827 0.365486 -5.33449 0
M  V30 2766 C 248.127 -1.77914 -4.91064 0
M  V30 2767 H 249.821 -1.27687 -2.70807 0
M  V30 2768 H 247.367 -0.615428 -1.30186 0
M  V30 2769 H 249.32 0.681378 -4.15855 0
M  V30 2770 H 248.044 1.20963 -3.03374 0
M  V30 2771 H 246.703 -0.855717 -3.56473 0
M  V30 2772 H 246.351 1.24642 -4.87312 0
M  V30 2773 H 246.051 -0.197356 -5.87268 0
M  V30 2774 H 247.575 0.715241 -6.06396 0
M  V30 2775 H 248.989 -1.49374 -5.53498 0
M  V30 2776 H 247.386 -2.2848 -5.54903 0
M  V30 2777 H 248.456 -2.50382 -4.15255 0
M  V30 2778 N 249.799 1.42003 -0.683588 0
M  V30 2779 C 251.047 2.01015 -0.209101 0
M  V30 2780 C 251.368 1.54365 1.19149 0
M  V30 2781 O 250.638 0.769083 1.80172 0
M  V30 2782 H 249.218 0.743294 -0.074315 0
M  V30 2783 H 251.88 1.73798 -0.882066 0
M  V30 2784 H 250.976 3.11343 -0.2172 0
M  V30 2785 N 251.277 0.427512 1.51691 0
M  V30 2786 C 252.24 -0.377132 2.26076 0
M  V30 2787 C 253.24 -0.958089 1.29141 0
M  V30 2788 O 254.43 -0.83408 1.52934 0
M  V30 2789 C 251.562 -1.53262 3.04506 0
M  V30 2790 H 252.755 0.27464 2.9864 0
M  V30 2791 H 250.308 0.180445 1.55255 0
M  V30 2792 H 251.043 -2.22072 2.36335 0
M  V30 2793 H 250.828 -1.12232 3.75694 0
M  V30 2794 H 252.318 -2.10135 3.60878 0
M  V30 2795 N 252.755 -1.56801 0.158532 0
M  V30 2796 C 253.702 -2.17337 -0.776729 0
M  V30 2797 C 254.672 -1.1096 -1.23601 0
M  V30 2798 O 255.857 -1.39054 -1.30647 0
M  V30 2799 C 252.997 -2.80822 -2.00582 0
M  V30 2800 C 252.11 -4.01624 -1.59129 0
M  V30 2801 C 251.245 -4.53072 -2.77306 0
M  V30 2802 C 250.284 -5.66314 -2.32282 0
M  V30 2803 N 249.421 -6.12329 -3.43508 0
M  V30 2804 H 254.261 -2.96918 -0.253701 0
M  V30 2805 H 251.798 -1.46661 -0.113504 0
M  V30 2806 H 253.756 -3.15779 -2.72652 0
M  V30 2807 H 252.386 -2.03866 -2.50277 0
M  V30 2808 H 251.438 -3.72571 -0.767806 0
M  V30 2809 H 252.75 -4.83633 -1.2207 0
M  V30 2810 H 251.904 -4.90145 -3.57551 0
M  V30 2811 H 250.643 -3.70095 -3.17617 0
M  V30 2812 H 249.648 -5.28806 -1.5048 0
M  V30 2813 H 250.873 -6.51085 -1.93043 0
M  V30 2814 H 248.819 -5.32284 -3.83418 0
M  V30 2815 H 248.736 -6.89293 -3.105 0
M  V30 2816 H 250.004 -6.5405 -4.24075 0
M  V30 2817 N 254.233 0.115231 -1.57178 0
M  V30 2818 C 255.163 1.1423 -2.03651 0
M  V30 2819 C 256.144 1.42967 -0.921655 0
M  V30 2820 O 257.329 1.53343 -1.19162 0
M  V30 2821 C 254.459 2.4675 -2.44401 0
M  V30 2822 C 253.413 2.32467 -3.59365 0
M  V30 2823 C 252.739 3.69984 -3.86026 0
M  V30 2824 C 254.039 1.78203 -4.90959 0
M  V30 2825 H 255.733 0.755749 -2.89705 0
M  V30 2826 H 253.279 0.362093 -1.39373 0
M  V30 2827 H 255.232 3.18854 -2.75517 0
M  V30 2828 H 253.956 2.87302 -1.55322 0
M  V30 2829 H 252.615 1.62811 -3.28463 0
M  V30 2830 H 252.263 4.08028 -2.94147 0
M  V30 2831 H 251.963 3.61279 -4.63412 0
M  V30 2832 H 253.487 4.43587 -4.19599 0
M  V30 2833 H 254.901 2.40128 -5.20587 0
M  V30 2834 H 253.298 1.8031 -5.72371 0
M  V30 2835 H 254.368 0.739876 -4.79222 0
M  V30 2836 N 255.711 1.52812 0.385517 0
M  V30 2837 C 256.959 1.67694 1.12797 0
M  V30 2838 C 257.28 0.421115 1.90399 0
M  V30 2839 O 256.55 -0.564551 1.87589 0
M  V30 2840 H 255.13 0.618155 0.419396 0
M  V30 2841 H 257.792 1.89938 0.436972 0
M  V30 2842 H 256.888 2.52896 1.82894 0
M  V30 2843 N 257.189 -0.644168 1.43834 0
M  V30 2844 C 258.436 -1.40395 1.4593 0
M  V30 2845 C 258.764 -1.94305 0.0869658 0
M  V30 2846 O 258.019 -1.73288 -0.909378 0
M  V30 2847 C 258.318 -2.59615 2.45631 0
M  V30 2848 C 257.984 -2.2407 3.91284 0
M  V30 2849 C 256.646 -2.14089 4.30952 0
M  V30 2850 C 258.998 -1.95775 4.83034 0
M  V30 2851 C 256.326 -1.73981 5.6031 0
M  V30 2852 C 258.678 -1.57163 6.12766 0
M  V30 2853 C 257.342 -1.45713 6.51402 0
M  V30 2854 H 256.612 -0.513741 0.533995 0
M  V30 2855 H 259.259 -0.731724 1.76969 0
M  V30 2856 H 257.564 -3.32011 2.08028 0
M  V30 2857 H 259.261 -3.17834 2.44504 0
M  V30 2858 H 255.851 -2.32753 3.59895 0
M  V30 2859 H 260.035 -2.02403 4.53152 0
M  V30 2860 H 255.291 -1.63709 5.89075 0
M  V30 2861 H 259.465 -1.34303 6.83327 0
M  V30 2862 H 257.092 -1.14406 7.51542 0
M  V30 2863 N 258.668 -1.30515 -0.883378 0
M  V30 2864 C 259.914 -1.19607 -1.63774 0
M  V30 2865 C 260.247 0.248314 -1.92606 0
M  V30 2866 O 259.522 1.17742 -1.54813 0
M  V30 2867 C 259.805 -2.02669 -2.97653 0
M  V30 2868 C 259.658 -3.55335 -2.75784 0
M  V30 2869 C 260.977 -1.86573 -3.98596 0
M  V30 2870 H 258.096 -0.435856 -0.594305 0
M  V30 2871 H 260.738 -1.60165 -1.02212 0
M  V30 2872 H 258.888 -1.68208 -3.50197 0
M  V30 2873 H 260.56 -3.99863 -2.30016 0
M  V30 2874 H 258.803 -3.79438 -2.1026 0
M  V30 2875 H 259.474 -4.08745 -3.70988 0
M  V30 2876 H 261.95 -2.16703 -3.55217 0
M  V30 2877 H 260.826 -2.47014 -4.90179 0
M  V30 2878 H 261.087 -0.825321 -4.34328 0
M  V30 2879 N 260.146 1.09593 -1.13257 0
M  V30 2880 C 261.371 1.8604 -0.916732 0
M  V30 2881 C 261.796 1.80504 0.529146 0
M  V30 2882 O 261.154 1.18127 1.37534 0
M  V30 2883 C 261.202 3.32017 -1.40703 0
M  V30 2884 O 260.306 4.08141 -0.591153 0
M  V30 2885 H 259.647 0.576943 -0.328683 0
M  V30 2886 H 262.177 1.38405 -1.50682 0
M  V30 2887 H 262.187 3.82865 -1.4099 0
M  V30 2888 H 260.862 3.35361 -2.45979 0
M  V30 2889 H 259.439 3.67084 -0.656005 0
M  V30 2890 N 261.624 0.925811 1.2754 0
M  V30 2891 C 262.872 0.564138 1.94067 0
M  V30 2892 C 263.193 -0.897188 1.73134 0
M  V30 2893 O 262.463 -1.63573 1.07799 0
M  V30 2894 H 261.043 0.205645 0.718136 0
M  V30 2895 H 263.705 1.1778 1.55287 0
M  V30 2896 H 262.801 0.76881 3.02483 0
M  V30 2897 N 263.102 -1.41638 0.69111 0
M  V30 2898 C 264.032 -2.3347 0.037248 0
M  V30 2899 C 265.013 -1.51575 -0.771947 0
M  V30 2900 O 266.198 -1.80126 -0.72582 0
M  V30 2901 C 263.328 -3.35354 -0.903064 0
M  V30 2902 C 262.282 -4.27526 -0.201288 0
M  V30 2903 C 261.608 -5.19747 -1.25565 0
M  V30 2904 C 262.908 -5.13959 0.929689 0
M  V30 2905 H 264.602 -2.88397 0.804227 0
M  V30 2906 H 262.148 -1.38669 0.388189 0
M  V30 2907 H 264.101 -3.98519 -1.36969 0
M  V30 2908 H 262.825 -2.78767 -1.70166 0
M  V30 2909 H 261.484 -3.65779 0.245265 0
M  V30 2910 H 261.132 -4.59479 -2.04666 0
M  V30 2911 H 260.832 -5.8225 -0.791128 0
M  V30 2912 H 262.356 -5.85789 -1.72288 0
M  V30 2913 H 263.77 -5.70718 0.543546 0
M  V30 2914 H 262.167 -5.85379 1.32103 0
M  V30 2915 H 263.237 -4.51389 1.77133 0
M  V30 2916 N 264.58 -0.43555 -1.51462 0
M  V30 2917 C 265.829 0.133007 -2.01261 0
M  V30 2918 C 266.142 1.43942 -1.32439 0
M  V30 2919 O 267.348 2.09081 -1.73198 0
M  V30 2920 C 265.804 0.287581 -3.58749 0
M  V30 2921 C 265.412 -1.00829 -4.36506 0
M  V30 2922 C 267.156 0.810004 -4.167 0
M  V30 2923 C 265.063 -0.819454 -5.85695 0
M  V30 2924 H 263.993 0.0534822 -0.752101 0
M  V30 2925 H 266.644 -0.565038 -1.74584 0
M  V30 2926 H 265.026 1.04859 -3.81865 0
M  V30 2927 H 266.2 -1.77749 -4.25138 0
M  V30 2928 H 264.515 -1.45911 -3.89999 0
M  V30 2929 H 267.112 0.967743 -5.2587 0
M  V30 2930 H 267.455 1.79196 -3.75758 0
M  V30 2931 H 267.988 0.107357 -3.97655 0
M  V30 2932 H 264.727 -1.77374 -6.31046 0
M  V30 2933 H 264.247 -0.0900208 -5.99732 0
M  V30 2934 H 265.926 -0.471949 -6.45276 0
M  V30 2935 N 266.058 1.56714 -0.166846 0
M  V30 2936 C 267.006 2.19056 0.782123 0
M  V30 2937 C 268 1.15328 1.24079 0
M  V30 2938 O 269.206 1.33537 1.20697 0
M  V30 2939 H 265.581 0.70167 0.270486 0
M  V30 2940 H 267.552 2.97494 0.232322 0
M  V30 2941 C 266.301 2.84206 2.00306 0
M  V30 2942 H 265.624 3.63748 1.65914 0
M  V30 2943 H 267.064 3.31302 2.64604 0
M  V30 2944 C 265.523 1.83744 2.82382 0
M  V30 2945 O 266.053 1.32014 3.79388 0
M  V30 2946 N 264.259 1.52601 2.47308 0
M  V30 2947 H 263.806 1.9486 1.68485 0
M  V30 2948 H 263.764 0.856351 3.02513 0
M  V30 2949 N 267.536 -0.106894 1.57237 0
M  V30 2950 C 268.468 -1.15646 1.97885 0
M  V30 2951 C 269.481 -1.36981 0.879779 0
M  V30 2952 O 270.67 -1.35841 1.15799 0
M  V30 2953 C 267.77 -2.51425 2.27241 0
M  V30 2954 C 266.943 -2.50529 3.58545 0
M  V30 2955 C 266.002 -3.68145 3.75973 0
M  V30 2956 O 265.028 -3.51176 4.47956 0
M  V30 2957 N 266.23 -4.87177 3.15656 0
M  V30 2958 H 268.995 -0.81059 2.8853 0
M  V30 2959 H 266.556 -0.296024 1.59171 0
M  V30 2960 H 268.548 -3.28689 2.36105 0
M  V30 2961 H 267.118 -2.78147 1.42663 0
M  V30 2962 H 266.338 -1.58894 3.60758 0
M  V30 2963 H 267.626 -2.46997 4.44826 0
M  V30 2964 H 267.024 -5.03868 2.57165 0
M  V30 2965 H 265.581 -5.62075 3.30023 0
M  V30 2966 N 269.014 -1.53014 -0.377408 0
M  V30 2967 C 270.262 -1.6829 -1.11906 0
M  V30 2968 C 270.583 -0.431206 -1.90173 0
M  V30 2969 O 269.853 0.554595 -1.87886 0
M  V30 2970 H 268.433 -0.620371 -0.416112 0
M  V30 2971 H 271.095 -1.90167 -0.426893 0
M  V30 2972 H 270.191 -2.53862 -1.8155 0
M  V30 2973 N 270.492 0.636531 -1.44174 0
M  V30 2974 C 271.439 1.74875 -1.50624 0
M  V30 2975 C 272.409 1.62275 -0.35442 0
M  V30 2976 O 273.594 1.82276 -0.563908 0
M  V30 2977 C 270.734 3.13102 -1.45125 0
M  V30 2978 C 269.847 3.36717 -2.7064 0
M  V30 2979 C 268.982 4.64885 -2.57013 0
M  V30 2980 C 268.021 4.8166 -3.77717 0
M  V30 2981 N 267.158 6.01101 -3.62798 0
M  V30 2982 H 271.998 1.68697 -2.45653 0
M  V30 2983 H 269.535 0.823004 -1.21922 0
M  V30 2984 H 271.493 3.93034 -1.39929 0
M  V30 2985 H 270.123 3.18308 -0.536671 0
M  V30 2986 H 269.175 2.50763 -2.86046 0
M  V30 2987 H 270.487 3.44993 -3.60252 0
M  V30 2988 H 269.641 5.52969 -2.49619 0
M  V30 2989 H 268.38 4.58957 -1.64953 0
M  V30 2990 H 267.385 3.92007 -3.85501 0
M  V30 2991 H 268.61 4.89406 -4.70807 0
M  V30 2992 H 266.556 5.96273 -2.73486 0
M  V30 2993 H 266.473 6.10409 -4.46023 0
M  V30 2994 H 267.741 6.91761 -3.59286 0
M  V30 2995 N 271.97 1.30982 0.876444 0
M  V30 2996 C 273.216 1.20474 1.63138 0
M  V30 2997 C 273.549 -0.238096 1.92735 0
M  V30 2998 O 272.824 -1.1692 1.55435 0
M  V30 2999 C 273.107 2.04244 2.96574 0
M  V30 3000 C 272.96 3.56793 2.73896 0
M  V30 3001 C 274.279 1.88684 3.97601 0
M  V30 3002 H 271.398 0.439001 0.591985 0
M  V30 3003 H 274.04 1.60704 1.01361 0
M  V30 3004 H 272.19 1.70063 3.493 0
M  V30 3005 H 273.862 4.01077 2.27892 0
M  V30 3006 H 272.105 3.80548 2.08245 0
M  V30 3007 H 272.776 4.10706 3.68815 0
M  V30 3008 H 275.252 2.18584 3.54062 0
M  V30 3009 H 274.128 2.4961 4.88862 0
M  V30 3010 H 274.389 0.848343 4.33884 0
M  V30 3011 N 273.449 -1.08991 1.13837 0
M  V30 3012 C 274.359 -2.19301 0.833333 0
M  V30 3013 C 275.375 -1.73026 -0.183847 0
M  V30 3014 O 276.551 -2.01395 -0.0138092 0
M  V30 3015 C 273.616 -3.45323 0.308651 0
M  V30 3016 C 272.677 -4.06255 1.38764 0
M  V30 3017 C 271.91 -5.26262 0.887896 0
M  V30 3018 O 272.133 -5.69747 -0.27287 0
M  V30 3019 O 271.067 -5.78435 1.66421 0
M  V30 3020 H 274.893 -2.47854 1.75506 0
M  V30 3021 H 272.478 -1.18012 0.916166 0
M  V30 3022 H 274.36 -4.21394 0.0216739 0
M  V30 3023 H 273.035 -3.18362 -0.585431 0
M  V30 3024 H 271.942 -3.318 1.72799 0
M  V30 3025 H 273.275 -4.37452 2.25602 0
M  V30 3026 N 274.927 -0.932562 -1.27047 0
M  V30 3027 C 275.89 -0.440064 -2.24936 0
M  V30 3028 C 276.89 0.444071 -1.54547 0
M  V30 3029 O 278.08 0.244465 -1.72476 0
M  V30 3030 C 275.212 0.36678 -3.38921 0
M  V30 3031 H 276.405 -1.305 -2.70018 0
M  V30 3032 H 273.958 -0.713707 -1.39054 0
M  V30 3033 H 274.693 1.25033 -2.99228 0
M  V30 3034 H 274.478 -0.267204 -3.91188 0
M  V30 3035 H 275.968 0.701567 -4.11665 0
M  V30 3036 N 276.405 1.4127 -0.698611 0
M  V30 3037 C 277.652 2.0118 -0.230865 0
M  V30 3038 C 277.98 1.55338 1.17049 0
M  V30 3039 O 277.235 0.756775 1.80475 0
M  V30 3040 C 277.534 3.56592 -0.240192 0
M  V30 3041 C 277.2 4.21955 -1.58948 0
M  V30 3042 C 275.862 4.39524 -1.95887 0
M  V30 3043 C 278.214 4.58576 -2.47704 0
M  V30 3044 C 275.542 4.90992 -3.2116 0
M  V30 3045 C 277.894 5.11435 -3.72313 0
M  V30 3046 C 276.558 5.27215 -4.0939 0
M  V30 3047 H 275.828 0.736169 -0.0844796 0
M  V30 3048 H 278.475 1.69124 -0.8983 0
M  V30 3049 H 276.78 3.88456 0.510797 0
M  V30 3050 H 278.477 4.00758 0.139296 0
M  V30 3051 H 275.067 4.08657 -1.29219 0
M  V30 3052 H 279.251 4.44654 -2.20445 0
M  V30 3053 H 274.507 5.01393 -3.49878 0
M  V30 3054 H 278.681 5.38752 -4.4127 0
M  V30 3055 H 276.308 5.66859 -5.06533 0
M  V30 3056 N 277.883 0.443576 1.51229 0
M  V30 3057 C 278.793 -0.370721 2.31652 0
M  V30 3058 C 279.809 -1.02186 1.40833 0
M  V30 3059 O 280.985 -1.01586 1.73903 0
M  V30 3060 C 278.05 -1.45376 3.14749 0
M  V30 3061 C 277.111 -0.822099 4.21355 0
M  V30 3062 C 276.344 -1.85353 5.0048 0
M  V30 3063 O 276.567 -3.07656 4.80316 0
M  V30 3064 O 275.501 -1.4406 5.84406 0
M  V30 3065 H 279.327 0.286002 3.0235 0
M  V30 3066 H 276.912 0.20598 1.47973 0
M  V30 3067 H 278.794 -2.08173 3.66391 0
M  V30 3068 H 277.469 -2.09445 2.46809 0
M  V30 3069 H 276.376 -0.155909 3.73775 0
M  V30 3070 H 277.709 -0.224797 4.91686 0
M  V30 3071 N 279.361 -1.56624 0.175154 0
M  V30 3072 C 280.308 -2.18149 -0.753634 0
M  V30 3073 C 281.278 -1.12265 -1.22417 0
M  V30 3074 O 282.463 -1.40432 -1.29165 0
M  V30 3075 C 279.603 -2.82933 -1.97592 0
M  V30 3076 C 278.716 -4.03289 -1.5486 0
M  V30 3077 C 277.851 -4.55988 -2.72485 0
M  V30 3078 C 276.89 -5.68746 -2.26262 0
M  V30 3079 N 276.027 -6.15938 -3.36994 0
M  V30 3080 H 280.867 -2.9717 -0.222195 0
M  V30 3081 H 278.404 -1.46774 -0.0979422 0
M  V30 3082 H 280.362 -3.18653 -2.69288 0
M  V30 3083 H 278.992 -2.06509 -2.481 0
M  V30 3084 H 278.044 -3.73364 -0.728246 0
M  V30 3085 H 279.356 -4.849 -1.16933 0
M  V30 3086 H 278.51 -4.9391 -3.52332 0
M  V30 3087 H 277.249 -3.73443 -3.13674 0
M  V30 3088 H 276.254 -5.30372 -1.44863 0
M  V30 3089 H 277.479 -6.53095 -1.86127 0
M  V30 3090 H 275.425 -5.36321 -3.77751 0
M  V30 3091 H 275.342 -6.92548 -3.03172 0
M  V30 3092 H 276.61 -6.58511 -4.17114 0
M  V30 3093 N 280.839 0.0985539 -1.57292 0
M  V30 3094 C 281.772 1.15082 -1.97057 0
M  V30 3095 C 282.75 1.39025 -0.843255 0
M  V30 3096 O 283.934 1.52842 -1.10325 0
M  V30 3097 C 281.061 2.50069 -2.28437 0
M  V30 3098 C 280.107 2.42428 -3.509 0
M  V30 3099 S 280.94 1.84414 -5.02744 0
M  V30 3100 C 282.096 3.21032 -5.37298 0
M  V30 3101 H 282.329 0.811815 -2.86002 0
M  V30 3102 H 279.862 0.306102 -1.51335 0
M  V30 3103 H 281.82 3.27729 -2.47192 0
M  V30 3104 H 280.481 2.8114 -1.40069 0
M  V30 3105 H 279.674 3.41911 -3.70288 0
M  V30 3106 H 279.276 1.72896 -3.31637 0
M  V30 3107 H 281.568 4.17297 -5.33731 0
M  V30 3108 H 282.511 3.06452 -6.38352 0
M  V30 3109 H 282.919 3.20404 -4.64759 0
M  V30 3110 N 282.317 1.53212 0.369288 0
M  V30 3111 C 283.247 1.82365 1.45826 0
M  V30 3112 C 284.228 0.676907 1.56051 0
M  V30 3113 O 285.413 0.926401 1.70679 0
M  V30 3114 C 282.543 2.01023 2.83208 0
M  V30 3115 C 281.497 3.1678 2.8781 0
M  V30 3116 C 280.823 3.20724 4.27832 0
M  V30 3117 C 282.123 4.55447 2.55667 0
M  V30 3118 H 283.817 2.73559 1.21678 0
M  V30 3119 H 281.363 1.3163 0.583911 0
M  V30 3120 H 283.316 2.20001 3.59413 0
M  V30 3121 H 282.04 1.06536 3.08736 0
M  V30 3122 H 280.699 2.97616 2.14056 0
M  V30 3123 H 280.347 2.23882 4.50429 0
M  V30 3124 H 280.047 3.98496 4.31827 0
M  V30 3125 H 281.571 3.41881 5.05915 0
M  V30 3126 H 282.985 4.74611 3.21586 0
M  V30 3127 H 281.382 5.35432 2.70984 0
M  V30 3128 H 282.452 4.60812 1.5093 0
M  V30 3129 N 283.795 -0.628877 1.44509 0
M  V30 3130 C 285.041 -1.38863 1.48623 0
M  V30 3131 C 285.396 -1.92038 0.117933 0
M  V30 3132 O 284.689 -1.70853 -0.86716 0
M  V30 3133 C 284.883 -2.56995 2.48371 0
M  V30 3134 C 284.712 -2.15385 3.94765 0
M  V30 3135 C 283.482 -2.02558 4.62924 0
M  V30 3136 C 285.68 -1.74158 4.83915 0
M  V30 3137 N 283.662 -1.54534 5.94132 0
M  V30 3138 C 285.033 -1.37396 6.04584 0
M  V30 3139 C 287.088 -1.61559 4.7096 0
M  V30 3140 C 285.791 -0.892948 7.13736 0
M  V30 3141 C 287.817 -1.14862 5.80139 0
M  V30 3142 C 287.179 -0.790516 6.9995 0
M  V30 3143 H 283.278 -0.502858 0.59888 0
M  V30 3144 H 285.862 -0.72121 1.8085 0
M  V30 3145 H 284.033 -3.21362 2.1813 0
M  V30 3146 H 285.765 -3.23801 2.42766 0
M  V30 3147 H 282.52 -2.23082 4.1777 0
M  V30 3148 H 282.944 -1.32815 6.63844 0
M  V30 3149 H 287.586 -1.87876 3.78764 0
M  V30 3150 H 285.304 -0.617291 8.05739 0
M  V30 3151 H 288.89 -1.05569 5.72142 0
M  V30 3152 H 287.77 -0.434713 7.82994 0
M  V30 3153 N 285.273 -1.31445 -0.869486 0
M  V30 3154 C 286.689 -1.10113 -1.15531 0
M  V30 3155 C 286.889 0.128087 -2.01092 0
M  V30 3156 O 285.945 0.817276 -2.38908 0
M  V30 3157 C 287.258 -2.37291 -1.84698 0
M  V30 3158 C 288.806 -2.42906 -1.97397 0
M  V30 3159 C 289.281 -3.69967 -2.69979 0
M  V30 3160 N 290.772 -3.70864 -2.77514 0
M  V30 3161 C 291.507 -4.65875 -3.34287 0
M  V30 3162 N 291.003 -5.71242 -3.91988 0
M  V30 3163 N 292.796 -4.53394 -3.3225 0
M  V30 3164 H 284.947 -2.1028 -0.299347 0
M  V30 3165 H 287.21 -0.927683 -0.195214 0
M  V30 3166 H 286.916 -3.27078 -1.29278 0
M  V30 3167 H 286.79 -2.47125 -2.84972 0
M  V30 3168 H 289.177 -1.53588 -2.51982 0
M  V30 3169 H 289.258 -2.37036 -0.961643 0
M  V30 3170 H 288.902 -4.59652 -2.16062 0
M  V30 3171 H 288.832 -3.73103 -3.7162 0
M  V30 3172 H 291.323 -2.94697 -2.36563 0
M  V30 3173 H 291.636 -6.39817 -4.33421 0
M  V30 3174 H 289.981 -5.75015 -3.90362 0
M  V30 3175 H 293.172 -3.70252 -2.8641 0
M  V30 3176 H 293.345 -5.27617 -3.76197 0
M  V30 3177 N 286.751 1.08385 -1.14413 0
M  V30 3178 C 287.997 1.81044 -0.913834 0
M  V30 3179 C 288.33 1.86004 0.558209 0
M  V30 3180 O 287.605 1.33606 1.4135 0
M  V30 3181 C 287.888 3.26648 -1.51569 0
M  V30 3182 C 287.741 3.29895 -3.0576 0
M  V30 3183 C 289.06 4.23629 -1.19273 0
M  V30 3184 H 286.179 0.65727 -0.333414 0
M  V30 3185 H 288.821 1.26896 -1.41412 0
M  V30 3186 H 286.971 3.72889 -1.09023 0
M  V30 3187 H 288.643 2.91977 -3.57137 0
M  V30 3188 H 286.886 2.69163 -3.40197 0
M  V30 3189 H 287.557 4.32516 -3.42977 0
M  V30 3190 H 290.033 3.85727 -1.56057 0
M  V30 3191 H 288.909 5.23822 -1.64017 0
M  V30 3192 H 289.17 4.41968 -0.108068 0
M  V30 3193 N 288.23 0.939286 1.26551 0
M  V30 3194 C 289.47 0.5933 1.956 0
M  V30 3195 C 289.834 -0.851515 1.72085 0
M  V30 3196 O 291.035 -1.30634 2.34921 0
M  V30 3197 C 289.306 0.923996 3.45249 0
M  V30 3198 S 290.865 0.688269 4.33369 0
M  V30 3199 H 287.683 0.218591 0.676564 0
M  V30 3200 H 290.285 1.2102 1.5354 0
M  V30 3201 H 288.989 1.97297 3.59864 0
M  V30 3202 H 288.52 0.296746 3.92279 0
M  V30 3203 H 290.535 -0.448434 4.9417 0
M  V30 3204 N 289.708 -1.40897 0.706093 0
M  V30 3205 C 290.655 -2.30751 0.0474474 0
M  V30 3206 C 291.625 -1.47678 -0.76029 0
M  V30 3207 O 292.81 -1.76441 -0.726177 0
M  V30 3208 C 289.95 -3.33815 -0.875309 0
M  V30 3209 C 289.063 -4.31961 -0.0580623 0
M  V30 3210 C 288.198 -5.22093 -0.979425 0
M  V30 3211 C 287.237 -6.11902 -0.155706 0
M  V30 3212 N 286.374 -6.94482 -1.03144 0
M  V30 3213 H 291.214 -2.86513 0.819413 0
M  V30 3214 H 288.751 -1.41102 0.415783 0
M  V30 3215 H 290.709 -3.92129 -1.42446 0
M  V30 3216 H 289.339 -2.79579 -1.61356 0
M  V30 3217 H 288.391 -3.75507 0.608147 0
M  V30 3218 H 289.703 -4.95415 0.580082 0
M  V30 3219 H 288.857 -5.85292 -1.59744 0
M  V30 3220 H 287.596 -4.5889 -1.65141 0
M  V30 3221 H 286.601 -5.47742 0.475309 0
M  V30 3222 H 287.826 -6.77162 0.512635 0
M  V30 3223 H 285.772 -6.33877 -1.68924 0
M  V30 3224 H 285.689 -7.54665 -0.449108 0
M  V30 3225 H 286.957 -7.6214 -1.63593 0
M  V30 3226 N 291.186 -0.45159 -1.50991 0
M  V30 3227 C 292.434 0.109857 -2.01801 0
M  V30 3228 C 292.755 1.41958 -1.3369 0
M  V30 3229 O 292.025 1.9003 -0.475951 0
M  V30 3230 H 290.605 0.0435884 -0.745727 0
M  V30 3231 H 293.267 -0.597557 -1.85514 0
M  V30 3232 H 292.363 0.275489 -3.10882 0
M  V30 3233 N 292.664 1.56529 -0.183458 0
M  V30 3234 C 293.894 2.01331 0.463612 0
M  V30 3235 C 294.302 1.06278 1.5653 0
M  V30 3236 O 293.645 0.0577976 1.83609 0
M  V30 3237 C 293.707 3.42547 1.09096 0
M  V30 3238 C 293.371 4.56817 0.129442 0
M  V30 3239 C 294.368 5.15734 -0.656807 0
M  V30 3240 C 292.053 5.02295 0.02174 0
M  V30 3241 C 294.047 6.1857 -1.53784 0
M  V30 3242 C 291.734 6.04978 -0.862864 0
M  V30 3243 C 292.732 6.62988 -1.64123 0
M  V30 3244 O 292.42 7.63677 -2.51103 0
M  V30 3245 H 292.152 0.664917 0.121907 0
M  V30 3246 H 294.706 2.034 -0.285954 0
M  V30 3247 H 292.936 3.37428 1.88889 0
M  V30 3248 H 294.625 3.71228 1.64148 0
M  V30 3249 H 295.391 4.81473 -0.583839 0
M  V30 3250 H 291.27 4.56847 0.617392 0
M  V30 3251 H 294.814 6.63777 -2.14583 0
M  V30 3252 H 290.711 6.38663 -0.93699 0
M  V30 3253 H 291.479 7.81049 -2.44753 0
M  V30 3254 N 294.142 -0.090211 1.57342 0
M  V30 3255 C 295.37 -0.806224 1.90546 0
M  V30 3256 C 295.785 -1.72041 0.777644 0
M  V30 3257 O 295.142 -1.80778 -0.250103 0
M  V30 3258 C 295.193 -1.61546 3.23396 0
M  V30 3259 O 294.914 -0.738043 4.31839 0
M  V30 3260 C 296.415 -2.4341 3.70495 0
M  V30 3261 H 293.635 -0.230256 0.630257 0
M  V30 3262 H 296.179 -0.0659843 2.04394 0
M  V30 3263 H 294.334 -2.30816 3.11131 0
M  V30 3264 H 294.748 -1.29901 5.08159 0
M  V30 3265 H 296.222 -2.95676 4.66133 0
M  V30 3266 H 296.699 -3.22098 2.98579 0
M  V30 3267 H 297.305 -1.79331 3.85643 0
M  V30 3268 N 295.62 -1.53406 -0.361157 0
M  V30 3269 C 296.869 -1.69022 -1.10066 0
M  V30 3270 C 297.182 -0.450838 -1.90333 0
M  V30 3271 O 298.388 -0.487617 -2.67085 0
M  V30 3272 C 296.844 -2.98812 -2.00598 0
M  V30 3273 C 296.452 -4.30027 -1.25621 0
M  V30 3274 C 298.196 -3.23795 -2.74513 0
M  V30 3275 C 296.103 -5.50903 -2.1508 0
M  V30 3276 H 295.033 -0.629776 -0.414606 0
M  V30 3277 H 297.684 -1.79907 -0.361348 0
M  V30 3278 H 296.066 -2.8174 -2.78278 0
M  V30 3279 H 297.24 -4.57745 -0.529739 0
M  V30 3280 H 295.555 -4.11522 -0.635496 0
M  V30 3281 H 298.152 -4.11289 -3.41681 0
M  V30 3282 H 298.495 -2.40045 -3.40123 0
M  V30 3283 H 299.028 -3.41561 -2.03914 0
M  V30 3284 H 295.767 -6.37143 -1.54041 0
M  V30 3285 H 295.287 -5.27459 -2.85565 0
M  V30 3286 H 296.966 -5.85865 -2.74538 0
M  V30 3287 N 297.098 0.621204 -1.44841 0
M  V30 3288 C 298.344 1.3826 -1.48365 0
M  V30 3289 C 298.677 1.93831 -0.119624 0
M  V30 3290 O 297.952 1.74251 0.864111 0
M  V30 3291 C 298.235 2.54058 -2.55199 0
M  V30 3292 C 298.088 2.03772 -4.00995 0
M  V30 3293 C 299.407 3.56225 -2.58442 0
M  V30 3294 H 296.526 0.501374 -0.540179 0
M  V30 3295 H 299.168 0.7015 -1.76576 0
M  V30 3296 H 297.318 3.12162 -2.31274 0
M  V30 3297 H 298.99 1.50423 -4.36086 0
M  V30 3298 H 297.233 1.34876 -4.12299 0
M  V30 3299 H 297.904 2.87185 -4.71411 0
M  V30 3300 H 300.38 3.07939 -2.79844 0
M  V30 3301 H 299.256 4.34756 -3.3508 0
M  V30 3302 H 299.517 4.10949 -1.63013 0
M  V30 3303 N 298.576 1.31904 0.862503 0
M  V30 3304 C 299.801 1.25135 1.65397 0
M  V30 3305 C 300.226 -0.179 1.87246 0
M  V30 3306 O 299.584 -1.1277 1.4196 0
M  V30 3307 C 299.632 2.00832 2.99498 0
M  V30 3308 O 298.736 1.35075 3.89652 0
M  V30 3309 H 298.077 0.431655 0.504549 0
M  V30 3310 H 300.607 1.74094 1.07483 0
M  V30 3311 H 300.617 2.10709 3.49379 0
M  V30 3312 H 299.292 3.04847 2.82916 0
M  V30 3313 H 297.869 1.33696 3.48109 0
M  V30 3314 N 300.054 -1.07777 1.14986 0
M  V30 3315 C 301.284 -1.83752 0.944402 0
M  V30 3316 C 301.692 -1.8218 -0.51058 0
M  V30 3317 O 301.035 -1.22852 -1.36576 0
M  V30 3318 C 301.097 -3.32128 1.37592 0
M  V30 3319 C 300.761 -3.57425 2.84775 0
M  V30 3320 C 301.758 -3.5173 3.8286 0
M  V30 3321 C 299.443 -3.8523 3.2234 0
M  V30 3322 C 301.437 -3.73482 5.16517 0
M  V30 3323 C 299.124 -4.06634 4.56171 0
M  V30 3324 C 300.122 -4.00754 5.53069 0
M  V30 3325 O 299.81 -4.2159 6.84483 0
M  V30 3326 H 299.542 -0.58673 0.335744 0
M  V30 3327 H 302.096 -1.36982 1.53052 0
M  V30 3328 H 300.326 -3.79686 0.733165 0
M  V30 3329 H 302.015 -3.89555 1.14024 0
M  V30 3330 H 302.781 -3.30256 3.55184 0
M  V30 3331 H 298.66 -3.88923 2.47508 0
M  V30 3332 H 302.204 -3.68808 5.92137 0
M  V30 3333 H 298.101 -4.27593 4.83564 0
M  V30 3334 H 298.869 -4.38961 6.90837 0
M  V30 3335 N 301.532 -0.945985 -1.26051 0
M  V30 3336 C 302.495 -0.463897 -2.24456 0
M  V30 3337 C 303.495 0.427655 -1.55009 0
M  V30 3338 O 304.685 0.226157 -1.72726 0
M  V30 3339 C 301.817 0.330812 -3.39291 0
M  V30 3340 H 303.01 -1.33357 -2.68619 0
M  V30 3341 H 300.563 -0.728416 -1.38289 0
M  V30 3342 H 301.298 1.21852 -3.00537 0
M  V30 3343 H 301.083 -0.308679 -3.90883 0
M  V30 3344 H 302.573 0.657865 -4.12386 0
M  V30 3345 N 303.011 1.40521 -0.713556 0
M  V30 3346 C 303.921 2.34522 -0.0606667 0
M  V30 3347 C 304.937 1.57193 0.74607 0
M  V30 3348 O 306.113 1.89591 0.679493 0
M  V30 3349 C 303.178 3.36081 0.851491 0
M  V30 3350 C 302.239 4.29286 0.0349339 0
M  V30 3351 C 301.472 5.25994 0.903649 0
M  V30 3352 O 301.695 5.28616 2.14292 0
M  V30 3353 O 300.629 6.00918 0.343723 0
M  V30 3354 H 304.455 2.91968 -0.835972 0
M  V30 3355 H 302.04 1.41681 -0.47402 0
M  V30 3356 H 303.922 3.98369 1.37404 0
M  V30 3357 H 302.597 2.81052 1.60598 0
M  V30 3358 H 301.504 3.70289 -0.532633 0
M  V30 3359 H 302.837 4.87462 -0.681287 0
M  V30 3360 N 304.489 0.459591 1.5075 0
M  V30 3361 C 305.419 -0.330644 2.31147 0
M  V30 3362 C 306.4 -1.00087 1.37538 0
M  V30 3363 O 307.585 -1.00025 1.66459 0
M  V30 3364 C 304.715 -1.41958 3.16962 0
M  V30 3365 C 303.669 -0.871608 4.19031 0
M  V30 3366 C 302.995 -2.05797 4.9351 0
M  V30 3367 C 304.295 0.109251 5.22186 0
M  V30 3368 H 305.989 0.340336 2.97459 0
M  V30 3369 H 303.535 0.165119 1.4305 0
M  V30 3370 H 305.488 -1.9798 3.71997 0
M  V30 3371 H 304.212 -2.11917 2.48513 0
M  V30 3372 H 302.871 -0.333442 3.6508 0
M  V30 3373 H 302.519 -2.74427 4.21544 0
M  V30 3374 H 302.219 -1.6976 5.62544 0
M  V30 3375 H 303.743 -2.62331 5.51375 0
M  V30 3376 H 305.157 -0.361405 5.7216 0
M  V30 3377 H 303.554 0.383316 5.98875 0
M  V30 3378 H 304.624 1.03887 4.73641 0
M  V30 3379 N 305.967 -1.56429 0.191757 0
M  V30 3380 C 307.244 -1.89224 -0.495332 0
M  V30 3381 C 307.624 -1.10478 -1.79883 0
M  V30 3382 O 306.972 -0.204852 -2.2758 0
M  V30 3383 C 307.182 -3.41548 -0.717367 0
M  V30 3384 C 308.53 -4.11711 -1.03823 0
M  V30 3385 O 309.554 -3.4698 -0.805204 0
M  V30 3386 O 308.413 -5.2611 -1.47887 0
M  V30 3387 H 305.507 -0.785788 -0.25781 0
M  V30 3388 H 308.053 -1.68111 0.231721 0
M  V30 3389 H 306.825 -3.90772 0.203287 0
M  V30 3390 H 306.448 -3.68342 -1.497 0
M  V30 3391 N 307.445 0.0818655 -1.57387 0
M  V30 3392 C 308.355 1.11642 -2.06333 0
M  V30 3393 C 309.371 1.43033 -0.99083 0
M  V30 3394 O 310.547 1.53411 -1.30488 0
M  V30 3395 C 307.612 2.41342 -2.48907 0
M  V30 3396 C 306.673 2.17014 -3.7041 0
M  V30 3397 C 305.906 3.4053 -4.10944 0
M  V30 3398 O 306.129 4.4927 -3.51444 0
M  V30 3399 O 305.063 3.29336 -5.03807 0
M  V30 3400 H 308.889 0.730657 -2.9478 0
M  V30 3401 H 306.474 0.295301 -1.46452 0
M  V30 3402 H 308.356 3.17691 -2.76858 0
M  V30 3403 H 307.031 2.79319 -1.63593 0
M  V30 3404 H 305.938 1.38403 -3.47556 0
M  V30 3405 H 307.271 1.83923 -4.56545 0
M  V30 3406 N 308.923 1.53595 0.353017 0
M  V30 3407 C 310.148 1.7462 1.11904 0
M  V30 3408 C 310.573 0.479721 1.8188 0
M  V30 3409 O 309.931 -0.567066 1.72204 0
M  V30 3410 C 309.979 2.92029 2.11545 0
M  V30 3411 O 309.083 2.61516 3.18878 0
M  V30 3412 H 308.424 0.579531 0.324099 0
M  V30 3413 H 310.954 2.00525 0.406301 0
M  V30 3414 H 310.964 3.18551 2.5493 0
M  V30 3415 H 309.639 3.83888 1.60008 0
M  V30 3416 H 308.216 2.45852 2.80377 0
M  V30 3417 N 310.401 -0.613514 1.45168 0
M  V30 3418 C 311.331 -1.7354 1.56225 0
M  V30 3419 C 312.312 -1.64981 0.41414 0
M  V30 3420 O 313.497 -1.83472 0.636526 0
M  V30 3421 C 310.627 -3.12128 1.52295 0
M  V30 3422 C 309.581 -3.35491 2.65762 0
M  V30 3423 C 308.907 -4.74291 2.46885 0
M  V30 3424 C 310.207 -3.26325 4.0781 0
M  V30 3425 H 311.901 -1.64543 2.50132 0
M  V30 3426 H 309.447 -0.790185 1.20383 0
M  V30 3427 H 311.4 -3.90404 1.58628 0
M  V30 3428 H 310.124 -3.2195 0.549139 0
M  V30 3429 H 308.783 -2.59603 2.58847 0
M  V30 3430 H 308.431 -4.80839 1.47657 0
M  V30 3431 H 308.131 -4.9088 3.22972 0
M  V30 3432 H 309.655 -5.54775 2.55063 0
M  V30 3433 H 311.069 -3.94483 4.16 0
M  V30 3434 H 309.466 -3.54445 4.8424 0
M  V30 3435 H 310.536 -2.23855 4.30136 0
M  V30 3436 N 311.879 -1.3236 -0.855495 0
M  V30 3437 C 312.789 -1.23221 -1.99634 0
M  V30 3438 C 313.805 -0.145983 -1.73387 0
M  V30 3439 O 314.981 -0.366502 -1.98037 0
M  V30 3440 C 312.046 -0.954782 -3.33294 0
M  V30 3441 C 311.107 -2.12937 -3.72769 0
M  V30 3442 C 310.34 -1.86508 -5.00051 0
M  V30 3443 O 310.563 -0.807231 -5.64659 0
M  V30 3444 O 309.497 -2.72591 -5.36636 0
M  V30 3445 H 313.323 -2.19126 -2.1028 0
M  V30 3446 H 310.908 -1.12241 -0.986018 0
M  V30 3447 H 312.79 -0.816519 -4.13414 0
M  V30 3448 H 311.465 -0.0258854 -3.2369 0
M  V30 3449 H 310.372 -2.3231 -2.93228 0
M  V30 3450 H 311.705 -3.04102 -3.87018 0
M  V30 3451 N 313.357 1.07166 -1.15556 0
M  V30 3452 C 314.634 1.76546 -0.842069 0
M  V30 3453 C 315.014 2.00453 0.661939 0
M  V30 3454 O 314.362 1.62452 1.60691 0
M  V30 3455 C 314.572 3.07266 -1.65495 0
M  V30 3456 C 315.92 3.81578 -1.86234 0
M  V30 3457 O 316.944 3.17083 -1.62287 0
M  V30 3458 O 315.803 4.97419 -2.26355 0
M  V30 3459 H 312.897 0.766756 -0.309862 0
M  V30 3460 H 315.443 1.13514 -1.26145 0
M  V30 3461 H 314.215 2.85494 -2.67598 0
M  V30 3462 H 313.838 3.7803 -1.23203 0
M  V30 3463 N 314.835 0.952656 1.25548 0
M  V30 3464 C 316.246 0.647392 1.75116 0
M  V30 3465 C 316.597 -0.837274 1.77438 0
M  V30 3466 O 315.722 -1.65525 1.39393 0
M  V30 3467 C 316.317 1.16845 3.18014 0
M  V30 3468 C 314.876 0.913382 3.6515 0
M  V30 3469 C 314.023 1.31265 2.44264 0
M  V30 3470 H 316.974 1.12968 1.11462 0
M  V30 3471 H 316.995 0.527606 3.76824 0
M  V30 3472 H 316.507 2.24902 3.16292 0
M  V30 3473 H 314.608 -0.152316 3.72289 0
M  V30 3474 H 314.721 1.54845 4.53387 0
M  V30 3475 H 313.085 0.731028 2.43984 0
M  V30 3476 H 313.868 2.40239 2.45234 0
M  V30 3477 N 316.313 -1.40141 0.720998 0
M  V30 3478 C 317.223 -2.34486 0.0731031 0
M  V30 3479 C 318.239 -1.57587 -0.737723 0
M  V30 3480 O 319.415 -1.89949 -0.669429 0
M  V30 3481 C 316.48 -3.36528 -0.833656 0
M  V30 3482 C 315.541 -4.29298 -0.0121673 0
M  V30 3483 C 314.774 -5.26466 -0.875742 0
M  V30 3484 O 314.997 -5.29745 -2.11485 0
M  V30 3485 O 313.931 -6.01092 -0.31185 0
M  V30 3486 H 317.757 -2.9152 0.851444 0
M  V30 3487 H 315.342 -1.41427 0.481527 0
M  V30 3488 H 317.224 -3.99093 -1.35289 0
M  V30 3489 H 315.899 -2.81899 -1.59105 0
M  V30 3490 H 314.806 -3.70001 0.552262 0
M  V30 3491 H 316.139 -4.87094 0.707129 0
M  V30 3492 N 317.792 -0.46758 -1.50504 0
M  V30 3493 C 319.02 0.0864133 -2.06719 0
M  V30 3494 C 319.435 1.33819 -1.33184 0
M  V30 3495 O 318.792 1.78061 -0.400083 0
M  V30 3496 C 318.843 0.378079 -3.59517 0
M  V30 3497 O 318.564 -0.824044 -4.3028 0
M  V30 3498 C 320.065 0.979426 -4.32345 0
M  V30 3499 H 317.285 -0.00551697 -0.670977 0
M  V30 3500 H 319.829 -0.655354 -1.93715 0
M  V30 3501 H 317.984 1.06977 -3.72337 0
M  V30 3502 H 318.398 -0.566518 -5.21432 0
M  V30 3503 H 319.872 1.1333 -5.40241 0
M  V30 3504 H 320.349 1.9686 -3.9261 0
M  V30 3505 H 320.955 0.326216 -4.24047 0
M  V30 3506 N 319.27 1.56325 -0.20005 0
M  V30 3507 C 320.518 1.97329 0.436547 0
M  V30 3508 C 320.839 1.08826 1.61808 0
M  V30 3509 O 320.109 0.160604 1.95241 0
M  V30 3510 H 318.689 0.728714 0.164272 0
M  V30 3511 H 321.351 1.92761 -0.287937 0
M  V30 3512 H 320.447 3.02264 0.777353 0
M  V30 3513 N 320.748 -0.0735177 1.57428 0
M  V30 3514 C 321.658 -1.10547 2.06922 0
M  V30 3515 C 322.674 -1.42506 0.998402 0
M  V30 3516 O 323.85 -1.52717 1.31299 0
M  V30 3517 C 320.915 -2.40019 2.50184 0
M  V30 3518 C 319.976 -2.15046 3.71556 0
M  V30 3519 C 319.209 -3.38345 4.12745 0
M  V30 3520 O 319.432 -4.47399 3.53822 0
M  V30 3521 O 318.366 -3.2666 5.05546 0
M  V30 3522 H 322.192 -0.715013 2.95163 0
M  V30 3523 H 319.777 -0.287531 1.46607 0
M  V30 3524 H 321.659 -3.16218 2.78539 0
M  V30 3525 H 320.334 -2.78447 1.65072 0
M  V30 3526 H 319.241 -1.36558 3.48285 0
M  V30 3527 H 320.574 -1.81499 4.57514 0
M  V30 3528 N 322.226 -1.5378 -0.344866 0
M  V30 3529 C 323.472 -1.71216 -1.08687 0
M  V30 3530 C 323.805 -0.473281 -1.88345 0
M  V30 3531 O 323.08 0.52968 -1.87149 0
M  V30 3532 C 323.363 -2.97486 -2.02914 0
M  V30 3533 C 323.216 -4.31579 -1.26727 0
M  V30 3534 C 324.535 -3.19422 -3.0275 0
M  V30 3535 H 321.654 -0.62301 -0.393735 0
M  V30 3536 H 324.296 -1.8645 -0.365563 0
M  V30 3537 H 322.446 -2.84629 -2.64421 0
M  V30 3538 H 324.118 -4.56284 -0.67845 0
M  V30 3539 H 322.361 -4.30049 -0.569273 0
M  V30 3540 H 323.032 -5.16106 -1.95803 0
M  V30 3541 H 325.508 -3.316 -2.51357 0
M  V30 3542 H 324.384 -4.09169 -3.65885 0
M  V30 3543 H 324.645 -2.35656 -3.74057 0
M  V30 3544 N 323.704 0.605807 -1.45491 0
M  V30 3545 C 324.953 1.36086 -1.48874 0
M  V30 3546 C 325.266 1.95131 -0.135333 0
M  V30 3547 O 326.472 2.7146 -0.0468144 0
M  V30 3548 C 324.928 2.46518 -2.62215 0
M  V30 3549 C 324.536 1.93877 -4.03876 0
M  V30 3550 C 326.28 3.23512 -2.74846 0
M  V30 3551 C 324.187 3.01801 -5.08596 0
M  V30 3552 H 323.117 0.511497 -0.553974 0
M  V30 3553 H 325.768 0.649089 -1.71636 0
M  V30 3554 H 324.15 3.20388 -2.32739 0
M  V30 3555 H 325.324 1.26704 -4.43038 0
M  V30 3556 H 323.639 1.29622 -3.95711 0
M  V30 3557 H 326.236 4.04013 -3.50253 0
M  V30 3558 H 326.579 3.74631 -1.81542 0
M  V30 3559 H 327.112 2.56742 -3.03856 0
M  V30 3560 H 323.851 2.55597 -6.03614 0
M  V30 3561 H 323.371 3.67535 -4.74002 0
M  V30 3562 H 325.05 3.66152 -5.33424 0
M  V30 3563 N 325.182 1.32811 0.848464 0
M  V30 3564 C 326.129 1.22265 1.95755 0
M  V30 3565 C 327.099 0.103413 1.65778 0
M  V30 3566 O 328.284 0.280033 1.88734 0
M  V30 3567 C 325.424 0.958014 3.31536 0
M  V30 3568 C 324.537 2.16262 3.73971 0
M  V30 3569 C 323.672 1.83295 4.98575 0
M  V30 3570 C 322.711 3.00041 5.33518 0
M  V30 3571 N 321.848 2.67125 6.49299 0
M  V30 3572 H 326.688 2.17128 2.04107 0
M  V30 3573 H 324.225 1.07982 0.998913 0
M  V30 3574 H 326.183 0.785052 4.09747 0
M  V30 3575 H 324.813 0.046159 3.22767 0
M  V30 3576 H 323.865 2.44565 2.91362 0
M  V30 3577 H 325.177 3.03572 3.95785 0
M  V30 3578 H 324.331 1.62586 5.84509 0
M  V30 3579 H 323.07 0.932078 4.7871 0
M  V30 3580 H 322.075 3.21374 4.46093 0
M  V30 3581 H 323.3 3.90869 5.55336 0
M  V30 3582 H 321.246 1.79586 6.3094 0
M  V30 3583 H 321.163 3.47965 6.71161 0
M  V30 3584 H 322.431 2.49861 7.3837 0
M  V30 3585 N 326.66 -1.06551 1.16123 0
M  V30 3586 C 327.906 -1.79719 0.952505 0
M  V30 3587 C 328.261 -1.85396 -0.514385 0
M  V30 3588 O 327.554 -1.33263 -1.37665 0
M  V30 3589 C 327.748 -3.23911 1.51052 0
M  V30 3590 C 327.577 -3.32284 3.03013 0
M  V30 3591 C 326.347 -3.42371 3.71632 0
M  V30 3592 C 328.545 -3.22363 4.00732 0
M  V30 3593 N 326.527 -3.39732 5.11327 0
M  V30 3594 C 327.898 -3.26937 5.26794 0
M  V30 3595 C 329.953 -3.0623 3.92591 0
M  V30 3596 C 328.656 -3.17035 6.45663 0
M  V30 3597 C 330.682 -2.97665 5.11028 0
M  V30 3598 C 330.044 -3.02858 6.35969 0
M  V30 3599 H 326.143 -0.670585 0.402293 0
M  V30 3600 H 328.727 -1.27125 1.4747 0
M  V30 3601 H 326.898 -3.74907 1.01484 0
M  V30 3602 H 328.63 -3.85242 1.2398 0
M  V30 3603 H 325.385 -3.47058 3.22254 0
M  V30 3604 H 325.809 -3.41919 5.84312 0
M  V30 3605 H 330.451 -3.01063 2.96852 0
M  V30 3606 H 328.169 -3.2096 7.41627 0
M  V30 3607 H 331.755 -2.86273 5.06497 0
M  V30 3608 H 330.635 -2.96286 7.26075 0
M  V30 3609 N 328.138 -0.959301 -1.25041 0
M  V30 3610 C 329.368 -0.63303 -1.96663 0
M  V30 3611 C 329.776 0.800031 -1.71453 0
M  V30 3612 O 329.119 1.54736 -0.99008 0
M  V30 3613 C 329.181 -0.817523 -3.50081 0
M  V30 3614 C 328.845 -2.22863 -3.98975 0
M  V30 3615 C 329.842 -3.20569 -4.09306 0
M  V30 3616 C 327.527 -2.55407 -4.32519 0
M  V30 3617 C 329.521 -4.4891 -4.52503 0
M  V30 3618 C 327.208 -3.83976 -4.754 0
M  V30 3619 C 328.206 -4.8054 -4.85356 0
M  V30 3620 O 327.894 -6.06817 -5.27284 0
M  V30 3621 H 327.626 -0.235866 -0.633516 0
M  V30 3622 H 330.18 -1.2874 -1.60047 0
M  V30 3623 H 328.41 -0.105992 -3.86555 0
M  V30 3624 H 330.099 -0.491604 -4.02912 0
M  V30 3625 H 330.865 -2.96753 -3.83618 0
M  V30 3626 H 326.744 -1.8097 -4.23994 0
M  V30 3627 H 330.288 -5.24283 -4.60188 0
M  V30 3628 H 326.185 -4.07596 -5.00535 0
M  V30 3629 H 326.953 -6.10262 -5.45457 0
M  V30 3630 N 329.616 1.39756 -0.72842 0
M  V30 3631 C 330.862 2.00942 -0.273892 0
M  V30 3632 C 331.195 1.57656 1.13394 0
M  V30 3633 O 330.47 0.802434 1.77176 0
M  V30 3634 C 330.753 3.58211 -0.368346 0
M  V30 3635 C 330.606 4.11534 -1.81548 0
M  V30 3636 C 331.925 4.39372 0.253054 0
M  V30 3637 H 329.044 0.730047 -0.100996 0
M  V30 3638 H 331.686 1.66056 -0.923337 0
M  V30 3639 H 329.836 3.88061 0.184588 0
M  V30 3640 H 331.508 3.92431 -2.42478 0
M  V30 3641 H 329.751 3.65341 -2.33898 0
M  V30 3642 H 330.422 5.20682 -1.83288 0
M  V30 3643 H 332.898 4.15527 -0.218224 0
M  V30 3644 H 331.774 5.48677 0.156585 0
M  V30 3645 H 332.035 4.21358 1.33826 0
M  V30 3646 N 331.094 0.475555 1.50254 0
M  V30 3647 C 332.341 -0.0778919 2.0235 0
M  V30 3648 C 332.669 -1.39319 1.35722 0
M  V30 3649 O 331.924 -1.89888 0.473395 0
M  V30 3650 C 332.223 -0.305114 3.56095 0
M  V30 3651 C 331.889 0.92903 4.41225 0
M  V30 3652 C 330.551 1.26739 4.6421 0
M  V30 3653 C 332.903 1.75054 4.90923 0
M  V30 3654 C 330.231 2.42724 5.34137 0
M  V30 3655 C 332.583 2.9017 5.62125 0
M  V30 3656 C 331.247 3.24416 5.83362 0
M  V30 3657 H 330.517 -0.0285027 0.740452 0
M  V30 3658 H 333.164 0.630543 1.80821 0
M  V30 3659 H 331.469 -1.09584 3.76163 0
M  V30 3660 H 333.166 -0.747377 3.93974 0
M  V30 3661 H 329.756 0.655428 4.23559 0
M  V30 3662 H 333.94 1.50231 4.73016 0
M  V30 3663 H 329.196 2.69525 5.48786 0
M  V30 3664 H 333.37 3.54169 5.99614 0
M  V30 3665 H 330.997 4.14396 6.37323 0
M  V30 3666 N 332.573 -1.56217 0.208337 0
M  V30 3667 C 333.503 -2.22694 -0.702116 0
M  V30 3668 C 334.484 -1.19432 -1.2112 0
M  V30 3669 O 335.669 -1.47978 -1.25762 0
M  V30 3670 C 332.799 -2.8966 -1.9161 0
M  V30 3671 C 331.753 -3.9928 -1.5414 0
M  V30 3672 C 331.079 -4.53476 -2.83308 0
M  V30 3673 C 332.379 -5.17012 -0.741339 0
M  V30 3674 H 334.073 -2.99034 -0.147898 0
M  V30 3675 H 331.619 -1.43831 -0.0696951 0
M  V30 3676 H 333.572 -3.34852 -2.55836 0
M  V30 3677 H 332.296 -2.10746 -2.49507 0
M  V30 3678 H 330.955 -3.54799 -0.922668 0
M  V30 3679 H 330.603 -3.71308 -3.39322 0
M  V30 3680 H 330.303 -5.27451 -2.58976 0
M  V30 3681 H 331.827 -5.01378 -3.485 0
M  V30 3682 H 333.241 -5.58667 -1.28699 0
M  V30 3683 H 331.638 -5.97137 -0.595627 0
M  V30 3684 H 332.708 -4.8423 0.254851 0
M  V30 3685 N 334.051 0.0651679 -1.57465 0
M  V30 3686 C 335.3 0.761916 -1.86756 0
M  V30 3687 C 335.613 1.78406 -0.801925 0
M  V30 3688 O 336.819 2.53084 -0.982885 0
M  V30 3689 C 335.275 1.40603 -3.31299 0
M  V30 3690 C 334.883 0.422115 -4.46007 0
M  V30 3691 C 336.627 2.08476 -3.69781 0
M  V30 3692 C 334.534 1.07252 -5.81593 0
M  V30 3693 H 333.464 0.288308 -0.696702 0
M  V30 3694 H 336.115 0.015344 -1.83494 0
M  V30 3695 H 334.497 2.20109 -3.29193 0
M  V30 3696 H 335.671 -0.343613 -4.59517 0
M  V30 3697 H 333.986 -0.152527 -4.16121 0
M  V30 3698 H 336.583 2.57925 -4.68379 0
M  V30 3699 H 336.926 2.88712 -2.99919 0
M  V30 3700 H 337.459 1.35792 -3.73905 0
M  V30 3701 H 334.198 0.310342 -6.54765 0
M  V30 3702 H 333.718 1.80895 -5.71872 0
M  V30 3703 H 335.397 1.59043 -6.27148 0
M  V30 3704 N 335.529 1.53961 0.336706 0
M  V30 3705 C 336.754 1.75797 1.10046 0
M  V30 3706 C 337.179 0.498985 1.81361 0
M  V30 3707 O 336.537 -0.548769 1.72795 0
M  V30 3708 C 336.585 2.94257 2.08436 0
M  V30 3709 O 335.689 2.64883 3.16087 0
M  V30 3710 H 335.03 0.582936 0.317934 0
M  V30 3711 H 337.56 2.00945 0.38501 0
M  V30 3712 H 337.57 3.21237 2.51537 0
M  V30 3713 H 336.245 3.85564 1.55927 0
M  V30 3714 H 334.822 2.48812 2.77753 0
M  V30 3715 N 337.007 -0.598083 1.45811 0
M  V30 3716 C 338.254 -1.35681 1.50323 0
M  V30 3717 C 338.582 -1.9393 0.148739 0
M  V30 3718 O 337.837 -1.76094 -0.853787 0
M  V30 3719 C 338.136 -2.51669 2.53766 0
M  V30 3720 C 337.802 -2.11508 3.98215 0
M  V30 3721 C 336.464 -2.0027 4.37545 0
M  V30 3722 C 338.816 -1.80308 4.89018 0
M  V30 3723 C 336.144 -1.56067 5.65562 0
M  V30 3724 C 338.496 -1.37589 6.17456 0
M  V30 3725 C 337.16 -1.24916 6.55708 0
M  V30 3726 H 336.43 -0.496492 0.550069 0
M  V30 3727 H 339.077 -0.675052 1.79207 0
M  V30 3728 H 337.382 -3.25225 2.18486 0
M  V30 3729 H 339.079 -3.09895 2.54492 0
M  V30 3730 H 335.669 -2.21185 3.67117 0
M  V30 3731 H 339.853 -1.87884 4.59362 0
M  V30 3732 H 335.109 -1.44886 5.93985 0
M  V30 3733 H 339.283 -1.12495 6.87254 0
M  V30 3734 H 336.91 -0.904386 7.54801 0
M  V30 3735 N 338.485 -1.33259 -0.841409 0
M  V30 3736 C 339.731 -1.25766 -1.59857 0
M  V30 3737 C 340.086 0.175602 -1.91597 0
M  V30 3738 O 339.379 1.117 -1.55672 0
M  V30 3739 C 339.573 -2.06381 -2.9179 0
M  V30 3740 C 339.402 -3.57401 -2.72937 0
M  V30 3741 C 338.172 -4.26718 -2.70628 0
M  V30 3742 C 340.37 -4.51786 -2.45753 0
M  V30 3743 N 338.352 -5.63705 -2.43125 0
M  V30 3744 C 339.723 -5.76643 -2.27777 0
M  V30 3745 C 341.778 -4.40898 -2.31329 0
M  V30 3746 C 340.481 -6.91842 -1.96841 0
M  V30 3747 C 342.507 -5.55911 -2.01786 0
M  V30 3748 C 341.869 -6.79776 -1.8462 0
M  V30 3749 H 337.968 -0.515406 -0.588117 0
M  V30 3750 H 340.552 -1.67772 -0.987955 0
M  V30 3751 H 338.723 -1.667 -3.50807 0
M  V30 3752 H 340.455 -1.90678 -3.56965 0
M  V30 3753 H 337.21 -3.78968 -2.84043 0
M  V30 3754 H 337.634 -6.35911 -2.32265 0
M  V30 3755 H 342.276 -3.45772 -2.43314 0
M  V30 3756 H 339.994 -7.86968 -1.83594 0
M  V30 3757 H 343.58 -5.49421 -1.91384 0
M  V30 3758 H 342.46 -7.67266 -1.62088 0
M  V30 3759 N 339.963 1.05934 -1.16686 0
M  V30 3760 C 341.211 1.78447 -0.948744 0
M  V30 3761 C 341.532 1.87813 0.524523 0
M  V30 3762 O 340.802 1.38945 1.38098 0
M  V30 3763 H 339.382 0.660971 -0.348033 0
M  V30 3764 H 342.044 1.27947 -1.47022 0
M  V30 3765 H 341.14 2.80394 -1.37061 0
M  V30 3766 N 341.441 0.965919 1.2453 0
M  V30 3767 C 342.351 0.502154 2.29163 0
M  V30 3768 C 343.367 -0.436017 1.68448 0
M  V30 3769 O 344.543 -0.309497 1.99008 0
M  V30 3770 C 341.608 -0.201956 3.46111 0
M  V30 3771 C 340.669 0.775821 4.22232 0
M  V30 3772 C 339.902 0.105217 5.33596 0
M  V30 3773 O 340.125 -1.10683 5.59558 0
M  V30 3774 O 339.059 0.796475 5.96607 0
M  V30 3775 H 342.885 1.37194 2.70946 0
M  V30 3776 H 340.47 0.732875 1.30189 0
M  V30 3777 H 342.352 -0.597564 4.17142 0
M  V30 3778 H 341.027 -1.04673 3.06309 0
M  V30 3779 H 339.934 1.22185 3.53584 0
M  V30 3780 H 341.267 1.58896 4.65846 0
M  V30 3781 N 342.919 -1.39368 0.735821 0
M  V30 3782 C 343.851 -2.2913 0.0567723 0
M  V30 3783 C 344.864 -1.46859 -0.702589 0
M  V30 3784 O 346.053 -1.69925 -0.546616 0
M  V30 3785 C 343.153 -3.25492 -0.943823 0
M  V30 3786 C 342.326 -4.36709 -0.24581 0
M  V30 3787 C 341.385 -5.13376 -1.15463 0
M  V30 3788 O 340.411 -5.65683 -0.631803 0
M  V30 3789 N 341.613 -5.24656 -2.48427 0
M  V30 3790 H 344.378 -2.88047 0.827582 0
M  V30 3791 H 341.939 -1.50957 0.585112 0
M  V30 3792 H 343.931 -3.73657 -1.55443 0
M  V30 3793 H 342.501 -2.676 -1.61583 0
M  V30 3794 H 341.721 -3.9041 0.545286 0
M  V30 3795 H 343.009 -5.08244 0.237891 0
M  V30 3796 H 342.407 -4.83679 -2.93379 0
M  V30 3797 H 340.964 -5.76258 -3.04582 0
M  V30 3798 N 344.397 -0.483516 -1.5 0
M  V30 3799 C 345.646 0.0689102 -2.01582 0
M  V30 3800 C 345.959 1.39655 -1.36952 0
M  V30 3801 O 347.165 2.03465 -1.79762 0
M  V30 3802 C 345.621 0.173302 -3.59483 0
M  V30 3803 C 345.229 -1.14665 -4.33077 0
M  V30 3804 C 346.973 0.677024 -4.19066 0
M  V30 3805 C 344.88 -1.00537 -5.82792 0
M  V30 3806 H 343.81 0.0295277 -0.753422 0
M  V30 3807 H 346.461 -0.620295 -1.72698 0
M  V30 3808 H 344.843 0.926569 -3.85007 0
M  V30 3809 H 346.017 -1.91184 -4.19268 0
M  V30 3810 H 344.332 -1.58244 -3.85159 0
M  V30 3811 H 346.929 0.799952 -5.28682 0
M  V30 3812 H 347.272 1.67151 -3.81269 0
M  V30 3813 H 347.805 -0.0192083 -3.97795 0
M  V30 3814 H 344.544 -1.9736 -6.25083 0
M  V30 3815 H 344.064 -0.280776 -5.99142 0
M  V30 3816 H 345.743 -0.677 -6.43448 0
M  V30 3817 N 345.875 1.56104 -0.216619 0
M  V30 3818 C 347.123 1.97781 0.415593 0
M  V30 3819 C 347.444 1.10536 1.60645 0
M  V30 3820 O 346.714 0.181303 1.95059 0
M  V30 3821 H 345.294 0.730415 0.156534 0
M  V30 3822 H 347.956 1.92445 -0.308366 0
M  V30 3823 H 347.052 3.03072 0.74525 0
M  V30 3824 N 347.353 -0.0568162 1.57498 0
M  V30 3825 C 348.303 -1.07315 2.01166 0
M  V30 3826 C 349.287 -1.33632 0.896171 0
M  V30 3827 O 350.479 -1.33682 1.16009 0
M  V30 3828 C 347.608 -2.38257 2.47161 0
M  V30 3829 C 346.694 -2.1515 3.65474 0
M  V30 3830 N 347.085 -1.62014 4.7915 0
M  V30 3831 C 345.383 -2.45559 3.72313 0
M  V30 3832 C 346.084 -1.54069 5.60926 0
M  V30 3833 N 345.06 -2.00652 5.05213 0
M  V30 3834 H 348.862 -0.655878 2.86488 0
M  V30 3835 H 346.376 -0.263635 1.60246 0
M  V30 3836 H 348.373 -3.11845 2.76691 0
M  V30 3837 H 347.033 -2.80687 1.63232 0
M  V30 3838 H 348.044 -1.30667 5.01145 0
M  V30 3839 H 344.721 -2.91253 2.99129 0
M  V30 3840 H 346.111 -1.13712 6.62208 0
M  V30 3841 N 348.832 -1.54138 -0.328536 0
M  V30 3842 C 349.779 -1.83176 -1.40411 0
M  V30 3843 C 350.749 -0.678494 -1.5161 0
M  V30 3844 O 351.934 -0.92443 -1.6691 0
M  V30 3845 C 349.074 -2.06035 -2.76846 0
M  V30 3846 C 348.187 -3.33727 -2.74318 0
M  V30 3847 C 347.322 -3.46574 -4.02567 0
M  V30 3848 C 346.361 -4.68159 -3.94327 0
M  V30 3849 N 345.498 -4.77959 -5.14296 0
M  V30 3850 H 350.338 -2.74938 -1.14948 0
M  V30 3851 H 347.875 -1.36166 -0.556538 0
M  V30 3852 H 349.833 -2.1728 -3.56153 0
M  V30 3853 H 348.463 -1.1757 -3.00628 0
M  V30 3854 H 347.515 -3.31246 -1.8703 0
M  V30 3855 H 348.827 -4.23139 -2.64111 0
M  V30 3856 H 347.981 -3.57333 -4.90304 0
M  V30 3857 H 346.72 -2.55245 -4.15574 0
M  V30 3858 H 345.725 -4.57461 -3.04974 0
M  V30 3859 H 346.95 -5.60868 -3.82889 0
M  V30 3860 H 344.896 -3.89544 -5.27818 0
M  V30 3861 H 344.813 -5.6133 -5.06404 0
M  V30 3862 H 346.081 -4.93044 -6.03761 0
M  V30 3863 N 350.31 0.590341 -1.46126 0
M  V30 3864 C 351.556 1.35082 -1.51264 0
M  V30 3865 C 351.889 1.93534 -0.160711 0
M  V30 3866 O 351.164 1.76045 0.826956 0
M  V30 3867 C 351.447 2.48588 -2.6053 0
M  V30 3868 C 351.3 1.95221 -4.05227 0
M  V30 3869 C 352.619 3.50662 -2.6594 0
M  V30 3870 H 349.738 0.489803 -0.550692 0
M  V30 3871 H 352.38 0.663887 -1.78024 0
M  V30 3872 H 350.53 3.07186 -2.37843 0
M  V30 3873 H 352.202 1.41139 -4.39178 0
M  V30 3874 H 350.445 1.26101 -4.15068 0
M  V30 3875 H 351.116 2.77121 -4.77397 0
M  V30 3876 H 353.592 3.01934 -2.86313 0
M  V30 3877 H 352.468 4.27551 -3.44226 0
M  V30 3878 H 352.729 4.07399 -1.71694 0
M  V30 3879 N 351.788 1.33704 0.83433 0
M  V30 3880 C 352.735 1.24335 1.94447 0
M  V30 3881 C 353.705 0.120991 1.65659 0
M  V30 3882 O 354.89 0.300035 1.88426 0
M  V30 3883 C 352.03 0.993124 3.30501 0
M  V30 3884 C 351.143 2.20217 3.71657 0
M  V30 3885 C 350.278 1.88572 4.96602 0
M  V30 3886 C 349.317 3.05683 5.30306 0
M  V30 3887 N 348.454 2.73997 6.46429 0
M  V30 3888 H 353.294 2.1928 2.01792 0
M  V30 3889 H 350.831 1.09035 0.987404 0
M  V30 3890 H 352.789 0.828467 4.08892 0
M  V30 3891 H 351.419 0.0803902 3.227 0
M  V30 3892 H 350.471 2.47642 2.88752 0
M  V30 3893 H 351.783 3.07752 3.92543 0
M  V30 3894 H 350.937 1.68776 5.82752 0
M  V30 3895 H 349.676 0.982799 4.77695 0
M  V30 3896 H 348.681 3.26088 4.42659 0
M  V30 3897 H 349.906 3.96737 5.51159 0
M  V30 3898 H 347.852 1.86268 6.28999 0
M  V30 3899 H 347.769 3.55064 6.67432 0
M  V30 3900 H 349.037 2.57679 7.35678 0
M  V30 3901 N 353.266 -1.05314 1.17247 0
M  V30 3902 C 354.213 -2.13031 0.888058 0
M  V30 3903 C 355.183 -1.65253 -0.167537 0
M  V30 3904 O 356.368 -1.90775 -0.0305974 0
M  V30 3905 C 353.508 -3.42702 0.406147 0
M  V30 3906 C 352.621 -4.04161 1.52572 0
M  V30 3907 C 351.756 -5.21744 0.997808 0
M  V30 3908 C 350.795 -5.75207 2.09291 0
M  V30 3909 N 349.932 -6.84094 1.57986 0
M  V30 3910 H 354.772 -2.36698 1.81048 0
M  V30 3911 H 352.309 -1.16121 0.903013 0
M  V30 3912 H 354.267 -4.17059 0.108305 0
M  V30 3913 H 352.897 -3.19222 -0.479313 0
M  V30 3914 H 351.949 -3.27253 1.93931 0
M  V30 3915 H 353.261 -4.39881 2.35172 0
M  V30 3916 H 352.415 -6.03168 0.653739 0
M  V30 3917 H 351.154 -4.87495 0.141232 0
M  V30 3918 H 350.159 -4.92414 2.44557 0
M  V30 3919 H 351.384 -6.11505 2.95362 0
M  V30 3920 H 349.33 -6.51745 0.74598 0
M  V30 3921 H 349.247 -7.18811 2.34195 0
M  V30 3922 H 350.515 -7.69172 1.26468 0
M  V30 3923 N 354.744 -0.972509 -1.24016 0
M  V30 3924 C 355.993 -0.632603 -1.91523 0
M  V30 3925 C 356.306 0.836641 -1.76804 0
M  V30 3926 O 357.512 1.28728 -2.39043 0
M  V30 3927 C 355.968 -1.08082 -3.43287 0
M  V30 3928 C 355.576 -2.57386 -3.66683 0
M  V30 3929 C 357.32 -0.814288 -4.16617 0
M  V30 3930 C 355.227 -2.95915 -5.12043 0
M  V30 3931 H 354.157 -0.232898 -0.717129 0
M  V30 3932 H 356.808 -1.17936 -1.40582 0
M  V30 3933 H 355.19 -0.462339 -3.93292 0
M  V30 3934 H 356.364 -3.24405 -3.27258 0
M  V30 3935 H 354.679 -2.81701 -3.06649 0
M  V30 3936 H 357.276 -1.0781 -5.23718 0
M  V30 3937 H 357.619 0.24955 -4.15551 0
M  V30 3938 H 358.152 -1.39397 -3.72577 0
M  V30 3939 H 354.891 -4.0139 -5.18234 0
M  V30 3940 H 354.411 -2.33584 -5.52448 0
M  V30 3941 H 356.09 -2.86086 -5.80314 0
M  V30 3942 N 356.222 1.38976 -0.743202 0
M  V30 3943 C 357.462 2.02193 -0.29954 0
M  V30 3944 C 357.826 1.5771 1.09506 0
M  V30 3945 O 359.027 2.13184 1.63726 0
M  V30 3946 C 357.298 3.55077 -0.406822 0
M  V30 3947 S 358.857 4.38778 -0.0442109 0
M  V30 3948 H 355.675 0.701335 -0.116836 0
M  V30 3949 H 358.277 1.69651 -0.971529 0
M  V30 3950 H 356.981 3.84942 -1.42295 0
M  V30 3951 H 356.512 3.92383 0.282707 0
M  V30 3952 H 358.527 4.82222 1.16947 0
M  V30 3953 N 357.7 0.491464 1.49741 0
M  V30 3954 C 358.977 -0.118984 1.95238 0
M  V30 3955 C 359.357 -1.55044 1.43264 0
M  V30 3956 O 358.705 -2.19287 0.642287 0
M  V30 3957 C 358.915 -0.0414187 3.48975 0
M  V30 3958 C 360.263 -0.220133 4.24029 0
M  V30 3959 O 361.287 -0.117055 3.56008 0
M  V30 3960 O 360.146 -0.430567 5.44801 0
M  V30 3961 H 357.24 -0.100536 0.820866 0
M  V30 3962 H 359.786 0.553322 1.60426 0
M  V30 3963 H 358.558 0.957214 3.79412 0
M  V30 3964 H 358.181 -0.754292 3.9038 0
M  V30 3965 N 359.178 -1.55987 0.224894 0
M  V30 3966 C 360.418 -2.00293 -0.407706 0
M  V30 3967 C 360.782 -1.1093 -1.56711 0
M  V30 3968 O 361.983 -1.44597 -2.26595 0
M  V30 3969 C 360.254 -3.47675 -0.82805 0
M  V30 3970 S 361.813 -4.14 -1.45429 0
M  V30 3971 H 358.631 -0.699152 -0.129256 0
M  V30 3972 H 361.233 -1.92609 0.334967 0
M  V30 3973 H 359.937 -4.10392 0.0253964 0
M  V30 3974 H 359.468 -3.59239 -1.60345 0
M  V30 3975 H 361.483 -4.13465 -2.74337 0
M  V30 3976 N 360.656 0.0484629 -1.57525 0
M  V30 3977 C 361.886 0.754326 -1.92337 0
M  V30 3978 C 362.294 1.70443 -0.82132 0
M  V30 3979 O 361.637 1.82466 0.21254 0
M  V30 3980 C 361.699 1.58231 -3.22805 0
M  V30 3981 C 361.363 0.799074 -4.4996 0
M  V30 3982 C 362.36 0.1079 -5.19788 0
M  V30 3983 C 360.045 0.759345 -4.96527 0
M  V30 3984 C 362.039 -0.612516 -6.3445 0
M  V30 3985 C 359.726 0.0351713 -6.1109 0
M  V30 3986 C 360.724 -0.649537 -6.79904 0
M  V30 3987 O 360.412 -1.36199 -7.92278 0
M  V30 3988 H 360.144 0.218257 -0.639797 0
M  V30 3989 H 362.698 0.0159295 -2.05394 0
M  V30 3990 H 360.928 2.36406 -3.06021 0
M  V30 3991 H 362.617 2.16898 -3.43089 0
M  V30 3992 H 363.383 0.129748 -4.84826 0
M  V30 3993 H 359.262 1.28177 -4.42822 0
M  V30 3994 H 362.806 -1.14751 -6.88097 0
M  V30 3995 H 358.703 0.0113314 -6.45499 0
M  V30 3996 H 359.471 -1.27366 -8.0853 0
M  V30 3997 N 362.134 1.5431 0.320358 0
M  V30 3998 C 363.084 1.803 1.39556 0
M  V30 3999 C 364.068 0.659166 1.46778 0
M  V30 4000 O 365.26 0.91926 1.51257 0
M  V30 4001 C 362.389 2.03665 2.76361 0
M  V30 4002 C 361.475 3.24178 2.73439 0
M  V30 4003 N 361.866 4.4516 2.40137 0
M  V30 4004 C 360.164 3.25816 3.04565 0
M  V30 4005 C 360.865 5.27109 2.4603 0
M  V30 4006 N 359.841 4.64368 2.82601 0
M  V30 4007 H 363.643 2.71416 1.12742 0
M  V30 4008 H 361.157 1.53548 0.528856 0
M  V30 4009 H 363.154 2.20425 3.53862 0
M  V30 4010 H 361.814 1.13805 3.04103 0
M  V30 4011 H 362.825 4.72104 2.12927 0
M  V30 4012 H 359.502 2.46001 3.37328 0
M  V30 4013 H 360.892 6.33728 2.23246 0
M  V30 4014 N 363.613 -0.582584 1.46437 0
M  V30 4015 C 364.853 -1.35184 1.53312 0
M  V30 4016 C 365.217 -1.9115 0.180508 0
M  V30 4017 O 366.418 -2.68514 0.124017 0
M  V30 4018 C 364.689 -2.45089 2.60127 0
M  V30 4019 S 366.248 -3.32439 2.86408 0
M  V30 4020 H 363.066 -0.460559 0.54167 0
M  V30 4021 H 365.668 -0.669709 1.83671 0
M  V30 4022 H 364.372 -2.02366 3.57038 0
M  V30 4023 H 363.903 -3.18074 2.315 0
M  V30 4024 H 365.918 -4.43924 2.21688 0
M  V30 4025 N 365.091 -1.34144 -0.827227 0
M  V30 4026 C 366.041 -1.21923 -1.92663 0
M  V30 4027 C 367.025 -0.119294 -1.60457 0
M  V30 4028 O 368.217 -0.348539 -1.73534 0
M  V30 4029 C 365.346 -0.972492 -3.29238 0
M  V30 4030 C 364.432 -2.1154 -3.67576 0
M  V30 4031 N 364.823 -3.36627 -3.77512 0
M  V30 4032 C 363.121 -2.02468 -3.97395 0
M  V30 4033 C 363.822 -4.11658 -4.1099 0
M  V30 4034 N 362.798 -3.40207 -4.23981 0
M  V30 4035 H 366.6 -2.16721 -1.98517 0
M  V30 4036 H 364.114 -1.2632 -1.02064 0
M  V30 4037 H 366.111 -0.865847 -4.0781 0
M  V30 4038 H 364.771 -0.0331509 -3.24683 0
M  V30 4039 H 365.782 -3.71234 -3.61118 0
M  V30 4040 H 362.459 -1.16265 -4.00985 0
M  V30 4041 H 363.849 -5.19657 -4.25918 0
M  V30 4042 N 366.569 1.04691 -1.17803 0
M  V30 4043 C 367.815 1.78045 -0.970969 0
M  V30 4044 C 368.148 1.87686 0.498751 0
M  V30 4045 O 367.423 1.38035 1.37027 0
M  V30 4046 C 367.706 3.2166 -1.61884 0
M  V30 4047 C 367.559 3.20001 -3.161 0
M  V30 4048 C 368.878 4.1962 -1.3269 0
M  V30 4049 H 365.997 0.64633 -0.354155 0
M  V30 4050 H 368.639 1.22333 -1.45378 0
M  V30 4051 H 366.789 3.69232 -1.20831 0
M  V30 4052 H 368.461 2.80467 -3.66246 0
M  V30 4053 H 366.704 2.58203 -3.48588 0
M  V30 4054 H 367.375 4.21386 -3.56564 0
M  V30 4055 H 369.851 3.80567 -1.68249 0
M  V30 4056 H 368.727 5.18339 -1.80599 0
M  V30 4057 H 368.988 4.414 -0.248622 0
M  V30 4058 N 368.047 0.979072 1.23499 0
M  V30 4059 C 369.277 0.664237 1.95631 0
M  V30 4060 C 369.685 -0.772653 1.72704 0
M  V30 4061 O 369.028 -1.53141 1.01457 0
M  V30 4062 C 369.09 0.873115 3.48736 0
M  V30 4063 C 368.754 2.29182 3.95379 0
M  V30 4064 C 369.751 3.2704 4.04155 0
M  V30 4065 C 367.436 2.62256 4.28401 0
M  V30 4066 C 369.43 4.56052 4.45304 0
M  V30 4067 C 367.117 3.91491 4.69231 0
M  V30 4068 C 368.115 4.88201 4.77649 0
M  V30 4069 O 367.803 6.15129 5.17563 0
M  V30 4070 H 367.535 0.245915 0.629684 0
M  V30 4071 H 370.089 1.3127 1.57979 0
M  V30 4072 H 368.319 0.167476 3.86337 0
M  V30 4073 H 370.008 0.555642 4.02079 0
M  V30 4074 H 370.774 3.02819 3.78848 0
M  V30 4075 H 366.653 1.87692 4.21061 0
M  V30 4076 H 370.197 5.31538 4.51789 0
M  V30 4077 H 366.094 4.15508 4.93987 0
M  V30 4078 H 366.862 6.18862 5.35679 0
M  V30 4079 N 369.525 -1.3858 0.750561 0
M  V30 4080 C 370.936 -1.82927 0.373438 0
M  V30 4081 C 371.287 -1.62634 -1.09748 0
M  V30 4082 O 370.412 -1.12588 -1.84805 0
M  V30 4083 C 371.007 -3.32088 0.671029 0
M  V30 4084 C 369.566 -3.74795 0.34722 0
M  V30 4085 C 368.713 -2.61391 0.92575 0
M  V30 4086 H 371.664 -1.27351 0.946958 0
M  V30 4087 H 371.685 -3.80465 -0.0518269 0
M  V30 4088 H 371.197 -3.46826 1.74164 0
M  V30 4089 H 369.298 -3.65638 -0.716933 0
M  V30 4090 H 369.411 -4.71667 0.840656 0
M  V30 4091 H 367.775 -2.52265 0.351327 0
M  V30 4092 H 368.558 -2.78929 2.00133 0
M  V30 4093 N 371.003 -0.499398 -1.49478 0
M  V30 4094 C 372.233 0.0424839 -2.06556 0
M  V30 4095 C 372.641 1.31514 -1.36018 0
M  V30 4096 O 371.984 1.78555 -0.431718 0
M  V30 4097 C 372.046 0.368074 -3.57611 0
M  V30 4098 C 371.71 -0.806631 -4.49825 0
M  V30 4099 C 372.707 -1.69667 -4.91436 0
M  V30 4100 C 370.392 -1.00498 -4.92144 0
M  V30 4101 C 372.386 -2.76923 -5.74101 0
M  V30 4102 C 370.073 -2.08072 -5.74586 0
M  V30 4103 C 371.071 -2.96119 -6.15469 0
M  V30 4104 O 370.759 -4.01836 -6.96264 0
M  V30 4105 H 370.491 -0.0165165 -0.675798 0
M  V30 4106 H 373.045 -0.695497 -1.93267 0
M  V30 4107 H 371.275 1.15963 -3.68903 0
M  V30 4108 H 372.964 0.848381 -3.96935 0
M  V30 4109 H 373.73 -1.55524 -4.59388 0
M  V30 4110 H 369.609 -0.329036 -4.59824 0
M  V30 4111 H 373.153 -3.45676 -6.05932 0
M  V30 4112 H 369.05 -2.22211 -6.06047 0
M  V30 4113 H 369.818 -3.9917 -7.14567 0
M  V30 4114 N 372.481 1.55866 -0.233164 0
M  V30 4115 C 373.892 1.847 0.272554 0
M  V30 4116 C 374.243 1.15477 1.58617 0
M  V30 4117 O 373.368 0.42841 2.12117 0
M  V30 4118 C 373.963 3.35071 0.501299 0
M  V30 4119 C 372.522 3.6418 0.951304 0
M  V30 4120 C 371.669 2.77292 0.0208209 0
M  V30 4121 H 374.62 1.52005 -0.456074 0
M  V30 4122 H 374.641 3.55906 1.34577 0
M  V30 4123 H 374.153 3.85424 -0.454936 0
M  V30 4124 H 372.254 3.19293 1.92049 0
M  V30 4125 H 372.367 4.72071 0.817675 0
M  V30 4126 H 370.731 2.49131 0.529723 0
M  V30 4127 H 371.514 3.30448 -0.93054 0
M  V30 4128 N 373.959 -0.0401083 1.57549 0
M  V30 4129 C 374.907 -1.06264 2.06908 0
M  V30 4130 C 375.901 -1.38132 0.980608 0
M  V30 4131 O 377.107 -1.37167 1.16556 0
M  V30 4132 H 373.482 -0.360166 0.660139 0
M  V30 4133 H 375.453 -0.620445 2.91878 0
M  V30 4134 C 374.202 -2.35846 2.55483 0
M  V30 4135 H 373.525 -2.12183 3.38849 0
M  V30 4136 H 374.965 -3.05765 2.93741 0
M  V30 4137 C 373.424 -3.0404 1.45126 0
M  V30 4138 O 373.954 -3.93424 0.811216 0
M  V30 4139 N 372.16 -2.65184 1.18852 0
M  V30 4140 H 371.707 -1.92584 1.71083 0
M  V30 4141 H 371.665 -3.1113 0.452244 0
M  V30 4142 N 375.437 -1.54477 -0.31217 0
M  V30 4143 C 376.665 -1.77205 -1.068 0
M  V30 4144 C 377.08 -0.526114 -1.81321 0
M  V30 4145 O 376.437 0.503647 -1.75413 0
M  V30 4146 C 376.488 -2.97253 -2.05725 0
M  V30 4147 O 376.209 -4.1703 -1.34228 0
M  V30 4148 C 377.71 -3.32281 -2.93435 0
M  V30 4149 H 374.93 -0.591287 -0.317208 0
M  V30 4150 H 377.474 -2.01398 -0.354834 0
M  V30 4151 H 375.629 -2.753 -2.72559 0
M  V30 4152 H 376.043 -4.84636 -2.00571 0
M  V30 4153 H 377.517 -4.19551 -3.58721 0
M  V30 4154 H 377.994 -2.49945 -3.61143 0
M  V30 4155 H 378.6 -3.56353 -2.32147 0
M  V30 4156 N 376.915 0.57481 -1.46744 0
M  V30 4157 C 377.878 1.66533 -1.57478 0
M  V30 4158 C 378.878 1.54338 -0.451263 0
M  V30 4159 O 380.068 1.58814 -0.715813 0
M  V30 4160 C 377.2 3.05999 -1.50259 0
M  V30 4161 H 378.393 1.58372 -2.54673 0
M  V30 4162 H 375.946 0.793301 -1.34672 0
M  V30 4163 H 376.681 3.19709 -0.543725 0
M  V30 4164 H 376.466 3.16259 -2.31781 0
M  V30 4165 H 377.956 3.8537 -1.60872 0
M  V30 4166 N 378.394 1.34581 0.820102 0
M  V30 4167 C 379.304 1.28471 1.96297 0
M  V30 4168 C 380.32 0.191902 1.72939 0
M  V30 4169 O 381.496 0.418879 1.96996 0
M  V30 4170 C 378.561 1.04281 3.30645 0
M  V30 4171 C 377.622 2.22745 3.66992 0
M  V30 4172 C 376.855 1.997 4.9493 0
M  V30 4173 O 377.078 0.956656 5.6232 0
M  V30 4174 O 376.012 2.86723 5.2922 0
M  V30 4175 H 379.838 2.24624 2.04396 0
M  V30 4176 H 377.423 1.14816 0.955913 0
M  V30 4177 H 379.305 0.925841 4.11104 0
M  V30 4178 H 377.98 0.111697 3.23507 0
M  V30 4179 H 376.887 2.40003 2.86966 0
M  V30 4180 H 378.22 3.14257 3.78819 0
M  V30 4181 N 379.872 -1.04064 1.18357 0
M  V30 4182 C 380.782 -2.15569 0.925596 0
M  V30 4183 C 381.798 -1.7365 -0.110295 0
M  V30 4184 O 382.974 -2.01273 0.0716218 0
M  V30 4185 C 380.039 -3.43704 0.454836 0
M  V30 4186 C 379.1 -4.00004 1.55869 0
M  V30 4187 C 378.333 -5.22023 1.1103 0
M  V30 4188 O 378.556 -5.70392 -0.0309756 0
M  V30 4189 O 377.49 -5.70856 1.90805 0
M  V30 4190 H 381.316 -2.40187 1.8586 0
M  V30 4191 H 378.901 -1.1402 0.965394 0
M  V30 4192 H 380.783 -4.20923 0.200382 0
M  V30 4193 H 379.458 -3.20559 -0.449876 0
M  V30 4194 H 378.365 -3.24172 1.86716 0
M  V30 4195 H 379.698 -4.2749 2.43953 0
M  V30 4196 N 381.35 -0.985608 -1.22978 0
M  V30 4197 C 382.766 -0.695104 -1.43668 0
M  V30 4198 C 382.966 0.736866 -1.87543 0
M  V30 4199 O 382.022 1.50868 -2.02473 0
M  V30 4200 C 383.335 -1.69447 -2.48412 0
M  V30 4201 C 384.883 -1.70909 -2.62219 0
M  V30 4202 C 385.358 -2.6969 -3.70178 0
M  V30 4203 N 386.849 -2.6824 -3.77626 0
M  V30 4204 C 387.584 -3.41339 -4.60733 0
M  V30 4205 N 387.08 -4.24015 -5.4789 0
M  V30 4206 N 388.873 -3.30079 -4.54977 0
M  V30 4207 H 381.024 -1.91054 -0.928016 0
M  V30 4208 H 383.287 -0.823553 -0.469536 0
M  V30 4209 H 382.993 -2.7188 -2.23102 0
M  V30 4210 H 382.867 -1.48147 -3.46889 0
M  V30 4211 H 385.254 -0.691785 -2.86877 0
M  V30 4212 H 385.335 -1.96276 -1.6404 0
M  V30 4213 H 384.979 -3.71566 -3.46268 0
M  V30 4214 H 384.909 -2.41595 -4.67909 0
M  V30 4215 H 387.4 -2.08243 -3.15346 0
M  V30 4216 H 387.713 -4.76636 -6.08308 0
M  V30 4217 H 386.058 -4.28104 -5.47496 0
M  V30 4218 H 389.249 -2.64937 -3.85909 0
M  V30 4219 H 389.422 -3.87308 -5.19516 0
M  V30 4220 N 382.828 1.3818 -0.7579 0
M  V30 4221 C 384.244 1.5353 -0.435972 0
M  V30 4222 C 384.444 1.71961 1.05032 0
M  V30 4223 O 383.5 1.73307 1.83633 0
M  V30 4224 C 384.813 2.73989 -1.23898 0
M  V30 4225 C 386.361 2.87841 -1.22949 0
M  V30 4226 C 386.836 4.11266 -2.01554 0
M  V30 4227 N 388.327 4.18352 -1.98837 0
M  V30 4228 C 389.062 5.12856 -2.5645 0
M  V30 4229 N 388.558 6.13005 -3.22794 0
M  V30 4230 N 390.351 5.05238 -2.46356 0
M  V30 4231 H 382.502 1.24467 -1.7211 0
M  V30 4232 H 384.765 0.604982 -0.729864 0
M  V30 4233 H 384.471 2.66789 -2.29165 0
M  V30 4234 H 384.345 3.67294 -0.858764 0
M  V30 4235 H 386.732 2.9452 -0.184854 0
M  V30 4236 H 386.813 1.95534 -1.64924 0
M  V30 4237 H 386.457 4.05349 -3.06031 0
M  V30 4238 H 386.387 5.02661 -1.5697 0
M  V30 4239 H 388.878 3.46628 -1.50524 0
M  V30 4240 H 389.191 6.81619 -3.64165 0
M  V30 4241 H 387.536 6.13325 -3.2689 0
M  V30 4242 H 390.727 4.25938 -1.9415 0
M  V30 4243 H 390.9 5.78707 -2.91552 0
M  V30 4244 N 384.306 0.507319 1.49211 0
M  V30 4245 C 385.216 -0.272136 2.33016 0
M  V30 4246 C 386.232 -0.961206 1.45041 0
M  V30 4247 O 387.408 -0.941191 1.78055 0
M  V30 4248 C 384.473 -1.31895 3.20631 0
M  V30 4249 C 383.534 -0.642648 4.24463 0
M  V30 4250 C 382.767 -1.63959 5.07891 0
M  V30 4251 O 382.99 -2.87007 4.92933 0
M  V30 4252 O 381.924 -1.19143 5.8999 0
M  V30 4253 H 385.75 0.413982 3.00865 0
M  V30 4254 H 383.335 0.268556 1.46966 0
M  V30 4255 H 385.217 -1.92446 3.7489 0
M  V30 4256 H 383.892 -1.98788 2.5547 0
M  V30 4257 H 382.799 0.00276252 3.741 0
M  V30 4258 H 384.132 -0.0160534 4.92197 0
M  V30 4259 N 385.784 -1.5574 0.241426 0
M  V30 4260 C 387.033 -1.97986 -0.385295 0
M  V30 4261 C 387.346 -1.13267 -1.59468 0
M  V30 4262 O 388.552 -1.45501 -2.2922 0
M  V30 4263 C 387.008 -3.52275 -0.736884 0
M  V30 4264 C 386.616 -4.45726 0.450796 0
M  V30 4265 C 388.36 -4.03189 -1.3281 0
M  V30 4266 C 386.267 -5.91352 0.0756662 0
M  V30 4267 H 385.197 -0.739386 -0.147731 0
M  V30 4268 H 387.848 -1.80308 0.340779 0
M  V30 4269 H 386.23 -3.65628 -1.52094 0
M  V30 4270 H 387.404 -4.44131 1.22819 0
M  V30 4271 H 385.719 -4.05264 0.956573 0
M  V30 4272 H 388.316 -5.09505 -1.62201 0
M  V30 4273 H 388.659 -3.50212 -2.25071 0
M  V30 4274 H 389.192 -3.93141 -0.607069 0
M  V30 4275 H 385.931 -6.48354 0.965272 0
M  V30 4276 H 385.451 -5.96095 -0.665635 0
M  V30 4277 H 387.13 -6.46084 -0.344075 0
M  V30 4278 N 387.262 0.0317525 -1.57568 0
M  V30 4279 C 388.194 1.06073 -2.03178 0
M  V30 4280 C 389.207 1.32627 -0.944132 0
M  V30 4281 O 390.396 1.30162 -1.22148 0
M  V30 4282 C 387.496 2.40297 -2.38978 0
M  V30 4283 C 386.669 2.33137 -3.70089 0
M  V30 4284 C 385.728 3.49787 -3.9311 0
M  V30 4285 O 384.754 3.29403 -4.64201 0
M  V30 4286 N 385.956 4.71562 -3.38541 0
M  V30 4287 H 388.721 0.672006 -2.92069 0
M  V30 4288 H 386.282 0.219745 -1.60402 0
M  V30 4289 H 388.274 3.1705 -2.51518 0
M  V30 4290 H 386.844 2.71024 -1.55771 0
M  V30 4291 H 386.064 1.415 -3.67928 0
M  V30 4292 H 387.352 2.25493 -4.56104 0
M  V30 4293 H 386.75 4.91024 -2.80912 0
M  V30 4294 H 385.307 5.45689 -3.56464 0
M  V30 4295 N 388.74 1.54641 0.303973 0
M  V30 4296 C 389.65 1.88439 1.39743 0
M  V30 4297 C 390.666 0.778239 1.55626 0
M  V30 4298 O 391.842 1.07442 1.70347 0
M  V30 4299 C 388.907 2.12212 2.74166 0
M  V30 4300 C 387.968 3.35936 2.67293 0
M  V30 4301 C 387.201 3.58566 3.95305 0
M  V30 4302 O 387.424 2.84263 4.9452 0
M  V30 4303 O 386.358 4.52078 3.97378 0
M  V30 4304 H 390.184 2.81458 1.14083 0
M  V30 4305 H 387.769 1.40793 0.499768 0
M  V30 4306 H 389.651 2.29067 3.53704 0
M  V30 4307 H 388.326 1.22379 2.99675 0
M  V30 4308 H 387.233 3.24448 1.86237 0
M  V30 4309 H 388.566 4.2589 2.46736 0
M  V30 4310 N 390.218 -0.567019 1.47046 0
M  V30 4311 C 391.466 -1.322 1.52864 0
M  V30 4312 C 391.787 -1.94088 0.188388 0
M  V30 4313 O 391.057 -1.7941 -0.786693 0
M  V30 4314 H 389.637 -0.490894 0.563056 0
M  V30 4315 H 392.299 -0.662879 1.83281 0
M  V30 4316 H 391.395 -2.12062 2.2899 0
M  V30 4317 N 391.696 -1.35014 -0.812953 0
M  V30 4318 C 392.626 -1.30069 -1.93919 0
M  V30 4319 C 393.607 -0.176275 -1.69184 0
M  V30 4320 O 394.792 -0.370227 -1.90638 0
M  V30 4321 C 391.922 -1.06547 -3.30552 0
M  V30 4322 C 390.876 -2.15561 -3.69753 0
M  V30 4323 C 390.202 -1.77214 -5.04479 0
M  V30 4324 C 391.502 -3.57476 -3.808 0
M  V30 4325 H 393.196 -2.24303 -1.98314 0
M  V30 4326 H 390.742 -1.07977 -0.952736 0
M  V30 4327 H 392.695 -1.01729 -4.08937 0
M  V30 4328 H 391.419 -0.0875719 -3.26483 0
M  V30 4329 H 390.078 -2.19466 -2.9365 0
M  V30 4330 H 389.726 -0.780589 -4.96906 0
M  V30 4331 H 389.426 -2.50184 -5.31678 0
M  V30 4332 H 390.95 -1.7391 -5.8531 0
M  V30 4333 H 392.364 -3.55929 -4.4943 0
M  V30 4334 H 390.761 -4.29152 -4.19462 0
M  V30 4335 H 391.831 -3.94091 -2.82525 0
M  V30 4336 N 393.175 1.03435 -1.18907 0
M  V30 4337 C 394.123 2.13703 -0.918353 0
M  V30 4338 C 395.117 1.68947 0.123767 0
M  V30 4339 O 396.323 1.79983 -0.0249701 0
M  V30 4340 H 392.698 0.698112 -0.279542 0
M  V30 4341 H 394.669 2.33731 -1.85506 0
M  V30 4342 C 393.418 3.44542 -0.467532 0
M  V30 4343 H 392.741 3.79394 -1.26095 0
M  V30 4344 H 394.181 4.22812 -0.317164 0
M  V30 4345 C 392.64 3.26829 0.817588 0
M  V30 4346 O 393.17 3.54975 1.88031 0
M  V30 4347 N 391.376 2.80139 0.772677 0
M  V30 4348 H 390.923 2.57434 -0.0923883 0
M  V30 4349 H 390.881 2.68668 1.63294 0
M  V30 4350 N 394.653 0.992116 1.22453 0
M  V30 4351 C 395.881 0.685944 1.95198 0
M  V30 4352 C 396.296 -0.749233 1.73297 0
M  V30 4353 O 395.653 -1.50549 1.03156 0
M  V30 4354 C 395.704 0.981395 3.47924 0
M  V30 4355 O 395.425 2.36018 3.6909 0
M  V30 4356 C 396.926 0.692815 4.37853 0
M  V30 4357 H 394.146 0.253821 0.621141 0
M  V30 4358 H 396.69 1.32668 1.55626 0
M  V30 4359 H 394.845 0.386481 3.85467 0
M  V30 4360 H 395.259 2.45884 4.63294 0
M  V30 4361 H 396.733 0.949818 5.43767 0
M  V30 4362 H 397.21 -0.373181 4.37612 0
M  V30 4363 H 397.816 1.26874 4.05935 0
M  V30 4364 N 396.131 -1.37776 0.765217 0
M  V30 4365 C 397.547 -1.53297 0.444108 0
M  V30 4366 C 397.747 -1.72515 -1.04119 0
M  V30 4367 O 396.803 -1.74278 -1.82711 0
M  V30 4368 C 398.116 -2.73328 1.25349 0
M  V30 4369 C 399.664 -2.87185 1.24473 0
M  V30 4370 C 400.139 -4.10191 2.03733 0
M  V30 4371 N 401.63 -4.17291 2.01053 0
M  V30 4372 C 402.365 -5.11488 2.59166 0
M  V30 4373 N 401.861 -6.11285 3.26041 0
M  V30 4374 N 403.654 -5.03924 2.49032 0
M  V30 4375 H 395.805 -1.23552 1.72768 0
M  V30 4376 H 398.068 -0.601103 0.733062 0
M  V30 4377 H 397.774 -2.6557 2.30577 0
M  V30 4378 H 397.648 -3.66834 0.87823 0
M  V30 4379 H 400.035 -2.94418 0.20047 0
M  V30 4380 H 400.116 -1.94657 1.65959 0
M  V30 4381 H 399.76 -4.0372 3.08176 0
M  V30 4382 H 399.69 -5.01821 1.59633 0
M  V30 4383 H 402.181 -3.45825 1.5236 0
M  V30 4384 H 402.494 -6.79678 3.67774 0
M  V30 4385 H 400.839 -6.11583 3.30138 0
M  V30 4386 H 404.03 -4.24902 1.96407 0
M  V30 4387 H 404.203 -5.77152 2.94617 0
M  V30 4388 N 397.609 -0.515225 -1.4894 0
M  V30 4389 C 398.858 0.0261361 -2.01683 0
M  V30 4390 C 399.171 1.36719 -1.39883 0
M  V30 4391 O 400.377 1.99606 -1.84037 0
M  V30 4392 C 398.833 0.0970111 -3.59769 0
M  V30 4393 C 398.441 -1.23825 -4.30548 0
M  V30 4394 C 400.185 0.587981 -4.20408 0
M  V30 4395 C 398.092 -1.12877 -5.80528 0
M  V30 4396 H 397.022 0.0135398 -0.753878 0
M  V30 4397 H 399.673 -0.656787 -1.71343 0
M  V30 4398 H 398.055 0.844694 -3.86886 0
M  V30 4399 H 399.229 -2.00034 -4.15118 0
M  V30 4400 H 397.544 -1.66379 -3.81716 0
M  V30 4401 H 400.141 0.68763 -5.3026 0
M  V30 4402 H 400.484 1.59026 -3.84729 0
M  V30 4403 H 401.017 -0.103582 -3.97665 0
M  V30 4404 H 397.756 -2.10575 -6.20756 0
M  V30 4405 H 397.276 -0.407799 -5.98412 0
M  V30 4406 H 398.955 -0.813332 -6.41868 0
M  V30 4407 N 399.087 1.5561 -0.249682 0
M  V30 4408 C 400.019 2.18834 0.681496 0
M  V30 4409 C 401.032 1.16546 1.1367 0
M  V30 4410 O 402.221 1.43397 1.06299 0
M  V30 4411 C 399.321 2.77992 1.9384 0
M  V30 4412 C 398.494 4.05725 1.63419 0
M  V30 4413 C 397.553 4.49174 2.74096 0
M  V30 4414 O 396.579 5.15492 2.41364 0
M  V30 4415 N 397.781 4.17191 4.03649 0
M  V30 4416 H 400.546 2.9937 0.140514 0
M  V30 4417 H 398.107 1.6175 -0.0697541 0
M  V30 4418 H 400.099 3.04015 2.67127 0
M  V30 4419 H 398.669 2.01596 2.38909 0
M  V30 4420 H 397.889 3.87261 0.736358 0
M  V30 4421 H 399.177 4.88999 1.40562 0
M  V30 4422 H 398.575 3.63955 4.33074 0
M  V30 4423 H 397.132 4.48043 4.73393 0
M  V30 4424 N 400.565 -0.0233959 1.57583 0
M  V30 4425 C 401.842 -0.748794 1.807 0
M  V30 4426 C 402.222 -1.9327 0.849106 0
M  V30 4427 O 401.57 -2.28247 -0.107468 0
M  V30 4428 C 401.78 -1.17651 3.28571 0
M  V30 4429 C 403.128 -1.59008 3.93702 0
M  V30 4430 O 404.152 -1.27094 3.32755 0
M  V30 4431 O 403.011 -2.18264 5.01022 0
M  V30 4432 H 400.105 -0.362578 0.743281 0
M  V30 4433 H 402.651 0.000261958 1.697 0
M  V30 4434 H 401.423 -0.331603 3.89892 0
M  V30 4435 H 401.046 -1.98541 3.44481 0
M  V30 4436 N 402.043 -1.548 -0.295768 0
M  V30 4437 C 402.973 -1.89115 -1.36959 0
M  V30 4438 C 403.954 -0.75059 -1.52644 0
M  V30 4439 O 405.139 -1.00678 -1.66065 0
M  V30 4440 C 402.269 -2.14307 -2.73295 0
M  V30 4441 C 401.223 -3.30151 -2.72368 0
M  V30 4442 C 400.549 -3.40772 -4.12042 0
M  V30 4443 C 401.849 -4.67126 -2.33646 0
M  V30 4444 H 403.543 -2.79053 -1.08488 0
M  V30 4445 H 401.089 -1.34266 -0.520443 0
M  V30 4446 H 403.042 -2.36898 -3.48507 0
M  V30 4447 H 401.766 -1.21145 -3.03301 0
M  V30 4448 H 400.425 -3.0749 -1.99613 0
M  V30 4449 H 400.073 -2.45117 -4.39234 0
M  V30 4450 H 399.773 -4.18645 -4.12322 0
M  V30 4451 H 401.297 -3.6563 -4.89027 0
M  V30 4452 H 402.711 -4.89414 -2.98575 0
M  V30 4453 H 401.108 -5.47751 -2.45129 0
M  V30 4454 H 402.178 -4.67489 -1.28772 0
M  V30 4455 N 403.521 0.559213 -1.47345 0
M  V30 4456 C 404.751 1.33999 -1.57251 0
M  V30 4457 C 405.159 1.87905 -0.220978 0
M  V30 4458 O 404.502 1.65577 0.795617 0
M  V30 4459 C 404.564 2.54798 -2.53611 0
M  V30 4460 C 404.228 2.22192 -3.99349 0
M  V30 4461 C 405.225 1.79607 -4.87891 0
M  V30 4462 C 402.91 2.33613 -4.44669 0
M  V30 4463 C 404.904 1.48868 -6.19772 0
M  V30 4464 C 402.591 2.02487 -5.76578 0
M  V30 4465 C 403.589 1.60183 -6.63951 0
M  V30 4466 O 403.277 1.29451 -7.93409 0
M  V30 4467 H 403.009 0.414858 -0.533731 0
M  V30 4468 H 405.563 0.684465 -1.9366 0
M  V30 4469 H 403.793 3.23235 -2.12265 0
M  V30 4470 H 405.482 3.16873 -2.53666 0
M  V30 4471 H 406.248 1.70278 -4.54126 0
M  V30 4472 H 402.127 2.65501 -3.76869 0
M  V30 4473 H 405.671 1.15775 -6.87926 0
M  V30 4474 H 401.568 2.11448 -6.09885 0
M  V30 4475 H 402.336 1.43098 -8.05894 0
M  V30 4476 N 404.999 1.35443 0.805782 0
M  V30 4477 C 406.227 1.31878 1.59423 0
M  V30 4478 C 406.642 -0.103562 1.88516 0
M  V30 4479 O 405.999 -1.05575 1.48863 0
M  V30 4480 C 406.05 2.12426 2.92502 0
M  V30 4481 O 405.771 3.49115 2.6467 0
M  V30 4482 C 407.272 2.16455 3.86862 0
M  V30 4483 H 404.492 0.453002 0.495005 0
M  V30 4484 H 407.036 1.78309 1.00131 0
M  V30 4485 H 405.191 1.69593 3.48306 0
M  V30 4486 H 405.605 3.90957 3.49647 0
M  V30 4487 H 407.079 2.77204 4.77349 0
M  V30 4488 H 407.556 1.16352 4.23508 0
M  V30 4489 H 408.162 2.59453 3.36993 0
M  V30 4490 N 406.477 -1.02803 1.19454 0
M  V30 4491 C 407.723 -1.76478 0.999171 0
M  V30 4492 C 408.056 -1.88456 -0.468828 0
M  V30 4493 O 407.331 -1.40198 -1.34814 0
M  V30 4494 C 407.614 -3.19044 1.66981 0
M  V30 4495 C 407.467 -3.14932 3.21151 0
M  V30 4496 C 408.786 -4.17456 1.39349 0
M  V30 4497 H 405.905 -0.640614 0.364393 0
M  V30 4498 H 408.547 -1.20005 1.47305 0
M  V30 4499 H 406.697 -3.67263 1.2669 0
M  V30 4500 H 408.369 -2.74605 3.70661 0
M  V30 4501 H 406.612 -2.52625 3.52652 0
M  V30 4502 H 407.283 -4.1566 3.63223 0
M  V30 4503 H 409.759 -3.77842 1.74283 0
M  V30 4504 H 408.635 -5.154 1.88823 0
M  V30 4505 H 408.896 -4.40949 0.318813 0
M  V30 4506 N 407.956 -0.998596 -1.21925 0
M  V30 4507 C 408.886 -0.573688 -2.26343 0
M  V30 4508 C 409.867 0.402296 -1.65274 0
M  V30 4509 O 411.052 0.291683 -1.91997 0
M  V30 4510 C 408.182 0.106839 -3.47136 0
M  V30 4511 C 407.136 -0.788269 -4.20678 0
M  V30 4512 C 406.462 0.0254927 -5.34694 0
M  V30 4513 C 407.762 -2.08784 -4.78755 0
M  V30 4514 H 409.456 -1.44651 -2.62138 0
M  V30 4515 H 407.002 -0.696975 -1.26009 0
M  V30 4516 H 408.955 0.415531 -4.19346 0
M  V30 4517 H 407.679 1.01424 -3.10452 0
M  V30 4518 H 406.338 -1.08069 -3.50309 0
M  V30 4519 H 405.986 0.933989 -4.94253 0
M  V30 4520 H 405.686 -0.570437 -5.84825 0
M  V30 4521 H 407.21 0.328147 -6.09718 0
M  V30 4522 H 408.624 -1.84272 -5.42878 0
M  V30 4523 H 407.021 -2.63307 -5.39249 0
M  V30 4524 H 408.091 -2.76284 -3.98491 0
M  V30 4525 N 409.434 1.37368 -0.772513 0
M  V30 4526 C 410.384 2.27613 -0.132823 0
M  V30 4527 C 411.368 1.46138 0.673247 0
M  V30 4528 O 412.56 1.68686 0.536095 0
M  V30 4529 C 409.689 3.35122 0.744864 0
M  V30 4530 C 408.775 4.24044 -0.0690771 0
M  V30 4531 N 409.166 4.93355 -1.1151 0
M  V30 4532 C 407.464 4.45731 0.154782 0
M  V30 4533 C 408.165 5.59 -1.60917 0
M  V30 4534 N 407.141 5.35737 -0.921222 0
M  V30 4535 H 410.943 2.78675 -0.933681 0
M  V30 4536 H 408.457 1.50494 -0.610342 0
M  V30 4537 H 410.454 3.98683 1.21892 0
M  V30 4538 H 409.114 2.85616 1.54446 0
M  V30 4539 H 410.125 4.95785 -1.49726 0
M  V30 4540 H 406.802 4.07096 0.926224 0
M  V30 4541 H 408.192 6.24395 -2.48153 0
M  V30 4542 N 410.912 0.523116 1.48665 0
M  V30 4543 C 411.859 -0.243398 2.29513 0
M  V30 4544 C 412.829 -0.940139 1.36933 0
M  V30 4545 O 414.014 -0.942503 1.65896 0
M  V30 4546 C 411.154 -1.28855 3.20141 0
M  V30 4547 C 410.267 -0.60135 4.27794 0
M  V30 4548 C 409.402 -1.62884 5.05611 0
M  V30 4549 C 408.441 -0.924726 6.05075 0
M  V30 4550 N 407.578 -1.89744 6.75975 0
M  V30 4551 H 412.418 0.452234 2.94549 0
M  V30 4552 H 409.955 0.234858 1.45213 0
M  V30 4553 H 411.913 -1.90674 3.71079 0
M  V30 4554 H 410.543 -1.95266 2.57043 0
M  V30 4555 H 409.595 0.130623 3.80176 0
M  V30 4556 H 410.907 -0.0481585 4.98777 0
M  V30 4557 H 410.061 -2.32149 5.60528 0
M  V30 4558 H 408.8 -2.21592 4.34452 0
M  V30 4559 H 407.805 -0.217966 5.49368 0
M  V30 4560 H 409.03 -0.343851 6.78229 0
M  V30 4561 H 406.976 -2.47373 6.07571 0
M  V30 4562 H 406.893 -1.3955 7.43009 0
M  V30 4563 H 408.161 -2.58229 7.35485 0
M  V30 4564 N 412.39 -1.55475 0.257931 0
M  V30 4565 C 413.618 -2.03609 -0.367559 0
M  V30 4566 C 414.033 -1.13687 -1.50734 0
M  V30 4567 O 413.39 -0.153479 -1.81853 0
M  V30 4568 C 413.441 -3.51001 -0.864908 0
M  V30 4569 O 413.162 -4.37499 0.229465 0
M  V30 4570 C 414.663 -4.14946 -1.55997 0
M  V30 4571 H 411.883 -0.665459 -0.0860521 0
M  V30 4572 H 414.427 -2.00843 0.385014 0
M  V30 4573 H 412.582 -3.54266 -1.56762 0
M  V30 4574 H 412.996 -5.24286 -0.14998 0
M  V30 4575 H 414.47 -5.19735 -1.85956 0
M  V30 4576 H 414.947 -3.6209 -2.4857 0
M  V30 4577 H 415.553 -4.15635 -0.901543 0
M  V30 4578 N 413.868 0.0150385 -1.57593 0
M  V30 4579 C 414.778 1.02791 -2.10882 0
M  V30 4580 C 415.794 1.38702 -1.0506 0
M  V30 4581 O 416.97 1.47739 -1.36877 0
M  V30 4582 C 414.035 2.30568 -2.58919 0
M  V30 4583 C 413.096 2.01108 -3.79281 0
M  V30 4584 C 412.329 3.22794 -4.25018 0
M  V30 4585 O 412.552 4.33959 -3.70183 0
M  V30 4586 O 411.486 3.07672 -5.17322 0
M  V30 4587 H 415.312 0.604973 -2.97613 0
M  V30 4588 H 412.897 0.23292 -1.47573 0
M  V30 4589 H 414.779 3.05662 -2.90084 0
M  V30 4590 H 413.454 2.72129 -1.75293 0
M  V30 4591 H 412.361 1.23537 -3.53114 0
M  V30 4592 H 413.694 1.64394 -4.63935 0
M  V30 4593 N 415.346 1.54954 0.287554 0
M  V30 4594 C 416.623 1.65569 1.04146 0
M  V30 4595 C 417.003 0.512672 2.0478 0
M  V30 4596 O 416.351 -0.489038 2.23205 0
M  V30 4597 C 416.561 3.04163 1.71131 0
M  V30 4598 C 417.909 3.61429 2.22832 0
M  V30 4599 O 418.933 3.06702 1.81141 0
M  V30 4600 O 417.792 4.57281 2.9926 0
M  V30 4601 H 414.886 0.671881 0.482188 0
M  V30 4602 H 417.432 1.67297 0.28457 0
M  V30 4603 H 416.204 3.78796 0.981303 0
M  V30 4604 H 415.827 3.06271 2.53543 0
M  V30 4605 N 416.824 -0.551391 1.4764 0
M  V30 4606 C 418.054 -1.33163 1.57959 0
M  V30 4607 C 418.462 -1.87785 0.23094 0
M  V30 4608 O 417.805 -1.65996 -0.786825 0
M  V30 4609 C 417.867 -2.53449 2.54958 0
M  V30 4610 C 417.531 -2.20071 4.00522 0
M  V30 4611 C 418.528 -1.77017 4.88836 0
M  V30 4612 C 416.213 -2.31252 4.45901 0
M  V30 4613 C 418.207 -1.4558 6.20552 0
M  V30 4614 C 415.894 -1.99427 5.77644 0
M  V30 4615 C 416.892 -1.56659 6.64791 0
M  V30 4616 O 416.58 -1.25242 7.94084 0
M  V30 4617 H 416.312 -0.412022 0.535923 0
M  V30 4618 H 418.866 -0.674186 1.9402 0
M  V30 4619 H 417.096 -3.22104 2.13976 0
M  V30 4620 H 418.785 -3.15523 2.55343 0
M  V30 4621 H 419.551 -1.67867 4.55023 0
M  V30 4622 H 415.43 -2.63498 3.78272 0
M  V30 4623 H 418.974 -1.12125 6.8853 0
M  V30 4624 H 414.871 -2.08211 6.10998 0
M  V30 4625 H 415.639 -1.38822 8.06642 0
M  V30 4626 N 418.302 -1.35869 -0.798587 0
M  V30 4627 C 419.232 -1.32118 -1.92528 0
M  V30 4628 C 420.213 -0.194209 -1.68988 0
M  V30 4629 O 421.398 -0.390426 -1.90235 0
M  V30 4630 C 418.528 -1.10047 -3.29404 0
M  V30 4631 C 417.482 -2.19471 -3.67446 0
M  V30 4632 C 416.808 -1.82555 -5.02571 0
M  V30 4633 C 418.108 -3.61495 -3.76987 0
M  V30 4634 H 419.802 -2.26394 -1.95924 0
M  V30 4635 H 417.348 -1.08981 -0.94123 0
M  V30 4636 H 419.301 -1.06061 -4.07835 0
M  V30 4637 H 418.025 -0.122195 -3.26371 0
M  V30 4638 H 416.684 -2.22568 -2.91306 0
M  V30 4639 H 416.332 -0.833249 -4.9605 0
M  V30 4640 H 416.032 -2.5581 -5.28995 0
M  V30 4641 H 417.556 -1.80108 -5.83432 0
M  V30 4642 H 418.97 -3.60676 -4.4563 0
M  V30 4643 H 417.367 -4.33577 -4.14887 0
M  V30 4644 H 418.437 -3.97065 -2.78329 0
M  V30 4645 N 419.78 1.02168 -1.19998 0
M  V30 4646 C 421.196 1.27969 -0.953737 0
M  V30 4647 C 421.396 1.98079 0.369703 0
M  V30 4648 O 420.452 2.27306 1.09947 0
M  V30 4649 C 421.765 2.11971 -2.13281 0
M  V30 4650 C 423.313 2.25255 -2.17323 0
M  V30 4651 C 423.788 3.12632 -3.34702 0
M  V30 4652 N 425.279 3.2022 -3.34684 0
M  V30 4653 C 426.014 3.88039 -4.22153 0
M  V30 4654 N 425.51 4.58027 -5.19791 0
M  V30 4655 N 427.303 3.84511 -4.10009 0
M  V30 4656 H 419.454 0.550794 -2.05134 0
M  V30 4657 H 421.717 0.305683 -0.897364 0
M  V30 4658 H 421.423 1.67785 -3.09097 0
M  V30 4659 H 421.297 3.12699 -2.10949 0
M  V30 4660 H 423.684 2.68667 -1.22073 0
M  V30 4661 H 423.765 1.24053 -2.23706 0
M  V30 4662 H 423.409 2.69926 -4.30235 0
M  V30 4663 H 423.339 4.13909 -3.25556 0
M  V30 4664 H 425.83 2.70382 -2.64012 0
M  V30 4665 H 426.143 5.07429 -5.82868 0
M  V30 4666 H 424.488 4.56869 -5.23733 0
M  V30 4667 H 427.679 3.28978 -3.33003 0
M  V30 4668 H 427.852 4.3709 -4.78389 0
M  V30 4669 N 421.258 1.00505 1.21394 0
M  V30 4670 C 422.19 0.52372 2.23136 0
M  V30 4671 C 423.203 -0.387714 1.58116 0
M  V30 4672 O 424.392 -0.187905 1.77508 0
M  V30 4673 C 421.492 -0.258885 3.3791 0
M  V30 4674 C 420.665 0.651634 4.32519 0
M  V30 4675 C 419.724 -0.0813705 5.26137 0
M  V30 4676 O 418.75 0.537295 5.66658 0
M  V30 4677 N 419.952 -1.35992 5.64346 0
M  V30 4678 H 422.717 1.39865 2.65062 0
M  V30 4679 H 420.278 0.881196 1.35818 0
M  V30 4680 H 422.27 -0.758208 3.97534 0
M  V30 4681 H 420.84 -1.035 2.94968 0
M  V30 4682 H 420.06 1.33145 3.71034 0
M  V30 4683 H 421.348 1.27129 4.92662 0
M  V30 4684 H 420.746 -1.88368 5.33417 0
M  V30 4685 H 419.303 -1.8042 6.26332 0
M  V30 4686 N 422.737 -1.36956 0.779787 0
M  V30 4687 C 423.983 -1.99787 0.348281 0
M  V30 4688 C 424.316 -1.61756 -1.07465 0
M  V30 4689 O 423.591 -0.867639 -1.74075 0
M  V30 4690 C 423.874 -3.56597 0.50104 0
M  V30 4691 C 423.727 -4.04513 1.96697 0
M  V30 4692 C 425.046 -4.40008 -0.0898097 0
M  V30 4693 H 422.165 -0.725796 0.128022 0
M  V30 4694 H 424.807 -1.62514 0.984331 0
M  V30 4695 H 422.957 -3.88479 -0.0404347 0
M  V30 4696 H 424.629 -3.83161 2.56876 0
M  V30 4697 H 422.872 -3.56408 2.47297 0
M  V30 4698 H 423.543 -5.1352 2.02486 0
M  V30 4699 H 426.019 -4.14431 0.372293 0
M  V30 4700 H 424.895 -5.4888 0.0471605 0
M  V30 4701 H 425.156 -4.26035 -1.18096 0
M  V30 4702 N 424.215 -0.530993 -1.48385 0
M  V30 4703 C 425.145 0.219985 -2.32461 0
M  V30 4704 C 426.126 0.934111 -1.42156 0
M  V30 4705 O 427.311 0.919694 -1.71042 0
M  V30 4706 C 424.441 1.26674 -3.23375 0
M  V30 4707 C 423.395 0.67069 -4.22712 0
M  V30 4708 C 422.721 1.82017 -5.02766 0
M  V30 4709 C 424.021 -0.358268 -5.2107 0
M  V30 4710 H 425.715 -0.48187 -2.95497 0
M  V30 4711 H 423.261 -0.233182 -1.42099 0
M  V30 4712 H 425.214 1.80006 -3.81019 0
M  V30 4713 H 423.938 1.99818 -2.58341 0
M  V30 4714 H 422.597 0.158878 -3.66256 0
M  V30 4715 H 422.245 2.54002 -4.34157 0
M  V30 4716 H 421.945 1.42727 -5.70003 0
M  V30 4717 H 423.469 2.35725 -5.63264 0
M  V30 4718 H 424.883 0.0880081 -5.73232 0
M  V30 4719 H 423.28 -0.66861 -5.96364 0
M  V30 4720 H 424.35 -1.26367 -4.68145 0
M  V30 4721 N 425.693 1.55336 -0.266172 0
M  V30 4722 C 426.933 2.01303 0.354459 0
M  V30 4723 C 427.297 1.15046 1.53715 0
M  V30 4724 O 428.498 1.50554 2.22681 0
M  V30 4725 C 426.769 3.49748 0.735579 0
M  V30 4726 S 428.328 4.1771 1.34401 0
M  V30 4727 H 425.146 0.702333 0.110674 0
M  V30 4728 H 427.748 1.91653 -0.385916 0
M  V30 4729 H 426.452 4.10181 -0.134196 0
M  V30 4730 H 425.983 3.63364 1.50764 0
M  V30 4731 H 427.998 4.20594 2.63278 0
M  V30 4732 N 427.171 -0.0066808 1.57599 0
M  V30 4733 C 428.118 -1.00024 2.08 0
M  V30 4734 C 429.088 -1.34549 0.973943 0
M  V30 4735 O 430.273 -1.44502 1.24595 0
M  V30 4736 C 427.413 -2.2891 2.58252 0
M  V30 4737 C 426.526 -2.00346 3.82734 0
M  V30 4738 C 425.661 -3.23265 4.21513 0
M  V30 4739 C 424.7 -2.90357 5.3885 0
M  V30 4740 N 423.837 -4.05793 5.72954 0
M  V30 4741 H 428.677 -0.563499 2.92624 0
M  V30 4742 H 426.214 -0.266592 1.44664 0
M  V30 4743 H 428.172 -3.04247 2.85464 0
M  V30 4744 H 426.802 -2.70265 1.76512 0
M  V30 4745 H 425.854 -1.15406 3.62471 0
M  V30 4746 H 427.166 -1.72086 4.68175 0
M  V30 4747 H 426.32 -4.06953 4.49971 0
M  V30 4748 H 425.059 -3.54657 3.34768 0
M  V30 4749 H 424.064 -2.05075 5.10122 0
M  V30 4750 H 425.289 -2.60219 6.27266 0
M  V30 4751 H 423.235 -4.37094 4.89167 0
M  V30 4752 H 423.152 -3.81034 6.52954 0
M  V30 4753 H 424.42 -4.90289 6.06001 0
M  V30 4754 N 428.649 -1.55105 -0.279332 0
M  V30 4755 C 429.612 -1.86783 -1.32834 0
M  V30 4756 C 430.612 -0.74199 -1.42657 0
M  V30 4757 O 431.802 -1.0102 -1.41918 0
M  V30 4758 C 428.934 -2.06746 -2.71052 0
M  V30 4759 H 430.127 -2.8055 -1.05979 0
M  V30 4760 H 427.68 -1.47499 -0.517087 0
M  V30 4761 H 428.415 -1.15339 -3.03097 0
M  V30 4762 H 428.2 -2.88711 -2.65309 0
M  V30 4763 H 429.69 -2.32549 -3.46858 0
M  V30 4764 N 430.127 0.543554 -1.4793 0
M  V30 4765 C 431.09 1.63156 -1.60975 0
M  V30 4766 C 432.09 1.53346 -0.483899 0
M  V30 4767 O 433.28 1.5726 -0.749339 0
M  V30 4768 C 430.412 3.02743 -1.56716 0
M  V30 4769 H 431.605 1.52934 -2.57975 0
M  V30 4770 H 429.158 0.764557 -1.36324 0
M  V30 4771 H 429.893 3.18484 -0.611418 0
M  V30 4772 H 429.678 3.11272 -2.38438 0
M  V30 4773 H 431.168 3.81871 -1.6901 0
M  V30 4774 N 431.605 1.3629 0.791371 0
M  V30 4775 C 432.515 1.32606 1.93527 0
M  V30 4776 C 433.531 0.228541 1.72493 0
M  V30 4777 O 434.707 0.460571 1.96063 0
M  V30 4778 C 431.772 1.11271 3.28359 0
M  V30 4779 C 430.833 2.3048 3.62185 0
M  V30 4780 C 430.066 2.10154 4.90583 0
M  V30 4781 O 430.289 1.07572 5.60165 0
M  V30 4782 O 429.223 2.97884 5.23019 0
M  V30 4783 H 433.049 2.28909 1.99585 0
M  V30 4784 H 430.634 1.16818 0.931344 0
M  V30 4785 H 432.516 1.01283 4.09047 0
M  V30 4786 H 431.191 0.180292 3.23198 0
M  V30 4787 H 430.098 2.46036 2.81811 0
M  V30 4788 H 431.431 3.22221 3.72068 0
M  V30 4789 N 433.083 -1.0153 1.20538 0
M  V30 4790 C 434.308 -1.79283 1.04271 0
M  V30 4791 C 434.733 -1.8372 -0.403544 0
M  V30 4792 O 434.091 -1.27321 -1.2907 0
M  V30 4793 C 434.139 -3.21535 1.63241 0
M  V30 4794 O 433.243 -4.03099 0.870908 0
M  V30 4795 H 432.584 -0.55293 0.367647 0
M  V30 4796 H 435.114 -1.27696 1.59859 0
M  V30 4797 H 435.124 -3.72243 1.6703 0
M  V30 4798 H 433.799 -3.1762 2.68497 0
M  V30 4799 H 432.376 -3.61693 0.907323 0
M  V30 4800 N 434.561 -1.01147 -1.20859 0
M  V30 4801 C 435.807 -0.698899 -1.90377 0
M  V30 4802 C 436.14 0.76904 -1.78324 0
M  V30 4803 O 435.415 1.55817 -1.16409 0
M  V30 4804 C 435.698 -1.12878 -3.41951 0
M  V30 4805 C 435.551 -2.65665 -3.62963 0
M  V30 4806 C 436.87 -0.696114 -4.3456 0
M  V30 4807 H 433.989 -0.255372 -0.691342 0
M  V30 4808 H 436.631 -1.25831 -1.42361 0
M  V30 4809 H 434.781 -0.652827 -3.82976 0
M  V30 4810 H 436.453 -3.21074 -3.31224 0
M  V30 4811 H 434.696 -3.06878 -3.06608 0
M  V30 4812 H 435.367 -2.90797 -4.69192 0
M  V30 4813 H 437.843 -1.10521 -4.01154 0
M  V30 4814 H 436.719 -1.025 -5.39245 0
M  V30 4815 H 436.98 0.402465 -4.40264 0
M  V30 4816 N 436.039 1.36541 -0.78704 0
M  V30 4817 C 437.269 2.03266 -0.369662 0
M  V30 4818 C 437.677 1.59481 1.01796 0
M  V30 4819 O 437.02 0.778612 1.66383 0
M  V30 4820 C 437.082 3.57779 -0.351371 0
M  V30 4821 C 436.746 4.24756 -1.68617 0
M  V30 4822 C 437.743 4.47811 -2.64124 0
M  V30 4823 C 435.428 4.62277 -1.96481 0
M  V30 4824 C 437.422 5.07464 -3.85693 0
M  V30 4825 C 435.109 5.21649 -3.18317 0
M  V30 4826 C 436.107 5.44182 -4.12741 0
M  V30 4827 O 435.795 6.02307 -5.32429 0
M  V30 4828 H 435.527 0.658977 -0.150751 0
M  V30 4829 H 438.081 1.75548 -1.0664 0
M  V30 4830 H 436.311 3.84606 0.401847 0
M  V30 4831 H 438 4.05879 0.0410147 0
M  V30 4832 H 438.766 4.19221 -2.43883 0
M  V30 4833 H 434.645 4.44065 -1.23805 0
M  V30 4834 H 438.189 5.24968 -4.59407 0
M  V30 4835 H 434.086 5.49664 -3.38437 0
M  V30 4836 H 434.854 6.20775 -5.33461 0
M  V30 4837 N 437.518 0.538854 1.48102 0
M  V30 4838 C 438.743 0.0102694 2.07397 0
M  V30 4839 C 439.168 -1.26562 1.39153 0
M  V30 4840 O 438.526 -1.75357 0.460387 0
M  V30 4841 C 438.574 -0.187602 3.60112 0
M  V30 4842 O 437.678 -1.25432 3.92862 0
M  V30 4843 H 437.019 0.0430975 0.6626 0
M  V30 4844 H 439.549 0.749301 1.90385 0
M  V30 4845 H 439.559 -0.407517 4.0596 0
M  V30 4846 H 438.234 0.744386 4.09184 0
M  V30 4847 H 436.811 -1.01636 3.58782 0
M  V30 4848 N 438.996 -1.55193 0.274407 0
M  V30 4849 C 440.412 -1.59401 -0.0797543 0
M  V30 4850 C 440.612 -1.29162 -1.54659 0
M  V30 4851 O 439.668 -1.05215 -2.29534 0
M  V30 4852 C 440.981 -2.99257 0.294238 0
M  V30 4853 C 442.529 -3.12072 0.240796 0
M  V30 4854 C 443.004 -4.54194 0.589218 0
M  V30 4855 N 444.495 -4.60033 0.540744 0
M  V30 4856 C 445.23 -5.68027 0.783147 0
M  V30 4857 N 444.726 -6.8417 1.09013 0
M  V30 4858 N 446.519 -5.57572 0.711993 0
M  V30 4859 H 438.67 -1.73113 1.23067 0
M  V30 4860 H 440.933 -0.807197 0.497129 0
M  V30 4861 H 440.639 -3.26217 1.31435 0
M  V30 4862 H 440.513 -3.75427 -0.365281 0
M  V30 4863 H 442.9 -2.84877 -0.770024 0
M  V30 4864 H 442.981 -2.38117 0.934563 0
M  V30 4865 H 442.625 -4.82115 1.59772 0
M  V30 4866 H 442.555 -5.26448 -0.126331 0
M  V30 4867 H 445.046 -3.76599 0.313327 0
M  V30 4868 H 445.359 -7.6243 1.26178 0
M  V30 4869 H 443.704 -6.85787 1.12789 0
M  V30 4870 H 446.895 -4.65714 0.472014 0
M  V30 4871 H 447.068 -6.41659 0.90429 0
M  V30 4872 N 440.474 -0.00167713 -1.576 0
M  V30 4873 C 441.72 0.683832 -1.90923 0
M  V30 4874 C 442.053 1.7333 -0.875799 0
M  V30 4875 O 441.328 1.94215 0.10525 0
M  V30 4876 C 441.611 1.32543 -3.3482 0
M  V30 4877 C 441.464 0.287387 -4.48881 0
M  V30 4878 C 442.783 2.25114 -3.78169 0
M  V30 4879 H 439.902 0.247125 -0.694333 0
M  V30 4880 H 442.544 -0.0533149 -1.89925 0
M  V30 4881 H 440.694 1.95372 -3.35801 0
M  V30 4882 H 442.366 -0.341346 -4.60035 0
M  V30 4883 H 440.609 -0.39017 -4.32042 0
M  V30 4884 H 441.28 0.775393 -5.46527 0
M  V30 4885 H 443.756 1.723 -3.7875 0
M  V30 4886 H 442.632 2.66971 -4.79602 0
M  V30 4887 H 442.893 3.13092 -3.12131 0
M  V30 4888 N 441.952 1.55251 0.271103 0
M  V30 4889 C 443.201 1.75151 1.00025 0
M  V30 4890 C 443.514 0.561041 1.87381 0
M  V30 4891 O 444.72 0.642506 2.63788 0
M  V30 4892 C 443.176 3.09999 1.82835 0
M  V30 4893 C 442.784 4.3662 1.00336 0
M  V30 4894 C 444.528 3.39249 2.55168 0
M  V30 4895 C 442.435 5.62506 1.82595 0
M  V30 4896 H 441.365 0.652877 0.377183 0
M  V30 4897 H 444.016 1.81708 0.255843 0
M  V30 4898 H 442.398 2.97485 2.61378 0
M  V30 4899 H 443.572 4.60055 0.261959 0
M  V30 4900 H 441.887 4.14527 0.394486 0
M  V30 4901 H 444.484 4.3051 3.1712 0
M  V30 4902 H 444.827 2.59467 3.2555 0
M  V30 4903 H 445.36 3.52869 1.83653 0
M  V30 4904 H 442.099 6.45041 1.16631 0
M  V30 4905 H 441.619 5.43211 2.54327 0
M  V30 4906 H 443.298 6.00875 2.39913 0
M  V30 4907 N 443.43 -0.535701 1.48216 0
M  V30 4908 C 444.362 -1.65662 1.58394 0
M  V30 4909 C 445.375 -1.5591 0.468607 0
M  V30 4910 O 446.564 -1.62475 0.7392 0
M  V30 4911 C 443.664 -3.04276 1.4923 0
M  V30 4912 C 442.837 -3.39567 2.75705 0
M  V30 4913 C 441.896 -4.57436 2.60075 0
M  V30 4914 O 440.922 -4.60942 3.33948 0
M  V30 4915 N 442.124 -5.55259 1.69315 0
M  V30 4916 H 444.889 -1.5737 2.55058 0
M  V30 4917 H 442.45 -0.722845 1.44867 0
M  V30 4918 H 444.442 -3.80994 1.36477 0
M  V30 4919 H 443.012 -3.06677 0.605632 0
M  V30 4920 H 442.232 -2.52083 3.03064 0
M  V30 4921 H 443.52 -3.59929 3.59623 0
M  V30 4922 H 442.918 -5.552 1.08489 0
M  V30 4923 H 441.475 -6.31218 1.62504 0
M  V30 4924 N 444.908 -1.36708 -0.784132 0
M  V30 4925 C 446.154 -1.31426 -1.54451 0
M  V30 4926 C 446.487 0.10476 -1.93917 0
M  V30 4927 O 445.762 1.05934 -1.6312 0
M  V30 4928 C 446.045 -2.24189 -2.818 0
M  V30 4929 C 445.898 -3.74813 -2.48667 0
M  V30 4930 C 447.217 -2.15626 -3.83658 0
M  V30 4931 H 444.336 -0.478739 -0.560337 0
M  V30 4932 H 446.978 -1.67305 -0.900498 0
M  V30 4933 H 445.128 -1.93722 -3.36755 0
M  V30 4934 H 446.8 -4.15823 -1.99722 0
M  V30 4935 H 445.043 -3.93989 -1.81535 0
M  V30 4936 H 445.714 -4.35138 -3.39646 0
M  V30 4937 H 448.19 -2.42456 -3.38163 0
M  V30 4938 H 447.066 -2.82694 -4.70506 0
M  V30 4939 H 447.327 -1.14522 -4.27009 0
M  V30 4940 N 446.386 1.0089 -1.21074 0
M  V30 4941 C 447.333 2.09588 -0.966512 0
M  V30 4942 C 448.303 1.65761 0.106089 0
M  V30 4943 O 449.488 1.90758 -0.0402287 0
M  V30 4944 C 446.628 3.40958 -0.533058 0
M  V30 4945 C 445.741 3.9822 -1.67467 0
M  V30 4946 C 444.876 5.17682 -1.19076 0
M  V30 4947 C 443.915 5.67043 -2.30496 0
M  V30 4948 N 443.052 6.77759 -1.83267 0
M  V30 4949 H 447.892 2.29815 -1.89708 0
M  V30 4950 H 445.429 1.12689 -0.945489 0
M  V30 4951 H 447.387 4.1637 -0.263019 0
M  V30 4952 H 446.017 3.20781 0.360505 0
M  V30 4953 H 445.069 3.1983 -2.05944 0
M  V30 4954 H 446.381 4.3085 -2.51336 0
M  V30 4955 H 445.535 6.00326 -0.877151 0
M  V30 4956 H 444.274 4.86635 -0.322066 0
M  V30 4957 H 443.279 4.82999 -2.62664 0
M  V30 4958 H 444.504 6.00121 -3.17855 0
M  V30 4959 H 442.45 6.48527 -0.987356 0
M  V30 4960 H 442.367 7.09624 -2.60711 0
M  V30 4961 H 443.635 7.63949 -1.54928 0
M  V30 4962 N 447.864 1.01787 1.20321 0
M  V30 4963 C 448.811 0.589197 2.23153 0
M  V30 4964 C 449.781 -0.391367 1.61423 0
M  V30 4965 O 450.966 -0.290518 1.88575 0
M  V30 4966 C 448.106 -0.0650747 3.45039 0
M  V30 4967 C 447.219 0.960207 4.21194 0
M  V30 4968 C 446.354 0.276854 5.30478 0
M  V30 4969 C 445.393 1.2888 5.98378 0
M  V30 4970 N 444.53 0.632031 6.99249 0
M  V30 4971 H 449.37 1.47071 2.59179 0
M  V30 4972 H 446.907 0.736192 1.27352 0
M  V30 4973 H 448.865 -0.461552 4.14639 0
M  V30 4974 H 447.495 -0.910233 3.09701 0
M  V30 4975 H 446.547 1.47484 3.50646 0
M  V30 4976 H 447.859 1.72977 4.67847 0
M  V30 4977 H 447.013 -0.175056 6.06447 0
M  V30 4978 H 445.752 -0.525004 4.84866 0
M  V30 4979 H 444.757 1.75109 5.21169 0
M  V30 4980 H 445.982 2.09196 6.46076 0
M  V30 4981 H 443.928 -0.149935 6.55829 0
M  V30 4982 H 443.845 1.33964 7.44036 0
M  V30 4983 H 445.113 0.203755 7.79234 0
M  V30 4984 N 449.342 -1.36122 0.79427 0
M  V30 4985 C 450.275 -2.27759 0.141845 0
M  V30 4986 C 451.253 -1.47471 -0.684921 0
M  V30 4987 O 452.437 -1.76759 -0.654857 0
M  V30 4988 C 449.564 -3.29008 -0.804446 0
M  V30 4989 C 448.61 -4.26459 -0.0588617 0
M  V30 4990 S 449.443 -5.20253 1.26873 0
M  V30 4991 C 450.599 -6.25048 0.326562 0
M  V30 4992 H 450.832 -2.82746 0.918818 0
M  V30 4993 H 448.365 -1.42736 0.588722 0
M  V30 4994 H 450.323 -3.87842 -1.34495 0
M  V30 4995 H 448.984 -2.72924 -1.5547 0
M  V30 4996 H 448.177 -4.97973 -0.777087 0
M  V30 4997 H 447.779 -3.71731 0.411309 0
M  V30 4998 H 450.071 -6.75705 -0.492795 0
M  V30 4999 H 451.014 -7.00852 1.01053 0
M  V30 5000 H 451.422 -5.64454 -0.0722627 0
M  V30 5001 N 450.82 -0.546701 -1.47814 0
M  V30 5002 C 451.767 0.206854 -2.29871 0
M  V30 5003 C 452.737 0.918235 -1.38411 0
M  V30 5004 O 453.922 0.915991 -1.67375 0
M  V30 5005 C 451.062 1.23746 -3.22151 0
M  V30 5006 C 450.175 0.533216 -4.28697 0
M  V30 5007 C 449.31 1.5482 -5.08138 0
M  V30 5008 C 448.349 0.828347 -6.06469 0
M  V30 5009 N 447.486 1.78966 -6.78908 0
M  V30 5010 H 452.326 -0.499037 -2.93792 0
M  V30 5011 H 449.863 -0.25793 -1.44821 0
M  V30 5012 H 451.821 1.84746 -3.74065 0
M  V30 5013 H 450.451 1.91151 -2.60117 0
M  V30 5014 H 449.503 -0.191089 -3.7992 0
M  V30 5015 H 450.815 -0.0311987 -4.9879 0
M  V30 5016 H 449.969 2.23202 -5.6415 0
M  V30 5017 H 448.708 2.14652 -4.37922 0
M  V30 5018 H 447.713 0.130539 -5.49645 0
M  V30 5019 H 448.938 0.235907 -6.7869 0
M  V30 5020 H 446.884 2.37675 -6.1143 0
M  V30 5021 H 446.801 1.27712 -7.45135 0
M  V30 5022 H 448.069 2.46496 -7.395 0
M  V30 5023 N 452.299 1.55045 -0.282633 0
M  V30 5024 C 453.262 2.21515 0.588539 0
M  V30 5025 C 454.262 1.19535 1.07554 0
M  V30 5026 O 455.452 1.44391 0.974514 0
M  V30 5027 C 452.584 2.88704 1.8128 0
M  V30 5028 H 453.777 2.99899 0.00806397 0
M  V30 5029 H 451.33 1.56265 -0.0333067 0
M  V30 5030 H 452.065 2.14352 2.43359 0
M  V30 5031 H 451.85 3.63443 1.47144 0
M  V30 5032 H 453.34 3.39465 2.43214 0
M  V30 5033 N 453.777 0.010035 1.57597 0
M  V30 5034 C 455.026 -0.671945 1.90178 0
M  V30 5035 C 455.339 -1.74376 0.886131 0
M  V30 5036 O 456.545 -2.48107 1.10252 0
M  V30 5037 C 455.001 -1.24636 3.3763 0
M  V30 5038 C 454.609 -0.208838 4.47513 0
M  V30 5039 C 456.353 -1.90595 3.79307 0
M  V30 5040 C 454.26 -0.793814 5.86048 0
M  V30 5041 H 453.19 -0.25474 0.709665 0
M  V30 5042 H 455.841 0.0722206 1.83358 0
M  V30 5043 H 454.223 -2.04152 3.3932 0
M  V30 5044 H 455.397 0.562463 4.57354 0
M  V30 5045 H 453.712 0.350889 4.14919 0
M  V30 5046 H 456.309 -2.35284 4.80151 0
M  V30 5047 H 456.652 -2.74074 3.13352 0
M  V30 5048 H 457.185 -1.17798 3.79958 0
M  V30 5049 H 453.924 0.00240855 6.555 0
M  V30 5050 H 453.444 -1.53404 5.79851 0
M  V30 5051 H 455.123 -1.2894 6.34022 0
M  V30 5052 N 455.255 -1.55392 -0.262866 0
M  V30 5053 C 456.485 -1.80251 -1.00961 0
M  V30 5054 C 456.893 -0.58117 -1.80053 0
M  V30 5055 O 456.236 0.459427 -1.77862 0
M  V30 5056 C 456.298 -2.98207 -2.00781 0
M  V30 5057 C 455.962 -4.34856 -1.40533 0
M  V30 5058 C 456.959 -5.13459 -0.815853 0
M  V30 5059 C 454.644 -4.8153 -1.42948 0
M  V30 5060 C 456.638 -6.36875 -0.258562 0
M  V30 5061 C 454.325 -6.04899 -0.868334 0
M  V30 5062 C 455.323 -6.8241 -0.283884 0
M  V30 5063 O 455.011 -8.03451 0.268644 0
M  V30 5064 H 454.743 -0.604049 -0.303482 0
M  V30 5065 H 457.297 -2.03257 -0.295926 0
M  V30 5066 H 455.527 -2.70917 -2.75936 0
M  V30 5067 H 457.216 -3.10299 -2.61667 0
M  V30 5068 H 457.982 -4.78526 -0.789812 0
M  V30 5069 H 453.861 -4.21201 -1.87378 0
M  V30 5070 H 457.405 -6.97318 0.198257 0
M  V30 5071 H 453.302 -6.39312 -0.891649 0
M  V30 5072 H 454.07 -8.18346 0.158974 0
M  V30 5073 N 456.733 0.527833 -1.48498 0
M  V30 5074 C 457.683 1.62844 -1.5958 0
M  V30 5075 C 458.667 1.54397 -0.452809 0
M  V30 5076 O 459.859 1.62381 -0.704364 0
M  V30 5077 C 456.988 3.01557 -1.64067 0
M  V30 5078 C 456.074 3.151 -2.83853 0
M  V30 5079 N 456.465 2.9861 -4.08247 0
M  V30 5080 C 454.763 3.46158 -2.8123 0
M  V30 5081 C 455.464 3.15626 -4.88626 0
M  V30 5082 N 454.44 3.43298 -4.21483 0
M  V30 5083 H 458.242 1.48708 -2.53502 0
M  V30 5084 H 455.756 0.733343 -1.44899 0
M  V30 5085 H 457.753 3.8062 -1.70101 0
M  V30 5086 H 456.413 3.16783 -0.712636 0
M  V30 5087 H 457.424 2.75329 -4.3865 0
M  V30 5088 H 454.101 3.67728 -1.97692 0
M  V30 5089 H 455.491 3.07596 -5.97356 0
M  V30 5090 N 458.211 1.37122 0.776871 0
M  V30 5091 C 459.144 1.26835 1.89705 0
M  V30 5092 C 460.122 0.14992 1.61907 0
M  V30 5093 O 461.306 0.323242 1.85708 0
M  V30 5094 C 458.433 0.95986 3.24814 0
M  V30 5095 C 457.479 2.09447 3.7153 0
M  V30 5096 S 458.312 3.71368 3.85806 0
M  V30 5097 C 459.468 3.42659 5.23771 0
M  V30 5098 H 459.701 2.21647 1.98141 0
M  V30 5099 H 457.234 1.22685 0.937433 0
M  V30 5100 H 459.192 0.788696 4.02852 0
M  V30 5101 H 457.853 0.0293137 3.14086 0
M  V30 5102 H 457.046 1.8335 4.69467 0
M  V30 5103 H 456.648 2.2255 3.00578 0
M  V30 5104 H 458.94 2.9733 6.0877 0
M  V30 5105 H 459.883 4.39905 5.54878 0
M  V30 5106 H 460.291 2.77708 4.91466 0
M  V30 5107 N 459.689 -1.00246 1.21608 0
M  V30 5108 C 460.619 -2.10921 1.00172 0
M  V30 5109 C 461.6 -1.69938 -0.0741587 0
M  V30 5110 O 462.785 -1.94009 0.0861753 0
M  V30 5111 C 459.915 -3.42618 0.568355 0
M  V30 5112 C 458.869 -3.97407 1.58909 0
M  V30 5113 C 458.195 -5.25038 1.01187 0
M  V30 5114 C 459.495 -4.2918 2.97661 0
M  V30 5115 H 461.189 -2.29112 1.92739 0
M  V30 5116 H 458.735 -1.10101 0.928102 0
M  V30 5117 H 460.688 -4.19444 0.405555 0
M  V30 5118 H 459.412 -3.24227 -0.392961 0
M  V30 5119 H 458.071 -3.22703 1.73949 0
M  V30 5120 H 457.719 -5.02982 0.0421965 0
M  V30 5121 H 457.419 -5.62661 1.6937 0
M  V30 5122 H 458.943 -6.04507 0.860448 0
M  V30 5123 H 460.357 -4.96839 2.86049 0
M  V30 5124 H 458.754 -4.77952 3.6288 0
M  V30 5125 H 459.824 -3.3735 3.48315 0
M  V30 5126 N 461.167 -1.02423 -1.1978 0
M  V30 5127 C 462.115 -0.594474 -2.24875 0
M  V30 5128 C 463.109 0.370598 -1.65296 0
M  V30 5129 O 464.315 0.239684 -1.78397 0
M  V30 5130 H 460.69 -0.173961 -0.731602 0
M  V30 5131 H 462.661 -1.4916 -2.58445 0
M  V30 5132 C 461.41 0.0436512 -3.47673 0
M  V30 5133 H 460.733 -0.689963 -3.93801 0
M  V30 5134 H 462.173 0.307362 -4.22884 0
M  V30 5135 C 460.632 1.28881 -3.11274 0
M  V30 5136 O 461.162 2.38135 -3.23503 0
M  V30 5137 N 459.368 1.1758 -2.6575 0
M  V30 5138 H 458.915 0.286769 -2.55999 0
M  V30 5139 H 458.873 2.00988 -2.41767 0
M  V30 5140 N 462.645 1.35699 -0.801477 0
M  V30 5141 C 463.578 2.2768 -0.153922 0
M  V30 5142 C 464.556 1.47832 0.67709 0
M  V30 5143 O 465.74 1.77104 0.645474 0
M  V30 5144 C 462.867 3.2943 0.786986 0
M  V30 5145 C 461.913 4.26485 0.0362447 0
M  V30 5146 S 462.746 5.19573 -1.2963 0
M  V30 5147 C 463.902 6.24866 -0.359705 0
M  V30 5148 H 464.135 2.82254 -0.9338 0
M  V30 5149 H 461.668 1.42421 -0.596283 0
M  V30 5150 H 463.626 3.8855 1.32436 0
M  V30 5151 H 462.287 2.73745 1.54021 0
M  V30 5152 H 461.48 4.98378 0.750668 0
M  V30 5153 H 461.082 3.71508 -0.431017 0
M  V30 5154 H 463.374 6.75957 0.456954 0
M  V30 5155 H 464.317 7.00307 -1.04768 0
M  V30 5156 H 464.725 5.64484 0.0423274 0
M  V30 5157 N 464.123 0.554532 1.47522 0
M  V30 5158 C 465.363 0.0317994 2.04375 0
M  V30 5159 C 465.727 -1.29242 1.41988 0
M  V30 5160 O 466.928 -1.90269 1.89872 0
M  V30 5161 C 465.199 -0.0623344 3.57346 0
M  V30 5162 S 466.758 -0.531578 4.35568 0
M  V30 5163 H 463.576 0.0238553 0.7106 0
M  V30 5164 H 466.178 0.74066 1.80927 0
M  V30 5165 H 464.882 0.905857 4.00278 0
M  V30 5166 H 464.413 -0.794831 3.85287 0
M  V30 5167 H 466.428 -1.79175 4.62721 0
M  V30 5168 N 465.601 -1.54893 0.290851 0
M  V30 5169 C 466.826 -2.04804 -0.32712 0
M  V30 5170 C 467.251 -1.16721 -1.47506 0
M  V30 5171 O 466.609 -0.169107 -1.8051 0
M  V30 5172 C 466.657 -3.52268 -0.770689 0
M  V30 5173 O 465.761 -3.67236 -1.87647 0
M  V30 5174 H 465.102 -0.660789 -0.0652227 0
M  V30 5175 H 467.632 -2.00036 0.429739 0
M  V30 5176 H 467.642 -3.9393 -1.06223 0
M  V30 5177 H 466.317 -4.15843 0.069096 0
M  V30 5178 H 464.894 -3.37479 -1.58626 0
M  V30 5179 N 467.08 -0.0183926 -1.57589 0
M  V30 5180 C 468.327 0.662562 -1.91354 0
M  V30 5181 C 468.655 1.72747 -0.893788 0
M  V30 5182 O 467.91 1.9545 0.0988509 0
M  V30 5183 C 468.209 1.32676 -3.31861 0
M  V30 5184 C 467.875 0.393267 -4.49182 0
M  V30 5185 C 466.537 0.136302 -4.81007 0
M  V30 5186 C 468.889 -0.248366 -5.20608 0
M  V30 5187 C 466.217 -0.770282 -5.81621 0
M  V30 5188 C 468.569 -1.14294 -6.22189 0
M  V30 5189 C 467.233 -1.4089 -6.52462 0
M  V30 5190 H 466.503 0.242448 -0.700214 0
M  V30 5191 H 469.15 -0.0778629 -1.91342 0
M  V30 5192 H 467.455 2.14168 -3.28084 0
M  V30 5193 H 469.152 1.86001 -3.55253 0
M  V30 5194 H 465.742 0.603723 -4.24327 0
M  V30 5195 H 469.926 -0.062883 -4.9626 0
M  V30 5196 H 465.182 -0.984154 -6.03427 0
M  V30 5197 H 469.356 -1.64637 -6.76659 0
M  V30 5198 H 466.983 -2.11306 -7.30242 0
M  V30 5199 N 468.558 1.5553 0.254621 0
M  V30 5200 C 469.835 1.6774 1.00611 0
M  V30 5201 C 470.215 0.555993 2.03647 0
M  V30 5202 O 469.563 -0.441583 2.24193 0
M  V30 5203 C 469.773 3.07725 1.6464 0
M  V30 5204 C 471.121 3.66074 2.15116 0
M  V30 5205 O 472.145 3.10476 1.74595 0
M  V30 5206 O 471.004 4.63526 2.89493 0
M  V30 5207 H 468.098 0.681958 0.467828 0
M  V30 5208 H 470.644 1.67863 0.24902 0
M  V30 5209 H 469.416 3.80792 0.900734 0
M  V30 5210 H 469.039 3.1158 2.46989 0
M  V30 5211 N 470.036 -0.519951 1.48776 0
M  V30 5212 C 471.282 -1.27711 1.57536 0
M  V30 5213 C 471.615 -1.92547 0.252866 0
M  V30 5214 O 470.89 -1.7979 -0.742021 0
M  V30 5215 C 471.173 -2.35875 2.72094 0
M  V30 5216 C 471.026 -1.75664 4.1408 0
M  V30 5217 C 472.345 -3.37575 2.82367 0
M  V30 5218 H 469.464 -0.462971 0.573434 0
M  V30 5219 H 472.106 -0.578194 1.80989 0
M  V30 5220 H 470.256 -2.95488 2.52228 0
M  V30 5221 H 471.928 -1.20025 4.45412 0
M  V30 5222 H 470.171 -1.06154 4.20611 0
M  V30 5223 H 470.842 -2.54029 4.90075 0
M  V30 5224 H 473.318 -2.87929 3.00393 0
M  V30 5225 H 472.194 -4.1064 3.64233 0
M  V30 5226 H 472.455 -3.98743 1.90936 0
M  V30 5227 N 471.514 -1.37532 -0.769588 0
M  V30 5228 C 472.742 -1.36059 -1.55871 0
M  V30 5229 C 473.157 0.053544 -1.88724 0
M  V30 5230 O 472.514 1.01591 -1.5161 0
M  V30 5231 C 472.565 -2.20107 -2.86767 0
M  V30 5232 O 472.286 -3.56009 -2.55321 0
M  V30 5233 C 473.787 -2.26636 -3.80987 0
M  V30 5234 H 471.007 -0.465967 -0.482821 0
M  V30 5235 H 473.551 -1.80901 -0.953686 0
M  V30 5236 H 471.706 -1.78768 -3.43687 0
M  V30 5237 H 472.12 -4.0009 -3.39158 0
M  V30 5238 H 473.594 -2.89763 -4.69831 0
M  V30 5239 H 474.071 -1.2754 -4.20274 0
M  V30 5240 H 474.677 -2.68296 -3.29996 0
M  V30 5241 N 472.992 0.995999 -1.22138 0
M  V30 5242 C 473.94 2.10673 -0.985876 0
M  V30 5243 C 474.934 1.69255 0.0699553 0
M  V30 5244 O 476.14 1.79812 -0.0822176 0
M  V30 5245 H 472.515 0.688865 -0.30161 0
M  V30 5246 H 474.486 2.27711 -1.92848 0
M  V30 5247 C 473.235 3.42881 -0.576909 0
M  V30 5248 H 472.558 3.75191 -1.38101 0
M  V30 5249 H 473.998 4.21589 -0.451518 0
M  V30 5250 C 472.457 3.29265 0.713196 0
M  V30 5251 O 472.987 3.60777 1.76643 0
M  V30 5252 N 471.193 2.82456 0.683162 0
M  V30 5253 H 470.74 2.5701 -0.174242 0
M  V30 5254 H 470.698 2.73727 1.54663 0
M  V30 5255 N 474.47 1.03057 1.19235 0
M  V30 5256 C 475.417 0.612832 2.22515 0
M  V30 5257 C 476.387 -0.374224 1.61829 0
M  V30 5258 O 477.572 -0.270501 1.88873 0
M  V30 5259 C 474.712 -0.028475 3.45088 0
M  V30 5260 C 473.825 1.00483 4.20151 0
M  V30 5261 C 472.96 0.333102 5.30155 0
M  V30 5262 C 471.999 1.3522 5.96977 0
M  V30 5263 N 471.136 0.70616 6.9854 0
M  V30 5264 H 475.976 1.49812 2.57605 0
M  V30 5265 H 473.513 0.749658 1.26564 0
M  V30 5266 H 475.471 -0.417548 4.15105 0
M  V30 5267 H 474.101 -0.877334 3.10649 0
M  V30 5268 H 473.153 1.51194 3.49062 0
M  V30 5269 H 474.465 1.77929 4.65986 0
M  V30 5270 H 473.619 -0.110725 6.06599 0
M  V30 5271 H 472.358 -0.473547 4.85396 0
M  V30 5272 H 471.363 1.80627 5.19282 0
M  V30 5273 H 472.588 2.16037 6.4382 0
M  V30 5274 H 470.534 -0.0803667 6.55951 0
M  V30 5275 H 470.451 1.41848 7.42573 0
M  V30 5276 H 471.719 0.286391 7.78974 0
M  V30 5277 N 475.948 -1.35272 0.808662 0
M  V30 5278 C 477.188 -2.00534 0.395668 0
M  V30 5279 C 477.552 -1.62755 -1.01857 0
M  V30 5280 O 478.753 -2.20752 -1.53368 0
M  V30 5281 C 477.024 -3.52732 0.575771 0
M  V30 5282 S 478.583 -4.38067 0.253507 0
M  V30 5283 H 475.401 -0.694962 0.150165 0
M  V30 5284 H 478.003 -1.64823 1.05137 0
M  V30 5285 H 476.707 -3.77714 1.60499 0
M  V30 5286 H 476.238 -3.93285 -0.0951739 0
M  V30 5287 H 478.253 -4.87252 -0.938068 0
M  V30 5288 N 477.426 -0.562348 -1.47226 0
M  V30 5289 C 478.356 0.170627 -2.32876 0
M  V30 5290 C 479.337 0.903748 -1.44106 0
M  V30 5291 O 480.522 0.883206 -1.72954 0
M  V30 5292 C 477.652 1.19786 -3.25989 0
M  V30 5293 C 476.606 0.580875 -4.2404 0
M  V30 5294 C 475.932 1.71311 -5.06514 0
M  V30 5295 C 477.232 -0.468714 -5.20193 0
M  V30 5296 H 478.926 -0.544441 -2.94408 0
M  V30 5297 H 476.472 -0.263271 -1.41573 0
M  V30 5298 H 478.425 1.71884 -3.84752 0
M  V30 5299 H 477.149 1.94294 -2.62521 0
M  V30 5300 H 475.808 0.0811538 -3.6651 0
M  V30 5301 H 475.456 2.44736 -4.39447 0
M  V30 5302 H 475.156 1.30604 -5.72902 0
M  V30 5303 H 476.68 2.23725 -5.68137 0
M  V30 5304 H 478.094 -0.0336028 -5.7329 0
M  V30 5305 H 476.491 -0.794957 -5.94811 0
M  V30 5306 H 477.561 -1.36269 -4.65359 0
M  V30 5307 N 478.904 1.54736 -0.299062 0
M  V30 5308 C 480.153 1.99279 0.311549 0
M  V30 5309 C 480.466 1.19107 1.55154 0
M  V30 5310 O 481.672 1.53908 2.23662 0
M  V30 5311 C 480.128 3.54768 0.605632 0
M  V30 5312 C 479.736 4.43746 -0.615914 0
M  V30 5313 C 481.48 4.07841 1.17754 0
M  V30 5314 C 479.387 5.90663 -0.29509 0
M  V30 5315 H 478.317 0.744359 0.120187 0
M  V30 5316 H 480.968 1.78919 -0.407464 0
M  V30 5317 H 479.35 3.71021 1.38419 0
M  V30 5318 H 480.524 4.39267 -1.39218 0
M  V30 5319 H 478.839 4.01434 -1.10633 0
M  V30 5320 H 481.436 5.15174 1.43179 0
M  V30 5321 H 481.779 3.58324 2.11918 0
M  V30 5322 H 482.312 3.95123 0.460739 0
M  V30 5323 H 479.051 6.44325 -1.20524 0
M  V30 5324 H 478.571 5.98155 0.44394 0
M  V30 5325 H 480.25 6.46916 0.104048 0
M  V30 5326 N 480.382 0.0267497 1.57577 0
M  V30 5327 C 481.345 -0.940916 2.08996 0
M  V30 5328 C 482.345 -1.25561 1.00455 0
M  V30 5329 O 483.535 -1.19634 1.26623 0
M  V30 5330 C 480.667 -2.25814 2.55384 0
M  V30 5331 H 481.86 -0.495628 2.95776 0
M  V30 5332 H 479.413 -0.221241 1.54726 0
M  V30 5333 H 480.148 -2.74976 1.71926 0
M  V30 5334 H 479.933 -2.04285 3.34679 0
M  V30 5335 H 481.423 -2.95178 2.95398 0
M  V30 5336 N 481.861 -1.55662 -0.24637 0
M  V30 5337 C 482.771 -1.93495 -1.32653 0
M  V30 5338 C 483.787 -0.835462 -1.5263 0
M  V30 5339 O 484.963 -1.1369 -1.66242 0
M  V30 5340 C 482.028 -2.22242 -2.66101 0
M  V30 5341 C 481.089 -3.45625 -2.54641 0
M  V30 5342 C 480.322 -3.72991 -3.81724 0
M  V30 5343 O 480.545 -3.02421 -4.8363 0
M  V30 5344 O 479.479 -4.66515 -3.80325 0
M  V30 5345 H 483.305 -2.85498 -1.03559 0
M  V30 5346 H 480.89 -1.42551 -0.44717 0
M  V30 5347 H 482.772 -2.42037 -3.44958 0
M  V30 5348 H 481.447 -1.33417 -2.94926 0
M  V30 5349 H 480.354 -3.31136 -1.74067 0
M  V30 5350 H 481.687 -4.34754 -2.3076 0
M  V30 5351 N 483.339 0.512053 -1.4905 0
M  V30 5352 C 484.585 1.26874 -1.58212 0
M  V30 5353 C 484.918 1.9241 -0.263073 0
M  V30 5354 O 484.193 1.80181 0.732476 0
M  V30 5355 C 484.476 2.34428 -2.73341 0
M  V30 5356 C 484.329 1.73466 -4.15006 0
M  V30 5357 C 485.648 3.36073 -2.84154 0
M  V30 5358 H 482.767 0.459924 -0.575881 0
M  V30 5359 H 485.409 0.568587 -1.81293 0
M  V30 5360 H 483.559 2.94146 -2.53792 0
M  V30 5361 H 485.231 1.17661 -4.46042 0
M  V30 5362 H 483.474 1.03921 -4.21168 0
M  V30 5363 H 484.145 2.51426 -4.91415 0
M  V30 5364 H 486.621 2.86332 -3.01916 0
M  V30 5365 H 485.497 4.08703 -3.66406 0
M  V30 5366 H 485.758 3.97725 -1.93048 0
M  V30 5367 N 484.817 1.37938 0.762283 0
M  V30 5368 C 486.063 1.34873 1.52253 0
M  V30 5369 C 486.418 -0.0635972 1.92295 0
M  V30 5370 O 485.711 -1.02434 1.61919 0
M  V30 5371 C 485.905 2.23042 2.79261 0
M  V30 5372 C 485.734 3.72706 2.51635 0
M  V30 5373 C 484.504 4.41771 2.45289 0
M  V30 5374 C 486.702 4.65345 2.18994 0
M  V30 5375 N 484.684 5.76921 2.09846 0
M  V30 5376 C 486.055 5.88943 1.9377 0
M  V30 5377 C 488.11 4.53636 2.0523 0
M  V30 5378 C 486.813 7.02142 1.5617 0
M  V30 5379 C 488.839 5.6673 1.69031 0
M  V30 5380 C 488.201 6.89383 1.44673 0
M  V30 5381 H 484.3 0.548818 0.557067 0
M  V30 5382 H 486.884 1.73247 0.888458 0
M  V30 5383 H 485.055 1.8687 3.40491 0
M  V30 5384 H 486.787 2.11165 3.45241 0
M  V30 5385 H 483.542 3.94883 2.61465 0
M  V30 5386 H 483.966 6.4837 1.94794 0
M  V30 5387 H 488.608 3.5937 2.2274 0
M  V30 5388 H 486.326 7.96334 1.37399 0
M  V30 5389 H 489.912 5.59645 1.59026 0
M  V30 5390 H 488.792 7.75411 1.17079 0
M  V30 5391 N 486.295 -0.989507 1.22664 0
M  V30 5392 C 487.535 -1.7447 1.06488 0
M  V30 5393 C 487.899 -1.8794 -0.392737 0
M  V30 5394 O 489.1 -2.60175 -0.675446 0
M  V30 5395 C 487.371 -3.11043 1.76031 0
M  V30 5396 S 488.93 -4.02258 1.7531 0
M  V30 5397 H 485.748 -0.600123 0.381278 0
M  V30 5398 H 488.35 -1.18283 1.55658 0
M  V30 5399 H 487.054 -2.98884 2.81241 0
M  V30 5400 H 486.585 -3.72301 1.27105 0
M  V30 5401 H 488.6 -4.89623 0.805208 0
M  V30 5402 N 487.773 -1.03688 -1.18687 0
M  V30 5403 C 489.184 -0.766488 -1.70241 0
M  V30 5404 C 489.535 0.713052 -1.82784 0
M  V30 5405 O 488.66 1.55529 -1.50465 0
M  V30 5406 C 489.255 -1.38475 -3.09209 0
M  V30 5407 C 487.814 -1.16276 -3.5799 0
M  V30 5408 C 486.961 -1.4778 -2.34641 0
M  V30 5409 H 489.912 -1.20378 -1.03415 0
M  V30 5410 H 489.933 -0.785939 -3.72295 0
M  V30 5411 H 489.445 -2.46157 -3.00048 0
M  V30 5412 H 487.546 -0.104508 -3.72453 0
M  V30 5413 H 487.659 -1.8571 -4.41643 0
M  V30 5414 H 486.023 -0.897366 -2.38368 0
M  V30 5415 H 486.806 -2.56562 -2.28102 0
M  V30 5416 N 489.251 1.34841 -0.815825 0
M  V30 5417 C 490.161 2.33425 -0.234462 0
M  V30 5418 C 491.177 1.62295 0.627413 0
M  V30 5419 O 492.353 1.94109 0.536987 0
M  V30 5420 C 489.418 3.41471 0.599849 0
M  V30 5421 C 488.479 4.28362 -0.283596 0
M  V30 5422 C 487.712 5.31248 0.51099 0
M  V30 5423 O 487.935 5.43056 1.7449 0
M  V30 5424 O 486.869 6.01812 -0.10297 0
M  V30 5425 H 490.695 2.84962 -1.05024 0
M  V30 5426 H 488.28 1.37774 -0.577809 0
M  V30 5427 H 490.162 4.07464 1.07475 0
M  V30 5428 H 488.837 2.9219 1.39308 0
M  V30 5429 H 487.744 3.65318 -0.805836 0
M  V30 5430 H 489.077 4.81066 -1.041 0
M  V30 5431 N 490.729 0.570148 1.46925 0
M  V30 5432 C 491.692 -0.159933 2.28641 0
M  V30 5433 C 492.692 -0.830638 1.37685 0
M  V30 5434 O 493.882 -0.684516 1.60187 0
M  V30 5435 C 491.014 -1.2354 3.17727 0
M  V30 5436 H 492.207 0.558035 2.94662 0
M  V30 5437 H 489.76 0.327603 1.52828 0
M  V30 5438 H 490.495 -1.98535 2.56426 0
M  V30 5439 H 490.28 -0.759125 3.84681 0
M  V30 5440 H 491.77 -1.74782 3.79264 0
M  V30 5441 N 492.207 -1.54576 0.307264 0
M  V30 5442 C 493.484 -1.92377 -0.353605 0
M  V30 5443 C 493.864 -1.23517 -1.71192 0
M  V30 5444 O 493.212 -0.373101 -2.25433 0
M  V30 5445 C 493.422 -3.45928 -0.462039 0
M  V30 5446 C 494.77 -4.18278 -0.729975 0
M  V30 5447 O 495.794 -3.51997 -0.545605 0
M  V30 5448 O 494.653 -5.3563 -1.08454 0
M  V30 5449 H 491.747 -0.802747 -0.198812 0
M  V30 5450 H 494.293 -1.65929 0.355783 0
M  V30 5451 H 493.065 -3.88187 0.492592 0
M  V30 5452 H 492.688 -3.78431 -1.21965 0
M  V30 5453 N 493.685 -0.035106 -1.57561 0
M  V30 5454 C 494.615 0.942993 -2.13612 0
M  V30 5455 C 495.596 1.33531 -1.05373 0
M  V30 5456 O 496.781 1.41287 -1.33235 0
M  V30 5457 C 493.911 2.22332 -2.66807 0
M  V30 5458 C 492.865 1.97156 -3.79886 0
M  V30 5459 C 492.191 3.31506 -4.19533 0
M  V30 5460 C 493.491 1.30596 -5.05709 0
M  V30 5461 H 495.185 0.476179 -2.95589 0
M  V30 5462 H 492.731 0.227602 -1.4219 0
M  V30 5463 H 494.684 2.91142 -3.04654 0
M  V30 5464 H 493.408 2.7119 -1.81999 0
M  V30 5465 H 492.067 1.30763 -3.42486 0
M  V30 5466 H 491.715 3.78134 -3.31698 0
M  V30 5467 H 491.415 3.15465 -4.95738 0
M  V30 5468 H 492.939 4.01574 -4.59968 0
M  V30 5469 H 494.353 1.89416 -5.41105 0
M  V30 5470 H 492.75 1.24934 -5.86951 0
M  V30 5471 H 493.82 0.279742 -4.84092 0
M  V30 5472 N 495.163 1.55791 0.238111 0
M  V30 5473 C 496.095 1.87513 1.31802 0
M  V30 5474 C 497.108 0.762053 1.43863 0
M  V30 5475 O 498.297 1.04024 1.45056 0
M  V30 5476 C 495.397 2.05402 2.69561 0
M  V30 5477 C 494.57 3.3632 2.79656 0
M  V30 5478 C 493.629 3.43844 3.98319 0
M  V30 5479 O 492.655 4.16994 3.87433 0
M  V30 5480 N 493.857 2.73777 5.11885 0
M  V30 5481 H 496.622 2.80734 1.04922 0
M  V30 5482 H 494.183 1.56135 0.428196 0
M  V30 5483 H 496.175 2.07769 3.47296 0
M  V30 5484 H 494.745 1.18884 2.89111 0
M  V30 5485 H 493.965 3.46195 1.88528 0
M  V30 5486 H 495.253 4.22594 2.83358 0
M  V30 5487 H 494.651 2.14094 5.23622 0
M  V30 5488 H 493.208 2.81825 5.87723 0
M  V30 5489 N 496.642 -0.504142 1.49319 0
M  V30 5490 C 497.919 -1.26548 1.49147 0
M  V30 5491 C 498.299 -2.09977 0.21744 0
M  V30 5492 O 497.647 -2.14028 -0.800269 0
M  V30 5493 C 497.857 -2.12489 2.76857 0
M  V30 5494 C 499.205 -2.7178 3.26222 0
M  V30 5495 O 500.229 -2.22758 2.77952 0
M  V30 5496 O 499.088 -3.61015 4.10281 0
M  V30 5497 H 496.182 -0.572495 0.596806 0
M  V30 5498 H 498.728 -0.51867 1.61579 0
M  V30 5499 H 497.5 -1.50796 3.61077 0
M  V30 5500 H 497.123 -2.94368 2.6727 0
M  V30 5501 N 498.12 -1.38341 -0.754957 0
M  V30 5502 C 499.05 -1.38176 -1.88227 0
M  V30 5503 C 500.031 -0.247873 -1.68284 0
M  V30 5504 O 501.216 -0.45075 -1.88896 0
M  V30 5505 C 498.346 -1.20471 -3.25736 0
M  V30 5506 C 497.3 -2.3105 -3.60278 0
M  V30 5507 C 496.626 -1.98452 -4.96509 0
M  V30 5508 C 497.926 -3.73305 -3.65295 0
M  V30 5509 H 499.62 -2.32512 -1.88622 0
M  V30 5510 H 497.166 -1.1192 -0.906082 0
M  V30 5511 H 499.119 -1.18982 -4.04254 0
M  V30 5512 H 497.843 -0.225965 -3.25817 0
M  V30 5513 H 496.502 -2.31723 -2.84078 0
M  V30 5514 H 496.15 -0.990641 -4.93148 0
M  V30 5515 H 495.85 -2.7251 -5.20588 0
M  V30 5516 H 497.374 -1.98578 -5.77407 0
M  V30 5517 H 498.788 -3.7467 -4.3393 0
M  V30 5518 H 497.185 -4.46557 -4.00883 0
M  V30 5519 H 498.255 -4.05719 -2.65556 0
M  V30 5520 N 499.598 0.982988 -1.23187 0
M  V30 5521 C 501.014 1.2487 -0.993967 0
M  V30 5522 C 501.214 1.99155 0.306498 0
M  V30 5523 O 500.27 2.30688 1.0266 0
M  V30 5524 C 501.583 2.05078 -2.19917 0
M  V30 5525 C 503.131 2.18227 -2.2438 0
M  V30 5526 C 503.606 3.01825 -3.44479 0
M  V30 5527 N 505.097 3.09411 -3.44702 0
M  V30 5528 C 505.832 3.74412 -4.34285 0
M  V30 5529 N 505.328 4.41259 -5.341 0
M  V30 5530 N 507.121 3.71273 -4.22035 0
M  V30 5531 H 499.272 0.485253 -2.06783 0
M  V30 5532 H 501.535 0.276979 -0.906635 0
M  V30 5533 H 501.241 1.57867 -3.14279 0
M  V30 5534 H 501.115 3.05829 -2.2079 0
M  V30 5535 H 503.502 2.64648 -1.30559 0
M  V30 5536 H 503.583 1.16873 -2.2754 0
M  V30 5537 H 503.227 2.56102 -4.38605 0
M  V30 5538 H 503.157 4.03342 -3.38559 0
M  V30 5539 H 505.648 2.61845 -2.7248 0
M  V30 5540 H 505.961 4.88629 -5.98717 0
M  V30 5541 H 504.306 4.39975 -5.38002 0
M  V30 5542 H 507.497 3.18217 -3.43301 0
M  V30 5543 H 507.67 4.21649 -4.92053 0
M  V30 5544 N 501.076 1.04316 1.18135 0
M  V30 5545 C 502.492 0.762858 1.40188 0
M  V30 5546 C 502.692 -0.646547 1.90846 0
M  V30 5547 O 501.748 -1.41036 2.0944 0
M  V30 5548 C 503.061 1.81106 2.40044 0
M  V30 5549 C 504.609 1.83226 2.53766 0
M  V30 5550 C 505.084 2.87044 3.56889 0
M  V30 5551 N 506.575 2.85951 3.64398 0
M  V30 5552 C 507.31 3.62932 4.43923 0
M  V30 5553 N 506.806 4.49672 5.27036 0
M  V30 5554 N 508.599 3.51411 4.38711 0
M  V30 5555 H 500.75 1.95264 0.835805 0
M  V30 5556 H 503.013 0.845017 0.429709 0
M  V30 5557 H 502.719 2.82214 2.09876 0
M  V30 5558 H 502.593 1.64529 3.39426 0
M  V30 5559 H 504.98 0.827869 2.8325 0
M  V30 5560 H 505.061 2.03879 1.54489 0
M  V30 5561 H 504.705 3.87663 3.28145 0
M  V30 5562 H 504.635 2.63645 4.5585 0
M  V30 5563 H 507.126 2.23051 3.05052 0
M  V30 5564 H 507.439 5.05116 5.84874 0
M  V30 5565 H 505.784 4.53738 5.26447 0
M  V30 5566 H 508.975 2.83047 3.72829 0
M  V30 5567 H 509.148 4.11654 5.00445 0
M  V30 5568 N 502.554 -1.34406 0.822964 0
M  V30 5569 C 503.517 -2.2783 0.250271 0
M  V30 5570 C 504.517 -1.50288 -0.571854 0
M  V30 5571 O 505.707 -1.69825 -0.387952 0
M  V30 5572 C 502.839 -3.34663 -0.649137 0
M  V30 5573 H 504.032 -2.79992 1.07444 0
M  V30 5574 H 501.585 -1.44539 0.594829 0
M  V30 5575 H 502.32 -2.87714 -1.49637 0
M  V30 5576 H 502.105 -3.92052 -0.0611199 0
M  V30 5577 H 503.595 -4.04349 -1.04363 0
M  V30 5578 N 504.032 -0.577932 -1.46621 0
M  V30 5579 C 504.962 0.145917 -2.33044 0
M  V30 5580 C 505.943 0.888412 -1.45056 0
M  V30 5581 O 507.128 0.864812 -1.73881 0
M  V30 5582 C 504.258 1.16322 -3.27241 0
M  V30 5583 C 503.212 0.535868 -4.24632 0
M  V30 5584 C 502.538 1.65929 -5.08303 0
M  V30 5585 C 503.838 -0.523861 -5.19666 0
M  V30 5586 H 505.532 -0.575636 -2.93814 0
M  V30 5587 H 503.078 -0.278272 -1.41286 0
M  V30 5588 H 505.031 1.67793 -3.86553 0
M  V30 5589 H 503.755 1.91498 -2.64567 0
M  V30 5590 H 502.414 0.0422759 -3.66576 0
M  V30 5591 H 502.062 2.40061 -4.42018 0
M  V30 5592 H 501.762 1.2452 -5.74255 0
M  V30 5593 H 503.286 2.17686 -5.70478 0
M  V30 5594 H 504.7 -0.0944059 -5.73222 0
M  V30 5595 H 503.097 -0.858 -5.93935 0
M  V30 5596 H 504.167 -1.41197 -4.63887 0
M  V30 5597 N 505.51 1.54411 -0.315457 0
M  V30 5598 C 506.42 2.27737 0.56329 0
M  V30 5599 C 507.436 1.31787 1.13614 0
M  V30 5600 O 508.612 1.64791 1.15784 0
M  V30 5601 C 505.677 3.01478 1.71207 0
M  V30 5602 C 504.738 4.12997 1.17185 0
M  V30 5603 C 503.971 4.83212 2.26588 0
M  V30 5604 O 504.194 4.52884 3.46775 0
M  V30 5605 O 503.128 5.70299 1.92463 0
M  V30 5606 H 506.954 3.03683 -0.0319614 0
M  V30 5607 H 504.539 1.49178 -0.0814188 0
M  V30 5608 H 506.421 3.47683 2.38106 0
M  V30 5609 H 505.096 2.28414 2.29366 0
M  V30 5610 H 504.003 3.71159 0.468174 0
M  V30 5611 H 505.336 4.8808 0.635501 0
M  V30 5612 N 506.988 0.0434614 1.5754 0
M  V30 5613 C 507.898 -0.94893 2.14552 0
M  V30 5614 C 508.914 -1.34707 1.10136 0
M  V30 5615 O 510.09 -1.42557 1.42266 0
M  V30 5616 C 507.155 -2.208 2.67298 0
M  V30 5617 C 506.216 -1.86893 3.86484 0
M  V30 5618 C 505.449 -3.06797 4.36705 0
M  V30 5619 O 505.672 -4.19921 3.86034 0
M  V30 5620 O 504.606 -2.8826 5.28384 0
M  V30 5621 H 508.432 -0.494099 2.99654 0
M  V30 5622 H 506.017 -0.177989 1.48336 0
M  V30 5623 H 507.899 -2.94686 3.01228 0
M  V30 5624 H 506.574 -2.65436 1.85272 0
M  V30 5625 H 505.481 -1.10347 3.57455 0
M  V30 5626 H 506.814 -1.47062 4.69716 0
M  V30 5627 N 508.466 -1.55915 -0.229846 0
M  V30 5628 C 509.714 -1.7819 -0.953565 0
M  V30 5629 C 510.035 -0.610504 -1.85197 0
M  V30 5630 O 509.305 0.372988 -1.92316 0
M  V30 5631 H 507.885 -0.657208 -0.355087 0
M  V30 5632 H 510.547 -1.9337 -0.243693 0
M  V30 5633 H 509.643 -2.70011 -1.56527 0
M  V30 5634 N 509.944 0.496216 -1.49584 0
M  V30 5635 C 511.169 1.27865 -1.63295 0
M  V30 5636 C 511.594 1.85592 -0.306156 0
M  V30 5637 O 510.952 1.66092 0.726851 0
M  V30 5638 C 511 2.38128 -2.7079 0
M  V30 5639 O 510.104 3.42108 -2.30296 0
M  V30 5640 H 509.445 0.377279 -0.546403 0
M  V30 5641 H 511.975 0.593497 -1.95803 0
M  V30 5642 H 511.985 2.8382 -2.93104 0
M  V30 5643 H 510.66 1.95479 -3.67098 0
M  V30 5644 H 509.237 3.02301 -2.18331 0
M  V30 5645 N 511.423 1.38739 0.74761 0
M  V30 5646 C 512.839 1.20067 1.05148 0
M  V30 5647 C 513.039 0.0534835 2.01429 0
M  V30 5648 O 512.095 -0.59886 2.45296 0
M  V30 5649 C 513.408 2.52957 1.62584 0
M  V30 5650 C 514.956 2.59692 1.74726 0
M  V30 5651 C 515.431 3.92772 2.35573 0
M  V30 5652 N 516.922 3.94343 2.42997 0
M  V30 5653 C 517.657 4.9408 2.90985 0
M  V30 5654 N 517.153 6.04214 3.38965 0
M  V30 5655 N 518.946 4.81466 2.9008 0
M  V30 5656 H 511.097 2.12121 0.108808 0
M  V30 5657 H 513.36 0.941491 0.110899 0
M  V30 5658 H 513.066 3.37389 0.993051 0
M  V30 5659 H 512.94 2.71779 2.61565 0
M  V30 5660 H 515.327 1.75651 2.3713 0
M  V30 5661 H 515.408 2.44731 0.744326 0
M  V30 5662 H 515.052 4.77238 1.738 0
M  V30 5663 H 514.982 4.05046 3.36519 0
M  V30 5664 H 517.473 3.14799 2.0907 0
M  V30 5665 H 517.786 6.76241 3.74056 0
M  V30 5666 H 516.131 6.07825 3.37007 0
M  V30 5667 H 519.322 3.94535 2.51912 0
M  V30 5668 H 519.495 5.59344 3.27166 0
M  V30 5669 N 512.901 -0.976442 1.23707 0
M  V30 5670 C 513.811 -2.10359 1.03856 0
M  V30 5671 C 514.827 -1.73991 -0.0180919 0
M  V30 5672 O 516.003 -2.0061 0.178211 0
M  V30 5673 C 513.068 -3.40809 0.636387 0
M  V30 5674 C 512.129 -3.91179 1.76854 0
M  V30 5675 C 511.362 -5.15404 1.38546 0
M  V30 5676 O 511.585 -5.69754 0.27142 0
M  V30 5677 O 510.519 -5.5994 2.20797 0
M  V30 5678 H 514.345 -2.29997 1.98331 0
M  V30 5679 H 511.93 -1.08742 1.02448 0
M  V30 5680 H 513.812 -4.19269 0.423223 0
M  V30 5681 H 512.487 -3.22493 -0.279322 0
M  V30 5682 H 511.394 -3.13819 2.03638 0
M  V30 5683 H 512.727 -4.13958 2.6627 0
M  V30 5684 N 514.379 -1.04941 -1.1758 0
M  V30 5685 C 515.604 -0.778253 -1.92245 0
M  V30 5686 C 516.029 0.659707 -1.76152 0
M  V30 5687 O 515.387 1.45803 -1.07755 0
M  V30 5688 C 515.435 -1.16051 -3.41416 0
M  V30 5689 O 514.539 -0.291153 -4.11371 0
M  V30 5690 H 513.88 -0.285619 -0.599431 0
M  V30 5691 H 516.41 -1.40159 -1.49052 0
M  V30 5692 H 516.42 -1.12619 -3.92149 0
M  V30 5693 H 515.095 -2.208 -3.52449 0
M  V30 5694 H 513.672 -0.385851 -3.70898 0
M  V30 5695 N 515.857 1.33968 -0.830081 0
M  V30 5696 C 517.105 1.97672 -0.420734 0
M  V30 5697 C 517.426 1.66111 1.02138 0
M  V30 5698 O 516.696 0.955503 1.71017 0
M  V30 5699 H 515.276 0.73125 -0.152587 0
M  V30 5700 H 517.938 1.63483 -1.0611 0
M  V30 5701 H 517.034 3.07294 -0.545588 0
M  V30 5702 N 517.335 0.585699 1.46312 0
M  V30 5703 C 518.298 -0.135673 2.28798 0
M  V30 5704 C 519.298 -0.815988 1.38558 0
M  V30 5705 O 520.488 -0.667487 1.60904 0
M  V30 5706 C 517.62 -1.20163 3.1902 0
M  V30 5707 H 518.813 0.589257 2.94054 0
M  V30 5708 H 516.366 0.343794 1.52472 0
M  V30 5709 H 517.101 -1.95804 2.58517 0
M  V30 5710 H 516.886 -0.718282 3.85465 0
M  V30 5711 H 518.376 -1.70749 3.81096 0
M  V30 5712 N 518.813 -1.54241 0.323641 0
M  V30 5713 C 520.041 -2.04985 -0.280871 0
M  V30 5714 C 520.456 -1.19978 -1.45777 0
M  V30 5715 O 519.813 -0.230471 -1.81039 0
M  V30 5716 C 519.864 -3.54353 -0.715258 0
M  V30 5717 O 519.585 -4.36132 0.414817 0
M  V30 5718 C 521.086 -4.21189 -1.38257 0
M  V30 5719 H 518.306 -0.66851 -0.0577502 0
M  V30 5720 H 520.85 -1.99029 0.469852 0
M  V30 5721 H 519.005 -3.60596 -1.41596 0
M  V30 5722 H 519.419 -5.2445 0.0725227 0
M  V30 5723 H 520.893 -5.27154 -1.63745 0
M  V30 5724 H 521.37 -3.72307 -2.32989 0
M  V30 5725 H 521.976 -4.19085 -0.724447 0
M  V30 5726 N 520.291 -0.0518155 -1.57515 0
M  V30 5727 C 521.54 0.621286 -1.91893 0
M  V30 5728 C 521.853 1.71966 -0.932052 0
M  V30 5729 O 523.059 2.45096 -1.16791 0
M  V30 5730 C 521.515 1.15641 -3.40816 0
M  V30 5731 C 521.123 0.0901146 -4.47909 0
M  V30 5732 C 522.867 1.80472 -3.84227 0
M  V30 5733 C 520.774 0.638154 -5.87947 0
M  V30 5734 H 519.704 0.235835 -0.716169 0
M  V30 5735 H 522.355 -0.120809 -1.83102 0
M  V30 5736 H 520.737 1.95084 -3.44613 0
M  V30 5737 H 521.911 -0.683525 -4.55702 0
M  V30 5738 H 520.226 -0.460774 -4.13843 0
M  V30 5739 H 522.823 2.22471 -4.86221 0
M  V30 5740 H 523.166 2.65669 -3.20508 0
M  V30 5741 H 523.699 1.07683 -3.82948 0
M  V30 5742 H 520.438 -0.176202 -6.55263 0
M  V30 5743 H 519.958 1.37976 -5.83714 0
M  V30 5744 H 521.637 1.12085 -6.37217 0
M  V30 5745 N 521.769 1.56035 0.221574 0
M  V30 5746 C 523.18 1.69229 0.788567 0
M  V30 5747 C 523.531 0.653814 1.84986 0
M  V30 5748 O 522.656 -0.195065 2.15519 0
M  V30 5749 C 523.251 3.06809 1.43713 0
M  V30 5750 C 521.81 3.21858 1.95152 0
M  V30 5751 C 520.957 2.65155 0.811685 0
M  V30 5752 H 523.908 1.587 -0.00307894 0
M  V30 5753 H 523.929 3.02666 2.30594 0
M  V30 5754 H 523.441 3.82369 0.664475 0
M  V30 5755 H 521.542 2.51167 2.7522 0
M  V30 5756 H 521.655 4.29073 2.1315 0
M  V30 5757 H 520.019 2.23635 1.21899 0
M  V30 5758 H 520.802 3.43261 0.0516987 0
M  V30 5759 N 523.247 -0.488276 1.49845 0
M  V30 5760 C 524.472 -1.26997 1.63971 0
M  V30 5761 C 524.897 -1.85427 0.315994 0
M  V30 5762 O 524.255 -1.66475 -0.718032 0
M  V30 5763 C 524.303 -2.36689 2.72049 0
M  V30 5764 O 523.407 -3.40882 2.32107 0
M  V30 5765 H 522.748 -0.374376 0.548396 0
M  V30 5766 H 525.278 -0.583104 1.96115 0
M  V30 5767 H 525.288 -2.82262 2.94605 0
M  V30 5768 H 523.963 -1.93529 3.68129 0
M  V30 5769 H 522.54 -3.01139 2.19931 0
M  V30 5770 N 524.725 -1.39134 -0.740242 0
M  V30 5771 C 525.972 -1.36071 -1.49969 0
M  V30 5772 C 526.3 0.0450245 -1.94448 0
M  V30 5773 O 525.555 1.02482 -1.66721 0
M  V30 5774 C 525.854 -2.27457 -2.75678 0
M  V30 5775 C 525.52 -3.75185 -2.50094 0
M  V30 5776 C 524.182 -4.15439 -2.42825 0
M  V30 5777 C 526.534 -4.68643 -2.28086 0
M  V30 5778 C 523.862 -5.4722 -2.11584 0
M  V30 5779 C 526.214 -6.00695 -1.98363 0
M  V30 5780 C 524.878 -6.40018 -1.8956 0
M  V30 5781 H 524.148 -0.497921 -0.548777 0
M  V30 5782 H 526.795 -1.71599 -0.85007 0
M  V30 5783 H 525.1 -1.8503 -3.45356 0
M  V30 5784 H 526.797 -2.22384 -3.33686 0
M  V30 5785 H 523.387 -3.43279 -2.56627 0
M  V30 5786 H 527.571 -4.3838 -2.32672 0
M  V30 5787 H 522.827 -5.76615 -2.03287 0
M  V30 5788 H 527.001 -6.72644 -1.80341 0
M  V30 5789 H 524.628 -7.42051 -1.65117 0
M  V30 5790 N 526.204 0.969867 -1.24223 0
M  V30 5791 C 527.137 2.06279 -0.975926 0
M  V30 5792 C 528.115 1.62353 0.0895385 0
M  V30 5793 O 529.299 1.88442 -0.0469418 0
M  V30 5794 C 526.426 3.35391 -0.472315 0
M  V30 5795 C 525.472 3.98266 -1.526 0
M  V30 5796 S 526.305 4.36172 -3.10667 0
M  V30 5797 C 527.461 5.68423 -2.62003 0
M  V30 5798 H 527.694 2.28551 -1.90137 0
M  V30 5799 H 525.227 1.10748 -1.07584 0
M  V30 5800 H 527.185 4.10068 -0.188376 0
M  V30 5801 H 525.846 3.1111 0.432378 0
M  V30 5802 H 525.039 4.91307 -1.12399 0
M  V30 5803 H 524.641 3.30009 -1.75983 0
M  V30 5804 H 526.933 6.45842 -2.0468 0
M  V30 5805 H 527.876 6.13478 -3.53625 0
M  V30 5806 H 528.284 5.26928 -2.02502 0
M  V30 5807 N 527.682 1.05563 1.17022 0
M  V30 5808 C 528.63 0.653887 2.2322 0
M  V30 5809 C 529.624 -0.326642 1.66221 0
M  V30 5810 O 530.83 -0.192301 1.7897 0
M  V30 5811 H 527.205 0.193297 0.726733 0
M  V30 5812 H 529.176 1.5596 2.54399 0
M  V30 5813 C 527.925 0.0485434 3.47666 0
M  V30 5814 H 527.248 0.79413 3.91834 0
M  V30 5815 H 528.688 -0.195133 4.23551 0
M  V30 5816 C 527.147 -1.20583 3.14581 0
M  V30 5817 O 527.677 -2.29475 3.29703 0
M  V30 5818 N 525.883 -1.10493 2.68774 0
M  V30 5819 H 525.43 -0.218795 2.56669 0
M  V30 5820 H 525.388 -1.94507 2.47011 0
M  V30 5821 N 529.16 -1.33526 0.837174 0
M  V30 5822 C 530.409 -1.97098 0.428387 0
M  V30 5823 C 530.722 -1.67062 -1.01734 0
M  V30 5824 O 531.928 -2.24235 -1.53072 0
M  V30 5825 C 530.384 -3.52725 0.715075 0
M  V30 5826 C 529.992 -3.9164 2.17537 0
M  V30 5827 C 531.736 -4.22857 0.373154 0
M  V30 5828 C 529.643 -5.40237 2.40619 0
M  V30 5829 H 528.573 -0.737589 0.156455 0
M  V30 5830 H 531.224 -1.52169 1.02552 0
M  V30 5831 H 529.606 -3.95971 0.0475904 0
M  V30 5832 H 530.78 -3.59456 2.88319 0
M  V30 5833 H 529.095 -3.34485 2.4801 0
M  V30 5834 H 531.692 -5.32133 0.523264 0
M  V30 5835 H 532.035 -4.10647 -0.683708 0
M  V30 5836 H 532.568 -3.85135 0.995801 0
M  V30 5837 H 529.307 -5.57449 3.44864 0
M  V30 5838 H 528.827 -5.73887 1.74396 0
M  V30 5839 H 530.506 -6.07102 2.23688 0
M  V30 5840 N 530.638 -0.59345 -1.46 0
M  V30 5841 C 531.887 -0.0808084 -2.01538 0
M  V30 5842 C 532.2 1.29112 -1.46934 0
M  V30 5843 O 533.406 1.8957 -1.94359 0
M  V30 5844 C 531.862 -0.0938311 -3.59778 0
M  V30 5845 C 531.47 -1.46474 -4.23379 0
M  V30 5846 C 533.214 0.364306 -4.22934 0
M  V30 5847 C 531.121 -1.4349 -5.73729 0
M  V30 5848 H 530.051 -0.0264407 -0.753536 0
M  V30 5849 H 532.702 -0.746689 -1.67621 0
M  V30 5850 H 531.084 0.638427 -3.9082 0
M  V30 5851 H 532.258 -2.21758 -4.03931 0
M  V30 5852 H 530.573 -1.86379 -3.7236 0
M  V30 5853 H 533.17 0.405584 -5.3316 0
M  V30 5854 H 533.513 1.38409 -3.92618 0
M  V30 5855 H 534.046 -0.31423 -3.96557 0
M  V30 5856 H 530.785 -2.43184 -6.08722 0
M  V30 5857 H 530.305 -0.724431 -5.95409 0
M  V30 5858 H 531.984 -1.15243 -6.36654 0
M  V30 5859 N 532.116 1.54067 -0.331816 0
M  V30 5860 C 533.527 1.86059 0.15454 0
M  V30 5861 C 533.878 1.25331 1.50952 0
M  V30 5862 O 533.003 0.562441 2.08963 0
M  V30 5863 C 533.598 3.37581 0.287192 0
M  V30 5864 C 532.157 3.69493 0.717773 0
M  V30 5865 C 531.304 2.76863 -0.155569 0
M  V30 5866 H 534.255 1.48797 -0.55182 0
M  V30 5867 H 534.276 3.63744 1.11671 0
M  V30 5868 H 533.788 3.81751 -0.699131 0
M  V30 5869 H 531.889 3.3086 1.71354 0
M  V30 5870 H 532.002 4.76315 0.5158 0
M  V30 5871 H 530.366 2.51995 0.370213 0
M  V30 5872 H 531.149 3.23861 -1.13881 0
M  V30 5873 N 533.594 0.0601682 1.57485 0
M  V30 5874 C 534.822 -0.620937 1.97363 0
M  V30 5875 C 535.237 -1.63846 0.938082 0
M  V30 5876 O 534.594 -1.82339 -0.0766578 0
M  V30 5877 C 534.645 -1.29987 3.37321 0
M  V30 5878 O 534.366 -0.323081 4.36907 0
M  V30 5879 C 535.867 -2.06989 3.92008 0
M  V30 5880 H 533.087 -0.169135 0.649334 0
M  V30 5881 H 535.631 0.129132 2.04092 0
M  V30 5882 H 533.786 -2.0011 3.31715 0
M  V30 5883 H 534.2 -0.808754 5.18227 0
M  V30 5884 H 535.674 -2.49901 4.92192 0
M  V30 5885 H 536.151 -2.92173 3.2792 0
M  V30 5886 H 536.757 -1.41757 4.0098 0
M  V30 5887 N 535.072 -1.5615 -0.213296 0
M  V30 5888 C 536.019 -1.93086 -1.26437 0
M  V30 5889 C 536.989 -0.789086 -1.4616 0
M  V30 5890 O 538.174 -1.04569 -1.59593 0
M  V30 5891 C 535.314 -2.26003 -2.608 0
M  V30 5892 C 534.427 -3.53156 -2.48807 0
M  V30 5893 C 533.562 -3.7548 -3.7575 0
M  V30 5894 C 532.601 -4.96119 -3.58514 0
M  V30 5895 N 531.738 -5.14791 -4.77425 0
M  V30 5896 H 536.578 -2.82707 -0.942376 0
M  V30 5897 H 534.115 -1.39919 -0.454001 0
M  V30 5898 H 536.073 -2.431 -3.39055 0
M  V30 5899 H 534.703 -1.39546 -2.91079 0
M  V30 5900 H 533.755 -3.44207 -1.61944 0
M  V30 5901 H 535.067 -4.41565 -2.31996 0
M  V30 5902 H 534.221 -3.92718 -4.62447 0
M  V30 5903 H 532.96 -2.85368 -3.95495 0
M  V30 5904 H 531.965 -4.78823 -2.70201 0
M  V30 5905 H 533.19 -5.87724 -3.40231 0
M  V30 5906 H 531.136 -4.27623 -4.97468 0
M  V30 5907 H 531.053 -5.97347 -4.63371 0
M  V30 5908 H 532.321 -5.36471 -5.65525 0
M  V30 5909 N 536.55 0.480323 -1.50102 0
M  V30 5910 C 537.46 1.60547 -1.71061 0
M  V30 5911 C 538.476 1.63564 -0.593529 0
M  V30 5912 O 539.652 1.81604 -0.870751 0
M  V30 5913 C 536.717 2.96814 -1.79171 0
M  V30 5914 C 535.778 3.04259 -3.02861 0
M  V30 5915 C 535.011 4.34027 -3.10574 0
M  V30 5916 O 535.234 5.24009 -2.25323 0
M  V30 5917 O 534.168 4.46873 -4.03223 0
M  V30 5918 H 537.994 1.45788 -2.6642 0
M  V30 5919 H 535.579 0.658838 -1.34088 0
M  V30 5920 H 537.461 3.77765 -1.86738 0
M  V30 5921 H 536.136 3.11791 -0.869947 0
M  V30 5922 H 535.043 2.22419 -3.008 0
M  V30 5923 H 536.376 2.94216 -3.94586 0
M  V30 5924 N 538.028 1.39524 0.732853 0
M  V30 5925 C 539.256 1.40143 1.52209 0
M  V30 5926 C 539.671 -0.00348836 1.888 0
M  V30 5927 O 539.028 -0.975357 1.5425 0
M  V30 5928 C 539.079 2.27632 2.8083 0
M  V30 5929 O 538.8 3.62654 2.45792 0
M  V30 5930 C 540.301 2.36658 3.74844 0
M  V30 5931 H 537.521 0.478604 0.470297 0
M  V30 5932 H 540.065 1.83366 0.905388 0
M  V30 5933 H 538.22 1.87818 3.38826 0
M  V30 5934 H 538.634 4.08941 3.28431 0
M  V30 5935 H 540.108 3.02118 4.61984 0
M  V30 5936 H 540.585 1.38638 4.16745 0
M  V30 5937 H 541.191 2.76951 3.22766 0
M  V30 5938 N 539.506 -0.963266 1.24736 0
M  V30 5939 C 540.917 -1.52145 1.08207 0
M  V30 5940 C 541.268 -1.93142 -0.345061 0
M  V30 5941 O 540.393 -1.77769 -1.23399 0
M  V30 5942 C 540.988 -2.76486 1.95808 0
M  V30 5943 C 539.547 -3.28646 1.8349 0
M  V30 5944 C 538.694 -2.01529 1.90476 0
M  V30 5945 H 541.645 -0.781083 1.38148 0
M  V30 5946 H 541.666 -3.49986 1.49297 0
M  V30 5947 H 541.178 -2.46617 2.99669 0
M  V30 5948 H 539.279 -3.63357 0.824787 0
M  V30 5949 H 539.392 -3.97246 2.67829 0
M  V30 5950 H 537.756 -2.16442 1.34258 0
M  V30 5951 H 538.539 -1.7402 2.95926 0
M  V30 5952 N 540.985 -1.06182 -1.16461 0
M  V30 5953 C 542.396 -0.802426 -1.68576 0
M  V30 5954 C 542.747 0.67412 -1.84255 0
M  V30 5955 O 541.872 1.52303 -1.5373 0
M  V30 5956 C 542.467 -1.45002 -3.06202 0
M  V30 5957 C 541.026 -1.23843 -3.55443 0
M  V30 5958 C 540.173 -1.52724 -2.31454 0
M  V30 5959 H 543.124 -1.22545 -1.00839 0
M  V30 5960 H 543.145 -0.864731 -3.70544 0
M  V30 5961 H 542.657 -2.52466 -2.94759 0
M  V30 5962 H 540.758 -0.183487 -3.72148 0
M  V30 5963 H 540.871 -1.95036 -4.37604 0
M  V30 5964 H 539.235 -0.947726 -2.36411 0
M  V30 5965 H 540.018 -2.61343 -2.22609 0
M  V30 5966 N 542.463 1.3308 -0.844243 0
M  V30 5967 C 543.691 2.01808 -0.456203 0
M  V30 5968 C 544.106 1.63498 0.944131 0
M  V30 5969 O 543.463 0.85102 1.61443 0
M  V30 5970 C 543.514 3.56922 -0.573513 0
M  V30 5971 O 543.235 3.93851 -1.91868 0
M  V30 5972 C 544.736 4.42922 -0.183125 0
M  V30 5973 H 541.956 0.646273 -0.180477 0
M  V30 5974 H 544.5 1.69891 -1.1383 0
M  V30 5975 H 542.655 3.87352 0.0607367 0
M  V30 5976 H 543.069 4.88564 -1.90802 0
M  V30 5977 H 544.543 5.51093 -0.316241 0
M  V30 5978 H 545.02 4.30386 0.875477 0
M  V30 5979 H 545.626 4.1786 -0.792027 0
M  V30 5980 N 543.941 0.601185 1.45683 0
M  V30 5981 C 545.357 0.264315 1.57396 0
M  V30 5982 C 545.557 -1.23324 1.59353 0
M  V30 5983 O 544.613 -2.01594 1.52039 0
M  V30 5984 C 545.926 0.929839 2.85962 0
M  V30 5985 C 547.474 0.905156 2.99626 0
M  V30 5986 C 547.949 1.55057 4.30954 0
M  V30 5987 N 549.44 1.51576 4.37697 0
M  V30 5988 C 550.175 1.98436 5.37969 0
M  V30 5989 N 549.671 2.53352 6.44813 0
M  V30 5990 N 551.464 1.89242 5.29286 0
M  V30 5991 H 543.615 1.57363 1.42656 0
M  V30 5992 H 545.878 0.658831 0.681649 0
M  V30 5993 H 545.584 1.98404 2.90394 0
M  V30 5994 H 545.458 0.449224 3.74515 0
M  V30 5995 H 547.845 -0.14048 2.94765 0
M  V30 5996 H 547.926 1.42397 2.12501 0
M  V30 5997 H 547.57 2.5955 4.36573 0
M  V30 5998 H 547.5 1.00682 5.16886 0
M  V30 5999 H 549.991 1.11452 3.61091 0
M  V30 6000 H 550.304 2.86918 7.17564 0
M  V30 6001 H 548.649 2.57388 6.45582 0
M  V30 6002 H 551.84 1.46083 4.44722 0
M  V30 6003 H 552.013 2.26075 6.07284 0
M  V30 6004 N 545.419 -1.53889 0.339982 0
M  V30 6005 C 546.668 -2.00035 -0.258604 0
M  V30 6006 C 546.981 -1.23179 -1.51942 0
M  V30 6007 O 548.187 -1.59784 -2.19503 0
M  V30 6008 C 546.643 -3.56249 -0.511359 0
M  V30 6009 C 546.251 -4.41957 0.733349 0
M  V30 6010 C 547.995 -4.1082 -1.069 0
M  V30 6011 C 545.902 -5.89673 0.451591 0
M  V30 6012 H 544.832 -0.747284 -0.10041 0
M  V30 6013 H 547.483 -1.77776 0.454758 0
M  V30 6014 H 545.865 -3.7456 -1.28533 0
M  V30 6015 H 547.039 -4.35421 1.50815 0
M  V30 6016 H 545.354 -3.9836 1.21237 0
M  V30 6017 H 547.951 -5.18789 -1.2947 0
M  V30 6018 H 548.294 -3.63817 -2.02343 0
M  V30 6019 H 548.827 -3.96205 -0.355817 0
M  V30 6020 H 545.566 -6.40903 1.37565 0
M  V30 6021 H 545.086 -5.99122 -0.285193 0
M  V30 6022 H 546.765 -6.46965 0.0675067 0
M  V30 6023 N 546.897 -0.0685191 -1.57451 0
M  V30 6024 C 548.313 0.288101 -1.56978 0
M  V30 6025 C 548.513 1.70262 -1.07765 0
M  V30 6026 O 547.569 2.4135 -0.742054 0
M  V30 6027 C 548.882 0.100745 -3.00531 0
M  V30 6028 C 550.43 0.170531 -3.12535 0
M  V30 6029 C 550.905 0.0114944 -4.57999 0
M  V30 6030 N 552.396 0.0672065 -4.63151 0
M  V30 6031 C 553.131 -0.0314813 -5.73391 0
M  V30 6032 N 552.627 -0.183503 -6.92557 0
M  V30 6033 N 554.42 0.0253489 -5.62094 0
M  V30 6034 H 546.571 -0.993026 -1.87757 0
M  V30 6035 H 548.834 -0.386981 -0.865419 0
M  V30 6036 H 548.54 -0.875197 -3.40636 0
M  V30 6037 H 548.414 0.854457 -3.67395 0
M  V30 6038 H 550.801 1.13696 -2.72318 0
M  V30 6039 H 550.882 -0.614229 -2.48316 0
M  V30 6040 H 550.526 -0.951684 -4.98904 0
M  V30 6041 H 550.456 0.815617 -5.20245 0
M  V30 6042 H 552.947 0.183246 -3.77455 0
M  V30 6043 H 553.26 -0.251041 -7.72392 0
M  V30 6044 H 551.605 -0.218822 -6.94655 0
M  V30 6045 H 554.796 0.142794 -4.67882 0
M  V30 6046 H 554.969 -0.0550166 -6.47977 0
M  V30 6047 N 548.375 1.56261 0.205012 0
M  V30 6048 C 549.603 1.84141 0.943386 0
M  V30 6049 C 550.018 0.649772 1.77266 0
M  V30 6050 O 549.375 -0.381612 1.78466 0
M  V30 6051 C 549.426 3.10719 1.84759 0
M  V30 6052 O 549.147 4.25286 1.05181 0
M  V30 6053 C 550.648 3.51706 2.69848 0
M  V30 6054 H 547.868 0.611734 0.275721 0
M  V30 6055 H 550.412 2.03364 0.215253 0
M  V30 6056 H 548.567 2.93422 2.52947 0
M  V30 6057 H 548.981 4.97301 1.66709 0
M  V30 6058 H 550.455 4.43266 3.28967 0
M  V30 6059 H 550.932 2.7423 3.43067 0
M  V30 6060 H 551.538 3.71499 2.07047 0
M  V30 6061 N 549.853 -0.472356 1.50355 0
M  V30 6062 C 550.801 -1.59126 1.69651 0
M  V30 6063 C 551.795 -1.59793 0.56237 0
M  V30 6064 O 553.001 -1.63957 0.742832 0
M  V30 6065 H 549.376 -0.528008 0.535454 0
M  V30 6066 H 551.347 -1.40013 2.63513 0
M  V30 6067 C 550.096 -2.97075 1.8067 0
M  V30 6068 H 549.419 -2.9728 2.67329 0
M  V30 6069 H 550.859 -3.74825 1.98197 0
M  V30 6070 C 549.318 -3.32247 0.558016 0
M  V30 6071 O 549.848 -4.00553 -0.303399 0
M  V30 6072 N 548.054 -2.87659 0.412415 0
M  V30 6073 H 547.601 -2.32246 1.11443 0
M  V30 6074 H 547.559 -3.11556 -0.421908 0
M  V30 6075 N 551.331 -1.39911 -0.725443 0
M  V30 6076 C 552.278 -1.39393 -1.83952 0
M  V30 6077 C 553.248 -0.252249 -1.64173 0
M  V30 6078 O 554.433 -0.44882 -1.85446 0
M  V30 6079 C 551.573 -1.25262 -3.21564 0
M  V30 6080 C 550.686 -2.49054 -3.52982 0
M  V30 6081 C 549.821 -2.27439 -4.80047 0
M  V30 6082 C 548.86 -3.46857 -5.04338 0
M  V30 6083 N 547.997 -3.24499 -6.22611 0
M  V30 6084 H 552.837 -2.34622 -1.83729 0
M  V30 6085 H 550.374 -1.16537 -0.897636 0
M  V30 6086 H 552.332 -1.15077 -4.01015 0
M  V30 6087 H 550.962 -0.33657 -3.21041 0
M  V30 6088 H 550.014 -2.69805 -2.6816 0
M  V30 6089 H 551.326 -3.37973 -3.66846 0
M  V30 6090 H 550.48 -2.14551 -5.67497 0
M  V30 6091 H 549.219 -1.35929 -4.68374 0
M  V30 6092 H 548.224 -3.60232 -4.15346 0
M  V30 6093 H 549.449 -4.3928 -5.17889 0
M  V30 6094 H 547.395 -2.35663 -6.12208 0
M  V30 6095 H 547.312 -4.06978 -6.37106 0
M  V30 6096 H 548.58 -3.15325 -7.12875 0
M  V30 6097 N 552.809 0.956637 -1.25245 0
M  V30 6098 C 554.056 1.701 -1.09874 0
M  V30 6099 C 554.384 1.91128 0.36062 0
M  V30 6100 O 553.639 1.47837 1.28229 0
M  V30 6101 C 553.938 3.08996 -1.79601 0
M  V30 6102 C 553.604 3.07774 -3.29523 0
M  V30 6103 C 552.266 3.07149 -3.70423 0
M  V30 6104 C 554.618 3.01257 -4.25316 0
M  V30 6105 C 551.946 2.97752 -5.0553 0
M  V30 6106 C 554.298 2.93403 -5.60444 0
M  V30 6107 C 552.962 2.91111 -6.00675 0
M  V30 6108 H 552.232 0.62244 -0.402056 0
M  V30 6109 H 554.879 1.1178 -1.55491 0
M  V30 6110 H 553.184 3.70848 -1.26408 0
M  V30 6111 H 554.881 3.65407 -1.65162 0
M  V30 6112 H 551.471 3.09032 -2.9698 0
M  V30 6113 H 555.655 3.00861 -3.9471 0
M  V30 6114 H 550.911 2.94346 -5.35883 0
M  V30 6115 H 555.085 2.87321 -6.34366 0
M  V30 6116 H 552.712 2.83586 -7.05325 0
M  V30 6117 N 554.287 1.06798 1.15896 0
M  V30 6118 C 555.515 0.808694 1.90441 0
M  V30 6119 C 555.93 -0.637506 1.77711 0
M  V30 6120 O 555.287 -1.43684 1.12522 0
M  V30 6121 C 555.338 1.20068 3.40978 0
M  V30 6122 O 555.059 2.59013 3.53333 0
M  V30 6123 C 556.56 0.96987 4.3256 0
M  V30 6124 H 553.78 0.292809 0.603742 0
M  V30 6125 H 556.324 1.42296 1.46874 0
M  V30 6126 H 554.479 0.630842 3.82229 0
M  V30 6127 H 554.893 2.7485 4.46719 0
M  V30 6128 H 556.367 1.29371 5.36626 0
M  V30 6129 H 556.844 -0.0941209 4.39099 0
M  V30 6130 H 557.45 1.52433 3.97044 0
M  V30 6131 N 555.766 -1.3263 0.851289 0
M  V30 6132 C 556.676 -2.32722 0.296268 0
M  V30 6133 C 557.692 -1.63901 -0.584162 0
M  V30 6134 O 558.868 -1.95465 -0.485334 0
M  V30 6135 C 555.933 -3.42942 -0.509103 0
M  V30 6136 C 554.994 -4.2746 0.397069 0
M  V30 6137 C 554.227 -5.32416 -0.36996 0
M  V30 6138 O 554.45 -5.47491 -1.6003 0
M  V30 6139 O 553.384 -6.01327 0.262493 0
M  V30 6140 H 557.21 -2.82078 1.12543 0
M  V30 6141 H 554.795 -1.36194 0.614135 0
M  V30 6142 H 556.677 -4.1017 -0.96634 0
M  V30 6143 H 555.352 -2.95781 -1.31512 0
M  V30 6144 H 554.259 -3.63053 0.902411 0
M  V30 6145 H 555.592 -4.78136 1.16818 0
M  V30 6146 N 557.244 -0.608902 -1.45362 0
M  V30 6147 C 558.492 -0.104401 -2.0183 0
M  V30 6148 C 558.813 1.27007 -1.47967 0
M  V30 6149 O 558.083 1.83924 -0.674455 0
M  V30 6150 H 556.663 -0.0356042 -0.746151 0
M  V30 6151 H 559.325 -0.790596 -1.78145 0
M  V30 6152 H 558.421 -0.0551793 -3.12051 0
M  V30 6153 N 558.722 1.53707 -0.348139 0
M  V30 6154 C 559.969 2.00988 0.246966 0
M  V30 6155 C 560.297 1.23586 1.50189 0
M  V30 6156 O 559.552 0.312817 1.93184 0
M  V30 6157 C 559.851 3.52292 0.602061 0
M  V30 6158 C 559.517 4.47453 -0.556509 0
M  V30 6159 C 558.179 4.73188 -0.874446 0
M  V30 6160 C 560.531 5.03851 -1.33354 0
M  V30 6161 C 557.859 5.52577 -1.9717 0
M  V30 6162 C 560.211 5.84437 -2.42108 0
M  V30 6163 C 558.875 6.08465 -2.74456 0
M  V30 6164 H 558.145 0.735469 0.0903712 0
M  V30 6165 H 560.792 1.85464 -0.477001 0
M  V30 6166 H 559.097 3.65672 1.40681 0
M  V30 6167 H 560.794 3.86337 1.07447 0
M  V30 6168 H 557.384 4.27558 -0.298652 0
M  V30 6169 H 561.568 4.8393 -1.10117 0
M  V30 6170 H 556.824 5.69418 -2.22651 0
M  V30 6171 H 560.998 6.27151 -3.02745 0
M  V30 6172 H 558.625 6.69768 -3.59604 0
M  V30 6173 N 560.2 0.0768682 1.57412 0
M  V30 6174 C 561.132 -0.918248 2.10002 0
M  V30 6175 C 562.145 -1.25808 1.03325 0
M  V30 6176 O 563.334 -1.21438 1.30824 0
M  V30 6177 C 560.434 -2.23263 2.54964 0
M  V30 6178 C 559.607 -2.07088 3.8527 0
M  V30 6179 C 558.666 -3.21876 4.16272 0
M  V30 6180 O 557.692 -2.96643 4.8579 0
M  V30 6181 N 558.894 -4.4712 3.70221 0
M  V30 6182 H 561.659 -0.469209 2.96004 0
M  V30 6183 H 559.22 -0.108725 1.61535 0
M  V30 6184 H 561.212 -2.9897 2.72762 0
M  V30 6185 H 559.782 -2.59649 1.74072 0
M  V30 6186 H 559.002 -1.15818 3.76802 0
M  V30 6187 H 560.29 -1.93537 4.70554 0
M  V30 6188 H 559.688 -4.70506 3.1407 0
M  V30 6189 H 558.245 -5.19837 3.93209 0
M  V30 6190 N 561.678 -1.56367 -0.196722 0
M  V30 6191 C 562.626 -1.95304 -1.2633 0
M  V30 6192 C 563.62 -0.838252 -1.47206 0
M  V30 6193 O 564.826 -1.02325 -1.48087 0
M  V30 6194 H 561.201 -0.621013 -0.424083 0
M  V30 6195 H 563.172 -2.84254 -0.907879 0
M  V30 6196 C 561.921 -2.3074 -2.60104 0
M  V30 6197 H 561.244 -3.16047 -2.44856 0
M  V30 6198 H 562.684 -2.61849 -3.33484 0
M  V30 6199 C 561.143 -1.14143 -3.16975 0
M  V30 6200 O 561.673 -0.415602 -3.99544 0
M  V30 6201 N 559.879 -0.91867 -2.75697 0
M  V30 6202 H 559.426 -1.51065 -2.08656 0
M  V30 6203 H 559.384 -0.140321 -3.14087 0
M  V30 6204 N 563.156 0.464375 -1.50603 0
M  V30 6205 C 564.405 1.21277 -1.61167 0
M  V30 6206 C 564.718 1.92953 -0.320704 0
M  V30 6207 O 565.924 2.69778 -0.30534 0
M  V30 6208 C 564.38 2.20403 -2.84518 0
M  V30 6209 C 563.988 1.54499 -4.20516 0
M  V30 6210 C 565.732 2.95843 -3.0443 0
M  V30 6211 C 563.639 2.51951 -5.35047 0
M  V30 6212 H 562.569 0.456367 -0.600204 0
M  V30 6213 H 565.22 0.48254 -1.77042 0
M  V30 6214 H 563.602 2.96746 -2.62217 0
M  V30 6215 H 564.776 0.83899 -4.53098 0
M  V30 6216 H 563.091 0.913152 -4.06264 0
M  V30 6217 H 565.688 3.6879 -3.87167 0
M  V30 6218 H 566.031 3.55622 -2.16423 0
M  V30 6219 H 566.564 2.26611 -3.26944 0
M  V30 6220 H 563.303 1.96901 -6.25228 0
M  V30 6221 H 562.823 3.20683 -5.06875 0
M  V30 6222 H 564.502 3.13643 -5.65895 0
M  V30 6223 N 564.634 1.40294 0.718013 0
M  V30 6224 C 565.88 1.38645 1.48005 0
M  V30 6225 C 566.213 -0.0121202 1.94196 0
M  V30 6226 O 565.488 -0.980309 1.67989 0
M  V30 6227 C 565.771 2.37379 2.70782 0
M  V30 6228 C 565.624 3.8625 2.30501 0
M  V30 6229 C 566.943 2.33685 3.72933 0
M  V30 6230 H 564.062 0.504928 0.536858 0
M  V30 6231 H 566.704 1.71411 0.819649 0
M  V30 6232 H 564.854 2.09568 3.27129 0
M  V30 6233 H 566.526 4.24879 1.79655 0
M  V30 6234 H 564.769 4.02202 1.6253 0
M  V30 6235 H 565.44 4.50847 3.18498 0
M  V30 6236 H 567.916 2.58314 3.2621 0
M  V30 6237 H 566.792 3.0482 4.56482 0
M  V30 6238 H 567.053 1.34765 4.21059 0
M  V30 6239 N 566.112 -0.949982 1.2575 0
M  V30 6240 C 567.389 -1.6718 1.01539 0
M  V30 6241 C 567.769 -2.06095 -0.456942 0
M  V30 6242 O 567.117 -1.77792 -1.43534 0
M  V30 6243 C 567.327 -2.8906 1.95564 0
M  V30 6244 C 568.675 -3.60909 2.23673 0
M  V30 6245 O 569.699 -2.9915 1.9336 0
M  V30 6246 O 568.558 -4.72127 2.75243 0
M  V30 6247 H 565.652 -0.731697 0.385419 0
M  V30 6248 H 568.198 -1.00249 1.36924 0
M  V30 6249 H 566.97 -2.57128 2.94959 0
M  V30 6250 H 566.593 -3.63719 1.60605 0
M  V30 6251 N 567.59 -1.07411 -1.15328 0
M  V30 6252 C 568.553 -0.698914 -2.18284 0
M  V30 6253 C 569.553 0.261149 -1.58665 0
M  V30 6254 O 570.743 0.0420277 -1.74149 0
M  V30 6255 C 567.875 -0.0302427 -3.40887 0
M  V30 6256 H 569.068 -1.61045 -2.52991 0
M  V30 6257 H 566.621 -0.870724 -1.298 0
M  V30 6258 H 567.356 0.893505 -3.11748 0
M  V30 6259 H 567.141 -0.720759 -3.85419 0
M  V30 6260 H 568.631 0.21759 -4.17033 0
M  V30 6261 N 569.068 1.32177 -0.85831 0
M  V30 6262 C 570.298 2.01021 -0.476889 0
M  V30 6263 C 570.706 1.64653 0.931995 0
M  V30 6264 O 570.049 0.865713 1.62022 0
M  V30 6265 C 570.111 3.55413 -0.540528 0
M  V30 6266 C 569.775 4.1522 -1.90895 0
M  V30 6267 C 570.772 4.3318 -2.87491 0
M  V30 6268 C 568.457 4.51212 -2.20709 0
M  V30 6269 C 570.451 4.86306 -4.1205 0
M  V30 6270 C 568.138 5.04042 -3.45521 0
M  V30 6271 C 569.136 5.21538 -4.41007 0
M  V30 6272 O 568.824 5.73238 -5.63608 0
M  V30 6273 H 568.556 0.650059 -0.18547 0
M  V30 6274 H 571.11 1.69648 -1.15796 0
M  V30 6275 H 569.34 3.86196 0.19741 0
M  V30 6276 H 571.029 4.05526 -0.174191 0
M  V30 6277 H 571.795 4.05704 -2.65762 0
M  V30 6278 H 567.674 4.36878 -1.4717 0
M  V30 6279 H 571.218 4.99877 -4.86589 0
M  V30 6280 H 567.115 5.30952 -3.67098 0
M  V30 6281 H 567.883 5.91625 -5.65617 0
M  V30 6282 N 570.547 0.616602 1.45037 0
M  V30 6283 C 571.795 0.115103 2.01772 0
M  V30 6284 C 572.116 -1.2622 1.48639 0
M  V30 6285 O 571.386 -1.83563 0.684199 0
M  V30 6286 H 569.966 0.0395607 0.745952 0
M  V30 6287 H 572.628 0.800032 1.77723 0
M  V30 6288 H 571.724 0.0717274 3.12018 0
M  V30 6289 N 572.025 -1.5352 0.356285 0
M  V30 6290 C 573.271 -2.01414 -0.236653 0
M  V30 6291 C 573.604 -1.24339 -1.49176 0
M  V30 6292 O 572.879 -0.334496 -1.91602 0
M  V30 6293 C 573.162 -3.56059 -0.537982 0
M  V30 6294 C 573.015 -4.43835 0.730112 0
M  V30 6295 C 574.334 -4.19127 -1.34239 0
M  V30 6296 H 571.453 -0.732135 -0.0845386 0
M  V30 6297 H 574.095 -1.83854 0.479341 0
M  V30 6298 H 572.245 -3.71153 -1.14795 0
M  V30 6299 H 573.917 -4.40555 1.36782 0
M  V30 6300 H 572.16 -4.1218 1.3524 0
M  V30 6301 H 572.831 -5.49958 0.474358 0
M  V30 6302 H 575.307 -4.07809 -0.826498 0
M  V30 6303 H 574.183 -5.27378 -1.52198 0
M  V30 6304 H 574.444 -3.74581 -2.34822 0
M  V30 6305 N 573.503 -0.0852151 -1.57369 0
M  V30 6306 C 574.751 0.579658 -1.93609 0
M  V30 6307 C 575.072 1.69332 -0.967043 0
M  V30 6308 O 574.342 1.95892 -0.0174215 0
M  V30 6309 H 572.922 0.217113 -0.714752 0
M  V30 6310 H 575.584 -0.146226 -1.94351 0
M  V30 6311 H 574.68 0.996276 -2.95771 0
M  V30 6312 N 574.981 1.5647 0.188427 0
M  V30 6313 C 576.206 1.85486 0.927891 0
M  V30 6314 C 576.631 0.669575 1.75779 0
M  V30 6315 O 575.989 -0.381573 1.77239 0
M  V30 6316 C 576.037 3.12784 1.7944 0
M  V30 6317 O 575.141 2.93805 2.894 0
M  V30 6318 H 574.482 0.610585 0.260925 0
M  V30 6319 H 577.012 2.037 0.191729 0
M  V30 6320 H 577.022 3.43749 2.19774 0
M  V30 6321 H 575.697 3.98671 1.18468 0
M  V30 6322 H 574.274 2.74153 2.52774 0
M  V30 6323 N 576.459 -0.456382 1.50847 0
M  V30 6324 C 577.689 -1.22848 1.66108 0
M  V30 6325 C 578.097 -1.85936 0.349897 0
M  V30 6326 O 577.44 -1.70664 -0.679665 0
M  V30 6327 C 577.502 -2.36722 2.70561 0
M  V30 6328 C 577.166 -1.94154 4.13707 0
M  V30 6329 C 578.163 -1.4557 4.99105 0
M  V30 6330 C 575.848 -2.02426 4.59705 0
M  V30 6331 C 577.842 -1.0582 6.28555 0
M  V30 6332 C 575.529 -1.62287 5.89157 0
M  V30 6333 C 576.527 -1.14064 6.73408 0
M  V30 6334 O 576.215 -0.744873 8.00442 0
M  V30 6335 H 575.947 -0.377105 0.561042 0
M  V30 6336 H 578.501 -0.549431 1.97915 0
M  V30 6337 H 576.731 -3.07844 2.34027 0
M  V30 6338 H 578.42 -2.98646 2.74892 0
M  V30 6339 H 579.186 -1.38589 4.64777 0
M  V30 6340 H 575.065 -2.38908 3.94264 0
M  V30 6341 H 578.609 -0.6811 6.94267 0
M  V30 6342 H 574.506 -1.68932 6.23003 0
M  V30 6343 H 575.274 -0.87242 8.13837 0
M  V30 6344 N 577.937 -1.40673 -0.710563 0
M  V30 6345 C 579.353 -1.22813 -1.01928 0
M  V30 6346 C 579.553 -0.10687 -2.01216 0
M  V30 6347 O 578.609 0.533614 -2.46797 0
M  V30 6348 C 579.922 -2.57178 -1.5582 0
M  V30 6349 C 581.47 -2.64233 -1.67779 0
M  V30 6350 C 581.945 -3.98879 -2.25076 0
M  V30 6351 N 583.436 -4.00647 -2.32456 0
M  V30 6352 C 584.171 -5.01621 -2.77784 0
M  V30 6353 N 583.667 -6.12989 -3.22826 0
M  V30 6354 N 585.46 -4.88988 -2.77213 0
M  V30 6355 H 577.611 -2.12335 -0.05253 0
M  V30 6356 H 579.874 -0.9441 -0.085898 0
M  V30 6357 H 579.58 -3.39903 -0.903249 0
M  V30 6358 H 579.454 -2.78618 -2.54267 0
M  V30 6359 H 581.841 -1.81876 -2.3239 0
M  V30 6360 H 581.922 -2.46619 -0.679178 0
M  V30 6361 H 581.566 -4.81678 -1.61086 0
M  V30 6362 H 581.496 -4.13826 -3.25661 0
M  V30 6363 H 583.987 -3.20231 -2.0065 0
M  V30 6364 H 584.3 -6.85921 -3.55995 0
M  V30 6365 H 582.645 -6.16547 -3.20773 0
M  V30 6366 H 585.836 -4.01075 -2.41363 0
M  V30 6367 H 586.009 -5.67822 -3.12221 0
M  V30 6368 N 579.415 0.9433 -1.26252 0
M  V30 6369 C 580.325 2.07532 -1.09397 0
M  V30 6370 C 581.341 1.73977 -0.0280449 0
M  V30 6371 O 582.517 2.00067 -0.231337 0
M  V30 6372 C 579.582 3.39002 -0.726523 0
M  V30 6373 C 578.643 3.86353 -1.87163 0
M  V30 6374 C 577.876 5.11549 -1.52162 0
M  V30 6375 O 578.099 5.68834 -0.422385 0
M  V30 6376 O 577.033 5.53889 -2.35565 0
M  V30 6377 H 580.859 2.24658 -2.04359 0
M  V30 6378 H 578.444 1.05988 -1.05295 0
M  V30 6379 H 580.326 4.18 -0.534236 0
M  V30 6380 H 579.001 3.2312 0.193721 0
M  V30 6381 H 577.908 3.0831 -2.11886 0
M  V30 6382 H 579.241 4.06752 -2.77152 0
M  V30 6383 N 580.893 1.08022 1.14757 0
M  V30 6384 C 582.139 0.808705 1.85978 0
M  V30 6385 C 582.472 -0.663764 1.82504 0
M  V30 6386 O 581.747 -1.48765 1.25296 0
M  V30 6387 C 582.03 1.32623 3.34788 0
M  V30 6388 C 581.883 2.86375 3.46856 0
M  V30 6389 C 583.202 0.948291 4.29762 0
M  V30 6390 H 580.321 0.295244 0.675278 0
M  V30 6391 H 582.963 1.33917 1.34783 0
M  V30 6392 H 581.113 0.875002 3.78518 0
M  V30 6393 H 582.785 3.39839 3.11941 0
M  V30 6394 H 581.028 3.24232 2.88194 0
M  V30 6395 H 581.699 3.17658 4.51439 0
M  V30 6396 H 584.175 1.33722 3.94028 0
M  V30 6397 H 583.051 1.33765 5.32352 0
M  V30 6398 H 583.312 -0.145094 4.41862 0
M  V30 6399 N 582.371 -1.3172 0.865308 0
M  V30 6400 C 583.319 -2.30569 0.306674 0
M  V30 6401 C 584.313 -1.59317 -0.575724 0
M  V30 6402 O 585.519 -1.73961 -0.462343 0
M  V30 6403 H 581.894 -0.747681 0.0804834 0
M  V30 6404 H 583.865 -2.75165 1.15441 0
M  V30 6405 C 582.614 -3.44358 -0.480952 0
M  V30 6406 H 581.937 -3.99354 0.18876 0
M  V30 6407 H 583.377 -4.15652 -0.837241 0
M  V30 6408 C 581.836 -2.92574 -1.67039 0
M  V30 6409 O 582.366 -2.90954 -2.76964 0
M  V30 6410 N 580.572 -2.48835 -1.50097 0
M  V30 6411 H 580.119 -2.50353 -0.606738 0
M  V30 6412 H 580.077 -2.14543 -2.29823 0
M  V30 6413 N 583.85 -0.624285 -1.44708 0
M  V30 6414 C 585.26 -0.2092 -1.85524 0
M  V30 6415 C 585.611 1.23783 -1.52225 0
M  V30 6416 O 584.736 1.94089 -0.956986 0
M  V30 6417 C 585.332 -0.372897 -3.36742 0
M  V30 6418 C 583.891 -0.012374 -3.76398 0
M  V30 6419 C 583.038 -0.68951 -2.68591 0
M  V30 6420 H 585.989 -0.829894 -1.35272 0
M  V30 6421 H 586.01 0.390134 -3.78495 0
M  V30 6422 H 585.522 -1.42615 -3.60947 0
M  V30 6423 H 583.623 1.03941 -3.57809 0
M  V30 6424 H 583.736 -0.417663 -4.77276 0
M  V30 6425 H 582.1 -0.125484 -2.54391 0
M  V30 6426 H 582.883 -1.74522 -2.9563 0
M  V30 6427 N 585.328 1.53329 -0.364422 0
M  V30 6428 C 586.291 2.24323 0.470292 0
M  V30 6429 C 587.291 1.25068 1.01067 0
M  V30 6430 O 588.481 1.49354 0.896605 0
M  V30 6431 C 585.613 2.97908 1.65722 0
M  V30 6432 H 586.806 2.9952 -0.150917 0
M  V30 6433 H 584.359 1.55868 -0.116092 0
M  V30 6434 H 585.094 2.2695 2.31655 0
M  V30 6435 H 584.879 3.70732 1.27671 0
M  V30 6436 H 586.369 3.5188 2.24878 0
M  V30 6437 N 586.806 0.0935595 1.57322 0
M  V30 6438 C 587.736 -0.863062 2.16964 0
M  V30 6439 C 588.717 -1.29528 1.10256 0
M  V30 6440 O 589.902 -1.36245 1.38387 0
M  V30 6441 C 587.032 -2.12276 2.74875 0
M  V30 6442 C 585.986 -1.82921 3.86942 0
M  V30 6443 C 585.312 -3.15707 4.31548 0
M  V30 6444 C 586.612 -1.11737 5.10208 0
M  V30 6445 H 588.306 -0.366145 2.97153 0
M  V30 6446 H 585.852 -0.174673 1.42937 0
M  V30 6447 H 587.805 -2.79634 3.1525 0
M  V30 6448 H 586.529 -2.64248 1.91938 0
M  V30 6449 H 585.188 -1.17961 3.47103 0
M  V30 6450 H 584.836 -3.65563 3.45504 0
M  V30 6451 H 584.536 -2.96849 5.07104 0
M  V30 6452 H 586.06 -3.84226 4.74555 0
M  V30 6453 H 587.474 -1.69203 5.47762 0
M  V30 6454 H 585.871 -1.03064 5.91183 0
M  V30 6455 H 586.941 -0.0998818 4.84797 0
M  V30 6456 N 588.284 -1.56567 -0.180126 0
M  V30 6457 C 589.531 -1.81492 -0.898167 0
M  V30 6458 C 589.859 -0.669225 -1.82624 0
M  V30 6459 O 589.114 0.344096 -1.92651 0
M  V30 6460 C 589.413 -3.1252 -1.73395 0
M  V30 6461 C 589.079 -4.40658 -0.955567 0
M  V30 6462 C 587.741 -4.75465 -0.740707 0
M  V30 6463 C 590.093 -5.19593 -0.408948 0
M  V30 6464 C 587.421 -5.86691 0.0320128 0
M  V30 6465 C 589.773 -6.31627 0.350638 0
M  V30 6466 C 588.437 -6.65007 0.576378 0
M  V30 6467 H 587.707 -0.664125 -0.328662 0
M  V30 6468 H 590.354 -1.908 -0.163616 0
M  V30 6469 H 588.659 -2.98515 -2.53763 0
M  V30 6470 H 590.356 -3.29013 -2.29241 0
M  V30 6471 H 586.946 -4.13352 -1.13306 0
M  V30 6472 H 591.13 -4.93104 -0.562307 0
M  V30 6473 H 586.386 -6.11016 0.216735 0
M  V30 6474 H 590.56 -6.92001 0.781497 0
M  V30 6475 H 588.187 -7.51033 1.17703 0
M  V30 6476 N 589.762 0.448376 -1.51087 0
M  V30 6477 C 590.99 1.22143 -1.66999 0
M  V30 6478 C 591.405 1.85283 -0.362699 0
M  V30 6479 O 590.762 1.70236 0.65772 0
M  V30 6480 C 590.813 2.31357 -2.7777 0
M  V30 6481 O 590.534 1.70801 -4.03434 0
M  V30 6482 C 592.035 3.21836 -3.04855 0
M  V30 6483 H 589.255 0.368558 -0.560719 0
M  V30 6484 H 591.799 0.532618 -1.97442 0
M  V30 6485 H 589.954 2.95973 -2.49958 0
M  V30 6486 H 590.368 2.42895 -4.64868 0
M  V30 6487 H 591.842 3.94627 -3.85971 0
M  V30 6488 H 592.319 3.81949 -2.16821 0
M  V30 6489 H 592.925 2.62933 -3.34285 0
M  V30 6490 N 591.24 1.41047 0.703093 0
M  V30 6491 C 592.489 1.39301 1.4587 0
M  V30 6492 C 592.802 0.00267077 1.956 0
M  V30 6493 O 594.008 -0.137414 2.71152 0
M  V30 6494 C 592.464 2.44891 2.63735 0
M  V30 6495 C 592.072 3.89796 2.20824 0
M  V30 6496 C 593.816 2.5227 3.41409 0
M  V30 6497 C 591.723 4.86955 3.35602 0
M  V30 6498 H 590.653 0.518005 0.547893 0
M  V30 6499 H 593.304 1.66839 0.764009 0
M  V30 6500 H 591.686 2.10472 3.35436 0
M  V30 6501 H 592.86 4.33424 1.56461 0
M  V30 6502 H 591.175 3.86008 1.56163 0
M  V30 6503 H 593.772 3.22044 4.26839 0
M  V30 6504 H 594.115 1.55714 3.86081 0
M  V30 6505 H 594.648 2.85742 2.7676 0
M  V30 6506 H 591.387 5.84888 2.9595 0
M  V30 6507 H 590.907 4.47982 3.98839 0
M  V30 6508 H 592.586 5.07361 4.01489 0
M  V30 6509 N 592.718 -0.936591 1.26751 0
M  V30 6510 C 593.967 -1.67778 1.11953 0
M  V30 6511 C 594.28 -1.92694 -0.33589 0
M  V30 6512 O 595.486 -2.64682 -0.604618 0
M  V30 6513 C 593.942 -3.02138 1.95551 0
M  V30 6514 C 593.55 -2.84953 3.45696 0
M  V30 6515 C 595.294 -3.79917 1.89377 0
M  V30 6516 C 593.201 -4.14814 4.21525 0
M  V30 6517 H 592.131 -0.629275 0.415366 0
M  V30 6518 H 594.782 -1.04122 1.51099 0
M  V30 6519 H 593.164 -3.668 1.49243 0
M  V30 6520 H 594.338 -2.29112 3.99805 0
M  V30 6521 H 592.653 -2.20612 3.53156 0
M  V30 6522 H 595.25 -4.76134 2.43312 0
M  V30 6523 H 595.593 -4.07204 0.865464 0
M  V30 6524 H 596.126 -3.22037 2.33532 0
M  V30 6525 H 592.865 -3.92709 5.24843 0
M  V30 6526 H 592.385 -4.70352 3.72195 0
M  V30 6527 H 594.064 -4.83239 4.3022 0
M  V30 6528 N 594.196 -1.08629 -1.14182 0
M  V30 6529 C 595.424 -0.838889 -1.8913 0
M  V30 6530 C 595.839 0.609153 -1.78703 0
M  V30 6531 O 595.196 1.41876 -1.14794 0
M  V30 6532 C 595.247 -1.25477 -3.39025 0
M  V30 6533 O 594.968 -2.64601 -3.49167 0
M  V30 6534 C 596.469 -1.03856 -4.30963 0
M  V30 6535 H 593.689 -0.302377 -0.599007 0
M  V30 6536 H 596.233 -1.44615 -1.44592 0
M  V30 6537 H 594.388 -0.691571 -3.81177 0
M  V30 6538 H 594.802 -2.81922 -4.42289 0
M  V30 6539 H 596.276 -1.37892 -5.345 0
M  V30 6540 H 596.753 0.0242522 -4.39193 0
M  V30 6541 H 597.359 -1.58731 -3.94569 0
M  V30 6542 N 595.674 1.31259 -0.872281 0
M  V30 6543 C 596.921 1.96622 -0.484365 0
M  V30 6544 C 597.249 1.68939 0.963841 0
M  V30 6545 O 596.504 0.97974 1.6941 0
M  V30 6546 C 596.803 3.50659 -0.690889 0
M  V30 6547 C 596.469 3.98366 -2.11224 0
M  V30 6548 C 595.131 4.11104 -2.50094 0
M  V30 6549 C 597.483 4.23425 -3.0391 0
M  V30 6550 C 594.811 4.46254 -3.80887 0
M  V30 6551 C 597.163 4.60039 -4.3422 0
M  V30 6552 C 595.827 4.70984 -4.73001 0
M  V30 6553 H 595.097 0.71949 -0.177242 0
M  V30 6554 H 597.744 1.56353 -1.10571 0
M  V30 6555 H 596.049 3.91798 0.0135782 0
M  V30 6556 H 597.746 3.99284 -0.370534 0
M  V30 6557 H 594.336 3.88949 -1.80047 0
M  V30 6558 H 598.52 4.13075 -2.75104 0
M  V30 6559 H 593.776 4.52926 -4.10692 0
M  V30 6560 H 597.95 4.78381 -5.06088 0
M  V30 6561 H 595.577 4.97977 -5.7439 0
M  V30 6562 N 597.152 0.631951 1.44375 0
M  V30 6563 C 598.563 0.219036 1.85411 0
M  V30 6564 C 598.914 -1.22974 1.52879 0
M  V30 6565 O 598.039 -1.93579 0.967266 0
M  V30 6566 C 598.634 0.39075 3.36539 0
M  V30 6567 C 597.193 0.0323351 3.76386 0
M  V30 6568 C 596.34 0.703744 2.68221 0
M  V30 6569 H 599.291 0.837056 1.3483 0
M  V30 6570 H 599.312 -0.370056 3.78696 0
M  V30 6571 H 598.824 1.44527 3.60185 0
M  V30 6572 H 596.925 -1.02042 3.58355 0
M  V30 6573 H 597.038 0.442969 4.77048 0
M  V30 6574 H 595.402 0.138974 2.54321 0
M  V30 6575 H 596.185 1.76088 2.947 0
M  V30 6576 N 598.631 -1.53133 0.372548 0
M  V30 6577 C 599.878 -2.01356 -0.214959 0
M  V30 6578 C 600.206 -1.2596 -1.48204 0
M  V30 6579 O 599.461 -0.343511 -1.92662 0
M  V30 6580 C 599.76 -3.53206 -0.545938 0
M  V30 6581 C 599.426 -4.46511 0.627624 0
M  V30 6582 C 598.088 -4.71737 0.949615 0
M  V30 6583 C 600.44 -5.01666 1.41353 0
M  V30 6584 C 597.768 -5.4937 2.05936 0
M  V30 6585 C 600.12 -5.80511 2.51375 0
M  V30 6586 C 598.784 -6.04022 2.84101 0
M  V30 6587 H 598.054 -0.736813 -0.078659 0
M  V30 6588 H 600.701 -1.84682 0.506447 0
M  V30 6589 H 599.006 -3.67864 -1.34845 0
M  V30 6590 H 600.703 -3.87997 -1.01287 0
M  V30 6591 H 597.293 -4.27029 0.366635 0
M  V30 6592 H 601.477 -4.82117 1.17802 0
M  V30 6593 H 596.733 -5.65803 2.31682 0
M  V30 6594 H 600.907 -6.22255 3.12684 0
M  V30 6595 H 598.534 -6.63962 3.70214 0
M  V30 6596 N 600.109 -0.101901 -1.5727 0
M  V30 6597 C 601.039 0.851544 -2.17419 0
M  V30 6598 C 602.02 1.28942 -1.10941 0
M  V30 6599 O 603.205 1.35509 -1.39107 0
M  V30 6600 C 600.335 2.10816 -2.75996 0
M  V30 6601 C 599.289 1.80867 -3.87906 0
M  V30 6602 C 598.615 3.13413 -4.33216 0
M  V30 6603 C 599.915 1.0903 -5.10793 0
M  V30 6604 H 601.609 0.350381 -2.97343 0
M  V30 6605 H 599.155 0.16709 -1.43027 0
M  V30 6606 H 601.108 2.77959 -3.16729 0
M  V30 6607 H 599.832 2.63227 -1.93337 0
M  V30 6608 H 598.491 1.16119 -3.47724 0
M  V30 6609 H 598.139 3.63725 -3.47438 0
M  V30 6610 H 597.839 2.94155 -5.08671 0
M  V30 6611 H 599.363 3.81704 -4.76586 0
M  V30 6612 H 600.777 1.66295 -5.48652 0
M  V30 6613 H 599.174 0.99927 -5.91722 0
M  V30 6614 H 600.244 0.0741704 -4.84843 0
M  V30 6615 N 601.587 1.56661 0.17182 0
M  V30 6616 C 602.834 1.81965 0.888529 0
M  V30 6617 C 603.162 0.6789 1.82267 0
M  V30 6618 O 602.417 -0.333875 1.92831 0
M  V30 6619 C 602.716 3.13435 1.71736 0
M  V30 6620 C 602.382 4.41159 0.932184 0
M  V30 6621 C 601.044 4.75851 0.715481 0
M  V30 6622 C 603.396 5.19803 0.381387 0
M  V30 6623 C 600.724 5.86666 -0.063126 0
M  V30 6624 C 603.076 6.31433 -0.384129 0
M  V30 6625 C 601.74 6.64692 -0.611637 0
M  V30 6626 H 601.01 0.665859 0.325136 0
M  V30 6627 H 603.657 1.90884 0.153495 0
M  V30 6628 H 601.962 2.99857 2.52177 0
M  V30 6629 H 603.659 3.30224 2.27493 0
M  V30 6630 H 600.249 4.13947 1.11112 0
M  V30 6631 H 604.433 4.93396 0.536148 0
M  V30 6632 H 599.689 6.10892 -0.249136 0
M  V30 6633 H 603.863 6.91577 -0.818185 0
M  V30 6634 H 601.49 7.50398 -1.21684 0
M  V30 6635 N 603.065 -0.440357 1.51323 0
M  V30 6636 C 604.028 -1.51679 1.71832 0
M  V30 6637 C 605.028 -1.49648 0.588386 0
M  V30 6638 O 606.218 -1.51724 0.855891 0
M  V30 6639 C 603.35 -2.91228 1.77199 0
M  V30 6640 H 604.543 -1.34799 2.67898 0
M  V30 6641 H 602.096 -0.66883 1.41267 0
M  V30 6642 H 602.831 -3.13516 0.829363 0
M  V30 6643 H 602.616 -2.94107 2.59314 0
M  V30 6644 H 604.106 -3.69321 1.94915 0
M  V30 6645 N 604.543 -1.41418 -0.695603 0
M  V30 6646 C 605.789 -1.40982 -1.4578 0
M  V30 6647 C 606.122 -0.0187763 -1.94191 0
M  V30 6648 O 605.397 0.95346 -1.69527 0
M  V30 6649 C 605.68 -2.41657 -2.66972 0
M  V30 6650 C 605.533 -3.89869 -2.24327 0
M  V30 6651 C 606.852 -2.39589 -3.69168 0
M  V30 6652 H 603.971 -0.513405 -0.528757 0
M  V30 6653 H 606.613 -1.72693 -0.792275 0
M  V30 6654 H 604.763 -2.14746 -3.23754 0
M  V30 6655 H 606.435 -4.27683 -1.72872 0
M  V30 6656 H 604.678 -4.04737 -1.56111 0
M  V30 6657 H 605.349 -4.55857 -3.11285 0
M  V30 6658 H 607.825 -2.63471 -3.2206 0
M  V30 6659 H 606.701 -3.12044 -4.51575 0
M  V30 6660 H 606.962 -1.41447 -4.18862 0
M  V30 6661 N 606.021 0.929856 -1.27246 0
M  V30 6662 C 606.954 2.03069 -1.04106 0
M  V30 6663 C 607.932 1.62556 0.0378417 0
M  V30 6664 O 609.116 1.88197 -0.106869 0
M  V30 6665 C 606.243 3.33718 -0.578778 0
M  V30 6666 C 605.289 3.93209 -1.65193 0
M  V30 6667 S 606.122 4.26068 -3.24386 0
M  V30 6668 C 607.278 5.598 -2.79954 0
M  V30 6669 H 607.511 2.22386 -1.97311 0
M  V30 6670 H 605.044 1.07269 -1.11053 0
M  V30 6671 H 607.002 4.09261 -0.31874 0
M  V30 6672 H 605.663 3.12328 0.333182 0
M  V30 6673 H 604.856 4.87482 -1.27973 0
M  V30 6674 H 604.458 3.24243 -1.86393 0
M  V30 6675 H 606.75 6.39004 -2.25123 0
M  V30 6676 H 607.693 6.01917 -3.72963 0
M  V30 6677 H 608.101 5.20219 -2.19164 0
M  V30 6678 N 607.499 1.09233 1.13605 0
M  V30 6679 C 608.746 0.827159 1.84836 0
M  V30 6680 C 609.074 -0.647199 1.83416 0
M  V30 6681 O 608.329 -1.49228 1.26608 0
M  V30 6682 C 608.628 1.305 3.32723 0
M  V30 6683 C 608.294 2.78864 3.54325 0
M  V30 6684 C 606.956 3.19382 3.59928 0
M  V30 6685 C 609.308 3.74532 3.62457 0
M  V30 6686 C 606.636 4.54346 3.71196 0
M  V30 6687 C 608.988 5.09283 3.75252 0
M  V30 6688 C 607.652 5.49394 3.79108 0
M  V30 6689 H 606.922 0.302679 0.676363 0
M  V30 6690 H 609.569 1.36676 1.34134 0
M  V30 6691 H 607.874 0.68517 3.85762 0
M  V30 6692 H 609.571 1.07648 3.86281 0
M  V30 6693 H 606.161 2.46507 3.50617 0
M  V30 6694 H 610.345 3.44343 3.57409 0
M  V30 6695 H 605.601 4.84864 3.72447 0
M  V30 6696 H 609.775 5.83269 3.80487 0
M  V30 6697 H 607.402 6.5397 3.87591 0
M  V30 6698 N 608.977 -1.30795 0.87923 0
M  V30 6699 C 610.225 -1.95974 0.493809 0
M  V30 6700 C 610.546 -1.69787 -0.959021 0
M  V30 6701 O 609.816 -1.01832 -1.67353 0
M  V30 6702 H 608.396 -0.725083 0.179622 0
M  V30 6703 H 611.058 -1.59432 1.12105 0
M  V30 6704 H 610.154 -3.05058 0.659263 0
M  V30 6705 N 610.455 -0.639598 -1.44038 0
M  V30 6706 C 611.732 -0.078012 -1.95444 0
M  V30 6707 C 612.112 1.39847 -1.58133 0
M  V30 6708 O 611.46 2.11714 -0.859614 0
M  V30 6709 C 611.67 -0.309832 -3.47622 0
M  V30 6710 C 613.018 -0.207521 -4.24093 0
M  V30 6711 O 614.042 -0.241653 -3.55379 0
M  V30 6712 O 612.901 -0.119641 -5.46369 0
M  V30 6713 H 609.995 0.0174534 -0.826816 0
M  V30 6714 H 612.541 -0.711891 -1.54046 0
M  V30 6715 H 611.313 -1.33401 -3.67858 0
M  V30 6716 H 610.936 0.357777 -3.95987 0
M  V30 6717 N 611.933 1.52934 -0.380664 0
M  V30 6718 C 613.18 2.01467 0.204278 0
M  V30 6719 C 613.508 1.26744 1.47533 0
M  V30 6720 O 612.763 0.353723 1.92477 0
M  V30 6721 C 613.062 3.5349 0.527199 0
M  V30 6722 C 612.728 4.46171 -0.651295 0
M  V30 6723 C 611.39 4.71227 -0.974619 0
M  V30 6724 C 613.742 5.00909 -1.44012 0
M  V30 6725 C 611.07 5.4827 -2.08847 0
M  V30 6726 C 613.422 5.7917 -2.5445 0
M  V30 6727 C 612.086 6.02507 -2.87301 0
M  V30 6728 H 611.356 0.73722 0.0747504 0
M  V30 6729 H 614.003 1.84411 -0.516234 0
M  V30 6730 H 612.308 3.68574 1.32892 0
M  V30 6731 H 614.005 3.88529 0.992283 0
M  V30 6732 H 610.595 4.26829 -0.389276 0
M  V30 6733 H 614.779 4.81485 -1.20357 0
M  V30 6734 H 610.035 5.64567 -2.34679 0
M  V30 6735 H 614.209 6.20588 -3.1598 0
M  V30 6736 H 611.836 6.61989 -3.7373 0
M  V30 6737 N 613.412 0.11024 1.57214 0
M  V30 6738 C 614.66 -0.548783 1.94506 0
M  V30 6739 C 614.981 -1.67772 0.99386 0
M  V30 6740 O 614.251 -1.9584 0.0485841 0
M  V30 6741 H 612.831 -0.205715 0.718116 0
M  V30 6742 H 615.493 0.177127 1.94093 0
M  V30 6743 H 614.589 -0.949096 2.97319 0
M  V30 6744 N 614.89 -1.56749 -0.16351 0
M  V30 6745 C 615.84 -1.93424 -1.20712 0
M  V30 6746 C 616.824 -0.803469 -1.39403 0
M  V30 6747 O 618.016 -1.06675 -1.41243 0
M  V30 6748 C 615.145 -2.30431 -2.54473 0
M  V30 6749 C 614.231 -3.5004 -2.39443 0
M  V30 6750 N 614.622 -4.67058 -1.9414 0
M  V30 6751 C 612.92 -3.548 -2.70246 0
M  V30 6752 C 613.621 -5.49184 -1.9176 0
M  V30 6753 N 612.597 -4.9044 -2.34457 0
M  V30 6754 H 616.399 -2.8138 -0.848681 0
M  V30 6755 H 613.913 -1.58089 -0.371717 0
M  V30 6756 H 615.91 -2.54903 -3.29894 0
M  V30 6757 H 614.57 -1.43818 -2.91112 0
M  V30 6758 H 615.581 -4.91128 -1.64357 0
M  V30 6759 H 612.258 -2.78685 -3.10871 0
M  V30 6760 H 613.648 -6.5297 -1.58366 0
M  V30 6761 N 616.368 0.432326 -1.51554 0
M  V30 6762 C 617.616 1.17901 -1.64146 0
M  V30 6763 C 617.937 1.91604 -0.362367 0
M  V30 6764 O 617.207 1.85764 0.621968 0
M  V30 6765 H 615.787 0.438206 -0.604966 0
M  V30 6766 H 618.449 0.495172 -1.88505 0
M  V30 6767 H 617.545 1.90584 -2.47152 0
M  V30 6768 N 617.846 1.41785 0.688094 0
M  V30 6769 C 619.093 1.41544 1.44816 0
M  V30 6770 C 619.421 0.0271746 1.94481 0
M  V30 6771 O 618.676 -0.962235 1.7041 0
M  V30 6772 C 618.975 2.37532 2.67046 0
M  V30 6773 C 618.641 3.84209 2.35996 0
M  V30 6774 C 617.303 4.24165 2.27239 0
M  V30 6775 C 619.655 4.76785 2.10536 0
M  V30 6776 C 616.983 5.54695 1.91128 0
M  V30 6777 C 619.335 6.07644 1.75931 0
M  V30 6778 C 617.999 6.46613 1.65675 0
M  V30 6779 H 617.269 0.517945 0.529919 0
M  V30 6780 H 619.916 1.74635 0.785797 0
M  V30 6781 H 618.221 1.9772 3.38251 0
M  V30 6782 H 619.918 2.34615 3.25203 0
M  V30 6783 H 616.508 3.52567 2.4371 0
M  V30 6784 H 620.692 4.46714 2.16242 0
M  V30 6785 H 615.948 5.83762 1.81746 0
M  V30 6786 H 620.122 6.78874 1.55252 0
M  V30 6787 H 617.749 7.47668 1.37463 0
M  V30 6788 N 619.324 -0.923095 1.27737 0
M  V30 6789 C 620.57 -1.67375 1.14514 0
M  V30 6790 C 620.903 -1.91751 -0.307424 0
M  V30 6791 O 620.178 -1.51119 -1.22447 0
M  V30 6792 C 620.461 -3.03745 1.9342 0
M  V30 6793 C 620.314 -2.86581 3.46686 0
M  V30 6794 C 621.633 -4.04144 1.74228 0
M  V30 6795 H 618.752 -0.607427 0.417374 0
M  V30 6796 H 621.394 -1.07089 1.56946 0
M  V30 6797 H 619.544 -3.55204 1.5736 0
M  V30 6798 H 621.216 -2.42203 3.92601 0
M  V30 6799 H 619.459 -2.21829 3.72793 0
M  V30 6800 H 620.13 -3.83381 3.97143 0
M  V30 6801 H 622.606 -3.61712 2.05678 0
M  V30 6802 H 621.482 -4.97543 2.31824 0
M  V30 6803 H 621.743 -4.36661 0.691373 0
M  V30 6804 N 620.802 -1.09834 -1.13024 0
M  V30 6805 C 621.735 -0.685453 -2.17662 0
M  V30 6806 C 622.713 0.310142 -1.59615 0
M  V30 6807 O 623.897 0.21052 -1.87321 0
M  V30 6808 C 621.024 -0.0104476 -3.38698 0
M  V30 6809 C 620.07 -0.968522 -4.15358 0
M  V30 6810 S 620.903 -2.48272 -4.74469 0
M  V30 6811 C 622.059 -1.82025 -5.98847 0
M  V30 6812 H 622.292 -1.57187 -2.52348 0
M  V30 6813 H 619.825 -0.914728 -1.24387 0
M  V30 6814 H 621.783 0.372694 -4.08805 0
M  V30 6815 H 620.444 0.852673 -3.02305 0
M  V30 6816 H 619.637 -0.443373 -5.02046 0
M  V30 6817 H 619.239 -1.29327 -3.50928 0
M  V30 6818 H 621.531 -1.14678 -6.67724 0
M  V30 6819 H 622.474 -2.66645 -6.55977 0
M  V30 6820 H 622.882 -1.2874 -5.49624 0
M  V30 6821 N 622.28 1.30327 -0.886154 0
M  V30 6822 C 623.527 1.96097 -0.505192 0
M  V30 6823 C 623.855 1.69952 0.945868 0
M  V30 6824 O 623.11 0.997653 1.68361 0
M  V30 6825 C 623.409 3.49906 -0.728042 0
M  V30 6826 C 623.075 3.96103 -2.15437 0
M  V30 6827 C 621.737 4.08428 -2.5444 0
M  V30 6828 C 624.089 4.20177 -3.08384 0
M  V30 6829 C 621.417 4.42189 -3.85598 0
M  V30 6830 C 623.769 4.55407 -4.39075 0
M  V30 6831 C 622.433 4.65941 -4.7797 0
M  V30 6832 H 621.703 0.71757 -0.184863 0
M  V30 6833 H 624.35 1.55171 -1.12223 0
M  V30 6834 H 622.655 3.9179 -0.027978 0
M  V30 6835 H 624.352 3.98869 -0.412862 0
M  V30 6836 H 620.942 3.87017 -1.84162 0
M  V30 6837 H 625.126 4.10134 -2.7947 0
M  V30 6838 H 620.382 4.48544 -4.15473 0
M  V30 6839 H 624.556 4.72986 -5.11133 0
M  V30 6840 H 622.183 4.91856 -5.79639 0
M  V30 6841 N 623.758 0.647228 1.43697 0
M  V30 6842 C 624.688 -0.0345631 2.33474 0
M  V30 6843 C 625.669 -0.818193 1.4913 0
M  V30 6844 O 626.854 -0.780867 1.77809 0
M  V30 6845 C 623.984 -1.00576 3.32418 0
M  V30 6846 C 622.938 -0.33266 4.26705 0
M  V30 6847 C 622.264 -1.41489 5.1564 0
M  V30 6848 C 623.564 0.771204 5.16575 0
M  V30 6849 H 625.258 0.715163 2.90733 0
M  V30 6850 H 622.804 0.345364 1.39797 0
M  V30 6851 H 624.757 -1.49159 3.94119 0
M  V30 6852 H 623.481 -1.78657 2.73403 0
M  V30 6853 H 622.14 0.13267 3.6636 0
M  V30 6854 H 621.788 -2.18698 4.52968 0
M  V30 6855 H 621.488 -0.969799 5.79542 0
M  V30 6856 H 623.012 -1.9022 5.80214 0
M  V30 6857 H 624.426 0.36779 5.72119 0
M  V30 6858 H 622.823 1.1404 5.89165 0
M  V30 6859 H 623.893 1.63169 4.56622 0
M  V30 6860 N 625.236 -1.5273 0.388769 0
M  V30 6861 C 626.483 -2.01573 -0.19359 0
M  V30 6862 C 626.811 -1.27525 -1.46859 0
M  V30 6863 O 626.066 -0.363926 -1.92286 0
M  V30 6864 C 626.365 -3.53765 -0.508445 0
M  V30 6865 C 626.031 -4.4582 0.674947 0
M  V30 6866 C 624.693 -4.70703 0.999596 0
M  V30 6867 C 627.045 -5.00138 1.46666 0
M  V30 6868 C 624.373 -5.47155 2.11751 0
M  V30 6869 C 626.725 -5.77812 2.57518 0
M  V30 6870 C 625.389 -6.00975 2.90492 0
M  V30 6871 H 624.659 -0.737606 -0.0708397 0
M  V30 6872 H 627.306 -1.84134 0.526006 0
M  V30 6873 H 625.611 -3.69274 -1.30936 0
M  V30 6874 H 627.308 -3.8905 -0.971664 0
M  V30 6875 H 623.898 -4.26616 0.411906 0
M  V30 6876 H 628.082 -4.8084 1.22909 0
M  V30 6877 H 623.338 -5.63314 2.3767 0
M  V30 6878 H 627.512 -6.18904 3.19267 0
M  V30 6879 H 625.139 -6.59998 3.77236 0
M  V30 6880 N 626.714 -0.118576 -1.57153 0
M  V30 6881 C 627.677 0.817464 -2.14127 0
M  V30 6882 C 628.677 1.1949 -1.07604 0
M  V30 6883 O 629.867 1.12048 -1.33382 0
M  V30 6884 C 626.999 2.10541 -2.68115 0
M  V30 6885 H 628.192 0.322339 -2.98163 0
M  V30 6886 H 625.745 0.130655 -1.55753 0
M  V30 6887 H 626.48 2.64485 -1.87665 0
M  V30 6888 H 626.265 1.84425 -3.4602 0
M  V30 6889 H 627.755 2.77453 -3.12105 0
M  V30 6890 N 628.193 1.56834 0.155195 0
M  V30 6891 C 629.123 2.00678 1.19376 0
M  V30 6892 C 630.104 0.884973 1.45266 0
M  V30 6893 O 631.289 1.1522 1.56326 0
M  V30 6894 C 628.419 2.38042 2.5289 0
M  V30 6895 C 627.373 3.53332 2.41538 0
M  V30 6896 C 626.699 3.76485 3.79688 0
M  V30 6897 C 627.999 4.86265 1.9064 0
M  V30 6898 H 629.693 2.87688 0.829232 0
M  V30 6899 H 627.239 1.38407 0.397445 0
M  V30 6900 H 629.192 2.67314 3.25763 0
M  V30 6901 H 627.916 1.4796 2.91162 0
M  V30 6902 H 626.575 3.24213 1.71117 0
M  V30 6903 H 626.223 2.83667 4.15382 0
M  V30 6904 H 625.923 4.54068 3.72956 0
M  V30 6905 H 627.447 4.08174 4.54122 0
M  V30 6906 H 628.861 5.14308 2.53299 0
M  V30 6907 H 627.258 5.67597 1.94818 0
M  V30 6908 H 628.328 4.77184 0.861596 0
M  V30 6909 N 629.671 -0.424282 1.51781 0
M  V30 6910 C 630.601 -1.52305 1.7699 0
M  V30 6911 C 631.582 -1.5839 0.620209 0
M  V30 6912 O 632.767 -1.73908 0.864268 0
M  V30 6913 C 629.897 -2.90271 1.90683 0
M  V30 6914 C 628.851 -2.99043 3.06198 0
M  V30 6915 C 628.177 -4.39116 3.05092 0
M  V30 6916 C 629.477 -2.7192 4.45934 0
M  V30 6917 H 631.171 -1.31461 2.68995 0
M  V30 6918 H 628.717 -0.630985 1.29439 0
M  V30 6919 H 630.67 -3.6711 2.06901 0
M  V30 6920 H 629.394 -3.12376 0.953365 0
M  V30 6921 H 628.053 -2.24646 2.89706 0
M  V30 6922 H 627.701 -4.58207 2.07498 0
M  V30 6923 H 627.401 -4.45912 3.82669 0
M  V30 6924 H 628.925 -5.17911 3.2342 0
M  V30 6925 H 630.339 -3.38487 4.62709 0
M  V30 6926 H 628.736 -2.90111 5.25315 0
M  V30 6927 H 629.806 -1.67445 4.55072 0
M  V30 6928 N 631.149 -1.42148 -0.680565 0
M  V30 6929 C 632.079 -1.4796 -1.80638 0
M  V30 6930 C 633.06 -0.336728 -1.66734 0
M  V30 6931 O 634.245 -0.550247 -1.86242 0
M  V30 6932 C 631.375 -1.37569 -3.18892 0
M  V30 6933 C 630.329 -2.49823 -3.47524 0
M  V30 6934 C 629.655 -2.24491 -4.85291 0
M  V30 6935 C 630.955 -3.92144 -3.44994 0
M  V30 6936 H 632.649 -2.42184 -1.76032 0
M  V30 6937 H 630.195 -1.16566 -0.845481 0
M  V30 6938 H 632.148 -1.40243 -3.97379 0
M  V30 6939 H 630.872 -0.398357 -3.24162 0
M  V30 6940 H 629.531 -2.46455 -2.71395 0
M  V30 6941 H 629.179 -1.25066 -4.87204 0
M  V30 6942 H 628.879 -2.99722 -5.05411 0
M  V30 6943 H 630.403 -2.28906 -5.66069 0
M  V30 6944 H 631.817 -3.97145 -4.13459 0
M  V30 6945 H 630.214 -4.67179 -3.76648 0
M  V30 6946 H 631.284 -4.19225 -2.43676 0
M  V30 6947 N 632.627 0.916307 -1.28225 0
M  V30 6948 C 633.873 1.66765 -1.154 0
M  V30 6949 C 634.206 1.91912 0.297251 0
M  V30 6950 O 633.481 1.51766 1.21644 0
M  V30 6951 C 633.764 3.02715 -1.95028 0
M  V30 6952 C 633.617 2.84738 -3.48201 0
M  V30 6953 C 634.936 4.03215 -1.76369 0
M  V30 6954 H 632.055 0.605205 -0.42059 0
M  V30 6955 H 634.697 1.06255 -1.57512 0
M  V30 6956 H 632.847 3.54365 -1.59242 0
M  V30 6957 H 634.519 2.40118 -3.9388 0
M  V30 6958 H 632.762 2.19848 -3.73964 0
M  V30 6959 H 633.433 3.8127 -3.99171 0
M  V30 6960 H 635.909 3.60617 -2.07593 0
M  V30 6961 H 634.785 4.96306 -2.34459 0
M  V30 6962 H 635.046 4.36288 -0.71452 0
M  V30 6963 N 634.105 1.10431 1.1244 0
M  V30 6964 C 635.035 0.775143 2.20258 0
M  V30 6965 C 636.016 -0.25186 1.68225 0
M  V30 6966 O 637.201 -0.117637 1.93843 0
M  V30 6967 C 634.331 0.206133 3.46688 0
M  V30 6968 C 633.285 1.16382 4.11873 0
M  V30 6969 C 632.611 0.456014 5.32752 0
M  V30 6970 C 633.911 2.5104 4.58013 0
M  V30 6971 H 635.605 1.67665 2.4805 0
M  V30 6972 H 633.151 0.807595 1.19222 0
M  V30 6973 H 635.104 -0.036291 4.21384 0
M  V30 6974 H 633.828 -0.730614 3.18323 0
M  V30 6975 H 632.487 1.39169 3.39157 0
M  V30 6976 H 632.135 -0.485203 5.00654 0
M  V30 6977 H 631.835 1.09466 5.77314 0
M  V30 6978 H 633.359 0.222135 6.10196 0
M  V30 6979 H 634.773 2.32401 5.24083 0
M  V30 6980 H 633.17 3.10789 5.13352 0
M  V30 6981 H 634.24 3.11039 3.71998 0
M  V30 6982 N 635.583 -1.29855 0.893053 0
M  V30 6983 C 636.531 -2.29867 0.355512 0
M  V30 6984 C 637.525 -1.60502 -0.541801 0
M  V30 6985 O 638.731 -1.74902 -0.425339 0
M  V30 6986 H 635.106 -0.745805 0.0963247 0
M  V30 6987 H 637.077 -2.72655 1.21252 0
M  V30 6988 C 635.826 -3.453 -0.407801 0
M  V30 6989 H 635.149 -3.98864 0.273426 0
M  V30 6990 H 636.589 -4.17334 -0.748887 0
M  V30 6991 C 635.048 -2.96051 -1.60795 0
M  V30 6992 O 635.578 -2.96763 -2.7073 0
M  V30 6993 N 633.784 -2.51963 -1.44786 0
M  V30 6994 H 633.331 -2.51583 -0.553498 0
M  V30 6995 H 633.289 -2.1937 -2.2522 0
M  V30 6996 N 637.061 -0.65484 -1.43351 0
M  V30 6997 C 637.971 0.0363603 -2.34572 0
M  V30 6998 C 638.987 0.810432 -1.53974 0
M  V30 6999 O 640.163 0.757308 -1.86619 0
M  V30 7000 C 637.228 0.989733 -3.32273 0
M  V30 7001 C 636.289 0.212414 -4.28774 0
M  V30 7002 C 635.522 1.12038 -5.21808 0
M  V30 7003 O 635.745 2.35967 -5.19303 0
M  V30 7004 O 634.679 0.59191 -5.98982 0
M  V30 7005 H 638.505 -0.714527 -2.95175 0
M  V30 7006 H 636.09 -0.415029 -1.4352 0
M  V30 7007 H 637.972 1.53759 -3.92347 0
M  V30 7008 H 636.647 1.72082 -2.74171 0
M  V30 7009 H 635.554 -0.379062 -3.72175 0
M  V30 7010 H 636.887 -0.479138 -4.89862 0
M  V30 7011 N 638.539 1.52521 -0.396863 0
M  V30 7012 C 639.487 2.28217 0.44943 0
M  V30 7013 C 640.481 1.32416 1.05652 0
M  V30 7014 O 641.687 1.49925 0.996124 0
M  V30 7015 H 638.062 0.733966 0.1637 0
M  V30 7016 H 640.033 2.97658 -0.210367 0
M  V30 7017 C 638.782 3.10713 1.56054 0
M  V30 7018 H 638.105 3.84291 1.10273 0
M  V30 7019 H 639.545 3.66803 2.12677 0
M  V30 7020 C 638.004 2.23499 2.52091 0
M  V30 7021 O 638.534 1.8669 3.55682 0
M  V30 7022 N 636.74 1.8751 2.2201 0
M  V30 7023 H 636.287 2.17643 1.37802 0
M  V30 7024 H 636.245 1.29448 2.86514 0
M  V30 7025 N 640.017 0.126909 1.57088 0
M  V30 7026 C 640.967 -0.831678 2.1229 0
M  V30 7027 C 641.951 -1.22292 1.04564 0
M  V30 7028 O 643.143 -1.19269 1.30782 0
M  V30 7029 C 640.272 -2.07866 2.73215 0
M  V30 7030 C 639.358 -1.71143 3.88035 0
M  V30 7031 N 639.749 -1.05136 4.94753 0
M  V30 7032 C 638.047 -2.00549 3.98367 0
M  V30 7033 C 638.748 -0.877257 5.75047 0
M  V30 7034 N 637.724 -1.40477 5.25135 0
M  V30 7035 H 641.526 -0.317926 2.92175 0
M  V30 7036 H 639.04 -0.0753052 1.62225 0
M  V30 7037 H 641.037 -2.77516 3.11111 0
M  V30 7038 H 639.697 -2.59778 1.94796 0
M  V30 7039 H 640.708 -0.71442 5.12949 0
M  V30 7040 H 637.385 -2.54452 3.30999 0
M  V30 7041 H 638.775 -0.358536 6.70943 0
M  V30 7042 N 641.495 -1.56914 -0.146875 0
M  V30 7043 C 642.906 -1.72799 -0.706928 0
M  V30 7044 C 643.257 -0.741329 -1.81656 0
M  V30 7045 O 642.382 0.0920162 -2.16204 0
M  V30 7046 C 642.977 -3.13317 -1.28911 0
M  V30 7047 C 641.536 -3.30803 -1.79573 0
M  V30 7048 C 640.683 -2.68725 -0.684252 0
M  V30 7049 H 643.634 -1.58504 0.0787931 0
M  V30 7050 H 643.655 -3.13323 -2.15891 0
M  V30 7051 H 643.167 -3.85104 -0.481284 0
M  V30 7052 H 641.268 -2.64012 -2.62923 0
M  V30 7053 H 641.381 -4.38754 -1.92436 0
M  V30 7054 H 639.745 -2.29196 -1.11091 0
M  V30 7055 H 640.528 -3.43117 0.112134 0
M  V30 7056 N 642.974 0.416227 -1.52004 0
M  V30 7057 C 644.39 0.754319 -1.40649 0
M  V30 7058 C 644.59 1.95059 -0.505392 0
M  V30 7059 O 643.646 2.5248 0.0315057 0
M  V30 7060 C 644.959 1.0149 -2.83055 0
M  V30 7061 C 646.507 1.11805 -2.9235 0
M  V30 7062 C 646.982 1.41144 -4.35709 0
M  V30 7063 N 648.473 1.48024 -4.38911 0
M  V30 7064 C 649.208 1.72338 -5.46889 0
M  V30 7065 N 648.704 1.94303 -6.64995 0
M  V30 7066 N 650.497 1.74294 -5.34395 0
M  V30 7067 H 642.648 -0.371324 -2.09129 0
M  V30 7068 H 644.911 -0.103811 -0.942299 0
M  V30 7069 H 644.617 0.208345 -3.51082 0
M  V30 7070 H 644.491 1.93697 -3.23668 0
M  V30 7071 H 646.878 1.91521 -2.24508 0
M  V30 7072 H 646.959 0.17451 -2.55204 0
M  V30 7073 H 646.603 0.619484 -5.04108 0
M  V30 7074 H 646.533 2.36739 -4.70385 0
M  V30 7075 H 649.024 1.32868 -3.53772 0
M  V30 7076 H 649.337 2.12286 -7.43071 0
M  V30 7077 H 647.682 1.91582 -6.68073 0
M  V30 7078 H 650.873 1.56667 -4.41104 0
M  V30 7079 H 651.046 1.92904 -6.18621 0
M  V30 7080 N 644.452 1.42507 0.673017 0
M  V30 7081 C 645.382 1.48916 1.79851 0
M  V30 7082 C 646.363 0.345566 1.66553 0
M  V30 7083 O 647.548 0.560116 1.85947 0
M  V30 7084 C 644.678 1.39258 3.18158 0
M  V30 7085 C 643.632 2.51662 3.46194 0
M  V30 7086 C 642.958 2.27062 4.84094 0
M  V30 7087 C 644.258 3.93968 3.42909 0
M  V30 7088 H 645.952 2.43114 1.74745 0
M  V30 7089 H 643.498 1.17013 0.839288 0
M  V30 7090 H 645.451 1.42349 3.96629 0
M  V30 7091 H 644.175 0.415542 3.23946 0
M  V30 7092 H 642.834 2.47891 2.70084 0
M  V30 7093 H 642.482 1.27648 4.86534 0
M  V30 7094 H 642.182 3.02398 5.03815 0
M  V30 7095 H 643.706 2.31905 5.64847 0
M  V30 7096 H 645.12 3.99332 4.11347 0
M  V30 7097 H 643.517 4.6917 3.74165 0
M  V30 7098 H 644.587 4.20512 2.41449 0
M  V30 7099 N 645.93 -0.909495 1.28709 0
M  V30 7100 C 646.878 -2.03381 1.12866 0
M  V30 7101 C 647.872 -1.69335 0.0468074 0
M  V30 7102 O 649.078 -1.78819 0.205891 0
M  V30 7103 H 645.453 -0.666452 0.348348 0
M  V30 7104 H 647.424 -2.13885 2.08077 0
M  V30 7105 C 646.173 -3.38092 0.811742 0
M  V30 7106 H 645.496 -3.64786 1.63619 0
M  V30 7107 H 646.936 -4.17477 0.740869 0
M  V30 7108 C 645.395 -3.33395 -0.484679 0
M  V30 7109 O 645.925 -3.72089 -1.5137 0
M  V30 7110 N 644.131 -2.86491 -0.486961 0
M  V30 7111 H 643.678 -2.55199 0.350877 0
M  V30 7112 H 643.636 -2.83731 -1.3544 0
M  V30 7113 N 647.408 -1.11026 -1.11852 0
M  V30 7114 C 648.34 -0.72249 -2.17515 0
M  V30 7115 C 649.353 0.243782 -1.60964 0
M  V30 7116 O 650.542 0.0273252 -1.78479 0
M  V30 7117 C 647.642 -0.0463979 -3.38868 0
M  V30 7118 C 646.815 -1.0384 -4.24895 0
M  V30 7119 C 645.874 -0.392659 -5.24733 0
M  V30 7120 O 644.9 -1.0453 -5.5952 0
M  V30 7121 N 646.102 0.846296 -5.74298 0
M  V30 7122 H 648.867 -1.63161 -2.51393 0
M  V30 7123 H 646.428 -0.999899 -1.27333 0
M  V30 7124 H 648.42 0.397215 -4.02746 0
M  V30 7125 H 646.99 0.765231 -3.03089 0
M  V30 7126 H 646.21 -1.6601 -3.57539 0
M  V30 7127 H 647.498 -1.70968 -4.79215 0
M  V30 7128 H 646.896 1.39578 -5.4821 0
M  V30 7129 H 645.453 1.23296 -6.40032 0
M  V30 7130 N 648.886 1.2938 -0.899927 0
M  V30 7131 C 650.111 2.00228 -0.540692 0
M  V30 7132 C 650.536 1.66909 0.867359 0
M  V30 7133 O 649.894 0.893824 1.57735 0
M  V30 7134 C 649.942 3.52921 -0.740232 0
M  V30 7135 O 649.046 4.11879 0.207154 0
M  V30 7136 H 648.387 0.629505 -0.211233 0
M  V30 7137 H 650.917 1.6487 -1.21158 0
M  V30 7138 H 650.927 4.0287 -0.644973 0
M  V30 7139 H 649.602 3.76508 -1.76677 0
M  V30 7140 H 648.179 3.72845 0.0643315 0
M  V30 7141 N 650.364 0.662433 1.43002 0
M  V30 7142 C 651.296 -0.062326 2.29115 0
M  V30 7143 C 652.309 -0.777926 1.43011 0
M  V30 7144 O 653.498 -0.634146 1.66856 0
M  V30 7145 C 650.598 -1.11163 3.2015 0
M  V30 7146 C 649.771 -0.472327 4.34842 0
M  V30 7147 C 648.83 -1.41974 5.06685 0
M  V30 7148 O 647.856 -0.924795 5.61637 0
M  V30 7149 N 649.058 -2.75345 5.11043 0
M  V30 7150 H 651.823 0.676838 2.91957 0
M  V30 7151 H 649.384 0.505907 1.53793 0
M  V30 7152 H 651.376 -1.74643 3.65078 0
M  V30 7153 H 649.946 -1.75266 2.58845 0
M  V30 7154 H 649.166 0.341751 3.92716 0
M  V30 7155 H 650.454 -0.0264381 5.08793 0
M  V30 7156 H 649.852 -3.18108 4.67786 0
M  V30 7157 H 648.409 -3.34105 5.59658 0
M  V30 7158 N 651.842 -1.52309 0.404946 0
M  V30 7159 C 652.752 -2.30634 -0.429555 0
M  V30 7160 C 653.768 -1.38187 -1.05737 0
M  V30 7161 O 654.944 -1.71261 -1.05979 0
M  V30 7162 C 652.009 -3.10947 -1.53339 0
M  V30 7163 C 651.07 -4.19126 -0.929065 0
M  V30 7164 C 650.303 -4.95601 -1.9803 0
M  V30 7165 O 650.526 -4.72331 -3.1978 0
M  V30 7166 O 649.46 -5.80551 -1.58886 0
M  V30 7167 H 653.286 -3.0298 0.208963 0
M  V30 7168 H 650.871 -1.4845 0.168255 0
M  V30 7169 H 652.753 -3.60974 -2.1743 0
M  V30 7170 H 651.428 -2.41399 -2.15658 0
M  V30 7171 H 650.335 -3.73257 -0.250982 0
M  V30 7172 H 651.668 -4.90955 -0.349855 0
M  V30 7173 N 653.32 -0.135238 -1.57019 0
M  V30 7174 C 654.569 0.518694 -1.94917 0
M  V30 7175 C 654.882 1.66783 -1.0219 0
M  V30 7176 O 656.088 2.38561 -1.29619 0
M  V30 7177 C 654.544 0.974123 -3.46466 0
M  V30 7178 C 654.152 -0.147439 -4.47757 0
M  V30 7179 C 655.896 1.59851 -3.93253 0
M  V30 7180 C 653.803 0.325599 -5.90503 0
M  V30 7181 H 652.733 0.19754 -0.727663 0
M  V30 7182 H 655.384 -0.217698 -1.82204 0
M  V30 7183 H 653.766 1.76542 -3.5447 0
M  V30 7184 H 654.94 -0.924122 -4.51438 0
M  V30 7185 H 653.255 -0.679496 -4.10818 0
M  V30 7186 H 655.852 1.96385 -4.9733 0
M  V30 7187 H 656.195 2.48306 -3.3414 0
M  V30 7188 H 656.728 0.872323 -3.88118 0
M  V30 7189 H 653.467 -0.523295 -6.53408 0
M  V30 7190 H 652.987 1.06841 -5.90208 0
M  V30 7191 H 654.666 0.781498 -6.42263 0
M  V30 7192 N 654.798 1.5699 0.138552 0
M  V30 7193 C 655.731 1.94064 1.2006 0
M  V30 7194 C 656.709 0.807601 1.41126 0
M  V30 7195 O 657.893 1.06399 1.556 0
M  V30 7196 C 655.02 2.21999 2.55801 0
M  V30 7197 C 654.066 3.44617 2.5128 0
M  V30 7198 S 654.899 4.97888 1.97149 0
M  V30 7199 C 656.055 5.28954 3.34602 0
M  V30 7200 H 656.288 2.83843 0.884337 0
M  V30 7201 H 653.821 1.50507 0.344517 0
M  V30 7202 H 655.779 2.38772 3.33914 0
M  V30 7203 H 654.44 1.32869 2.84613 0
M  V30 7204 H 653.633 3.61466 3.51224 0
M  V30 7205 H 653.235 3.27129 1.8128 0
M  V30 7206 H 655.527 5.22938 4.30745 0
M  V30 7207 H 656.47 6.30346 3.22598 0
M  V30 7208 H 656.878 4.56455 3.32128 0
M  V30 7209 N 656.276 -0.40816 1.52223 0
M  V30 7210 C 657.692 -0.74685 1.41047 0
M  V30 7211 C 657.892 -1.94788 0.51573 0
M  V30 7212 O 656.948 -2.52494 -0.0181156 0
M  V30 7213 C 658.261 -0.999878 2.83589 0
M  V30 7214 C 659.809 -1.10253 2.92939 0
M  V30 7215 C 660.284 -1.38832 4.36451 0
M  V30 7216 N 661.775 -1.45694 4.3969 0
M  V30 7217 C 662.51 -1.69435 5.47795 0
M  V30 7218 N 662.006 -1.90774 6.66016 0
M  V30 7219 N 663.799 -1.71458 5.35312 0
M  V30 7220 H 655.95 0.382409 2.08929 0
M  V30 7221 H 658.213 0.108807 0.941735 0
M  V30 7222 H 657.919 -0.189723 3.51188 0
M  V30 7223 H 657.793 -1.91978 3.24691 0
M  V30 7224 H 660.18 -1.90328 2.2552 0
M  V30 7225 H 660.261 -0.160973 2.55293 0
M  V30 7226 H 659.905 -0.592741 5.04429 0
M  V30 7227 H 659.835 -2.34241 4.71634 0
M  V30 7228 H 662.326 -1.3099 3.54472 0
M  V30 7229 H 662.639 -2.08342 7.44186 0
M  V30 7230 H 660.984 -1.88037 6.69079 0
M  V30 7231 H 664.175 -1.54326 4.41929 0
M  V30 7232 H 664.348 -1.89621 6.19635 0
M  V30 7233 N 657.755 -1.42862 -0.66545 0
M  V30 7234 C 658.688 -1.41509 -1.79026 0
M  V30 7235 C 659.666 -0.278106 -1.60204 0
M  V30 7236 O 660.85 -0.469792 -1.82552 0
M  V30 7237 C 657.977 -1.21494 -3.1616 0
M  V30 7238 C 657.023 -2.38308 -3.53711 0
M  V30 7239 S 657.856 -4.00852 -3.55075 0
M  V30 7240 C 659.012 -3.83197 -4.94885 0
M  V30 7241 H 659.245 -2.36691 -1.79902 0
M  V30 7242 H 656.778 -1.29746 -0.836977 0
M  V30 7243 H 658.736 -1.10633 -3.95311 0
M  V30 7244 H 657.397 -0.27881 -3.1286 0
M  V30 7245 H 656.59 -2.20076 -4.53412 0
M  V30 7246 H 656.192 -2.45732 -2.81943 0
M  V30 7247 H 658.484 -3.44765 -5.83218 0
M  V30 7248 H 659.427 -4.82607 -5.18166 0
M  V30 7249 H 659.835 -3.15884 -4.67843 0
M  V30 7250 N 659.233 0.902656 -1.29189 0
M  V30 7251 C 660.48 1.65287 -1.16989 0
M  V30 7252 C 660.808 1.92485 0.279232 0
M  V30 7253 O 660.063 1.53143 1.21843 0
M  V30 7254 C 660.362 3.011 -1.92545 0
M  V30 7255 C 660.028 2.93521 -3.42281 0
M  V30 7256 C 658.69 2.91161 -3.83117 0
M  V30 7257 C 661.042 2.82947 -4.3771 0
M  V30 7258 C 658.37 2.76043 -5.17704 0
M  V30 7259 C 660.722 2.69368 -5.72384 0
M  V30 7260 C 659.386 2.65373 -6.12482 0
M  V30 7261 H 658.656 0.604828 -0.428094 0
M  V30 7262 H 661.303 1.05084 -1.60092 0
M  V30 7263 H 659.608 3.65153 -1.42024 0
M  V30 7264 H 661.305 3.58073 -1.80512 0
M  V30 7265 H 657.895 2.96158 -3.09819 0
M  V30 7266 H 662.079 2.83849 -4.07116 0
M  V30 7267 H 657.335 2.71352 -5.47885 0
M  V30 7268 H 661.509 2.60156 -6.45981 0
M  V30 7269 H 659.136 2.53415 -7.16718 0
M  V30 7270 N 660.711 1.11618 1.11262 0
M  V30 7271 C 661.958 0.86618 1.8304 0
M  V30 7272 C 662.286 -0.608149 1.84748 0
M  V30 7273 O 661.541 -1.46508 1.29745 0
M  V30 7274 C 661.84 1.37529 3.2988 0
M  V30 7275 C 661.506 2.86317 3.4833 0
M  V30 7276 C 660.168 3.26945 3.53073 0
M  V30 7277 C 662.52 3.82136 3.54431 0
M  V30 7278 C 659.848 4.62117 3.61475 0
M  V30 7279 C 662.2 5.17128 3.64365 0
M  V30 7280 C 660.864 5.57312 3.67369 0
M  V30 7281 H 660.134 0.316958 0.66979 0
M  V30 7282 H 662.781 1.3949 1.31205 0
M  V30 7283 H 661.086 0.766842 3.84222 0
M  V30 7284 H 662.783 1.15817 3.83911 0
M  V30 7285 H 659.373 2.53889 3.45309 0
M  V30 7286 H 663.557 3.51847 3.50025 0
M  V30 7287 H 658.813 4.92655 3.62079 0
M  V30 7288 H 662.987 5.91208 3.68029 0
M  V30 7289 H 660.614 6.62045 3.73632 0
M  V30 7290 N 662.189 -1.289 0.906776 0
M  V30 7291 C 663.137 -2.29477 0.379873 0
M  V30 7292 C 664.131 -1.61068 -0.524747 0
M  V30 7293 O 665.337 -1.75344 -0.406765 0
M  V30 7294 H 661.712 -0.744742 0.10423 0
M  V30 7295 H 663.683 -2.71353 1.24137 0
M  V30 7296 C 662.432 -3.45713 -0.371154 0
M  V30 7297 H 661.755 -3.98551 0.315716 0
M  V30 7298 H 663.195 -4.18105 -0.704581 0
M  V30 7299 C 661.654 -2.9774 -1.57646 0
M  V30 7300 O 662.184 -2.99618 -2.67567 0
M  V30 7301 N 660.39 -2.53485 -1.42105 0
M  V30 7302 H 659.937 -2.52156 -0.526783 0
M  V30 7303 H 659.895 -2.21747 -2.22881 0
M  V30 7304 N 663.667 -0.670007 -1.42649 0
M  V30 7305 C 664.915 -0.18991 -2.01206 0
M  V30 7306 C 665.236 1.20617 -1.53221 0
M  V30 7307 O 664.506 1.80898 -0.751856 0
M  V30 7308 H 663.086 -0.0672189 -0.743969 0
M  V30 7309 H 665.748 -0.865442 -1.74631 0
M  V30 7310 H 664.844 -0.187481 -3.11536 0
M  V30 7311 N 665.145 1.52092 -0.413018 0
M  V30 7312 C 666.561 1.59471 -0.0640836 0
M  V30 7313 C 666.761 1.42562 1.42402 0
M  V30 7314 O 665.817 1.25453 2.19129 0
M  V30 7315 C 667.13 2.95392 -0.562474 0
M  V30 7316 C 668.678 3.08637 -0.520788 0
M  V30 7317 C 669.153 4.47044 -0.995752 0
M  V30 7318 N 670.644 4.53296 -0.952732 0
M  V30 7319 C 671.379 5.58669 -1.29138 0
M  V30 7320 N 670.875 6.71576 -1.70168 0
M  V30 7321 N 672.668 5.48898 -1.2111 0
M  V30 7322 H 664.819 1.6133 -1.38153 0
M  V30 7323 H 667.082 0.75916 -0.567785 0
M  V30 7324 H 666.788 3.13059 -1.60271 0
M  V30 7325 H 666.662 3.77191 0.0257875 0
M  V30 7326 H 669.049 2.90652 0.510412 0
M  V30 7327 H 669.13 2.28735 -1.14515 0
M  V30 7328 H 668.774 4.65773 -2.0253 0
M  V30 7329 H 668.704 5.25448 -0.348162 0
M  V30 7330 H 671.195 3.72248 -0.651119 0
M  V30 7331 H 671.508 7.47973 -1.9431 0
M  V30 7332 H 669.853 6.72847 -1.74075 0
M  V30 7333 H 673.044 4.59573 -0.889396 0
M  V30 7334 H 673.217 6.30912 -1.47833 0
M  V30 7335 N 666.623 0.143563 1.56945 0
M  V30 7336 C 667.853 -0.514699 2.00086 0
M  V30 7337 C 668.261 -1.59184 1.0226 0
M  V30 7338 O 667.604 -1.83697 0.0110514 0
M  V30 7339 C 667.666 -1.17778 3.39659 0
M  V30 7340 C 667.33 -0.245657 4.56339 0
M  V30 7341 C 668.327 0.525343 5.17239 0
M  V30 7342 C 666.012 -0.149564 5.02077 0
M  V30 7343 C 668.006 1.37992 6.22284 0
M  V30 7344 C 665.693 0.708621 6.06978 0
M  V30 7345 C 666.691 1.47197 6.6695 0
M  V30 7346 O 666.379 2.31586 7.6982 0
M  V30 7347 H 666.111 -0.138789 0.661599 0
M  V30 7348 H 668.665 0.234098 2.04062 0
M  V30 7349 H 666.895 -1.97415 3.32512 0
M  V30 7350 H 668.584 -1.73542 3.6693 0
M  V30 7351 H 669.35 0.461118 4.82803 0
M  V30 7352 H 665.229 -0.733457 4.55128 0
M  V30 7353 H 668.773 1.97621 6.69023 0
M  V30 7354 H 664.67 0.77415 6.40841 0
M  V30 7355 H 665.438 2.24796 7.87025 0
M  V30 7356 N 668.101 -1.57061 -0.130224 0
M  V30 7357 C 669.35 -1.83446 -0.838488 0
M  V30 7358 C 669.663 -0.727468 -1.81569 0
M  V30 7359 O 670.869 -0.877394 -2.56932 0
M  V30 7360 C 669.325 -3.25201 -1.54182 0
M  V30 7361 C 668.933 -4.4388 -0.606178 0
M  V30 7362 C 670.677 -3.60844 -2.23588 0
M  V30 7363 C 668.584 -5.76661 -1.31209 0
M  V30 7364 H 667.514 -0.684185 -0.316871 0
M  V30 7365 H 670.165 -1.83273 -0.0912059 0
M  V30 7366 H 668.547 -3.1981 -2.33533 0
M  V30 7367 H 669.721 -4.60545 0.153308 0
M  V30 7368 H 668.036 -4.16395 -0.0196705 0
M  V30 7369 H 670.633 -4.57313 -2.77072 0
M  V30 7370 H 670.976 -2.87724 -3.00867 0
M  V30 7371 H 671.509 -3.67971 -1.51137 0
M  V30 7372 H 668.248 -6.52922 -0.580823 0
M  V30 7373 H 667.768 -5.63902 -2.04387 0
M  V30 7374 H 669.447 -6.20035 -1.8484 0
M  V30 7375 N 669.579 0.400081 -1.52437 0
M  V30 7376 C 670.509 1.4947 -1.7939 0
M  V30 7377 C 671.49 1.57383 -0.645329 0
M  V30 7378 O 672.675 1.72511 -0.891826 0
M  V30 7379 C 669.805 2.87201 -1.95276 0
M  V30 7380 C 668.759 2.94134 -3.10917 0
M  V30 7381 C 668.085 4.34207 -3.1204 0
M  V30 7382 C 669.385 2.64791 -4.50203 0
M  V30 7383 H 671.079 1.27165 -2.71052 0
M  V30 7384 H 668.625 0.610312 -1.30427 0
M  V30 7385 H 670.578 3.63772 -2.12715 0
M  V30 7386 H 669.302 3.10819 -1.00294 0
M  V30 7387 H 667.961 2.20009 -2.93243 0
M  V30 7388 H 667.609 4.54848 -2.14761 0
M  V30 7389 H 667.309 4.39768 -3.89715 0
M  V30 7390 H 668.833 5.127 -3.31619 0
M  V30 7391 H 670.247 3.31083 -4.68035 0
M  V30 7392 H 668.644 2.81717 -5.29864 0
M  V30 7393 H 669.714 1.60184 -4.57678 0
M  V30 7394 N 671.057 1.43213 0.657864 0
M  V30 7395 C 671.987 1.50815 1.78262 0
M  V30 7396 C 672.968 0.363211 1.66177 0
M  V30 7397 O 674.153 0.579806 1.85343 0
M  V30 7398 C 671.283 1.42625 3.16663 0
M  V30 7399 C 670.237 2.5532 3.43505 0
M  V30 7400 C 669.563 2.32184 4.81658 0
M  V30 7401 C 670.863 3.97583 3.38711 0
M  V30 7402 H 672.557 2.44954 1.72157 0
M  V30 7403 H 670.103 1.17896 0.82683 0
M  V30 7404 H 672.056 1.46548 3.95097 0
M  V30 7405 H 670.78 0.449877 3.23487 0
M  V30 7406 H 669.439 2.50742 2.6744 0
M  V30 7407 H 669.087 1.32801 4.85153 0
M  V30 7408 H 668.787 3.07724 5.00579 0
M  V30 7409 H 670.311 2.37883 5.62356 0
M  V30 7410 H 671.725 4.03673 4.07089 0
M  V30 7411 H 670.122 4.73112 3.69168 0
M  V30 7412 H 671.192 4.23049 2.36976 0
M  V30 7413 N 672.536 -0.895792 1.29666 0
M  V30 7414 C 673.466 -2.01673 1.17688 0
M  V30 7415 C 674.447 -1.69955 0.0701317 0
M  V30 7416 O 675.632 -1.9258 0.250289 0
M  V30 7417 C 672.762 -3.36568 0.856681 0
M  V30 7418 C 671.716 -3.82509 1.92017 0
M  V30 7419 C 671.042 -5.14574 1.4532 0
M  V30 7420 C 672.342 -4.02409 3.32963 0
M  V30 7421 H 674.036 -2.11953 2.11463 0
M  V30 7422 H 671.582 -1.01839 1.01807 0
M  V30 7423 H 673.535 -4.14498 0.759577 0
M  V30 7424 H 672.259 -3.26391 -0.116763 0
M  V30 7425 H 670.918 -3.068 2.00673 0
M  V30 7426 H 670.566 -5.00815 0.468325 0
M  V30 7427 H 670.266 -5.46283 2.16447 0
M  V30 7428 H 671.79 -5.9504 1.36968 0
M  V30 7429 H 673.204 -4.70808 3.27127 0
M  V30 7430 H 671.601 -4.45478 4.02082 0
M  V30 7431 H 672.671 -3.06616 3.75652 0
M  V30 7432 N 674.014 -1.12206 -1.10668 0
M  V30 7433 C 674.947 -0.731468 -2.16159 0
M  V30 7434 C 675.925 0.276216 -1.60237 0
M  V30 7435 O 677.109 0.17074 -1.87725 0
M  V30 7436 C 674.236 -0.0822882 -3.386 0
M  V30 7437 C 673.282 -1.05641 -4.1321 0
M  V30 7438 S 674.115 -2.58281 -4.69096 0
M  V30 7439 C 675.271 -1.94686 -5.94851 0
M  V30 7440 H 675.504 -1.62504 -2.48957 0
M  V30 7441 H 673.037 -0.940906 -1.22419 0
M  V30 7442 H 674.995 0.285896 -4.09503 0
M  V30 7443 H 673.656 0.788358 -3.04046 0
M  V30 7444 H 672.849 -0.549764 -5.00993 0
M  V30 7445 H 672.451 -1.36741 -3.48106 0
M  V30 7446 H 674.743 -1.28815 -6.65141 0
M  V30 7447 H 675.686 -2.80499 -6.50174 0
M  V30 7448 H 676.094 -1.40369 -5.46769 0
M  V30 7449 N 675.492 1.28418 -0.913599 0
M  V30 7450 C 676.74 1.94596 -0.545594 0
M  V30 7451 C 677.061 1.7227 0.913668 0
M  V30 7452 O 676.331 1.06233 1.64595 0
M  V30 7453 H 674.911 0.720065 -0.198783 0
M  V30 7454 H 677.573 1.56404 -1.16292 0
M  V30 7455 H 676.669 3.03202 -0.739911 0
M  V30 7456 N 676.97 0.677563 1.42291 0
M  V30 7457 C 677.9 0.014968 2.33495 0
M  V30 7458 C 678.881 -0.786376 1.50831 0
M  V30 7459 O 680.066 -0.742975 1.79426 0
M  V30 7460 C 677.196 -0.935023 3.34477 0
M  V30 7461 C 676.15 -0.242074 4.27315 0
M  V30 7462 C 675.476 -1.30519 5.18526 0
M  V30 7463 C 676.776 0.880604 5.14823 0
M  V30 7464 H 678.47 0.776671 2.89151 0
M  V30 7465 H 676.016 0.37494 1.39033 0
M  V30 7466 H 677.969 -1.40766 3.97194 0
M  V30 7467 H 676.693 -1.72818 2.77131 0
M  V30 7468 H 675.352 0.210351 3.65996 0
M  V30 7469 H 675 -2.09041 4.57505 0
M  V30 7470 H 674.7 -0.846652 5.81468 0
M  V30 7471 H 676.224 -1.7787 5.84119 0
M  V30 7472 H 677.638 0.489062 5.7121 0
M  V30 7473 H 676.035 1.26511 5.86613 0
M  V30 7474 H 677.105 1.72818 4.53059 0
M  V30 7475 N 678.448 -1.51871 0.421078 0
M  V30 7476 C 679.695 -2.01938 -0.15079 0
M  V30 7477 C 680.023 -1.30611 -1.44121 0
M  V30 7478 O 679.278 -0.404631 -1.91471 0
M  V30 7479 C 679.577 -3.54764 -0.433292 0
M  V30 7480 C 679.243 -4.44288 0.76936 0
M  V30 7481 C 677.905 -4.68477 1.09921 0
M  V30 7482 C 680.257 -4.96915 1.57242 0
M  V30 7483 C 677.585 -5.4254 2.2331 0
M  V30 7484 C 679.937 -5.7222 2.69716 0
M  V30 7485 C 678.601 -5.94678 3.03174 0
M  V30 7486 H 677.871 -0.738943 -0.0551781 0
M  V30 7487 H 680.518 -1.82977 0.564945 0
M  V30 7488 H 678.823 -3.71968 -1.23074 0
M  V30 7489 H 680.52 -3.91023 -0.888922 0
M  V30 7490 H 677.11 -4.25646 0.502305 0
M  V30 7491 H 681.294 -4.78125 1.3308 0
M  V30 7492 H 676.55 -5.58146 2.49565 0
M  V30 7493 H 680.724 -6.11992 3.32323 0
M  V30 7494 H 678.351 -6.51848 3.9115 0
M  V30 7495 N 679.926 -0.151884 -1.56866 0
M  V30 7496 C 681.151 0.508044 -2.01081 0
M  V30 7497 C 681.576 1.57306 -1.03134 0
M  V30 7498 O 680.934 1.81298 -0.0078309 0
M  V30 7499 C 680.982 1.08106 -3.44014 0
M  V30 7500 O 680.086 2.19577 -3.49084 0
M  V30 7501 H 679.427 0.123757 -0.652365 0
M  V30 7502 H 681.957 -0.250055 -2.03066 0
M  V30 7503 H 681.967 1.40851 -3.82916 0
M  V30 7504 H 680.642 0.301168 -4.14808 0
M  V30 7505 H 679.219 1.88023 -3.22027 0
M  V30 7506 N 681.404 1.57128 0.121893 0
M  V30 7507 C 682.65 1.84974 0.831418 0
M  V30 7508 C 682.983 0.737204 1.79663 0
M  V30 7509 O 682.258 -0.257199 1.92792 0
M  V30 7510 C 682.541 3.23397 1.58386 0
M  V30 7511 C 682.394 4.45246 0.638445 0
M  V30 7512 C 683.713 3.59355 2.54071 0
M  V30 7513 H 680.832 0.67282 0.300803 0
M  V30 7514 H 683.474 1.89759 0.0957587 0
M  V30 7515 H 681.624 3.19449 2.21098 0
M  V30 7516 H 683.296 4.61295 0.0203925 0
M  V30 7517 H 681.539 4.33771 -0.05023 0
M  V30 7518 H 682.21 5.38765 1.20151 0
M  V30 7519 H 684.686 3.64075 2.01465 0
M  V30 7520 H 683.562 4.57193 3.03752 0
M  V30 7521 H 683.823 2.86622 3.36601 0
M  V30 7522 N 682.882 -0.391992 1.52647 0
M  V30 7523 C 684.112 -1.15692 1.71169 0
M  V30 7524 C 684.52 -1.84285 0.428444 0
M  V30 7525 O 683.863 -1.73393 -0.606669 0
M  V30 7526 C 683.925 -2.25033 2.80357 0
M  V30 7527 C 683.589 -1.76433 4.21569 0
M  V30 7528 C 684.586 -1.2427 5.0483 0
M  V30 7529 C 682.271 -1.82746 4.67877 0
M  V30 7530 C 684.265 -0.790657 6.32477 0
M  V30 7531 C 681.952 -1.37153 5.9551 0
M  V30 7532 C 682.95 -0.853997 6.7764 0
M  V30 7533 O 682.638 -0.404708 8.02881 0
M  V30 7534 H 682.37 -0.35297 0.576531 0
M  V30 7535 H 684.924 -0.464994 2.00067 0
M  V30 7536 H 683.154 -2.97641 2.46874 0
M  V30 7537 H 684.843 -2.86718 2.87311 0
M  V30 7538 H 685.609 -1.18752 4.70237 0
M  V30 7539 H 681.488 -2.21971 4.04042 0
M  V30 7540 H 685.032 -0.386024 6.96531 0
M  V30 7541 H 680.929 -1.42356 6.29607 0
M  V30 7542 H 681.697 -0.526459 8.16805 0
M  V30 7543 N 684.36 -1.4356 -0.65026 0
M  V30 7544 C 685.588 -1.48779 -1.43779 0
M  V30 7545 C 686.003 -0.106593 -1.88499 0
M  V30 7546 O 685.36 0.883766 -1.59674 0
M  V30 7547 C 685.411 -2.43618 -2.67081 0
M  V30 7548 O 685.132 -3.76367 -2.24231 0
M  V30 7549 C 686.633 -2.5811 -3.60409 0
M  V30 7550 H 683.853 -0.50521 -0.441593 0
M  V30 7551 H 686.397 -1.88332 -0.796941 0
M  V30 7552 H 684.552 -2.07253 -3.273 0
M  V30 7553 H 684.966 -4.27394 -3.0403 0
M  V30 7554 H 686.44 -3.28539 -4.43583 0
M  V30 7555 H 686.917 -1.627 -4.07953 0
M  V30 7556 H 687.523 -2.95298 -3.0607 0
M  V30 7557 N 685.838 0.888903 -1.30139 0
M  V30 7558 C 687.086 1.63713 -1.18501 0
M  V30 7559 C 687.407 1.9324 0.261399 0
M  V30 7560 O 686.677 1.56608 1.17689 0
M  V30 7561 H 685.257 0.606861 -0.435579 0
M  V30 7562 H 687.919 1.06525 -1.63213 0
M  V30 7563 H 687.015 2.58894 -1.743 0
M  V30 7564 N 687.317 1.12792 1.10072 0
M  V30 7565 C 688.247 0.821688 2.18565 0
M  V30 7566 C 689.228 -0.21612 1.68721 0
M  V30 7567 O 690.413 -0.0764932 1.94049 0
M  V30 7568 C 687.543 0.279624 3.46172 0
M  V30 7569 C 686.497 1.25092 4.09312 0
M  V30 7570 C 685.823 0.568916 5.31665 0
M  V30 7571 C 687.123 2.60699 4.52585 0
M  V30 7572 H 688.817 1.72888 2.44438 0
M  V30 7573 H 686.363 0.832702 1.17482 0
M  V30 7574 H 688.316 0.053099 4.21367 0
M  V30 7575 H 687.04 -0.662929 3.19801 0
M  V30 7576 H 685.699 1.46332 3.36129 0
M  V30 7577 H 685.347 -0.378898 5.01571 0
M  V30 7578 H 685.047 1.21687 5.74862 0
M  V30 7579 H 686.571 0.351517 6.09587 0
M  V30 7580 H 687.985 2.43465 5.19035 0
M  V30 7581 H 686.382 3.21608 5.06644 0
M  V30 7582 H 687.452 3.1886 3.65317 0
M  V30 7583 N 688.795 -1.27931 0.920396 0
M  V30 7584 C 690.044 -1.93975 0.552867 0
M  V30 7585 C 690.357 -1.73193 -0.909035 0
M  V30 7586 O 691.563 -2.33515 -1.38502 0
M  V30 7587 C 690.019 -3.47463 0.937947 0
M  V30 7588 C 689.627 -3.77013 2.42003 0
M  V30 7589 C 691.371 -4.19628 0.64132 0
M  V30 7590 C 689.278 -5.23841 2.74489 0
M  V30 7591 H 688.208 -0.726146 0.203046 0
M  V30 7592 H 690.859 -1.45339 1.12022 0
M  V30 7593 H 689.241 -3.94867 0.299317 0
M  V30 7594 H 690.415 -3.40393 3.10595 0
M  V30 7595 H 688.73 -3.18035 2.6878 0
M  V30 7596 H 691.327 -5.27729 0.860622 0
M  V30 7597 H 691.67 -4.14164 -0.421168 0
M  V30 7598 H 692.203 -3.78022 1.23872 0
M  V30 7599 H 688.942 -5.34388 3.79618 0
M  V30 7600 H 688.462 -5.61634 2.1054 0
M  V30 7601 H 690.141 -5.91647 2.61845 0
M  V30 7602 N 690.273 -0.685099 -1.4193 0
M  V30 7603 C 691.503 -0.220052 -2.05425 0
M  V30 7604 C 691.911 1.13185 -1.51611 0
M  V30 7605 O 691.254 1.71631 -0.654875 0
M  V30 7606 C 691.316 -0.0888364 -3.5939 0
M  V30 7607 C 690.98 -1.37109 -4.35947 0
M  V30 7608 C 691.977 -2.30675 -4.65924 0
M  V30 7609 C 689.662 -1.62155 -4.75406 0
M  V30 7610 C 691.656 -3.47556 -5.34306 0
M  V30 7611 C 689.343 -2.79324 -5.43527 0
M  V30 7612 C 690.341 -3.71848 -5.72903 0
M  V30 7613 O 690.029 -4.86966 -6.39624 0
M  V30 7614 H 689.761 -0.102165 -0.668235 0
M  V30 7615 H 692.315 -0.935194 -1.82875 0
M  V30 7616 H 690.545 0.681981 -3.80639 0
M  V30 7617 H 692.234 0.337669 -4.04493 0
M  V30 7618 H 693 -2.12579 -4.3593 0
M  V30 7619 H 688.879 -0.910053 -4.51928 0
M  V30 7620 H 692.423 -4.19794 -5.57153 0
M  V30 7621 H 688.32 -2.97342 -5.72938 0
M  V30 7622 H 689.088 -4.86644 -6.58118 0
M  V30 7623 N 691.751 1.51645 -0.429126 0
M  V30 7624 C 692.699 2.29119 0.400921 0
M  V30 7625 C 693.693 1.34628 1.02819 0
M  V30 7626 O 694.899 1.52004 0.964098 0
M  V30 7627 H 691.274 0.737273 0.148095 0
M  V30 7628 H 693.245 2.97144 -0.273457 0
M  V30 7629 C 691.994 3.13953 1.49429 0
M  V30 7630 H 691.317 3.86544 1.02097 0
M  V30 7631 H 692.757 3.71232 2.04849 0
M  V30 7632 C 691.216 2.28796 2.47293 0
M  V30 7633 O 691.746 1.94193 3.51642 0
M  V30 7634 N 689.952 1.92177 2.17982 0
M  V30 7635 H 689.499 2.20517 1.33154 0
M  V30 7636 H 689.457 1.35497 2.83704 0
M  V30 7637 N 693.229 0.160201 1.56784 0
M  V30 7638 C 694.506 -0.533355 1.88188 0
M  V30 7639 C 694.886 -1.82072 1.06831 0
M  V30 7640 O 694.234 -2.27946 0.158959 0
M  V30 7641 C 694.444 -0.786034 3.40033 0
M  V30 7642 C 695.792 -1.12097 4.09536 0
M  V30 7643 O 696.816 -0.874949 3.45287 0
M  V30 7644 O 695.675 -1.58457 5.23023 0
M  V30 7645 H 692.769 -0.273589 0.780434 0
M  V30 7646 H 695.315 0.197803 1.68543 0
M  V30 7647 H 694.087 0.124515 3.91102 0
M  V30 7648 H 693.71 -1.57091 3.65251 0
M  V30 7649 N 694.707 -1.5719 -0.113559 0
M  V30 7650 C 695.947 -1.86958 -0.82621 0
M  V30 7651 C 696.311 -0.748884 -1.76793 0
M  V30 7652 O 697.512 -0.92847 -2.52256 0
M  V30 7653 C 695.783 -3.21957 -1.55173 0
M  V30 7654 S 697.342 -3.73371 -2.3052 0
M  V30 7655 H 694.16 -0.655394 -0.275643 0
M  V30 7656 H 696.762 -1.95318 -0.0842684 0
M  V30 7657 H 695.466 -4.01459 -0.851977 0
M  V30 7658 H 694.997 -3.16688 -2.33393 0
M  V30 7659 H 697.012 -3.45308 -3.56338 0
M  V30 7660 N 696.185 0.383891 -1.52853 0
M  V30 7661 C 697.432 1.12842 -1.68146 0
M  V30 7662 C 697.76 1.89823 -0.423954 0
M  V30 7663 O 697.015 1.86475 0.593765 0
M  V30 7664 C 697.314 2.12881 -2.87082 0
M  V30 7665 C 696.98 1.52519 -4.24322 0
M  V30 7666 C 695.642 1.35783 -4.61645 0
M  V30 7667 C 697.994 1.0868 -5.09743 0
M  V30 7668 C 695.322 0.737643 -5.82044 0
M  V30 7669 C 697.674 0.480699 -6.30771 0
M  V30 7670 C 696.338 0.300681 -6.66822 0
M  V30 7671 H 695.608 0.412917 -0.615289 0
M  V30 7672 H 698.255 0.412416 -1.87006 0
M  V30 7673 H 696.56 2.90719 -2.62659 0
M  V30 7674 H 698.257 2.70408 -2.96109 0
M  V30 7675 H 694.847 1.66534 -3.94923 0
M  V30 7676 H 699.031 1.2041 -4.81472 0
M  V30 7677 H 694.287 0.586415 -6.08581 0
M  V30 7678 H 698.461 0.132733 -6.96273 0
M  V30 7679 H 696.088 -0.181966 -7.59982 0
M  V30 7680 N 697.663 1.43903 0.642637 0
M  V30 7681 C 698.888 1.49758 1.43483 0
M  V30 7682 C 699.313 0.119911 1.87717 0
M  V30 7683 O 698.671 -0.888558 1.58033 0
M  V30 7684 C 698.719 2.45744 2.63898 0
M  V30 7685 O 697.823 1.95101 3.63331 0
M  V30 7686 H 697.164 0.506138 0.429791 0
M  V30 7687 H 699.694 1.88923 0.785438 0
M  V30 7688 H 699.704 2.63399 3.11584 0
M  V30 7689 H 698.379 3.45818 2.31046 0
M  V30 7690 H 696.956 1.87158 3.22531 0
M  V30 7691 N 699.141 -0.881989 1.30609 0
M  V30 7692 C 700.088 -1.98803 1.17244 0
M  V30 7693 C 701.058 -1.65987 0.0611905 0
M  V30 7694 O 702.243 -1.89385 0.231911 0
M  V30 7695 C 699.383 -3.33867 0.87333 0
M  V30 7696 C 698.496 -3.79354 2.06675 0
M  V30 7697 C 697.631 -5.03078 1.70547 0
M  V30 7698 C 696.67 -5.40981 2.86366 0
M  V30 7699 N 695.807 -6.55886 2.50514 0
M  V30 7700 H 700.647 -2.09566 2.11863 0
M  V30 7701 H 698.184 -1.02607 1.05405 0
M  V30 7702 H 700.142 -4.11612 0.680519 0
M  V30 7703 H 698.772 -3.2278 -0.0359983 0
M  V30 7704 H 697.824 -2.97492 2.37071 0
M  V30 7705 H 699.136 -4.03382 2.93401 0
M  V30 7706 H 698.29 -5.88457 1.47658 0
M  V30 7707 H 697.029 -4.80927 0.809947 0
M  V30 7708 H 696.034 -4.54127 3.09917 0
M  V30 7709 H 697.259 -5.65104 3.76609 0
M  V30 7710 H 695.205 -6.35306 1.63471 0
M  V30 7711 H 695.122 -6.79799 3.30771 0
M  V30 7712 H 696.39 -7.44489 2.30989 0
M  V30 7713 N 700.619 -1.13374 -1.09472 0
M  V30 7714 C 701.844 -0.918711 -1.85942 0
M  V30 7715 C 702.269 0.527225 -1.8056 0
M  V30 7716 O 701.627 1.37408 -1.18274 0
M  V30 7717 C 701.675 -1.41056 -3.31867 0
M  V30 7718 O 700.779 -0.595496 -4.08078 0
M  V30 7719 H 700.12 -0.329297 -0.576593 0
M  V30 7720 H 702.65 -1.50829 -1.38245 0
M  V30 7721 H 702.66 -1.41398 -3.82715 0
M  V30 7722 H 701.335 -2.46335 -3.35099 0
M  V30 7723 H 699.912 -0.659911 -3.67014 0
M  V30 7724 N 702.098 1.27442 -0.927168 0
M  V30 7725 C 703.344 1.94679 -0.568164 0
M  V30 7726 C 703.677 1.72697 0.888219 0
M  V30 7727 O 702.952 1.05573 1.63354 0
M  V30 7728 C 703.235 3.4882 -0.894253 0
M  V30 7729 C 703.088 3.80146 -2.40435 0
M  V30 7730 C 704.407 4.38281 -0.399766 0
M  V30 7731 H 701.526 0.707071 -0.207892 0
M  V30 7732 H 704.168 1.50568 -1.15885 0
M  V30 7733 H 702.318 3.86522 -0.391566 0
M  V30 7734 H 703.99 3.52238 -2.97869 0
M  V30 7735 H 702.233 3.26716 -2.85375 0
M  V30 7736 H 702.904 4.87835 -2.58304 0
M  V30 7737 H 705.38 4.07726 -0.83058 0
M  V30 7738 H 704.256 5.44955 -0.656885 0
M  V30 7739 H 704.517 4.36521 0.700153 0
M  V30 7740 N 703.576 0.692616 1.41565 0
M  V30 7741 C 704.524 0.0139952 2.32596 0
M  V30 7742 C 705.518 -0.771691 1.50802 0
M  V30 7743 O 706.724 -0.677646 1.66757 0
M  V30 7744 H 703.099 -0.0142745 0.751865 0
M  V30 7745 H 705.07 0.798851 2.87508 0
M  V30 7746 C 703.819 -0.910602 3.35564 0
M  V30 7747 H 703.142 -0.315446 3.98554 0
M  V30 7748 H 704.582 -1.3538 4.01806 0
M  V30 7749 C 703.041 -2.02539 2.6922 0
M  V30 7750 O 703.571 -3.11386 2.53775 0
M  V30 7751 N 701.777 -1.80227 2.27962 0
M  V30 7752 H 701.324 -0.917054 2.40724 0
M  V30 7753 H 701.282 -2.55001 1.83907 0
M  V30 7754 N 705.054 -1.51416 0.437162 0
M  V30 7755 C 705.984 -2.30631 -0.364922 0
M  V30 7756 C 706.965 -1.36037 -1.02118 0
M  V30 7757 O 708.15 -1.64956 -1.02485 0
M  V30 7758 C 705.28 -3.1482 -1.46648 0
M  V30 7759 C 704.234 -4.17691 -0.933717 0
M  V30 7760 C 703.56 -4.904 -2.13101 0
M  V30 7761 C 704.86 -5.2229 0.0317201 0
M  V30 7762 H 706.554 -2.97932 0.29614 0
M  V30 7763 H 704.1 -1.4328 0.143865 0
M  V30 7764 H 706.053 -3.69017 -2.03481 0
M  V30 7765 H 704.777 -2.4534 -2.15583 0
M  V30 7766 H 703.436 -3.64545 -0.387602 0
M  V30 7767 H 703.084 -4.17423 -2.80654 0
M  V30 7768 H 702.784 -5.59962 -1.78092 0
M  V30 7769 H 704.308 -5.4742 -2.70487 0
M  V30 7770 H 705.722 -5.7156 -0.446302 0
M  V30 7771 H 704.119 -5.99378 0.29437 0
M  V30 7772 H 705.189 -4.75131 0.968447 0
M  V30 7773 N 706.532 -0.168513 -1.56696 0
M  V30 7774 C 707.779 0.477158 -1.96798 0
M  V30 7775 C 708.107 1.63442 -1.05437 0
M  V30 7776 O 707.362 1.95503 -0.0878903 0
M  V30 7777 C 707.661 1.00441 -3.42996 0
M  V30 7778 C 707.327 -0.0366556 -4.50885 0
M  V30 7779 C 705.989 -0.322785 -4.80116 0
M  V30 7780 C 708.341 -0.743447 -5.1587 0
M  V30 7781 C 705.669 -1.32114 -5.71632 0
M  V30 7782 C 708.021 -1.73077 -6.08463 0
M  V30 7783 C 706.685 -2.02437 -6.36062 0
M  V30 7784 H 705.955 0.174604 -0.720135 0
M  V30 7785 H 708.602 -0.259884 -1.89728 0
M  V30 7786 H 706.907 1.81922 -3.47004 0
M  V30 7787 H 708.604 1.51294 -3.71364 0
M  V30 7788 H 705.194 0.196532 -4.28149 0
M  V30 7789 H 709.378 -0.535602 -4.93401 0
M  V30 7790 H 704.634 -1.55482 -5.913 0
M  V30 7791 H 708.808 -2.28382 -6.57886 0
M  V30 7792 H 706.435 -2.79946 -7.06777 0
M  V30 7793 N 708.01 1.57248 0.105221 0
M  V30 7794 C 709.258 1.85204 0.808951 0
M  V30 7795 C 709.579 0.75574 1.7976 0
M  V30 7796 O 708.849 -0.218984 1.94672 0
M  V30 7797 H 707.429 0.683346 0.301739 0
M  V30 7798 H 710.091 1.94695 0.0892605 0
M  V30 7799 H 709.187 2.81595 1.34575 0
M  V30 7800 N 709.488 -0.375779 1.53054 0
M  V30 7801 C 710.713 -1.14484 1.7294 0
M  V30 7802 C 711.138 -1.82572 0.452668 0
M  V30 7803 O 710.496 -1.71343 -0.592567 0
M  V30 7804 C 710.544 -2.15857 2.88857 0
M  V30 7805 O 709.648 -3.22725 2.56753 0
M  V30 7806 H 708.989 -0.332666 0.574656 0
M  V30 7807 H 711.519 -0.436025 1.999 0
M  V30 7808 H 711.529 -2.59631 3.14731 0
M  V30 7809 H 710.204 -1.65689 3.81471 0
M  V30 7810 H 708.781 -2.83996 2.41663 0
M  V30 7811 N 710.966 -1.44241 -0.634997 0
M  V30 7812 C 712.214 -1.46531 -1.39187 0
M  V30 7813 C 712.535 -0.0976441 -1.94755 0
M  V30 7814 O 711.805 0.869528 -1.75545 0
M  V30 7815 H 710.385 -0.539544 -0.516625 0
M  V30 7816 H 713.047 -1.79989 -0.747655 0
M  V30 7817 H 712.143 -2.18848 -2.22513 0
M  V30 7818 N 712.444 0.87505 -1.31075 0
M  V30 7819 C 713.69 1.63006 -1.21657 0
M  V30 7820 C 714.045 1.91088 0.224306 0
M  V30 7821 O 713.338 1.52779 1.15625 0
M  V30 7822 C 713.532 2.96948 -1.98888 0
M  V30 7823 C 713.361 2.81944 -3.50339 0
M  V30 7824 C 712.131 2.814 -4.19693 0
M  V30 7825 C 714.329 2.57171 -4.45385 0
M  V30 7826 N 712.311 2.57392 -5.57335 0
M  V30 7827 C 713.682 2.42379 -5.7066 0
M  V30 7828 C 715.737 2.42474 -4.34868 0
M  V30 7829 C 714.44 2.14385 -6.86609 0
M  V30 7830 C 716.466 2.15868 -5.50595 0
M  V30 7831 C 715.828 2.0186 -6.74857 0
M  V30 7832 H 711.927 0.601043 -0.500271 0
M  V30 7833 H 714.511 1.03033 -1.65204 0
M  V30 7834 H 712.682 3.54936 -1.57718 0
M  V30 7835 H 714.414 3.61702 -1.81531 0
M  V30 7836 H 711.169 2.93596 -3.71616 0
M  V30 7837 H 711.593 2.48373 -6.29794 0
M  V30 7838 H 716.235 2.52035 -3.39468 0
M  V30 7839 H 713.953 2.03562 -7.82041 0
M  V30 7840 H 717.539 2.05304 -5.44372 0
M  V30 7841 H 716.419 1.81562 -7.62892 0
M  V30 7842 N 713.922 1.13953 1.08869 0
M  V30 7843 C 714.87 0.817664 2.17754 0
M  V30 7844 C 715.864 -0.202444 1.68186 0
M  V30 7845 O 717.07 -0.0590159 1.79903 0
M  V30 7846 H 713.445 0.246671 0.710392 0
M  V30 7847 H 715.416 1.74401 2.4213 0
M  V30 7848 C 714.165 0.3063 3.46348 0
M  V30 7849 H 713.488 1.08259 3.84864 0
M  V30 7850 H 714.928 0.119584 4.23831 0
M  V30 7851 C 713.387 -0.969158 3.22659 0
M  V30 7852 O 713.917 -2.04386 3.45817 0
M  V30 7853 N 712.123 -0.902516 2.7623 0
M  V30 7854 H 711.67 -0.027801 2.57585 0
M  V30 7855 H 711.628 -1.75649 2.60758 0
M  V30 7856 N 715.4 -1.26948 0.933913 0
M  V30 7857 C 716.646 -1.94374 0.57848 0
M  V30 7858 C 716.979 -1.73166 -0.879048 0
M  V30 7859 O 716.254 -1.06438 -1.62792 0
M  V30 7860 C 716.537 -3.4834 0.912739 0
M  V30 7861 C 716.39 -3.78866 2.42448 0
M  V30 7862 C 717.709 -4.38062 0.423003 0
M  V30 7863 H 714.828 -0.705959 0.211639 0
M  V30 7864 H 717.47 -1.49951 1.16682 0
M  V30 7865 H 715.62 -3.86309 0.412058 0
M  V30 7866 H 717.292 -3.50654 2.99733 0
M  V30 7867 H 715.535 -3.25198 2.87104 0
M  V30 7868 H 716.206 -4.86458 2.60887 0
M  V30 7869 H 718.682 -4.0728 0.852191 0
M  V30 7870 H 717.558 -5.44599 0.685776 0
M  V30 7871 H 717.819 -4.36886 -0.676994 0
M  V30 7872 N 716.879 -0.700114 -1.41195 0
M  V30 7873 C 718.104 -0.240704 -2.05998 0
M  V30 7874 C 718.529 1.10313 -1.52357 0
M  V30 7875 O 717.887 1.69154 -0.652424 0
M  V30 7876 C 717.935 -0.213783 -3.59966 0
M  V30 7877 O 717.039 0.809933 -4.04368 0
M  V30 7878 H 716.38 -0.116471 -0.653705 0
M  V30 7879 H 718.91 -0.956251 -1.80878 0
M  V30 7880 H 718.92 -0.0461852 -4.07974 0
M  V30 7881 H 717.595 -1.19454 -3.98376 0
M  V30 7882 H 716.172 0.611319 -3.67855 0
M  V30 7883 N 718.357 1.51182 -0.445186 0
M  V30 7884 C 719.32 2.26501 0.350722 0
M  V30 7885 C 720.32 1.3025 0.942952 0
M  V30 7886 O 721.51 1.53897 0.816175 0
M  V30 7887 C 718.642 3.06274 1.49697 0
M  V30 7888 H 719.835 2.98299 -0.309474 0
M  V30 7889 H 717.388 1.55034 -0.198551 0
M  V30 7890 H 718.123 2.38911 2.19299 0
M  V30 7891 H 717.908 3.76979 1.0784 0
M  V30 7892 H 719.398 3.63306 2.05909 0
M  V30 7893 N 719.835 0.176821 1.56605 0
M  V30 7894 C 720.768 -0.790135 2.14084 0
M  V30 7895 C 721.746 -1.22219 1.07244 0
M  V30 7896 O 722.93 -1.31298 1.35252 0
M  V30 7897 C 720.057 -2.06475 2.68488 0
M  V30 7898 C 719.103 -1.77628 3.87751 0
M  V30 7899 S 719.936 -0.940612 5.27174 0
M  V30 7900 C 721.092 -2.22577 5.84988 0
M  V30 7901 H 721.325 -0.30144 2.95768 0
M  V30 7902 H 718.858 -0.0379279 1.54353 0
M  V30 7903 H 720.816 -2.79683 3.00479 0
M  V30 7904 H 719.477 -2.52457 1.8688 0
M  V30 7905 H 718.67 -2.72215 4.24164 0
M  V30 7906 H 718.272 -1.12512 3.56675 0
M  V30 7907 H 720.564 -3.17992 5.98237 0
M  V30 7908 H 721.507 -1.90624 6.81959 0
M  V30 7909 H 721.915 -2.34588 5.13448 0
M  V30 7910 N 721.313 -1.57302 -0.09688 0
M  V30 7911 C 722.543 -1.89926 -0.813114 0
M  V30 7912 C 722.951 -0.76852 -1.72888 0
M  V30 7913 O 722.294 0.268549 -1.81726 0
M  V30 7914 C 722.356 -3.17787 -1.68082 0
M  V30 7915 C 722.02 -4.4729 -0.937061 0
M  V30 7916 C 723.017 -5.1921 -0.267687 0
M  V30 7917 C 720.702 -4.93957 -0.911671 0
M  V30 7918 C 722.696 -6.36034 0.417129 0
M  V30 7919 C 720.383 -6.10693 -0.223068 0
M  V30 7920 C 721.381 -6.8158 0.440155 0
M  V30 7921 O 721.069 -7.96092 1.11772 0
M  V30 7922 H 720.801 -0.632783 -0.237828 0
M  V30 7923 H 723.355 -2.05248 -0.0790818 0
M  V30 7924 H 721.585 -2.98607 -2.45705 0
M  V30 7925 H 723.274 -3.36257 -2.27346 0
M  V30 7926 H 724.04 -4.84198 -0.278774 0
M  V30 7927 H 719.919 -4.38671 -1.41734 0
M  V30 7928 H 723.463 -6.91301 0.93537 0
M  V30 7929 H 719.36 -6.45159 -0.209821 0
M  V30 7930 H 720.128 -8.12064 1.02443 0
M  V30 7931 N 722.791 0.367657 -1.53252 0
M  V30 7932 C 724.016 1.13566 -1.73544 0
M  V30 7933 C 724.441 1.82329 -0.462344 0
M  V30 7934 O 723.799 1.71655 0.583472 0
M  V30 7935 C 723.847 2.14322 -2.89997 0
M  V30 7936 O 722.951 3.21359 -2.58461 0
M  V30 7937 H 722.292 0.329614 -0.576412 0
M  V30 7938 H 724.822 0.425417 -2.00128 0
M  V30 7939 H 724.832 2.57958 -3.16104 0
M  V30 7940 H 723.507 1.63664 -3.82344 0
M  V30 7941 H 722.084 2.8271 -2.43165 0
M  V30 7942 N 724.269 1.44576 0.627338 0
M  V30 7943 C 725.494 1.51271 1.41887 0
M  V30 7944 C 725.919 0.139814 1.8758 0
M  V30 7945 O 725.277 -0.871746 1.58966 0
M  V30 7946 C 725.325 2.48529 2.61277 0
M  V30 7947 O 724.429 1.98944 3.61241 0
M  V30 7948 H 723.77 0.510668 0.424399 0
M  V30 7949 H 726.3 1.89746 0.765356 0
M  V30 7950 H 726.31 2.66689 3.08773 0
M  V30 7951 H 724.985 3.48249 2.27366 0
M  V30 7952 H 723.562 1.90568 3.20528 0
M  V30 7953 N 725.747 -0.868086 1.31537 0
M  V30 7954 C 726.972 -1.65926 1.24432 0
M  V30 7955 C 727.397 -1.87169 -0.186936 0
M  V30 7956 O 726.755 -1.4148 -1.13371 0
M  V30 7957 C 726.803 -3.00347 1.9956 0
M  V30 7958 O 725.907 -3.90221 1.33422 0
M  V30 7959 H 725.248 -0.506375 0.429512 0
M  V30 7960 H 727.778 -1.0822 1.73637 0
M  V30 7961 H 727.788 -3.50269 2.09226 0
M  V30 7962 H 726.463 -2.84205 3.03645 0
M  V30 7963 H 725.04 -3.48672 1.32219 0
M  V30 7964 N 727.225 -1.14528 -1.08264 0
M  V30 7965 C 728.175 -0.802141 -2.13424 0
M  V30 7966 C 729.159 0.209362 -1.59532 0
M  V30 7967 O 730.351 0.0114859 -1.76996 0
M  V30 7968 C 727.48 -0.282938 -3.42132 0
M  V30 7969 C 726.566 -1.32405 -4.02902 0
M  V30 7970 N 726.957 -2.52861 -4.38058 0
M  V30 7971 C 725.255 -1.17462 -4.30254 0
M  V30 7972 C 725.956 -3.1952 -4.86088 0
M  V30 7973 N 724.932 -2.46921 -4.84284 0
M  V30 7974 H 728.734 -1.71843 -2.38426 0
M  V30 7975 H 726.248 -1.02936 -1.2561 0
M  V30 7976 H 728.245 -0.0188053 -4.16896 0
M  V30 7977 H 726.905 0.627533 -3.18578 0
M  V30 7978 H 727.916 -2.90078 -4.2904 0
M  V30 7979 H 724.593 -0.323283 -4.16246 0
M  V30 7980 H 725.983 -4.2223 -5.22658 0
M  V30 7981 N 728.703 1.26451 -0.940633 0
M  V30 7982 C 730.114 1.75726 -0.630653 0
M  V30 7983 C 730.465 1.76631 0.854167 0
M  V30 7984 O 729.59 1.37807 1.66848 0
M  V30 7985 C 730.185 3.19114 -1.13805 0
M  V30 7986 C 728.744 3.66005 -0.878497 0
M  V30 7987 C 727.891 2.45505 -1.28928 0
M  V30 7988 H 730.842 1.12535 -1.119 0
M  V30 7989 H 730.863 3.77311 -0.491625 0
M  V30 7990 H 730.375 3.18424 -2.21874 0
M  V30 7991 H 728.476 3.72126 0.187833 0
M  V30 7992 H 728.589 4.54844 -1.50512 0
M  V30 7993 H 726.953 2.4467 -0.707713 0
M  V30 7994 H 727.736 2.47516 -2.37888 0
M  V30 7995 N 730.181 0.707592 1.40822 0
M  V30 7996 C 731.592 0.317011 1.83989 0
M  V30 7997 C 731.943 -1.14697 1.59182 0
M  V30 7998 O 731.068 -1.8818 1.06852 0
M  V30 7999 C 731.663 0.568593 3.33995 0
M  V30 8000 C 730.222 0.231804 3.75686 0
M  V30 8001 C 729.369 0.844933 2.64114 0
M  V30 8002 H 732.32 0.907349 1.30203 0
M  V30 8003 H 732.341 -0.168798 3.80125 0
M  V30 8004 H 731.853 1.63417 3.52018 0
M  V30 8005 H 729.954 -0.82903 3.6326 0
M  V30 8006 H 730.067 0.695219 4.74029 0
M  V30 8007 H 728.431 0.273588 2.53226 0
M  V30 8008 H 729.214 1.91462 2.84951 0
M  V30 8009 N 731.66 -1.50943 0.453197 0
M  V30 8010 C 732.623 -2.26684 -0.338705 0
M  V30 8011 C 733.623 -1.30748 -0.936032 0
M  V30 8012 O 734.813 -1.54327 -0.808002 0
M  V30 8013 C 731.945 -3.07063 -1.48071 0
M  V30 8014 H 733.138 -2.98131 0.325289 0
M  V30 8015 H 730.691 -1.54926 0.206771 0
M  V30 8016 H 731.426 -2.4007 -2.18029 0
M  V30 8017 H 731.211 -3.77545 -1.0584 0
M  V30 8018 H 732.701 -3.64393 -2.0398 0
M  V30 8019 N 733.138 -0.185124 -1.56509 0
M  V30 8020 C 734.048 0.751908 -2.22224 0
M  V30 8021 C 735.064 1.24244 -1.21817 0
M  V30 8022 O 736.24 1.29169 -1.54523 0
M  V30 8023 C 733.305 1.95837 -2.86092 0
M  V30 8024 C 732.366 1.51337 -4.01741 0
M  V30 8025 C 731.599 2.66233 -4.62554 0
M  V30 8026 O 731.822 3.8346 -4.22273 0
M  V30 8027 O 730.756 2.39517 -5.52191 0
M  V30 8028 H 734.582 0.222304 -3.02885 0
M  V30 8029 H 732.167 0.0437141 -1.49336 0
M  V30 8030 H 734.049 2.66368 -3.26536 0
M  V30 8031 H 732.724 2.47677 -2.08417 0
M  V30 8032 H 731.631 0.777155 -3.65939 0
M  V30 8033 H 732.964 1.04175 -4.81049 0
M  V30 8034 N 734.616 1.57351 0.0885366 0
M  V30 8035 C 735.566 1.98963 1.11346 0
M  V30 8036 C 736.55 0.869065 1.35411 0
M  V30 8037 O 737.742 1.13292 1.35992 0
M  V30 8038 C 734.871 2.4231 2.43189 0
M  V30 8039 C 733.957 3.61065 2.22469 0
M  V30 8040 N 734.348 4.75789 1.71635 0
M  V30 8041 C 732.646 3.6729 2.5301 0
M  V30 8042 C 733.347 5.57708 1.65339 0
M  V30 8043 N 732.323 5.01067 2.1079 0
M  V30 8044 H 736.125 2.85109 0.713465 0
M  V30 8045 H 733.639 1.59682 0.295868 0
M  V30 8046 H 735.636 2.70352 3.17357 0
M  V30 8047 H 734.296 1.57544 2.83919 0
M  V30 8048 H 735.307 4.98411 1.40738 0
M  V30 8049 H 731.984 2.932 2.9722 0
M  V30 8050 H 733.374 6.59782 1.27031 0
M  V30 8051 N 736.094 -0.359525 1.53444 0
M  V30 8052 C 737.041 -1.44073 1.8031 0
M  V30 8053 C 738.011 -1.52946 0.647811 0
M  V30 8054 O 739.196 -1.68739 0.890614 0
M  V30 8055 C 736.336 -2.80941 2.00416 0
M  V30 8056 C 735.449 -2.80986 3.28132 0
M  V30 8057 C 734.584 -4.09468 3.38393 0
M  V30 8058 C 733.623 -4.03679 4.60119 0
M  V30 8059 N 732.76 -5.23821 4.675 0
M  V30 8060 H 737.6 -1.20464 2.72566 0
M  V30 8061 H 735.137 -0.583859 1.35017 0
M  V30 8062 H 737.095 -3.60459 2.1006 0
M  V30 8063 H 735.725 -3.02936 1.11489 0
M  V30 8064 H 734.777 -1.93666 3.27411 0
M  V30 8065 H 736.089 -2.72583 4.17732 0
M  V30 8066 H 735.243 -4.97404 3.47382 0
M  V30 8067 H 733.982 -4.20632 2.4682 0
M  V30 8068 H 732.987 -3.14129 4.51224 0
M  V30 8069 H 734.212 -3.94112 5.5304 0
M  V30 8070 H 732.158 -5.35559 3.7883 0
M  V30 8071 H 732.075 -5.17611 5.51013 0
M  V30 8072 H 733.343 -6.13572 4.8078 0
M  V30 8073 N 737.572 -1.44907 -0.619662 0
M  V30 8074 C 738.519 -1.52654 -1.73105 0
M  V30 8075 C 739.489 -0.373334 -1.6185 0
M  V30 8076 O 740.674 -0.585143 -1.81606 0
M  V30 8077 C 737.814 -1.48769 -3.11387 0
M  V30 8078 C 736.927 -2.74551 -3.33535 0
M  V30 8079 C 736.062 -2.62421 -4.61854 0
M  V30 8080 C 735.101 -3.83312 -4.77219 0
M  V30 8081 N 734.238 -3.69789 -5.96826 0
M  V30 8082 H 739.078 -2.47605 -1.65819 0
M  V30 8083 H 736.615 -1.22875 -0.808719 0
M  V30 8084 H 738.573 -1.44507 -3.91374 0
M  V30 8085 H 737.203 -0.573783 -3.1766 0
M  V30 8086 H 736.255 -2.88953 -2.47408 0
M  V30 8087 H 737.567 -3.64253 -3.40765 0
M  V30 8088 H 736.721 -2.56056 -5.50019 0
M  V30 8089 H 735.46 -1.70298 -4.57001 0
M  V30 8090 H 734.465 -3.90049 -3.87481 0
M  V30 8091 H 735.69 -4.76486 -4.83878 0
M  V30 8092 H 733.636 -2.80426 -5.93041 0
M  V30 8093 H 733.553 -4.53116 -6.05163 0
M  V30 8094 H 734.821 -3.67335 -6.87521 0
M  V30 8095 N 739.05 0.861098 -1.31996 0
M  V30 8096 C 739.983 1.97266 -1.14724 0
M  V30 8097 C 740.961 1.62528 -0.0483789 0
M  V30 8098 O 742.145 1.87366 -0.206478 0
M  V30 8099 C 739.272 3.30181 -0.754861 0
M  V30 8100 C 738.318 3.839 -1.85804 0
M  V30 8101 S 739.151 4.08274 -3.46515 0
M  V30 8102 C 740.307 5.44174 -3.09235 0
M  V30 8103 H 740.54 2.11614 -2.08822 0
M  V30 8104 H 738.073 1.01232 -1.16582 0
M  V30 8105 H 740.031 4.06996 -0.535232 0
M  V30 8106 H 738.692 3.13655 0.167155 0
M  V30 8107 H 737.885 4.80013 -1.53633 0
M  V30 8108 H 737.487 3.13907 -2.03318 0
M  V30 8109 H 739.779 6.26172 -2.58679 0
M  V30 8110 H 740.722 5.81301 -4.04345 0
M  V30 8111 H 741.13 5.0787 -2.46431 0
M  V30 8112 N 740.528 1.15101 1.07655 0
M  V30 8113 C 741.774 0.925343 1.80458 0
M  V30 8114 C 742.107 -0.546354 1.86356 0
M  V30 8115 O 741.382 -1.40496 1.34503 0
M  V30 8116 C 741.665 1.53646 3.25676 0
M  V30 8117 C 741.518 3.07854 3.27942 0
M  V30 8118 C 742.837 1.21968 4.22861 0
M  V30 8119 H 739.956 0.337592 0.655134 0
M  V30 8120 H 742.598 1.42217 1.25993 0
M  V30 8121 H 740.748 1.11395 3.72187 0
M  V30 8122 H 742.42 3.58989 2.89697 0
M  V30 8123 H 740.663 3.41904 2.66991 0
M  V30 8124 H 741.334 3.45725 4.30324 0
M  V30 8125 H 743.81 1.5851 3.84726 0
M  V30 8126 H 742.686 1.67349 5.22767 0
M  V30 8127 H 742.947 0.136207 4.4189 0
M  V30 8128 N 742.006 -1.2595 0.947325 0
M  V30 8129 C 742.936 -2.28521 0.479604 0
M  V30 8130 C 743.917 -1.63469 -0.470293 0
M  V30 8131 O 745.102 -1.90627 -0.370824 0
M  V30 8132 C 742.232 -3.46397 -0.250289 0
M  V30 8133 C 741.186 -4.23578 0.613643 0
M  V30 8134 C 740.512 -5.34131 -0.246568 0
M  V30 8135 C 741.812 -4.86979 1.88809 0
M  V30 8136 H 743.506 -2.67895 1.33688 0
M  V30 8137 H 741.052 -1.28783 0.644274 0
M  V30 8138 H 743.005 -4.17269 -0.588576 0
M  V30 8139 H 741.729 -3.05993 -1.14175 0
M  V30 8140 H 740.388 -3.54478 0.93491 0
M  V30 8141 H 740.036 -4.89968 -1.13756 0
M  V30 8142 H 739.736 -5.86683 0.328123 0
M  V30 8143 H 741.26 -6.07839 -0.579986 0
M  V30 8144 H 742.674 -5.50034 1.61666 0
M  V30 8145 H 741.071 -5.49675 2.40784 0
M  V30 8146 H 742.141 -4.09575 2.5957 0
M  V30 8147 N 743.484 -0.715051 -1.40445 0
M  V30 8148 C 744.73 -0.263528 -2.01686 0
M  V30 8149 C 745.085 1.13052 -1.55683 0
M  V30 8150 O 744.378 1.75588 -0.766762 0
M  V30 8151 C 744.572 -0.281791 -3.56287 0
M  V30 8152 C 744.401 -1.67607 -4.17298 0
M  V30 8153 C 743.171 -2.2836 -4.50755 0
M  V30 8154 C 745.369 -2.62621 -4.42193 0
M  V30 8155 N 743.351 -3.6015 -4.97157 0
M  V30 8156 C 744.722 -3.79116 -4.90582 0
M  V30 8157 C 746.777 -2.60639 -4.24231 0
M  V30 8158 C 745.48 -4.93937 -5.22895 0
M  V30 8159 C 747.506 -3.74587 -4.57644 0
M  V30 8160 C 746.868 -4.89815 -5.06222 0
M  V30 8161 H 742.967 -0.142252 -0.768953 0
M  V30 8162 H 745.551 -0.936732 -1.70685 0
M  V30 8163 H 743.722 0.360975 -3.86719 0
M  V30 8164 H 745.454 0.186393 -4.04271 0
M  V30 8165 H 742.209 -1.80463 -4.3787 0
M  V30 8166 H 742.633 -4.27757 -5.24741 0
M  V30 8167 H 747.275 -1.72759 -3.85894 0
M  V30 8168 H 744.993 -5.82462 -5.60146 0
M  V30 8169 H 748.579 -3.74328 -4.45387 0
M  V30 8170 H 747.459 -5.76525 -5.3159 0
M  V30 8171 N 744.962 1.50701 -0.461195 0
M  V30 8172 C 745.91 2.29918 0.352231 0
M  V30 8173 C 746.904 1.36778 0.999403 0
M  V30 8174 O 748.11 1.54015 0.931639 0
M  V30 8175 H 744.485 0.740249 0.132423 0
M  V30 8176 H 746.456 2.96497 -0.336424 0
M  V30 8177 C 745.205 3.17052 1.42736 0
M  V30 8178 H 744.528 3.88623 0.938747 0
M  V30 8179 H 745.968 3.75493 1.96928 0
M  V30 8180 C 744.427 2.3399 2.42384 0
M  V30 8181 O 744.957 2.01608 3.47444 0
M  V30 8182 N 743.163 1.96758 2.13857 0
M  V30 8183 H 742.71 2.23292 1.28447 0
M  V30 8184 H 742.668 1.41484 2.80766 0
M  V30 8185 N 746.441 0.193421 1.56409 0
M  V30 8186 C 747.718 -0.493318 1.89277 0
M  V30 8187 C 748.098 -1.79765 1.10669 0
M  V30 8188 O 747.446 -2.27558 0.207274 0
M  V30 8189 C 747.656 -0.713732 3.41624 0
M  V30 8190 C 749.004 -1.03385 4.11821 0
M  V30 8191 O 750.028 -0.801511 3.47065 0
M  V30 8192 O 748.887 -1.47327 5.26267 0
M  V30 8193 H 745.981 -0.256973 0.786062 0
M  V30 8194 H 748.527 0.23351 1.68086 0
M  V30 8195 H 747.299 0.207446 3.9075 0
M  V30 8196 H 746.922 -1.49308 3.68501 0
M  V30 8197 N 747.919 -1.57396 -0.0801906 0
M  V30 8198 C 749.144 -1.91437 -0.797909 0
M  V30 8199 C 749.569 -0.789075 -1.70749 0
M  V30 8200 O 748.927 0.25857 -1.79447 0
M  V30 8201 C 748.975 -3.24402 -1.57467 0
M  V30 8202 O 748.079 -3.13043 -2.68473 0
M  V30 8203 H 747.42 -0.627109 -0.218243 0
M  V30 8204 H 749.95 -2.04537 -0.050949 0
M  V30 8205 H 749.96 -3.58072 -1.95571 0
M  V30 8206 H 748.635 -4.05884 -0.907229 0
M  V30 8207 H 747.212 -2.90915 -2.33287 0
M  V30 8208 N 749.397 0.351382 -1.53633 0
M  V30 8209 C 750.643 1.09411 -1.70754 0
M  V30 8210 C 750.976 1.88544 -0.465293 0
M  V30 8211 O 750.251 1.86923 0.537608 0
M  V30 8212 C 750.534 2.04173 -2.96623 0
M  V30 8213 C 750.387 1.28556 -4.31038 0
M  V30 8214 C 751.706 3.04102 -3.18136 0
M  V30 8215 H 748.825 0.396373 -0.621335 0
M  V30 8216 H 751.467 0.373464 -1.86293 0
M  V30 8217 H 749.617 2.65625 -2.83506 0
M  V30 8218 H 751.289 0.697786 -4.55992 0
M  V30 8219 H 749.532 0.587498 -4.29803 0
M  V30 8220 H 750.203 1.97989 -5.15271 0
M  V30 8221 H 752.679 2.5276 -3.30532 0
M  V30 8222 H 751.555 3.67616 -4.07615 0
M  V30 8223 H 751.816 3.75053 -2.34068 0
M  V30 8224 N 750.875 1.45233 0.611969 0
M  V30 8225 C 752.121 1.49242 1.37312 0
M  V30 8226 C 752.454 0.131963 1.93751 0
M  V30 8227 O 751.729 -0.852999 1.74798 0
M  V30 8228 C 752.012 2.56811 2.52428 0
M  V30 8229 C 751.865 4.02284 2.01215 0
M  V30 8230 C 753.184 2.60705 3.54572 0
M  V30 8231 H 750.303 0.54336 0.497925 0
M  V30 8232 H 752.945 1.77019 0.690242 0
M  V30 8233 H 751.095 2.33256 3.10683 0
M  V30 8234 H 752.767 4.37035 1.47643 0
M  V30 8235 H 751.01 4.1315 1.32248 0
M  V30 8236 H 751.681 4.7323 2.84178 0
M  V30 8237 H 754.157 2.81799 3.06151 0
M  V30 8238 H 753.033 3.37841 4.32614 0
M  V30 8239 H 753.294 1.65627 4.09903 0
M  V30 8240 N 752.353 -0.854086 1.3245 0
M  V30 8241 C 753.769 -1.14238 1.11453 0
M  V30 8242 C 753.969 -2.01228 -0.10461 0
M  V30 8243 O 753.025 -2.39845 -0.789339 0
M  V30 8244 C 754.338 -1.81916 2.39431 0
M  V30 8245 C 755.886 -1.94549 2.45193 0
M  V30 8246 C 756.361 -2.65642 3.73093 0
M  V30 8247 N 757.852 -2.73167 3.74078 0
M  V30 8248 C 758.587 -3.28828 4.69744 0
M  V30 8249 N 758.083 -3.85295 5.75778 0
M  V30 8250 N 759.876 -3.26936 4.57241 0
M  V30 8251 H 752.027 -0.274786 2.10615 0
M  V30 8252 H 754.29 -0.184375 0.929898 0
M  V30 8253 H 753.996 -1.25452 3.28565 0
M  V30 8254 H 753.87 -2.82068 2.50434 0
M  V30 8255 H 756.257 -2.50172 1.56518 0
M  V30 8256 H 756.338 -0.933914 2.38142 0
M  V30 8257 H 755.982 -2.10683 4.62142 0
M  V30 8258 H 755.912 -3.6724 3.77415 0
M  V30 8259 H 758.403 -2.33108 2.97438 0
M  V30 8260 H 758.716 -4.25925 6.44832 0
M  V30 8261 H 757.061 -3.83625 5.79531 0
M  V30 8262 H 760.252 -2.8207 3.7357 0
M  V30 8263 H 760.425 -3.70014 5.31971 0
M  V30 8264 N 753.831 -1.1567 -1.07043 0
M  V30 8265 C 754.781 -0.824733 -2.12561 0
M  V30 8266 C 755.765 0.19243 -1.59745 0
M  V30 8267 O 756.957 -0.00728759 -1.76998 0
M  V30 8268 C 754.086 -0.31921 -3.41813 0
M  V30 8269 C 753.172 -1.36671 -4.01475 0
M  V30 8270 N 753.563 -2.57493 -4.35351 0
M  V30 8271 C 751.861 -1.22018 -4.28984 0
M  V30 8272 C 752.562 -3.24658 -4.82672 0
M  V30 8273 N 751.538 -2.52043 -4.81638 0
M  V30 8274 H 755.34 -1.74363 -2.3659 0
M  V30 8275 H 752.854 -1.04262 -1.24511 0
M  V30 8276 H 754.851 -0.0630216 -4.16852 0
M  V30 8277 H 753.511 0.593708 -3.19226 0
M  V30 8278 H 754.522 -2.94612 -4.25939 0
M  V30 8279 H 751.199 -0.367414 -4.1588 0
M  V30 8280 H 752.589 -4.2775 -5.1815 0
M  V30 8281 N 755.309 1.25446 -0.953992 0
M  V30 8282 C 756.257 2.27909 -0.46478 0
M  V30 8283 C 757.251 1.62904 0.464607 0
M  V30 8284 O 758.457 1.76733 0.341407 0
M  V30 8285 H 754.832 0.74036 -0.131798 0
M  V30 8286 H 756.803 2.66559 -1.34122 0
M  V30 8287 C 755.552 3.46853 0.242589 0
M  V30 8288 H 754.875 3.97105 -0.463418 0
M  V30 8289 H 756.315 4.20432 0.548919 0
M  V30 8290 C 754.774 3.03386 1.46487 0
M  V30 8291 O 755.304 3.09342 2.56262 0
M  V30 8292 N 753.51 2.58584 1.32599 0
M  V30 8293 H 753.057 2.53938 0.432834 0
M  V30 8294 H 753.015 2.29866 2.14497 0
M  V30 8295 N 756.787 0.722489 1.40064 0
M  V30 8296 C 758.012 0.273446 2.05589 0
M  V30 8297 C 758.437 -1.07875 1.54093 0
M  V30 8298 O 757.795 -1.68095 0.679252 0
M  V30 8299 C 757.843 0.271023 3.5958 0
M  V30 8300 O 756.947 -0.745499 4.05606 0
M  V30 8301 H 756.288 0.126856 0.65177 0
M  V30 8302 H 758.818 0.984906 1.79334 0
M  V30 8303 H 758.828 0.111084 4.07849 0
M  V30 8304 H 757.503 1.25776 3.96425 0
M  V30 8305 H 756.08 -0.552719 3.68781 0
M  V30 8306 N 758.265 -1.50454 0.469181 0
M  V30 8307 C 759.514 -2.01507 -0.0881425 0
M  V30 8308 C 759.827 -1.35613 -1.40956 0
M  V30 8309 O 761.033 -1.77812 -2.05171 0
M  V30 8310 C 759.489 -3.59301 -0.207596 0
M  V30 8311 C 759.097 -4.34152 1.10527 0
M  V30 8312 C 760.841 -4.18401 -0.716981 0
M  V30 8313 C 758.748 -5.83725 0.949717 0
M  V30 8314 H 757.678 -0.753106 -0.0367156 0
M  V30 8315 H 760.329 -1.73282 0.603788 0
M  V30 8316 H 758.711 -3.84106 -0.963265 0
M  V30 8317 H 759.885 -4.21073 1.87175 0
M  V30 8318 H 758.2 -3.86652 1.54562 0
M  V30 8319 H 760.797 -5.27895 -0.850363 0
M  V30 8320 H 761.14 -3.79657 -1.70782 0
M  V30 8321 H 761.673 -3.97796 -0.0187511 0
M  V30 8322 H 758.412 -6.26938 1.91387 0
M  V30 8323 H 757.932 -5.99383 0.223591 0
M  V30 8324 H 759.611 -6.44065 0.61557 0
M  V30 8325 N 759.743 -0.201713 -1.56304 0
M  V30 8326 C 760.673 0.71155 -2.22394 0
M  V30 8327 C 761.654 1.21625 -1.18917 0
M  V30 8328 O 762.839 1.26388 -1.47444 0
M  V30 8329 C 759.969 1.92837 -2.88845 0
M  V30 8330 C 758.923 1.55831 -3.98623 0
M  V30 8331 C 758.249 2.85228 -4.52271 0
M  V30 8332 C 759.549 0.763249 -5.16693 0
M  V30 8333 H 761.243 0.160573 -2.98969 0
M  V30 8334 H 758.789 0.0757916 -1.438 0
M  V30 8335 H 760.742 2.57253 -3.33764 0
M  V30 8336 H 759.466 2.50398 -2.09686 0
M  V30 8337 H 758.125 0.9377 -3.54405 0
M  V30 8338 H 757.773 3.40893 -3.69866 0
M  V30 8339 H 757.473 2.6121 -5.26349 0
M  V30 8340 H 758.997 3.50622 -4.99897 0
M  V30 8341 H 760.411 1.31066 -5.58117 0
M  V30 8342 H 758.808 0.620935 -5.96879 0
M  V30 8343 H 759.878 -0.234322 -4.84334 0
M  V30 8344 N 761.222 1.57436 0.0718424 0
M  V30 8345 C 762.154 2.00412 1.1121 0
M  V30 8346 C 763.167 0.910074 1.34987 0
M  V30 8347 O 764.356 1.18796 1.33228 0
M  V30 8348 C 761.456 2.32786 2.46301 0
M  V30 8349 C 760.629 3.64036 2.4248 0
M  V30 8350 C 759.688 3.8408 3.59679 0
M  V30 8351 O 758.714 4.55667 3.4111 0
M  V30 8352 N 759.916 3.2643 4.80025 0
M  V30 8353 H 762.681 2.90264 0.746118 0
M  V30 8354 H 760.242 1.59791 0.260495 0
M  V30 8355 H 762.234 2.43368 3.23348 0
M  V30 8356 H 760.804 1.48824 2.74901 0
M  V30 8357 H 760.024 3.64208 1.50818 0
M  V30 8358 H 761.312 4.50217 2.37027 0
M  V30 8359 H 760.71 2.68325 4.98014 0
M  V30 8360 H 759.267 3.42461 5.54584 0
M  V30 8361 N 762.7 -0.34323 1.53817 0
M  V30 8362 C 763.63 -1.42709 1.84814 0
M  V30 8363 C 764.611 -1.5488 0.703297 0
M  V30 8364 O 765.796 -1.69082 0.955237 0
M  V30 8365 C 762.926 -2.79756 2.05801 0
M  V30 8366 C 761.88 -2.82392 3.21619 0
M  V30 8367 C 761.206 -4.22326 3.2794 0
M  V30 8368 C 762.506 -2.479 4.59721 0
M  V30 8369 H 764.2 -1.17018 2.75585 0
M  V30 8370 H 761.746 -0.561485 1.32602 0
M  V30 8371 H 763.699 -3.55627 2.26069 0
M  V30 8372 H 762.423 -3.06883 1.11761 0
M  V30 8373 H 761.082 -2.08974 3.01207 0
M  V30 8374 H 760.73 -4.46564 2.31494 0
M  V30 8375 H 760.43 -4.25001 4.05768 0
M  V30 8376 H 761.954 -5.00039 3.50419 0
M  V30 8377 H 763.368 -3.13484 4.80001 0
M  V30 8378 H 761.765 -2.61857 5.39954 0
M  V30 8379 H 762.835 -1.43087 4.63308 0
M  V30 8380 N 764.178 -1.45556 -0.604258 0
M  V30 8381 C 765.455 -1.40221 -1.36373 0
M  V30 8382 C 765.835 -0.0745195 -2.10968 0
M  V30 8383 O 765.183 0.943594 -2.08107 0
M  V30 8384 C 765.393 -2.61807 -2.30777 0
M  V30 8385 C 766.741 -3.07037 -2.93281 0
M  V30 8386 O 767.765 -2.62203 -2.41097 0
M  V30 8387 O 766.624 -3.8485 -3.88011 0
M  V30 8388 H 763.718 -0.556602 -0.611656 0
M  V30 8389 H 766.264 -1.57689 -0.627069 0
M  V30 8390 H 765.036 -3.50017 -1.74939 0
M  V30 8391 H 764.659 -2.46688 -3.11818 0
M  V30 8392 N 765.656 0.84705 -1.32902 0
M  V30 8393 C 767.067 1.41785 -1.21466 0
M  V30 8394 C 767.418 1.95464 0.169767 0
M  V30 8395 O 766.543 1.88157 1.06892 0
M  V30 8396 C 767.138 2.57734 -2.19906 0
M  V30 8397 C 765.697 3.10791 -2.12334 0
M  V30 8398 C 764.844 1.83562 -2.07847 0
M  V30 8399 H 767.795 0.653532 -1.44619 0
M  V30 8400 H 767.816 3.35123 -1.80202 0
M  V30 8401 H 767.328 2.18635 -3.20656 0
M  V30 8402 H 765.429 3.54455 -1.14858 0
M  V30 8403 H 765.542 3.71519 -3.02506 0
M  V30 8404 H 763.906 2.03475 -1.53199 0
M  V30 8405 H 764.689 1.4667 -3.10392 0
M  V30 8406 N 767.134 1.16236 1.06428 0
M  V30 8407 C 768.359 0.967688 1.83441 0
M  V30 8408 C 768.784 -0.479167 1.81894 0
M  V30 8409 O 768.142 -1.34224 1.21875 0
M  V30 8410 C 768.19 1.49806 3.2801 0
M  V30 8411 O 767.294 0.703481 4.06356 0
M  V30 8412 H 766.635 0.344468 0.56766 0
M  V30 8413 H 769.165 1.54442 1.34197 0
M  V30 8414 H 769.175 1.51495 3.78831 0
M  V30 8415 H 767.85 2.55133 3.2845 0
M  V30 8416 H 766.427 0.756986 3.65136 0
M  V30 8417 N 768.612 -1.24939 0.960631 0
M  V30 8418 C 769.861 -1.92118 0.614298 0
M  V30 8419 C 770.174 -1.75998 -0.853474 0
M  V30 8420 O 771.38 -2.37804 -1.31003 0
M  V30 8421 C 769.836 -3.44303 1.04801 0
M  V30 8422 C 769.444 -3.69123 2.53875 0
M  V30 8423 C 771.188 -4.17375 0.774497 0
M  V30 8424 C 769.095 -5.14843 2.91016 0
M  V30 8425 H 768.025 -0.719319 0.226045 0
M  V30 8426 H 770.676 -1.41701 1.16589 0
M  V30 8427 H 769.058 -3.93715 0.42479 0
M  V30 8428 H 770.232 -3.30339 3.21267 0
M  V30 8429 H 768.547 -3.09323 2.78762 0
M  V30 8430 H 771.144 -5.24723 1.02808 0
M  V30 8431 H 771.487 -4.15294 -0.289192 0
M  V30 8432 H 772.02 -3.7389 1.35835 0
M  V30 8433 H 768.759 -5.2204 3.96427 0
M  V30 8434 H 768.279 -5.54652 2.28302 0
M  V30 8435 H 769.958 -5.83017 2.80535 0
M  V30 8436 N 770.09 -0.729906 -1.39679 0
M  V30 8437 C 771.501 -0.346241 -1.83461 0
M  V30 8438 C 771.852 1.1215 -1.60987 0
M  V30 8439 O 770.977 1.86456 -1.09832 0
M  V30 8440 C 771.572 -0.621656 -3.33048 0
M  V30 8441 C 770.131 -0.291543 -3.75269 0
M  V30 8442 C 769.278 -0.886844 -2.62736 0
M  V30 8443 H 772.229 -0.927949 -1.28743 0
M  V30 8444 H 772.25 0.108301 -3.80346 0
M  V30 8445 H 771.762 -1.68996 -3.49373 0
M  V30 8446 H 769.863 0.771133 -3.64533 0
M  V30 8447 H 769.976 -0.770544 -4.72863 0
M  V30 8448 H 768.34 -0.313839 -2.52759 0
M  V30 8449 H 769.123 -1.95971 -2.81869 0
M  V30 8450 N 771.568 1.50203 -0.477153 0
M  V30 8451 C 772.816 2.01959 0.0755889 0
M  V30 8452 C 773.137 1.3608 1.39668 0
M  V30 8453 O 772.407 0.508136 1.89195 0
M  V30 8454 H 770.987 0.74636 0.0309248 0
M  V30 8455 H 773.649 1.84473 -0.628959 0
M  V30 8456 H 772.745 3.11305 0.222683 0
M  V30 8457 N 773.046 0.209999 1.56195 0
M  V30 8458 C 774.292 -0.425442 1.98287 0
M  V30 8459 C 774.625 -1.60232 1.09724 0
M  V30 8460 O 773.9 -1.93902 0.152414 0
M  V30 8461 C 774.183 -0.871189 3.49403 0
M  V30 8462 C 774.036 0.308527 4.48741 0
M  V30 8463 C 775.355 -1.73146 4.04609 0
M  V30 8464 H 772.474 -0.153169 0.720908 0
M  V30 8465 H 775.116 0.303916 1.87554 0
M  V30 8466 H 773.266 -1.49266 3.58681 0
M  V30 8467 H 774.938 0.946487 4.51486 0
M  V30 8468 H 773.181 0.957878 4.23092 0
M  V30 8469 H 773.852 -0.0461143 5.51981 0
M  V30 8470 H 776.328 -1.2072 3.98203 0
M  V30 8471 H 775.204 -2.01228 5.10684 0
M  V30 8472 H 775.465 -2.69083 3.5078 0
M  V30 8473 N 774.524 -1.57472 -0.0634922 0
M  V30 8474 C 775.771 -1.87654 -0.761066 0
M  V30 8475 C 776.099 -0.802847 -1.77157 0
M  V30 8476 O 775.354 0.200244 -1.94673 0
M  V30 8477 C 775.653 -3.24521 -1.49736 0
M  V30 8478 C 775.319 -4.46532 -0.626065 0
M  V30 8479 C 773.981 -4.7965 -0.385978 0
M  V30 8480 C 776.333 -5.21195 -0.0224001 0
M  V30 8481 C 773.661 -5.84837 0.467118 0
M  V30 8482 C 776.013 -6.27286 0.818198 0
M  V30 8483 C 774.677 -6.58899 1.06808 0
M  V30 8484 H 773.947 -0.686675 -0.278494 0
M  V30 8485 H 776.594 -1.91488 -0.0216348 0
M  V30 8486 H 774.899 -3.16516 -2.30921 0
M  V30 8487 H 776.596 -3.45111 -2.04204 0
M  V30 8488 H 773.186 -4.20618 -0.823325 0
M  V30 8489 H 777.37 -4.95917 -0.194985 0
M  V30 8490 H 772.626 -6.07725 0.669375 0
M  V30 8491 H 776.8 -6.84298 1.29265 0
M  V30 8492 H 774.427 -7.40233 1.73088 0
M  V30 8493 N 776.003 0.335068 -1.53997 0
M  V30 8494 C 777.419 0.678704 -1.4445 0
M  V30 8495 C 777.619 1.92106 -0.608078 0
M  V30 8496 O 776.675 2.52292 -0.102373 0
M  V30 8497 C 777.988 0.863435 -2.88037 0
M  V30 8498 C 779.536 0.961513 -2.97866 0
M  V30 8499 C 780.011 1.1785 -4.42578 0
M  V30 8500 N 781.502 1.2455 -4.46141 0
M  V30 8501 C 782.237 1.43106 -5.55255 0
M  V30 8502 N 781.733 1.5878 -6.74359 0
M  V30 8503 N 783.526 1.45722 -5.42883 0
M  V30 8504 H 775.677 -0.481656 -2.06867 0
M  V30 8505 H 777.94 -0.153615 -0.935471 0
M  V30 8506 H 777.646 0.0219511 -3.51693 0
M  V30 8507 H 777.52 1.76268 -3.33481 0
M  V30 8508 H 779.907 1.79351 -2.34344 0
M  V30 8509 H 779.988 0.0389862 -2.5577 0
M  V30 8510 H 779.632 0.351397 -5.06683 0
M  V30 8511 H 779.562 2.11472 -4.82273 0
M  V30 8512 H 782.053 1.13928 -3.60318 0
M  V30 8513 H 782.366 1.72599 -7.53279 0
M  V30 8514 H 780.711 1.559 -6.77289 0
M  V30 8515 H 783.902 1.33065 -4.48789 0
M  V30 8516 H 784.075 1.59841 -6.27977 0
M  V30 8517 N 777.481 1.45874 0.596531 0
M  V30 8518 C 778.729 1.5017 1.35253 0
M  V30 8519 C 779.05 0.149246 1.94428 0
M  V30 8520 O 778.32 -0.82268 1.77789 0
M  V30 8521 H 776.9 0.553052 0.502138 0
M  V30 8522 H 779.562 1.81908 0.699671 0
M  V30 8523 H 778.658 2.24671 2.16632 0
M  V30 8524 N 778.959 -0.83999 1.33349 0
M  V30 8525 C 780.37 -1.41139 1.22216 0
M  V30 8526 C 780.721 -1.95551 -0.159398 0
M  V30 8527 O 779.846 -1.88721 -1.05893 0
M  V30 8528 C 780.441 -2.56564 2.21269 0
M  V30 8529 C 779 -3.09661 2.13979 0
M  V30 8530 C 778.147 -1.82457 2.08818 0
M  V30 8531 H 781.098 -0.645853 1.44964 0
M  V30 8532 H 781.119 -3.34163 1.81976 0
M  V30 8533 H 780.631 -2.16932 3.21811 0
M  V30 8534 H 778.732 -3.53841 1.16736 0
M  V30 8535 H 778.845 -3.6991 3.04472 0
M  V30 8536 H 777.209 -2.0266 1.54276 0
M  V30 8537 H 777.992 -1.45022 3.11165 0
M  V30 8538 N 780.437 -1.16799 -1.0581 0
M  V30 8539 C 781.667 -0.975454 -1.82122 0
M  V30 8540 C 782.075 0.479584 -1.83021 0
M  V30 8541 O 781.418 1.34471 -1.25153 0
M  V30 8542 C 781.48 -1.43209 -3.29744 0
M  V30 8543 C 781.144 -2.908 -3.5254 0
M  V30 8544 C 782.141 -3.88775 -3.45181 0
M  V30 8545 C 779.826 -3.28832 -3.79703 0
M  V30 8546 C 781.82 -5.22782 -3.64661 0
M  V30 8547 C 779.507 -4.63007 -3.98832 0
M  V30 8548 C 780.505 -5.59791 -3.91309 0
M  V30 8549 O 780.193 -6.9154 -4.09911 0
M  V30 8550 H 779.925 -0.345655 -0.580947 0
M  V30 8551 H 782.479 -1.55355 -1.34365 0
M  V30 8552 H 780.709 -0.797504 -3.78387 0
M  V30 8553 H 782.398 -1.2062 -3.87564 0
M  V30 8554 H 783.164 -3.60738 -3.2418 0
M  V30 8555 H 779.043 -2.54073 -3.84666 0
M  V30 8556 H 782.587 -5.98312 -3.58705 0
M  V30 8557 H 778.484 -4.90752 -4.19324 0
M  V30 8558 H 779.252 -6.98188 -4.27172 0
M  V30 8559 N 781.915 1.24427 -0.967243 0
M  V30 8560 C 783.326 1.74349 -0.667785 0
M  V30 8561 C 783.677 1.78403 0.816509 0
M  V30 8562 O 782.802 1.41315 1.63887 0
M  V30 8563 C 783.397 3.16628 -1.20548 0
M  V30 8564 C 781.956 3.64059 -0.955934 0
M  V30 8565 C 781.103 2.42715 -1.34106 0
M  V30 8566 H 784.054 1.10136 -1.14262 0
M  V30 8567 H 784.075 3.76183 -0.571547 0
M  V30 8568 H 783.587 3.13646 -2.28578 0
M  V30 8569 H 781.688 3.72441 0.108858 0
M  V30 8570 H 781.801 4.51549 -1.60126 0
M  V30 8571 H 780.165 2.43114 -0.759452 0
M  V30 8572 H 780.948 2.42414 -2.43085 0
M  V30 8573 N 783.393 0.737304 1.3929 0
M  V30 8574 C 784.323 0.113988 2.33222 0
M  V30 8575 C 785.304 -0.721695 1.54031 0
M  V30 8576 O 786.489 -0.666206 1.82415 0
M  V30 8577 C 783.619 -0.792319 3.38141 0
M  V30 8578 C 782.573 -0.0606178 4.27957 0
M  V30 8579 C 781.899 -1.08409 5.23595 0
M  V30 8580 C 783.199 1.09817 5.10625 0
M  V30 8581 H 784.893 0.898611 2.85596 0
M  V30 8582 H 782.439 0.433571 1.37318 0
M  V30 8583 H 784.392 -1.23793 4.02807 0
M  V30 8584 H 783.116 -1.60908 2.84211 0
M  V30 8585 H 781.775 0.365393 3.64775 0
M  V30 8586 H 781.423 -1.89449 4.6596 0
M  V30 8587 H 781.123 -0.599269 5.84536 0
M  V30 8588 H 782.647 -1.52936 5.91137 0
M  V30 8589 H 784.061 0.730892 5.68622 0
M  V30 8590 H 782.458 1.51278 5.80719 0
M  V30 8591 H 783.528 1.91878 4.45321 0
M  V30 8592 N 784.871 -1.49948 0.485112 0
M  V30 8593 C 786.119 -2.01996 -0.0648775 0
M  V30 8594 C 786.44 -1.36819 -1.38945 0
M  V30 8595 O 785.71 -0.518163 -1.88923 0
M  V30 8596 H 784.29 -0.746513 -0.0269662 0
M  V30 8597 H 786.952 -1.84136 0.638733 0
M  V30 8598 H 786.048 -3.11418 -0.20617 0
M  V30 8599 N 786.349 -0.21828 -1.56081 0
M  V30 8600 C 787.598 0.414644 -1.97392 0
M  V30 8601 C 787.911 1.61132 -1.10887 0
M  V30 8602 O 789.117 2.31355 -1.42082 0
M  V30 8603 C 787.573 0.789099 -3.51143 0
M  V30 8604 C 787.181 -0.384578 -4.46346 0
M  V30 8605 C 788.925 1.38781 -4.01173 0
M  V30 8606 C 786.832 0.0121288 -5.91399 0
M  V30 8607 H 785.762 0.158691 -0.737111 0
M  V30 8608 H 788.413 -0.313974 -1.80794 0
M  V30 8609 H 786.795 1.57505 -3.6333 0
M  V30 8610 H 787.969 -1.16212 -4.45905 0
M  V30 8611 H 786.284 -0.896306 -4.06639 0
M  V30 8612 H 788.881 1.69746 -5.07041 0
M  V30 8613 H 789.224 2.30245 -3.46833 0
M  V30 8614 H 789.757 0.665364 -3.92196 0
M  V30 8615 H 786.496 -0.868917 -6.49715 0
M  V30 8616 H 786.016 0.754053 -5.95041 0
M  V30 8617 H 787.695 0.439949 -6.45502 0
M  V30 8618 N 787.827 1.57504 0.0551401 0
M  V30 8619 C 789.104 1.79155 0.785048 0
M  V30 8620 C 789.484 0.809995 1.94942 0
M  V30 8621 O 788.832 -0.153432 2.27984 0
M  V30 8622 C 789.042 3.26134 1.24247 0
M  V30 8623 C 790.39 3.90419 1.66908 0
M  V30 8624 O 791.414 3.30126 1.33772 0
M  V30 8625 O 790.273 4.96523 2.28314 0
M  V30 8626 H 787.367 0.735825 0.377479 0
M  V30 8627 H 789.913 1.69666 0.0339285 0
M  V30 8628 H 788.685 3.89145 0.410089 0
M  V30 8629 H 788.308 3.40411 2.05441 0
M  V30 8630 N 789.305 -0.326896 1.54172 0
M  V30 8631 C 790.716 -0.901533 1.63491 0
M  V30 8632 C 791.067 -1.88994 0.52684 0
M  V30 8633 O 790.192 -2.137 -0.340794 0
M  V30 8634 C 790.787 -1.64192 2.96355 0
M  V30 8635 C 789.346 -2.16533 3.07881 0
M  V30 8636 C 788.493 -0.98966 2.59039 0
M  V30 8637 H 791.444 -0.104568 1.58355 0
M  V30 8638 H 791.465 -2.50592 2.86328 0
M  V30 8639 H 790.977 -0.922291 3.76982 0
M  V30 8640 H 789.078 -2.91622 2.31922 0
M  V30 8641 H 789.191 -2.41762 4.13628 0
M  V30 8642 H 787.555 -1.36787 2.14852 0
M  V30 8643 H 788.338 -0.284401 3.4212 0
M  V30 8644 N 790.784 -1.46188 -0.588786 0
M  V30 8645 C 792.033 -1.50452 -1.34339 0
M  V30 8646 C 792.346 -0.158096 -1.9496 0
M  V30 8647 O 793.552 -0.0784918 -2.71387 0
M  V30 8648 C 792.008 -2.65074 -2.43441 0
M  V30 8649 C 791.616 -4.06111 -1.8915 0
M  V30 8650 C 793.36 -2.78603 -3.20282 0
M  V30 8651 C 791.267 -5.12084 -2.95845 0
M  V30 8652 H 790.197 -0.559905 -0.504997 0
M  V30 8653 H 792.848 -1.72382 -0.629014 0
M  V30 8654 H 791.23 -2.36462 -3.1765 0
M  V30 8655 H 792.404 -4.44487 -1.21524 0
M  V30 8656 H 790.719 -3.97197 -1.24995 0
M  V30 8657 H 793.316 -3.54944 -3.99898 0
M  V30 8658 H 793.659 -1.85902 -3.72486 0
M  V30 8659 H 794.192 -3.06832 -2.53178 0
M  V30 8660 H 790.931 -6.06556 -2.48535 0
M  V30 8661 H 790.451 -4.78259 -3.61979 0
M  V30 8662 H 792.13 -5.37661 -3.59902 0
M  V30 8663 N 792.262 0.832906 -1.33792 0
M  V30 8664 C 793.508 1.59053 -1.26782 0
M  V30 8665 C 793.863 1.91705 0.163399 0
M  V30 8666 O 793.156 1.5638 1.10706 0
M  V30 8667 C 793.35 2.9047 -2.08235 0
M  V30 8668 C 793.179 2.70656 -3.59132 0
M  V30 8669 C 791.949 2.67905 -4.28433 0
M  V30 8670 C 794.147 2.42871 -4.53341 0
M  V30 8671 N 792.129 2.39531 -5.65242 0
M  V30 8672 C 793.5 2.24101 -5.78082 0
M  V30 8673 C 795.555 2.28517 -4.42362 0
M  V30 8674 C 794.258 1.92432 -6.93082 0
M  V30 8675 C 796.284 1.98242 -5.57184 0
M  V30 8676 C 795.646 1.80288 -6.80937 0
M  V30 8677 H 791.745 0.584823 -0.51914 0
M  V30 8678 H 794.329 0.977252 -1.68398 0
M  V30 8679 H 792.5 3.49739 -1.6893 0
M  V30 8680 H 794.232 3.55744 -1.92947 0
M  V30 8681 H 790.987 2.81624 -3.80768 0
M  V30 8682 H 791.411 2.28211 -6.37377 0
M  V30 8683 H 796.053 2.41107 -3.47314 0
M  V30 8684 H 793.771 1.78579 -7.88121 0
M  V30 8685 H 797.357 1.87882 -5.50628 0
M  V30 8686 H 796.237 1.57199 -7.68283 0
M  V30 8687 N 793.74 1.17359 1.05189 0
M  V30 8688 C 794.688 0.886527 2.15043 0
M  V30 8689 C 795.682 -0.148834 1.68745 0
M  V30 8690 O 796.888 -0.00175123 1.8 0
M  V30 8691 H 793.263 0.269147 0.702185 0
M  V30 8692 H 795.234 1.82016 2.36459 0
M  V30 8693 C 793.983 0.416333 3.45198 0
M  V30 8694 H 793.306 1.20449 3.81225 0
M  V30 8695 H 794.746 0.254362 4.23236 0
M  V30 8696 C 793.205 -0.866016 3.25579 0
M  V30 8697 O 793.735 -1.9328 3.52144 0
M  V30 8698 N 791.941 -0.814179 2.78961 0
M  V30 8699 H 791.488 0.0541618 2.57543 0
M  V30 8700 H 791.446 -1.67264 2.66214 0
M  V30 8701 N 795.218 -1.23913 0.973828 0
M  V30 8702 C 796.148 -2.27453 0.527969 0
M  V30 8703 C 797.129 -1.6443 -0.435513 0
M  V30 8704 O 798.314 -1.9137 -0.330306 0
M  V30 8705 C 795.444 -3.4685 -0.176757 0
M  V30 8706 C 794.398 -4.22181 0.703352 0
M  V30 8707 C 793.724 -5.34534 -0.133215 0
M  V30 8708 C 795.024 -4.82865 1.99096 0
M  V30 8709 H 796.718 -2.65 1.3934 0
M  V30 8710 H 794.264 -1.27388 0.671446 0
M  V30 8711 H 796.217 -4.18424 -0.499934 0
M  V30 8712 H 794.941 -3.08346 -1.07659 0
M  V30 8713 H 793.6 -3.52416 1.00989 0
M  V30 8714 H 793.248 -4.92271 -1.03338 0
M  V30 8715 H 792.948 -5.85855 0.452494 0
M  V30 8716 H 794.472 -6.08933 -0.450924 0
M  V30 8717 H 795.886 -5.46481 1.73297 0
M  V30 8718 H 794.283 -5.44444 2.52389 0
M  V30 8719 H 795.353 -4.03977 2.68199 0
M  V30 8720 N 796.696 -0.74468 -1.38897 0
M  V30 8721 C 797.659 -0.11945 -2.28889 0
M  V30 8722 C 798.659 0.656942 -1.46768 0
M  V30 8723 O 799.849 0.484525 -1.67326 0
M  V30 8724 C 796.981 0.839635 -3.30398 0
M  V30 8725 H 798.174 -0.912414 -2.85683 0
M  V30 8726 H 795.727 -0.511119 -1.47707 0
M  V30 8727 H 796.462 1.6586 -2.78677 0
M  V30 8728 H 796.247 0.285432 -3.9106 0
M  V30 8729 H 797.737 1.27337 -3.97712 0
M  V30 8730 N 798.174 1.49689 -0.493057 0
M  V30 8731 C 799.402 2.06836 0.0513141 0
M  V30 8732 C 799.817 1.35436 1.31539 0
M  V30 8733 O 799.174 0.430248 1.77356 0
M  V30 8734 C 799.225 3.60107 0.317003 0
M  V30 8735 O 798.946 4.2882 -0.896957 0
M  V30 8736 C 800.447 4.33945 0.905902 0
M  V30 8737 H 797.667 0.670787 -0.0169048 0
M  V30 8738 H 800.211 1.92574 -0.688139 0
M  V30 8739 H 798.366 3.74099 1.00642 0
M  V30 8740 H 798.78 5.20395 -0.654939 0
M  V30 8741 H 800.254 5.42087 1.04144 0
M  V30 8742 H 800.731 3.95895 1.90168 0
M  V30 8743 H 801.337 4.2454 0.254195 0
M  V30 8744 N 799.652 0.226554 1.55963 0
M  V30 8745 C 800.6 -0.697922 2.21882 0
M  V30 8746 C 801.594 -1.19586 1.19981 0
M  V30 8747 O 802.8 -1.15511 1.38048 0
M  V30 8748 H 799.175 -0.243501 0.711485 0
M  V30 8749 H 801.146 -0.118576 2.98164 0
M  V30 8750 C 799.895 -1.89309 2.91646 0
M  V30 8751 H 799.218 -1.51906 3.69817 0
M  V30 8752 H 800.658 -2.51762 3.41162 0
M  V30 8753 C 799.117 -2.75162 1.94391 0
M  V30 8754 O 799.647 -3.74071 1.46402 0
M  V30 8755 N 797.853 -2.41302 1.61932 0
M  V30 8756 H 797.4 -1.60923 2.01151 0
M  V30 8757 H 797.358 -2.99023 0.971219 0
M  V30 8758 N 801.13 -1.57531 -0.0467866 0
M  V30 8759 C 802.546 -1.54451 -0.402107 0
M  V30 8760 C 802.746 -0.950275 -1.77685 0
M  V30 8761 O 801.802 -0.563602 -2.4613 0
M  V30 8762 C 803.115 -2.9899 -0.320212 0
M  V30 8763 C 804.663 -3.10452 -0.398588 0
M  V30 8764 C 805.138 -4.56689 -0.346335 0
M  V30 8765 N 806.629 -4.6142 -0.405666 0
M  V30 8766 C 807.364 -5.72087 -0.387845 0
M  V30 8767 N 806.86 -6.92045 -0.32336 0
M  V30 8768 N 808.653 -5.60404 -0.436263 0
M  V30 8769 H 800.804 -1.94515 0.853087 0
M  V30 8770 H 803.067 -0.891397 0.322669 0
M  V30 8771 H 802.773 -3.46124 0.623794 0
M  V30 8772 H 802.647 -3.60164 -1.1208 0
M  V30 8773 H 805.034 -2.63276 -1.33302 0
M  V30 8774 H 805.115 -2.52142 0.431026 0
M  V30 8775 H 804.759 -5.04527 0.584356 0
M  V30 8776 H 804.689 -5.12889 -1.19382 0
M  V30 8777 H 807.18 -3.75105 -0.458737 0
M  V30 8778 H 807.493 -7.7216 -0.314375 0
M  V30 8779 H 805.838 -6.94396 -0.28967 0
M  V30 8780 H 809.029 -4.65586 -0.48451 0
M  V30 8781 H 809.202 -6.46645 -0.418907 0
M  V30 8782 N 802.608 0.318715 -1.54344 0
M  V30 8783 C 803.538 1.39751 -1.87061 0
M  V30 8784 C 804.519 1.53741 -0.727848 0
M  V30 8785 O 805.704 1.67541 -0.982016 0
M  V30 8786 C 802.834 2.76446 -2.10226 0
M  V30 8787 C 801.788 2.77239 -3.26071 0
M  V30 8788 C 801.114 4.17056 -3.34617 0
M  V30 8789 C 802.414 2.40555 -4.63606 0
M  V30 8790 H 804.108 1.12619 -2.77412 0
M  V30 8791 H 801.654 0.540318 -1.33479 0
M  V30 8792 H 803.607 3.51985 -2.31699 0
M  V30 8793 H 802.331 3.05066 -1.16629 0
M  V30 8794 H 800.99 2.04155 -3.04493 0
M  V30 8795 H 800.638 4.42824 -2.3857 0
M  V30 8796 H 800.338 4.18492 -4.12478 0
M  V30 8797 H 801.862 4.94401 -3.5833 0
M  V30 8798 H 803.276 3.05808 -4.84927 0
M  V30 8799 H 801.673 2.53234 -5.44052 0
M  V30 8800 H 802.743 1.35698 -4.65526 0
M  V30 8801 N 804.086 1.46499 0.581025 0
M  V30 8802 C 805.314 1.5547 1.36517 0
M  V30 8803 C 805.729 0.196407 1.87776 0
M  V30 8804 O 805.086 -0.806577 1.63709 0
M  V30 8805 C 805.137 2.56084 2.55154 0
M  V30 8806 O 804.858 3.86637 2.06018 0
M  V30 8807 C 806.359 2.75011 3.47683 0
M  V30 8808 H 803.579 0.525703 0.416986 0
M  V30 8809 H 806.123 1.9192 0.706177 0
M  V30 8810 H 804.278 2.22633 3.17039 0
M  V30 8811 H 804.692 4.41413 2.83292 0
M  V30 8812 H 806.166 3.49329 4.27403 0
M  V30 8813 H 806.643 1.81978 3.99726 0
M  V30 8814 H 807.249 3.09565 2.91632 0
M  V30 8815 N 805.565 -0.825799 1.34232 0
M  V30 8816 C 806.812 -1.58185 1.26427 0
M  V30 8817 C 807.14 -1.93786 -0.166533 0
M  V30 8818 O 806.395 -1.59986 -1.12707 0
M  V30 8819 C 806.694 -2.89362 2.09772 0
M  V30 8820 C 806.36 -2.73066 3.58812 0
M  V30 8821 C 805.022 -2.68329 3.99441 0
M  V30 8822 C 807.374 -2.56946 4.53462 0
M  V30 8823 C 804.702 -2.4539 5.32917 0
M  V30 8824 C 807.054 -2.35538 5.87115 0
M  V30 8825 C 805.718 -2.29212 6.26912 0
M  V30 8826 H 804.988 -0.57884 0.462629 0
M  V30 8827 H 807.635 -0.955714 1.65947 0
M  V30 8828 H 805.94 -3.56251 1.63071 0
M  V30 8829 H 807.637 -3.4694 2.01081 0
M  V30 8830 H 804.227 -2.77591 3.26559 0
M  V30 8831 H 808.411 -2.59631 4.22972 0
M  V30 8832 H 803.667 -2.38947 5.62774 0
M  V30 8833 H 807.841 -2.22051 6.6005 0
M  V30 8834 H 805.468 -2.11197 7.30274 0
M  V30 8835 N 807.043 -1.17915 -1.04565 0
M  V30 8836 C 807.973 -0.925033 -2.14395 0
M  V30 8837 C 808.954 0.135375 -1.6956 0
M  V30 8838 O 810.139 -0.0161774 -1.94193 0
M  V30 8839 C 807.269 -0.444469 -3.44444 0
M  V30 8840 C 806.223 -1.44478 -4.02877 0
M  V30 8841 C 805.549 -0.821933 -5.28345 0
M  V30 8842 C 806.849 -2.81995 -4.39632 0
M  V30 8843 H 808.543 -1.84354 -2.35911 0
M  V30 8844 H 806.089 -0.887806 -1.13375 0
M  V30 8845 H 808.042 -0.254078 -4.20633 0
M  V30 8846 H 806.766 0.509592 -3.226 0
M  V30 8847 H 805.425 -1.62203 -3.28764 0
M  V30 8848 H 805.073 0.139161 -5.02807 0
M  V30 8849 H 804.773 -1.48976 -5.68401 0
M  V30 8850 H 806.297 -0.641959 -6.07216 0
M  V30 8851 H 807.711 -2.67952 -5.06828 0
M  V30 8852 H 806.108 -3.45414 -4.90723 0
M  V30 8853 H 807.178 -3.35927 -3.49687 0
M  V30 8854 N 808.521 1.23394 -0.980386 0
M  V30 8855 C 809.469 2.26872 -0.513018 0
M  V30 8856 C 810.463 1.63853 0.429948 0
M  V30 8857 O 811.669 1.77417 0.303842 0
M  V30 8858 H 808.044 0.737398 -0.147473 0
M  V30 8859 H 810.015 2.63654 -1.39746 0
M  V30 8860 C 808.764 3.47289 0.168962 0
M  V30 8861 H 808.087 3.96033 -0.547546 0
M  V30 8862 H 809.527 4.21502 0.459616 0
M  V30 8863 C 807.986 3.06425 1.40019 0
M  V30 8864 O 808.516 3.14708 2.49643 0
M  V30 8865 N 806.722 2.61339 1.27084 0
M  V30 8866 H 806.269 2.54799 0.378872 0
M  V30 8867 H 806.227 2.34364 2.09573 0
M  V30 8868 N 809.999 0.752036 1.385 0
M  V30 8869 C 811.224 0.316993 2.04963 0
M  V30 8870 C 811.649 -1.04582 1.56346 0
M  V30 8871 O 811.007 -1.66616 0.714755 0
M  V30 8872 C 811.055 0.347235 3.58924 0
M  V30 8873 O 810.159 -0.659296 4.07096 0
M  V30 8874 H 809.5 0.140652 0.648932 0
M  V30 8875 H 812.03 1.02272 1.77205 0
M  V30 8876 H 812.04 0.19757 4.07521 0
M  V30 8877 H 810.715 1.34157 3.93668 0
M  V30 8878 H 809.292 -0.474371 3.6987 0
M  V30 8879 N 811.477 -1.49425 0.500989 0
M  V30 8880 C 812.724 -2.02453 -0.0435355 0
M  V30 8881 C 813.052 -1.38067 -1.36995 0
M  V30 8882 O 812.307 -0.505557 -1.89057 0
M  V30 8883 C 812.606 -3.56562 -0.24463 0
M  V30 8884 C 812.272 -4.39585 1.00379 0
M  V30 8885 C 810.934 -4.61992 1.346 0
M  V30 8886 C 813.286 -4.87881 1.83361 0
M  V30 8887 C 810.614 -5.2994 2.51755 0
M  V30 8888 C 812.966 -5.57119 2.99669 0
M  V30 8889 C 811.63 -5.77771 3.3427 0
M  V30 8890 H 810.9 -0.740829 -0.0159308 0
M  V30 8891 H 813.547 -1.79725 0.661143 0
M  V30 8892 H 811.852 -3.77969 -1.03183 0
M  V30 8893 H 813.549 -3.95185 -0.6804 0
M  V30 8894 H 810.139 -4.22385 0.727225 0
M  V30 8895 H 814.323 -4.70398 1.58237 0
M  V30 8896 H 809.579 -5.44133 2.788 0
M  V30 8897 H 813.753 -5.93516 3.64296 0
M  V30 8898 H 811.38 -6.30197 4.25154 0
M  V30 8899 N 812.955 -0.234822 -1.55841 0
M  V30 8900 C 813.902 0.6698 -2.20867 0
M  V30 8901 C 814.872 1.18042 -1.16856 0
M  V30 8902 O 816.057 1.23709 -1.45261 0
M  V30 8903 C 813.197 1.86646 -2.90271 0
M  V30 8904 C 812.31 1.39351 -4.08908 0
M  V30 8905 C 811.445 2.54878 -4.66059 0
M  V30 8906 C 810.484 2.04384 -5.76969 0
M  V30 8907 N 809.621 3.13233 -6.28355 0
M  V30 8908 H 814.461 0.10858 -2.97802 0
M  V30 8909 H 811.998 0.041836 -1.4704 0
M  V30 8910 H 813.956 2.56926 -3.28702 0
M  V30 8911 H 812.586 2.40035 -2.15831 0
M  V30 8912 H 811.638 0.585173 -3.75872 0
M  V30 8913 H 812.95 0.983356 -4.89011 0
M  V30 8914 H 812.104 3.33219 -5.07001 0
M  V30 8915 H 810.843 2.99188 -3.85146 0
M  V30 8916 H 809.848 1.24509 -5.35516 0
M  V30 8917 H 811.073 1.61057 -6.59725 0
M  V30 8918 H 809.019 3.57 -5.50352 0
M  V30 8919 H 808.936 2.76511 -7.03618 0
M  V30 8920 H 810.204 3.91669 -6.73955 0
M  V30 8921 N 814.433 1.57553 0.0384317 0
M  V30 8922 C 815.366 2.01307 1.07475 0
M  V30 8923 C 816.344 0.895717 1.35704 0
M  V30 8924 O 817.528 1.16079 1.48519 0
M  V30 8925 C 814.655 2.37817 2.41165 0
M  V30 8926 C 813.701 3.599 2.28855 0
M  V30 8927 S 814.534 5.09418 1.65086 0
M  V30 8928 C 815.69 5.49162 3.00286 0
M  V30 8929 H 815.923 2.88892 0.702034 0
M  V30 8930 H 813.456 1.52394 0.248103 0
M  V30 8931 H 815.414 2.59524 3.18053 0
M  V30 8932 H 814.075 1.507 2.75587 0
M  V30 8933 H 813.268 3.83071 3.27525 0
M  V30 8934 H 812.87 3.37996 1.60109 0
M  V30 8935 H 815.162 5.49274 3.96617 0
M  V30 8936 H 816.105 6.49586 2.81858 0
M  V30 8937 H 816.513 4.76653 3.02427 0
M  V30 8938 N 815.911 -0.310526 1.54511 0
M  V30 8939 C 816.858 -1.38264 1.84802 0
M  V30 8940 C 817.828 -1.50808 0.696141 0
M  V30 8941 O 819.013 -1.6582 0.943846 0
M  V30 8942 C 816.153 -2.74422 2.09252 0
M  V30 8943 C 815.266 -2.70405 3.36906 0
M  V30 8944 C 814.401 -3.98495 3.51248 0
M  V30 8945 C 813.44 -3.88836 4.72729 0
M  V30 8946 N 812.577 -5.08683 4.83928 0
M  V30 8947 H 817.417 -1.11732 2.76261 0
M  V30 8948 H 814.954 -0.540609 1.36806 0
M  V30 8949 H 816.912 -3.53593 2.21422 0
M  V30 8950 H 815.542 -2.99235 1.2107 0
M  V30 8951 H 814.594 -1.83151 3.33406 0
M  V30 8952 H 815.906 -2.59155 4.26193 0
M  V30 8953 H 815.06 -4.861 3.63031 0
M  V30 8954 H 813.799 -4.12567 2.60077 0
M  V30 8955 H 812.804 -2.99615 4.60989 0
M  V30 8956 H 814.029 -3.76318 5.65298 0
M  V30 8957 H 811.975 -5.23236 3.95677 0
M  V30 8958 H 811.892 -4.99819 5.67201 0
M  V30 8959 H 813.16 -5.97966 5.00057 0
M  V30 8960 N 817.389 -1.46805 -0.573248 0
M  V30 8961 C 818.322 -1.52608 -1.69665 0
M  V30 8962 C 819.3 -0.379426 -1.58111 0
M  V30 8963 O 820.484 -0.584938 -1.79195 0
M  V30 8964 C 817.611 -1.41355 -3.07793 0
M  V30 8965 C 816.657 -2.60321 -3.37839 0
M  V30 8966 S 817.49 -4.22622 -3.28863 0
M  V30 8967 C 818.646 -4.13894 -4.69513 0
M  V30 8968 H 818.879 -2.47653 -1.64485 0
M  V30 8969 H 816.412 -1.34806 -0.752769 0
M  V30 8970 H 818.37 -1.35549 -3.87475 0
M  V30 8971 H 817.031 -0.477213 -3.10454 0
M  V30 8972 H 816.224 -2.48466 -4.38498 0
M  V30 8973 H 815.826 -2.63165 -2.65745 0
M  V30 8974 H 818.118 -3.81158 -5.60111 0
M  V30 8975 H 819.061 -5.14584 -4.86425 0
M  V30 8976 H 819.469 -3.44998 -4.46807 0
M  V30 8977 N 818.867 0.818669 -1.34668 0
M  V30 8978 C 820.092 1.61193 -1.30505 0
M  V30 8979 C 820.517 1.87734 0.117341 0
M  V30 8980 O 819.875 1.45591 1.08042 0
M  V30 8981 C 819.923 2.92733 -2.1057 0
M  V30 8982 O 819.027 3.85 -1.47813 0
M  V30 8983 H 818.368 0.490085 -0.44801 0
M  V30 8984 H 820.898 1.01701 -1.77534 0
M  V30 8985 H 820.908 3.42262 -2.22082 0
M  V30 8986 H 819.583 2.7274 -3.13984 0
M  V30 8987 H 818.16 3.43525 -1.45069 0
M  V30 8988 N 820.346 1.18468 1.03938 0
M  V30 8989 C 821.592 0.982286 1.77423 0
M  V30 8990 C 821.925 -0.48679 1.88 0
M  V30 8991 O 821.2 -1.36146 1.38905 0
M  V30 8992 C 821.483 1.63929 3.20623 0
M  V30 8993 C 821.336 3.18132 3.17982 0
M  V30 8994 C 822.655 1.3536 4.18767 0
M  V30 8995 H 819.774 0.358264 0.644062 0
M  V30 8996 H 822.416 1.46154 1.21405 0
M  V30 8997 H 820.566 1.2318 3.68455 0
M  V30 8998 H 822.238 3.68024 2.78129 0
M  V30 8999 H 820.481 3.50225 2.55978 0
M  V30 9000 H 821.152 3.5924 4.19107 0
M  V30 9001 H 823.628 1.70669 3.79488 0
M  V30 9002 H 822.504 1.83896 5.17178 0
M  V30 9003 H 822.765 0.276722 4.41233 0
M  V30 9004 N 821.824 -1.22873 0.986916 0
M  V30 9005 C 823.073 -1.90772 0.654911 0
M  V30 9006 C 823.386 -1.77768 -0.81595 0
M  V30 9007 O 824.592 -2.40529 -1.25929 0
M  V30 9008 C 823.048 -3.42003 1.12081 0
M  V30 9009 C 822.656 -3.63655 2.61647 0
M  V30 9010 C 824.4 -4.15638 0.862854 0
M  V30 9011 C 822.307 -5.08555 3.01871 0
M  V30 9012 H 821.237 -0.714362 0.241252 0
M  V30 9013 H 823.888 -1.39196 1.19568 0
M  V30 9014 H 822.27 -3.92725 0.508207 0
M  V30 9015 H 823.444 -3.2345 3.28202 0
M  V30 9016 H 821.759 -3.03341 2.8526 0
M  V30 9017 H 824.356 -5.22425 1.13915 0
M  V30 9018 H 824.699 -4.15814 -0.201036 0
M  V30 9019 H 825.232 -3.70924 1.43736 0
M  V30 9020 H 821.971 -5.13514 4.07411 0
M  V30 9021 H 821.491 -5.49684 2.40015 0
M  V30 9022 H 823.17 -5.76936 2.92839 0
M  V30 9023 N 823.302 -0.75937 -1.38099 0
M  V30 9024 C 824.232 -0.151077 -2.33011 0
M  V30 9025 C 825.213 0.697099 -1.5516 0
M  V30 9026 O 826.398 0.637101 -1.83452 0
M  V30 9027 C 823.528 0.738423 -3.39359 0
M  V30 9028 C 822.482 -0.0074741 -4.27999 0
M  V30 9029 C 821.808 1.00066 -5.25253 0
M  V30 9030 C 823.108 -1.17926 -5.08813 0
M  V30 9031 H 824.802 -0.943933 -2.84131 0
M  V30 9032 H 822.348 -0.455362 -1.36611 0
M  V30 9033 H 824.301 1.17369 -4.04725 0
M  V30 9034 H 823.025 1.56366 -2.86735 0
M  V30 9035 H 821.684 -0.423379 -3.64147 0
M  V30 9036 H 821.332 1.82012 -4.68914 0
M  V30 9037 H 821.032 0.506199 -5.85416 0
M  V30 9038 H 822.556 1.43512 -5.93495 0
M  V30 9039 H 823.97 -0.821262 -5.67387 0
M  V30 9040 H 822.367 -1.60497 -5.78239 0
M  V30 9041 H 823.437 -1.98938 -4.42212 0
M  V30 9042 N 824.78 1.49157 -0.508906 0
M  V30 9043 C 826.028 2.02073 0.0327335 0
M  V30 9044 C 826.349 1.39012 1.3675 0
M  V30 9045 O 825.619 0.548153 1.88075 0
M  V30 9046 H 824.199 0.746848 0.0150864 0
M  V30 9047 H 826.861 1.83097 -0.667946 0
M  V30 9048 H 825.957 3.11707 0.1566 0
M  V30 9049 N 826.258 0.243083 1.55714 0
M  V30 9050 C 827.507 -0.383188 1.98027 0
M  V30 9051 C 827.82 -1.59347 1.13436 0
M  V30 9052 O 829.026 -2.29065 1.45745 0
M  V30 9053 C 827.482 -0.733135 3.52354 0
M  V30 9054 C 827.09 0.455539 4.45678 0
M  V30 9055 C 828.834 -1.32381 4.03331 0
M  V30 9056 C 826.741 0.0819591 5.91343 0
M  V30 9057 H 825.671 -0.146944 0.739543 0
M  V30 9058 H 828.322 0.342697 1.80272 0
M  V30 9059 H 826.704 -1.51704 3.65789 0
M  V30 9060 H 827.878 1.23291 4.44 0
M  V30 9061 H 826.193 0.960886 4.05162 0
M  V30 9062 H 828.79 -1.61658 5.09677 0
M  V30 9063 H 829.133 -2.24698 3.50452 0
M  V30 9064 H 829.666 -0.602885 3.93205 0
M  V30 9065 H 826.405 0.972171 6.48251 0
M  V30 9066 H 825.925 -0.659291 5.96166 0
M  V30 9067 H 827.604 -0.3372 6.46121 0
M  V30 9068 N 827.736 -1.57571 -0.0300757 0
M  V30 9069 C 828.985 -1.88407 -0.720126 0
M  V30 9070 C 829.298 -0.841466 -1.76575 0
M  V30 9071 O 830.504 -1.03902 -2.50832 0
M  V30 9072 C 828.96 -3.34348 -1.33188 0
M  V30 9073 C 828.568 -4.46837 -0.32266 0
M  V30 9074 C 830.312 -3.74333 -2.00187 0
M  V30 9075 C 828.219 -5.83838 -0.942703 0
M  V30 9076 H 827.149 -0.702952 -0.272718 0
M  V30 9077 H 829.8 -1.83482 0.0255337 0
M  V30 9078 H 828.182 -3.34014 -2.12721 0
M  V30 9079 H 829.356 -4.58638 0.445887 0
M  V30 9080 H 827.671 -4.15678 0.245181 0
M  V30 9081 H 830.268 -4.74008 -2.47428 0
M  V30 9082 H 830.611 -3.06275 -2.81959 0
M  V30 9083 H 831.144 -3.76837 -1.2743 0
M  V30 9084 H 827.883 -6.55294 -0.164413 0
M  V30 9085 H 827.403 -5.75759 -1.68111 0
M  V30 9086 H 829.082 -6.30535 -1.45034 0
M  V30 9087 N 829.214 0.302327 -1.54673 0
M  V30 9088 C 830.164 1.37443 -1.81916 0
M  V30 9089 C 831.148 1.45999 -0.676251 0
M  V30 9090 O 832.34 1.50174 -0.93685 0
M  V30 9091 C 829.469 2.73966 -2.06876 0
M  V30 9092 C 828.555 2.69637 -3.27348 0
M  V30 9093 N 828.946 2.34926 -4.47933 0
M  V30 9094 C 827.244 3.00742 -3.29348 0
M  V30 9095 C 827.945 2.39862 -5.29944 0
M  V30 9096 N 826.921 2.77163 -4.67634 0
M  V30 9097 H 830.723 1.09567 -2.72713 0
M  V30 9098 H 828.237 0.5109 -1.54154 0
M  V30 9099 H 830.234 3.51265 -2.2454 0
M  V30 9100 H 828.894 3.02754 -1.17346 0
M  V30 9101 H 829.905 2.07403 -4.74557 0
M  V30 9102 H 826.582 3.34434 -2.49921 0
M  V30 9103 H 827.972 2.15835 -6.3629 0
M  V30 9104 N 830.692 1.47107 0.565454 0
M  V30 9105 C 831.625 1.53505 1.68853 0
M  V30 9106 C 832.603 0.387806 1.57908 0
M  V30 9107 O 833.787 0.594433 1.78882 0
M  V30 9108 C 830.914 1.42985 3.07039 0
M  V30 9109 C 829.96 2.62109 3.36454 0
M  V30 9110 S 830.793 4.2436 3.26617 0
M  V30 9111 C 831.949 4.16378 4.67312 0
M  V30 9112 H 832.182 2.48522 1.63169 0
M  V30 9113 H 829.715 1.35204 0.745609 0
M  V30 9114 H 831.673 1.37602 3.8675 0
M  V30 9115 H 830.334 0.493671 3.10196 0
M  V30 9116 H 829.527 2.50788 4.37174 0
M  V30 9117 H 829.129 2.64571 2.64345 0
M  V30 9118 H 831.421 3.84123 5.58082 0
M  V30 9119 H 832.364 5.17156 4.83689 0
M  V30 9120 H 832.772 3.47363 4.44971 0
M  V30 9121 N 832.17 -0.811516 1.35101 0
M  V30 9122 C 833.398 -1.59981 1.31201 0
M  V30 9123 C 833.813 -1.8847 -0.111552 0
M  V30 9124 O 833.17 -1.48414 -1.06205 0
M  V30 9125 C 833.221 -2.934 2.11184 0
M  V30 9126 O 832.942 -2.66148 3.4799 0
M  V30 9127 C 834.443 -3.87776 2.14813 0
M  V30 9128 H 831.663 -0.496921 0.450899 0
M  V30 9129 H 834.207 -1.00886 1.77883 0
M  V30 9130 H 832.362 -3.49022 1.68115 0
M  V30 9131 H 832.776 -3.51301 3.89471 0
M  V30 9132 H 834.25 -4.7852 2.75178 0
M  V30 9133 H 834.727 -4.23997 1.14556 0
M  V30 9134 H 835.333 -3.3809 2.58022 0
M  V30 9135 N 833.648 -1.19017 -1.03309 0
M  V30 9136 C 834.895 -0.990214 -1.76638 0
M  V30 9137 C 835.223 0.479435 -1.88498 0
M  V30 9138 O 834.478 1.37223 -1.39529 0
M  V30 9139 C 834.777 -1.59927 -3.19622 0
M  V30 9140 C 834.443 -3.09632 -3.27779 0
M  V30 9141 C 833.105 -3.50491 -3.29712 0
M  V30 9142 C 835.457 -4.05644 -3.27264 0
M  V30 9143 C 832.785 -4.85921 -3.28782 0
M  V30 9144 C 835.137 -5.41 -3.27875 0
M  V30 9145 C 833.801 -5.81295 -3.28104 0
M  V30 9146 H 833.071 -0.362345 -0.646364 0
M  V30 9147 H 835.718 -1.48197 -1.21284 0
M  V30 9148 H 834.023 -1.0297 -3.78027 0
M  V30 9149 H 835.72 -1.41989 -3.7502 0
M  V30 9150 H 832.31 -2.77073 -3.26999 0
M  V30 9151 H 836.494 -3.75124 -3.24955 0
M  V30 9152 H 831.75 -5.16427 -3.27281 0
M  V30 9153 H 835.924 -6.15157 -3.26428 0
M  V30 9154 H 833.551 -6.86211 -3.27138 0
M  V30 9155 N 835.127 1.22348 -0.993418 0
M  V30 9156 C 836.375 1.90733 -0.668246 0
M  V30 9157 C 836.696 1.77732 0.802261 0
M  V30 9158 O 835.966 1.16486 1.57505 0
M  V30 9159 H 834.546 0.705966 -0.244174 0
M  V30 9160 H 837.208 1.48691 -1.26004 0
M  V30 9161 H 836.304 2.97883 -0.931239 0
M  V30 9162 N 836.605 0.766683 1.37694 0
M  V30 9163 C 837.851 0.329201 2.0011 0
M  V30 9164 C 838.184 -1.09004 1.60723 0
M  V30 9165 O 837.459 -1.74895 0.850989 0
M  V30 9166 C 837.742 0.466989 3.57059 0
M  V30 9167 C 837.595 1.92828 4.06371 0
M  V30 9168 C 838.914 -0.131792 4.39903 0
M  V30 9169 H 836.033 0.12109 0.726984 0
M  V30 9170 H 838.675 0.968779 1.63446 0
M  V30 9171 H 836.825 -0.0775023 3.88423 0
M  V30 9172 H 838.497 2.53208 3.85595 0
M  V30 9173 H 836.74 2.43884 3.58752 0
M  V30 9174 H 837.411 1.97577 5.15429 0
M  V30 9175 H 839.887 0.332731 4.14768 0
M  V30 9176 H 838.763 -0.005217 5.489 0
M  V30 9177 H 839.024 -1.22156 4.24889 0
M  V30 9178 N 838.083 -1.48885 0.516809 0
M  V30 9179 C 839.332 -2.01686 -0.0239899 0
M  V30 9180 C 839.645 -1.40029 -1.3657 0
M  V30 9181 O 840.851 -1.84249 -1.9941 0
M  V30 9182 C 839.307 -3.59779 -0.0931825 0
M  V30 9183 C 838.915 -4.30416 1.24283 0
M  V30 9184 C 840.659 -4.20471 -0.583507 0
M  V30 9185 C 838.566 -5.80408 1.13494 0
M  V30 9186 H 837.496 -0.753892 -0.0127376 0
M  V30 9187 H 840.147 -1.71273 0.65861 0
M  V30 9188 H 838.529 -3.86976 -0.840577 0
M  V30 9189 H 839.703 -4.14905 2.00476 0
M  V30 9190 H 838.018 -3.81539 1.66785 0
M  V30 9191 H 840.615 -5.30333 -0.681987 0
M  V30 9192 H 840.958 -3.84898 -1.58617 0
M  V30 9193 H 841.491 -3.97654 0.107814 0
M  V30 9194 H 838.23 -6.20532 2.11235 0
M  V30 9195 H 837.75 -5.98368 0.414167 0
M  V30 9196 H 839.429 -6.41781 0.820162 0
M  V30 9197 N 839.561 -0.251338 -1.55583 0
M  V30 9198 C 840.491 0.640437 -2.24545 0
M  V30 9199 C 841.472 1.17781 -1.22726 0
M  V30 9200 O 842.657 1.21633 -1.5139 0
M  V30 9201 C 839.787 1.8355 -2.94834 0
M  V30 9202 C 838.741 1.4307 -4.03379 0
M  V30 9203 C 838.067 2.70695 -4.61116 0
M  V30 9204 C 839.367 0.59848 -5.1886 0
M  V30 9205 H 841.061 0.0653772 -2.99329 0
M  V30 9206 H 838.607 0.0300042 -1.43969 0
M  V30 9207 H 840.56 2.46505 -3.4178 0
M  V30 9208 H 839.284 2.43601 -2.17546 0
M  V30 9209 H 837.943 0.824474 -3.57209 0
M  V30 9210 H 837.591 3.28954 -3.80524 0
M  V30 9211 H 837.291 2.44332 -5.34393 0
M  V30 9212 H 838.815 3.34541 -5.10798 0
M  V30 9213 H 840.229 1.13244 -5.62004 0
M  V30 9214 H 838.626 0.430728 -5.98552 0
M  V30 9215 H 839.696 -0.38829 -4.83343 0
M  V30 9216 N 841.039 1.57585 0.0217189 0
M  V30 9217 C 842.287 1.89231 0.709641 0
M  V30 9218 C 842.608 0.849964 1.75501 0
M  V30 9219 O 841.878 -0.115485 1.95559 0
M  V30 9220 H 840.458 0.69838 0.265092 0
M  V30 9221 H 843.12 1.94895 -0.0140688 0
M  V30 9222 H 842.216 2.88333 1.19459 0
M  V30 9223 N 842.517 -0.29412 1.54831 0
M  V30 9224 C 843.766 -1.02614 1.73647 0
M  V30 9225 C 844.079 -1.88193 0.533162 0
M  V30 9226 O 845.285 -2.64713 0.603275 0
M  V30 9227 C 843.741 -1.87417 3.07251 0
M  V30 9228 C 843.349 -1.06806 4.35082 0
M  V30 9229 C 845.093 -2.60176 3.35423 0
M  V30 9230 C 843 -1.90926 5.59733 0
M  V30 9231 H 841.93 -0.386834 0.647206 0
M  V30 9232 H 844.581 -0.282789 1.81308 0
M  V30 9233 H 842.963 -2.65765 2.93572 0
M  V30 9234 H 844.137 -0.330226 4.59615 0
M  V30 9235 H 842.452 -0.455979 4.13896 0
M  V30 9236 H 845.049 -3.23476 4.25755 0
M  V30 9237 H 845.392 -3.29365 2.54606 0
M  V30 9238 H 845.925 -1.88871 3.50103 0
M  V30 9239 H 842.664 -1.26194 6.43238 0
M  V30 9240 H 842.184 -2.62363 5.39375 0
M  V30 9241 H 843.863 -2.48807 5.97247 0
M  V30 9242 N 843.995 -1.47404 -0.557645 0
M  V30 9243 C 845.242 -1.54007 -1.31484 0
M  V30 9244 C 845.57 -0.202162 -1.93447 0
M  V30 9245 O 844.825 0.804901 -1.78381 0
M  V30 9246 C 845.124 -2.6061 -2.44575 0
M  V30 9247 C 844.79 -4.03896 -2.00446 0
M  V30 9248 C 843.452 -4.42901 -1.88127 0
M  V30 9249 C 845.804 -4.93804 -1.66754 0
M  V30 9250 C 843.132 -5.6965 -1.40411 0
M  V30 9251 C 845.484 -6.21016 -1.20509 0
M  V30 9252 C 844.148 -6.58903 -1.06786 0
M  V30 9253 H 843.418 -0.563552 -0.481134 0
M  V30 9254 H 846.065 -1.81001 -0.625375 0
M  V30 9255 H 844.37 -2.27371 -3.19076 0
M  V30 9256 H 846.067 -2.62941 -3.02759 0
M  V30 9257 H 842.657 -3.73077 -2.10977 0
M  V30 9258 H 846.841 -4.64369 -1.75144 0
M  V30 9259 H 842.097 -5.97755 -1.2845 0
M  V30 9260 H 846.271 -6.90095 -0.935001 0
M  V30 9261 H 843.898 -7.57008 -0.695891 0
M  V30 9262 N 845.473 0.80434 -1.35529 0
M  V30 9263 C 846.421 1.93769 -1.28671 0
M  V30 9264 C 847.415 1.68428 -0.181222 0
M  V30 9265 O 848.621 1.76617 -0.347338 0
M  V30 9266 H 844.996 0.636663 -0.400206 0
M  V30 9267 H 846.967 1.96673 -2.24415 0
M  V30 9268 C 845.716 3.30572 -1.07784 0
M  V30 9269 H 845.039 3.5063 -1.9209 0
M  V30 9270 H 846.479 4.1027 -1.07027 0
M  V30 9271 C 844.938 3.36193 0.218213 0
M  V30 9272 O 845.468 3.82941 1.21323 0
M  V30 9273 N 843.674 2.89455 0.257761 0
M  V30 9274 H 843.221 2.51604 -0.552562 0
M  V30 9275 H 843.179 2.93597 1.12465 0
M  V30 9276 N 846.951 1.19563 1.02676 0
M  V30 9277 C 847.901 0.903055 2.09354 0
M  V30 9278 C 848.885 -0.133009 1.60349 0
M  V30 9279 O 850.077 0.0729744 1.7685 0
M  V30 9280 C 847.206 0.445852 3.40392 0
M  V30 9281 C 846.292 1.51477 3.96126 0
M  V30 9282 N 846.683 2.73474 4.25495 0
M  V30 9283 C 844.981 1.37856 4.2416 0
M  V30 9284 C 845.682 3.42348 4.7029 0
M  V30 9285 N 844.658 2.69746 4.71952 0
M  V30 9286 H 848.46 1.83023 2.29956 0
M  V30 9287 H 845.974 1.08812 1.20556 0
M  V30 9288 H 847.971 0.21769 4.16331 0
M  V30 9289 H 846.631 -0.47482 3.2121 0
M  V30 9290 H 847.642 3.10217 4.14711 0
M  V30 9291 H 844.319 0.521512 4.1423 0
M  V30 9292 H 845.709 4.46686 5.01917 0
M  V30 9293 N 848.429 -1.21819 0.999893 0
M  V30 9294 C 849.359 -2.26282 0.576096 0
M  V30 9295 C 850.34 -1.65317 -0.400537 0
M  V30 9296 O 851.525 -1.92028 -0.28964 0
M  V30 9297 C 848.655 -3.47147 -0.103145 0
M  V30 9298 C 847.609 -4.20594 0.792745 0
M  V30 9299 C 846.935 -5.34696 -0.0198026 0
M  V30 9300 C 848.235 -4.78533 2.09293 0
M  V30 9301 H 849.929 -2.61984 1.4493 0
M  V30 9302 H 847.475 -1.25935 0.698316 0
M  V30 9303 H 849.428 -4.1939 -0.411068 0
M  V30 9304 H 848.152 -3.1056 -1.01094 0
M  V30 9305 H 846.811 -3.50194 1.08442 0
M  V30 9306 H 846.459 -4.94352 -0.928729 0
M  V30 9307 H 846.159 -5.84764 0.576661 0
M  V30 9308 H 847.683 -6.09752 -0.321659 0
M  V30 9309 H 849.097 -5.42682 1.8485 0
M  V30 9310 H 847.494 -5.38968 2.63881 0
M  V30 9311 H 848.564 -3.98197 2.76708 0
M  V30 9312 N 849.908 -0.773975 -1.37286 0
M  V30 9313 C 850.858 -0.135245 -2.27599 0
M  V30 9314 C 851.842 0.671691 -1.46209 0
M  V30 9315 O 853.034 0.534299 -1.68743 0
M  V30 9316 C 850.163 0.741298 -3.35201 0
M  V30 9317 C 849.249 -0.0735896 -4.24036 0
M  V30 9318 N 849.64 -1.12035 -4.93236 0
M  V30 9319 C 847.938 0.150038 -4.45748 0
M  V30 9320 C 848.639 -1.61512 -5.58828 0
M  V30 9321 N 847.615 -0.926922 -5.35639 0
M  V30 9322 H 851.417 -0.936646 -2.78575 0
M  V30 9323 H 848.931 -0.611944 -1.50429 0
M  V30 9324 H 850.928 1.21468 -3.98812 0
M  V30 9325 H 849.588 1.54142 -2.8578 0
M  V30 9326 H 850.599 -1.50253 -4.95625 0
M  V30 9327 H 847.276 0.921891 -4.07195 0
M  V30 9328 H 848.666 -2.48818 -6.24131 0
M  V30 9329 N 851.386 1.48609 -0.524698 0
M  V30 9330 C 852.633 2.02497 0.0113214 0
M  V30 9331 C 852.961 1.40229 1.34781 0
M  V30 9332 O 852.216 0.53557 1.88229 0
M  V30 9333 C 852.515 3.56906 0.187873 0
M  V30 9334 C 852.181 4.37932 -1.07359 0
M  V30 9335 C 850.843 4.59792 -1.41933 0
M  V30 9336 C 853.195 4.84902 -1.911 0
M  V30 9337 C 850.523 5.25868 -2.60154 0
M  V30 9338 C 852.875 5.52281 -3.08495 0
M  V30 9339 C 851.539 5.7238 -3.4342 0
M  V30 9340 H 850.809 0.740988 0.0041428 0
M  V30 9341 H 853.456 1.78651 -0.689652 0
M  V30 9342 H 851.761 3.79563 0.971572 0
M  V30 9343 H 853.458 3.96218 0.617443 0
M  V30 9344 H 850.048 4.21175 -0.794331 0
M  V30 9345 H 854.232 4.67821 -1.65701 0
M  V30 9346 H 849.488 5.39628 -2.87422 0
M  V30 9347 H 853.662 5.87645 -3.73692 0
M  V30 9348 H 851.289 6.23354 -4.35126 0
M  V30 9349 N 852.864 0.259585 1.55447 0
M  V30 9350 C 854.28 -0.094961 1.59317 0
M  V30 9351 C 854.48 -1.55884 1.2768 0
M  V30 9352 O 853.536 -2.30528 1.0302 0
M  V30 9353 C 854.849 0.265669 2.99524 0
M  V30 9354 C 856.397 0.211007 3.12288 0
M  V30 9355 C 856.872 0.545851 4.54736 0
M  V30 9356 N 858.363 0.496823 4.60528 0
M  V30 9357 C 859.098 0.728909 5.68748 0
M  V30 9358 N 858.594 1.02479 6.85179 0
M  V30 9359 N 860.387 0.658756 5.58226 0
M  V30 9360 H 852.538 1.2141 1.7428 0
M  V30 9361 H 854.801 0.489404 0.811904 0
M  V30 9362 H 854.507 1.28316 3.27457 0
M  V30 9363 H 854.381 -0.401089 3.75061 0
M  V30 9364 H 856.768 -0.797172 2.84129 0
M  V30 9365 H 856.849 0.911799 2.38998 0
M  V30 9366 H 856.493 1.55164 4.83618 0
M  V30 9367 H 856.423 -0.17656 5.26304 0
M  V30 9368 H 858.914 0.277376 3.76881 0
M  V30 9369 H 859.227 1.18897 7.63599 0
M  V30 9370 H 857.572 1.0624 6.86832 0
M  V30 9371 H 860.763 0.427553 4.66143 0
M  V30 9372 H 860.936 0.84302 6.42493 0
M  V30 9373 N 854.342 -1.57594 -0.0133615 0
M  V30 9374 C 855.289 -2.07574 -1.00905 0
M  V30 9375 C 856.259 -0.968231 -1.34961 0
M  V30 9376 O 857.444 -1.23981 -1.45028 0
M  V30 9377 C 854.584 -2.5728 -2.30002 0
M  V30 9378 C 853.697 -3.81881 -2.01967 0
M  V30 9379 C 852.832 -4.20139 -3.25049 0
M  V30 9380 C 851.871 -5.37614 -2.92639 0
M  V30 9381 N 851.008 -5.71229 -4.08218 0
M  V30 9382 H 855.848 -2.92382 -0.575899 0
M  V30 9383 H 853.385 -1.4455 -0.272722 0
M  V30 9384 H 855.343 -2.84171 -3.05454 0
M  V30 9385 H 853.973 -1.75365 -2.71011 0
M  V30 9386 H 853.025 -3.61979 -1.16942 0
M  V30 9387 H 854.337 -4.67441 -1.74069 0
M  V30 9388 H 853.491 -4.48242 -4.08857 0
M  V30 9389 H 852.23 -3.33262 -3.56073 0
M  V30 9390 H 851.235 -5.09248 -2.07235 0
M  V30 9391 H 852.46 -6.26157 -2.62876 0
M  V30 9392 H 850.406 -4.8731 -4.39164 0
M  V30 9393 H 850.323 -6.51333 -3.83799 0
M  V30 9394 H 851.591 -6.03917 -4.92854 0
M  V30 9395 N 855.82 0.285905 -1.54985 0
M  V30 9396 C 856.767 1.35306 -1.86978 0
M  V30 9397 C 857.737 1.49682 -0.720046 0
M  V30 9398 O 858.922 1.64297 -0.970107 0
M  V30 9399 C 856.062 2.71059 -2.13591 0
M  V30 9400 C 855.175 2.6501 -3.41165 0
M  V30 9401 C 854.31 3.92856 -3.57544 0
M  V30 9402 C 853.349 3.81266 -4.78855 0
M  V30 9403 N 852.486 5.00919 -4.9196 0
M  V30 9404 H 857.326 1.07323 -2.78003 0
M  V30 9405 H 854.863 0.518776 -1.37649 0
M  V30 9406 H 856.821 3.50026 -2.27019 0
M  V30 9407 H 855.451 2.97271 -1.25816 0
M  V30 9408 H 854.503 1.77824 -3.36278 0
M  V30 9409 H 855.815 2.52342 -4.30262 0
M  V30 9410 H 854.969 4.80263 -3.70718 0
M  V30 9411 H 853.708 4.08377 -2.66608 0
M  V30 9412 H 852.713 2.92243 -4.65698 0
M  V30 9413 H 853.938 3.67277 -5.71213 0
M  V30 9414 H 851.884 5.16875 -4.03951 0
M  V30 9415 H 851.801 4.90732 -5.75081 0
M  V30 9416 H 853.069 5.89935 -5.09507 0
M  V30 9417 N 857.298 1.47698 0.54982 0
M  V30 9418 C 858.545 1.54702 1.30665 0
M  V30 9419 C 858.873 0.212418 1.93337 0
M  V30 9420 O 858.128 -0.79543 1.78805 0
M  V30 9421 C 858.427 2.61903 2.4319 0
M  V30 9422 C 858.093 4.04953 1.98302 0
M  V30 9423 C 856.755 4.43893 1.85776 0
M  V30 9424 C 859.107 4.94682 1.64133 0
M  V30 9425 C 856.435 5.70387 1.37388 0
M  V30 9426 C 858.787 6.21646 1.17214 0
M  V30 9427 C 857.451 6.5946 1.0329 0
M  V30 9428 H 856.721 0.566096 0.478139 0
M  V30 9429 H 859.368 1.8133 0.615767 0
M  V30 9430 H 857.673 2.2906 3.17866 0
M  V30 9431 H 859.37 2.64543 3.0136 0
M  V30 9432 H 855.96 3.74191 2.08995 0
M  V30 9433 H 860.144 4.65291 1.72679 0
M  V30 9434 H 855.4 5.98427 1.25278 0
M  V30 9435 H 859.574 6.90581 0.898391 0
M  V30 9436 H 857.201 7.57367 0.655735 0
M  V30 9437 N 858.776 -0.797141 1.35954 0
M  V30 9438 C 859.724 -1.93084 1.29697 0
M  V30 9439 C 860.718 -1.68329 0.190152 0
M  V30 9440 O 861.924 -1.7643 0.3567 0
M  V30 9441 H 858.299 -0.634531 0.403577 0
M  V30 9442 H 860.27 -1.95481 2.25455 0
M  V30 9443 C 859.019 -3.29996 1.09536 0
M  V30 9444 H 858.342 -3.49607 1.93946 0
M  V30 9445 H 859.782 -4.09696 1.09202 0
M  V30 9446 C 858.241 -3.36304 -0.200381 0
M  V30 9447 O 858.771 -3.83579 -1.19291 0
M  V30 9448 N 856.977 -2.89587 -0.242406 0
M  V30 9449 H 856.524 -2.51307 0.565897 0
M  V30 9450 H 856.482 -2.94189 -1.10906 0
M  V30 9451 N 860.254 -1.20106 -1.0204 0
M  V30 9452 C 861.503 -1.00316 -1.74985 0
M  V30 9453 C 861.816 0.465814 -1.89972 0
M  V30 9454 O 863.022 0.782749 -2.59972 0
M  V30 9455 C 861.478 -1.74608 -3.14706 0
M  V30 9456 C 861.086 -3.25573 -3.07744 0
M  V30 9457 C 862.83 -1.63172 -3.91887 0
M  V30 9458 C 860.737 -3.92419 -4.42449 0
M  V30 9459 H 859.667 -0.371728 -0.655999 0
M  V30 9460 H 862.318 -1.43688 -1.14131 0
M  V30 9461 H 860.7 -1.24021 -3.76078 0
M  V30 9462 H 861.874 -3.83345 -2.55702 0
M  V30 9463 H 860.189 -3.3738 -2.44057 0
M  V30 9464 H 862.786 -2.10457 -4.9154 0
M  V30 9465 H 863.129 -0.58728 -4.12137 0
M  V30 9466 H 863.662 -2.11152 -3.37135 0
M  V30 9467 H 860.401 -4.96998 -4.27403 0
M  V30 9468 H 859.921 -3.39436 -4.94513 0
M  V30 9469 H 861.6 -3.96453 -5.11306 0
M  V30 9470 N 861.732 1.21287 -1.00634 0
M  V30 9471 C 862.962 1.94103 -0.70765 0
M  V30 9472 C 863.37 1.74382 0.733991 0
M  V30 9473 O 862.713 1.04843 1.50843 0
M  V30 9474 C 862.775 3.46705 -0.950581 0
M  V30 9475 C 862.439 3.90176 -2.37932 0
M  V30 9476 C 863.436 3.96769 -3.35961 0
M  V30 9477 C 861.121 4.22453 -2.71733 0
M  V30 9478 C 863.115 4.35034 -4.65858 0
M  V30 9479 C 860.802 4.60394 -4.01846 0
M  V30 9480 C 861.8 4.66656 -4.9872 0
M  V30 9481 O 861.488 5.03732 -6.26505 0
M  V30 9482 H 861.22 0.62405 -0.259881 0
M  V30 9483 H 863.774 1.55015 -1.34757 0
M  V30 9484 H 862.004 3.85868 -0.253492 0
M  V30 9485 H 863.693 4.00741 -0.645069 0
M  V30 9486 H 864.459 3.72009 -3.11182 0
M  V30 9487 H 860.338 4.16776 -1.97025 0
M  V30 9488 H 863.882 4.39836 -5.4147 0
M  V30 9489 H 859.779 4.84609 -4.26409 0
M  V30 9490 H 860.547 5.21761 -6.30641 0
M  V30 9491 N 863.21 0.781244 1.36873 0
M  V30 9492 C 864.14 0.188128 2.32741 0
M  V30 9493 C 865.121 -0.672326 1.56249 0
M  V30 9494 O 866.306 -0.607835 1.84442 0
M  V30 9495 C 863.436 -0.684341 3.40491 0
M  V30 9496 C 862.39 0.0755641 4.27933 0
M  V30 9497 C 861.716 -0.916968 5.26779 0
M  V30 9498 C 863.016 1.26006 5.06873 0
M  V30 9499 H 864.71 0.989016 2.82593 0
M  V30 9500 H 862.256 0.477038 1.35869 0
M  V30 9501 H 864.209 -1.10915 4.06541 0
M  V30 9502 H 862.933 -1.51785 2.89187 0
M  V30 9503 H 861.592 0.481258 3.63427 0
M  V30 9504 H 861.24 -1.74528 4.71751 0
M  V30 9505 H 860.94 -0.413 5.86147 0
M  V30 9506 H 862.464 -1.34052 5.95703 0
M  V30 9507 H 863.878 0.911425 5.66009 0
M  V30 9508 H 862.275 1.69676 5.75613 0
M  V30 9509 H 863.345 2.05948 4.38991 0
M  V30 9510 N 864.689 -1.48329 0.532571 0
M  V30 9511 C 865.935 -2.028 -0.000583219 0
M  V30 9512 C 866.268 -1.40858 -1.33688 0
M  V30 9513 O 865.543 -0.555261 -1.86406 0
M  V30 9514 C 865.826 -3.59901 -0.119846 0
M  V30 9515 C 865.679 -4.32318 1.2418 0
M  V30 9516 C 866.998 -4.31904 -0.845372 0
M  V30 9517 H 864.117 -0.736999 0.00126205 0
M  V30 9518 H 866.759 -1.77024 0.690102 0
M  V30 9519 H 864.909 -3.81993 -0.708092 0
M  V30 9520 H 866.581 -4.21637 1.87136 0
M  V30 9521 H 864.824 -3.93635 1.82301 0
M  V30 9522 H 865.495 -5.40697 1.11132 0
M  V30 9523 H 867.971 -4.14658 -0.346159 0
M  V30 9524 H 866.847 -5.41509 -0.897723 0
M  V30 9525 H 867.108 -3.99369 -1.89622 0
M  V30 9526 N 866.167 -0.267825 -1.55308 0
M  V30 9527 C 867.392 0.357487 -2.04296 0
M  V30 9528 C 867.817 1.49222 -1.14518 0
M  V30 9529 O 867.175 1.80741 -0.142292 0
M  V30 9530 C 867.223 0.822899 -3.51085 0
M  V30 9531 O 866.327 1.93078 -3.6441 0
M  V30 9532 H 865.668 0.075025 -0.659748 0
M  V30 9533 H 868.198 -0.399996 -2.00652 0
M  V30 9534 H 868.208 1.12059 -3.92309 0
M  V30 9535 H 866.883 -0.0073562 -4.15899 0
M  V30 9536 H 865.46 1.63618 -3.35087 0
M  V30 9537 N 867.645 1.57599 0.00500368 0
M  V30 9538 C 868.894 1.89528 0.690061 0
M  V30 9539 C 869.207 0.869451 1.75214 0
M  V30 9540 O 870.413 1.07879 2.49147 0
M  V30 9541 C 868.869 3.36425 1.27852 0
M  V30 9542 C 868.477 4.47293 0.251531 0
M  V30 9543 C 870.221 3.77471 1.94206 0
M  V30 9544 C 868.128 5.85264 0.8497 0
M  V30 9545 H 867.058 0.707201 0.2615 0
M  V30 9546 H 869.709 1.83418 -0.0547209 0
M  V30 9547 H 868.091 3.37356 2.07381 0
M  V30 9548 H 869.265 4.5787 -0.518796 0
M  V30 9549 H 867.58 4.15235 -0.311281 0
M  V30 9550 H 870.177 4.77884 2.39855 0
M  V30 9551 H 870.52 3.10722 2.77051 0
M  V30 9552 H 871.053 3.78817 1.21419 0
M  V30 9553 H 867.792 6.55472 0.0601408 0
M  V30 9554 H 867.312 5.78361 1.5893 0
M  V30 9555 H 868.991 6.32762 1.34984 0
M  V30 9556 N 869.123 -0.277682 1.55134 0
M  V30 9557 C 870.534 -0.849063 1.66276 0
M  V30 9558 C 870.885 -1.87223 0.5867 0
M  V30 9559 O 870.01 -2.14676 -0.272635 0
M  V30 9560 C 870.605 -1.54681 3.01429 0
M  V30 9561 C 869.164 -2.06628 3.14614 0
M  V30 9562 C 868.311 -0.906748 2.62056 0
M  V30 9563 H 871.262 -0.0541357 1.58608 0
M  V30 9564 H 871.283 -2.41356 2.94156 0
M  V30 9565 H 870.795 -0.80189 3.79725 0
M  V30 9566 H 868.896 -2.84095 2.41082 0
M  V30 9567 H 869.009 -2.2848 4.2111 0
M  V30 9568 H 867.373 -1.29882 2.19095 0
M  V30 9569 H 868.156 -0.175414 3.42852 0
M  V30 9570 N 870.601 -1.47988 -0.541979 0
M  V30 9571 C 871.511 -1.64276 -1.67483 0
M  V30 9572 C 872.527 -0.525387 -1.65879 0
M  V30 9573 O 873.703 -0.794912 -1.85049 0
M  V30 9574 C 870.768 -1.66744 -3.03969 0
M  V30 9575 C 869.829 -2.90021 -3.16522 0
M  V30 9576 C 869.062 -2.92362 -4.46498 0
M  V30 9577 O 869.285 -2.03462 -5.32878 0
M  V30 9578 O 868.219 -3.84399 -4.63164 0
M  V30 9579 H 872.045 -2.60164 -1.5668 0
M  V30 9580 H 869.63 -1.31249 -0.71372 0
M  V30 9581 H 871.512 -1.70958 -3.85164 0
M  V30 9582 H 870.187 -0.740277 -3.15122 0
M  V30 9583 H 869.094 -2.91345 -2.34667 0
M  V30 9584 H 870.427 -3.82082 -3.10281 0
M  V30 9585 N 872.079 0.78992 -1.36375 0
M  V30 9586 C 873.009 1.91683 -1.33341 0
M  V30 9587 C 873.99 1.68861 -0.204965 0
M  V30 9588 O 875.175 1.89982 -0.402531 0
M  V30 9589 C 872.305 3.28696 -1.12143 0
M  V30 9590 C 871.259 3.66041 -2.21806 0
M  V30 9591 C 870.585 5.01399 -1.85751 0
M  V30 9592 C 871.885 3.74677 -3.63888 0
M  V30 9593 H 873.579 1.94478 -2.27637 0
M  V30 9594 H 871.125 0.934271 -1.09578 0
M  V30 9595 H 873.078 4.07151 -1.08656 0
M  V30 9596 H 871.802 3.26287 -0.142974 0
M  V30 9597 H 870.461 2.89883 -2.24418 0
M  V30 9598 H 870.109 4.9551 -0.864817 0
M  V30 9599 H 869.809 5.27355 -2.59173 0
M  V30 9600 H 871.333 5.82274 -1.83819 0
M  V30 9601 H 872.747 4.43324 -3.63506 0
M  V30 9602 H 871.144 4.12118 -4.3621 0
M  V30 9603 H 872.214 2.75795 -3.9883 0
M  V30 9604 N 873.557 1.20646 1.01402 0
M  V30 9605 C 874.487 0.98155 2.11867 0
M  V30 9606 C 875.468 -0.0903712 1.6986 0
M  V30 9607 O 876.653 0.0676586 1.94082 0
M  V30 9608 C 873.783 0.535636 3.43145 0
M  V30 9609 C 872.737 1.55109 3.98905 0
M  V30 9610 C 872.063 0.961725 5.2598 0
M  V30 9611 C 873.363 2.93552 4.32001 0
M  V30 9612 H 875.057 1.90544 2.3094 0
M  V30 9613 H 872.603 0.917554 1.10982 0
M  V30 9614 H 874.556 0.365512 4.19812 0
M  V30 9615 H 873.28 -0.423882 3.23838 0
M  V30 9616 H 871.939 1.70862 3.24348 0
M  V30 9617 H 871.587 -0.00580108 5.03 0
M  V30 9618 H 871.287 1.63993 5.64252 0
M  V30 9619 H 872.811 0.802726 6.053 0
M  V30 9620 H 874.225 2.81295 4.99546 0
M  V30 9621 H 872.622 3.58303 4.81393 0
M  V30 9622 H 873.692 3.4508 3.40658 0
M  V30 9623 N 875.035 -1.20752 1.01276 0
M  V30 9624 C 876.282 -1.90021 0.699887 0
M  V30 9625 C 876.61 -1.78604 -0.770113 0
M  V30 9626 O 875.865 -1.16195 -1.57471 0
M  V30 9627 C 876.164 -3.40808 1.07633 0
M  V30 9628 C 875.83 -3.72423 2.54189 0
M  V30 9629 C 874.492 -3.80762 2.94234 0
M  V30 9630 C 876.844 -3.87025 3.49086 0
M  V30 9631 C 874.172 -4.01158 4.28123 0
M  V30 9632 C 876.524 -4.0893 4.82658 0
M  V30 9633 C 875.188 -4.15498 5.22415 0
M  V30 9634 H 874.458 -0.695335 0.256107 0
M  V30 9635 H 877.105 -1.43096 1.27263 0
M  V30 9636 H 875.41 -3.89521 0.421944 0
M  V30 9637 H 877.107 -3.92693 0.811997 0
M  V30 9638 H 873.697 -3.66529 2.22158 0
M  V30 9639 H 877.881 -3.79942 3.19309 0
M  V30 9640 H 873.137 -4.04476 4.58486 0
M  V30 9641 H 877.311 -4.19172 5.56119 0
M  V30 9642 H 874.938 -4.31055 6.26176 0
M  V30 9643 N 876.513 -0.788492 -1.36457 0
M  V30 9644 C 877.446 -0.132189 -2.27817 0
M  V30 9645 C 878.424 0.691166 -1.47179 0
M  V30 9646 O 879.608 0.662344 -1.7648 0
M  V30 9647 C 876.735 0.818386 -3.28664 0
M  V30 9648 C 875.781 0.0769392 -4.26431 0
M  V30 9649 S 876.614 -1.24666 -5.20786 0
M  V30 9650 C 877.77 -0.300063 -6.2518 0
M  V30 9651 H 878.003 -0.906824 -2.83132 0
M  V30 9652 H 875.536 -0.582666 -1.42984 0
M  V30 9653 H 877.494 1.36138 -3.87268 0
M  V30 9654 H 876.155 1.56626 -2.72263 0
M  V30 9655 H 875.348 0.79819 -4.97639 0
M  V30 9656 H 874.95 -0.395547 -3.71902 0
M  V30 9657 H 877.242 0.521434 -6.7549 0
M  V30 9658 H 878.185 -0.980808 -7.01274 0
M  V30 9659 H 878.593 0.0961898 -5.64418 0
M  V30 9660 N 877.991 1.48044 -0.54043 0
M  V30 9661 C 878.921 2.32597 0.205178 0
M  V30 9662 C 879.902 1.42748 0.925041 0
M  V30 9663 O 881.087 1.71624 0.908784 0
M  V30 9664 C 878.217 3.24175 1.24612 0
M  V30 9665 C 877.171 4.23131 0.64376 0
M  V30 9666 C 876.497 5.03915 1.78812 0
M  V30 9667 C 877.797 5.20831 -0.39144 0
M  V30 9668 H 879.491 2.95184 -0.500676 0
M  V30 9669 H 877.037 1.41948 -0.242225 0
M  V30 9670 H 878.99 3.82158 1.77576 0
M  V30 9671 H 877.714 2.59608 1.98169 0
M  V30 9672 H 876.373 3.66349 0.135554 0
M  V30 9673 H 876.021 4.35765 2.51232 0
M  V30 9674 H 875.721 5.709 1.39094 0
M  V30 9675 H 877.245 5.64753 2.32134 0
M  V30 9676 H 878.659 5.73277 0.0515064 0
M  V30 9677 H 877.056 5.95926 -0.706569 0
M  V30 9678 H 878.126 4.6733 -1.29345 0
M  V30 9679 N 879.47 0.276058 1.55163 0
M  V30 9680 C 880.71 -0.341634 2.01525 0
M  V30 9681 C 881.074 -1.52979 1.16023 0
M  V30 9682 O 882.275 -2.21718 1.51968 0
M  V30 9683 C 880.546 -0.713294 3.5021 0
M  V30 9684 S 882.105 -1.31739 4.18558 0
M  V30 9685 H 878.923 -0.1062 0.703024 0
M  V30 9686 H 881.525 0.398112 1.91404 0
M  V30 9687 H 880.229 0.160311 4.10087 0
M  V30 9688 H 879.76 -1.48448 3.64317 0
M  V30 9689 H 881.775 -2.60595 4.22261 0
M  V30 9690 N 880.948 -1.576 0.00335426 0
M  V30 9691 C 882.197 -1.89892 -0.680001 0
M  V30 9692 C 882.51 -0.878731 -1.7475 0
M  V30 9693 O 883.716 -1.09199 -2.48572 0
M  V30 9694 C 882.172 -3.37098 -1.26066 0
M  V30 9695 C 881.78 -4.4742 -0.227807 0
M  V30 9696 C 883.524 -3.78495 -1.92202 0
M  V30 9697 C 881.431 -5.85706 -0.81865 0
M  V30 9698 H 880.361 -0.708578 -0.257746 0
M  V30 9699 H 883.012 -1.83387 0.0644472 0
M  V30 9700 H 881.394 -3.38451 -2.05589 0
M  V30 9701 H 882.568 -4.57589 0.54307 0
M  V30 9702 H 880.883 -4.15064 0.333297 0
M  V30 9703 H 883.48 -4.7915 -2.37318 0
M  V30 9704 H 883.823 -3.12187 -2.75399 0
M  V30 9705 H 884.356 -3.79456 -1.19408 0
M  V30 9706 H 881.095 -6.55495 -0.0253787 0
M  V30 9707 H 880.615 -5.79196 -1.55861 0
M  V30 9708 H 882.294 -6.33469 -1.31627 0
M  V30 9709 N 882.426 0.269451 -1.5528 0
M  V30 9710 C 883.673 1.00058 -1.76053 0
M  V30 9711 C 884.001 1.86156 -0.563592 0
M  V30 9712 O 883.256 1.90366 0.453806 0
M  V30 9713 C 883.555 1.91 -3.02082 0
M  V30 9714 C 883.221 1.20623 -4.34466 0
M  V30 9715 C 881.883 1.01165 -4.70446 0
M  V30 9716 C 884.235 0.705695 -5.164 0
M  V30 9717 C 881.563 0.303865 -5.85913 0
M  V30 9718 C 883.915 0.0114838 -6.32599 0
M  V30 9719 C 882.579 -0.19478 -6.67216 0
M  V30 9720 H 881.849 0.366138 -0.644223 0
M  V30 9721 H 884.496 0.272563 -1.8955 0
M  V30 9722 H 882.801 2.70435 -2.835 0
M  V30 9723 H 884.498 2.47698 -3.15352 0
M  V30 9724 H 881.088 1.36781 -4.06188 0
M  V30 9725 H 885.272 0.84364 -4.89077 0
M  V30 9726 H 880.528 0.133368 -6.11255 0
M  V30 9727 H 884.702 -0.384111 -6.9534 0
M  V30 9728 H 882.329 -0.745201 -7.56539 0
M  V30 9729 N 883.904 1.48273 0.534124 0
M  V30 9730 C 885.152 1.55771 1.28762 0
M  V30 9731 C 885.473 0.231575 1.9362 0
M  V30 9732 O 884.743 -0.746533 1.81118 0
M  V30 9733 H 883.323 0.573851 0.47823 0
M  V30 9734 H 885.985 1.84712 0.621888 0
M  V30 9735 H 885.081 2.33657 2.06908 0
M  V30 9736 N 885.382 -0.782676 1.36792 0
M  V30 9737 C 886.612 -1.56934 1.3437 0
M  V30 9738 C 887.02 -1.89049 -0.0754828 0
M  V30 9739 O 886.363 -1.51103 -1.04467 0
M  V30 9740 C 886.425 -2.91311 2.10661 0
M  V30 9741 C 886.089 -2.81889 3.59705 0
M  V30 9742 C 887.086 -2.53668 4.53815 0
M  V30 9743 C 884.771 -3.00254 4.02682 0
M  V30 9744 C 886.765 -2.43925 5.8888 0
M  V30 9745 C 884.452 -2.90132 5.37835 0
M  V30 9746 C 885.45 -2.62006 6.30747 0
M  V30 9747 O 885.138 -2.5189 7.63418 0
M  V30 9748 H 884.87 -0.493194 0.462316 0
M  V30 9749 H 887.424 -0.978791 1.80579 0
M  V30 9750 H 885.654 -3.52443 1.59125 0
M  V30 9751 H 887.343 -3.52632 2.01012 0
M  V30 9752 H 888.109 -2.39176 4.21924 0
M  V30 9753 H 883.988 -3.21151 3.30731 0
M  V30 9754 H 887.532 -2.21892 6.6137 0
M  V30 9755 H 883.429 -3.04189 5.69332 0
M  V30 9756 H 884.197 -2.67321 7.73616 0
M  V30 9757 N 886.86 -1.21182 -1.00761 0
M  V30 9758 C 887.79 -0.992773 -2.11344 0
M  V30 9759 C 888.771 0.0813618 -1.69905 0
M  V30 9760 O 889.956 -0.0779503 -1.94043 0
M  V30 9761 C 887.086 -0.553826 -3.42856 0
M  V30 9762 C 886.04 -1.57223 -3.98077 0
M  V30 9763 C 885.366 -0.989605 -5.25463 0
M  V30 9764 C 886.666 -2.95839 -4.30438 0
M  V30 9765 H 888.36 -1.91766 -2.29927 0
M  V30 9766 H 885.906 -0.923426 -1.10494 0
M  V30 9767 H 887.859 -0.387771 -4.19612 0
M  V30 9768 H 886.583 0.406702 -3.24058 0
M  V30 9769 H 885.242 -1.7258 -3.23437 0
M  V30 9770 H 884.89 -0.0208743 -5.02996 0
M  V30 9771 H 884.59 -1.66984 -5.63374 0
M  V30 9772 H 886.114 -0.834815 -6.04866 0
M  V30 9773 H 887.528 -2.8394 -4.98047 0
M  V30 9774 H 885.925 -3.60851 -4.79486 0
M  V30 9775 H 886.995 -3.46882 -3.38823 0
M  V30 9776 N 888.338 1.20213 -1.01915 0
M  V30 9777 C 889.587 1.88968 -0.705261 0
M  V30 9778 C 889.9 1.79869 0.768531 0
M  V30 9779 O 891.106 2.43783 1.19508 0
M  V30 9780 C 889.562 3.38911 -1.21109 0
M  V30 9781 C 889.17 3.5659 -2.71197 0
M  V30 9782 C 890.914 4.13204 -0.97275 0
M  V30 9783 C 888.821 5.00372 -3.15248 0
M  V30 9784 H 887.751 0.707715 -0.260107 0
M  V30 9785 H 890.402 1.35977 -1.23217 0
M  V30 9786 H 888.784 3.9124 -0.612152 0
M  V30 9787 H 889.958 3.14635 -3.36662 0
M  V30 9788 H 888.273 2.95671 -2.93202 0
M  V30 9789 H 890.87 5.19221 -1.27726 0
M  V30 9790 H 891.213 4.16201 0.09072 0
M  V30 9791 H 891.746 3.66983 -1.5352 0
M  V30 9792 H 888.485 5.02532 -4.20882 0
M  V30 9793 H 888.005 5.43127 -2.54505 0
M  V30 9794 H 889.684 5.68969 -3.08032 0
M  V30 9795 N 889.816 0.795718 1.36037 0
M  V30 9796 C 891.063 0.371024 1.99072 0
M  V30 9797 C 891.391 -1.05896 1.63145 0
M  V30 9798 O 890.646 -1.7474 0.881163 0
M  V30 9799 C 890.945 0.489038 3.54038 0
M  V30 9800 C 890.611 1.88075 4.09803 0
M  V30 9801 C 889.273 2.26152 4.24745 0
M  V30 9802 C 891.625 2.79174 4.40126 0
M  V30 9803 C 888.953 3.54718 4.67324 0
M  V30 9804 C 891.305 4.07175 4.8414 0
M  V30 9805 C 889.969 4.45266 4.97287 0
M  V30 9806 H 889.239 0.135767 0.728456 0
M  V30 9807 H 891.886 1.0144 1.62426 0
M  V30 9808 H 890.191 -0.237823 3.91078 0
M  V30 9809 H 891.888 0.141374 4.00751 0
M  V30 9810 H 888.478 1.57488 3.98617 0
M  V30 9811 H 892.662 2.51009 4.28145 0
M  V30 9812 H 887.918 3.84093 4.75691 0
M  V30 9813 H 892.092 4.77875 5.06565 0
M  V30 9814 H 889.719 5.44943 5.30038 0
M  V30 9815 N 891.294 -1.47756 0.548274 0
M  V30 9816 C 892.227 -2.26804 -0.252059 0
M  V30 9817 C 893.205 -1.3349 -0.928389 0
M  V30 9818 O 894.389 -1.6286 -0.949156 0
M  V30 9819 C 891.516 -3.10266 -1.35841 0
M  V30 9820 C 890.562 -4.1909 -0.791578 0
M  V30 9821 S 891.395 -5.34323 0.354878 0
M  V30 9822 C 892.551 -6.21348 -0.753511 0
M  V30 9823 H 892.784 -2.94336 0.418744 0
M  V30 9824 H 890.317 -1.50735 0.334413 0
M  V30 9825 H 892.275 -3.58925 -1.99207 0
M  V30 9826 H 890.936 -2.42112 -2.00101 0
M  V30 9827 H 890.129 -4.77183 -1.62212 0
M  V30 9828 H 889.731 -3.73266 -0.234274 0
M  V30 9829 H 892.023 -6.57156 -1.6478 0
M  V30 9830 H 892.966 -7.07788 -0.210141 0
M  V30 9831 H 893.374 -5.54797 -1.04216 0
M  V30 9832 N 892.772 -0.284283 -1.55015 0
M  V30 9833 C 894.021 0.33055 -1.98973 0
M  V30 9834 C 894.334 1.56284 -1.17621 0
M  V30 9835 O 895.54 2.2512 -1.51767 0
M  V30 9836 C 893.996 0.639457 -3.54174 0
M  V30 9837 C 893.604 -0.573543 -4.44313 0
M  V30 9838 C 895.348 1.21641 -4.06699 0
M  V30 9839 C 893.255 -0.238715 -5.90918 0
M  V30 9840 H 892.185 0.127285 -0.743179 0
M  V30 9841 H 894.836 -0.390372 -1.793 0
M  V30 9842 H 893.218 1.41953 -3.69683 0
M  V30 9843 H 894.392 -1.3502 -4.40575 0
M  V30 9844 H 892.707 -1.06797 -4.02472 0
M  V30 9845 H 895.304 1.48088 -5.13784 0
M  V30 9846 H 895.647 2.15328 -3.56286 0
M  V30 9847 H 896.18 0.498422 -3.94665 0
M  V30 9848 H 892.919 -1.1437 -6.45445 0
M  V30 9849 H 892.439 0.500997 -5.97704 0
M  V30 9850 H 894.118 0.165774 -6.46788 0
M  V30 9851 N 894.251 1.57596 -0.0117121 0
M  V30 9852 C 895.498 1.91071 0.670667 0
M  V30 9853 C 895.826 0.886457 1.73125 0
M  V30 9854 O 895.081 -0.107135 1.95407 0
M  V30 9855 C 895.38 3.31296 1.34082 0
M  V30 9856 C 895.046 4.49011 0.412305 0
M  V30 9857 C 893.708 4.80945 0.156691 0
M  V30 9858 C 896.06 5.20709 -0.226294 0
M  V30 9859 C 893.388 5.81943 -0.745619 0
M  V30 9860 C 895.74 6.22668 -1.11655 0
M  V30 9861 C 894.404 6.53053 -1.38123 0
M  V30 9862 H 893.674 0.69918 0.245415 0
M  V30 9863 H 896.321 1.91373 -0.0697511 0
M  V30 9864 H 894.626 3.27174 2.15557 0
M  V30 9865 H 896.323 3.54461 1.87506 0
M  V30 9866 H 892.913 4.24067 0.621705 0
M  V30 9867 H 897.097 4.96282 -0.0418456 0
M  V30 9868 H 892.353 6.03839 -0.958566 0
M  V30 9869 H 896.527 6.77351 -1.61767 0
M  V30 9870 H 894.154 7.31132 -2.08208 0
M  V30 9871 N 895.729 -0.261212 1.5542 0
M  V30 9872 C 896.959 -1.00769 1.80358 0
M  V30 9873 C 897.367 -1.79991 0.583085 0
M  V30 9874 O 896.71 -1.77911 -0.457534 0
M  V30 9875 C 896.772 -2.00463 2.9842 0
M  V30 9876 C 896.436 -1.4007 4.35005 0
M  V30 9877 C 897.433 -0.810388 5.13545 0
M  V30 9878 C 895.118 -1.42436 4.81682 0
M  V30 9879 C 897.112 -0.251784 6.36903 0
M  V30 9880 C 894.799 -0.861897 6.04991 0
M  V30 9881 C 895.797 -0.276622 6.8244 0
M  V30 9882 O 895.485 0.277194 8.03422 0
M  V30 9883 H 895.217 -0.302839 0.604371 0
M  V30 9884 H 897.771 -0.293763 2.03288 0
M  V30 9885 H 896.001 -2.75648 2.71211 0
M  V30 9886 H 897.69 -2.61336 3.10577 0
M  V30 9887 H 898.456 -0.784719 4.7861 0
M  V30 9888 H 894.335 -1.8693 4.214 0
M  V30 9889 H 897.879 0.205678 6.97297 0
M  V30 9890 H 893.776 -0.884846 6.39407 0
M  V30 9891 H 894.544 0.167682 8.18328 0
M  V30 9892 N 897.207 -1.48554 -0.526253 0
M  V30 9893 C 898.154 -1.63354 -1.63046 0
M  V30 9894 C 899.124 -0.475509 -1.59148 0
M  V30 9895 O 900.309 -0.699453 -1.77517 0
M  V30 9896 C 897.449 -1.68271 -3.01295 0
M  V30 9897 C 896.562 -2.95207 -3.15399 0
M  V30 9898 C 895.697 -2.91262 -4.4423 0
M  V30 9899 C 894.736 -4.12886 -4.51876 0
M  V30 9900 N 893.873 -4.06996 -5.721 0
M  V30 9901 H 898.713 -2.57649 -1.49737 0
M  V30 9902 H 896.25 -1.27769 -0.728938 0
M  V30 9903 H 898.208 -1.69104 -3.81392 0
M  V30 9904 H 896.838 -0.774641 -3.13367 0
M  V30 9905 H 895.89 -3.04102 -2.2853 0
M  V30 9906 H 897.202 -3.85187 -3.1691 0
M  V30 9907 H 896.356 -2.90516 -5.32621 0
M  V30 9908 H 895.095 -1.99016 -4.45246 0
M  V30 9909 H 894.1 -4.13902 -3.61891 0
M  V30 9910 H 895.325 -5.06294 -4.52596 0
M  V30 9911 H 893.271 -3.17573 -5.74006 0
M  V30 9912 H 893.188 -4.90685 -5.75121 0
M  V30 9913 H 894.456 -4.10315 -6.62768 0
M  V30 9914 N 898.685 0.775411 -1.37205 0
M  V30 9915 C 899.931 1.53533 -1.33414 0
M  V30 9916 C 900.286 1.92225 0.0819435 0
M  V30 9917 O 899.579 1.60935 1.03974 0
M  V30 9918 C 899.773 2.81377 -2.20367 0
M  V30 9919 C 899.602 2.5518 -3.70288 0
M  V30 9920 C 898.372 2.49493 -4.3941 0
M  V30 9921 C 900.57 2.23425 -4.63234 0
M  V30 9922 N 898.552 2.15341 -5.74892 0
M  V30 9923 C 899.923 1.99381 -5.87067 0
M  V30 9924 C 901.978 2.09549 -4.51657 0
M  V30 9925 C 900.681 1.62863 -7.0062 0
M  V30 9926 C 902.707 1.74431 -5.65091 0
M  V30 9927 C 902.069 1.51245 -6.87971 0
M  V30 9928 H 898.168 0.562278 -0.543477 0
M  V30 9929 H 900.752 0.90495 -1.72391 0
M  V30 9930 H 898.923 3.42259 -1.83612 0
M  V30 9931 H 900.655 3.4724 -2.07861 0
M  V30 9932 H 897.41 2.65221 -3.9237 0
M  V30 9933 H 897.834 2.00972 -6.46482 0
M  V30 9934 H 902.476 2.26159 -3.57228 0
M  V30 9935 H 900.194 1.44991 -7.94986 0
M  V30 9936 H 903.78 1.64359 -5.58102 0
M  V30 9937 H 902.66 1.24472 -7.74259 0
M  V30 9938 N 900.163 1.21714 1.00117 0
M  V30 9939 C 901.093 1.00397 2.10815 0
M  V30 9940 C 902.074 -0.0723502 1.69946 0
M  V30 9941 O 903.259 0.0882398 1.93999 0
M  V30 9942 C 900.389 0.572001 3.42557 0
M  V30 9943 C 899.343 1.59331 3.97237 0
M  V30 9944 C 898.669 1.01746 5.2493 0
M  V30 9945 C 899.969 2.98117 4.28863 0
M  V30 9946 H 901.663 1.92983 2.28906 0
M  V30 9947 H 899.209 0.929273 1.10002 0
M  V30 9948 H 901.162 0.410018 4.19401 0
M  V30 9949 H 899.886 -0.38951 3.24269 0
M  V30 9950 H 898.545 1.74293 3.22518 0
M  V30 9951 H 898.193 0.0475491 5.02978 0
M  V30 9952 H 897.893 1.69969 5.62481 0
M  V30 9953 H 899.417 0.866881 6.04415 0
M  V30 9954 H 900.831 2.86578 4.96534 0
M  V30 9955 H 899.228 3.63389 4.77565 0
M  V30 9956 H 900.298 3.48674 3.36979 0
M  V30 9957 N 901.641 -1.19671 1.02551 0
M  V30 9958 C 902.887 -1.89548 0.721069 0
M  V30 9959 C 903.22 -1.79209 -0.748176 0
M  V30 9960 O 902.495 -1.1822 -1.54448 0
M  V30 9961 C 902.778 -3.4061 1.16861 0
M  V30 9962 C 902.631 -3.59838 2.69883 0
M  V30 9963 C 903.95 -4.33718 0.746782 0
M  V30 9964 H 901.069 -0.688315 0.263422 0
M  V30 9965 H 903.711 -1.40883 1.27483 0
M  V30 9966 H 901.861 -3.82188 0.697477 0
M  V30 9967 H 903.533 -3.27454 3.24917 0
M  V30 9968 H 901.776 -3.03005 3.10435 0
M  V30 9969 H 902.447 -4.65766 2.96253 0
M  V30 9970 H 904.923 -3.99837 1.15195 0
M  V30 9971 H 903.799 -5.38012 1.08786 0
M  V30 9972 H 904.06 -4.40704 -0.351057 0
M  V30 9973 N 903.119 -0.802921 -1.35613 0
M  V30 9974 C 904.366 -0.381576 -1.98872 0
M  V30 9975 C 904.694 1.0503 -1.63704 0
M  V30 9976 O 903.949 1.7427 -0.890418 0
M  V30 9977 C 904.248 -0.507806 -3.53774 0
M  V30 9978 C 903.914 -1.90245 -4.088 0
M  V30 9979 C 902.576 -2.28401 -4.2354 0
M  V30 9980 C 904.928 -2.81504 -4.3864 0
M  V30 9981 C 902.256 -3.57192 -4.65436 0
M  V30 9982 C 904.608 -4.09737 -4.81973 0
M  V30 9983 C 903.272 -4.47897 -4.94919 0
M  V30 9984 H 902.542 -0.139629 -0.727726 0
M  V30 9985 H 905.189 -1.023 -1.61886 0
M  V30 9986 H 903.494 0.21708 -3.91198 0
M  V30 9987 H 905.191 -0.162625 -4.0067 0
M  V30 9988 H 901.781 -1.596 -3.97776 0
M  V30 9989 H 905.965 -2.53276 -4.26808 0
M  V30 9990 H 901.221 -3.86611 -4.73648 0
M  V30 9991 H 905.395 -4.80555 -5.04024 0
M  V30 9992 H 903.022 -5.47747 -5.27141 0
M  V30 9993 N 904.597 1.47463 -0.556102 0
M  V30 9994 C 905.822 2.07371 -0.0344729 0
M  V30 9995 C 906.247 1.40621 1.2493 0
M  V30 9996 O 905.605 0.48082 1.74808 0
M  V30 9997 C 905.653 3.60306 0.145563 0
M  V30 9998 O 904.757 3.94299 1.20839 0
M  V30 9999 H 904.098 0.662052 -0.0508274 0
M  V30 10000 H 906.628 1.89498 -0.771469 0
M  V30 10001 H 906.638 4.06408 0.360112 0
M  V30 10002 H 905.313 4.08288 -0.792089 0
M  V30 10003 H 903.89 3.59944 0.97442 0
M  V30 10004 N 906.075 0.2925 1.54862 0
M  V30 10005 C 907.038 -0.574423 2.21885 0
M  V30 10006 C 908.038 -1.06791 1.20218 0
M  V30 10007 O 909.228 -0.9653 1.45009 0
M  V30 10008 C 906.36 -1.79438 2.89853 0
M  V30 10009 H 907.553 0.0110319 2.99898 0
M  V30 10010 H 905.106 0.043256 1.5624 0
M  V30 10011 H 905.841 -2.4199 2.15897 0
M  V30 10012 H 905.626 -1.44827 3.64373 0
M  V30 10013 H 907.116 -2.41048 3.41007 0
M  V30 10014 N 907.553 -1.57587 0.0200696 0
M  V30 10015 C 908.463 -2.13119 -0.980676 0
M  V30 10016 C 909.479 -1.08124 -1.36328 0
M  V30 10017 O 910.655 -1.40134 -1.44653 0
M  V30 10018 C 907.72 -2.63991 -2.24743 0
M  V30 10019 C 906.781 -3.83667 -1.9261 0
M  V30 10020 C 906.014 -4.32103 -3.13246 0
M  V30 10021 O 906.237 -3.79758 -4.25606 0
M  V30 10022 O 905.171 -5.24047 -2.96072 0
M  V30 10023 H 908.997 -2.98887 -0.538528 0
M  V30 10024 H 906.582 -1.48055 -0.19999 0
M  V30 10025 H 908.464 -2.9682 -2.99125 0
M  V30 10026 H 907.139 -1.81311 -2.68157 0
M  V30 10027 H 906.046 -3.55778 -1.15641 0
M  V30 10028 H 907.379 -4.67482 -1.54019 0
M  V30 10029 N 909.032 0.252966 -1.55557 0
M  V30 10030 C 910.26 0.999565 -1.81153 0
M  V30 10031 C 910.675 1.79181 -0.594955 0
M  V30 10032 O 910.032 1.77208 0.436311 0
M  V30 10033 C 910.083 1.94227 -3.04891 0
M  V30 10034 O 909.804 1.18209 -4.21851 0
M  V30 10035 C 911.305 2.80536 -3.43241 0
M  V30 10036 H 908.525 0.294402 -0.602966 0
M  V30 10037 H 911.069 0.277686 -2.02606 0
M  V30 10038 H 909.224 2.6185 -2.85505 0
M  V30 10039 H 909.638 1.81922 -4.9194 0
M  V30 10040 H 911.112 3.42442 -4.32941 0
M  V30 10041 H 911.589 3.51337 -2.6355 0
M  V30 10042 H 912.195 2.18373 -3.64956 0
M  V30 10043 N 910.51 1.48831 0.518367 0
M  V30 10044 C 911.735 1.61379 1.30275 0
M  V30 10045 C 912.16 0.278571 1.86026 0
M  V30 10046 O 911.518 -0.751427 1.64995 0
M  V30 10047 C 911.566 2.67225 2.42122 0
M  V30 10048 O 910.67 2.25192 3.45489 0
M  V30 10049 H 910.011 0.540742 0.385349 0
M  V30 10050 H 912.541 1.949 0.622498 0
M  V30 10051 H 912.551 2.88859 2.8814 0
M  V30 10052 H 911.226 3.64155 2.00907 0
M  V30 10053 H 909.803 2.13819 3.05509 0
M  V30 10054 N 911.988 -0.768124 1.37614 0
M  V30 10055 C 913.404 -1.06919 1.18493 0
M  V30 10056 C 913.604 -2.01486 0.0235753 0
M  V30 10057 O 912.66 -2.4438 -0.635209 0
M  V30 10058 C 913.973 -1.66321 2.50515 0
M  V30 10059 C 915.521 -1.78562 2.57069 0
M  V30 10060 C 915.996 -2.41377 3.89231 0
M  V30 10061 N 917.487 -2.48824 3.90693 0
M  V30 10062 C 918.222 -2.98288 4.89706 0
M  V30 10063 N 917.718 -3.47897 5.99115 0
M  V30 10064 N 919.511 -2.97196 4.77107 0
M  V30 10065 H 911.662 -0.140286 2.11936 0
M  V30 10066 H 913.925 -0.124863 0.939741 0
M  V30 10067 H 913.631 -1.04303 3.35878 0
M  V30 10068 H 913.505 -2.65571 2.67866 0
M  V30 10069 H 915.892 -2.39712 1.72111 0
M  V30 10070 H 915.973 -0.780574 2.43599 0
M  V30 10071 H 915.617 -1.80866 4.74605 0
M  V30 10072 H 915.547 -3.42495 4.00006 0
M  V30 10073 H 918.038 -2.1372 3.1166 0
M  V30 10074 H 918.351 -3.84053 6.70614 0
M  V30 10075 H 916.696 -3.45993 6.02755 0
M  V30 10076 H 919.887 -2.57741 3.90752 0
M  V30 10077 H 920.06 -3.35434 5.54426 0
M  V30 10078 N 913.466 -1.22244 -0.994698 0
M  V30 10079 C 914.712 -1.04746 -1.73655 0
M  V30 10080 C 915.045 0.41668 -1.89677 0
M  V30 10081 O 914.32 1.30897 -1.43862 0
M  V30 10082 C 914.603 -1.75716 -3.14318 0
M  V30 10083 C 914.456 -3.29714 -3.05955 0
M  V30 10084 C 915.775 -1.50809 -4.13455 0
M  V30 10085 H 912.894 -0.381921 -0.630322 0
M  V30 10086 H 915.536 -1.50559 -1.15897 0
M  V30 10087 H 913.686 -1.3677 -3.63629 0
M  V30 10088 H 915.358 -3.78093 -2.64279 0
M  V30 10089 H 913.601 -3.59484 -2.42804 0
M  V30 10090 H 914.272 -3.74547 -4.05485 0
M  V30 10091 H 916.748 -1.84636 -3.72892 0
M  V30 10092 H 915.624 -2.02964 -5.09997 0
M  V30 10093 H 915.885 -0.440292 -4.39902 0
M  V30 10094 N 914.944 1.19125 -1.03184 0
M  V30 10095 C 915.907 2.20662 -0.619766 0
M  V30 10096 C 916.907 1.57621 0.318179 0
M  V30 10097 O 918.097 1.73885 0.104783 0
M  V30 10098 C 915.229 3.40774 0.0926696 0
M  V30 10099 H 916.422 2.58633 -1.5182 0
M  V30 10100 H 913.975 1.32855 -0.823364 0
M  V30 10101 H 914.71 3.08324 1.00531 0
M  V30 10102 H 914.495 3.87766 -0.581344 0
M  V30 10103 H 915.985 4.15977 0.367792 0
M  V30 10104 N 916.422 0.810101 1.35185 0
M  V30 10105 C 917.833 0.452616 1.81131 0
M  V30 10106 C 918.184 -1.02573 1.67252 0
M  V30 10107 O 917.309 -1.79735 1.20516 0
M  V30 10108 C 917.904 0.814775 3.28857 0
M  V30 10109 C 916.463 0.509839 3.72931 0
M  V30 10110 C 915.61 1.03852 2.57119 0
M  V30 10111 H 918.561 1.00143 1.23114 0
M  V30 10112 H 918.582 0.113635 3.8033 0
M  V30 10113 H 918.094 1.89078 3.38926 0
M  V30 10114 H 916.195 -0.557289 3.68409 0
M  V30 10115 H 916.308 1.04493 4.67566 0
M  V30 10116 H 914.672 0.460671 2.50499 0
M  V30 10117 H 915.455 2.12071 2.69964 0
M  V30 10118 N 917.9 -1.47166 0.563914 0
M  V30 10119 C 919.125 -2.0735 0.0454698 0
M  V30 10120 C 919.55 -1.41281 -1.24182 0
M  V30 10121 O 918.908 -0.490084 -1.7455 0
M  V30 10122 C 918.956 -3.60378 -0.126453 0
M  V30 10123 O 918.06 -3.94934 -1.18746 0
M  V30 10124 H 917.401 -0.661773 0.0543377 0
M  V30 10125 H 919.931 -1.89086 0.781508 0
M  V30 10126 H 919.941 -4.06593 -0.338554 0
M  V30 10127 H 918.616 -4.07862 0.81373 0
M  V30 10128 H 917.193 -3.60455 -0.955318 0
M  V30 10129 N 919.378 -0.300708 -1.54705 0
M  V30 10130 C 920.627 0.309428 -1.99312 0
M  V30 10131 C 920.94 1.55027 -1.19272 0
M  V30 10132 O 922.146 2.23498 -1.54146 0
M  V30 10133 C 920.602 0.601856 -3.54832 0
M  V30 10134 C 920.21 -0.620636 -4.4368 0
M  V30 10135 C 921.954 1.1732 -4.07966 0
M  V30 10136 C 919.861 -0.301376 -5.90632 0
M  V30 10137 H 918.791 0.119395 -0.744487 0
M  V30 10138 H 921.442 -0.409368 -1.78875 0
M  V30 10139 H 919.824 1.38024 -3.71168 0
M  V30 10140 H 920.998 -1.39685 -4.39118 0
M  V30 10141 H 919.313 -1.1106 -4.01316 0
M  V30 10142 H 921.91 1.42631 -5.15326 0
M  V30 10143 H 922.253 2.11537 -3.5855 0
M  V30 10144 H 922.786 0.456534 -3.95172 0
M  V30 10145 H 919.525 -1.21209 -6.44196 0
M  V30 10146 H 919.045 0.437574 -5.98202 0
M  V30 10147 H 920.724 0.097164 -6.46927 0
M  V30 10148 N 920.856 1.57574 -0.0284266 0
M  V30 10149 C 921.786 2.1321 0.952039 0
M  V30 10150 C 922.767 1.04806 1.33977 0
M  V30 10151 O 923.952 1.32635 1.41851 0
M  V30 10152 C 921.082 2.65862 2.23461 0
M  V30 10153 C 920.036 3.79047 1.98765 0
M  V30 10154 C 919.362 4.18124 3.33281 0
M  V30 10155 C 920.662 5.05151 1.32739 0
M  V30 10156 H 922.356 2.95385 0.488705 0
M  V30 10157 H 919.902 1.42092 0.233628 0
M  V30 10158 H 921.855 3.03417 2.92431 0
M  V30 10159 H 920.579 1.80848 2.71959 0
M  V30 10160 H 919.238 3.41929 1.32213 0
M  V30 10161 H 918.886 3.30092 3.79537 0
M  V30 10162 H 918.586 4.94396 3.17563 0
M  V30 10163 H 920.11 4.58262 4.0352 0
M  V30 10164 H 921.524 5.40297 1.91708 0
M  V30 10165 H 919.921 5.86416 1.27421 0
M  V30 10166 H 920.991 4.83969 0.300261 0
M  V30 10167 N 922.334 -0.244713 1.55689 0
M  V30 10168 C 923.583 -0.970373 1.76824 0
M  V30 10169 C 923.896 -1.86402 0.592764 0
M  V30 10170 O 925.102 -2.62659 0.687186 0
M  V30 10171 C 923.558 -1.77547 3.13058 0
M  V30 10172 C 923.166 -0.929104 4.3826 0
M  V30 10173 C 924.91 -2.49373 3.43531 0
M  V30 10174 C 922.817 -1.73021 5.65524 0
M  V30 10175 H 921.747 -0.366048 0.659185 0
M  V30 10176 H 924.398 -0.224964 1.82116 0
M  V30 10177 H 922.78 -2.56291 3.01879 0
M  V30 10178 H 923.954 -0.183836 4.60433 0
M  V30 10179 H 922.269 -0.324071 4.15137 0
M  V30 10180 H 924.866 -3.09767 4.35831 0
M  V30 10181 H 925.209 -3.21099 2.64955 0
M  V30 10182 H 925.742 -1.77637 3.55935 0
M  V30 10183 H 922.481 -1.05666 6.46927 0
M  V30 10184 H 922.001 -2.45071 5.47449 0
M  V30 10185 H 923.68 -2.2968 6.0486 0
M  V30 10186 N 923.813 -1.49104 -0.510467 0
M  V30 10187 C 924.723 -1.67792 -1.6396 0
M  V30 10188 C 925.739 -0.560454 -1.64727 0
M  V30 10189 O 926.915 -0.833985 -1.83321 0
M  V30 10190 C 923.98 -1.73154 -3.00364 0
M  V30 10191 C 923.041 -2.9667 -3.10299 0
M  V30 10192 C 922.274 -3.01767 -4.40196 0
M  V30 10193 O 922.497 -2.1472 -5.28443 0
M  V30 10194 O 921.431 -3.94137 -4.54906 0
M  V30 10195 H 925.257 -2.63428 -1.51126 0
M  V30 10196 H 922.842 -1.32734 -0.685719 0
M  V30 10197 H 924.724 -1.79089 -3.81451 0
M  V30 10198 H 923.399 -0.806952 -3.1348 0
M  V30 10199 H 922.306 -2.96257 -2.28435 0
M  V30 10200 H 923.639 -3.88578 -3.02106 0
M  V30 10201 N 925.291 0.760815 -1.38019 0
M  V30 10202 C 926.538 1.51973 -1.3383 0
M  V30 10203 C 926.866 1.9436 0.0738855 0
M  V30 10204 O 926.121 1.65181 1.04946 0
M  V30 10205 C 926.42 2.79024 -2.23339 0
M  V30 10206 C 926.086 2.55636 -3.71431 0
M  V30 10207 C 924.748 2.48966 -4.11788 0
M  V30 10208 C 927.1 2.35018 -4.65205 0
M  V30 10209 C 924.428 2.19684 -5.44018 0
M  V30 10210 C 926.78 2.07258 -5.97685 0
M  V30 10211 C 925.444 1.9904 -6.37134 0
M  V30 10212 H 924.714 0.556108 -0.489719 0
M  V30 10213 H 927.361 0.87545 -1.70318 0
M  V30 10214 H 925.666 3.48065 -1.79883 0
M  V30 10215 H 927.363 3.36951 -2.17405 0
M  V30 10216 H 923.953 2.61695 -3.39432 0
M  V30 10217 H 928.137 2.39154 -4.34878 0
M  V30 10218 H 923.393 2.11825 -5.73533 0
M  V30 10219 H 927.567 1.90307 -6.69893 0
M  V30 10220 H 925.194 1.76115 -7.39519 0
M  V30 10221 N 926.769 1.22769 0.988202 0
M  V30 10222 C 928.018 1.0492 1.72263 0
M  V30 10223 C 928.331 -0.415282 1.91141 0
M  V30 10224 O 929.537 -0.713547 2.61956 0
M  V30 10225 C 927.993 1.82891 3.09966 0
M  V30 10226 C 927.601 3.33618 2.99003 0
M  V30 10227 C 929.345 1.73505 3.87423 0
M  V30 10228 C 927.252 4.04012 4.3189 0
M  V30 10229 H 926.182 0.38899 0.645912 0
M  V30 10230 H 928.833 1.46664 1.10281 0
M  V30 10231 H 927.215 1.33948 3.72658 0
M  V30 10232 H 928.389 3.8999 2.45448 0
M  V30 10233 H 926.704 3.43732 2.35027 0
M  V30 10234 H 929.301 2.23416 4.85787 0
M  V30 10235 H 929.644 0.696344 4.10435 0
M  V30 10236 H 930.177 2.20016 3.31418 0
M  V30 10237 H 926.916 5.08155 4.14075 0
M  V30 10238 H 926.436 3.52428 4.8534 0
M  V30 10239 H 928.115 4.0987 5.00615 0
M  V30 10240 N 928.247 -1.18576 1.03814 0
M  V30 10241 C 929.195 -2.24166 0.620678 0
M  V30 10242 C 930.189 -1.65718 -0.351282 0
M  V30 10243 O 931.395 -1.78665 -0.218848 0
M  V30 10244 H 927.77 -0.729522 0.182487 0
M  V30 10245 H 929.741 -2.56686 1.52166 0
M  V30 10246 C 928.49 -3.477 -0.00307331 0
M  V30 10247 H 927.813 -3.92969 0.735874 0
M  V30 10248 H 929.253 -4.23214 -0.257988 0
M  V30 10249 C 927.712 -3.12757 -1.2524 0
M  V30 10250 O 928.242 -3.26261 -2.34344 0
M  V30 10251 N 926.448 -2.67104 -1.14471 0
M  V30 10252 H 925.995 -2.56316 -0.256873 0
M  V30 10253 H 925.953 -2.44096 -1.98153 0
M  V30 10254 N 929.725 -0.817259 -1.34754 0
M  V30 10255 C 930.658 -0.180483 -2.27485 0
M  V30 10256 C 931.636 0.659792 -1.48612 0
M  V30 10257 O 932.82 0.624761 -1.77845 0
M  V30 10258 C 929.947 0.748487 -3.30326 0
M  V30 10259 C 928.993 -0.0135304 -4.26498 0
M  V30 10260 S 929.826 -1.35685 -5.18025 0
M  V30 10261 C 930.982 -0.432605 -6.24403 0
M  V30 10262 H 931.215 -0.966677 -2.81145 0
M  V30 10263 H 928.748 -0.612864 -1.41716 0
M  V30 10264 H 930.706 1.27893 -3.90069 0
M  V30 10265 H 929.367 1.50816 -2.75524 0
M  V30 10266 H 928.56 0.692454 -4.9922 0
M  V30 10267 H 928.162 -0.474344 -3.7098 0
M  V30 10268 H 930.454 0.378035 -6.76444 0
M  V30 10269 H 931.397 -1.12934 -6.99036 0
M  V30 10270 H 931.805 -0.0235533 -5.64495 0
M  V30 10271 N 931.203 1.46865 -0.571711 0
M  V30 10272 C 932.45 2.0243 -0.0531071 0
M  V30 10273 C 932.778 1.44446 1.30252 0
M  V30 10274 O 932.033 0.595182 1.8643 0
M  V30 10275 C 932.332 3.57323 0.0742311 0
M  V30 10276 C 931.998 4.34295 -1.21237 0
M  V30 10277 C 930.66 4.55044 -1.56489 0
M  V30 10278 C 933.012 4.78577 -2.0643 0
M  V30 10279 C 930.34 5.17325 -2.76752 0
M  V30 10280 C 932.692 5.42186 -3.25909 0
M  V30 10281 C 931.356 5.61165 -3.61456 0
M  V30 10282 H 930.626 0.740745 -0.0194333 0
M  V30 10283 H 933.273 1.76366 -0.74614 0
M  V30 10284 H 931.578 3.82461 0.850325 0
M  V30 10285 H 933.275 3.97982 0.491077 0
M  V30 10286 H 929.865 4.18435 -0.927922 0
M  V30 10287 H 934.049 4.62313 -1.80501 0
M  V30 10288 H 929.305 5.30211 -3.04444 0
M  V30 10289 H 933.479 5.75459 -3.92198 0
M  V30 10290 H 931.106 6.09195 -4.54737 0
M  V30 10291 N 932.681 0.308908 1.54543 0
M  V30 10292 C 933.611 -0.556657 2.26768 0
M  V30 10293 C 934.592 -1.13145 1.27013 0
M  V30 10294 O 935.777 -1.15931 1.558 0
M  V30 10295 C 932.907 -1.72481 3.01443 0
M  V30 10296 C 931.861 -1.28001 4.08411 0
M  V30 10297 C 931.187 -2.53395 4.70845 0
M  V30 10298 C 932.487 -0.405497 5.20724 0
M  V30 10299 H 934.181 0.0457618 2.99365 0
M  V30 10300 H 931.727 0.0234495 1.43981 0
M  V30 10301 H 933.68 -2.3365 3.50693 0
M  V30 10302 H 932.404 -2.35359 2.26437 0
M  V30 10303 H 931.063 -0.69133 3.60022 0
M  V30 10304 H 930.711 -3.14604 3.92471 0
M  V30 10305 H 930.411 -2.2433 5.43093 0
M  V30 10306 H 931.935 -3.15352 5.22863 0
M  V30 10307 H 933.349 -0.923076 5.6582 0
M  V30 10308 H 931.746 -0.208282 5.99738 0
M  V30 10309 H 932.816 0.567412 4.81569 0
M  V30 10310 N 934.159 -1.57557 0.0367827 0
M  V30 10311 C 935.406 -1.92114 -0.640185 0
M  V30 10312 C 935.734 -0.913887 -1.71693 0
M  V30 10313 O 934.989 0.0760343 -1.95552 0
M  V30 10314 C 935.288 -3.33387 -1.28794 0
M  V30 10315 C 934.954 -4.4961 -0.340819 0
M  V30 10316 C 933.616 -4.81133 -0.0801574 0
M  V30 10317 C 935.968 -5.20283 0.309106 0
M  V30 10318 C 933.296 -5.80683 0.838107 0
M  V30 10319 C 935.648 -6.20813 1.21547 0
M  V30 10320 C 934.312 -6.50773 1.48495 0
M  V30 10321 H 933.582 -0.702996 -0.23426 0
M  V30 10322 H 936.229 -1.91238 0.100188 0
M  V30 10323 H 934.534 -3.30561 -2.10324 0
M  V30 10324 H 936.231 -3.57399 -1.81843 0
M  V30 10325 H 932.821 -4.25002 -0.554161 0
M  V30 10326 H 937.005 -4.96153 0.120794 0
M  V30 10327 H 932.261 -6.02238 1.05451 0
M  V30 10328 H 936.435 -6.74692 1.72522 0
M  V30 10329 H 934.062 -7.27727 2.19814 0
M  V30 10330 N 935.637 0.236453 -1.55816 0
M  V30 10331 C 937.048 0.80468 -1.68469 0
M  V30 10332 C 937.399 1.85601 -0.636133 0
M  V30 10333 O 936.524 2.15323 0.215622 0
M  V30 10334 C 937.119 1.46634 -3.05424 0
M  V30 10335 C 935.678 1.98214 -3.19981 0
M  V30 10336 C 934.825 0.83695 -2.64368 0
M  V30 10337 H 937.776 0.0120647 -1.58695 0
M  V30 10338 H 937.797 2.33472 -3.00451 0
M  V30 10339 H 937.309 0.700931 -3.81718 0
M  V30 10340 H 935.41 2.77604 -2.4853 0
M  V30 10341 H 935.523 2.17235 -4.2702 0
M  V30 10342 H 933.887 1.24028 -2.22462 0
M  V30 10343 H 934.67 0.084451 -3.43196 0
M  V30 10344 N 937.115 1.49373 0.502552 0
M  V30 10345 C 938.078 1.65413 1.58654 0
M  V30 10346 C 939.078 0.526003 1.51953 0
M  V30 10347 O 940.268 0.792421 1.55133 0
M  V30 10348 C 937.4 1.65005 2.98306 0
M  V30 10349 H 938.593 2.62095 1.45762 0
M  V30 10350 H 936.146 1.38381 0.726672 0
M  V30 10351 H 936.881 0.699014 3.16677 0
M  V30 10352 H 936.666 2.46931 3.04578 0
M  V30 10353 H 938.156 1.79477 3.77065 0
M  V30 10354 N 938.594 -0.753485 1.38421 0
M  V30 10355 C 939.819 -1.54783 1.38047 0
M  V30 10356 C 940.244 -1.8808 -0.0276371 0
M  V30 10357 O 939.602 -1.5058 -1.00973 0
M  V30 10358 C 939.65 -2.82353 2.24297 0
M  V30 10359 O 938.754 -3.77509 1.66014 0
M  V30 10360 H 938.095 -0.468151 0.470883 0
M  V30 10361 H 940.625 -0.931144 1.82184 0
M  V30 10362 H 940.635 -3.31277 2.38159 0
M  V30 10363 H 939.31 -2.57449 3.26639 0
M  V30 10364 H 937.887 -3.36212 1.61294 0
M  V30 10365 N 940.072 -1.23292 -0.981677 0
M  V30 10366 C 941.019 -1.01296 -2.07383 0
M  V30 10367 C 941.989 0.069139 -1.65956 0
M  V30 10368 O 943.174 -0.0827108 -1.90621 0
M  V30 10369 C 940.314 -0.608876 -3.39686 0
M  V30 10370 C 939.427 -1.76296 -3.9439 0
M  V30 10371 C 938.562 -1.30578 -5.14901 0
M  V30 10372 C 937.601 -2.4307 -5.61768 0
M  V30 10373 N 936.738 -1.98319 -6.73509 0
M  V30 10374 H 941.578 -1.9478 -2.25532 0
M  V30 10375 H 939.115 -0.970356 -1.10555 0
M  V30 10376 H 941.073 -0.355702 -4.15681 0
M  V30 10377 H 939.703 0.288961 -3.21504 0
M  V30 10378 H 938.755 -2.13017 -3.15163 0
M  V30 10379 H 940.067 -2.60871 -4.25145 0
M  V30 10380 H 939.221 -1.01066 -5.98223 0
M  V30 10381 H 937.96 -0.430386 -4.85797 0
M  V30 10382 H 936.965 -2.73358 -4.77028 0
M  V30 10383 H 938.19 -3.31144 -5.92892 0
M  V30 10384 H 936.136 -1.13157 -6.46167 0
M  V30 10385 H 936.053 -2.76454 -7.0364 0
M  V30 10386 H 937.321 -1.71907 -7.60308 0
M  V30 10387 N 941.55 1.18024 -1.04442 0
M  V30 10388 C 942.778 1.92032 -0.770161 0
M  V30 10389 C 943.193 1.76391 0.673181 0
M  V30 10390 O 942.55 1.09604 1.45922 0
M  V30 10391 C 942.601 3.43328 -1.13173 0
M  V30 10392 O 942.322 3.5848 -2.51841 0
M  V30 10393 C 943.823 4.34427 -0.882523 0
M  V30 10394 H 941.043 0.609518 -0.280586 0
M  V30 10395 H 943.587 1.49711 -1.39308 0
M  V30 10396 H 941.742 3.83423 -0.553704 0
M  V30 10397 H 942.156 4.52166 -2.65794 0
M  V30 10398 H 943.63 5.39123 -1.18533 0
M  V30 10399 H 944.107 4.3882 0.18257 0
M  V30 10400 H 944.713 4.00035 -1.44403 0
M  V30 10401 N 943.028 0.824394 1.34319 0
M  V30 10402 C 944.253 0.425194 2.02995 0
M  V30 10403 C 944.678 -0.961476 1.6167 0
M  V30 10404 O 944.036 -1.62593 0.80207 0
M  V30 10405 C 944.084 0.537004 3.56579 0
M  V30 10406 O 943.188 -0.442576 4.10018 0
M  V30 10407 H 942.529 0.174853 0.640564 0
M  V30 10408 H 945.059 1.11522 1.71534 0
M  V30 10409 H 945.069 0.413311 4.05901 0
M  V30 10410 H 943.744 1.54836 3.86004 0
M  V30 10411 H 942.321 -0.277644 3.71865 0
M  V30 10412 N 944.506 -1.46559 0.579492 0
M  V30 10413 C 945.754 -2.02 0.0637157 0
M  V30 10414 C 946.075 -1.45378 -1.29962 0
M  V30 10415 O 945.345 -0.637262 -1.85245 0
M  V30 10416 H 943.925 -0.746717 0.0205638 0
M  V30 10417 H 946.587 -1.79702 0.754544 0
M  V30 10418 H 945.683 -3.12099 -0.00770254 0
M  V30 10419 N 945.984 -0.3171 -1.54377 0
M  V30 10420 C 946.914 0.544623 -2.2706 0
M  V30 10421 C 947.895 1.12469 -1.27611 0
M  V30 10422 O 949.08 1.15103 -1.56413 0
M  V30 10423 C 946.21 1.70879 -3.02353 0
M  V30 10424 C 945.164 1.25833 -4.09084 0
M  V30 10425 C 944.49 2.50894 -4.72182 0
M  V30 10426 C 945.79 0.377876 -5.20931 0
M  V30 10427 H 947.484 -0.0616372 -2.99337 0
M  V30 10428 H 945.03 -0.0310848 -1.43966 0
M  V30 10429 H 946.983 2.31787 -3.51927 0
M  V30 10430 H 945.707 2.34155 -2.27682 0
M  V30 10431 H 944.366 0.672228 -3.60384 0
M  V30 10432 H 944.014 3.12518 -3.94134 0
M  V30 10433 H 943.714 2.21447 -5.44275 0
M  V30 10434 H 945.238 3.12575 -5.24528 0
M  V30 10435 H 946.652 0.893056 -5.66302 0
M  V30 10436 H 945.049 0.176474 -5.9984 0
M  V30 10437 H 946.119 -0.592943 -4.81261 0
M  V30 10438 N 947.462 1.57535 -0.0451378 0
M  V30 10439 C 948.692 1.96476 0.638814 0
M  V30 10440 C 949.1 0.921056 1.65267 0
M  V30 10441 O 948.443 -0.103843 1.83406 0
M  V30 10442 C 948.505 3.31629 1.38788 0
M  V30 10443 C 948.169 4.5391 0.530545 0
M  V30 10444 C 949.166 5.19512 -0.200864 0
M  V30 10445 C 946.851 5.00159 0.463242 0
M  V30 10446 C 948.845 6.29695 -0.988078 0
M  V30 10447 C 946.532 6.10221 -0.327665 0
M  V30 10448 C 947.53 6.74849 -1.05202 0
M  V30 10449 O 947.218 7.82795 -1.82993 0
M  V30 10450 H 946.95 0.651625 0.17989 0
M  V30 10451 H 949.504 2.05126 -0.106031 0
M  V30 10452 H 947.734 3.19516 2.17822 0
M  V30 10453 H 949.423 3.5536 1.96148 0
M  V30 10454 H 950.189 4.84742 -0.158299 0
M  V30 10455 H 946.068 4.49651 1.01663 0
M  V30 10456 H 949.612 6.80072 -1.55397 0
M  V30 10457 H 945.509 6.44428 -0.37189 0
M  V30 10458 H 946.277 7.99542 -1.7514 0
M  V30 10459 N 948.94 -0.228186 1.55939 0
M  V30 10460 C 950.168 -0.970618 1.8272 0
M  V30 10461 C 950.583 -1.78212 0.623385 0
M  V30 10462 O 949.94 -1.77879 -0.408063 0
M  V30 10463 C 949.991 -1.89352 3.07942 0
M  V30 10464 O 949.712 -1.11483 4.23678 0
M  V30 10465 C 951.213 -2.75039 3.47661 0
M  V30 10466 H 948.433 -0.284772 0.607574 0
M  V30 10467 H 950.977 -0.245419 2.03022 0
M  V30 10468 H 949.132 -2.57275 2.89635 0
M  V30 10469 H 949.546 -1.74073 4.94772 0
M  V30 10470 H 951.02 -3.35511 4.38334 0
M  V30 10471 H 951.497 -3.471 2.69106 0
M  V30 10472 H 952.103 -2.1254 3.68384 0
M  V30 10473 N 950.418 -1.49637 -0.494624 0
M  V30 10474 C 951.666 -1.5913 -1.24587 0
M  V30 10475 C 951.987 -0.282828 -1.92938 0
M  V30 10476 O 951.257 0.69825 -1.83034 0
M  V30 10477 H 949.837 -0.586329 -0.462847 0
M  V30 10478 H 952.499 -1.86296 -0.572696 0
M  V30 10479 H 951.595 -2.3906 -2.00641 0
M  V30 10480 N 951.896 0.746133 -1.38819 0
M  V30 10481 C 952.828 1.86991 -1.3254 0
M  V30 10482 C 953.841 1.61077 -0.236216 0
M  V30 10483 O 955.03 1.71518 -0.494341 0
M  V30 10484 C 952.13 3.22786 -1.03258 0
M  V30 10485 C 951.303 3.76145 -2.23234 0
M  V30 10486 C 950.362 4.90474 -1.90581 0
M  V30 10487 O 949.388 5.04717 -2.63153 0
M  V30 10488 N 950.59 5.74015 -0.86525 0
M  V30 10489 H 953.355 1.92885 -2.2938 0
M  V30 10490 H 950.916 0.926392 -1.32776 0
M  V30 10491 H 952.908 3.96824 -0.794533 0
M  V30 10492 H 951.478 3.12231 -0.151895 0
M  V30 10493 H 950.698 2.93587 -2.63059 0
M  V30 10494 H 951.986 4.08528 -3.03285 0
M  V30 10495 H 951.384 5.65086 -0.263577 0
M  V30 10496 H 949.941 6.48168 -0.687087 0
M  V30 10497 N 953.375 1.23811 0.975125 0
M  V30 10498 C 954.285 1.0408 2.10249 0
M  V30 10499 C 955.301 -0.0162404 1.73992 0
M  V30 10500 O 956.477 0.180346 2.00591 0
M  V30 10501 C 953.542 0.640013 3.40741 0
M  V30 10502 C 952.603 1.7727 3.90991 0
M  V30 10503 C 951.836 1.39094 5.15256 0
M  V30 10504 O 952.059 0.277483 5.69725 0
M  V30 10505 O 950.993 2.21392 5.59704 0
M  V30 10506 H 954.819 1.98575 2.29786 0
M  V30 10507 H 952.404 1.02563 1.08633 0
M  V30 10508 H 954.286 0.427684 4.19224 0
M  V30 10509 H 952.961 -0.27589 3.22522 0
M  V30 10510 H 951.868 2.03971 3.13602 0
M  V30 10511 H 953.201 2.66711 4.13674 0
M  V30 10512 N 954.853 -1.17469 1.05066 0
M  V30 10513 C 956.083 -1.91343 0.779202 0
M  V30 10514 C 956.491 -1.76986 -0.668764 0
M  V30 10515 O 955.834 -1.1037 -1.46848 0
M  V30 10516 C 955.896 -3.42938 1.0786 0
M  V30 10517 C 955.56 -3.81076 2.52249 0
M  V30 10518 C 956.557 -3.84027 3.50456 0
M  V30 10519 C 954.242 -4.12076 2.87225 0
M  V30 10520 C 956.236 -4.17445 4.81683 0
M  V30 10521 C 953.923 -4.45163 4.18656 0
M  V30 10522 C 954.921 -4.47825 5.15696 0
M  V30 10523 O 954.609 -4.80133 6.44769 0
M  V30 10524 H 954.341 -0.613974 0.282863 0
M  V30 10525 H 956.895 -1.49907 1.40417 0
M  V30 10526 H 955.125 -3.84662 0.39653 0
M  V30 10527 H 956.814 -3.98071 0.793357 0
M  V30 10528 H 957.58 -3.60203 3.24775 0
M  V30 10529 H 953.459 -4.09176 2.12358 0
M  V30 10530 H 957.003 -4.19437 5.57421 0
M  V30 10531 H 952.9 -4.68449 4.44101 0
M  V30 10532 H 953.668 -4.97995 6.49571 0
M  V30 10533 N 956.331 -0.831506 -1.3388 0
M  V30 10534 C 957.577 -0.424302 -1.98312 0
M  V30 10535 C 957.91 1.01211 -1.65741 0
M  V30 10536 O 957.185 1.70636 -0.933464 0
M  V30 10537 C 957.468 -0.636815 -3.54424 0
M  V30 10538 C 957.321 -2.11997 -3.96708 0
M  V30 10539 C 958.64 -0.0782411 -4.4003 0
M  V30 10540 H 955.759 -0.155637 -0.720379 0
M  V30 10541 H 958.401 -1.04566 -1.58638 0
M  V30 10542 H 956.551 -0.107907 -3.8835 0
M  V30 10543 H 958.223 -2.71317 -3.73075 0
M  V30 10544 H 956.466 -2.60723 -3.46707 0
M  V30 10545 H 957.137 -2.21944 -5.05416 0
M  V30 10546 H 959.613 -0.530243 -4.12708 0
M  V30 10547 H 958.489 -0.256676 -5.483 0
M  V30 10548 H 958.75 1.01745 -4.30233 0
M  V30 10549 N 957.809 1.4625 -0.587256 0
M  V30 10550 C 958.741 2.28482 0.181256 0
M  V30 10551 C 959.754 1.38777 0.851163 0
M  V30 10552 O 960.943 1.63336 0.719963 0
M  V30 10553 C 958.043 3.13944 1.27643 0
M  V30 10554 C 957.216 4.31802 0.697569 0
M  V30 10555 C 956.275 4.98626 1.68102 0
M  V30 10556 O 955.301 5.56075 1.21529 0
M  V30 10557 N 956.503 4.96051 3.0152 0
M  V30 10558 H 959.268 2.95079 -0.524267 0
M  V30 10559 H 956.829 1.56213 -0.425336 0
M  V30 10560 H 958.821 3.55513 1.93371 0
M  V30 10561 H 957.391 2.49391 1.88475 0
M  V30 10562 H 956.611 3.93961 -0.137293 0
M  V30 10563 H 957.899 5.07969 0.290696 0
M  V30 10564 H 957.297 4.5063 3.41978 0
M  V30 10565 H 955.854 5.41547 3.62725 0
M  V30 10566 N 959.287 0.325282 1.54207 0
M  V30 10567 C 960.703 -0.0273036 1.59577 0
M  V30 10568 C 960.903 -1.50329 1.34177 0
M  V30 10569 O 959.959 -2.25951 1.12705 0
M  V30 10570 C 961.272 0.392468 2.98128 0
M  V30 10571 C 962.82 0.343269 3.11112 0
M  V30 10572 C 963.295 0.738229 4.52011 0
M  V30 10573 N 964.786 0.691701 4.58006 0
M  V30 10574 C 965.521 0.969479 5.65145 0
M  V30 10575 N 965.017 1.31448 6.80216 0
M  V30 10576 N 966.81 0.894926 5.5493 0
M  V30 10577 H 958.961 1.28692 1.68974 0
M  V30 10578 H 961.224 0.523399 0.790416 0
M  V30 10579 H 960.93 1.42089 3.2172 0
M  V30 10580 H 960.804 -0.241651 3.76425 0
M  V30 10581 H 963.191 -0.675946 2.87254 0
M  V30 10582 H 963.272 1.01235 2.34915 0
M  V30 10583 H 962.916 1.75537 4.76602 0
M  V30 10584 H 962.846 0.0468226 5.26579 0
M  V30 10585 H 965.337 0.436975 3.75365 0
M  V30 10586 H 965.65 1.51177 7.57869 0
M  V30 10587 H 963.995 1.35276 6.81708 0
M  V30 10588 H 967.186 0.624876 4.6391 0
M  V30 10589 H 967.359 1.11476 6.38339 0
M  V30 10590 N 960.765 -1.57509 0.0534917 0
M  V30 10591 C 962.011 -1.93068 -0.62069 0
M  V30 10592 C 962.344 -0.932313 -1.70357 0
M  V30 10593 O 961.619 0.0413393 -1.94456 0
M  V30 10594 C 961.902 -3.38997 -1.21463 0
M  V30 10595 C 961.755 -4.49583 -0.13965 0
M  V30 10596 C 963.074 -3.85366 -2.12558 0
M  V30 10597 H 960.193 -0.702083 -0.224163 0
M  V30 10598 H 962.835 -1.89647 0.115729 0
M  V30 10599 H 960.985 -3.42043 -1.84226 0
M  V30 10600 H 962.657 -4.58664 0.492411 0
M  V30 10601 H 960.9 -4.30525 0.532006 0
M  V30 10602 H 961.571 -5.48781 -0.595287 0
M  V30 10603 H 964.047 -3.8421 -1.59755 0
M  V30 10604 H 962.923 -4.8812 -2.51058 0
M  V30 10605 H 963.184 -3.22256 -3.02661 0
M  V30 10606 N 962.243 0.219913 -1.56058 0
M  V30 10607 C 963.173 1.27572 -1.9557 0
M  V30 10608 C 964.154 1.48801 -0.824148 0
M  V30 10609 O 965.339 1.60957 -1.08658 0
M  V30 10610 C 962.469 2.62517 -2.27381 0
M  V30 10611 C 961.423 2.55941 -3.43042 0
M  V30 10612 C 960.749 3.94931 -3.60463 0
M  V30 10613 C 962.049 2.10584 -4.77966 0
M  V30 10614 H 963.743 0.947482 -2.84013 0
M  V30 10615 H 961.289 0.454337 -1.36645 0
M  V30 10616 H 963.242 3.36538 -2.53615 0
M  V30 10617 H 961.966 2.97031 -1.35794 0
M  V30 10618 H 960.625 1.84377 -3.1686 0
M  V30 10619 H 960.273 4.26756 -2.66249 0
M  V30 10620 H 959.973 3.91413 -4.38258 0
M  V30 10621 H 961.497 4.70611 -3.89046 0
M  V30 10622 H 962.911 2.74349 -5.03394 0
M  V30 10623 H 961.308 2.18122 -5.59055 0
M  V30 10624 H 962.378 1.05818 -4.73213 0
M  V30 10625 N 963.721 1.49897 0.486681 0
M  V30 10626 C 964.651 1.7054 1.59494 0
M  V30 10627 C 965.632 0.554184 1.60819 0
M  V30 10628 O 966.817 0.791617 1.77333 0
M  V30 10629 C 963.947 1.78517 2.97908 0
M  V30 10630 C 962.901 2.93571 3.11449 0
M  V30 10631 C 962.227 2.86674 4.51356 0
M  V30 10632 C 963.527 4.34308 2.90127 0
M  V30 10633 H 965.221 2.63329 1.42472 0
M  V30 10634 H 962.767 1.2672 0.683969 0
M  V30 10635 H 964.72 1.91544 3.75352 0
M  V30 10636 H 963.444 0.823381 3.16051 0
M  V30 10637 H 962.103 2.80169 2.36433 0
M  V30 10638 H 961.751 1.88373 4.66395 0
M  V30 10639 H 961.451 3.63903 4.61355 0
M  V30 10640 H 962.975 3.01728 5.30841 0
M  V30 10641 H 964.389 4.48317 3.57331 0
M  V30 10642 H 962.786 5.12869 3.11585 0
M  V30 10643 H 963.856 4.47759 1.86119 0
M  V30 10644 N 965.199 -0.738761 1.39212 0
M  V30 10645 C 966.445 -1.50046 1.36433 0
M  V30 10646 C 966.778 -1.94157 -0.0409474 0
M  V30 10647 O 966.053 -1.66515 -1.00514 0
M  V30 10648 C 966.336 -2.74277 2.33333 0
M  V30 10649 C 966.189 -2.36209 3.82786 0
M  V30 10650 C 967.508 -3.76361 2.28123 0
M  V30 10651 H 964.627 -0.544294 0.496903 0
M  V30 10652 H 967.269 -0.845005 1.70175 0
M  V30 10653 H 965.419 -3.30204 2.04689 0
M  V30 10654 H 967.091 -1.85942 4.22165 0
M  V30 10655 H 965.334 -1.68483 3.99745 0
M  V30 10656 H 966.005 -3.25156 4.46069 0
M  V30 10657 H 968.481 -3.30009 2.53443 0
M  V30 10658 H 967.357 -4.60957 2.9801 0
M  V30 10659 H 967.618 -4.23013 1.28499 0
M  V30 10660 N 966.677 -1.24326 -0.968545 0
M  V30 10661 C 967.923 -1.08406 -1.71394 0
M  V30 10662 C 968.256 0.376353 -1.90518 0
M  V30 10663 O 967.531 1.27816 -1.46606 0
M  V30 10664 C 967.814 -1.82344 -3.1052 0
M  V30 10665 C 967.667 -3.3613 -2.98893 0
M  V30 10666 C 968.986 -1.59545 -4.10163 0
M  V30 10667 H 966.105 -0.395205 -0.622079 0
M  V30 10668 H 968.747 -1.52983 -1.12677 0
M  V30 10669 H 966.897 -1.44452 -3.60646 0
M  V30 10670 H 968.569 -3.83614 -2.56199 0
M  V30 10671 H 966.812 -3.64553 -2.35124 0
M  V30 10672 H 967.483 -3.83064 -3.97449 0
M  V30 10673 H 969.959 -1.92504 -3.68892 0
M  V30 10674 H 968.835 -2.13736 -5.05577 0
M  V30 10675 H 969.096 -0.533503 -4.38869 0
M  V30 10676 N 968.156 1.1691 -1.05688 0
M  V30 10677 C 969.384 1.91204 -0.790485 0
M  V30 10678 C 969.799 1.77095 0.654434 0
M  V30 10679 O 969.156 1.11146 1.44751 0
M  V30 10680 C 969.207 3.42108 -1.16808 0
M  V30 10681 O 968.928 3.55788 -2.55629 0
M  V30 10682 C 970.429 4.33466 -0.92855 0
M  V30 10683 H 967.649 0.606508 -0.287035 0
M  V30 10684 H 970.193 1.48225 -1.40888 0
M  V30 10685 H 968.348 3.82814 -0.59434 0
M  V30 10686 H 968.762 4.49321 -2.70575 0
M  V30 10687 H 970.236 5.37836 -1.24245 0
M  V30 10688 H 970.713 4.38989 0.136016 0
M  V30 10689 H 971.319 3.98481 -1.48638 0
M  V30 10690 N 969.634 0.838594 1.33437 0
M  V30 10691 C 970.597 0.276843 2.27522 0
M  V30 10692 C 971.597 -0.554275 1.50945 0
M  V30 10693 O 972.787 -0.368107 1.70266 0
M  V30 10694 C 969.919 -0.610036 3.35397 0
M  V30 10695 H 971.112 1.10705 2.78719 0
M  V30 10696 H 968.665 0.611657 1.43835 0
M  V30 10697 H 969.4 -1.46269 2.89441 0
M  V30 10698 H 969.185 -0.0153615 3.92097 0
M  V30 10699 H 970.675 -0.996368 4.05539 0
M  V30 10700 N 971.112 -1.45937 0.595003 0
M  V30 10701 C 972.042 -2.33198 -0.11871 0
M  V30 10702 C 973.023 -1.46083 -0.871423 0
M  V30 10703 O 974.208 -1.74879 -0.844461 0
M  V30 10704 C 971.338 -3.28576 -1.12495 0
M  V30 10705 C 970.292 -4.25229 -0.486275 0
M  V30 10706 C 969.618 -5.10204 -1.59986 0
M  V30 10707 C 970.918 -5.19019 0.584473 0
M  V30 10708 H 972.612 -2.93122 0.609886 0
M  V30 10709 H 970.158 -1.40951 0.294742 0
M  V30 10710 H 972.111 -3.88485 -1.6327 0
M  V30 10711 H 970.835 -2.66784 -1.88398 0
M  V30 10712 H 969.494 -3.666 0.000507962 0
M  V30 10713 H 969.142 -4.44789 -2.34886 0
M  V30 10714 H 968.842 -5.75669 -1.1781 0
M  V30 10715 H 970.366 -5.7298 -2.11014 0
M  V30 10716 H 971.78 -5.73073 0.161297 0
M  V30 10717 H 970.177 -5.92893 0.927256 0
M  V30 10718 H 971.247 -4.62208 1.46601 0
M  V30 10719 N 972.59 -0.333456 -1.54032 0
M  V30 10720 C 973.815 0.270517 -2.05628 0
M  V30 10721 C 974.24 1.44231 -1.20744 0
M  V30 10722 O 973.598 1.79975 -0.218822 0
M  V30 10723 C 973.646 0.673251 -3.54259 0
M  V30 10724 O 972.75 1.77448 -3.72271 0
M  V30 10725 H 972.091 0.0469753 -0.662336 0
M  V30 10726 H 974.621 -0.484739 -1.98775 0
M  V30 10727 H 974.631 0.953194 -3.96709 0
M  V30 10728 H 973.306 -0.183747 -4.15494 0
M  V30 10729 H 971.883 1.49259 -3.41725 0
M  V30 10730 N 974.068 1.57479 -0.061844 0
M  V30 10731 C 975.314 1.93395 0.610443 0
M  V30 10732 C 975.647 0.941334 1.6986 0
M  V30 10733 O 974.922 -0.0310262 1.94475 0
M  V30 10734 C 975.205 3.39636 1.19664 0
M  V30 10735 C 975.058 4.49651 0.115805 0
M  V30 10736 C 976.377 3.86488 2.10512 0
M  V30 10737 H 973.496 0.703262 0.220436 0
M  V30 10738 H 976.138 1.89583 -0.125785 0
M  V30 10739 H 974.288 3.43015 1.82409 0
M  V30 10740 H 975.96 4.58397 -0.516728 0
M  V30 10741 H 974.203 4.30237 -0.55483 0
M  V30 10742 H 974.874 5.49089 0.566176 0
M  V30 10743 H 977.35 3.85052 1.57715 0
M  V30 10744 H 976.226 4.89444 2.48466 0
M  V30 10745 H 976.487 3.23856 3.00948 0
M  V30 10746 N 975.546 -0.211634 1.56173 0
M  V30 10747 C 976.957 -0.777776 1.69728 0
M  V30 10748 C 977.308 -1.84566 0.66558 0
M  V30 10749 O 976.433 -2.15639 -0.181338 0
M  V30 10750 C 977.028 -1.41757 3.07718 0
M  V30 10751 C 975.587 -1.93098 3.23094 0
M  V30 10752 C 974.734 -0.794785 2.65666 0
M  V30 10753 H 977.685 0.0131839 1.58695 0
M  V30 10754 H 977.706 -2.28662 3.04128 0
M  V30 10755 H 977.218 -0.640114 3.82785 0
M  V30 10756 H 975.319 -2.73615 2.52914 0
M  V30 10757 H 975.432 -2.10414 4.30422 0
M  V30 10758 H 973.796 -1.20473 2.24407 0
M  V30 10759 H 974.579 -0.0298408 3.43287 0
M  V30 10760 N 977.024 -1.50153 -0.478725 0
M  V30 10761 C 978.27 -1.60998 -1.23318 0
M  V30 10762 C 978.603 -0.305868 -1.91776 0
M  V30 10763 O 977.878 0.692158 -1.81767 0
M  V30 10764 C 978.161 -2.78495 -2.28282 0
M  V30 10765 C 978.014 -4.18767 -1.64178 0
M  V30 10766 C 979.333 -2.91569 -3.2966 0
M  V30 10767 H 976.452 -0.585983 -0.446982 0
M  V30 10768 H 979.094 -1.82514 -0.528063 0
M  V30 10769 H 977.244 -2.60281 -2.8842 0
M  V30 10770 H 978.916 -4.48552 -1.07696 0
M  V30 10771 H 977.159 -4.23379 -0.94514 0
M  V30 10772 H 977.83 -4.96894 -2.40417 0
M  V30 10773 H 980.306 -3.08219 -2.79536 0
M  V30 10774 H 979.182 -3.75419 -4.0044 0
M  V30 10775 H 979.443 -2.01859 -3.93326 0
M  V30 10776 N 978.502 0.731368 -1.39602 0
M  V30 10777 C 979.432 1.85855 -1.41351 0
M  V30 10778 C 980.413 1.67839 -0.2764 0
M  V30 10779 O 981.598 1.88104 -0.482747 0
M  V30 10780 C 978.728 3.23644 -1.25983 0
M  V30 10781 C 977.682 3.56304 -2.37132 0
M  V30 10782 C 977.008 4.93069 -2.0685 0
M  V30 10783 C 978.308 3.58906 -3.79452 0
M  V30 10784 H 980.002 1.84648 -2.3568 0
M  V30 10785 H 977.548 0.886955 -1.13442 0
M  V30 10786 H 979.501 4.02176 -1.25826 0
M  V30 10787 H 978.225 3.25387 -0.281234 0
M  V30 10788 H 976.884 2.80104 -2.36511 0
M  V30 10789 H 976.532 4.91396 -1.0742 0
M  V30 10790 H 976.232 5.15888 -2.81306 0
M  V30 10791 H 977.756 5.73953 -2.0835 0
M  V30 10792 H 979.17 4.27508 -3.81982 0
M  V30 10793 H 977.567 3.93246 -4.53297 0
M  V30 10794 H 978.637 2.58631 -4.10168 0
M  V30 10795 N 979.98 1.24838 0.961938 0
M  V30 10796 C 981.227 1.09151 1.70564 0
M  V30 10797 C 981.555 -0.368719 1.90973 0
M  V30 10798 O 980.81 -1.28854 1.47293 0
M  V30 10799 C 981.109 1.78289 3.09754 0
M  V30 10800 C 980.775 3.28216 3.09169 0
M  V30 10801 C 979.437 3.69118 3.08716 0
M  V30 10802 C 981.789 4.24035 3.03058 0
M  V30 10803 C 979.117 5.04263 2.99892 0
M  V30 10804 C 981.469 5.59195 2.95776 0
M  V30 10805 C 980.133 5.99436 2.93655 0
M  V30 10806 H 979.403 0.399414 0.624139 0
M  V30 10807 H 982.05 1.55016 1.12438 0
M  V30 10808 H 980.355 1.24835 3.7138 0
M  V30 10809 H 982.052 1.63612 3.66104 0
M  V30 10810 H 978.642 2.95667 3.10289 0
M  V30 10811 H 982.826 3.93431 3.02532 0
M  V30 10812 H 978.082 5.3463 2.96615 0
M  V30 10813 H 982.256 6.33142 2.90007 0
M  V30 10814 H 979.883 7.04116 2.86573 0
M  V30 10815 N 981.458 -1.16348 1.06306 0
M  V30 10816 C 982.388 -2.2291 0.695234 0
M  V30 10817 C 983.369 -1.67208 -0.312343 0
M  V30 10818 O 984.554 -1.93293 -0.187442 0
M  V30 10819 C 981.684 -3.47205 0.0810149 0
M  V30 10820 C 980.638 -4.15801 1.01458 0
M  V30 10821 C 979.964 -5.3405 0.263656 0
M  V30 10822 C 981.264 -4.66766 2.34365 0
M  V30 10823 H 982.958 -2.53934 1.58613 0
M  V30 10824 H 980.504 -1.22056 0.76409 0
M  V30 10825 H 982.457 -4.2098 -0.18818 0
M  V30 10826 H 981.181 -3.15482 -0.844897 0
M  V30 10827 H 979.84 -3.43954 1.26852 0
M  V30 10828 H 979.488 -4.9858 -0.665378 0
M  V30 10829 H 979.188 -5.80885 0.88582 0
M  V30 10830 H 980.712 -6.106 0.00200994 0
M  V30 10831 H 982.126 -5.3212 2.13356 0
M  V30 10832 H 980.523 -5.24223 2.9208 0
M  V30 10833 H 981.593 -3.82969 2.97426 0
M  V30 10834 N 982.937 -0.845659 -1.3299 0
M  V30 10835 C 984.185 -0.443774 -1.97168 0
M  V30 10836 C 984.506 1.00192 -1.67292 0
M  V30 10837 O 983.776 1.69891 -0.975397 0
M  V30 10838 H 982.356 -0.161111 -0.729419 0
M  V30 10839 H 985.018 -1.08011 -1.62233 0
M  V30 10840 H 984.114 -0.581414 -3.06637 0
M  V30 10841 N 984.415 1.45619 -0.602734 0
M  V30 10842 C 985.362 2.30493 0.118944 0
M  V30 10843 C 986.332 1.41816 0.864723 0
M  V30 10844 O 987.517 1.7075 0.851424 0
M  V30 10845 C 984.657 3.2664 1.11356 0
M  V30 10846 C 983.77 4.3042 0.369161 0
M  V30 10847 C 982.905 5.13678 1.35307 0
M  V30 10848 C 981.944 6.09189 0.596207 0
M  V30 10849 N 981.081 6.85245 1.52916 0
M  V30 10850 H 985.921 2.91672 -0.610836 0
M  V30 10851 H 983.458 1.43731 -0.313032 0
M  V30 10852 H 985.416 3.80846 1.7033 0
M  V30 10853 H 984.046 2.67225 1.81081 0
M  V30 10854 H 983.098 3.78913 -0.335994 0
M  V30 10855 H 984.41 4.98307 -0.221603 0
M  V30 10856 H 983.564 5.7226 2.01502 0
M  V30 10857 H 982.303 4.45798 1.97777 0
M  V30 10858 H 981.308 5.49743 -0.0793984 0
M  V30 10859 H 982.533 6.79096 -0.0233734 0
M  V30 10860 H 980.479 6.20058 2.14159 0
M  V30 10861 H 980.396 7.49467 0.991713 0
M  V30 10862 H 981.664 7.48371 2.18083 0
M  V30 10863 N 985.893 0.34162 1.53853 0
M  V30 10864 C 987.304 -0.14269 1.86154 0
M  V30 10865 C 987.655 -1.50151 1.2629 0
M  V30 10866 O 986.78 -2.08601 0.575735 0
M  V30 10867 C 987.375 -0.265691 3.37757 0
M  V30 10868 C 985.934 -0.694231 3.69942 0
M  V30 10869 C 985.081 0.173195 2.76759 0
M  V30 10870 H 988.032 0.561284 1.48443 0
M  V30 10871 H 988.053 -1.09352 3.64448 0
M  V30 10872 H 987.565 0.723424 3.81298 0
M  V30 10873 H 985.666 -1.69244 3.31945 0
M  V30 10874 H 985.779 -0.485461 4.76634 0
M  V30 10875 H 984.143 -0.35416 2.52226 0
M  V30 10876 H 984.926 1.15941 3.23129 0
M  V30 10877 N 987.371 -1.57444 0.0701946 0
M  V30 10878 C 988.301 -2.15659 -0.895176 0
M  V30 10879 C 989.282 -1.08321 -1.31151 0
M  V30 10880 O 990.467 -1.36349 -1.38284 0
M  V30 10881 C 987.597 -2.71693 -2.16334 0
M  V30 10882 C 986.551 -3.84183 -1.88645 0
M  V30 10883 C 985.877 -4.26814 -3.22078 0
M  V30 10884 C 987.177 -5.08493 -1.19299 0
M  V30 10885 H 988.871 -2.96576 -0.410217 0
M  V30 10886 H 986.417 -1.42662 -0.195872 0
M  V30 10887 H 988.37 -3.11064 -2.84284 0
M  V30 10888 H 987.094 -1.87994 -2.67069 0
M  V30 10889 H 985.753 -3.45314 -1.23101 0
M  V30 10890 H 985.401 -3.40039 -3.70651 0
M  V30 10891 H 985.101 -5.02642 -3.04344 0
M  V30 10892 H 986.625 -4.68799 -3.91228 0
M  V30 10893 H 988.039 -5.4519 -1.77316 0
M  V30 10894 H 986.436 -5.89588 -1.11828 0
M  V30 10895 H 987.506 -4.84595 -0.171839 0
M  V30 10896 N 988.849 0.203349 -1.56283 0
M  V30 10897 C 990.096 0.92501 -1.80138 0
M  V30 10898 C 990.424 1.83598 -0.64204 0
M  V30 10899 O 989.679 1.92119 0.372658 0
M  V30 10900 C 989.978 1.78016 -3.09912 0
M  V30 10901 C 989.644 1.02088 -4.39191 0
M  V30 10902 C 988.306 0.811208 -4.74313 0
M  V30 10903 C 990.658 0.486037 -5.18929 0
M  V30 10904 C 987.986 0.0550856 -5.86674 0
M  V30 10905 C 990.338 -0.256833 -6.32078 0
M  V30 10906 C 989.002 -0.477594 -6.65789 0
M  V30 10907 H 988.272 0.338485 -0.659173 0
M  V30 10908 H 990.919 0.191923 -1.90536 0
M  V30 10909 H 989.224 2.58167 -2.94715 0
M  V30 10910 H 990.921 2.341 -3.25574 0
M  V30 10911 H 987.511 1.1943 -4.11624 0
M  V30 10912 H 991.695 0.635446 -4.92215 0
M  V30 10913 H 986.951 -0.126006 -6.1127 0
M  V30 10914 H 991.125 -0.678683 -6.93085 0
M  V30 10915 H 988.752 -1.0654 -7.52697 0
M  V30 10916 N 990.327 1.50405 0.470755 0
M  V30 10917 C 991.257 1.72222 1.57676 0
M  V30 10918 C 992.238 0.57121 1.60222 0
M  V30 10919 O 993.423 0.810381 1.76484 0
M  V30 10920 C 990.553 1.81666 2.95998 0
M  V30 10921 C 989.507 2.96857 3.08318 0
M  V30 10922 C 988.833 2.91445 4.4829 0
M  V30 10923 C 990.133 4.37361 2.85504 0
M  V30 10924 H 991.827 2.64825 1.39671 0
M  V30 10925 H 989.373 1.27438 0.67049 0
M  V30 10926 H 991.326 1.95514 3.73299 0
M  V30 10927 H 990.05 0.856856 3.1516 0
M  V30 10928 H 988.709 2.82661 2.33449 0
M  V30 10929 H 988.357 1.93309 4.64371 0
M  V30 10930 H 988.057 3.68776 4.57469 0
M  V30 10931 H 989.581 3.07341 5.27611 0
M  V30 10932 H 990.995 4.52081 3.52555 0
M  V30 10933 H 989.392 5.16145 3.06127 0
M  V30 10934 H 990.462 4.49708 1.81359 0
M  V30 10935 N 991.805 -0.723954 1.39988 0
M  V30 10936 C 992.735 -1.85103 1.42335 0
M  V30 10937 C 993.716 -1.6769 0.285297 0
M  V30 10938 O 994.901 -1.87846 0.492716 0
M  V30 10939 C 992.031 -3.22972 1.27697 0
M  V30 10940 C 990.985 -3.55041 2.39018 0
M  V30 10941 C 990.311 -4.91965 2.09462 0
M  V30 10942 C 991.611 -3.56889 3.8135 0
M  V30 10943 H 993.305 -1.83396 2.36656 0
M  V30 10944 H 990.851 -0.880926 1.13911 0
M  V30 10945 H 992.804 -4.01503 1.27958 0
M  V30 10946 H 991.528 -3.25233 0.298487 0
M  V30 10947 H 990.187 -2.78845 2.37993 0
M  V30 10948 H 989.835 -4.90819 1.10025 0
M  V30 10949 H 989.535 -5.14389 2.84038 0
M  V30 10950 H 991.059 -5.7284 2.11391 0
M  V30 10951 H 992.473 -4.25476 3.84243 0
M  V30 10952 H 990.87 -3.90836 4.55376 0
M  V30 10953 H 991.94 -2.56452 4.11534 0
M  V30 10954 N 993.283 -1.25346 -0.955304 0
M  V30 10955 C 994.529 -1.11226 -1.70295 0
M  V30 10956 C 994.884 0.343362 -1.89311 0
M  V30 10957 O 994.177 1.24953 -1.45249 0
M  V30 10958 C 994.371 -1.7993 -3.08804 0
M  V30 10959 C 994.2 -3.32023 -3.033 0
M  V30 10960 C 992.97 -4.01274 -3.07094 0
M  V30 10961 C 995.168 -4.28431 -2.84519 0
M  V30 10962 N 993.15 -5.40149 -2.91741 0
M  V30 10963 C 994.521 -5.54386 -2.7759 0
M  V30 10964 C 996.576 -4.18854 -2.69194 0
M  V30 10965 C 995.279 -6.71859 -2.56902 0
M  V30 10966 C 997.305 -5.36018 -2.49876 0
M  V30 10967 C 996.667 -6.60913 -2.43667 0
M  V30 10968 H 992.766 -0.461707 -0.631151 0
M  V30 10969 H 995.35 -1.58437 -1.13162 0
M  V30 10970 H 993.521 -1.35214 -3.64104 0
M  V30 10971 H 995.253 -1.58557 -3.72346 0
M  V30 10972 H 992.008 -3.52529 -3.1626 0
M  V30 10973 H 992.432 -6.13029 -2.8727 0
M  V30 10974 H 997.074 -3.23043 -2.7277 0
M  V30 10975 H 994.792 -7.67781 -2.52068 0
M  V30 10976 H 998.378 -5.30468 -2.38944 0
M  V30 10977 H 997.258 -7.50045 -2.28914 0
M  V30 10978 N 994.761 1.15782 -1.06922 0
M  V30 10979 C 995.691 2.22538 -0.707045 0
M  V30 10980 C 996.672 1.67371 0.303471 0
M  V30 10981 O 997.857 1.9339 0.177189 0
M  V30 10982 C 994.987 3.47158 -0.0994269 0
M  V30 10983 C 993.941 4.15257 -1.03661 0
M  V30 10984 C 993.267 5.33902 -0.291974 0
M  V30 10985 C 994.567 4.65516 -2.36837 0
M  V30 10986 H 996.261 2.53089 -1.59958 0
M  V30 10987 H 993.807 1.21649 -0.770552 0
M  V30 10988 H 995.76 4.21073 0.165852 0
M  V30 10989 H 994.484 3.15926 0.828155 0
M  V30 10990 H 993.143 3.43276 -1.28674 0
M  V30 10991 H 992.791 4.98926 0.638928 0
M  V30 10992 H 992.491 5.80407 -0.916613 0
M  V30 10993 H 994.015 6.1059 -0.0343915 0
M  V30 10994 H 995.429 5.30981 -2.16175 0
M  V30 10995 H 993.826 5.22666 -2.94856 0
M  V30 10996 H 994.896 3.81387 -2.99453 0
M  V30 10997 N 996.239 0.8527 1.3254 0
M  V30 10998 C 997.189 0.267711 2.26423 0
M  V30 10999 C 998.173 -0.585305 1.49877 0
M  V30 11000 O 999.365 -0.435008 1.71571 0
M  V30 11001 C 996.494 -0.544605 3.38953 0
M  V30 11002 C 995.58 0.32069 4.22886 0
M  V30 11003 N 995.971 1.40601 4.85865 0
M  V30 11004 C 994.269 0.110101 4.45864 0
M  V30 11005 C 994.97 1.93819 5.48461 0
M  V30 11006 N 993.946 1.23764 5.29324 0
M  V30 11007 H 997.748 1.09747 2.7264 0
M  V30 11008 H 995.262 0.698607 1.46606 0
M  V30 11009 H 997.259 -0.98009 4.05216 0
M  V30 11010 H 995.919 -1.37218 2.94281 0
M  V30 11011 H 996.93 1.78894 4.86022 0
M  V30 11012 H 993.607 -0.682917 4.11877 0
M  V30 11013 H 994.997 2.84783 6.08562 0
M  V30 11014 N 997.718 -1.45297 0.610449 0
M  V30 11015 C 998.666 -2.32295 -0.119167 0
M  V30 11016 C 999.66 -1.46138 -0.856746 0
M  V30 11017 O 1000.87 -1.62605 -0.771988 0
M  V30 11018 H 997.241 -0.749815 -0.0572881 0
M  V30 11019 H 999.212 -2.91609 0.63297 0
M  V30 11020 C 997.961 -3.29802 -1.10119 0
M  V30 11021 H 997.284 -3.96095 -0.543063 0
M  V30 11022 H 998.724 -3.93398 -1.58158 0
M  V30 11023 C 997.183 -2.57185 -2.17617 0
M  V30 11024 O 997.713 -2.35535 -3.25401 0
M  V30 11025 N 995.919 -2.17272 -1.9298 0
M  V30 11026 H 995.466 -2.3508 -1.05334 0
M  V30 11027 H 995.424 -1.69009 -2.6511 0
M  V30 11028 N 999.196 -0.349774 -1.5367 0
M  V30 11029 C 1000.44 0.244343 -2.00617 0
M  V30 11030 C 1000.76 1.50567 -1.23914 0
M  V30 11031 O 1000.03 1.92784 -0.348016 0
M  V30 11032 H 998.615 0.0932792 -0.741153 0
M  V30 11033 H 1001.28 -0.472367 -1.89089 0
M  V30 11034 H 1000.37 0.482433 -3.08349 0
M  V30 11035 N 1000.67 1.57404 -0.0785433 0
M  V30 11036 C 1002.09 1.57158 0.2781 0
M  V30 11037 C 1002.29 1.08847 1.69572 0
M  V30 11038 O 1001.35 0.757407 2.40873 0
M  V30 11039 C 1002.66 3.00589 0.0816067 0
M  V30 11040 C 1004.21 3.12637 0.150627 0
M  V30 11041 C 1004.68 4.57997 -0.0176685 0
M  V30 11042 N 1006.17 4.63185 0.0377145 0
M  V30 11043 C 1006.91 5.7336 -0.0679907 0
M  V30 11044 N 1006.4 6.92426 -0.227598 0
M  V30 11045 N 1008.2 5.62099 -0.0104424 0
M  V30 11046 H 1000.35 1.87121 -1.00496 0
M  V30 11047 H 1002.61 0.862937 -0.392484 0
M  V30 11048 H 1002.32 3.40072 -0.896869 0
M  V30 11049 H 1002.19 3.67931 0.831046 0
M  V30 11050 H 1004.58 2.73037 1.11959 0
M  V30 11051 H 1004.66 2.4792 -0.630028 0
M  V30 11052 H 1004.3 4.98288 -0.983431 0
M  V30 11053 H 1004.23 5.20754 0.782475 0
M  V30 11054 H 1006.72 3.77564 0.159208 0
M  V30 11055 H 1007.04 7.72217 -0.300217 0
M  V30 11056 H 1005.38 6.94502 -0.263049 0
M  V30 11057 H 1008.57 4.67964 0.112999 0
M  V30 11058 H 1008.75 6.47928 -0.0962747 0
M  V30 11059 N 1002.15 -0.195058 1.56388 0
M  V30 11060 C 1003.38 -0.935745 1.85091 0
M  V30 11061 C 1003.8 -1.76061 0.662118 0
M  V30 11062 O 1003.16 -1.77076 -0.389083 0
M  V30 11063 C 1003.21 -1.80764 3.1202 0
M  V30 11064 O 1002.31 -2.90643 2.92575 0
M  V30 11065 H 1001.65 -0.26351 0.609474 0
M  V30 11066 H 1004.18 -0.200362 2.03617 0
M  V30 11067 H 1004.19 -2.21229 3.42815 0
M  V30 11068 H 1002.87 -1.20157 3.98165 0
M  V30 11069 H 1001.44 -2.53934 2.73079 0
M  V30 11070 N 1003.63 -1.50653 -0.462772 0
M  V30 11071 C 1004.87 -1.637 -1.22399 0
M  V30 11072 C 1005.23 -0.333847 -1.89075 0
M  V30 11073 O 1006.43 -0.339837 -2.66643 0
M  V30 11074 C 1004.71 -2.79018 -2.23347 0
M  V30 11075 S 1006.26 -3.12248 -3.08296 0
M  V30 11076 H 1003.08 -0.576998 -0.415444 0
M  V30 11077 H 1005.68 -1.88468 -0.519631 0
M  V30 11078 H 1004.39 -3.72174 -1.72958 0
M  V30 11079 H 1003.92 -2.56362 -2.98399 0
M  V30 11080 H 1005.93 -2.56716 -4.24631 0
M  V30 11081 N 1005.11 0.71652 -1.4037 0
M  V30 11082 C 1006.36 1.47638 -1.38597 0
M  V30 11083 C 1006.68 1.94496 0.0120141 0
M  V30 11084 O 1005.94 1.68437 0.996373 0
M  V30 11085 C 1006.24 2.71777 -2.32103 0
M  V30 11086 C 1005.9 2.43689 -3.79376 0
M  V30 11087 C 1004.57 2.35739 -4.195 0
M  V30 11088 C 1006.92 2.20099 -4.72447 0
M  V30 11089 C 1004.25 2.02265 -5.50732 0
M  V30 11090 C 1006.6 1.88138 -6.03976 0
M  V30 11091 C 1005.26 1.78669 -6.43143 0
M  V30 11092 H 1004.53 0.540246 -0.507163 0
M  V30 11093 H 1007.18 0.820822 -1.73017 0
M  V30 11094 H 1005.48 3.42166 -1.90865 0
M  V30 11095 H 1007.18 3.29864 -2.28015 0
M  V30 11096 H 1003.77 2.50763 -3.47585 0
M  V30 11097 H 1007.95 2.25198 -4.42266 0
M  V30 11098 H 1003.21 1.93471 -5.79982 0
M  V30 11099 H 1007.38 1.68898 -6.75608 0
M  V30 11100 H 1005.01 1.52498 -7.44747 0
M  V30 11101 N 1006.59 1.25851 0.948643 0
M  V30 11102 C 1007.83 1.10735 1.69062 0
M  V30 11103 C 1008.16 -0.351257 1.9181 0
M  V30 11104 O 1007.43 -1.24867 1.50947 0
M  V30 11105 H 1006.01 0.406796 0.626519 0
M  V30 11106 H 1008.67 1.58066 1.14022 0
M  V30 11107 H 1007.76 1.62033 2.66743 0
M  V30 11108 N 1008.06 -1.15214 1.07534 0
M  V30 11109 C 1009.31 -1.86319 0.800814 0
M  V30 11110 C 1009.64 -1.82221 -0.671494 0
M  V30 11111 O 1008.92 -1.24664 -1.49295 0
M  V30 11112 C 1009.2 -3.35347 1.31203 0
M  V30 11113 C 1009.05 -3.48067 2.84902 0
M  V30 11114 C 1010.37 -4.3016 0.930064 0
M  V30 11115 H 1007.49 -0.676523 0.292379 0
M  V30 11116 H 1010.13 -1.35349 1.33344 0
M  V30 11117 H 1008.28 -3.78886 0.858949 0
M  V30 11118 H 1009.96 -3.13379 3.38514 0
M  V30 11119 H 1008.2 -2.89566 3.23008 0
M  V30 11120 H 1008.87 -4.52782 3.15741 0
M  V30 11121 H 1011.35 -3.94591 1.3205 0
M  V30 11122 H 1010.22 -5.32914 1.31507 0
M  V30 11123 H 1010.48 -4.41796 -0.163824 0
M  V30 11124 N 1009.54 -0.859717 -1.32086 0
M  V30 11125 C 1010.49 -0.296897 -2.30697 0
M  V30 11126 C 1011.48 0.582473 -1.59071 0
M  V30 11127 O 1012.69 0.469713 -1.73763 0
M  V30 11128 H 1009.07 -0.0773132 -0.748015 0
M  V30 11129 H 1011.04 -1.14273 -2.75652 0
M  V30 11130 C 1009.79 0.495546 -3.44151 0
M  V30 11131 H 1009.11 -0.171829 -3.99431 0
M  V30 11132 H 1010.55 0.854854 -4.15293 0
M  V30 11133 C 1009.01 1.68278 -2.91863 0
M  V30 11134 O 1009.54 2.78194 -2.89777 0
M  V30 11135 N 1007.74 1.51151 -2.48197 0
M  V30 11136 H 1007.29 0.617345 -2.50093 0
M  V30 11137 H 1007.25 2.3073 -2.13567 0
M  V30 11138 N 1011.02 1.44971 -0.618145 0
M  V30 11139 C 1012.44 1.57077 -0.282666 0
M  V30 11140 C 1012.64 1.60782 1.21456 0
M  V30 11141 O 1011.69 1.54382 1.99806 0
M  V30 11142 C 1013.01 2.84858 -0.963148 0
M  V30 11143 C 1014.55 2.9855 -0.940062 0
M  V30 11144 C 1015.03 4.29115 -1.60076 0
M  V30 11145 N 1016.52 4.35899 -1.56674 0
M  V30 11146 C 1017.25 5.35617 -2.04701 0
M  V30 11147 N 1016.75 6.41813 -2.6086 0
M  V30 11148 N 1018.54 5.27042 -1.95406 0
M  V30 11149 H 1010.69 1.4081 -1.59017 0
M  V30 11150 H 1012.96 0.673914 -0.666741 0
M  V30 11151 H 1012.66 2.88059 -2.0178 0
M  V30 11152 H 1012.54 3.73966 -0.492901 0
M  V30 11153 H 1014.92 2.94909 0.10607 0
M  V30 11154 H 1015.01 2.10825 -1.44868 0
M  V30 11155 H 1014.65 4.33514 -2.64627 0
M  V30 11156 H 1014.58 5.15675 -1.06708 0
M  V30 11157 H 1017.07 3.59766 -1.15659 0
M  V30 11158 H 1017.38 7.14166 -2.95273 0
M  V30 11159 H 1015.73 6.42534 -2.64905 0
M  V30 11160 H 1018.92 4.42987 -1.51263 0
M  V30 11161 H 1019.09 6.04604 -2.33147 0
M  V30 11162 N 1012.5 0.357919 1.53482 0
M  V30 11163 C 1013.72 -0.237769 2.06033 0
M  V30 11164 C 1014.15 -1.42292 1.23023 0
M  V30 11165 O 1013.51 -1.79604 0.247427 0
M  V30 11166 C 1013.55 -0.616806 3.55286 0
M  V30 11167 O 1012.66 -1.71503 3.75047 0
M  V30 11168 H 1012 -0.0364322 0.663 0
M  V30 11169 H 1014.53 0.516301 1.97979 0
M  V30 11170 H 1014.54 -0.88996 3.98175 0
M  V30 11171 H 1013.21 0.249825 4.15149 0
M  V30 11172 H 1011.79 -1.43803 3.44057 0
M  V30 11173 N 1013.98 -1.5736 0.0868897 0
M  V30 11174 C 1015.22 -1.9367 -0.577598 0
M  V30 11175 C 1015.55 -0.968844 -1.69229 0
M  V30 11176 O 1014.82 -0.0195061 -1.9589 0
M  V30 11177 H 1013.4 -0.714983 -0.216353 0
M  V30 11178 H 1016.06 -1.94335 0.148294 0
M  V30 11179 H 1015.15 -2.95877 -0.993128 0
M  V30 11180 N 1015.45 0.186762 -1.56489 0
M  V30 11181 C 1016.68 0.920495 -1.84961 0
M  V30 11182 C 1017.09 1.77004 -0.668297 0
M  V30 11183 O 1016.44 1.79891 0.37213 0
M  V30 11184 C 1016.5 1.85997 -3.07645 0
M  V30 11185 C 1016.16 1.19156 -4.41193 0
M  V30 11186 C 1017.16 0.564446 -5.16827 0
M  V30 11187 C 1014.84 1.19292 -4.87929 0
M  V30 11188 C 1016.84 -0.0523768 -6.37378 0
M  V30 11189 C 1014.52 0.572266 -6.08415 0
M  V30 11190 C 1015.52 -0.049294 -6.82982 0
M  V30 11191 O 1015.21 -0.660201 -8.01184 0
M  V30 11192 H 1014.94 0.273659 -0.618132 0
M  V30 11193 H 1017.5 0.196437 -2.04459 0
M  V30 11194 H 1015.73 2.62394 -2.84053 0
M  V30 11195 H 1017.42 2.46221 -3.22692 0
M  V30 11196 H 1018.18 0.555474 -4.81809 0
M  V30 11197 H 1014.06 1.66611 -4.29839 0
M  V30 11198 H 1017.6 -0.538133 -6.95521 0
M  V30 11199 H 1013.5 0.578769 -6.429 0
M  V30 11200 H 1014.27 -0.557926 -8.16596 0
M  V30 11201 N 1016.93 1.50896 0.454776 0
M  V30 11202 C 1018.16 1.6648 1.22849 0
M  V30 11203 C 1018.58 0.354841 1.85435 0
M  V30 11204 O 1017.93 -0.664931 1.69956 0
M  V30 11205 C 1017.98 2.76787 2.32532 0
M  V30 11206 O 1017.7 4.02706 1.72509 0
M  V30 11207 C 1019.21 3.03488 3.23125 0
M  V30 11208 H 1016.43 0.559152 0.370932 0
M  V30 11209 H 1018.97 1.97215 0.540983 0
M  V30 11210 H 1017.12 2.48701 2.9703 0
M  V30 11211 H 1017.54 4.63834 2.44863 0
M  V30 11212 H 1019.01 3.84294 3.9626 0
M  V30 11213 H 1019.49 2.152 3.82865 0
M  V30 11214 H 1020.1 3.33167 2.64347 0
M  V30 11215 N 1018.41 -0.709066 1.40748 0
M  V30 11216 C 1019.34 -1.83583 1.4429 0
M  V30 11217 C 1020.32 -1.67378 0.303067 0
M  V30 11218 O 1021.51 -1.87312 0.512612 0
M  V30 11219 C 1018.64 -3.21599 1.31116 0
M  V30 11220 C 1017.59 -3.52486 2.4277 0
M  V30 11221 C 1016.92 -4.89716 2.14668 0
M  V30 11222 C 1018.22 -3.52824 3.85113 0
M  V30 11223 H 1019.91 -1.80876 2.38588 0
M  V30 11224 H 1017.46 -0.868795 1.14839 0
M  V30 11225 H 1019.41 -4.00123 1.32209 0
M  V30 11226 H 1018.13 -3.24898 0.332965 0
M  V30 11227 H 1016.79 -2.76305 2.40937 0
M  V30 11228 H 1016.44 -4.89625 1.15224 0
M  V30 11229 H 1016.14 -5.11347 2.89478 0
M  V30 11230 H 1017.66 -5.70566 2.17455 0
M  V30 11231 H 1019.08 -4.21377 3.88734 0
M  V30 11232 H 1017.48 -3.85984 4.59496 0
M  V30 11233 H 1018.55 -2.52073 4.14231 0
M  V30 11234 N 1019.89 -1.26353 -0.941956 0
M  V30 11235 C 1021.14 -1.11241 -1.68251 0
M  V30 11236 C 1021.45 0.344055 -1.9255 0
M  V30 11237 O 1022.66 0.615832 -2.64423 0
M  V30 11238 C 1021.11 -1.94269 -3.02965 0
M  V30 11239 C 1020.72 -3.44485 -2.86415 0
M  V30 11240 C 1022.47 -1.87764 -3.80716 0
M  V30 11241 C 1020.37 -4.19763 -4.16597 0
M  V30 11242 H 1019.3 -0.412694 -0.63103 0
M  V30 11243 H 1021.95 -1.50656 -1.04762 0
M  V30 11244 H 1020.34 -1.47687 -3.6743 0
M  V30 11245 H 1021.51 -3.9883 -2.30805 0
M  V30 11246 H 1019.82 -3.52218 -2.22107 0
M  V30 11247 H 1022.42 -2.41292 -4.77161 0
M  V30 11248 H 1022.76 -0.848195 -4.07568 0
M  V30 11249 H 1023.3 -2.32165 -3.23024 0
M  V30 11250 H 1020.04 -5.23173 -3.9493 0
M  V30 11251 H 1019.56 -3.70198 -4.71925 0
M  V30 11252 H 1021.24 -4.28168 -4.85058 0
M  V30 11253 N 1021.37 1.14642 -1.08144 0
M  V30 11254 C 1022.78 1.37604 -0.808537 0
M  V30 11255 C 1022.98 1.92868 0.583452 0
M  V30 11256 O 1022.04 2.13964 1.34073 0
M  V30 11257 C 1023.35 2.3396 -1.889 0
M  V30 11258 C 1024.9 2.47605 -1.9147 0
M  V30 11259 C 1025.38 3.47258 -2.98623 0
M  V30 11260 N 1026.87 3.548 -2.97777 0
M  V30 11261 C 1027.6 4.31751 -3.77331 0
M  V30 11262 N 1027.1 5.11966 -4.66757 0
M  V30 11263 N 1028.89 4.2692 -3.65645 0
M  V30 11264 H 1021.04 0.771154 -1.97906 0
M  V30 11265 H 1023.3 0.401694 -0.858688 0
M  V30 11266 H 1023.01 2.00484 -2.88962 0
M  V30 11267 H 1022.88 3.33833 -1.756 0
M  V30 11268 H 1025.27 2.80375 -0.920548 0
M  V30 11269 H 1025.35 1.47702 -2.08848 0
M  V30 11270 H 1025 3.15223 -3.98243 0
M  V30 11271 H 1024.93 4.46935 -2.7849 0
M  V30 11272 H 1027.42 2.97553 -2.3296 0
M  V30 11273 H 1027.73 5.67951 -5.24072 0
M  V30 11274 H 1026.08 5.11245 -4.70801 0
M  V30 11275 H 1029.27 3.63322 -2.95152 0
M  V30 11276 H 1029.44 4.8664 -4.27885 0
M  V30 11277 N 1022.85 0.866709 1.31628 0
M  V30 11278 C 1023.79 0.318169 2.28596 0
M  V30 11279 C 1024.76 -0.581558 1.55586 0
M  V30 11280 O 1025.95 -0.513895 1.83749 0
M  V30 11281 C 1023.09 -0.477137 3.41786 0
M  V30 11282 C 1022.2 0.449739 4.29653 0
M  V30 11283 C 1021.34 -0.359373 5.29983 0
M  V30 11284 C 1020.37 0.564138 6.09495 0
M  V30 11285 N 1019.51 -0.208526 7.0179 0
M  V30 11286 H 1024.35 1.15029 2.74904 0
M  V30 11287 H 1021.89 0.578649 1.35241 0
M  V30 11288 H 1023.85 -0.953985 4.06146 0
M  V30 11289 H 1022.48 -1.27398 2.96597 0
M  V30 11290 H 1021.53 1.04502 3.65764 0
M  V30 11291 H 1022.84 1.158 4.85172 0
M  V30 11292 H 1021.99 -0.89887 6.00004 0
M  V30 11293 H 1020.73 -1.10094 4.75111 0
M  V30 11294 H 1019.74 1.11542 5.38366 0
M  V30 11295 H 1020.96 1.30451 6.66453 0
M  V30 11296 H 1018.91 -0.932969 6.49332 0
M  V30 11297 H 1018.83 0.440463 7.54716 0
M  V30 11298 H 1020.09 -0.72936 7.7608 0
M  V30 11299 N 1024.32 -1.44642 0.625825 0
M  V30 11300 C 1025.6 -1.9551 0.0593587 0
M  V30 11301 C 1025.98 -1.56792 -1.41349 0
M  V30 11302 O 1025.33 -0.839373 -2.12525 0
M  V30 11303 C 1025.54 -3.47902 0.276647 0
M  V30 11304 C 1026.89 -4.24271 0.167044 0
M  V30 11305 O 1027.91 -3.55594 0.207731 0
M  V30 11306 O 1026.77 -5.46458 0.0675 0
M  V30 11307 H 1023.86 -0.826612 -0.0253422 0
M  V30 11308 H 1026.41 -1.54718 0.697159 0
M  V30 11309 H 1025.18 -3.69115 1.29885 0
M  V30 11310 H 1024.8 -3.95628 -0.395547 0
M  V30 11311 N 1025.8 -0.366053 -1.5329 0
M  V30 11312 C 1027.03 0.226839 -2.06156 0
M  V30 11313 C 1027.45 1.41637 -1.23776 0
M  V30 11314 O 1026.81 1.7947 -0.256948 0
M  V30 11315 C 1026.86 0.597956 -3.55608 0
M  V30 11316 O 1025.96 1.69512 -3.75951 0
M  V30 11317 H 1025.3 0.0329156 -0.663184 0
M  V30 11318 H 1027.83 -0.526793 -1.97702 0
M  V30 11319 H 1027.84 0.868831 -3.98642 0
M  V30 11320 H 1026.52 -0.271838 -4.15011 0
M  V30 11321 H 1025.09 1.41976 -3.44815 0
M  V30 11322 N 1027.28 1.57312 -0.0952337 0
M  V30 11323 C 1028.19 2.17556 0.877877 0
M  V30 11324 C 1029.21 1.14505 1.31014 0
M  V30 11325 O 1030.38 1.46876 1.37802 0
M  V30 11326 C 1027.45 2.74413 2.11892 0
M  V30 11327 C 1026.51 3.92419 1.74085 0
M  V30 11328 C 1025.74 4.46556 2.92273 0
M  V30 11329 O 1025.96 3.99631 4.07002 0
M  V30 11330 O 1024.9 5.37576 2.70732 0
M  V30 11331 H 1028.72 3.01116 0.395312 0
M  V30 11332 H 1026.31 1.48841 0.129123 0
M  V30 11333 H 1028.19 3.10754 2.84622 0
M  V30 11334 H 1026.87 1.93899 2.59201 0
M  V30 11335 H 1025.77 3.6089 0.985346 0
M  V30 11336 H 1027.11 4.74298 1.31539 0
M  V30 11337 N 1028.76 -0.17846 1.56586 0
M  V30 11338 C 1029.67 -1.24115 1.9908 0
M  V30 11339 C 1030.68 -1.48854 0.901031 0
M  V30 11340 O 1031.86 -1.61142 1.2081 0
M  V30 11341 C 1028.92 -2.56187 2.33601 0
M  V30 11342 C 1027.99 -2.39373 3.56369 0
M  V30 11343 C 1027.22 -3.65147 3.89234 0
M  V30 11344 O 1027.44 -4.70024 3.23162 0
M  V30 11345 O 1026.38 -3.59683 4.82609 0
M  V30 11346 H 1030.2 -0.910482 2.89731 0
M  V30 11347 H 1027.79 -0.38477 1.4436 0
M  V30 11348 H 1029.67 -3.34109 2.56806 0
M  V30 11349 H 1028.34 -2.88847 1.46113 0
M  V30 11350 H 1027.25 -1.59506 3.38391 0
M  V30 11351 H 1028.58 -2.1164 4.44375 0
M  V30 11352 N 1030.24 -1.51135 -0.446768 0
M  V30 11353 C 1031.15 -1.74595 -1.56696 0
M  V30 11354 C 1032.16 -0.629816 -1.62201 0
M  V30 11355 O 1033.34 -0.910987 -1.79619 0
M  V30 11356 C 1030.4 -1.85738 -2.9275 0
M  V30 11357 C 1029.46 -3.09564 -2.97437 0
M  V30 11358 C 1028.7 -3.20165 -4.27001 0
M  V30 11359 O 1028.92 -2.36939 -5.1886 0
M  V30 11360 O 1027.85 -4.13077 -4.3778 0
M  V30 11361 H 1031.68 -2.69601 -1.39817 0
M  V30 11362 H 1029.26 -1.35523 -0.628805 0
M  V30 11363 H 1031.15 -1.95107 -3.73512 0
M  V30 11364 H 1029.82 -0.939184 -3.09776 0
M  V30 11365 H 1028.73 -3.05679 -2.15664 0
M  V30 11366 H 1030.06 -4.01041 -2.85353 0
M  V30 11367 N 1031.71 0.701592 -1.41122 0
M  V30 11368 C 1032.96 1.46376 -1.40363 0
M  V30 11369 C 1033.29 1.94197 -0.0105442 0
M  V30 11370 O 1032.57 1.69121 0.960637 0
M  V30 11371 C 1032.85 2.67994 -2.40523 0
M  V30 11372 C 1032.7 2.25977 -3.88914 0
M  V30 11373 C 1034.02 3.70181 -2.38022 0
M  V30 11374 H 1031.14 0.530929 -0.511159 0
M  V30 11375 H 1033.78 0.799588 -1.72356 0
M  V30 11376 H 1031.93 3.24661 -2.13372 0
M  V30 11377 H 1033.61 1.74684 -4.26946 0
M  V30 11378 H 1031.85 1.57826 -4.04071 0
M  V30 11379 H 1032.52 3.13215 -4.54533 0
M  V30 11380 H 1035 3.23174 -2.62103 0
M  V30 11381 H 1033.87 4.52894 -3.10127 0
M  V30 11382 H 1034.13 4.19458 -1.3967 0
M  V30 11383 N 1033.19 1.2685 0.935242 0
M  V30 11384 C 1034.42 1.15645 1.72165 0
M  V30 11385 C 1034.84 -0.283909 1.85945 0
M  V30 11386 O 1034.2 -1.20567 1.354 0
M  V30 11387 C 1034.25 1.83689 3.10307 0
M  V30 11388 O 1033.35 1.12972 3.96625 0
M  V30 11389 H 1032.69 0.402629 0.528002 0
M  V30 11390 H 1035.22 1.67781 1.17093 0
M  V30 11391 H 1035.23 1.90749 3.60664 0
M  V30 11392 H 1033.91 2.88472 2.99595 0
M  V30 11393 H 1032.48 1.13929 3.5507 0
M  V30 11394 N 1034.67 -1.14067 1.0875 0
M  V30 11395 C 1035.6 -2.21385 0.74236 0
M  V30 11396 C 1036.58 -1.67833 -0.276805 0
M  V30 11397 O 1037.77 -1.93647 -0.1464 0
M  V30 11398 C 1034.9 -3.46956 0.154644 0
M  V30 11399 C 1033.85 -4.13555 1.10255 0
M  V30 11400 C 1033.18 -5.3337 0.376877 0
M  V30 11401 C 1034.48 -4.6169 2.44213 0
M  V30 11402 H 1036.17 -2.50512 1.63964 0
M  V30 11403 H 1033.72 -1.20408 0.789807 0
M  V30 11404 H 1035.67 -4.21284 -0.0988419 0
M  V30 11405 H 1034.39 -3.17203 -0.777789 0
M  V30 11406 H 1033.05 -3.41186 1.34119 0
M  V30 11407 H 1032.7 -4.99879 -0.559472 0
M  V30 11408 H 1032.4 -5.78875 1.00884 0
M  V30 11409 H 1033.92 -6.10458 0.131527 0
M  V30 11410 H 1035.34 -5.27475 2.24595 0
M  V30 11411 H 1033.74 -5.17909 3.03134 0
M  V30 11412 H 1034.81 -3.76574 3.05483 0
M  V30 11413 N 1036.15 -0.873678 -1.31166 0
M  V30 11414 C 1037.08 -0.348011 -2.30892 0
M  V30 11415 C 1038.06 0.563092 -1.60509 0
M  V30 11416 O 1039.24 0.479332 -1.88192 0
M  V30 11417 C 1036.37 0.448158 -3.44396 0
M  V30 11418 C 1035.33 -0.370179 -4.26396 0
M  V30 11419 C 1034.65 0.551903 -5.31844 0
M  V30 11420 C 1035.95 -1.60624 -4.96988 0
M  V30 11421 H 1037.65 -1.18134 -2.75109 0
M  V30 11422 H 1035.19 -0.569502 -1.3226 0
M  V30 11423 H 1037.15 0.826458 -4.13216 0
M  V30 11424 H 1035.87 1.31503 -2.98956 0
M  V30 11425 H 1034.53 -0.730472 -3.59249 0
M  V30 11426 H 1034.18 1.41616 -4.82653 0
M  V30 11427 H 1033.88 0.00823478 -5.87599 0
M  V30 11428 H 1035.4 0.926965 -6.03523 0
M  V30 11429 H 1036.82 -1.29917 -5.58386 0
M  V30 11430 H 1035.21 -2.08926 -5.62557 0
M  V30 11431 H 1036.28 -2.357 -4.23761 0
M  V30 11432 N 1037.63 1.44308 -0.633487 0
M  V30 11433 C 1038.87 2.01624 -0.138643 0
M  V30 11434 C 1039.2 1.50101 1.24477 0
M  V30 11435 O 1038.47 0.705575 1.82752 0
M  V30 11436 H 1037.05 0.745439 -0.0482636 0
M  V30 11437 H 1039.71 1.76777 -0.820719 0
M  V30 11438 H 1038.8 3.11913 -0.108136 0
M  V30 11439 N 1039.1 0.374177 1.53094 0
M  V30 11440 C 1040.33 -0.215903 2.06273 0
M  V30 11441 C 1040.75 -1.40979 1.24526 0
M  V30 11442 O 1040.11 -1.79331 0.266462 0
M  V30 11443 C 1040.16 -0.579089 3.5592 0
M  V30 11444 O 1039.26 -1.67516 3.76845 0
M  V30 11445 H 1038.61 -0.0293981 0.663349 0
M  V30 11446 H 1041.14 0.537271 1.9742 0
M  V30 11447 H 1041.15 -0.847678 3.99097 0
M  V30 11448 H 1039.82 0.293843 4.14861 0
M  V30 11449 H 1038.4 -1.40146 3.45563 0
M  V30 11450 N 1040.58 -1.57259 0.103575 0
M  V30 11451 C 1041.51 -2.1153 -0.882472 0
M  V30 11452 C 1042.53 -1.05446 -1.24036 0
M  V30 11453 O 1043.72 -1.32867 -1.192 0
M  V30 11454 C 1040.82 -2.58717 -2.18903 0
M  V30 11455 C 1039.99 -3.8873 -2.00519 0
M  V30 11456 C 1039.05 -4.21675 -3.14764 0
M  V30 11457 O 1038.07 -4.90755 -2.88355 0
M  V30 11458 N 1039.28 -3.77757 -4.40772 0
M  V30 11459 H 1042.04 -2.96758 -0.418901 0
M  V30 11460 H 1039.6 -1.61696 -0.0812921 0
M  V30 11461 H 1041.59 -2.77797 -2.94297 0
M  V30 11462 H 1040.16 -1.78454 -2.56657 0
M  V30 11463 H 1039.38 -3.78714 -1.09406 0
M  V30 11464 H 1040.67 -4.73771 -1.85522 0
M  V30 11465 H 1040.07 -3.22011 -4.65108 0
M  V30 11466 H 1038.63 -4.01975 -5.13088 0
M  V30 11467 N 1042.06 0.170153 -1.56679 0
M  V30 11468 C 1043.34 0.913938 -1.72935 0
M  V30 11469 C 1043.72 2.00342 -0.665293 0
M  V30 11470 O 1043.07 2.26252 0.319715 0
M  V30 11471 C 1043.28 1.47761 -3.16177 0
M  V30 11472 C 1044.62 1.95007 -3.7717 0
M  V30 11473 O 1045.65 1.57552 -3.19462 0
M  V30 11474 O 1044.51 2.64007 -4.78501 0
M  V30 11475 H 1041.6 0.43027 -0.706256 0
M  V30 11476 H 1044.15 0.157891 -1.68964 0
M  V30 11477 H 1042.92 0.69352 -3.85105 0
M  V30 11478 H 1042.54 2.2978 -3.24479 0
M  V30 11479 N 1043.54 1.5137 0.438746 0
M  V30 11480 C 1044.79 1.63202 1.18524 0
M  V30 11481 C 1045.1 0.353408 1.92381 0
M  V30 11482 O 1046.31 0.351086 2.6922 0
M  V30 11483 C 1044.76 2.88218 2.15542 0
M  V30 11484 C 1044.37 4.23078 1.47339 0
M  V30 11485 C 1046.11 3.09407 2.90633 0
M  V30 11486 C 1044.02 5.39246 2.42833 0
M  V30 11487 H 1042.95 0.607864 0.446114 0
M  V30 11488 H 1045.6 1.77835 0.452421 0
M  V30 11489 H 1043.98 2.67216 2.92253 0
M  V30 11490 H 1045.16 4.54457 0.761964 0
M  V30 11491 H 1043.47 4.07755 0.844065 0
M  V30 11492 H 1046.07 3.9337 3.62165 0
M  V30 11493 H 1046.41 2.22428 3.51897 0
M  V30 11494 H 1046.95 3.30743 2.21029 0
M  V30 11495 H 1043.69 6.2848 1.8626 0
M  V30 11496 H 1043.21 5.12245 3.12034 0
M  V30 11497 H 1044.88 5.71137 3.03992 0
M  V30 11498 N 1045.02 -0.694098 1.41492 0
M  V30 11499 C 1045.93 -1.83778 1.45818 0
M  V30 11500 C 1046.94 -1.70471 0.348639 0
M  V30 11501 O 1048.12 -1.92361 0.596588 0
M  V30 11502 C 1045.18 -3.19771 1.33967 0
M  V30 11503 C 1044.24 -3.45175 2.5525 0
M  V30 11504 C 1043.48 -4.74681 2.43955 0
M  V30 11505 O 1043.7 -5.51268 1.46491 0
M  V30 11506 O 1042.63 -5.00901 3.33739 0
M  V30 11507 H 1046.46 -1.83084 2.42309 0
M  V30 11508 H 1044.05 -0.847349 1.23046 0
M  V30 11509 H 1045.93 -4.00961 1.29648 0
M  V30 11510 H 1044.6 -3.21145 0.405926 0
M  V30 11511 H 1043.51 -2.6391 2.65146 0
M  V30 11512 H 1044.84 -3.48617 3.47458 0
M  V30 11513 N 1046.49 -1.27344 -0.928501 0
M  V30 11514 C 1047.4 -1.11812 -2.06241 0
M  V30 11515 C 1048.42 -0.048347 -1.73933 0
M  V30 11516 O 1049.6 -0.25467 -1.99783 0
M  V30 11517 C 1046.66 -0.766036 -3.38131 0
M  V30 11518 C 1045.72 -1.91659 -3.84142 0
M  V30 11519 C 1044.96 -1.58121 -5.09738 0
M  V30 11520 O 1045.18 -0.488742 -5.68302 0
M  V30 11521 O 1044.11 -2.42013 -5.51102 0
M  V30 11522 H 1047.94 -2.06967 -2.22258 0
M  V30 11523 H 1045.52 -1.06524 -1.04752 0
M  V30 11524 H 1047.41 -0.582982 -4.17348 0
M  V30 11525 H 1046.08 0.155998 -3.23324 0
M  V30 11526 H 1044.99 -2.1547 -3.05816 0
M  V30 11527 H 1046.32 -2.8188 -4.0349 0
M  V30 11528 N 1047.97 1.13488 -1.09353 0
M  V30 11529 C 1049.22 1.84383 -0.827488 0
M  V30 11530 C 1049.54 1.83892 0.648745 0
M  V30 11531 O 1048.81 1.29415 1.47066 0
M  V30 11532 H 1047.39 0.682732 -0.303127 0
M  V30 11533 H 1050.05 1.37477 -1.38152 0
M  V30 11534 H 1049.15 2.88919 -1.18035 0
M  V30 11535 N 1049.45 0.880621 1.30701 0
M  V30 11536 C 1050.4 0.333562 2.30196 0
M  V30 11537 C 1051.39 -0.557092 1.59978 0
M  V30 11538 O 1052.6 -0.442009 1.74489 0
M  V30 11539 H 1048.97 0.0892036 0.746691 0
M  V30 11540 H 1050.95 1.18644 2.73799 0
M  V30 11541 C 1049.69 -0.440731 3.44895 0
M  V30 11542 H 1049.02 0.235353 3.99107 0
M  V30 11543 H 1050.46 -0.788676 4.166 0
M  V30 11544 C 1048.92 -1.63613 2.94504 0
M  V30 11545 O 1049.45 -2.73549 2.94166 0
M  V30 11546 N 1047.65 -1.47183 2.5057 0
M  V30 11547 H 1047.2 -0.577479 2.51044 0
M  V30 11548 H 1047.16 -2.27303 2.17211 0
M  V30 11549 N 1050.93 -1.4397 0.641131 0
M  V30 11550 C 1051.88 -2.2786 -0.079879 0
M  V30 11551 C 1052.86 -1.39227 -0.80651 0
M  V30 11552 O 1054.06 -1.62956 -0.690969 0
M  V30 11553 C 1051.18 -3.26722 -1.05394 0
M  V30 11554 C 1050.27 -4.22842 -0.326411 0
M  V30 11555 N 1050.66 -5.016 0.650464 0
M  V30 11556 C 1048.96 -4.42349 -0.569507 0
M  V30 11557 C 1049.66 -5.71563 1.08121 0
M  V30 11558 N 1048.64 -5.41991 0.417932 0
M  V30 11559 H 1052.44 -2.86163 0.669906 0
M  V30 11560 H 1049.95 -1.55528 0.467433 0
M  V30 11561 H 1051.95 -3.85588 -1.58517 0
M  V30 11562 H 1050.61 -2.69979 -1.80392 0
M  V30 11563 H 1051.62 -5.07581 1.0287 0
M  V30 11564 H 1048.3 -3.96693 -1.30159 0
M  V30 11565 H 1049.69 -6.44805 1.88883 0
M  V30 11566 N 1052.41 -0.382291 -1.52893 0
M  V30 11567 C 1053.34 0.491199 -2.23875 0
M  V30 11568 C 1054.35 1.03249 -1.25871 0
M  V30 11569 O 1055.54 0.936016 -1.5199 0
M  V30 11570 C 1052.64 1.6927 -2.936 0
M  V30 11571 C 1051.81 1.28 -4.18252 0
M  V30 11572 C 1050.87 2.34541 -4.71038 0
M  V30 11573 O 1049.9 1.96239 -5.34302 0
M  V30 11574 N 1051.1 3.6636 -4.50289 0
M  V30 11575 H 1053.87 -0.116897 -2.99472 0
M  V30 11576 H 1051.43 -0.208296 -1.60554 0
M  V30 11577 H 1053.42 2.40054 -3.25816 0
M  V30 11578 H 1051.99 2.20729 -2.21354 0
M  V30 11579 H 1051.21 0.40133 -3.92152 0
M  V30 11580 H 1052.5 0.98082 -4.99257 0
M  V30 11581 H 1051.9 4.00245 -3.99775 0
M  V30 11582 H 1050.45 4.332 -4.87013 0
M  V30 11583 N 1053.89 1.57202 -0.111913 0
M  V30 11584 C 1055.13 1.95239 0.548607 0
M  V30 11585 C 1055.46 0.994897 1.6678 0
M  V30 11586 O 1054.74 0.0308603 1.94476 0
M  V30 11587 C 1055.02 3.43271 1.08798 0
M  V30 11588 C 1054.88 4.49792 -0.0273064 0
M  V30 11589 C 1056.19 3.92989 1.98109 0
M  V30 11590 H 1053.31 0.709919 0.197951 0
M  V30 11591 H 1055.96 1.89087 -0.186036 0
M  V30 11592 H 1054.11 3.48644 1.71404 0
M  V30 11593 H 1055.78 4.56521 -0.662302 0
M  V30 11594 H 1054.02 4.28254 -0.691426 0
M  V30 11595 H 1054.69 5.50612 0.391201 0
M  V30 11596 H 1057.17 3.89875 1.45385 0
M  V30 11597 H 1056.04 4.97101 2.32769 0
M  V30 11598 H 1056.3 3.33267 2.90492 0
M  V30 11599 N 1055.36 -0.161842 1.56767 0
M  V30 11600 C 1056.27 -1.21996 2.00385 0
M  V30 11601 C 1057.29 -1.4789 0.916768 0
M  V30 11602 O 1058.47 -1.59852 1.22513 0
M  V30 11603 C 1055.53 -2.53695 2.36305 0
M  V30 11604 C 1054.59 -2.3558 3.58888 0
M  V30 11605 C 1053.82 -3.60998 3.93085 0
M  V30 11606 O 1054.05 -4.6657 3.28129 0
M  V30 11607 O 1052.98 -3.54544 4.86397 0
M  V30 11608 H 1056.81 -0.879701 2.9068 0
M  V30 11609 H 1054.39 -0.369437 1.4476 0
M  V30 11610 H 1056.27 -3.31366 2.60335 0
M  V30 11611 H 1054.95 -2.87281 1.49169 0
M  V30 11612 H 1053.86 -1.55908 3.40064 0
M  V30 11613 H 1055.19 -2.06915 4.46595 0
M  V30 11614 N 1056.84 -1.516 -0.430713 0
M  V30 11615 C 1058.12 -1.55142 -1.19123 0
M  V30 11616 C 1058.5 -0.319596 -2.08667 0
M  V30 11617 O 1057.85 0.694927 -2.17676 0
M  V30 11618 C 1058.06 -2.86891 -1.98732 0
M  V30 11619 C 1059.4 -3.39089 -2.55546 0
M  V30 11620 O 1060.43 -2.88486 -2.08936 0
M  V30 11621 O 1059.29 -4.27401 -3.40574 0
M  V30 11622 H 1056.38 -0.624019 -0.542705 0
M  V30 11623 H 1058.93 -1.63917 -0.439244 0
M  V30 11624 H 1057.7 -3.68002 -1.33005 0
M  V30 11625 H 1057.32 -2.81309 -2.80982 0
M  V30 11626 N 1058.32 0.686584 -1.41858 0
M  V30 11627 C 1059.57 1.44379 -1.41418 0
M  V30 11628 C 1059.89 1.94981 -0.0273696 0
M  V30 11629 O 1059.16 1.72296 0.932248 0
M  V30 11630 H 1057.74 0.53574 -0.520568 0
M  V30 11631 H 1060.4 0.812056 -1.77177 0
M  V30 11632 H 1059.5 2.30258 -2.10684 0
M  V30 11633 N 1059.8 1.27835 0.921735 0
M  V30 11634 C 1061.04 1.15766 1.68457 0
M  V30 11635 C 1061.4 -0.290542 1.89789 0
M  V30 11636 O 1062.6 -0.53378 2.63447 0
M  V30 11637 C 1060.87 1.92591 3.0107 0
M  V30 11638 S 1062.43 1.96804 3.92191 0
M  V30 11639 H 1059.25 0.413169 0.578629 0
M  V30 11640 H 1061.85 1.61826 1.09693 0
M  V30 11641 H 1060.56 2.96991 2.8324 0
M  V30 11642 H 1060.09 1.47049 3.64884 0
M  V30 11643 H 1062.1 1.06877 4.84553 0
M  V30 11644 N 1061.28 -1.12907 1.09954 0
M  V30 11645 C 1062.69 -1.363 0.830326 0
M  V30 11646 C 1062.89 -1.93772 -0.552694 0
M  V30 11647 O 1061.95 -2.1607 -1.30652 0
M  V30 11648 C 1063.26 -2.30925 1.92598 0
M  V30 11649 C 1064.81 -2.44528 1.95385 0
M  V30 11650 C 1065.28 -3.42464 3.0411 0
M  V30 11651 N 1066.77 -3.50018 3.03384 0
M  V30 11652 C 1067.51 -4.25693 3.84152 0
M  V30 11653 N 1067.01 -5.04476 4.74843 0
M  V30 11654 N 1068.8 -4.21049 3.7239 0
M  V30 11655 H 1060.95 -0.739571 1.99108 0
M  V30 11656 H 1063.21 -0.387983 0.86497 0
M  V30 11657 H 1062.92 -1.95861 2.92115 0
M  V30 11658 H 1062.79 -3.30997 1.80889 0
M  V30 11659 H 1065.18 -2.78875 0.965037 0
M  V30 11660 H 1065.26 -1.44361 2.11172 0
M  V30 11661 H 1064.9 -3.08847 4.03207 0
M  V30 11662 H 1064.83 -4.42448 2.85565 0
M  V30 11663 H 1067.33 -2.93809 2.37665 0
M  V30 11664 H 1067.64 -5.59541 5.33042 0
M  V30 11665 H 1065.98 -5.0369 4.78875 0
M  V30 11666 H 1069.17 -3.5858 3.00895 0
M  V30 11667 H 1069.35 -4.79771 4.35572 0
M  V30 11668 N 1062.75 -0.88754 -1.30232 0
M  V30 11669 C 1063.66 -0.360333 -2.31816 0
M  V30 11670 C 1064.68 0.538741 -1.6545 0
M  V30 11671 O 1065.86 0.431246 -1.96729 0
M  V30 11672 C 1062.92 0.414336 -3.44215 0
M  V30 11673 C 1061.98 -0.514799 -4.26202 0
M  V30 11674 C 1061.21 0.222994 -5.33234 0
M  V30 11675 O 1061.44 1.44871 -5.51696 0
M  V30 11676 O 1060.37 -0.428221 -6.00375 0
M  V30 11677 H 1064.2 -1.20279 -2.78867 0
M  V30 11678 H 1061.78 -0.651459 -1.34448 0
M  V30 11679 H 1063.66 0.852859 -4.12679 0
M  V30 11680 H 1062.34 1.23305 -2.99295 0
M  V30 11681 H 1061.25 -1.00219 -3.60426 0
M  V30 11682 H 1062.58 -1.29959 -4.74733 0
M  V30 11683 N 1064.23 1.43628 -0.648757 0
M  V30 11684 C 1065.17 2.28001 0.0952198 0
M  V30 11685 C 1066.14 1.39569 0.834225 0
M  V30 11686 O 1067.33 1.69011 0.834711 0
M  V30 11687 C 1064.45 3.18886 1.14145 0
M  V30 11688 C 1063.5 4.23547 0.500996 0
M  V30 11689 S 1064.33 5.30609 -0.722118 0
M  V30 11690 C 1065.49 6.25062 0.323687 0
M  V30 11691 H 1065.72 2.90752 -0.620511 0
M  V30 11692 H 1063.26 1.48073 -0.437457 0
M  V30 11693 H 1065.21 3.71795 1.74008 0
M  V30 11694 H 1063.87 2.55322 1.82947 0
M  V30 11695 H 1063.07 4.87224 1.28954 0
M  V30 11696 H 1062.67 3.73993 -0.0234176 0
M  V30 11697 H 1064.96 6.66946 1.19118 0
M  V30 11698 H 1065.9 7.07554 -0.277939 0
M  V30 11699 H 1066.31 5.60658 0.657493 0
M  V30 11700 N 1065.71 0.390394 1.52688 0
M  V30 11701 C 1066.67 -0.432149 2.25089 0
M  V30 11702 C 1067.67 -0.989296 1.26766 0
M  V30 11703 O 1068.86 -0.871126 1.50854 0
M  V30 11704 C 1066 -1.60642 3.00678 0
M  V30 11705 H 1067.19 0.201734 2.99221 0
M  V30 11706 H 1064.74 0.142531 1.55649 0
M  V30 11707 H 1065.48 -2.2777 2.3085 0
M  V30 11708 H 1065.26 -1.21361 3.72846 0
M  V30 11709 H 1066.75 -2.18873 3.55647 0
M  V30 11710 N 1067.19 -1.57141 0.120249 0
M  V30 11711 C 1068.43 -1.97124 -0.540521 0
M  V30 11712 C 1068.79 -1.0022 -1.63768 0
M  V30 11713 O 1069.99 -1.29146 -2.35743 0
M  V30 11714 C 1068.26 -3.41371 -1.05833 0
M  V30 11715 S 1069.82 -4.03367 -1.72745 0
M  V30 11716 H 1066.64 -0.688962 -0.175646 0
M  V30 11717 H 1069.24 -1.94416 0.205625 0
M  V30 11718 H 1067.95 -4.09646 -0.248656 0
M  V30 11719 H 1067.48 -3.47732 -1.83972 0
M  V30 11720 H 1069.49 -3.94227 -3.0133 0
M  V30 11721 N 1068.67 0.153526 -1.5685 0
M  V30 11722 C 1069.58 1.20932 -2.01029 0
M  V30 11723 C 1070.59 1.47401 -0.924598 0
M  V30 11724 O 1071.77 1.592 -1.23359 0
M  V30 11725 C 1068.83 2.52438 -2.37647 0
M  V30 11726 C 1067.89 2.33673 -3.60132 0
M  V30 11727 C 1067.13 3.58909 -3.94994 0
M  V30 11728 O 1067.35 4.64823 -3.30599 0
M  V30 11729 O 1066.28 3.5196 -4.8827 0
M  V30 11730 H 1070.11 0.864273 -2.91143 0
M  V30 11731 H 1067.7 0.361755 -1.44954 0
M  V30 11732 H 1069.58 3.29981 -2.62088 0
M  V30 11733 H 1068.25 2.86486 -1.5069 0
M  V30 11734 H 1067.16 1.54102 -3.40886 0
M  V30 11735 H 1068.49 2.04544 -4.47686 0
M  V30 11736 N 1070.14 1.51827 0.422667 0
M  V30 11737 C 1071.05 1.77066 1.53899 0
M  V30 11738 C 1072.07 0.655541 1.61179 0
M  V30 11739 O 1073.25 0.939448 1.78147 0
M  V30 11740 C 1070.31 1.90372 2.89758 0
M  V30 11741 C 1069.37 3.14256 2.92475 0
M  V30 11742 C 1068.61 3.26918 4.21853 0
M  V30 11743 O 1068.83 2.45164 5.15025 0
M  V30 11744 O 1067.76 4.19989 4.31153 0
M  V30 11745 H 1071.59 2.71791 1.35511 0
M  V30 11746 H 1069.17 1.36506 0.607165 0
M  V30 11747 H 1071.06 2.01024 3.70361 0
M  V30 11748 H 1069.73 0.988347 3.08242 0
M  V30 11749 H 1068.64 3.09072 2.10773 0
M  V30 11750 H 1069.97 4.0553 2.78937 0
M  V30 11751 N 1071.62 -0.679052 1.4222 0
M  V30 11752 C 1072.87 -1.43912 1.42463 0
M  V30 11753 C 1073.2 -1.9446 0.0395574 0
M  V30 11754 O 1072.45 -1.71019 -0.951365 0
M  V30 11755 C 1072.75 -2.65528 2.39227 0
M  V30 11756 C 1072.42 -2.33545 3.85704 0
M  V30 11757 C 1071.08 -2.24534 4.25603 0
M  V30 11758 C 1073.43 -2.07496 4.78116 0
M  V30 11759 C 1070.76 -1.87592 5.55901 0
M  V30 11760 C 1073.11 -1.72059 6.08752 0
M  V30 11761 C 1071.78 -1.61555 6.47654 0
M  V30 11762 H 1071.05 -0.52661 0.521309 0
M  V30 11763 H 1073.69 -0.774661 1.75132 0
M  V30 11764 H 1072 -3.36985 1.9987 0
M  V30 11765 H 1073.69 -3.23702 2.36681 0
M  V30 11766 H 1070.28 -2.4146 3.54112 0
M  V30 11767 H 1074.47 -2.13393 4.48082 0
M  V30 11768 H 1069.72 -1.78026 5.84908 0
M  V30 11769 H 1073.9 -1.50926 6.79849 0
M  V30 11770 H 1071.53 -1.32699 7.48529 0
M  V30 11771 N 1073.1 -1.28322 -0.914942 0
M  V30 11772 C 1074.05 -1.12003 -2.03858 0
M  V30 11773 C 1075.04 -0.0396287 -1.69354 0
M  V30 11774 O 1076.25 -0.198309 -1.78904 0
M  V30 11775 H 1072.62 -0.34552 -0.667922 0
M  V30 11776 H 1074.59 -2.07168 -2.14765 0
M  V30 11777 C 1073.34 -0.797402 -3.38433 0
M  V30 11778 H 1072.67 -1.62071 -3.65476 0
M  V30 11779 H 1074.11 -0.723165 -4.17787 0
M  V30 11780 C 1072.57 0.498807 -3.33187 0
M  V30 11781 O 1073.1 1.52946 -3.71444 0
M  V30 11782 N 1071.3 0.499101 -2.86282 0
M  V30 11783 H 1070.85 -0.340056 -2.55346 0
M  V30 11784 H 1070.81 1.36641 -2.83155 0
M  V30 11785 N 1074.58 1.12322 -1.10551 0
M  V30 11786 C 1075.83 1.83858 -0.848674 0
M  V30 11787 C 1076.15 1.84159 0.62575 0
M  V30 11788 O 1075.41 1.28341 1.4774 0
M  V30 11789 C 1075.71 3.31177 -1.34375 0
M  V30 11790 C 1075.37 3.51046 -2.8298 0
M  V30 11791 C 1074.04 3.56177 -3.23561 0
M  V30 11792 C 1076.39 3.58061 -3.78737 0
M  V30 11793 C 1073.72 3.65868 -4.58647 0
M  V30 11794 C 1076.07 3.69283 -5.13627 0
M  V30 11795 C 1074.73 3.7267 -5.53781 0
M  V30 11796 H 1074 0.672784 -0.310552 0
M  V30 11797 H 1076.65 1.3253 -1.38232 0
M  V30 11798 H 1074.95 3.84937 -0.730144 0
M  V30 11799 H 1076.65 3.84998 -1.12148 0
M  V30 11800 H 1073.24 3.47716 -2.50582 0
M  V30 11801 H 1077.42 3.53366 -3.48491 0
M  V30 11802 H 1072.68 3.66763 -4.89178 0
M  V30 11803 H 1076.85 3.73654 -5.8767 0
M  V30 11804 H 1074.48 3.79932 -6.58449 0
M  V30 11805 N 1076.06 0.894434 1.2976 0
M  V30 11806 C 1077.3 0.516646 1.95385 0
M  V30 11807 C 1077.63 -0.939141 1.70895 0
M  V30 11808 O 1076.9 -1.66153 1.03778 0
M  V30 11809 H 1075.48 0.188072 0.722937 0
M  V30 11810 H 1078.14 1.13958 1.58113 0
M  V30 11811 H 1077.23 0.694819 3.04267 0
M  V30 11812 N 1077.53 -1.43282 0.656365 0
M  V30 11813 C 1078.44 -2.34576 -0.033864 0
M  V30 11814 C 1079.46 -1.5406 -0.808793 0
M  V30 11815 O 1080.64 -1.867 -0.755322 0
M  V30 11816 C 1077.7 -3.32378 -0.986197 0
M  V30 11817 C 1076.76 -4.28797 -0.207851 0
M  V30 11818 C 1076 -5.21927 -1.11482 0
M  V30 11819 O 1076.22 -5.19554 -2.35414 0
M  V30 11820 O 1075.15 -5.99045 -0.585536 0
M  V30 11821 H 1078.98 -2.95099 0.717668 0
M  V30 11822 H 1076.56 -1.43475 0.416556 0
M  V30 11823 H 1078.45 -3.9251 -1.53341 0
M  V30 11824 H 1077.12 -2.74354 -1.7179 0
M  V30 11825 H 1076.03 -3.72134 0.383022 0
M  V30 11826 H 1077.36 -4.89811 0.48435 0
M  V30 11827 N 1079.01 -0.398486 -1.52479 0
M  V30 11828 C 1080.26 0.182046 -2.00877 0
M  V30 11829 C 1080.58 1.47128 -1.2889 0
M  V30 11830 O 1081.78 2.13242 -1.68048 0
M  V30 11831 C 1080.24 0.374978 -3.57941 0
M  V30 11832 C 1079.85 -0.901544 -4.38835 0
M  V30 11833 C 1081.59 0.911378 -4.14601 0
M  V30 11834 C 1079.5 -0.676385 -5.87519 0
M  V30 11835 H 1078.43 0.0718068 -0.750573 0
M  V30 11836 H 1081.08 -0.522297 -1.7591 0
M  V30 11837 H 1079.46 1.14139 -3.79194 0
M  V30 11838 H 1080.63 -1.67329 -4.29346 0
M  V30 11839 H 1078.95 -1.36357 -3.93441 0
M  V30 11840 H 1081.55 1.09569 -5.23353 0
M  V30 11841 H 1081.89 1.88306 -3.71277 0
M  V30 11842 H 1082.42 0.204296 -3.97275 0
M  V30 11843 H 1079.16 -1.61933 -6.35184 0
M  V30 11844 H 1078.68 0.0562542 -5.99774 0
M  V30 11845 H 1080.36 -0.314454 -6.46235 0
M  V30 11846 N 1080.49 1.57075 -0.12858 0
M  V30 11847 C 1081.42 2.18833 0.814519 0
M  V30 11848 C 1082.4 1.13114 1.2704 0
M  V30 11849 O 1083.59 1.41387 1.33129 0
M  V30 11850 C 1080.72 2.79535 2.06101 0
M  V30 11851 C 1079.67 3.9092 1.74257 0
M  V30 11852 C 1079 4.38473 3.06015 0
M  V30 11853 C 1080.3 5.1257 1.00345 0
M  V30 11854 H 1081.99 2.97895 0.299862 0
M  V30 11855 H 1079.54 1.4329 0.14279 0
M  V30 11856 H 1081.49 3.21401 2.72543 0
M  V30 11857 H 1080.21 1.97777 2.59907 0
M  V30 11858 H 1078.87 3.49645 1.102 0
M  V30 11859 H 1078.52 3.53561 3.57776 0
M  V30 11860 H 1078.22 5.13591 2.85479 0
M  V30 11861 H 1079.75 4.82997 3.7356 0
M  V30 11862 H 1081.16 5.51395 1.56959 0
M  V30 11863 H 1079.56 5.93333 0.898693 0
M  V30 11864 H 1080.63 4.84899 -0.0081335 0
M  V30 11865 N 1081.97 -0.145205 1.5693 0
M  V30 11866 C 1082.9 -1.20881 1.93553 0
M  V30 11867 C 1083.88 -1.41467 0.801612 0
M  V30 11868 O 1085.06 -1.5605 1.05739 0
M  V30 11869 C 1082.19 -2.5674 2.20912 0
M  V30 11870 C 1081.24 -2.52738 3.43549 0
M  V30 11871 S 1082.07 -1.99257 4.97048 0
M  V30 11872 C 1083.23 -3.36842 5.27531 0
M  V30 11873 H 1083.46 -0.896362 2.83465 0
M  V30 11874 H 1080.99 -0.350894 1.5036 0
M  V30 11875 H 1082.95 -3.34923 2.37354 0
M  V30 11876 H 1081.61 -2.85174 1.31661 0
M  V30 11877 H 1080.8 -3.52753 3.59974 0
M  V30 11878 H 1080.41 -1.82665 3.26358 0
M  V30 11879 H 1082.7 -4.32958 5.21108 0
M  V30 11880 H 1083.64 -3.25268 6.28973 0
M  V30 11881 H 1084.05 -3.3406 4.55043 0
M  V30 11882 N 1083.45 -1.52049 -0.414609 0
M  V30 11883 C 1084.68 -1.69679 -1.18392 0
M  V30 11884 C 1085.09 -0.403881 -1.84429 0
M  V30 11885 O 1084.45 0.619636 -1.71659 0
M  V30 11886 C 1084.5 -2.82855 -2.25112 0
M  V30 11887 O 1084.22 -4.07138 -1.61772 0
M  V30 11888 C 1085.72 -3.11948 -3.14965 0
M  V30 11889 H 1082.94 -0.56879 -0.355977 0
M  V30 11890 H 1085.48 -1.9858 -0.488505 0
M  V30 11891 H 1083.64 -2.56488 -2.90332 0
M  V30 11892 H 1084.05 -4.70163 -2.32479 0
M  V30 11893 H 1085.53 -3.94665 -3.85932 0
M  V30 11894 H 1086 -2.25276 -3.77024 0
M  V30 11895 H 1086.61 -3.40059 -2.55421 0
M  V30 11896 N 1084.93 0.6715 -1.42579 0
M  V30 11897 C 1085.86 1.79703 -1.42266 0
M  V30 11898 C 1086.87 1.59599 -0.321268 0
M  V30 11899 O 1088.06 1.68657 -0.584564 0
M  V30 11900 C 1085.16 3.16859 -1.20224 0
M  V30 11901 C 1084.33 3.63783 -2.42859 0
M  V30 11902 C 1083.39 4.79683 -2.16312 0
M  V30 11903 O 1082.42 4.90058 -2.89537 0
M  V30 11904 N 1083.62 5.68622 -1.16831 0
M  V30 11905 H 1086.38 1.80455 -2.39282 0
M  V30 11906 H 1083.95 0.854708 -1.375 0
M  V30 11907 H 1085.94 3.92054 -1.00376 0
M  V30 11908 H 1084.51 3.10987 -0.317188 0
M  V30 11909 H 1083.73 2.7923 -2.78252 0
M  V30 11910 H 1085.02 3.91877 -3.24514 0
M  V30 11911 H 1084.41 5.62894 -0.562746 0
M  V30 11912 H 1082.97 6.43615 -1.0297 0
M  V30 11913 N 1086.4 1.28806 0.908124 0
M  V30 11914 C 1087.65 1.1646 1.66027 0
M  V30 11915 C 1087.98 -0.285025 1.92097 0
M  V30 11916 O 1087.26 -1.20675 1.52538 0
M  V30 11917 C 1087.54 1.96951 3.01467 0
M  V30 11918 C 1087.39 3.50007 2.82515 0
M  V30 11919 C 1088.71 1.78932 4.02084 0
M  V30 11920 H 1085.83 0.424435 0.602515 0
M  V30 11921 H 1088.47 1.58185 1.0525 0
M  V30 11922 H 1086.62 1.61495 3.53344 0
M  V30 11923 H 1088.3 3.95401 2.37605 0
M  V30 11924 H 1086.54 3.75356 2.17463 0
M  V30 11925 H 1087.21 4.01591 3.7872 0
M  V30 11926 H 1089.69 2.09885 3.59287 0
M  V30 11927 H 1088.56 2.37615 4.94803 0
M  V30 11928 H 1088.82 0.742286 4.35824 0
M  V30 11929 N 1087.88 -1.11734 1.11145 0
M  V30 11930 C 1089.13 -1.82766 0.853194 0
M  V30 11931 C 1089.44 -1.85408 -0.623168 0
M  V30 11932 O 1090.65 -2.52509 -0.997574 0
M  V30 11933 C 1089.11 -3.28215 1.47658 0
M  V30 11934 C 1088.71 -3.33911 2.98676 0
M  V30 11935 C 1090.46 -4.04168 1.29803 0
M  V30 11936 C 1088.36 -4.73739 3.54013 0
M  V30 11937 H 1087.29 -0.684807 0.315523 0
M  V30 11938 H 1089.95 -1.25756 1.33633 0
M  V30 11939 H 1088.33 -3.85138 0.921116 0
M  V30 11940 H 1089.5 -2.86887 3.606 0
M  V30 11941 H 1087.82 -2.71437 3.15771 0
M  V30 11942 H 1090.41 -5.07429 1.68582 0
M  V30 11943 H 1090.76 -4.15606 0.240302 0
M  V30 11944 H 1091.29 -3.53623 1.82196 0
M  V30 11945 H 1088.03 -4.67497 4.59485 0
M  V30 11946 H 1087.55 -5.21186 2.9686 0
M  V30 11947 H 1089.23 -5.42691 3.52271 0
M  V30 11948 N 1089.36 -0.901303 -1.29284 0
M  V30 11949 C 1090.31 -0.351562 -2.25273 0
M  V30 11950 C 1091.29 0.529276 -1.51946 0
M  V30 11951 O 1092.49 0.371031 -1.73068 0
M  V30 11952 C 1089.61 0.41843 -3.4074 0
M  V30 11953 C 1088.7 -0.47742 -4.21404 0
M  V30 11954 N 1089.09 -1.58537 -4.80312 0
M  V30 11955 C 1087.39 -0.275504 -4.45148 0
M  V30 11956 C 1088.09 -2.14041 -5.40889 0
M  V30 11957 N 1087.07 -1.43324 -5.24365 0
M  V30 11958 H 1090.87 -1.1979 -2.68379 0
M  V30 11959 H 1088.38 -0.752538 -1.43912 0
M  V30 11960 H 1090.38 0.829022 -4.08574 0
M  V30 11961 H 1089.04 1.26201 -2.99171 0
M  V30 11962 H 1090.05 -1.96809 -4.79047 0
M  V30 11963 H 1086.73 0.529581 -4.14128 0
M  V30 11964 H 1088.12 -3.07173 -5.97574 0
M  V30 11965 N 1090.84 1.42931 -0.663954 0
M  V30 11966 C 1092.06 2.06544 -0.188201 0
M  V30 11967 C 1092.49 1.495 1.14155 0
M  V30 11968 O 1091.85 0.609164 1.7076 0
M  V30 11969 C 1091.89 3.60393 -0.122105 0
M  V30 11970 O 1091 4.02176 0.91258 0
M  V30 11971 H 1090.34 0.656458 -0.0997967 0
M  V30 11972 H 1092.87 1.83253 -0.909909 0
M  V30 11973 H 1092.88 4.07959 0.0576568 0
M  V30 11974 H 1091.55 4.01287 -1.09276 0
M  V30 11975 H 1090.13 3.6618 0.704738 0
M  V30 11976 N 1092.32 0.406567 1.52266 0
M  V30 11977 C 1093.56 -0.171391 2.00971 0
M  V30 11978 C 1093.88 -1.46443 1.29668 0
M  V30 11979 O 1095.08 -2.12348 1.69176 0
M  V30 11980 C 1093.54 -0.35599 3.58135 0
M  V30 11981 C 1093.15 0.924803 4.38351 0
M  V30 11982 C 1094.89 -0.889378 4.15079 0
M  V30 11983 C 1092.8 0.707534 5.87152 0
M  V30 11984 H 1091.73 -0.0678253 0.750943 0
M  V30 11985 H 1094.38 0.531619 1.7563 0
M  V30 11986 H 1092.76 -1.12127 3.79794 0
M  V30 11987 H 1093.94 1.69603 4.28452 0
M  V30 11988 H 1092.25 1.38442 3.92712 0
M  V30 11989 H 1094.85 -1.06792 5.23927 0
M  V30 11990 H 1095.19 -1.86334 3.7227 0
M  V30 11991 H 1095.72 -0.183224 3.97378 0
M  V30 11992 H 1092.46 1.65299 6.34316 0
M  V30 11993 H 1091.98 -0.024446 5.99795 0
M  V30 11994 H 1093.66 0.348721 6.4606 0
M  V30 11995 N 1093.79 -1.57004 0.136909 0
M  V30 11996 C 1094.7 -2.19807 -0.819887 0
M  V30 11997 C 1095.72 -1.17939 -1.27932 0
M  V30 11998 O 1096.9 -1.50478 -1.3386 0
M  V30 11999 C 1093.96 -2.79935 -2.04542 0
M  V30 12000 C 1093.02 -3.96897 -1.6362 0
M  V30 12001 C 1092.26 -4.54148 -2.80331 0
M  V30 12002 O 1092.48 -4.10282 -3.96264 0
M  V30 12003 O 1091.41 -5.44565 -2.56384 0
M  V30 12004 H 1095.24 -3.02058 -0.315337 0
M  V30 12005 H 1092.82 -1.49131 -0.0896151 0
M  V30 12006 H 1094.71 -3.18191 -2.76283 0
M  V30 12007 H 1093.38 -2.00703 -2.53969 0
M  V30 12008 H 1092.29 -3.63376 -0.889316 0
M  V30 12009 H 1093.62 -4.77618 -1.18918 0
M  V30 12010 N 1095.27 0.136881 -1.57004 0
M  V30 12011 C 1096.5 0.861186 -1.87796 0
M  V30 12012 C 1096.91 1.74788 -0.724272 0
M  V30 12013 O 1096.25 1.80984 0.31471 0
M  V30 12014 C 1096.32 1.76115 -3.13407 0
M  V30 12015 C 1095.98 1.05059 -4.4476 0
M  V30 12016 C 1096.98 0.399736 -5.18361 0
M  V30 12017 C 1094.66 1.03709 -4.91477 0
M  V30 12018 C 1096.66 -0.255127 -6.36889 0
M  V30 12019 C 1094.34 0.378414 -6.09927 0
M  V30 12020 C 1095.34 -0.266555 -6.8248 0
M  V30 12021 O 1095.03 -0.914757 -7.98679 0
M  V30 12022 H 1094.76 0.253855 -0.626525 0
M  V30 12023 H 1097.31 0.131291 -2.0498 0
M  V30 12024 H 1095.54 2.53224 -2.92257 0
M  V30 12025 H 1097.23 2.3583 -3.30362 0
M  V30 12026 H 1098 0.401909 -4.83332 0
M  V30 12027 H 1093.88 1.52852 -4.34922 0
M  V30 12028 H 1097.42 -0.759135 -6.93457 0
M  V30 12029 H 1093.32 0.373942 -6.44416 0
M  V30 12030 H 1094.09 -0.817437 -8.14408 0
M  V30 12031 N 1096.75 1.52266 0.40654 0
M  V30 12032 C 1097.99 1.6813 1.16239 0
M  V30 12033 C 1098.35 0.403791 1.87706 0
M  V30 12034 O 1099.56 0.438566 2.65198 0
M  V30 12035 C 1097.83 2.87115 2.12837 0
M  V30 12036 S 1099.39 3.23475 2.96495 0
M  V30 12037 H 1096.2 0.59202 0.393743 0
M  V30 12038 H 1098.81 1.90266 0.449325 0
M  V30 12039 H 1097.51 3.78337 1.59026 0
M  V30 12040 H 1097.04 2.6726 2.88679 0
M  V30 12041 H 1099.06 2.72299 4.14811 0
M  V30 12042 N 1098.23 -0.663929 1.42933 0
M  V30 12043 C 1099.16 -1.78899 1.50058 0
M  V30 12044 C 1100.14 -1.66329 0.356164 0
M  V30 12045 O 1101.32 -1.85587 0.571944 0
M  V30 12046 C 1098.45 -3.17265 1.41281 0
M  V30 12047 C 1097.41 -3.44584 2.53861 0
M  V30 12048 C 1096.73 -4.82638 2.3014 0
M  V30 12049 C 1098.03 -3.40394 3.96143 0
M  V30 12050 H 1099.73 -1.73194 2.44222 0
M  V30 12051 H 1097.27 -0.83182 1.17545 0
M  V30 12052 H 1099.23 -3.95715 1.44872 0
M  V30 12053 H 1097.95 -3.23675 0.43616 0
M  V30 12054 H 1096.61 -2.685 2.49606 0
M  V30 12055 H 1096.26 -4.85711 1.30743 0
M  V30 12056 H 1095.96 -5.01879 3.056 0
M  V30 12057 H 1097.48 -5.63359 2.35497 0
M  V30 12058 H 1098.9 -4.08796 4.01943 0
M  V30 12059 H 1097.29 -3.7117 4.71543 0
M  V30 12060 H 1098.36 -2.38767 4.22041 0
M  V30 12061 N 1099.71 -1.29285 -0.901281 0
M  V30 12062 C 1100.95 -1.16934 -1.64836 0
M  V30 12063 C 1101.28 0.279826 -1.92982 0
M  V30 12064 O 1100.55 1.19179 -1.55478 0
M  V30 12065 H 1099.13 -0.429768 -0.61099 0
M  V30 12066 H 1101.79 -1.62189 -1.08077 0
M  V30 12067 H 1100.88 -1.71821 -2.60545 0
M  V30 12068 N 1101.18 1.11143 -1.11736 0
M  V30 12069 C 1102.42 1.84576 -0.878119 0
M  V30 12070 C 1102.79 1.82851 0.585605 0
M  V30 12071 O 1103.99 2.51763 0.941732 0
M  V30 12072 C 1102.26 3.27628 -1.4281 0
M  V30 12073 S 1103.82 4.18276 -1.3263 0
M  V30 12074 H 1100.64 0.636442 -0.316958 0
M  V30 12075 H 1103.24 1.33794 -1.42546 0
M  V30 12076 H 1101.94 3.2645 -2.48714 0
M  V30 12077 H 1101.47 3.83479 -0.877925 0
M  V30 12078 H 1103.49 4.95335 -0.292878 0
M  V30 12079 N 1102.66 0.908147 1.28804 0
M  V30 12080 C 1103.91 0.534332 1.94494 0
M  V30 12081 C 1104.22 -0.92552 1.72318 0
M  V30 12082 O 1105.43 -1.40724 2.32183 0
M  V30 12083 C 1103.89 0.904748 3.48342 0
M  V30 12084 C 1103.49 2.38394 3.79305 0
M  V30 12085 C 1105.24 0.601249 4.2022 0
M  V30 12086 C 1103.15 2.69478 5.26437 0
M  V30 12087 H 1102.08 0.196107 0.728051 0
M  V30 12088 H 1104.73 1.1063 1.46401 0
M  V30 12089 H 1103.11 0.261624 3.95135 0
M  V30 12090 H 1104.28 3.07333 3.43341 0
M  V30 12091 H 1102.6 2.65733 3.20586 0
M  V30 12092 H 1105.19 0.810225 5.28526 0
M  V30 12093 H 1105.54 -0.460669 4.13743 0
M  V30 12094 H 1106.07 1.20259 3.79187 0
M  V30 12095 H 1102.81 3.74501 5.37986 0
M  V30 12096 H 1102.33 2.05171 5.63618 0
M  V30 12097 H 1104.01 2.56187 5.94119 0
M  V30 12098 N 1104.14 -1.42577 0.671525 0
M  V30 12099 C 1105.37 -2.06442 0.199152 0
M  V30 12100 C 1105.79 -1.50104 -1.1336 0
M  V30 12101 O 1105.15 -0.618211 -1.70434 0
M  V30 12102 C 1105.2 -3.60323 0.141215 0
M  V30 12103 O 1104.3 -4.02655 -0.891238 0
M  V30 12104 H 1103.64 -0.655919 0.103277 0
M  V30 12105 H 1106.17 -1.82768 0.919614 0
M  V30 12106 H 1106.18 -4.07984 -0.0360209 0
M  V30 12107 H 1104.86 -4.00702 1.11403 0
M  V30 12108 H 1103.43 -3.66549 -0.685309 0
M  V30 12109 N 1105.62 -0.414636 -1.52048 0
M  V30 12110 C 1106.57 0.422766 -2.28726 0
M  V30 12111 C 1107.56 1.04099 -1.3364 0
M  V30 12112 O 1108.77 0.978559 -1.51077 0
M  V30 12113 H 1105.14 0.155123 -0.735827 0
M  V30 12114 H 1107.11 -0.245091 -2.97392 0
M  V30 12115 C 1105.86 1.52418 -3.12513 0
M  V30 12116 H 1105.18 1.05781 -3.85552 0
M  V30 12117 H 1106.62 2.08382 -3.6926 0
M  V30 12118 C 1105.08 2.49465 -2.26426 0
M  V30 12119 O 1105.61 3.53479 -1.90829 0
M  V30 12120 N 1103.82 2.19806 -1.90088 0
M  V30 12121 H 1103.37 1.35253 -2.19236 0
M  V30 12122 H 1103.32 2.84984 -1.32783 0
M  V30 12123 N 1107.1 1.56929 -0.145233 0
M  V30 12124 C 1108.32 2.00431 0.513314 0
M  V30 12125 C 1108.74 1.0253 1.58534 0
M  V30 12126 O 1108.1 0.0220459 1.82487 0
M  V30 12127 C 1108.15 3.43856 1.11557 0
M  V30 12128 O 1107.87 4.38015 0.0863707 0
M  V30 12129 C 1109.37 4.02627 1.8549 0
M  V30 12130 H 1106.59 0.657529 0.133778 0
M  V30 12131 H 1109.13 2.03095 -0.239296 0
M  V30 12132 H 1107.29 3.4205 1.81881 0
M  V30 12133 H 1107.7 5.21842 0.527363 0
M  V30 12134 H 1109.18 5.04985 2.22923 0
M  V30 12135 H 1109.65 3.43239 2.74014 0
M  V30 12136 H 1110.26 4.08058 1.19869 0
M  V30 12137 N 1108.58 -0.128553 1.57075 0
M  V30 12138 C 1109.54 -1.14215 1.98715 0
M  V30 12139 C 1110.54 -1.34843 0.876019 0
M  V30 12140 O 1111.73 -1.31522 1.14227 0
M  V30 12141 C 1108.86 -2.49865 2.31905 0
M  V30 12142 H 1110.05 -0.784481 2.89458 0
M  V30 12143 H 1107.61 -0.372531 1.51796 0
M  V30 12144 H 1108.34 -2.9057 1.44012 0
M  V30 12145 H 1108.13 -2.3625 3.12935 0
M  V30 12146 H 1109.62 -3.22832 2.64895 0
M  V30 12147 N 1110.05 -1.5248 -0.398459 0
M  V30 12148 C 1111.28 -1.71221 -1.17039 0
M  V30 12149 C 1111.7 -0.425515 -1.83224 0
M  V30 12150 O 1111.06 0.617938 -1.70444 0
M  V30 12151 C 1111.11 -2.8562 -2.20121 0
M  V30 12152 O 1110.21 -2.51934 -3.26501 0
M  V30 12153 H 1109.55 -0.569654 -0.34116 0
M  V30 12154 H 1112.08 -1.99231 -0.465652 0
M  V30 12155 H 1112.09 -3.10842 -2.64275 0
M  V30 12156 H 1110.77 -3.78969 -1.71334 0
M  V30 12157 H 1109.35 -2.3742 -2.87552 0
M  V30 12158 N 1111.53 0.65634 -1.43283 0
M  V30 12159 C 1112.76 1.44199 -1.47954 0
M  V30 12160 C 1113.17 1.88961 -0.0950315 0
M  V30 12161 O 1112.51 1.59895 0.904388 0
M  V30 12162 C 1112.57 2.71161 -2.36033 0
M  V30 12163 C 1112.24 2.48359 -3.83623 0
M  V30 12164 C 1113.24 2.1178 -4.74811 0
M  V30 12165 C 1110.92 2.6278 -4.28079 0
M  V30 12166 C 1112.91 1.89915 -6.0845 0
M  V30 12167 C 1110.6 2.4053 -5.61772 0
M  V30 12168 C 1111.6 2.04154 -6.51775 0
M  V30 12169 O 1111.29 1.82134 -7.82996 0
M  V30 12170 H 1111.02 0.449567 -0.504842 0
M  V30 12171 H 1113.57 0.812234 -1.88658 0
M  V30 12172 H 1111.8 3.36685 -1.9021 0
M  V30 12173 H 1113.49 3.33102 -2.31944 0
M  V30 12174 H 1114.26 2.00217 -4.41744 0
M  V30 12175 H 1110.14 2.9007 -3.58302 0
M  V30 12176 H 1113.68 1.61445 -6.78661 0
M  V30 12177 H 1109.58 2.51695 -5.94407 0
M  V30 12178 H 1110.35 1.96584 -7.94542 0
M  V30 12179 N 1113.01 1.29761 0.894412 0
M  V30 12180 C 1113.94 1.17902 2.01547 0
M  V30 12181 C 1114.92 0.0719402 1.69948 0
M  V30 12182 O 1116.11 0.252338 1.92554 0
M  V30 12183 C 1113.24 0.860262 3.36477 0
M  V30 12184 C 1112.19 1.92424 3.82305 0
M  V30 12185 C 1111.52 1.45868 5.14419 0
M  V30 12186 C 1112.82 3.33391 4.02054 0
M  V30 12187 H 1114.51 2.11688 2.11727 0
M  V30 12188 H 1112.06 1.01916 1.01731 0
M  V30 12189 H 1114.01 0.763987 4.14417 0
M  V30 12190 H 1112.73 -0.113289 3.26403 0
M  V30 12191 H 1111.39 2.00999 3.06586 0
M  V30 12192 H 1111.04 0.473654 5.00765 0
M  V30 12193 H 1110.74 2.17028 5.46052 0
M  V30 12194 H 1112.26 1.37601 5.94894 0
M  V30 12195 H 1113.68 3.27628 4.7046 0
M  V30 12196 H 1112.07 4.02555 4.4505 0
M  V30 12197 H 1113.14 3.75978 3.06216 0
M  V30 12198 N 1114.49 -1.10549 1.12324 0
M  V30 12199 C 1115.9 -1.34508 0.85905 0
M  V30 12200 C 1116.1 -1.94901 -0.511468 0
M  V30 12201 O 1115.16 -2.18793 -1.2604 0
M  V30 12202 C 1116.47 -2.26788 1.97453 0
M  V30 12203 C 1118.02 -2.40328 2.00528 0
M  V30 12204 C 1118.5 -3.35936 3.11305 0
M  V30 12205 N 1119.99 -3.43504 3.1074 0
M  V30 12206 C 1120.72 -4.17449 3.93096 0
M  V30 12207 N 1120.22 -4.9429 4.85437 0
M  V30 12208 N 1122.01 -4.13055 3.81237 0
M  V30 12209 H 1114.16 -0.697171 2.00632 0
M  V30 12210 H 1116.42 -0.369548 0.873005 0
M  V30 12211 H 1116.13 -1.89621 2.96204 0
M  V30 12212 H 1116 -3.27086 1.87869 0
M  V30 12213 H 1118.39 -2.76765 1.02397 0
M  V30 12214 H 1118.47 -1.39849 2.14186 0
M  V30 12215 H 1118.12 -3.00225 4.09667 0
M  V30 12216 H 1118.05 -4.36291 2.94886 0
M  V30 12217 H 1120.54 -2.88702 2.43843 0
M  V30 12218 H 1120.85 -5.48109 5.4479 0
M  V30 12219 H 1119.2 -4.93419 4.89452 0
M  V30 12220 H 1122.39 -3.52117 3.08433 0
M  V30 12221 H 1122.56 -4.70424 4.45651 0
M  V30 12222 N 1115.97 -0.914965 -1.28321 0
M  V30 12223 C 1116.9 -0.421292 -2.29668 0
M  V30 12224 C 1117.88 0.511743 -1.6222 0
M  V30 12225 O 1119.06 0.419218 -1.89621 0
M  V30 12226 C 1116.19 0.338364 -3.45648 0
M  V30 12227 C 1115.15 -0.505646 -4.25003 0
M  V30 12228 C 1114.47 0.382421 -5.33331 0
M  V30 12229 C 1115.77 -1.76354 -4.91626 0
M  V30 12230 H 1117.47 -1.26826 -2.71211 0
M  V30 12231 H 1115.01 -0.611291 -1.30381 0
M  V30 12232 H 1116.96 0.694578 -4.15636 0
M  V30 12233 H 1115.69 1.21925 -3.02988 0
M  V30 12234 H 1114.35 -0.844395 -3.56743 0
M  V30 12235 H 1114 1.26189 -4.86914 0
M  V30 12236 H 1113.7 -0.17871 -5.87328 0
M  V30 12237 H 1115.22 0.73449 -6.06166 0
M  V30 12238 H 1116.63 -1.47616 -5.5397 0
M  V30 12239 H 1115.03 -2.26717 -5.55625 0
M  V30 12240 H 1116.1 -2.49063 -4.16048 0
M  V30 12241 N 1117.44 1.42219 -0.679077 0
M  V30 12242 C 1118.69 2.02291 -0.212115 0
M  V30 12243 C 1119.04 1.52755 1.16977 0
M  V30 12244 O 1118.34 0.721827 1.77483 0
M  V30 12245 C 1118.53 3.56889 -0.191027 0
M  V30 12246 C 1118.36 4.21429 -1.56933 0
M  V30 12247 C 1117.13 4.5642 -2.16814 0
M  V30 12248 C 1119.33 4.48733 -2.51283 0
M  V30 12249 N 1117.31 5.06162 -3.47381 0
M  V30 12250 C 1118.68 5.00072 -3.66508 0
M  V30 12251 C 1120.74 4.30726 -2.49758 0
M  V30 12252 C 1119.44 5.35296 -4.80469 0
M  V30 12253 C 1121.47 4.67029 -3.62819 0
M  V30 12254 C 1120.83 5.18524 -4.76773 0
M  V30 12255 H 1116.93 0.772324 -0.122637 0
M  V30 12256 H 1119.51 1.73014 -0.89299 0
M  V30 12257 H 1117.68 3.85675 0.459276 0
M  V30 12258 H 1119.41 4.03665 0.289217 0
M  V30 12259 H 1116.17 4.42321 -1.69261 0
M  V30 12260 H 1116.59 5.35457 -4.14264 0
M  V30 12261 H 1121.23 3.90166 -1.62882 0
M  V30 12262 H 1118.95 5.74788 -5.68018 0
M  V30 12263 H 1122.54 4.54769 -3.62872 0
M  V30 12264 H 1121.42 5.4609 -5.6281 0
M  V30 12265 N 1118.92 0.422693 1.51826 0
M  V30 12266 C 1119.88 -0.384307 2.25955 0
M  V30 12267 C 1120.88 -0.962184 1.28836 0
M  V30 12268 O 1122.07 -0.838931 1.52668 0
M  V30 12269 C 1119.21 -1.54228 3.04018 0
M  V30 12270 H 1120.4 0.265157 2.98726 0
M  V30 12271 H 1117.95 0.175515 1.55311 0
M  V30 12272 H 1118.69 -2.22822 2.35629 0
M  V30 12273 H 1118.47 -1.13425 3.75336 0
M  V30 12274 H 1119.96 -2.1128 3.60209 0
M  V30 12275 N 1120.4 -1.5685 0.153553 0
M  V30 12276 C 1121.33 -2.20101 -0.779601 0
M  V30 12277 C 1122.31 -1.15121 -1.25225 0
M  V30 12278 O 1123.5 -1.43487 -1.30862 0
M  V30 12279 C 1120.63 -2.82778 -2.01628 0
M  V30 12280 C 1119.58 -3.93643 -1.68015 0
M  V30 12281 C 1118.91 -4.43286 -2.99001 0
M  V30 12282 C 1120.21 -5.14102 -0.921774 0
M  V30 12283 H 1121.9 -2.98334 -0.252432 0
M  V30 12284 H 1119.45 -1.43499 -0.119975 0
M  V30 12285 H 1121.4 -3.25696 -2.67395 0
M  V30 12286 H 1120.12 -2.01887 -2.56728 0
M  V30 12287 H 1118.78 -3.51354 -1.04624 0
M  V30 12288 H 1118.43 -3.59208 -3.52106 0
M  V30 12289 H 1118.13 -5.18068 -2.77272 0
M  V30 12290 H 1119.65 -4.88878 -3.65828 0
M  V30 12291 H 1121.07 -5.53823 -1.48167 0
M  V30 12292 H 1119.46 -5.94687 -0.804185 0
M  V30 12293 H 1120.53 -4.84825 0.0852757 0
M  V30 12294 N 1121.88 0.120221 -1.57141 0
M  V30 12295 C 1123.1 0.84637 -1.89344 0
M  V30 12296 C 1123.53 1.72702 -0.745365 0
M  V30 12297 O 1122.89 1.7873 0.304155 0
M  V30 12298 C 1122.93 1.65671 -3.20289 0
M  V30 12299 O 1122.04 2.76353 -3.06109 0
M  V30 12300 H 1121.38 0.234132 -0.621352 0
M  V30 12301 H 1123.91 0.102986 -2.04341 0
M  V30 12302 H 1123.92 2.04621 -3.52979 0
M  V30 12303 H 1122.59 1.01023 -4.03444 0
M  V30 12304 H 1121.17 2.40615 -2.84884 0
M  V30 12305 N 1123.36 1.52689 0.390367 0
M  V30 12306 C 1124.29 1.80338 1.48325 0
M  V30 12307 C 1125.27 0.655338 1.56969 0
M  V30 12308 O 1126.45 0.902792 1.7194 0
M  V30 12309 C 1123.58 1.97101 2.85952 0
M  V30 12310 C 1122.54 3.12783 2.92148 0
M  V30 12311 C 1121.86 3.14798 4.32211 0
M  V30 12312 C 1123.16 4.5188 2.61919 0
M  V30 12313 H 1124.86 2.71857 1.25437 0
M  V30 12314 H 1122.4 1.30813 0.601995 0
M  V30 12315 H 1124.36 2.15027 3.62411 0
M  V30 12316 H 1123.08 1.02271 3.10174 0
M  V30 12317 H 1121.74 2.94638 2.18137 0
M  V30 12318 H 1121.39 2.17653 4.53471 0
M  V30 12319 H 1121.09 3.92507 4.37278 0
M  V30 12320 H 1122.61 3.34877 5.10578 0
M  V30 12321 H 1124.02 4.70134 3.28096 0
M  V30 12322 H 1122.42 5.31647 2.78337 0
M  V30 12323 H 1123.49 4.58689 1.57266 0
M  V30 12324 N 1124.83 -0.648732 1.43629 0
M  V30 12325 C 1125.8 -1.74331 1.488 0
M  V30 12326 C 1126.8 -1.56434 0.372147 0
M  V30 12327 O 1127.99 -1.6225 0.634078 0
M  V30 12328 C 1125.12 -3.13248 1.34494 0
M  V30 12329 H 1126.31 -1.71125 2.46285 0
M  V30 12330 H 1123.87 -0.860798 1.30461 0
M  V30 12331 H 1124.6 -3.22062 0.380345 0
M  V30 12332 H 1124.39 -3.27643 2.15389 0
M  V30 12333 H 1125.88 -3.93056 1.41055 0
M  V30 12334 N 1126.31 -1.30234 -0.887518 0
M  V30 12335 C 1127.26 -1.13013 -1.9802 0
M  V30 12336 C 1128.25 -0.0460253 -1.60834 0
M  V30 12337 O 1129.44 -0.26907 -1.74943 0
M  V30 12338 C 1126.57 -0.821397 -3.33329 0
M  V30 12339 C 1125.65 -1.94564 -3.76837 0
M  V30 12340 N 1126.04 -3.19068 -3.92465 0
M  V30 12341 C 1124.34 -1.84142 -4.06211 0
M  V30 12342 C 1125.04 -3.92495 -4.29328 0
M  V30 12343 N 1124.02 -3.20526 -4.39049 0
M  V30 12344 H 1127.82 -2.07446 -2.0819 0
M  V30 12345 H 1125.34 -1.21536 -1.07716 0
M  V30 12346 H 1127.33 -0.679046 -4.11333 0
M  V30 12347 H 1125.99 0.114891 -3.24497 0
M  V30 12348 H 1127 -3.54386 -3.77665 0
M  V30 12349 H 1123.68 -0.97865 -4.05868 0
M  V30 12350 H 1125.07 -4.99701 -4.49164 0
M  V30 12351 N 1127.79 1.09952 -1.12909 0
M  V30 12352 C 1128.75 2.14615 -0.804548 0
M  V30 12353 C 1129.75 1.5975 0.18345 0
M  V30 12354 O 1130.94 1.74147 -0.0429623 0
M  V30 12355 C 1128.08 3.40333 -0.196471 0
M  V30 12356 H 1129.27 2.44835 -1.73193 0
M  V30 12357 H 1126.82 1.25399 -0.932997 0
M  V30 12358 H 1127.56 3.15735 0.740388 0
M  V30 12359 H 1127.34 3.81444 -0.907886 0
M  V30 12360 H 1128.83 4.17598 0.0139264 0
M  V30 12361 N 1129.27 0.921757 1.27833 0
M  V30 12362 C 1130.2 0.373575 2.26135 0
M  V30 12363 C 1131.21 -0.492414 1.55174 0
M  V30 12364 O 1132.4 -0.305998 1.75858 0
M  V30 12365 C 1129.5 -0.483911 3.35427 0
M  V30 12366 C 1128.68 0.361411 4.35904 0
M  V30 12367 C 1127.73 -0.432461 5.2442 0
M  V30 12368 O 1126.76 0.15777 5.68981 0
M  V30 12369 N 1127.96 -1.73367 5.54007 0
M  V30 12370 H 1130.73 1.21856 2.73809 0
M  V30 12371 H 1128.29 0.788552 1.41398 0
M  V30 12372 H 1130.28 -1.02193 3.91585 0
M  V30 12373 H 1128.85 -1.22963 2.874 0
M  V30 12374 H 1128.07 1.08076 3.79095 0
M  V30 12375 H 1129.36 0.939528 5.0005 0
M  V30 12376 H 1128.76 -2.23561 5.19651 0
M  V30 12377 H 1127.31 -2.21834 6.12889 0
M  V30 12378 N 1130.75 -1.41857 0.686609 0
M  V30 12379 C 1131.68 -2.33481 0.0298353 0
M  V30 12380 C 1132.66 -1.51329 -0.776756 0
M  V30 12381 O 1133.84 -1.79895 -0.731535 0
M  V30 12382 C 1130.97 -3.35065 -0.913707 0
M  V30 12383 C 1129.93 -4.2746 -0.214861 0
M  V30 12384 C 1129.25 -5.19346 -1.27215 0
M  V30 12385 C 1130.55 -5.14252 0.913367 0
M  V30 12386 H 1132.25 -2.8865 0.795067 0
M  V30 12387 H 1129.79 -1.38792 0.383785 0
M  V30 12388 H 1131.75 -3.98082 -1.38234 0
M  V30 12389 H 1130.47 -2.78226 -1.7105 0
M  V30 12390 H 1129.13 -3.65855 0.233651 0
M  V30 12391 H 1128.78 -4.58827 -2.06124 0
M  V30 12392 H 1128.48 -5.81996 -0.80961 0
M  V30 12393 H 1130 -5.85239 -1.74147 0
M  V30 12394 H 1131.41 -5.70887 0.525424 0
M  V30 12395 H 1129.81 -5.85796 1.30244 0
M  V30 12396 H 1130.88 -4.51949 1.75699 0
M  V30 12397 N 1132.22 -0.430739 -1.51599 0
M  V30 12398 C 1133.45 0.139197 -2.06932 0
M  V30 12399 C 1133.87 1.3626 -1.29672 0
M  V30 12400 O 1133.23 1.78219 -0.332836 0
M  V30 12401 C 1133.28 0.446593 -3.57824 0
M  V30 12402 O 1132.38 1.53414 -3.82803 0
M  V30 12403 H 1131.73 0.00475812 -0.663983 0
M  V30 12404 H 1134.26 -0.610171 -1.9529 0
M  V30 12405 H 1134.27 0.698972 -4.01968 0
M  V30 12406 H 1132.94 -0.447613 -4.13484 0
M  V30 12407 H 1131.52 1.27224 -3.50526 0
M  V30 12408 N 1133.7 1.56767 -0.161869 0
M  V30 12409 C 1134.98 1.88245 0.531352 0
M  V30 12410 C 1135.36 1.07025 1.81958 0
M  V30 12411 O 1134.71 0.161385 2.27929 0
M  V30 12412 C 1134.92 3.40117 0.782416 0
M  V30 12413 C 1136.27 4.09655 1.11661 0
M  V30 12414 O 1137.29 3.4538 0.871274 0
M  V30 12415 O 1136.15 5.23192 1.57901 0
M  V30 12416 H 1133.24 0.780725 0.272759 0
M  V30 12417 H 1135.79 1.68522 -0.199597 0
M  V30 12418 H 1134.56 3.91088 -0.128677 0
M  V30 12419 H 1134.18 3.65418 1.56702 0
M  V30 12420 N 1135.18 -0.111886 1.57202 0
M  V30 12421 C 1136.43 -0.819623 1.85499 0
M  V30 12422 C 1136.76 -1.7919 0.748629 0
M  V30 12423 O 1136.03 -1.92952 -0.244918 0
M  V30 12424 C 1136.32 -1.56324 3.24399 0
M  V30 12425 C 1136.17 -0.610081 4.45643 0
M  V30 12426 C 1137.49 -2.51777 3.60966 0
M  V30 12427 H 1134.61 -0.296512 0.674722 0
M  V30 12428 H 1137.25 -0.0836741 1.89816 0
M  V30 12429 H 1135.4 -2.1906 3.2085 0
M  V30 12430 H 1137.07 0.00898038 4.61299 0
M  V30 12431 H 1135.32 0.0778488 4.3373 0
M  V30 12432 H 1135.99 -1.16718 5.39519 0
M  V30 12433 H 1138.46 -1.99143 3.65351 0
M  V30 12434 H 1137.34 -3.00835 4.59118 0
M  V30 12435 H 1137.6 -3.34769 2.8876 0
M  V30 12436 N 1136.66 -1.52894 -0.382264 0
M  V30 12437 C 1137.59 -1.81122 -1.47367 0
M  V30 12438 C 1138.57 -0.663653 -1.56619 0
M  V30 12439 O 1139.75 -0.911898 -1.71459 0
M  V30 12440 C 1136.88 -1.98615 -2.84902 0
M  V30 12441 C 1135.84 -3.14328 -2.90485 0
M  V30 12442 C 1135.16 -3.17086 -4.30535 0
M  V30 12443 C 1136.46 -4.53263 -2.59519 0
M  V30 12444 H 1138.16 -2.72518 -1.23993 0
M  V30 12445 H 1135.7 -1.3113 -0.595049 0
M  V30 12446 H 1137.66 -2.16946 -3.61265 0
M  V30 12447 H 1136.38 -1.03915 -3.09628 0
M  V30 12448 H 1135.04 -2.95791 -2.16572 0
M  V30 12449 H 1134.69 -2.20055 -4.52311 0
M  V30 12450 H 1134.39 -3.94821 -4.3519 0
M  V30 12451 H 1135.91 -3.3758 -5.08795 0
M  V30 12452 H 1137.33 -4.71867 -3.25598 0
M  V30 12453 H 1135.72 -5.33115 -2.75514 0
M  V30 12454 H 1136.79 -4.59516 -1.54831 0
M  V30 12455 N 1138.14 0.641106 -1.43971 0
M  V30 12456 C 1139.38 1.40118 -1.4744 0
M  V30 12457 C 1139.74 1.92131 -0.101647 0
M  V30 12458 O 1139.03 1.70112 0.881614 0
M  V30 12459 C 1139.23 2.59092 -2.46183 0
M  V30 12460 C 1139.05 2.18725 -3.92924 0
M  V30 12461 C 1137.82 2.06475 -4.6119 0
M  V30 12462 C 1140.02 1.78255 -4.82421 0
M  V30 12463 N 1138 1.59566 -5.928 0
M  V30 12464 C 1139.38 1.42517 -6.03398 0
M  V30 12465 C 1141.43 1.65546 -4.69573 0
M  V30 12466 C 1140.13 0.953428 -7.12953 0
M  V30 12467 C 1142.16 1.19776 -5.79144 0
M  V30 12468 C 1141.52 0.84983 -6.99255 0
M  V30 12469 H 1137.62 0.507917 -0.594596 0
M  V30 12470 H 1140.2 0.736517 -1.80232 0
M  V30 12471 H 1138.38 3.232 -2.15398 0
M  V30 12472 H 1140.11 3.25847 -2.40012 0
M  V30 12473 H 1136.86 2.26615 -4.15863 0
M  V30 12474 H 1137.29 1.38438 -6.62694 0
M  V30 12475 H 1141.93 1.91081 -3.77158 0
M  V30 12476 H 1139.65 0.68558 -8.05187 0
M  V30 12477 H 1143.23 1.10415 -5.71226 0
M  V30 12478 H 1142.11 0.501081 -7.82597 0
M  V30 12479 N 1139.62 1.30703 0.880598 0
M  V30 12480 C 1140.58 1.17429 1.96832 0
M  V30 12481 C 1141.58 0.104305 1.60461 0
M  V30 12482 O 1142.77 0.352758 1.70591 0
M  V30 12483 C 1139.9 0.800099 3.31378 0
M  V30 12484 H 1141.09 2.14069 2.10034 0
M  V30 12485 H 1138.65 1.14162 1.06755 0
M  V30 12486 H 1139.38 -0.165606 3.23877 0
M  V30 12487 H 1139.17 1.57341 3.59146 0
M  V30 12488 H 1140.66 0.730826 4.11155 0
M  V30 12489 N 1141.09 -1.09351 1.1349 0
M  V30 12490 C 1142.03 -2.15291 0.756645 0
M  V30 12491 C 1143 -1.60548 -0.257497 0
M  V30 12492 O 1144.19 -1.87912 -0.14882 0
M  V30 12493 C 1141.32 -3.38481 0.121799 0
M  V30 12494 C 1140.36 -4.11949 1.10456 0
M  V30 12495 S 1141.19 -4.6605 2.63738 0
M  V30 12496 C 1142.35 -5.92539 2.01615 0
M  V30 12497 H 1142.58 -2.47044 1.65398 0
M  V30 12498 H 1140.12 -1.21312 0.955129 0
M  V30 12499 H 1142.07 -4.09809 -0.238086 0
M  V30 12500 H 1140.74 -3.04945 -0.752821 0
M  V30 12501 H 1139.93 -5.00317 0.608195 0
M  V30 12502 H 1139.53 -3.46486 1.40795 0
M  V30 12503 H 1141.82 -6.63593 1.36569 0
M  V30 12504 H 1142.77 -6.46856 2.88068 0
M  V30 12505 H 1143.17 -5.45094 1.46741 0
M  V30 12506 N 1142.57 -0.928524 -1.27343 0
M  V30 12507 C 1143.5 -0.445627 -2.29208 0
M  V30 12508 C 1144.48 0.494508 -1.62753 0
M  V30 12509 O 1145.67 0.399082 -1.90055 0
M  V30 12510 C 1142.8 0.301684 -3.45987 0
M  V30 12511 C 1141.75 -0.550695 -4.24442 0
M  V30 12512 C 1141.08 0.325833 -5.33706 0
M  V30 12513 C 1142.38 -1.81559 -4.89728 0
M  V30 12514 H 1144.07 -1.29696 -2.69851 0
M  V30 12515 H 1141.62 -0.625085 -1.29725 0
M  V30 12516 H 1143.57 0.650455 -4.1635 0
M  V30 12517 H 1142.29 1.18705 -3.04264 0
M  V30 12518 H 1140.95 -0.882185 -3.55827 0
M  V30 12519 H 1140.6 1.21018 -4.88225 0
M  V30 12520 H 1140.3 -0.240994 -5.87106 0
M  V30 12521 H 1141.83 0.670156 -6.06911 0
M  V30 12522 H 1143.24 -1.53483 -5.52373 0
M  V30 12523 H 1141.64 -2.32598 -5.53189 0
M  V30 12524 H 1142.71 -2.53461 -4.13383 0
M  V30 12525 N 1144.05 1.41491 -0.694123 0
M  V30 12526 C 1144.98 2.28189 0.0226347 0
M  V30 12527 C 1145.96 1.42152 0.7894 0
M  V30 12528 O 1147.14 1.71581 0.780519 0
M  V30 12529 C 1144.27 3.22357 1.03942 0
M  V30 12530 C 1143.32 4.24927 0.365994 0
M  V30 12531 S 1144.15 5.28043 -0.890562 0
M  V30 12532 C 1145.31 6.25776 0.124665 0
M  V30 12533 H 1145.54 2.88631 -0.712698 0
M  V30 12534 H 1143.07 1.46607 -0.484344 0
M  V30 12535 H 1145.03 3.77143 1.62091 0
M  V30 12536 H 1143.69 2.61013 1.74732 0
M  V30 12537 H 1142.88 4.9108 1.13388 0
M  V30 12538 H 1142.49 3.73729 -0.142389 0
M  V30 12539 H 1144.78 6.70398 0.978393 0
M  V30 12540 H 1145.72 7.06312 -0.502901 0
M  V30 12541 H 1146.13 5.62466 0.478792 0
M  V30 12542 N 1145.53 0.438773 1.51369 0
M  V30 12543 C 1146.94 0.0911416 1.5934 0
M  V30 12544 C 1147.14 -1.39962 1.44958 0
M  V30 12545 O 1146.2 -2.16968 1.29155 0
M  V30 12546 C 1147.51 0.612531 2.94395 0
M  V30 12547 C 1149.06 0.573098 3.07709 0
M  V30 12548 C 1149.54 1.07149 4.4529 0
M  V30 12549 N 1151.03 1.02953 4.51614 0
M  V30 12550 C 1151.76 1.38602 5.56397 0
M  V30 12551 N 1151.26 1.81543 6.68591 0
M  V30 12552 N 1153.05 1.30409 5.46763 0
M  V30 12553 H 1145.2 1.40872 1.58962 0
M  V30 12554 H 1147.46 0.580589 0.749414 0
M  V30 12555 H 1147.17 1.65562 3.10294 0
M  V30 12556 H 1147.04 0.0382375 3.77181 0
M  V30 12557 H 1149.43 -0.461006 2.91477 0
M  V30 12558 H 1149.51 1.18381 2.26759 0
M  V30 12559 H 1149.16 2.10406 4.62268 0
M  V30 12560 H 1149.09 0.437297 5.24781 0
M  V30 12561 H 1151.58 0.714208 3.7109 0
M  V30 12562 H 1151.89 2.06977 7.44567 0
M  V30 12563 H 1150.24 1.8547 6.69795 0
M  V30 12564 H 1153.43 0.967272 4.57997 0
M  V30 12565 H 1153.6 1.5852 6.28312 0
M  V30 12566 N 1147.01 -1.56678 0.170181 0
M  V30 12567 C 1148.25 -1.9714 -0.475767 0
M  V30 12568 C 1148.58 -1.05611 -1.62972 0
M  V30 12569 O 1147.86 -0.103017 -1.94227 0
M  V30 12570 C 1148.14 -3.47072 -0.959828 0
M  V30 12571 C 1148 -4.4938 0.194225 0
M  V30 12572 C 1149.31 -4.00071 -1.83387 0
M  V30 12573 H 1146.43 -0.716776 -0.171466 0
M  V30 12574 H 1149.08 -1.88266 0.256086 0
M  V30 12575 H 1147.23 -3.54766 -1.58346 0
M  V30 12576 H 1148.9 -4.53748 0.83128 0
M  V30 12577 H 1147.14 -4.25393 0.849893 0
M  V30 12578 H 1147.81 -5.51685 -0.186575 0
M  V30 12579 H 1150.29 -3.95002 -1.30815 0
M  V30 12580 H 1149.16 -5.05398 -2.14159 0
M  V30 12581 H 1149.42 -3.43819 -2.77923 0
M  V30 12582 N 1148.48 0.103547 -1.57259 0
M  V30 12583 C 1149.73 0.806979 -1.8529 0
M  V30 12584 C 1150.05 1.79679 -0.757653 0
M  V30 12585 O 1149.32 1.94695 0.216913 0
M  V30 12586 H 1147.9 0.301012 -0.683667 0
M  V30 12587 H 1150.56 0.0871886 -1.94705 0
M  V30 12588 H 1149.66 1.34275 -2.81738 0
M  V30 12589 N 1149.96 1.53094 0.37415 0
M  V30 12590 C 1150.89 1.81901 1.46404 0
M  V30 12591 C 1151.87 0.671949 1.56265 0
M  V30 12592 O 1153.06 0.920978 1.70973 0
M  V30 12593 C 1150.19 2.00123 2.83845 0
M  V30 12594 C 1149.14 3.15864 2.88814 0
M  V30 12595 C 1148.47 3.19364 4.28848 0
M  V30 12596 C 1149.77 4.54633 2.57112 0
M  V30 12597 H 1151.46 2.73172 1.22546 0
M  V30 12598 H 1149.01 1.31444 0.588087 0
M  V30 12599 H 1150.96 2.18859 3.6011 0
M  V30 12600 H 1149.68 1.05555 3.09072 0
M  V30 12601 H 1148.34 2.96935 2.15 0
M  V30 12602 H 1147.99 2.2245 4.51137 0
M  V30 12603 H 1147.69 3.97123 4.3309 0
M  V30 12604 H 1149.22 3.40273 5.06997 0
M  V30 12605 H 1150.63 4.73587 3.23091 0
M  V30 12606 H 1149.03 5.34569 2.72683 0
M  V30 12607 H 1150.1 4.60331 1.52392 0
M  V30 12608 N 1151.44 -0.633461 1.44309 0
M  V30 12609 C 1152.86 -0.951379 1.28144 0
M  V30 12610 C 1153.06 -2.00344 0.215512 0
M  V30 12611 O 1152.11 -2.49321 -0.399389 0
M  V30 12612 C 1153.42 -1.41686 2.65227 0
M  V30 12613 C 1154.97 -1.53247 2.72918 0
M  V30 12614 C 1155.45 -2.03179 4.10466 0
M  V30 12615 N 1156.94 -2.10453 4.1263 0
M  V30 12616 C 1157.67 -2.50254 5.15907 0
M  V30 12617 N 1157.17 -2.89209 6.29547 0
M  V30 12618 N 1158.96 -2.50368 5.03262 0
M  V30 12619 H 1151.11 0.0623574 2.12308 0
M  V30 12620 H 1153.38 -0.0347244 0.947364 0
M  V30 12621 H 1153.08 -0.71814 3.4429 0
M  V30 12622 H 1152.96 -2.3883 2.91959 0
M  V30 12623 H 1155.34 -2.22216 1.94176 0
M  V30 12624 H 1155.42 -0.544836 2.4993 0
M  V30 12625 H 1155.07 -1.34806 4.89683 0
M  V30 12626 H 1155 -3.02809 4.3083 0
M  V30 12627 H 1157.49 -1.83042 3.30612 0
M  V30 12628 H 1157.8 -3.18386 7.04166 0
M  V30 12629 H 1156.15 -2.86966 6.32989 0
M  V30 12630 H 1159.34 -2.19324 4.13539 0
M  V30 12631 H 1159.51 -2.81062 5.83873 0
M  V30 12632 N 1152.92 -1.31168 -0.873655 0
M  V30 12633 C 1154.16 -1.20821 -1.62881 0
M  V30 12634 C 1154.5 0.233994 -1.92785 0
M  V30 12635 O 1153.77 1.16588 -1.55684 0
M  V30 12636 C 1154.06 -2.04875 -2.96139 0
M  V30 12637 C 1153.91 -3.57375 -2.73136 0
M  V30 12638 C 1155.23 -1.8953 -3.97198 0
M  V30 12639 H 1152.35 -0.44026 -0.59105 0
M  V30 12640 H 1154.99 -1.6092 -1.01019 0
M  V30 12641 H 1153.14 -1.70806 -3.48938 0
M  V30 12642 H 1154.81 -4.01561 -2.27038 0
M  V30 12643 H 1153.05 -3.8099 -2.07434 0
M  V30 12644 H 1153.72 -4.1149 -3.6794 0
M  V30 12645 H 1156.2 -2.19337 -3.53596 0
M  V30 12646 H 1155.08 -2.5065 -4.8833 0
M  V30 12647 H 1155.34 -0.857576 -4.33703 0
M  V30 12648 N 1154.4 1.08748 -1.14068 0
M  V30 12649 C 1155.67 1.7769 -0.81766 0
M  V30 12650 C 1156.05 1.99522 0.689501 0
M  V30 12651 O 1155.4 1.60222 1.62914 0
M  V30 12652 C 1155.61 3.09517 -1.61245 0
M  V30 12653 C 1156.96 3.84108 -1.80958 0
M  V30 12654 O 1157.98 3.19289 -1.57902 0
M  V30 12655 O 1156.84 5.00491 -2.19479 0
M  V30 12656 H 1153.94 0.770953 -0.299265 0
M  V30 12657 H 1156.48 1.15242 -1.24569 0
M  V30 12658 H 1155.25 2.89155 -2.63638 0
M  V30 12659 H 1154.88 3.79692 -1.17982 0
M  V30 12660 N 1155.87 0.935264 1.26849 0
M  V30 12661 C 1157.1 0.596249 1.98122 0
M  V30 12662 C 1157.52 -0.827452 1.69702 0
M  V30 12663 O 1156.87 -1.55095 0.961864 0
M  V30 12664 C 1156.93 0.821773 3.52036 0
M  V30 12665 O 1156.65 2.18947 3.79465 0
M  V30 12666 C 1158.15 0.492498 4.40556 0
M  V30 12667 H 1155.37 0.225242 0.632066 0
M  V30 12668 H 1157.91 1.25435 1.61512 0
M  V30 12669 H 1156.07 0.210363 3.86828 0
M  V30 12670 H 1156.48 2.24509 4.74021 0
M  V30 12671 H 1157.95 0.700953 5.47531 0
M  V30 12672 H 1158.43 -0.57228 4.35456 0
M  V30 12673 H 1159.04 1.08238 4.11296 0
M  V30 12674 N 1157.35 -1.41121 0.701616 0
M  V30 12675 C 1158.58 -2.05452 0.244365 0
M  V30 12676 C 1159 -1.5282 -1.10866 0
M  V30 12677 O 1158.35 -0.67893 -1.69401 0
M  V30 12678 C 1158.4 -3.60946 0.200112 0
M  V30 12679 O 1158.12 -4.11632 1.4997 0
M  V30 12680 C 1159.63 -4.42431 -0.277394 0
M  V30 12681 H 1156.85 -0.66151 0.112453 0
M  V30 12682 H 1159.39 -1.80784 0.9559 0
M  V30 12683 H 1157.54 -3.84632 -0.462287 0
M  V30 12684 H 1157.96 -5.05723 1.39084 0
M  V30 12685 H 1159.43 -5.514 -0.257225 0
M  V30 12686 H 1159.91 -4.1898 -1.31728 0
M  V30 12687 H 1160.52 -4.23822 0.354223 0
M  V30 12688 N 1158.83 -0.446794 -1.51134 0
M  V30 12689 C 1160.06 0.114727 -2.06281 0
M  V30 12690 C 1160.47 1.36192 -1.31333 0
M  V30 12691 O 1159.81 1.79956 -0.368982 0
M  V30 12692 C 1159.87 0.492968 -3.56104 0
M  V30 12693 C 1159.54 -0.648755 -4.52372 0
M  V30 12694 C 1160.53 -1.52369 -4.97071 0
M  V30 12695 C 1158.22 -0.832177 -4.95359 0
M  V30 12696 C 1160.21 -2.56667 -5.83439 0
M  V30 12697 C 1157.9 -1.87841 -5.81514 0
M  V30 12698 C 1158.9 -2.74404 -6.25453 0
M  V30 12699 O 1158.59 -3.7723 -7.09896 0
M  V30 12700 H 1158.32 0.007138 -0.675962 0
M  V30 12701 H 1160.87 -0.627452 -1.95582 0
M  V30 12702 H 1159.1 1.28799 -3.6462 0
M  V30 12703 H 1160.79 0.986739 -3.93724 0
M  V30 12704 H 1161.56 -1.39356 -4.64548 0
M  V30 12705 H 1157.44 -0.167954 -4.60694 0
M  V30 12706 H 1160.98 -3.24264 -6.17656 0
M  V30 12707 H 1156.88 -2.00871 -6.1345 0
M  V30 12708 H 1157.65 -3.73924 -7.28095 0
M  V30 12709 N 1160.31 1.56586 -0.178487 0
M  V30 12710 C 1161.56 1.96709 0.4637 0
M  V30 12711 C 1161.88 1.06586 1.63292 0
M  V30 12712 O 1161.15 0.133683 1.95443 0
M  V30 12713 H 1159.73 0.726381 0.174299 0
M  V30 12714 H 1162.39 1.9314 -0.261345 0
M  V30 12715 H 1161.49 3.01164 0.818934 0
M  V30 12716 N 1161.79 -0.095206 1.57312 0
M  V30 12717 C 1163.03 -0.799903 1.86358 0
M  V30 12718 C 1163.37 -1.78386 0.767593 0
M  V30 12719 O 1162.64 -1.93201 -0.224439 0
M  V30 12720 C 1162.92 -1.52875 3.26039 0
M  V30 12721 C 1162.78 -0.562781 4.46265 0
M  V30 12722 C 1164.1 -2.47935 3.63616 0
M  V30 12723 H 1161.21 -0.289339 0.677829 0
M  V30 12724 H 1163.86 -0.0635369 1.89894 0
M  V30 12725 H 1162.01 -2.15645 3.23156 0
M  V30 12726 H 1163.68 0.0579068 4.61264 0
M  V30 12727 H 1161.92 0.123847 4.33623 0
M  V30 12728 H 1162.59 -1.10989 5.40727 0
M  V30 12729 H 1165.07 -1.95257 3.67442 0
M  V30 12730 H 1163.94 -2.95948 4.62283 0
M  V30 12731 H 1164.21 -3.31687 2.92294 0
M  V30 12732 N 1163.26 -1.53291 -0.366026 0
M  V30 12733 C 1164.19 -1.82675 -1.45437 0
M  V30 12734 C 1165.18 -0.680227 -1.55907 0
M  V30 12735 O 1166.36 -0.930032 -1.70482 0
M  V30 12736 C 1163.49 -2.01626 -2.8278 0
M  V30 12737 C 1162.44 -3.17391 -2.87135 0
M  V30 12738 C 1161.77 -3.21634 -4.27148 0
M  V30 12739 C 1163.07 -4.5599 -2.54697 0
M  V30 12740 H 1164.76 -2.73818 -1.21096 0
M  V30 12741 H 1162.31 -1.31754 -0.581108 0
M  V30 12742 H 1164.26 -2.20765 -3.58944 0
M  V30 12743 H 1162.99 -1.07193 -3.08508 0
M  V30 12744 H 1161.65 -2.98071 -2.13422 0
M  V30 12745 H 1161.29 -2.2484 -4.49951 0
M  V30 12746 H 1160.99 -3.99414 -4.30978 0
M  V30 12747 H 1162.52 -3.42957 -5.05186 0
M  V30 12748 H 1163.93 -4.75294 -3.20575 0
M  V30 12749 H 1162.33 -5.36008 -2.69844 0
M  V30 12750 H 1163.4 -4.61133 -1.49949 0
M  V30 12751 N 1164.74 0.6258 -1.44643 0
M  V30 12752 C 1165.67 1.74858 -1.54748 0
M  V30 12753 C 1166.65 1.65327 -0.400138 0
M  V30 12754 O 1167.84 1.84005 -0.620948 0
M  V30 12755 C 1164.97 3.13408 -1.49643 0
M  V30 12756 C 1163.92 3.37733 -2.62908 0
M  V30 12757 C 1163.25 4.76367 -2.42855 0
M  V30 12758 C 1164.55 3.29771 -4.05029 0
M  V30 12759 H 1166.24 1.66658 -2.48728 0
M  V30 12760 H 1163.79 0.800363 -1.19709 0
M  V30 12761 H 1165.74 3.91735 -1.55312 0
M  V30 12762 H 1164.47 3.22404 -0.521824 0
M  V30 12763 H 1163.12 2.61788 -2.56637 0
M  V30 12764 H 1162.77 4.82074 -1.43575 0
M  V30 12765 H 1162.47 4.936 -3.18799 0
M  V30 12766 H 1164 5.56917 -2.50351 0
M  V30 12767 H 1165.41 3.97996 -4.12641 0
M  V30 12768 H 1163.81 3.58538 -4.81218 0
M  V30 12769 H 1164.88 2.27493 -4.28223 0
M  V30 12770 N 1166.22 1.31629 0.866686 0
M  V30 12771 C 1167.15 1.22151 1.99001 0
M  V30 12772 C 1168.13 0.107972 1.69757 0
M  V30 12773 O 1169.32 0.293125 1.91975 0
M  V30 12774 C 1166.45 0.93144 3.34577 0
M  V30 12775 C 1165.4 2.0049 3.78137 0
M  V30 12776 C 1164.73 1.56747 5.11209 0
M  V30 12777 C 1166.03 3.41844 3.94892 0
M  V30 12778 H 1167.72 2.16132 2.0719 0
M  V30 12779 H 1165.27 1.04051 0.995463 0
M  V30 12780 H 1167.22 0.851719 4.12703 0
M  V30 12781 H 1165.94 -0.0440289 3.2657 0
M  V30 12782 H 1164.6 2.07457 3.02253 0
M  V30 12783 H 1164.25 0.579767 4.99648 0
M  V30 12784 H 1163.95 2.28562 5.41326 0
M  V30 12785 H 1165.47 1.50188 5.91841 0
M  V30 12786 H 1166.89 3.37534 4.63405 0
M  V30 12787 H 1165.29 4.11905 4.36411 0
M  V30 12788 H 1166.36 3.82389 2.98172 0
M  V30 12789 N 1167.7 -1.08142 1.14644 0
M  V30 12790 C 1168.63 -2.17139 0.858667 0
M  V30 12791 C 1169.61 -1.69064 -0.187452 0
M  V30 12792 O 1170.8 -1.94151 -0.0435458 0
M  V30 12793 C 1167.93 -3.45648 0.33834 0
M  V30 12794 C 1166.88 -4.07129 1.32021 0
M  V30 12795 C 1166.21 -5.30623 0.659075 0
M  V30 12796 C 1167.51 -4.48095 2.68343 0
M  V30 12797 H 1169.2 -2.41468 1.77012 0
M  V30 12798 H 1166.75 -1.16052 0.852523 0
M  V30 12799 H 1168.7 -4.21216 0.124611 0
M  V30 12800 H 1167.42 -3.2088 -0.608553 0
M  V30 12801 H 1166.08 -3.33596 1.52016 0
M  V30 12802 H 1165.73 -5.02142 -0.293711 0
M  V30 12803 H 1165.43 -5.72714 1.31427 0
M  V30 12804 H 1166.95 -6.08903 0.454933 0
M  V30 12805 H 1168.37 -5.14828 2.5224 0
M  V30 12806 H 1166.76 -5.01113 3.30161 0
M  V30 12807 H 1167.83 -3.59852 3.25015 0
M  V30 12808 N 1169.18 -0.941978 -1.26351 0
M  V30 12809 C 1170.59 -0.632522 -1.75659 0
M  V30 12810 C 1170.94 0.852287 -1.76722 0
M  V30 12811 O 1170.06 1.66701 -1.37985 0
M  V30 12812 C 1170.66 -1.14145 -3.18993 0
M  V30 12813 C 1169.22 -0.882391 -3.65911 0
M  V30 12814 C 1168.37 -1.29189 -2.45368 0
M  V30 12815 H 1171.32 -1.12019 -1.12416 0
M  V30 12816 H 1171.34 -0.495639 -3.77258 0
M  V30 12817 H 1170.85 -2.22213 -3.18187 0
M  V30 12818 H 1168.95 0.183873 -3.72146 0
M  V30 12819 H 1169.06 -1.50996 -4.54683 0
M  V30 12820 H 1167.43 -0.710316 -2.44595 0
M  V30 12821 H 1168.21 -2.38152 -2.47262 0
M  V30 12822 N 1170.66 1.40747 -0.709091 0
M  V30 12823 C 1171.9 2.013 -0.246174 0
M  V30 12824 C 1172.23 1.56078 1.15556 0
M  V30 12825 O 1171.51 0.777941 1.78265 0
M  V30 12826 C 1171.79 3.58685 -0.318945 0
M  V30 12827 C 1171.65 4.13997 -1.75859 0
M  V30 12828 C 1172.96 4.38981 0.31358 0
M  V30 12829 H 1170.08 0.73137 -0.0909255 0
M  V30 12830 H 1172.73 1.67312 -0.900365 0
M  V30 12831 H 1170.88 3.8777 0.23805 0
M  V30 12832 H 1172.55 3.95735 -2.37047 0
M  V30 12833 H 1170.79 3.6853 -2.28841 0
M  V30 12834 H 1171.46 5.23158 -1.76095 0
M  V30 12835 H 1173.94 4.15789 -0.160939 0
M  V30 12836 H 1172.81 5.48409 0.232184 0
M  V30 12837 H 1173.07 4.19474 1.39621 0
M  V30 12838 N 1172.13 0.454803 1.50895 0
M  V30 12839 C 1173.38 -0.107367 2.01414 0
M  V30 12840 C 1173.7 -1.42243 1.34262 0
M  V30 12841 O 1174.9 -2.06858 1.75846 0
M  V30 12842 C 1173.36 -0.241872 3.59086 0
M  V30 12843 C 1172.97 1.06379 4.35187 0
M  V30 12844 C 1174.71 -0.756873 4.17698 0
M  V30 12845 C 1172.62 0.893973 5.84604 0
M  V30 12846 H 1171.55 -0.0439003 0.752721 0
M  V30 12847 H 1174.2 0.587225 1.7385 0
M  V30 12848 H 1172.58 -0.999873 3.83169 0
M  V30 12849 H 1173.75 1.83148 4.2284 0
M  V30 12850 H 1172.07 1.50865 3.88109 0
M  V30 12851 H 1174.67 -0.900697 5.27059 0
M  V30 12852 H 1175.01 -1.74397 3.7801 0
M  V30 12853 H 1175.54 -0.0567088 3.9776 0
M  V30 12854 H 1172.28 1.85395 6.28736 0
M  V30 12855 H 1171.8 0.166387 5.99569 0
M  V30 12856 H 1173.48 0.554084 6.44623 0
M  V30 12857 N 1173.61 -1.56489 0.186789 0
M  V30 12858 C 1174.57 -2.17478 -0.723596 0
M  V30 12859 C 1175.57 -1.12698 -1.14699 0
M  V30 12860 O 1176.76 -1.38128 -1.06143 0
M  V30 12861 C 1173.9 -2.77015 -1.98685 0
M  V30 12862 H 1175.09 -2.99282 -0.192403 0
M  V30 12863 H 1172.64 -1.56174 -0.0628153 0
M  V30 12864 H 1173.38 -1.98987 -2.56076 0
M  V30 12865 H 1173.16 -3.53711 -1.69207 0
M  V30 12866 H 1174.65 -3.23872 -2.63622 0
M  V30 12867 N 1175.09 0.086862 -1.5736 0
M  V30 12868 C 1176.02 1.10538 -2.05678 0
M  V30 12869 C 1177 1.41281 -0.947293 0
M  V30 12870 O 1178.19 1.51169 -1.21908 0
M  V30 12871 C 1175.32 2.42302 -2.48812 0
M  V30 12872 C 1174.27 2.25948 -3.63499 0
M  V30 12873 C 1173.6 3.62961 -3.92637 0
M  V30 12874 C 1174.9 1.69319 -4.94094 0
M  V30 12875 H 1176.59 0.703371 -2.91021 0
M  V30 12876 H 1174.14 0.336895 -1.40004 0
M  V30 12877 H 1176.09 3.13833 -2.81224 0
M  V30 12878 H 1174.81 2.84454 -1.60479 0
M  V30 12879 H 1173.47 1.5686 -3.31347 0
M  V30 12880 H 1173.12 4.02656 -3.01459 0
M  V30 12881 H 1172.82 3.52862 -4.69853 0
M  V30 12882 H 1174.34 4.35946 -4.27531 0
M  V30 12883 H 1175.76 2.30699 -5.24834 0
M  V30 12884 H 1174.15 1.69957 -5.7553 0
M  V30 12885 H 1175.22 0.653318 -4.80479 0
M  V30 12886 N 1176.57 1.53483 0.357892 0
M  V30 12887 C 1177.81 1.70037 1.09971 0
M  V30 12888 C 1178.14 0.456112 1.89076 0
M  V30 12889 O 1177.4 -0.562029 1.87456 0
M  V30 12890 C 1177.7 2.90654 2.07978 0
M  V30 12891 C 1177.36 4.26849 1.45295 0
M  V30 12892 C 1176.02 4.63884 1.27928 0
M  V30 12893 C 1178.38 5.11514 1.00013 0
M  V30 12894 C 1175.7 5.83213 0.638745 0
M  V30 12895 C 1178.06 6.31496 0.373568 0
M  V30 12896 C 1176.72 6.67237 0.187457 0
M  V30 12897 H 1175.99 0.622209 0.402414 0
M  V30 12898 H 1178.64 1.87679 0.380615 0
M  V30 12899 H 1176.94 2.67556 2.86219 0
M  V30 12900 H 1178.64 3.00656 2.65343 0
M  V30 12901 H 1175.23 3.97693 1.59807 0
M  V30 12902 H 1179.41 4.83446 1.12221 0
M  V30 12903 H 1174.67 6.09489 0.483035 0
M  V30 12904 H 1178.84 6.96398 0.0145346 0
M  V30 12905 H 1176.47 7.59564 -0.310933 0
M  V30 12906 N 1178.05 -0.61812 1.44973 0
M  V30 12907 C 1179.01 -1.71135 1.52465 0
M  V30 12908 C 1180.01 -1.5561 0.405246 0
M  V30 12909 O 1181.2 -1.60869 0.668351 0
M  V30 12910 C 1178.33 -3.10324 1.41108 0
M  V30 12911 H 1179.52 -1.65862 2.49859 0
M  V30 12912 H 1177.08 -0.832932 1.32257 0
M  V30 12913 H 1177.81 -3.21183 0.448574 0
M  V30 12914 H 1177.6 -3.23001 2.2229 0
M  V30 12915 H 1179.09 -3.89976 1.49361 0
M  V30 12916 N 1179.52 -1.32087 -0.859693 0
M  V30 12917 C 1180.77 -1.22542 -1.6159 0
M  V30 12918 C 1181.1 0.213533 -1.93022 0
M  V30 12919 O 1180.38 1.14931 -1.56911 0
M  V30 12920 C 1180.66 -2.08004 -2.93949 0
M  V30 12921 C 1180.51 -3.60252 -2.6933 0
M  V30 12922 C 1181.83 -1.93732 -3.95166 0
M  V30 12923 H 1178.95 -0.446504 -0.586347 0
M  V30 12924 H 1181.59 -1.61982 -0.993064 0
M  V30 12925 H 1179.74 -1.74498 -3.47106 0
M  V30 12926 H 1181.42 -4.03947 -2.22766 0
M  V30 12927 H 1179.66 -3.83169 -2.03382 0
M  V30 12928 H 1180.33 -4.1537 -3.63555 0
M  V30 12929 H 1182.81 -2.23075 -3.5125 0
M  V30 12930 H 1181.68 -2.55815 -4.85644 0
M  V30 12931 H 1181.94 -0.903528 -4.32769 0
M  V30 12932 N 1181 1.07532 -1.15215 0
M  V30 12933 C 1181.93 2.1668 -0.870171 0
M  V30 12934 C 1182.91 1.69161 0.178483 0
M  V30 12935 O 1184.1 1.94172 0.0332489 0
M  V30 12936 C 1181.23 3.45464 -0.356666 0
M  V30 12937 C 1180.18 4.06424 -1.34179 0
M  V30 12938 C 1179.51 5.30266 -0.687206 0
M  V30 12939 C 1180.81 4.46666 -2.70715 0
M  V30 12940 H 1182.5 2.40526 -1.7829 0
M  V30 12941 H 1180.05 1.15598 -0.858665 0
M  V30 12942 H 1182 4.21144 -0.146947 0
M  V30 12943 H 1180.72 3.21199 0.591527 0
M  V30 12944 H 1179.38 3.32786 -1.53783 0
M  V30 12945 H 1179.03 5.0229 0.267077 0
M  V30 12946 H 1178.73 5.72009 -1.34462 0
M  V30 12947 H 1180.26 6.08653 -0.487218 0
M  V30 12948 H 1181.67 5.13483 -2.54966 0
M  V30 12949 H 1180.07 4.99355 -3.32813 0
M  V30 12950 H 1181.14 3.58123 -3.26919 0
M  V30 12951 N 1182.48 0.948665 1.2585 0
M  V30 12952 C 1183.71 0.617229 1.97479 0
M  V30 12953 C 1184.12 -0.809406 1.7057 0
M  V30 12954 O 1183.48 -1.54066 0.97826 0
M  V30 12955 C 1183.53 0.859065 3.51144 0
M  V30 12956 O 1183.25 2.2296 3.77121 0
M  V30 12957 C 1184.75 0.539197 4.40009 0
M  V30 12958 H 1181.97 0.231933 0.629641 0
M  V30 12959 H 1184.52 1.27141 1.60173 0
M  V30 12960 H 1182.67 0.25138 3.86584 0
M  V30 12961 H 1183.09 2.29524 4.71613 0
M  V30 12962 H 1184.56 0.758986 5.46757 0
M  V30 12963 H 1185.04 -0.526062 4.36038 0
M  V30 12964 H 1185.64 1.12594 4.10125 0
M  V30 12965 N 1183.96 -1.40369 0.716545 0
M  V30 12966 C 1185.21 -2.00101 0.253452 0
M  V30 12967 C 1185.52 -1.57471 -1.16027 0
M  V30 12968 O 1186.73 -2.09909 -1.72193 0
M  V30 12969 C 1185.18 -3.57645 0.402213 0
M  V30 12970 C 1184.79 -4.09248 1.82264 0
M  V30 12971 C 1186.53 -4.245 -3.88526e-05 0
M  V30 12972 C 1184.44 -5.59299 1.92193 0
M  V30 12973 H 1183.37 -0.748488 0.0910047 0
M  V30 12974 H 1186.02 -1.60595 0.887772 0
M  V30 12975 H 1184.4 -3.94857 -0.300706 0
M  V30 12976 H 1185.58 -3.83412 2.55601 0
M  V30 12977 H 1183.89 -3.54993 2.17644 0
M  V30 12978 H 1186.49 -5.34673 0.0534202 0
M  V30 12979 H 1186.83 -4.03046 -1.04208 0
M  V30 12980 H 1187.37 -3.92398 0.65336 0
M  V30 12981 H 1184.11 -5.85608 2.94522 0
M  V30 12982 H 1183.63 -5.86997 1.23268 0
M  V30 12983 H 1185.3 -6.24416 1.6945 0
M  V30 12984 N 1185.44 -0.462799 -1.50652 0
M  V30 12985 C 1186.68 0.0950445 -2.02277 0
M  V30 12986 C 1187.01 1.40465 -1.34536 0
M  V30 12987 O 1186.27 1.90283 -0.457279 0
M  V30 12988 C 1186.57 0.335294 -3.55824 0
M  V30 12989 C 1186.23 -0.891589 -4.41997 0
M  V30 12990 C 1184.89 -1.22799 -4.65268 0
M  V30 12991 C 1187.25 -1.70885 -4.9239 0
M  V30 12992 C 1184.57 -2.38186 -5.36175 0
M  V30 12993 C 1186.93 -2.85394 -5.64564 0
M  V30 12994 C 1185.59 -3.19458 -5.86091 0
M  V30 12995 H 1184.86 0.0347793 -0.740183 0
M  V30 12996 H 1187.51 -0.61519 -1.8135 0
M  V30 12997 H 1185.81 1.12769 -3.7522 0
M  V30 12998 H 1187.51 0.780752 -3.93326 0
M  V30 12999 H 1184.1 -0.619495 -4.24099 0
M  V30 13000 H 1188.28 -1.46215 -4.74273 0
M  V30 13001 H 1183.54 -2.64862 -5.51052 0
M  V30 13002 H 1187.71 -3.49073 -6.02595 0
M  V30 13003 H 1185.34 -4.08978 -6.40813 0
M  V30 13004 N 1186.91 1.56388 -0.195085 0
M  V30 13005 C 1188.16 1.96755 0.443901 0
M  V30 13006 C 1188.48 1.08483 1.6276 0
M  V30 13007 O 1189.68 1.38632 2.33438 0
M  V30 13008 C 1188.14 3.49933 0.841139 0
M  V30 13009 C 1187.75 4.46868 -0.318275 0
M  V30 13010 C 1189.49 3.99069 1.44721 0
M  V30 13011 C 1187.4 5.91316 0.0999211 0
M  V30 13012 H 1186.33 0.734674 0.169616 0
M  V30 13013 H 1188.98 1.8124 -0.287101 0
M  V30 13014 H 1187.36 3.60951 1.62881 0
M  V30 13015 H 1188.53 4.47581 -1.0958 0
M  V30 13016 H 1186.85 4.07925 -0.835842 0
M  V30 13017 H 1189.45 5.04465 1.77255 0
M  V30 13018 H 1189.79 3.43376 2.35369 0
M  V30 13019 H 1190.32 3.91165 0.723513 0
M  V30 13020 H 1187.06 6.50934 -0.77237 0
M  V30 13021 H 1186.58 5.93856 0.842304 0
M  V30 13022 H 1188.26 6.44778 0.535726 0
M  V30 13023 N 1188.39 -0.0785156 1.57404 0
M  V30 13024 C 1189.32 -1.09446 2.06262 0
M  V30 13025 C 1190.3 -1.40777 0.954772 0
M  V30 13026 O 1191.49 -1.5052 1.22708 0
M  V30 13027 C 1188.62 -2.40979 2.50093 0
M  V30 13028 C 1187.57 -2.24017 3.64692 0
M  V30 13029 C 1186.9 -3.60873 3.94556 0
M  V30 13030 C 1188.2 -1.66696 4.94985 0
M  V30 13031 H 1189.89 -0.687928 2.9139 0
M  V30 13032 H 1187.44 -0.329466 1.4018 0
M  V30 13033 H 1189.39 -3.12337 2.82884 0
M  V30 13034 H 1188.12 -2.83599 1.61985 0
M  V30 13035 H 1186.77 -1.55101 3.32174 0
M  V30 13036 H 1186.42 -4.01051 3.0359 0
M  V30 13037 H 1186.12 -3.50365 4.71718 0
M  V30 13038 H 1187.65 -4.33673 4.29837 0
M  V30 13039 H 1189.06 -2.27913 5.2605 0
M  V30 13040 H 1187.46 -1.66902 5.76423 0
M  V30 13041 H 1188.53 -0.627827 4.80818 0
M  V30 13042 N 1189.87 -1.5367 -0.349747 0
M  V30 13043 C 1190.8 -1.84208 -1.43492 0
M  V30 13044 C 1191.78 -0.696725 -1.55177 0
M  V30 13045 O 1192.97 -0.948061 -1.69486 0
M  V30 13046 C 1190.1 -2.04613 -2.80625 0
M  V30 13047 C 1189.05 -3.20419 -2.83753 0
M  V30 13048 C 1188.38 -3.26147 -4.23713 0
M  V30 13049 C 1189.68 -4.58666 -2.49846 0
M  V30 13050 H 1191.37 -2.75087 -1.18185 0
M  V30 13051 H 1188.92 -1.32363 -0.567101 0
M  V30 13052 H 1190.87 -2.2456 -3.56582 0
M  V30 13053 H 1189.59 -1.10459 -3.07354 0
M  V30 13054 H 1188.25 -3.00318 -2.10249 0
M  V30 13055 H 1187.9 -2.29599 -4.47541 0
M  V30 13056 H 1187.6 -4.03963 -4.26717 0
M  V30 13057 H 1189.12 -3.48296 -5.0152 0
M  V30 13058 H 1190.54 -4.78668 -3.15516 0
M  V30 13059 H 1188.94 -5.3884 -2.64144 0
M  V30 13060 H 1190.01 -4.62697 -1.4505 0
M  V30 13061 N 1191.35 0.610423 -1.45298 0
M  V30 13062 C 1192.6 1.36558 -1.48441 0
M  V30 13063 C 1192.91 1.95173 -0.129137 0
M  V30 13064 O 1194.12 2.71473 -0.0381956 0
M  V30 13065 C 1192.57 2.47349 -2.61431 0
M  V30 13066 C 1192.18 1.95158 -4.03258 0
M  V30 13067 C 1193.92 3.24383 -2.73817 0
M  V30 13068 C 1191.83 3.03414 -5.07635 0
M  V30 13069 H 1190.76 0.513253 -0.552347 0
M  V30 13070 H 1193.41 0.654535 -1.7143 0
M  V30 13071 H 1191.79 3.21125 -2.31721 0
M  V30 13072 H 1192.97 1.2811 -4.42634 0
M  V30 13073 H 1191.28 1.30878 -3.95297 0
M  V30 13074 H 1193.88 4.05123 -3.48969 0
M  V30 13075 H 1194.22 3.75205 -1.80352 0
M  V30 13076 H 1194.76 2.57705 -3.03039 0
M  V30 13077 H 1191.5 2.57512 -6.028 0
M  V30 13078 H 1191.02 3.69039 -4.72833 0
M  V30 13079 H 1192.69 3.67844 -5.32259 0
M  V30 13080 N 1192.83 1.32541 0.852676 0
M  V30 13081 C 1193.76 1.15977 1.96531 0
M  V30 13082 C 1194.74 0.0587267 1.62494 0
M  V30 13083 O 1195.92 0.218404 1.8723 0
M  V30 13084 C 1193.05 0.77587 3.29694 0
M  V30 13085 C 1192.09 1.88244 3.82709 0
M  V30 13086 S 1192.93 3.49108 4.06059 0
M  V30 13087 C 1194.08 3.12693 5.42193 0
M  V30 13088 H 1194.32 2.10165 2.1028 0
M  V30 13089 H 1191.85 1.17225 1.00487 0
M  V30 13090 H 1193.81 0.561136 4.06647 0
M  V30 13091 H 1192.47 -0.14718 3.13755 0
M  V30 13092 H 1191.66 1.56687 4.79025 0
M  V30 13093 H 1191.26 2.05313 3.12606 0
M  V30 13094 H 1193.56 2.62661 6.24512 0
M  V30 13095 H 1194.5 4.08038 5.78714 0
M  V30 13096 H 1194.91 2.4966 5.06291 0
M  V30 13097 N 1194.3 -1.0692 1.15784 0
M  V30 13098 C 1195.21 -2.17762 0.872753 0
M  V30 13099 C 1196.23 -1.73329 -0.152608 0
M  V30 13100 O 1197.41 -2.01387 0.022519 0
M  V30 13101 C 1194.47 -3.4471 0.370887 0
M  V30 13102 C 1193.53 -4.03686 1.46069 0
M  V30 13103 C 1192.77 -5.24575 0.982675 0
M  V30 13104 O 1192.99 -5.70146 -0.17006 0
M  V30 13105 O 1191.92 -5.7534 1.76828 0
M  V30 13106 H 1195.75 -2.44648 1.79948 0
M  V30 13107 H 1193.33 -1.1634 0.937303 0
M  V30 13108 H 1195.22 -4.21287 0.0976779 0
M  V30 13109 H 1193.89 -3.19366 -0.527912 0
M  V30 13110 H 1192.8 -3.28629 1.78756 0
M  V30 13111 H 1194.13 -4.33312 2.33456 0
M  V30 13112 N 1195.78 -0.955326 -1.25345 0
M  V30 13113 C 1197.03 -0.609278 -1.92697 0
M  V30 13114 C 1197.35 0.856535 -1.75181 0
M  V30 13115 O 1196.62 1.61013 -1.11587 0
M  V30 13116 H 1195.2 -0.22235 -0.713141 0
M  V30 13117 H 1197.86 -1.21372 -1.52496 0
M  V30 13118 H 1196.96 -0.839198 -3.00606 0
M  V30 13119 N 1197.26 1.39987 -0.723979 0
M  V30 13120 C 1198.19 2.3332 -0.0917282 0
M  V30 13121 C 1199.17 1.53335 0.736361 0
M  V30 13122 O 1200.36 1.81771 0.683582 0
M  V30 13123 C 1197.49 3.3737 0.824549 0
M  V30 13124 C 1196.44 4.2788 0.101452 0
M  V30 13125 C 1195.77 5.22536 1.13401 0
M  V30 13126 C 1197.07 5.11649 -1.04939 0
M  V30 13127 H 1198.76 2.86441 -0.871318 0
M  V30 13128 H 1196.31 1.37725 -0.420448 0
M  V30 13129 H 1198.26 4.01607 1.27631 0
M  V30 13130 H 1196.98 2.82663 1.63613 0
M  V30 13131 H 1195.64 3.65107 -0.330569 0
M  V30 13132 H 1195.29 4.64131 1.93886 0
M  V30 13133 H 1194.99 5.83938 0.65502 0
M  V30 13134 H 1196.52 5.89651 1.58569 0
M  V30 13135 H 1197.93 5.69293 -0.6766 0
M  V30 13136 H 1196.33 5.82137 -1.45729 0
M  V30 13137 H 1197.4 4.47132 -1.8762 0
M  V30 13138 N 1198.74 0.470782 1.50404 0
M  V30 13139 C 1199.96 -0.084284 2.07229 0
M  V30 13140 C 1200.39 -1.32774 1.33239 0
M  V30 13141 O 1199.75 -1.77274 0.379971 0
M  V30 13142 C 1199.8 -0.351565 3.58882 0
M  V30 13143 O 1198.9 -1.43211 3.86736 0
M  V30 13144 H 1198.24 0.0128479 0.663876 0
M  V30 13145 H 1200.77 0.661735 1.93603 0
M  V30 13146 H 1200.78 -0.592151 4.0368 0
M  V30 13147 H 1199.46 0.557084 4.12152 0
M  V30 13148 H 1198.03 -1.17886 3.53776 0
M  V30 13149 N 1200.22 -1.56282 0.203376 0
M  V30 13150 C 1201.18 -2.18233 -0.700489 0
M  V30 13151 C 1202.18 -1.13908 -1.13497 0
M  V30 13152 O 1203.37 -1.39246 -1.04672 0
M  V30 13153 C 1200.5 -2.79107 -1.95735 0
M  V30 13154 H 1201.7 -2.99469 -0.160649 0
M  V30 13155 H 1199.25 -1.56232 -0.0462475 0
M  V30 13156 H 1199.98 -2.01691 -2.53951 0
M  V30 13157 H 1199.77 -3.55486 -1.65446 0
M  V30 13158 H 1201.26 -3.2665 -2.60172 0
M  V30 13159 N 1201.7 0.070167 -1.57444 0
M  V30 13160 C 1202.94 0.769014 -1.8733 0
M  V30 13161 C 1203.27 1.77496 -0.79533 0
M  V30 13162 O 1202.53 1.94586 0.208495 0
M  V30 13163 C 1202.82 1.5111 -3.23883 0
M  V30 13164 C 1202.49 0.644988 -4.46263 0
M  V30 13165 C 1201.15 0.406307 -4.79482 0
M  V30 13166 C 1203.5 0.0444938 -5.21181 0
M  V30 13167 C 1200.83 -0.442322 -5.8503 0
M  V30 13168 C 1203.18 -0.791599 -6.27628 0
M  V30 13169 C 1201.85 -1.04014 -6.59346 0
M  V30 13170 H 1201.12 0.281402 -0.685488 0
M  V30 13171 H 1203.77 0.029752 -1.91477 0
M  V30 13172 H 1202.07 2.32261 -3.15535 0
M  V30 13173 H 1203.77 2.05665 -3.44242 0
M  V30 13174 H 1200.36 0.841148 -4.20265 0
M  V30 13175 H 1204.54 0.216005 -4.9583 0
M  V30 13176 H 1199.8 -0.643607 -6.08003 0
M  V30 13177 H 1203.97 -1.26363 -6.8484 0
M  V30 13178 H 1201.6 -1.69949 -7.4096 0
M  V30 13179 N 1203.17 1.53854 0.341593 0
M  V30 13180 C 1204.1 1.84966 1.42513 0
M  V30 13181 C 1205.08 0.704944 1.54805 0
M  V30 13182 O 1206.27 0.957036 1.68981 0
M  V30 13183 C 1203.4 2.06099 2.79536 0
M  V30 13184 C 1202.35 3.21919 2.82049 0
M  V30 13185 C 1201.68 3.28389 4.21977 0
M  V30 13186 C 1202.98 4.59984 2.4741 0
M  V30 13187 H 1204.67 2.7571 1.16724 0
M  V30 13188 H 1202.22 1.32662 0.560073 0
M  V30 13189 H 1204.17 2.26448 3.55386 0
M  V30 13190 H 1202.9 1.12087 3.06764 0
M  V30 13191 H 1201.56 3.01429 2.08653 0
M  V30 13192 H 1201.2 2.3197 4.46317 0
M  V30 13193 H 1200.9 4.0622 4.24569 0
M  V30 13194 H 1202.43 3.50951 4.99666 0
M  V30 13195 H 1203.84 4.80334 3.12973 0
M  V30 13196 H 1202.24 5.40233 2.61282 0
M  V30 13197 H 1203.31 4.6346 1.42594 0
M  V30 13198 N 1204.65 -0.602709 1.4562 0
M  V30 13199 C 1205.6 -1.70753 1.51088 0
M  V30 13200 C 1206.59 -1.56501 0.373662 0
M  V30 13201 O 1207.78 -1.65755 0.620828 0
M  V30 13202 C 1204.91 -3.09515 1.48511 0
M  V30 13203 C 1203.99 -3.29135 2.67453 0
M  V30 13204 N 1204.38 -3.18996 3.92524 0
M  V30 13205 C 1202.68 -3.60019 2.63253 0
M  V30 13206 C 1203.38 -3.40079 4.71933 0
M  V30 13207 N 1202.36 -3.64299 4.03469 0
M  V30 13208 H 1206.16 -1.61414 2.45607 0
M  V30 13209 H 1203.67 -0.806122 1.4098 0
M  V30 13210 H 1205.67 -3.88782 1.50513 0
M  V30 13211 H 1204.33 -3.19999 0.550526 0
M  V30 13212 H 1205.34 -2.97292 4.24073 0
M  V30 13213 H 1202.02 -3.77311 1.78725 0
M  V30 13214 H 1203.41 -3.37593 5.80931 0
M  V30 13215 N 1206.13 -1.32992 -0.845635 0
M  V30 13216 C 1207.09 -1.22607 -1.9365 0
M  V30 13217 C 1208.09 -0.146812 -1.60128 0
M  V30 13218 O 1209.28 -0.397863 -1.69596 0
M  V30 13219 C 1206.41 -0.887677 -3.2914 0
M  V30 13220 H 1207.61 -2.19563 -2.04285 0
M  V30 13221 H 1205.16 -1.16952 -1.03691 0
M  V30 13222 H 1205.9 0.0796777 -3.24202 0
M  V30 13223 H 1205.68 -1.66808 -3.54849 0
M  V30 13224 H 1207.17 -0.83958 -4.09073 0
M  V30 13225 N 1207.61 1.06304 -1.1635 0
M  V30 13226 C 1208.86 1.78487 -0.939423 0
M  V30 13227 C 1209.17 1.8817 0.533998 0
M  V30 13228 O 1210.38 2.56981 0.875962 0
M  V30 13229 C 1208.83 3.20796 -1.63149 0
M  V30 13230 C 1208.44 3.19281 -3.14267 0
M  V30 13231 C 1210.18 3.97514 -1.48938 0
M  V30 13232 C 1208.09 4.56309 -3.76213 0
M  V30 13233 H 1207.02 0.668973 -0.347837 0
M  V30 13234 H 1209.67 1.19237 -1.3948 0
M  V30 13235 H 1208.05 3.80305 -1.10382 0
M  V30 13236 H 1209.23 2.69356 -3.73877 0
M  V30 13237 H 1207.54 2.56062 -3.28362 0
M  V30 13238 H 1210.14 4.98808 -1.926 0
M  V30 13239 H 1210.48 4.13986 -0.438319 0
M  V30 13240 H 1211.02 3.44528 -1.98861 0
M  V30 13241 H 1207.75 4.45042 -4.81267 0
M  V30 13242 H 1207.27 5.06429 -3.21388 0
M  V30 13243 H 1208.95 5.25266 -3.77762 0
M  V30 13244 N 1209.09 0.96196 1.24836 0
M  V30 13245 C 1210.5 0.667561 1.44968 0
M  V30 13246 C 1210.7 -0.772521 1.86103 0
M  V30 13247 O 1209.76 -1.54704 1.99557 0
M  V30 13248 C 1211.07 1.64675 2.516 0
M  V30 13249 C 1212.62 1.65874 2.65433 0
M  V30 13250 C 1213.09 2.62576 3.75257 0
M  V30 13251 N 1214.58 2.60984 3.82677 0
M  V30 13252 C 1215.32 3.32484 4.67163 0
M  V30 13253 N 1214.82 4.13482 5.55882 0
M  V30 13254 N 1216.61 3.21336 4.61193 0
M  V30 13255 H 1208.76 1.89248 0.964307 0
M  V30 13256 H 1211.02 0.814443 0.485167 0
M  V30 13257 H 1210.73 2.67572 2.2825 0
M  V30 13258 H 1210.6 1.415 3.49653 0
M  V30 13259 H 1212.99 0.636912 2.88145 0
M  V30 13260 H 1213.07 1.9311 1.67756 0
M  V30 13261 H 1212.71 3.6489 3.53295 0
M  V30 13262 H 1212.64 2.32622 4.72435 0
M  V30 13263 H 1215.14 2.02187 3.19263 0
M  V30 13264 H 1215.45 4.6494 6.17293 0
M  V30 13265 H 1213.79 4.17578 5.55566 0
M  V30 13266 H 1216.98 2.57524 3.90895 0
M  V30 13267 H 1217.16 3.77323 5.26812 0
M  V30 13268 N 1210.56 -1.39601 0.731392 0
M  V30 13269 C 1211.49 -2.33268 0.1041 0
M  V30 13270 C 1212.47 -1.53724 -0.728219 0
M  V30 13271 O 1213.66 -1.82131 -0.673933 0
M  V30 13272 C 1210.79 -3.37802 -0.806646 0
M  V30 13273 C 1209.74 -4.27928 -0.0787588 0
M  V30 13274 C 1209.07 -5.23131 -1.10628 0
M  V30 13275 C 1210.37 -5.11086 1.07651 0
M  V30 13276 H 1212.06 -2.85975 0.886496 0
M  V30 13277 H 1209.61 -1.375 0.427746 0
M  V30 13278 H 1211.56 -4.02278 -1.25499 0
M  V30 13279 H 1210.29 -2.83527 -1.62112 0
M  V30 13280 H 1208.95 -3.64926 0.349926 0
M  V30 13281 H 1208.59 -4.65152 -1.91422 0
M  V30 13282 H 1208.29 -5.84277 -0.624043 0
M  V30 13283 H 1209.82 -5.90483 -1.5544 0
M  V30 13284 H 1211.23 -5.68927 0.706781 0
M  V30 13285 H 1209.63 -5.81356 1.48814 0
M  V30 13286 H 1210.7 -4.46131 1.89988 0
M  V30 13287 N 1212.04 -0.478751 -1.50152 0
M  V30 13288 C 1212.99 0.330224 -2.25596 0
M  V30 13289 C 1213.98 0.954871 -1.29503 0
M  V30 13290 O 1215.17 0.866153 -1.54359 0
M  V30 13291 C 1212.3 1.40719 -3.13134 0
M  V30 13292 C 1211.38 0.789896 -4.16679 0
M  V30 13293 N 1211.77 -0.094345 -5.05712 0
M  V30 13294 C 1210.07 1.05299 -4.33391 0
M  V30 13295 C 1210.77 -0.445458 -5.79992 0
M  V30 13296 N 1209.75 0.181237 -5.43298 0
M  V30 13297 H 1213.55 -0.350824 -2.91799 0
M  V30 13298 H 1211.07 -0.293386 -1.59728 0
M  V30 13299 H 1213.06 1.99999 -3.65795 0
M  V30 13300 H 1211.72 2.09015 -2.48481 0
M  V30 13301 H 1212.73 -0.463695 -5.1582 0
M  V30 13302 H 1209.41 1.73036 -3.79954 0
M  V30 13303 H 1210.8 -1.16754 -6.61678 0
M  V30 13304 N 1213.52 1.56172 -0.211661 0
M  V30 13305 C 1214.77 1.99087 0.416624 0
M  V30 13306 C 1215.12 1.09668 1.58084 0
M  V30 13307 O 1214.41 0.144533 1.91054 0
M  V30 13308 C 1214.61 3.45636 0.909442 0
M  V30 13309 C 1214.44 4.4923 -0.205486 0
M  V30 13310 C 1213.21 5.00857 -0.668617 0
M  V30 13311 C 1215.41 5.04078 -1.02029 0
M  V30 13312 N 1213.39 5.88141 -1.75964 0
M  V30 13313 C 1214.76 5.88192 -1.96037 0
M  V30 13314 C 1216.81 4.86467 -1.06085 0
M  V30 13315 C 1215.52 6.56576 -2.93768 0
M  V30 13316 C 1217.54 5.55604 -2.02629 0
M  V30 13317 C 1216.9 6.39477 -2.95378 0
M  V30 13318 H 1213 0.77283 0.119404 0
M  V30 13319 H 1215.59 1.92033 -0.321163 0
M  V30 13320 H 1213.76 3.53157 1.61662 0
M  V30 13321 H 1215.49 3.75486 1.50972 0
M  V30 13322 H 1212.25 4.72891 -0.258977 0
M  V30 13323 H 1212.67 6.36485 -2.30685 0
M  V30 13324 H 1217.31 4.21284 -0.357726 0
M  V30 13325 H 1215.03 7.20948 -3.65048 0
M  V30 13326 H 1218.62 5.43947 -2.06428 0
M  V30 13327 H 1217.5 6.92032 -3.68864 0
M  V30 13328 N 1215 -0.0618163 1.57479 0
M  V30 13329 C 1216.24 -0.760193 1.88013 0
M  V30 13330 C 1216.58 -1.76718 0.805258 0
M  V30 13331 O 1215.85 -1.93633 -0.183408 0
M  V30 13332 C 1216.14 -1.45924 3.29208 0
M  V30 13333 C 1215.99 -0.467994 4.47359 0
M  V30 13334 C 1217.31 -2.40166 3.68793 0
M  V30 13335 H 1214.43 -0.274896 0.683814 0
M  V30 13336 H 1217.07 -0.0232433 1.89986 0
M  V30 13337 H 1215.22 -2.08741 3.27657 0
M  V30 13338 H 1216.89 0.155735 4.61037 0
M  V30 13339 H 1215.13 0.215797 4.33263 0
M  V30 13340 H 1215.8 -0.994942 5.42959 0
M  V30 13341 H 1218.28 -1.87419 3.71501 0
M  V30 13342 H 1217.16 -2.86076 4.68457 0
M  V30 13343 H 1217.42 -3.25413 2.99264 0
M  V30 13344 N 1216.48 -1.54033 -0.333429 0
M  V30 13345 C 1217.39 -1.85737 -1.43314 0
M  V30 13346 C 1218.4 -0.748398 -1.57083 0
M  V30 13347 O 1219.58 -1.04171 -1.72367 0
M  V30 13348 C 1216.64 -2.06942 -2.78165 0
M  V30 13349 C 1215.7 -3.30774 -2.73655 0
M  V30 13350 C 1214.94 -3.50957 -4.02075 0
M  V30 13351 O 1215.16 -2.74774 -4.99855 0
M  V30 13352 O 1214.09 -4.44412 -4.05933 0
M  V30 13353 H 1217.92 -2.7923 -1.19434 0
M  V30 13354 H 1215.51 -1.39814 -0.526546 0
M  V30 13355 H 1217.39 -2.22276 -3.58011 0
M  V30 13356 H 1216.06 -1.16638 -3.01956 0
M  V30 13357 H 1214.97 -3.20835 -1.92395 0
M  V30 13358 H 1216.3 -4.21103 -2.54819 0
M  V30 13359 N 1217.95 0.594978 -1.45938 0
M  V30 13360 C 1219.2 1.35361 -1.50611 0
M  V30 13361 C 1219.53 1.93898 -0.152866 0
M  V30 13362 O 1218.78 1.76275 0.850037 0
M  V30 13363 C 1219.08 2.51129 -2.54301 0
M  V30 13364 C 1218.75 2.1066 -3.98664 0
M  V30 13365 C 1217.41 1.99338 -4.3797 0
M  V30 13366 C 1219.76 1.79267 -4.894 0
M  V30 13367 C 1217.09 1.54863 -5.65893 0
M  V30 13368 C 1219.44 1.36274 -6.17748 0
M  V30 13369 C 1218.11 1.2352 -6.55972 0
M  V30 13370 H 1217.38 0.49532 -0.551125 0
M  V30 13371 H 1220.02 0.671236 -1.79351 0
M  V30 13372 H 1218.33 3.24759 -2.19177 0
M  V30 13373 H 1220.03 3.09353 -2.55151 0
M  V30 13374 H 1216.62 2.20403 -3.67587 0
M  V30 13375 H 1220.8 1.86906 -4.59761 0
M  V30 13376 H 1216.06 1.43621 -5.94292 0
M  V30 13377 H 1220.23 1.11032 -6.87492 0
M  V30 13378 H 1217.86 0.88832 -7.54992 0
M  V30 13379 N 1219.43 1.33438 0.838571 0
M  V30 13380 C 1220.36 1.19552 1.9555 0
M  V30 13381 C 1221.38 0.12642 1.62308 0
M  V30 13382 O 1222.57 0.376868 1.74476 0
M  V30 13383 C 1219.67 0.811273 3.29046 0
M  V30 13384 C 1218.84 1.97207 3.9042 0
M  V30 13385 C 1217.9 1.56875 5.02271 0
M  V30 13386 O 1216.92 2.28314 5.21403 0
M  V30 13387 N 1218.13 0.473924 5.78562 0
M  V30 13388 H 1220.89 2.15769 2.07999 0
M  V30 13389 H 1218.45 1.26187 1.01432 0
M  V30 13390 H 1220.44 0.523553 4.01299 0
M  V30 13391 H 1219.01 -0.0602291 3.12542 0
M  V30 13392 H 1218.23 2.4254 3.10754 0
M  V30 13393 H 1219.52 2.74878 4.28158 0
M  V30 13394 H 1218.92 -0.120306 5.65572 0
M  V30 13395 H 1217.48 0.245877 6.51336 0
M  V30 13396 N 1220.91 -1.05686 1.16912 0
M  V30 13397 C 1221.86 -2.15417 0.877404 0
M  V30 13398 C 1222.85 -1.6868 -0.155986 0
M  V30 13399 O 1224.06 -1.79998 -0.00938156 0
M  V30 13400 H 1220.43 -0.70332 0.266168 0
M  V30 13401 H 1222.4 -2.37228 1.81012 0
M  V30 13402 C 1221.15 -3.45372 0.401696 0
M  V30 13403 H 1220.48 -3.81732 1.18832 0
M  V30 13404 H 1221.92 -4.2334 0.236418 0
M  V30 13405 C 1220.38 -3.25209 -0.87981 0
M  V30 13406 O 1220.91 -3.51322 -1.94771 0
M  V30 13407 N 1219.11 -2.78614 -0.825997 0
M  V30 13408 H 1218.66 -2.57564 0.0432439 0
M  V30 13409 H 1218.62 -2.65503 -1.68391 0
M  V30 13410 N 1222.39 -0.968567 -1.24324 0
M  V30 13411 C 1223.34 -0.498817 -2.25345 0
M  V30 13412 C 1224.31 0.456082 -1.59716 0
M  V30 13413 O 1225.49 0.366254 -1.87252 0
M  V30 13414 C 1222.63 0.204027 -3.44496 0
M  V30 13415 C 1221.74 -0.789741 -4.2472 0
M  V30 13416 C 1220.88 -0.0629156 -5.31163 0
M  V30 13417 C 1219.92 -1.04669 -6.03084 0
M  V30 13418 N 1219.05 -0.349812 -7.01228 0
M  V30 13419 H 1223.89 -1.36511 -2.64894 0
M  V30 13420 H 1221.43 -0.684288 -1.30215 0
M  V30 13421 H 1223.39 0.628223 -4.12443 0
M  V30 13422 H 1222.02 1.03426 -3.05782 0
M  V30 13423 H 1221.07 -1.33237 -3.56303 0
M  V30 13424 H 1222.38 -1.53988 -4.74436 0
M  V30 13425 H 1221.54 0.419233 -6.0525 0
M  V30 13426 H 1220.28 0.719915 -4.82357 0
M  V30 13427 H 1219.28 -1.53971 -5.278 0
M  V30 13428 H 1220.51 -1.82998 -6.53979 0
M  V30 13429 H 1218.45 0.414026 -6.54692 0
M  V30 13430 H 1218.37 -1.03881 -7.48829 0
M  V30 13431 H 1219.64 0.11034 -7.79422 0
M  V30 13432 N 1223.87 1.39211 -0.738786 0
M  V30 13433 C 1225.11 2.00436 -0.28839 0
M  V30 13434 C 1225.44 1.58626 1.12552 0
M  V30 13435 O 1224.7 0.808154 1.78234 0
M  V30 13436 C 1225 3.55758 -0.342224 0
M  V30 13437 C 1224.66 4.1723 -1.70968 0
M  V30 13438 C 1223.32 4.33734 -2.08395 0
M  V30 13439 C 1225.68 4.51294 -2.60736 0
M  V30 13440 C 1223 4.81592 -3.35091 0
M  V30 13441 C 1225.36 5.00562 -3.86808 0
M  V30 13442 C 1224.02 5.15274 -4.24322 0
M  V30 13443 H 1223.29 0.733447 -0.105529 0
M  V30 13444 H 1225.94 1.66481 -0.94637 0
M  V30 13445 H 1224.24 3.8976 0.399331 0
M  V30 13446 H 1225.94 4.00993 0.0244582 0
M  V30 13447 H 1222.53 4.04788 -1.4087 0
M  V30 13448 H 1226.71 4.38158 -2.3309 0
M  V30 13449 H 1221.97 4.91167 -3.64095 0
M  V30 13450 H 1226.14 5.25892 -4.5652 0
M  V30 13451 H 1223.77 5.52119 -5.2256 0
M  V30 13452 N 1225.34 0.486708 1.49896 0
M  V30 13453 C 1226.57 -0.0599944 2.06513 0
M  V30 13454 C 1226.98 -1.32662 1.34898 0
M  V30 13455 O 1226.33 -1.78915 0.416565 0
M  V30 13456 C 1226.39 -0.39838 3.57286 0
M  V30 13457 C 1226.05 0.768465 4.50493 0
M  V30 13458 C 1227.05 1.65495 4.92856 0
M  V30 13459 C 1224.73 0.96322 4.92978 0
M  V30 13460 C 1226.73 2.72046 5.76429 0
M  V30 13461 C 1224.41 2.03193 5.7633 0
M  V30 13462 C 1225.41 2.9089 6.17958 0
M  V30 13463 O 1225.1 3.95919 6.99645 0
M  V30 13464 H 1224.83 0.0107865 0.675914 0
M  V30 13465 H 1227.39 0.679087 1.93849 0
M  V30 13466 H 1225.62 -1.19086 3.67907 0
M  V30 13467 H 1227.31 -0.882003 3.96201 0
M  V30 13468 H 1228.07 1.51624 4.6069 0
M  V30 13469 H 1223.95 0.29004 4.60087 0
M  V30 13470 H 1227.49 3.40526 6.08841 0
M  V30 13471 H 1223.39 2.17064 6.07909 0
M  V30 13472 H 1224.16 3.93097 7.17925 0
M  V30 13473 N 1226.82 -1.56058 0.219941 0
M  V30 13474 C 1228.07 -1.98554 -0.412808 0
M  V30 13475 C 1228.4 -1.10742 -1.5953 0
M  V30 13476 O 1227.68 -0.164757 -1.93801 0
M  V30 13477 C 1227.96 -3.4995 -0.848923 0
M  V30 13478 C 1227.81 -4.48535 0.337094 0
M  V30 13479 C 1229.13 -4.05703 -1.70567 0
M  V30 13480 H 1226.25 -0.721869 -0.148576 0
M  V30 13481 H 1228.89 -1.87356 0.315852 0
M  V30 13482 H 1227.04 -3.59624 -1.46979 0
M  V30 13483 H 1228.72 -4.50874 0.975216 0
M  V30 13484 H 1226.96 -4.22474 0.984798 0
M  V30 13485 H 1227.63 -5.51999 -0.0109665 0
M  V30 13486 H 1230.11 -3.98964 -1.18182 0
M  V30 13487 H 1228.98 -5.11955 -1.97972 0
M  V30 13488 H 1229.24 -3.52487 -2.66844 0
M  V30 13489 N 1228.3 0.053464 -1.57509 0
M  V30 13490 C 1229.55 0.747622 -1.87763 0
M  V30 13491 C 1229.87 1.77178 -0.814433 0
M  V30 13492 O 1229.14 1.95287 0.154862 0
M  V30 13493 H 1227.72 0.279109 -0.692898 0
M  V30 13494 H 1230.38 0.0252006 -1.94884 0
M  V30 13495 H 1229.48 1.25244 -2.85868 0
M  V30 13496 N 1229.78 1.54207 0.325255 0
M  V30 13497 C 1230.74 1.82757 1.38321 0
M  V30 13498 C 1231.74 0.699312 1.44797 0
M  V30 13499 O 1232.93 0.96762 1.44854 0
M  V30 13500 C 1230.06 1.98608 2.7707 0
M  V30 13501 H 1231.26 2.7728 1.14261 0
M  V30 13502 H 1228.81 1.45899 0.560647 0
M  V30 13503 H 1229.55 1.0629 3.06387 0
M  V30 13504 H 1229.33 2.80707 2.73763 0
M  V30 13505 H 1230.82 2.2215 3.53609 0
M  V30 13506 N 1231.26 -0.58723 1.46251 0
M  V30 13507 C 1232.51 -1.34294 1.51028 0
M  V30 13508 C 1232.83 -1.94329 0.161623 0
M  V30 13509 O 1232.1 -1.78309 -0.811342 0
M  V30 13510 H 1230.68 -0.498607 0.556238 0
M  V30 13511 H 1233.34 -0.688074 1.8235 0
M  V30 13512 H 1232.43 -2.15197 2.26045 0
M  V30 13513 N 1232.74 -1.33881 -0.831482 0
M  V30 13514 C 1233.96 -1.28812 -1.61911 0
M  V30 13515 C 1234.38 0.139519 -1.88284 0
M  V30 13516 O 1233.74 1.08397 -1.46821 0
M  V30 13517 C 1233.79 -2.06806 -2.96502 0
M  V30 13518 O 1233.51 -3.44 -2.71285 0
M  V30 13519 C 1235.01 -2.09033 -3.90922 0
M  V30 13520 H 1232.23 -0.443473 -0.50356 0
M  V30 13521 H 1234.77 -1.76365 -1.03516 0
M  V30 13522 H 1232.93 -1.62915 -3.51479 0
M  V30 13523 H 1233.34 -3.84213 -3.57044 0
M  V30 13524 H 1234.82 -2.68044 -4.82552 0
M  V30 13525 H 1235.29 -1.08249 -4.25651 0
M  V30 13526 H 1235.9 -2.52975 -3.41883 0
M  V30 13527 N 1234.21 1.05064 -1.1747 0
M  V30 13528 C 1235.16 2.12841 -0.89259 0
M  V30 13529 C 1236.13 1.65288 0.16402 0
M  V30 13530 O 1237.32 1.90782 0.026537 0
M  V30 13531 C 1234.46 3.42614 -0.41344 0
M  V30 13532 C 1233.57 4.03835 -1.53432 0
M  V30 13533 C 1232.7 5.21531 -1.00891 0
M  V30 13534 C 1231.74 5.74761 -2.10515 0
M  V30 13535 N 1230.88 6.83756 -1.59442 0
M  V30 13536 H 1235.72 2.36312 -1.81551 0
M  V30 13537 H 1233.26 1.15929 -0.905483 0
M  V30 13538 H 1235.21 4.17035 -0.117181 0
M  V30 13539 H 1233.84 3.19323 0.472517 0
M  V30 13540 H 1232.9 3.2684 -1.94627 0
M  V30 13541 H 1234.21 4.3938 -2.36108 0
M  V30 13542 H 1233.36 6.03027 -0.666575 0
M  V30 13543 H 1232.1 4.87464 -0.151608 0
M  V30 13544 H 1231.11 4.91893 -2.45604 0
M  V30 13545 H 1232.33 6.10875 -2.96663 0
M  V30 13546 H 1230.28 6.51584 -0.759849 0
M  V30 13547 H 1230.19 7.18311 -2.35724 0
M  V30 13548 H 1231.46 7.68901 -1.28105 0
M  V30 13549 N 1235.69 0.975146 1.23809 0
M  V30 13550 C 1236.94 0.641124 1.92083 0
M  V30 13551 C 1237.27 -0.824671 1.76152 0
M  V30 13552 O 1236.52 -1.6097 1.11298 0
M  V30 13553 C 1236.82 0.971016 3.43956 0
M  V30 13554 C 1236.49 2.42616 3.80063 0
M  V30 13555 C 1235.15 2.82386 3.8963 0
M  V30 13556 C 1237.5 3.37019 3.97577 0
M  V30 13557 C 1234.83 4.15585 4.14133 0
M  V30 13558 C 1237.18 4.69855 4.23579 0
M  V30 13559 C 1235.84 5.09391 4.31366 0
M  V30 13560 H 1235.11 0.234604 0.702881 0
M  V30 13561 H 1237.76 1.22803 1.46941 0
M  V30 13562 H 1236.07 0.301965 3.90635 0
M  V30 13563 H 1237.76 0.690858 3.95004 0
M  V30 13564 H 1234.35 2.10782 3.73187 0
M  V30 13565 H 1238.54 3.07474 3.89581 0
M  V30 13566 H 1233.79 4.45831 4.18383 0
M  V30 13567 H 1237.97 5.42966 4.36074 0
M  V30 13568 H 1235.59 6.12624 4.50106 0
M  V30 13569 N 1237.17 -1.38817 0.746158 0
M  V30 13570 C 1238.42 -2.00577 0.299458 0
M  V30 13571 C 1238.75 -1.59087 -1.11378 0
M  V30 13572 O 1238.02 -0.824932 -1.7614 0
M  V30 13573 C 1238.31 -3.57713 0.413932 0
M  V30 13574 C 1238.16 -4.09189 1.86774 0
M  V30 13575 C 1239.48 -4.39659 -0.197082 0
M  V30 13576 H 1236.6 -0.728702 0.110285 0
M  V30 13577 H 1239.24 -1.64866 0.944408 0
M  V30 13578 H 1237.39 -3.88265 -0.135155 0
M  V30 13579 H 1239.06 -3.89311 2.47456 0
M  V30 13580 H 1237.3 -3.62333 2.38532 0
M  V30 13581 H 1237.98 -5.18305 1.89904 0
M  V30 13582 H 1240.45 -4.15216 0.271121 0
M  V30 13583 H 1239.33 -5.48832 -0.0867011 0
M  V30 13584 H 1239.59 -4.23028 -1.2845 0
M  V30 13585 N 1238.65 -0.49465 -1.49636 0
M  V30 13586 C 1240.06 -0.0452894 -1.86645 0
M  V30 13587 C 1240.41 1.36686 -1.40753 0
M  V30 13588 O 1239.53 2.01751 -0.78265 0
M  V30 13589 C 1240.13 -0.0754115 -3.38716 0
M  V30 13590 C 1238.69 0.318579 -3.75049 0
M  V30 13591 C 1237.84 -0.450712 -2.73613 0
M  V30 13592 H 1240.79 -0.707758 -1.42044 0
M  V30 13593 H 1240.81 0.721372 -3.73599 0
M  V30 13594 H 1240.32 -1.10331 -3.72087 0
M  V30 13595 H 1238.42 1.34995 -3.47285 0
M  V30 13596 H 1238.53 0.00354416 -4.791 0
M  V30 13597 H 1236.9 0.0986455 -2.54509 0
M  V30 13598 H 1237.68 -1.47857 -3.09828 0
M  V30 13599 N 1240.13 1.55939 -0.228214 0
M  V30 13600 C 1241.37 1.98476 0.401677 0
M  V30 13601 C 1241.7 1.116 1.59297 0
M  V30 13602 O 1240.96 0.162465 1.95024 0
M  V30 13603 C 1241.25 3.46581 0.872732 0
M  V30 13604 C 1240.92 4.50416 -0.208767 0
M  V30 13605 C 1239.58 4.78534 -0.505847 0
M  V30 13606 C 1241.93 5.12656 -0.939852 0
M  V30 13607 C 1239.26 5.66171 -1.53841 0
M  V30 13608 C 1241.61 6.01412 -1.9618 0
M  V30 13609 C 1240.28 6.2787 -2.26573 0
M  V30 13610 H 1239.55 0.726276 0.146984 0
M  V30 13611 H 1242.2 1.88598 -0.332128 0
M  V30 13612 H 1240.5 3.53696 1.68541 0
M  V30 13613 H 1242.2 3.76869 1.37006 0
M  V30 13614 H 1238.79 4.28587 0.0329308 0
M  V30 13615 H 1242.97 4.90997 -0.723581 0
M  V30 13616 H 1238.23 5.84933 -1.77944 0
M  V30 13617 H 1242.4 6.48688 -2.53332 0
M  V30 13618 H 1240.03 6.95574 -3.06725 0
M  V30 13619 N 1241.6 -0.0451101 1.57535 0
M  V30 13620 C 1242.83 -0.755068 1.93167 0
M  V30 13621 C 1243.25 -1.68949 0.826915 0
M  V30 13622 O 1242.61 -1.79978 -0.218534 0
M  V30 13623 C 1242.66 -1.50201 3.27829 0
M  V30 13624 O 1241.76 -2.61434 3.18945 0
M  V30 13625 H 1241.11 -0.204219 0.631815 0
M  V30 13626 H 1243.64 -0.00537504 2.04599 0
M  V30 13627 H 1243.65 -1.87547 3.6234 0
M  V30 13628 H 1242.32 -0.816591 4.07805 0
M  V30 13629 H 1240.9 -2.26749 2.96039 0
M  V30 13630 N 1243.08 -1.54377 -0.317073 0
M  V30 13631 C 1244.33 -1.72893 -1.05424 0
M  V30 13632 C 1244.66 -0.506082 -1.87801 0
M  V30 13633 O 1243.91 0.51213 -1.8888 0
M  V30 13634 C 1244.21 -2.96066 -2.00199 0
M  V30 13635 C 1243.88 -4.30551 -1.33927 0
M  V30 13636 C 1242.54 -4.67112 -1.15584 0
M  V30 13637 C 1244.89 -5.13986 -0.864158 0
M  V30 13638 C 1242.22 -5.84701 -0.483892 0
M  V30 13639 C 1244.57 -6.32264 -0.206006 0
M  V30 13640 C 1243.24 -6.67499 -0.0104849 0
M  V30 13641 H 1242.51 -0.63266 -0.385776 0
M  V30 13642 H 1245.15 -1.88623 -0.330722 0
M  V30 13643 H 1243.46 -2.7505 -2.79024 0
M  V30 13644 H 1245.15 -3.07586 -2.57278 0
M  V30 13645 H 1241.74 -4.0179 -1.49207 0
M  V30 13646 H 1245.93 -4.86252 -0.993635 0
M  V30 13647 H 1241.18 -6.10555 -0.32127 0
M  V30 13648 H 1245.36 -6.96192 0.170108 0
M  V30 13649 H 1242.99 -7.58472 0.512209 0
M  V30 13650 N 1244.56 0.579466 -1.4656 0
M  V30 13651 C 1245.79 1.36837 -1.55854 0
M  V30 13652 C 1246.21 1.87019 -0.20141 0
M  V30 13653 O 1245.57 1.61746 0.81901 0
M  V30 13654 C 1245.62 2.52965 -2.56985 0
M  V30 13655 O 1244.72 3.54505 -2.10713 0
M  V30 13656 H 1244.06 0.407379 -0.524345 0
M  V30 13657 H 1246.59 0.702558 -1.9216 0
M  V30 13658 H 1246.6 2.99838 -2.76697 0
M  V30 13659 H 1245.28 2.15793 -3.55536 0
M  V30 13660 H 1243.85 3.14089 -2.01003 0
M  V30 13661 N 1246.04 1.3432 0.824371 0
M  V30 13662 C 1246.97 1.2842 1.95014 0
M  V30 13663 C 1247.95 0.161925 1.69328 0
M  V30 13664 O 1249.13 0.354052 1.90945 0
M  V30 13665 C 1246.26 1.03741 3.31444 0
M  V30 13666 C 1245.22 2.12419 3.71567 0
M  V30 13667 C 1244.54 1.72931 5.05963 0
M  V30 13668 C 1245.84 3.54235 3.83817 0
M  V30 13669 H 1247.54 2.22614 2.00209 0
M  V30 13670 H 1245.08 1.07165 0.961856 0
M  V30 13671 H 1247.04 0.982586 4.09784 0
M  V30 13672 H 1245.76 0.0598892 3.26545 0
M  V30 13673 H 1244.42 2.16968 2.955 0
M  V30 13674 H 1244.07 0.738433 4.9755 0
M  V30 13675 H 1243.77 2.45668 5.3378 0
M  V30 13676 H 1245.29 1.68941 5.86763 0
M  V30 13677 H 1246.71 3.52106 4.52432 0
M  V30 13678 H 1245.1 4.25581 4.23085 0
M  V30 13679 H 1246.17 3.91682 2.85856 0
M  V30 13680 N 1247.52 -1.0444 1.18026 0
M  V30 13681 C 1248.45 -2.14297 0.927314 0
M  V30 13682 C 1249.43 -1.69575 -0.13357 0
M  V30 13683 O 1250.61 -1.94191 0.0182439 0
M  V30 13684 C 1247.74 -3.44397 0.448134 0
M  V30 13685 C 1246.7 -4.02723 1.44907 0
M  V30 13686 C 1246.02 -5.28257 0.827555 0
M  V30 13687 C 1247.32 -4.39331 2.82463 0
M  V30 13688 H 1249.02 -2.35715 1.84605 0
M  V30 13689 H 1246.56 -1.13281 0.889012 0
M  V30 13690 H 1248.52 -4.20606 0.258554 0
M  V30 13691 H 1247.24 -3.22654 -0.506159 0
M  V30 13692 H 1245.9 -3.28591 1.62552 0
M  V30 13693 H 1245.55 -5.02822 -0.13381 0
M  V30 13694 H 1245.25 -5.68242 1.49581 0
M  V30 13695 H 1246.77 -6.07147 0.64842 0
M  V30 13696 H 1248.18 -5.06543 2.68491 0
M  V30 13697 H 1246.58 -4.90355 3.45936 0
M  V30 13698 H 1247.65 -3.4933 3.36299 0
M  V30 13699 N 1248.99 -0.981699 -1.2329 0
M  V30 13700 C 1250.22 -0.669025 -1.96313 0
M  V30 13701 C 1250.64 0.757624 -1.72168 0
M  V30 13702 O 1250 1.51626 -0.993942 0
M  V30 13703 C 1250.05 -0.966875 -3.47396 0
M  V30 13704 O 1249.15 -0.0595933 -4.12357 0
M  V30 13705 H 1248.5 -0.251493 -0.61453 0
M  V30 13706 H 1251.03 -1.31564 -1.56691 0
M  V30 13707 H 1251.04 -0.904112 -3.97857 0
M  V30 13708 H 1249.71 -2.00651 -3.64296 0
M  V30 13709 H 1248.29 -0.176878 -3.7248 0
M  V30 13710 N 1250.47 1.3842 -0.753509 0
M  V30 13711 C 1251.7 2.04929 -0.319174 0
M  V30 13712 C 1252.12 1.56457 1.04416 0
M  V30 13713 O 1251.48 0.716527 1.6654 0
M  V30 13714 C 1251.53 3.58887 -0.351054 0
M  V30 13715 O 1250.63 4.07166 0.654963 0
M  V30 13716 H 1249.97 0.648782 -0.141343 0
M  V30 13717 H 1252.5 1.77096 -1.02461 0
M  V30 13718 H 1252.51 4.075 -0.201907 0
M  V30 13719 H 1251.19 3.93525 -1.34576 0
M  V30 13720 H 1249.77 3.69921 0.470435 0
M  V30 13721 N 1251.95 0.502579 1.49372 0
M  V30 13722 C 1252.9 -0.275004 2.29156 0
M  V30 13723 C 1253.87 -0.95892 1.35624 0
M  V30 13724 O 1255.05 -0.965276 1.64581 0
M  V30 13725 C 1252.19 -1.33255 3.18335 0
M  V30 13726 C 1251.31 -0.660248 4.26925 0
M  V30 13727 C 1250.44 -1.69837 5.03318 0
M  V30 13728 C 1249.48 -1.00802 6.03743 0
M  V30 13729 N 1248.62 -1.99042 6.73295 0
M  V30 13730 H 1253.46 0.411599 2.95144 0
M  V30 13731 H 1250.99 0.214824 1.45523 0
M  V30 13732 H 1252.95 -1.95769 3.68416 0
M  V30 13733 H 1251.58 -1.98789 2.54328 0
M  V30 13734 H 1250.63 0.0782181 3.8032 0
M  V30 13735 H 1251.95 -0.11689 4.98663 0
M  V30 13736 H 1251.1 -2.39852 5.57275 0
M  V30 13737 H 1249.84 -2.27558 4.31357 0
M  V30 13738 H 1248.84 -0.293654 5.49015 0
M  V30 13739 H 1250.07 -0.437285 6.77691 0
M  V30 13740 H 1248.01 -2.55722 6.04104 0
M  V30 13741 H 1247.93 -1.49776 7.41015 0
M  V30 13742 H 1249.2 -2.6834 7.31856 0
M  V30 13743 N 1253.43 -1.55816 0.23648 0
M  V30 13744 C 1254.68 -1.98686 -0.391146 0
M  V30 13745 C 1255 -1.12443 -1.58703 0
M  V30 13746 O 1254.26 -0.172805 -1.94936 0
M  V30 13747 C 1254.56 -3.47039 -0.85434 0
M  V30 13748 C 1254.22 -4.50299 0.232651 0
M  V30 13749 C 1252.89 -4.78259 0.531218 0
M  V30 13750 C 1255.24 -5.1215 0.967027 0
M  V30 13751 C 1252.57 -5.65347 1.56842 0
M  V30 13752 C 1254.92 -6.00363 1.99367 0
M  V30 13753 C 1253.58 -6.2666 2.299 0
M  V30 13754 H 1252.85 -0.727045 -0.14313 0
M  V30 13755 H 1255.5 -1.88419 0.342125 0
M  V30 13756 H 1253.8 -3.54585 -1.66663 0
M  V30 13757 H 1255.5 -3.7759 -1.35005 0
M  V30 13758 H 1252.09 -4.28599 -0.0102014 0
M  V30 13759 H 1256.27 -4.90606 0.749609 0
M  V30 13760 H 1251.53 -5.83981 1.81043 0
M  V30 13761 H 1255.7 -6.47335 2.56769 0
M  V30 13762 H 1253.33 -6.93938 3.1041 0
M  V30 13763 N 1254.91 0.036755 -1.57557 0
M  V30 13764 C 1255.85 1.05823 -2.07133 0
M  V30 13765 C 1256.85 1.37923 -0.983546 0
M  V30 13766 O 1258.05 1.36918 -1.16848 0
M  V30 13767 H 1254.43 0.358761 -0.660905 0
M  V30 13768 H 1256.4 0.614232 -2.9201 0
M  V30 13769 C 1255.15 2.35302 -2.55985 0
M  V30 13770 H 1254.47 2.11461 -3.393 0
M  V30 13771 H 1255.91 3.05139 -2.94391 0
M  V30 13772 C 1254.37 3.0373 -1.45773 0
M  V30 13773 O 1254.9 3.9325 -0.819587 0
M  V30 13774 N 1253.11 2.64931 -1.19416 0
M  V30 13775 H 1252.65 1.92219 -1.71492 0
M  V30 13776 H 1252.61 3.11033 -0.458865 0
M  V30 13777 N 1256.39 1.54543 0.308881 0
M  V30 13778 C 1257.33 1.85693 1.40074 0
M  V30 13779 C 1258.33 0.730004 1.52864 0
M  V30 13780 O 1259.53 0.913884 1.55075 0
M  V30 13781 H 1255.91 0.588842 0.467728 0
M  V30 13782 H 1257.88 2.76973 1.11034 0
M  V30 13783 C 1256.63 2.11399 2.76054 0
M  V30 13784 H 1255.95 2.97583 2.66992 0
M  V30 13785 H 1257.39 2.37139 3.51484 0
M  V30 13786 C 1255.85 0.91007 3.24375 0
M  V30 13787 O 1256.38 0.12663 4.015 0
M  V30 13788 N 1254.59 0.717629 2.816 0
M  V30 13789 H 1254.13 1.35637 2.18998 0
M  V30 13790 H 1254.09 -0.0863585 3.14281 0
M  V30 13791 N 1257.86 -0.571685 1.46866 0
M  V30 13792 C 1259.14 -1.33216 1.43223 0
M  V30 13793 C 1259.52 -2.1075 0.121495 0
M  V30 13794 O 1258.87 -2.10157 -0.897003 0
M  V30 13795 C 1259.08 -2.24888 2.66882 0
M  V30 13796 C 1260.43 -2.86369 3.13493 0
M  V30 13797 O 1261.45 -2.35197 2.67509 0
M  V30 13798 O 1260.31 -3.79342 3.93398 0
M  V30 13799 H 1257.4 -0.599106 0.570089 0
M  V30 13800 H 1259.95 -0.591788 1.59047 0
M  V30 13801 H 1258.72 -1.67099 3.53827 0
M  V30 13802 H 1258.34 -3.06246 2.53573 0
M  V30 13803 N 1259.34 -1.34755 -0.817236 0
M  V30 13804 C 1260.62 -1.18007 -1.55993 0
M  V30 13805 C 1261 0.245079 -2.09673 0
M  V30 13806 O 1260.35 1.24718 -1.91462 0
M  V30 13807 C 1260.56 -2.23934 -2.67684 0
M  V30 13808 C 1261.9 -2.59201 -3.36303 0
M  V30 13809 O 1262.93 -2.22767 -2.77945 0
M  V30 13810 O 1261.79 -3.21809 -4.41702 0
M  V30 13811 H 1258.88 -0.4578 -0.688729 0
M  V30 13812 H 1261.43 -1.46405 -0.858117 0
M  V30 13813 H 1260.2 -3.19568 -2.25813 0
M  V30 13814 H 1259.82 -1.96745 -3.4551 0
M  V30 13815 N 1260.82 1.03812 -1.18578 0
M  V30 13816 C 1262.04 1.8124 -1.00831 0
M  V30 13817 C 1262.47 1.82917 0.43853 0
M  V30 13818 O 1261.83 1.24835 1.31476 0
M  V30 13819 C 1261.88 3.24592 -1.57075 0
M  V30 13820 O 1260.98 4.04688 -0.793824 0
M  V30 13821 H 1260.32 0.559846 -0.357028 0
M  V30 13822 H 1262.85 1.30724 -1.57393 0
M  V30 13823 H 1262.86 3.75363 -1.59896 0
M  V30 13824 H 1261.54 3.22686 -2.62387 0
M  V30 13825 H 1260.11 3.63359 -0.838134 0
M  V30 13826 N 1262.3 0.988223 1.22768 0
M  V30 13827 C 1263.54 0.662441 1.91676 0
M  V30 13828 C 1263.88 -0.802931 1.76824 0
M  V30 13829 O 1263.15 -1.58011 1.13415 0
M  V30 13830 C 1263.43 1.06332 3.44043 0
M  V30 13831 C 1263.29 2.5869 3.67967 0
M  V30 13832 C 1264.61 0.613058 4.35809 0
M  V30 13833 H 1261.73 0.242132 0.69609 0
M  V30 13834 H 1264.37 1.23091 1.44736 0
M  V30 13835 H 1262.52 0.579623 3.84152 0
M  V30 13836 H 1264.19 3.14694 3.37291 0
M  V30 13837 H 1262.43 3.00971 3.12408 0
M  V30 13838 H 1263.1 2.8179 4.74656 0
M  V30 13839 H 1265.58 1.02846 4.0319 0
M  V30 13840 H 1264.46 0.921901 5.41103 0
M  V30 13841 H 1264.72 -0.48641 4.39416 0
M  V30 13842 N 1263.78 -1.38018 0.760839 0
M  V30 13843 C 1264.74 -2.28734 0.146154 0
M  V30 13844 C 1265.74 -1.47525 -0.639768 0
M  V30 13845 O 1266.93 -1.6788 -0.464964 0
M  V30 13846 C 1264.06 -3.31356 -0.801019 0
M  V30 13847 H 1265.25 -2.84599 0.945692 0
M  V30 13848 H 1262.81 -1.471 0.528323 0
M  V30 13849 H 1263.54 -2.80594 -1.62597 0
M  V30 13850 H 1263.33 -3.91366 -0.239775 0
M  V30 13851 H 1264.82 -3.99171 -1.22687 0
M  V30 13852 O 1265.29 -0.652048 -1.47752 0
M  V30 13853 H 1265.98 -0.177194 -1.92888 0
M  V30 END ATOM
M  V30 BEGIN BOND
M  V30 END BOND
M  V30 END CTAB
M  END
$$$$
