drugbank_target|Q9Y4U1 Methylmalonic aciduria and homocystinuria type C protein (DB00115; DB00200)
 OpenBabel12092120063D

  0  0  0     0  0            999 V3000
M  V30 BEGIN CTAB
M  V30 COUNTS 4463 4544 0 0 0
M  V30 BEGIN ATOM
M  V30 1 H -0.908 1.98254 -0.117106 0
M  V30 2 N 0 1.576 0 0
M  V30 3 C 0.933 2.03868 1.02534 0
M  V30 4 C 1.911 0.928543 1.3348 0
M  V30 5 O 3.095 1.19667 1.45644 0
M  V30 6 C 0.222 2.43627 2.35294 0
M  V30 7 C -0.732 3.65373 2.2001 0
M  V30 8 S 0.101 5.13292 1.52614 0
M  V30 9 C 1.257 5.56322 2.86805 0
M  V30 10 H 1.49 2.90518 0.631377 0
M  V30 11 H -0.977 1.52953 0.210867 0
M  V30 12 H 0.981 2.67203 3.11629 0
M  V30 13 H -0.358 1.57376 2.7183 0
M  V30 14 H -1.165 3.90944 3.18086 0
M  V30 15 H -1.563 3.418 1.51819 0
M  V30 16 H 0.729 5.58782 3.83104 0
M  V30 17 H 1.672 6.56266 2.65933 0
M  V30 18 H 2.08 4.83886 2.90714 0
M  V30 19 N 1.4781 -0.272755 1.55222 0
M  V30 20 C 2.3881 -1.35918 1.91216 0
M  V30 21 C 3.4041 -1.54026 0.809436 0
M  V30 22 O 4.5801 -1.68148 1.10852 0
M  V30 23 C 1.6451 -2.69834 2.17693 0
M  V30 24 C 0.7061 -2.6047 3.41253 0
M  V30 25 C -0.0609 -3.88 3.66458 0
M  V30 26 O 0.1621 -4.88693 2.94169 0
M  V30 27 O -0.9039 -3.88189 4.59992 0
M  V30 28 H 2.9221 -1.0839 2.83699 0
M  V30 29 H 0.5071 -0.471301 1.41771 0
M  V30 30 H 2.3891 -3.49017 2.36147 0
M  V30 31 H 1.0641 -2.97148 1.28392 0
M  V30 32 H -0.0289 -1.79663 3.28134 0
M  V30 33 H 1.3041 -2.38106 4.30774 0
M  V30 34 N 2.9562 -1.48159 -0.537278 0
M  V30 35 C 4.3672 -1.49429 -1.11928 0
M  V30 36 C 4.7182 -0.26 -1.9447 0
M  V30 37 O 3.8432 0.633489 -2.0692 0
M  V30 38 C 4.4382 -2.70758 -2.03656 0
M  V30 39 C 2.9972 -2.74923 -2.57088 0
M  V30 40 C 2.1442 -2.42835 -1.3389 0
M  V30 41 H 5.0952 -1.55381 -0.322886 0
M  V30 42 H 5.1162 -2.48861 -2.87834 0
M  V30 43 H 4.6282 -3.60575 -1.43553 0
M  V30 44 H 2.7292 -1.89296 -3.20933 0
M  V30 45 H 2.8422 -3.76157 -2.9672 0
M  V30 46 H 1.2062 -1.93836 -1.65226 0
M  V30 47 H 1.9892 -3.34884 -0.755504 0
M  V30 48 N 4.4343 0.785586 -1.36625 0
M  V30 49 C 5.3813 1.89838 -1.31264 0
M  V30 50 C 6.3513 1.65115 -0.180633 0
M  V30 51 O 7.5363 1.87222 -0.36777 0
M  V30 52 C 4.6763 3.26706 -1.11163 0
M  V30 53 C 3.7893 3.63476 -2.33472 0
M  V30 54 C 2.9243 4.89481 -2.06353 0
M  V30 55 C 1.9633 5.18941 -3.24602 0
M  V30 56 N 1.1003 6.36131 -2.97123 0
M  V30 57 H 5.9403 1.93756 -2.26413 0
M  V30 58 H 3.4773 0.947454 -1.12524 0
M  V30 59 H 5.4353 4.05639 -0.975337 0
M  V30 60 H 4.0653 3.222 -0.196674 0
M  V30 61 H 3.1173 2.79636 -2.57891 0
M  V30 62 H 4.4293 3.81193 -3.21704 0
M  V30 63 H 3.5833 5.76288 -1.89675 0
M  V30 64 H 2.3223 4.73841 -1.15437 0
M  V30 65 H 1.3273 4.30615 -3.41834 0
M  V30 66 H 2.5523 5.36498 -4.16349 0
M  V30 67 H 0.4983 6.21875 -2.08823 0
M  V30 68 H 0.4153 6.54198 -3.78894 0
M  V30 69 H 1.6833 7.2591 -2.84033 0
M  V30 70 N 5.9124 1.20967 1.01018 0
M  V30 71 C 7.1584 1.02526 1.74975 0
M  V30 72 C 7.4914 -0.4408 1.89131 0
M  V30 73 O 6.7664 -1.32718 1.42184 0
M  V30 74 C 7.0494 1.71699 3.1653 0
M  V30 75 C 6.9024 3.25791 3.10129 0
M  V30 76 C 8.2214 1.45531 4.15342 0
M  V30 77 H 5.3404 0.373863 0.635134 0
M  V30 78 H 7.9824 1.49071 1.17805 0
M  V30 79 H 6.1324 1.32128 3.65341 0
M  V30 80 H 7.8044 3.74697 2.69072 0
M  V30 81 H 6.0474 3.56363 2.47362 0
M  V30 82 H 6.7184 3.69353 4.10222 0
M  V30 83 H 9.1944 1.79872 3.75213 0
M  V30 84 H 8.0704 1.96453 5.1254 0
M  V30 85 H 8.3314 0.384237 4.40427 0
M  V30 86 N 7.3905 -1.2043 1.01659 0
M  V30 87 C 8.3535 -2.21433 0.591616 0
M  V30 88 C 9.3535 -1.57203 -0.338226 0
M  V30 89 O 10.5435 -1.73737 -0.126918 0
M  V30 90 C 7.6755 -3.40628 -0.136058 0
M  V30 91 H 8.8685 -2.60545 1.48514 0
M  V30 92 H 6.4215 -1.33893 0.806379 0
M  V30 93 H 7.1565 -3.07019 -1.04449 0
M  V30 94 H 6.9415 -3.88475 0.531917 0
M  V30 95 H 8.4315 -4.15475 -0.420735 0
M  V30 96 N 8.8686 -0.792821 -1.36206 0
M  V30 97 C 9.7786 -0.194808 -2.3379 0
M  V30 98 C 10.7946 0.654869 -1.61206 0
M  V30 99 O 11.9706 0.569856 -1.9317 0
M  V30 100 C 9.0356 0.657721 -3.40404 0
M  V30 101 C 8.0966 -0.210849 -4.28782 0
M  V30 102 C 7.3296 0.601086 -5.30304 0
M  V30 103 O 7.5526 1.83682 -5.40016 0
M  V30 104 O 6.4866 -0.000808277 -6.019 0
M  V30 105 H 10.3126 -1.00172 -2.86704 0
M  V30 106 H 7.8976 -0.554341 -1.38735 0
M  V30 107 H 9.7796 1.14375 -4.05581 0
M  V30 108 H 8.4546 1.44247 -2.89784 0
M  V30 109 H 7.3616 -0.743714 -3.66633 0
M  V30 110 H 8.6946 -0.959195 -4.82763 0
M  V30 111 N 10.3467 1.47872 -0.545128 0
M  V30 112 C 11.2767 2.32661 0.197793 0
M  V30 113 C 12.2577 1.43041 0.920504 0
M  V30 114 O 13.4427 1.71912 0.90333 0
M  V30 115 C 10.5727 3.24569 1.23582 0
M  V30 116 C 9.5267 4.23333 0.630323 0
M  V30 117 C 8.8527 5.0448 1.77211 0
M  V30 118 C 10.1527 5.20704 -0.407974 0
M  V30 119 H 11.8467 2.95024 -0.510045 0
M  V30 120 H 9.3927 1.4187 -0.246731 0
M  V30 121 H 11.3457 3.8272 1.76362 0
M  V30 122 H 10.0697 2.60236 1.97344 0
M  V30 123 H 8.7287 3.6639 0.123922 0
M  V30 124 H 8.3767 4.36561 2.49847 0
M  V30 125 H 8.0767 5.71339 1.37281 0
M  V30 126 H 9.6007 5.65487 2.3034 0
M  V30 127 H 11.0147 5.7329 0.033305 0
M  V30 128 H 9.4117 5.95699 -0.725486 0
M  V30 129 H 10.4817 4.66917 -1.30828 0
M  V30 130 N 11.8248 0.280983 1.55075 0
M  V30 131 C 12.7718 -0.603937 2.22758 0
M  V30 132 C 13.7418 -1.1452 1.20309 0
M  V30 133 O 14.9268 -1.19343 1.48869 0
M  V30 134 C 12.0668 -1.77947 2.95684 0
M  V30 135 C 11.1798 -1.2715 4.12864 0
M  V30 136 C 10.3148 -2.4093 4.7342 0
M  V30 137 C 9.3538 -1.87165 5.82783 0
M  V30 138 N 8.4908 -2.94441 6.37377 0
M  V30 139 H 13.3308 -0.020124 2.97993 0
M  V30 140 H 10.8678 0.00183425 1.471 0
M  V30 141 H 12.8258 -2.47055 3.36184 0
M  V30 142 H 11.4558 -2.33522 2.22861 0
M  V30 143 H 10.5078 -0.473331 3.77444 0
M  V30 144 H 11.8198 -0.837751 4.91715 0
M  V30 145 H 10.9738 -3.18021 5.1667 0
M  V30 146 H 9.7128 -2.87623 3.93859 0
M  V30 147 H 8.7178 -1.08556 5.38976 0
M  V30 148 H 9.9428 -1.41401 6.64216 0
M  V30 149 H 7.8888 -3.40505 5.60707 0
M  V30 150 H 7.8058 -2.55501 7.11516 0
M  V30 151 H 9.0738 -3.71489 6.85285 0
M  V30 152 N 13.3029 -1.57598 0.00835791 0
M  V30 153 C 14.2349 -2.05811 -1.00868 0
M  V30 154 C 15.2479 -0.977579 -1.30182 0
M  V30 155 O 16.4369 -1.25421 -1.27011 0
M  V30 156 C 13.5369 -2.45016 -2.34137 0
M  V30 157 C 12.7099 -3.75903 -2.23643 0
M  V30 158 C 11.7689 -4.01884 -3.3967 0
M  V30 159 O 10.7949 -4.72433 -3.17483 0
M  V30 160 N 11.9969 -3.50432 -4.62793 0
M  V30 161 H 14.7619 -2.93684 -0.597458 0
M  V30 162 H 12.3229 -1.60909 -0.178852 0
M  V30 163 H 14.3149 -2.59506 -3.10546 0
M  V30 164 H 12.8849 -1.62618 -2.66972 0
M  V30 165 H 12.1049 -3.7141 -1.32091 0
M  V30 166 H 13.3929 -4.61695 -2.13812 0
M  V30 167 H 12.7909 -2.93317 -4.83716 0
M  V30 168 H 11.3479 -3.70236 -5.3644 0
M  V30 169 N 14.781 0.264519 -1.55364 0
M  V30 170 C 15.728 1.32717 -1.88825 0
M  V30 171 C 16.698 1.48675 -0.740605 0
M  V30 172 O 17.883 1.62945 -0.992657 0
M  V30 173 C 15.023 2.68089 -2.17307 0
M  V30 174 C 14.136 2.60284 -3.44785 0
M  V30 175 C 13.271 3.87892 -3.62924 0
M  V30 176 C 12.31 3.74631 -4.84064 0
M  V30 177 N 11.447 4.94092 -4.98816 0
M  V30 178 H 16.287 1.03481 -2.79456 0
M  V30 179 H 13.824 0.499757 -1.3835 0
M  V30 180 H 15.782 3.46864 -2.31821 0
M  V30 181 H 14.412 2.95509 -1.299 0
M  V30 182 H 13.464 1.73173 -3.38697 0
M  V30 183 H 14.776 2.46388 -4.33698 0
M  V30 184 H 13.93 4.75109 -3.77302 0
M  V30 185 H 12.669 4.04664 -2.7221 0
M  V30 186 H 11.674 2.85797 -4.69681 0
M  V30 187 H 12.899 3.5937 -5.76221 0
M  V30 188 H 10.845 5.11259 -4.11036 0
M  V30 189 H 10.762 4.8276 -5.81789 0
M  V30 190 H 12.03 5.82857 -5.17588 0
M  V30 191 N 16.2591 1.48442 0.529413 0
M  V30 192 C 17.5081 1.55742 1.28169 0
M  V30 193 C 17.8211 0.236511 1.94165 0
M  V30 194 O 19.0271 0.187761 2.7085 0
M  V30 195 C 17.4831 2.74667 2.32564 0
M  V30 196 C 17.0911 4.13402 1.72636 0
M  V30 197 C 18.8351 2.9128 3.08798 0
M  V30 198 C 16.7421 5.23587 2.74975 0
M  V30 199 H 15.6721 0.579796 0.48203 0
M  V30 200 H 18.3231 1.74776 0.559056 0
M  V30 201 H 16.7051 2.49067 3.07866 0
M  V30 202 H 17.8791 4.49022 1.03519 0
M  V30 203 H 16.1941 4.0191 1.08892 0
M  V30 204 H 18.7911 3.70767 3.85274 0
M  V30 205 H 19.1341 2.00757 3.64695 0
M  V30 206 H 19.6671 3.16782 2.40611 0
M  V30 207 H 16.4061 6.16076 2.23897 0
M  V30 208 H 15.9261 4.92454 3.42417 0
M  V30 209 H 17.6051 5.51724 3.37949 0
M  V30 210 N 17.7372 -0.778329 1.37039 0
M  V30 211 C 18.6472 -1.92253 1.34446 0
M  V30 212 C 19.6632 -1.72267 0.244991 0
M  V30 213 O 20.8392 -1.95615 0.479258 0
M  V30 214 C 17.9042 -3.27282 1.144 0
M  V30 215 C 16.9652 -3.59969 2.33925 0
M  V30 216 C 16.1982 -4.88555 2.14825 0
M  V30 217 O 16.4212 -5.59113 1.12912 0
M  V30 218 O 15.3552 -5.20153 3.02861 0
M  V30 219 H 19.1812 -1.97392 2.30803 0
M  V30 220 H 16.7662 -0.920154 1.17701 0
M  V30 221 H 18.6482 -4.08062 1.05182 0
M  V30 222 H 17.3232 -3.23011 0.211124 0
M  V30 223 H 16.2302 -2.7945 2.48714 0
M  V30 224 H 17.5632 -3.68976 3.25757 0
M  V30 225 N 19.2153 -1.21501 -1.00376 0
M  V30 226 C 20.4923 -0.941745 -1.71437 0
M  V30 227 C 20.8723 0.546114 -2.03914 0
M  V30 228 O 20.2203 1.51128 -1.71384 0
M  V30 229 C 20.4303 -1.82812 -2.97289 0
M  V30 230 C 21.7783 -2.07771 -3.70292 0
M  V30 231 O 22.8023 -1.80171 -3.07273 0
M  V30 232 O 21.6613 -2.54456 -4.83647 0
M  V30 233 H 18.7553 -0.353243 -0.747762 0
M  V30 234 H 21.3013 -1.32436 -1.06108 0
M  V30 235 H 20.0733 -2.83501 -2.69709 0
M  V30 236 H 19.6963 -1.4464 -3.70358 0
M  V30 237 N 20.6934 1.19889 -1.02296 0
M  V30 238 C 21.9214 1.9339 -0.735399 0
M  V30 239 C 22.3364 1.75148 0.704887 0
M  V30 240 O 21.6934 1.06954 1.47875 0
M  V30 241 C 21.7444 3.45313 -1.06962 0
M  V30 242 O 21.4654 3.62964 -2.45334 0
M  V30 243 C 22.9664 4.35948 -0.804021 0
M  V30 244 H 20.1864 0.61448 -0.269546 0
M  V30 245 H 22.7304 1.522 -1.36585 0
M  V30 246 H 20.8854 3.84359 -0.484455 0
M  V30 247 H 21.2994 4.56886 -2.57595 0
M  V30 248 H 22.7734 5.41174 -1.0879 0
M  V30 249 H 23.2504 4.3842 0.261691 0
M  V30 250 H 23.8564 4.02574 -1.37164 0
M  V30 251 N 22.1715 0.800033 1.35784 0
M  V30 252 C 23.1015 0.220184 2.3246 0
M  V30 253 C 24.0825 -0.65073 1.57161 0
M  V30 254 O 25.2675 -0.582359 1.85263 0
M  V30 255 C 22.3975 -0.637353 3.41402 0
M  V30 256 C 21.3515 0.134531 4.27789 0
M  V30 257 C 20.6775 -0.844285 5.27992 0
M  V30 258 C 21.9775 1.32979 5.05088 0
M  V30 259 H 23.6715 1.02787 2.81203 0
M  V30 260 H 21.2175 0.495717 1.35199 0
M  V30 261 H 23.1705 -1.05302 4.08031 0
M  V30 262 H 21.8945 -1.47785 2.91251 0
M  V30 263 H 20.5535 0.531296 3.6273 0
M  V30 264 H 20.2015 -1.68011 4.74111 0
M  V30 265 H 19.9015 -0.332184 5.8666 0
M  V30 266 H 21.4255 -1.2583 5.97494 0
M  V30 267 H 22.8395 0.98934 5.64699 0
M  V30 268 H 21.2365 1.77593 5.7322 0
M  V30 269 H 22.3065 2.11978 4.36111 0
M  V30 270 N 23.6496 -1.47581 0.552962 0
M  V30 271 C 24.8896 -2.04379 0.0296245 0
M  V30 272 C 25.2536 -1.4185 -1.29393 0
M  V30 273 O 26.4546 -1.89669 -1.90471 0
M  V30 274 C 24.7256 -3.57339 -0.0661371 0
M  V30 275 S 26.2846 -4.35511 -0.536213 0
M  V30 276 H 23.1026 -0.710625 0.0230991 0
M  V30 277 H 25.7046 -1.81005 0.738734 0
M  V30 278 H 24.4086 -4.00374 0.901596 0
M  V30 279 H 23.9396 -3.85202 -0.798931 0
M  V30 280 H 25.9546 -4.6253 -1.79668 0
M  V30 281 N 25.1277 -0.289203 -1.54924 0
M  V30 282 C 26.5387 0.205791 -1.85562 0
M  V30 283 C 26.8897 1.54351 -1.2112 0
M  V30 284 O 26.0147 2.10435 -0.504601 0
M  V30 285 C 26.6097 0.380177 -3.3666 0
M  V30 286 C 25.1687 0.819395 -3.67373 0
M  V30 287 C 24.3157 -0.079159 -2.77187 0
M  V30 288 H 27.2667 -0.510577 -1.50262 0
M  V30 289 H 27.2877 1.21659 -3.60526 0
M  V30 290 H 26.7997 -0.593589 -3.83534 0
M  V30 291 H 24.9007 1.80413 -3.26009 0
M  V30 292 H 25.0137 0.646957 -4.74712 0
M  V30 293 H 23.3777 0.439565 -2.50878 0
M  V30 294 H 24.1607 -1.04906 -3.26878 0
M  V30 295 N 26.6058 1.57591 -0.0167156 0
M  V30 296 C 27.8528 1.91283 0.664597 0
M  V30 297 C 28.1808 0.891949 1.72842 0
M  V30 298 O 27.4358 -0.100931 1.9544 0
M  V30 299 C 27.7348 3.3172 1.33029 0
M  V30 300 C 27.4008 4.4914 0.398047 0
M  V30 301 C 26.0628 4.80992 0.141421 0
M  V30 302 C 28.4148 5.20634 -0.242825 0
M  V30 303 C 25.7428 5.81703 -0.764092 0
M  V30 304 C 28.0948 6.22311 -1.13632 0
M  V30 305 C 26.7588 6.52611 -1.40196 0
M  V30 306 H 26.0288 0.699956 0.243193 0
M  V30 307 H 28.6758 1.9135 -0.0758267 0
M  V30 308 H 26.9808 3.27856 2.14517 0
M  V30 309 H 28.6778 3.55055 1.86379 0
M  V30 310 H 25.2678 4.24262 0.608238 0
M  V30 311 H 29.4518 4.96267 -0.0576019 0
M  V30 312 H 24.7078 6.03532 -0.977732 0
M  V30 313 H 28.8818 6.76834 -1.63917 0
M  V30 314 H 26.5088 7.30467 -2.10529 0
M  V30 315 N 28.0839 -0.256276 1.55502 0
M  V30 316 C 29.3319 -0.983672 1.76545 0
M  V30 317 C 29.6529 -1.86206 0.578982 0
M  V30 318 O 28.9229 -1.91656 -0.405577 0
M  V30 319 H 27.5029 -0.366191 0.651086 0
M  V30 320 H 30.1649 -0.276479 1.92929 0
M  V30 321 H 29.2609 -1.61087 2.67315 0
M  V30 322 N 29.562 -1.4872 -0.521534 0
M  V30 323 C 30.809 -1.57168 -1.27689 0
M  V30 324 C 31.137 -0.249275 -1.92896 0
M  V30 325 O 30.392 0.761162 -1.80291 0
M  V30 326 C 30.691 -2.66497 -2.38148 0
M  V30 327 C 30.357 -4.08664 -1.90538 0
M  V30 328 C 29.019 -4.47357 -1.77271 0
M  V30 329 C 31.371 -4.97724 -1.54663 0
M  V30 330 C 28.699 -5.72905 -1.26478 0
M  V30 331 C 31.051 -6.2377 -1.05329 0
M  V30 332 C 29.715 -6.61311 -0.906861 0
M  V30 333 H 28.985 -0.575117 -0.467249 0
M  V30 334 H 31.632 -1.82472 -0.581051 0
M  V30 335 H 29.937 -2.35085 -3.13437 0
M  V30 336 H 31.634 -2.70246 -2.96257 0
M  V30 337 H 28.224 -3.78111 -2.01816 0
M  V30 338 H 32.408 -4.68501 -1.63768 0
M  V30 339 H 27.664 -6.00709 -1.13835 0
M  V30 340 H 31.838 -6.9217 -0.76644 0
M  V30 341 H 29.465 -7.5848 -0.511083 0
M  V30 342 N 31.0401 0.771051 -1.3745 0
M  V30 343 C 31.9501 1.91538 -1.35464 0
M  V30 344 C 32.9661 1.72134 -0.254123 0
M  V30 345 O 34.1421 1.95358 -0.489626 0
M  V30 346 C 31.2071 3.26671 -1.16134 0
M  V30 347 C 30.2681 3.58723 -2.35831 0
M  V30 348 C 29.5011 4.87409 -2.17413 0
M  V30 349 O 29.7241 5.58506 -1.15876 0
M  V30 350 O 28.6581 5.18539 -3.05615 0
M  V30 351 H 32.4841 1.96165 -2.31847 0
M  V30 352 H 30.0691 0.9139 -1.18187 0
M  V30 353 H 31.9511 4.07499 -1.07345 0
M  V30 354 H 30.6261 3.22894 -0.228251 0
M  V30 355 H 29.5331 2.78127 -2.50192 0
M  V30 356 H 30.8661 3.67243 -3.27709 0
M  V30 357 N 32.5182 1.22032 0.997298 0
M  V30 358 C 33.7642 1.04376 1.73878 0
M  V30 359 C 34.0972 -0.420716 1.89588 0
M  V30 360 O 33.3722 -1.31202 1.43583 0
M  V30 361 C 33.6552 1.75047 3.14691 0
M  V30 362 C 33.5082 3.29062 3.06656 0
M  V30 363 C 34.8272 1.49928 4.13775 0
M  V30 364 H 31.9462 0.380578 0.631133 0
M  V30 365 H 34.5882 1.50312 1.16217 0
M  V30 366 H 32.7382 1.35996 3.63919 0
M  V30 367 H 34.4102 3.7753 2.65083 0
M  V30 368 H 32.6532 3.58967 2.43568 0
M  V30 369 H 33.3242 3.73683 4.06282 0
M  V30 370 H 35.8002 1.83842 3.73285 0
M  V30 371 H 34.6762 2.01878 5.10428 0
M  V30 372 H 34.9372 0.430929 4.39995 0
M  V30 373 N 33.9963 -1.19345 1.0293 0
M  V30 374 C 35.2263 -1.92717 0.744563 0
M  V30 375 C 35.6343 -1.75751 -0.700579 0
M  V30 376 O 34.9773 -1.07703 -1.48815 0
M  V30 377 C 35.0393 -3.44828 1.01657 0
M  V30 378 C 34.7033 -3.85564 2.45335 0
M  V30 379 C 35.7003 -3.90286 3.43472 0
M  V30 380 C 33.3853 -4.1719 2.79746 0
M  V30 381 C 35.3793 -4.26065 4.74075 0
M  V30 382 C 33.0663 -4.52642 4.10559 0
M  V30 383 C 34.0643 -4.57054 5.07534 0
M  V30 384 O 33.7523 -4.91685 6.36004 0
M  V30 385 H 33.4843 -0.618977 0.271742 0
M  V30 386 H 36.0383 -1.52415 1.37691 0
M  V30 387 H 34.2683 -3.85314 0.327084 0
M  V30 388 H 35.9573 -3.99437 0.721427 0
M  V30 389 H 36.7233 -3.66002 3.18225 0
M  V30 390 H 32.6023 -4.1294 2.04943 0
M  V30 391 H 36.1463 -4.29423 5.49765 0
M  V30 392 H 32.0433 -4.76383 4.35579 0
M  V30 393 H 32.8113 -5.09631 6.40483 0
M  V30 394 N 35.4744 -0.807222 -1.35358 0
M  V30 395 C 36.8854 -0.44876 -1.81226 0
M  V30 396 C 37.2364 1.02929 -1.67033 0
M  V30 397 O 36.3614 1.79991 -1.20133 0
M  V30 398 C 36.9564 -0.807774 -3.2903 0
M  V30 399 C 35.5154 -0.501901 -3.73039 0
M  V30 400 C 34.6624 -1.03304 -2.57339 0
M  V30 401 H 37.6134 -0.998808 -1.23327 0
M  V30 402 H 37.6344 -0.10554 -3.80354 0
M  V30 403 H 37.1464 -1.88357 -3.39328 0
M  V30 404 H 35.2474 0.565128 -3.68289 0
M  V30 405 H 35.3604 -1.03497 -4.67787 0
M  V30 406 H 33.7244 -0.455339 -2.50597 0
M  V30 407 H 34.5074 -2.11496 -2.70415 0
M  V30 408 N 36.9525 1.47285 -0.560781 0
M  V30 409 C 38.1995 2.02464 -0.038062 0
M  V30 410 C 38.5275 1.43474 1.31322 0
M  V30 411 O 37.7825 0.581311 1.86867 0
M  V30 412 C 38.0815 3.57258 0.100784 0
M  V30 413 C 37.7475 4.35184 -1.18007 0
M  V30 414 C 36.4095 4.56194 -1.53103 0
M  V30 415 C 38.7615 4.80098 -2.02867 0
M  V30 416 C 36.0895 5.19367 -2.729 0
M  V30 417 C 38.4415 5.44593 -3.21871 0
M  V30 418 C 37.1055 5.63835 -3.57276 0
M  V30 419 H 36.3755 0.740869 -0.0139279 0
M  V30 420 H 39.0225 1.76916 -0.733012 0
M  V30 421 H 37.3275 3.81819 0.878724 0
M  V30 422 H 39.0245 3.97606 0.520639 0
M  V30 423 H 35.6145 4.19113 -0.8968 0
M  V30 424 H 39.7985 4.63642 -1.7706 0
M  V30 425 H 35.0545 5.32459 -3.00496 0
M  V30 426 H 39.2285 5.78358 -3.87911 0
M  V30 427 H 36.8555 6.12557 -4.50197 0
M  V30 428 N 38.4306 0.297415 1.54768 0
M  V30 429 C 39.3626 -0.613881 2.20826 0
M  V30 430 C 40.3756 -1.10032 1.19987 0
M  V30 431 O 41.5646 -1.01839 1.46598 0
M  V30 432 C 38.6646 -1.852 2.83821 0
M  V30 433 C 37.8376 -1.50865 4.10559 0
M  V30 434 C 36.8966 -2.60154 4.57391 0
M  V30 435 O 35.9226 -2.25398 5.2267 0
M  V30 436 N 37.1246 -3.90629 4.29406 0
M  V30 437 H 39.8896 -0.048389 2.99661 0
M  V30 438 H 37.4506 0.11946 1.61459 0
M  V30 439 H 39.4426 -2.57652 3.12086 0
M  V30 440 H 38.0126 -2.32597 2.08847 0
M  V30 441 H 37.2326 -0.616925 3.89343 0
M  V30 442 H 38.5206 -1.25458 4.9309 0
M  V30 443 H 37.9186 -4.21677 3.77101 0
M  V30 444 H 36.4756 -4.59391 4.62388 0
M  V30 445 N 39.9087 -1.5758 0.0250728 0
M  V30 446 C 41.1547 -1.91917 -0.655413 0
M  V30 447 C 41.4877 -0.901433 -1.72011 0
M  V30 448 O 40.7627 0.0764069 -1.9435 0
M  V30 449 C 41.0457 -3.36751 -1.27558 0
M  V30 450 C 40.8987 -4.49258 -0.220719 0
M  V30 451 C 42.2177 -3.81469 -2.19475 0
M  V30 452 H 39.3367 -0.697925 -0.23679 0
M  V30 453 H 41.9787 -1.89825 0.0815036 0
M  V30 454 H 40.1287 -3.38664 -1.90365 0
M  V30 455 H 41.8007 -4.59478 0.409601 0
M  V30 456 H 40.0437 -4.31415 0.454264 0
M  V30 457 H 40.7147 -5.47618 -0.694175 0
M  V30 458 H 43.1907 -3.81266 -1.66659 0
M  V30 459 H 42.0667 -4.83512 -2.59822 0
M  V30 460 H 42.3277 -3.16744 -3.08424 0
M  V30 461 N 41.3868 0.248026 -1.55636 0
M  V30 462 C 42.3498 1.29044 -1.89421 0
M  V30 463 C 43.3498 1.41134 -0.770581 0
M  V30 464 O 44.5398 1.39854 -1.03858 0
M  V30 465 C 41.6718 2.66831 -2.12165 0
M  V30 466 H 42.8648 1.00305 -2.82629 0
M  V30 467 H 40.4178 0.487265 -1.48511 0
M  V30 468 H 41.1528 3.00711 -1.21422 0
M  V30 469 H 40.9378 2.59438 -2.93997 0
M  V30 470 H 42.4278 3.42103 -2.3949 0
M  V30 471 N 42.8649 1.48995 0.513639 0
M  V30 472 C 44.1109 1.59053 1.26783 0
M  V30 473 C 44.4659 0.268136 1.90522 0
M  V30 474 O 43.7589 -0.730534 1.77126 0
M  V30 475 C 43.9529 2.67756 2.36731 0
M  V30 476 C 43.7819 4.10437 1.83771 0
M  V30 477 C 42.5519 4.7738 1.65639 0
M  V30 478 C 44.7499 4.9608 1.35681 0
M  V30 479 N 42.7319 6.04419 1.07476 0
M  V30 480 C 44.1029 6.13496 0.895715 0
M  V30 481 C 46.1579 4.82177 1.24136 0
M  V30 482 C 44.8609 7.1854 0.3306 0
M  V30 483 C 46.8869 5.87358 0.690229 0
M  V30 484 C 46.2489 7.03993 0.239292 0
M  V30 485 H 42.3479 0.636463 0.454355 0
M  V30 486 H 44.9319 1.85948 0.577196 0
M  V30 487 H 43.1029 2.42655 3.03271 0
M  V30 488 H 44.8349 2.67406 3.0377 0
M  V30 489 H 41.5899 4.33974 1.8964 0
M  V30 490 H 42.0139 6.72214 0.803579 0
M  V30 491 H 46.6559 3.92329 1.57601 0
M  V30 492 H 44.3739 8.08098 -0.0163435 0
M  V30 493 H 47.9599 5.78658 0.603852 0
M  V30 494 H 46.8399 7.83992 -0.180526 0
M  V30 495 N 44.343 -0.763751 1.37857 0
M  V30 496 C 45.573 -1.55067 1.3652 0
M  V30 497 C 45.981 -1.89135 -0.0494227 0
M  V30 498 O 45.324 -1.52529 -1.02375 0
M  V30 499 C 45.386 -2.8838 2.14656 0
M  V30 500 C 45.05 -2.76905 3.63555 0
M  V30 501 C 46.047 -2.4739 4.57268 0
M  V30 502 C 43.732 -2.94676 4.06781 0
M  V30 503 C 45.726 -2.35786 5.92186 0
M  V30 504 C 43.413 -2.82692 5.41782 0
M  V30 505 C 44.411 -2.53289 6.34298 0
M  V30 506 O 44.099 -2.41345 7.66817 0
M  V30 507 H 43.831 -0.486776 0.469069 0
M  V30 508 H 46.385 -0.953812 1.81911 0
M  V30 509 H 44.615 -3.50217 1.63967 0
M  V30 510 H 46.304 -3.49828 2.05852 0
M  V30 511 H 47.07 -2.33339 4.2518 0
M  V30 512 H 42.949 -3.16563 3.35126 0
M  V30 513 H 46.493 -2.12757 6.64365 0
M  V30 514 H 42.39 -2.96314 5.7347 0
M  V30 515 H 43.158 -2.56634 7.77226 0
M  V30 516 N 45.8211 -1.22559 -0.990812 0
M  V30 517 C 46.7691 -0.994798 -2.10253 0
M  V30 518 C 47.7631 0.0627798 -1.69284 0
M  V30 519 O 48.9691 -0.0898392 -1.79776 0
M  V30 520 H 45.3441 -0.304527 -0.687581 0
M  V30 521 H 47.3151 -1.93812 -2.26891 0
M  V30 522 C 46.0641 -0.591439 -3.42633 0
M  V30 523 H 45.3871 -1.3969 -3.74602 0
M  V30 524 H 46.8271 -0.469385 -4.21394 0
M  V30 525 C 45.2861 0.699232 -3.29564 0
M  V30 526 O 45.8161 1.75112 -3.61523 0
M  V30 527 N 44.0221 0.671182 -2.82743 0
M  V30 528 H 43.5691 -0.185136 -2.56934 0
M  V30 529 H 43.5271 1.53502 -2.7438 0
M  V30 530 N 47.2992 1.18797 -1.03562 0
M  V30 531 C 48.2092 2.25913 -0.632505 0
M  V30 532 C 49.2252 1.70668 0.338882 0
M  V30 533 O 50.4012 2.00453 0.195076 0
M  V30 534 C 47.4662 3.467 0.00350942 0
M  V30 535 C 46.5272 4.17098 -1.01624 0
M  V30 536 C 45.7602 5.32119 -0.410478 0
M  V30 537 O 45.9832 5.64976 0.784725 0
M  V30 538 O 44.9172 5.9107 -1.13667 0
M  V30 539 H 48.7432 2.62648 -1.52478 0
M  V30 540 H 46.3282 1.25781 -0.806195 0
M  V30 541 H 48.2102 4.19878 0.35781 0
M  V30 542 H 46.8852 3.11798 0.869686 0
M  V30 543 H 45.7922 3.4601 -1.42224 0
M  V30 544 H 47.1252 4.55987 -1.85301 0
M  V30 545 N 48.7773 0.814389 1.34928 0
M  V30 546 C 49.7073 0.244827 2.32213 0
M  V30 547 C 50.6883 -0.634024 1.57842 0
M  V30 548 O 51.8733 -0.562676 1.8587 0
M  V30 549 C 49.0033 -0.601106 3.42058 0
M  V30 550 C 47.9573 0.179896 4.27622 0
M  V30 551 C 47.2833 -0.788237 5.28858 0
M  V30 552 C 48.5833 1.38329 5.03649 0
M  V30 553 H 50.2773 1.05763 2.80097 0
M  V30 554 H 47.8233 0.510029 1.34665 0
M  V30 555 H 49.7763 -1.00968 4.09125 0
M  V30 556 H 48.5003 -1.44688 2.92802 0
M  V30 557 H 47.1593 0.569739 3.62146 0
M  V30 558 H 46.8073 -1.62973 4.75866 0
M  V30 559 H 46.5073 -0.269942 5.8698 0
M  V30 560 H 48.0313 -1.19485 5.98795 0
M  V30 561 H 49.4453 1.04918 5.63618 0
M  V30 562 H 47.8423 1.83662 5.71304 0
M  V30 563 H 48.9123 2.16592 4.33839 0
M  V30 564 N 50.2554 -1.46986 0.568584 0
M  V30 565 C 51.1854 -2.32946 -0.160753 0
M  V30 566 C 52.1664 -1.44487 -0.897631 0
M  V30 567 O 53.3514 -1.73327 -0.875867 0
M  V30 568 C 50.4814 -3.26494 -1.18403 0
M  V30 569 C 49.4354 -4.24282 -0.562895 0
M  V30 570 C 48.7614 -5.07236 -1.69163 0
M  V30 571 C 50.0614 -5.19989 0.490761 0
M  V30 572 H 51.7554 -2.94175 0.556916 0
M  V30 573 H 49.3014 -1.4146 0.26927 0
M  V30 574 H 51.2544 -3.85477 -1.70251 0
M  V30 575 H 49.9784 -2.63343 -1.93179 0
M  V30 576 H 48.6374 -3.66541 -0.0656164 0
M  V30 577 H 48.2854 -4.4048 -2.42871 0
M  V30 578 H 47.9854 -5.7345 -1.28174 0
M  V30 579 H 49.5094 -5.6908 -2.21314 0
M  V30 580 H 50.9234 -5.73271 0.0579047 0
M  V30 581 H 49.3204 -5.94469 0.820165 0
M  V30 582 H 50.3904 -4.64777 1.3824 0
M  V30 583 N 51.7335 -0.305618 -1.54608 0
M  V30 584 C 53.1445 0.186098 -1.8577 0
M  V30 585 C 53.4955 1.53058 -1.22751 0
M  V30 586 O 52.6205 2.09888 -0.526893 0
M  V30 587 C 53.2155 0.344449 -3.37044 0
M  V30 588 C 51.7745 0.780384 -3.68221 0
M  V30 589 C 50.9215 -0.108554 -2.77087 0
M  V30 590 H 53.8725 -0.526485 -1.49712 0
M  V30 591 H 53.8935 1.17828 -3.61796 0
M  V30 592 H 53.4055 -0.634235 -3.82883 0
M  V30 593 H 51.5065 1.76945 -3.27904 0
M  V30 594 H 51.6195 0.596572 -4.75371 0
M  V30 595 H 49.9835 0.412931 -2.5133 0
M  V30 596 H 50.7665 -1.08368 -3.25747 0
M  V30 597 N 53.2116 1.57565 -0.0334293 0
M  V30 598 C 54.6226 1.79746 0.504798 0
M  V30 599 C 54.9736 0.944091 1.71992 0
M  V30 600 O 54.0986 0.155694 2.15839 0
M  V30 601 C 54.6936 3.25997 0.922567 0
M  V30 602 C 53.2526 3.49159 1.40588 0
M  V30 603 C 52.3996 2.74785 0.372633 0
M  V30 604 H 55.3506 1.56565 -0.259436 0
M  V30 605 H 55.3716 3.35945 1.78666 0
M  V30 606 H 54.8836 3.88081 0.0379825 0
M  V30 607 H 52.9846 2.92332 2.31025 0
M  V30 608 H 53.0976 4.57873 1.41028 0
M  V30 609 H 51.4616 2.40391 0.841672 0
M  V30 610 H 52.2446 3.39587 -0.503559 0
M  V30 611 N 54.6897 -0.239769 1.55765 0
M  V30 612 C 55.6527 -1.28038 1.90103 0
M  V30 613 C 56.6527 -1.40723 0.778055 0
M  V30 614 O 57.8427 -1.39301 1.04599 0
M  V30 615 C 54.9747 -2.65702 2.13577 0
M  V30 616 H 56.1677 -0.988048 2.83157 0
M  V30 617 H 53.7207 -0.479382 1.48767 0
M  V30 618 H 54.4557 -3.00063 1.23015 0
M  V30 619 H 54.2407 -2.57875 2.95369 0
M  V30 620 H 55.7307 -3.40828 2.41301 0
M  V30 621 N 56.1678 -1.49265 -0.50573 0
M  V30 622 C 57.4148 -1.58513 -1.26015 0
M  V30 623 C 57.7428 -0.26972 -1.92621 0
M  V30 624 O 56.9978 0.741997 -1.81088 0
M  V30 625 C 57.2968 -2.69008 -2.35308 0
M  V30 626 C 56.9628 -4.10662 -1.86192 0
M  V30 627 C 55.6248 -4.49212 -1.72516 0
M  V30 628 C 57.9768 -4.99336 -1.49375 0
M  V30 629 C 55.3048 -5.74214 -1.20394 0
M  V30 630 C 57.6568 -6.24852 -0.987072 0
M  V30 631 C 56.3208 -6.62236 -0.836669 0
M  V30 632 H 55.5908 -0.580041 -0.461122 0
M  V30 633 H 58.2378 -1.83078 -0.561665 0
M  V30 634 H 56.5428 -2.38396 -3.10926 0
M  V30 635 H 58.2398 -2.73373 -2.93374 0
M  V30 636 H 54.8298 -3.8023 -1.97795 0
M  V30 637 H 59.0138 -4.70212 -1.5879 0
M  V30 638 H 54.2698 -6.01883 -1.07458 0
M  V30 639 H 58.4438 -6.92944 -0.692983 0
M  V30 640 H 56.0708 -7.58979 -0.430607 0
M  V30 641 N 57.6459 0.756429 -1.3826 0
M  V30 642 C 58.5959 1.86069 -1.31766 0
M  V30 643 C 59.5799 1.59621 -0.202483 0
M  V30 644 O 60.7719 1.7149 -0.438211 0
M  V30 645 C 57.9009 3.23742 -1.1422 0
M  V30 646 C 56.9869 3.56091 -2.30348 0
M  V30 647 N 57.3779 3.59517 -3.55783 0
M  V30 648 C 55.6759 3.86341 -2.22838 0
M  V30 649 C 56.3769 3.89052 -4.32451 0
M  V30 650 N 55.3529 4.05736 -3.61772 0
M  V30 651 H 59.1549 1.86992 -2.26741 0
M  V30 652 H 56.6689 0.953643 -1.31451 0
M  V30 653 H 58.6659 4.02761 -1.07652 0
M  V30 654 H 57.3259 3.24073 -0.201763 0
M  V30 655 H 58.3369 3.41347 -3.89491 0
M  V30 656 H 55.0139 3.94404 -1.36937 0
M  V30 657 H 56.4039 3.98349 -5.4108 0
M  V30 658 N 59.124 1.23083 0.984299 0
M  V30 659 C 60.054 1.03292 2.09411 0
M  V30 660 C 61.035 -0.048923 1.7003 0
M  V30 661 O 62.22 0.114967 1.93859 0
M  V30 662 C 59.35 0.619155 3.41736 0
M  V30 663 C 58.304 1.64791 3.95004 0
M  V30 664 C 57.63 1.0897 5.23478 0
M  V30 665 C 58.93 3.03999 4.24714 0
M  V30 666 H 60.624 1.96119 2.26225 0
M  V30 667 H 58.17 0.944344 1.08711 0
M  V30 668 H 60.123 0.467777 4.18796 0
M  V30 669 H 58.847 -0.344786 3.24775 0
M  V30 670 H 57.506 1.78721 3.20085 0
M  V30 671 H 57.154 0.11686 5.02864 0
M  V30 672 H 56.854 1.77704 5.60085 0
M  V30 673 H 58.378 0.950093 6.03163 0
M  V30 674 H 59.792 2.93393 4.92538 0
M  V30 675 H 58.189 3.69936 4.72512 0
M  V30 676 H 59.259 3.53285 3.32142 0
M  V30 677 N 60.6021 -1.18246 1.0419 0
M  V30 678 C 62.0131 -1.69914 0.773698 0
M  V30 679 C 62.3641 -1.83085 -0.705297 0
M  V30 680 O 61.4891 -1.51123 -1.5489 0
M  V30 681 C 62.0841 -3.08619 1.39784 0
M  V30 682 C 60.6431 -3.57494 1.17792 0
M  V30 683 C 59.7901 -2.34013 1.48773 0
M  V30 684 H 62.7411 -1.02904 1.20816 0
M  V30 685 H 62.7621 -3.71958 0.801714 0
M  V30 686 H 62.2741 -2.99001 2.47426 0
M  V30 687 H 60.3751 -3.72406 0.120295 0
M  V30 688 H 60.4881 -4.40852 1.87581 0
M  V30 689 H 58.8521 -2.37986 0.907463 0
M  V30 690 H 59.6351 -2.27013 2.57527 0
M  V30 691 N 62.0802 -0.821533 -1.34494 0
M  V30 692 C 63.0102 -0.257138 -2.3208 0
M  V30 693 C 63.9912 0.625645 -1.58176 0
M  V30 694 O 65.1762 0.552811 -1.86166 0
M  V30 695 C 62.3062 0.582958 -3.42372 0
M  V30 696 C 61.2602 -0.202571 -4.2752 0
M  V30 697 C 60.5862 0.760179 -5.29269 0
M  V30 698 C 61.8862 -1.40998 -5.02908 0
M  V30 699 H 63.5802 -1.07247 -2.79532 0
M  V30 700 H 61.1262 -0.517163 -1.34393 0
M  V30 701 H 63.0792 0.987972 -4.09655 0
M  V30 702 H 61.8032 1.43133 -2.93565 0
M  V30 703 H 60.4622 -0.588936 -3.61838 0
M  V30 704 H 60.1102 1.60447 -4.76724 0
M  V30 705 H 59.8102 0.238809 -5.87115 0
M  V30 706 H 61.3342 1.16308 -5.9942 0
M  V30 707 H 62.7482 -1.07905 -5.63054 0
M  V30 708 H 61.1452 -1.86689 -5.70322 0
M  V30 709 H 62.2152 -2.1889 -4.32684 0
M  V30 710 N 63.5583 1.46682 -0.576371 0
M  V30 711 C 64.9693 1.86112 -0.148091 0
M  V30 712 C 65.3203 1.48073 1.2872 0
M  V30 713 O 64.4453 0.892656 1.97131 0
M  V30 714 C 65.0403 3.37786 -0.261982 0
M  V30 715 C 63.5993 3.76235 0.111384 0
M  V30 716 C 62.7463 2.70713 -0.60083 0
M  V30 717 H 65.6973 1.37927 -0.78497 0
M  V30 718 H 65.7183 3.77007 0.514364 0
M  V30 719 H 65.2303 3.6544 -1.30671 0
M  V30 720 H 63.3313 3.54198 1.15649 0
M  V30 721 H 63.4443 4.78391 -0.26052 0
M  V30 722 H 61.8083 2.54666 -0.0417783 0
M  V30 723 H 62.5913 3.01208 -1.64708 0
M  V30 724 N 65.0364 0.313813 1.54444 0
M  V30 725 C 66.2844 -0.291099 1.99993 0
M  V30 726 C 66.6054 -1.53418 1.20366 0
M  V30 727 O 65.8754 -1.93544 0.302927 0
M  V30 728 H 64.4554 -0.110552 0.738774 0
M  V30 729 H 67.1174 0.428106 1.9014 0
M  V30 730 H 66.2134 -0.554268 3.07139 0
M  V30 731 N 66.5145 -1.57545 0.0417849 0
M  V30 732 C 67.9255 -1.80011 -0.495259 0
M  V30 733 C 68.2765 -0.953199 -1.71489 0
M  V30 734 O 67.4015 -0.167138 -2.15754 0
M  V30 735 C 67.9965 -3.26482 -0.905265 0
M  V30 736 C 66.5555 -3.499 -1.38734 0
M  V30 737 C 65.7025 -2.74979 -0.358056 0
M  V30 738 H 68.6535 -1.56425 0.267736 0
M  V30 739 H 68.6745 -3.36887 -1.76882 0
M  V30 740 H 68.1865 -3.88096 -0.017401 0
M  V30 741 H 66.2875 -2.93553 -2.29471 0
M  V30 742 H 66.4005 -4.58615 -1.38598 0
M  V30 743 H 64.7645 -2.40834 -0.828912 0
M  V30 744 H 65.5475 -3.39315 0.521561 0
M  V30 745 N 67.9926 0.231505 -1.5589 0
M  V30 746 C 69.2206 0.974505 -1.82513 0
M  V30 747 C 69.6356 1.78344 -0.619591 0
M  V30 748 O 68.9926 1.77792 0.411848 0
M  V30 749 C 69.0436 1.90007 -3.07538 0
M  V30 750 O 68.7646 1.12385 -4.2344 0
M  V30 751 C 70.2656 2.75779 -3.47075 0
M  V30 752 H 67.4856 0.286065 -0.606966 0
M  V30 753 H 70.0296 0.249739 -2.02969 0
M  V30 754 H 68.1846 2.57891 -2.89086 0
M  V30 755 H 68.5986 1.75125 -4.944 0
M  V30 756 H 70.0726 3.36443 -4.37619 0
M  V30 757 H 70.5496 3.47672 -2.68367 0
M  V30 758 H 71.1556 2.13323 -3.67931 0
M  V30 759 N 69.4707 1.49531 0.497807 0
M  V30 760 C 70.4007 1.6935 1.60757 0
M  V30 761 C 71.3817 0.542218 1.61227 0
M  V30 762 O 72.5667 0.778417 1.77917 0
M  V30 763 C 69.6967 1.76298 2.99226 0
M  V30 764 C 68.6507 2.91248 3.13622 0
M  V30 765 C 67.9767 2.83312 4.53474 0
M  V30 766 C 69.2767 4.3214 2.93346 0
M  V30 767 H 70.9707 2.62263 1.44425 0
M  V30 768 H 68.5167 1.26208 0.693367 0
M  V30 769 H 70.4697 1.88749 3.76765 0
M  V30 770 H 69.1937 0.799871 3.16654 0
M  V30 771 H 67.8527 2.78404 2.38509 0
M  V30 772 H 67.5007 1.84902 4.67782 0
M  V30 773 H 67.2007 3.60465 4.64046 0
M  V30 774 H 68.7247 2.97775 5.33069 0
M  V30 775 H 70.1387 4.45649 3.60652 0
M  V30 776 H 68.5357 5.1054 3.15387 0
M  V30 777 H 69.6057 4.46363 1.89441 0
M  V30 778 N 70.9488 -0.749086 1.3866 0
M  V30 779 C 71.9118 -1.84457 1.36045 0
M  V30 780 C 72.9118 -1.58682 0.260122 0
M  V30 781 O 74.1018 -1.66343 0.517261 0
M  V30 782 C 71.2338 -3.22008 1.11911 0
M  V30 783 H 72.4268 -1.88182 2.33512 0
M  V30 784 H 69.9798 -0.951266 1.24019 0
M  V30 785 H 70.7148 -3.2395 0.150686 0
M  V30 786 H 70.4998 -3.42111 1.91579 0
M  V30 787 H 71.9898 -4.0208 1.12788 0
M  V30 788 N 72.4269 -1.23603 -0.977757 0
M  V30 789 C 73.6739 -1.06971 -1.71941 0
M  V30 790 C 74.0019 0.393009 -1.90488 0
M  V30 791 O 73.2569 1.30719 -1.4564 0
M  V30 792 C 73.5559 -1.7433 -3.11999 0
M  V30 793 C 73.2219 -3.24252 -3.13323 0
M  V30 794 C 71.8839 -3.65156 -3.13392 0
M  V30 795 C 74.2359 -4.20141 -3.08433 0
M  V30 796 C 71.5639 -5.00403 -3.0629 0
M  V30 797 C 73.9159 -5.55384 -3.02873 0
M  V30 798 C 72.5799 -5.95647 -3.01265 0
M  V30 799 H 71.8499 -0.391433 -0.629175 0
M  V30 800 H 74.4969 -1.53572 -1.14403 0
M  V30 801 H 72.8019 -1.20096 -3.7294 0
M  V30 802 H 74.4989 -1.58936 -3.68158 0
M  V30 803 H 71.0889 -2.91692 -3.14029 0
M  V30 804 H 75.2729 -3.89547 -3.07517 0
M  V30 805 H 70.5289 -5.3081 -3.03399 0
M  V30 806 H 74.7029 -6.29398 -2.98046 0
M  V30 807 H 72.3299 -7.0041 -2.95516 0
M  V30 808 N 73.905 1.17692 -1.04816 0
M  V30 809 C 74.835 2.23777 -0.666791 0
M  V30 810 C 75.816 1.66796 0.33361 0
M  V30 811 O 77.001 1.93039 0.212042 0
M  V30 812 C 74.131 3.47281 -0.0367933 0
M  V30 813 C 73.085 4.17059 -0.961546 0
M  V30 814 C 72.411 5.34342 -0.195626 0
M  V30 815 C 73.711 4.69713 -2.28402 0
M  V30 816 H 75.405 2.55933 -1.55367 0
M  V30 817 H 72.951 1.23019 -0.748484 0
M  V30 818 H 74.904 4.20706 0.241775 0
M  V30 819 H 73.628 3.14381 0.885004 0
M  V30 820 H 72.287 3.45541 -1.22462 0
M  V30 821 H 71.935 4.97692 0.728816 0
M  V30 822 H 71.635 5.81966 -0.811775 0
M  V30 823 H 73.159 6.10553 0.0757473 0
M  V30 824 H 74.573 5.34794 -2.06563 0
M  V30 825 H 72.97 5.279 -2.8538 0
M  V30 826 H 74.04 3.86726 -2.92525 0
M  V30 827 N 75.3831 0.828654 1.34056 0
M  V30 828 C 76.6291 0.42008 1.98402 0
M  V30 829 C 76.9621 -1.01564 1.65525 0
M  V30 830 O 76.2371 -1.70834 0.929831 0
M  V30 831 C 76.5201 0.62927 3.54559 0
M  V30 832 C 76.3731 2.11152 3.97159 0
M  V30 833 C 77.6921 0.0688756 4.40046 0
M  V30 834 H 74.8111 0.154104 0.720709 0
M  V30 835 H 77.4531 1.04228 1.5886 0
M  V30 836 H 75.6031 0.0996418 3.88372 0
M  V30 837 H 77.2751 2.70522 3.73651 0
M  V30 838 H 75.5181 2.59985 3.47261 0
M  V30 839 H 76.1891 2.20868 5.05887 0
M  V30 840 H 78.6651 0.521458 4.1282 0
M  V30 841 H 77.5411 0.245006 5.48353 0
M  V30 842 H 77.8021 -1.0266 4.30015 0
M  V30 843 N 76.8612 -1.46375 0.584142 0
M  V30 844 C 77.7912 -2.33103 -0.136037 0
M  V30 845 C 78.7722 -1.45431 -0.882255 0
M  V30 846 O 79.9572 -1.74246 -0.857434 0
M  V30 847 C 77.0872 -3.27731 -1.14933 0
M  V30 848 C 76.0412 -4.24855 -0.517862 0
M  V30 849 C 75.3672 -5.09001 -1.63773 0
M  V30 850 C 76.6672 -5.19439 0.545886 0
M  V30 851 H 78.3612 -2.93568 0.588086 0
M  V30 852 H 75.9072 -1.41166 0.284259 0
M  V30 853 H 77.8602 -3.87261 -1.66153 0
M  V30 854 H 76.5842 -2.65377 -1.90375 0
M  V30 855 H 75.2432 -3.6659 -0.0267361 0
M  V30 856 H 74.8912 -4.43031 -2.38185 0
M  V30 857 H 74.5912 -5.74777 -1.22085 0
M  V30 858 H 76.1152 -5.71396 -2.15266 0
M  V30 859 H 77.5292 -5.73177 0.118704 0
M  V30 860 H 75.9262 -5.93566 0.88317 0
M  V30 861 H 76.9962 -4.63285 1.43162 0
M  V30 862 N 78.3393 -0.321999 -1.54275 0
M  V30 863 C 79.5643 0.285791 -2.05422 0
M  V30 864 C 79.9893 1.45124 -1.19669 0
M  V30 865 O 79.3473 1.80132 -0.205441 0
M  V30 866 C 79.3953 0.69956 -3.53749 0
M  V30 867 O 78.4993 1.8021 -3.70942 0
M  V30 868 H 77.8403 0.0518962 -0.661969 0
M  V30 869 H 80.3703 -0.469954 -1.9913 0
M  V30 870 H 80.3803 0.982649 -3.9599 0
M  V30 871 H 79.0553 -0.152864 -4.15619 0
M  V30 872 H 77.6323 1.51794 -3.40607 0
M  V30 873 N 79.8174 1.5752 -0.0501392 0
M  V30 874 C 81.0454 1.96963 0.633492 0
M  V30 875 C 81.4604 0.927631 1.6444 0
M  V30 876 O 80.8174 -0.0882665 1.82286 0
M  V30 877 C 80.8684 3.36487 1.32132 0
M  V30 878 O 80.5894 4.36693 0.350894 0
M  V30 879 C 82.0904 3.90682 2.09481 0
M  V30 880 H 79.3104 0.648244 0.173266 0
M  V30 881 H 81.8544 2.0417 -0.116134 0
M  V30 882 H 80.0094 3.30434 2.02218 0
M  V30 883 H 80.4234 5.17702 0.841735 0
M  V30 884 H 81.8974 4.90591 2.5303 0
M  V30 885 H 82.3744 3.26053 2.94255 0
M  V30 886 H 82.9804 4.00069 1.44307 0
M  V30 887 N 81.2955 -0.223234 1.56011 0
M  V30 888 C 82.7065 -0.790368 1.69145 0
M  V30 889 C 83.0575 -1.85055 0.651845 0
M  V30 890 O 82.1825 -2.15498 -0.197359 0
M  V30 891 C 82.7775 -1.4404 3.06656 0
M  V30 892 C 81.3365 -1.95494 3.2165 0
M  V30 893 C 80.4835 -0.814506 2.65068 0
M  V30 894 H 83.4345 0.00139011 1.587 0
M  V30 895 H 83.4555 -2.30916 3.0242 0
M  V30 896 H 82.9675 -0.668543 3.82298 0
M  V30 897 H 81.0685 -2.75487 2.50874 0
M  V30 898 H 81.1815 -2.13607 4.28846 0
M  V30 899 H 79.5455 -1.22137 2.23505 0
M  V30 900 H 80.3285 -0.0553515 3.43255 0
M  V30 901 N 82.7736 -1.49793 -0.48987 0
M  V30 902 C 83.7366 -1.66752 -1.57246 0
M  V30 903 C 84.7366 -0.538867 -1.51502 0
M  V30 904 O 85.9266 -0.805545 -1.54456 0
M  V30 905 C 83.0586 -1.67528 -2.96896 0
M  V30 906 H 84.2516 -2.63321 -1.43534 0
M  V30 907 H 81.8046 -1.38992 -0.714914 0
M  V30 908 H 82.5396 -0.725837 -3.16073 0
M  V30 909 H 82.3246 -2.49504 -3.02473 0
M  V30 910 H 83.8146 -1.82667 -3.7553 0
M  V30 911 N 84.2517 0.741722 -1.39055 0
M  V30 912 C 85.1847 1.86416 -1.31622 0
M  V30 913 C 86.1627 1.61473 -0.191076 0
M  V30 914 O 87.3467 1.84825 -0.370399 0
M  V30 915 C 84.4737 3.22266 -1.04221 0
M  V30 916 C 83.5197 3.66079 -2.18834 0
M  V30 917 S 84.3527 3.7623 -3.81066 0
M  V30 918 C 85.5087 5.14881 -3.55877 0
M  V30 919 H 85.7417 1.92437 -2.26617 0
M  V30 920 H 83.2747 0.905907 -1.25031 0
M  V30 921 H 85.2327 4.00714 -0.890964 0
M  V30 922 H 83.8937 3.1391 -0.109237 0
M  V30 923 H 83.0867 4.64648 -1.95238 0
M  V30 924 H 82.6887 2.94817 -2.30128 0
M  V30 925 H 84.9807 6.01006 -3.12726 0
M  V30 926 H 85.9237 5.43503 -4.53884 0
M  V30 927 H 86.3317 4.84239 -2.90126 0
M  V30 928 N 85.7298 1.2412 0.971189 0
M  V30 929 C 86.9768 1.07881 1.71371 0
M  V30 930 C 87.3048 -0.382901 1.90694 0
M  V30 931 O 86.5598 -1.29945 1.46331 0
M  V30 932 C 86.8588 1.75983 3.11071 0
M  V30 933 C 86.5248 3.25909 3.11599 0
M  V30 934 C 85.1868 3.66813 3.11451 0
M  V30 935 C 87.5388 4.21771 3.062 0
M  V30 936 C 84.8668 5.02021 3.03631 0
M  V30 937 C 87.2188 5.56982 2.99923 0
M  V30 938 C 85.8828 5.97237 2.98102 0
M  V30 939 H 85.1528 0.394764 0.62709 0
M  V30 940 H 87.7998 1.54176 1.13587 0
M  V30 941 H 86.1048 1.22072 3.72298 0
M  V30 942 H 87.8018 1.60887 3.6731 0
M  V30 943 H 84.3918 2.93353 3.12477 0
M  V30 944 H 88.5758 3.91172 3.05447 0
M  V30 945 H 83.8318 5.32411 3.0058 0
M  V30 946 H 88.0058 6.30969 2.94704 0
M  V30 947 H 85.6328 7.01967 2.91798 0
M  V30 948 N 87.2079 -1.17134 1.05439 0
M  V30 949 C 88.4849 -1.83411 0.679699 0
M  V30 950 C 88.8649 -1.9368 -0.839726 0
M  V30 951 O 88.2129 -1.47325 -1.74664 0
M  V30 952 C 88.4229 -3.20918 1.37159 0
M  V30 953 C 89.7709 -3.96796 1.51123 0
M  V30 954 O 90.7949 -3.30406 1.3308 0
M  V30 955 O 89.6539 -5.15778 1.80651 0
M  V30 956 H 86.7479 -0.79154 0.239569 0
M  V30 957 H 89.2939 -1.24411 1.15413 0
M  V30 958 H 88.0659 -3.08428 2.40807 0
M  V30 959 H 87.6889 -3.87587 0.886674 0
M  V30 960 N 88.686 -0.835752 -1.33615 0
M  V30 961 C 90.102 -0.523139 -1.50783 0
M  V30 962 C 90.302 0.950171 -1.77691 0
M  V30 963 O 89.358 1.73411 -1.83534 0
M  V30 964 C 90.671 -1.39378 -2.66448 0
M  V30 965 C 92.219 -1.39223 -2.80332 0
M  V30 966 C 92.694 -2.24765 -3.99055 0
M  V30 967 N 94.185 -2.22458 -4.06284 0
M  V30 968 C 94.92 -2.85386 -4.97336 0
M  V30 969 N 94.416 -3.57354 -5.93523 0
M  V30 970 N 96.209 -2.74872 -4.90308 0
M  V30 971 H 88.36 -1.78952 -1.14411 0
M  V30 972 H 90.623 -0.763297 -0.562212 0
M  V30 973 H 90.329 -2.44061 -2.53234 0
M  V30 974 H 90.203 -1.0676 -3.61776 0
M  V30 975 H 92.59 -0.353136 -2.92979 0
M  V30 976 H 92.671 -1.75846 -1.85773 0
M  V30 977 H 92.315 -3.28732 -3.87167 0
M  V30 978 H 92.245 -1.85485 -4.92852 0
M  V30 979 H 94.736 -1.70119 -3.37443 0
M  V30 980 H 95.049 -4.02584 -6.59656 0
M  V30 981 H 93.394 -3.61461 -5.93608 0
M  V30 982 H 96.585 -2.18213 -4.14126 0
M  V30 983 H 96.758 -3.24199 -5.61069 0
M  V30 984 N 90.1641 1.46063 -0.591896 0
M  V30 985 C 91.1271 2.28854 0.125973 0
M  V30 986 C 92.1271 1.38903 0.810107 0
M  V30 987 O 93.3171 1.61186 0.66066 0
M  V30 988 C 90.4491 3.19526 1.1881 0
M  V30 989 H 91.6421 2.93802 -0.601717 0
M  V30 990 H 89.1951 1.52325 -0.350254 0
M  V30 991 H 89.9301 2.59345 1.94707 0
M  V30 992 H 89.7151 3.85766 0.701936 0
M  V30 993 H 91.2051 3.81817 1.69132 0
M  V30 994 N 91.6422 0.330177 1.54103 0
M  V30 995 C 92.5722 -0.525353 2.27513 0
M  V30 996 C 93.5532 -1.11383 1.2856 0
M  V30 997 O 94.7382 -1.13773 1.57383 0
M  V30 998 C 91.8682 -1.6831 3.03791 0
M  V30 999 C 90.8222 -1.2236 4.10137 0
M  V30 1000 C 90.1482 -2.46882 4.74293 0
M  V30 1001 C 91.4482 -0.333697 5.21233 0
M  V30 1002 H 93.1422 0.087013 2.99274 0
M  V30 1003 H 90.6882 0.0432893 1.43935 0
M  V30 1004 H 92.6412 -2.28795 3.5388 0
M  V30 1005 H 91.3652 -2.32216 2.29659 0
M  V30 1006 H 90.0242 -0.64165 3.60941 0
M  V30 1007 H 89.6722 -3.09165 3.96769 0
M  V30 1008 H 89.3722 -2.16825 5.46133 0
M  V30 1009 H 90.8962 -3.08117 5.27159 0
M  V30 1010 H 92.3102 -0.845013 5.67038 0
M  V30 1011 H 90.7072 -0.125612 5.99969 0
M  V30 1012 H 91.7772 0.633724 4.80741 0
M  V30 1013 N 93.1203 -1.57491 0.0584922 0
M  V30 1014 C 94.0673 -2.11958 -0.913376 0
M  V30 1015 C 95.0373 -1.02875 -1.30407 0
M  V30 1016 O 96.2223 -1.30464 -1.39226 0
M  V30 1017 C 93.3623 -2.67497 -2.18035 0
M  V30 1018 C 92.4753 -3.90691 -1.84349 0
M  V30 1019 C 91.6103 -4.3452 -3.05559 0
M  V30 1020 C 90.6493 -5.50395 -2.67827 0
M  V30 1021 N 89.7863 -5.89244 -3.81754 0
M  V30 1022 H 94.6263 -2.94704 -0.442017 0
M  V30 1023 H 92.1633 -1.45643 -0.206545 0
M  V30 1024 H 94.1213 -2.978 -2.92183 0
M  V30 1025 H 92.7513 -1.87537 -2.62735 0
M  V30 1026 H 91.8033 -3.66934 -1.00319 0
M  V30 1027 H 93.1153 -4.7489 -1.5258 0
M  V30 1028 H 92.2693 -4.66414 -3.87998 0
M  V30 1029 H 91.0083 -3.49147 -3.40511 0
M  V30 1030 H 90.0133 -5.18165 -1.83806 0
M  V30 1031 H 91.2383 -6.3749 -2.34059 0
M  V30 1032 H 89.1843 -5.06823 -4.16493 0
M  V30 1033 H 89.1013 -6.68151 -3.53708 0
M  V30 1034 H 90.3693 -6.25756 -4.64811 0
M  V30 1035 N 94.5984 0.214957 -1.56127 0
M  V30 1036 C 96.0094 0.781386 -1.69562 0
M  V30 1037 C 96.3604 1.84707 -0.66165 0
M  V30 1038 O 95.4854 2.156 0.185927 0
M  V30 1039 C 96.0804 1.42411 -3.07416 0
M  V30 1040 C 94.6394 1.93786 -3.22683 0
M  V30 1041 C 93.7864 0.800438 -2.65496 0
M  V30 1042 H 96.7374 -0.00980633 -1.58697 0
M  V30 1043 H 96.7584 2.29309 -3.0364 0
M  V30 1044 H 96.2704 0.64826 -3.82648 0
M  V30 1045 H 94.3714 2.74152 -2.52332 0
M  V30 1046 H 94.4844 2.1133 -4.29973 0
M  V30 1047 H 92.8484 1.2095 -2.2415 0
M  V30 1048 H 93.6314 0.0371471 -3.4328 0
M  V30 1049 N 96.0765 1.50051 0.48192 0
M  V30 1050 C 97.3235 1.60498 1.23477 0
M  V30 1051 C 97.6515 0.300331 1.92167 0
M  V30 1052 O 96.9065 -0.713094 1.82246 0
M  V30 1053 C 97.2055 2.72717 2.30998 0
M  V30 1054 C 96.8715 4.13572 1.79636 0
M  V30 1055 C 95.5335 4.519 1.65348 0
M  V30 1056 C 97.8855 5.01649 1.41412 0
M  V30 1057 C 95.2135 5.76057 1.11244 0
M  V30 1058 C 97.5655 6.26343 0.887538 0
M  V30 1059 C 96.2295 6.63483 0.731207 0
M  V30 1060 H 95.4995 0.587303 0.451836 0
M  V30 1061 H 98.1465 1.83948 0.532468 0
M  V30 1062 H 96.4515 2.43312 3.07094 0
M  V30 1063 H 98.1485 2.78006 2.88988 0
M  V30 1064 H 94.7385 3.83329 1.91721 0
M  V30 1065 H 98.9225 4.72679 1.51289 0
M  V30 1066 H 94.1785 6.03516 0.978686 0
M  V30 1067 H 98.3525 6.93958 0.582654 0
M  V30 1068 H 95.9795 7.59568 0.309806 0
M  V30 1069 N 97.5546 -0.734337 1.39446 0
M  V30 1070 C 98.4846 -1.86155 1.40955 0
M  V30 1071 C 99.4656 -1.67898 0.272827 0
M  V30 1072 O 100.651 -1.88207 0.478743 0
M  V30 1073 C 97.7806 -3.23912 1.25294 0
M  V30 1074 C 96.7346 -3.56808 2.36373 0
M  V30 1075 C 96.0606 -4.93508 2.058 0
M  V30 1076 C 97.3606 -3.59713 3.78687 0
M  V30 1077 H 99.0546 -1.8515 2.35287 0
M  V30 1078 H 96.6006 -0.889367 1.13253 0
M  V30 1079 H 98.5536 -4.02443 1.2497 0
M  V30 1080 H 97.2776 -3.25446 0.274308 0
M  V30 1081 H 95.9366 -2.80606 2.35914 0
M  V30 1082 H 95.5846 -4.91623 1.06374 0
M  V30 1083 H 95.2846 -5.16486 2.80208 0
M  V30 1084 H 96.8086 -5.74396 2.07128 0
M  V30 1085 H 98.2226 -4.2832 3.81071 0
M  V30 1086 H 96.6196 -3.94209 4.52459 0
M  V30 1087 H 97.6896 -2.59504 4.09617 0
M  V30 1088 N 99.0327 -1.24633 -0.964593 0
M  V30 1089 C 99.9647 -0.999302 -2.06268 0
M  V30 1090 C 100.978 0.0323226 -1.62768 0
M  V30 1091 O 102.167 -0.205079 -1.77318 0
M  V30 1092 C 99.2667 -0.486816 -3.35385 0
M  V30 1093 C 98.4397 -1.5823 -4.07777 0
M  V30 1094 C 97.4987 -1.07191 -5.15166 0
M  V30 1095 O 96.5247 -1.76426 -5.41168 0
M  V30 1096 N 97.7267 0.0920373 -5.80427 0
M  V30 1097 H 100.492 -1.94477 -2.28033 0
M  V30 1098 H 98.0527 -1.15704 -1.13244 0
M  V30 1099 H 100.045 -0.130066 -4.04491 0
M  V30 1100 H 98.6147 0.364459 -3.10468 0
M  V30 1101 H 97.8347 -2.11109 -3.32906 0
M  V30 1102 H 99.1227 -2.31854 -4.52903 0
M  V30 1103 H 98.5207 0.670784 -5.61709 0
M  V30 1104 H 97.0777 0.389905 -6.50633 0
M  V30 1105 N 100.511 1.16574 -1.06058 0
M  V30 1106 C 101.736 1.91493 -0.796562 0
M  V30 1107 C 102.161 1.76773 0.642868 0
M  V30 1108 O 101.519 1.09142 1.44768 0
M  V30 1109 C 101.567 3.40293 -1.19303 0
M  V30 1110 O 100.671 4.11074 -0.330394 0
M  V30 1111 H 100.012 0.596678 -0.291326 0
M  V30 1112 H 102.542 1.47708 -1.41575 0
M  V30 1113 H 102.552 3.91057 -1.16356 0
M  V30 1114 H 101.227 3.50326 -2.24153 0
M  V30 1115 H 99.8038 3.70513 -0.421225 0
M  V30 1116 N 101.989 0.842826 1.3317 0
M  V30 1117 C 103.229 0.446574 1.99462 0
M  V30 1118 C 103.593 -0.976818 1.65295 0
M  V30 1119 O 104.794 -1.477 2.24584 0
M  V30 1120 C 103.065 0.665353 3.51152 0
M  V30 1121 S 104.624 0.364911 4.3728 0
M  V30 1122 H 101.442 0.167803 0.690915 0
M  V30 1123 H 104.044 1.09297 1.62094 0
M  V30 1124 H 102.748 1.7006 3.73507 0
M  V30 1125 H 102.279 0.00494568 3.934 0
M  V30 1126 H 104.294 -0.813761 4.89482 0
M  V30 1127 N 103.467 -1.45747 0.599634 0
M  V30 1128 C 104.417 -2.27538 -0.145107 0
M  V30 1129 C 105.401 -1.3686 -0.846055 0
M  V30 1130 O 106.593 -1.6091 -0.737357 0
M  V30 1131 C 103.722 -3.23569 -1.14708 0
M  V30 1132 C 102.808 -4.21734 -0.447383 0
M  V30 1133 N 103.199 -5.03257 0.506535 0
M  V30 1134 C 101.497 -4.40536 -0.695966 0
M  V30 1135 C 102.198 -5.74426 0.917068 0
M  V30 1136 N 101.174 -5.42966 0.26253 0
M  V30 1137 H 104.976 -2.87965 0.587672 0
M  V30 1138 H 102.49 -1.56803 0.422697 0
M  V30 1139 H 104.487 -3.8089 -1.69495 0
M  V30 1140 H 103.147 -2.64702 -1.8805 0
M  V30 1141 H 104.158 -5.10319 0.882899 0
M  V30 1142 H 100.835 -3.92802 -1.41467 0
M  V30 1143 H 102.225 -6.4995 1.70338 0
M  V30 1144 N 104.945 -0.338344 -1.53925 0
M  V30 1145 C 105.875 0.51328 -2.27789 0
M  V30 1146 C 106.856 1.107 -1.29149 0
M  V30 1147 O 108.041 1.12937 -1.57984 0
M  V30 1148 C 105.171 1.66697 -3.04679 0
M  V30 1149 C 104.125 1.20183 -4.1078 0
M  V30 1150 C 103.451 2.44363 -4.75595 0
M  V30 1151 C 104.751 0.30605 -5.21403 0
M  V30 1152 H 106.445 -0.102883 -2.99223 0
M  V30 1153 H 103.991 -0.0509219 -1.4391 0
M  V30 1154 H 105.944 2.26915 -3.55088 0
M  V30 1155 H 104.668 2.30995 -2.30887 0
M  V30 1156 H 103.327 0.622499 -3.61276 0
M  V30 1157 H 102.975 3.07057 -3.98403 0
M  V30 1158 H 102.675 2.13925 -5.47275 0
M  V30 1159 H 104.199 3.05317 -5.28786 0
M  V30 1160 H 105.613 0.814929 -5.67478 0
M  V30 1161 H 104.01 0.0937929 -6.00027 0
M  V30 1162 H 105.08 -0.65921 -4.80398 0
M  V30 1163 N 106.423 1.57458 -0.0668435 0
M  V30 1164 C 107.839 1.56947 0.289772 0
M  V30 1165 C 108.039 1.07584 1.70376 0
M  V30 1166 O 107.095 0.739486 2.41429 0
M  V30 1167 C 108.408 3.0052 0.103943 0
M  V30 1168 C 109.956 3.12517 0.173857 0
M  V30 1169 C 110.431 4.57997 0.0163682 0
M  V30 1170 N 111.922 4.63144 0.0721352 0
M  V30 1171 C 112.657 5.73394 -0.0253794 0
M  V30 1172 N 112.153 6.92576 -0.176133 0
M  V30 1173 N 113.946 5.62091 0.0313305 0
M  V30 1174 H 106.097 1.87863 -0.991027 0
M  V30 1175 H 108.36 0.86583 -0.38606 0
M  V30 1176 H 108.066 3.40729 -0.871572 0
M  V30 1177 H 107.94 3.67304 0.858366 0
M  V30 1178 H 110.327 2.72197 1.13985 0
M  V30 1179 H 110.408 2.48381 -0.611586 0
M  V30 1180 H 110.052 4.99005 -0.946374 0
M  V30 1181 H 109.982 5.20158 0.821153 0
M  V30 1182 H 112.473 3.77436 0.187263 0
M  V30 1183 H 112.786 7.72418 -0.242821 0
M  V30 1184 H 111.131 6.94678 -0.211429 0
M  V30 1185 H 114.322 4.67867 0.147773 0
M  V30 1186 H 114.495 6.47982 -0.048121 0
M  V30 1187 N 107.901 -0.206675 1.56239 0
M  V30 1188 C 108.834 -1.28383 1.88661 0
M  V30 1189 C 109.812 -1.44504 0.745481 0
M  V30 1190 O 110.996 -1.60079 0.995336 0
M  V30 1191 C 108.123 -2.65211 2.10667 0
M  V30 1192 C 107.169 -2.66025 3.33366 0
M  V30 1193 S 108.002 -2.18609 4.88846 0
M  V30 1194 C 109.158 -3.57283 5.13906 0
M  V30 1195 H 109.391 -1.00691 2.7973 0
M  V30 1196 H 106.924 -0.409627 1.48867 0
M  V30 1197 H 108.882 -3.43979 2.24029 0
M  V30 1198 H 107.543 -2.90121 1.20369 0
M  V30 1199 H 106.736 -3.66607 3.45855 0
M  V30 1200 H 106.338 -1.95331 3.18938 0
M  V30 1201 H 108.63 -4.53074 5.03717 0
M  V30 1202 H 109.573 -3.49699 6.15724 0
M  V30 1203 H 109.981 -3.51659 4.41583 0
M  V30 1204 N 109.379 -1.50304 -0.473955 0
M  V30 1205 C 110.309 -1.71886 -1.58042 0
M  V30 1206 C 111.29 -0.567799 -1.60344 0
M  V30 1207 O 112.475 -0.806623 -1.76656 0
M  V30 1208 C 109.605 -1.81036 -2.96384 0
M  V30 1209 C 108.559 -2.962 -3.08949 0
M  V30 1210 C 107.885 -2.9049 -4.48909 0
M  V30 1211 C 109.185 -4.36752 -2.86434 0
M  V30 1212 H 110.879 -2.64527 -1.40234 0
M  V30 1213 H 108.425 -1.27295 -0.673201 0
M  V30 1214 H 110.378 -1.94719 -3.73714 0
M  V30 1215 H 109.102 -0.850147 -3.15341 0
M  V30 1216 H 107.761 -2.82164 -2.3405 0
M  V30 1217 H 107.409 -1.92321 -4.64781 0
M  V30 1218 H 107.109 -3.67802 -4.58253 0
M  V30 1219 H 108.633 -3.06218 -5.28264 0
M  V30 1220 H 110.047 -4.5133 -3.53517 0
M  V30 1221 H 108.444 -5.15493 -3.07225 0
M  V30 1222 H 109.514 -4.49321 -1.82316 0
M  V30 1223 N 110.857 0.726932 -1.39834 0
M  V30 1224 C 112.085 1.51613 -1.40787 0
M  V30 1225 C 112.5 1.88799 -0.00451505 0
M  V30 1226 O 111.857 1.54662 0.968809 0
M  V30 1227 C 111.908 2.79863 -2.28821 0
M  V30 1228 O 111.629 2.44253 -3.63692 0
M  V30 1229 C 113.13 3.73837 -2.38245 0
M  V30 1230 H 110.35 0.468264 -0.480593 0
M  V30 1231 H 112.894 0.897607 -1.83748 0
M  V30 1232 H 111.049 3.38027 -1.89252 0
M  V30 1233 H 111.463 3.26695 -4.1033 0
M  V30 1234 H 112.937 4.60699 -3.04073 0
M  V30 1235 H 113.414 4.16153 -1.40403 0
M  V30 1236 H 114.02 3.21589 -2.78317 0
M  V30 1237 N 112.336 1.25143 0.95797 0
M  V30 1238 C 113.613 1.00472 1.67823 0
M  V30 1239 C 113.993 -0.470056 2.058 0
M  V30 1240 O 113.341 -1.44663 1.76875 0
M  V30 1241 C 113.551 1.9372 2.90299 0
M  V30 1242 C 114.899 2.21371 3.62326 0
M  V30 1243 O 115.923 1.91451 3.00375 0
M  V30 1244 O 114.782 2.72231 4.7387 0
M  V30 1245 H 111.876 0.380752 0.734137 0
M  V30 1246 H 114.422 1.36283 1.01119 0
M  V30 1247 H 113.194 2.93316 2.59001 0
M  V30 1248 H 112.817 1.58286 3.64735 0
M  V30 1249 N 113.814 -1.1601 1.06675 0
M  V30 1250 C 115.225 -1.68235 0.809565 0
M  V30 1251 C 115.576 -1.8454 -0.666303 0
M  V30 1252 O 114.701 -1.54374 -1.5165 0
M  V30 1253 C 115.296 -3.05585 1.46299 0
M  V30 1254 C 113.855 -3.54915 1.25349 0
M  V30 1255 C 113.002 -2.30804 1.53703 0
M  V30 1256 H 115.953 -1.00318 1.22971 0
M  V30 1257 H 115.974 -3.70174 0.880431 0
M  V30 1258 H 115.486 -2.93686 2.53713 0
M  V30 1259 H 113.587 -3.72067 0.199261 0
M  V30 1260 H 113.7 -4.36774 1.9689 0
M  V30 1261 H 112.064 -2.36007 0.957739 0
M  V30 1262 H 112.847 -2.21499 2.62284 0
M  V30 1263 N 115.292 -0.849877 -1.32721 0
M  V30 1264 C 116.538 -0.451591 -1.97708 0
M  V30 1265 C 116.871 0.989175 -1.6712 0
M  V30 1266 O 116.146 1.69334 -0.956891 0
M  V30 1267 C 116.429 -0.685598 -3.53513 0
M  V30 1268 C 116.282 -2.17444 -3.93749 0
M  V30 1269 C 117.601 -0.138874 -4.39881 0
M  V30 1270 H 114.72 -0.16555 -0.718166 0
M  V30 1271 H 117.362 -1.06742 -1.57182 0
M  V30 1272 H 115.512 -0.161416 -3.88165 0
M  V30 1273 H 117.184 -2.76433 -3.693 0
M  V30 1274 H 115.427 -2.65476 -3.43081 0
M  V30 1275 H 116.098 -2.28888 -5.02309 0
M  V30 1276 H 118.574 -0.587068 -4.11938 0
M  V30 1277 H 117.45 -0.332213 -5.47894 0
M  V30 1278 H 117.711 0.95806 -4.31594 0
M  V30 1279 N 116.77 1.45427 -0.607355 0
M  V30 1280 C 118.047 1.9557 -0.0344566 0
M  V30 1281 C 118.427 1.54979 1.43334 0
M  V30 1282 O 117.775 0.812241 2.13576 0
M  V30 1283 C 117.985 3.48226 -0.232321 0
M  V30 1284 C 119.333 4.2445 -0.113001 0
M  V30 1285 O 120.357 3.55829 -0.162431 0
M  V30 1286 O 119.216 5.465 0.00209442 0
M  V30 1287 H 116.31 0.826222 0.0358667 0
M  V30 1288 H 118.856 1.55594 -0.6774 0
M  V30 1289 H 117.628 3.70739 -1.25174 0
M  V30 1290 H 117.251 3.95092 0.445896 0
M  V30 1291 N 118.248 0.346503 1.53744 0
M  V30 1292 C 119.18 -0.543316 2.22667 0
M  V30 1293 C 120.193 -1.06159 1.23427 0
M  V30 1294 O 121.382 -0.971235 1.49764 0
M  V30 1295 C 118.482 -1.76076 2.89569 0
M  V30 1296 C 117.655 -1.37727 4.15151 0
M  V30 1297 C 116.714 -2.45471 4.65436 0
M  V30 1298 O 115.74 -2.08655 5.29577 0
M  V30 1299 N 116.942 -3.7677 4.41616 0
M  V30 1300 H 119.707 0.0469703 2.99663 0
M  V30 1301 H 117.268 0.170766 1.60997 0
M  V30 1302 H 119.26 -2.47593 3.20125 0
M  V30 1303 H 117.83 -2.25835 2.16142 0
M  V30 1304 H 117.05 -0.492746 3.91108 0
M  V30 1305 H 118.338 -1.09708 4.96832 0
M  V30 1306 H 117.736 -4.09467 3.90325 0
M  V30 1307 H 116.293 -4.44448 4.7677 0
M  V30 1308 N 119.726 -1.57421 0.075193 0
M  V30 1309 C 120.966 -1.95495 -0.596757 0
M  V30 1310 C 121.33 -0.954886 -1.66571 0
M  V30 1311 O 122.531 -1.22341 -2.39345 0
M  V30 1312 C 120.802 -3.382 -1.15566 0
M  V30 1313 S 122.361 -3.98254 -1.84226 0
M  V30 1314 H 119.179 -0.683649 -0.195307 0
M  V30 1315 H 121.781 -1.94925 0.149859 0
M  V30 1316 H 120.485 -4.08766 -0.36588 0
M  V30 1317 H 120.016 -3.42321 -1.93856 0
M  V30 1318 H 122.031 -3.85435 -3.12497 0
M  V30 1319 N 121.204 0.198386 -1.56346 0
M  V30 1320 C 122.45 0.920648 -1.80698 0
M  V30 1321 C 122.783 1.83045 -0.648697 0
M  V30 1322 O 122.058 1.91308 0.350925 0
M  V30 1323 C 122.341 1.73971 -3.15287 0
M  V30 1324 C 122.194 0.85485 -4.41602 0
M  V30 1325 C 123.513 2.71296 -3.46535 0
M  V30 1326 H 120.632 0.333261 -0.657348 0
M  V30 1327 H 123.274 0.188198 -1.89066 0
M  V30 1328 H 121.424 2.36416 -3.08285 0
M  V30 1329 H 123.096 0.245362 -4.60647 0
M  V30 1330 H 121.339 0.161398 -4.335 0
M  V30 1331 H 122.01 1.46286 -5.32264 0
M  V30 1332 H 124.486 2.18983 -3.53816 0
M  V30 1333 H 123.362 3.2569 -4.41834 0
M  V30 1334 H 123.623 3.5018 -2.69864 0
M  V30 1335 N 122.682 1.50554 0.465978 0
M  V30 1336 C 123.645 1.69233 1.54574 0
M  V30 1337 C 124.645 0.562901 1.50626 0
M  V30 1338 O 125.835 0.830016 1.53155 0
M  V30 1339 C 122.967 1.7223 2.94193 0
M  V30 1340 H 124.16 2.65571 1.39327 0
M  V30 1341 H 121.713 1.40111 0.692711 0
M  V30 1342 H 122.448 0.77603 3.14878 0
M  V30 1343 H 122.233 2.54285 2.98466 0
M  V30 1344 H 123.723 1.88618 3.72576 0
M  V30 1345 N 124.16 -0.719506 1.40217 0
M  V30 1346 C 125.39 -1.50646 1.41384 0
M  V30 1347 C 125.798 -1.89197 0.0107743 0
M  V30 1348 O 125.141 -1.55709 -0.974708 0
M  V30 1349 C 125.203 -2.81405 2.23722 0
M  V30 1350 C 124.867 -2.65199 3.72181 0
M  V30 1351 C 125.864 -2.32717 4.64907 0
M  V30 1352 C 123.549 -2.81586 4.1595 0
M  V30 1353 C 125.543 -2.16827 5.99387 0
M  V30 1354 C 123.23 -2.65313 5.50502 0
M  V30 1355 C 124.228 -2.32981 6.42035 0
M  V30 1356 O 123.916 -2.16827 7.74107 0
M  V30 1357 H 123.648 -0.471606 0.484318 0
M  V30 1358 H 126.202 -0.895456 1.84853 0
M  V30 1359 H 124.432 -3.44823 1.75026 0
M  V30 1360 H 126.121 -3.43102 2.16878 0
M  V30 1361 H 126.887 -2.19694 4.32388 0
M  V30 1362 H 122.766 -3.0574 3.45027 0
M  V30 1363 H 126.31 -1.91513 6.70797 0
M  V30 1364 H 122.207 -2.7792 5.82607 0
M  V30 1365 H 122.975 -2.31778 7.84998 0
M  V30 1366 N 125.638 -1.25649 -0.95132 0
M  V30 1367 C 126.588 -1.03004 -2.03406 0
M  V30 1368 C 127.572 0.034187 -1.60864 0
M  V30 1369 O 128.764 -0.181549 -1.76066 0
M  V30 1370 C 125.893 -0.654255 -3.37008 0
M  V30 1371 C 124.979 -1.75542 -3.86065 0
M  V30 1372 N 125.37 -2.99113 -4.07879 0
M  V30 1373 C 123.668 -1.63669 -4.14884 0
M  V30 1374 C 124.369 -3.70611 -4.48356 0
M  V30 1375 N 123.345 -2.98247 -4.54477 0
M  V30 1376 H 127.147 -1.96813 -2.1827 0
M  V30 1377 H 124.661 -1.16017 -1.13639 0
M  V30 1378 H 126.658 -0.473206 -4.14206 0
M  V30 1379 H 125.318 0.276468 -3.23521 0
M  V30 1380 H 126.329 -3.35124 -3.94857 0
M  V30 1381 H 123.006 -0.775161 -4.10241 0
M  V30 1382 H 124.396 -4.76695 -4.73509 0
M  V30 1383 N 127.117 1.15442 -1.07289 0
M  V30 1384 C 128.047 2.22312 -0.714107 0
M  V30 1385 C 129.028 1.67467 0.298155 0
M  V30 1386 O 130.213 1.93445 0.171048 0
M  V30 1387 C 127.343 3.47124 -0.110448 0
M  V30 1388 C 126.297 4.14926 -1.04979 0
M  V30 1389 C 125.623 5.33807 -0.308924 0
M  V30 1390 C 126.923 4.64762 -2.38314 0
M  V30 1391 H 128.617 2.5258 -1.6076 0
M  V30 1392 H 126.163 1.21404 -0.77441 0
M  V30 1393 H 128.116 4.21124 0.152482 0
M  V30 1394 H 126.84 3.16187 0.81812 0
M  V30 1395 H 125.499 3.42866 -1.29764 0
M  V30 1396 H 125.147 4.99126 0.623084 0
M  V30 1397 H 124.847 5.80113 -0.935036 0
M  V30 1398 H 126.371 6.10576 -0.0537771 0
M  V30 1399 H 127.785 5.30292 -2.1786 0
M  V30 1400 H 126.182 5.21728 -2.96514 0
M  V30 1401 H 127.252 3.80434 -3.00663 0
M  V30 1402 N 128.595 0.856903 1.32268 0
M  V30 1403 C 129.843 0.460474 1.96784 0
M  V30 1404 C 130.164 -0.987701 1.68135 0
M  V30 1405 O 129.434 -1.69058 0.989765 0
M  V30 1406 H 128.014 0.167289 0.728027 0
M  V30 1407 H 130.676 1.09383 1.61312 0
M  V30 1408 H 129.772 0.60739 3.06133 0
M  V30 1409 N 130.073 -1.45103 0.615059 0
M  V30 1410 C 131.489 -1.57137 0.279322 0
M  V30 1411 C 131.689 -1.60523 -1.21797 0
M  V30 1412 O 130.745 -1.53956 -2.00134 0
M  V30 1413 C 132.058 -2.85062 0.957083 0
M  V30 1414 C 133.606 -2.98749 0.933706 0
M  V30 1415 C 134.081 -4.29455 1.59162 0
M  V30 1416 N 135.572 -4.36231 1.55746 0
M  V30 1417 C 136.307 -5.36051 2.0356 0
M  V30 1418 N 135.803 -6.42367 2.59494 0
M  V30 1419 N 137.596 -5.27456 1.94284 0
M  V30 1420 H 129.747 -1.41148 1.58717 0
M  V30 1421 H 132.01 -0.675331 0.665306 0
M  V30 1422 H 131.716 -2.88488 2.01166 0
M  V30 1423 H 131.59 -3.7407 0.48494 0
M  V30 1424 H 133.977 -2.94886 -0.112347 0
M  V30 1425 H 134.058 -2.11132 1.44419 0
M  V30 1426 H 133.702 -4.34077 2.63704 0
M  V30 1427 H 133.632 -5.15901 1.0561 0
M  V30 1428 H 136.123 -3.60011 1.14893 0
M  V30 1429 H 136.436 -7.14793 2.93752 0
M  V30 1430 H 134.781 -6.43097 2.63537 0
M  V30 1431 H 137.972 -4.43308 1.5032 0
M  V30 1432 H 138.145 -6.05099 2.3186 0
M  V30 1433 N 131.551 -0.354651 -1.53558 0
M  V30 1434 C 132.797 0.238797 -2.01389 0
M  V30 1435 C 133.13 1.49309 -1.2418 0
M  V30 1436 O 132.405 1.91638 -0.332457 0
M  V30 1437 C 132.688 0.541771 -3.56001 0
M  V30 1438 C 132.541 -0.725388 -4.43912 0
M  V30 1439 C 133.86 1.34685 -4.18984 0
M  V30 1440 H 130.979 0.0853177 -0.732045 0
M  V30 1441 H 133.621 -0.477384 -1.83905 0
M  V30 1442 H 131.771 1.15189 -3.71031 0
M  V30 1443 H 133.443 -1.36313 -4.407 0
M  V30 1444 H 131.686 -1.34801 -4.12324 0
M  V30 1445 H 132.357 -0.468505 -5.50008 0
M  V30 1446 H 134.833 0.830837 -4.07721 0
M  V30 1447 H 133.709 1.52759 -5.27215 0
M  V30 1448 H 133.97 2.35221 -3.74331 0
M  V30 1449 N 133.029 1.57378 -0.0835403 0
M  V30 1450 C 134.445 1.57246 0.273109 0
M  V30 1451 C 134.645 1.09385 1.69225 0
M  V30 1452 O 133.701 0.765051 2.40631 0
M  V30 1453 C 135.014 3.00614 0.0720628 0
M  V30 1454 C 136.562 3.12684 0.1407 0
M  V30 1455 C 137.037 4.57989 -0.0322094 0
M  V30 1456 N 138.528 4.63194 0.0230085 0
M  V30 1457 C 139.263 5.73335 -0.0861941 0
M  V30 1458 N 138.759 6.9235 -0.24958 0
M  V30 1459 N 140.552 5.62093 -0.0282886 0
M  V30 1460 H 132.703 1.86801 -1.0109 0
M  V30 1461 H 134.966 0.861687 -0.395222 0
M  V30 1462 H 134.672 3.39786 -0.907662 0
M  V30 1463 H 134.546 3.68193 0.81936 0
M  V30 1464 H 136.933 2.73391 1.11092 0
M  V30 1465 H 137.014 2.47719 -0.637896 0
M  V30 1466 H 136.658 4.97973 -0.999247 0
M  V30 1467 H 136.588 5.21 0.765937 0
M  V30 1468 H 139.079 3.77613 0.14722 0
M  V30 1469 H 139.392 7.72117 -0.324733 0
M  V30 1470 H 137.737 6.94415 -0.285097 0
M  V30 1471 H 140.928 4.67997 0.0981408 0
M  V30 1472 H 141.101 6.47895 -0.116845 0
M  V30 1473 N 134.507 -0.190092 1.56449 0
M  V30 1474 C 135.417 -1.25591 1.98152 0
M  V30 1475 C 136.433 -1.49519 0.889944 0
M  V30 1476 O 137.609 -1.62036 1.19609 0
M  V30 1477 C 134.674 -2.57916 2.3169 0
M  V30 1478 C 133.735 -2.42015 3.5458 0
M  V30 1479 C 132.968 -3.6803 3.8651 0
M  V30 1480 O 133.191 -4.72413 3.1966 0
M  V30 1481 O 132.125 -3.6326 4.79923 0
M  V30 1482 H 135.951 -0.931988 2.89046 0
M  V30 1483 H 133.536 -0.395488 1.4407 0
M  V30 1484 H 135.418 -3.36008 2.54316 0
M  V30 1485 H 134.093 -2.89925 1.43963 0
M  V30 1486 H 133 -1.62017 3.37196 0
M  V30 1487 H 134.333 -2.14937 4.4279 0
M  V30 1488 N 135.985 -1.50799 -0.457987 0
M  V30 1489 C 137.21 -1.66496 -1.23668 0
M  V30 1490 C 137.635 -0.353288 -1.84752 0
M  V30 1491 O 136.993 0.684346 -1.67888 0
M  V30 1492 C 137.041 -2.76763 -2.3116 0
M  V30 1493 O 136.145 -2.38928 -3.36136 0
M  V30 1494 H 135.486 -0.555828 -0.363252 0
M  V30 1495 H 138.016 -1.9725 -0.543474 0
M  V30 1496 H 138.026 -3.00232 -2.76269 0
M  V30 1497 H 136.701 -3.71954 -1.86073 0
M  V30 1498 H 135.278 -2.25953 -2.96647 0
M  V30 1499 N 137.463 0.71206 -1.40597 0
M  V30 1500 C 138.393 1.83889 -1.43899 0
M  V30 1501 C 139.374 1.67442 -0.299504 0
M  V30 1502 O 140.559 1.87421 -0.508624 0
M  V30 1503 C 137.689 3.21877 -1.30431 0
M  V30 1504 C 136.643 3.53002 -2.42019 0
M  V30 1505 C 135.969 4.90172 -2.13626 0
M  V30 1506 C 137.269 3.53643 -3.84362 0
M  V30 1507 H 138.963 1.81383 -2.38203 0
M  V30 1508 H 136.509 0.871237 -1.14654 0
M  V30 1509 H 138.462 4.00404 -1.31357 0
M  V30 1510 H 137.186 3.24968 -0.326049 0
M  V30 1511 H 135.845 2.76818 -2.40349 0
M  V30 1512 H 135.493 4.89869 -1.14182 0
M  V30 1513 H 135.193 5.11962 -2.88389 0
M  V30 1514 H 136.717 5.71028 -2.1624 0
M  V30 1515 H 138.131 4.22203 -3.87837 0
M  V30 1516 H 136.528 3.86961 -4.58673 0
M  V30 1517 H 137.598 2.52954 -4.13693 0
M  V30 1518 N 138.941 1.26152 0.944643 0
M  V30 1519 C 140.352 1.10454 1.50522 0
M  V30 1520 C 140.703 -0.31635 1.93633 0
M  V30 1521 O 139.828 -1.20746 1.79581 0
M  V30 1522 C 140.423 1.99891 2.73549 0
M  V30 1523 C 138.982 1.88348 3.25886 0
M  V30 1524 C 138.129 1.93447 1.9868 0
M  V30 1525 H 141.08 1.39292 0.760489 0
M  V30 1526 H 141.101 1.54477 3.47732 0
M  V30 1527 H 140.613 3.03297 2.42141 0
M  V30 1528 H 138.714 0.878636 3.62092 0
M  V30 1529 H 138.827 2.73696 3.93227 0
M  V30 1530 H 137.191 1.37456 2.14425 0
M  V30 1531 H 137.974 2.98476 1.69607 0
M  V30 1532 N 140.419 -1.14872 1.07899 0
M  V30 1533 C 141.329 -2.2341 0.715915 0
M  V30 1534 C 142.345 -1.71808 -0.275306 0
M  V30 1535 O 143.521 -2.01039 -0.120545 0
M  V30 1536 C 140.586 -3.46474 0.125168 0
M  V30 1537 C 139.647 -4.13039 1.17034 0
M  V30 1538 C 138.88 -5.30229 0.607688 0
M  V30 1539 O 139.103 -5.675 -0.574497 0
M  V30 1540 O 138.037 -5.86444 1.35526 0
M  V30 1541 H 141.863 -2.56808 1.62121 0
M  V30 1542 H 139.448 -1.22702 0.852322 0
M  V30 1543 H 141.33 -4.20917 -0.201729 0
M  V30 1544 H 140.005 -3.14811 -0.753364 0
M  V30 1545 H 138.912 -3.40493 1.54968 0
M  V30 1546 H 140.245 -4.48796 2.02097 0
M  V30 1547 N 141.898 -0.863906 -1.31812 0
M  V30 1548 C 142.828 -0.330843 -2.31144 0
M  V30 1549 C 143.809 0.575005 -1.60087 0
M  V30 1550 O 144.994 0.493304 -1.8783 0
M  V30 1551 C 142.124 0.47374 -3.44054 0
M  V30 1552 C 141.078 -0.338481 -4.26659 0
M  V30 1553 C 140.404 0.591412 -5.31419 0
M  V30 1554 C 141.704 -1.56926 -4.98168 0
M  V30 1555 H 143.398 -1.16086 -2.75979 0
M  V30 1556 H 140.944 -0.559657 -1.32679 0
M  V30 1557 H 142.897 0.857143 -4.12591 0
M  V30 1558 H 141.621 1.33721 -2.9797 0
M  V30 1559 H 140.28 -0.703754 -3.59782 0
M  V30 1560 H 139.928 1.45199 -4.81587 0
M  V30 1561 H 139.628 0.0519022 -5.87577 0
M  V30 1562 H 141.152 0.97179 -6.02817 0
M  V30 1563 H 142.566 -1.25764 -5.59336 0
M  V30 1564 H 140.963 -2.04739 -5.64094 0
M  V30 1565 H 142.033 -2.32544 -4.25501 0
M  V30 1566 N 143.376 1.44774 -0.622745 0
M  V30 1567 C 144.308 2.28856 0.125485 0
M  V30 1568 C 145.321 1.40811 0.817069 0
M  V30 1569 O 146.51 1.65044 0.679918 0
M  V30 1570 C 143.61 3.16963 1.19949 0
M  V30 1571 C 142.783 4.33374 0.592064 0
M  V30 1572 C 141.842 5.02577 1.55893 0
M  V30 1573 O 140.868 5.58873 1.07933 0
M  V30 1574 N 142.07 5.03256 2.89334 0
M  V30 1575 H 144.835 2.93713 -0.596068 0
M  V30 1576 H 142.396 1.55129 -0.463303 0
M  V30 1577 H 144.388 3.60123 1.84644 0
M  V30 1578 H 142.958 2.53913 1.82337 0
M  V30 1579 H 142.178 3.93509 -0.233322 0
M  V30 1580 H 143.466 5.08527 0.166738 0
M  V30 1581 H 142.864 4.58836 3.30887 0
M  V30 1582 H 141.421 5.50232 3.49412 0
M  V30 1583 N 144.854 0.36279 1.53368 0
M  V30 1584 C 146.103 -0.22888 2.00397 0
M  V30 1585 C 146.416 -1.50096 1.25421 0
M  V30 1586 O 147.622 -2.17106 1.63025 0
M  V30 1587 C 146.078 -0.458417 3.56969 0
M  V30 1588 C 145.686 0.798877 4.4082 0
M  V30 1589 C 147.43 -1.00789 4.12361 0
M  V30 1590 C 145.337 0.539078 5.88938 0
M  V30 1591 H 144.267 -0.089305 0.748693 0
M  V30 1592 H 146.918 0.481099 1.77081 0
M  V30 1593 H 145.3 -1.22959 3.76427 0
M  V30 1594 H 146.474 1.57262 4.33134 0
M  V30 1595 H 144.789 1.27137 3.96516 0
M  V30 1596 H 147.386 -1.21754 5.20653 0
M  V30 1597 H 147.729 -1.9692 3.66781 0
M  V30 1598 H 148.262 -0.296961 3.9669 0
M  V30 1599 H 145.001 1.47064 6.3879 0
M  V30 1600 H 144.521 -0.196222 5.99479 0
M  V30 1601 H 146.2 0.163542 6.46793 0
M  V30 1602 N 146.332 -1.57332 0.0918853 0
M  V30 1603 C 147.242 -2.17368 -0.882505 0
M  V30 1604 C 148.258 -1.14226 -1.31257 0
M  V30 1605 O 149.434 -1.46582 -1.38115 0
M  V30 1606 C 146.499 -2.73962 -2.12476 0
M  V30 1607 C 145.56 -3.92048 -1.7492 0
M  V30 1608 C 144.793 -4.45933 -2.93223 0
M  V30 1609 O 145.016 -3.98764 -4.07852 0
M  V30 1610 O 143.95 -5.36999 -2.71875 0
M  V30 1611 H 147.776 -3.01031 -0.40172 0
M  V30 1612 H 145.361 -1.48813 -0.132291 0
M  V30 1613 H 147.243 -3.10147 -2.85283 0
M  V30 1614 H 145.918 -1.93347 -2.59613 0
M  V30 1615 H 144.825 -3.6068 -0.993025 0
M  V30 1616 H 146.158 -4.74017 -1.32548 0
M  V30 1617 N 147.81 0.181792 -1.56548 0
M  V30 1618 C 149.059 0.898348 -1.8059 0
M  V30 1619 C 149.372 1.83862 -0.667379 0
M  V30 1620 O 150.578 2.59678 -0.792446 0
M  V30 1621 C 149.034 1.64791 -3.19956 0
M  V30 1622 C 148.642 0.751789 -4.41647 0
M  V30 1623 C 150.386 2.35331 -3.53298 0
M  V30 1624 C 148.293 1.50098 -5.72035 0
M  V30 1625 H 147.223 0.339194 -0.673397 0
M  V30 1626 H 149.874 0.151413 -1.82874 0
M  V30 1627 H 148.256 2.43921 -3.11959 0
M  V30 1628 H 149.43 -0.0018076 -4.608 0
M  V30 1629 H 147.745 0.156562 -4.16106 0
M  V30 1630 H 150.342 2.91958 -4.47956 0
M  V30 1631 H 150.685 3.10164 -2.77676 0
M  V30 1632 H 151.218 1.63154 -3.62803 0
M  V30 1633 H 147.957 0.795175 -6.50659 0
M  V30 1634 H 147.477 2.22817 -5.56878 0
M  V30 1635 H 149.156 2.05125 -6.13622 0
M  V30 1636 N 149.288 1.51039 0.449983 0
M  V30 1637 C 150.537 1.62317 1.19733 0
M  V30 1638 C 150.85 0.339101 1.92638 0
M  V30 1639 O 152.056 0.331069 2.69474 0
M  V30 1640 C 150.512 2.86608 2.17678 0
M  V30 1641 C 150.12 4.21972 1.50479 0
M  V30 1642 C 151.864 3.07239 2.92924 0
M  V30 1643 C 149.771 5.37426 2.46834 0
M  V30 1644 H 148.701 0.604532 0.450619 0
M  V30 1645 H 151.352 1.77494 0.465625 0
M  V30 1646 H 149.734 2.65037 2.94231 0
M  V30 1647 H 150.908 4.53878 0.795716 0
M  V30 1648 H 149.223 4.07117 0.874344 0
M  V30 1649 H 151.82 3.90668 3.65079 0
M  V30 1650 H 152.163 2.19807 3.5354 0
M  V30 1651 H 152.696 3.29091 2.23481 0
M  V30 1652 H 149.435 6.27079 1.90926 0
M  V30 1653 H 148.955 5.09912 3.15832 0
M  V30 1654 H 150.634 5.68862 3.08228 0
M  V30 1655 N 150.766 -0.704594 1.40972 0
M  V30 1656 C 151.729 -1.80035 1.41845 0
M  V30 1657 C 152.729 -1.57774 0.310474 0
M  V30 1658 O 153.919 -1.64613 0.56992 0
M  V30 1659 C 151.051 -3.18284 1.22098 0
M  V30 1660 H 152.244 -1.80658 2.3938 0
M  V30 1661 H 149.797 -0.911329 1.26982 0
M  V30 1662 H 150.532 -3.23306 0.253672 0
M  V30 1663 H 150.317 -3.35843 2.02366 0
M  V30 1664 H 151.807 -3.98289 1.25522 0
M  V30 1665 N 152.244 -1.26651 -0.937939 0
M  V30 1666 C 153.521 -1.0313 -1.66204 0
M  V30 1667 C 153.901 0.437256 -2.06522 0
M  V30 1668 O 153.249 1.41831 -1.79154 0
M  V30 1669 C 153.459 -1.98314 -2.87181 0
M  V30 1670 C 154.807 -2.27107 -3.58758 0
M  V30 1671 O 155.831 -1.96205 -2.97291 0
M  V30 1672 O 154.69 -2.79736 -4.69479 0
M  V30 1673 H 151.784 -0.392384 -0.727986 0
M  V30 1674 H 154.33 -1.37874 -0.989382 0
M  V30 1675 H 153.102 -2.97399 -2.54302 0
M  V30 1676 H 152.725 -1.64068 -3.6217 0
M  V30 1677 N 153.722 1.14298 -1.08507 0
M  V30 1678 C 154.952 1.88945 -0.835663 0
M  V30 1679 C 155.36 1.78894 0.615928 0
M  V30 1680 O 154.703 1.1468 1.43506 0
M  V30 1681 C 154.765 3.39585 -1.17994 0
M  V30 1682 C 154.429 3.7342 -2.63451 0
M  V30 1683 C 155.426 3.73454 -3.61702 0
M  V30 1684 C 153.111 4.03368 -2.99332 0
M  V30 1685 C 155.105 4.02961 -4.93864 0
M  V30 1686 C 152.792 4.32538 -4.31687 0
M  V30 1687 C 153.79 4.32318 -5.28763 0
M  V30 1688 O 153.478 4.6078 -6.58739 0
M  V30 1689 H 153.21 0.605307 -0.300965 0
M  V30 1690 H 155.764 1.45673 -1.44806 0
M  V30 1691 H 153.994 3.83315 -0.51055 0
M  V30 1692 H 155.683 3.9554 -0.911182 0
M  V30 1693 H 156.449 3.50403 -3.35325 0
M  V30 1694 H 152.328 4.02692 -2.24411 0
M  V30 1695 H 155.872 4.02704 -5.69627 0
M  V30 1696 H 151.769 4.55059 -4.57812 0
M  V30 1697 H 152.537 4.78492 -6.64069 0
M  V30 1698 N 155.201 0.870884 1.31352 0
M  V30 1699 C 156.111 0.330783 2.32256 0
M  V30 1700 C 157.127 -0.559767 1.6475 0
M  V30 1701 O 158.303 -0.456263 1.96164 0
M  V30 1702 C 155.368 -0.458137 3.4366 0
M  V30 1703 C 154.429 0.460482 4.26823 0
M  V30 1704 C 153.662 -0.290881 5.32907 0
M  V30 1705 O 153.885 -1.51885 5.49806 0
M  V30 1706 O 152.819 0.351732 6.00871 0
M  V30 1707 H 156.645 1.16718 2.80376 0
M  V30 1708 H 154.23 0.634285 1.35267 0
M  V30 1709 H 156.112 -0.905343 4.1156 0
M  V30 1710 H 154.787 -1.27106 2.97701 0
M  V30 1711 H 153.694 0.956207 3.61673 0
M  V30 1712 H 155.027 1.23903 4.7635 0
M  V30 1713 N 156.679 -1.44442 0.630414 0
M  V30 1714 C 157.925 -2.02351 0.134816 0
M  V30 1715 C 158.258 -1.4947 -1.23986 0
M  V30 1716 O 157.533 -0.678475 -1.82283 0
M  V30 1717 C 157.816 -3.59898 0.120707 0
M  V30 1718 C 157.669 -4.23063 1.52767 0
M  V30 1719 C 158.988 -4.36585 -0.555127 0
M  V30 1720 H 156.107 -0.73527 0.0504646 0
M  V30 1721 H 158.749 -1.72022 0.806751 0
M  V30 1722 H 156.899 -3.85868 -0.451477 0
M  V30 1723 H 158.571 -4.08202 2.14869 0
M  V30 1724 H 156.814 -3.80586 2.08175 0
M  V30 1725 H 157.485 -5.32071 1.46984 0
M  V30 1726 H 159.961 -4.16044 -0.0685429 0
M  V30 1727 H 158.837 -5.46294 -0.534185 0
M  V30 1728 H 159.098 -4.11138 -1.62535 0
M  V30 1729 N 158.157 -0.370918 -1.53173 0
M  V30 1730 C 159.107 0.489588 -2.22681 0
M  V30 1731 C 160.091 1.04442 -1.22395 0
M  V30 1732 O 161.283 0.973578 -1.47819 0
M  V30 1733 C 158.412 1.626 -3.02351 0
M  V30 1734 C 157.498 1.08379 -4.10018 0
M  V30 1735 N 157.889 0.265004 -5.05105 0
M  V30 1736 C 156.187 1.35809 -4.2482 0
M  V30 1737 C 156.888 -0.0324755 -5.81691 0
M  V30 1738 N 155.864 0.566581 -5.40639 0
M  V30 1739 H 159.666 -0.142729 -2.93553 0
M  V30 1740 H 157.18 -0.179221 -1.61408 0
M  V30 1741 H 159.177 2.2547 -3.50669 0
M  V30 1742 H 157.837 2.26132 -2.33011 0
M  V30 1743 H 158.848 -0.0962352 -5.17811 0
M  V30 1744 H 155.525 1.9958 -3.66707 0
M  V30 1745 H 156.915 -0.69473 -6.68299 0
M  V30 1746 N 159.635 1.57281 -0.100228 0
M  V30 1747 C 161.046 1.81725 0.428107 0
M  V30 1748 C 161.397 1.01619 1.67833 0
M  V30 1749 O 160.522 0.247098 2.14985 0
M  V30 1750 C 161.117 3.29617 0.78347 0
M  V30 1751 C 159.676 3.54808 1.25653 0
M  V30 1752 C 158.823 2.76118 0.255752 0
M  V30 1753 H 161.774 1.55324 -0.325608 0
M  V30 1754 H 161.795 3.4322 1.64256 0
M  V30 1755 H 161.307 3.87893 -0.12665 0
M  V30 1756 H 159.408 3.01868 2.18418 0
M  V30 1757 H 159.521 4.63443 1.21482 0
M  V30 1758 H 157.885 2.43745 0.738956 0
M  V30 1759 H 158.668 3.37145 -0.647136 0
M  V30 1760 N 161.113 -0.173488 1.56642 0
M  V30 1761 C 162.061 -1.23417 1.97157 0
M  V30 1762 C 163.055 -1.45946 0.860013 0
M  V30 1763 O 164.261 -1.46551 1.04512 0
M  V30 1764 H 160.636 -0.414818 0.62724 0
M  V30 1765 H 162.607 -0.865582 2.8557 0
M  V30 1766 C 161.356 -2.5665 2.34576 0
M  V30 1767 H 160.679 -2.40137 3.19647 0
M  V30 1768 H 162.119 -3.2956 2.6677 0
M  V30 1769 C 160.578 -3.15245 1.18836 0
M  V30 1770 O 161.108 -3.98883 0.474869 0
M  V30 1771 N 159.314 -2.74303 0.959497 0
M  V30 1772 H 158.861 -2.0639 1.54146 0
M  V30 1773 H 158.819 -3.13844 0.186932 0
M  V30 1774 N 162.591 -1.51276 -0.441967 0
M  V30 1775 C 164.007 -1.39349 -0.778083 0
M  V30 1776 C 164.207 -0.472212 -1.95889 0
M  V30 1777 O 163.263 0.0743551 -2.5239 0
M  V30 1778 C 164.576 -2.81292 -1.0628 0
M  V30 1779 C 166.124 -2.9041 -1.16751 0
M  V30 1780 C 166.599 -4.33251 -1.48519 0
M  V30 1781 N 168.09 -4.36336 -1.55453 0
M  V30 1782 C 168.825 -5.43885 -1.81596 0
M  V30 1783 N 168.321 -6.61601 -2.05562 0
M  V30 1784 N 170.114 -5.3136 -1.8334 0
M  V30 1785 H 162.265 -2.09729 0.335774 0
M  V30 1786 H 164.528 -0.943925 0.0878028 0
M  V30 1787 H 164.234 -3.50678 -0.267905 0
M  V30 1788 H 164.108 -3.20334 -1.99163 0
M  V30 1789 H 166.495 -2.21225 -1.95304 0
M  V30 1790 H 166.576 -2.54871 -0.217801 0
M  V30 1791 H 166.22 -5.02984 -0.704958 0
M  V30 1792 H 166.15 -4.66299 -2.44689 0
M  V30 1793 H 168.641 -3.51466 -1.38853 0
M  V30 1794 H 168.954 -7.39361 -2.24867 0
M  V30 1795 H 167.299 -6.64725 -2.02894 0
M  V30 1796 H 170.49 -4.38382 -1.64132 0
M  V30 1797 H 170.663 -6.15258 -2.03377 0
M  V30 1798 N 164.069 0.697108 -1.41344 0
M  V30 1799 C 165.485 1.00751 -1.2378 0
M  V30 1800 C 165.685 2.01105 -0.126066 0
M  V30 1801 O 164.741 2.47295 0.51004 0
M  V30 1802 C 166.054 1.53359 -2.58653 0
M  V30 1803 C 167.602 1.6525 -2.65822 0
M  V30 1804 C 168.077 2.2126 -4.01009 0
M  V30 1805 N 169.568 2.28622 -4.02847 0
M  V30 1806 C 170.303 2.72984 -5.04249 0
M  V30 1807 N 169.799 3.16962 -6.16041 0
M  V30 1808 N 171.592 2.72534 -4.91611 0
M  V30 1809 H 163.743 0.0322662 -2.12375 0
M  V30 1810 H 166.006 0.0768853 -0.944877 0
M  V30 1811 H 165.712 0.870773 -3.4075 0
M  V30 1812 H 165.586 2.51597 -2.81032 0
M  V30 1813 H 167.973 2.30644 -1.84086 0
M  V30 1814 H 168.054 0.655614 -2.47256 0
M  V30 1815 H 167.698 1.56482 -4.83193 0
M  V30 1816 H 167.628 3.21698 -4.16915 0
M  V30 1817 H 170.119 1.97585 -3.22131 0
M  V30 1818 H 170.432 3.49434 -6.89287 0
M  V30 1819 H 168.777 3.14875 -6.1958 0
M  V30 1820 H 171.968 2.37525 -4.0336 0
M  V30 1821 H 172.141 3.06789 -5.70775 0
M  V30 1822 N 165.547 1.27147 0.931209 0
M  V30 1823 C 166.958 1.12044 1.49342 0
M  V30 1824 C 167.309 -0.295795 1.93957 0
M  V30 1825 O 166.434 -1.18835 1.80852 0
M  V30 1826 C 167.029 2.02781 2.71414 0
M  V30 1827 C 165.588 1.91794 3.2387 0
M  V30 1828 C 164.735 1.95543 1.96617 0
M  V30 1829 H 167.686 1.40091 0.745672 0
M  V30 1830 H 167.707 1.58156 3.46074 0
M  V30 1831 H 167.219 3.05848 2.38911 0
M  V30 1832 H 165.32 0.916992 3.6114 0
M  V30 1833 H 165.433 2.77852 3.90302 0
M  V30 1834 H 163.797 1.39722 2.12955 0
M  V30 1835 H 164.58 3.00259 1.66432 0
M  V30 1836 N 167.025 -1.13721 1.09112 0
M  V30 1837 C 167.972 -2.19031 0.727591 0
M  V30 1838 C 168.942 -1.63555 -0.289656 0
M  V30 1839 O 170.127 -1.90023 -0.172026 0
M  V30 1840 C 167.267 -3.4477 0.15082 0
M  V30 1841 C 166.38 -4.14365 1.22172 0
M  V30 1842 C 165.515 -5.27709 0.608042 0
M  V30 1843 C 164.554 -5.89147 1.66047 0
M  V30 1844 N 163.691 -6.93929 1.06806 0
M  V30 1845 H 168.531 -2.49475 1.62991 0
M  V30 1846 H 166.068 -1.22499 0.81439 0
M  V30 1847 H 168.026 -4.16714 -0.201358 0
M  V30 1848 H 166.656 -3.14787 -0.714783 0
M  V30 1849 H 165.708 -3.40737 1.69122 0
M  V30 1850 H 167.02 -4.56114 2.01895 0
M  V30 1851 H 166.174 -6.06355 0.204523 0
M  V30 1852 H 164.913 -4.872 -0.220769 0
M  V30 1853 H 163.918 -5.09198 2.07357 0
M  V30 1854 H 165.143 -6.31729 2.49189 0
M  V30 1855 H 163.089 -6.55483 0.260476 0
M  V30 1856 H 163.006 -7.34202 1.8023 0
M  V30 1857 H 164.274 -7.76434 0.690644 0
M  V30 1858 N 168.503 -0.877838 -1.30888 0
M  V30 1859 C 169.752 -0.488793 -1.95688 0
M  V30 1860 C 170.065 0.965485 -1.70111 0
M  V30 1861 O 171.271 1.46104 -2.28836 0
M  V30 1862 C 169.727 -0.823201 -3.50359 0
M  V30 1863 C 169.335 -2.29477 -3.84765 0
M  V30 1864 C 171.079 -0.503009 -4.21509 0
M  V30 1865 C 168.986 -2.57118 -5.32583 0
M  V30 1866 H 167.916 -0.179062 -0.732429 0
M  V30 1867 H 170.567 -1.07183 -1.48943 0
M  V30 1868 H 168.949 -0.169331 -3.95638 0
M  V30 1869 H 170.123 -2.99236 -3.5042 0
M  V30 1870 H 168.438 -2.58178 -3.267 0
M  V30 1871 H 171.035 -0.68665 -5.30273 0
M  V30 1872 H 171.378 0.557109 -4.12555 0
M  V30 1873 H 171.911 -1.11376 -3.8189 0
M  V30 1874 H 168.65 -3.61843 -5.4658 0
M  V30 1875 H 168.17 -1.91961 -5.68253 0
M  V30 1876 H 169.849 -2.42251 -5.99936 0
M  V30 1877 N 169.982 1.44106 -0.638065 0
M  V30 1878 C 170.912 2.33448 0.0494287 0
M  V30 1879 C 171.893 1.48606 0.827672 0
M  V30 1880 O 173.078 1.77308 0.792173 0
M  V30 1881 C 170.208 3.31771 1.02691 0
M  V30 1882 C 169.162 4.26485 0.359823 0
M  V30 1883 C 168.488 5.14729 1.44769 0
M  V30 1884 C 169.788 5.17056 -0.738296 0
M  V30 1885 H 171.482 2.91183 -0.696636 0
M  V30 1886 H 169.028 1.40014 -0.336456 0
M  V30 1887 H 170.981 3.93161 1.51666 0
M  V30 1888 H 169.705 2.7226 1.80395 0
M  V30 1889 H 168.364 3.66437 -0.10934 0
M  V30 1890 H 168.012 4.51566 2.21578 0
M  V30 1891 H 167.712 5.78913 1.00668 0
M  V30 1892 H 169.236 5.78991 1.93911 0
M  V30 1893 H 170.65 5.72342 -0.331354 0
M  V30 1894 H 169.047 5.89879 -1.10286 0
M  V30 1895 H 170.117 4.57652 -1.60258 0
M  V30 1896 N 171.46 0.379036 1.52974 0
M  V30 1897 C 172.423 -0.448865 2.24762 0
M  V30 1898 C 173.423 -0.998689 1.26027 0
M  V30 1899 O 174.613 -0.882313 1.50203 0
M  V30 1900 C 171.745 -1.62872 2.99476 0
M  V30 1901 H 172.938 0.179491 2.99362 0
M  V30 1902 H 170.491 0.13096 1.5575 0
M  V30 1903 H 171.226 -2.29479 2.29151 0
M  V30 1904 H 171.011 -1.24128 3.71934 0
M  V30 1905 H 172.501 -2.2151 3.5401 0
M  V30 1906 N 172.938 -1.57226 0.108567 0
M  V30 1907 C 173.87 -2.11809 -0.875752 0
M  V30 1908 C 174.883 -1.05839 -1.23701 0
M  V30 1909 O 176.072 -1.33245 -1.18778 0
M  V30 1910 C 173.172 -2.59411 -2.18081 0
M  V30 1911 C 172.345 -3.89364 -1.99284 0
M  V30 1912 C 171.404 -4.22672 -3.13424 0
M  V30 1913 O 170.43 -4.91668 -2.86795 0
M  V30 1914 N 171.632 -3.79154 -4.3957 0
M  V30 1915 H 174.397 -2.9689 -0.409477 0
M  V30 1916 H 171.958 -1.61721 -0.076158 0
M  V30 1917 H 173.95 -2.7873 -2.93414 0
M  V30 1918 H 172.52 -1.79268 -2.5609 0
M  V30 1919 H 171.74 -3.79059 -1.08203 0
M  V30 1920 H 173.028 -4.74358 -1.84017 0
M  V30 1921 H 172.426 -3.23486 -4.64083 0
M  V30 1922 H 170.983 -4.03602 -5.11809 0
M  V30 1923 N 174.416 0.165178 -1.56732 0
M  V30 1924 C 175.644 0.896218 -1.86482 0
M  V30 1925 C 176.059 1.75555 -0.694675 0
M  V30 1926 O 175.416 1.79379 0.33607 0
M  V30 1927 C 175.467 1.76792 -3.1532 0
M  V30 1928 O 175.188 0.943239 -4.27825 0
M  V30 1929 C 176.689 2.6081 -3.58459 0
M  V30 1930 H 173.909 0.260064 -0.618553 0
M  V30 1931 H 176.453 0.163428 -2.03846 0
M  V30 1932 H 174.608 2.45398 -2.99764 0
M  V30 1933 H 175.022 1.53998 -5.01383 0
M  V30 1934 H 176.496 3.17579 -4.51495 0
M  V30 1935 H 176.973 3.35977 -2.82872 0
M  V30 1936 H 177.579 1.97526 -3.76648 0
M  V30 1937 N 175.894 1.51508 0.433938 0
M  V30 1938 C 176.857 1.72473 1.50949 0
M  V30 1939 C 177.857 0.594725 1.49398 0
M  V30 1940 O 179.047 0.862315 1.5136 0
M  V30 1941 C 176.179 1.78431 2.90474 0
M  V30 1942 H 177.372 2.68467 1.33662 0
M  V30 1943 H 174.925 1.41549 0.662836 0
M  V30 1944 H 175.66 0.842645 3.13161 0
M  V30 1945 H 175.445 2.60558 2.93005 0
M  V30 1946 H 176.935 1.96479 3.68491 0
M  V30 1947 N 177.372 -0.689602 1.41712 0
M  V30 1948 C 178.335 -1.78521 1.43746 0
M  V30 1949 C 179.335 -1.57436 0.327191 0
M  V30 1950 O 180.525 -1.64 0.587348 0
M  V30 1951 C 177.657 -3.16971 1.25467 0
M  V30 1952 H 178.85 -1.78108 2.41283 0
M  V30 1953 H 176.403 -0.89781 1.27942 0
M  V30 1954 H 177.138 -3.23019 0.287948 0
M  V30 1955 H 176.923 -3.33678 2.05917 0
M  V30 1956 H 178.413 -3.96935 1.2974 0
M  V30 1957 N 178.85 -1.27639 -0.924453 0
M  V30 1958 C 179.8 -1.07295 -2.01176 0
M  V30 1959 C 180.784 5.77352e-05 -1.609 0
M  V30 1960 O 181.976 -0.218855 -1.75642 0
M  V30 1961 C 179.105 -0.725592 -3.35544 0
M  V30 1962 C 178.191 -1.83691 -3.82254 0
M  V30 1963 N 178.582 -3.07697 -4.01443 0
M  V30 1964 C 176.88 -1.72433 -4.11319 0
M  V30 1965 C 177.581 -3.80037 -4.40394 0
M  V30 1966 N 176.557 -3.0782 -4.48049 0
M  V30 1967 H 180.359 -2.01399 -2.14046 0
M  V30 1968 H 177.873 -1.18401 -1.11153 0
M  V30 1969 H 179.87 -0.560959 -4.13109 0
M  V30 1970 H 178.53 0.207782 -3.24034 0
M  V30 1971 H 179.541 -3.43424 -3.8766 0
M  V30 1972 H 176.218 -0.862005 -4.08504 0
M  V30 1973 H 177.608 -4.86632 -4.63291 0
M  V30 1974 N 180.328 1.1314 -1.09713 0
M  V30 1975 C 181.574 1.84757 -0.836224 0
M  V30 1976 C 181.907 1.8347 0.636598 0
M  V30 1977 O 181.182 1.27491 1.46889 0
M  V30 1978 C 181.465 3.32782 -1.37578 0
M  V30 1979 C 181.318 3.42567 -2.91493 0
M  V30 1980 C 182.637 4.28307 -1.01198 0
M  V30 1981 H 179.756 0.67082 -0.305236 0
M  V30 1982 H 182.398 1.3278 -1.35903 0
M  V30 1983 H 180.548 3.77177 -0.931097 0
M  V30 1984 H 182.22 3.06862 -3.44432 0
M  V30 1985 H 180.463 2.83349 -3.28475 0
M  V30 1986 H 181.134 4.46674 -3.24324 0
M  V30 1987 H 183.61 3.91999 -1.39556 0
M  V30 1988 H 182.486 5.30307 -1.41653 0
M  V30 1989 H 182.747 4.42029 0.0794833 0
M  V30 1990 N 181.806 0.884767 1.30421 0
M  V30 1991 C 182.769 0.356277 2.26414 0
M  V30 1992 C 183.769 -0.501124 1.52792 0
M  V30 1993 O 184.959 -0.30831 1.7145 0
M  V30 1994 C 182.091 -0.492316 3.37326 0
M  V30 1995 H 183.284 1.20389 2.74675 0
M  V30 1996 H 180.837 0.661607 1.41607 0
M  V30 1997 H 181.572 -1.36052 2.94381 0
M  V30 1998 H 181.357 0.121832 3.91911 0
M  V30 1999 H 182.847 -0.853871 4.08777 0
M  V30 2000 N 183.284 -1.43765 0.645699 0
M  V30 2001 C 184.532 -2.01499 0.155731 0
M  V30 2002 C 184.853 -1.51151 -1.232 0
M  V30 2003 O 184.123 -0.721044 -1.82148 0
M  V30 2004 H 182.703 -0.745003 0.0545817 0
M  V30 2005 H 185.365 -1.76075 0.835677 0
M  V30 2006 H 184.461 -3.1181 0.134577 0
M  V30 2007 N 184.763 -0.387143 -1.52771 0
M  V30 2008 C 185.726 0.436939 -2.24997 0
M  V30 2009 C 186.726 0.991991 -1.26555 0
M  V30 2010 O 187.916 0.874335 -1.50669 0
M  V30 2011 C 185.048 1.61281 -3.00335 0
M  V30 2012 H 186.241 -0.195365 -2.99263 0
M  V30 2013 H 183.794 -0.139218 -1.55679 0
M  V30 2014 H 184.529 2.2826 -2.30364 0
M  V30 2015 H 184.314 1.22154 -3.72587 0
M  V30 2016 H 185.804 2.19629 -3.5518 0
M  V30 2017 N 186.241 1.57166 -0.116904 0
M  V30 2018 C 187.204 2.14039 0.819742 0
M  V30 2019 C 188.204 1.07477 1.19605 0
M  V30 2020 O 189.394 1.33263 1.1219 0
M  V30 2021 C 186.526 2.67891 2.10826 0
M  V30 2022 H 187.719 2.98128 0.325511 0
M  V30 2023 H 185.272 1.55739 0.132312 0
M  V30 2024 H 186.007 1.87384 2.64685 0
M  V30 2025 H 185.792 3.45823 1.84793 0
M  V30 2026 H 187.282 3.11809 2.77785 0
M  V30 2027 N 187.719 -0.156864 1.56817 0
M  V30 2028 C 188.949 -0.885031 1.86684 0
M  V30 2029 C 189.357 -1.75696 0.701954 0
M  V30 2030 O 188.7 -1.80569 -0.337732 0
M  V30 2031 C 188.762 -1.80092 3.11138 0
M  V30 2032 C 188.426 -1.10714 4.43386 0
M  V30 2033 C 189.423 -0.465714 5.1781 0
M  V30 2034 C 187.108 -1.09959 4.90117 0
M  V30 2035 C 189.102 0.174002 6.37162 0
M  V30 2036 C 186.789 -0.456055 6.09396 0
M  V30 2037 C 187.787 0.179622 6.82764 0
M  V30 2038 O 187.475 0.812975 7.99779 0
M  V30 2039 H 187.207 -0.261813 0.623242 0
M  V30 2040 H 189.761 -0.157383 2.04796 0
M  V30 2041 H 187.991 -2.56926 2.89009 0
M  V30 2042 H 189.68 -2.40018 3.27332 0
M  V30 2043 H 190.446 -0.463427 4.82781 0
M  V30 2044 H 186.325 -1.58378 4.3294 0
M  V30 2045 H 189.869 0.670765 6.94368 0
M  V30 2046 H 185.766 -0.455975 6.43888 0
M  V30 2047 H 186.534 0.71366 8.15383 0
M  V30 2048 N 189.197 -1.51736 -0.425897 0
M  V30 2049 C 190.427 -1.68549 -1.19476 0
M  V30 2050 C 190.835 -0.387288 -1.85194 0
M  V30 2051 O 190.178 0.645142 -1.71999 0
M  V30 2052 C 190.24 -2.75275 -2.31223 0
M  V30 2053 C 189.904 -4.17534 -1.8578 0
M  V30 2054 C 190.901 -5.01936 -1.35485 0
M  V30 2055 C 188.586 -4.6369 -1.93123 0
M  V30 2056 C 190.58 -6.30559 -0.931347 0
M  V30 2057 C 188.267 -5.92307 -1.50384 0
M  V30 2058 C 189.265 -6.75569 -1.00473 0
M  V30 2059 O 188.953 -8.0178 -0.583452 0
M  V30 2060 H 188.685 -0.568525 -0.365725 0
M  V30 2061 H 191.239 -1.98982 -0.509444 0
M  V30 2062 H 189.469 -2.40182 -3.03067 0
M  V30 2063 H 191.158 -2.80853 -2.93047 0
M  V30 2064 H 191.924 -4.67475 -1.29197 0
M  V30 2065 H 187.803 -3.98997 -2.30916 0
M  V30 2066 H 191.347 -6.95498 -0.541084 0
M  V30 2067 H 187.244 -6.2628 -1.56346 0
M  V30 2068 H 188.012 -8.1543 -0.708275 0
M  V30 2069 N 190.675 0.682077 -1.42076 0
M  V30 2070 C 191.905 1.46844 -1.45329 0
M  V30 2071 C 192.313 1.89102 -0.0609328 0
M  V30 2072 O 191.656 1.58238 0.933082 0
M  V30 2073 C 191.718 2.75375 -2.31104 0
M  V30 2074 C 191.382 2.55238 -3.79081 0
M  V30 2075 C 192.379 2.20309 -4.70914 0
M  V30 2076 C 190.064 2.70459 -4.2327 0
M  V30 2077 C 192.058 2.00859 -6.04925 0
M  V30 2078 C 189.745 2.50624 -5.57343 0
M  V30 2079 C 190.743 2.15876 -6.47986 0
M  V30 2080 O 190.431 1.96227 -7.79583 0
M  V30 2081 H 190.163 0.4586 -0.496651 0
M  V30 2082 H 192.717 0.846131 -1.87162 0
M  V30 2083 H 190.947 3.40061 -1.84107 0
M  V30 2084 H 192.636 3.37231 -2.25898 0
M  V30 2085 H 193.402 2.08153 -4.38061 0
M  V30 2086 H 189.281 2.96485 -3.53012 0
M  V30 2087 H 192.825 1.7366 -6.75639 0
M  V30 2088 H 188.722 2.62375 -5.89771 0
M  V30 2089 H 189.49 2.10883 -7.90867 0
M  V30 2090 N 192.153 1.28127 0.917671 0
M  V30 2091 C 193.085 1.07517 2.02417 0
M  V30 2092 C 194.098 0.0281099 1.62776 0
M  V30 2093 O 195.287 0.270748 1.76435 0
M  V30 2094 C 192.387 0.610957 3.33347 0
M  V30 2095 C 191.56 1.73255 4.01624 0
M  V30 2096 C 190.619 1.26238 5.10833 0
M  V30 2097 O 189.645 1.96389 5.34247 0
M  V30 2098 N 190.847 0.123448 5.80369 0
M  V30 2099 H 193.612 2.02806 2.20658 0
M  V30 2100 H 191.173 1.19827 1.08871 0
M  V30 2101 H 193.165 0.280101 4.0373 0
M  V30 2102 H 191.735 -0.24898 3.11607 0
M  V30 2103 H 190.955 2.23319 3.24842 0
M  V30 2104 H 192.243 2.48503 4.43986 0
M  V30 2105 H 191.641 -0.461847 5.63812 0
M  V30 2106 H 190.198 -0.148158 6.51632 0
M  V30 2107 N 193.631 -1.12557 1.10312 0
M  V30 2108 C 195.047 -1.36036 0.834649 0
M  V30 2109 C 195.247 -1.93946 -0.546539 0
M  V30 2110 O 194.303 -2.16484 -1.29966 0
M  V30 2111 C 195.616 -2.30312 1.9333 0
M  V30 2112 C 197.164 -2.43906 1.9616 0
M  V30 2113 C 197.639 -3.41496 3.05195 0
M  V30 2114 N 199.13 -3.49053 3.04494 0
M  V30 2115 C 199.865 -4.24471 3.85502 0
M  V30 2116 N 199.361 -5.02966 4.76442 0
M  V30 2117 N 201.154 -4.19864 3.73725 0
M  V30 2118 H 193.305 -0.733246 1.99342 0
M  V30 2119 H 195.568 -0.385234 0.866198 0
M  V30 2120 H 195.274 -1.94933 2.92735 0
M  V30 2121 H 195.148 -3.30421 1.81939 0
M  V30 2122 H 197.535 -2.78567 0.973886 0
M  V30 2123 H 197.616 -1.4369 2.11629 0
M  V30 2124 H 197.26 -3.07565 4.04186 0
M  V30 2125 H 197.19 -4.41539 2.86968 0
M  V30 2126 H 199.681 -2.93053 2.38596 0
M  V30 2127 H 199.994 -5.57846 5.34815 0
M  V30 2128 H 198.339 -5.02167 4.80472 0
M  V30 2129 H 201.53 -3.57623 3.02032 0
M  V30 2130 H 201.703 -4.78386 4.37093 0
M  V30 2131 N 195.109 -0.891671 -1.2995 0
M  V30 2132 C 196.041 -0.320695 -2.26945 0
M  V30 2133 C 197.054 0.528497 -1.53983 0
M  V30 2134 O 198.243 0.346959 -1.75096 0
M  V30 2135 C 195.343 0.562066 -3.34207 0
M  V30 2136 C 194.516 -0.259576 -4.36629 0
M  V30 2137 C 193.575 0.554739 -5.23268 0
M  V30 2138 O 192.601 -0.0249311 -5.69195 0
M  V30 2139 N 193.803 1.8625 -5.4981 0
M  V30 2140 H 196.568 -1.15432 -2.76578 0
M  V30 2141 H 194.129 -0.755336 -1.432 0
M  V30 2142 H 196.121 1.11304 -3.89093 0
M  V30 2143 H 194.691 1.29637 -2.84452 0
M  V30 2144 H 193.911 -0.991986 -3.81514 0
M  V30 2145 H 195.199 -0.822564 -5.02107 0
M  V30 2146 H 194.597 2.35628 -5.14292 0
M  V30 2147 H 193.154 2.36078 -6.07545 0
M  V30 2148 N 196.587 1.43421 -0.653314 0
M  V30 2149 C 197.864 1.95361 -0.0966581 0
M  V30 2150 C 198.244 1.59461 1.38331 0
M  V30 2151 O 197.592 0.879777 2.10884 0
M  V30 2152 C 197.802 3.47311 -0.342988 0
M  V30 2153 C 199.15 4.23875 -0.24798 0
M  V30 2154 O 200.174 3.55133 -0.275553 0
M  V30 2155 O 199.033 5.4623 -0.171771 0
M  V30 2156 H 196.127 0.826945 0.00956291 0
M  V30 2157 H 198.673 1.5336 -0.726558 0
M  V30 2158 H 197.445 3.66569 -1.36906 0
M  V30 2159 H 197.068 3.9631 0.319975 0
M  V30 2160 N 198.065 0.39524 1.52563 0
M  V30 2161 C 199.311 -0.185318 2.01952 0
M  V30 2162 C 199.644 -1.45964 1.28095 0
M  V30 2163 O 198.919 -1.90689 0.38315 0
M  V30 2164 C 199.202 -0.447193 3.57312 0
M  V30 2165 C 199.055 0.842828 4.41833 0
M  V30 2166 C 200.374 -1.23529 4.22408 0
M  V30 2167 H 197.493 -0.0658788 0.73405 0
M  V30 2168 H 200.135 0.525975 1.82575 0
M  V30 2169 H 198.285 -1.05312 3.73954 0
M  V30 2170 H 199.957 1.4795 4.36931 0
M  V30 2171 H 198.2 1.45686 4.08605 0
M  V30 2172 H 198.871 0.614165 5.48573 0
M  V30 2173 H 201.347 -0.722445 4.0978 0
M  V30 2174 H 200.223 -1.38727 5.3108 0
M  V30 2175 H 200.484 -2.25213 3.80436 0
M  V30 2176 N 199.544 -1.57102 0.125237 0
M  V30 2177 C 200.454 -2.19191 -0.8362 0
M  V30 2178 C 201.47 -1.16985 -1.28805 0
M  V30 2179 O 202.646 -1.49479 -1.34974 0
M  V30 2180 C 199.711 -2.78407 -2.06617 0
M  V30 2181 C 198.772 -3.9567 -1.66565 0
M  V30 2182 C 198.005 -4.52052 -2.83698 0
M  V30 2183 O 198.228 -4.07326 -3.99302 0
M  V30 2184 O 197.162 -5.42645 -2.60423 0
M  V30 2185 H 200.988 -3.01816 -0.337776 0
M  V30 2186 H 198.573 -1.4906 -0.100695 0
M  V30 2187 H 200.455 -3.16129 -2.7864 0
M  V30 2188 H 199.13 -1.9881 -2.55453 0
M  V30 2189 H 198.037 -3.62705 -0.916296 0
M  V30 2190 H 199.37 -4.76722 -1.22464 0
M  V30 2191 N 201.022 0.148545 -1.56898 0
M  V30 2192 C 201.985 1.16736 -1.97244 0
M  V30 2193 C 202.985 1.35947 -0.858777 0
M  V30 2194 O 204.175 1.32966 -1.12542 0
M  V30 2195 C 201.307 2.52798 -2.28705 0
M  V30 2196 H 202.5 0.821279 -2.88435 0
M  V30 2197 H 200.053 0.391831 -1.51309 0
M  V30 2198 H 200.788 2.92381 -1.403 0
M  V30 2199 H 200.573 2.40216 -3.09901 0
M  V30 2200 H 202.063 3.26179 -2.60762 0
M  V30 2201 N 202.5 1.5196 0.417844 0
M  V30 2202 C 203.777 1.56146 1.17803 0
M  V30 2203 C 204.157 0.337275 2.08388 0
M  V30 2204 O 203.505 -0.676447 2.18258 0
M  V30 2205 C 203.715 2.88566 1.96293 0
M  V30 2206 C 205.063 3.41244 2.52662 0
M  V30 2207 O 206.087 2.90247 2.06483 0
M  V30 2208 O 204.946 4.30273 3.36938 0
M  V30 2209 H 202.04 0.628598 0.537395 0
M  V30 2210 H 204.586 1.64283 0.425331 0
M  V30 2211 H 203.358 3.69116 1.2988 0
M  V30 2212 H 202.981 2.83681 2.78587 0
M  V30 2213 N 203.978 -0.674533 1.42435 0
M  V30 2214 C 205.389 -1.25514 1.38214 0
M  V30 2215 C 205.74 -1.96055 0.0755464 0
M  V30 2216 O 204.865 -2.00028 -0.8257 0
M  V30 2217 C 205.46 -2.28269 2.50357 0
M  V30 2218 C 204.019 -2.81856 2.49467 0
M  V30 2219 C 203.166 -1.56182 2.29134 0
M  V30 2220 H 206.117 -0.467902 1.51646 0
M  V30 2221 H 206.138 -3.10009 2.20624 0
M  V30 2222 H 205.65 -1.769 3.45439 0
M  V30 2223 H 203.751 -3.37346 1.58204 0
M  V30 2224 H 203.864 -3.30854 3.46515 0
M  V30 2225 H 202.228 -1.82761 1.774 0
M  V30 2226 H 203.011 -1.06778 3.26272 0
M  V30 2227 N 205.456 -1.28612 -0.910864 0
M  V30 2228 C 206.702 -1.17116 -1.66299 0
M  V30 2229 C 207.057 0.276917 -1.90397 0
M  V30 2230 O 206.35 1.19795 -1.49532 0
M  V30 2231 C 206.544 -1.90624 -3.0232 0
M  V30 2232 C 206.373 -3.42431 -2.91498 0
M  V30 2233 C 205.143 -4.11773 -2.92867 0
M  V30 2234 C 207.341 -4.38124 -2.69355 0
M  V30 2235 N 205.323 -5.50025 -2.72664 0
M  V30 2236 C 206.694 -5.63759 -2.58023 0
M  V30 2237 C 208.749 -4.28016 -2.54375 0
M  V30 2238 C 207.452 -6.80436 -2.33238 0
M  V30 2239 C 209.478 -5.44433 -2.30969 0
M  V30 2240 C 208.84 -6.69034 -2.20394 0
M  V30 2241 H 204.939 -0.483506 -0.61461 0
M  V30 2242 H 207.523 -1.62299 -1.0755 0
M  V30 2243 H 205.694 -1.4787 -3.5915 0
M  V30 2244 H 207.426 -1.71488 -3.66571 0
M  V30 2245 H 204.181 -3.63378 -3.03732 0
M  V30 2246 H 204.605 -6.22705 -2.65646 0
M  V30 2247 H 209.247 -3.32388 -2.613 0
M  V30 2248 H 206.965 -7.7613 -2.25051 0
M  V30 2249 H 210.551 -5.38504 -2.20238 0
M  V30 2250 H 209.431 -7.57595 -2.02531 0
M  V30 2251 N 206.934 1.1197 -1.10907 0
M  V30 2252 C 208.182 1.83225 -0.852819 0
M  V30 2253 C 208.503 1.84769 0.623341 0
M  V30 2254 O 207.773 1.3143 1.45269 0
M  V30 2255 H 206.353 0.67849 -0.312507 0
M  V30 2256 H 209.015 1.3556 -1.40033 0
M  V30 2257 H 208.111 2.87265 -1.22005 0
M  V30 2258 N 208.412 0.89855 1.29475 0
M  V30 2259 C 209.36 0.365253 2.29714 0
M  V30 2260 C 210.354 -0.534993 1.6073 0
M  V30 2261 O 211.56 -0.417921 1.75081 0
M  V30 2262 H 207.935 0.0994853 0.74539 0
M  V30 2263 H 209.906 1.22406 2.72138 0
M  V30 2264 C 208.655 -0.393159 3.4547 0
M  V30 2265 H 207.978 0.290332 3.98744 0
M  V30 2266 H 209.418 -0.731189 4.17648 0
M  V30 2267 C 207.877 -1.59539 2.9673 0
M  V30 2268 O 208.407 -2.69469 2.97908 0
M  V30 2269 N 206.613 -1.43716 2.52575 0
M  V30 2270 H 206.16 -0.542828 2.51816 0
M  V30 2271 H 206.118 -2.24288 2.20323 0
M  V30 2272 N 209.89 -1.43072 0.660911 0
M  V30 2273 C 210.822 -2.29108 -0.0647641 0
M  V30 2274 C 211.835 -1.42928 -0.779448 0
M  V30 2275 O 213.024 -1.66788 -0.635921 0
M  V30 2276 C 210.124 -3.20032 -1.11503 0
M  V30 2277 C 209.297 -4.34792 -0.476955 0
M  V30 2278 C 208.356 -5.06534 -1.42513 0
M  V30 2279 O 207.382 -5.61538 -0.930771 0
M  V30 2280 N 208.584 -5.1075 -2.75889 0
M  V30 2281 H 211.349 -2.92029 0.673731 0
M  V30 2282 H 208.91 -1.53846 0.50427 0
M  V30 2283 H 210.902 -3.64892 -1.75032 0
M  V30 2284 H 209.472 -2.58658 -1.75541 0
M  V30 2285 H 208.692 -3.92752 0.337572 0
M  V30 2286 H 209.98 -5.0879 -0.0318525 0
M  V30 2287 H 209.378 -4.67447 -3.18606 0
M  V30 2288 H 207.935 -5.59302 -3.347 0
M  V30 2289 N 211.368 -0.403325 -1.52352 0
M  V30 2290 C 212.784 -0.0539281 -1.59509 0
M  V30 2291 C 212.984 1.43307 -1.41652 0
M  V30 2292 O 212.04 2.19924 -1.24056 0
M  V30 2293 C 213.353 -0.543654 -2.95745 0
M  V30 2294 C 214.901 -0.501125 -3.08962 0
M  V30 2295 C 215.376 -0.967267 -4.47669 0
M  V30 2296 N 216.867 -0.923849 -4.53893 0
M  V30 2297 C 217.602 -1.25578 -5.5948 0
M  V30 2298 N 217.098 -1.65889 -6.72646 0
M  V30 2299 N 218.891 -1.17613 -5.49658 0
M  V30 2300 H 211.042 -1.37123 -1.62206 0
M  V30 2301 H 213.305 -0.56294 -0.76276 0
M  V30 2302 H 213.011 -1.58275 -3.14073 0
M  V30 2303 H 212.885 0.0498042 -3.77167 0
M  V30 2304 H 215.272 0.528909 -2.90321 0
M  V30 2305 H 215.353 -1.13056 -2.2946 0
M  V30 2306 H 214.997 -1.9956 -4.67053 0
M  V30 2307 H 214.927 -0.314698 -5.25659 0
M  V30 2308 H 217.418 -0.627403 -3.72655 0
M  V30 2309 H 217.731 -1.89543 -7.49195 0
M  V30 2310 H 216.076 -1.69787 -6.73942 0
M  V30 2311 H 219.267 -0.860115 -4.6013 0
M  V30 2312 H 219.44 -1.43812 -6.3184 0
M  V30 2313 N 212.846 1.57033 -0.133567 0
M  V30 2314 C 214.095 1.94861 0.520768 0
M  V30 2315 C 214.408 1.02012 1.66892 0
M  V30 2316 O 215.614 1.29365 2.38699 0
M  V30 2317 C 214.07 3.46362 0.977809 0
M  V30 2318 C 213.678 4.47773 -0.142674 0
M  V30 2319 C 215.422 3.93083 1.60269 0
M  V30 2320 C 213.329 5.90468 0.331883 0
M  V30 2321 H 212.259 0.727453 0.198315 0
M  V30 2322 H 214.91 1.82227 -0.215759 0
M  V30 2323 H 213.292 3.54282 1.7692 0
M  V30 2324 H 214.466 4.51536 -0.919317 0
M  V30 2325 H 212.781 4.10891 -0.675124 0
M  V30 2326 H 215.378 4.97121 1.96914 0
M  V30 2327 H 215.721 3.33876 2.48662 0
M  V30 2328 H 216.254 3.88025 0.876453 0
M  V30 2329 H 212.993 6.53463 -0.516341 0
M  V30 2330 H 212.513 5.90094 1.07469 0
M  V30 2331 H 214.192 6.42179 0.788332 0
M  V30 2332 N 214.325 -0.140222 1.56975 0
M  V30 2333 C 215.55 -0.870414 1.88251 0
M  V30 2334 C 215.975 -1.73637 0.723312 0
M  V30 2335 O 215.333 -1.78329 -0.32689 0
M  V30 2336 C 215.381 -1.69737 3.18154 0
M  V30 2337 O 214.485 -2.80229 3.02565 0
M  V30 2338 H 213.826 -0.242025 0.61832 0
M  V30 2339 H 216.356 -0.128999 2.04193 0
M  V30 2340 H 216.366 -2.09099 3.50345 0
M  V30 2341 H 215.041 -1.06152 4.02125 0
M  V30 2342 H 213.618 -2.44224 2.81796 0
M  V30 2343 N 215.803 -1.52179 -0.40978 0
M  V30 2344 C 217.051 -1.65878 -1.15451 0
M  V30 2345 C 217.372 -0.390771 -1.91044 0
M  V30 2346 O 216.642 0.594323 -1.86667 0
M  V30 2347 H 215.222 -0.611405 -0.429177 0
M  V30 2348 H 217.884 -1.89219 -0.467134 0
M  V30 2349 H 216.98 -2.49954 -1.86894 0
M  V30 2350 N 217.281 0.66697 -1.42791 0
M  V30 2351 C 218.527 1.4291 -1.43891 0
M  V30 2352 C 218.86 1.94114 -0.0578972 0
M  V30 2353 O 218.135 1.71414 0.91911 0
M  V30 2354 C 218.418 2.62049 -2.46987 0
M  V30 2355 C 218.271 2.16426 -3.94309 0
M  V30 2356 C 219.59 3.64266 -2.46978 0
M  V30 2357 H 216.709 0.518306 -0.523954 0
M  V30 2358 H 219.351 0.757321 -1.74255 0
M  V30 2359 H 217.501 3.19361 -2.21225 0
M  V30 2360 H 219.173 1.64221 -4.31079 0
M  V30 2361 H 217.416 1.47925 -4.078 0
M  V30 2362 H 218.087 3.02038 -4.62036 0
M  V30 2363 H 220.563 3.16686 -2.69906 0
M  V30 2364 H 219.439 4.45196 -3.21079 0
M  V30 2365 H 219.7 4.15927 -1.49857 0
M  V30 2366 N 218.759 1.29093 0.90403 0
M  V30 2367 C 219.999 1.18076 1.66845 0
M  V30 2368 C 220.363 -0.26436 1.90171 0
M  V30 2369 O 221.564 -0.497423 2.64157 0
M  V30 2370 C 219.835 1.96722 2.98388 0
M  V30 2371 S 221.394 2.0219 3.89441 0
M  V30 2372 H 218.212 0.421104 0.572881 0
M  V30 2373 H 220.814 1.63322 1.07453 0
M  V30 2374 H 219.518 3.00866 2.7912 0
M  V30 2375 H 219.049 1.52064 3.62823 0
M  V30 2376 H 221.064 1.13545 4.83034 0
M  V30 2377 N 220.237 -1.11381 1.11499 0
M  V30 2378 C 221.486 -1.82494 0.858993 0
M  V30 2379 C 221.799 -1.85605 -0.617278 0
M  V30 2380 O 223.005 -2.52824 -0.989552 0
M  V30 2381 C 221.461 -3.27745 1.48699 0
M  V30 2382 C 221.069 -3.32961 2.99735 0
M  V30 2383 C 222.813 -4.03754 1.31085 0
M  V30 2384 C 220.72 -4.72612 3.55516 0
M  V30 2385 H 219.65 -0.683802 0.317696 0
M  V30 2386 H 222.301 -1.25331 1.34031 0
M  V30 2387 H 220.683 -3.84844 0.933339 0
M  V30 2388 H 221.857 -2.85741 3.61509 0
M  V30 2389 H 220.172 -2.70433 3.16631 0
M  V30 2390 H 222.769 -5.06891 1.70192 0
M  V30 2391 H 223.112 -4.15527 0.253496 0
M  V30 2392 H 223.645 -3.53043 1.83318 0
M  V30 2393 H 220.384 -4.66036 4.60967 0
M  V30 2394 H 219.904 -5.2024 2.98513 0
M  V30 2395 H 221.583 -5.4157 3.53992 0
M  V30 2396 N 221.715 -0.905404 -1.28997 0
M  V30 2397 C 222.665 -0.358713 -2.25161 0
M  V30 2398 C 223.649 0.524449 -1.52113 0
M  V30 2399 O 224.841 0.365534 -1.73184 0
M  V30 2400 C 221.97 0.407609 -3.40872 0
M  V30 2401 C 221.056 -0.490797 -4.21251 0
M  V30 2402 N 221.447 -1.60061 -4.79806 0
M  V30 2403 C 219.745 -0.289636 -4.45059 0
M  V30 2404 C 220.446 -2.15757 -5.40207 0
M  V30 2405 N 219.422 -1.44988 -5.23908 0
M  V30 2406 H 223.224 -1.20642 -2.67998 0
M  V30 2407 H 220.738 -0.757103 -1.43672 0
M  V30 2408 H 222.735 0.816046 -4.08835 0
M  V30 2409 H 221.395 1.25251 -2.9957 0
M  V30 2410 H 222.406 -1.98329 -4.7842 0
M  V30 2411 H 219.083 0.51643 -4.14294 0
M  V30 2412 H 220.473 -3.09069 -5.96595 0
M  V30 2413 N 223.193 1.4272 -0.668489 0
M  V30 2414 C 224.604 1.84793 -0.266151 0
M  V30 2415 C 224.955 1.55959 1.19043 0
M  V30 2416 O 224.08 1.01622 1.91055 0
M  V30 2417 C 224.675 3.35436 -0.476271 0
M  V30 2418 C 223.234 3.76182 -0.128113 0
M  V30 2419 C 222.381 2.66344 -0.771777 0
M  V30 2420 H 225.332 1.32656 -0.871098 0
M  V30 2421 H 225.353 3.79515 0.273561 0
M  V30 2422 H 224.865 3.5639 -1.53647 0
M  V30 2423 H 222.966 3.60836 0.928891 0
M  V30 2424 H 223.079 4.75766 -0.564231 0
M  V30 2425 H 221.443 2.53885 -0.203652 0
M  V30 2426 H 222.226 2.90123 -1.83531 0
M  V30 2427 N 224.671 0.411399 1.52136 0
M  V30 2428 C 226.087 0.0623865 1.59478 0
M  V30 2429 C 226.287 -1.42554 1.4241 0
M  V30 2430 O 225.343 -2.19263 1.2522 0
M  V30 2431 C 226.656 0.559331 2.95452 0
M  V30 2432 C 228.204 0.517503 3.08692 0
M  V30 2433 C 228.679 0.990994 4.4715 0
M  V30 2434 N 230.17 0.947908 4.53397 0
M  V30 2435 C 230.905 1.28544 5.58806 0
M  V30 2436 N 230.401 1.69454 6.71757 0
M  V30 2437 N 232.194 1.20526 5.49026 0
M  V30 2438 H 224.345 1.37982 1.61477 0
M  V30 2439 H 226.608 0.566977 0.759764 0
M  V30 2440 H 226.314 1.59938 3.1323 0
M  V30 2441 H 226.188 -0.0298014 3.77188 0
M  V30 2442 H 228.575 -0.513505 2.90598 0
M  V30 2443 H 228.656 1.14272 2.28857 0
M  V30 2444 H 228.3 2.02034 4.65988 0
M  V30 2445 H 228.23 0.34257 5.25485 0
M  V30 2446 H 230.721 0.647157 3.72317 0
M  V30 2447 H 231.034 1.93513 7.48179 0
M  V30 2448 H 229.379 1.73359 6.73032 0
M  V30 2449 H 232.57 0.884505 4.59667 0
M  V30 2450 H 232.743 1.47161 6.31069 0
M  V30 2451 N 226.149 -1.5696 0.141893 0
M  V30 2452 C 227.396 -1.9596 -0.510492 0
M  V30 2453 C 227.724 -1.02648 -1.65208 0
M  V30 2454 O 226.979 -0.0546947 -1.95624 0
M  V30 2455 C 227.278 -3.41242 -1.06249 0
M  V30 2456 C 226.944 -4.50882 -0.0398791 0
M  V30 2457 C 225.606 -4.80595 0.241247 0
M  V30 2458 C 227.958 -5.17058 0.65578 0
M  V30 2459 C 225.286 -5.73792 1.22393 0
M  V30 2460 C 227.638 -6.11313 1.62724 0
M  V30 2461 C 226.302 -6.39407 1.91612 0
M  V30 2462 H 225.572 -0.717068 -0.186802 0
M  V30 2463 H 228.219 -1.90142 0.227643 0
M  V30 2464 H 226.524 -3.43866 -1.87785 0
M  V30 2465 H 228.221 -3.68742 -1.57576 0
M  V30 2466 H 224.811 -4.27754 -0.269174 0
M  V30 2467 H 228.995 -4.94239 0.451779 0
M  V30 2468 H 224.251 -5.93853 1.45424 0
M  V30 2469 H 228.425 -6.61668 2.17183 0
M  V30 2470 H 226.052 -7.11427 2.6791 0
M  V30 2471 N 227.627 0.131896 -1.57047 0
M  V30 2472 C 228.875 0.840269 -1.83804 0
M  V30 2473 C 229.196 1.81017 -0.72512 0
M  V30 2474 O 228.466 1.94272 0.251995 0
M  V30 2475 H 227.046 0.313294 -0.678127 0
M  V30 2476 H 229.708 0.122294 -1.94516 0
M  V30 2477 H 228.804 1.39335 -2.79271 0
M  V30 2478 N 229.106 1.52395 0.401703 0
M  V30 2479 C 230.354 1.66488 1.14569 0
M  V30 2480 C 230.675 0.400897 1.90835 0
M  V30 2481 O 229.945 -0.584415 1.8698 0
M  V30 2482 H 228.525 0.613672 0.425929 0
M  V30 2483 H 231.187 1.89464 0.457093 0
M  V30 2484 H 230.283 2.50942 1.85566 0
M  V30 2485 N 230.584 -0.659388 1.43143 0
M  V30 2486 C 231.83 -1.41984 1.45644 0
M  V30 2487 C 232.185 -1.92245 0.0771718 0
M  V30 2488 O 231.478 -1.68976 -0.903205 0
M  V30 2489 C 231.672 -2.62206 2.42864 0
M  V30 2490 C 231.501 -2.23711 3.90107 0
M  V30 2491 C 230.271 -2.12332 4.58523 0
M  V30 2492 C 232.469 -1.84384 4.80112 0
M  V30 2493 N 230.451 -1.67102 5.9072 0
M  V30 2494 C 231.822 -1.5019 6.01534 0
M  V30 2495 C 233.877 -1.71512 4.67427 0
M  V30 2496 C 232.58 -1.04414 7.11681 0
M  V30 2497 C 234.606 -1.27142 5.77572 0
M  V30 2498 C 233.968 -0.938808 6.98116 0
M  V30 2499 H 230.067 -0.515448 0.588079 0
M  V30 2500 H 232.651 -0.759409 1.79279 0
M  V30 2501 H 230.822 -3.25917 2.11265 0
M  V30 2502 H 232.554 -3.28877 2.35843 0
M  V30 2503 H 229.309 -2.31893 4.12944 0
M  V30 2504 H 229.733 -1.46866 6.60878 0
M  V30 2505 H 234.375 -1.95868 3.74694 0
M  V30 2506 H 232.093 -0.788061 8.04248 0
M  V30 2507 H 235.679 -1.17681 5.69774 0
M  V30 2508 H 234.559 -0.6007 7.81896 0
M  V30 2509 N 232.062 -1.29571 -0.897171 0
M  V30 2510 C 233.309 -1.17689 -1.6479 0
M  V30 2511 C 233.637 0.27107 -1.92602 0
M  V30 2512 O 232.892 1.21193 -1.53658 0
M  V30 2513 C 233.191 -1.9382 -3.00281 0
M  V30 2514 C 232.857 -3.43522 -2.92068 0
M  V30 2515 C 231.519 -3.84348 -2.89535 0
M  V30 2516 C 233.871 -4.38906 -2.81089 0
M  V30 2517 C 231.199 -5.18869 -2.73846 0
M  V30 2518 C 233.551 -5.73521 -2.66939 0
M  V30 2519 C 232.215 -6.13601 -2.62774 0
M  V30 2520 H 231.485 -0.430654 -0.603008 0
M  V30 2521 H 234.132 -1.60536 -1.04404 0
M  V30 2522 H 232.437 -1.4357 -3.64547 0
M  V30 2523 H 234.134 -1.82028 -3.57305 0
M  V30 2524 H 230.724 -3.11072 -2.94842 0
M  V30 2525 H 234.908 -4.08315 -2.82121 0
M  V30 2526 H 230.164 -5.4903 -2.69027 0
M  V30 2527 H 234.338 -6.47078 -2.57416 0
M  V30 2528 H 231.965 -7.17786 -2.50375 0
M  V30 2529 N 233.54 1.10788 -1.12088 0
M  V30 2530 C 234.503 2.15207 -0.788577 0
M  V30 2531 C 235.503 1.59609 0.195317 0
M  V30 2532 O 236.693 1.74174 -0.0300193 0
M  V30 2533 C 233.825 3.4047 -0.171174 0
M  V30 2534 H 235.018 2.46116 -1.71368 0
M  V30 2535 H 232.571 1.26089 -0.923652 0
M  V30 2536 H 233.306 3.15176 0.763832 0
M  V30 2537 H 233.091 3.82109 -0.879514 0
M  V30 2538 H 234.581 4.17576 0.04496 0
M  V30 2539 N 235.018 0.912232 1.28515 0
M  V30 2540 C 236.267 0.540504 1.94323 0
M  V30 2541 C 236.58 -0.920044 1.72611 0
M  V30 2542 O 237.786 -1.39986 2.32629 0
M  V30 2543 C 236.242 0.915803 3.48053 0
M  V30 2544 C 235.85 2.39598 3.78546 0
M  V30 2545 C 237.594 0.614588 4.20027 0
M  V30 2546 C 235.501 2.71148 5.25578 0
M  V30 2547 H 234.431 0.198418 0.727424 0
M  V30 2548 H 237.082 1.11094 1.46049 0
M  V30 2549 H 235.464 0.274168 3.9505 0
M  V30 2550 H 236.638 3.08422 3.42364 0
M  V30 2551 H 234.953 2.66749 3.1974 0
M  V30 2552 H 237.55 0.827002 5.28266 0
M  V30 2553 H 237.893 -0.447531 4.13887 0
M  V30 2554 H 238.426 1.21462 3.78803 0
M  V30 2555 H 235.165 3.76207 5.36794 0
M  V30 2556 H 234.685 2.0696 5.62963 0
M  V30 2557 H 236.364 2.58072 5.93302 0
M  V30 2558 N 236.496 -1.42363 0.676048 0
M  V30 2559 C 237.912 -1.55811 0.345718 0
M  V30 2560 C 238.112 -1.65544 -1.14879 0
M  V30 2561 O 237.168 -1.62306 -1.93424 0
M  V30 2562 C 238.481 -2.80746 1.07713 0
M  V30 2563 C 240.029 -2.9452 1.05958 0
M  V30 2564 C 240.504 -4.22318 1.77233 0
M  V30 2565 N 241.995 -4.29233 1.74108 0
M  V30 2566 C 242.73 -5.26935 2.26113 0
M  V30 2567 N 242.226 -6.30783 2.86505 0
M  V30 2568 N 244.019 -5.18741 2.1648 0
M  V30 2569 H 236.17 -1.34289 1.6456 0
M  V30 2570 H 238.433 -0.646506 0.69335 0
M  V30 2571 H 238.139 -2.79696 2.13221 0
M  V30 2572 H 238.013 -3.71676 0.64316 0
M  V30 2573 H 240.4 -2.95097 0.0128255 0
M  V30 2574 H 240.481 -2.04817 1.53244 0
M  V30 2575 H 240.125 -4.22502 2.81877 0
M  V30 2576 H 240.055 -5.10958 1.27396 0
M  V30 2577 H 242.546 -3.54814 1.30059 0
M  V30 2578 H 242.859 -7.01691 3.23805 0
M  V30 2579 H 241.204 -6.31341 2.90575 0
M  V30 2580 H 244.395 -4.36533 1.68987 0
M  V30 2581 H 244.568 -5.94721 2.57316 0
M  V30 2582 N 237.974 -0.419461 -1.51915 0
M  V30 2583 C 239.222 0.152637 -2.01523 0
M  V30 2584 C 239.543 1.44762 -1.30649 0
M  V30 2585 O 238.813 1.90997 -0.435535 0
M  V30 2586 H 237.393 0.0593966 -0.744635 0
M  V30 2587 H 240.055 -0.558073 -1.86739 0
M  V30 2588 H 239.151 0.341369 -3.10227 0
M  V30 2589 N 239.452 1.56882 -0.150215 0
M  V30 2590 C 240.698 1.96518 0.500834 0
M  V30 2591 C 241.031 1.03527 1.64304 0
M  V30 2592 O 240.306 0.0782751 1.94342 0
M  V30 2593 C 240.589 3.45822 1.00395 0
M  V30 2594 C 240.442 4.49591 -0.136983 0
M  V30 2595 C 241.761 3.97704 1.88467 0
M  V30 2596 H 238.88 0.714535 0.18058 0
M  V30 2597 H 241.522 1.88577 -0.232091 0
M  V30 2598 H 239.672 3.5272 1.62851 0
M  V30 2599 H 241.344 4.5477 -0.77343 0
M  V30 2600 H 239.587 4.26441 -0.795652 0
M  V30 2601 H 240.258 5.51402 0.256815 0
M  V30 2602 H 242.734 3.93304 1.35834 0
M  V30 2603 H 241.61 5.0263 2.20578 0
M  V30 2604 H 241.871 3.40252 2.82279 0
M  V30 2605 N 240.93 -0.123565 1.57115 0
M  V30 2606 C 242.176 -0.833386 1.84885 0
M  V30 2607 C 242.509 -1.79742 0.735292 0
M  V30 2608 O 241.784 -1.92764 -0.25925 0
M  V30 2609 C 242.067 -1.5873 3.23228 0
M  V30 2610 C 241.92 -0.643183 4.45178 0
M  V30 2611 C 243.239 -2.54453 3.59085 0
M  V30 2612 H 240.358 -0.301518 0.6725 0
M  V30 2613 H 243 -0.097778 1.89748 0
M  V30 2614 H 241.15 -2.21438 3.19214 0
M  V30 2615 H 242.822 -0.0253015 4.61293 0
M  V30 2616 H 241.065 0.0456139 4.33776 0
M  V30 2617 H 241.736 -1.20724 5.38637 0
M  V30 2618 H 244.212 -2.01853 3.63861 0
M  V30 2619 H 243.088 -3.04238 4.5687 0
M  V30 2620 H 243.349 -3.36906 2.86264 0
M  V30 2621 N 242.408 -1.52605 -0.393616 0
M  V30 2622 C 243.338 -1.80022 -1.48709 0
M  V30 2623 C 244.319 -0.651995 -1.57108 0
M  V30 2624 O 245.504 -0.89913 -1.72132 0
M  V30 2625 C 242.634 -1.96492 -2.86371 0
M  V30 2626 C 241.588 -3.12161 -2.92813 0
M  V30 2627 C 240.914 -3.13877 -4.3288 0
M  V30 2628 C 242.214 -4.51322 -2.6288 0
M  V30 2629 H 243.908 -2.71589 -1.26015 0
M  V30 2630 H 241.454 -1.30684 -0.604778 0
M  V30 2631 H 243.407 -2.14255 -3.62867 0
M  V30 2632 H 242.131 -1.01611 -3.10391 0
M  V30 2633 H 240.79 -2.94173 -2.18764 0
M  V30 2634 H 240.438 -2.16687 -4.53933 0
M  V30 2635 H 240.138 -3.91576 -4.38112 0
M  V30 2636 H 241.662 -3.33789 -5.1129 0
M  V30 2637 H 243.076 -4.69435 -3.29096 0
M  V30 2638 H 241.473 -5.31053 -2.79468 0
M  V30 2639 H 242.543 -4.58353 -1.58242 0
M  V30 2640 N 243.887 0.651787 -1.4349 0
M  V30 2641 C 244.817 1.77621 -1.51569 0
M  V30 2642 C 245.798 1.66022 -0.370253 0
M  V30 2643 O 246.983 1.85095 -0.587658 0
M  V30 2644 C 244.113 3.16056 -1.43966 0
M  V30 2645 C 243.067 3.4242 -2.56774 0
M  V30 2646 C 242.393 4.8067 -2.34223 0
M  V30 2647 C 243.693 3.37023 -3.99015 0
M  V30 2648 H 245.387 1.71117 -2.45681 0
M  V30 2649 H 242.933 0.821825 -1.18246 0
M  V30 2650 H 244.886 3.94472 -1.48221 0
M  V30 2651 H 243.61 3.23293 -0.463586 0
M  V30 2652 H 242.269 2.66375 -2.51873 0
M  V30 2653 H 241.917 4.84585 -1.34856 0
M  V30 2654 H 241.617 4.9927 -3.09844 0
M  V30 2655 H 243.141 5.61342 -2.40265 0
M  V30 2656 H 244.555 4.05374 -4.05395 0
M  V30 2657 H 242.952 3.67159 -4.74673 0
M  V30 2658 H 244.022 2.3518 -4.2405 0
M  V30 2659 N 245.365 1.30045 0.890287 0
M  V30 2660 C 246.776 1.16738 1.45702 0
M  V30 2661 C 247.127 -0.233939 1.948 0
M  V30 2662 O 246.252 -1.13021 1.84541 0
M  V30 2663 C 246.847 2.11313 2.64825 0
M  V30 2664 C 245.406 2.02001 3.17604 0
M  V30 2665 C 244.553 2.01699 1.90296 0
M  V30 2666 H 247.504 1.42392 0.700726 0
M  V30 2667 H 247.525 1.69086 3.40867 0
M  V30 2668 H 247.037 3.13294 2.2906 0
M  V30 2669 H 245.138 1.03142 3.5804 0
M  V30 2670 H 245.251 2.90128 3.81264 0
M  V30 2671 H 243.615 1.46427 2.08402 0
M  V30 2672 H 244.398 3.05402 1.56795 0
M  V30 2673 N 246.843 -1.10192 1.12674 0
M  V30 2674 C 248.091 -1.81845 0.881861 0
M  V30 2675 C 248.412 -1.85737 -0.593867 0
M  V30 2676 O 247.682 -1.33724 -1.4316 0
M  V30 2677 H 246.262 -0.673432 0.323261 0
M  V30 2678 H 248.924 -1.33316 1.42172 0
M  V30 2679 H 248.02 -2.85288 1.2656 0
M  V30 2680 N 248.321 -0.919034 -1.28029 0
M  V30 2681 C 249.57 -0.550802 -1.94034 0
M  V30 2682 C 249.883 0.910877 -1.73096 0
M  V30 2683 O 251.089 1.3875 -2.33368 0
M  V30 2684 C 249.545 -0.934249 -3.47563 0
M  V30 2685 C 249.153 -2.41602 -3.7727 0
M  V30 2686 C 250.897 -0.636854 -4.19696 0
M  V30 2687 C 248.804 -2.73932 -5.24133 0
M  V30 2688 H 247.734 -0.202273 -0.726362 0
M  V30 2689 H 250.385 -1.11867 -1.45458 0
M  V30 2690 H 248.767 -0.295115 -3.94899 0
M  V30 2691 H 249.941 -3.10233 -3.40723 0
M  V30 2692 H 248.256 -2.68441 -3.18321 0
M  V30 2693 H 250.853 -0.855005 -5.2782 0
M  V30 2694 H 251.196 0.425575 -4.14119 0
M  V30 2695 H 251.729 -1.23469 -3.78154 0
M  V30 2696 H 248.468 -3.79049 -5.34792 0
M  V30 2697 H 247.988 -2.09942 -5.61858 0
M  V30 2698 H 249.667 -2.61215 -5.91925 0
M  V30 2699 N 249.799 1.42003 -0.683588 0
M  V30 2700 C 250.709 2.34597 -0.0109075 0
M  V30 2701 C 251.725 1.55576 0.779245 0
M  V30 2702 O 252.901 1.88107 0.719555 0
M  V30 2703 C 249.966 3.34199 0.922588 0
M  V30 2704 C 249.027 4.29115 0.125984 0
M  V30 2705 C 248.26 5.23959 1.01502 0
M  V30 2706 O 248.483 5.23952 2.25456 0
M  V30 2707 O 247.417 6.00053 0.47111 0
M  V30 2708 H 251.243 2.93675 -0.773853 0
M  V30 2709 H 248.828 1.42654 -0.443861 0
M  V30 2710 H 250.71 3.95365 1.45823 0
M  V30 2711 H 249.385 2.77582 1.66523 0
M  V30 2712 H 248.292 3.71335 -0.453969 0
M  V30 2713 H 249.625 4.88798 -0.577736 0
M  V30 2714 N 251.277 0.427512 1.51691 0
M  V30 2715 C 252.523 -0.142439 2.02299 0
M  V30 2716 C 252.856 -1.43214 1.31162 0
M  V30 2717 O 252.131 -1.89833 0.423511 0
M  V30 2718 C 252.414 -0.371301 3.58181 0
M  V30 2719 C 252.267 0.936358 4.39946 0
M  V30 2720 C 253.586 -1.14542 4.24933 0
M  V30 2721 H 250.705 -0.0502937 0.735282 0
M  V30 2722 H 253.347 0.564584 1.81418 0
M  V30 2723 H 251.497 -0.973559 3.76104 0
M  V30 2724 H 253.169 1.57184 4.33694 0
M  V30 2725 H 251.412 1.5432 4.05423 0
M  V30 2726 H 252.083 0.730388 5.47147 0
M  V30 2727 H 254.559 -0.635362 4.11221 0
M  V30 2728 H 253.435 -1.27431 5.33903 0
M  V30 2729 H 253.696 -2.17093 3.85127 0
M  V30 2730 N 252.755 -1.56801 0.158532 0
M  V30 2731 C 254.166 -1.83189 -0.360366 0
M  V30 2732 C 254.517 -1.07778 -1.63946 0
M  V30 2733 O 253.642 -0.326718 -2.13919 0
M  V30 2734 C 254.237 -3.32297 -0.660595 0
M  V30 2735 C 252.796 -3.59227 -1.12398 0
M  V30 2736 C 251.943 -2.76877 -0.153097 0
M  V30 2737 H 254.894 -1.54008 0.383031 0
M  V30 2738 H 254.915 -3.4908 -1.51405 0
M  V30 2739 H 254.427 -3.87156 0.270527 0
M  V30 2740 H 252.528 -3.09766 -2.07064 0
M  V30 2741 H 252.641 -4.67632 -1.04197 0
M  V30 2742 H 251.005 -2.46319 -0.647983 0
M  V30 2743 H 251.788 -3.34511 0.77182 0
M  V30 2744 N 254.233 0.115231 -1.57178 0
M  V30 2745 C 255.51 0.852873 -1.76027 0
M  V30 2746 C 255.89 1.97892 -0.73498 0
M  V30 2747 O 255.238 2.27232 0.24036 0
M  V30 2748 C 255.448 1.36608 -3.21153 0
M  V30 2749 C 256.796 1.81692 -3.83762 0
M  V30 2750 O 257.82 1.46278 -3.24779 0
M  V30 2751 O 256.679 2.47104 -4.87444 0
M  V30 2752 H 253.773 0.405296 -0.720877 0
M  V30 2753 H 256.319 0.0986785 -1.69413 0
M  V30 2754 H 255.091 0.558357 -3.87296 0
M  V30 2755 H 254.714 2.18287 -3.3232 0
M  V30 2756 N 255.711 1.52812 0.385517 0
M  V30 2757 C 256.641 1.80808 1.47752 0
M  V30 2758 C 257.622 0.660318 1.5676 0
M  V30 2759 O 258.807 0.908246 1.71652 0
M  V30 2760 C 255.937 1.98008 2.85324 0
M  V30 2761 C 254.891 3.13709 2.91154 0
M  V30 2762 C 254.217 3.16169 4.31209 0
M  V30 2763 C 255.517 4.52709 2.60483 0
M  V30 2764 H 257.211 2.72253 1.24573 0
M  V30 2765 H 254.757 1.31003 0.597839 0
M  V30 2766 H 256.71 2.16176 3.61726 0
M  V30 2767 H 255.434 1.03255 3.09848 0
M  V30 2768 H 254.093 2.95329 2.17201 0
M  V30 2769 H 253.741 2.19092 4.52778 0
M  V30 2770 H 253.441 3.93894 4.36029 0
M  V30 2771 H 254.965 3.36496 5.09512 0
M  V30 2772 H 256.379 4.71173 3.26602 0
M  V30 2773 H 254.776 5.32528 2.76648 0
M  V30 2774 H 255.846 4.59186 1.55809 0
M  V30 2775 N 257.189 -0.644168 1.43834 0
M  V30 2776 C 258.6 -1.22554 1.40845 0
M  V30 2777 C 258.951 -1.9585 0.117115 0
M  V30 2778 O 258.076 -2.01734 -0.783086 0
M  V30 2779 C 258.671 -2.22907 2.55143 0
M  V30 2780 C 257.23 -2.76501 2.5539 0
M  V30 2781 C 256.377 -1.51287 2.32396 0
M  V30 2782 H 259.328 -0.43563 1.52604 0
M  V30 2783 H 259.349 -3.05259 2.2715 0
M  V30 2784 H 258.861 -1.69533 3.49114 0
M  V30 2785 H 256.962 -3.33914 1.65324 0
M  V30 2786 H 257.075 -3.23429 3.53455 0
M  V30 2787 H 255.439 -1.78957 1.81236 0
M  V30 2788 H 256.222 -0.998336 3.28463 0
M  V30 2789 N 258.668 -1.30515 -0.883378 0
M  V30 2790 C 260.079 -1.17509 -1.45081 0
M  V30 2791 C 260.43 0.223605 -1.94922 0
M  V30 2792 O 259.555 1.12041 -1.85137 0
M  V30 2793 C 260.15 -2.12715 -2.63701 0
M  V30 2794 C 258.709 -2.03682 -3.16529 0
M  V30 2795 C 257.856 -2.02706 -1.89224 0
M  V30 2796 H 260.807 -1.42762 -0.693165 0
M  V30 2797 H 260.828 -1.70891 -3.39965 0
M  V30 2798 H 260.34 -3.14505 -2.27395 0
M  V30 2799 H 258.441 -1.05039 -3.57488 0
M  V30 2800 H 258.554 -2.92146 -3.7972 0
M  V30 2801 H 256.918 -1.4753 -2.07622 0
M  V30 2802 H 257.701 -3.06229 -1.55174 0
M  V30 2803 N 260.146 1.09593 -1.13257 0
M  V30 2804 C 261.562 1.33775 -0.870423 0
M  V30 2805 C 261.762 1.95327 0.494926 0
M  V30 2806 O 260.818 2.19853 1.2418 0
M  V30 2807 C 262.131 2.25106 -1.99369 0
M  V30 2808 C 263.679 2.3862 -2.02558 0
M  V30 2809 C 264.154 3.33285 -3.14142 0
M  V30 2810 N 265.645 3.40857 -3.13641 0
M  V30 2811 C 266.38 4.14101 -3.96621 0
M  V30 2812 N 265.876 4.90157 -4.8961 0
M  V30 2813 N 267.669 4.09808 -3.84726 0
M  V30 2814 H 259.82 0.680136 -2.01216 0
M  V30 2815 H 262.083 0.362133 -0.876107 0
M  V30 2816 H 261.789 1.87103 -2.97801 0
M  V30 2817 H 261.663 3.25481 -1.90635 0
M  V30 2818 H 264.05 2.75887 -1.0474 0
M  V30 2819 H 264.131 1.38028 -2.15364 0
M  V30 2820 H 263.775 2.96741 -4.12198 0
M  V30 2821 H 263.705 4.33776 -2.98574 0
M  V30 2822 H 266.196 2.86624 -2.46282 0
M  V30 2823 H 266.509 5.4347 -5.49418 0
M  V30 2824 H 264.854 4.89251 -4.93617 0
M  V30 2825 H 268.045 3.4949 -3.11408 0
M  V30 2826 H 268.218 4.66629 -4.49623 0
M  V30 2827 N 261.624 0.925811 1.2754 0
M  V30 2828 C 262.571 0.422045 2.26908 0
M  V30 2829 C 263.541 -0.510029 1.58076 0
M  V30 2830 O 264.726 -0.429599 1.85901 0
M  V30 2831 C 261.866 -0.320837 3.43605 0
M  V30 2832 C 260.979 0.64513 4.27156 0
M  V30 2833 C 260.114 -0.117405 5.3107 0
M  V30 2834 C 259.153 0.841391 6.0629 0
M  V30 2835 N 258.29 0.111604 7.02011 0
M  V30 2836 H 263.13 1.27441 2.69375 0
M  V30 2837 H 260.667 0.639697 1.32462 0
M  V30 2838 H 262.625 -0.76785 4.10073 0
M  V30 2839 H 261.255 -1.13745 3.02096 0
M  V30 2840 H 260.307 1.21067 3.6062 0
M  V30 2841 H 261.619 1.37797 4.79389 0
M  V30 2842 H 260.773 -0.624422 6.03478 0
M  V30 2843 H 259.512 -0.883219 4.79636 0
M  V30 2844 H 258.517 1.35967 5.32722 0
M  V30 2845 H 259.742 1.60696 6.59813 0
M  V30 2846 H 257.688 -0.635999 6.5291 0
M  V30 2847 H 257.605 0.784044 7.51923 0
M  V30 2848 H 258.873 -0.374823 7.78598 0
M  V30 2849 N 263.102 -1.41638 0.69111 0
M  V30 2850 C 264.513 -1.84346 0.295517 0
M  V30 2851 C 264.864 -1.57833 -1.16547 0
M  V30 2852 O 263.989 -1.04648 -1.89414 0
M  V30 2853 C 264.584 -3.34636 0.529575 0
M  V30 2854 C 263.143 -3.7593 0.187944 0
M  V30 2855 C 262.29 -2.65082 0.814052 0
M  V30 2856 H 265.241 -1.31253 0.892092 0
M  V30 2857 H 265.262 -3.79903 -0.213148 0
M  V30 2858 H 264.774 -3.53901 1.59297 0
M  V30 2859 H 262.875 -3.62268 -0.871367 0
M  V30 2860 H 262.988 -4.74808 0.63985 0
M  V30 2861 H 261.352 -2.53528 0.244017 0
M  V30 2862 H 262.135 -2.87167 1.88123 0
M  V30 2863 N 264.58 -0.43555 -1.51462 0
M  V30 2864 C 265.53 0.394701 -2.24558 0
M  V30 2865 C 266.514 0.99157 -1.26715 0
M  V30 2866 O 267.706 0.910007 -1.51815 0
M  V30 2867 C 264.835 1.4963 -3.08975 0
M  V30 2868 C 263.921 0.908912 -4.14246 0
M  V30 2869 N 264.312 0.0505335 -5.05775 0
M  V30 2870 C 262.61 1.17668 -4.30198 0
M  V30 2871 C 263.311 -0.279161 -5.8103 0
M  V30 2872 N 262.287 0.336767 -5.42556 0
M  V30 2873 H 266.089 -0.267106 -2.92684 0
M  V30 2874 H 263.603 -0.247518 -1.60503 0
M  V30 2875 H 265.6 2.10394 -3.59917 0
M  V30 2876 H 264.26 2.16046 -2.42393 0
M  V30 2877 H 265.271 -0.31577 -5.16936 0
M  V30 2878 H 261.948 1.83847 -3.74842 0
M  V30 2879 H 263.338 -0.977553 -6.64751 0
M  V30 2880 N 266.058 1.56714 -0.166846 0
M  V30 2881 C 267.335 1.88412 0.525373 0
M  V30 2882 C 267.715 1.07602 1.81618 0
M  V30 2883 O 267.063 0.168621 2.27877 0
M  V30 2884 C 267.273 3.40363 0.771613 0
M  V30 2885 C 268.621 4.10007 1.1036 0
M  V30 2886 O 269.645 3.45655 0.860304 0
M  V30 2887 O 268.504 5.2369 1.56239 0
M  V30 2888 H 265.598 0.781587 0.270278 0
M  V30 2889 H 268.144 1.68458 -0.204946 0
M  V30 2890 H 266.916 3.91046 -0.141093 0
M  V30 2891 H 266.539 3.65914 1.55541 0
M  V30 2892 N 267.536 -0.106894 1.57237 0
M  V30 2893 C 268.776 -0.818277 1.87306 0
M  V30 2894 C 269.14 -1.76474 0.756371 0
M  V30 2895 O 270.341 -2.5186 0.939155 0
M  V30 2896 C 268.612 -1.53806 3.22612 0
M  V30 2897 S 270.171 -2.28935 3.74345 0
M  V30 2898 H 266.989 -0.272862 0.656557 0
M  V30 2899 H 269.591 -0.075988 1.95352 0
M  V30 2900 H 268.295 -0.834951 4.01817 0
M  V30 2901 H 267.826 -2.32049 3.17674 0
M  V30 2902 H 269.841 -3.54871 3.46815 0
M  V30 2903 N 269.014 -1.53014 -0.377408 0
M  V30 2904 C 270.26 -1.68872 -1.12294 0
M  V30 2905 C 270.593 -0.433224 -1.89306 0
M  V30 2906 O 269.868 0.569258 -1.85983 0
M  V30 2907 C 270.151 -2.93115 -2.09179 0
M  V30 2908 C 270.004 -4.28794 -1.35853 0
M  V30 2909 C 271.323 -3.12928 -3.09458 0
M  V30 2910 H 268.442 -0.614518 -0.406862 0
M  V30 2911 H 271.084 -1.85633 -0.40503 0
M  V30 2912 H 269.234 -2.78956 -2.70399 0
M  V30 2913 H 270.906 -4.54742 -0.775082 0
M  V30 2914 H 269.149 -4.28744 -0.660364 0
M  V30 2915 H 269.82 -5.11837 -2.06706 0
M  V30 2916 H 272.296 -3.26194 -2.58334 0
M  V30 2917 H 271.172 -4.01316 -3.74482 0
M  V30 2918 H 271.433 -2.27669 -3.78971 0
M  V30 2919 N 270.492 0.636531 -1.44174 0
M  V30 2920 C 271.903 1.21806 -1.41493 0
M  V30 2921 C 272.254 1.95785 -0.1275 0
M  V30 2922 O 271.379 2.02147 0.772376 0
M  V30 2923 C 271.974 2.21551 -2.56321 0
M  V30 2924 C 270.533 2.75143 -2.56853 0
M  V30 2925 C 269.68 1.50052 -2.33195 0
M  V30 2926 H 272.631 0.427531 -1.52833 0
M  V30 2927 H 272.652 3.0405 -2.28765 0
M  V30 2928 H 272.164 1.67679 -3.50008 0
M  V30 2929 H 270.265 3.33033 -1.67093 0
M  V30 2930 H 270.378 3.2155 -3.55165 0
M  V30 2931 H 268.742 1.77993 -1.82183 0
M  V30 2932 H 269.525 0.980903 -3.28988 0
M  V30 2933 N 271.97 1.30982 0.876444 0
M  V30 2934 C 273.198 1.23242 1.6619 0
M  V30 2935 C 273.613 -0.203345 1.87702 0
M  V30 2936 O 272.97 -1.13317 1.43057 0
M  V30 2937 C 273.021 1.96623 3.03351 0
M  V30 2938 O 272.742 3.34594 2.82804 0
M  V30 2939 C 274.243 1.95644 3.97792 0
M  V30 2940 H 271.463 0.426126 0.518322 0
M  V30 2941 H 274.007 1.7275 1.09442 0
M  V30 2942 H 272.162 1.50892 3.56806 0
M  V30 2943 H 272.576 3.71873 3.69879 0
M  V30 2944 H 274.05 2.51511 4.91372 0
M  V30 2945 H 274.527 0.937395 4.2908 0
M  V30 2946 H 275.133 2.41225 3.50272 0
M  V30 2947 N 273.449 -1.08991 1.13837 0
M  V30 2948 C 274.865 -1.33312 0.877506 0
M  V30 2949 C 275.065 -1.95587 -0.48456 0
M  V30 2950 O 274.121 -2.20509 -1.23013 0
M  V30 2951 C 275.434 -2.24045 2.0056 0
M  V30 2952 C 276.982 -2.37542 2.03821 0
M  V30 2953 C 277.457 -3.31614 3.15905 0
M  V30 2954 N 278.948 -3.39189 3.15445 0
M  V30 2955 C 279.683 -4.11992 3.98811 0
M  V30 2956 N 279.179 -4.87553 4.92203 0
M  V30 2957 N 280.972 -4.07762 3.86894 0
M  V30 2958 H 273.123 -0.669456 2.01574 0
M  V30 2959 H 275.386 -0.357482 0.878015 0
M  V30 2960 H 275.092 -1.85521 2.98789 0
M  V30 2961 H 274.966 -3.24466 1.92359 0
M  V30 2962 H 277.353 -2.75327 1.06202 0
M  V30 2963 H 277.434 -1.36884 2.16093 0
M  V30 2964 H 277.078 -2.94551 4.13766 0
M  V30 2965 H 277.008 -4.32186 3.0087 0
M  V30 2966 H 279.499 -2.85314 2.47799 0
M  V30 2967 H 279.812 -5.40549 5.52292 0
M  V30 2968 H 278.157 -4.86627 4.96205 0
M  V30 2969 H 281.348 -3.47833 3.13257 0
M  V30 2970 H 281.521 -4.64238 4.52092 0
M  V30 2971 N 274.927 -0.932562 -1.27047 0
M  V30 2972 C 275.89 -0.440064 -2.24936 0
M  V30 2973 C 276.89 0.444071 -1.54547 0
M  V30 2974 O 278.08 0.244465 -1.72476 0
M  V30 2975 C 275.212 0.36678 -3.38921 0
M  V30 2976 H 276.405 -1.305 -2.70018 0
M  V30 2977 H 273.958 -0.713707 -1.39054 0
M  V30 2978 H 274.693 1.25033 -2.99228 0
M  V30 2979 H 274.478 -0.267204 -3.91188 0
M  V30 2980 H 275.968 0.701567 -4.11665 0
M  V30 2981 N 276.405 1.4127 -0.698611 0
M  V30 2982 C 277.682 1.94955 -0.158762 0
M  V30 2983 C 278.062 1.63781 1.33188 0
M  V30 2984 O 277.41 0.946423 2.07979 0
M  V30 2985 C 277.62 3.46044 -0.453309 0
M  V30 2986 C 278.968 4.22872 -0.382707 0
M  V30 2987 O 279.992 3.54076 -0.388396 0
M  V30 2988 O 278.851 5.45407 -0.345463 0
M  V30 2989 H 275.945 0.82683 -0.0167505 0
M  V30 2990 H 278.491 1.50971 -0.77498 0
M  V30 2991 H 277.263 3.62028 -1.48498 0
M  V30 2992 H 276.886 3.97128 0.19373 0
M  V30 2993 N 277.883 0.443576 1.51229 0
M  V30 2994 C 279.299 0.0962001 1.5931 0
M  V30 2995 C 279.499 -1.39501 1.45402 0
M  V30 2996 O 278.555 -2.16557 1.29843 0
M  V30 2997 C 279.868 0.621875 2.94199 0
M  V30 2998 C 281.416 0.582865 3.07525 0
M  V30 2999 C 281.891 1.08562 4.44948 0
M  V30 3000 N 283.382 1.04387 4.51284 0
M  V30 3001 C 284.117 1.40368 5.55954 0
M  V30 3002 N 283.613 1.83664 6.68011 0
M  V30 3003 N 285.406 1.32145 5.46346 0
M  V30 3004 H 277.557 1.41376 1.58514 0
M  V30 3005 H 279.82 0.582965 0.747567 0
M  V30 3006 H 279.526 1.66546 3.09767 0
M  V30 3007 H 279.4 0.0502125 3.77167 0
M  V30 3008 H 281.787 -0.451749 2.91622 0
M  V30 3009 H 281.868 1.191 2.26382 0
M  V30 3010 H 281.512 2.11873 4.61598 0
M  V30 3011 H 281.442 0.453956 5.2464 0
M  V30 3012 H 283.933 0.725986 3.70861 0
M  V30 3013 H 284.246 2.0934 7.43906 0
M  V30 3014 H 282.591 1.87596 6.69203 0
M  V30 3015 H 285.782 0.981808 4.57688 0
M  V30 3016 H 285.955 1.60514 6.27805 0
M  V30 3017 N 279.361 -1.56624 0.175154 0
M  V30 3018 C 280.61 -1.96173 -0.468921 0
M  V30 3019 C 280.923 -1.06401 -1.64128 0
M  V30 3020 O 282.129 -1.35648 -2.35185 0
M  V30 3021 C 280.585 -3.48833 -0.885633 0
M  V30 3022 C 280.193 -4.47237 0.261343 0
M  V30 3023 C 281.937 -3.97194 -1.49791 0
M  V30 3024 C 279.844 -5.9114 -0.175214 0
M  V30 3025 H 278.774 -0.732455 -0.178958 0
M  V30 3026 H 281.425 -1.81591 0.263997 0
M  V30 3027 H 279.807 -3.58848 -1.67464 0
M  V30 3028 H 280.981 -4.4894 1.03871 0
M  V30 3029 H 279.296 -4.08956 0.783827 0
M  V30 3030 H 281.893 -5.02167 -1.83665 0
M  V30 3031 H 282.236 -3.40351 -2.39722 0
M  V30 3032 H 282.769 -3.90212 -0.773267 0
M  V30 3033 H 279.508 -6.51865 0.689414 0
M  V30 3034 H 279.028 -5.92735 -0.91786 0
M  V30 3035 H 280.707 -6.44044 -0.617792 0
M  V30 3036 N 280.839 0.0985539 -1.57292 0
M  V30 3037 C 281.802 1.10402 -2.00858 0
M  V30 3038 C 282.802 1.33146 -0.901593 0
M  V30 3039 O 283.992 1.29318 -1.16716 0
M  V30 3040 C 281.124 2.45394 -2.36632 0
M  V30 3041 H 282.317 0.729099 -2.90902 0
M  V30 3042 H 279.87 0.343495 -1.52479 0
M  V30 3043 H 280.605 2.87769 -1.49531 0
M  V30 3044 H 280.39 2.30235 -3.17387 0
M  V30 3045 H 281.88 3.17718 -2.71007 0
M  V30 3046 N 282.317 1.53212 0.369288 0
M  V30 3047 C 283.247 1.82365 1.45826 0
M  V30 3048 C 284.228 0.676907 1.56051 0
M  V30 3049 O 285.413 0.926401 1.70679 0
M  V30 3050 C 282.543 2.01023 2.83208 0
M  V30 3051 C 281.497 3.1678 2.8781 0
M  V30 3052 C 280.823 3.20724 4.27832 0
M  V30 3053 C 282.123 4.55447 2.55667 0
M  V30 3054 H 283.817 2.73559 1.21678 0
M  V30 3055 H 281.363 1.3163 0.583911 0
M  V30 3056 H 283.316 2.20001 3.59413 0
M  V30 3057 H 282.04 1.06536 3.08736 0
M  V30 3058 H 280.699 2.97616 2.14056 0
M  V30 3059 H 280.347 2.23882 4.50429 0
M  V30 3060 H 280.047 3.98496 4.31827 0
M  V30 3061 H 281.571 3.41881 5.05915 0
M  V30 3062 H 282.985 4.74611 3.21586 0
M  V30 3063 H 281.382 5.35432 2.70984 0
M  V30 3064 H 282.452 4.60812 1.5093 0
M  V30 3065 N 283.795 -0.628877 1.44509 0
M  V30 3066 C 284.725 -1.75187 1.54376 0
M  V30 3067 C 285.706 -1.65411 0.396618 0
M  V30 3068 O 286.891 -1.84137 0.617031 0
M  V30 3069 C 284.021 -3.13725 1.48976 0
M  V30 3070 C 282.975 -3.38291 2.62189 0
M  V30 3071 C 282.301 -4.76883 2.41841 0
M  V30 3072 C 283.601 -3.30632 4.04326 0
M  V30 3073 H 285.295 -1.67187 2.48373 0
M  V30 3074 H 282.841 -0.802909 1.19538 0
M  V30 3075 H 284.794 -3.92064 1.54478 0
M  V30 3076 H 283.518 -3.22515 0.514961 0
M  V30 3077 H 282.177 -2.62334 2.56079 0
M  V30 3078 H 281.825 -4.82378 1.42548 0
M  V30 3079 H 281.525 -4.94278 3.17747 0
M  V30 3080 H 283.049 -5.57449 2.49165 0
M  V30 3081 H 284.463 -3.98873 4.11793 0
M  V30 3082 H 282.86 -3.59561 4.80454 0
M  V30 3083 H 283.93 -2.28404 4.27738 0
M  V30 3084 N 285.273 -1.31445 -0.869486 0
M  V30 3085 C 286.183 -1.21097 -2.0093 0
M  V30 3086 C 287.199 -0.127584 -1.73532 0
M  V30 3087 O 288.375 -0.345477 -1.98415 0
M  V30 3088 C 285.44 -0.919378 -3.34288 0
M  V30 3089 C 284.501 -2.08971 -3.75006 0
M  V30 3090 C 283.734 -1.81194 -5.02001 0
M  V30 3091 O 283.957 -0.747296 -5.65484 0
M  V30 3092 O 282.891 -2.66883 -5.39497 0
M  V30 3093 H 286.717 -2.16883 -2.12592 0
M  V30 3094 H 284.302 -1.11189 -0.997868 0
M  V30 3095 H 286.184 -0.772625 -4.14257 0
M  V30 3096 H 284.859 0.00844772 -3.23699 0
M  V30 3097 H 283.766 -2.29187 -2.95676 0
M  V30 3098 H 285.099 -2.9998 -3.90221 0
M  V30 3099 N 286.751 1.08385 -1.14413 0
M  V30 3100 C 287.999 1.80419 -0.910679 0
M  V30 3101 C 288.32 1.86658 0.564243 0
M  V30 3102 O 287.59 1.35985 1.41014 0
M  V30 3103 H 286.17 0.668204 -0.333934 0
M  V30 3104 H 288.832 1.31037 -1.44275 0
M  V30 3105 H 287.928 2.83238 -1.31082 0
M  V30 3106 N 288.23 0.939286 1.26551 0
M  V30 3107 C 289.477 0.585847 1.9384 0
M  V30 3108 C 289.805 -0.874784 1.73718 0
M  V30 3109 O 289.06 -1.64092 1.06642 0
M  V30 3110 C 289.359 0.872106 3.46596 0
M  V30 3111 C 289.025 2.31632 3.86856 0
M  V30 3112 C 287.687 2.71111 3.97558 0
M  V30 3113 C 290.039 3.25494 4.07066 0
M  V30 3114 C 287.367 4.03553 4.25866 0
M  V30 3115 C 289.719 4.57531 4.36862 0
M  V30 3116 C 288.383 4.96828 4.45778 0
M  V30 3117 H 287.653 0.214377 0.709312 0
M  V30 3118 H 290.3 1.18544 1.50398 0
M  V30 3119 H 288.605 0.18996 3.91339 0
M  V30 3120 H 290.302 0.577442 3.96821 0
M  V30 3121 H 286.892 2.00008 3.79071 0
M  V30 3122 H 291.076 2.9619 3.98227 0
M  V30 3123 H 286.332 4.33665 4.30981 0
M  V30 3124 H 290.506 5.30254 4.51446 0
M  V30 3125 H 288.133 5.99482 4.67468 0
M  V30 3126 N 289.708 -1.40897 0.706093 0
M  V30 3127 C 290.656 -2.32572 0.0361893 0
M  V30 3128 C 291.65 -1.51532 -0.757266 0
M  V30 3129 O 292.856 -1.67396 -0.661703 0
M  V30 3130 H 289.231 -0.751966 -0.00709935 0
M  V30 3131 H 291.202 -2.86733 0.826249 0
M  V30 3132 C 289.951 -3.36418 -0.87854 0
M  V30 3133 H 289.274 -3.98836 -0.277401 0
M  V30 3134 H 290.714 -4.0308 -1.3154 0
M  V30 3135 C 289.173 -2.71141 -1.99961 0
M  V30 3136 O 289.703 -2.56735 -3.0895 0
M  V30 3137 N 287.909 -2.29671 -1.78043 0
M  V30 3138 H 287.456 -2.41588 -0.894042 0
M  V30 3139 H 287.414 -1.86332 -2.53235 0
M  V30 3140 N 291.186 -0.45159 -1.50991 0
M  V30 3141 C 292.433 0.110074 -2.02201 0
M  V30 3142 C 292.761 1.4146 -1.33489 0
M  V30 3143 O 292.016 1.90617 -0.443125 0
M  V30 3144 C 292.315 0.361728 -3.55565 0
M  V30 3145 C 291.981 -0.858717 -4.42648 0
M  V30 3146 C 290.643 -1.19338 -4.66167 0
M  V30 3147 C 292.995 -1.67221 -4.93646 0
M  V30 3148 C 290.323 -2.34195 -5.37931 0
M  V30 3149 C 292.675 -2.8119 -5.6667 0
M  V30 3150 C 291.339 -3.15094 -5.88449 0
M  V30 3151 H 290.609 0.040279 -0.739904 0
M  V30 3152 H 293.256 -0.601696 -1.81802 0
M  V30 3153 H 291.561 1.15554 -3.74372 0
M  V30 3154 H 293.258 0.80996 -3.92735 0
M  V30 3155 H 289.848 -0.58796 -4.24548 0
M  V30 3156 H 294.032 -1.42686 -4.75347 0
M  V30 3157 H 289.288 -2.6076 -5.53005 0
M  V30 3158 H 293.462 -3.44585 -6.05173 0
M  V30 3159 H 291.089 -4.04204 -6.43835 0
M  V30 3160 N 292.664 1.56529 -0.183458 0
M  V30 3161 C 293.614 2.1515 0.754605 0
M  V30 3162 C 294.598 1.08904 1.18443 0
M  V30 3163 O 295.79 1.34997 1.14476 0
M  V30 3164 C 292.919 2.80531 1.97881 0
M  V30 3165 C 292.005 3.93952 1.57043 0
M  V30 3166 N 292.396 4.98221 0.87231 0
M  V30 3167 C 290.694 4.05338 1.86057 0
M  V30 3168 C 291.395 5.77836 0.669377 0
M  V30 3169 N 290.371 5.29858 1.21454 0
M  V30 3170 H 294.173 2.93132 0.212387 0
M  V30 3171 H 291.687 1.62391 0.0167725 0
M  V30 3172 H 293.684 3.20914 2.6612 0
M  V30 3173 H 292.344 2.04035 2.52586 0
M  V30 3174 H 293.355 5.15191 0.529033 0
M  V30 3175 H 290.032 3.39957 2.42354 0
M  V30 3176 H 291.422 6.71799 0.116422 0
M  V30 3177 N 294.142 -0.090211 1.57342 0
M  V30 3178 C 295.388 -0.788838 1.8748 0
M  V30 3179 C 295.743 -1.76105 0.7749 0
M  V30 3180 O 295.036 -1.90302 -0.222663 0
M  V30 3181 C 295.23 -1.55222 3.21933 0
M  V30 3182 C 295.059 -0.655441 4.44898 0
M  V30 3183 C 293.829 -0.299325 5.04413 0
M  V30 3184 C 296.027 0.0397458 5.14285 0
M  V30 3185 N 294.009 0.605108 6.10911 0
M  V30 3186 C 295.38 0.802061 6.1479 0
M  V30 3187 C 297.435 0.113154 4.97771 0
M  V30 3188 C 296.138 1.63093 7.00566 0
M  V30 3189 C 298.164 0.928942 5.84059 0
M  V30 3190 C 297.526 1.67936 6.84088 0
M  V30 3191 H 293.625 -0.26467 0.735849 0
M  V30 3192 H 296.209 -0.0511453 1.94633 0
M  V30 3193 H 294.38 -2.26076 3.15823 0
M  V30 3194 H 296.112 -2.19843 3.39781 0
M  V30 3195 H 292.867 -0.648079 4.69145 0
M  V30 3196 H 293.291 1.05002 6.68808 0
M  V30 3197 H 297.933 -0.452676 4.2037 0
M  V30 3198 H 295.651 2.20781 7.77355 0
M  V30 3199 H 299.237 0.988478 5.73341 0
M  V30 3200 H 298.117 2.30044 7.49699 0
M  V30 3201 N 295.62 -1.53406 -0.361157 0
M  V30 3202 C 297.036 -1.43277 -0.703124 0
M  V30 3203 C 297.236 -0.575384 -1.9311 0
M  V30 3204 O 296.292 -0.0595362 -2.5243 0
M  V30 3205 C 297.605 -2.8653 -0.9122 0
M  V30 3206 C 299.153 -2.96191 -1.01193 0
M  V30 3207 C 299.628 -4.40514 -1.25345 0
M  V30 3208 N 301.119 -4.43962 -1.32105 0
M  V30 3209 C 301.854 -5.52746 -1.5251 0
M  V30 3210 N 301.35 -6.71567 -1.70203 0
M  V30 3211 N 303.143 -5.40331 -1.54916 0
M  V30 3212 H 295.294 -2.07654 0.446475 0
M  V30 3213 H 297.557 -0.937944 0.137715 0
M  V30 3214 H 297.263 -3.51605 -0.0816414 0
M  V30 3215 H 297.137 -3.30441 -1.81903 0
M  V30 3216 H 299.524 -2.31266 -1.83303 0
M  V30 3217 H 299.605 -2.55667 -0.0823929 0
M  V30 3218 H 299.249 -5.06014 -0.437346 0
M  V30 3219 H 299.179 -4.78614 -2.19627 0
M  V30 3220 H 301.67 -3.58332 -1.20028 0
M  V30 3221 H 301.983 -7.50241 -1.85359 0
M  V30 3222 H 300.328 -6.74545 -1.67373 0
M  V30 3223 H 303.519 -4.46465 -1.40663 0
M  V30 3224 H 303.692 -6.25173 -1.70477 0
M  V30 3225 N 297.098 0.621204 -1.44841 0
M  V30 3226 C 298.375 1.38 -1.38619 0
M  V30 3227 C 298.755 2.11041 -0.0498935 0
M  V30 3228 O 298.103 2.06992 0.967816 0
M  V30 3229 C 298.313 2.33817 -2.59096 0
M  V30 3230 C 299.661 2.96844 -3.03593 0
M  V30 3231 O 300.685 2.44141 -2.59371 0
M  V30 3232 O 299.544 3.92476 -3.80296 0
M  V30 3233 H 296.638 0.61811 -0.549426 0
M  V30 3234 H 299.184 0.645429 -1.56947 0
M  V30 3235 H 297.956 1.79012 -3.47952 0
M  V30 3236 H 297.579 3.14676 -2.43032 0
M  V30 3237 N 298.576 1.31904 0.862503 0
M  V30 3238 C 299.822 1.23207 1.61838 0
M  V30 3239 C 300.177 -0.206062 1.91293 0
M  V30 3240 O 299.47 -1.14162 1.53875 0
M  V30 3241 C 299.664 2.01713 2.95037 0
M  V30 3242 C 299.493 3.53014 2.78588 0
M  V30 3243 C 298.263 4.22359 2.77382 0
M  V30 3244 C 300.461 4.47819 2.52909 0
M  V30 3245 N 298.443 5.59766 2.52062 0
M  V30 3246 C 299.814 5.72947 2.36922 0
M  V30 3247 C 301.869 4.37162 2.38314 0
M  V30 3248 C 300.572 6.88623 2.07823 0
M  V30 3249 C 302.598 5.5263 2.10604 0
M  V30 3250 C 301.96 6.76752 1.95411 0
M  V30 3251 H 298.059 0.505984 0.596242 0
M  V30 3252 H 300.643 1.66179 1.01452 0
M  V30 3253 H 298.814 1.61098 3.53415 0
M  V30 3254 H 300.546 1.84975 3.59953 0
M  V30 3255 H 297.301 3.74401 2.90036 0
M  V30 3256 H 297.725 6.32135 2.42352 0
M  V30 3257 H 302.367 3.41857 2.48784 0
M  V30 3258 H 300.085 7.83948 1.9609 0
M  V30 3259 H 303.671 5.46307 2.00101 0
M  V30 3260 H 302.551 7.6459 1.74274 0
M  V30 3261 N 300.054 -1.07777 1.14986 0
M  V30 3262 C 301.282 -1.84018 0.945773 0
M  V30 3263 C 301.697 -1.81897 -0.505863 0
M  V30 3264 O 301.054 -1.22726 -1.35072 0
M  V30 3265 C 301.105 -3.31287 1.44677 0
M  V30 3266 O 300.826 -3.33449 2.84154 0
M  V30 3267 C 302.327 -4.24311 1.28355 0
M  V30 3268 H 299.547 -0.580716 0.336169 0
M  V30 3269 H 302.091 -1.36077 1.52654 0
M  V30 3270 H 300.246 -3.76594 0.908625 0
M  V30 3271 H 300.66 -4.25427 3.06777 0
M  V30 3272 H 302.134 -5.2573 1.68261 0
M  V30 3273 H 302.611 -4.38612 0.227184 0
M  V30 3274 H 303.217 -3.84836 1.81056 0
M  V30 3275 N 301.532 -0.945985 -1.26051 0
M  V30 3276 C 302.762 -0.612136 -1.97323 0
M  V30 3277 C 303.17 0.818171 -1.70595 0
M  V30 3278 O 302.513 1.55777 -0.973613 0
M  V30 3279 C 302.575 -0.780347 -3.50929 0
M  V30 3280 C 302.239 -2.18619 -4.01317 0
M  V30 3281 C 303.236 -3.16209 -4.12683 0
M  V30 3282 C 300.921 -2.50805 -4.35203 0
M  V30 3283 C 302.915 -4.44085 -4.57238 0
M  V30 3284 C 300.602 -3.78912 -4.79446 0
M  V30 3285 C 301.6 -4.75365 -4.90425 0
M  V30 3286 O 301.288 -6.01191 -5.3369 0
M  V30 3287 H 301.02 -0.229134 -0.635982 0
M  V30 3288 H 303.574 -1.27036 -1.61404 0
M  V30 3289 H 301.804 -0.0649864 -3.86645 0
M  V30 3290 H 303.493 -0.448842 -4.03411 0
M  V30 3291 H 304.259 -2.92668 -3.86744 0
M  V30 3292 H 300.138 -1.76463 -4.2589 0
M  V30 3293 H 303.682 -5.19373 -4.65723 0
M  V30 3294 H 299.579 -4.02265 -5.0483 0
M  V30 3295 H 300.347 -6.04442 -5.51899 0
M  V30 3296 N 303.011 1.40521 -0.713556 0
M  V30 3297 C 304.427 1.54839 -0.386907 0
M  V30 3298 C 304.627 1.68532 1.1045 0
M  V30 3299 O 303.683 1.67377 1.89053 0
M  V30 3300 C 304.996 2.77792 -1.15118 0
M  V30 3301 C 306.544 2.91607 -1.13729 0
M  V30 3302 C 307.019 4.1747 -1.88368 0
M  V30 3303 N 308.51 4.24466 -1.85427 0
M  V30 3304 C 309.245 5.20755 -2.40004 0
M  V30 3305 N 308.741 6.22965 -3.03129 0
M  V30 3306 N 310.534 5.1282 -2.30158 0
M  V30 3307 H 302.685 1.29879 -1.68063 0
M  V30 3308 H 304.948 0.627896 -0.710247 0
M  V30 3309 H 304.654 2.73944 -2.20561 0
M  V30 3310 H 304.528 3.6984 -0.741477 0
M  V30 3311 H 306.915 2.94959 -0.0910608 0
M  V30 3312 H 306.996 2.00682 -1.5862 0
M  V30 3313 H 306.64 4.1488 -2.9298 0
M  V30 3314 H 306.57 5.074 -1.40898 0
M  V30 3315 H 309.061 3.51241 -1.3942 0
M  V30 3316 H 309.374 6.92859 -3.42295 0
M  V30 3317 H 307.719 6.23415 -3.07212 0
M  V30 3318 H 310.91 4.31899 -1.80501 0
M  V30 3319 H 311.083 5.87689 -2.72993 0
M  V30 3320 N 304.489 0.459591 1.5075 0
M  V30 3321 C 305.766 -0.160371 1.94941 0
M  V30 3322 C 306.146 -1.58048 1.39943 0
M  V30 3323 O 305.494 -2.206 0.595629 0
M  V30 3324 C 305.704 -0.115432 3.48809 0
M  V30 3325 C 307.052 -0.310026 4.23467 0
M  V30 3326 O 308.076 -0.192543 3.55679 0
M  V30 3327 O 306.935 -0.546031 5.43765 0
M  V30 3328 H 304.029 -0.117925 0.818549 0
M  V30 3329 H 306.575 0.519169 1.61563 0
M  V30 3330 H 305.347 0.87652 3.81357 0
M  V30 3331 H 304.97 -0.836928 3.88692 0
M  V30 3332 N 305.967 -1.56429 0.191757 0
M  V30 3333 C 306.93 -2.17707 -0.716688 0
M  V30 3334 C 307.93 -1.13061 -1.14341 0
M  V30 3335 O 309.12 -1.38464 -1.05704 0
M  V30 3336 C 306.252 -2.77644 -1.97804 0
M  V30 3337 H 307.445 -2.99342 -0.1829 0
M  V30 3338 H 304.998 -1.56193 -0.0578566 0
M  V30 3339 H 305.733 -1.99799 -2.55443 0
M  V30 3340 H 305.518 -3.54246 -1.68083 0
M  V30 3341 H 307.008 -3.24708 -2.62592 0
M  V30 3342 N 307.445 0.0818655 -1.57387 0
M  V30 3343 C 308.691 0.784074 -1.8703 0
M  V30 3344 C 309.024 1.77729 -0.782689 0
M  V30 3345 O 308.299 1.93384 0.208051 0
M  V30 3346 C 308.582 1.50105 -3.27323 0
M  V30 3347 C 308.435 0.524925 -4.46727 0
M  V30 3348 C 309.754 2.44843 -3.65705 0
M  V30 3349 H 306.873 0.283582 -0.680257 0
M  V30 3350 H 309.515 0.0474352 -1.89941 0
M  V30 3351 H 307.665 2.12897 -3.24972 0
M  V30 3352 H 309.337 -0.0970111 -4.61198 0
M  V30 3353 H 307.58 -0.160606 -4.33503 0
M  V30 3354 H 308.251 1.064 -5.41648 0
M  V30 3355 H 310.727 1.92135 -3.69085 0
M  V30 3356 H 309.603 2.92018 -4.64776 0
M  V30 3357 H 309.864 3.29197 -2.95096 0
M  V30 3358 N 308.923 1.53595 0.353017 0
M  V30 3359 C 310.151 1.74311 1.1146 0
M  V30 3360 C 310.566 0.477854 1.82653 0
M  V30 3361 O 309.923 -0.549977 1.74016 0
M  V30 3362 C 309.974 2.91694 2.13534 0
M  V30 3363 O 309.695 4.13325 1.45238 0
M  V30 3364 C 311.196 3.24384 3.02142 0
M  V30 3365 H 308.416 0.582669 0.332773 0
M  V30 3366 H 310.96 2.00386 0.408107 0
M  V30 3367 H 309.115 2.67977 2.79763 0
M  V30 3368 H 309.529 4.79148 2.13349 0
M  V30 3369 H 311.003 4.09893 3.69718 0
M  V30 3370 H 311.48 2.40282 3.67643 0
M  V30 3371 H 312.086 3.50073 2.41514 0
M  V30 3372 N 310.401 -0.613514 1.45168 0
M  V30 3373 C 311.812 -1.19539 1.43413 0
M  V30 3374 C 312.163 -1.95558 0.158632 0
M  V30 3375 O 311.288 -2.0335 -0.740119 0
M  V30 3376 C 311.883 -2.17445 2.59813 0
M  V30 3377 C 310.442 -2.71022 2.61197 0
M  V30 3378 C 309.589 -1.46323 2.35552 0
M  V30 3379 H 312.54 -0.403163 1.53494 0
M  V30 3380 H 312.561 -3.00373 2.33574 0
M  V30 3381 H 312.073 -1.62089 3.52631 0
M  V30 3382 H 310.174 -3.30332 1.7237 0
M  V30 3383 H 310.287 -3.15859 3.60236 0
M  V30 3384 H 308.651 -1.75072 1.84992 0
M  V30 3385 H 309.434 -0.92844 3.30507 0
M  V30 3386 N 311.879 -1.3236 -0.855495 0
M  V30 3387 C 312.811 -1.17052 -1.97057 0
M  V30 3388 C 313.824 -0.10574 -1.62456 0
M  V30 3389 O 315.013 -0.354619 -1.74942 0
M  V30 3390 C 312.113 -0.769305 -3.30053 0
M  V30 3391 C 311.286 -1.9222 -3.929 0
M  V30 3392 C 310.345 -1.50466 -5.04228 0
M  V30 3393 O 309.371 -2.21655 -5.24269 0
M  V30 3394 N 310.573 -0.400209 -5.79119 0
M  V30 3395 H 313.338 -2.13103 -2.1073 0
M  V30 3396 H 310.899 -1.24885 -1.0303 0
M  V30 3397 H 312.891 -0.472407 -4.01933 0
M  V30 3398 H 311.461 0.100025 -3.1244 0
M  V30 3399 H 310.681 -2.38563 -3.13817 0
M  V30 3400 H 311.969 -2.69403 -4.31624 0
M  V30 3401 H 311.367 0.192319 -5.65373 0
M  V30 3402 H 309.924 -0.162912 -6.51596 0
M  V30 3403 N 313.357 1.07166 -1.15556 0
M  V30 3404 C 314.267 2.17947 -0.868116 0
M  V30 3405 C 315.283 1.73297 0.156297 0
M  V30 3406 O 316.459 2.01392 -0.0182327 0
M  V30 3407 C 313.524 3.44789 -0.36355 0
M  V30 3408 C 312.585 4.03996 -1.45209 0
M  V30 3409 C 311.818 5.24783 -0.971508 0
M  V30 3410 O 312.041 5.70109 0.182194 0
M  V30 3411 O 310.975 5.75715 -1.75603 0
M  V30 3412 H 314.801 2.4503 -1.79427 0
M  V30 3413 H 312.386 1.16539 -0.934824 0
M  V30 3414 H 314.268 4.21307 -0.0887113 0
M  V30 3415 H 312.943 3.19253 0.534708 0
M  V30 3416 H 311.85 3.29009 -1.78056 0
M  V30 3417 H 313.183 4.33808 -2.32533 0
M  V30 3418 N 314.835 0.952656 1.25548 0
M  V30 3419 C 316.251 0.656769 1.4546 0
M  V30 3420 C 316.451 -0.78633 1.85524 0
M  V30 3421 O 315.507 -1.56183 1.98402 0
M  V30 3422 C 316.82 1.62801 2.52817 0
M  V30 3423 C 318.368 1.63897 2.66659 0
M  V30 3424 C 318.843 2.5978 3.77198 0
M  V30 3425 N 320.334 2.58133 3.84606 0
M  V30 3426 C 321.069 3.29003 4.69621 0
M  V30 3427 N 320.565 4.09339 5.58939 0
M  V30 3428 N 322.358 3.179 4.63569 0
M  V30 3429 H 314.509 1.88526 0.978344 0
M  V30 3430 H 316.772 0.810815 0.491206 0
M  V30 3431 H 316.478 2.65869 2.30232 0
M  V30 3432 H 316.352 1.38898 3.50695 0
M  V30 3433 H 318.739 0.615481 2.8861 0
M  V30 3434 H 318.82 1.91858 1.69187 0
M  V30 3435 H 318.464 3.62254 3.55997 0
M  V30 3436 H 318.394 2.29105 4.7415 0
M  V30 3437 H 320.885 1.99809 3.20757 0
M  V30 3438 H 321.198 4.6034 6.20731 0
M  V30 3439 H 319.543 4.13438 5.58654 0
M  V30 3440 H 322.734 2.54612 3.92798 0
M  V30 3441 H 322.907 3.73398 5.29602 0
M  V30 3442 N 316.313 -1.40141 0.720998 0
M  V30 3443 C 317.543 -2.04798 0.27226 0
M  V30 3444 C 317.951 -1.54442 -1.09289 0
M  V30 3445 O 317.294 -0.698342 -1.69908 0
M  V30 3446 C 317.356 -3.59048 0.18027 0
M  V30 3447 C 317.02 -4.32317 1.48159 0
M  V30 3448 C 318.017 -4.59902 2.42458 0
M  V30 3449 C 315.702 -4.71125 1.74202 0
M  V30 3450 C 317.696 -5.25288 3.61042 0
M  V30 3451 C 315.383 -5.36242 2.93066 0
M  V30 3452 C 316.381 -5.63254 3.86308 0
M  V30 3453 O 316.069 -6.27024 5.03086 0
M  V30 3454 H 315.801 -0.665419 0.119139 0
M  V30 3455 H 318.355 -1.80436 0.981432 0
M  V30 3456 H 316.585 -3.82251 -0.58489 0
M  V30 3457 H 318.274 -4.05221 -0.234618 0
M  V30 3458 H 319.04 -4.30379 2.23604 0
M  V30 3459 H 314.919 -4.49466 1.02477 0
M  V30 3460 H 318.463 -5.46289 4.33837 0
M  V30 3461 H 314.36 -5.65185 3.11826 0
M  V30 3462 H 315.128 -6.4552 5.03235 0
M  V30 3463 N 317.792 -0.46758 -1.50504 0
M  V30 3464 C 319.017 0.0886943 -2.0721 0
M  V30 3465 C 319.442 1.33057 -1.32956 0
M  V30 3466 O 318.8 1.77354 -0.376197 0
M  V30 3467 C 318.848 0.359202 -3.58806 0
M  V30 3468 O 317.952 1.44034 -3.8643 0
M  V30 3469 H 317.293 -0.0114349 -0.663902 0
M  V30 3470 H 319.823 -0.657613 -1.93744 0
M  V30 3471 H 319.833 0.600742 -4.03553 0
M  V30 3472 H 318.508 -0.548311 -4.1227 0
M  V30 3473 H 317.085 1.18638 -3.53524 0
M  V30 3474 N 319.27 1.56325 -0.20005 0
M  V30 3475 C 320.18 2.22931 0.730668 0
M  V30 3476 C 321.196 1.22997 1.23076 0
M  V30 3477 O 322.372 1.55748 1.27689 0
M  V30 3478 C 319.437 2.87948 1.93098 0
M  V30 3479 C 318.498 4.03166 1.47497 0
M  V30 3480 C 317.731 4.65073 2.61807 0
M  V30 3481 O 317.954 4.25913 3.79413 0
M  V30 3482 O 316.888 5.54452 2.34237 0
M  V30 3483 H 320.714 3.03084 0.193391 0
M  V30 3484 H 318.299 1.49371 0.0294621 0
M  V30 3485 H 320.181 3.29063 2.6324 0
M  V30 3486 H 318.856 2.10771 2.45677 0
M  V30 3487 H 317.763 3.66664 0.742201 0
M  V30 3488 H 319.096 4.82022 0.995796 0
M  V30 3489 N 320.748 -0.0735177 1.57428 0
M  V30 3490 C 321.658 -1.10547 2.06922 0
M  V30 3491 C 322.674 -1.42506 0.998402 0
M  V30 3492 O 323.85 -1.52717 1.31299 0
M  V30 3493 C 320.915 -2.40019 2.50184 0
M  V30 3494 C 319.976 -2.15046 3.71556 0
M  V30 3495 C 319.209 -3.38345 4.12745 0
M  V30 3496 O 319.432 -4.47399 3.53822 0
M  V30 3497 O 318.366 -3.2666 5.05546 0
M  V30 3498 H 322.192 -0.715013 2.95163 0
M  V30 3499 H 319.777 -0.287531 1.46607 0
M  V30 3500 H 321.659 -3.16218 2.78539 0
M  V30 3501 H 320.334 -2.78447 1.65072 0
M  V30 3502 H 319.241 -1.36558 3.48285 0
M  V30 3503 H 320.574 -1.81499 4.57514 0
M  V30 3504 N 322.226 -1.5378 -0.344866 0
M  V30 3505 C 323.158 -1.77988 -1.44406 0
M  V30 3506 C 324.171 -0.661138 -1.48771 0
M  V30 3507 O 325.36 -0.937842 -1.51877 0
M  V30 3508 C 322.46 -1.86345 -2.8307 0
M  V30 3509 C 321.633 -3.16256 -3.0216 0
M  V30 3510 C 320.692 -3.15588 -4.21059 0
M  V30 3511 O 319.718 -3.89314 -4.15239 0
M  V30 3512 N 320.92 -2.37864 -5.29529 0
M  V30 3513 H 323.685 -2.72839 -1.24012 0
M  V30 3514 H 321.246 -1.52814 -0.534737 0
M  V30 3515 H 323.238 -1.83351 -3.60783 0
M  V30 3516 H 321.808 -0.986858 -2.96614 0
M  V30 3517 H 321.028 -3.32385 -2.11929 0
M  V30 3518 H 322.316 -4.0207 -3.11797 0
M  V30 3519 H 321.714 -1.77514 -5.37127 0
M  V30 3520 H 320.271 -2.40668 -6.05741 0
M  V30 3521 N 323.704 0.605807 -1.45491 0
M  V30 3522 C 324.651 1.7164 -1.54299 0
M  V30 3523 C 325.621 1.61486 -0.388761 0
M  V30 3524 O 326.806 1.81039 -0.602445 0
M  V30 3525 C 323.946 3.09953 -1.51734 0
M  V30 3526 C 323.059 3.309 -2.77721 0
M  V30 3527 C 322.194 4.59329 -2.66816 0
M  V30 3528 C 321.233 4.7354 -3.87848 0
M  V30 3529 N 320.37 5.9327 -3.75467 0
M  V30 3530 H 325.21 1.63449 -2.49176 0
M  V30 3531 H 322.747 0.796957 -1.23641 0
M  V30 3532 H 324.705 3.89977 -1.48235 0
M  V30 3533 H 323.335 3.17098 -0.604068 0
M  V30 3534 H 322.387 2.44639 -2.913 0
M  V30 3535 H 323.699 3.37274 -3.67488 0
M  V30 3536 H 322.853 5.4755 -2.61292 0
M  V30 3537 H 321.592 4.55355 -1.74651 0
M  V30 3538 H 320.597 3.83741 -3.93729 0
M  V30 3539 H 321.822 4.79309 -4.81082 0
M  V30 3540 H 319.768 5.90338 -2.86072 0
M  V30 3541 H 319.685 6.00811 -4.5887 0
M  V30 3542 H 320.953 6.83984 -3.73879 0
M  V30 3543 N 325.182 1.32811 0.848464 0
M  V30 3544 C 326.145 1.22194 1.9391 0
M  V30 3545 C 327.145 0.143404 1.60159 0
M  V30 3546 O 328.335 0.394253 1.6968 0
M  V30 3547 C 325.467 0.88067 3.29328 0
M  V30 3548 H 326.66 2.19127 2.04752 0
M  V30 3549 H 324.213 1.16731 1.0394 0
M  V30 3550 H 324.948 -0.0865776 3.24184 0
M  V30 3551 H 324.733 1.66052 3.55203 0
M  V30 3552 H 326.223 0.830871 4.09251 0
M  V30 3553 N 326.66 -1.06551 1.16123 0
M  V30 3554 C 327.89 -1.8274 0.963838 0
M  V30 3555 C 328.298 -1.82712 -0.491228 0
M  V30 3556 O 327.641 -1.24294 -1.35265 0
M  V30 3557 C 327.703 -3.3065 1.41106 0
M  V30 3558 C 327.367 -3.54384 2.88549 0
M  V30 3559 C 328.364 -3.4765 3.86569 0
M  V30 3560 C 326.049 -3.81789 3.26408 0
M  V30 3561 C 328.043 -3.67982 5.2045 0
M  V30 3562 C 325.73 -4.01772 4.60459 0
M  V30 3563 C 326.728 -3.94866 5.57288 0
M  V30 3564 O 326.416 -4.14306 6.88916 0
M  V30 3565 H 326.148 -0.583136 0.341948 0
M  V30 3566 H 328.702 -1.35351 1.54497 0
M  V30 3567 H 326.932 -3.78887 0.773394 0
M  V30 3568 H 328.621 -3.88324 1.1815 0
M  V30 3569 H 329.387 -3.2647 3.58667 0
M  V30 3570 H 325.266 -3.86276 2.51619 0
M  V30 3571 H 328.81 -3.62507 5.96015 0
M  V30 3572 H 324.707 -4.2244 4.88072 0
M  V30 3573 H 325.475 -4.31609 6.95454 0
M  V30 3574 N 328.138 -0.959301 -1.25041 0
M  V30 3575 C 329.385 -0.616611 -1.92884 0
M  V30 3576 C 329.713 0.847036 -1.75087 0
M  V30 3577 O 328.968 1.62374 -1.09239 0
M  V30 3578 C 329.267 -0.927136 -3.45165 0
M  V30 3579 C 328.933 -2.37757 -3.83122 0
M  V30 3580 C 327.595 -2.77402 -3.93194 0
M  V30 3581 C 329.947 -3.31929 -4.01836 0
M  V30 3582 C 327.275 -4.10277 -4.19392 0
M  V30 3583 C 329.627 -4.64423 -4.29528 0
M  V30 3584 C 328.291 -5.03857 -4.37818 0
M  V30 3585 H 327.561 -0.225634 -0.705812 0
M  V30 3586 H 330.208 -1.20921 -1.48493 0
M  V30 3587 H 328.513 -0.252195 -3.90987 0
M  V30 3588 H 330.21 -0.6405 -3.95852 0
M  V30 3589 H 326.8 -2.06013 -3.75841 0
M  V30 3590 H 330.984 -3.02488 -3.93465 0
M  V30 3591 H 326.24 -4.40467 -4.24027 0
M  V30 3592 H 330.414 -5.37369 -4.42953 0
M  V30 3593 H 328.041 -6.06843 -4.57871 0
M  V30 3594 N 329.616 1.39756 -0.72842 0
M  V30 3595 C 330.841 2.05472 -0.282159 0
M  V30 3596 C 331.266 1.54549 1.07221 0
M  V30 3597 O 330.624 0.686372 1.67805 0
M  V30 3598 C 330.672 3.59462 -0.286264 0
M  V30 3599 O 329.776 4.05918 0.728298 0
M  V30 3600 H 329.117 0.651226 -0.129618 0
M  V30 3601 H 331.647 1.78915 -0.992499 0
M  V30 3602 H 331.657 4.07798 -0.128373 0
M  V30 3603 H 330.332 3.95889 -1.27456 0
M  V30 3604 H 328.909 3.69012 0.537081 0
M  V30 3605 N 331.094 0.475555 1.50254 0
M  V30 3606 C 332.322 -0.0754493 2.06762 0
M  V30 3607 C 332.737 -1.33111 1.33891 0
M  V30 3608 O 332.094 -1.77846 0.40952 0
M  V30 3609 C 332.145 -0.359008 3.59713 0
M  V30 3610 O 331.866 0.846851 4.29837 0
M  V30 3611 C 333.367 -0.956484 4.32858 0
M  V30 3612 H 330.587 0.00907525 0.670939 0
M  V30 3613 H 333.131 0.665618 1.93364 0
M  V30 3614 H 331.286 -1.05001 3.72899 0
M  V30 3615 H 331.7 0.594162 5.21124 0
M  V30 3616 H 333.174 -1.10463 5.40834 0
M  V30 3617 H 333.651 -1.94775 3.93649 0
M  V30 3618 H 334.257 -0.303723 4.24214 0
M  V30 3619 N 332.573 -1.56217 0.208337 0
M  V30 3620 C 333.984 -1.84243 -0.301904 0
M  V30 3621 C 334.335 -1.12939 -1.60434 0
M  V30 3622 O 333.46 -0.39461 -2.12772 0
M  V30 3623 C 334.055 -3.34231 -0.554543 0
M  V30 3624 C 332.614 -3.62621 -1.00912 0
M  V30 3625 C 331.761 -2.77224 -0.064933 0
M  V30 3626 H 334.712 -1.52712 0.431833 0
M  V30 3627 H 334.733 -3.5372 -1.40223 0
M  V30 3628 H 334.245 -3.86099 0.393561 0
M  V30 3629 H 332.346 -3.16197 -1.97104 0
M  V30 3630 H 332.459 -4.7071 -0.892674 0
M  V30 3631 H 330.823 -2.48256 -0.56929 0
M  V30 3632 H 331.606 -3.31887 0.877851 0
M  V30 3633 N 334.051 0.0651679 -1.57465 0
M  V30 3634 C 335.462 0.616213 -1.76238 0
M  V30 3635 C 335.813 1.7756 -0.834689 0
M  V30 3636 O 334.938 2.1639 -0.0204156 0
M  V30 3637 C 335.533 1.12462 -3.1959 0
M  V30 3638 C 334.092 1.62147 -3.39684 0
M  V30 3639 C 333.239 0.543739 -2.71917 0
M  V30 3640 H 336.19 -0.161022 -1.57881 0
M  V30 3641 H 336.211 1.99324 -3.24114 0
M  V30 3642 H 335.723 0.280592 -3.87084 0
M  V30 3643 H 333.824 2.48854 -2.77313 0
M  V30 3644 H 333.937 1.69385 -4.48158 0
M  V30 3645 H 332.301 0.990352 -2.34657 0
M  V30 3646 H 333.084 -0.290216 -3.42071 0
M  V30 3647 N 335.529 1.53961 0.336706 0
M  V30 3648 C 336.492 1.81724 1.39675 0
M  V30 3649 C 337.492 0.688532 1.45313 0
M  V30 3650 O 338.682 0.956829 1.45569 0
M  V30 3651 C 335.814 1.96543 2.78538 0
M  V30 3652 H 337.007 2.76424 1.16318 0
M  V30 3653 H 334.56 1.45478 0.571474 0
M  V30 3654 H 335.295 1.0401 3.07168 0
M  V30 3655 H 335.08 2.78665 2.75841 0
M  V30 3656 H 336.57 2.19516 3.5525 0
M  V30 3657 N 337.007 -0.598083 1.45811 0
M  V30 3658 C 337.939 -1.72231 1.51225 0
M  V30 3659 C 338.952 -1.57757 0.402059 0
M  V30 3660 O 340.141 -1.65464 0.669624 0
M  V30 3661 C 337.241 -3.10331 1.3619 0
M  V30 3662 C 336.414 -3.50955 2.61054 0
M  V30 3663 C 335.473 -4.68055 2.40439 0
M  V30 3664 O 334.499 -4.74691 3.14097 0
M  V30 3665 N 335.701 -5.61941 1.45612 0
M  V30 3666 H 338.466 -1.68046 2.48154 0
M  V30 3667 H 336.027 -0.783637 1.41671 0
M  V30 3668 H 338.019 -3.86439 1.20195 0
M  V30 3669 H 336.589 -3.0897 0.475015 0
M  V30 3670 H 335.809 -2.64711 2.92099 0
M  V30 3671 H 337.097 -3.74858 3.44034 0
M  V30 3672 H 336.495 -5.59301 0.848431 0
M  V30 3673 H 335.052 -6.37542 1.35585 0
M  V30 3674 N 338.485 -1.33259 -0.841409 0
M  V30 3675 C 339.901 -1.12538 -1.13169 0
M  V30 3676 C 340.101 0.0854037 -2.01319 0
M  V30 3677 O 339.157 0.766417 -2.40587 0
M  V30 3678 C 340.47 -2.41156 -1.79623 0
M  V30 3679 C 342.018 -2.47038 -1.922 0
M  V30 3680 C 342.493 -3.7561 -2.6207 0
M  V30 3681 N 343.984 -3.76667 -2.69585 0
M  V30 3682 C 344.719 -4.72861 -3.2433 0
M  V30 3683 N 344.215 -5.79428 -3.79783 0
M  V30 3684 N 346.008 -4.6034 -3.22558 0
M  V30 3685 H 338.159 -2.10868 -0.254676 0
M  V30 3686 H 340.422 -0.931615 -0.175493 0
M  V30 3687 H 340.128 -3.29747 -1.22311 0
M  V30 3688 H 340.002 -2.53114 -2.79666 0
M  V30 3689 H 342.389 -1.58898 -2.48667 0
M  V30 3690 H 342.47 -2.39022 -0.911148 0
M  V30 3691 H 342.114 -4.64131 -2.06263 0
M  V30 3692 H 342.044 -3.80902 -3.63622 0
M  V30 3693 H 344.535 -2.99648 -2.30259 0
M  V30 3694 H 344.848 -6.48867 -4.19752 0
M  V30 3695 H 343.193 -5.83166 -3.78078 0
M  V30 3696 H 346.384 -3.76244 -2.78492 0
M  V30 3697 H 346.557 -5.35478 -3.64921 0
M  V30 3698 N 339.963 1.05934 -1.16686 0
M  V30 3699 C 340.893 2.1546 -0.899949 0
M  V30 3700 C 341.874 1.69391 0.155154 0
M  V30 3701 O 343.059 1.94199 0.00648693 0
M  V30 3702 C 340.189 3.44939 -0.404241 0
M  V30 3703 C 339.143 4.04536 -1.39767 0
M  V30 3704 C 338.469 5.29268 -0.760216 0
M  V30 3705 C 339.769 4.42893 -2.76845 0
M  V30 3706 H 341.463 2.38046 -1.81588 0
M  V30 3707 H 339.009 1.14404 -0.874514 0
M  V30 3708 H 340.962 4.20901 -0.204971 0
M  V30 3709 H 339.686 3.21983 0.547206 0
M  V30 3710 H 338.345 3.30635 -1.58355 0
M  V30 3711 H 337.993 5.02611 0.197831 0
M  V30 3712 H 337.693 5.70101 -1.42332 0
M  V30 3713 H 339.217 6.07924 -0.57105 0
M  V30 3714 H 340.631 5.09921 -2.62019 0
M  V30 3715 H 339.028 4.94721 -3.39663 0
M  V30 3716 H 340.098 3.53584 -3.31823 0
M  V30 3717 N 341.441 0.965919 1.2453 0
M  V30 3718 C 342.404 0.499547 2.2369 0
M  V30 3719 C 343.404 -0.40294 1.5567 0
M  V30 3720 O 344.594 -0.19865 1.73064 0
M  V30 3721 C 341.726 -0.276792 3.39774 0
M  V30 3722 H 342.919 1.37613 2.66463 0
M  V30 3723 H 340.472 0.750324 1.37112 0
M  V30 3724 H 341.207 -1.17055 3.02438 0
M  V30 3725 H 340.992 0.370826 3.90343 0
M  V30 3726 H 342.482 -0.592175 4.1338 0
M  V30 3727 N 342.919 -1.39368 0.735821 0
M  V30 3728 C 343.849 -2.33234 0.111506 0
M  V30 3729 C 344.83 -1.53954 -0.723334 0
M  V30 3730 O 346.015 -1.82344 -0.668147 0
M  V30 3731 C 343.145 -3.38057 -0.795917 0
M  V30 3732 C 342.099 -4.2795 -0.065172 0
M  V30 3733 C 341.425 -5.23479 -1.08967 0
M  V30 3734 C 342.725 -5.10741 1.09273 0
M  V30 3735 H 344.419 -2.85692 0.895571 0
M  V30 3736 H 341.965 -1.37364 0.432109 0
M  V30 3737 H 343.918 -4.02675 -1.24221 0
M  V30 3738 H 342.642 -2.8404 -1.61211 0
M  V30 3739 H 341.301 -3.64813 0.361511 0
M  V30 3740 H 340.949 -4.65758 -1.89944 0
M  V30 3741 H 340.649 -5.84472 -0.605489 0
M  V30 3742 H 342.173 -5.90974 -1.53565 0
M  V30 3743 H 343.587 -5.68699 0.724841 0
M  V30 3744 H 341.984 -5.8088 1.50659 0
M  V30 3745 H 343.054 -4.45525 1.91404 0
M  V30 3746 N 344.397 -0.483516 -1.5 0
M  V30 3747 C 345.327 0.293829 -2.31644 0
M  V30 3748 C 346.308 0.978864 -1.39112 0
M  V30 3749 O 347.493 0.973644 -1.68029 0
M  V30 3750 C 344.623 1.36897 -3.19181 0
M  V30 3751 C 343.577 0.804833 -4.20365 0
M  V30 3752 C 342.903 1.9792 -4.96721 0
M  V30 3753 C 344.203 -0.192313 -5.21946 0
M  V30 3754 H 345.897 -0.387616 -2.9688 0
M  V30 3755 H 343.443 -0.187856 -1.42769 0
M  V30 3756 H 345.396 1.92037 -3.751 0
M  V30 3757 H 344.12 2.07936 -2.51853 0
M  V30 3758 H 342.779 0.275319 -3.65565 0
M  V30 3759 H 342.427 2.67686 -4.25856 0
M  V30 3760 H 342.127 1.60789 -5.65173 0
M  V30 3761 H 343.651 2.53526 -5.55479 0
M  V30 3762 H 345.065 0.270333 -5.72662 0
M  V30 3763 H 343.462 -0.478543 -5.98189 0
M  V30 3764 H 344.532 -1.11409 -4.71928 0
M  V30 3765 N 345.875 1.56104 -0.216619 0
M  V30 3766 C 347.123 1.97781 0.415593 0
M  V30 3767 C 347.444 1.10536 1.60645 0
M  V30 3768 O 346.714 0.181303 1.95059 0
M  V30 3769 H 345.294 0.730415 0.156534 0
M  V30 3770 H 347.956 1.92445 -0.308366 0
M  V30 3771 H 347.052 3.03072 0.74525 0
M  V30 3772 N 347.353 -0.0568162 1.57498 0
M  V30 3773 C 348.283 -1.06593 2.0775 0
M  V30 3774 C 349.264 -1.39448 0.974082 0
M  V30 3775 O 350.449 -1.48815 1.24771 0
M  V30 3776 C 347.579 -2.37509 2.5339 0
M  V30 3777 C 346.533 -2.1897 3.67745 0
M  V30 3778 C 345.859 -3.55402 3.99492 0
M  V30 3779 C 347.159 -1.59859 4.97235 0
M  V30 3780 H 348.853 -0.647706 2.9231 0
M  V30 3781 H 346.399 -0.310116 1.40621 0
M  V30 3782 H 348.352 -3.08409 2.87162 0
M  V30 3783 H 347.076 -2.8134 1.65878 0
M  V30 3784 H 345.735 -1.50508 3.3428 0
M  V30 3785 H 345.383 -3.9683 3.09088 0
M  V30 3786 H 345.083 -3.43831 4.76502 0
M  V30 3787 H 346.607 -4.27708 4.35773 0
M  V30 3788 H 348.021 -2.20642 5.29141 0
M  V30 3789 H 346.418 -1.58942 5.78669 0
M  V30 3790 H 347.488 -0.561506 4.81638 0
M  V30 3791 N 348.832 -1.54138 -0.328536 0
M  V30 3792 C 349.795 -1.82462 -1.38709 0
M  V30 3793 C 350.795 -0.696229 -1.44946 0
M  V30 3794 O 351.985 -0.964535 -1.4506 0
M  V30 3795 C 349.117 -1.98018 -2.77492 0
M  V30 3796 H 350.31 -2.77037 -1.14851 0
M  V30 3797 H 347.863 -1.45779 -0.563751 0
M  V30 3798 H 348.598 -1.05637 -3.06613 0
M  V30 3799 H 348.383 -2.80124 -2.74359 0
M  V30 3800 H 349.873 -2.21396 -3.54081 0
M  V30 3801 N 350.31 0.590341 -1.46126 0
M  V30 3802 C 351.242 1.71427 -1.52136 0
M  V30 3803 C 352.255 1.57542 -0.41042 0
M  V30 3804 O 353.444 1.65106 -0.678389 0
M  V30 3805 C 350.544 3.09605 -1.37834 0
M  V30 3806 C 349.717 3.49566 -2.62912 0
M  V30 3807 C 348.776 4.66773 -2.42918 0
M  V30 3808 O 347.802 4.73019 -3.1661 0
M  V30 3809 N 349.004 5.61161 -1.4859 0
M  V30 3810 H 351.769 1.66728 -2.49042 0
M  V30 3811 H 349.33 0.776113 -1.42085 0
M  V30 3812 H 351.322 3.85796 -1.22243 0
M  V30 3813 H 349.892 3.08714 -0.491393 0
M  V30 3814 H 349.112 2.63158 -2.93499 0
M  V30 3815 H 350.4 3.73028 -3.46017 0
M  V30 3816 H 349.798 5.58844 -0.87808 0
M  V30 3817 H 348.355 6.36814 -1.38965 0
M  V30 3818 N 351.788 1.33704 0.83433 0
M  V30 3819 C 353.199 1.22813 1.4062 0
M  V30 3820 C 353.55 -0.151107 1.95617 0
M  V30 3821 O 352.675 -1.05092 1.89168 0
M  V30 3822 C 353.27 2.22355 2.55624 0
M  V30 3823 C 351.829 2.1529 3.08751 0
M  V30 3824 C 350.976 2.09589 1.8157 0
M  V30 3825 H 353.927 1.45236 0.639702 0
M  V30 3826 H 353.948 1.83391 3.33389 0
M  V30 3827 H 353.46 3.22728 2.15566 0
M  V30 3828 H 351.561 1.18235 3.53343 0
M  V30 3829 H 351.674 3.06038 3.68616 0
M  V30 3830 H 350.038 1.55134 2.02004 0
M  V30 3831 H 350.821 3.11777 1.43701 0
M  V30 3832 N 353.266 -1.05314 1.17247 0
M  V30 3833 C 354.491 -1.82509 0.985148 0
M  V30 3834 C 354.916 -1.82343 -0.461788 0
M  V30 3835 O 354.274 -1.23151 -1.33055 0
M  V30 3836 C 354.322 -3.26566 1.52929 0
M  V30 3837 O 353.426 -4.05666 0.742225 0
M  V30 3838 H 352.767 -0.564347 0.349869 0
M  V30 3839 H 355.297 -1.32718 1.55715 0
M  V30 3840 H 355.307 -3.77369 1.55103 0
M  V30 3841 H 353.982 -3.26001 2.58256 0
M  V30 3842 H 352.559 -3.64397 0.791794 0
M  V30 3843 N 354.744 -0.972509 -1.24016 0
M  V30 3844 C 355.654 -0.5143 -2.28893 0
M  V30 3845 C 356.67 0.427078 -1.68677 0
M  V30 3846 O 357.846 0.298939 -1.99169 0
M  V30 3847 C 354.911 0.183598 -3.46214 0
M  V30 3848 C 353.972 -0.798202 -4.21814 0
M  V30 3849 C 353.205 -0.133514 -5.33533 0
M  V30 3850 O 353.428 1.07714 -5.60137 0
M  V30 3851 O 352.362 -0.828103 -5.96176 0
M  V30 3852 H 356.188 -1.38629 -2.70214 0
M  V30 3853 H 353.773 -0.739769 -1.29799 0
M  V30 3854 H 355.655 0.575433 -4.17453 0
M  V30 3855 H 354.33 1.03048 -3.0686 0
M  V30 3856 H 353.237 -1.24059 -3.52931 0
M  V30 3857 H 354.57 -1.61364 -4.64997 0
M  V30 3858 N 356.222 1.38976 -0.743202 0
M  V30 3859 C 357.169 2.30544 -0.10861 0
M  V30 3860 C 358.139 1.49642 0.720869 0
M  V30 3861 O 359.324 1.78304 0.679142 0
M  V30 3862 C 356.464 3.36018 0.786496 0
M  V30 3863 C 355.577 4.31963 -0.0564849 0
M  V30 3864 C 354.712 5.24506 0.840657 0
M  V30 3865 C 353.751 6.121 -0.00658363 0
M  V30 3866 N 352.888 6.96973 0.846943 0
M  V30 3867 H 357.728 2.8424 -0.895088 0
M  V30 3868 H 355.265 1.3995 -0.453048 0
M  V30 3869 H 357.223 3.95768 1.31999 0
M  V30 3870 H 355.853 2.83758 1.53887 0
M  V30 3871 H 354.905 3.73763 -0.707492 0
M  V30 3872 H 356.217 4.93703 -0.711229 0
M  V30 3873 H 355.371 5.89322 1.4417 0
M  V30 3874 H 354.11 4.63107 1.52916 0
M  V30 3875 H 353.115 5.46289 -0.620366 0
M  V30 3876 H 354.34 6.75565 -0.691992 0
M  V30 3877 H 352.286 6.38133 1.52059 0
M  V30 3878 H 352.203 7.5559 0.248864 0
M  V30 3879 H 353.471 7.6621 1.43328 0
M  V30 3880 N 357.7 0.491464 1.49741 0
M  V30 3881 C 359.111 0.0413169 1.86654 0
M  V30 3882 C 359.462 -1.36985 1.40462 0
M  V30 3883 O 358.587 -2.01917 0.778354 0
M  V30 3884 C 359.182 0.0682023 3.38731 0
M  V30 3885 C 357.741 -0.32656 3.74981 0
M  V30 3886 C 356.888 0.444888 2.73708 0
M  V30 3887 H 359.839 0.704733 1.42194 0
M  V30 3888 H 359.86 -0.729322 3.73445 0
M  V30 3889 H 359.372 1.09539 3.72321 0
M  V30 3890 H 357.473 -1.35734 3.46997 0
M  V30 3891 H 357.586 -0.013741 4.79098 0
M  V30 3892 H 355.95 -0.104062 2.54487 0
M  V30 3893 H 356.733 1.47197 3.10142 0
M  V30 3894 N 359.178 -1.55987 0.224894 0
M  V30 3895 C 360.403 -2.03232 -0.41369 0
M  V30 3896 C 360.828 -1.10359 -1.52323 0
M  V30 3897 O 360.186 -0.092395 -1.81064 0
M  V30 3898 C 360.234 -3.48682 -0.919405 0
M  V30 3899 O 359.338 -3.58947 -2.03054 0
M  V30 3900 H 358.679 -0.657428 -0.0931903 0
M  V30 3901 H 361.209 -2.01679 0.34451 0
M  V30 3902 H 361.219 -3.8907 -1.22835 0
M  V30 3903 H 359.894 -4.15761 -0.107339 0
M  V30 3904 H 358.471 -3.30448 -1.72796 0
M  V30 3905 N 360.656 0.0484629 -1.57525 0
M  V30 3906 C 361.881 0.759177 -1.93006 0
M  V30 3907 C 362.306 1.69125 -0.823317 0
M  V30 3908 O 361.664 1.79931 0.222364 0
M  V30 3909 C 361.712 1.50899 -3.27509 0
M  V30 3910 O 360.816 2.62112 -3.18388 0
M  V30 3911 H 360.157 0.205564 -0.631379 0
M  V30 3912 H 362.687 0.00972959 -2.04598 0
M  V30 3913 H 362.697 1.88317 -3.6194 0
M  V30 3914 H 361.372 0.825269 -4.0763 0
M  V30 3915 H 359.949 2.27379 -2.95556 0
M  V30 3916 N 362.134 1.5431 0.320358 0
M  V30 3917 C 363.545 1.63872 0.894594 0
M  V30 3918 C 363.896 0.534847 1.88769 0
M  V30 3919 O 363.021 -0.331732 2.13842 0
M  V30 3920 C 363.616 2.97049 1.62934 0
M  V30 3921 C 362.175 3.08796 2.15226 0
M  V30 3922 C 361.322 2.59456 0.978671 0
M  V30 3923 H 364.273 1.58398 0.0978544 0
M  V30 3924 H 364.294 2.87388 2.49376 0
M  V30 3925 H 363.806 3.7737 0.906302 0
M  V30 3926 H 361.907 2.33156 2.90636 0
M  V30 3927 H 362.02 4.14649 2.40006 0
M  V30 3928 H 360.384 2.1543 1.35875 0
M  V30 3929 H 361.167 3.42237 0.269895 0
M  V30 3930 N 363.613 -0.582584 1.46437 0
M  V30 3931 C 364.838 -1.37168 1.55563 0
M  V30 3932 C 365.263 -1.87061 0.19743 0
M  V30 3933 O 364.621 -1.61572 -0.822451 0
M  V30 3934 C 364.669 -2.53511 2.56446 0
M  V30 3935 O 363.773 -3.54953 2.09958 0
M  V30 3936 H 363.114 -0.408494 0.523477 0
M  V30 3937 H 365.644 -0.706646 1.9201 0
M  V30 3938 H 365.654 -3.00426 2.76058 0
M  V30 3939 H 364.329 -2.16549 3.55076 0
M  V30 3940 H 362.906 -3.14516 2.00334 0
M  V30 3941 N 365.091 -1.34144 -0.827227 0
M  V30 3942 C 366.502 -1.23557 -1.39966 0
M  V30 3943 C 366.853 0.140731 -1.95695 0
M  V30 3944 O 365.978 1.04087 -1.89723 0
M  V30 3945 C 366.573 -2.23708 -2.54441 0
M  V30 3946 C 365.132 -2.16924 -3.07605 0
M  V30 3947 C 364.279 -2.10549 -1.80456 0
M  V30 3948 H 367.23 -1.45573 -0.631991 0
M  V30 3949 H 367.251 -1.85157 -3.32411 0
M  V30 3950 H 366.763 -3.23866 -2.13851 0
M  V30 3951 H 364.864 -1.20107 -3.52711 0
M  V30 3952 H 364.977 -3.07988 -3.66988 0
M  V30 3953 H 363.341 -1.56203 -2.01178 0
M  V30 3954 H 364.124 -3.12535 -1.42046 0
M  V30 3955 N 366.569 1.04691 -1.17803 0
M  V30 3956 C 367.846 1.7472 -0.879328 0
M  V30 3957 C 368.226 2.01812 0.619271 0
M  V30 3958 O 367.574 1.65824 1.57209 0
M  V30 3959 C 367.784 3.03686 -1.71976 0
M  V30 3960 C 369.132 3.77542 -1.94286 0
M  V30 3961 O 370.156 3.13569 -1.68976 0
M  V30 3962 O 369.015 4.92506 -2.36855 0
M  V30 3963 H 366.109 0.760011 -0.326056 0
M  V30 3964 H 368.655 1.10813 -1.28525 0
M  V30 3965 H 367.427 2.79754 -2.73594 0
M  V30 3966 H 367.05 3.75332 -1.31194 0
M  V30 3967 N 368.047 0.979072 1.23499 0
M  V30 3968 C 368.977 0.537606 2.27227 0
M  V30 3969 C 369.958 -0.428539 1.64613 0
M  V30 3970 O 371.143 -0.322191 1.91509 0
M  V30 3971 C 368.273 -0.162052 3.46922 0
M  V30 3972 C 367.227 0.721242 4.21879 0
M  V30 3973 C 366.553 -0.110555 5.34586 0
M  V30 3974 C 367.853 2.01141 4.82016 0
M  V30 3975 H 369.547 1.40462 2.64406 0
M  V30 3976 H 367.093 0.67684 1.27102 0
M  V30 3977 H 369.046 -0.482192 4.18632 0
M  V30 3978 H 367.77 -1.06351 3.08799 0
M  V30 3979 H 366.429 1.02482 3.51984 0
M  V30 3980 H 366.077 -1.0125 4.92704 0
M  V30 3981 H 365.777 0.477325 5.85658 0
M  V30 3982 H 367.301 -0.425107 6.09118 0
M  V30 3983 H 368.715 1.75612 5.45741 0
M  V30 3984 H 367.112 2.54695 5.43369 0
M  V30 3985 H 368.182 2.69909 4.02836 0
M  V30 3986 N 369.525 -1.3858 0.750561 0
M  V30 3987 C 370.936 -1.82927 0.373438 0
M  V30 3988 C 371.287 -1.62634 -1.09748 0
M  V30 3989 O 370.412 -1.12588 -1.84805 0
M  V30 3990 C 371.007 -3.32088 0.671029 0
M  V30 3991 C 369.566 -3.74795 0.34722 0
M  V30 3992 C 368.713 -2.61391 0.92575 0
M  V30 3993 H 371.664 -1.27351 0.946958 0
M  V30 3994 H 371.685 -3.80465 -0.0518269 0
M  V30 3995 H 371.197 -3.46826 1.74164 0
M  V30 3996 H 369.298 -3.65638 -0.716933 0
M  V30 3997 H 369.411 -4.71667 0.840656 0
M  V30 3998 H 367.775 -2.52265 0.351327 0
M  V30 3999 H 368.558 -2.78929 2.00133 0
M  V30 4000 N 371.003 -0.499398 -1.49478 0
M  V30 4001 C 372.25 0.0456899 -2.02448 0
M  V30 4002 C 372.578 1.37142 -1.37921 0
M  V30 4003 O 371.833 1.89111 -0.503544 0
M  V30 4004 C 372.132 0.248424 -3.56536 0
M  V30 4005 C 371.798 -0.999107 -4.39692 0
M  V30 4006 C 370.46 -1.34108 -4.62135 0
M  V30 4007 C 372.812 -1.82842 -4.88076 0
M  V30 4008 C 370.14 -2.51191 -5.30208 0
M  V30 4009 C 372.492 -2.99076 -5.57437 0
M  V30 4010 C 371.156 -3.33655 -5.78127 0
M  V30 4011 H 370.426 0.0167191 -0.740811 0
M  V30 4012 H 373.073 -0.65923 -1.79795 0
M  V30 4013 H 371.378 1.03586 -3.77859 0
M  V30 4014 H 373.075 0.684605 -3.95113 0
M  V30 4015 H 369.665 -0.722729 -4.22463 0
M  V30 4016 H 373.849 -1.57737 -4.70566 0
M  V30 4017 H 369.105 -2.78221 -5.44429 0
M  V30 4018 H 373.279 -3.63664 -5.93904 0
M  V30 4019 H 370.906 -4.24483 -6.30649 0
M  V30 4020 N 372.481 1.55866 -0.233164 0
M  V30 4021 C 373.709 2.02998 0.399905 0
M  V30 4022 C 374.124 1.11274 1.52524 0
M  V30 4023 O 373.481 0.124528 1.82075 0
M  V30 4024 C 373.532 3.4958 0.920639 0
M  V30 4025 O 373.253 4.37808 -0.159834 0
M  V30 4026 C 374.754 4.12411 1.62578 0
M  V30 4027 H 371.974 0.664006 0.0966281 0
M  V30 4028 H 374.518 2.0143 -0.353013 0
M  V30 4029 H 372.673 3.51727 1.62379 0
M  V30 4030 H 373.087 5.23981 0.23337 0
M  V30 4031 H 374.561 5.16711 1.94201 0
M  V30 4032 H 375.038 3.5809 2.54299 0
M  V30 4033 H 375.644 4.14148 0.967553 0
M  V30 4034 N 373.959 -0.0401083 1.57549 0
M  V30 4035 C 375.187 -0.745196 1.93014 0
M  V30 4036 C 375.602 -1.6948 0.831984 0
M  V30 4037 O 374.959 -1.81482 -0.192463 0
M  V30 4038 C 375.01 -1.51176 3.28372 0
M  V30 4039 O 374.731 -0.600284 4.33968 0
M  V30 4040 C 376.232 -2.315 3.78051 0
M  V30 4041 H 373.452 -0.210088 0.637263 0
M  V30 4042 H 375.996 -0.000924689 2.045 0
M  V30 4043 H 374.151 -2.20801 3.18317 0
M  V30 4044 H 374.565 -1.13669 5.12035 0
M  V30 4045 H 376.039 -2.80697 4.75303 0
M  V30 4046 H 376.516 -3.12436 3.08675 0
M  V30 4047 H 377.122 -1.66971 3.91153 0
M  V30 4048 N 375.437 -1.54477 -0.31217 0
M  V30 4049 C 376.848 -1.64344 -0.885891 0
M  V30 4050 C 377.199 -0.54485 -1.88483 0
M  V30 4051 O 376.324 0.320387 -2.14015 0
M  V30 4052 C 376.919 -2.97908 -1.61357 0
M  V30 4053 C 375.478 -3.09933 -2.13585 0
M  V30 4054 C 374.625 -2.59971 -0.964897 0
M  V30 4055 H 377.576 -1.58448 -0.0894528 0
M  V30 4056 H 377.597 -2.88706 -2.47848 0
M  V30 4057 H 377.109 -3.77845 -0.886277 0
M  V30 4058 H 375.21 -2.34694 -2.89395 0
M  V30 4059 H 375.323 -4.15916 -2.37804 0
M  V30 4060 H 373.687 -2.16147 -1.34731 0
M  V30 4061 H 374.47 -3.42376 -0.251742 0
M  V30 4062 N 376.915 0.57481 -1.46744 0
M  V30 4063 C 377.878 1.66533 -1.57478 0
M  V30 4064 C 378.878 1.54338 -0.451263 0
M  V30 4065 O 380.068 1.58814 -0.715813 0
M  V30 4066 C 377.2 3.05999 -1.50259 0
M  V30 4067 H 378.393 1.58372 -2.54673 0
M  V30 4068 H 375.946 0.793301 -1.34672 0
M  V30 4069 H 376.681 3.19709 -0.543725 0
M  V30 4070 H 376.466 3.16259 -2.31781 0
M  V30 4071 H 377.956 3.8537 -1.60872 0
M  V30 4072 N 378.394 1.34581 0.820102 0
M  V30 4073 C 379.805 1.24298 1.39309 0
M  V30 4074 C 380.156 -0.130351 1.95767 0
M  V30 4075 O 379.281 -1.0308 1.90272 0
M  V30 4076 C 379.876 2.25054 2.53251 0
M  V30 4077 C 378.435 2.18552 3.0645 0
M  V30 4078 C 377.582 2.11503 1.79337 0
M  V30 4079 H 380.533 1.45906 0.624262 0
M  V30 4080 H 380.554 1.86917 3.31425 0
M  V30 4081 H 380.066 3.24996 2.1213 0
M  V30 4082 H 378.167 1.21976 3.52069 0
M  V30 4083 H 378.28 3.0993 3.65349 0
M  V30 4084 H 376.644 1.57268 2.00347 0
M  V30 4085 H 377.427 3.13284 1.40386 0
M  V30 4086 N 379.872 -1.04064 1.18357 0
M  V30 4087 C 380.819 -2.12077 0.910603 0
M  V30 4088 C 381.789 -1.65421 -0.15 0
M  V30 4089 O 382.974 -1.90797 -0.0103614 0
M  V30 4090 C 380.114 -3.42252 0.442472 0
M  V30 4091 C 379.227 -4.0252 1.5685 0
M  V30 4092 C 378.362 -5.20657 1.05309 0
M  V30 4093 C 377.401 -5.72955 2.1538 0
M  V30 4094 N 376.538 -6.8238 1.65233 0
M  V30 4095 H 381.378 -2.34764 1.83548 0
M  V30 4096 H 378.915 -1.15157 0.915279 0
M  V30 4097 H 380.873 -4.16921 0.152534 0
M  V30 4098 H 379.503 -3.19712 -0.445428 0
M  V30 4099 H 378.555 -3.25178 1.97391 0
M  V30 4100 H 379.867 -4.37362 2.39824 0
M  V30 4101 H 379.021 -6.0244 0.717677 0
M  V30 4102 H 377.76 -4.87318 0.19293 0
M  V30 4103 H 376.765 -4.89793 2.49766 0
M  V30 4104 H 377.99 -6.08337 3.01832 0
M  V30 4105 H 375.936 -6.50917 0.815064 0
M  V30 4106 H 375.853 -7.16286 2.41805 0
M  V30 4107 H 377.121 -7.67788 1.34619 0
M  V30 4108 N 381.35 -0.985608 -1.22978 0
M  V30 4109 C 382.297 -0.529825 -2.24636 0
M  V30 4110 C 383.267 0.434028 -1.60329 0
M  V30 4111 O 384.452 0.340414 -1.87739 0
M  V30 4112 C 381.592 0.156533 -3.44745 0
M  V30 4113 C 380.705 -0.848197 -4.23591 0
M  V30 4114 C 379.84 -0.136109 -5.31026 0
M  V30 4115 C 378.879 -1.1297 -6.01585 0
M  V30 4116 N 378.016 -0.446415 -7.00679 0
M  V30 4117 H 382.856 -1.40148 -2.62988 0
M  V30 4118 H 380.393 -0.702168 -1.29259 0
M  V30 4119 H 382.351 0.571324 -4.1327 0
M  V30 4120 H 380.981 0.992025 -3.07179 0
M  V30 4121 H 380.033 -1.38135 -3.54433 0
M  V30 4122 H 381.345 -1.60512 -4.72268 0
M  V30 4123 H 380.499 0.335784 -6.0577 0
M  V30 4124 H 379.238 0.653373 -4.83304 0
M  V30 4125 H 378.243 -1.6123 -5.25628 0
M  V30 4126 H 379.468 -1.91993 -6.51395 0
M  V30 4127 H 377.414 0.323763 -6.55201 0
M  V30 4128 H 377.331 -1.1419 -7.47326 0
M  V30 4129 H 378.599 0.00291697 -7.795 0
M  V30 4130 N 382.828 1.3818 -0.7579 0
M  V30 4131 C 384.239 1.82726 -0.383134 0
M  V30 4132 C 384.59 1.63214 1.08884 0
M  V30 4133 O 383.715 1.13566 1.84205 0
M  V30 4134 C 384.31 3.31728 -0.688631 0
M  V30 4135 C 382.869 3.74606 -0.367091 0
M  V30 4136 C 382.016 2.60896 -0.939599 0
M  V30 4137 H 384.967 1.26847 -0.953699 0
M  V30 4138 H 384.988 3.80487 0.0316492 0
M  V30 4139 H 384.5 3.45898 -1.76001 0
M  V30 4140 H 382.601 3.66013 0.697532 0
M  V30 4141 H 382.714 4.71215 -0.865658 0
M  V30 4142 H 381.078 2.52075 -0.3647 0
M  V30 4143 H 381.861 2.77864 -2.0161 0
M  V30 4144 N 384.306 0.507319 1.49211 0
M  V30 4145 C 385.554 -0.0348839 2.0207 0
M  V30 4146 C 385.875 -1.36898 1.38866 0
M  V30 4147 O 385.145 -1.88133 0.546151 0
M  V30 4148 H 383.725 -0.0158812 0.746831 0
M  V30 4149 H 386.387 0.665998 1.83168 0
M  V30 4150 H 385.483 -0.159917 3.1169 0
M  V30 4151 N 385.784 -1.5574 0.241426 0
M  V30 4152 C 386.732 -2.22538 -0.676718 0
M  V30 4153 C 387.726 -1.21117 -1.18436 0
M  V30 4154 O 388.932 -1.39144 -1.14188 0
M  V30 4155 H 385.307 -0.713776 -0.236701 0
M  V30 4156 H 387.278 -2.98264 -0.0901187 0
M  V30 4157 C 386.027 -2.93439 -1.86518 0
M  V30 4158 H 385.35 -3.7125 -1.4837 0
M  V30 4159 H 386.79 -3.43549 -2.48495 0
M  V30 4160 C 385.249 -1.97008 -2.73294 0
M  V30 4161 O 385.779 -1.49965 -3.72657 0
M  V30 4162 N 383.985 -1.64227 -2.39745 0
M  V30 4163 H 383.532 -2.02677 -1.58996 0
M  V30 4164 H 383.49 -0.999708 -2.98083 0
M  V30 4165 N 387.262 0.0317525 -1.57568 0
M  V30 4166 C 388.673 0.578692 -1.77505 0
M  V30 4167 C 389.024 1.75749 -0.872164 0
M  V30 4168 O 388.149 2.16298 -0.0663106 0
M  V30 4169 C 388.744 1.05658 -3.21904 0
M  V30 4170 C 387.303 1.54906 -3.43047 0
M  V30 4171 C 386.45 0.485939 -2.73009 0
M  V30 4172 H 389.401 -0.194475 -1.57504 0
M  V30 4173 H 389.422 1.92404 -3.28269 0
M  V30 4174 H 388.934 0.198422 -3.87592 0
M  V30 4175 H 387.035 2.42915 -2.82529 0
M  V30 4176 H 387.148 1.59841 -4.5165 0
M  V30 4177 H 385.512 0.940354 -2.36705 0
M  V30 4178 H 386.295 -0.362709 -3.41379 0
M  V30 4179 N 388.74 1.54641 0.303973 0
M  V30 4180 C 389.965 1.78092 1.06292 0
M  V30 4181 C 390.39 0.537342 1.80262 0
M  V30 4182 O 389.748 -0.511993 1.7392 0
M  V30 4183 C 389.796 2.98612 2.02147 0
M  V30 4184 O 388.9 2.71528 3.10397 0
M  V30 4185 H 388.241 0.589548 0.305497 0
M  V30 4186 H 390.771 2.01716 0.3423 0
M  V30 4187 H 390.781 3.265 2.44667 0
M  V30 4188 H 389.456 3.88785 1.47714 0
M  V30 4189 H 388.033 2.54648 2.72413 0
M  V30 4190 N 390.218 -0.567019 1.47046 0
M  V30 4191 C 391.634 -0.891975 1.32348 0
M  V30 4192 C 391.834 -1.99154 0.306616 0
M  V30 4193 O 390.89 -2.50883 -0.28532 0
M  V30 4194 C 392.203 -1.29449 2.7141 0
M  V30 4195 C 393.751 -1.40646 2.79621 0
M  V30 4196 C 394.226 -1.84257 4.19301 0
M  V30 4197 N 395.717 -1.91424 4.21795 0
M  V30 4198 C 396.452 -2.26476 5.26779 0
M  V30 4199 N 395.948 -2.60211 6.42077 0
M  V30 4200 N 397.741 -2.27166 5.14152 0
M  V30 4201 H 389.892 0.159074 2.11803 0
M  V30 4202 H 392.155 0.00849752 0.947962 0
M  V30 4203 H 391.861 -0.560448 3.47206 0
M  V30 4204 H 391.735 -2.25273 3.02542 0
M  V30 4205 H 394.122 -2.13133 2.04104 0
M  V30 4206 H 394.203 -0.430339 2.52154 0
M  V30 4207 H 393.847 -1.12343 4.95319 0
M  V30 4208 H 393.777 -2.82855 4.44185 0
M  V30 4209 H 396.268 -1.6778 3.38612 0
M  V30 4210 H 396.581 -2.85956 7.17948 0
M  V30 4211 H 394.926 -2.57813 6.45413 0
M  V30 4212 H 398.117 -2.00244 4.23107 0
M  V30 4213 H 398.29 -2.54154 5.96079 0
M  V30 4214 N 391.696 -1.35014 -0.812953 0
M  V30 4215 C 392.659 -1.27292 -1.90602 0
M  V30 4216 C 393.659 -0.185817 -1.59723 0
M  V30 4217 O 394.849 -0.439102 -1.68575 0
M  V30 4218 C 391.981 -0.967676 -3.26877 0
M  V30 4219 H 393.174 -2.24479 -1.9887 0
M  V30 4220 H 390.727 -1.19446 -1.00808 0
M  V30 4221 H 391.462 0.0005954 -3.243 0
M  V30 4222 H 391.247 -1.75412 -3.50675 0
M  V30 4223 H 392.737 -0.939085 -4.06904 0
M  V30 4224 N 393.175 1.03435 -1.18907 0
M  V30 4225 C 394.591 1.28973 -0.940111 0
M  V30 4226 C 394.791 1.97676 0.390691 0
M  V30 4227 O 393.847 2.26127 1.12352 0
M  V30 4228 C 395.16 2.14221 -2.11021 0
M  V30 4229 C 396.708 2.27547 -2.14922 0
M  V30 4230 C 397.183 3.16164 -3.31367 0
M  V30 4231 N 398.674 3.23752 -3.31269 0
M  V30 4232 C 399.409 3.92495 -4.18014 0
M  V30 4233 N 398.905 4.63515 -5.14904 0
M  V30 4234 N 400.698 3.88838 -4.05908 0
M  V30 4235 H 392.849 0.57252 -2.04538 0
M  V30 4236 H 395.112 0.315184 -0.894071 0
M  V30 4237 H 394.818 1.71054 -3.073 0
M  V30 4238 H 394.692 3.14919 -2.0762 0
M  V30 4239 H 397.079 2.69947 -1.19217 0
M  V30 4240 H 397.16 1.26418 -2.22378 0
M  V30 4241 H 396.804 2.74474 -4.27348 0
M  V30 4242 H 396.734 4.17339 -3.21148 0
M  V30 4243 H 399.225 2.73167 -2.61129 0
M  V30 4244 H 399.538 5.13583 -5.77453 0
M  V30 4245 H 397.883 4.62398 -5.18857 0
M  V30 4246 H 401.074 3.32491 -3.29495 0
M  V30 4247 H 401.247 4.4214 -4.73726 0
M  V30 4248 N 394.653 0.992116 1.22453 0
M  V30 4249 C 395.878 0.685644 1.95739 0
M  V30 4250 C 396.303 -0.743 1.72804 0
M  V30 4251 O 395.661 -1.50778 1.00676 0
M  V30 4252 C 395.709 0.996293 3.46564 0
M  V30 4253 O 394.813 0.0945512 4.12292 0
M  V30 4254 H 394.154 0.256694 0.612376 0
M  V30 4255 H 396.684 1.32888 1.5557 0
M  V30 4256 H 396.694 0.93781 3.97076 0
M  V30 4257 H 395.369 2.03733 3.62582 0
M  V30 4258 H 393.946 0.208451 3.72317 0
M  V30 4259 N 396.131 -1.37776 0.765217 0
M  V30 4260 C 397.377 -2.00604 0.336066 0
M  V30 4261 C 397.732 -1.59657 -1.07366 0
M  V30 4262 O 397.025 -0.829565 -1.7271 0
M  V30 4263 C 397.219 -3.5504 0.410053 0
M  V30 4264 C 397.048 -4.10985 1.82542 0
M  V30 4265 C 395.818 -4.42229 2.44461 0
M  V30 4266 C 398.016 -4.32438 2.78392 0
M  V30 4267 N 395.998 -4.8385 3.77839 0
M  V30 4268 C 397.369 -4.76596 3.96556 0
M  V30 4269 C 399.424 -4.14559 2.75764 0
M  V30 4270 C 398.127 -5.04748 5.12466 0
M  V30 4271 C 400.153 -4.43843 3.90842 0
M  V30 4272 C 399.515 -4.88235 5.07746 0
M  V30 4273 H 395.614 -0.763325 0.169881 0
M  V30 4274 H 398.198 -1.67197 0.997656 0
M  V30 4275 H 396.369 -3.87769 -0.221325 0
M  V30 4276 H 398.101 -4.0468 -0.0405285 0
M  V30 4277 H 394.856 -4.31079 1.96131 0
M  V30 4278 H 395.28 -5.08979 4.46396 0
M  V30 4279 H 399.922 -3.79415 1.86558 0
M  V30 4280 H 397.64 -5.38783 6.02277 0
M  V30 4281 H 401.226 -4.31603 3.90141 0
M  V30 4282 H 400.106 -5.10461 5.95315 0
M  V30 4283 N 397.609 -0.515225 -1.4894 0
M  V30 4284 C 398.539 0.244628 -2.32215 0
M  V30 4285 C 399.52 0.949136 -1.41157 0
M  V30 4286 O 400.705 0.937783 -1.70057 0
M  V30 4287 C 397.835 1.30096 -3.22013 0
M  V30 4288 C 396.789 0.715486 -4.21977 0
M  V30 4289 C 396.115 1.87339 -5.00808 0
M  V30 4290 C 397.415 -0.302982 -5.2142 0
M  V30 4291 H 399.109 -0.450501 -2.95991 0
M  V30 4292 H 396.655 -0.218098 -1.42339 0
M  V30 4293 H 398.608 1.84037 -3.79089 0
M  V30 4294 H 397.332 2.02547 -2.56207 0
M  V30 4295 H 395.991 0.197715 -3.66066 0
M  V30 4296 H 395.639 2.58592 -4.31438 0
M  V30 4297 H 395.339 1.48764 -5.68457 0
M  V30 4298 H 396.863 2.41686 -5.60732 0
M  V30 4299 H 398.277 0.148802 -5.73107 0
M  V30 4300 H 396.674 -0.60532 -5.97039 0
M  V30 4301 H 397.744 -1.21395 -4.69459 0
M  V30 4302 N 399.087 1.5561 -0.249682 0
M  V30 4303 C 400.312 2.03865 0.381305 0
M  V30 4304 C 400.737 1.12769 1.50548 0
M  V30 4305 O 400.095 0.121189 1.80895 0
M  V30 4306 C 400.143 3.50101 0.863816 0
M  V30 4307 O 399.247 3.62132 1.97318 0
M  V30 4308 H 398.588 0.658827 0.0827194 0
M  V30 4309 H 401.118 2.01105 -0.376552 0
M  V30 4310 H 401.128 3.90975 1.1663 0
M  V30 4311 H 399.803 4.1588 0.0411816 0
M  V30 4312 H 398.38 3.33155 1.67517 0
M  V30 4313 N 400.565 -0.0233959 1.57583 0
M  V30 4314 C 401.976 -0.56927 1.77809 0
M  V30 4315 C 402.327 -1.75284 0.881472 0
M  V30 4316 O 401.452 -2.1626 0.0777805 0
M  V30 4317 C 402.047 -1.03949 3.22459 0
M  V30 4318 C 400.606 -1.53084 3.43864 0
M  V30 4319 C 399.753 -0.471454 2.73263 0
M  V30 4320 H 402.704 0.202825 1.57399 0
M  V30 4321 H 402.725 -1.90661 3.29285 0
M  V30 4322 H 402.237 -0.177865 3.87692 0
M  V30 4323 H 400.338 -2.41414 2.83814 0
M  V30 4324 H 400.451 -1.57443 4.52491 0
M  V30 4325 H 398.815 -0.927788 2.37201 0
M  V30 4326 H 399.598 0.380808 3.41181 0
M  V30 4327 N 402.043 -1.548 -0.295768 0
M  V30 4328 C 403.459 -1.4613 -0.641722 0
M  V30 4329 C 403.659 -0.656771 -1.90496 0
M  V30 4330 O 402.715 -0.166547 -2.5195 0
M  V30 4331 C 404.028 -2.90141 -0.789852 0
M  V30 4332 C 405.576 -3.00216 -0.885396 0
M  V30 4333 C 406.051 -4.45434 -1.06548 0
M  V30 4334 N 407.542 -4.49166 -1.13156 0
M  V30 4335 C 408.277 -5.58717 -1.28929 0
M  V30 4336 N 407.773 -6.78182 -1.41567 0
M  V30 4337 N 409.566 -5.46415 -1.31859 0
M  V30 4338 H 401.717 -2.05574 0.534147 0
M  V30 4339 H 403.98 -0.931259 0.177372 0
M  V30 4340 H 403.686 -3.51635 0.0675598 0
M  V30 4341 H 403.56 -3.37859 -1.67724 0
M  V30 4342 H 405.947 -2.38833 -1.73329 0
M  V30 4343 H 406.028 -2.55787 0.0261185 0
M  V30 4344 H 405.672 -5.07413 -0.222335 0
M  V30 4345 H 405.602 -4.87499 -1.9913 0
M  V30 4346 H 408.093 -3.631 -1.04721 0
M  V30 4347 H 408.406 -7.57428 -1.53372 0
M  V30 4348 H 406.751 -6.81037 -1.38613 0
M  V30 4349 H 409.942 -4.5203 -1.21601 0
M  V30 4350 H 410.115 -6.31841 -1.43808 0
M  V30 4351 N 403.521 0.559213 -1.47345 0
M  V30 4352 C 404.767 1.31843 -1.54095 0
M  V30 4353 C 405.1 1.93149 -0.201726 0
M  V30 4354 O 404.375 1.77759 0.789428 0
M  V30 4355 C 404.658 2.43006 -2.65744 0
M  V30 4356 C 404.511 1.86581 -4.09277 0
M  V30 4357 C 405.83 3.44943 -2.73318 0
M  V30 4358 H 402.949 0.478012 -0.560957 0
M  V30 4359 H 405.591 0.625977 -1.79392 0
M  V30 4360 H 403.741 3.02072 -2.44305 0
M  V30 4361 H 405.413 1.31792 -4.42073 0
M  V30 4362 H 403.656 1.17268 -4.17649 0
M  V30 4363 H 404.327 2.66933 -4.83168 0
M  V30 4364 H 406.803 2.95793 -2.92653 0
M  V30 4365 H 405.679 4.20153 -3.53218 0
M  V30 4366 H 405.94 4.03665 -1.80296 0
M  V30 4367 N 404.999 1.35443 0.805782 0
M  V30 4368 C 406.224 1.32037 1.59941 0
M  V30 4369 C 406.649 -0.0994215 1.87837 0
M  V30 4370 O 406.007 -1.06648 1.46615 0
M  V30 4371 C 406.055 2.13354 2.90711 0
M  V30 4372 O 405.159 1.5148 3.83572 0
M  V30 4373 H 404.5 0.452666 0.485787 0
M  V30 4374 H 407.03 1.78496 1.00002 0
M  V30 4375 H 407.04 2.25338 3.40128 0
M  V30 4376 H 405.715 3.16572 2.69732 0
M  V30 4377 H 404.292 1.4834 3.42125 0
M  V30 4378 N 406.477 -1.02803 1.19454 0
M  V30 4379 C 407.888 -1.57667 0.999899 0
M  V30 4380 C 408.239 -1.91041 -0.446956 0
M  V30 4381 O 407.364 -1.70978 -1.32648 0
M  V30 4382 C 407.959 -2.86477 1.80877 0
M  V30 4383 C 406.518 -3.37911 1.65811 0
M  V30 4384 C 405.665 -2.11343 1.79526 0
M  V30 4385 H 408.616 -0.853214 1.33813 0
M  V30 4386 H 408.637 -3.57408 1.30536 0
M  V30 4387 H 408.149 -2.62155 2.86175 0
M  V30 4388 H 406.25 -3.67218 0.63102 0
M  V30 4389 H 406.363 -4.10885 2.46395 0
M  V30 4390 H 404.727 -2.23254 1.22596 0
M  V30 4391 H 405.51 -1.89461 2.86285 0
M  V30 4392 N 407.956 -0.998596 -1.21925 0
M  V30 4393 C 409.367 -0.711939 -1.72593 0
M  V30 4394 C 409.718 0.770842 -1.80423 0
M  V30 4395 O 408.843 1.60237 -1.4544 0
M  V30 4396 C 409.438 -1.28567 -3.13458 0
M  V30 4397 C 407.997 -1.04828 -3.61508 0
M  V30 4398 C 407.144 -1.4024 -2.39224 0
M  V30 4399 H 410.095 -1.17027 -1.07193 0
M  V30 4400 H 410.116 -0.667098 -3.74607 0
M  V30 4401 H 409.628 -2.36486 -3.07727 0
M  V30 4402 H 407.729 0.0140383 -3.72597 0
M  V30 4403 H 407.842 -1.71566 -4.47328 0
M  V30 4404 H 406.206 -0.821077 -2.41103 0
M  V30 4405 H 406.989 -2.49176 -2.36149 0
M  V30 4406 N 409.434 1.37368 -0.772513 0
M  V30 4407 C 410.397 2.28601 -0.165541 0
M  V30 4408 C 411.397 1.48062 0.627238 0
M  V30 4409 O 412.587 1.68268 0.450715 0
M  V30 4410 C 409.719 3.32023 0.772897 0
M  V30 4411 H 410.912 2.83787 -0.969787 0
M  V30 4412 H 408.465 1.46647 -0.540775 0
M  V30 4413 H 409.2 2.81962 1.60212 0
M  V30 4414 H 408.985 3.91555 0.206585 0
M  V30 4415 H 410.475 4.00197 1.19298 0
M  V30 4416 N 410.912 0.523116 1.48665 0
M  V30 4417 C 412.137 -0.0117284 2.07397 0
M  V30 4418 C 412.562 -1.28031 1.37803 0
M  V30 4419 O 411.92 -1.75836 0.441762 0
M  V30 4420 C 411.968 -0.225786 3.59892 0
M  V30 4421 O 411.072 -1.29592 3.91509 0
M  V30 4422 H 410.413 0.0360673 0.66302 0
M  V30 4423 H 412.943 0.729066 1.9117 0
M  V30 4424 H 412.953 -0.450552 4.05505 0
M  V30 4425 H 411.628 0.700944 4.09951 0
M  V30 4426 H 410.205 -1.05436 3.57684 0
M  V30 4427 N 412.39 -1.55475 0.257931 0
M  V30 4428 C 413.801 -1.8511 -0.243135 0
M  V30 4429 C 414.152 -1.17986 -1.5676 0
M  V30 4430 O 413.277 -0.462102 -2.11409 0
M  V30 4431 C 413.872 -3.35826 -0.447929 0
M  V30 4432 C 412.431 -3.65647 -0.893245 0
M  V30 4433 C 411.578 -2.7729 0.0232965 0
M  V30 4434 H 414.529 -1.51261 0.480199 0
M  V30 4435 H 414.55 -3.58002 -1.28898 0
M  V30 4436 H 414.062 -3.84652 0.516196 0
M  V30 4437 H 412.163 -3.22308 -1.86945 0
M  V30 4438 H 412.276 -4.73312 -0.742469 0
M  V30 4439 H 410.64 -2.49942 -0.490021 0
M  V30 4440 H 411.423 -3.28926 0.982994 0
M  V30 4441 N 413.868 0.0150385 -1.57593 0
M  V30 4442 C 415.116 0.701613 -1.8953 0
M  V30 4443 C 415.437 1.75139 -0.857396 0
M  V30 4444 O 414.707 1.95607 0.107194 0
M  V30 4445 H 413.287 0.26213 -0.699498 0
M  V30 4446 H 415.949 -0.0223304 -1.94887 0
M  V30 4447 H 415.045 1.18236 -2.88837 0
M  V30 4448 N 415.346 1.54954 0.287554 0
M  V30 4449 C 416.757 1.65732 0.859634 0
M  V30 4450 C 417.108 0.574767 1.87592 0
M  V30 4451 O 416.233 -0.286299 2.14498 0
M  V30 4452 C 416.828 3.00438 1.56597 0
M  V30 4453 C 415.387 3.13292 2.08627 0
M  V30 4454 C 414.534 2.61473 0.923416 0
M  V30 4455 H 417.485 1.5857 0.0642338 0
M  V30 4456 H 417.506 2.92613 2.43224 0
M  V30 4457 H 417.018 3.79207 0.826053 0
M  V30 4458 H 415.119 2.39268 2.85625 0
M  V30 4459 H 415.232 4.19647 2.31157 0
M  V30 4460 H 413.596 2.18264 1.31275 0
M  V30 4461 H 414.379 3.42733 0.197241 0
M  V30 4462 O 416.863 -0.433401 1.55576 0
M  V30 4463 H 417.554 -1.08681 1.60337 0
M  V30 END ATOM
M  V30 BEGIN BOND
M  V30 END BOND
M  V30 END CTAB
M  END
$$$$
