drugbank_target|Q9Y4I5 Tesmin (DB12965)
 OpenBabel12092121043D

  0  0  0     0  0            999 V3000
M  V30 BEGIN CTAB
M  V30 COUNTS 7604 7689 0 0 0
M  V30 BEGIN ATOM
M  V30 1 H -0.908 1.98254 -0.117106 0
M  V30 2 N 0 1.576 0 0
M  V30 3 C 0.933 2.03868 1.02534 0
M  V30 4 C 1.911 0.928543 1.3348 0
M  V30 5 O 3.095 1.19667 1.45644 0
M  V30 6 C 0.222 2.43627 2.35294 0
M  V30 7 C -0.732 3.65373 2.2001 0
M  V30 8 S 0.101 5.13292 1.52614 0
M  V30 9 C 1.257 5.56322 2.86805 0
M  V30 10 H 1.49 2.90518 0.631377 0
M  V30 11 H -0.977 1.52953 0.210867 0
M  V30 12 H 0.981 2.67203 3.11629 0
M  V30 13 H -0.358 1.57376 2.7183 0
M  V30 14 H -1.165 3.90944 3.18086 0
M  V30 15 H -1.563 3.418 1.51819 0
M  V30 16 H 0.729 5.58782 3.83104 0
M  V30 17 H 1.672 6.56266 2.65933 0
M  V30 18 H 2.08 4.83886 2.90714 0
M  V30 19 N 1.4781 -0.272755 1.55222 0
M  V30 20 C 2.3881 -1.35918 1.91216 0
M  V30 21 C 3.4041 -1.54026 0.809436 0
M  V30 22 O 4.5801 -1.68148 1.10852 0
M  V30 23 C 1.6451 -2.69834 2.17693 0
M  V30 24 C 0.7061 -2.6047 3.41253 0
M  V30 25 C -0.0609 -3.88 3.66458 0
M  V30 26 O 0.1621 -4.88693 2.94169 0
M  V30 27 O -0.9039 -3.88189 4.59992 0
M  V30 28 H 2.9221 -1.0839 2.83699 0
M  V30 29 H 0.5071 -0.471301 1.41771 0
M  V30 30 H 2.3891 -3.49017 2.36147 0
M  V30 31 H 1.0641 -2.97148 1.28392 0
M  V30 32 H -0.0289 -1.79663 3.28134 0
M  V30 33 H 1.3041 -2.38106 4.30774 0
M  V30 34 N 2.9562 -1.48159 -0.537278 0
M  V30 35 C 3.8662 -1.64807 -1.6696 0
M  V30 36 C 4.8822 -0.530651 -1.65711 0
M  V30 37 O 6.0582 -0.800784 -1.84796 0
M  V30 38 C 3.1232 -1.67708 -3.03438 0
M  V30 39 C 2.1842 -2.91025 -3.156 0
M  V30 40 C 1.4172 -2.93778 -4.45567 0
M  V30 41 O 1.6402 -2.05153 -5.3223 0
M  V30 42 O 0.5742 -3.85868 -4.61941 0
M  V30 43 H 4.4002 -2.6066 -1.55853 0
M  V30 44 H 1.9852 -1.31475 -0.709549 0
M  V30 45 H 3.8672 -1.7218 -3.84619 0
M  V30 46 H 2.5422 -0.750278 -3.14885 0
M  V30 47 H 1.4492 -2.92089 -2.33741 0
M  V30 48 H 2.7822 -3.83065 -3.09066 0
M  V30 49 N 4.4343 0.785586 -1.36625 0
M  V30 50 C 5.6823 1.54057 -1.30808 0
M  V30 51 C 6.0033 1.94683 0.111157 0
M  V30 52 O 5.2733 1.65241 1.05224 0
M  V30 53 H 3.8533 0.571354 -0.481211 0
M  V30 54 H 6.5153 0.935821 -1.70963 0
M  V30 55 H 5.6113 2.44637 -1.93801 0
M  V30 56 N 5.9124 1.20967 1.01018 0
M  V30 57 C 7.3234 1.02319 1.56165 0
M  V30 58 C 7.6744 -0.418546 1.91684 0
M  V30 59 O 6.7994 -1.30096 1.72928 0
M  V30 60 C 7.3944 1.85109 2.8376 0
M  V30 61 C 5.9534 1.70809 3.35412 0
M  V30 62 C 5.1004 1.82643 2.08655 0
M  V30 63 H 8.0514 1.35065 0.833255 0
M  V30 64 H 8.0724 1.35827 3.55431 0
M  V30 65 H 7.5844 2.90035 2.57878 0
M  V30 66 H 5.6854 0.685464 3.66241 0
M  V30 67 H 5.7984 2.52467 4.07182 0
M  V30 68 H 4.1624 1.25896 2.21409 0
M  V30 69 H 4.9454 2.89066 1.85191 0
M  V30 70 N 7.3905 -1.2043 1.01659 0
M  V30 71 C 8.3205 -2.25466 0.607226 0
M  V30 72 C 9.3015 -1.65853 -0.377716 0
M  V30 73 O 10.4865 -1.92409 -0.263149 0
M  V30 74 C 7.6165 -3.47256 -0.0552949 0
M  V30 75 C 6.5705 -4.19462 0.850632 0
M  V30 76 C 5.8965 -5.34673 0.0538859 0
M  V30 77 C 7.1965 -4.75603 2.15868 0
M  V30 78 H 8.8905 -2.59962 1.48526 0
M  V30 79 H 6.4365 -1.2496 0.715605 0
M  V30 80 H 8.3895 -4.19917 -0.353233 0
M  V30 81 H 7.1135 -3.11924 -0.968045 0
M  V30 82 H 5.7725 -3.48667 1.13257 0
M  V30 83 H 5.4205 -4.95585 -0.860514 0
M  V30 84 H 5.1205 -5.83913 0.657192 0
M  V30 85 H 6.6445 -6.10138 -0.237598 0
M  V30 86 H 8.0585 -5.40083 1.92311 0
M  V30 87 H 6.4555 -5.3528 2.71284 0
M  V30 88 H 7.5255 -3.94346 2.82169 0
M  V30 89 N 8.8686 -0.792821 -1.36206 0
M  V30 90 C 10.2796 -0.429513 -1.81692 0
M  V30 91 C 10.6306 1.04695 -1.65932 0
M  V30 92 O 9.7556 1.81256 -1.18218 0
M  V30 93 C 10.3506 -0.772831 -3.29868 0
M  V30 94 C 8.9096 -0.462307 -3.7355 0
M  V30 95 C 8.0566 -1.00569 -2.5842 0
M  V30 96 H 11.0076 -0.985672 -1.24379 0
M  V30 97 H 11.0286 -0.0651928 -3.80444 0
M  V30 98 H 10.5406 -1.84747 -3.41307 0
M  V30 99 H 8.6416 0.604158 -3.67669 0
M  V30 100 H 8.7546 -0.985299 -4.68859 0
M  V30 101 H 7.1186 -0.428734 -2.51066 0
M  V30 102 H 7.9016 -2.08616 -2.72643 0
M  V30 103 N 10.3467 1.47872 -0.545128 0
M  V30 104 C 11.5947 2.02093 -0.016553 0
M  V30 105 C 11.9157 1.42305 1.3332 0
M  V30 106 O 11.1857 0.593853 1.86682 0
M  V30 107 H 9.7657 0.746993 -0.00313038 0
M  V30 108 H 12.4277 1.81414 -0.712397 0
M  V30 109 H 11.5237 3.11996 0.0805422 0
M  V30 110 N 11.8248 0.280983 1.55075 0
M  V30 111 C 13.0728 -0.333455 1.9933 0
M  V30 112 C 13.3938 -1.55937 1.17085 0
M  V30 113 O 12.6638 -1.94143 0.261805 0
M  V30 114 H 11.2438 -0.126197 0.736263 0
M  V30 115 H 13.9058 0.387678 1.91005 0
M  V30 116 H 13.0018 -0.619292 3.05894 0
M  V30 117 N 13.3029 -1.57598 0.00835791 0
M  V30 118 C 14.2329 -2.1198 -0.979113 0
M  V30 119 C 15.2139 -1.03091 -1.35301 0
M  V30 120 O 16.3989 -1.30818 -1.43528 0
M  V30 121 C 13.5289 -2.62995 -2.26828 0
M  V30 122 C 12.4829 -3.76485 -2.03576 0
M  V30 123 C 11.8089 -4.13846 -3.38579 0
M  V30 124 C 13.1089 -5.0342 -1.39161 0
M  V30 125 H 14.8029 -2.94738 -0.526281 0
M  V30 126 H 12.3489 -1.41783 -0.251704 0
M  V30 127 H 14.3019 -2.99669 -2.96271 0
M  V30 128 H 13.0259 -1.7737 -2.7424 0
M  V30 129 H 11.6849 -3.40217 -1.36557 0
M  V30 130 H 11.3329 -3.25232 -3.83709 0
M  V30 131 H 11.0329 -4.90312 -3.23834 0
M  V30 132 H 12.5569 -4.53086 -4.09323 0
M  V30 133 H 13.9709 -5.37812 -1.98573 0
M  V30 134 H 12.3679 -5.84746 -1.34878 0
M  V30 135 H 13.4379 -4.83548 -0.361868 0
M  V30 136 N 14.781 0.264519 -1.55364 0
M  V30 137 C 16.192 0.834936 -1.6699 0
M  V30 138 C 16.543 1.86718 -0.602552 0
M  V30 139 O 15.668 2.14899 0.254425 0
M  V30 140 C 16.263 1.5212 -3.02729 0
M  V30 141 C 14.822 2.03954 -3.16354 0
M  V30 142 C 13.969 0.884498 -2.62815 0
M  V30 143 H 16.92 0.0406869 -1.58648 0
M  V30 144 H 16.941 2.38853 -2.96191 0
M  V30 145 H 16.453 0.769668 -3.80392 0
M  V30 146 H 14.554 2.82041 -2.43482 0
M  V30 147 H 14.667 2.24902 -4.23032 0
M  V30 148 H 13.031 1.2802 -2.20188 0
M  V30 149 H 13.814 0.14634 -3.42988 0
M  V30 150 N 16.2591 1.48442 0.529413 0
M  V30 151 C 17.4841 1.60406 1.31471 0
M  V30 152 C 17.9091 0.264738 1.86228 0
M  V30 153 O 17.2671 -0.763668 1.64432 0
M  V30 154 C 17.3151 2.65419 2.44101 0
M  V30 155 O 16.4191 2.22618 3.47153 0
M  V30 156 H 15.7601 0.537863 0.389357 0
M  V30 157 H 18.2901 1.94432 0.636965 0
M  V30 158 H 18.3001 2.86709 2.90279 0
M  V30 159 H 16.9751 3.62652 2.03608 0
M  V30 160 H 15.5521 2.11543 3.0709 0
M  V30 161 N 17.7372 -0.778329 1.37039 0
M  V30 162 C 19.1482 -1.35421 1.28523 0
M  V30 163 C 19.4992 -1.96075 -0.0700901 0
M  V30 164 O 18.6242 -1.93352 -0.971801 0
M  V30 165 C 19.2192 -2.46211 2.32735 0
M  V30 166 C 17.7782 -2.99585 2.27873 0
M  V30 167 C 16.9252 -1.72748 2.16918 0
M  V30 168 H 19.8762 -0.5791 1.47757 0
M  V30 169 H 19.8972 -3.2552 1.9702 0
M  V30 170 H 19.4092 -2.02036 3.31365 0
M  V30 171 H 17.5102 -3.48152 1.32745 0
M  V30 172 H 17.6232 -3.55646 3.21018 0
M  V30 173 H 15.9872 -1.95416 1.63354 0
M  V30 174 H 16.7702 -1.30686 3.17452 0
M  V30 175 N 19.2153 -1.21501 -1.00376 0
M  V30 176 C 20.1253 -0.991447 -2.12621 0
M  V30 177 C 21.1413 0.0568446 -1.73907 0
M  V30 178 O 22.3173 -0.13348 -2.00957 0
M  V30 179 C 19.3823 -0.560312 -3.42142 0
M  V30 180 C 18.4433 -1.68096 -3.95022 0
M  V30 181 C 17.6763 -1.2703 -5.18362 0
M  V30 182 O 17.8993 -0.144438 -5.70217 0
M  V30 183 O 16.8333 -2.08269 -5.64719 0
M  V30 184 H 20.6593 -1.93158 -2.34358 0
M  V30 185 H 18.2443 -0.999999 -1.10997 0
M  V30 186 H 20.1263 -0.329724 -4.20108 0
M  V30 187 H 18.8013 0.351089 -3.2179 0
M  V30 188 H 17.7083 -1.96597 -3.18278 0
M  V30 189 H 19.0413 -2.56983 -4.19786 0
M  V30 190 N 20.6934 1.19889 -1.02296 0
M  V30 191 C 21.9704 1.85148 -0.630832 0
M  V30 192 C 22.3504 1.91385 0.890782 0
M  V30 193 O 21.6984 1.42642 1.78509 0
M  V30 194 C 21.9084 3.24442 -1.28602 0
M  V30 195 C 23.2564 4.00663 -1.4055 0
M  V30 196 O 24.2804 3.33818 -1.24273 0
M  V30 197 O 23.1394 5.20387 -1.66913 0
M  V30 198 H 20.2334 0.797613 -0.218499 0
M  V30 199 H 22.7794 1.27427 -1.12074 0
M  V30 200 H 21.5514 3.14704 -2.32545 0
M  V30 201 H 21.1744 3.89802 -0.7836 0
M  V30 202 N 22.1715 0.800033 1.35784 0
M  V30 203 C 23.1345 0.211565 2.28221 0
M  V30 204 C 24.1345 -0.59728 1.49296 0
M  V30 205 O 25.3245 -0.416721 1.69142 0
M  V30 206 C 22.4565 -0.705846 3.33513 0
M  V30 207 H 23.6495 1.02677 2.81776 0
M  V30 208 H 21.2025 0.570211 1.45528 0
M  V30 209 H 21.9375 -1.54498 2.85133 0
M  V30 210 H 21.7225 -0.127655 3.91892 0
M  V30 211 H 23.2125 -1.11211 4.02519 0
M  V30 212 N 23.6496 -1.47581 0.552962 0
M  V30 213 C 24.5826 -2.26883 -0.244857 0
M  V30 214 C 25.5606 -1.33784 -0.924147 0
M  V30 215 O 26.7446 -1.6316 -0.943981 0
M  V30 216 C 23.8716 -3.10695 -1.34856 0
M  V30 217 C 22.9176 -4.19339 -0.778268 0
M  V30 218 S 23.7506 -5.34207 0.37184 0
M  V30 219 C 24.9066 -6.21584 -0.733779 0
M  V30 220 H 25.1396 -2.94202 0.428087 0
M  V30 221 H 22.6726 -1.50628 0.339197 0
M  V30 222 H 24.6306 -3.59555 -1.98066 0
M  V30 223 H 23.2916 -2.42746 -1.99332 0
M  V30 224 H 22.4846 -4.77695 -1.60696 0
M  V30 225 H 22.0866 -3.73338 -0.222422 0
M  V30 226 H 24.3786 -6.57676 -1.62692 0
M  V30 227 H 25.3216 -7.07851 -0.187668 0
M  V30 228 H 25.7296 -5.55125 -1.02454 0
M  V30 229 N 25.1277 -0.289203 -1.54924 0
M  V30 230 C 26.3737 0.323998 -2.00195 0
M  V30 231 C 26.7067 1.54441 -1.17735 0
M  V30 232 O 25.9817 1.92875 -0.250878 0
M  V30 233 C 26.2647 0.692276 -3.53383 0
M  V30 234 C 26.1177 -0.536457 -4.46589 0
M  V30 235 C 27.4367 1.52335 -4.12895 0
M  V30 236 H 24.5557 0.116289 -0.727768 0
M  V30 237 H 27.1977 -0.398954 -1.85764 0
M  V30 238 H 25.3477 1.30822 -3.65811 0
M  V30 239 H 27.0197 -1.17499 -4.46085 0
M  V30 240 H 25.2627 -1.17192 -4.1767 0
M  V30 241 H 25.9337 -0.234806 -5.515 0
M  V30 242 H 28.4097 1.00302 -4.0383 0
M  V30 243 H 27.2857 1.74982 -5.20262 0
M  V30 244 H 27.5467 2.50886 -3.64018 0
M  V30 245 N 26.6058 1.57591 -0.0167156 0
M  V30 246 C 27.8338 1.95575 0.675128 0
M  V30 247 C 28.2488 0.892542 1.6637 0
M  V30 248 O 27.6058 -0.126912 1.82058 0
M  V30 249 C 27.6568 3.33608 1.39239 0
M  V30 250 O 27.3778 4.3585 0.443444 0
M  V30 251 C 28.8788 3.86151 2.17721 0
M  V30 252 H 26.0988 0.644423 0.186978 0
M  V30 253 H 28.6428 2.0437 -0.0728 0
M  V30 254 H 26.7978 3.2607 2.09182 0
M  V30 255 H 27.2118 5.158 0.951358 0
M  V30 256 H 28.6858 4.85114 2.63379 0
M  V30 257 H 29.1628 3.19738 3.01105 0
M  V30 258 H 29.7688 3.96918 1.52761 0
M  V30 259 N 28.0839 -0.256276 1.55502 0
M  V30 260 C 28.9939 -1.33882 1.92647 0
M  V30 261 C 30.0099 -1.53159 0.825727 0
M  V30 262 O 31.1859 -1.66963 1.12629 0
M  V30 263 C 28.2509 -2.6751 2.20543 0
M  V30 264 C 27.3119 -2.56836 3.43997 0
M  V30 265 C 26.5449 -3.84092 3.70553 0
M  V30 266 O 26.7679 -4.85545 2.99336 0
M  V30 267 O 25.7019 -3.83288 4.64084 0
M  V30 268 H 29.5279 -1.05374 2.84833 0
M  V30 269 H 27.1129 -0.456237 1.42263 0
M  V30 270 H 28.9949 -3.46492 2.39835 0
M  V30 271 H 27.6699 -2.9577 1.31536 0
M  V30 272 H 26.5769 -1.76172 3.30021 0
M  V30 273 H 27.9099 -2.33523 4.33275 0
M  V30 274 N 29.562 -1.4872 -0.521534 0
M  V30 275 C 30.492 -1.66771 -1.63431 0
M  V30 276 C 31.473 -0.516499 -1.62069 0
M  V30 277 O 32.658 -0.750013 -1.79132 0
M  V30 278 C 29.788 -1.71515 -3.01993 0
M  V30 279 C 28.742 -2.86222 -3.18216 0
M  V30 280 C 28.068 -2.76061 -4.57924 0
M  V30 281 C 29.368 -4.27419 -3.00184 0
M  V30 282 H 31.062 -2.59932 -1.48579 0
M  V30 283 H 28.608 -1.25089 -0.713358 0
M  V30 284 H 30.561 -1.82731 -3.7972 0
M  V30 285 H 29.285 -0.749393 -3.17886 0
M  V30 286 H 27.944 -2.74575 -2.42908 0
M  V30 287 H 27.592 -1.77437 -4.70665 0
M  V30 288 H 27.292 -3.53037 -4.69722 0
M  V30 289 H 28.816 -2.89256 -5.37739 0
M  V30 290 H 30.23 -4.39855 -3.67697 0
M  V30 291 H 28.627 -5.05458 -3.2347 0
M  V30 292 H 29.697 -4.43293 -1.96518 0
M  V30 293 N 31.0401 0.771051 -1.3745 0
M  V30 294 C 31.9701 1.89827 -1.3597 0
M  V30 295 C 32.9511 1.68562 -0.228216 0
M  V30 296 O 34.1361 1.8941 -0.428675 0
M  V30 297 C 31.2661 3.2712 -1.16662 0
M  V30 298 C 30.2201 3.6295 -2.2683 0
M  V30 299 C 29.5461 4.98791 -1.92644 0
M  V30 300 C 30.8461 3.69627 -3.69017 0
M  V30 301 H 32.5401 1.91323 -2.30295 0
M  V30 302 H 30.0861 0.919082 -1.10855 0
M  V30 303 H 32.0391 4.05615 -1.14256 0
M  V30 304 H 30.7631 3.26059 -0.187926 0
M  V30 305 H 29.4221 2.86763 -2.28392 0
M  V30 306 H 29.0701 4.94271 -0.933021 0
M  V30 307 H 28.7701 5.23733 -2.66416 0
M  V30 308 H 30.2941 5.79685 -1.91826 0
M  V30 309 H 31.7081 4.38273 -3.69581 0
M  V30 310 H 30.1051 4.06067 -4.41848 0
M  V30 311 H 31.1751 2.70273 -4.02592 0
M  V30 312 N 32.5182 1.22032 0.997298 0
M  V30 313 C 33.7432 1.06921 1.77715 0
M  V30 314 C 34.1682 -0.376226 1.84299 0
M  V30 315 O 33.5262 -1.27165 1.29223 0
M  V30 316 C 33.5742 1.67996 3.19076 0
M  V30 317 O 32.6782 0.930653 4.01762 0
M  V30 318 H 32.0192 0.375814 0.547412 0
M  V30 319 H 34.5492 1.61737 1.25309 0
M  V30 320 H 34.5592 1.72538 3.69723 0
M  V30 321 H 33.2342 2.73182 3.13599 0
M  V30 322 H 31.8112 0.960917 3.60307 0
M  V30 323 N 33.9963 -1.19345 1.0293 0
M  V30 324 C 35.4073 -1.70725 0.755633 0
M  V30 325 C 35.7583 -1.82326 -0.724676 0
M  V30 326 O 34.8833 -1.49471 -1.56484 0
M  V30 327 C 35.4783 -3.10084 1.36503 0
M  V30 328 C 34.0373 -3.58723 1.13994 0
M  V30 329 C 33.1843 -2.35577 1.46283 0
M  V30 330 H 36.1353 -1.0418 1.19718 0
M  V30 331 H 36.1563 -3.72787 0.762217 0
M  V30 332 H 35.6683 -3.01609 2.44241 0
M  V30 333 H 33.7693 -3.72512 0.0807901 0
M  V30 334 H 33.8823 -4.42816 1.82894 0
M  V30 335 H 32.2463 -2.38935 0.88217 0
M  V30 336 H 33.0293 -2.29731 2.55105 0
M  V30 337 N 35.4744 -0.807222 -1.35358 0
M  V30 338 C 36.3844 -0.219594 -2.3357 0
M  V30 339 C 37.4004 0.637734 -1.61892 0
M  V30 340 O 38.5764 0.549336 -1.93763 0
M  V30 341 C 35.6414 0.62158 -3.41083 0
M  V30 342 C 34.7024 -0.256315 -4.28534 0
M  V30 343 C 33.9354 0.544807 -5.30912 0
M  V30 344 O 34.1584 1.77944 -5.41934 0
M  V30 345 O 33.0924 -0.0646478 -6.01865 0
M  V30 346 H 36.9184 -1.03208 -2.85625 0
M  V30 347 H 34.5034 -0.569025 -1.38139 0
M  V30 348 H 36.3854 1.10067 -4.06772 0
M  V30 349 H 35.0604 1.41165 -2.91297 0
M  V30 350 H 33.9674 -0.782559 -3.65823 0
M  V30 351 H 35.3004 -1.01034 -4.81719 0
M  V30 352 N 36.9525 1.47285 -0.560781 0
M  V30 353 C 38.2005 2.02064 -0.0379868 0
M  V30 354 C 38.5215 1.43711 1.31803 0
M  V30 355 O 37.7915 0.61362 1.86042 0
M  V30 356 H 36.3715 0.746918 -0.0110531 0
M  V30 357 H 39.0335 1.80648 -0.731598 0
M  V30 358 H 38.1295 3.12064 0.0474463 0
M  V30 359 N 38.4306 0.297415 1.54768 0
M  V30 360 C 39.8416 -0.195947 1.85669 0
M  V30 361 C 40.1926 -1.53707 1.21937 0
M  V30 362 O 39.3176 -2.10164 0.515754 0
M  V30 363 C 39.9126 -0.362318 3.36857 0
M  V30 364 C 38.4716 -0.799901 3.67802 0
M  V30 365 C 37.6186 0.0938578 2.77141 0
M  V30 366 H 40.5696 0.518538 1.4999 0
M  V30 367 H 40.5906 -1.19745 3.61167 0
M  V30 368 H 40.1026 0.613921 3.83214 0
M  V30 369 H 38.2036 -1.78682 3.26961 0
M  V30 370 H 38.3166 -0.621773 4.75048 0
M  V30 371 H 36.6806 -0.426254 2.51108 0
M  V30 372 H 37.4636 1.06639 3.26318 0
M  V30 373 N 39.9087 -1.5758 0.0250728 0
M  V30 374 C 41.1557 -1.91633 -0.654444 0
M  V30 375 C 41.4837 -0.901103 -1.72367 0
M  V30 376 O 40.7387 0.0905647 -1.9549 0
M  V30 377 C 41.0377 -3.32421 -1.31268 0
M  V30 378 C 40.7037 -4.49344 -0.374223 0
M  V30 379 C 39.3657 -4.8106 -0.115911 0
M  V30 380 C 41.7177 -5.20498 0.270432 0
M  V30 381 C 39.0457 -5.8129 0.79493 0
M  V30 382 C 41.3977 -6.21699 1.1693 0
M  V30 383 C 40.0617 -6.51859 1.43655 0
M  V30 384 H 39.3317 -0.701236 -0.239478 0
M  V30 385 H 41.9787 -1.91307 0.0859734 0
M  V30 386 H 40.2837 -3.28989 -2.12775 0
M  V30 387 H 41.9807 -3.56038 -1.84494 0
M  V30 388 H 38.5707 -4.24579 -0.58573 0
M  V30 389 H 42.7547 -4.96229 0.0839194 0
M  V30 390 H 38.0107 -6.03005 1.00973 0
M  V30 391 H 42.1847 -6.75955 1.67504 0
M  V30 392 H 39.8117 -7.2934 2.144 0
M  V30 393 N 41.3868 0.248026 -1.55636 0
M  V30 394 C 42.3498 1.29044 -1.89421 0
M  V30 395 C 43.3498 1.41134 -0.770581 0
M  V30 396 O 44.5398 1.39854 -1.03858 0
M  V30 397 C 41.6718 2.66831 -2.12165 0
M  V30 398 H 42.8648 1.00305 -2.82629 0
M  V30 399 H 40.4178 0.487265 -1.48511 0
M  V30 400 H 41.1528 3.00711 -1.21422 0
M  V30 401 H 40.9378 2.59438 -2.93997 0
M  V30 402 H 42.4278 3.42103 -2.3949 0
M  V30 403 N 42.8649 1.48995 0.513639 0
M  V30 404 C 44.0899 1.61792 1.29762 0
M  V30 405 C 44.5149 0.284475 1.85936 0
M  V30 406 O 43.8729 -0.746185 1.65232 0
M  V30 407 C 43.9209 2.67993 2.41272 0
M  V30 408 O 43.0249 2.26287 3.44772 0
M  V30 409 H 42.3659 0.541963 0.38363 0
M  V30 410 H 44.8959 1.95097 0.616307 0
M  V30 411 H 44.9059 2.89772 2.87221 0
M  V30 412 H 43.5809 3.64791 1.9975 0
M  V30 413 H 42.1579 2.14788 3.04829 0
M  V30 414 N 44.343 -0.763751 1.37857 0
M  V30 415 C 45.253 -1.90817 1.36478 0
M  V30 416 C 46.269 -1.71997 0.263248 0
M  V30 417 O 47.445 -1.95095 0.499979 0
M  V30 418 C 44.51 -3.2605 1.17864 0
M  V30 419 C 43.571 -3.57467 2.3773 0
M  V30 420 C 42.804 -4.86249 2.19995 0
M  V30 421 O 43.027 -5.57884 1.18836 0
M  V30 422 O 41.961 -5.16911 3.08361 0
M  V30 423 H 45.787 -1.94933 2.32884 0
M  V30 424 H 43.372 -0.907619 1.1867 0
M  V30 425 H 45.254 -4.06924 1.09504 0
M  V30 426 H 43.929 -3.22769 0.245372 0
M  V30 427 H 42.836 -2.76796 2.51664 0
M  V30 428 H 44.169 -3.655 3.29652 0
M  V30 429 N 45.8211 -1.22559 -0.990812 0
M  V30 430 C 46.7691 -0.994798 -2.10253 0
M  V30 431 C 47.7631 0.0627798 -1.69284 0
M  V30 432 O 48.9691 -0.0898392 -1.79776 0
M  V30 433 H 45.3441 -0.304527 -0.687581 0
M  V30 434 H 47.3151 -1.93812 -2.26891 0
M  V30 435 C 46.0641 -0.591439 -3.42633 0
M  V30 436 H 45.3871 -1.3969 -3.74602 0
M  V30 437 H 46.8271 -0.469385 -4.21394 0
M  V30 438 C 45.2861 0.699232 -3.29564 0
M  V30 439 O 45.8161 1.75112 -3.61523 0
M  V30 440 N 44.0221 0.671182 -2.82743 0
M  V30 441 H 43.5691 -0.185136 -2.56934 0
M  V30 442 H 43.5271 1.53502 -2.7438 0
M  V30 443 N 47.2992 1.18797 -1.03562 0
M  V30 444 C 48.5482 1.87978 -0.731235 0
M  V30 445 C 48.8612 1.80911 0.743671 0
M  V30 446 O 50.0672 2.45407 1.16137 0
M  V30 447 C 48.5232 3.3721 -1.25768 0
M  V30 448 C 48.1312 3.52818 -2.76085 0
M  V30 449 C 49.8752 4.11825 -1.0296 0
M  V30 450 C 47.7822 4.9598 -3.22114 0
M  V30 451 H 46.7122 0.704063 -0.269835 0
M  V30 452 H 49.3632 1.34266 -1.25079 0
M  V30 453 H 47.7452 3.90359 -0.666011 0
M  V30 454 H 48.9192 3.09965 -3.40966 0
M  V30 455 H 47.2342 2.91602 -2.97249 0
M  V30 456 H 49.8312 5.17411 -1.34869 0
M  V30 457 H 50.1742 4.16287 0.0333546 0
M  V30 458 H 50.7072 3.64833 -1.58562 0
M  V30 459 H 47.4462 4.96684 -4.27768 0
M  V30 460 H 46.9662 5.39569 -2.61965 0
M  V30 461 H 48.6452 5.6467 -3.15844 0
M  V30 462 N 48.7773 0.814389 1.34928 0
M  V30 463 C 50.0253 0.397636 1.9815 0
M  V30 464 C 50.3463 -1.04069 1.64908 0
M  V30 465 O 49.6163 -1.72121 0.93548 0
M  V30 466 H 48.1963 0.144043 0.732981 0
M  V30 467 H 50.8583 1.04195 1.6471 0
M  V30 468 H 49.9543 0.509688 3.0791 0
M  V30 469 N 50.2554 -1.46986 0.568584 0
M  V30 470 C 51.1854 -2.32946 -0.160753 0
M  V30 471 C 52.1664 -1.44487 -0.897631 0
M  V30 472 O 53.3514 -1.73327 -0.875867 0
M  V30 473 C 50.4814 -3.26494 -1.18403 0
M  V30 474 C 49.4354 -4.24282 -0.562895 0
M  V30 475 C 48.7614 -5.07236 -1.69163 0
M  V30 476 C 50.0614 -5.19989 0.490761 0
M  V30 477 H 51.7554 -2.94175 0.556916 0
M  V30 478 H 49.3014 -1.4146 0.26927 0
M  V30 479 H 51.2544 -3.85477 -1.70251 0
M  V30 480 H 49.9784 -2.63343 -1.93179 0
M  V30 481 H 48.6374 -3.66541 -0.0656164 0
M  V30 482 H 48.2854 -4.4048 -2.42871 0
M  V30 483 H 47.9854 -5.7345 -1.28174 0
M  V30 484 H 49.5094 -5.6908 -2.21314 0
M  V30 485 H 50.9234 -5.73271 0.0579047 0
M  V30 486 H 49.3204 -5.94469 0.820165 0
M  V30 487 H 50.3904 -4.64777 1.3824 0
M  V30 488 N 51.7335 -0.305618 -1.54608 0
M  V30 489 C 52.6805 0.568421 -2.23691 0
M  V30 490 C 53.6505 1.12592 -1.22116 0
M  V30 491 O 54.8355 1.16959 -1.50749 0
M  V30 492 C 51.9755 1.7322 -2.98477 0
M  V30 493 C 51.0885 1.20566 -4.14835 0
M  V30 494 C 50.2235 2.33368 -4.77193 0
M  V30 495 C 49.2625 1.7787 -5.85686 0
M  V30 496 N 48.3995 2.84263 -6.4198 0
M  V30 497 H 53.2395 -0.0272867 -2.97988 0
M  V30 498 H 50.7765 -0.0252363 -1.47078 0
M  V30 499 H 52.7345 2.41675 -3.40072 0
M  V30 500 H 51.3645 2.29947 -2.26548 0
M  V30 501 H 50.4165 0.413223 -3.78149 0
M  V30 502 H 51.7285 0.759417 -4.92985 0
M  V30 503 H 50.8825 3.09761 -5.21664 0
M  V30 504 H 49.6215 2.8132 -3.98385 0
M  V30 505 H 48.6265 0.99968 -5.40635 0
M  V30 506 H 49.8515 1.30816 -6.66381 0
M  V30 507 H 47.7975 3.31541 -5.66053 0
M  V30 508 H 47.7145 2.44149 -7.15491 0
M  V30 509 H 48.9825 3.6054 -6.91109 0
M  V30 510 N 53.2116 1.57565 -0.0334293 0
M  V30 511 C 54.1746 2.09393 0.932048 0
M  V30 512 C 55.1746 1.00986 1.25134 0
M  V30 513 O 56.3646 1.27129 1.19096 0
M  V30 514 C 53.4966 2.56338 2.2473 0
M  V30 515 H 54.6896 2.95984 0.483085 0
M  V30 516 H 52.2426 1.54819 0.21468 0
M  V30 517 H 52.9776 1.7309 2.74245 0
M  V30 518 H 52.7626 3.35542 2.02865 0
M  V30 519 H 54.2526 2.96646 2.93923 0
M  V30 520 N 54.6897 -0.239769 1.55765 0
M  V30 521 C 56.1007 -0.808263 1.68297 0
M  V30 522 C 56.4517 -1.85736 0.632181 0
M  V30 523 O 55.5767 -2.15277 -0.220204 0
M  V30 524 C 56.1717 -1.47284 3.05111 0
M  V30 525 C 54.7307 -1.98895 3.19559 0
M  V30 526 C 53.8777 -0.842575 2.64189 0
M  V30 527 H 56.8287 -0.0154422 1.58692 0
M  V30 528 H 56.8497 -2.34111 2.99954 0
M  V30 529 H 56.3617 -0.709053 3.81568 0
M  V30 530 H 54.4627 -2.78132 2.47938 0
M  V30 531 H 54.5757 -2.18143 4.26556 0
M  V30 532 H 52.9397 -1.24501 2.22197 0
M  V30 533 H 53.7227 -0.0917552 3.43177 0
M  V30 534 N 56.1678 -1.49265 -0.50573 0
M  V30 535 C 57.4138 -1.58748 -1.26202 0
M  V30 536 C 57.7468 -0.271227 -1.92297 0
M  V30 537 O 57.0218 0.724831 -1.80489 0
M  V30 538 C 57.3048 -2.74332 -2.33268 0
M  V30 539 C 57.1578 -4.15737 -1.71705 0
M  V30 540 C 58.4768 -2.85576 -3.34865 0
M  V30 541 H 55.5958 -0.577826 -0.457478 0
M  V30 542 H 58.2378 -1.81532 -0.560897 0
M  V30 543 H 56.3878 -2.55036 -2.93068 0
M  V30 544 H 58.0598 -4.46537 -1.15769 0
M  V30 545 H 56.3028 -4.21605 -1.02135 0
M  V30 546 H 56.9738 -4.92477 -2.49341 0
M  V30 547 H 59.4498 -3.03127 -2.8505 0
M  V30 548 H 58.3258 -3.68135 -4.07146 0
M  V30 549 H 58.5868 -1.94732 -3.96903 0
M  V30 550 N 57.6459 0.756429 -1.3826 0
M  V30 551 C 58.5929 1.87011 -1.35261 0
M  V30 552 C 59.5629 1.64695 -0.215616 0
M  V30 553 O 60.7479 1.864 -0.407399 0
M  V30 554 C 57.8879 3.24275 -1.18068 0
M  V30 555 C 57.0009 3.58442 -2.41129 0
M  V30 556 C 56.1359 4.84994 -2.16689 0
M  V30 557 C 55.1749 5.11939 -3.35537 0
M  V30 558 N 54.3119 6.29685 -3.10549 0
M  V30 559 H 59.1519 1.8891 -2.30472 0
M  V30 560 H 56.6889 0.923373 -1.14509 0
M  V30 561 H 58.6469 4.03479 -1.06116 0
M  V30 562 H 57.2769 3.21711 -0.264973 0
M  V30 563 H 56.3289 2.74103 -2.63764 0
M  V30 564 H 57.6409 3.74283 -3.29717 0
M  V30 565 H 56.7949 5.72135 -2.01857 0
M  V30 566 H 55.5339 4.71286 -1.25462 0
M  V30 567 H 54.5389 4.23268 -3.50891 0
M  V30 568 H 55.7639 5.27546 -4.27635 0
M  V30 569 H 53.7099 6.17306 -2.21967 0
M  V30 570 H 53.6269 6.46014 -3.92686 0
M  V30 571 H 54.8949 7.19722 -2.99367 0
M  V30 572 N 59.124 1.23083 0.984299 0
M  V30 573 C 60.354 1.08556 1.75781 0
M  V30 574 C 60.762 -0.366171 1.85623 0
M  V30 575 O 60.105 -1.26524 1.33182 0
M  V30 576 C 60.167 1.63208 3.20318 0
M  V30 577 C 59.831 3.11922 3.33997 0
M  V30 578 C 60.828 4.09259 3.2063 0
M  V30 579 C 58.513 3.51552 3.58771 0
M  V30 580 C 60.507 5.4421 3.31835 0
M  V30 581 C 58.194 4.86649 3.69616 0
M  V30 582 C 59.192 5.82787 3.56157 0
M  V30 583 O 58.88 7.15431 3.66626 0
M  V30 584 H 58.612 0.380713 0.5586 0
M  V30 585 H 61.166 1.63321 1.2456 0
M  V30 586 H 59.396 1.0286 3.72769 0
M  V30 587 H 61.085 1.44216 3.79416 0
M  V30 588 H 61.851 3.79984 3.01392 0
M  V30 589 H 57.73 2.77239 3.6832 0
M  V30 590 H 61.274 6.1923 3.21247 0
M  V30 591 H 57.171 5.15601 3.88363 0
M  V30 592 H 57.939 7.23127 3.83445 0
M  V30 593 N 60.6021 -1.18246 1.0419 0
M  V30 594 C 61.5121 -2.25574 0.644476 0
M  V30 595 C 62.5281 -1.70845 -0.329826 0
M  V30 596 O 63.7041 -2.00554 -0.184443 0
M  V30 597 C 60.7691 -3.46697 0.014877 0
M  V30 598 C 59.8301 -4.16554 1.03834 0
M  V30 599 C 59.0631 -5.31894 0.438692 0
M  V30 600 O 59.2861 -5.65385 -0.754752 0
M  V30 601 O 58.2201 -5.90459 1.168 0
M  V30 602 H 62.0461 -2.61836 1.53869 0
M  V30 603 H 59.6311 -1.25352 0.812854 0
M  V30 604 H 61.5131 -4.20062 -0.335538 0
M  V30 605 H 60.1881 -3.12255 -0.853138 0
M  V30 606 H 59.0951 -3.45251 1.44057 0
M  V30 607 H 60.4281 -4.54998 1.87716 0
M  V30 608 N 62.0802 -0.821533 -1.34494 0
M  V30 609 C 62.9902 -0.244355 -2.33324 0
M  V30 610 C 64.0062 0.620527 -1.62559 0
M  V30 611 O 65.1822 0.528754 -1.94335 0
M  V30 612 C 62.2472 0.585368 -3.41723 0
M  V30 613 C 61.3082 -0.301752 -4.28238 0
M  V30 614 C 60.5412 0.488466 -5.3146 0
M  V30 615 O 60.7642 1.72186 -5.4379 0
M  V30 616 O 59.6982 -0.12848 -6.01763 0
M  V30 617 H 63.5242 -1.06231 -2.84515 0
M  V30 618 H 61.1092 -0.583645 -1.37528 0
M  V30 619 H 62.9912 1.05747 -4.07916 0
M  V30 620 H 61.6662 1.38068 -2.92778 0
M  V30 621 H 60.5732 -0.821315 -3.64973 0
M  V30 622 H 61.9062 -1.06138 -4.8062 0
M  V30 623 N 63.5583 1.46682 -0.576371 0
M  V30 624 C 64.8353 1.95599 0.00703437 0
M  V30 625 C 65.2153 1.51904 1.46589 0
M  V30 626 O 64.5633 0.766755 2.15251 0
M  V30 627 C 64.7733 3.4864 -0.158404 0
M  V30 628 C 66.1213 4.24594 -0.0229439 0
M  V30 629 O 67.1453 3.56094 -0.0869173 0
M  V30 630 O 66.0043 5.46373 0.118015 0
M  V30 631 H 63.0983 0.825275 0.053384 0
M  V30 632 H 65.6443 1.56996 -0.644244 0
M  V30 633 H 64.4163 3.7331 -1.17282 0
M  V30 634 H 64.0393 3.94057 0.5296 0
M  V30 635 N 65.0364 0.313813 1.54444 0
M  V30 636 C 65.9464 -0.565714 2.27677 0
M  V30 637 C 66.9624 -1.13754 1.31666 0
M  V30 638 O 68.1384 -1.15959 1.64668 0
M  V30 639 C 65.2034 -1.71528 3.01296 0
M  V30 640 C 64.2644 -1.17624 4.12872 0
M  V30 641 C 63.4974 -2.27102 4.8297 0
M  V30 642 O 63.7204 -3.47256 4.52514 0
M  V30 643 O 62.6544 -1.9307 5.70094 0
M  V30 644 H 66.4804 0.0287296 3.03686 0
M  V30 645 H 64.0654 0.0798312 1.49187 0
M  V30 646 H 65.9474 -2.38476 3.4743 0
M  V30 647 H 64.6224 -2.29608 2.2817 0
M  V30 648 H 63.5294 -0.472124 3.71109 0
M  V30 649 H 64.8624 -0.640695 4.88012 0
M  V30 650 N 66.5145 -1.57545 0.0417849 0
M  V30 651 C 67.7615 -1.92317 -0.634082 0
M  V30 652 C 68.0895 -0.919334 -1.71402 0
M  V30 653 O 67.3445 0.0698253 -1.95575 0
M  V30 654 C 67.6435 -3.33794 -1.27735 0
M  V30 655 C 67.3095 -4.49716 -0.326543 0
M  V30 656 C 65.9715 -4.81156 -0.0648814 0
M  V30 657 C 68.3235 -5.20182 0.325623 0
M  V30 658 C 65.6515 -5.80414 0.856539 0
M  V30 659 C 68.0035 -6.20424 1.23518 0
M  V30 660 C 66.6675 -6.50298 1.5056 0
M  V30 661 H 65.9375 -0.703736 -0.232027 0
M  V30 662 H 68.5845 -1.91205 0.106259 0
M  V30 663 H 66.8895 -3.31228 -2.09274 0
M  V30 664 H 68.5865 -3.57975 -1.80707 0
M  V30 665 H 65.1765 -4.25176 -0.540665 0
M  V30 666 H 69.3605 -4.96112 0.136546 0
M  V30 667 H 64.6165 -6.019 1.07363 0
M  V30 668 H 68.7905 -6.74141 1.74664 0
M  V30 669 H 66.4175 -7.27025 2.22123 0
M  V30 670 N 67.9926 0.231505 -1.5589 0
M  V30 671 C 68.9426 1.29007 -1.87993 0
M  V30 672 C 69.9266 1.42764 -0.742102 0
M  V30 673 O 71.1186 1.45747 -1.00433 0
M  V30 674 C 68.2476 2.6425 -2.1915 0
M  V30 675 C 67.3336 2.54435 -3.39299 0
M  V30 676 N 67.7246 2.14262 -4.58176 0
M  V30 677 C 66.0226 2.85416 -3.42715 0
M  V30 678 C 66.7236 2.15455 -5.40328 0
M  V30 679 N 65.6996 2.55558 -4.79783 0
M  V30 680 H 69.5016 0.970213 -2.77424 0
M  V30 681 H 67.0156 0.440097 -1.56323 0
M  V30 682 H 69.0126 3.40665 -2.40319 0
M  V30 683 H 67.6726 2.9709 -1.31025 0
M  V30 684 H 68.6836 1.85554 -4.83518 0
M  V30 685 H 65.3606 3.22693 -2.64906 0
M  V30 686 H 66.7506 1.86605 -6.45467 0
M  V30 687 N 69.4707 1.49531 0.497807 0
M  V30 688 C 70.7167 1.59415 1.25358 0
M  V30 689 C 71.0497 0.281422 1.9215 0
M  V30 690 O 70.3247 -0.715249 1.80871 0
M  V30 691 C 70.6077 2.75566 2.3181 0
M  V30 692 C 70.4607 4.16642 1.69498 0
M  V30 693 C 71.7797 2.87347 3.33346 0
M  V30 694 H 68.8987 0.580244 0.454408 0
M  V30 695 H 71.5407 1.81827 0.551262 0
M  V30 696 H 69.6907 2.56587 2.91711 0
M  V30 697 H 71.3627 4.47145 1.13399 0
M  V30 698 H 69.6057 4.22141 0.998978 0
M  V30 699 H 70.2767 4.93792 2.46725 0
M  V30 700 H 72.7527 3.04634 2.83438 0
M  V30 701 H 71.6287 3.70289 4.05188 0
M  V30 702 H 71.8897 1.96834 3.95865 0
M  V30 703 N 70.9488 -0.749086 1.3866 0
M  V30 704 C 72.1958 -1.50833 1.35114 0
M  V30 705 C 72.5238 -1.94415 -0.0574049 0
M  V30 706 O 71.7788 -1.66065 -1.03541 0
M  V30 707 C 72.0778 -2.7712 2.25697 0
M  V30 708 C 71.7438 -2.52477 3.73585 0
M  V30 709 C 70.4058 -2.45466 4.13884 0
M  V30 710 C 72.7578 -2.31066 4.67181 0
M  V30 711 C 70.0858 -2.15064 5.45861 0
M  V30 712 C 72.4378 -2.02183 5.9942 0
M  V30 713 C 71.1018 -1.93631 6.38798 0
M  V30 714 H 70.3718 -0.551936 0.494416 0
M  V30 715 H 73.0188 -0.860979 1.71054 0
M  V30 716 H 71.3238 -3.46528 1.82827 0
M  V30 717 H 73.0208 -3.35096 2.20254 0
M  V30 718 H 69.6108 -2.58807 3.41638 0
M  V30 719 H 73.7948 -2.35459 4.3689 0
M  V30 720 H 69.0508 -2.06954 5.75308 0
M  V30 721 H 73.2248 -1.8462 6.71482 0
M  V30 722 H 70.8518 -1.69839 7.40985 0
M  V30 723 N 72.4269 -1.23603 -0.977757 0
M  V30 724 C 73.3739 -1.01954 -2.07061 0
M  V30 725 C 74.3439 0.0638697 -1.65977 0
M  V30 726 O 75.5289 -0.0887624 -1.90593 0
M  V30 727 C 72.6689 -0.619658 -3.39491 0
M  V30 728 C 71.7819 -1.77547 -3.93829 0
M  V30 729 C 70.9169 -1.32212 -5.14484 0
M  V30 730 C 69.9559 -2.44852 -5.60994 0
M  V30 731 N 69.0929 -2.00456 -6.72876 0
M  V30 732 H 73.9329 -1.95495 -2.24913 0
M  V30 733 H 71.4699 -0.973861 -1.10247 0
M  V30 734 H 73.4279 -0.368898 -4.15566 0
M  V30 735 H 72.0579 0.278752 -3.21594 0
M  V30 736 H 71.1099 -2.14016 -3.14486 0
M  V30 737 H 72.4219 -2.62219 -4.24314 0
M  V30 738 H 71.5759 -1.02965 -5.97899 0
M  V30 739 H 70.3149 -0.445808 -4.85658 0
M  V30 740 H 69.3199 -2.74871 -4.76157 0
M  V30 741 H 70.5449 -3.33024 -5.91837 0
M  V30 742 H 68.4909 -1.15208 -6.45804 0
M  V30 743 H 68.4079 -2.78687 -7.02759 0
M  V30 744 H 69.6759 -1.7432 -7.59758 0
M  V30 745 N 73.905 1.17692 -1.04816 0
M  V30 746 C 74.815 2.25229 -0.65643 0
M  V30 747 C 75.831 1.71018 0.320761 0
M  V30 748 O 77.007 2.00649 0.173805 0
M  V30 749 C 74.072 3.46684 -0.0332629 0
M  V30 750 C 73.133 4.15997 -1.06042 0
M  V30 751 C 72.366 5.31654 -0.466893 0
M  V30 752 O 72.589 5.65777 0.724758 0
M  V30 753 O 71.523 5.89831 -1.1993 0
M  V30 754 H 75.349 2.61016 -1.55255 0
M  V30 755 H 72.934 1.24919 -0.81949 0
M  V30 756 H 74.816 4.20234 0.313256 0
M  V30 757 H 73.491 3.12703 0.836566 0
M  V30 758 H 72.398 3.44482 -1.45886 0
M  V30 759 H 73.731 4.53996 -1.90127 0
M  V30 760 N 75.3831 0.828654 1.34056 0
M  V30 761 C 76.3461 0.259927 2.27721 0
M  V30 762 C 77.3461 -0.565478 1.50529 0
M  V30 763 O 78.5361 -0.38075 1.69988 0
M  V30 764 C 75.6681 -0.634944 3.34935 0
M  V30 765 H 76.8611 1.0863 2.79534 0
M  V30 766 H 74.4141 0.600951 1.44285 0
M  V30 767 H 75.1491 -1.48416 2.88346 0
M  V30 768 H 74.9341 -0.0444999 3.92075 0
M  V30 769 H 76.4241 -1.02648 4.04788 0
M  V30 770 N 76.8612 -1.46375 0.584142 0
M  V30 771 C 78.0912 -2.06461 0.0758195 0
M  V30 772 C 78.4992 -1.43322 -1.23512 0
M  V30 773 O 77.8422 -0.533216 -1.75791 0
M  V30 774 C 77.9042 -3.59131 -0.162773 0
M  V30 775 C 77.5682 -4.4447 1.06279 0
M  V30 776 C 78.5652 -4.80918 1.97519 0
M  V30 777 C 76.2502 -4.85584 1.28504 0
M  V30 778 C 78.2442 -5.57309 3.09331 0
M  V30 779 C 75.9312 -5.61734 2.4062 0
M  V30 780 C 76.9292 -5.9751 3.30863 0
M  V30 781 O 76.6172 -6.72121 4.41032 0
M  V30 782 H 76.3492 -0.673745 0.0551725 0
M  V30 783 H 78.9032 -1.88969 0.804984 0
M  V30 784 H 77.1332 -3.74936 -0.946565 0
M  V30 785 H 78.8222 -4.0114 -0.619782 0
M  V30 786 H 79.5882 -4.49732 1.81565 0
M  V30 787 H 75.4672 -4.57187 0.591702 0
M  V30 788 H 79.0112 -5.85152 3.79793 0
M  V30 789 H 74.9082 -5.92334 2.56537 0
M  V30 790 H 75.6762 -6.90547 4.39417 0
M  V30 791 N 78.3393 -0.321999 -1.54275 0
M  V30 792 C 79.2693 0.537411 -2.27231 0
M  V30 793 C 80.2503 1.12064 -1.27968 0
M  V30 794 O 81.4353 1.14606 -1.56777 0
M  V30 795 C 78.5653 1.69919 -3.02894 0
M  V30 796 C 77.5193 1.24534 -4.09482 0
M  V30 797 C 76.8453 2.49394 -4.72977 0
M  V30 798 C 78.1453 0.361335 -5.21049 0
M  V30 799 H 79.8393 -0.0711406 -2.99315 0
M  V30 800 H 77.3853 -0.0356555 -1.43956 0
M  V30 801 H 79.3383 2.30668 -3.52662 0
M  V30 802 H 78.0623 2.33431 -2.28424 0
M  V30 803 H 76.7213 0.660782 -3.60596 0
M  V30 804 H 76.3693 3.11265 -3.95124 0
M  V30 805 H 76.0693 2.19718 -5.44975 0
M  V30 806 H 77.5933 3.10908 -5.25517 0
M  V30 807 H 79.0073 0.875072 -5.66582 0
M  V30 808 H 77.4043 0.157428 -5.99893 0
M  V30 809 H 78.4743 -0.60822 -4.8107 0
M  V30 810 N 79.8174 1.5752 -0.0501392 0
M  V30 811 C 81.0654 1.9227 0.622642 0
M  V30 812 C 81.3864 0.929083 1.71444 0
M  V30 813 O 80.6564 -0.0262186 1.95882 0
M  V30 814 H 79.2364 0.709739 0.232981 0
M  V30 815 H 81.8984 1.94628 -0.102898 0
M  V30 816 H 80.9944 2.93479 1.06191 0
M  V30 817 N 81.2955 -0.223234 1.56011 0
M  V30 818 C 82.7065 -0.790368 1.69145 0
M  V30 819 C 83.0575 -1.85055 0.651845 0
M  V30 820 O 82.1825 -2.15498 -0.197359 0
M  V30 821 C 82.7775 -1.4404 3.06656 0
M  V30 822 C 81.3365 -1.95494 3.2165 0
M  V30 823 C 80.4835 -0.814506 2.65068 0
M  V30 824 H 83.4345 0.00139011 1.587 0
M  V30 825 H 83.4555 -2.30916 3.0242 0
M  V30 826 H 82.9675 -0.668543 3.82298 0
M  V30 827 H 81.0685 -2.75487 2.50874 0
M  V30 828 H 81.1815 -2.13607 4.28846 0
M  V30 829 H 79.5455 -1.22137 2.23505 0
M  V30 830 H 80.3285 -0.0553515 3.43255 0
M  V30 831 N 82.7736 -1.49793 -0.48987 0
M  V30 832 C 83.7366 -1.66752 -1.57246 0
M  V30 833 C 84.7366 -0.538867 -1.51502 0
M  V30 834 O 85.9266 -0.805545 -1.54456 0
M  V30 835 C 83.0586 -1.67528 -2.96896 0
M  V30 836 H 84.2516 -2.63321 -1.43534 0
M  V30 837 H 81.8046 -1.38992 -0.714914 0
M  V30 838 H 82.5396 -0.725837 -3.16073 0
M  V30 839 H 82.3246 -2.49504 -3.02473 0
M  V30 840 H 83.8146 -1.82667 -3.7553 0
M  V30 841 N 84.2517 0.741722 -1.39055 0
M  V30 842 C 85.5287 1.49252 -1.26425 0
M  V30 843 C 85.9087 2.10705 0.129144 0
M  V30 844 O 85.2567 1.98045 1.13976 0
M  V30 845 C 85.4667 2.54934 -2.38347 0
M  V30 846 C 86.8147 3.21506 -2.77343 0
M  V30 847 O 87.8387 2.65245 -2.37747 0
M  V30 848 O 86.6977 4.23294 -3.45665 0
M  V30 849 H 83.7917 0.662451 -0.495064 0
M  V30 850 H 86.3377 0.776121 -1.50912 0
M  V30 851 H 85.1097 2.07857 -3.31529 0
M  V30 852 H 84.7327 3.34141 -2.15489 0
M  V30 853 N 85.7298 1.2412 0.971189 0
M  V30 854 C 87.1408 1.07236 1.52831 0
M  V30 855 C 87.4918 -0.357352 1.92918 0
M  V30 856 O 86.6168 -1.24528 1.76979 0
M  V30 857 C 87.2118 1.94043 2.77728 0
M  V30 858 C 85.7708 1.81394 3.29808 0
M  V30 859 C 84.9178 1.89189 2.02738 0
M  V30 860 H 87.8688 1.37648 0.789864 0
M  V30 861 H 87.8898 1.47066 3.5093 0
M  V30 862 H 87.4018 2.98093 2.4852 0
M  V30 863 H 85.5028 0.801634 3.63874 0
M  V30 864 H 85.6158 2.65294 3.98944 0
M  V30 865 H 83.9798 1.32877 2.17292 0
M  V30 866 H 84.7628 2.94812 1.759 0
M  V30 867 N 87.2079 -1.17134 1.05439 0
M  V30 868 C 88.1549 -2.21235 0.657539 0
M  V30 869 C 89.1249 -1.62551 -0.341543 0
M  V30 870 O 90.3099 -1.89379 -0.232393 0
M  V30 871 C 87.4499 -3.45076 0.0410575 0
M  V30 872 C 86.5629 -4.18042 1.08927 0
M  V30 873 C 85.6979 -5.29376 0.439848 0
M  V30 874 C 84.7369 -5.94132 1.4722 0
M  V30 875 N 83.8739 -6.96975 0.846756 0
M  V30 876 H 88.7139 -2.54534 1.54972 0
M  V30 877 H 86.2509 -1.25028 0.775006 0
M  V30 878 H 88.2089 -4.15862 -0.33383 0
M  V30 879 H 86.8389 -3.12353 -0.814568 0
M  V30 880 H 85.8909 -3.45945 1.58196 0
M  V30 881 H 87.2029 -4.62306 1.87282 0
M  V30 882 H 86.3569 -6.06699 0.0115125 0
M  V30 883 H 85.0959 -4.86251 -0.375656 0
M  V30 884 H 84.1009 -5.15538 1.91052 0
M  V30 885 H 85.3259 -6.39337 2.28965 0
M  V30 886 H 83.2719 -6.5598 0.0518075 0
M  V30 887 H 83.1889 -7.39565 1.5678 0
M  V30 888 H 84.4569 -7.78239 0.443277 0
M  V30 889 N 88.686 -0.835752 -1.33615 0
M  V30 890 C 89.596 -0.269088 -2.33052 0
M  V30 891 C 90.612 0.603251 -1.63208 0
M  V30 892 O 91.788 0.508112 -1.94885 0
M  V30 893 C 88.853 0.549091 -3.42324 0
M  V30 894 C 87.914 -0.347156 -4.27894 0
M  V30 895 C 87.147 0.43207 -5.31948 0
M  V30 896 O 87.37 1.66409 -5.45586 0
M  V30 897 O 86.304 -0.192298 -6.01593 0
M  V30 898 H 90.13 -1.09243 -2.83372 0
M  V30 899 H 87.715 -0.598198 -1.36901 0
M  V30 900 H 89.597 1.01414 -4.09015 0
M  V30 901 H 88.272 1.34955 -2.94226 0
M  V30 902 H 87.179 -0.859979 -3.64081 0
M  V30 903 H 88.512 -1.1123 -4.79467 0
M  V30 904 N 90.1641 1.46063 -0.591896 0
M  V30 905 C 91.5751 1.85944 -0.167822 0
M  V30 906 C 91.9261 1.49429 1.27143 0
M  V30 907 O 91.0511 0.913515 1.96173 0
M  V30 908 C 91.6461 3.37489 -0.297794 0
M  V30 909 C 90.2051 3.76332 0.0714732 0
M  V30 910 C 89.3521 2.7006 -0.629509 0
M  V30 911 H 92.3031 1.37087 -0.799555 0
M  V30 912 H 92.3241 3.77532 0.474349 0
M  V30 913 H 91.8361 3.64034 -1.3454 0
M  V30 914 H 89.9371 3.55405 1.11886 0
M  V30 915 H 90.0501 4.78088 -0.311245 0
M  V30 916 H 88.4141 2.54607 -0.0687867 0
M  V30 917 H 89.1971 2.99444 -1.67894 0
M  V30 918 N 91.6422 0.330177 1.54103 0
M  V30 919 C 92.8882 -0.270806 2.00984 0
M  V30 920 C 93.2212 -1.51265 1.21789 0
M  V30 921 O 92.4962 -1.92142 0.301927 0
M  V30 922 C 92.7792 -0.598339 3.55094 0
M  V30 923 C 92.6322 0.654674 4.4501 0
M  V30 924 C 93.9512 -1.41334 4.16789 0
M  V30 925 H 91.0702 -0.0969531 0.730595 0
M  V30 926 H 93.7122 0.448066 1.84641 0
M  V30 927 H 91.8622 -1.21078 3.69151 0
M  V30 928 H 93.5342 1.29285 4.42813 0
M  V30 929 H 91.7772 1.28224 4.14416 0
M  V30 930 H 92.4482 0.380944 5.50684 0
M  V30 931 H 94.9242 -0.895597 4.06347 0
M  V30 932 H 93.8002 -1.61127 5.24718 0
M  V30 933 H 94.0612 -2.41146 3.70541 0
M  V30 934 N 93.1203 -1.57491 0.0584922 0
M  V30 935 C 94.0503 -2.14988 -0.911178 0
M  V30 936 C 95.0313 -1.07343 -1.31952 0
M  V30 937 O 96.2163 -1.35318 -1.39294 0
M  V30 938 C 93.3463 -2.70078 -2.18347 0
M  V30 939 C 92.3003 -3.82771 -1.91495 0
M  V30 940 C 91.6263 -4.24408 -3.25241 0
M  V30 941 C 92.9263 -5.07592 -1.23075 0
M  V30 942 H 94.6203 -2.96263 -0.432246 0
M  V30 943 H 92.1663 -1.42512 -0.206469 0
M  V30 944 H 94.1193 -3.08943 -2.86587 0
M  V30 945 H 92.8433 -1.86005 -2.68458 0
M  V30 946 H 91.5023 -3.44389 -1.25664 0
M  V30 947 H 91.1503 -3.37275 -3.73168 0
M  V30 948 H 90.8503 -5.00366 -3.08071 0
M  V30 949 H 92.3743 -4.65879 -3.94701 0
M  V30 950 H 93.7883 -5.43857 -1.81362 0
M  V30 951 H 92.1853 -5.88741 -1.16207 0
M  V30 952 H 93.2553 -4.84454 -0.207847 0
M  V30 953 N 94.5984 0.214957 -1.56127 0
M  V30 954 C 95.5484 1.27006 -1.8935 0
M  V30 955 C 96.5324 1.41969 -0.757202 0
M  V30 956 O 97.7244 1.44673 -1.01973 0
M  V30 957 C 94.8534 2.61911 -2.2194 0
M  V30 958 C 93.9394 2.50822 -3.41978 0
M  V30 959 N 94.3304 2.09391 -4.60423 0
M  V30 960 C 92.6284 2.81765 -3.45723 0
M  V30 961 C 93.3294 2.09712 -5.42582 0
M  V30 962 N 92.3054 2.50454 -4.82466 0
M  V30 963 H 96.1074 0.940734 -2.78437 0
M  V30 964 H 93.6214 0.423492 -1.56781 0
M  V30 965 H 95.6184 3.38096 -2.43919 0
M  V30 966 H 94.2784 2.95684 -1.34169 0
M  V30 967 H 95.2894 1.80416 -4.85459 0
M  V30 968 H 91.9664 3.19865 -2.68314 0
M  V30 969 H 93.3564 1.79748 -6.4741 0
M  V30 970 N 96.0765 1.50051 0.48192 0
M  V30 971 C 97.0395 1.67584 1.5636 0
M  V30 972 C 98.0395 0.546894 1.51214 0
M  V30 973 O 99.2295 0.813725 1.54026 0
M  V30 974 C 96.3615 1.691 2.96003 0
M  V30 975 H 97.5545 2.64078 1.42136 0
M  V30 976 H 95.1075 1.39369 0.707533 0
M  V30 977 H 95.8425 0.742589 3.15684 0
M  V30 978 H 95.6275 2.51105 3.01146 0
M  V30 979 H 97.1175 1.84656 3.74556 0
M  V30 980 N 97.5546 -0.734337 1.39446 0
M  V30 981 C 98.8016 -1.49391 1.36706 0
M  V30 982 C 99.1296 -1.94465 -0.0367813 0
M  V30 983 O 98.3846 -1.67154 -1.01774 0
M  V30 984 C 98.6836 -2.74711 2.28623 0
M  V30 985 C 98.3496 -2.48501 3.76242 0
M  V30 986 C 97.0116 -2.41062 4.16464 0
M  V30 987 C 99.3636 -2.26098 4.69606 0
M  V30 988 C 96.6916 -2.09262 5.48112 0
M  V30 989 C 99.0436 -1.95814 6.01531 0
M  V30 990 C 97.7076 -1.86845 6.40816 0
M  V30 991 H 96.9776 -0.546661 0.500243 0
M  V30 992 H 99.6246 -0.842788 1.71957 0
M  V30 993 H 97.9296 -3.44569 1.86492 0
M  V30 994 H 99.6266 -3.32741 2.23796 0
M  V30 995 H 96.2166 -2.55169 3.44364 0
M  V30 996 H 100.401 -2.30812 4.39363 0
M  V30 997 H 95.6566 -2.00841 5.77471 0
M  V30 998 H 99.8306 -1.77488 6.73403 0
M  V30 999 H 97.4576 -1.6197 7.42745 0
M  V30 1000 N 99.0327 -1.24633 -0.964593 0
M  V30 1001 C 99.9807 -1.03917 -2.08096 0
M  V30 1002 C 100.975 0.0268581 -1.69379 0
M  V30 1003 O 102.181 -0.127952 -1.79545 0
M  V30 1004 H 98.5557 -0.319044 -0.680966 0
M  V30 1005 H 100.527 -1.98581 -2.22729 0
M  V30 1006 C 99.2757 -0.663983 -3.41301 0
M  V30 1007 H 98.5987 -1.47605 -3.71555 0
M  V30 1008 H 100.039 -0.558663 -4.20303 0
M  V30 1009 C 98.4977 0.629169 -3.30973 0
M  V30 1010 O 99.0277 1.67404 -3.65156 0
M  V30 1011 N 97.2337 0.611057 -2.84103 0
M  V30 1012 H 96.7807 -0.239593 -2.56483 0
M  V30 1013 H 96.7387 1.47647 -2.77575 0
M  V30 1014 N 100.511 1.16574 -1.06058 0
M  V30 1015 C 101.922 1.68662 -0.800632 0
M  V30 1016 C 102.273 1.84184 0.67608 0
M  V30 1017 O 101.398 1.53568 1.52466 0
M  V30 1018 C 101.993 3.06356 -1.44676 0
M  V30 1019 C 100.552 3.55575 -1.23465 0
M  V30 1020 C 99.6988 2.31616 -1.52477 0
M  V30 1021 H 102.65 1.00969 -1.22438 0
M  V30 1022 H 102.671 3.70636 -0.860788 0
M  V30 1023 H 102.183 2.95027 -2.52152 0
M  V30 1024 H 100.284 3.72167 -0.179527 0
M  V30 1025 H 100.397 4.37812 -1.94571 0
M  V30 1026 H 98.7608 2.36512 -0.945209 0
M  V30 1027 H 99.5438 2.22887 -2.61106 0
M  V30 1028 N 101.989 0.842826 1.3317 0
M  V30 1029 C 102.952 0.284065 2.27433 0
M  V30 1030 C 103.952 -0.54948 1.5112 0
M  V30 1031 O 105.142 -0.362699 1.70382 0
M  V30 1032 C 102.274 -0.599384 3.35589 0
M  V30 1033 H 103.467 1.11589 2.78366 0
M  V30 1034 H 101.02 0.616221 1.4364 0
M  V30 1035 H 101.755 -1.45349 2.89904 0
M  V30 1036 H 101.54 -0.00291266 3.921 0
M  V30 1037 H 103.03 -0.983488 4.05854 0
M  V30 1038 N 103.467 -1.45747 0.599634 0
M  V30 1039 C 104.397 -2.33235 -0.111306 0
M  V30 1040 C 105.378 -1.46359 -0.866781 0
M  V30 1041 O 106.563 -1.75146 -0.838904 0
M  V30 1042 C 103.693 -3.28932 -1.11451 0
M  V30 1043 C 102.647 -4.25381 -0.472772 0
M  V30 1044 C 101.973 -5.1071 -1.58365 0
M  V30 1045 C 103.273 -5.18831 0.600948 0
M  V30 1046 H 104.967 -2.92927 0.61919 0
M  V30 1047 H 102.513 -1.40857 0.299215 0
M  V30 1048 H 104.466 -3.89002 -1.62036 0
M  V30 1049 H 103.19 -2.67381 -1.8755 0
M  V30 1050 H 101.849 -3.66598 0.0121472 0
M  V30 1051 H 101.497 -4.45533 -2.33473 0
M  V30 1052 H 101.197 -5.7604 -1.15982 0
M  V30 1053 H 102.721 -5.73647 -2.09194 0
M  V30 1054 H 104.135 -5.73019 0.179491 0
M  V30 1055 H 102.532 -5.92595 0.946076 0
M  V30 1056 H 103.602 -4.6174 1.48068 0
M  V30 1057 N 104.945 -0.338344 -1.53925 0
M  V30 1058 C 106.193 0.259245 -2.0043 0
M  V30 1059 C 106.514 1.51484 -1.22791 0
M  V30 1060 O 105.784 1.93037 -0.33368 0
M  V30 1061 H 104.364 0.0987845 -0.740439 0
M  V30 1062 H 107.026 -0.458302 -1.89435 0
M  V30 1063 H 106.122 0.505334 -3.07982 0
M  V30 1064 N 106.423 1.57458 -0.0668435 0
M  V30 1065 C 107.386 2.11323 0.887422 0
M  V30 1066 C 108.386 1.03618 1.22964 0
M  V30 1067 O 109.576 1.29626 1.16373 0
M  V30 1068 C 106.708 2.61048 2.19242 0
M  V30 1069 H 107.901 2.96942 0.420194 0
M  V30 1070 H 105.454 1.55239 0.181793 0
M  V30 1071 H 106.189 1.78868 2.70512 0
M  V30 1072 H 105.974 3.39769 1.95702 0
M  V30 1073 H 107.464 3.02814 2.87565 0
M  V30 1074 N 107.901 -0.206675 1.56239 0
M  V30 1075 C 109.178 -0.954051 1.70755 0
M  V30 1076 C 109.558 -2.01841 0.618353 0
M  V30 1077 O 108.906 -2.25444 -0.372434 0
M  V30 1078 C 109.116 -1.551 3.12642 0
M  V30 1079 C 110.464 -2.03757 3.72516 0
M  V30 1080 O 111.488 -1.64965 3.15698 0
M  V30 1081 O 110.347 -2.75103 4.72208 0
M  V30 1082 H 107.441 -0.446636 0.696021 0
M  V30 1083 H 109.987 -0.197283 1.68549 0
M  V30 1084 H 108.759 -0.783212 3.83382 0
M  V30 1085 H 108.382 -2.37291 3.19028 0
M  V30 1086 N 109.379 -1.50304 -0.473955 0
M  V30 1087 C 110.619 -1.62786 -1.23612 0
M  V30 1088 C 110.983 -0.319786 -1.89318 0
M  V30 1089 O 112.184 -0.320012 -2.66888 0
M  V30 1090 C 110.455 -2.77351 -2.25414 0
M  V30 1091 S 112.014 -3.09948 -3.10608 0
M  V30 1092 H 108.832 -0.573895 -0.419721 0
M  V30 1093 H 111.434 -1.88076 -0.533623 0
M  V30 1094 H 110.138 -3.70879 -1.75719 0
M  V30 1095 H 109.669 -2.54137 -3.00296 0
M  V30 1096 H 111.684 -2.53553 -4.26527 0
M  V30 1097 N 110.857 0.726932 -1.39834 0
M  V30 1098 C 111.804 1.841 -1.39197 0
M  V30 1099 C 112.774 1.642 -0.250502 0
M  V30 1100 O 113.959 1.85494 -0.446846 0
M  V30 1101 C 111.099 3.21697 -1.24919 0
M  V30 1102 C 110.212 3.53247 -2.48678 0
M  V30 1103 C 109.347 4.80289 -2.26928 0
M  V30 1104 C 108.386 5.04707 -3.4632 0
M  V30 1105 N 107.523 6.22956 -3.23836 0
M  V30 1106 H 112.363 1.83979 -2.34427 0
M  V30 1107 H 109.9 0.898876 -1.16442 0
M  V30 1108 H 111.858 4.01137 -1.1465 0
M  V30 1109 H 110.488 3.21076 -0.333153 0
M  V30 1110 H 109.54 2.68447 -2.69519 0
M  V30 1111 H 110.852 3.67205 -3.37582 0
M  V30 1112 H 110.006 5.67725 -2.13947 0
M  V30 1113 H 108.745 4.68519 -1.35431 0
M  V30 1114 H 107.75 4.1573 -3.5979 0
M  V30 1115 H 108.975 5.18357 -4.38729 0
M  V30 1116 H 106.921 6.12459 -2.35011 0
M  V30 1117 H 106.838 6.37539 -4.063 0
M  V30 1118 H 108.106 7.1321 -3.14566 0
M  V30 1119 N 112.336 1.25143 0.95797 0
M  V30 1120 C 113.584 1.09476 1.69881 0
M  V30 1121 C 113.905 -0.365502 1.91544 0
M  V30 1122 O 113.175 -1.25985 1.50015 0
M  V30 1123 H 111.755 0.402128 0.629525 0
M  V30 1124 H 114.417 1.57214 1.15194 0
M  V30 1125 H 113.513 1.60046 2.6794 0
M  V30 1126 N 113.814 -1.1601 1.06675 0
M  V30 1127 C 114.746 -2.20115 0.638921 0
M  V30 1128 C 115.759 -1.59916 -0.305057 0
M  V30 1129 O 116.948 -1.78245 -0.0954446 0
M  V30 1130 C 114.048 -3.38798 -0.0830083 0
M  V30 1131 C 113.221 -4.2855 0.875426 0
M  V30 1132 C 112.28 -5.25849 0.192042 0
M  V30 1133 O 111.306 -5.63102 0.830921 0
M  V30 1134 N 112.508 -5.70648 -1.06493 0
M  V30 1135 H 115.273 -2.57439 1.53444 0
M  V30 1136 H 112.834 -1.31057 0.950557 0
M  V30 1137 H 114.826 -4.00936 -0.550685 0
M  V30 1138 H 113.396 -2.99947 -0.880386 0
M  V30 1139 H 112.616 -3.63617 1.52238 0
M  V30 1140 H 113.904 -4.85393 1.52548 0
M  V30 1141 H 113.302 -5.42482 -1.60405 0
M  V30 1142 H 111.859 -6.34859 -1.47641 0
M  V30 1143 N 115.292 -0.849877 -1.32721 0
M  V30 1144 C 116.538 -0.451591 -1.97708 0
M  V30 1145 C 116.871 0.989175 -1.6712 0
M  V30 1146 O 116.146 1.69334 -0.956891 0
M  V30 1147 C 116.429 -0.685598 -3.53513 0
M  V30 1148 C 116.282 -2.17444 -3.93749 0
M  V30 1149 C 117.601 -0.138874 -4.39881 0
M  V30 1150 H 114.72 -0.16555 -0.718166 0
M  V30 1151 H 117.362 -1.06742 -1.57182 0
M  V30 1152 H 115.512 -0.161416 -3.88165 0
M  V30 1153 H 117.184 -2.76433 -3.693 0
M  V30 1154 H 115.427 -2.65476 -3.43081 0
M  V30 1155 H 116.098 -2.28888 -5.02309 0
M  V30 1156 H 118.574 -0.587068 -4.11938 0
M  V30 1157 H 117.45 -0.332213 -5.47894 0
M  V30 1158 H 117.711 0.95806 -4.31594 0
M  V30 1159 N 116.77 1.45427 -0.607355 0
M  V30 1160 C 117.717 2.3053 0.111625 0
M  V30 1161 C 118.687 1.4209 0.860216 0
M  V30 1162 O 119.872 1.71019 0.845998 0
M  V30 1163 C 117.012 3.26992 1.10319 0
M  V30 1164 C 116.125 4.30535 0.355493 0
M  V30 1165 C 115.26 5.14105 1.33676 0
M  V30 1166 C 114.299 6.09376 0.576862 0
M  V30 1167 N 113.436 6.85727 1.5074 0
M  V30 1168 H 118.276 2.91477 -0.620093 0
M  V30 1169 H 115.813 1.43631 -0.317594 0
M  V30 1170 H 117.771 3.81385 1.6912 0
M  V30 1171 H 116.401 2.67799 1.80232 0
M  V30 1172 H 115.453 3.78805 -0.348023 0
M  V30 1173 H 116.765 4.98235 -0.237423 0
M  V30 1174 H 115.919 5.72897 1.99684 0
M  V30 1175 H 114.658 4.46423 1.9636 0
M  V30 1176 H 113.663 5.49715 -0.0968519 0
M  V30 1177 H 114.888 6.79085 -0.0449341 0
M  V30 1178 H 112.834 6.20735 2.12189 0
M  V30 1179 H 112.751 7.49778 0.967913 0
M  V30 1180 H 114.019 7.4906 2.15706 0
M  V30 1181 N 118.248 0.346503 1.53744 0
M  V30 1182 C 119.211 -0.496439 2.23759 0
M  V30 1183 C 120.211 -1.0252 1.2388 0
M  V30 1184 O 121.401 -0.913974 1.48297 0
M  V30 1185 C 118.533 -1.69187 2.95954 0
M  V30 1186 H 119.726 0.115952 2.99676 0
M  V30 1187 H 117.279 0.0978939 1.55993 0
M  V30 1188 H 118.014 -2.34288 2.24231 0
M  V30 1189 H 117.799 -1.31989 3.69217 0
M  V30 1190 H 119.289 -2.28969 3.49232 0
M  V30 1191 N 119.726 -1.57421 0.075193 0
M  V30 1192 C 120.673 -2.12915 -0.890843 0
M  V30 1193 C 121.643 -1.04252 -1.29309 0
M  V30 1194 O 122.828 -1.31933 -1.37834 0
M  V30 1195 C 119.968 -2.69795 -2.15186 0
M  V30 1196 C 119.081 -3.92624 -1.80194 0
M  V30 1197 C 118.216 -4.37736 -3.00933 0
M  V30 1198 C 117.255 -5.53205 -2.61974 0
M  V30 1199 N 116.392 -5.9326 -3.75483 0
M  V30 1200 H 121.232 -2.95156 -0.410735 0
M  V30 1201 H 118.769 -1.45854 -0.191086 0
M  V30 1202 H 120.727 -3.00883 -2.89008 0
M  V30 1203 H 119.357 -1.90313 -2.60731 0
M  V30 1204 H 118.409 -3.67977 -0.964218 0
M  V30 1205 H 119.721 -4.76482 -1.47534 0
M  V30 1206 H 118.875 -4.70503 -3.8303 0
M  V30 1207 H 117.614 -3.52739 -3.36789 0
M  V30 1208 H 116.619 -5.20086 -1.783 0
M  V30 1209 H 117.844 -6.39936 -2.27284 0
M  V30 1210 H 115.79 -5.11212 -4.11094 0
M  V30 1211 H 115.707 -6.71865 -3.46602 0
M  V30 1212 H 116.975 -6.30651 -4.58148 0
M  V30 1213 N 121.204 0.198386 -1.56346 0
M  V30 1214 C 122.134 1.24865 -1.9731 0
M  V30 1215 C 123.115 1.47651 -0.844576 0
M  V30 1216 O 124.3 1.59444 -1.10866 0
M  V30 1217 C 121.43 2.59358 -2.30977 0
M  V30 1218 C 120.384 2.5119 -3.46537 0
M  V30 1219 C 119.71 3.89926 -3.65871 0
M  V30 1220 C 121.01 2.03977 -4.80823 0
M  V30 1221 H 122.704 0.908252 -2.85291 0
M  V30 1222 H 120.25 0.435462 -1.37258 0
M  V30 1223 H 122.203 3.33011 -2.58228 0
M  V30 1224 H 120.927 2.95132 -1.39874 0
M  V30 1225 H 119.586 1.79993 -3.19371 0
M  V30 1226 H 119.234 4.23046 -2.72105 0
M  V30 1227 H 118.934 3.85336 -4.4361 0
M  V30 1228 H 120.458 4.65205 -3.95495 0
M  V30 1229 H 121.872 2.67386 -5.07127 0
M  V30 1230 H 120.269 2.10397 -5.62008 0
M  V30 1231 H 121.339 0.992861 -4.74626 0
M  V30 1232 N 122.682 1.50554 0.465978 0
M  V30 1233 C 123.645 1.69233 1.54574 0
M  V30 1234 C 124.645 0.562901 1.50626 0
M  V30 1235 O 125.835 0.830016 1.53155 0
M  V30 1236 C 122.967 1.7223 2.94193 0
M  V30 1237 H 124.16 2.65571 1.39327 0
M  V30 1238 H 121.713 1.40111 0.692711 0
M  V30 1239 H 122.448 0.77603 3.14878 0
M  V30 1240 H 122.233 2.54285 2.98466 0
M  V30 1241 H 123.723 1.88618 3.72576 0
M  V30 1242 N 124.16 -0.719506 1.40217 0
M  V30 1243 C 125.408 -1.47641 1.3801 0
M  V30 1244 C 125.729 -1.94992 -0.018145 0
M  V30 1245 O 124.999 -1.70073 -0.972207 0
M  V30 1246 H 123.579 -0.547744 0.507923 0
M  V30 1247 H 126.241 -0.853187 1.75233 0
M  V30 1248 H 125.337 -2.35112 2.05253 0
M  V30 1249 N 125.638 -1.25649 -0.95132 0
M  V30 1250 C 126.886 -1.10375 -1.69298 0
M  V30 1251 C 127.207 0.355339 -1.91735 0
M  V30 1252 O 126.477 1.25188 -1.50681 0
M  V30 1253 H 125.057 -0.405461 -0.627384 0
M  V30 1254 H 127.719 -1.57823 -1.14358 0
M  V30 1255 H 126.815 -1.61465 -2.67087 0
M  V30 1256 N 127.117 1.15442 -1.07289 0
M  V30 1257 C 128.394 1.82306 -0.708792 0
M  V30 1258 C 128.774 1.94991 0.808807 0
M  V30 1259 O 128.122 1.50085 1.72298 0
M  V30 1260 C 128.332 3.18695 -1.42247 0
M  V30 1261 C 129.68 3.94341 -1.57417 0
M  V30 1262 O 130.704 3.28247 -1.38319 0
M  V30 1263 O 129.563 5.12839 -1.88834 0
M  V30 1264 H 126.657 0.787628 -0.252132 0
M  V30 1265 H 129.203 1.22559 -1.17377 0
M  V30 1266 H 127.975 3.04557 -2.45684 0
M  V30 1267 H 127.598 3.86128 -0.948223 0
M  V30 1268 N 128.595 0.856903 1.32268 0
M  V30 1269 C 129.82 0.474569 2.01897 0
M  V30 1270 C 130.245 -0.921766 1.63967 0
M  V30 1271 O 129.603 -1.60589 0.84148 0
M  V30 1272 C 129.651 0.623799 3.55164 0
M  V30 1273 O 128.755 -0.342459 4.10976 0
M  V30 1274 H 128.096 0.190422 0.63611 0
M  V30 1275 H 130.626 1.15672 1.68764 0
M  V30 1276 H 130.636 0.512169 4.04773 0
M  V30 1277 H 129.311 1.64202 3.82113 0
M  V30 1278 H 127.888 -0.18688 3.72431 0
M  V30 1279 N 130.073 -1.45103 0.615059 0
M  V30 1280 C 131.35 -1.95549 0.0448276 0
M  V30 1281 C 131.73 -1.55737 -1.4251 0
M  V30 1282 O 131.078 -0.823556 -2.13143 0
M  V30 1283 C 131.288 -3.48098 0.250785 0
M  V30 1284 C 132.636 -4.24384 0.135509 0
M  V30 1285 O 133.66 -3.55738 0.181299 0
M  V30 1286 O 132.519 -5.46493 0.0268878 0
M  V30 1287 H 129.613 -0.8264 -0.0314845 0
M  V30 1288 H 132.159 -1.55232 0.685642 0
M  V30 1289 H 130.931 -3.7007 1.27139 0
M  V30 1290 H 130.554 -3.95323 -0.424937 0
M  V30 1291 N 131.551 -0.354651 -1.53558 0
M  V30 1292 C 132.799 0.237972 -2.00694 0
M  V30 1293 C 133.12 1.50173 -1.24391 0
M  V30 1294 O 132.39 1.92673 -0.354135 0
M  V30 1295 H 130.97 0.0909256 -0.741446 0
M  V30 1296 H 133.632 -0.478368 -1.88938 0
M  V30 1297 H 132.728 0.47264 -3.085 0
M  V30 1298 N 133.029 1.57378 -0.0835403 0
M  V30 1299 C 134.277 1.93547 0.581718 0
M  V30 1300 C 134.598 0.96524 1.69435 0
M  V30 1301 O 133.868 0.0153369 1.95894 0
M  V30 1302 H 132.448 0.714521 0.217874 0
M  V30 1303 H 135.11 1.94366 -0.144158 0
M  V30 1304 H 134.206 2.95665 0.999423 0
M  V30 1305 N 134.507 -0.190092 1.56449 0
M  V30 1306 C 135.417 -1.25591 1.98152 0
M  V30 1307 C 136.433 -1.49519 0.889944 0
M  V30 1308 O 137.609 -1.62036 1.19609 0
M  V30 1309 C 134.674 -2.57916 2.3169 0
M  V30 1310 C 133.735 -2.42015 3.5458 0
M  V30 1311 C 132.968 -3.6803 3.8651 0
M  V30 1312 O 133.191 -4.72413 3.1966 0
M  V30 1313 O 132.125 -3.6326 4.79923 0
M  V30 1314 H 135.951 -0.931988 2.89046 0
M  V30 1315 H 133.536 -0.395488 1.4407 0
M  V30 1316 H 135.418 -3.36008 2.54316 0
M  V30 1317 H 134.093 -2.89925 1.43963 0
M  V30 1318 H 133 -1.62017 3.37196 0
M  V30 1319 H 134.333 -2.14937 4.4279 0
M  V30 1320 N 135.985 -1.50799 -0.457987 0
M  V30 1321 C 136.915 -1.73553 -1.5621 0
M  V30 1322 C 137.896 -0.584774 -1.59732 0
M  V30 1323 O 139.081 -0.825314 -1.7579 0
M  V30 1324 C 136.211 -1.84169 -2.94447 0
M  V30 1325 C 135.165 -2.99461 -3.0579 0
M  V30 1326 C 134.491 -2.95235 -4.45803 0
M  V30 1327 C 135.791 -4.39766 -2.81786 0
M  V30 1328 H 137.485 -2.66 -1.37421 0
M  V30 1329 H 135.031 -1.28002 -0.659662 0
M  V30 1330 H 136.984 -1.98672 -3.71628 0
M  V30 1331 H 135.708 -0.883545 -3.14422 0
M  V30 1332 H 134.367 -2.8463 -2.31044 0
M  V30 1333 H 134.015 -1.97239 -4.62715 0
M  V30 1334 H 133.715 -3.72642 -4.54326 0
M  V30 1335 H 135.239 -3.11803 -5.24987 0
M  V30 1336 H 136.653 -4.55054 -3.4871 0
M  V30 1337 H 135.05 -5.18722 -3.0174 0
M  V30 1338 H 136.12 -4.51229 -1.7754 0
M  V30 1339 N 137.463 0.71206 -1.40597 0
M  V30 1340 C 138.393 1.83889 -1.43899 0
M  V30 1341 C 139.374 1.67442 -0.299504 0
M  V30 1342 O 140.559 1.87421 -0.508624 0
M  V30 1343 C 137.689 3.21877 -1.30431 0
M  V30 1344 C 136.643 3.53002 -2.42019 0
M  V30 1345 C 135.969 4.90172 -2.13626 0
M  V30 1346 C 137.269 3.53643 -3.84362 0
M  V30 1347 H 138.963 1.81383 -2.38203 0
M  V30 1348 H 136.509 0.871237 -1.14654 0
M  V30 1349 H 138.462 4.00404 -1.31357 0
M  V30 1350 H 137.186 3.24968 -0.326049 0
M  V30 1351 H 135.845 2.76818 -2.40349 0
M  V30 1352 H 135.493 4.89869 -1.14182 0
M  V30 1353 H 135.193 5.11962 -2.88389 0
M  V30 1354 H 136.717 5.71028 -2.1624 0
M  V30 1355 H 138.131 4.22203 -3.87837 0
M  V30 1356 H 136.528 3.86961 -4.58673 0
M  V30 1357 H 137.598 2.52954 -4.13693 0
M  V30 1358 N 138.941 1.26152 0.944643 0
M  V30 1359 C 140.189 1.11271 1.6871 0
M  V30 1360 C 140.51 -0.345166 1.91921 0
M  V30 1361 O 139.78 -1.24387 1.51343 0
M  V30 1362 H 138.36 0.408783 0.625224 0
M  V30 1363 H 141.022 1.58427 1.1352 0
M  V30 1364 H 140.118 1.62879 2.66227 0
M  V30 1365 N 140.419 -1.14872 1.07899 0
M  V30 1366 C 141.329 -2.2341 0.715915 0
M  V30 1367 C 142.345 -1.71808 -0.275306 0
M  V30 1368 O 143.521 -2.01039 -0.120545 0
M  V30 1369 C 140.586 -3.46474 0.125168 0
M  V30 1370 C 139.647 -4.13039 1.17034 0
M  V30 1371 C 138.88 -5.30229 0.607688 0
M  V30 1372 O 139.103 -5.675 -0.574497 0
M  V30 1373 O 138.037 -5.86444 1.35526 0
M  V30 1374 H 141.863 -2.56808 1.62121 0
M  V30 1375 H 139.448 -1.22702 0.852322 0
M  V30 1376 H 141.33 -4.20917 -0.201729 0
M  V30 1377 H 140.005 -3.14811 -0.753364 0
M  V30 1378 H 138.912 -3.40493 1.54968 0
M  V30 1379 H 140.245 -4.48796 2.02097 0
M  V30 1380 N 141.898 -0.863906 -1.31812 0
M  V30 1381 C 143.128 -0.485406 -2.00817 0
M  V30 1382 C 143.536 0.925007 -1.65046 0
M  V30 1383 O 142.879 1.61653 -0.872574 0
M  V30 1384 C 142.941 -0.555589 -3.55181 0
M  V30 1385 C 142.605 -1.92654 -4.14407 0
M  V30 1386 C 143.602 -2.89324 -4.31958 0
M  V30 1387 C 141.287 -2.2262 -4.50273 0
M  V30 1388 C 143.281 -4.14108 -4.84555 0
M  V30 1389 C 140.968 -3.47654 -5.02573 0
M  V30 1390 C 141.966 -4.43214 -5.19664 0
M  V30 1391 O 141.654 -5.66033 -5.70843 0
M  V30 1392 H 141.386 -0.188224 -0.649267 0
M  V30 1393 H 143.94 -1.16514 -1.69156 0
M  V30 1394 H 142.17 0.181037 -3.86276 0
M  V30 1395 H 143.859 -0.19138 -4.05449 0
M  V30 1396 H 144.625 -2.6748 -4.04573 0
M  V30 1397 H 140.504 -1.4902 -4.3625 0
M  V30 1398 H 144.048 -4.88703 -4.9781 0
M  V30 1399 H 139.945 -3.69345 -5.29391 0
M  V30 1400 H 140.713 -5.6812 -5.89222 0
M  V30 1401 N 143.376 1.44774 -0.622745 0
M  V30 1402 C 144.787 1.85546 -0.207226 0
M  V30 1403 C 145.138 1.52093 1.23944 0
M  V30 1404 O 144.263 0.95492 1.94191 0
M  V30 1405 C 144.858 3.36781 -0.369313 0
M  V30 1406 C 143.417 3.76399 -0.00836847 0
M  V30 1407 C 142.564 2.68664 -0.686651 0
M  V30 1408 H 145.515 1.3536 -0.828454 0
M  V30 1409 H 145.536 3.78453 0.394162 0
M  V30 1410 H 145.048 3.61098 -1.42231 0
M  V30 1411 H 143.149 3.57698 1.04322 0
M  V30 1412 H 143.262 4.7732 -0.412584 0
M  V30 1413 H 141.626 2.54404 -0.122777 0
M  V30 1414 H 142.409 2.95815 -1.74208 0
M  V30 1415 N 144.854 0.36279 1.53368 0
M  V30 1416 C 146.102 -0.227326 2.00817 0
M  V30 1417 C 146.423 -1.49511 1.25186 0
M  V30 1418 O 145.693 -1.92482 0.364348 0
M  V30 1419 H 144.273 -0.0869923 0.741917 0
M  V30 1420 H 146.935 0.488381 1.88682 0
M  V30 1421 H 146.031 -0.456273 3.08747 0
M  V30 1422 N 146.332 -1.57332 0.0918853 0
M  V30 1423 C 147.581 -1.93412 -0.572249 0
M  V30 1424 C 147.894 -0.975515 -1.69538 0
M  V30 1425 O 149.1 -1.22991 -2.42045 0
M  V30 1426 C 147.556 -3.43648 -1.0693 0
M  V30 1427 C 147.164 -4.47994 0.0239049 0
M  V30 1428 C 148.908 -3.88695 -1.70635 0
M  V30 1429 C 146.815 -5.89381 -0.488319 0
M  V30 1430 H 145.745 -0.721939 -0.217532 0
M  V30 1431 H 148.396 -1.82735 0.167369 0
M  V30 1432 H 146.778 -3.49466 -1.8625 0
M  V30 1433 H 147.952 -4.53815 0.799277 0
M  V30 1434 H 146.267 -4.12536 0.565946 0
M  V30 1435 H 148.864 -4.91725 -2.10025 0
M  V30 1436 H 149.207 -3.27166 -2.57426 0
M  V30 1437 H 149.74 -3.85564 -0.979023 0
M  V30 1438 H 146.479 -6.54602 0.342906 0
M  V30 1439 H 145.999 -5.87037 -1.23077 0
M  V30 1440 H 147.678 -6.39863 -0.958317 0
M  V30 1441 N 147.81 0.181792 -1.56548 0
M  V30 1442 C 149.221 0.745244 -1.71181 0
M  V30 1443 C 149.572 1.83262 -0.70068 0
M  V30 1444 O 148.697 2.15946 0.140154 0
M  V30 1445 C 149.292 1.35859 -3.10367 0
M  V30 1446 C 147.851 1.86898 -3.2672 0
M  V30 1447 C 146.998 0.743942 -2.67134 0
M  V30 1448 H 149.949 -0.0434661 -1.5864 0
M  V30 1449 H 149.97 2.22817 -3.08436 0
M  V30 1450 H 149.482 0.566948 -3.83937 0
M  V30 1451 H 147.583 2.68738 -2.5809 0
M  V30 1452 H 147.696 2.02162 -4.34359 0
M  V30 1453 H 146.06 1.16169 -2.26665 0
M  V30 1454 H 146.843 -0.035676 -3.43281 0
M  V30 1455 N 149.288 1.51039 0.449983 0
M  V30 1456 C 150.198 1.74261 1.57067 0
M  V30 1457 C 151.214 0.626363 1.62335 0
M  V30 1458 O 152.39 0.907162 1.79812 0
M  V30 1459 C 149.455 1.85114 2.93144 0
M  V30 1460 C 148.516 3.0893 2.98095 0
M  V30 1461 C 147.749 3.19256 4.27681 0
M  V30 1462 O 147.972 2.35835 5.19363 0
M  V30 1463 O 146.906 4.12144 4.38658 0
M  V30 1464 H 150.732 2.69303 1.40391 0
M  V30 1465 H 148.317 1.35389 0.631688 0
M  V30 1466 H 150.199 1.94311 3.73926 0
M  V30 1467 H 148.874 0.932588 3.09975 0
M  V30 1468 H 147.781 3.0522 2.16314 0
M  V30 1469 H 149.114 4.00433 2.86206 0
M  V30 1470 N 150.766 -0.704594 1.40972 0
M  V30 1471 C 151.696 -1.83124 1.44872 0
M  V30 1472 C 152.677 -1.67281 0.30838 0
M  V30 1473 O 153.862 -1.87149 0.518556 0
M  V30 1474 C 150.992 -3.21181 1.32136 0
M  V30 1475 C 149.946 -3.51714 2.43888 0
M  V30 1476 C 149.272 -4.89032 2.16222 0
M  V30 1477 C 150.572 -3.516 3.86232 0
M  V30 1478 H 152.266 -1.80117 2.39161 0
M  V30 1479 H 149.812 -0.865145 1.15114 0
M  V30 1480 H 151.765 -3.99702 1.33479 0
M  V30 1481 H 150.489 -3.24791 0.343279 0
M  V30 1482 H 149.148 -2.75539 2.41813 0
M  V30 1483 H 148.796 -4.89256 1.16778 0
M  V30 1484 H 148.496 -5.10426 2.911 0
M  V30 1485 H 150.02 -5.69873 2.19265 0
M  V30 1486 H 151.434 -4.2014 3.9007 0
M  V30 1487 H 149.831 -3.84523 4.60719 0
M  V30 1488 H 150.901 -2.50757 4.15029 0
M  V30 1489 N 152.244 -1.26651 -0.937939 0
M  V30 1490 C 153.469 -1.15279 -1.72411 0
M  V30 1491 C 153.894 0.287866 -1.85884 0
M  V30 1492 O 153.252 1.20855 -1.35143 0
M  V30 1493 C 153.3 -1.83028 -3.10698 0
M  V30 1494 O 152.404 -1.12128 -3.96864 0
M  V30 1495 H 151.745 -0.401504 -0.528858 0
M  V30 1496 H 154.275 -1.67531 -1.1745 0
M  V30 1497 H 154.285 -1.89981 -3.6107 0
M  V30 1498 H 152.96 -2.87833 -3.00208 0
M  V30 1499 H 151.537 -1.13173 -3.55312 0
M  V30 1500 N 153.722 1.14298 -1.08507 0
M  V30 1501 C 154.685 2.17607 -0.719711 0
M  V30 1502 C 155.685 1.58907 0.245997 0
M  V30 1503 O 156.875 1.74181 0.0254081 0
M  V30 1504 C 154.007 3.40842 -0.0627695 0
M  V30 1505 H 155.2 2.51443 -1.63452 0
M  V30 1506 H 152.753 1.28963 -0.88307 0
M  V30 1507 H 153.488 3.12587 0.863716 0
M  V30 1508 H 153.273 3.84713 -0.757504 0
M  V30 1509 H 154.763 4.17221 0.177786 0
M  V30 1510 N 155.201 0.870884 1.31352 0
M  V30 1511 C 156.131 0.343096 2.30966 0
M  V30 1512 C 157.112 -0.566507 1.60389 0
M  V30 1513 O 158.297 -0.483336 1.88089 0
M  V30 1514 C 155.427 -0.455487 3.443 0
M  V30 1515 C 154.381 0.361103 4.26474 0
M  V30 1516 C 153.707 -0.563221 5.31725 0
M  V30 1517 C 155.007 1.59566 4.97329 0
M  V30 1518 H 156.701 1.17548 2.75359 0
M  V30 1519 H 154.247 0.566686 1.32381 0
M  V30 1520 H 156.2 -0.83525 4.13039 0
M  V30 1521 H 154.924 -1.32139 2.98675 0
M  V30 1522 H 153.583 0.722825 3.59403 0
M  V30 1523 H 153.231 -1.42643 4.82351 0
M  V30 1524 H 152.931 -0.0207409 5.87596 0
M  V30 1525 H 154.455 -0.939808 6.03324 0
M  V30 1526 H 155.869 1.28728 5.58661 0
M  V30 1527 H 154.266 2.07728 5.63 0
M  V30 1528 H 155.336 2.34798 4.24262 0
M  V30 1529 N 156.679 -1.44442 0.630414 0
M  V30 1530 C 157.589 -2.34476 -0.0761693 0
M  V30 1531 C 158.605 -1.52576 -0.836449 0
M  V30 1532 O 159.781 -1.85307 -0.788874 0
M  V30 1533 C 156.846 -3.30545 -1.04599 0
M  V30 1534 C 155.907 -4.28352 -0.28516 0
M  V30 1535 C 155.14 -5.19831 -1.20878 0
M  V30 1536 O 155.363 -5.15223 -2.44747 0
M  V30 1537 O 154.297 -5.97892 -0.693491 0
M  V30 1538 H 158.123 -2.96345 0.664324 0
M  V30 1539 H 155.708 -1.44203 0.39061 0
M  V30 1540 H 157.59 -3.89681 -1.60396 0
M  V30 1541 H 156.265 -2.7121 -1.76711 0
M  V30 1542 H 155.172 -3.72764 0.315837 0
M  V30 1543 H 156.505 -4.90605 0.395924 0
M  V30 1544 N 158.157 -0.370918 -1.53173 0
M  V30 1545 C 159.434 0.273754 -1.93675 0
M  V30 1546 C 159.814 1.65938 -1.3049 0
M  V30 1547 O 159.162 2.23698 -0.465999 0
M  V30 1548 C 159.372 0.318602 -3.47543 0
M  V30 1549 C 160.72 0.556392 -4.20939 0
M  V30 1550 O 161.744 0.399587 -3.53952 0
M  V30 1551 O 160.603 0.862133 -5.39657 0
M  V30 1552 H 157.697 0.165448 -0.810281 0
M  V30 1553 H 160.243 -0.42409 -1.64315 0
M  V30 1554 H 159.015 -0.652687 -3.85818 0
M  V30 1555 H 158.638 1.06212 -3.83151 0
M  V30 1556 N 159.635 1.57281 -0.100228 0
M  V30 1557 C 160.881 1.94826 0.563101 0
M  V30 1558 C 161.214 0.982475 1.67514 0
M  V30 1559 O 160.489 0.0164069 1.94493 0
M  V30 1560 C 160.772 3.42453 1.11346 0
M  V30 1561 C 160.625 4.498 0.00612081 0
M  V30 1562 C 161.944 3.91506 2.01024 0
M  V30 1563 H 159.063 0.708428 0.203221 0
M  V30 1564 H 161.705 1.8922 -0.171979 0
M  V30 1565 H 159.855 3.47361 1.7399 0
M  V30 1566 H 161.527 4.57 -0.628357 0
M  V30 1567 H 159.77 4.28756 -0.659581 0
M  V30 1568 H 160.441 5.50306 0.432109 0
M  V30 1569 H 162.917 3.88784 1.48278 0
M  V30 1570 H 161.793 4.95358 2.36457 0
M  V30 1571 H 162.054 3.31099 2.92961 0
M  V30 1572 N 161.113 -0.173488 1.56642 0
M  V30 1573 C 162.076 -1.19859 1.95362 0
M  V30 1574 C 163.076 -1.37296 0.83704 0
M  V30 1575 O 164.266 -1.34739 1.10413 0
M  V30 1576 C 161.398 -2.56405 2.24654 0
M  V30 1577 H 162.591 -0.867062 2.87092 0
M  V30 1578 H 160.144 -0.415853 1.50666 0
M  V30 1579 H 160.879 -2.94576 1.35631 0
M  V30 1580 H 160.664 -2.45115 3.06041 0
M  V30 1581 H 162.154 -3.30287 2.5554 0
M  V30 1582 N 162.591 -1.51276 -0.441967 0
M  V30 1583 C 163.521 -1.752 -1.54361 0
M  V30 1584 C 164.502 -0.601682 -1.59103 0
M  V30 1585 O 165.687 -0.843913 -1.74905 0
M  V30 1586 C 162.817 -1.87282 -2.92477 0
M  V30 1587 C 161.771 -3.02687 -3.02596 0
M  V30 1588 C 161.097 -2.99947 -4.42647 0
M  V30 1589 C 162.397 -4.4273 -2.77106 0
M  V30 1590 H 164.091 -2.67442 -1.34592 0
M  V30 1591 H 161.637 -1.28694 -0.646048 0
M  V30 1592 H 163.59 -2.02602 -3.695 0
M  V30 1593 H 162.314 -0.916844 -3.13467 0
M  V30 1594 H 160.973 -2.87065 -2.28012 0
M  V30 1595 H 160.621 -2.02136 -4.60597 0
M  V30 1596 H 160.321 -3.77439 -4.50348 0
M  V30 1597 H 161.845 -3.17354 -5.2165 0
M  V30 1598 H 163.259 -4.58727 -3.43864 0
M  V30 1599 H 161.656 -5.21893 -2.96222 0
M  V30 1600 H 162.726 -4.53087 -1.72744 0
M  V30 1601 N 164.069 0.697108 -1.41344 0
M  V30 1602 C 164.999 1.82353 -1.45841 0
M  V30 1603 C 165.98 1.67115 -0.317247 0
M  V30 1604 O 167.165 1.86871 -0.528474 0
M  V30 1605 C 164.295 3.20476 -1.33838 0
M  V30 1606 C 163.249 3.50415 -2.4575 0
M  V30 1607 C 162.575 4.87878 -2.18813 0
M  V30 1608 C 163.875 3.49546 -3.88091 0
M  V30 1609 H 165.569 1.78846 -2.40113 0
M  V30 1610 H 163.115 0.859028 -1.15571 0
M  V30 1611 H 165.068 3.98988 -1.35596 0
M  V30 1612 H 163.792 3.24604 -0.360498 0
M  V30 1613 H 162.451 2.74253 -2.43271 0
M  V30 1614 H 162.099 4.8863 -1.19371 0
M  V30 1615 H 161.799 5.08875 -2.93803 0
M  V30 1616 H 163.323 5.68702 -2.22284 0
M  V30 1617 H 164.737 4.18066 -3.92293 0
M  V30 1618 H 163.134 3.82075 -4.62751 0
M  V30 1619 H 164.204 2.48552 -4.16353 0
M  V30 1620 N 165.547 1.27147 0.931209 0
M  V30 1621 C 166.479 1.05364 2.03546 0
M  V30 1622 C 167.492 0.0108438 1.62796 0
M  V30 1623 O 168.681 0.25202 1.76712 0
M  V30 1624 C 165.781 0.575566 3.33977 0
M  V30 1625 C 164.954 1.68985 4.03439 0
M  V30 1626 C 164.013 1.20813 5.12143 0
M  V30 1627 O 163.039 1.90712 5.363 0
M  V30 1628 N 164.241 0.0618851 5.80467 0
M  V30 1629 H 167.006 2.00454 2.22796 0
M  V30 1630 H 164.567 1.18666 1.10136 0
M  V30 1631 H 166.559 0.237264 4.04004 0
M  V30 1632 H 165.129 -0.282016 3.11325 0
M  V30 1633 H 164.349 2.19861 3.27192 0
M  V30 1634 H 165.637 2.4378 4.46597 0
M  V30 1635 H 165.035 -0.521621 5.6329 0
M  V30 1636 H 163.592 -0.217264 6.51438 0
M  V30 1637 N 167.025 -1.13721 1.09112 0
M  V30 1638 C 167.988 -2.17222 0.731241 0
M  V30 1639 C 168.988 -1.59035 -0.237566 0
M  V30 1640 O 170.178 -1.74192 -0.0161704 0
M  V30 1641 C 167.31 -3.40804 0.0808443 0
M  V30 1642 H 168.503 -2.50573 1.64783 0
M  V30 1643 H 166.056 -1.28493 0.889897 0
M  V30 1644 H 166.791 -3.1304 -0.847127 0
M  V30 1645 H 166.576 -3.84306 0.777896 0
M  V30 1646 H 168.066 -4.1731 -0.155657 0
M  V30 1647 N 168.503 -0.877838 -1.30888 0
M  V30 1648 C 169.914 -0.544193 -1.78593 0
M  V30 1649 C 170.265 0.939301 -1.72254 0
M  V30 1650 O 169.39 1.7337 -1.29505 0
M  V30 1651 C 169.985 -0.98105 -3.24285 0
M  V30 1652 C 168.544 -0.698935 -3.69854 0
M  V30 1653 C 167.691 -1.168 -2.51502 0
M  V30 1654 H 170.642 -1.06278 -1.17859 0
M  V30 1655 H 170.663 -0.307009 -3.79259 0
M  V30 1656 H 170.175 -2.06079 -3.28866 0
M  V30 1657 H 168.276 0.369112 -3.70767 0
M  V30 1658 H 168.389 -1.28148 -4.61644 0
M  V30 1659 H 166.753 -0.587535 -2.47831 0
M  V30 1660 H 167.536 -2.25533 -2.58824 0
M  V30 1661 N 169.982 1.44106 -0.638065 0
M  V30 1662 C 170.914 2.28976 0.101205 0
M  V30 1663 C 171.927 1.4167 0.802088 0
M  V30 1664 O 173.116 1.65755 0.662375 0
M  V30 1665 C 170.216 3.18217 1.16581 0
M  V30 1666 C 169.389 4.33978 0.546066 0
M  V30 1667 C 168.448 5.04202 1.50554 0
M  V30 1668 O 167.474 5.59986 1.01999 0
M  V30 1669 N 168.676 5.06296 2.8398 0
M  V30 1670 H 171.441 2.93064 -0.627186 0
M  V30 1671 H 169.002 1.54629 -0.479731 0
M  V30 1672 H 170.994 3.62061 1.80815 0
M  V30 1673 H 169.564 2.55833 1.79634 0
M  V30 1674 H 168.784 3.93239 -0.275046 0
M  V30 1675 H 170.072 5.08675 0.112793 0
M  V30 1676 H 169.47 4.62319 3.26002 0
M  V30 1677 H 168.027 5.53907 3.43556 0
M  V30 1678 N 171.46 0.379036 1.52974 0
M  V30 1679 C 172.871 -0.0972525 1.86447 0
M  V30 1680 C 173.222 -1.47027 1.29914 0
M  V30 1681 O 172.347 -2.07135 0.626433 0
M  V30 1682 C 172.942 -0.183248 3.38304 0
M  V30 1683 C 171.501 -0.603812 3.71525 0
M  V30 1684 C 170.648 0.240632 2.76254 0
M  V30 1685 H 173.599 0.597316 1.4703 0
M  V30 1686 H 173.62 -1.00432 3.67006 0
M  V30 1687 H 173.132 0.816191 3.79421 0
M  V30 1688 H 171.233 -1.61099 3.35973 0
M  V30 1689 H 171.346 -0.369086 4.77676 0
M  V30 1690 H 169.71 -0.292548 2.53014 0
M  V30 1691 H 170.493 1.23786 3.20206 0
M  V30 1692 N 172.938 -1.57226 0.108567 0
M  V30 1693 C 174.349 -1.8195 -0.418464 0
M  V30 1694 C 174.7 -1.02508 -1.67292 0
M  V30 1695 O 173.825 -0.258496 -2.14851 0
M  V30 1696 C 174.42 -3.30028 -0.765979 0
M  V30 1697 C 172.979 -3.55469 -1.23769 0
M  V30 1698 C 172.126 -2.7625 -0.241106 0
M  V30 1699 H 175.077 -1.55149 0.33384 0
M  V30 1700 H 175.098 -3.44086 -1.62434 0
M  V30 1701 H 174.61 -3.87821 0.147219 0
M  V30 1702 H 172.711 -3.03022 -2.16814 0
M  V30 1703 H 172.824 -4.6408 -1.19022 0
M  V30 1704 H 171.188 -2.44133 -0.72602 0
M  V30 1705 H 171.971 -3.36797 0.665007 0
M  V30 1706 N 174.416 0.165178 -1.56732 0
M  V30 1707 C 175.379 1.18822 -1.95995 0
M  V30 1708 C 176.379 1.3685 -0.84431 0
M  V30 1709 O 177.569 1.34152 -1.11126 0
M  V30 1710 C 174.701 2.5521 -2.26011 0
M  V30 1711 H 175.894 0.851825 -2.87548 0
M  V30 1712 H 173.447 0.407857 -1.50885 0
M  V30 1713 H 174.182 2.93852 -1.37191 0
M  V30 1714 H 173.967 2.43489 -3.07336 0
M  V30 1715 H 175.457 3.28927 -2.57288 0
M  V30 1716 N 175.894 1.51508 0.433938 0
M  V30 1717 C 177.134 1.66006 1.19253 0
M  V30 1718 C 177.498 0.369868 1.88404 0
M  V30 1719 O 178.699 0.39066 2.65946 0
M  V30 1720 C 176.97 2.83229 2.17981 0
M  V30 1721 S 178.529 3.18075 3.02281 0
M  V30 1722 H 175.347 0.584821 0.404358 0
M  V30 1723 H 177.949 1.89425 0.48357 0
M  V30 1724 H 176.653 3.75407 1.65824 0
M  V30 1725 H 176.184 2.6201 2.93453 0
M  V30 1726 H 178.199 2.64772 4.19655 0
M  V30 1727 N 177.372 -0.689602 1.41712 0
M  V30 1728 C 178.32 -1.82475 1.44242 0
M  V30 1729 C 179.314 -1.66354 0.319774 0
M  V30 1730 O 180.52 -1.73143 0.492089 0
M  V30 1731 H 176.895 -0.601416 0.451445 0
M  V30 1732 H 178.866 -1.77458 2.39899 0
M  V30 1733 C 177.615 -3.20535 1.3473 0
M  V30 1734 H 176.938 -3.33559 2.20405 0
M  V30 1735 H 178.378 -4.00023 1.40562 0
M  V30 1736 C 176.837 -3.36846 0.0603281 0
M  V30 1737 O 177.367 -3.91656 -0.892663 0
M  V30 1738 N 175.573 -2.90595 -0.0177039 0
M  V30 1739 H 175.12 -2.46178 0.758572 0
M  V30 1740 H 175.078 -3.01886 -0.878201 0
M  V30 1741 N 178.85 -1.27639 -0.924453 0
M  V30 1742 C 180.096 -1.14336 -1.67497 0
M  V30 1743 C 180.429 0.309465 -1.91718 0
M  V30 1744 O 179.704 1.22608 -1.50989 0
M  V30 1745 C 179.987 -1.93096 -3.0395 0
M  V30 1746 C 179.84 -3.46381 -2.8695 0
M  V30 1747 C 181.159 -1.73798 -4.0433 0
M  V30 1748 H 178.278 -0.416728 -0.607871 0
M  V30 1749 H 180.92 -1.56832 -1.07256 0
M  V30 1750 H 179.07 -1.56982 -3.55372 0
M  V30 1751 H 180.742 -3.92343 -2.42621 0
M  V30 1752 H 178.985 -3.72557 -2.22225 0
M  V30 1753 H 179.656 -3.96735 -3.83804 0
M  V30 1754 H 182.132 -2.05293 -3.61931 0
M  V30 1755 H 181.008 -2.31294 -4.97789 0
M  V30 1756 H 181.269 -0.686725 -4.36734 0
M  V30 1757 N 180.328 1.1314 -1.09713 0
M  V30 1758 C 181.278 2.16709 -0.708593 0
M  V30 1759 C 182.262 1.58471 0.278523 0
M  V30 1760 O 183.454 1.76779 0.088427 0
M  V30 1761 C 180.583 3.43039 -0.133923 0
M  V30 1762 C 179.669 4.08277 -1.14763 0
M  V30 1763 N 180.06 4.48637 -2.33577 0
M  V30 1764 C 178.358 4.34954 -0.986446 0
M  V30 1765 C 179.059 4.9952 -2.98085 0
M  V30 1766 N 178.035 4.94561 -2.25632 0
M  V30 1767 H 181.837 2.45672 -1.61315 0
M  V30 1768 H 179.351 1.29967 -0.973775 0
M  V30 1769 H 181.348 4.16583 0.162465 0
M  V30 1770 H 180.008 3.15549 0.765447 0
M  V30 1771 H 181.019 4.41246 -2.7115 0
M  V30 1772 H 177.696 4.17258 -0.142008 0
M  V30 1773 H 179.086 5.40521 -3.99108 0
M  V30 1774 N 181.806 0.884767 1.30421 0
M  V30 1775 C 183.053 0.503105 1.96151 0
M  V30 1776 C 183.381 -0.947676 1.69851 0
M  V30 1777 O 182.636 -1.68467 0.995861 0
M  V30 1778 C 182.935 0.724318 3.49983 0
M  V30 1779 C 182.601 2.15015 3.96332 0
M  V30 1780 C 181.263 2.54005 4.08699 0
M  V30 1781 C 183.615 3.07936 4.20505 0
M  V30 1782 C 180.943 3.85128 4.42599 0
M  V30 1783 C 183.295 4.3859 4.55874 0
M  V30 1784 C 181.959 4.77474 4.66449 0
M  V30 1785 H 181.229 0.184099 0.717766 0
M  V30 1786 H 183.876 1.12058 1.55291 0
M  V30 1787 H 182.181 0.0238086 3.91793 0
M  V30 1788 H 183.878 0.408617 3.98913 0
M  V30 1789 H 180.468 1.8375 3.87213 0
M  V30 1790 H 184.652 2.79033 4.10431 0
M  V30 1791 H 179.908 4.14996 4.48986 0
M  V30 1792 H 184.082 5.10629 4.7353 0
M  V30 1793 H 181.709 5.79115 4.92473 0
M  V30 1794 N 183.284 -1.43765 0.645699 0
M  V30 1795 C 184.214 -2.33471 -0.0370477 0
M  V30 1796 C 185.195 -1.49042 -0.819779 0
M  V30 1797 O 186.38 -1.77726 -0.782758 0
M  V30 1798 C 183.51 -3.32311 -1.0093 0
M  V30 1799 C 182.464 -4.2667 -0.337201 0
M  V30 1800 C 181.79 -5.1549 -1.42037 0
M  V30 1801 C 183.09 -5.16657 0.765706 0
M  V30 1802 H 184.784 -2.90809 0.712069 0
M  V30 1803 H 182.33 -1.39834 0.343876 0
M  V30 1804 H 184.283 -3.9396 -1.49578 0
M  V30 1805 H 183.007 -2.73213 -1.78948 0
M  V30 1806 H 181.666 -3.66374 0.128771 0
M  V30 1807 H 181.314 -4.52735 -2.1918 0
M  V30 1808 H 181.014 -5.79438 -0.975966 0
M  V30 1809 H 182.538 -5.80012 -1.90838 0
M  V30 1810 H 183.952 -5.72158 0.361702 0
M  V30 1811 H 182.349 -5.89286 1.13413 0
M  V30 1812 H 183.419 -4.56796 1.62683 0
M  V30 1813 N 184.763 -0.387143 -1.52771 0
M  V30 1814 C 185.988 0.198407 -2.06449 0
M  V30 1815 C 186.413 1.39918 -1.25716 0
M  V30 1816 O 185.771 1.79099 -0.281657 0
M  V30 1817 C 185.819 0.548893 -3.56398 0
M  V30 1818 O 184.923 1.64315 -3.78252 0
M  V30 1819 H 184.264 0.0237731 -0.663574 0
M  V30 1820 H 186.794 -0.553989 -1.96957 0
M  V30 1821 H 186.804 0.813812 -3.99801 0
M  V30 1822 H 185.479 -0.329005 -4.14597 0
M  V30 1823 H 184.056 1.37211 -3.46738 0
M  V30 1824 N 186.241 1.57166 -0.116904 0
M  V30 1825 C 187.466 1.999 0.55271 0
M  V30 1826 C 187.891 0.996039 1.59564 0
M  V30 1827 O 187.249 -0.032556 1.81271 0
M  V30 1828 C 187.297 3.4152 1.15742 0
M  V30 1829 O 186.401 3.44106 2.27299 0
M  V30 1830 H 185.742 0.649447 0.138258 0
M  V30 1831 H 188.272 2.03573 -0.204759 0
M  V30 1832 H 188.282 3.79684 1.49346 0
M  V30 1833 H 186.957 4.14034 0.393493 0
M  V30 1834 H 185.534 3.17759 1.9515 0
M  V30 1835 N 187.719 -0.156864 1.56817 0
M  V30 1836 C 188.649 -1.19589 2.00551 0
M  V30 1837 C 189.63 -1.4536 0.883426 0
M  V30 1838 O 190.815 -1.56449 1.15054 0
M  V30 1839 C 187.945 -2.53143 2.37773 0
M  V30 1840 C 186.899 -2.41913 3.53075 0
M  V30 1841 C 186.225 -3.80088 3.76081 0
M  V30 1842 C 187.525 -1.91157 4.86062 0
M  V30 1843 H 189.219 -0.832293 2.87599 0
M  V30 1844 H 186.765 -0.398918 1.38364 0
M  V30 1845 H 188.718 -3.26047 2.66967 0
M  V30 1846 H 187.442 -2.91319 1.4765 0
M  V30 1847 H 186.101 -1.71462 3.24031 0
M  V30 1848 H 185.749 -4.15683 2.83225 0
M  V30 1849 H 185.449 -3.73439 4.53671 0
M  V30 1850 H 186.973 -4.54556 4.0769 0
M  V30 1851 H 188.387 -2.53846 5.14038 0
M  V30 1852 H 186.784 -1.95422 5.67389 0
M  V30 1853 H 187.854 -0.866673 4.77092 0
M  V30 1854 N 189.197 -1.51736 -0.425897 0
M  V30 1855 C 190.127 -1.76827 -1.52494 0
M  V30 1856 C 191.108 -0.618524 -1.58456 0
M  V30 1857 O 192.293 -0.862416 -1.74 0
M  V30 1858 C 189.423 -1.90374 -2.90474 0
M  V30 1859 C 188.377 -3.0588 -2.99369 0
M  V30 1860 C 187.703 -3.04625 -4.3944 0
M  V30 1861 C 189.003 -4.45644 -2.72394 0
M  V30 1862 H 190.697 -2.68855 -1.31748 0
M  V30 1863 H 188.243 -1.29372 -0.632362 0
M  V30 1864 H 190.196 -2.0651 -3.6733 0
M  V30 1865 H 188.92 -0.95004 -3.12477 0
M  V30 1866 H 187.579 -2.89467 -2.24954 0
M  V30 1867 H 187.227 -2.0701 -4.58428 0
M  V30 1868 H 186.927 -3.82195 -4.46319 0
M  V30 1869 H 188.451 -3.22869 -5.18255 0
M  V30 1870 H 189.865 -4.62348 -3.38979 0
M  V30 1871 H 188.262 -5.25006 -2.9067 0
M  V30 1872 H 189.332 -4.54893 -1.67929 0
M  V30 1873 N 190.675 0.682077 -1.42076 0
M  V30 1874 C 192.086 1.26246 -1.37546 0
M  V30 1875 C 192.437 1.96092 -0.0651481 0
M  V30 1876 O 191.562 1.99587 0.836297 0
M  V30 1877 C 192.157 2.29594 -2.49143 0
M  V30 1878 C 190.716 2.83175 -2.47969 0
M  V30 1879 C 189.863 1.57395 -2.28303 0
M  V30 1880 H 192.814 0.475937 -1.51395 0
M  V30 1881 H 192.835 3.11175 -2.18976 0
M  V30 1882 H 192.347 1.78729 -3.44496 0
M  V30 1883 H 190.448 3.3818 -1.56413 0
M  V30 1884 H 190.561 3.32687 -3.44755 0
M  V30 1885 H 188.925 1.83699 -1.76428 0
M  V30 1886 H 189.708 1.08507 -3.25701 0
M  V30 1887 N 192.153 1.28127 0.917671 0
M  V30 1888 C 193.116 1.11744 2.00115 0
M  V30 1889 C 194.116 0.0583052 1.60694 0
M  V30 1890 O 195.306 0.303755 1.71531 0
M  V30 1891 C 192.438 0.704862 3.33533 0
M  V30 1892 H 193.631 2.07966 2.16079 0
M  V30 1893 H 191.184 1.11058 1.09981 0
M  V30 1894 H 191.919 -0.258299 3.2327 0
M  V30 1895 H 191.704 1.4699 3.63505 0
M  V30 1896 H 193.194 0.612768 4.1308 0
M  V30 1897 N 193.631 -1.12557 1.10312 0
M  V30 1898 C 194.581 -2.16331 0.720076 0
M  V30 1899 C 195.565 -1.58616 -0.270115 0
M  V30 1900 O 196.757 -1.76823 -0.0790507 0
M  V30 1901 C 193.886 -3.42963 0.152113 0
M  V30 1902 C 192.972 -4.07663 1.16927 0
M  V30 1903 N 193.363 -4.47392 2.35953 0
M  V30 1904 C 191.661 -4.34425 1.0095 0
M  V30 1905 C 192.362 -4.97932 3.0073 0
M  V30 1906 N 191.338 -4.93358 2.28252 0
M  V30 1907 H 195.14 -2.44813 1.62616 0
M  V30 1908 H 192.654 -1.29449 0.980654 0
M  V30 1909 H 194.651 -4.16664 -0.14037 0
M  V30 1910 H 193.311 -3.1595 -0.748701 0
M  V30 1911 H 194.322 -4.39802 2.73486 0
M  V30 1912 H 190.999 -4.17177 0.164134 0
M  V30 1913 H 192.389 -5.38397 4.01969 0
M  V30 1914 N 195.109 -0.891671 -1.2995 0
M  V30 1915 C 196.525 -0.58662 -1.48428 0
M  V30 1916 C 196.725 0.873951 -1.81561 0
M  V30 1917 O 195.781 1.65471 -1.90724 0
M  V30 1918 C 197.094 -1.50553 -2.60296 0
M  V30 1919 C 198.642 -1.50988 -2.74175 0
M  V30 1920 C 199.117 -2.41488 -3.89163 0
M  V30 1921 N 200.608 -2.39489 -3.96483 0
M  V30 1922 C 201.343 -3.06223 -4.84784 0
M  V30 1923 N 200.839 -3.82206 -5.77833 0
M  V30 1924 N 202.632 -2.95421 -4.78208 0
M  V30 1925 H 194.783 -1.83644 -1.06718 0
M  V30 1926 H 197.046 -0.786455 -0.529332 0
M  V30 1927 H 196.752 -2.54581 -2.42654 0
M  V30 1928 H 196.626 -1.22008 -3.56923 0
M  V30 1929 H 199.013 -0.47708 -2.91218 0
M  V30 1930 H 199.094 -1.83567 -1.78148 0
M  V30 1931 H 198.738 -3.44857 -3.72876 0
M  V30 1932 H 198.668 -2.06222 -4.84541 0
M  V30 1933 H 201.159 -1.84278 -3.29924 0
M  V30 1934 H 201.472 -4.302 -6.41988 0
M  V30 1935 H 199.817 -3.86313 -5.77743 0
M  V30 1936 H 203.008 -2.35581 -4.04499 0
M  V30 1937 H 203.181 -3.47704 -5.46814 0
M  V30 1938 N 196.587 1.43421 -0.653314 0
M  V30 1939 C 197.812 2.06678 -0.172846 0
M  V30 1940 C 198.237 1.48648 1.15262 0
M  V30 1941 O 197.595 0.596457 1.71208 0
M  V30 1942 C 197.643 3.60474 -0.0953184 0
M  V30 1943 O 196.747 4.01487 0.942442 0
M  V30 1944 H 196.088 0.657181 -0.0949155 0
M  V30 1945 H 198.618 1.83925 -0.896265 0
M  V30 1946 H 198.628 4.07905 0.0879728 0
M  V30 1947 H 197.303 4.02088 -1.06291 0
M  V30 1948 H 195.88 3.65646 0.731932 0
M  V30 1949 N 198.065 0.39524 1.52563 0
M  V30 1950 C 199.476 -0.0774719 1.86539 0
M  V30 1951 C 199.827 -1.45641 1.31466 0
M  V30 1952 O 198.952 -2.06459 0.648367 0
M  V30 1953 C 199.547 -0.147356 3.38479 0
M  V30 1954 C 198.106 -0.564373 3.72145 0
M  V30 1955 C 197.253 0.269919 2.75983 0
M  V30 1956 H 200.204 0.612876 1.46388 0
M  V30 1957 H 200.225 -0.965343 3.68051 0
M  V30 1958 H 199.737 0.856387 3.78534 0
M  V30 1959 H 197.838 -1.57527 3.37663 0
M  V30 1960 H 197.951 -0.318402 4.78041 0
M  V30 1961 H 196.315 -0.265696 2.5331 0
M  V30 1962 H 197.098 1.27175 3.18875 0
M  V30 1963 N 199.544 -1.57102 0.125237 0
M  V30 1964 C 200.507 -2.14471 -0.80838 0
M  V30 1965 C 201.507 -1.0811 -1.19033 0
M  V30 1966 O 202.697 -1.33856 -1.11482 0
M  V30 1967 C 199.829 -2.69005 -2.09402 0
M  V30 1968 H 201.022 -2.98297 -0.309696 0
M  V30 1969 H 198.575 -1.55807 -0.124051 0
M  V30 1970 H 199.31 -1.88785 -2.63687 0
M  V30 1971 H 199.095 -3.46799 -1.82957 0
M  V30 1972 H 200.585 -3.13278 -2.76128 0
M  V30 1973 N 201.022 0.148545 -1.56898 0
M  V30 1974 C 202.268 0.862694 -1.83536 0
M  V30 1975 C 202.601 1.80889 -0.706604 0
M  V30 1976 O 201.876 1.92328 0.289885 0
M  V30 1977 C 202.159 1.63853 -3.20662 0
M  V30 1978 C 202.012 0.713925 -4.44098 0
M  V30 1979 C 203.331 2.60133 -3.54991 0
M  V30 1980 H 200.45 0.312179 -0.667618 0
M  V30 1981 H 203.092 0.127953 -1.89569 0
M  V30 1982 H 201.242 2.26489 -3.1565 0
M  V30 1983 H 202.914 0.098686 -4.61194 0
M  V30 1984 H 201.157 0.0234019 -4.33794 0
M  V30 1985 H 201.828 1.29278 -5.36648 0
M  V30 1986 H 204.304 2.07616 -3.60603 0
M  V30 1987 H 203.18 3.11468 -4.51972 0
M  V30 1988 H 203.441 3.41417 -2.80868 0
M  V30 1989 N 202.5 1.5196 0.417844 0
M  V30 1990 C 203.43 1.77634 1.51554 0
M  V30 1991 C 204.411 0.626918 1.58126 0
M  V30 1992 O 205.596 0.871632 1.7354 0
M  V30 1993 C 202.726 1.91911 2.8946 0
M  V30 1994 C 201.68 3.07463 2.97743 0
M  V30 1995 C 201.006 3.06951 4.37819 0
M  V30 1996 C 202.306 4.47082 2.70027 0
M  V30 1997 H 204 2.6955 1.3032 0
M  V30 1998 H 201.546 1.29706 0.625492 0
M  V30 1999 H 203.499 2.08455 3.6623 0
M  V30 2000 H 202.223 0.966598 3.11969 0
M  V30 2001 H 200.882 2.90656 2.23416 0
M  V30 2002 H 200.53 2.09438 4.57323 0
M  V30 2003 H 200.23 3.84556 4.44286 0
M  V30 2004 H 201.754 3.25613 5.16535 0
M  V30 2005 H 203.168 4.6414 3.36522 0
M  V30 2006 H 201.565 5.2654 2.87881 0
M  V30 2007 H 202.635 4.55777 1.65514 0
M  V30 2008 N 203.978 -0.674533 1.42435 0
M  V30 2009 C 205.389 -1.25514 1.38214 0
M  V30 2010 C 205.74 -1.96055 0.0755464 0
M  V30 2011 O 204.865 -2.00028 -0.8257 0
M  V30 2012 C 205.46 -2.28269 2.50357 0
M  V30 2013 C 204.019 -2.81856 2.49467 0
M  V30 2014 C 203.166 -1.56182 2.29134 0
M  V30 2015 H 206.117 -0.467902 1.51646 0
M  V30 2016 H 206.138 -3.10009 2.20624 0
M  V30 2017 H 205.65 -1.769 3.45439 0
M  V30 2018 H 203.751 -3.37346 1.58204 0
M  V30 2019 H 203.864 -3.30854 3.46515 0
M  V30 2020 H 202.228 -1.82761 1.774 0
M  V30 2021 H 203.011 -1.06778 3.26272 0
M  V30 2022 N 205.456 -1.28612 -0.910864 0
M  V30 2023 C 206.386 -1.15326 -2.03032 0
M  V30 2024 C 207.367 -0.0502924 -1.70026 0
M  V30 2025 O 208.552 -0.227797 -1.92859 0
M  V30 2026 C 205.682 -0.817343 -3.37545 0
M  V30 2027 C 204.636 -1.8754 -3.84724 0
M  V30 2028 C 203.962 -1.39305 -5.16235 0
M  V30 2029 C 205.262 -3.28244 -4.06267 0
M  V30 2030 H 206.956 -2.08975 -2.14406 0
M  V30 2031 H 204.502 -1.00612 -1.03021 0
M  V30 2032 H 206.455 -0.711151 -4.15356 0
M  V30 2033 H 205.179 0.154846 -3.26233 0
M  V30 2034 H 203.838 -1.97079 -3.09121 0
M  V30 2035 H 203.486 -0.409846 -5.01328 0
M  V30 2036 H 203.186 -2.10057 -5.48771 0
M  V30 2037 H 204.71 -1.30014 -5.96598 0
M  V30 2038 H 206.124 -3.21611 -4.74594 0
M  V30 2039 H 204.521 -3.96855 -4.5014 0
M  V30 2040 H 205.591 -3.72048 -3.10979 0
M  V30 2041 N 206.934 1.1197 -1.10907 0
M  V30 2042 C 208.182 1.83225 -0.852819 0
M  V30 2043 C 208.503 1.84769 0.623341 0
M  V30 2044 O 207.773 1.3143 1.45269 0
M  V30 2045 H 206.353 0.67849 -0.312507 0
M  V30 2046 H 209.015 1.3556 -1.40033 0
M  V30 2047 H 208.111 2.87265 -1.22005 0
M  V30 2048 N 208.412 0.89855 1.29475 0
M  V30 2049 C 209.375 0.380272 2.26023 0
M  V30 2050 C 210.375 -0.484891 1.53315 0
M  V30 2051 O 211.565 -0.290108 1.71767 0
M  V30 2052 C 208.697 -0.45651 3.3783 0
M  V30 2053 H 209.89 1.23295 2.73383 0
M  V30 2054 H 207.443 0.676589 1.40897 0
M  V30 2055 H 208.178 -1.32922 2.95808 0
M  V30 2056 H 207.963 0.163393 3.91759 0
M  V30 2057 H 209.453 -0.810466 4.0966 0
M  V30 2058 N 209.89 -1.43072 0.660911 0
M  V30 2059 C 211.136 -2.02545 0.186337 0
M  V30 2060 C 211.491 -1.51253 -1.18913 0
M  V30 2061 O 210.784 -0.699167 -1.78388 0
M  V30 2062 C 210.978 -3.57103 0.145563 0
M  V30 2063 C 210.807 -4.23393 1.51554 0
M  V30 2064 C 209.577 -4.59144 2.10984 0
M  V30 2065 C 211.775 -4.51897 2.45548 0
M  V30 2066 N 209.757 -5.10545 3.40907 0
M  V30 2067 C 211.128 -5.04698 3.6011 0
M  V30 2068 C 213.183 -4.33872 2.44253 0
M  V30 2069 C 211.886 -5.41371 4.73613 0
M  V30 2070 C 213.912 -4.71612 3.56842 0
M  V30 2071 C 213.274 -5.24553 4.70131 0
M  V30 2072 H 209.373 -0.773823 0.112792 0
M  V30 2073 H 211.957 -1.74137 0.870885 0
M  V30 2074 H 210.128 -3.85059 -0.508353 0
M  V30 2075 H 211.86 -4.03264 -0.340598 0
M  V30 2076 H 208.615 -4.4444 1.63615 0
M  V30 2077 H 209.039 -5.40689 4.07411 0
M  V30 2078 H 213.681 -3.92208 1.579 0
M  V30 2079 H 211.399 -5.81975 5.60652 0
M  V30 2080 H 214.985 -4.59354 3.57051 0
M  V30 2081 H 213.865 -5.53213 5.5581 0
M  V30 2082 N 211.368 -0.403325 -1.52352 0
M  V30 2083 C 212.614 0.174605 -2.02047 0
M  V30 2084 C 212.947 1.45282 -1.28867 0
M  V30 2085 O 212.222 1.90483 -0.393257 0
M  V30 2086 C 212.505 0.428238 -3.57545 0
M  V30 2087 C 212.358 -0.866248 -4.4138 0
M  V30 2088 C 213.677 1.21287 -4.23057 0
M  V30 2089 H 210.796 0.0619851 -0.734389 0
M  V30 2090 H 213.438 -0.53565 -1.82293 0
M  V30 2091 H 211.588 1.03327 -3.74507 0
M  V30 2092 H 213.26 -1.50265 -4.3614 0
M  V30 2093 H 211.503 -1.47851 -4.07827 0
M  V30 2094 H 212.174 -0.643249 -5.48239 0
M  V30 2095 H 214.65 0.700703 -4.10158 0
M  V30 2096 H 213.526 1.35909 -5.31808 0
M  V30 2097 H 213.787 2.23193 -3.81625 0
M  V30 2098 N 212.846 1.57033 -0.133567 0
M  V30 2099 C 213.776 2.1909 0.807567 0
M  V30 2100 C 214.757 1.13517 1.26681 0
M  V30 2101 O 215.942 1.41809 1.32679 0
M  V30 2102 C 213.072 2.80188 2.05212 0
M  V30 2103 C 212.026 3.91471 1.73015 0
M  V30 2104 C 211.352 4.39443 3.04622 0
M  V30 2105 C 212.652 5.12886 0.987168 0
M  V30 2106 H 214.346 2.97988 0.290403 0
M  V30 2107 H 211.892 1.43335 0.138239 0
M  V30 2108 H 213.845 3.22264 2.71521 0
M  V30 2109 H 212.569 1.98601 2.59278 0
M  V30 2110 H 211.228 3.49993 1.0909 0
M  V30 2111 H 210.876 3.54695 3.56651 0
M  V30 2112 H 210.576 5.14495 2.83847 0
M  V30 2113 H 212.1 4.8418 3.72024 0
M  V30 2114 H 213.514 5.51891 1.55208 0
M  V30 2115 H 211.911 5.93615 0.87985 0
M  V30 2116 H 212.981 4.84894 -0.0235286 0
M  V30 2117 N 214.325 -0.140222 1.56975 0
M  V30 2118 C 215.235 -1.19223 2.02047 0
M  V30 2119 C 216.251 -1.46612 0.937062 0
M  V30 2120 O 217.427 -1.58148 1.24704 0
M  V30 2121 C 214.492 -2.50414 2.39778 0
M  V30 2122 C 213.553 -2.30612 3.621 0
M  V30 2123 C 212.786 -3.55547 3.98023 0
M  V30 2124 O 213.009 -4.62004 3.34528 0
M  V30 2125 O 211.943 -3.47808 4.91237 0
M  V30 2126 H 215.769 -0.839559 2.91865 0
M  V30 2127 H 213.354 -0.349453 1.45256 0
M  V30 2128 H 215.236 -3.27747 2.64877 0
M  V30 2129 H 213.911 -2.85198 1.53114 0
M  V30 2130 H 212.818 -1.51207 3.4218 0
M  V30 2131 H 214.151 -2.00741 4.49404 0
M  V30 2132 N 215.803 -1.52179 -0.40978 0
M  V30 2133 C 217.051 -1.65878 -1.15451 0
M  V30 2134 C 217.372 -0.390771 -1.91044 0
M  V30 2135 O 216.642 0.594323 -1.86667 0
M  V30 2136 H 215.222 -0.611405 -0.429177 0
M  V30 2137 H 217.884 -1.89219 -0.467134 0
M  V30 2138 H 216.98 -2.49954 -1.86894 0
M  V30 2139 N 217.281 0.66697 -1.42791 0
M  V30 2140 C 218.244 1.76211 -1.46568 0
M  V30 2141 C 219.244 1.56896 -0.352196 0
M  V30 2142 O 220.434 1.63044 -0.613364 0
M  V30 2143 C 217.566 3.14935 -1.30494 0
M  V30 2144 H 218.759 1.74247 -2.44086 0
M  V30 2145 H 216.312 0.877342 -1.29354 0
M  V30 2146 H 217.047 3.2252 -0.339301 0
M  V30 2147 H 216.832 3.30359 -2.11199 0
M  V30 2148 H 218.322 3.94821 -1.36038 0
M  V30 2149 N 218.759 1.29093 0.90403 0
M  V30 2150 C 219.984 1.19809 1.69294 0
M  V30 2151 C 220.409 -0.238481 1.86582 0
M  V30 2152 O 219.767 -1.1723 1.383 0
M  V30 2153 C 219.815 1.91202 3.05736 0
M  V30 2154 O 218.919 1.22611 3.93752 0
M  V30 2155 H 218.26 0.415385 0.518027 0
M  V30 2156 H 220.79 1.70586 1.12967 0
M  V30 2157 H 220.8 1.99487 3.55906 0
M  V30 2158 H 219.475 2.95692 2.92471 0
M  V30 2159 H 218.052 1.22554 3.52186 0
M  V30 2160 N 220.237 -1.11381 1.11499 0
M  V30 2161 C 221.187 -2.15555 0.74298 0
M  V30 2162 C 222.171 -1.58894 -0.253276 0
M  V30 2163 O 223.363 -1.76897 -0.0602918 0
M  V30 2164 C 220.492 -3.42782 0.188481 0
M  V30 2165 C 219.578 -4.064 1.21244 0
M  V30 2166 N 219.969 -4.44864 2.40685 0
M  V30 2167 C 218.267 -4.3333 1.05552 0
M  V30 2168 C 218.968 -4.94715 3.05994 0
M  V30 2169 N 217.944 -4.90909 2.33472 0
M  V30 2170 H 221.746 -2.43074 1.65203 0
M  V30 2171 H 219.26 -1.28401 0.994329 0
M  V30 2172 H 221.257 -4.16789 -0.0961693 0
M  V30 2173 H 219.917 -3.16727 -0.715149 0
M  V30 2174 H 220.928 -4.36876 2.78136 0
M  V30 2175 H 217.605 -4.1698 0.208372 0
M  V30 2176 H 218.995 -5.34103 4.07656 0
M  V30 2177 N 221.715 -0.905404 -1.28997 0
M  V30 2178 C 223.126 -0.581953 -1.77398 0
M  V30 2179 C 223.477 0.902552 -1.74208 0
M  V30 2180 O 222.602 1.70584 -1.33154 0
M  V30 2181 C 223.197 -1.04961 -3.22131 0
M  V30 2182 C 221.756 -0.777229 -3.68288 0
M  V30 2183 C 220.903 -1.22109 -2.48967 0
M  V30 2184 H 223.854 -1.08754 -1.15578 0
M  V30 2185 H 223.875 -0.387387 -3.78523 0
M  V30 2186 H 223.387 -2.13008 -3.24421 0
M  V30 2187 H 221.488 0.290383 -3.71467 0
M  V30 2188 H 221.601 -1.37911 -4.58822 0
M  V30 2189 H 219.965 -0.639971 -2.46529 0
M  V30 2190 H 220.748 -2.30972 -2.53982 0
M  V30 2191 N 223.193 1.4272 -0.668489 0
M  V30 2192 C 224.441 2.01226 -0.187769 0
M  V30 2193 C 224.762 1.53092 1.2078 0
M  V30 2194 O 224.032 0.74993 1.80977 0
M  V30 2195 H 222.612 0.744041 -0.0664272 0
M  V30 2196 H 225.274 1.74723 -0.863583 0
M  V30 2197 H 224.37 3.11556 -0.184166 0
M  V30 2198 N 224.671 0.411399 1.52136 0
M  V30 2199 C 225.917 -0.163888 2.02137 0
M  V30 2200 C 226.25 -1.44597 1.29636 0
M  V30 2201 O 225.525 -1.90272 0.403353 0
M  V30 2202 C 225.808 -0.40927 3.57767 0
M  V30 2203 C 225.661 0.889643 4.40914 0
M  V30 2204 C 226.98 -1.19042 4.23694 0
M  V30 2205 H 224.099 -0.0580896 0.734707 0
M  V30 2206 H 226.741 0.54531 1.82007 0
M  V30 2207 H 224.891 -1.0134 3.7505 0
M  V30 2208 H 226.563 1.52575 4.35337 0
M  V30 2209 H 224.806 1.50011 4.07037 0
M  V30 2210 H 225.477 0.672314 5.4789 0
M  V30 2211 H 227.953 -0.678942 4.10524 0
M  V30 2212 H 226.829 -1.33086 5.32522 0
M  V30 2213 H 227.09 -2.21166 3.82803 0
M  V30 2214 N 226.149 -1.5696 0.141893 0
M  V30 2215 C 227.565 -1.58151 -0.21456 0
M  V30 2216 C 227.765 -1.1559 -1.65049 0
M  V30 2217 O 226.821 -0.853832 -2.37626 0
M  V30 2218 C 228.134 -3.00674 0.0395576 0
M  V30 2219 C 229.682 -3.1299 -0.0245529 0
M  V30 2220 C 230.157 -4.57554 0.202167 0
M  V30 2221 N 231.648 -4.62961 0.148919 0
M  V30 2222 C 232.383 -5.7262 0.298924 0
M  V30 2223 N 231.879 -6.90947 0.50637 0
M  V30 2224 N 233.672 -5.61601 0.236886 0
M  V30 2225 H 225.823 -1.8292 1.07953 0
M  V30 2226 H 228.086 -0.846425 0.42693 0
M  V30 2227 H 227.792 -3.36183 1.03315 0
M  V30 2228 H 227.666 -3.70981 -0.682143 0
M  V30 2229 H 230.053 -2.77326 -1.00869 0
M  V30 2230 H 230.134 -2.4518 0.729396 0
M  V30 2231 H 229.778 -4.93922 1.18338 0
M  V30 2232 H 229.708 -5.23484 -0.572044 0
M  V30 2233 H 232.199 -3.77899 -0.00697015 0
M  V30 2234 H 232.512 -7.7038 0.611076 0
M  V30 2235 H 230.857 -6.92878 0.542628 0
M  V30 2236 H 234.048 -4.68039 0.0756209 0
M  V30 2237 H 234.221 -6.47015 0.357227 0
M  V30 2238 N 227.627 0.131896 -1.57047 0
M  V30 2239 C 228.56 1.19236 -1.94571 0
M  V30 2240 C 229.538 1.40782 -0.813576 0
M  V30 2241 O 230.722 1.55148 -1.07058 0
M  V30 2242 C 227.849 2.54858 -2.23081 0
M  V30 2243 C 226.895 2.49817 -3.45679 0
M  V30 2244 S 227.728 1.95036 -4.98719 0
M  V30 2245 C 228.884 3.32357 -5.30367 0
M  V30 2246 H 229.117 0.872297 -2.84215 0
M  V30 2247 H 226.65 0.338134 -1.50652 0
M  V30 2248 H 228.608 3.32898 -2.40185 0
M  V30 2249 H 227.269 2.84047 -1.34074 0
M  V30 2250 H 226.462 3.49688 -3.62952 0
M  V30 2251 H 226.064 1.79892 -3.27895 0
M  V30 2252 H 228.356 4.28525 -5.2476 0
M  V30 2253 H 229.299 3.19923 -6.31708 0
M  V30 2254 H 229.707 3.3019 -4.57859 0
M  V30 2255 N 229.106 1.52395 0.401703 0
M  V30 2256 C 230.355 1.66044 1.14509 0
M  V30 2257 C 230.668 0.400216 1.91462 0
M  V30 2258 O 231.874 0.416632 2.68284 0
M  V30 2259 C 230.33 2.93388 2.0845 0
M  V30 2260 C 229.938 4.26545 1.36978 0
M  V30 2261 C 231.682 3.16402 2.83001 0
M  V30 2262 C 229.589 5.45007 2.29611 0
M  V30 2263 H 228.519 0.618562 0.431158 0
M  V30 2264 H 231.17 1.78886 0.40892 0
M  V30 2265 H 229.552 2.74263 2.8565 0
M  V30 2266 H 230.726 4.56179 0.650916 0
M  V30 2267 H 229.041 4.09692 0.74438 0
M  V30 2268 H 231.638 4.02085 3.52465 0
M  V30 2269 H 231.981 2.30943 3.46368 0
M  V30 2270 H 232.514 3.36034 2.12898 0
M  V30 2271 H 229.253 6.32835 1.70879 0
M  V30 2272 H 228.773 5.19702 2.9945 0
M  V30 2273 H 230.452 5.7838 2.89974 0
M  V30 2274 N 230.584 -0.659388 1.43143 0
M  V30 2275 C 231.995 -1.24041 1.39537 0
M  V30 2276 C 232.346 -1.95963 0.0963364 0
M  V30 2277 O 231.471 -2.00892 -0.804438 0
M  V30 2278 C 232.066 -2.25601 2.52764 0
M  V30 2279 C 230.625 -2.79195 2.52443 0
M  V30 2280 C 229.772 -1.53743 2.30778 0
M  V30 2281 H 232.723 -0.451792 1.52133 0
M  V30 2282 H 232.744 -3.07651 2.23899 0
M  V30 2283 H 232.256 -1.73226 3.47296 0
M  V30 2284 H 230.357 -3.35649 1.61773 0
M  V30 2285 H 230.47 -3.2716 3.50004 0
M  V30 2286 H 228.834 -1.80869 1.79328 0
M  V30 2287 H 229.617 -1.03312 3.27386 0
M  V30 2288 N 232.062 -1.29571 -0.897171 0
M  V30 2289 C 233.308 -1.17863 -1.65034 0
M  V30 2290 C 233.641 0.268729 -1.92332 0
M  V30 2291 O 232.916 1.19378 -1.53555 0
M  V30 2292 C 233.199 -1.995 -2.99786 0
M  V30 2293 C 233.052 -3.5239 -2.79538 0
M  V30 2294 C 234.371 -1.82335 -4.00552 0
M  V30 2295 H 231.49 -0.429528 -0.598895 0
M  V30 2296 H 234.132 -1.59072 -1.03905 0
M  V30 2297 H 232.282 -1.64485 -3.51962 0
M  V30 2298 H 233.954 -3.97401 -2.34244 0
M  V30 2299 H 232.197 -3.77187 -2.14273 0
M  V30 2300 H 232.868 -4.04787 -3.75302 0
M  V30 2301 H 235.344 -2.12924 -3.57495 0
M  V30 2302 H 234.22 -2.41801 -4.92771 0
M  V30 2303 H 234.481 -0.779209 -4.35179 0
M  V30 2304 N 233.54 1.10788 -1.12088 0
M  V30 2305 C 234.45 2.20599 -0.798338 0
M  V30 2306 C 235.466 1.72712 0.21135 0
M  V30 2307 O 236.642 2.01348 0.0458477 0
M  V30 2308 C 233.707 3.45771 -0.253674 0
M  V30 2309 C 232.768 4.08411 -1.32283 0
M  V30 2310 C 232.001 5.27608 -0.80406 0
M  V30 2311 O 232.224 5.69241 0.363478 0
M  V30 2312 O 231.158 5.8101 -1.57198 0
M  V30 2313 H 234.984 2.50614 -1.7154 0
M  V30 2314 H 232.569 1.19454 -0.897275 0
M  V30 2315 H 234.451 4.21376 0.0453691 0
M  V30 2316 H 233.126 3.1739 0.636005 0
M  V30 2317 H 232.033 3.34507 -1.67499 0
M  V30 2318 H 233.366 4.40986 -2.18614 0
M  V30 2319 N 235.018 0.912232 1.28515 0
M  V30 2320 C 236.267 0.540504 1.94323 0
M  V30 2321 C 236.58 -0.920044 1.72611 0
M  V30 2322 O 237.786 -1.39986 2.32629 0
M  V30 2323 C 236.242 0.915803 3.48053 0
M  V30 2324 C 235.85 2.39598 3.78546 0
M  V30 2325 C 237.594 0.614588 4.20027 0
M  V30 2326 C 235.501 2.71148 5.25578 0
M  V30 2327 H 234.431 0.198418 0.727424 0
M  V30 2328 H 237.082 1.11094 1.46049 0
M  V30 2329 H 235.464 0.274168 3.9505 0
M  V30 2330 H 236.638 3.08422 3.42364 0
M  V30 2331 H 234.953 2.66749 3.1974 0
M  V30 2332 H 237.55 0.827002 5.28266 0
M  V30 2333 H 237.893 -0.447531 4.13887 0
M  V30 2334 H 238.426 1.21462 3.78803 0
M  V30 2335 H 235.165 3.76207 5.36794 0
M  V30 2336 H 234.685 2.0696 5.62963 0
M  V30 2337 H 236.364 2.58072 5.93302 0
M  V30 2338 N 236.496 -1.42363 0.676048 0
M  V30 2339 C 237.443 -2.308 -0.00150904 0
M  V30 2340 C 238.413 -1.46032 -0.791444 0
M  V30 2341 O 239.598 -1.74861 -0.76344 0
M  V30 2342 C 236.738 -3.31883 -0.945919 0
M  V30 2343 C 235.851 -4.31741 -0.149675 0
M  V30 2344 C 234.986 -5.19898 -1.08995 0
M  V30 2345 C 234.025 -6.11434 -0.285465 0
M  V30 2346 N 233.162 -6.92138 -1.17851 0
M  V30 2347 H 238.002 -2.88187 0.758455 0
M  V30 2348 H 235.539 -1.41952 0.38576 0
M  V30 2349 H 237.497 -3.89019 -1.50731 0
M  V30 2350 H 236.127 -2.76093 -1.6725 0
M  V30 2351 H 235.179 -3.76713 0.528359 0
M  V30 2352 H 236.491 -4.96534 0.474866 0
M  V30 2353 H 235.645 -5.81772 -1.72123 0
M  V30 2354 H 234.384 -4.55284 -1.74837 0
M  V30 2355 H 233.389 -5.48627 0.359018 0
M  V30 2356 H 234.614 -6.78097 0.368883 0
M  V30 2357 H 232.56 -6.30152 -1.82332 0
M  V30 2358 H 232.477 -7.53542 -0.609082 0
M  V30 2359 H 233.745 -7.58499 -1.79722 0
M  V30 2360 N 237.974 -0.419461 -1.51915 0
M  V30 2361 C 238.884 0.407528 -2.31033 0
M  V30 2362 C 239.9 1.04413 -1.3919 0
M  V30 2363 O 241.076 1.0434 -1.72265 0
M  V30 2364 C 238.141 1.50365 -3.12396 0
M  V30 2365 C 237.202 0.889029 -4.19994 0
M  V30 2366 C 236.435 1.93291 -4.97468 0
M  V30 2367 O 236.658 3.15259 -4.75361 0
M  V30 2368 O 235.592 1.53339 -5.8204 0
M  V30 2369 H 239.418 -0.237865 -3.02767 0
M  V30 2370 H 237.003 -0.182413 -1.48282 0
M  V30 2371 H 238.885 2.13975 -3.63032 0
M  V30 2372 H 237.56 2.13345 -2.43445 0
M  V30 2373 H 236.467 0.215353 -3.7348 0
M  V30 2374 H 237.8 0.302991 -4.91267 0
M  V30 2375 N 239.452 1.56882 -0.150215 0
M  V30 2376 C 240.415 2.1573 0.774157 0
M  V30 2377 C 241.415 1.0999 1.17298 0
M  V30 2378 O 242.605 1.35613 1.09338 0
M  V30 2379 C 239.737 2.72302 2.05096 0
M  V30 2380 H 240.93 2.98752 0.262201 0
M  V30 2381 H 238.483 1.55985 0.099248 0
M  V30 2382 H 239.218 1.92956 2.6065 0
M  V30 2383 H 239.003 3.49665 1.77416 0
M  V30 2384 H 240.493 3.17632 2.71109 0
M  V30 2385 N 240.93 -0.123565 1.57115 0
M  V30 2386 C 242.178 -0.83051 1.84247 0
M  V30 2387 C 242.499 -1.80629 0.73471 0
M  V30 2388 O 241.769 -1.94403 -0.241688 0
M  V30 2389 H 240.349 -0.309694 0.679778 0
M  V30 2390 H 243.011 -0.111976 1.94578 0
M  V30 2391 H 242.107 -1.37852 2.80006 0
M  V30 2392 N 242.408 -1.52605 -0.393616 0
M  V30 2393 C 243.656 -1.67093 -1.13685 0
M  V30 2394 C 243.977 -0.411011 -1.90619 0
M  V30 2395 O 243.247 0.574491 -1.87287 0
M  V30 2396 H 241.827 -0.615923 -0.422668 0
M  V30 2397 H 244.489 -1.89704 -0.447039 0
M  V30 2398 H 243.585 -2.51922 -1.84232 0
M  V30 2399 N 243.887 0.651787 -1.4349 0
M  V30 2400 C 245.115 1.43937 -1.48626 0
M  V30 2401 C 245.53 1.8851 -0.104587 0
M  V30 2402 O 244.887 1.5958 0.885464 0
M  V30 2403 C 244.938 2.6734 -2.43334 0
M  V30 2404 O 244.659 2.24631 -3.76128 0
M  V30 2405 C 246.16 3.60683 -2.57726 0
M  V30 2406 H 243.38 0.44213 -0.504739 0
M  V30 2407 H 245.924 0.798944 -1.88248 0
M  V30 2408 H 244.079 3.2752 -2.06904 0
M  V30 2409 H 244.493 3.04485 -4.2707 0
M  V30 2410 H 245.967 4.43933 -3.28067 0
M  V30 2411 H 246.444 4.08126 -1.62265 0
M  V30 2412 H 247.05 3.06384 -2.94973 0
M  V30 2413 N 245.365 1.30045 0.890287 0
M  V30 2414 C 246.593 1.21472 1.67487 0
M  V30 2415 C 247.008 -0.223241 1.87476 0
M  V30 2416 O 246.365 -1.14828 1.41847 0
M  V30 2417 C 246.416 1.93394 3.05419 0
M  V30 2418 O 246.137 3.31576 2.86337 0
M  V30 2419 C 247.638 1.91414 3.99844 0
M  V30 2420 H 244.858 0.420604 0.522813 0
M  V30 2421 H 247.402 1.7158 1.11268 0
M  V30 2422 H 245.557 1.47099 3.58386 0
M  V30 2423 H 245.971 3.67929 3.73802 0
M  V30 2424 H 247.445 2.46285 4.94012 0
M  V30 2425 H 247.922 0.891833 4.3005 0
M  V30 2426 H 248.528 2.37496 3.52811 0
M  V30 2427 N 246.843 -1.10192 1.12674 0
M  V30 2428 C 248.071 -1.85983 0.906527 0
M  V30 2429 C 248.486 -1.80783 -0.544333 0
M  V30 2430 O 247.843 -1.19834 -1.37645 0
M  V30 2431 C 247.894 -3.34281 1.37618 0
M  V30 2432 O 247.615 -3.39401 2.77017 0
M  V30 2433 C 249.116 -4.26938 1.19325 0
M  V30 2434 H 246.336 -0.587716 0.323775 0
M  V30 2435 H 248.88 -1.39284 1.49734 0
M  V30 2436 H 247.035 -3.78436 0.828539 0
M  V30 2437 H 247.449 -4.31838 2.97684 0
M  V30 2438 H 248.923 -5.29181 1.57071 0
M  V30 2439 H 249.4 -4.38995 0.134097 0
M  V30 2440 H 250.006 -3.8859 1.72852 0
M  V30 2441 N 248.321 -0.919034 -1.28029 0
M  V30 2442 C 249.546 -0.570357 -1.99403 0
M  V30 2443 C 249.971 0.842486 -1.68178 0
M  V30 2444 O 249.329 1.56391 -0.917141 0
M  V30 2445 C 249.377 -0.792541 -3.51783 0
M  V30 2446 O 248.481 0.145988 -4.12142 0
M  V30 2447 H 247.822 -0.220555 -0.6263 0
M  V30 2448 H 250.352 -1.23592 -1.63053 0
M  V30 2449 H 250.362 -0.704708 -4.01868 0
M  V30 2450 H 249.037 -1.82247 -3.73844 0
M  V30 2451 H 247.614 0.00897528 -3.72899 0
M  V30 2452 N 249.799 1.42003 -0.683588 0
M  V30 2453 C 250.747 2.326 0.000815408 0
M  V30 2454 C 251.741 1.50308 0.781278 0
M  V30 2455 O 252.947 1.66322 0.688251 0
M  V30 2456 H 249.322 0.751758 0.0190616 0
M  V30 2457 H 251.293 2.88011 -0.780528 0
M  V30 2458 C 250.042 3.34978 0.93195 0
M  V30 2459 H 249.365 3.98345 0.340817 0
M  V30 2460 H 250.805 4.00936 1.37936 0
M  V30 2461 C 249.264 2.67925 2.04249 0
M  V30 2462 O 249.794 2.51788 3.12995 0
M  V30 2463 N 248 2.2681 1.81675 0
M  V30 2464 H 247.547 2.40135 0.932363 0
M  V30 2465 H 247.505 1.8228 2.56167 0
M  V30 2466 N 251.277 0.427512 1.51691 0
M  V30 2467 C 252.225 -0.403359 2.29076 0
M  V30 2468 C 253.219 -1.02962 1.34518 0
M  V30 2469 O 254.425 -0.965715 1.51901 0
M  V30 2470 H 250.8 -0.148879 0.737115 0
M  V30 2471 H 252.771 0.270295 2.97173 0
M  V30 2472 C 251.52 -1.49763 3.13794 0
M  V30 2473 H 250.843 -1.02508 3.86435 0
M  V30 2474 H 252.283 -2.05244 3.71014 0
M  V30 2475 C 250.742 -2.47536 2.28533 0
M  V30 2476 O 251.272 -3.51848 1.93819 0
M  V30 2477 N 249.478 -2.18187 1.91945 0
M  V30 2478 H 249.025 -1.33389 2.20375 0
M  V30 2479 H 248.983 -2.83848 1.35195 0
M  V30 2480 N 252.755 -1.56801 0.158532 0
M  V30 2481 C 254.166 -1.83189 -0.360366 0
M  V30 2482 C 254.517 -1.07778 -1.63946 0
M  V30 2483 O 253.642 -0.326718 -2.13919 0
M  V30 2484 C 254.237 -3.32297 -0.660595 0
M  V30 2485 C 252.796 -3.59227 -1.12398 0
M  V30 2486 C 251.943 -2.76877 -0.153097 0
M  V30 2487 H 254.894 -1.54008 0.383031 0
M  V30 2488 H 254.915 -3.4908 -1.51405 0
M  V30 2489 H 254.427 -3.87156 0.270527 0
M  V30 2490 H 252.528 -3.09766 -2.07064 0
M  V30 2491 H 252.641 -4.67632 -1.04197 0
M  V30 2492 H 251.005 -2.46319 -0.647983 0
M  V30 2493 H 251.788 -3.34511 0.77182 0
M  V30 2494 N 254.233 0.115231 -1.57178 0
M  V30 2495 C 255.143 1.15994 -2.03918 0
M  V30 2496 C 256.159 1.45103 -0.960268 0
M  V30 2497 O 257.335 1.56144 -1.27204 0
M  V30 2498 C 254.4 2.46568 -2.43732 0
M  V30 2499 C 253.461 2.24822 -3.65723 0
M  V30 2500 C 252.694 3.4917 -4.03629 0
M  V30 2501 O 252.917 4.56623 -3.41835 0
M  V30 2502 O 251.851 3.39949 -4.96708 0
M  V30 2503 H 255.677 0.793019 -2.93164 0
M  V30 2504 H 253.262 0.3263 -1.45793 0
M  V30 2505 H 255.144 3.23492 -2.70057 0
M  V30 2506 H 253.819 2.82726 -1.57631 0
M  V30 2507 H 252.726 1.45744 -3.44542 0
M  V30 2508 H 254.059 1.93566 -4.52541 0
M  V30 2509 N 255.711 1.52812 0.385517 0
M  V30 2510 C 256.621 1.80766 1.49535 0
M  V30 2511 C 257.637 0.694651 1.59532 0
M  V30 2512 O 258.813 0.982611 1.75803 0
M  V30 2513 C 255.878 1.97381 2.85029 0
M  V30 2514 C 254.939 3.21295 2.84724 0
M  V30 2515 C 254.172 3.37108 4.13756 0
M  V30 2516 O 254.395 2.5765 5.08893 0
M  V30 2517 O 253.329 4.30378 4.20783 0
M  V30 2518 H 257.155 2.75015 1.28842 0
M  V30 2519 H 254.74 1.37946 0.573697 0
M  V30 2520 H 256.622 2.09996 3.65349 0
M  V30 2521 H 255.297 1.06322 3.05741 0
M  V30 2522 H 254.204 3.1412 2.03174 0
M  V30 2523 H 255.537 4.12212 2.68965 0
M  V30 2524 N 257.189 -0.644168 1.43834 0
M  V30 2525 C 258.152 -1.73857 1.49353 0
M  V30 2526 C 259.152 -1.56315 0.377112 0
M  V30 2527 O 260.342 -1.62048 0.639226 0
M  V30 2528 C 257.474 -3.12819 1.35488 0
M  V30 2529 H 258.667 -1.70342 2.46827 0
M  V30 2530 H 256.22 -0.856652 1.30733 0
M  V30 2531 H 256.955 -3.2194 0.390569 0
M  V30 2532 H 256.74 -3.26958 2.16428 0
M  V30 2533 H 258.23 -3.92606 1.42302 0
M  V30 2534 N 258.668 -1.30515 -0.883378 0
M  V30 2535 C 259.896 -1.22359 -1.66841 0
M  V30 2536 C 260.311 0.213296 -1.87591 0
M  V30 2537 O 259.668 1.14075 -1.42454 0
M  V30 2538 C 259.719 -1.95011 -3.04389 0
M  V30 2539 O 259.44 -3.3309 -2.84575 0
M  V30 2540 C 260.941 -1.93532 -3.98824 0
M  V30 2541 H 258.161 -0.423371 -0.520575 0
M  V30 2542 H 260.705 -1.72167 -1.10357 0
M  V30 2543 H 258.86 -1.48997 -3.57601 0
M  V30 2544 H 259.274 -3.69907 -3.71846 0
M  V30 2545 H 260.748 -2.48902 -4.92699 0
M  V30 2546 H 261.225 -0.914627 -4.29571 0
M  V30 2547 H 261.831 -2.39364 -3.51547 0
M  V30 2548 N 260.146 1.09593 -1.13257 0
M  V30 2549 C 261.076 2.18214 -0.830946 0
M  V30 2550 C 262.057 1.68812 0.208966 0
M  V30 2551 O 263.242 1.9408 0.0682666 0
M  V30 2552 C 260.372 3.46051 -0.294296 0
M  V30 2553 C 259.326 4.08778 -1.26826 0
M  V30 2554 C 258.652 5.31419 -0.591449 0
M  V30 2555 C 259.952 4.51476 -2.62615 0
M  V30 2556 H 261.646 2.43703 -1.73923 0
M  V30 2557 H 259.192 1.17128 -0.837675 0
M  V30 2558 H 261.145 4.2134 -0.0709606 0
M  V30 2559 H 259.869 3.20079 0.649366 0
M  V30 2560 H 258.528 3.35505 -1.47756 0
M  V30 2561 H 258.176 5.01727 0.357633 0
M  V30 2562 H 257.876 5.74341 -1.24123 0
M  V30 2563 H 259.4 6.09433 -0.377355 0
M  V30 2564 H 260.814 5.17999 -2.45663 0
M  V30 2565 H 259.211 5.05277 -3.23752 0
M  V30 2566 H 260.281 3.63962 -3.20406 0
M  V30 2567 N 261.624 0.925811 1.2754 0
M  V30 2568 C 262.556 0.380753 2.26015 0
M  V30 2569 C 263.569 -0.487485 1.5533 0
M  V30 2570 O 264.758 -0.300413 1.75954 0
M  V30 2571 C 261.858 -0.473259 3.35579 0
M  V30 2572 C 261.031 0.375249 4.35787 0
M  V30 2573 C 260.09 -0.415809 5.24555 0
M  V30 2574 O 259.116 0.175834 5.68928 0
M  V30 2575 N 260.318 -1.71607 5.54555 0
M  V30 2576 H 263.083 1.22725 2.73421 0
M  V30 2577 H 260.644 0.793037 1.41147 0
M  V30 2578 H 262.636 -1.00949 3.91907 0
M  V30 2579 H 261.206 -1.2205 2.87789 0
M  V30 2580 H 260.426 1.09279 3.7875 0
M  V30 2581 H 261.714 0.955399 4.99749 0
M  V30 2582 H 261.112 -2.2191 5.20358 0
M  V30 2583 H 259.669 -2.19887 6.1359 0
M  V30 2584 N 263.102 -1.41638 0.69111 0
M  V30 2585 C 264.05 -2.32597 0.0115199 0
M  V30 2586 C 265.044 -1.5072 -0.773296 0
M  V30 2587 O 266.25 -1.66685 -0.67942 0
M  V30 2588 H 262.625 -0.751849 -0.0150746 0
M  V30 2589 H 264.596 -2.87593 0.795791 0
M  V30 2590 C 263.345 -3.35467 -0.914172 0
M  V30 2591 H 262.668 -3.9852 -0.319687 0
M  V30 2592 H 264.108 -4.01662 -1.35808 0
M  V30 2593 C 262.567 -2.69004 -2.02826 0
M  V30 2594 O 263.097 -2.53444 -3.11655 0
M  V30 2595 N 261.303 -2.2777 -1.80469 0
M  V30 2596 H 260.85 -2.40626 -0.919615 0
M  V30 2597 H 260.808 -1.83635 -2.55197 0
M  V30 2598 N 264.58 -0.43555 -1.51462 0
M  V30 2599 C 265.51 0.367376 -2.30592 0
M  V30 2600 C 266.491 1.02263 -1.35928 0
M  V30 2601 O 267.676 1.02661 -1.64847 0
M  V30 2602 C 264.806 1.46983 -3.14664 0
M  V30 2603 C 263.76 0.938161 -4.17591 0
M  V30 2604 C 263.086 2.13622 -4.90173 0
M  V30 2605 C 264.386 -0.0261621 -5.22293 0
M  V30 2606 H 266.08 -0.292969 -2.97963 0
M  V30 2607 H 263.626 -0.14234 -1.43295 0
M  V30 2608 H 265.579 2.03873 -3.688 0
M  V30 2609 H 264.303 2.15843 -2.4511 0
M  V30 2610 H 262.962 0.391481 -3.64504 0
M  V30 2611 H 262.61 2.81098 -4.17124 0
M  V30 2612 H 262.31 1.78688 -5.59772 0
M  V30 2613 H 263.834 2.7107 -5.47132 0
M  V30 2614 H 265.248 0.452384 -5.71512 0
M  V30 2615 H 263.645 -0.287992 -5.99409 0
M  V30 2616 H 264.715 -0.963391 -4.75233 0
M  V30 2617 N 266.058 1.56714 -0.166846 0
M  V30 2618 C 266.988 2.20754 0.760913 0
M  V30 2619 C 267.969 1.16178 1.24244 0
M  V30 2620 O 269.154 1.44592 1.29641 0
M  V30 2621 C 266.284 2.84478 1.99223 0
M  V30 2622 C 265.238 3.95053 1.64672 0
M  V30 2623 C 264.564 4.45805 2.95232 0
M  V30 2624 C 265.864 5.14865 0.878155 0
M  V30 2625 H 267.558 2.98537 0.22713 0
M  V30 2626 H 265.104 1.43596 0.107805 0
M  V30 2627 H 267.057 3.27951 2.64624 0
M  V30 2628 H 265.781 2.04056 2.55007 0
M  V30 2629 H 264.44 3.52228 1.01641 0
M  V30 2630 H 264.088 3.62181 3.49047 0
M  V30 2631 H 263.788 5.204 2.7287 0
M  V30 2632 H 265.312 4.91962 3.6167 0
M  V30 2633 H 266.726 5.55059 1.43466 0
M  V30 2634 H 265.123 5.95348 0.753738 0
M  V30 2635 H 266.193 4.84735 -0.126377 0
M  V30 2636 N 267.536 -0.106894 1.57237 0
M  V30 2637 C 268.499 -1.11466 2.0027 0
M  V30 2638 C 269.499 -1.33623 0.894519 0
M  V30 2639 O 270.689 -1.29935 1.16028 0
M  V30 2640 C 267.821 -2.46646 2.35327 0
M  V30 2641 H 269.014 -0.744516 2.90512 0
M  V30 2642 H 266.567 -0.351576 1.52295 0
M  V30 2643 H 267.302 -2.88558 1.48003 0
M  V30 2644 H 267.087 -2.31915 3.16161 0
M  V30 2645 H 268.577 -3.19151 2.69318 0
M  V30 2646 N 269.014 -1.53014 -0.377408 0
M  V30 2647 C 269.946 -1.74884 -1.48149 0
M  V30 2648 C 270.959 -0.629433 -1.5014 0
M  V30 2649 O 272.148 -0.905416 -1.53833 0
M  V30 2650 C 269.248 -1.80299 -2.86959 0
M  V30 2651 C 268.421 -3.09776 -3.08801 0
M  V30 2652 C 267.48 -3.06586 -4.27658 0
M  V30 2653 O 266.506 -3.80419 -4.23403 0
M  V30 2654 N 267.708 -2.26578 -5.34455 0
M  V30 2655 H 270.473 -2.70147 -1.29771 0
M  V30 2656 H 268.034 -1.51646 -0.56703 0
M  V30 2657 H 270.026 -1.75657 -3.64591 0
M  V30 2658 H 268.596 -0.92372 -2.98641 0
M  V30 2659 H 267.816 -3.27815 -2.18931 0
M  V30 2660 H 269.104 -3.95366 -3.20255 0
M  V30 2661 H 268.502 -1.66081 -5.40771 0
M  V30 2662 H 267.059 -2.27766 -6.10709 0
M  V30 2663 N 270.492 0.636531 -1.44174 0
M  V30 2664 C 271.402 1.77754 -1.53103 0
M  V30 2665 C 272.418 1.68928 -0.417034 0
M  V30 2666 O 273.594 1.89801 -0.6736 0
M  V30 2667 C 270.659 3.14115 -1.46741 0
M  V30 2668 C 269.72 3.34612 -2.68948 0
M  V30 2669 C 268.953 4.64467 -2.6288 0
M  V30 2670 O 269.176 5.44919 -1.68581 0
M  V30 2671 O 268.11 4.87049 -3.53648 0
M  V30 2672 H 271.936 1.73174 -2.49489 0
M  V30 2673 H 269.521 0.79709 -1.2636 0
M  V30 2674 H 271.403 3.95412 -1.45696 0
M  V30 2675 H 270.078 3.19249 -0.534975 0
M  V30 2676 H 268.985 2.53014 -2.75562 0
M  V30 2677 H 270.318 3.34336 -3.61221 0
M  V30 2678 N 271.97 1.30982 0.876444 0
M  V30 2679 C 273.195 1.23373 1.66715 0
M  V30 2680 C 273.62 -0.19885 1.87046 0
M  V30 2681 O 272.978 -1.1427 1.40756 0
M  V30 2682 C 273.026 1.97644 3.01611 0
M  V30 2683 O 272.13 1.30935 3.91062 0
M  V30 2684 H 271.471 0.426279 0.509099 0
M  V30 2685 H 274.001 1.72944 1.09323 0
M  V30 2686 H 274.011 2.06992 3.51594 0
M  V30 2687 H 272.686 3.01829 2.86133 0
M  V30 2688 H 271.263 1.29996 3.49507 0
M  V30 2689 N 273.449 -1.08991 1.13837 0
M  V30 2690 C 274.689 -1.82867 0.913183 0
M  V30 2691 C 275.053 -1.83936 -0.550604 0
M  V30 2692 O 276.254 -2.53515 -0.893515 0
M  V30 2693 C 274.525 -3.24843 1.49036 0
M  V30 2694 S 276.084 -4.15669 1.40588 0
M  V30 2695 H 272.902 -0.630278 0.329046 0
M  V30 2696 H 275.504 -1.31049 1.45073 0
M  V30 2697 H 274.208 -3.21644 2.54899 0
M  V30 2698 H 273.739 -3.81734 0.950947 0
M  V30 2699 H 275.754 -4.94686 0.387353 0
M  V30 2700 N 274.927 -0.932562 -1.27047 0
M  V30 2701 C 276.167 -0.582919 -1.95912 0
M  V30 2702 C 276.531 0.860629 -1.71631 0
M  V30 2703 O 277.732 1.31878 -2.34225 0
M  V30 2704 C 276.003 -0.905673 -3.45734 0
M  V30 2705 S 277.562 -0.665277 -4.33727 0
M  V30 2706 H 274.38 -0.215 -0.677714 0
M  V30 2707 H 276.982 -1.20204 -1.54179 0
M  V30 2708 H 275.686 -1.95386 -3.60905 0
M  V30 2709 H 275.217 -0.275939 -3.92431 0
M  V30 2710 H 277.232 0.474635 -4.93925 0
M  V30 2711 N 276.405 1.4127 -0.698611 0
M  V30 2712 C 277.352 2.30773 -0.0352094 0
M  V30 2713 C 278.322 1.47273 0.768111 0
M  V30 2714 O 279.507 1.76053 0.735524 0
M  V30 2715 C 276.647 3.33346 0.893 0
M  V30 2716 C 275.76 4.31924 0.0809695 0
M  V30 2717 C 274.895 5.21566 1.0071 0
M  V30 2718 C 273.934 6.11811 0.188155 0
M  V30 2719 N 273.071 6.93926 1.06825 0
M  V30 2720 H 277.911 2.86943 -0.804207 0
M  V30 2721 H 275.448 1.4132 -0.408294 0
M  V30 2722 H 277.406 3.91368 1.44523 0
M  V30 2723 H 276.036 2.78719 1.62836 0
M  V30 2724 H 275.088 3.75825 -0.588224 0
M  V30 2725 H 276.4 4.95716 -0.553801 0
M  V30 2726 H 275.554 5.84437 1.62845 0
M  V30 2727 H 274.293 4.58008 1.67572 0
M  V30 2728 H 273.298 5.47986 -0.446254 0
M  V30 2729 H 274.523 6.77425 -0.476716 0
M  V30 2730 H 272.469 6.32973 1.72283 0
M  V30 2731 H 272.386 7.54416 0.489123 0
M  V30 2732 H 273.654 7.61262 1.67632 0
M  V30 2733 N 277.883 0.443576 1.51229 0
M  V30 2734 C 279.13 -0.120796 2.02139 0
M  V30 2735 C 279.458 -1.42166 1.32736 0
M  V30 2736 O 278.713 -1.90849 0.43301 0
M  V30 2737 C 279.012 -0.380579 3.55368 0
M  V30 2738 C 278.678 0.83523 4.43097 0
M  V30 2739 C 277.34 1.16864 4.66794 0
M  V30 2740 C 279.692 1.64601 4.94526 0
M  V30 2741 C 277.02 2.31339 5.39165 0
M  V30 2742 C 279.372 2.78181 5.68153 0
M  V30 2743 C 278.036 3.11969 5.90112 0
M  V30 2744 H 277.306 -0.0442023 0.73968 0
M  V30 2745 H 279.953 0.592046 1.82118 0
M  V30 2746 H 278.258 -1.17538 3.73754 0
M  V30 2747 H 279.955 -0.830777 3.923 0
M  V30 2748 H 276.545 0.565437 4.24854 0
M  V30 2749 H 280.729 1.40163 4.76097 0
M  V30 2750 H 275.985 2.57823 5.5438 0
M  V30 2751 H 280.159 3.41371 6.06992 0
M  V30 2752 H 277.786 4.00784 6.45969 0
M  V30 2753 N 279.361 -1.56624 0.175154 0
M  V30 2754 C 280.772 -1.83561 -0.340916 0
M  V30 2755 C 281.123 -1.09511 -1.62794 0
M  V30 2756 O 280.248 -0.349389 -2.13561 0
M  V30 2757 C 280.843 -3.32979 -0.625313 0
M  V30 2758 C 279.402 -3.60399 -1.08581 0
M  V30 2759 C 278.549 -2.77024 -0.123722 0
M  V30 2760 H 281.5 -1.53593 0.399344 0
M  V30 2761 H 281.521 -3.50666 -1.47694 0
M  V30 2762 H 281.033 -3.86847 0.311575 0
M  V30 2763 H 279.134 -3.11945 -2.03767 0
M  V30 2764 H 279.247 -4.68711 -0.992317 0
M  V30 2765 H 277.611 -2.46993 -0.621821 0
M  V30 2766 H 278.394 -3.33674 0.807256 0
M  V30 2767 N 280.839 0.0985539 -1.57292 0
M  V30 2768 C 282.064 0.820196 -1.90493 0
M  V30 2769 C 282.489 1.71658 -0.769094 0
M  V30 2770 O 281.847 1.79133 0.279495 0
M  V30 2771 C 281.895 1.61242 -3.22542 0
M  V30 2772 O 280.999 2.72108 -3.09888 0
M  V30 2773 H 280.34 0.225547 -0.62452 0
M  V30 2774 H 282.87 0.0748159 -2.04463 0
M  V30 2775 H 282.88 1.99737 -3.55766 0
M  V30 2776 H 281.555 0.954535 -4.04798 0
M  V30 2777 H 280.132 2.36667 -2.88172 0
M  V30 2778 N 282.317 1.53212 0.369288 0
M  V30 2779 C 283.542 1.73423 1.1375 0
M  V30 2780 C 283.967 0.460404 1.82378 0
M  V30 2781 O 283.325 -0.585298 1.71592 0
M  V30 2782 C 283.373 2.89769 2.1463 0
M  V30 2783 O 282.477 2.58119 3.21634 0
M  V30 2784 H 281.818 0.576061 0.330227 0
M  V30 2785 H 284.348 2.00083 0.427547 0
M  V30 2786 H 284.358 3.15829 2.58294 0
M  V30 2787 H 283.033 3.8217 1.64071 0
M  V30 2788 H 281.61 2.42864 2.82969 0
M  V30 2789 N 283.795 -0.628877 1.44509 0
M  V30 2790 C 284.727 -1.754 1.47538 0
M  V30 2791 C 285.74 -1.58575 0.368506 0
M  V30 2792 O 286.929 -1.66847 0.634376 0
M  V30 2793 C 284.029 -3.1315 1.29577 0
M  V30 2794 C 283.202 -3.56413 2.53551 0
M  V30 2795 C 282.261 -4.7305 2.30457 0
M  V30 2796 O 281.287 -4.81247 3.03957 0
M  V30 2797 N 282.489 -5.64903 1.3366 0
M  V30 2798 H 285.254 -1.73272 2.44534 0
M  V30 2799 H 282.815 -0.813512 1.39977 0
M  V30 2800 H 284.807 -3.88902 1.11971 0
M  V30 2801 H 283.377 -3.09908 0.409371 0
M  V30 2802 H 282.597 -2.70847 2.86419 0
M  V30 2803 H 283.885 -3.82071 3.36005 0
M  V30 2804 H 283.283 -5.60975 0.729604 0
M  V30 2805 H 281.84 -6.40275 1.22032 0
M  V30 2806 N 285.273 -1.31445 -0.869486 0
M  V30 2807 C 286.183 -1.21097 -2.0093 0
M  V30 2808 C 287.199 -0.127584 -1.73532 0
M  V30 2809 O 288.375 -0.345477 -1.98415 0
M  V30 2810 C 285.44 -0.919378 -3.34288 0
M  V30 2811 C 284.501 -2.08971 -3.75006 0
M  V30 2812 C 283.734 -1.81194 -5.02001 0
M  V30 2813 O 283.957 -0.747296 -5.65484 0
M  V30 2814 O 282.891 -2.66883 -5.39497 0
M  V30 2815 H 286.717 -2.16883 -2.12592 0
M  V30 2816 H 284.302 -1.11189 -0.997868 0
M  V30 2817 H 286.184 -0.772625 -4.14257 0
M  V30 2818 H 284.859 0.00844772 -3.23699 0
M  V30 2819 H 283.766 -2.29187 -2.95676 0
M  V30 2820 H 285.099 -2.9998 -3.90221 0
M  V30 2821 N 286.751 1.08385 -1.14413 0
M  V30 2822 C 287.681 2.17321 -0.854044 0
M  V30 2823 C 288.662 1.69024 0.191049 0
M  V30 2824 O 289.847 1.94141 0.0476779 0
M  V30 2825 C 286.977 3.45719 -0.330983 0
M  V30 2826 C 285.931 4.07409 -1.31155 0
M  V30 2827 C 285.257 5.30762 -0.64778 0
M  V30 2828 C 286.557 4.48665 -2.67388 0
M  V30 2829 H 288.251 2.41845 -1.76498 0
M  V30 2830 H 285.797 1.16233 -0.850051 0
M  V30 2831 H 287.75 4.21241 -0.115645 0
M  V30 2832 H 286.474 3.2075 0.615381 0
M  V30 2833 H 285.133 3.33919 -1.51306 0
M  V30 2834 H 284.781 5.02078 0.304398 0
M  V30 2835 H 284.481 5.72992 -1.30207 0
M  V30 2836 H 286.005 6.08998 -0.441972 0
M  V30 2837 H 287.419 5.15364 -2.51143 0
M  V30 2838 H 285.816 5.01814 -3.29093 0
M  V30 2839 H 286.886 3.60543 -3.24248 0
M  V30 2840 N 288.23 0.939286 1.26551 0
M  V30 2841 C 289.14 0.453432 2.30176 0
M  V30 2842 C 290.156 -0.471649 1.67486 0
M  V30 2843 O 291.332 -0.35164 1.98306 0
M  V30 2844 C 288.397 -0.275326 3.45605 0
M  V30 2845 C 287.458 0.686084 4.23782 0
M  V30 2846 C 286.691 -0.00798994 5.33699 0
M  V30 2847 O 286.914 -1.22528 5.57085 0
M  V30 2848 O 285.848 0.669746 5.98162 0
M  V30 2849 H 289.674 1.31416 2.73795 0
M  V30 2850 H 287.259 0.705095 1.31715 0
M  V30 2851 H 289.141 -0.685911 4.1578 0
M  V30 2852 H 287.816 -1.11147 3.0402 0
M  V30 2853 H 286.723 1.14658 3.56096 0
M  V30 2854 H 288.056 1.48979 4.69112 0
M  V30 2855 N 289.708 -1.40897 0.706093 0
M  V30 2856 C 290.985 -1.94868 0.169099 0
M  V30 2857 C 291.365 -1.64485 -1.32318 0
M  V30 2858 O 290.713 -0.95744 -2.07474 0
M  V30 2859 C 290.923 -3.45798 0.471654 0
M  V30 2860 C 292.271 -4.22663 0.405127 0
M  V30 2861 O 293.295 -3.53865 0.407168 0
M  V30 2862 O 292.154 -5.45216 0.374383 0
M  V30 2863 H 289.248 -0.82673 0.0211352 0
M  V30 2864 H 291.794 -1.50558 0.782976 0
M  V30 2865 H 290.566 -3.61235 1.50416 0
M  V30 2866 H 290.189 -3.97225 -0.172666 0
M  V30 2867 N 291.186 -0.45159 -1.50991 0
M  V30 2868 C 292.149 0.341117 -2.26647 0
M  V30 2869 C 293.149 0.937422 -1.30649 0
M  V30 2870 O 294.339 0.809644 -1.54241 0
M  V30 2871 C 291.471 1.48398 -3.06905 0
M  V30 2872 H 292.664 -0.322117 -2.98165 0
M  V30 2873 H 290.217 -0.205122 -1.54948 0
M  V30 2874 H 290.952 2.18284 -2.39838 0
M  V30 2875 H 290.737 1.06241 -3.77432 0
M  V30 2876 H 292.227 2.04367 -3.64176 0
M  V30 2877 N 292.664 1.56529 -0.183458 0
M  V30 2878 C 293.889 2.02064 0.467428 0
M  V30 2879 C 294.314 1.06282 1.55196 0
M  V30 2880 O 293.672 0.0443565 1.81246 0
M  V30 2881 C 293.72 3.46122 1.01153 0
M  V30 2882 O 292.824 3.53437 2.12499 0
M  V30 2883 H 292.165 0.654726 0.110588 0
M  V30 2884 H 294.695 2.02521 -0.290917 0
M  V30 2885 H 294.705 3.85676 1.33108 0
M  V30 2886 H 293.38 4.15331 0.217533 0
M  V30 2887 H 291.957 3.2575 1.81497 0
M  V30 2888 N 294.142 -0.090211 1.57342 0
M  V30 2889 C 295.382 -0.798365 1.88163 0
M  V30 2890 C 295.746 -1.75662 0.775046 0
M  V30 2891 O 296.947 -2.50849 0.965816 0
M  V30 2892 C 295.218 -1.50376 3.24225 0
M  V30 2893 S 296.777 -2.24952 3.76752 0
M  V30 2894 H 293.595 -0.265883 0.659414 0
M  V30 2895 H 296.197 -0.055264 1.95422 0
M  V30 2896 H 294.901 -0.792286 4.0268 0
M  V30 2897 H 294.432 -2.28666 3.20118 0
M  V30 2898 H 296.447 -3.51173 3.5056 0
M  V30 2899 N 295.62 -1.53406 -0.361157 0
M  V30 2900 C 296.86 -1.71507 -1.11197 0
M  V30 2901 C 297.224 -0.459337 -1.86425 0
M  V30 2902 O 298.425 -0.517102 -2.63779 0
M  V30 2903 C 296.696 -2.93307 -2.0422 0
M  V30 2904 S 298.255 -3.32135 -2.86761 0
M  V30 2905 H 295.073 -0.603448 -0.375995 0
M  V30 2906 H 297.675 -1.91516 -0.392642 0
M  V30 2907 H 296.379 -3.82891 -1.47724 0
M  V30 2908 H 295.91 -2.75712 -2.80618 0
M  V30 2909 H 297.925 -2.84493 -4.06544 0
M  V30 2910 N 297.098 0.621204 -1.44841 0
M  V30 2911 C 298.323 1.41244 -1.51871 0
M  V30 2912 C 298.748 1.87519 -0.147764 0
M  V30 2913 O 298.106 1.59334 0.865 0
M  V30 2914 C 298.154 2.60221 -2.49634 0
M  V30 2915 O 297.258 3.60395 -2.00473 0
M  V30 2916 H 296.599 0.42223 -0.512463 0
M  V30 2917 H 299.129 0.757305 -1.90069 0
M  V30 2918 H 299.139 3.0764 -2.67996 0
M  V30 2919 H 297.814 2.25887 -3.4921 0
M  V30 2920 H 296.391 3.19717 -1.91925 0
M  V30 2921 N 298.576 1.31904 0.862503 0
M  V30 2922 C 299.506 1.22782 1.98612 0
M  V30 2923 C 300.487 0.113362 1.69722 0
M  V30 2924 O 301.672 0.299218 1.91881 0
M  V30 2925 C 298.802 0.942058 3.34279 0
M  V30 2926 C 297.756 2.0169 3.77499 0
M  V30 2927 C 297.082 1.58369 5.10709 0
M  V30 2928 C 298.382 3.43096 3.93805 0
M  V30 2929 H 300.076 2.16788 2.06502 0
M  V30 2930 H 297.622 1.04366 0.992154 0
M  V30 2931 H 299.575 0.864818 4.1243 0
M  V30 2932 H 298.299 -0.0336603 3.26583 0
M  V30 2933 H 296.958 2.08416 3.01593 0
M  V30 2934 H 296.606 0.595628 4.99461 0
M  V30 2935 H 296.306 2.30279 5.40597 0
M  V30 2936 H 297.83 1.52067 5.91361 0
M  V30 2937 H 299.244 3.39003 4.62331 0
M  V30 2938 H 297.641 4.13288 4.35101 0
M  V30 2939 H 298.711 3.83334 2.96957 0
M  V30 2940 N 300.054 -1.07777 1.14986 0
M  V30 2941 C 301.001 -2.14867 0.842672 0
M  V30 2942 C 301.971 -1.6486 -0.202552 0
M  V30 2943 O 303.156 -1.90668 -0.0710568 0
M  V30 2944 C 300.296 -3.43486 0.333363 0
M  V30 2945 C 299.409 -4.07306 1.43965 0
M  V30 2946 C 298.544 -5.23744 0.886914 0
M  V30 2947 C 297.583 -5.79517 1.97043 0
M  V30 2948 N 296.72 -6.87291 1.4344 0
M  V30 2949 H 301.56 -2.40485 1.75986 0
M  V30 2950 H 299.097 -1.1801 0.878179 0
M  V30 2951 H 301.055 -4.17195 0.0198163 0
M  V30 2952 H 299.685 -3.18133 -0.546916 0
M  V30 2953 H 298.737 -3.31293 1.86946 0
M  V30 2954 H 300.049 -4.44771 2.25788 0
M  V30 2955 H 299.203 -6.04419 0.525651 0
M  V30 2956 H 297.942 -4.87685 0.0377957 0
M  V30 2957 H 296.947 -4.97491 2.34057 0
M  V30 2958 H 298.172 -6.17632 2.82325 0
M  V30 2959 H 296.118 -6.5318 0.607567 0
M  V30 2960 H 296.035 -7.23617 2.18895 0
M  V30 2961 H 297.303 -7.71682 1.10124 0
M  V30 2962 N 301.532 -0.945985 -1.26051 0
M  V30 2963 C 302.479 -0.45809 -2.26208 0
M  V30 2964 C 303.449 0.484816 -1.58867 0
M  V30 2965 O 304.634 0.399969 -1.86561 0
M  V30 2966 C 301.774 0.266131 -3.44072 0
M  V30 2967 C 300.887 -0.713005 -4.26075 0
M  V30 2968 C 300.022 0.0329013 -5.3119 0
M  V30 2969 C 299.061 -0.93774 -6.04874 0
M  V30 2970 N 298.198 -0.223274 -7.01745 0
M  V30 2971 H 303.038 -1.3171 -2.67313 0
M  V30 2972 H 300.575 -0.66069 -1.31428 0
M  V30 2973 H 302.533 0.702514 -4.11243 0
M  V30 2974 H 301.163 1.08925 -3.03867 0
M  V30 2975 H 300.215 -1.26789 -3.58648 0
M  V30 2976 H 301.527 -1.45406 -4.77136 0
M  V30 2977 H 300.681 0.528335 -6.04395 0
M  V30 2978 H 299.42 0.806801 -4.8098 0
M  V30 2979 H 298.425 -1.44425 -5.30492 0
M  V30 2980 H 299.65 -1.71172 -6.57173 0
M  V30 2981 H 297.596 0.532046 -6.53839 0
M  V30 2982 H 297.513 -0.90357 -7.50581 0
M  V30 2983 H 298.781 0.250907 -7.79096 0
M  V30 2984 N 303.011 1.40521 -0.713556 0
M  V30 2985 C 304.288 1.94775 -0.17943 0
M  V30 2986 C 304.668 1.65184 1.31444 0
M  V30 2987 O 304.016 0.968429 2.06963 0
M  V30 2988 C 304.226 3.45543 -0.489986 0
M  V30 2989 C 305.574 4.22442 -0.427536 0
M  V30 2990 O 306.598 3.53644 -0.425929 0
M  V30 2991 O 305.457 5.4501 -0.403292 0
M  V30 2992 H 302.551 0.826606 -0.0255192 0
M  V30 2993 H 305.097 1.5014 -0.790949 0
M  V30 2994 H 303.869 3.60432 -1.5233 0
M  V30 2995 H 303.492 3.97311 0.151598 0
M  V30 2996 N 304.489 0.459591 1.5075 0
M  V30 2997 C 305.714 -0.0996819 2.0716 0
M  V30 2998 C 306.139 -1.33761 1.32249 0
M  V30 2999 O 305.497 -1.77551 0.366786 0
M  V30 3000 C 305.545 -0.378226 3.58611 0
M  V30 3001 O 304.649 -1.46081 3.85661 0
M  V30 3002 H 303.99 0.00791392 0.663953 0
M  V30 3003 H 306.52 0.647329 1.9409 0
M  V30 3004 H 306.53 -0.622135 4.03229 0
M  V30 3005 H 305.205 0.526439 4.12555 0
M  V30 3006 H 303.782 -1.20511 3.5289 0
M  V30 3007 N 305.967 -1.56429 0.191757 0
M  V30 3008 C 306.915 -2.20273 -0.747174 0
M  V30 3009 C 307.909 -1.17288 -1.22229 0
M  V30 3010 O 309.115 -1.35441 -1.18557 0
M  V30 3011 H 305.49 -0.705885 -0.259289 0
M  V30 3012 H 307.461 -2.97826 -0.184963 0
M  V30 3013 C 306.21 -2.87356 -1.95759 0
M  V30 3014 H 305.533 -3.66341 -1.60106 0
M  V30 3015 H 306.973 -3.3547 -2.59299 0
M  V30 3016 C 305.432 -1.88213 -2.79423 0
M  V30 3017 O 305.962 -1.38033 -3.7724 0
M  V30 3018 N 304.168 -1.56516 -2.44849 0
M  V30 3019 H 303.715 -1.97516 -1.65364 0
M  V30 3020 H 303.673 -0.904369 -3.01112 0
M  V30 3021 N 307.445 0.0818655 -1.57387 0
M  V30 3022 C 308.856 0.634871 -1.75574 0
M  V30 3023 C 309.207 1.78435 -0.815809 0
M  V30 3024 O 308.332 2.164 0.0025366 0
M  V30 3025 C 308.927 1.15845 -3.18379 0
M  V30 3026 C 307.486 1.65741 -3.37945 0
M  V30 3027 C 306.633 0.572549 -2.71325 0
M  V30 3028 H 309.584 -0.144268 -1.58043 0
M  V30 3029 H 309.605 2.02751 -3.21982 0
M  V30 3030 H 309.117 0.321631 -3.86765 0
M  V30 3031 H 307.218 2.51781 -2.74658 0
M  V30 3032 H 307.331 1.74129 -4.46336 0
M  V30 3033 H 305.695 1.01518 -2.33594 0
M  V30 3034 H 306.478 -0.253918 -3.4236 0
M  V30 3035 N 308.923 1.53595 0.353017 0
M  V30 3036 C 309.856 1.7572 1.45594 0
M  V30 3037 C 310.834 0.605961 1.50887 0
M  V30 3038 O 312.018 0.840023 1.68748 0
M  V30 3039 C 309.145 1.84732 2.83887 0
M  V30 3040 C 308.191 3.06808 2.96262 0
M  V30 3041 S 309.024 4.66065 2.63711 0
M  V30 3042 C 310.18 4.77943 4.04131 0
M  V30 3043 H 310.413 2.68994 1.26608 0
M  V30 3044 H 307.946 1.44343 0.548117 0
M  V30 3045 H 309.904 1.9061 3.63563 0
M  V30 3046 H 308.565 0.92488 3.00175 0
M  V30 3047 H 307.758 3.09761 3.97573 0
M  V30 3048 H 307.36 2.99108 2.24523 0
M  V30 3049 H 309.652 4.5877 4.98534 0
M  V30 3050 H 310.595 5.80022 4.06177 0
M  V30 3051 H 311.003 4.06472 3.91715 0
M  V30 3052 N 310.401 -0.613514 1.45168 0
M  V30 3053 C 311.647 -1.37471 1.49096 0
M  V30 3054 C 311.98 -1.93765 0.129901 0
M  V30 3055 O 311.255 -1.74707 -0.854858 0
M  V30 3056 C 311.538 -2.52701 2.56542 0
M  V30 3057 C 311.391 -2.01643 4.0207 0
M  V30 3058 C 312.71 -3.54849 2.60327 0
M  V30 3059 H 309.829 -0.498502 0.54283 0
M  V30 3060 H 312.471 -0.692125 1.76945 0
M  V30 3061 H 310.621 -3.10931 2.32926 0
M  V30 3062 H 312.293 -1.48108 4.36877 0
M  V30 3063 H 310.536 -1.32688 4.13009 0
M  V30 3064 H 311.207 -2.84681 4.72928 0
M  V30 3065 H 313.683 -3.0645 2.81474 0
M  V30 3066 H 312.559 -4.32973 3.37381 0
M  V30 3067 H 312.82 -4.10079 1.6519 0
M  V30 3068 N 311.879 -1.3236 -0.855495 0
M  V30 3069 C 313.128 -1.22226 -1.60448 0
M  V30 3070 C 313.441 0.214733 -1.94418 0
M  V30 3071 O 314.647 0.437917 -2.67945 0
M  V30 3072 C 313.103 -2.14063 -2.89318 0
M  V30 3073 C 312.711 -3.62839 -2.62777 0
M  V30 3074 C 314.455 -2.12764 -3.67331 0
M  V30 3075 C 312.362 -4.4664 -3.87643 0
M  V30 3076 H 311.292 -0.453904 -0.602069 0
M  V30 3077 H 313.943 -1.57314 -0.944698 0
M  V30 3078 H 312.325 -1.71889 -3.5675 0
M  V30 3079 H 313.499 -4.1335 -2.03662 0
M  V30 3080 H 311.814 -3.66261 -1.98096 0
M  V30 3081 H 314.411 -2.72611 -4.59987 0
M  V30 3082 H 314.754 -1.11841 -4.00995 0
M  V30 3083 H 315.287 -2.53214 -3.06802 0
M  V30 3084 H 312.026 -5.48373 -3.5912 0
M  V30 3085 H 311.546 -4.0088 -4.46156 0
M  V30 3086 H 313.225 -4.59597 -4.55389 0
M  V30 3087 N 313.357 1.07166 -1.15556 0
M  V30 3088 C 314.597 1.81391 -0.94216 0
M  V30 3089 C 314.961 1.84788 0.521272 0
M  V30 3090 O 316.162 2.54904 0.85307 0
M  V30 3091 C 314.433 3.22431 -1.54185 0
M  V30 3092 S 315.992 4.13379 -1.47183 0
M  V30 3093 H 312.81 0.624963 -0.339031 0
M  V30 3094 H 315.412 1.28725 -1.4714 0
M  V30 3095 H 314.116 3.17548 -2.59984 0
M  V30 3096 H 313.647 3.80172 -1.01156 0
M  V30 3097 H 315.662 4.94007 -0.466004 0
M  V30 3098 N 314.835 0.952656 1.25548 0
M  V30 3099 C 315.767 0.428609 2.25157 0
M  V30 3100 C 316.78 -0.454428 1.56329 0
M  V30 3101 O 317.969 -0.263023 1.76552 0
M  V30 3102 C 315.069 -0.401972 3.36508 0
M  V30 3103 C 314.242 0.467601 4.34893 0
M  V30 3104 C 313.301 -0.30445 5.25319 0
M  V30 3105 O 312.327 0.296473 5.68427 0
M  V30 3106 N 313.529 -1.59805 5.5807 0
M  V30 3107 H 316.294 1.28497 2.70756 0
M  V30 3108 H 313.855 0.822798 1.39433 0
M  V30 3109 H 315.847 -0.926134 3.9396 0
M  V30 3110 H 314.417 -1.15918 2.90313 0
M  V30 3111 H 313.637 1.17288 3.76347 0
M  V30 3112 H 314.925 1.06119 4.97611 0
M  V30 3113 H 314.323 -2.10823 5.24948 0
M  V30 3114 H 312.88 -2.06822 6.18116 0
M  V30 3115 N 316.313 -1.40141 0.720998 0
M  V30 3116 C 317.243 -2.33339 0.0867621 0
M  V30 3117 C 318.224 -1.53178 -0.739622 0
M  V30 3118 O 319.409 -1.81625 -0.687449 0
M  V30 3119 C 316.539 -3.37194 -0.831728 0
M  V30 3120 C 315.493 -4.27857 -0.110558 0
M  V30 3121 C 314.819 -5.22294 -1.14513 0
M  V30 3122 C 316.119 -5.11872 1.0385 0
M  V30 3123 H 317.813 -2.86626 0.865219 0
M  V30 3124 H 315.359 -1.37814 0.417516 0
M  V30 3125 H 317.312 -4.01335 -1.28485 0
M  V30 3126 H 316.036 -2.82314 -1.64214 0
M  V30 3127 H 314.695 -3.65176 0.322797 0
M  V30 3128 H 314.343 -4.63717 -1.94874 0
M  V30 3129 H 314.043 -5.83797 -0.667446 0
M  V30 3130 H 315.567 -5.89312 -1.59824 0
M  V30 3131 H 316.981 -5.69436 0.664482 0
M  V30 3132 H 315.378 -5.82445 1.4449 0
M  V30 3133 H 316.448 -4.4753 1.86668 0
M  V30 3134 N 317.792 -0.46758 -1.50504 0
M  V30 3135 C 318.739 0.328413 -2.28452 0
M  V30 3136 C 319.709 0.990313 -1.33349 0
M  V30 3137 O 320.894 1.00343 -1.62284 0
M  V30 3138 C 318.034 1.40648 -3.15138 0
M  V30 3139 C 317.147 0.759709 -4.25267 0
M  V30 3140 C 316.282 1.81537 -4.99217 0
M  V30 3141 C 315.321 1.14866 -6.01226 0
M  V30 3142 N 314.458 2.14702 -6.68467 0
M  V30 3143 H 319.298 -0.342603 -2.96024 0
M  V30 3144 H 316.835 -0.180801 -1.45985 0
M  V30 3145 H 318.793 2.04315 -3.63746 0
M  V30 3146 H 317.423 2.04671 -2.49619 0
M  V30 3147 H 316.475 0.0105671 -3.80399 0
M  V30 3148 H 317.787 0.233243 -4.98254 0
M  V30 3149 H 316.941 2.52793 -5.51526 0
M  V30 3150 H 315.68 2.37564 -4.25928 0
M  V30 3151 H 314.685 0.42171 -5.4818 0
M  V30 3152 H 315.91 0.595334 -6.76485 0
M  V30 3153 H 313.856 2.69752 -5.97972 0
M  V30 3154 H 313.773 1.6703 -7.37317 0
M  V30 3155 H 315.041 2.85348 -7.25394 0
M  V30 3156 N 319.27 1.56325 -0.20005 0
M  V30 3157 C 320.518 1.97329 0.436547 0
M  V30 3158 C 320.839 1.08826 1.61808 0
M  V30 3159 O 320.109 0.160604 1.95241 0
M  V30 3160 H 318.689 0.728714 0.164272 0
M  V30 3161 H 321.351 1.92761 -0.287937 0
M  V30 3162 H 320.447 3.02264 0.777353 0
M  V30 3163 N 320.748 -0.0735177 1.57428 0
M  V30 3164 C 321.996 -0.771472 1.86796 0
M  V30 3165 C 322.317 -1.78201 0.791804 0
M  V30 3166 O 321.587 -1.95074 -0.179718 0
M  V30 3167 H 320.167 -0.28791 0.689287 0
M  V30 3168 H 322.829 -0.0500161 1.94836 0
M  V30 3169 H 321.925 -1.28874 2.8425 0
M  V30 3170 N 322.226 -1.5378 -0.344866 0
M  V30 3171 C 323.454 -1.74899 -1.10534 0
M  V30 3172 C 323.869 -0.487534 -1.82397 0
M  V30 3173 O 323.226 0.540741 -1.74305 0
M  V30 3174 C 323.277 -2.92822 -2.11984 0
M  V30 3175 O 322.998 -4.14089 -1.43044 0
M  V30 3176 C 324.499 -3.25982 -3.00417 0
M  V30 3177 H 321.719 -0.584426 -0.329678 0
M  V30 3178 H 324.263 -2.006 -0.397474 0
M  V30 3179 H 322.418 -2.69457 -2.78338 0
M  V30 3180 H 322.832 -4.80272 -2.10805 0
M  V30 3181 H 324.306 -4.11848 -3.67539 0
M  V30 3182 H 324.783 -2.42228 -3.66363 0
M  V30 3183 H 325.389 -3.51349 -2.39654 0
M  V30 3184 N 323.704 0.605807 -1.45491 0
M  V30 3185 C 324.636 1.73031 -1.5031 0
M  V30 3186 C 325.649 1.57968 -0.393687 0
M  V30 3187 O 326.838 1.65817 -0.660839 0
M  V30 3188 C 323.938 3.11049 -1.34543 0
M  V30 3189 C 323.111 3.52334 -2.59189 0
M  V30 3190 C 322.17 4.69323 -2.37954 0
M  V30 3191 O 321.196 4.7635 -3.11575 0
M  V30 3192 N 322.398 5.62705 -1.4263 0
M  V30 3193 H 325.163 1.6936 -2.4726 0
M  V30 3194 H 322.724 0.79114 -1.41254 0
M  V30 3195 H 324.716 3.87071 -1.18144 0
M  V30 3196 H 323.286 3.09217 -0.458623 0
M  V30 3197 H 322.506 2.66256 -2.90691 0
M  V30 3198 H 323.794 3.76677 -3.42041 0
M  V30 3199 H 323.192 5.59744 -0.818758 0
M  V30 3200 H 321.749 6.38252 -1.32202 0
M  V30 3201 N 325.182 1.32811 0.848464 0
M  V30 3202 C 326.115 1.16601 1.96162 0
M  V30 3203 C 327.093 0.0638855 1.62474 0
M  V30 3204 O 328.277 0.224348 1.8716 0
M  V30 3205 C 325.404 0.786333 3.29446 0
M  V30 3206 C 324.45 1.89459 3.8211 0
M  V30 3207 S 325.283 3.50395 4.04949 0
M  V30 3208 C 326.439 3.14413 5.41198 0
M  V30 3209 H 326.672 2.10832 2.09612 0
M  V30 3210 H 324.205 1.17543 1.00115 0
M  V30 3211 H 326.163 0.574044 4.06466 0
M  V30 3212 H 324.824 -0.137218 3.138 0
M  V30 3213 H 324.017 1.58207 4.78526 0
M  V30 3214 H 323.619 2.06304 3.11953 0
M  V30 3215 H 325.911 2.64642 6.23675 0
M  V30 3216 H 326.854 4.09874 5.77416 0
M  V30 3217 H 327.262 2.51266 5.05495 0
M  V30 3218 N 326.66 -1.06551 1.16123 0
M  V30 3219 C 327.59 -2.15935 0.88851 0
M  V30 3220 C 328.571 -1.69306 -0.164135 0
M  V30 3221 O 329.756 -1.94193 -0.0167857 0
M  V30 3222 C 326.886 -3.45149 0.385942 0
M  V30 3223 C 325.84 -4.05271 1.3762 0
M  V30 3224 C 325.166 -5.29664 0.732137 0
M  V30 3225 C 326.466 -4.44355 2.74493 0
M  V30 3226 H 328.16 -2.39006 1.80323 0
M  V30 3227 H 325.706 -1.14866 0.868435 0
M  V30 3228 H 327.659 -4.21004 0.182647 0
M  V30 3229 H 326.383 -3.21689 -0.564274 0
M  V30 3230 H 325.042 -3.3147 1.56599 0
M  V30 3231 H 324.69 -5.02499 -0.224483 0
M  V30 3232 H 324.39 -5.70848 1.39307 0
M  V30 3233 H 325.914 -6.08218 0.538802 0
M  V30 3234 H 327.328 -5.11303 2.59311 0
M  V30 3235 H 325.725 -4.96515 3.37035 0
M  V30 3236 H 326.795 -3.55339 3.29943 0
M  V30 3237 N 328.138 -0.959301 -1.25041 0
M  V30 3238 C 329.378 -0.624343 -1.94631 0
M  V30 3239 C 329.742 0.82403 -1.73418 0
M  V30 3240 O 330.943 1.26881 -2.3697 0
M  V30 3241 C 329.214 -0.978805 -3.43736 0
M  V30 3242 S 330.773 -0.757127 -4.32219 0
M  V30 3243 H 327.591 -0.229327 -0.673001 0
M  V30 3244 H 330.193 -1.23447 -1.51595 0
M  V30 3245 H 328.897 -2.02997 -3.56679 0
M  V30 3246 H 328.428 -0.359117 -3.91757 0
M  V30 3247 H 330.443 0.369759 -4.9482 0
M  V30 3248 N 329.616 1.39756 -0.72842 0
M  V30 3249 C 330.865 1.99879 -0.270407 0
M  V30 3250 C 331.178 1.58449 1.14688 0
M  V30 3251 O 332.384 2.11362 1.70407 0
M  V30 3252 C 330.84 3.57292 -0.43252 0
M  V30 3253 C 330.448 4.07688 -1.85727 0
M  V30 3254 C 332.192 4.24485 -0.0359507 0
M  V30 3255 C 330.099 5.5765 -1.96928 0
M  V30 3256 H 329.029 0.747689 -0.0973472 0
M  V30 3257 H 331.68 1.59837 -0.901355 0
M  V30 3258 H 330.062 3.95097 0.267219 0
M  V30 3259 H 331.236 3.81231 -2.58843 0
M  V30 3260 H 329.551 3.53135 -2.20646 0
M  V30 3261 H 332.148 5.34609 -0.0987484 0
M  V30 3262 H 332.491 4.03915 1.00787 0
M  V30 3263 H 333.024 3.9183 -0.686604 0
M  V30 3264 H 329.763 5.8309 -2.99476 0
M  V30 3265 H 329.283 5.8593 -1.28241 0
M  V30 3266 H 330.962 6.22957 -1.74737 0
M  V30 3267 N 331.094 0.475555 1.50254 0
M  V30 3268 C 332.371 -0.139685 1.95101 0
M  V30 3269 C 332.751 -1.56555 1.41611 0
M  V30 3270 O 332.099 -2.19956 0.618993 0
M  V30 3271 C 332.309 -0.0784298 3.48912 0
M  V30 3272 C 333.657 -0.265095 4.23772 0
M  V30 3273 O 334.681 -0.154808 3.55863 0
M  V30 3274 O 333.54 -0.488327 5.44314 0
M  V30 3275 H 330.634 -0.109236 0.819754 0
M  V30 3276 H 333.18 0.536276 1.61004 0
M  V30 3277 H 331.952 0.916918 3.80405 0
M  V30 3278 H 331.575 -0.795655 3.89558 0
M  V30 3279 N 332.573 -1.56217 0.208337 0
M  V30 3280 C 333.521 -2.21053 -0.723769 0
M  V30 3281 C 334.515 -1.18578 -1.20978 0
M  V30 3282 O 335.721 -1.36691 -1.17114 0
M  V30 3283 H 332.096 -0.708595 -0.251788 0
M  V30 3284 H 334.067 -2.98006 -0.153365 0
M  V30 3285 C 332.816 -2.89417 -1.927 0
M  V30 3286 H 332.139 -3.68019 -1.56212 0
M  V30 3287 H 333.579 -3.38201 -2.55727 0
M  V30 3288 C 332.038 -1.91166 -2.77411 0
M  V30 3289 O 332.568 -1.42026 -3.75754 0
M  V30 3290 N 330.774 -1.59105 -2.43175 0
M  V30 3291 H 330.321 -1.99259 -1.63259 0
M  V30 3292 H 330.279 -0.936255 -3.00136 0
M  V30 3293 N 334.051 0.0651679 -1.57465 0
M  V30 3294 C 335.276 0.779605 -1.9219 0
M  V30 3295 C 335.701 1.69988 -0.805333 0
M  V30 3296 O 335.059 1.79685 0.241435 0
M  V30 3297 C 335.107 1.54364 -3.2589 0
M  V30 3298 O 334.211 2.65474 -3.1559 0
M  V30 3299 H 333.552 0.212249 -0.629163 0
M  V30 3300 H 336.082 0.0314294 -2.04576 0
M  V30 3301 H 336.092 1.92146 -3.59922 0
M  V30 3302 H 334.767 0.868457 -4.06732 0
M  V30 3303 H 333.344 2.30501 -2.93128 0
M  V30 3304 N 335.529 1.53961 0.336706 0
M  V30 3305 C 336.945 1.44378 0.680241 0
M  V30 3306 C 337.145 0.606034 1.9217 0
M  V30 3307 O 336.201 0.099688 2.52303 0
M  V30 3308 C 337.514 2.87945 0.8665 0
M  V30 3309 C 339.062 2.97763 0.964682 0
M  V30 3310 C 339.537 4.42453 1.18321 0
M  V30 3311 N 341.028 4.46008 1.25025 0
M  V30 3312 C 341.763 5.55102 1.43697 0
M  V30 3313 N 341.259 6.7419 1.59498 0
M  V30 3314 N 343.052 5.42727 1.463 0
M  V30 3315 H 335.203 2.06918 -0.479455 0
M  V30 3316 H 337.466 0.935634 -0.152619 0
M  V30 3317 H 337.172 3.51691 0.0256937 0
M  V30 3318 H 337.046 3.33293 1.76623 0
M  V30 3319 H 339.433 2.34153 1.796 0
M  V30 3320 H 339.514 2.55766 0.041708 0
M  V30 3321 H 339.158 5.06645 0.356788 0
M  V30 3322 H 339.088 4.82048 2.11985 0
M  V30 3323 H 341.579 3.60196 1.14312 0
M  V30 3324 H 341.892 7.53095 1.734 0
M  V30 3325 H 340.237 6.77123 1.56621 0
M  V30 3326 H 343.428 4.48647 1.33543 0
M  V30 3327 H 343.601 6.27806 1.6051 0
M  V30 3328 N 337.007 -0.598083 1.45811 0
M  V30 3329 C 338.235 -1.38322 1.53866 0
M  V30 3330 C 338.65 -1.87992 0.174479 0
M  V30 3331 O 338.007 -1.62756 -0.825627 0
M  V30 3332 C 338.058 -2.58125 2.53089 0
M  V30 3333 O 337.779 -2.10516 3.84206 0
M  V30 3334 C 339.28 -3.50869 2.70935 0
M  V30 3335 H 336.5 -0.423093 0.520801 0
M  V30 3336 H 339.044 -0.728527 1.91083 0
M  V30 3337 H 337.199 -3.19615 2.18917 0
M  V30 3338 H 337.613 -2.88425 4.38077 0
M  V30 3339 H 339.087 -4.31451 3.44317 0
M  V30 3340 H 339.564 -4.01822 1.77301 0
M  V30 3341 H 340.17 -2.95225 3.06141 0
M  V30 3342 N 338.485 -1.33259 -0.841409 0
M  V30 3343 C 339.901 -1.12538 -1.13169 0
M  V30 3344 C 340.101 0.0854037 -2.01319 0
M  V30 3345 O 339.157 0.766417 -2.40587 0
M  V30 3346 C 340.47 -2.41156 -1.79623 0
M  V30 3347 C 342.018 -2.47038 -1.922 0
M  V30 3348 C 342.493 -3.7561 -2.6207 0
M  V30 3349 N 343.984 -3.76667 -2.69585 0
M  V30 3350 C 344.719 -4.72861 -3.2433 0
M  V30 3351 N 344.215 -5.79428 -3.79783 0
M  V30 3352 N 346.008 -4.6034 -3.22558 0
M  V30 3353 H 338.159 -2.10868 -0.254676 0
M  V30 3354 H 340.422 -0.931615 -0.175493 0
M  V30 3355 H 340.128 -3.29747 -1.22311 0
M  V30 3356 H 340.002 -2.53114 -2.79666 0
M  V30 3357 H 342.389 -1.58898 -2.48667 0
M  V30 3358 H 342.47 -2.39022 -0.911148 0
M  V30 3359 H 342.114 -4.64131 -2.06263 0
M  V30 3360 H 342.044 -3.80902 -3.63622 0
M  V30 3361 H 344.535 -2.99648 -2.30259 0
M  V30 3362 H 344.848 -6.48867 -4.19752 0
M  V30 3363 H 343.193 -5.83166 -3.78078 0
M  V30 3364 H 346.384 -3.76244 -2.78492 0
M  V30 3365 H 346.557 -5.35478 -3.64921 0
M  V30 3366 N 339.963 1.05934 -1.16686 0
M  V30 3367 C 340.873 2.17014 -0.891183 0
M  V30 3368 C 341.889 1.73453 0.137907 0
M  V30 3369 O 343.065 2.01361 -0.039592 0
M  V30 3370 C 340.13 3.44384 -0.400099 0
M  V30 3371 C 339.191 4.02433 -1.49486 0
M  V30 3372 C 338.424 5.23723 -1.02711 0
M  V30 3373 O 338.647 5.7027 0.121716 0
M  V30 3374 O 337.581 5.7382 -1.81699 0
M  V30 3375 H 341.407 2.43113 -1.82015 0
M  V30 3376 H 338.992 1.15541 -0.947132 0
M  V30 3377 H 340.874 4.21189 -0.133392 0
M  V30 3378 H 339.549 3.19802 0.500817 0
M  V30 3379 H 338.456 3.27102 -1.81535 0
M  V30 3380 H 339.789 4.31317 -2.37121 0
M  V30 3381 N 341.441 0.965919 1.2453 0
M  V30 3382 C 342.371 0.513476 2.27784 0
M  V30 3383 C 343.352 -0.445974 1.6415 0
M  V30 3384 O 344.537 -0.342485 1.91156 0
M  V30 3385 C 341.667 -0.198839 3.4673 0
M  V30 3386 C 340.621 0.676456 4.2262 0
M  V30 3387 C 339.947 -0.167248 5.34438 0
M  V30 3388 C 341.247 1.96017 4.84123 0
M  V30 3389 H 342.941 1.3765 2.65881 0
M  V30 3390 H 340.487 0.663321 1.27813 0
M  V30 3391 H 342.44 -0.526567 4.18097 0
M  V30 3392 H 341.164 -1.0962 3.07654 0
M  V30 3393 H 339.823 0.98743 3.53052 0
M  V30 3394 H 339.471 -1.0647 4.91603 0
M  V30 3395 H 339.171 0.415181 5.86131 0
M  V30 3396 H 340.695 -0.489688 6.08633 0
M  V30 3397 H 342.109 1.69814 5.47573 0
M  V30 3398 H 340.506 2.48918 5.4604 0
M  V30 3399 H 341.576 2.65622 4.05676 0
M  V30 3400 N 342.919 -1.39368 0.735821 0
M  V30 3401 C 343.866 -2.30599 0.0963825 0
M  V30 3402 C 344.836 -1.49257 -0.728794 0
M  V30 3403 O 346.021 -1.77941 -0.688588 0
M  V30 3404 C 343.161 -3.35596 -0.804305 0
M  V30 3405 C 342.274 -4.31987 0.0335761 0
M  V30 3406 C 341.409 -5.24053 -0.868461 0
M  V30 3407 C 340.448 -6.12095 -0.0258776 0
M  V30 3408 N 339.585 -6.96514 -0.883893 0
M  V30 3409 H 344.425 -2.8471 0.880002 0
M  V30 3410 H 341.962 -1.40188 0.445619 0
M  V30 3411 H 343.92 -3.95062 -1.34096 0
M  V30 3412 H 342.55 -2.82938 -1.55389 0
M  V30 3413 H 341.602 -3.74133 0.68766 0
M  V30 3414 H 342.914 -4.94074 0.685036 0
M  V30 3415 H 342.068 -5.88549 -1.47293 0
M  V30 3416 H 340.807 -4.62289 -1.5537 0
M  V30 3417 H 339.812 -5.4661 0.591386 0
M  V30 3418 H 341.037 -6.75923 0.656156 0
M  V30 3419 H 338.983 -6.37318 -1.55441 0
M  V30 3420 H 338.9 -7.55448 -0.288931 0
M  V30 3421 H 340.168 -7.65439 -1.4739 0
M  V30 3422 N 344.397 -0.483516 -1.5 0
M  V30 3423 C 345.36 0.292965 -2.2732 0
M  V30 3424 C 346.36 0.909499 -1.32608 0
M  V30 3425 O 347.55 0.776745 -1.55924 0
M  V30 3426 C 344.682 1.41854 -3.09984 0
M  V30 3427 H 345.875 -0.385289 -2.97415 0
M  V30 3428 H 343.428 -0.237942 -1.54478 0
M  V30 3429 H 344.163 2.13148 -2.44414 0
M  V30 3430 H 343.948 0.982114 -3.79601 0
M  V30 3431 H 345.438 1.96597 -3.68429 0
M  V30 3432 N 345.875 1.56104 -0.216619 0
M  V30 3433 C 346.805 2.23063 0.690296 0
M  V30 3434 C 347.786 1.20072 1.20485 0
M  V30 3435 O 348.971 1.48643 1.24976 0
M  V30 3436 C 346.101 2.90672 1.90072 0
M  V30 3437 C 345.055 4.00092 1.5202 0
M  V30 3438 C 344.381 4.54972 2.80899 0
M  V30 3439 C 345.681 5.17398 0.71391 0
M  V30 3440 H 347.375 2.99109 0.132038 0
M  V30 3441 H 344.921 1.43866 0.0620664 0
M  V30 3442 H 346.874 3.36204 2.54057 0
M  V30 3443 H 345.598 2.12066 2.48386 0
M  V30 3444 H 344.257 3.55283 0.903839 0
M  V30 3445 H 343.905 3.73102 3.37348 0
M  V30 3446 H 343.605 5.28817 2.56176 0
M  V30 3447 H 345.129 5.0322 3.45836 0
M  V30 3448 H 346.543 5.59342 1.25735 0
M  V30 3449 H 344.94 5.97444 0.563951 0
M  V30 3450 H 346.01 4.84088 -0.280527 0
M  V30 3451 N 347.353 -0.0568162 1.57498 0
M  V30 3452 C 348.303 -1.07315 2.01166 0
M  V30 3453 C 349.287 -1.33632 0.896171 0
M  V30 3454 O 350.479 -1.33682 1.16009 0
M  V30 3455 C 347.608 -2.38257 2.47161 0
M  V30 3456 C 346.694 -2.1515 3.65474 0
M  V30 3457 N 347.085 -1.62014 4.7915 0
M  V30 3458 C 345.383 -2.45559 3.72313 0
M  V30 3459 C 346.084 -1.54069 5.60926 0
M  V30 3460 N 345.06 -2.00652 5.05213 0
M  V30 3461 H 348.862 -0.655878 2.86488 0
M  V30 3462 H 346.376 -0.263635 1.60246 0
M  V30 3463 H 348.373 -3.11845 2.76691 0
M  V30 3464 H 347.033 -2.80687 1.63232 0
M  V30 3465 H 348.044 -1.30667 5.01145 0
M  V30 3466 H 344.721 -2.91253 2.99129 0
M  V30 3467 H 346.111 -1.13712 6.62208 0
M  V30 3468 N 348.832 -1.54138 -0.328536 0
M  V30 3469 C 349.762 -1.86167 -1.40939 0
M  V30 3470 C 350.743 -0.718044 -1.54202 0
M  V30 3471 O 351.928 -0.971328 -1.68163 0
M  V30 3472 C 349.058 -2.08461 -2.77779 0
M  V30 3473 C 348.012 -3.24299 -2.7931 0
M  V30 3474 C 347.338 -3.31955 -4.19178 0
M  V30 3475 C 348.638 -4.62065 -2.43502 0
M  V30 3476 H 350.332 -2.76689 -1.14383 0
M  V30 3477 H 347.878 -1.33132 -0.548806 0
M  V30 3478 H 349.831 -2.29453 -3.53454 0
M  V30 3479 H 348.555 -1.14684 -3.05802 0
M  V30 3480 H 347.214 -3.03187 -2.0609 0
M  V30 3481 H 346.862 -2.35745 -4.44335 0
M  V30 3482 H 346.562 -4.09805 -4.2111 0
M  V30 3483 H 348.086 -3.55175 -4.96672 0
M  V30 3484 H 349.5 -4.8297 -3.08889 0
M  V30 3485 H 347.897 -5.42429 -2.56693 0
M  V30 3486 H 348.967 -4.64652 -1.38659 0
M  V30 3487 N 350.31 0.590341 -1.46126 0
M  V30 3488 C 351.556 1.35082 -1.51264 0
M  V30 3489 C 351.889 1.93534 -0.160711 0
M  V30 3490 O 351.164 1.76045 0.826956 0
M  V30 3491 C 351.447 2.48588 -2.6053 0
M  V30 3492 C 351.3 1.95221 -4.05227 0
M  V30 3493 C 352.619 3.50662 -2.6594 0
M  V30 3494 H 349.738 0.489803 -0.550692 0
M  V30 3495 H 352.38 0.663887 -1.78024 0
M  V30 3496 H 350.53 3.07186 -2.37843 0
M  V30 3497 H 352.202 1.41139 -4.39178 0
M  V30 3498 H 350.445 1.26101 -4.15068 0
M  V30 3499 H 351.116 2.77121 -4.77397 0
M  V30 3500 H 353.592 3.01934 -2.86313 0
M  V30 3501 H 352.468 4.27551 -3.44226 0
M  V30 3502 H 352.729 4.07399 -1.71694 0
M  V30 3503 N 351.788 1.33704 0.83433 0
M  V30 3504 C 353.199 1.22813 1.4062 0
M  V30 3505 C 353.55 -0.151107 1.95617 0
M  V30 3506 O 352.675 -1.05092 1.89168 0
M  V30 3507 C 353.27 2.22355 2.55624 0
M  V30 3508 C 351.829 2.1529 3.08751 0
M  V30 3509 C 350.976 2.09589 1.8157 0
M  V30 3510 H 353.927 1.45236 0.639702 0
M  V30 3511 H 353.948 1.83391 3.33389 0
M  V30 3512 H 353.46 3.22728 2.15566 0
M  V30 3513 H 351.561 1.18235 3.53343 0
M  V30 3514 H 351.674 3.06038 3.68616 0
M  V30 3515 H 350.038 1.55134 2.02004 0
M  V30 3516 H 350.821 3.11777 1.43701 0
M  V30 3517 N 353.266 -1.05314 1.17247 0
M  V30 3518 C 354.198 -2.13023 0.845812 0
M  V30 3519 C 355.211 -1.62096 -0.151246 0
M  V30 3520 O 356.4 -1.78343 0.0748818 0
M  V30 3521 C 353.5 -3.38047 0.240292 0
M  V30 3522 C 352.673 -4.18255 1.27991 0
M  V30 3523 C 351.732 -5.21625 0.692375 0
M  V30 3524 O 350.758 -5.52619 1.36385 0
M  V30 3525 N 351.96 -5.78201 -0.516178 0
M  V30 3526 H 354.725 -2.41642 1.77283 0
M  V30 3527 H 352.286 -1.21401 1.07115 0
M  V30 3528 H 354.278 -4.04359 -0.16603 0
M  V30 3529 H 352.848 -3.06972 -0.590487 0
M  V30 3530 H 352.068 -3.47451 1.86203 0
M  V30 3531 H 353.356 -4.68643 1.98119 0
M  V30 3532 H 352.754 -5.55301 -1.07969 0
M  V30 3533 H 351.311 -6.4604 -0.86458 0
M  V30 3534 N 354.744 -0.972509 -1.24016 0
M  V30 3535 C 355.974 -0.653853 -1.9598 0
M  V30 3536 C 356.382 0.781801 -1.72292 0
M  V30 3537 O 355.725 1.53677 -1.00644 0
M  V30 3538 C 355.787 -0.854608 -3.49194 0
M  V30 3539 C 355.451 -2.27082 -3.96589 0
M  V30 3540 C 356.448 -3.24892 -4.05883 0
M  V30 3541 C 354.133 -2.5998 -4.29786 0
M  V30 3542 C 356.127 -4.53684 -4.47716 0
M  V30 3543 C 353.814 -3.88997 -4.71301 0
M  V30 3544 C 354.812 -4.85661 -4.80232 0
M  V30 3545 O 354.5 -6.12376 -5.20818 0
M  V30 3546 H 354.232 -0.242572 -0.630979 0
M  V30 3547 H 356.786 -1.30431 -1.58673 0
M  V30 3548 H 355.016 -0.146985 -3.86421 0
M  V30 3549 H 356.705 -0.534311 -4.02368 0
M  V30 3550 H 357.471 -3.00805 -3.80449 0
M  V30 3551 H 353.35 -1.85457 -4.22051 0
M  V30 3552 H 356.894 -5.29135 -4.54601 0
M  V30 3553 H 352.791 -4.12882 -4.96184 0
M  V30 3554 H 353.559 -6.16013 -5.38953 0
M  V30 3555 N 356.222 1.38976 -0.743202 0
M  V30 3556 C 357.154 2.29096 -0.0689228 0
M  V30 3557 C 358.167 1.47229 0.694791 0
M  V30 3558 O 359.356 1.70212 0.537597 0
M  V30 3559 C 356.456 3.25988 0.926548 0
M  V30 3560 C 355.629 4.36833 0.222647 0
M  V30 3561 C 354.688 5.13981 1.12739 0
M  V30 3562 O 353.714 5.6601 0.601795 0
M  V30 3563 N 354.916 5.25966 2.45641 0
M  V30 3564 H 357.681 2.87604 -0.842846 0
M  V30 3565 H 355.242 1.50645 -0.593109 0
M  V30 3566 H 357.234 3.74476 1.5346 0
M  V30 3567 H 355.804 2.68453 1.60162 0
M  V30 3568 H 355.024 3.90116 -0.565983 0
M  V30 3569 H 356.312 5.0811 -0.264841 0
M  V30 3570 H 355.71 4.85228 2.9081 0
M  V30 3571 H 354.267 5.77865 3.01522 0
M  V30 3572 N 357.7 0.491464 1.49741 0
M  V30 3573 C 358.977 -0.118984 1.95238 0
M  V30 3574 C 359.357 -1.55044 1.43264 0
M  V30 3575 O 358.705 -2.19287 0.642287 0
M  V30 3576 C 358.915 -0.0414187 3.48975 0
M  V30 3577 C 360.263 -0.220133 4.24029 0
M  V30 3578 O 361.287 -0.117055 3.56008 0
M  V30 3579 O 360.146 -0.430567 5.44801 0
M  V30 3580 H 357.24 -0.100536 0.820866 0
M  V30 3581 H 359.786 0.553322 1.60426 0
M  V30 3582 H 358.558 0.957214 3.79412 0
M  V30 3583 H 358.181 -0.754292 3.9038 0
M  V30 3584 N 359.178 -1.55987 0.224894 0
M  V30 3585 C 360.11 -2.17722 -0.716224 0
M  V30 3586 C 361.123 -1.14723 -1.15509 0
M  V30 3587 O 362.312 -1.41688 -1.08567 0
M  V30 3588 C 359.412 -2.74873 -1.98238 0
M  V30 3589 C 358.585 -4.03074 -1.69853 0
M  V30 3590 C 357.644 -4.44757 -2.81208 0
M  V30 3591 O 356.67 -5.11587 -2.49534 0
M  V30 3592 N 357.872 -4.10716 -4.10235 0
M  V30 3593 H 360.637 -2.99109 -0.188123 0
M  V30 3594 H 358.198 -1.6184 0.0440123 0
M  V30 3595 H 360.19 -2.99727 -2.7193 0
M  V30 3596 H 358.76 -1.9777 -2.42086 0
M  V30 3597 H 357.98 -3.86041 -0.797875 0
M  V30 3598 H 359.268 -4.86701 -1.48324 0
M  V30 3599 H 358.666 -3.57019 -4.38809 0
M  V30 3600 H 357.223 -4.40455 -4.80461 0
M  V30 3601 N 360.656 0.0484629 -1.57525 0
M  V30 3602 C 361.604 1.07359 -2.06341 0
M  V30 3603 C 362.598 1.3865 -0.973269 0
M  V30 3604 O 363.804 1.37783 -1.15827 0
M  V30 3605 H 360.179 0.363662 -0.65822 0
M  V30 3606 H 362.15 0.635916 -2.91545 0
M  V30 3607 C 360.899 2.37198 -2.54229 0
M  V30 3608 H 360.222 2.13977 -3.37719 0
M  V30 3609 H 361.662 3.07319 -2.92115 0
M  V30 3610 C 360.121 3.04805 -1.43511 0
M  V30 3611 O 360.651 3.93848 -0.79034 0
M  V30 3612 N 358.857 2.65811 -1.17444 0
M  V30 3613 H 358.404 1.93488 -1.70059 0
M  V30 3614 H 358.362 3.11366 -0.435737 0
M  V30 3615 N 362.134 1.5431 0.320358 0
M  V30 3616 C 363.082 1.84647 1.4145 0
M  V30 3617 C 364.076 0.718624 1.53402 0
M  V30 3618 O 365.282 0.902335 1.5575 0
M  V30 3619 H 361.657 0.585349 0.472091 0
M  V30 3620 H 363.628 2.7614 1.13089 0
M  V30 3621 C 362.377 2.09341 2.77617 0
M  V30 3622 H 361.7 2.9559 2.69196 0
M  V30 3623 H 363.14 2.3452 3.53237 0
M  V30 3624 C 361.599 0.885939 3.25043 0
M  V30 3625 O 362.129 0.0967891 4.01583 0
M  V30 3626 N 360.335 0.696682 2.82125 0
M  V30 3627 H 359.882 1.34006 2.2 0
M  V30 3628 H 359.84 -0.109712 3.14209 0
M  V30 3629 N 363.613 -0.582584 1.46437 0
M  V30 3630 C 364.843 -1.36484 1.55099 0
M  V30 3631 C 365.251 -1.88233 0.191056 0
M  V30 3632 O 364.594 -1.6429 -0.821858 0
M  V30 3633 C 364.656 -2.588 2.49525 0
M  V30 3634 C 364.32 -2.28517 3.95764 0
M  V30 3635 C 365.317 -1.87346 4.84972 0
M  V30 3636 C 363.002 -2.40658 4.40896 0
M  V30 3637 C 364.996 -1.5871 6.17325 0
M  V30 3638 C 362.683 -2.11635 5.73284 0
M  V30 3639 C 363.681 -1.70725 6.61318 0
M  V30 3640 O 363.369 -1.42057 7.91249 0
M  V30 3641 H 363.101 -0.423297 0.527063 0
M  V30 3642 H 365.655 -0.715188 1.92547 0
M  V30 3643 H 363.885 -3.26571 2.07095 0
M  V30 3644 H 365.574 -3.20868 2.48593 0
M  V30 3645 H 366.34 -1.77481 4.5136 0
M  V30 3646 H 362.219 -2.71463 3.72598 0
M  V30 3647 H 365.763 -1.26704 6.85997 0
M  V30 3648 H 361.66 -2.21124 6.06444 0
M  V30 3649 H 362.428 -1.55901 8.03515 0
M  V30 3650 N 365.091 -1.34144 -0.827227 0
M  V30 3651 C 366.021 -1.28005 -1.95287 0
M  V30 3652 C 367.002 -0.158321 -1.69362 0
M  V30 3653 O 368.187 -0.349987 -1.9102 0
M  V30 3654 C 365.317 -1.03036 -3.31664 0
M  V30 3655 C 364.271 -2.11628 -3.72019 0
M  V30 3656 C 363.597 -1.71854 -5.0633 0
M  V30 3657 C 364.897 -3.53417 -3.8457 0
M  V30 3658 H 366.591 -2.22187 -2.00682 0
M  V30 3659 H 364.137 -1.0696 -0.964135 0
M  V30 3660 H 366.09 -0.973863 -4.09993 0
M  V30 3661 H 364.814 -0.0529391 -3.26557 0
M  V30 3662 H 363.473 -2.16339 -2.95961 0
M  V30 3663 H 363.121 -0.727841 -4.97706 0
M  V30 3664 H 362.821 -2.44531 -5.34302 0
M  V30 3665 H 364.345 -1.67692 -5.87122 0
M  V30 3666 H 365.759 -3.51142 -4.5318 0
M  V30 3667 H 364.156 -4.24679 -4.2399 0
M  V30 3668 H 365.226 -3.91072 -2.86689 0
M  V30 3669 N 366.569 1.04691 -1.17803 0
M  V30 3670 C 367.501 2.12571 -0.857097 0
M  V30 3671 C 368.514 1.62174 0.142647 0
M  V30 3672 O 369.703 1.78301 -0.0843387 0
M  V30 3673 C 366.803 3.37915 -0.258216 0
M  V30 3674 C 365.976 4.1757 -1.30207 0
M  V30 3675 C 365.035 5.2125 -0.720029 0
M  V30 3676 O 364.061 5.51888 -1.39314 0
M  V30 3677 N 365.263 5.78466 0.485507 0
M  V30 3678 H 368.028 2.40698 -1.78562 0
M  V30 3679 H 365.589 1.20831 -1.07757 0
M  V30 3680 H 367.581 4.04442 0.144584 0
M  V30 3681 H 366.151 3.07281 0.574199 0
M  V30 3682 H 365.371 3.46458 -1.88043 0
M  V30 3683 H 366.659 4.67586 -2.00601 0
M  V30 3684 H 366.057 5.55866 1.05022 0
M  V30 3685 H 364.614 6.4649 0.830307 0
M  V30 3686 N 368.047 0.979072 1.23499 0
M  V30 3687 C 369.272 0.664845 1.96455 0
M  V30 3688 C 369.697 -0.761287 1.72006 0
M  V30 3689 O 369.055 -1.51837 0.990713 0
M  V30 3690 C 369.103 0.959479 3.47601 0
M  V30 3691 O 368.207 0.0508168 4.12369 0
M  V30 3692 H 367.548 0.250185 0.615064 0
M  V30 3693 H 370.078 1.31231 1.5697 0
M  V30 3694 H 370.088 0.895642 3.98048 0
M  V30 3695 H 368.763 1.99876 3.64723 0
M  V30 3696 H 367.34 0.16895 3.72517 0
M  V30 3697 N 369.525 -1.3858 0.750561 0
M  V30 3698 C 370.802 -1.94231 0.231009 0
M  V30 3699 C 371.182 -1.68611 -1.27018 0
M  V30 3700 O 370.53 -1.02296 -2.04323 0
M  V30 3701 C 370.74 -3.44123 0.581428 0
M  V30 3702 C 372.088 -4.2116 0.539389 0
M  V30 3703 O 373.112 -3.52391 0.519541 0
M  V30 3704 O 371.971 -5.43749 0.54765 0
M  V30 3705 H 369.065 -0.825639 0.0474263 0
M  V30 3706 H 371.611 -1.4799 0.830478 0
M  V30 3707 H 370.383 -3.56267 1.61833 0
M  V30 3708 H 370.006 -3.97573 -0.0462047 0
M  V30 3709 N 371.003 -0.499398 -1.49478 0
M  V30 3710 C 372.249 0.0457576 -2.02748 0
M  V30 3711 C 372.582 1.36793 -1.37846 0
M  V30 3712 O 371.857 1.87596 -0.513601 0
M  V30 3713 C 372.14 0.199986 -3.59544 0
M  V30 3714 C 371.993 -1.1452 -4.34977 0
M  V30 3715 C 373.312 0.94137 -4.29914 0
M  V30 3716 H 370.431 0.0151552 -0.736844 0
M  V30 3717 H 373.073 -0.650498 -1.78518 0
M  V30 3718 H 371.223 0.793007 -3.8032 0
M  V30 3719 H 372.895 -1.77697 -4.25701 0
M  V30 3720 H 371.138 -1.73488 -3.97598 0
M  V30 3721 H 371.809 -0.990607 -5.43039 0
M  V30 3722 H 374.285 0.43844 -4.13784 0
M  V30 3723 H 373.161 1.01812 -5.39375 0
M  V30 3724 H 373.422 1.98471 -3.95046 0
M  V30 3725 N 372.481 1.55866 -0.233164 0
M  V30 3726 C 373.892 1.847 0.272554 0
M  V30 3727 C 374.243 1.15477 1.58617 0
M  V30 3728 O 373.368 0.42841 2.12117 0
M  V30 3729 C 373.963 3.35071 0.501299 0
M  V30 3730 C 372.522 3.6418 0.951304 0
M  V30 3731 C 371.669 2.77292 0.0208209 0
M  V30 3732 H 374.62 1.52005 -0.456074 0
M  V30 3733 H 374.641 3.55906 1.34577 0
M  V30 3734 H 374.153 3.85424 -0.454936 0
M  V30 3735 H 372.254 3.19293 1.92049 0
M  V30 3736 H 372.367 4.72071 0.817675 0
M  V30 3737 H 370.731 2.49131 0.529723 0
M  V30 3738 H 371.514 3.30448 -0.93054 0
M  V30 3739 N 373.959 -0.0401083 1.57549 0
M  V30 3740 C 374.906 -1.04413 2.05831 0
M  V30 3741 C 375.876 -1.36585 0.945184 0
M  V30 3742 O 377.061 -1.47112 1.21502 0
M  V30 3743 C 374.201 -2.34336 2.53339 0
M  V30 3744 C 373.314 -2.08419 3.78398 0
M  V30 3745 C 372.449 -3.32133 4.14561 0
M  V30 3746 C 371.488 -3.01721 5.3257 0
M  V30 3747 N 370.625 -4.17855 5.64218 0
M  V30 3748 H 375.465 -0.625442 2.91363 0
M  V30 3749 H 373.002 -0.297218 1.44066 0
M  V30 3750 H 374.96 -3.10234 2.78946 0
M  V30 3751 H 373.59 -2.73948 1.7074 0
M  V30 3752 H 372.642 -1.23069 3.59942 0
M  V30 3753 H 373.954 -1.81978 4.64419 0
M  V30 3754 H 373.108 -4.16406 4.41238 0
M  V30 3755 H 371.847 -3.61678 3.2717 0
M  V30 3756 H 370.852 -2.15849 5.05657 0
M  V30 3757 H 372.077 -2.73466 6.21605 0
M  V30 3758 H 370.023 -4.47372 4.79786 0
M  V30 3759 H 369.94 -3.94798 6.44725 0
M  V30 3760 H 371.208 -5.03033 5.95465 0
M  V30 3761 N 375.437 -1.54477 -0.31217 0
M  V30 3762 C 376.848 -1.64344 -0.885891 0
M  V30 3763 C 377.199 -0.54485 -1.88483 0
M  V30 3764 O 376.324 0.320387 -2.14015 0
M  V30 3765 C 376.919 -2.97908 -1.61357 0
M  V30 3766 C 375.478 -3.09933 -2.13585 0
M  V30 3767 C 374.625 -2.59971 -0.964897 0
M  V30 3768 H 377.576 -1.58448 -0.0894528 0
M  V30 3769 H 377.597 -2.88706 -2.47848 0
M  V30 3770 H 377.109 -3.77845 -0.886277 0
M  V30 3771 H 375.21 -2.34694 -2.89395 0
M  V30 3772 H 375.323 -4.15916 -2.37804 0
M  V30 3773 H 373.687 -2.16147 -1.34731 0
M  V30 3774 H 374.47 -3.42376 -0.251742 0
M  V30 3775 N 376.915 0.57481 -1.46744 0
M  V30 3776 C 377.848 1.69827 -1.52427 0
M  V30 3777 C 378.826 1.58151 -0.377744 0
M  V30 3778 O 380.01 1.79257 -0.58303 0
M  V30 3779 C 377.137 3.07943 -1.41027 0
M  V30 3780 C 376.183 3.38116 -2.59961 0
M  V30 3781 S 377.016 3.29313 -4.22272 0
M  V30 3782 C 378.172 4.69953 -4.13394 0
M  V30 3783 H 378.405 1.64748 -2.47478 0
M  V30 3784 H 375.938 0.754203 -1.34726 0
M  V30 3785 H 377.896 3.87619 -1.35137 0
M  V30 3786 H 376.557 3.10504 -0.473909 0
M  V30 3787 H 375.75 4.38762 -2.47999 0
M  V30 3788 H 375.352 2.66024 -2.62882 0
M  V30 3789 H 377.644 5.60517 -3.80562 0
M  V30 3790 H 378.587 4.86972 -5.14066 0
M  V30 3791 H 378.995 4.47174 -3.44522 0
M  V30 3792 N 378.394 1.34581 0.820102 0
M  V30 3793 C 379.622 1.3018 1.60813 0
M  V30 3794 C 380.037 -0.123551 1.88395 0
M  V30 3795 O 379.394 -1.07148 1.47735 0
M  V30 3796 C 379.445 2.09312 2.94739 0
M  V30 3797 O 379.166 3.46288 2.68358 0
M  V30 3798 C 380.667 2.1234 3.89136 0
M  V30 3799 H 377.887 0.447726 0.499782 0
M  V30 3800 H 380.431 1.77237 1.02017 0
M  V30 3801 H 378.586 1.65889 3.50085 0
M  V30 3802 H 379 3.87227 3.53774 0
M  V30 3803 H 380.474 2.72126 4.80262 0
M  V30 3804 H 380.951 1.11854 4.24718 0
M  V30 3805 H 381.557 2.55864 3.39726 0
M  V30 3806 N 379.872 -1.04064 1.18357 0
M  V30 3807 C 380.835 -2.10243 0.912707 0
M  V30 3808 C 381.835 -1.60477 -0.101928 0
M  V30 3809 O 383.025 -1.73703 0.131517 0
M  V30 3810 C 380.157 -3.38893 0.369387 0
M  V30 3811 H 381.35 -2.35706 1.85426 0
M  V30 3812 H 378.903 -1.20489 0.995594 0
M  V30 3813 H 379.638 -3.19094 -0.578776 0
M  V30 3814 H 379.423 -3.76331 1.1008 0
M  V30 3815 H 380.913 -4.17128 0.198575 0
M  V30 3816 N 381.35 -0.985608 -1.22978 0
M  V30 3817 C 382.28 -0.549649 -2.26939 0
M  V30 3818 C 383.261 0.419803 -1.64838 0
M  V30 3819 O 384.446 0.31203 -1.91677 0
M  V30 3820 C 381.576 0.143652 -3.47003 0
M  V30 3821 C 380.53 -0.743606 -4.21491 0
M  V30 3822 C 379.856 0.0822027 -5.34637 0
M  V30 3823 C 381.156 -2.03694 -4.80943 0
M  V30 3824 H 382.85 -1.41862 -2.63658 0
M  V30 3825 H 380.396 -0.683571 -1.26741 0
M  V30 3826 H 382.349 0.459985 -4.18882 0
M  V30 3827 H 381.073 1.04711 -3.09359 0
M  V30 3828 H 379.732 -1.04347 -3.51436 0
M  V30 3829 H 379.38 0.986359 -4.93234 0
M  V30 3830 H 379.08 -0.508377 -5.85397 0
M  V30 3831 H 380.604 0.392797 -6.09335 0
M  V30 3832 H 382.018 -1.78504 -5.44802 0
M  V30 3833 H 380.415 -2.57573 -5.42011 0
M  V30 3834 H 381.485 -2.72042 -4.01399 0
M  V30 3835 N 382.828 1.3818 -0.7579 0
M  V30 3836 C 384.074 2.00316 -0.316453 0
M  V30 3837 C 384.407 1.60026 1.10025 0
M  V30 3838 O 383.682 0.839835 1.75434 0
M  V30 3839 C 383.965 3.57349 -0.444245 0
M  V30 3840 C 383.818 4.07591 -1.90236 0
M  V30 3841 C 385.137 4.3981 0.1598 0
M  V30 3842 H 382.256 0.727741 -0.116459 0
M  V30 3843 H 384.898 1.6406 -0.958352 0
M  V30 3844 H 383.048 3.88365 0.102233 0
M  V30 3845 H 384.72 3.87199 -2.50748 0
M  V30 3846 H 382.963 3.60297 -2.41595 0
M  V30 3847 H 383.634 5.16677 -1.94291 0
M  V30 3848 H 386.11 4.14971 -0.306314 0
M  V30 3849 H 384.986 5.48885 0.0401675 0
M  V30 3850 H 385.247 4.24102 1.24859 0
M  V30 3851 N 384.306 0.507319 1.49211 0
M  V30 3852 C 385.554 -0.0348839 2.0207 0
M  V30 3853 C 385.875 -1.36898 1.38866 0
M  V30 3854 O 385.145 -1.88133 0.546151 0
M  V30 3855 H 383.725 -0.0158812 0.746831 0
M  V30 3856 H 386.387 0.665998 1.83168 0
M  V30 3857 H 385.483 -0.159917 3.1169 0
M  V30 3858 N 385.784 -1.5574 0.241426 0
M  V30 3859 C 387.2 -1.59196 -0.113548 0
M  V30 3860 C 387.4 -1.25852 -1.57364 0
M  V30 3861 O 386.456 -1.00322 -2.31715 0
M  V30 3862 C 387.769 -2.99814 0.230695 0
M  V30 3863 C 389.317 -3.12513 0.174547 0
M  V30 3864 C 389.792 -4.55342 0.492744 0
M  V30 3865 N 391.283 -4.61076 0.443043 0
M  V30 3866 C 392.018 -5.6956 0.662484 0
M  V30 3867 N 391.514 -6.86328 0.944761 0
M  V30 3868 N 393.307 -5.58957 0.593564 0
M  V30 3869 H 385.458 -1.75685 1.19368 0
M  V30 3870 H 387.721 -0.81756 0.479896 0
M  V30 3871 H 387.427 -3.28932 1.24485 0
M  V30 3872 H 387.301 -3.74568 -0.444833 0
M  V30 3873 H 389.688 -2.83179 -0.830277 0
M  V30 3874 H 389.769 -2.40045 0.883845 0
M  V30 3875 H 389.413 -4.85396 1.4951 0
M  V30 3876 H 389.343 -5.26062 -0.23797 0
M  V30 3877 H 391.834 -3.77179 0.233374 0
M  V30 3878 H 392.147 -7.64935 1.09977 0
M  V30 3879 H 390.492 -6.88025 0.982175 0
M  V30 3880 H 393.683 -4.66611 0.373123 0
M  V30 3881 H 393.856 -6.43433 0.767981 0
M  V30 3882 N 387.262 0.0317525 -1.57568 0
M  V30 3883 C 388.509 0.723104 -1.89149 0
M  V30 3884 C 388.837 1.75504 -0.838377 0
M  V30 3885 O 388.092 1.95037 0.160982 0
M  V30 3886 C 388.391 1.43167 -3.27472 0
M  V30 3887 C 388.057 0.535972 -4.47703 0
M  V30 3888 C 386.719 0.289262 -4.8033 0
M  V30 3889 C 389.071 -0.0826125 -5.21135 0
M  V30 3890 C 386.399 -0.584853 -5.83778 0
M  V30 3891 C 388.751 -0.944414 -6.25511 0
M  V30 3892 C 387.415 -1.20061 -6.56614 0
M  V30 3893 H 386.685 0.264602 -0.692146 0
M  V30 3894 H 389.332 -0.0169496 -1.91492 0
M  V30 3895 H 387.637 2.24497 -3.21105 0
M  V30 3896 H 389.334 1.97209 -3.49155 0
M  V30 3897 H 385.924 0.738414 -4.22191 0
M  V30 3898 H 390.108 0.0950302 -4.96209 0
M  V30 3899 H 385.364 -0.79168 -6.06253 0
M  V30 3900 H 389.538 -1.43026 -6.81554 0
M  V30 3901 H 387.165 -1.87967 -7.36595 0
M  V30 3902 N 388.74 1.54641 0.303973 0
M  V30 3903 C 389.67 1.88386 1.3796 0
M  V30 3904 C 390.651 0.742485 1.5304 0
M  V30 3905 O 391.836 0.997959 1.66597 0
M  V30 3906 C 388.966 2.12854 2.74427 0
M  V30 3907 C 387.92 3.28702 2.74115 0
M  V30 3908 C 387.246 3.38582 4.13844 0
M  V30 3909 C 388.546 4.65881 2.3612 0
M  V30 3910 H 390.24 2.78474 1.09966 0
M  V30 3911 H 387.786 1.33988 0.527556 0
M  V30 3912 H 389.739 2.35047 3.49758 0
M  V30 3913 H 388.463 1.19535 3.03939 0
M  V30 3914 H 387.122 3.06428 2.0124 0
M  V30 3915 H 386.77 2.42784 4.40528 0
M  V30 3916 H 386.47 4.16453 4.14537 0
M  V30 3917 H 387.994 3.63031 4.90959 0
M  V30 3918 H 389.408 4.87823 3.01167 0
M  V30 3919 H 387.805 5.46444 2.48031 0
M  V30 3920 H 388.875 4.66799 1.3125 0
M  V30 3921 N 390.218 -0.567019 1.47046 0
M  V30 3922 C 391.629 -1.14916 1.47143 0
M  V30 3923 C 391.98 -1.94954 0.220767 0
M  V30 3924 O 391.105 -2.05602 -0.67505 0
M  V30 3925 C 391.7 -2.09069 2.666 0
M  V30 3926 C 390.259 -2.62575 2.69687 0
M  V30 3927 C 389.406 -1.38755 2.40088 0
M  V30 3928 H 392.357 -0.354126 1.54699 0
M  V30 3929 H 392.378 -2.92789 2.43011 0
M  V30 3930 H 391.89 -1.50789 3.57609 0
M  V30 3931 H 389.991 -3.24681 1.82792 0
M  V30 3932 H 390.104 -3.04239 3.70102 0
M  V30 3933 H 388.468 -1.69098 1.90468 0
M  V30 3934 H 389.251 -0.822822 3.33293 0
M  V30 3935 N 391.696 -1.35014 -0.812953 0
M  V30 3936 C 392.659 -1.27292 -1.90602 0
M  V30 3937 C 393.659 -0.185817 -1.59723 0
M  V30 3938 O 394.849 -0.439102 -1.68575 0
M  V30 3939 C 391.981 -0.967676 -3.26877 0
M  V30 3940 H 393.174 -2.24479 -1.9887 0
M  V30 3941 H 390.727 -1.19446 -1.00808 0
M  V30 3942 H 391.462 0.0005954 -3.243 0
M  V30 3943 H 391.247 -1.75412 -3.50675 0
M  V30 3944 H 392.737 -0.939085 -4.06904 0
M  V30 3945 N 393.175 1.03435 -1.18907 0
M  V30 3946 C 394.4 1.80919 -1.01406 0
M  V30 3947 C 394.825 1.83055 0.432721 0
M  V30 3948 O 394.183 1.25252 1.31079 0
M  V30 3949 C 394.231 3.24091 -1.58105 0
M  V30 3950 O 393.335 4.04434 -0.806669 0
M  V30 3951 H 392.676 0.558709 -0.358803 0
M  V30 3952 H 395.206 1.30223 -1.57807 0
M  V30 3953 H 395.216 3.74853 -1.61087 0
M  V30 3954 H 393.891 3.21851 -2.6341 0
M  V30 3955 H 392.468 3.63091 -0.849666 0
M  V30 3956 N 394.653 0.992116 1.22453 0
M  V30 3957 C 395.881 0.685944 1.95198 0
M  V30 3958 C 396.296 -0.749233 1.73297 0
M  V30 3959 O 395.653 -1.50549 1.03156 0
M  V30 3960 C 395.704 0.981395 3.47924 0
M  V30 3961 O 395.425 2.36018 3.6909 0
M  V30 3962 C 396.926 0.692815 4.37853 0
M  V30 3963 H 394.146 0.253821 0.621141 0
M  V30 3964 H 396.69 1.32668 1.55626 0
M  V30 3965 H 394.845 0.386481 3.85467 0
M  V30 3966 H 395.259 2.45884 4.63294 0
M  V30 3967 H 396.733 0.949818 5.43767 0
M  V30 3968 H 397.21 -0.373181 4.37612 0
M  V30 3969 H 397.816 1.26874 4.05935 0
M  V30 3970 N 396.131 -1.37776 0.765217 0
M  V30 3971 C 397.078 -2.30342 0.145274 0
M  V30 3972 C 398.048 -1.5077 -0.696971 0
M  V30 3973 O 399.233 -1.79362 -0.650689 0
M  V30 3974 C 396.373 -3.37227 -0.732939 0
M  V30 3975 C 395.486 -4.31819 0.125199 0
M  V30 3976 C 394.621 -5.25777 -0.757107 0
M  V30 3977 C 393.66 -6.12012 0.103963 0
M  V30 3978 N 392.797 -6.98232 -0.735953 0
M  V30 3979 H 397.637 -2.8278 0.940195 0
M  V30 3980 H 395.174 -1.39211 0.475255 0
M  V30 3981 H 397.132 -3.97818 -1.25686 0
M  V30 3982 H 395.762 -2.86171 -1.49353 0
M  V30 3983 H 394.814 -3.7259 0.766865 0
M  V30 3984 H 396.126 -4.92509 0.789683 0
M  V30 3985 H 395.28 -5.91541 -1.34776 0
M  V30 3986 H 394.019 -4.65481 -1.45529 0
M  V30 3987 H 393.024 -5.45233 0.707197 0
M  V30 3988 H 394.249 -6.74379 0.799381 0
M  V30 3989 H 392.195 -6.40472 -1.41887 0
M  V30 3990 H 392.112 -7.55891 -0.128624 0
M  V30 3991 H 393.38 -7.68393 -1.31121 0
M  V30 3992 N 397.609 -0.515225 -1.4894 0
M  V30 3993 C 398.539 0.244628 -2.32215 0
M  V30 3994 C 399.52 0.949136 -1.41157 0
M  V30 3995 O 400.705 0.937783 -1.70057 0
M  V30 3996 C 397.835 1.30096 -3.22013 0
M  V30 3997 C 396.789 0.715486 -4.21977 0
M  V30 3998 C 396.115 1.87339 -5.00808 0
M  V30 3999 C 397.415 -0.302982 -5.2142 0
M  V30 4000 H 399.109 -0.450501 -2.95991 0
M  V30 4001 H 396.655 -0.218098 -1.42339 0
M  V30 4002 H 398.608 1.84037 -3.79089 0
M  V30 4003 H 397.332 2.02547 -2.56207 0
M  V30 4004 H 395.991 0.197715 -3.66066 0
M  V30 4005 H 395.639 2.58592 -4.31438 0
M  V30 4006 H 395.339 1.48764 -5.68457 0
M  V30 4007 H 396.863 2.41686 -5.60732 0
M  V30 4008 H 398.277 0.148802 -5.73107 0
M  V30 4009 H 396.674 -0.60532 -5.97039 0
M  V30 4010 H 397.744 -1.21395 -4.69459 0
M  V30 4011 N 399.087 1.5561 -0.249682 0
M  V30 4012 C 400.035 2.22894 0.664906 0
M  V30 4013 C 401.029 1.21743 1.17792 0
M  V30 4014 O 402.235 1.39748 1.13449 0
M  V30 4015 H 398.61 0.715022 0.232912 0
M  V30 4016 H 400.581 2.98307 0.0742998 0
M  V30 4017 C 399.33 2.94424 1.84959 0
M  V30 4018 H 398.653 3.72031 1.46399 0
M  V30 4019 H 400.093 3.44862 2.4667 0
M  V30 4020 C 398.552 1.98454 2.72245 0
M  V30 4021 O 399.082 1.51939 3.71857 0
M  V30 4022 N 397.288 1.65496 2.38871 0
M  V30 4023 H 396.835 2.03517 1.57919 0
M  V30 4024 H 396.793 1.0155 2.97548 0
M  V30 4025 N 400.565 -0.0233959 1.57583 0
M  V30 4026 C 401.495 -1.02162 2.09965 0
M  V30 4027 C 402.476 -1.3735 1.00344 0
M  V30 4028 O 403.661 -1.46135 1.27899 0
M  V30 4029 C 400.791 -2.32081 2.58371 0
M  V30 4030 C 399.745 -2.1112 3.72307 0
M  V30 4031 C 399.071 -3.46848 4.06941 0
M  V30 4032 C 400.371 -1.49276 5.00514 0
M  V30 4033 H 402.065 -0.585557 2.93618 0
M  V30 4034 H 399.611 -0.280218 1.41247 0
M  V30 4035 H 401.564 -3.02249 2.93639 0
M  V30 4036 H 400.288 -2.77758 1.71808 0
M  V30 4037 H 398.947 -1.43384 3.37397 0
M  V30 4038 H 398.595 -3.90184 3.17436 0
M  V30 4039 H 398.295 -3.33646 4.83688 0
M  V30 4040 H 399.819 -4.18369 4.44747 0
M  V30 4041 H 401.233 -2.09368 5.33702 0
M  V30 4042 H 399.63 -1.46632 5.8191 0
M  V30 4043 H 400.7 -0.459217 4.82721 0
M  V30 4044 N 402.043 -1.548 -0.295768 0
M  V30 4045 C 403.292 -1.73538 -1.02798 0
M  V30 4046 C 403.605 -0.531159 -1.8825 0
M  V30 4047 O 404.811 -0.600458 -2.64777 0
M  V30 4048 C 403.267 -3.07051 -1.87744 0
M  V30 4049 C 402.875 -4.34968 -1.07269 0
M  V30 4050 C 404.619 -3.35146 -2.60533 0
M  V30 4051 C 402.526 -5.5953 -1.91521 0
M  V30 4052 H 401.456 -0.646794 -0.387522 0
M  V30 4053 H 404.107 -1.81278 -0.284718 0
M  V30 4054 H 402.489 -2.93289 -2.66078 0
M  V30 4055 H 403.663 -4.5958 -0.335117 0
M  V30 4056 H 401.978 -4.13847 -0.460384 0
M  V30 4057 H 404.575 -4.2541 -3.23929 0
M  V30 4058 H 404.918 -2.54255 -3.29636 0
M  V30 4059 H 405.451 -3.49902 -1.89244 0
M  V30 4060 H 402.19 -6.43103 -1.26878 0
M  V30 4061 H 401.71 -5.39096 -2.62937 0
M  V30 4062 H 403.389 -5.96982 -2.49442 0
M  V30 4063 N 403.521 0.559213 -1.47345 0
M  V30 4064 C 404.749 1.34194 -1.57479 0
M  V30 4065 C 405.164 1.87463 -0.224261 0
M  V30 4066 O 404.521 1.64888 0.782185 0
M  V30 4067 C 404.572 2.51324 -2.59843 0
M  V30 4068 O 404.293 2.00256 -3.89653 0
M  V30 4069 C 405.794 3.43563 -2.80142 0
M  V30 4070 H 403.014 0.409136 -0.531835 0
M  V30 4071 H 405.558 0.677609 -1.92947 0
M  V30 4072 H 403.713 3.13699 -2.27314 0
M  V30 4073 H 404.127 2.76708 -4.4557 0
M  V30 4074 H 405.601 4.2217 -3.55635 0
M  V30 4075 H 406.078 3.9698 -1.87892 0
M  V30 4076 H 406.684 2.87005 -3.1386 0
M  V30 4077 N 404.999 1.35443 0.805782 0
M  V30 4078 C 405.931 1.24285 1.92577 0
M  V30 4079 C 406.944 0.165962 1.61952 0
M  V30 4080 O 408.133 0.419303 1.73505 0
M  V30 4081 C 405.233 0.891272 3.2697 0
M  V30 4082 C 404.406 2.06669 3.85495 0
M  V30 4083 C 403.465 1.69077 4.98297 0
M  V30 4084 O 402.491 2.4096 5.15681 0
M  V30 4085 N 403.693 0.614869 5.77234 0
M  V30 4086 H 406.458 2.20777 2.02676 0
M  V30 4087 H 404.019 1.28623 0.983243 0
M  V30 4088 H 406.011 0.621256 3.99903 0
M  V30 4089 H 404.581 0.016004 3.12596 0
M  V30 4090 H 403.801 2.50046 3.04747 0
M  V30 4091 H 405.089 2.85237 4.21328 0
M  V30 4092 H 404.487 0.017648 5.65697 0
M  V30 4093 H 403.044 0.404636 6.50543 0
M  V30 4094 N 406.477 -1.02803 1.19454 0
M  V30 4095 C 407.409 -2.11181 0.890807 0
M  V30 4096 C 408.422 -1.6238 -0.116829 0
M  V30 4097 O 409.611 -1.78144 0.112694 0
M  V30 4098 C 406.711 -3.37461 0.311942 0
M  V30 4099 C 405.884 -4.15446 1.36834 0
M  V30 4100 C 404.943 -5.20039 0.802864 0
M  V30 4101 O 403.969 -5.49602 1.48077 0
M  V30 4102 N 405.171 -5.79165 -0.393417 0
M  V30 4103 H 407.936 -2.37827 1.82369 0
M  V30 4104 H 405.497 -1.19101 1.09666 0
M  V30 4105 H 407.489 -4.0462 -0.0802225 0
M  V30 4106 H 406.059 -3.08156 -0.52524 0
M  V30 4107 H 405.279 -3.43423 1.93531 0
M  V30 4108 H 406.567 -4.64335 2.08015 0
M  V30 4109 H 405.965 -5.57466 -0.961658 0
M  V30 4110 H 404.522 -6.47729 -0.727351 0
M  V30 4111 N 407.956 -0.998596 -1.21925 0
M  V30 4112 C 408.886 -0.573688 -2.26343 0
M  V30 4113 C 409.867 0.402296 -1.65274 0
M  V30 4114 O 411.052 0.291683 -1.91997 0
M  V30 4115 C 408.182 0.106839 -3.47136 0
M  V30 4116 C 407.136 -0.788269 -4.20678 0
M  V30 4117 C 406.462 0.0254927 -5.34694 0
M  V30 4118 C 407.762 -2.08784 -4.78755 0
M  V30 4119 H 409.456 -1.44651 -2.62138 0
M  V30 4120 H 407.002 -0.696975 -1.26009 0
M  V30 4121 H 408.955 0.415531 -4.19346 0
M  V30 4122 H 407.679 1.01424 -3.10452 0
M  V30 4123 H 406.338 -1.08069 -3.50309 0
M  V30 4124 H 405.986 0.933989 -4.94253 0
M  V30 4125 H 405.686 -0.570437 -5.84825 0
M  V30 4126 H 407.21 0.328147 -6.09718 0
M  V30 4127 H 408.624 -1.84272 -5.42878 0
M  V30 4128 H 407.021 -2.63307 -5.39249 0
M  V30 4129 H 408.091 -2.76284 -3.98491 0
M  V30 4130 N 409.434 1.37368 -0.772513 0
M  V30 4131 C 410.344 2.34053 -0.160081 0
M  V30 4132 C 411.36 1.60216 0.678728 0
M  V30 4133 O 412.536 1.92303 0.59847 0
M  V30 4134 C 409.601 3.3939 0.708182 0
M  V30 4135 C 408.662 4.29048 -0.147172 0
M  V30 4136 C 407.895 5.29354 0.679744 0
M  V30 4137 O 408.118 5.3723 1.91678 0
M  V30 4138 O 407.052 6.01835 0.0885444 0
M  V30 4139 H 410.878 2.88159 -0.959053 0
M  V30 4140 H 408.463 1.39543 -0.533685 0
M  V30 4141 H 410.345 4.03839 1.20384 0
M  V30 4142 H 409.02 2.8761 1.48533 0
M  V30 4143 H 407.927 3.67697 -0.689205 0
M  V30 4144 H 409.26 4.84134 -0.887423 0
M  V30 4145 N 410.912 0.523116 1.48665 0
M  V30 4146 C 412.16 -0.0134497 2.02096 0
M  V30 4147 C 412.481 -1.35418 1.40311 0
M  V30 4148 O 411.751 -1.87543 0.566074 0
M  V30 4149 H 410.331 -0.00795915 0.746958 0
M  V30 4150 H 412.993 0.685388 1.82451 0
M  V30 4151 H 412.089 -0.126849 3.11842 0
M  V30 4152 N 412.39 -1.55475 0.257931 0
M  V30 4153 C 413.353 -2.20551 -0.623706 0
M  V30 4154 C 414.353 -1.17809 -1.09443 0
M  V30 4155 O 415.543 -1.42823 -0.997362 0
M  V30 4156 C 412.675 -2.85784 -1.8585 0
M  V30 4157 H 413.868 -2.99848 -0.0557743 0
M  V30 4158 H 411.421 -1.56298 0.0084422 0
M  V30 4159 H 412.156 -2.10453 -2.46739 0
M  V30 4160 H 411.941 -3.61057 -1.52907 0
M  V30 4161 H 413.431 -3.35553 -2.48584 0
M  V30 4162 N 413.868 0.0150385 -1.57593 0
M  V30 4163 C 414.798 1.01047 -2.10503 0
M  V30 4164 C 415.779 1.36816 -1.01071 0
M  V30 4165 O 416.964 1.45455 -1.28672 0
M  V30 4166 C 414.094 2.30708 -2.59598 0
M  V30 4167 C 413.048 2.09142 -3.73421 0
M  V30 4168 C 412.374 3.44685 -4.08774 0
M  V30 4169 C 413.674 1.46619 -5.01298 0
M  V30 4170 H 415.368 0.569978 -2.93925 0
M  V30 4171 H 412.914 0.272724 -1.41394 0
M  V30 4172 H 414.867 3.00687 -2.95238 0
M  V30 4173 H 413.591 2.76843 -1.73279 0
M  V30 4174 H 412.25 1.41592 -3.38153 0
M  V30 4175 H 411.898 3.88495 -3.195 0
M  V30 4176 H 411.598 3.31077 -4.8545 0
M  V30 4177 H 413.122 4.16004 -4.4696 0
M  V30 4178 H 414.536 2.06535 -5.34805 0
M  V30 4179 H 412.933 1.43544 -5.82679 0
M  V30 4180 H 414.003 0.433611 -4.82957 0
M  V30 4181 N 415.346 1.54954 0.287554 0
M  V30 4182 C 416.757 1.65732 0.859634 0
M  V30 4183 C 417.108 0.574767 1.87592 0
M  V30 4184 O 416.233 -0.286299 2.14498 0
M  V30 4185 C 416.828 3.00438 1.56597 0
M  V30 4186 C 415.387 3.13292 2.08627 0
M  V30 4187 C 414.534 2.61473 0.923416 0
M  V30 4188 H 417.485 1.5857 0.0642338 0
M  V30 4189 H 417.506 2.92613 2.43224 0
M  V30 4190 H 417.018 3.79207 0.826053 0
M  V30 4191 H 415.119 2.39268 2.85625 0
M  V30 4192 H 415.232 4.19647 2.31157 0
M  V30 4193 H 413.596 2.18264 1.31275 0
M  V30 4194 H 414.379 3.42733 0.197241 0
M  V30 4195 N 416.824 -0.551391 1.4764 0
M  V30 4196 C 418.049 -1.33837 1.58437 0
M  V30 4197 C 418.474 -1.866 0.237063 0
M  V30 4198 O 417.832 -1.6328 -0.787994 0
M  V30 4199 C 417.88 -2.48014 2.61766 0
M  V30 4200 O 416.984 -3.50419 2.1744 0
M  V30 4201 H 416.325 -0.397299 0.532024 0
M  V30 4202 H 418.855 -0.665759 1.93465 0
M  V30 4203 H 418.865 -2.94503 2.82369 0
M  V30 4204 H 417.54 -2.08969 3.5959 0
M  V30 4205 H 416.117 -3.10196 2.06961 0
M  V30 4206 N 418.302 -1.35869 -0.798587 0
M  V30 4207 C 419.548 -1.2978 -1.55836 0
M  V30 4208 C 419.881 0.125322 -1.93795 0
M  V30 4209 O 419.156 1.07658 -1.61987 0
M  V30 4210 C 419.439 -2.21188 -2.84162 0
M  V30 4211 C 419.292 -3.72155 -2.52628 0
M  V30 4212 C 420.611 -2.11545 -3.85923 0
M  V30 4213 H 417.73 -0.472769 -0.565383 0
M  V30 4214 H 420.372 -1.66341 -0.918192 0
M  V30 4215 H 418.522 -1.90139 -3.38791 0
M  V30 4216 H 420.194 -4.13682 -2.04121 0
M  V30 4217 H 418.437 -3.92042 -1.85704 0
M  V30 4218 H 419.108 -4.31511 -3.44242 0
M  V30 4219 H 421.584 -2.38855 -3.40716 0
M  V30 4220 H 420.46 -2.77688 -4.73477 0
M  V30 4221 H 420.721 -1.09987 -4.282 0
M  V30 4222 N 419.78 1.02168 -1.19998 0
M  V30 4223 C 421.026 1.75945 -1.00852 0
M  V30 4224 C 421.359 1.88702 0.458828 0
M  V30 4225 O 420.634 1.40911 1.34069 0
M  V30 4226 C 420.917 3.18154 -1.68671 0
M  V30 4227 C 420.77 3.13224 -3.22817 0
M  V30 4228 C 422.089 4.16711 -1.41561 0
M  V30 4229 H 419.208 0.638673 -0.367785 0
M  V30 4230 H 421.85 1.19222 -1.4794 0
M  V30 4231 H 420 3.66586 -1.28636 0
M  V30 4232 H 421.672 2.72635 -3.72112 0
M  V30 4233 H 419.915 2.50751 -3.53986 0
M  V30 4234 H 420.586 4.13728 -3.65422 0
M  V30 4235 H 423.062 3.76913 -1.76284 0
M  V30 4236 H 421.938 5.14391 -1.91553 0
M  V30 4237 H 422.199 4.40774 -0.342193 0
M  V30 4238 N 421.258 1.00505 1.21394 0
M  V30 4239 C 422.206 0.558623 2.25792 0
M  V30 4240 C 423.2 -0.396848 1.64686 0
M  V30 4241 O 424.406 -0.268035 1.77993 0
M  V30 4242 H 420.781 0.1623 0.734277 0
M  V30 4243 H 422.752 1.4503 2.60785 0
M  V30 4244 C 421.501 -0.0989574 3.47559 0
M  V30 4245 H 420.824 0.627225 3.94849 0
M  V30 4246 H 422.264 -0.3746 4.22342 0
M  V30 4247 C 420.723 -1.33817 3.09184 0
M  V30 4248 O 421.253 -2.43252 3.19674 0
M  V30 4249 N 419.459 -1.21793 2.63846 0
M  V30 4250 H 419.006 -0.32746 2.5551 0
M  V30 4251 H 418.964 -2.04809 2.38539 0
M  V30 4252 N 422.737 -1.36956 0.779787 0
M  V30 4253 C 423.985 -1.99097 0.347079 0
M  V30 4254 C 424.306 -1.62206 -1.08232 0
M  V30 4255 O 423.576 -0.891373 -1.74446 0
M  V30 4256 H 422.156 -0.736409 0.125342 0
M  V30 4257 H 424.818 -1.67308 0.999696 0
M  V30 4258 H 423.914 -3.09107 0.431162 0
M  V30 4259 N 424.215 -0.530993 -1.48385 0
M  V30 4260 C 425.44 0.000729535 -2.074 0
M  V30 4261 C 425.865 1.27298 -1.3848 0
M  V30 4262 O 425.223 1.75599 -0.451081 0
M  V30 4263 C 425.271 0.206697 -3.60007 0
M  V30 4264 O 424.375 1.27514 -3.92191 0
M  V30 4265 H 423.716 -0.039583 -0.662819 0
M  V30 4266 H 426.246 -0.739194 -1.9078 0
M  V30 4267 H 426.256 0.42904 -4.05738 0
M  V30 4268 H 424.931 -0.722675 -4.09573 0
M  V30 4269 H 423.508 1.03537 -3.58238 0
M  V30 4270 N 425.693 1.55336 -0.266172 0
M  V30 4271 C 426.656 2.20878 0.612001 0
M  V30 4272 C 427.656 1.18388 1.08816 0
M  V30 4273 O 428.846 1.4335 0.989774 0
M  V30 4274 C 425.978 2.86765 1.84332 0
M  V30 4275 H 427.171 2.99873 0.0398718 0
M  V30 4276 H 424.724 1.56291 -0.0167309 0
M  V30 4277 H 425.459 2.11759 2.45619 0
M  V30 4278 H 425.244 3.61862 1.5099 0
M  V30 4279 H 426.734 3.36867 2.46801 0
M  V30 4280 N 427.171 -0.0066808 1.57599 0
M  V30 4281 C 428.418 -0.69292 1.90276 0
M  V30 4282 C 428.746 -1.74148 0.866192 0
M  V30 4283 O 428.001 -1.95268 -0.129933 0
M  V30 4284 C 428.3 -1.37939 3.29708 0
M  V30 4285 C 427.966 -0.464679 4.48499 0
M  V30 4286 C 426.628 -0.212809 4.80729 0
M  V30 4287 C 428.98 0.16551 5.20937 0
M  V30 4288 C 426.308 0.677653 5.82773 0
M  V30 4289 C 428.66 1.04381 6.23929 0
M  V30 4290 C 427.324 1.30492 6.54621 0
M  V30 4291 H 426.594 -0.253558 0.696268 0
M  V30 4292 H 429.241 0.0474123 1.91441 0
M  V30 4293 H 427.546 -2.1936 3.24636 0
M  V30 4294 H 429.243 -1.9163 3.52249 0
M  V30 4295 H 425.833 -0.671153 4.23313 0
M  V30 4296 H 430.017 -0.0160756 4.96297 0
M  V30 4297 H 425.273 0.88803 6.04917 0
M  V30 4298 H 429.447 1.53851 6.79193 0
M  V30 4299 H 427.074 1.99662 7.33512 0
M  V30 4300 N 428.649 -1.55105 -0.279332 0
M  V30 4301 C 430.06 -1.66186 -0.850832 0
M  V30 4302 C 430.411 -0.584707 -1.87285 0
M  V30 4303 O 429.536 0.274919 -2.14647 0
M  V30 4304 C 430.131 -3.01264 -1.55001 0
M  V30 4305 C 428.69 -3.14394 -2.06963 0
M  V30 4306 C 427.837 -2.61959 -0.909536 0
M  V30 4307 H 430.788 -1.58602 -0.0558235 0
M  V30 4308 H 430.809 -2.93899 -2.41669 0
M  V30 4309 H 430.321 -3.7964 -0.805931 0
M  V30 4310 H 428.422 -2.4078 -2.84352 0
M  V30 4311 H 428.535 -4.20867 -2.28928 0
M  V30 4312 H 426.899 -2.18957 -1.30116 0
M  V30 4313 H 427.682 -3.42833 -0.179062 0
M  V30 4314 N 430.127 0.543554 -1.4793 0
M  V30 4315 C 431.352 1.32995 -1.59145 0
M  V30 4316 C 431.777 1.86472 -0.246956 0
M  V30 4317 O 431.135 1.63696 0.779324 0
M  V30 4318 C 431.183 2.46623 -2.63077 0
M  V30 4319 O 430.287 3.49261 -2.19295 0
M  V30 4320 H 429.628 0.394472 -0.534124 0
M  V30 4321 H 432.158 0.655489 -1.93816 0
M  V30 4322 H 432.168 2.93001 -2.83926 0
M  V30 4323 H 430.843 2.07059 -3.60693 0
M  V30 4324 H 429.42 3.09094 -2.08603 0
M  V30 4325 N 431.605 1.3629 0.791371 0
M  V30 4326 C 432.853 1.30154 1.5461 0
M  V30 4327 C 433.174 -0.119409 1.94634 0
M  V30 4328 O 432.444 -1.05924 1.64794 0
M  V30 4329 H 431.024 0.478784 0.573389 0
M  V30 4330 H 433.686 1.70565 0.94306 0
M  V30 4331 H 432.782 1.92762 2.45457 0
M  V30 4332 N 433.083 -1.0153 1.20538 0
M  V30 4333 C 434.308 -1.79283 1.04271 0
M  V30 4334 C 434.733 -1.8372 -0.403544 0
M  V30 4335 O 434.091 -1.27321 -1.2907 0
M  V30 4336 C 434.139 -3.21535 1.63241 0
M  V30 4337 O 433.243 -4.03099 0.870908 0
M  V30 4338 H 432.584 -0.55293 0.367647 0
M  V30 4339 H 435.114 -1.27696 1.59859 0
M  V30 4340 H 435.124 -3.72243 1.6703 0
M  V30 4341 H 433.799 -3.1762 2.68497 0
M  V30 4342 H 432.376 -3.61693 0.907323 0
M  V30 4343 N 434.561 -1.01147 -1.20859 0
M  V30 4344 C 435.789 -0.716911 -1.94082 0
M  V30 4345 C 436.204 0.721568 -1.74467 0
M  V30 4346 O 435.561 1.48889 -1.05539 0
M  V30 4347 C 435.612 -1.03662 -3.46318 0
M  V30 4348 O 435.333 -2.4186 -3.65288 0
M  V30 4349 C 436.834 -0.762386 -4.36695 0
M  V30 4350 H 434.054 -0.26367 -0.617024 0
M  V30 4351 H 436.598 -1.35127 -1.53496 0
M  V30 4352 H 434.753 -0.447757 -3.84804 0
M  V30 4353 H 435.167 -2.53224 -4.59323 0
M  V30 4354 H 436.641 -1.03621 -5.42187 0
M  V30 4355 H 437.118 0.303514 -4.3815 0
M  V30 4356 H 437.724 -1.33316 -4.03865 0
M  V30 4357 N 436.039 1.36541 -0.78704 0
M  V30 4358 C 436.969 2.32659 -0.197992 0
M  V30 4359 C 437.95 1.56533 0.665697 0
M  V30 4360 O 439.135 1.84698 0.60001 0
M  V30 4361 C 436.265 3.40778 0.669901 0
M  V30 4362 C 435.219 4.27897 -0.0937039 0
M  V30 4363 C 434.545 5.27163 0.894629 0
M  V30 4364 C 435.845 5.06334 -1.28154 0
M  V30 4365 H 437.539 2.82171 -1.00099 0
M  V30 4366 H 435.085 1.35665 -0.482793 0
M  V30 4367 H 437.038 4.07008 1.09191 0
M  V30 4368 H 435.762 2.89827 1.50558 0
M  V30 4369 H 434.421 3.6322 -0.49666 0
M  V30 4370 H 434.069 4.72486 1.72527 0
M  V30 4371 H 433.769 5.86317 0.388149 0
M  V30 4372 H 435.293 5.96266 1.31525 0
M  V30 4373 H 436.707 5.65617 -0.93541 0
M  V30 4374 H 435.104 5.74888 -1.72115 0
M  V30 4375 H 436.174 4.38114 -2.07807 0
M  V30 4376 N 437.518 0.538854 1.48102 0
M  V30 4377 C 438.929 0.100679 1.86428 0
M  V30 4378 C 439.28 -1.32447 1.44749 0
M  V30 4379 O 438.405 -1.99339 0.842199 0
M  V30 4380 C 439 0.175933 3.38343 0
M  V30 4381 C 437.559 -0.207098 3.7583 0
M  V30 4382 C 436.706 0.531741 2.72154 0
M  V30 4383 H 439.657 0.749614 1.3988 0
M  V30 4384 H 439.678 -0.610144 3.75576 0
M  V30 4385 H 439.19 1.21328 3.68648 0
M  V30 4386 H 437.291 -1.24626 3.5114 0
M  V30 4387 H 437.404 0.138687 4.78899 0
M  V30 4388 H 435.768 -0.0230462 2.5469 0
M  V30 4389 H 436.551 1.56989 3.05302 0
M  V30 4390 N 438.996 -1.55193 0.274407 0
M  V30 4391 C 440.244 -1.99187 -0.341902 0
M  V30 4392 C 440.565 -1.16422 -1.56431 0
M  V30 4393 O 439.835 -0.253573 -1.94252 0
M  V30 4394 H 438.415 -0.735721 -0.129317 0
M  V30 4395 H 441.077 -1.91168 0.379578 0
M  V30 4396 H 440.173 -3.05629 -0.632253 0
M  V30 4397 N 440.474 -0.00167713 -1.576 0
M  V30 4398 C 441.885 0.54091 -1.78693 0
M  V30 4399 C 442.236 1.7386 -0.909247 0
M  V30 4400 O 441.361 2.16109 -0.112176 0
M  V30 4401 C 441.956 0.98806 -3.24072 0
M  V30 4402 C 440.515 1.47594 -3.46256 0
M  V30 4403 C 439.662 0.42792 -2.73978 0
M  V30 4404 H 442.613 -0.22784 -1.57056 0
M  V30 4405 H 442.634 1.85398 -3.32277 0
M  V30 4406 H 442.146 0.116164 -3.87926 0
M  V30 4407 H 440.247 2.36868 -2.87618 0
M  V30 4408 H 440.36 1.50225 -4.54939 0
M  V30 4409 H 438.724 0.889934 -2.38647 0
M  V30 4410 H 439.507 -0.435038 -3.40532 0
M  V30 4411 N 441.952 1.55251 0.271103 0
M  V30 4412 C 443.363 1.66635 0.842007 0
M  V30 4413 C 443.714 0.594631 1.86972 0
M  V30 4414 O 442.839 -0.263532 2.14789 0
M  V30 4415 C 443.434 3.02082 1.53401 0
M  V30 4416 C 441.993 3.15487 2.05293 0
M  V30 4417 C 441.14 2.62438 0.895631 0
M  V30 4418 H 444.091 1.58629 0.0474117 0
M  V30 4419 H 444.112 2.95176 2.40107 0
M  V30 4420 H 443.624 3.80062 0.785786 0
M  V30 4421 H 441.725 2.42284 2.83071 0
M  V30 4422 H 441.838 4.22075 2.26693 0
M  V30 4423 H 440.202 2.19644 1.28953 0
M  V30 4424 H 440.985 3.42923 0.160878 0
M  V30 4425 N 443.43 -0.535701 1.48216 0
M  V30 4426 C 444.377 -1.64083 1.62312 0
M  V30 4427 C 445.347 -1.59448 0.465365 0
M  V30 4428 O 446.532 -1.77959 0.688135 0
M  V30 4429 C 443.672 -3.0236 1.66349 0
M  V30 4430 C 442.785 -3.17273 2.93193 0
M  V30 4431 C 441.92 -4.46075 2.88427 0
M  V30 4432 C 440.959 -4.54496 4.1 0
M  V30 4433 N 440.096 -5.7468 4.03345 0
M  V30 4434 H 444.936 -1.51374 2.5669 0
M  V30 4435 H 442.473 -0.737059 1.27302 0
M  V30 4436 H 444.431 -3.82461 1.66672 0
M  V30 4437 H 443.061 -3.13854 0.754672 0
M  V30 4438 H 442.113 -2.30462 3.02641 0
M  V30 4439 H 443.425 -3.19357 3.83162 0
M  V30 4440 H 442.579 -5.3446 2.87119 0
M  V30 4441 H 441.318 -4.46504 1.96177 0
M  V30 4442 H 440.323 -3.64519 4.11589 0
M  V30 4443 H 441.548 -4.5581 5.03402 0
M  V30 4444 H 439.494 -5.76017 3.13912 0
M  V30 4445 H 439.411 -5.78234 4.87013 0
M  V30 4446 H 440.679 -6.65367 4.06087 0
M  V30 4447 N 444.908 -1.36708 -0.784132 0
M  V30 4448 C 446.157 -1.30559 -1.53744 0
M  V30 4449 C 446.47 0.111374 -1.95283 0
M  V30 4450 O 447.676 0.29527 -2.6989 0
M  V30 4451 C 446.132 -2.29098 -2.77565 0
M  V30 4452 C 445.74 -3.76258 -2.43174 0
M  V30 4453 C 447.484 -2.31936 -3.55536 0
M  V30 4454 C 445.391 -4.6656 -3.63422 0
M  V30 4455 H 444.321 -0.48518 -0.577162 0
M  V30 4456 H 446.972 -1.62101 -0.859981 0
M  V30 4457 H 445.354 -1.90557 -3.47137 0
M  V30 4458 H 446.528 -4.23565 -1.81465 0
M  V30 4459 H 444.843 -3.76246 -1.78403 0
M  V30 4460 H 447.44 -2.9661 -4.44889 0
M  V30 4461 H 447.783 -1.3294 -3.94503 0
M  V30 4462 H 448.316 -2.6912 -2.92949 0
M  V30 4463 H 445.055 -5.66638 -3.29547 0
M  V30 4464 H 444.575 -4.23966 -4.24279 0
M  V30 4465 H 446.254 -4.8309 -4.30387 0
M  V30 4466 N 446.386 1.0089 -1.21074 0
M  V30 4467 C 447.614 1.78191 -1.05145 0
M  V30 4468 C 448.029 1.84537 0.398952 0
M  V30 4469 O 447.386 1.30393 1.27687 0
M  V30 4470 C 447.437 3.22288 -1.63746 0
M  V30 4471 O 447.158 3.16315 -3.03111 0
M  V30 4472 C 448.659 4.16106 -1.52875 0
M  V30 4473 H 445.879 0.560129 -0.369454 0
M  V30 4474 H 448.423 1.26945 -1.60328 0
M  V30 4475 H 446.578 3.70655 -1.12664 0
M  V30 4476 H 446.992 4.06817 -3.31059 0
M  V30 4477 H 448.466 5.15026 -1.98626 0
M  V30 4478 H 448.943 4.36541 -0.482521 0
M  V30 4479 H 449.549 3.73625 -2.03185 0
M  V30 4480 N 447.864 1.01787 1.20321 0
M  V30 4481 C 448.794 0.609625 2.25401 0
M  V30 4482 C 449.775 -0.375951 1.65893 0
M  V30 4483 O 450.96 -0.261101 1.92437 0
M  V30 4484 C 448.09 -0.0515995 3.47262 0
M  V30 4485 C 447.044 0.855095 4.19371 0
M  V30 4486 C 446.37 0.0595757 5.34667 0
M  V30 4487 C 447.67 2.16374 4.75373 0
M  V30 4488 H 449.364 1.48803 2.59804 0
M  V30 4489 H 446.91 0.716934 1.24884 0
M  V30 4490 H 448.863 -0.348764 4.19954 0
M  V30 4491 H 447.587 -0.964726 3.12027 0
M  V30 4492 H 446.246 1.13628 3.48546 0
M  V30 4493 H 445.894 -0.85524 4.95676 0
M  V30 4494 H 445.594 0.663406 5.83843 0
M  V30 4495 H 447.118 -0.231105 6.10162 0
M  V30 4496 H 448.532 1.92885 5.39878 0
M  V30 4497 H 446.929 2.71853 5.34991 0
M  V30 4498 H 447.999 2.82589 3.94045 0
M  V30 4499 N 449.342 -1.36122 0.79427 0
M  V30 4500 C 450.305 -2.28309 0.201889 0
M  V30 4501 C 451.305 -1.49041 -0.603603 0
M  V30 4502 O 452.495 -1.68964 -0.423888 0
M  V30 4503 C 449.627 -3.3321 -0.719978 0
M  V30 4504 H 450.82 -2.82208 1.01481 0
M  V30 4505 H 448.373 -1.45768 0.564037 0
M  V30 4506 H 449.108 -2.84475 -1.55706 0
M  V30 4507 H 448.893 -3.91835 -0.144266 0
M  V30 4508 H 450.383 -4.02044 -1.12916 0
M  V30 4509 N 450.82 -0.546701 -1.47814 0
M  V30 4510 C 452.068 -0.0187037 -2.02091 0
M  V30 4511 C 452.389 1.33168 -1.42447 0
M  V30 4512 O 451.659 1.86619 -0.595839 0
M  V30 4513 H 450.239 -0.00392531 -0.74699 0
M  V30 4514 H 452.901 -0.714327 -1.81338 0
M  V30 4515 H 451.997 0.0772219 -3.12004 0
M  V30 4516 N 452.299 1.55045 -0.282633 0
M  V30 4517 C 453.529 2.03872 0.334635 0
M  V30 4518 C 453.937 1.16018 1.49454 0
M  V30 4519 O 453.28 0.174449 1.8287 0
M  V30 4520 C 453.342 3.48791 0.870905 0
M  V30 4521 C 453.006 4.56715 -0.161338 0
M  V30 4522 C 454.003 5.10513 -0.983466 0
M  V30 4523 C 451.688 5.01417 -0.297745 0
M  V30 4524 C 453.682 6.07538 -1.92811 0
M  V30 4525 C 451.369 5.98265 -1.24586 0
M  V30 4526 C 452.367 6.51208 -2.05954 0
M  V30 4527 O 452.055 7.46162 -2.99162 0
M  V30 4528 H 451.787 0.671324 0.0793742 0
M  V30 4529 H 454.341 2.01169 -0.41473 0
M  V30 4530 H 452.571 3.48758 1.67047 0
M  V30 4531 H 454.26 3.80916 1.40207 0
M  V30 4532 H 455.026 4.76785 -0.888856 0
M  V30 4533 H 450.905 4.59849 0.325604 0
M  V30 4534 H 454.449 6.48787 -2.56363 0
M  V30 4535 H 450.346 6.31412 -1.34126 0
M  V30 4536 H 451.114 7.63903 -2.93929 0
M  V30 4537 N 453.777 0.010035 1.57597 0
M  V30 4538 C 455.017 -0.677084 1.9286 0
M  V30 4539 C 455.381 -1.70377 0.885192 0
M  V30 4540 O 456.582 -2.44199 1.12339 0
M  V30 4541 C 454.853 -1.29452 3.33132 0
M  V30 4542 S 456.412 -2.00537 3.90295 0
M  V30 4543 H 453.23 -0.223409 0.674989 0
M  V30 4544 H 455.832 0.0691289 1.95378 0
M  V30 4545 H 454.536 -0.534593 4.06903 0
M  V30 4546 H 454.067 -2.07845 3.34012 0
M  V30 4547 H 456.082 -3.28168 3.72183 0
M  V30 4548 N 455.255 -1.55392 -0.262866 0
M  V30 4549 C 456.532 -1.67204 -1.01499 0
M  V30 4550 C 456.912 -0.545186 -2.03939 0
M  V30 4551 O 456.26 0.453467 -2.23955 0
M  V30 4552 C 456.47 -3.06847 -1.6627 0
M  V30 4553 C 457.818 -3.64928 -2.17054 0
M  V30 4554 O 458.842 -3.09545 -1.76239 0
M  V30 4555 O 457.701 -4.61984 -2.91947 0
M  V30 4556 H 454.795 -0.679467 -0.471438 0
M  V30 4557 H 457.341 -1.67729 -0.257918 0
M  V30 4558 H 456.113 -3.80309 -0.920915 0
M  V30 4559 H 455.736 -3.10266 -2.48638 0
M  V30 4560 N 456.733 0.527833 -1.48498 0
M  V30 4561 C 457.973 1.29401 -1.58224 0
M  V30 4562 C 458.337 1.90348 -0.251327 0
M  V30 4563 O 459.538 2.67868 -0.223588 0
M  V30 4564 C 457.809 2.35266 -2.69044 0
M  V30 4565 S 459.368 3.2158 -2.98549 0
M  V30 4566 H 456.186 0.440138 -0.558391 0
M  V30 4567 H 458.788 0.601079 -1.8603 0
M  V30 4568 H 457.492 1.88975 -3.64303 0
M  V30 4569 H 457.023 3.09263 -2.43146 0
M  V30 4570 H 459.038 4.35391 -2.38011 0
M  V30 4571 N 458.211 1.37122 0.776871 0
M  V30 4572 C 459.458 1.32047 1.53524 0
M  V30 4573 C 459.786 -0.0965631 1.9426 0
M  V30 4574 O 459.041 -1.06866 1.63945 0
M  V30 4575 C 459.34 2.20068 2.81611 0
M  V30 4576 C 459.006 3.68423 2.59953 0
M  V30 4577 C 457.668 4.08854 2.53755 0
M  V30 4578 C 460.02 4.62431 2.40431 0
M  V30 4579 C 457.348 5.41417 2.26018 0
M  V30 4580 C 459.7 5.95225 2.14219 0
M  V30 4581 C 458.364 6.34767 2.06462 0
M  V30 4582 H 457.634 0.483196 0.561785 0
M  V30 4583 H 460.281 1.69284 0.895268 0
M  V30 4584 H 458.586 1.75809 3.50141 0
M  V30 4585 H 460.283 2.13458 3.39465 0
M  V30 4586 H 456.873 3.36354 2.65638 0
M  V30 4587 H 461.057 4.32057 2.44213 0
M  V30 4588 H 456.313 5.71022 2.18504 0
M  V30 4589 H 460.487 6.67626 1.98112 0
M  V30 4590 H 458.114 7.37413 1.84733 0
M  V30 4591 N 459.689 -1.00246 1.21608 0
M  V30 4592 C 460.652 -2.07233 0.979133 0
M  V30 4593 C 461.652 -1.6072 -0.0508219 0
M  V30 4594 O 462.842 -1.73196 0.186712 0
M  V30 4595 C 459.974 -3.37546 0.477016 0
M  V30 4596 H 461.167 -2.29687 1.92831 0
M  V30 4597 H 458.72 -1.17261 1.03342 0
M  V30 4598 H 459.455 -3.20773 -0.476966 0
M  V30 4599 H 459.24 -3.72638 1.21997 0
M  V30 4600 H 460.73 -4.16285 0.331181 0
M  V30 4601 N 461.167 -1.02423 -1.1978 0
M  V30 4602 C 462.392 -0.7373 -1.93852 0
M  V30 4603 C 462.817 0.696923 -1.74713 0
M  V30 4604 O 462.175 1.48056 -1.04638 0
M  V30 4605 C 462.223 -1.08783 -3.438 0
M  V30 4606 O 461.327 -0.20383 -4.11896 0
M  V30 4607 H 460.668 -0.27284 -0.605355 0
M  V30 4608 H 463.198 -1.36966 -1.51992 0
M  V30 4609 H 463.208 -1.04276 -3.9445 0
M  V30 4610 H 461.883 -2.13274 -3.57053 0
M  V30 4611 H 460.46 -0.307091 -3.71633 0
M  V30 4612 N 462.645 1.35699 -0.801477 0
M  V30 4613 C 463.893 1.9852 -0.37871 0
M  V30 4614 C 464.214 1.63907 1.05638 0
M  V30 4615 O 463.484 0.919013 1.73006 0
M  V30 4616 H 462.064 0.734322 -0.137042 0
M  V30 4617 H 464.726 1.65697 -1.02619 0
M  V30 4618 H 463.822 3.08382 -0.480284 0
M  V30 4619 N 464.123 0.554532 1.47522 0
M  V30 4620 C 465.4 -0.0360704 1.95567 0
M  V30 4621 C 465.78 -1.48828 1.49711 0
M  V30 4622 O 465.128 -2.16366 0.734717 0
M  V30 4623 C 465.338 0.106631 3.48837 0
M  V30 4624 C 466.686 -0.0400899 4.24581 0
M  V30 4625 O 467.71 0.0340453 3.56184 0
M  V30 4626 O 466.569 -0.199111 5.46137 0
M  V30 4627 H 463.663 -0.0656294 0.824392 0
M  V30 4628 H 466.209 0.620867 1.57935 0
M  V30 4629 H 464.981 1.11727 3.7501 0
M  V30 4630 H 464.604 -0.58804 3.93227 0
M  V30 4631 N 465.601 -1.54893 0.290851 0
M  V30 4632 C 466.848 -1.99933 -0.321391 0
M  V30 4633 C 467.176 -1.17927 -1.54672 0
M  V30 4634 O 466.431 -0.240902 -1.94212 0
M  V30 4635 C 466.73 -3.49815 -0.732397 0
M  V30 4636 C 466.396 -4.4921 0.390056 0
M  V30 4637 C 465.058 -4.76107 0.698223 0
M  V30 4638 C 467.41 -5.08453 1.14562 0
M  V30 4639 C 464.738 -5.59514 1.76526 0
M  V30 4640 C 467.09 -5.9302 2.2025 0
M  V30 4641 C 465.754 -6.18232 2.51684 0
M  V30 4642 H 465.024 -0.731608 -0.117605 0
M  V30 4643 H 467.671 -1.87107 0.407839 0
M  V30 4644 H 465.976 -3.60199 -1.54155 0
M  V30 4645 H 467.673 -3.82083 -1.21712 0
M  V30 4646 H 464.263 -4.28372 0.13976 0
M  V30 4647 H 468.447 -4.87683 0.920801 0
M  V30 4648 H 463.703 -5.77289 2.01364 0
M  V30 4649 H 467.877 -6.37955 2.7926 0
M  V30 4650 H 465.504 -6.82653 3.34499 0
M  V30 4651 N 467.08 -0.0183926 -1.57589 0
M  V30 4652 C 468.32 0.666846 -1.93216 0
M  V30 4653 C 468.684 1.69905 -0.894215 0
M  V30 4654 O 469.885 2.436 -1.13633 0
M  V30 4655 C 468.156 1.27684 -3.33814 0
M  V30 4656 S 469.715 1.98464 -3.91353 0
M  V30 4657 H 466.533 0.219826 -0.676164 0
M  V30 4658 H 469.135 -0.0794893 -1.95338 0
M  V30 4659 H 467.839 0.513006 -4.07181 0
M  V30 4660 H 467.37 2.06071 -3.3511 0
M  V30 4661 H 469.385 3.26189 -3.73918 0
M  V30 4662 N 468.558 1.5553 0.254621 0
M  V30 4663 C 469.506 1.9048 1.33492 0
M  V30 4664 C 470.5 0.78304 1.50216 0
M  V30 4665 O 471.706 0.967582 1.51782 0
M  V30 4666 H 468.081 0.604846 0.44684 0
M  V30 4667 H 470.052 2.80688 1.01275 0
M  V30 4668 C 468.801 2.20928 2.68489 0
M  V30 4669 H 468.124 3.06742 2.56417 0
M  V30 4670 H 469.564 2.49291 3.42972 0
M  V30 4671 C 468.023 1.023 3.20993 0
M  V30 4672 O 468.553 0.267027 4.00811 0
M  V30 4673 N 466.759 0.815714 2.78917 0
M  V30 4674 H 466.306 1.43217 2.14119 0
M  V30 4675 H 466.264 0.0236532 3.14391 0
M  V30 4676 N 470.036 -0.519951 1.48776 0
M  V30 4677 C 470.984 -1.64443 1.64503 0
M  V30 4678 C 471.978 -1.61501 0.511248 0
M  V30 4679 O 473.184 -1.66238 0.690294 0
M  V30 4680 H 469.559 -0.544776 0.518385 0
M  V30 4681 H 471.53 -1.48325 2.58925 0
M  V30 4682 C 470.279 -3.02673 1.71127 0
M  V30 4683 H 469.602 -3.05635 2.57735 0
M  V30 4684 H 471.042 -3.80941 1.86172 0
M  V30 4685 C 469.501 -3.33854 0.452032 0
M  V30 4686 O 470.031 -3.99385 -0.430678 0
M  V30 4687 N 468.237 -2.88825 0.32069 0
M  V30 4688 H 467.784 -2.35674 1.03998 0
M  V30 4689 H 467.742 -3.10056 -0.520814 0
M  V30 4690 N 471.514 -1.37532 -0.769588 0
M  V30 4691 C 472.754 -1.34261 -1.54122 0
M  V30 4692 C 473.118 0.0717222 -1.91866 0
M  V30 4693 O 474.319 0.22918 -2.67821 0
M  V30 4694 C 472.59 -2.2574 -2.77086 0
M  V30 4695 S 474.149 -2.40339 -3.67127 0
M  V30 4696 H 470.967 -0.476595 -0.527615 0
M  V30 4697 H 473.569 -1.73303 -0.90479 0
M  V30 4698 H 472.273 -3.27417 -2.4744 0
M  V30 4699 H 471.804 -1.87789 -3.45686 0
M  V30 4700 H 473.819 -1.61558 -4.69163 0
M  V30 4701 N 472.992 0.995999 -1.22138 0
M  V30 4702 C 473.94 2.10673 -0.985876 0
M  V30 4703 C 474.934 1.69255 0.0699553 0
M  V30 4704 O 476.14 1.79812 -0.0822176 0
M  V30 4705 H 472.515 0.688865 -0.30161 0
M  V30 4706 H 474.486 2.27711 -1.92848 0
M  V30 4707 C 473.235 3.42881 -0.576909 0
M  V30 4708 H 472.558 3.75191 -1.38101 0
M  V30 4709 H 473.998 4.21589 -0.451518 0
M  V30 4710 C 472.457 3.29265 0.713196 0
M  V30 4711 O 472.987 3.60777 1.76643 0
M  V30 4712 N 471.193 2.82456 0.683162 0
M  V30 4713 H 470.74 2.5701 -0.174242 0
M  V30 4714 H 470.698 2.73727 1.54663 0
M  V30 4715 N 474.47 1.03057 1.19235 0
M  V30 4716 C 475.71 0.736757 1.9066 0
M  V30 4717 C 476.074 -0.721521 1.77927 0
M  V30 4718 O 477.275 -1.12849 2.43964 0
M  V30 4719 C 475.546 1.17755 3.37444 0
M  V30 4720 S 477.105 1.00783 4.27069 0
M  V30 4721 H 473.923 0.268174 0.658486 0
M  V30 4722 H 476.525 1.32076 1.4414 0
M  V30 4723 H 475.229 2.23448 3.44237 0
M  V30 4724 H 474.76 0.586912 3.88997 0
M  V30 4725 H 476.775 -0.0806356 4.96134 0
M  V30 4726 N 475.948 -1.35272 0.808662 0
M  V30 4727 C 476.896 -2.31663 0.208606 0
M  V30 4728 C 477.89 -1.56731 -0.642778 0
M  V30 4729 O 479.096 -1.71843 -0.53571 0
M  V30 4730 H 475.471 -0.750421 0.0486993 0
M  V30 4731 H 477.442 -2.79814 1.03666 0
M  V30 4732 C 476.191 -3.42008 -0.626573 0
M  V30 4733 H 475.514 -3.99795 0.0192103 0
M  V30 4734 H 476.954 -4.11727 -1.01278 0
M  V30 4735 C 475.413 -2.85226 -1.79298 0
M  V30 4736 O 475.943 -2.78945 -2.89055 0
M  V30 4737 N 474.149 -2.42245 -1.60516 0
M  V30 4738 H 473.696 -2.47554 -0.712375 0
M  V30 4739 H 473.654 -2.04603 -2.38715 0
M  V30 4740 N 477.426 -0.562348 -1.47226 0
M  V30 4741 C 478.374 0.195476 -2.31777 0
M  V30 4742 C 479.368 0.90433 -1.43242 0
M  V30 4743 O 480.574 0.825031 -1.59979 0
M  V30 4744 H 476.949 0.0819095 -0.747526 0
M  V30 4745 H 478.92 -0.536753 -2.93533 0
M  V30 4746 C 477.669 1.20902 -3.26003 0
M  V30 4747 H 476.992 0.672997 -3.94095 0
M  V30 4748 H 478.432 1.71006 -3.87986 0
M  V30 4749 C 476.891 2.25955 -2.49891 0
M  V30 4750 O 477.421 3.32969 -2.2471 0
M  V30 4751 N 475.627 2.00019 -2.1081 0
M  V30 4752 H 475.174 1.13006 -2.31489 0
M  V30 4753 H 475.132 2.70523 -1.60201 0
M  V30 4754 N 478.904 1.54736 -0.299062 0
M  V30 4755 C 480.144 2.0201 0.31168 0
M  V30 4756 C 480.508 1.18281 1.5124 0
M  V30 4757 O 481.709 1.55243 2.19438 0
M  V30 4758 C 479.98 3.5123 0.661227 0
M  V30 4759 S 481.539 4.20467 1.2551 0
M  V30 4760 H 478.357 0.704523 0.0957517 0
M  V30 4761 H 480.959 1.90791 -0.426482 0
M  V30 4762 H 479.663 4.09804 -0.221171 0
M  V30 4763 H 479.194 3.66481 1.43023 0
M  V30 4764 H 481.209 4.26083 2.54298 0
M  V30 4765 N 480.382 0.0267497 1.57577 0
M  V30 4766 C 481.622 -0.65659 1.93567 0
M  V30 4767 C 481.986 -1.69429 0.903213 0
M  V30 4768 O 483.187 -2.42994 1.14923 0
M  V30 4769 C 481.458 -1.25912 3.34486 0
M  V30 4770 S 483.017 -1.96386 3.924 0
M  V30 4771 H 479.835 -0.216237 0.67732 0
M  V30 4772 H 482.437 0.0898475 1.95293 0
M  V30 4773 H 481.141 -0.491405 4.07447 0
M  V30 4774 H 480.672 -2.04291 3.36198 0
M  V30 4775 H 482.687 -3.24202 3.75643 0
M  V30 4776 N 481.861 -1.55662 -0.24637 0
M  V30 4777 C 482.809 -1.91186 -1.3248 0
M  V30 4778 C 483.803 -0.790996 -1.49799 0
M  V30 4779 O 485.009 -0.975617 -1.51267 0
M  V30 4780 H 481.384 -0.607207 -0.443626 0
M  V30 4781 H 483.355 -2.81221 -0.997853 0
M  V30 4782 C 482.104 -2.22349 -2.67313 0
M  V30 4783 H 481.427 -3.08097 -2.54786 0
M  V30 4784 H 482.867 -2.51107 -3.41645 0
M  V30 4785 C 481.326 -1.04001 -3.20446 0
M  V30 4786 O 481.856 -0.28828 -4.00664 0
M  V30 4787 N 480.062 -0.830494 -2.7848 0
M  V30 4788 H 479.609 -1.4435 -2.13356 0
M  V30 4789 H 479.567 -0.0403258 -3.14374 0
M  V30 4790 N 483.339 0.512053 -1.4905 0
M  V30 4791 C 484.287 1.63568 -1.65373 0
M  V30 4792 C 485.281 1.61228 -0.519806 0
M  V30 4793 O 486.487 1.65869 -0.699101 0
M  V30 4794 H 482.862 0.542019 -0.521267 0
M  V30 4795 H 484.833 1.4695 -2.59708 0
M  V30 4796 C 483.582 3.01761 -1.7273 0
M  V30 4797 H 482.905 3.04263 -2.59353 0
M  V30 4798 H 484.345 3.79948 -1.8819 0
M  V30 4799 C 482.804 3.33609 -0.46973 0
M  V30 4800 O 483.334 3.99607 0.409492 0
M  V30 4801 N 481.54 2.88651 -0.336003 0
M  V30 4802 H 481.087 2.35119 -1.05247 0
M  V30 4803 H 481.045 3.10328 0.504363 0
M  V30 4804 N 484.817 1.37938 0.762283 0
M  V30 4805 C 485.747 1.37176 1.88958 0
M  V30 4806 C 486.728 0.238945 1.68413 0
M  V30 4807 O 487.913 0.440726 1.89133 0
M  V30 4808 C 485.043 1.18742 3.2637 0
M  V30 4809 C 483.997 2.29136 3.61498 0
M  V30 4810 C 483.323 1.95816 4.97554 0
M  V30 4811 C 484.623 3.71363 3.6727 0
M  V30 4812 H 486.317 2.31509 1.89853 0
M  V30 4813 H 483.863 1.11438 0.912005 0
M  V30 4814 H 485.816 1.16837 4.04879 0
M  V30 4815 H 484.54 0.208683 3.25933 0
M  V30 4816 H 483.199 2.30213 2.85303 0
M  V30 4817 H 482.847 0.964475 4.93667 0
M  V30 4818 H 482.547 2.69745 5.22026 0
M  V30 4819 H 484.071 1.95513 5.78452 0
M  V30 4820 H 485.485 3.72364 4.35911 0
M  V30 4821 H 483.882 4.44425 4.03245 0
M  V30 4822 H 484.952 4.04305 2.67704 0
M  V30 4823 N 486.295 -0.989507 1.22664 0
M  V30 4824 C 487.245 -2.06478 0.967005 0
M  V30 4825 C 488.229 -1.60682 -0.0836374 0
M  V30 4826 O 489.421 -1.76541 0.127322 0
M  V30 4827 C 486.55 -3.38861 0.550313 0
M  V30 4828 C 485.636 -3.9128 1.63587 0
M  V30 4829 N 486.027 -4.16884 2.86429 0
M  V30 4830 C 484.325 -4.1972 1.50834 0
M  V30 4831 C 485.026 -4.5954 3.56648 0
M  V30 4832 N 484.002 -4.63434 2.84131 0
M  V30 4833 H 487.804 -2.24219 1.90008 0
M  V30 4834 H 485.318 -1.17153 1.12467 0
M  V30 4835 H 487.315 -4.15465 0.345612 0
M  V30 4836 H 485.975 -3.22518 -0.375822 0
M  V30 4837 H 486.986 -4.04976 3.22823 0
M  V30 4838 H 483.663 -4.1243 0.648643 0
M  V30 4839 H 485.053 -4.87944 4.61909 0
M  V30 4840 N 487.773 -1.03688 -1.18687 0
M  V30 4841 C 488.723 -0.595067 -2.20098 0
M  V30 4842 C 489.707 0.360465 -1.5681 0
M  V30 4843 O 490.899 0.180136 -1.76081 0
M  V30 4844 C 488.028 0.0444495 -3.43271 0
M  V30 4845 C 487.114 -0.934002 -4.13687 0
M  V30 4846 N 487.505 -2.09957 -4.60165 0
M  V30 4847 C 485.803 -0.759177 -4.39491 0
M  V30 4848 C 486.504 -2.71735 -5.1433 0
M  V30 4849 N 485.48 -1.99638 -5.05614 0
M  V30 4850 H 489.282 -1.48336 -2.5372 0
M  V30 4851 H 486.796 -0.904949 -1.3485 0
M  V30 4852 H 488.793 0.37864 -4.15177 0
M  V30 4853 H 487.453 0.928325 -3.11147 0
M  V30 4854 H 488.464 -2.47863 -4.54735 0
M  V30 4855 H 485.141 0.0749292 -4.17433 0
M  V30 4856 H 486.531 -3.70492 -5.60523 0
M  V30 4857 N 489.251 1.34841 -0.815825 0
M  V30 4858 C 490.528 1.92908 -0.323416 0
M  V30 4859 C 490.908 1.74479 1.18828 0
M  V30 4860 O 490.256 1.11928 1.99209 0
M  V30 4861 C 490.466 3.40957 -0.744952 0
M  V30 4862 C 491.814 4.18107 -0.739716 0
M  V30 4863 O 492.838 3.49511 -0.68708 0
M  V30 4864 O 491.697 5.40517 -0.806456 0
M  V30 4865 H 488.791 0.822436 -0.0867646 0
M  V30 4866 H 491.337 1.4386 -0.90014 0
M  V30 4867 H 490.109 3.4814 -1.78646 0
M  V30 4868 H 489.732 3.97341 -0.143535 0
M  V30 4869 N 490.729 0.570148 1.46925 0
M  V30 4870 C 491.978 0.0487352 2.01641 0
M  V30 4871 C 492.291 -1.31433 1.44861 0
M  V30 4872 O 493.497 -1.92638 1.91318 0
M  V30 4873 C 491.953 0.0365817 3.59881 0
M  V30 4874 C 491.561 1.39719 4.25655 0
M  V30 4875 C 493.305 -0.431545 4.22301 0
M  V30 4876 C 491.212 1.34345 5.75939 0
M  V30 4877 H 490.142 0.0144492 0.753862 0
M  V30 4878 H 492.793 0.719928 1.68788 0
M  V30 4879 H 491.175 -0.700522 3.89755 0
M  V30 4880 H 492.349 2.15303 4.07408 0
M  V30 4881 H 490.664 1.80431 3.75278 0
M  V30 4882 H 493.261 -0.490354 5.32447 0
M  V30 4883 H 493.604 -1.44638 3.90366 0
M  V30 4884 H 494.137 0.251102 3.97007 0
M  V30 4885 H 490.876 2.33469 6.12513 0
M  V30 4886 H 490.396 0.629615 5.96486 0
M  V30 4887 H 492.075 1.051 6.38407 0
M  V30 4888 N 492.207 -1.54576 0.307264 0
M  V30 4889 C 493.117 -2.27435 -0.57536 0
M  V30 4890 C 494.133 -1.31183 -1.14311 0
M  V30 4891 O 495.309 -1.64175 -1.16656 0
M  V30 4892 C 492.374 -3.00566 -1.72803 0
M  V30 4893 C 491.435 -4.12369 -1.19373 0
M  V30 4894 C 490.668 -4.82003 -2.29147 0
M  V30 4895 O 490.891 -4.51038 -3.49171 0
M  V30 4896 O 489.825 -5.69271 -1.95485 0
M  V30 4897 H 493.651 -3.03696 0.0158558 0
M  V30 4898 H 491.236 -1.49219 0.0735064 0
M  V30 4899 H 493.118 -3.46416 -2.39946 0
M  V30 4900 H 491.793 -2.27195 -2.30574 0
M  V30 4901 H 490.7 -3.70905 -0.487851 0
M  V30 4902 H 492.033 -4.87736 -0.661376 0
M  V30 4903 N 493.685 -0.035106 -1.57561 0
M  V30 4904 C 495.101 0.321334 -1.56332 0
M  V30 4905 C 495.301 1.72509 -1.04129 0
M  V30 4906 O 494.357 2.4287 -0.690694 0
M  V30 4907 C 495.67 0.164469 -3.0025 0
M  V30 4908 C 497.218 0.236786 -3.12103 0
M  V30 4909 C 497.693 0.10864 -4.57871 0
M  V30 4910 N 499.184 0.165433 -4.62904 0
M  V30 4911 C 499.919 0.0901506 -5.73329 0
M  V30 4912 N 499.415 -0.0365606 -6.9279 0
M  V30 4913 N 501.208 0.144572 -5.61914 0
M  V30 4914 H 493.359 -0.952976 -1.89821 0
M  V30 4915 H 495.622 -0.368537 -0.873432 0
M  V30 4916 H 495.328 -0.802746 -3.42416 0
M  V30 4917 H 495.202 0.932194 -3.655 0
M  V30 4918 H 497.589 1.19446 -2.69845 0
M  V30 4919 H 497.67 -0.561419 -2.49563 0
M  V30 4920 H 497.314 -0.845644 -5.00811 0
M  V30 4921 H 497.244 0.925786 -5.18398 0
M  V30 4922 H 499.735 0.263269 -3.76982 0
M  V30 4923 H 500.048 -0.0871487 -7.72751 0
M  V30 4924 H 498.393 -0.0714256 -6.94963 0
M  V30 4925 H 501.584 0.242006 -4.67474 0
M  V30 4926 H 501.757 0.0824413 -6.47948 0
M  V30 4927 N 495.163 1.55791 0.238111 0
M  V30 4928 C 496.41 1.78033 0.964907 0
M  V30 4929 C 496.738 0.600984 1.84982 0
M  V30 4930 O 495.993 -0.41536 1.91241 0
M  V30 4931 C 496.292 3.05869 1.84875 0
M  V30 4932 C 495.958 4.36808 1.11846 0
M  V30 4933 C 494.62 4.72388 0.916662 0
M  V30 4934 C 496.972 5.17717 0.60151 0
M  V30 4935 C 494.3 5.86406 0.185756 0
M  V30 4936 C 496.652 6.32494 -0.115972 0
M  V30 4937 C 495.316 6.66688 -0.329168 0
M  V30 4938 H 494.586 0.651469 0.353085 0
M  V30 4939 H 497.233 1.90061 0.234318 0
M  V30 4940 H 495.538 2.88891 2.64668 0
M  V30 4941 H 497.235 3.20278 2.41294 0
M  V30 4942 H 493.825 4.08862 1.28569 0
M  V30 4943 H 498.009 4.90678 0.744932 0
M  V30 4944 H 493.265 6.11399 0.0101886 0
M  V30 4945 H 497.439 6.94425 -0.524127 0
M  V30 4946 H 495.066 7.54884 -0.897474 0
M  V30 4947 N 496.642 -0.504142 1.49319 0
M  V30 4948 C 497.589 -1.60603 1.65756 0
M  V30 4949 C 498.559 -1.58425 0.499082 0
M  V30 4950 O 499.744 -1.76459 0.725728 0
M  V30 4951 C 496.884 -2.98764 1.72726 0
M  V30 4952 C 495.997 -3.10982 2.99857 0
M  V30 4953 C 495.132 -4.39857 2.97824 0
M  V30 4954 C 494.171 -4.45697 4.19548 0
M  V30 4955 N 493.308 -5.65995 4.15444 0
M  V30 4956 H 498.148 -1.45895 2.59843 0
M  V30 4957 H 495.685 -0.709891 1.28837 0
M  V30 4958 H 497.643 -3.78839 1.74747 0
M  V30 4959 H 496.273 -3.12183 0.821075 0
M  V30 4960 H 495.325 -2.23991 3.07461 0
M  V30 4961 H 496.637 -3.11157 3.89849 0
M  V30 4962 H 495.791 -5.2825 2.98391 0
M  V30 4963 H 494.53 -4.42242 2.05604 0
M  V30 4964 H 493.535 -3.55707 4.19229 0
M  V30 4965 H 494.76 -4.4503 5.12957 0
M  V30 4966 H 492.706 -5.69229 3.26059 0
M  V30 4967 H 492.623 -5.67773 4.99169 0
M  V30 4968 H 493.891 -6.56604 4.20109 0
M  V30 4969 N 498.12 -1.38341 -0.754957 0
M  V30 4970 C 499.083 -1.35262 -1.85032 0
M  V30 4971 C 500.083 -0.253393 -1.58791 0
M  V30 4972 O 501.273 -0.510205 -1.66561 0
M  V30 4973 C 498.405 -1.10544 -3.22479 0
M  V30 4974 H 499.598 -2.32712 -1.8917 0
M  V30 4975 H 497.151 -1.23614 -0.956515 0
M  V30 4976 H 497.886 -0.136952 -3.24011 0
M  V30 4977 H 497.671 -1.90127 -3.4292 0
M  V30 4978 H 499.161 -1.11082 -4.02555 0
M  V30 4979 N 499.598 0.982988 -1.23187 0
M  V30 4980 C 500.847 1.71817 -1.05649 0
M  V30 4981 C 501.16 1.91315 0.407176 0
M  V30 4982 O 502.366 2.62256 0.702436 0
M  V30 4983 C 500.822 3.09188 -1.84203 0
M  V30 4984 C 500.43 2.97586 -3.34882 0
M  V30 4985 C 502.174 3.86684 -1.75146 0
M  V30 4986 C 500.081 4.30173 -4.05839 0
M  V30 4987 H 499.011 0.644258 -0.391724 0
M  V30 4988 H 501.662 1.09659 -1.4713 0
M  V30 4989 H 500.044 3.72087 -1.35527 0
M  V30 4990 H 501.218 2.43793 -3.91026 0
M  V30 4991 H 499.533 2.33567 -3.44725 0
M  V30 4992 H 502.13 4.84836 -2.25473 0
M  V30 4993 H 502.473 4.10136 -0.713737 0
M  V30 4994 H 503.006 3.30482 -2.21419 0
M  V30 4995 H 499.745 4.11918 -5.09906 0
M  V30 4996 H 499.265 4.83841 -3.54482 0
M  V30 4997 H 500.944 4.98873 -4.11989 0
M  V30 4998 N 501.076 1.04316 1.18135 0
M  V30 4999 C 502.023 0.636398 2.21853 0
M  V30 5000 C 502.993 -0.357039 1.62217 0
M  V30 5001 O 504.178 -0.250453 1.89149 0
M  V30 5002 C 501.318 0.00812779 3.45099 0
M  V30 5003 C 500.431 1.04933 4.19062 0
M  V30 5004 C 499.566 0.389313 5.29771 0
M  V30 5005 C 498.605 1.41544 5.9551 0
M  V30 5006 N 497.742 0.78021 6.97751 0
M  V30 5007 H 502.582 1.52536 2.56002 0
M  V30 5008 H 500.119 0.76304 1.25762 0
M  V30 5009 H 502.077 -0.373497 4.15525 0
M  V30 5010 H 500.707 -0.844336 3.11562 0
M  V30 5011 H 499.759 1.54888 3.47439 0
M  V30 5012 H 501.071 1.82862 4.64072 0
M  V30 5013 H 500.225 -0.0463805 6.06682 0
M  V30 5014 H 498.964 -0.422038 4.8587 0
M  V30 5015 H 497.969 1.86124 5.17337 0
M  V30 5016 H 499.194 2.22854 6.41493 0
M  V30 5017 H 497.14 -0.0107899 6.55999 0
M  V30 5018 H 497.057 1.49716 7.41027 0
M  V30 5019 H 498.325 0.368996 7.78626 0
M  V30 5020 N 502.554 -1.34406 0.822964 0
M  V30 5021 C 503.517 -2.2783 0.250271 0
M  V30 5022 C 504.517 -1.50288 -0.571854 0
M  V30 5023 O 505.707 -1.69825 -0.387952 0
M  V30 5024 C 502.839 -3.34663 -0.649137 0
M  V30 5025 H 504.032 -2.79992 1.07444 0
M  V30 5026 H 501.585 -1.44539 0.594829 0
M  V30 5027 H 502.32 -2.87714 -1.49637 0
M  V30 5028 H 502.105 -3.92052 -0.0611199 0
M  V30 5029 H 503.595 -4.04349 -1.04363 0
M  V30 5030 N 504.032 -0.577932 -1.46621 0
M  V30 5031 C 505.272 -0.0643097 -2.04299 0
M  V30 5032 C 505.636 1.26967 -1.44026 0
M  V30 5033 O 506.837 1.87224 -1.92875 0
M  V30 5034 C 505.108 0.00547588 -3.574 0
M  V30 5035 S 506.667 0.462216 -4.36359 0
M  V30 5036 H 503.485 -0.0351573 -0.71013 0
M  V30 5037 H 506.087 -0.76935 -1.79725 0
M  V30 5038 H 504.791 -0.969423 -3.98786 0
M  V30 5039 H 504.322 0.733435 -3.86503 0
M  V30 5040 H 506.337 1.71791 -4.65513 0
M  V30 5041 N 505.51 1.54411 -0.315457 0
M  V30 5042 C 506.44 2.27002 0.547039 0
M  V30 5043 C 507.421 1.27492 1.12605 0
M  V30 5044 O 508.606 1.5629 1.15269 0
M  V30 5045 C 505.736 3.02171 1.71201 0
M  V30 5046 C 504.69 4.0895 1.26268 0
M  V30 5047 C 504.016 4.71915 2.51396 0
M  V30 5048 C 505.316 5.20891 0.383419 0
M  V30 5049 H 507.01 2.99343 -0.0584517 0
M  V30 5050 H 504.556 1.4397 -0.0295527 0
M  V30 5051 H 506.509 3.51681 2.32161 0
M  V30 5052 H 505.233 2.27433 2.34397 0
M  V30 5053 H 503.892 3.60312 0.676062 0
M  V30 5054 H 503.54 3.93801 3.12937 0
M  V30 5055 H 503.24 5.44039 2.22026 0
M  V30 5056 H 504.764 5.24195 3.13133 0
M  V30 5057 H 506.178 5.66206 0.899082 0
M  V30 5058 H 504.575 5.99821 0.182857 0
M  V30 5059 H 505.645 4.81324 -0.587821 0
M  V30 5060 N 506.988 0.0434614 1.5754 0
M  V30 5061 C 508.236 -0.630786 1.92004 0
M  V30 5062 C 508.557 -1.71836 0.921807 0
M  V30 5063 O 507.827 -1.9587 -0.034522 0
M  V30 5064 H 506.407 -0.235988 0.708745 0
M  V30 5065 H 509.069 0.0946462 1.9467 0
M  V30 5066 H 508.165 -1.07434 2.93026 0
M  V30 5067 N 508.466 -1.55915 -0.229846 0
M  V30 5068 C 509.882 -1.48721 -0.579166 0
M  V30 5069 C 510.082 -0.736976 -1.87539 0
M  V30 5070 O 509.138 -0.273258 -2.51017 0
M  V30 5071 C 510.451 -2.9323 -0.666082 0
M  V30 5072 C 511.999 -3.03701 -0.757267 0
M  V30 5073 C 512.474 -4.49552 -0.8756 0
M  V30 5074 N 513.965 -4.53561 -0.940035 0
M  V30 5075 C 514.7 -5.63683 -1.05116 0
M  V30 5076 N 514.196 -6.83576 -1.12675 0
M  V30 5077 N 515.989 -5.51516 -1.08565 0
M  V30 5078 H 508.14 -2.03123 0.620857 0
M  V30 5079 H 510.403 -0.922898 0.21671 0
M  V30 5080 H 510.109 -3.51032 0.21664 0
M  V30 5081 H 509.983 -3.44668 -1.53243 0
M  V30 5082 H 512.37 -2.45969 -1.63043 0
M  V30 5083 H 512.451 -2.55446 0.134583 0
M  V30 5084 H 512.095 -5.079 -0.00692351 0
M  V30 5085 H 512.025 -4.95506 -1.78274 0
M  V30 5086 H 514.516 -3.67215 -0.892269 0
M  V30 5087 H 514.829 -7.63251 -1.21109 0
M  V30 5088 H 513.174 -6.86303 -1.09603 0
M  V30 5089 H 516.365 -4.5678 -1.02319 0
M  V30 5090 H 516.538 -6.37372 -1.1688 0
M  V30 5091 N 509.944 0.496216 -1.49584 0
M  V30 5092 C 510.892 1.61805 -1.67098 0
M  V30 5093 C 511.886 1.60667 -0.536877 0
M  V30 5094 O 513.092 1.65118 -0.716654 0
M  V30 5095 H 509.467 0.53646 -0.526986 0
M  V30 5096 H 511.438 1.44187 -2.61252 0
M  V30 5097 C 510.187 2.99912 -1.75921 0
M  V30 5098 H 509.51 3.01496 -2.62565 0
M  V30 5099 H 510.95 3.77931 -1.92209 0
M  V30 5100 C 509.409 3.33092 -0.505088 0
M  V30 5101 O 509.939 4.00019 0.367085 0
M  V30 5102 N 508.145 2.88278 -0.366599 0
M  V30 5103 H 507.692 2.33989 -1.07735 0
M  V30 5104 H 507.65 3.10846 0.47142 0
M  V30 5105 N 511.423 1.38739 0.74761 0
M  V30 5106 C 512.834 1.31507 1.32524 0
M  V30 5107 C 513.185 -0.0263963 1.96182 0
M  V30 5108 O 512.31 -0.92849 1.95469 0
M  V30 5109 C 512.905 2.38162 2.40966 0
M  V30 5110 C 511.464 2.34489 2.94434 0
M  V30 5111 C 510.611 2.20712 1.67873 0
M  V30 5112 H 513.562 1.4901 0.546043 0
M  V30 5113 H 513.583 2.04222 3.21051 0
M  V30 5114 H 513.095 3.35783 1.94605 0
M  V30 5115 H 511.196 1.40467 3.45108 0
M  V30 5116 H 511.309 3.28861 3.48407 0
M  V30 5117 H 509.673 1.67667 1.91729 0
M  V30 5118 H 510.456 3.20285 1.23582 0
M  V30 5119 N 512.901 -0.976442 1.23707 0
M  V30 5120 C 513.811 -2.10359 1.03856 0
M  V30 5121 C 514.827 -1.73991 -0.0180919 0
M  V30 5122 O 516.003 -2.0061 0.178211 0
M  V30 5123 C 513.068 -3.40809 0.636387 0
M  V30 5124 C 512.129 -3.91179 1.76854 0
M  V30 5125 C 511.362 -5.15404 1.38546 0
M  V30 5126 O 511.585 -5.69754 0.27142 0
M  V30 5127 O 510.519 -5.5994 2.20797 0
M  V30 5128 H 514.345 -2.29997 1.98331 0
M  V30 5129 H 511.93 -1.08742 1.02448 0
M  V30 5130 H 513.812 -4.19269 0.423223 0
M  V30 5131 H 512.487 -3.22493 -0.279322 0
M  V30 5132 H 511.394 -3.13819 2.03638 0
M  V30 5133 H 512.727 -4.13958 2.6627 0
M  V30 5134 N 514.379 -1.04941 -1.1758 0
M  V30 5135 C 515.342 -0.652456 -2.19717 0
M  V30 5136 C 516.342 0.294745 -1.58076 0
M  V30 5137 O 517.532 0.0789579 -1.74021 0
M  V30 5138 C 514.664 0.0420712 -3.40874 0
M  V30 5139 H 515.857 -1.55642 -2.5635 0
M  V30 5140 H 513.41 -0.842995 -1.31618 0
M  V30 5141 H 514.145 0.95943 -3.09783 0
M  V30 5142 H 513.93 -0.638844 -3.86861 0
M  V30 5143 H 515.42 0.306 -4.16477 0
M  V30 5144 N 515.857 1.33968 -0.830081 0
M  V30 5145 C 517.104 1.98063 -0.421566 0
M  V30 5146 C 517.432 1.65787 1.0171 0
M  V30 5147 O 516.687 0.925348 1.72441 0
M  V30 5148 C 516.986 3.52679 -0.57898 0
M  V30 5149 C 516.652 4.04884 -1.98443 0
M  V30 5150 C 515.314 4.18852 -2.36888 0
M  V30 5151 C 517.666 4.32879 -2.90285 0
M  V30 5152 C 514.994 4.58145 -3.66497 0
M  V30 5153 C 517.346 4.7362 -4.19364 0
M  V30 5154 C 516.01 4.85794 -4.57778 0
M  V30 5155 H 515.28 0.724765 -0.154262 0
M  V30 5156 H 517.927 1.59792 -1.05541 0
M  V30 5157 H 516.232 3.91556 0.138219 0
M  V30 5158 H 517.929 4.00261 -0.243317 0
M  V30 5159 H 514.519 3.9448 -1.67581 0
M  V30 5160 H 518.703 4.21619 -2.61823 0
M  V30 5161 H 513.959 4.65762 -3.96075 0
M  V30 5162 H 518.133 4.9424 -4.90612 0
M  V30 5163 H 515.76 5.15998 -5.58256 0
M  V30 5164 N 517.335 0.585699 1.46312 0
M  V30 5165 C 518.267 -0.183687 2.28463 0
M  V30 5166 C 519.28 -0.85264 1.38686 0
M  V30 5167 O 520.469 -0.721701 1.6326 0
M  V30 5168 C 517.569 -1.27977 3.13808 0
M  V30 5169 C 516.742 -0.702164 4.31727 0
M  V30 5170 C 515.801 -1.68633 4.98447 0
M  V30 5171 O 514.827 -1.22121 5.55945 0
M  V30 5172 N 516.029 -3.02047 4.95729 0
M  V30 5173 H 518.794 0.521127 2.95134 0
M  V30 5174 H 516.355 0.423673 1.56258 0
M  V30 5175 H 518.347 -1.9375 3.55307 0
M  V30 5176 H 516.917 -1.8874 2.4919 0
M  V30 5177 H 516.137 0.1331 3.93975 0
M  V30 5178 H 517.425 -0.296101 5.07938 0
M  V30 5179 H 516.823 -3.42457 4.50266 0
M  V30 5180 H 515.38 -3.63301 5.41161 0
M  V30 5181 N 518.813 -1.54241 0.323641 0
M  V30 5182 C 520.224 -1.85975 -0.164405 0
M  V30 5183 C 520.575 -1.24529 -1.51615 0
M  V30 5184 O 519.7 -0.551351 -2.09258 0
M  V30 5185 C 520.295 -3.37424 -0.305091 0
M  V30 5186 C 518.854 -3.69107 -0.737358 0
M  V30 5187 C 518.001 -2.76942 0.140884 0
M  V30 5188 H 520.952 -1.49088 0.543922 0
M  V30 5189 H 520.973 -3.63147 -1.13598 0
M  V30 5190 H 520.485 -3.82116 0.678876 0
M  V30 5191 H 518.586 -3.29947 -1.73107 0
M  V30 5192 H 518.699 -4.76035 -0.541053 0
M  V30 5193 H 517.063 -2.51795 -0.383572 0
M  V30 5194 H 517.846 -3.24461 1.12162 0
M  V30 5195 N 520.291 -0.0518155 -1.57515 0
M  V30 5196 C 521.238 0.922352 -2.11569 0
M  V30 5197 C 522.208 1.30842 -1.02321 0
M  V30 5198 O 523.393 1.39778 -1.29872 0
M  V30 5199 C 520.533 2.19167 -2.6657 0
M  V30 5200 C 519.646 1.86003 -3.89906 0
M  V30 5201 C 518.781 3.07398 -4.33221 0
M  V30 5202 C 517.82 2.70158 -5.49255 0
M  V30 5203 N 516.957 3.84248 -5.8762 0
M  V30 5204 H 521.797 0.454506 -2.94514 0
M  V30 5205 H 519.334 0.212718 -1.45554 0
M  V30 5206 H 521.292 2.93443 -2.96559 0
M  V30 5207 H 519.922 2.63528 -1.86421 0
M  V30 5208 H 518.974 1.01874 -3.66505 0
M  V30 5209 H 520.286 1.54592 -4.74239 0
M  V30 5210 H 519.44 3.89972 -4.64765 0
M  V30 5211 H 518.179 3.41988 -3.477 0
M  V30 5212 H 517.184 1.86001 -5.17382 0
M  V30 5213 H 518.409 2.36759 -6.36492 0
M  V30 5214 H 516.355 4.18638 -5.05053 0
M  V30 5215 H 516.272 3.56538 -6.66646 0
M  V30 5216 H 517.54 4.6746 -6.2378 0
M  V30 5217 N 521.769 1.56035 0.221574 0
M  V30 5218 C 523.018 1.78245 0.944016 0
M  V30 5219 C 523.331 0.620371 1.85501 0
M  V30 5220 O 524.537 0.726103 2.6161 0
M  V30 5221 C 522.993 3.15659 1.7288 0
M  V30 5222 C 522.601 4.39591 0.863942 0
M  V30 5223 C 524.345 3.47195 2.44246 0
M  V30 5224 C 522.252 5.6803 1.64607 0
M  V30 5225 H 521.182 0.664547 0.356222 0
M  V30 5226 H 523.833 1.8243 0.197904 0
M  V30 5227 H 522.215 3.0565 2.51781 0
M  V30 5228 H 523.389 4.60655 0.115464 0
M  V30 5229 H 521.704 4.15572 0.262407 0
M  V30 5230 H 524.301 4.40381 3.03263 0
M  V30 5231 H 524.644 2.69693 3.1713 0
M  V30 5232 H 525.177 3.58533 1.72334 0
M  V30 5233 H 521.916 6.48425 0.960507 0
M  V30 5234 H 521.436 5.51027 2.36917 0
M  V30 5235 H 523.115 6.08203 2.20675 0
M  V30 5236 N 523.247 -0.488276 1.49845 0
M  V30 5237 C 524.495 -1.23911 1.59657 0
M  V30 5238 C 524.816 -1.92816 0.291005 0
M  V30 5239 O 524.086 -1.83328 -0.690485 0
M  V30 5240 H 522.666 -0.460357 0.588286 0
M  V30 5241 H 525.328 -0.564794 1.86537 0
M  V30 5242 H 524.424 -1.99625 2.39909 0
M  V30 5243 N 524.725 -1.39134 -0.740242 0
M  V30 5244 C 525.672 -1.37434 -1.8542 0
M  V30 5245 C 526.642 -0.234822 -1.64432 0
M  V30 5246 O 527.827 -0.429125 -1.85912 0
M  V30 5247 C 524.967 -1.21844 -3.22875 0
M  V30 5248 C 524.08 -2.45296 -3.55603 0
M  V30 5249 C 523.215 -2.22334 -4.82432 0
M  V30 5250 C 522.254 -3.41488 -5.07988 0
M  V30 5251 N 521.391 -3.17877 -6.26018 0
M  V30 5252 H 526.231 -2.3266 -1.86207 0
M  V30 5253 H 523.768 -1.15578 -0.909946 0
M  V30 5254 H 525.726 -1.10818 -4.02213 0
M  V30 5255 H 524.356 -0.3025 -3.21379 0
M  V30 5256 H 523.408 -2.66945 -2.71006 0
M  V30 5257 H 524.72 -3.34063 -3.7041 0
M  V30 5258 H 523.874 -2.0852 -5.69741 0
M  V30 5259 H 522.613 -1.30954 -4.6979 0
M  V30 5260 H 521.618 -3.55807 -4.19144 0
M  V30 5261 H 522.843 -4.33763 -5.22519 0
M  V30 5262 H 520.789 -2.29156 -6.14673 0
M  V30 5263 H 520.706 -4.00198 -6.41387 0
M  V30 5264 H 521.974 -3.07746 -7.16179 0
M  V30 5265 N 526.204 0.969867 -1.24223 0
M  V30 5266 C 527.452 1.70918 -1.0785 0
M  V30 5267 C 527.773 1.91186 0.383763 0
M  V30 5268 O 527.043 1.48806 1.27411 0
M  V30 5269 H 525.623 0.633334 -0.396103 0
M  V30 5270 H 528.285 1.16689 -1.56108 0
M  V30 5271 H 527.381 2.69455 -1.57482 0
M  V30 5272 N 527.682 1.05563 1.17022 0
M  V30 5273 C 528.614 0.617888 2.20714 0
M  V30 5274 C 529.627 -0.320303 1.59618 0
M  V30 5275 O 530.816 -0.112449 1.78145 0
M  V30 5276 C 527.916 -0.115333 3.38704 0
M  V30 5277 C 527.089 0.834493 4.29366 0
M  V30 5278 C 526.148 0.141855 5.26009 0
M  V30 5279 O 525.174 0.777151 5.6387 0
M  V30 5280 N 526.376 -1.11934 5.69606 0
M  V30 5281 H 529.141 1.50981 2.58892 0
M  V30 5282 H 526.702 0.938008 1.31958 0
M  V30 5283 H 528.694 -0.588918 4.00392 0
M  V30 5284 H 527.264 -0.908967 2.99093 0
M  V30 5285 H 526.484 1.48762 3.65053 0
M  V30 5286 H 527.772 1.4791 4.86827 0
M  V30 5287 H 527.17 -1.65574 5.40927 0
M  V30 5288 H 525.727 -1.53692 6.33421 0
M  V30 5289 N 529.16 -1.33526 0.837174 0
M  V30 5290 C 530.09 -2.31764 0.284206 0
M  V30 5291 C 531.071 -1.58896 -0.607142 0
M  V30 5292 O 532.256 -1.86798 -0.531047 0
M  V30 5293 C 529.386 -3.43029 -0.542962 0
M  V30 5294 C 528.34 -4.27255 0.252451 0
M  V30 5295 C 527.666 -5.3012 -0.69836 0
M  V30 5296 C 528.966 -5.01229 1.46858 0
M  V30 5297 H 530.66 -2.78262 1.10502 0
M  V30 5298 H 528.206 -1.3378 0.532812 0
M  V30 5299 H 530.159 -4.1078 -0.940096 0
M  V30 5300 H 528.883 -2.95216 -1.39697 0
M  V30 5301 H 527.542 -3.61127 0.631124 0
M  V30 5302 H 527.19 -4.78564 -1.54872 0
M  V30 5303 H 526.89 -5.87353 -0.170274 0
M  V30 5304 H 528.414 -6.00737 -1.09305 0
M  V30 5305 H 529.828 -5.61756 1.14469 0
M  V30 5306 H 528.225 -5.68104 1.93333 0
M  V30 5307 H 529.295 -4.301 2.23924 0
M  V30 5308 N 530.638 -0.59345 -1.46 0
M  V30 5309 C 531.886 -0.082988 -2.0193 0
M  V30 5310 C 532.207 1.28569 -1.46612 0
M  V30 5311 O 531.477 1.84629 -0.654909 0
M  V30 5312 H 530.057 -0.0276882 -0.746487 0
M  V30 5313 H 532.719 -0.771657 -1.78973 0
M  V30 5314 H 531.815 -0.022079 -3.12092 0
M  V30 5315 N 532.116 1.54067 -0.331816 0
M  V30 5316 C 533.064 2.26105 0.54582 0
M  V30 5317 C 534.058 1.27816 1.11173 0
M  V30 5318 O 535.264 1.45565 1.05882 0
M  V30 5319 H 531.639 0.726363 0.194683 0
M  V30 5320 H 533.61 2.98282 -0.083931 0
M  V30 5321 C 532.359 3.03814 1.69092 0
M  V30 5322 H 531.682 3.79269 1.26473 0
M  V30 5323 H 533.122 3.57453 2.28043 0
M  V30 5324 C 531.581 2.12606 2.61343 0
M  V30 5325 O 532.111 1.71437 3.6328 0
M  V30 5326 N 530.317 1.77925 2.29763 0
M  V30 5327 H 529.864 2.11602 1.46909 0
M  V30 5328 H 529.822 1.1718 2.91747 0
M  V30 5329 N 533.594 0.0601682 1.57485 0
M  V30 5330 C 534.84 -0.612501 1.93329 0
M  V30 5331 C 535.173 -1.6996 0.939526 0
M  V30 5332 O 534.448 -1.94472 -0.0330957 0
M  V30 5333 C 534.731 -1.20025 3.39508 0
M  V30 5334 C 534.584 -0.12059 4.49638 0
M  V30 5335 C 535.903 -2.10923 3.86264 0
M  V30 5336 H 533.022 -0.221185 0.703027 0
M  V30 5337 H 535.664 0.123768 1.89596 0
M  V30 5338 H 533.814 -1.82774 3.42821 0
M  V30 5339 H 535.486 0.51185 4.58452 0
M  V30 5340 H 533.729 0.550251 4.30296 0
M  V30 5341 H 534.4 -0.572019 5.49028 0
M  V30 5342 H 536.876 -1.58124 3.84884 0
M  V30 5343 H 535.752 -2.48987 4.8918 0
M  V30 5344 H 536.013 -3.01292 3.23536 0
M  V30 5345 N 535.072 -1.5615 -0.213296 0
M  V30 5346 C 536.019 -1.93086 -1.26437 0
M  V30 5347 C 536.989 -0.789086 -1.4616 0
M  V30 5348 O 538.174 -1.04569 -1.59593 0
M  V30 5349 C 535.314 -2.26003 -2.608 0
M  V30 5350 C 534.427 -3.53156 -2.48807 0
M  V30 5351 C 533.562 -3.7548 -3.7575 0
M  V30 5352 C 532.601 -4.96119 -3.58514 0
M  V30 5353 N 531.738 -5.14791 -4.77425 0
M  V30 5354 H 536.578 -2.82707 -0.942376 0
M  V30 5355 H 534.115 -1.39919 -0.454001 0
M  V30 5356 H 536.073 -2.431 -3.39055 0
M  V30 5357 H 534.703 -1.39546 -2.91079 0
M  V30 5358 H 533.755 -3.44207 -1.61944 0
M  V30 5359 H 535.067 -4.41565 -2.31996 0
M  V30 5360 H 534.221 -3.92718 -4.62447 0
M  V30 5361 H 532.96 -2.85368 -3.95495 0
M  V30 5362 H 531.965 -4.78823 -2.70201 0
M  V30 5363 H 533.19 -5.87724 -3.40231 0
M  V30 5364 H 531.136 -4.27623 -4.97468 0
M  V30 5365 H 531.053 -5.97347 -4.63371 0
M  V30 5366 H 532.321 -5.36471 -5.65525 0
M  V30 5367 N 536.55 0.480323 -1.50102 0
M  V30 5368 C 537.961 1.06142 -1.53593 0
M  V30 5369 C 538.312 1.93335 -0.334055 0
M  V30 5370 O 537.437 2.09188 0.55403 0
M  V30 5371 C 538.032 1.9317 -2.78336 0
M  V30 5372 C 536.591 2.46405 -2.84538 0
M  V30 5373 C 535.738 1.24521 -2.4777 0
M  V30 5374 H 538.689 0.26333 -1.565 0
M  V30 5375 H 538.71 2.78123 -2.59669 0
M  V30 5376 H 538.222 1.29683 -3.65792 0
M  V30 5377 H 536.323 3.13472 -2.01411 0
M  V30 5378 H 536.436 2.82143 -3.87211 0
M  V30 5379 H 534.8 1.57706 -2.00003 0
M  V30 5380 H 535.583 0.627102 -3.37524 0
M  V30 5381 N 538.028 1.39524 0.732853 0
M  V30 5382 C 538.96 1.34318 1.85718 0
M  V30 5383 C 539.973 0.251576 1.60844 0
M  V30 5384 O 541.162 0.510685 1.71039 0
M  V30 5385 C 538.262 1.06334 3.21786 0
M  V30 5386 C 537.435 2.26813 3.73998 0
M  V30 5387 C 536.494 1.95253 4.88634 0
M  V30 5388 O 535.52 2.67957 5.02183 0
M  V30 5389 N 536.722 0.919984 5.73164 0
M  V30 5390 H 539.487 2.3121 1.90688 0
M  V30 5391 H 537.048 1.33654 0.91368 0
M  V30 5392 H 539.04 0.832363 3.96048 0
M  V30 5393 H 537.61 0.181682 3.12072 0
M  V30 5394 H 536.83 2.65849 2.91064 0
M  V30 5395 H 538.118 3.0717 4.05616 0
M  V30 5396 H 537.516 0.317487 5.64808 0
M  V30 5397 H 536.073 0.748905 6.47483 0
M  V30 5398 N 539.506 -0.963266 1.24736 0
M  V30 5399 C 540.456 -2.0438 1.01058 0
M  V30 5400 C 541.44 -1.60824 -0.0495354 0
M  V30 5401 O 542.632 -1.76232 0.164741 0
M  V30 5402 C 539.761 -3.37617 0.622067 0
M  V30 5403 C 538.847 -3.87722 1.7185 0
M  V30 5404 N 539.238 -4.10715 2.95207 0
M  V30 5405 C 537.536 -4.16426 1.59703 0
M  V30 5406 C 538.237 -4.51872 3.66315 0
M  V30 5407 N 537.213 -4.57302 2.93897 0
M  V30 5408 H 541.015 -2.20138 1.94721 0
M  V30 5409 H 538.529 -1.14741 1.14927 0
M  V30 5410 H 540.526 -4.14638 0.43366 0
M  V30 5411 H 539.186 -3.23242 -0.307327 0
M  V30 5412 H 540.197 -3.98037 3.31341 0
M  V30 5413 H 536.874 -4.10962 0.73598 0
M  V30 5414 H 538.264 -4.78037 4.72155 0
M  V30 5415 N 540.985 -1.06182 -1.16461 0
M  V30 5416 C 541.933 -0.665716 -2.2287 0
M  V30 5417 C 542.927 0.317822 -1.66392 0
M  V30 5418 O 544.133 0.182807 -1.79069 0
M  V30 5419 H 540.508 -0.197148 -0.725697 0
M  V30 5420 H 542.479 -1.57307 -2.53569 0
M  V30 5421 C 541.228 -0.0669803 -3.47635 0
M  V30 5422 H 540.551 -0.814899 -3.91407 0
M  V30 5423 H 541.991 0.172669 -4.23648 0
M  V30 5424 C 540.45 1.18913 -3.15216 0
M  V30 5425 O 540.98 2.27723 -3.30916 0
M  V30 5426 N 539.186 1.09066 -2.69357 0
M  V30 5427 H 538.733 0.20518 -2.56782 0
M  V30 5428 H 538.691 1.93195 -2.48039 0
M  V30 5429 N 542.463 1.3308 -0.844243 0
M  V30 5430 C 543.41 2.29104 -0.279323 0
M  V30 5431 C 544.38 1.54577 0.607882 0
M  V30 5432 O 545.565 1.8285 0.545009 0
M  V30 5433 C 542.705 3.40927 0.53508 0
M  V30 5434 C 541.818 4.30354 -0.376749 0
M  V30 5435 C 540.953 5.29297 0.449276 0
M  V30 5436 C 539.992 6.10365 -0.460606 0
M  V30 5437 N 539.129 7.01335 0.327612 0
M  V30 5438 H 543.969 2.76817 -1.10346 0
M  V30 5439 H 541.506 1.36203 -0.555611 0
M  V30 5440 H 543.464 4.04469 1.02278 0
M  V30 5441 H 542.094 2.94391 1.32414 0
M  V30 5442 H 541.146 3.67485 -0.982791 0
M  V30 5443 H 542.458 4.87067 -1.07549 0
M  V30 5444 H 541.612 5.98392 1.00058 0
M  V30 5445 H 540.351 4.73174 1.18143 0
M  V30 5446 H 539.356 5.40182 -1.02388 0
M  V30 5447 H 540.581 6.68571 -1.1912 0
M  V30 5448 H 538.527 6.47655 1.04305 0
M  V30 5449 H 538.444 7.55355 -0.3123 0
M  V30 5450 H 539.712 7.74731 0.86098 0
M  V30 5451 N 543.941 0.601185 1.45683 0
M  V30 5452 C 545.189 0.0936957 2.01883 0
M  V30 5453 C 545.51 -1.2779 1.47291 0
M  V30 5454 O 544.78 -1.84279 0.664691 0
M  V30 5455 H 543.36 0.0316466 0.746329 0
M  V30 5456 H 546.022 0.781137 1.78562 0
M  V30 5457 H 545.118 0.0386297 3.12076 0
M  V30 5458 N 545.419 -1.53889 0.339982 0
M  V30 5459 C 546.659 -2.02765 -0.258011 0
M  V30 5460 C 547.023 -1.22249 -1.48051 0
M  V30 5461 O 548.224 -1.61007 -2.15245 0
M  V30 5462 C 546.495 -3.5286 -0.567872 0
M  V30 5463 S 548.054 -4.23647 -1.14318 0
M  V30 5464 H 544.872 -0.706814 -0.0770389 0
M  V30 5465 H 547.474 -1.89594 0.476917 0
M  V30 5466 H 546.178 -4.09073 0.329745 0
M  V30 5467 H 545.709 -3.70144 -1.33256 0
M  V30 5468 H 547.724 -4.32676 -2.42911 0
M  V30 5469 N 546.897 -0.0685191 -1.57451 0
M  V30 5470 C 547.845 0.917577 -2.13736 0
M  V30 5471 C 548.839 1.31049 -1.07344 0
M  V30 5472 O 550.045 1.28811 -1.25728 0
M  V30 5473 H 546.42 0.313835 -0.683382 0
M  V30 5474 H 548.391 0.417903 -2.95459 0
M  V30 5475 C 547.14 2.17686 -2.71123 0
M  V30 5476 H 546.463 1.88336 -3.52661 0
M  V30 5477 H 547.903 2.84803 -3.14107 0
M  V30 5478 C 546.362 2.9332 -1.65726 0
M  V30 5479 O 546.892 3.86901 -1.08031 0
M  V30 5480 N 545.098 2.56367 -1.36837 0
M  V30 5481 H 544.645 1.80341 -1.83943 0
M  V30 5482 H 544.603 3.07276 -0.665501 0
M  V30 5483 N 548.375 1.56261 0.205012 0
M  V30 5484 C 549.615 1.81823 0.933806 0
M  V30 5485 C 549.979 0.644534 1.80858 0
M  V30 5486 O 551.18 0.779819 2.5724 0
M  V30 5487 C 549.451 3.12362 1.7368 0
M  V30 5488 S 551.01 3.59296 2.51897 0
M  V30 5489 H 547.828 0.638209 0.313386 0
M  V30 5490 H 550.43 1.94495 0.198001 0
M  V30 5491 H 549.134 3.95809 1.08459 0
M  V30 5492 H 548.665 3.02542 2.5146 0
M  V30 5493 H 550.68 3.23945 3.75864 0
M  V30 5494 N 549.853 -0.472356 1.50355 0
M  V30 5495 C 551.269 -0.806001 1.37753 0
M  V30 5496 C 551.469 -1.968 0.432649 0
M  V30 5497 O 550.525 -2.52189 -0.12519 0
M  V30 5498 C 551.838 -1.11926 2.79093 0
M  V30 5499 C 553.386 -1.22579 2.87999 0
M  V30 5500 C 553.861 -1.57218 4.3017 0
M  V30 5501 N 555.352 -1.64212 4.33115 0
M  V30 5502 C 556.087 -1.92517 5.40116 0
M  V30 5503 N 555.583 -2.1885 6.57325 0
M  V30 5504 N 557.376 -1.94008 5.27558 0
M  V30 5505 H 549.527 0.293451 2.10363 0
M  V30 5506 H 551.79 0.0687672 0.945503 0
M  V30 5507 H 551.496 -0.338504 3.50067 0
M  V30 5508 H 551.37 -2.05577 3.16256 0
M  V30 5509 H 553.757 -1.99722 2.17245 0
M  V30 5510 H 553.838 -0.269107 2.54381 0
M  V30 5511 H 553.482 -0.806154 5.01461 0
M  V30 5512 H 553.412 -2.54034 4.61275 0
M  V30 5513 H 555.903 -1.45906 3.48597 0
M  V30 5514 H 556.216 -2.39718 7.3468 0
M  V30 5515 H 554.561 -2.16245 6.60502 0
M  V30 5516 H 557.752 -1.72931 4.34986 0
M  V30 5517 H 557.925 -2.15731 6.11035 0
M  V30 5518 N 551.331 -1.39911 -0.725443 0
M  V30 5519 C 552.747 -1.21725 -1.03224 0
M  V30 5520 C 552.947 -0.0855224 -2.01318 0
M  V30 5521 O 552.003 0.55976 -2.46217 0
M  V30 5522 C 553.316 -2.55511 -1.58539 0
M  V30 5523 C 554.864 -2.62439 -1.70572 0
M  V30 5524 C 555.339 -3.9647 -2.29294 0
M  V30 5525 N 556.83 -3.98159 -2.36692 0
M  V30 5526 C 557.565 -4.98647 -2.83088 0
M  V30 5527 N 557.061 -6.0953 -3.2931 0
M  V30 5528 N 558.854 -4.8602 -2.82384 0
M  V30 5529 H 551.005 -2.12267 -0.075048 0
M  V30 5530 H 553.268 -0.943136 -0.0959066 0
M  V30 5531 H 552.974 -3.38926 -0.939249 0
M  V30 5532 H 552.848 -2.75905 -2.57208 0
M  V30 5533 H 555.235 -1.79401 -2.34306 0
M  V30 5534 H 555.316 -2.45885 -0.705297 0
M  V30 5535 H 554.96 -4.79942 -1.66186 0
M  V30 5536 H 554.89 -4.10349 -3.30032 0
M  V30 5537 H 557.381 -3.18085 -2.04035 0
M  V30 5538 H 557.694 -6.82106 -3.6325 0
M  V30 5539 H 556.039 -6.1311 -3.27294 0
M  V30 5540 H 559.23 -3.98493 -2.45603 0
M  V30 5541 H 559.403 -5.64478 -3.18226 0
M  V30 5542 N 552.809 0.956637 -1.25245 0
M  V30 5543 C 554.034 1.74104 -1.12706 0
M  V30 5544 C 554.459 1.85436 0.315429 0
M  V30 5545 O 553.817 1.33334 1.22848 0
M  V30 5546 C 553.865 3.1338 -1.78396 0
M  V30 5547 O 552.969 3.98485 -1.06224 0
M  V30 5548 H 552.31 0.53476 -0.393609 0
M  V30 5549 H 554.84 1.19924 -1.65769 0
M  V30 5550 H 554.85 3.6385 -1.846 0
M  V30 5551 H 553.525 3.04448 -2.83345 0
M  V30 5552 H 552.102 3.56952 -1.07886 0
M  V30 5553 N 554.287 1.06798 1.15896 0
M  V30 5554 C 555.535 0.786211 1.8618 0
M  V30 5555 C 555.856 -0.689547 1.82401 0
M  V30 5556 O 555.126 -1.49913 1.26107 0
M  V30 5557 H 553.706 0.287843 0.689315 0
M  V30 5558 H 556.368 1.35055 1.40521 0
M  V30 5559 H 555.464 1.1157 2.91477 0
M  V30 5560 N 555.766 -1.3263 0.851289 0
M  V30 5561 C 557.006 -1.99174 0.459266 0
M  V30 5562 C 557.37 -1.65913 -0.966273 0
M  V30 5563 O 558.571 -2.2552 -1.46267 0
M  V30 5564 C 556.842 -3.50721 0.687698 0
M  V30 5565 S 558.401 -4.37039 0.392746 0
M  V30 5566 H 555.219 -0.689832 0.172199 0
M  V30 5567 H 557.821 -1.61395 1.10327 0
M  V30 5568 H 556.525 -3.72417 1.72435 0
M  V30 5569 H 556.056 -3.93389 0.0299949 0
M  V30 5570 H 558.071 -4.8999 -0.782578 0
M  V30 5571 N 557.244 -0.608902 -1.45362 0
M  V30 5572 C 558.174 0.0964526 -2.33301 0
M  V30 5573 C 559.155 0.857444 -1.46908 0
M  V30 5574 O 560.34 0.827735 -1.75676 0
M  V30 5575 C 557.47 1.09354 -3.29635 0
M  V30 5576 C 556.424 0.445676 -4.25673 0
M  V30 5577 C 555.75 1.5511 -5.11708 0
M  V30 5578 C 557.05 -0.633972 -5.18438 0
M  V30 5579 H 558.744 -0.637829 -2.92527 0
M  V30 5580 H 556.29 -0.308178 -1.40664 0
M  V30 5581 H 558.243 1.59556 -3.90025 0
M  V30 5582 H 556.967 1.85843 -2.6857 0
M  V30 5583 H 555.626 -0.0354897 -3.66583 0
M  V30 5584 H 555.274 2.30631 -4.4701 0
M  V30 5585 H 554.974 1.12311 -5.76767 0
M  V30 5586 H 556.498 2.05537 -5.74967 0
M  V30 5587 H 557.912 -0.215974 -5.72893 0
M  V30 5588 H 556.309 -0.983789 -5.91981 0
M  V30 5589 H 557.379 -1.51005 -4.60788 0
M  V30 5590 N 558.722 1.53707 -0.348139 0
M  V30 5591 C 559.669 2.25173 0.506518 0
M  V30 5592 C 560.639 1.25174 1.09182 0
M  V30 5593 O 561.824 1.53917 1.12757 0
M  V30 5594 C 558.964 3.03141 1.64923 0
M  V30 5595 C 558.077 4.18002 1.0908 0
M  V30 5596 C 557.212 4.83447 2.20119 0
M  V30 5597 C 556.251 5.90369 1.61651 0
M  V30 5598 N 555.388 6.49575 2.66451 0
M  V30 5599 H 560.228 2.97799 -0.109452 0
M  V30 5600 H 557.765 1.46953 -0.0657866 0
M  V30 5601 H 559.723 3.46607 2.32205 0
M  V30 5602 H 558.353 2.32803 2.23612 0
M  V30 5603 H 557.405 3.79145 0.308783 0
M  V30 5604 H 558.717 4.94892 0.623178 0
M  V30 5605 H 557.871 5.30008 2.95257 0
M  V30 5606 H 556.61 4.05991 2.70227 0
M  V30 5607 H 555.615 5.43186 0.850209 0
M  V30 5608 H 556.84 6.69735 1.1239 0
M  V30 5609 H 554.786 5.74981 3.15805 0
M  V30 5610 H 554.703 7.21952 2.24325 0
M  V30 5611 H 555.971 7.00789 3.41344 0
M  V30 5612 N 560.2 0.0768682 1.57412 0
M  V30 5613 C 561.148 -0.906229 2.1422 0
M  V30 5614 C 562.142 -1.30477 1.08037 0
M  V30 5615 O 563.348 -1.28143 1.2641 0
M  V30 5616 H 559.723 -0.310207 0.685037 0
M  V30 5617 H 561.694 -0.402228 2.95677 0
M  V30 5618 C 560.443 -2.16245 2.72274 0
M  V30 5619 H 559.766 -1.86463 3.53655 0
M  V30 5620 H 561.206 -2.83134 3.15613 0
M  V30 5621 C 559.665 -2.92437 1.67279 0
M  V30 5622 O 560.195 -3.86322 1.10081 0
M  V30 5623 N 558.401 -2.55637 1.38195 0
M  V30 5624 H 557.948 -1.79363 1.84897 0
M  V30 5625 H 557.906 -3.06919 0.681787 0
M  V30 5626 N 561.678 -1.56367 -0.196722 0
M  V30 5627 C 562.908 -1.84371 -0.932254 0
M  V30 5628 C 563.316 -0.657013 -1.77426 0
M  V30 5629 O 562.659 0.383576 -1.79651 0
M  V30 5630 C 562.721 -3.06454 -1.87952 0
M  V30 5631 C 562.385 -4.40425 -1.21962 0
M  V30 5632 C 563.382 -5.16457 -0.597343 0
M  V30 5633 C 561.067 -4.8716 -1.22396 0
M  V30 5634 C 563.061 -6.37399 0.0117913 0
M  V30 5635 C 560.748 -6.08038 -0.610995 0
M  V30 5636 C 561.746 -6.83 0.00580487 0
M  V30 5637 O 561.434 -8.01589 0.609173 0
M  V30 5638 H 561.166 -0.616377 -0.277589 0
M  V30 5639 H 563.72 -2.04329 -0.209452 0
M  V30 5640 H 561.95 -2.82377 -2.64197 0
M  V30 5641 H 563.639 -3.21118 -2.48271 0
M  V30 5642 H 564.405 -4.81445 -0.586142 0
M  V30 5643 H 560.284 -4.2877 -1.69345 0
M  V30 5644 H 563.828 -6.9585 0.493836 0
M  V30 5645 H 559.725 -6.42519 -0.619693 0
M  V30 5646 H 560.493 -8.16935 0.505919 0
M  V30 5647 N 563.156 0.464375 -1.50603 0
M  V30 5648 C 564.396 1.22573 -1.6357 0
M  V30 5649 C 564.76 1.89111 -0.331834 0
M  V30 5650 O 565.961 2.66679 -0.336999 0
M  V30 5651 C 564.232 2.23643 -2.7878 0
M  V30 5652 S 565.791 3.08628 -3.1192 0
M  V30 5653 H 562.609 0.416058 -0.576556 0
M  V30 5654 H 565.211 0.521637 -1.88412 0
M  V30 5655 H 563.915 1.73354 -3.7199 0
M  V30 5656 H 563.446 2.98672 -2.56044 0
M  V30 5657 H 565.461 4.24904 -2.56264 0
M  V30 5658 N 564.634 1.40294 0.718013 0
M  V30 5659 C 565.544 1.42678 1.86226 0
M  V30 5660 C 566.56 0.319655 1.71039 0
M  V30 5661 O 567.736 0.563852 1.93346 0
M  V30 5662 C 564.801 1.2852 3.21999 0
M  V30 5663 C 563.862 2.49354 3.49458 0
M  V30 5664 C 563.095 2.35863 4.78753 0
M  V30 5665 O 563.318 1.37114 5.53675 0
M  V30 5666 O 562.252 3.25189 5.06494 0
M  V30 5667 H 566.078 2.39167 1.87171 0
M  V30 5668 H 563.663 1.2159 0.868112 0
M  V30 5669 H 565.545 1.22824 4.03103 0
M  V30 5670 H 564.22 0.351359 3.21787 0
M  V30 5671 H 563.127 2.60628 2.68373 0
M  V30 5672 H 564.46 3.41491 3.54464 0
M  V30 5673 N 566.112 -0.949982 1.2575 0
M  V30 5674 C 567.352 -1.70994 1.11984 0
M  V30 5675 C 567.716 -1.89095 -0.332746 0
M  V30 5676 O 568.917 -2.62192 -0.592331 0
M  V30 5677 C 567.188 -3.05286 1.85837 0
M  V30 5678 S 568.747 -3.96477 1.88019 0
M  V30 5679 H 565.565 -0.587689 0.400178 0
M  V30 5680 H 568.167 -1.13271 1.59342 0
M  V30 5681 H 566.871 -2.89785 2.90608 0
M  V30 5682 H 566.402 -3.68069 1.38885 0
M  V30 5683 H 568.417 -4.86814 0.96057 0
M  V30 5684 N 567.59 -1.07411 -1.15328 0
M  V30 5685 C 568.82 -0.817595 -1.89734 0
M  V30 5686 C 569.228 0.63297 -1.78298 0
M  V30 5687 O 568.571 1.44594 -1.13306 0
M  V30 5688 C 568.633 -1.14748 -3.40695 0
M  V30 5689 C 568.297 -2.59876 -3.75917 0
M  V30 5690 C 569.294 -3.58122 -3.76888 0
M  V30 5691 C 566.979 -2.95469 -4.06206 0
M  V30 5692 C 568.973 -4.89996 -4.07655 0
M  V30 5693 C 566.66 -4.2754 -4.36638 0
M  V30 5694 C 567.658 -5.24614 -4.37344 0
M  V30 5695 O 567.346 -6.54312 -4.67045 0
M  V30 5696 H 567.078 -0.295175 -0.608151 0
M  V30 5697 H 569.632 -1.43409 -1.47048 0
M  V30 5698 H 567.862 -0.47395 -3.83785 0
M  V30 5699 H 569.551 -0.873397 -3.96392 0
M  V30 5700 H 570.317 -3.31966 -3.53587 0
M  V30 5701 H 566.196 -2.20558 -4.04815 0
M  V30 5702 H 569.74 -5.65759 -4.08121 0
M  V30 5703 H 565.637 -4.53449 -4.59407 0
M  V30 5704 H 566.405 -6.59473 -4.84807 0
M  V30 5705 N 569.068 1.32177 -0.85831 0
M  V30 5706 C 569.978 2.32561 -0.308606 0
M  V30 5707 C 570.994 1.64209 0.575462 0
M  V30 5708 O 572.17 1.95719 0.474961 0
M  V30 5709 C 569.235 3.43207 0.490909 0
M  V30 5710 C 568.296 4.27243 -0.419733 0
M  V30 5711 C 567.529 5.32605 0.341719 0
M  V30 5712 O 567.752 5.48332 1.57125 0
M  V30 5713 O 566.686 6.0118 -0.294379 0
M  V30 5714 H 570.512 2.81477 -1.14037 0
M  V30 5715 H 568.097 1.35866 -0.621349 0
M  V30 5716 H 569.979 4.10677 0.944574 0
M  V30 5717 H 568.654 2.96474 1.29941 0
M  V30 5718 H 567.561 3.62569 -0.921652 0
M  V30 5719 H 568.894 4.7751 -1.19352 0
M  V30 5720 N 570.547 0.616602 1.45037 0
M  V30 5721 C 571.51 -0.0871112 2.29034 0
M  V30 5722 C 572.51 -0.786414 1.40258 0
M  V30 5723 O 573.7 -0.633207 1.62284 0
M  V30 5724 C 570.832 -1.13369 3.21497 0
M  V30 5725 H 572.025 0.651497 2.92738 0
M  V30 5726 H 569.578 0.376058 1.51709 0
M  V30 5727 H 570.313 -1.90277 2.62612 0
M  V30 5728 H 570.098 -0.636358 3.86902 0
M  V30 5729 H 571.588 -1.62627 3.84633 0
M  V30 5730 N 572.025 -1.5352 0.356285 0
M  V30 5731 C 572.957 -2.23009 -0.529127 0
M  V30 5732 C 573.97 -1.241 -1.05371 0
M  V30 5733 O 575.159 -1.50379 -0.961679 0
M  V30 5734 C 572.259 -2.90685 -1.74229 0
M  V30 5735 C 571.432 -4.16019 -1.35081 0
M  V30 5736 C 570.491 -4.66989 -2.42502 0
M  V30 5737 O 569.517 -5.30895 -2.05279 0
M  V30 5738 N 570.719 -4.44006 -3.7395 0
M  V30 5739 H 573.484 -2.99627 0.0660501 0
M  V30 5740 H 571.045 -1.60885 0.181014 0
M  V30 5741 H 573.037 -3.21695 -2.4555 0
M  V30 5742 H 571.607 -2.17575 -2.24454 0
M  V30 5743 H 570.827 -3.91414 -0.467833 0
M  V30 5744 H 572.115 -4.9752 -1.06542 0
M  V30 5745 H 571.513 -3.92924 -4.06973 0
M  V30 5746 H 570.07 -4.7959 -4.41403 0
M  V30 5747 N 573.503 -0.0852151 -1.57369 0
M  V30 5748 C 574.752 0.580443 -1.93168 0
M  V30 5749 C 575.065 1.6995 -0.968319 0
M  V30 5750 O 576.271 2.42564 -1.21963 0
M  V30 5751 C 574.727 1.08386 -3.43192 0
M  V30 5752 C 574.335 -0.00491388 -4.48 0
M  V30 5753 C 576.079 1.72281 -3.87968 0
M  V30 5754 C 573.986 0.513299 -5.89168 0
M  V30 5755 H 572.916 0.22059 -0.72101 0
M  V30 5756 H 575.567 -0.159621 -1.82804 0
M  V30 5757 H 573.949 1.8773 -3.48674 0
M  V30 5758 H 575.123 -0.780032 -4.5415 0
M  V30 5759 H 573.438 -0.548453 -4.12772 0
M  V30 5760 H 576.035 2.12108 -4.9083 0
M  V30 5761 H 576.378 2.58811 -3.26071 0
M  V30 5762 H 576.911 0.995359 -3.85146 0
M  V30 5763 H 573.65 -0.315153 -6.54742 0
M  V30 5764 H 573.17 1.25564 -5.8651 0
M  V30 5765 H 574.849 0.985433 -6.39451 0
M  V30 5766 N 574.981 1.5647 0.188427 0
M  V30 5767 C 575.914 1.90146 1.26173 0
M  V30 5768 C 576.892 0.762294 1.43624 0
M  V30 5769 O 578.076 1.01395 1.58907 0
M  V30 5770 C 575.203 2.13748 2.62735 0
M  V30 5771 C 574.249 3.36448 2.62116 0
M  V30 5772 S 575.082 4.91364 2.12889 0
M  V30 5773 C 576.238 5.18041 3.51261 0
M  V30 5774 H 576.471 2.80886 0.974192 0
M  V30 5775 H 574.004 1.49335 0.392226 0
M  V30 5776 H 575.962 2.28028 3.41341 0
M  V30 5777 H 574.623 1.23747 2.88696 0
M  V30 5778 H 573.816 3.50109 3.62546 0
M  V30 5779 H 573.418 3.21196 1.91596 0
M  V30 5780 H 575.71 5.0897 4.47164 0
M  V30 5781 H 576.653 6.19764 3.42489 0
M  V30 5782 H 577.061 4.45657 3.46482 0
M  V30 5783 N 576.459 -0.456382 1.50847 0
M  V30 5784 C 577.699 -1.21704 1.64218 0
M  V30 5785 C 578.063 -1.88932 0.341859 0
M  V30 5786 O 579.264 -2.66497 0.351137 0
M  V30 5787 C 577.535 -2.22162 2.79962 0
M  V30 5788 S 579.094 -3.0697 3.13552 0
M  V30 5789 H 575.912 -0.412995 0.578754 0
M  V30 5790 H 578.514 -0.511637 1.88686 0
M  V30 5791 H 577.218 -1.71379 3.72904 0
M  V30 5792 H 576.749 -2.9731 2.57624 0
M  V30 5793 H 578.764 -4.23539 2.58513 0
M  V30 5794 N 577.937 -1.40673 -0.710563 0
M  V30 5795 C 579.162 -1.42741 -1.50465 0
M  V30 5796 C 579.587 -0.0302116 -1.88076 0
M  V30 5797 O 578.945 0.962945 -1.53613 0
M  V30 5798 C 578.993 -2.32873 -2.75322 0
M  V30 5799 O 578.097 -1.77544 -3.72226 0
M  V30 5800 H 577.438 -0.485056 -0.45345 0
M  V30 5801 H 579.968 -1.84961 -0.874681 0
M  V30 5802 H 579.978 -2.48233 -3.23797 0
M  V30 5803 H 578.653 -3.34401 -2.47283 0
M  V30 5804 H 577.23 -1.71556 -3.31093 0
M  V30 5805 N 579.415 0.9433 -1.26252 0
M  V30 5806 C 580.64 1.72898 -1.14547 0
M  V30 5807 C 581.065 1.85761 0.295743 0
M  V30 5808 O 580.423 1.3463 1.21427 0
M  V30 5809 C 580.471 3.11471 -1.8171 0
M  V30 5810 O 579.575 3.97336 -1.10445 0
M  V30 5811 H 578.916 0.530555 -0.399259 0
M  V30 5812 H 581.446 1.18159 -1.67032 0
M  V30 5813 H 581.456 3.61872 -1.88449 0
M  V30 5814 H 580.131 3.01425 -2.86558 0
M  V30 5815 H 578.708 3.55788 -1.11666 0
M  V30 5816 N 580.893 1.08022 1.14757 0
M  V30 5817 C 582.142 0.802468 1.8505 0
M  V30 5818 C 582.455 -0.674061 1.83619 0
M  V30 5819 O 583.661 -1.06683 2.49662 0
M  V30 5820 C 582.117 1.38551 3.32162 0
M  V30 5821 C 581.725 2.89354 3.42021 0
M  V30 5822 C 583.469 1.18608 4.07594 0
M  V30 5823 C 581.376 3.40815 4.83321 0
M  V30 5824 H 580.306 0.296518 0.693248 0
M  V30 5825 H 582.957 1.30114 1.29393 0
M  V30 5826 H 581.339 0.814556 3.87532 0
M  V30 5827 H 582.513 3.52552 2.96722 0
M  V30 5828 H 580.828 3.08165 2.80041 0
M  V30 5829 H 583.425 1.54525 5.11885 0
M  V30 5830 H 583.768 0.125599 4.1611 0
M  V30 5831 H 584.301 1.72375 3.58513 0
M  V30 5832 H 581.04 4.46418 4.79991 0
M  V30 5833 H 580.56 2.82374 5.29174 0
M  V30 5834 H 582.239 3.37171 5.522 0
M  V30 5835 N 582.371 -1.3172 0.865308 0
M  V30 5836 C 583.611 -1.98675 0.480365 0
M  V30 5837 C 583.975 -1.66929 -0.948621 0
M  V30 5838 O 585.176 -2.27059 -1.43867 0
M  V30 5839 C 583.447 -3.49972 0.724858 0
M  V30 5840 S 585.006 -4.36598 0.439078 0
M  V30 5841 H 581.824 -0.687967 0.179506 0
M  V30 5842 H 584.426 -1.60215 1.12033 0
M  V30 5843 H 583.13 -3.70567 1.76375 0
M  V30 5844 H 582.661 -3.93335 0.0717173 0
M  V30 5845 H 584.676 -4.90792 -0.730564 0
M  V30 5846 N 583.85 -0.624285 -1.44708 0
M  V30 5847 C 584.797 0.0847135 -2.30644 0
M  V30 5848 C 585.767 0.843575 -1.43084 0
M  V30 5849 O 586.952 0.825982 -1.71995 0
M  V30 5850 C 584.091 1.06495 -3.28257 0
M  V30 5851 C 583.205 0.305224 -4.3092 0
M  V30 5852 C 582.34 1.27667 -5.1563 0
M  V30 5853 C 581.379 0.505706 -6.10007 0
M  V30 5854 N 580.516 1.42727 -6.8744 0
M  V30 5855 H 585.356 -0.654068 -2.90733 0
M  V30 5856 H 582.893 -0.334334 -1.4325 0
M  V30 5857 H 584.851 1.64658 -3.83332 0
M  V30 5858 H 583.481 1.77094 -2.69884 0
M  V30 5859 H 582.533 -0.392207 -3.78373 0
M  V30 5860 H 583.845 -0.295553 -4.97924 0
M  V30 5861 H 582.999 1.92984 -5.75189 0
M  V30 5862 H 581.738 1.91137 -4.48685 0
M  V30 5863 H 580.743 -0.160999 -5.49564 0
M  V30 5864 H 581.968 -0.124183 -6.78986 0
M  V30 5865 H 579.913 2.04931 -6.23169 0
M  V30 5866 H 579.831 0.880345 -7.50857 0
M  V30 5867 H 581.099 2.0695 -7.51526 0
M  V30 5868 N 585.328 1.53329 -0.364422 0
M  V30 5869 C 586.568 2.0315 0.22572 0
M  V30 5870 C 586.932 1.24589 1.46087 0
M  V30 5871 O 588.133 1.64411 2.12656 0
M  V30 5872 C 586.404 3.53718 0.511663 0
M  V30 5873 S 587.963 4.25412 1.07564 0
M  V30 5874 H 584.781 0.70795 0.0657843 0
M  V30 5875 H 587.383 1.88811 -0.507019 0
M  V30 5876 H 586.087 4.08497 -0.394784 0
M  V30 5877 H 585.618 3.72217 1.27351 0
M  V30 5878 H 587.633 4.36486 2.35997 0
M  V30 5879 N 586.806 0.0935595 1.57322 0
M  V30 5880 C 588.055 -0.570191 1.93473 0
M  V30 5881 C 588.368 -1.69434 0.977318 0
M  V30 5882 O 589.574 -2.41914 1.23248 0
M  V30 5883 C 588.03 -1.06564 3.43762 0
M  V30 5884 C 587.638 0.0286723 4.47991 0
M  V30 5885 C 589.382 -1.70221 3.88877 0
M  V30 5886 C 587.289 -0.482046 5.89432 0
M  V30 5887 H 586.219 -0.216764 0.72217 0
M  V30 5888 H 588.87 0.169313 1.82717 0
M  V30 5889 H 587.252 -1.85878 3.49664 0
M  V30 5890 H 588.426 0.804106 4.5373 0
M  V30 5891 H 586.741 0.570336 4.12476 0
M  V30 5892 H 589.338 -2.09502 4.91948 0
M  V30 5893 H 589.681 -2.57078 3.27439 0
M  V30 5894 H 590.214 -0.974919 3.85668 0
M  V30 5895 H 586.953 0.349871 6.54566 0
M  V30 5896 H 586.473 -1.22452 5.87167 0
M  V30 5897 H 588.152 -0.951508 6.39965 0
M  V30 5898 N 588.284 -1.56567 -0.180126 0
M  V30 5899 C 589.532 -1.81133 -0.896392 0
M  V30 5900 C 589.853 -0.669114 -1.83161 0
M  V30 5901 O 589.123 0.311616 -1.93406 0
M  V30 5902 H 587.703 -0.668172 -0.333999 0
M  V30 5903 H 590.365 -1.94048 -0.182051 0
M  V30 5904 H 589.461 -2.74854 -1.47857 0
M  V30 5905 N 589.762 0.448376 -1.51087 0
M  V30 5906 C 591.002 1.20832 -1.64861 0
M  V30 5907 C 591.366 1.88748 -0.351873 0
M  V30 5908 O 592.567 2.66307 -0.365265 0
M  V30 5909 C 590.838 2.20674 -2.81137 0
M  V30 5910 S 592.397 3.05303 -3.15176 0
M  V30 5911 H 589.215 0.40992 -0.580936 0
M  V30 5912 H 591.817 0.501624 -1.88955 0
M  V30 5913 H 590.521 1.69399 -3.73808 0
M  V30 5914 H 590.052 2.9594 -2.59198 0
M  V30 5915 H 592.067 4.22162 -2.60756 0
M  V30 5916 N 591.24 1.41047 0.703093 0
M  V30 5917 C 592.187 1.42302 1.81711 0
M  V30 5918 C 593.157 0.278336 1.63751 0
M  V30 5919 O 594.342 0.478266 1.84709 0
M  V30 5920 C 591.482 1.30362 3.19531 0
M  V30 5921 C 590.595 2.54638 3.48975 0
M  V30 5922 C 589.73 2.35047 4.76368 0
M  V30 5923 C 588.769 3.54837 4.98756 0
M  V30 5924 N 587.906 3.34363 6.1737 0
M  V30 5925 H 592.746 2.37516 1.79973 0
M  V30 5926 H 590.283 1.1795 0.878983 0
M  V30 5927 H 592.241 1.21443 3.99134 0
M  V30 5928 H 590.871 0.387602 3.20464 0
M  V30 5929 H 589.923 2.74037 2.63833 0
M  V30 5930 H 591.235 3.43766 3.61423 0
M  V30 5931 H 590.389 2.23552 5.64012 0
M  V30 5932 H 589.128 1.43363 4.66153 0
M  V30 5933 H 588.133 3.66795 4.09563 0
M  V30 5934 H 589.358 4.47464 5.10835 0
M  V30 5935 H 587.304 2.45373 6.08382 0
M  V30 5936 H 587.221 4.17063 6.30551 0
M  V30 5937 H 588.489 3.26626 7.07768 0
M  V30 5938 N 592.718 -0.936591 1.26751 0
M  V30 5939 C 593.666 -2.0573 1.08527 0
M  V30 5940 C 594.66 -1.69397 0.0108784 0
M  V30 5941 O 595.866 -1.79215 0.167915 0
M  V30 5942 H 592.241 -0.673691 0.334133 0
M  V30 5943 H 594.212 -2.1825 2.03493 0
M  V30 5944 C 592.961 -3.39738 0.739845 0
M  V30 5945 H 592.284 -3.68174 1.55845 0
M  V30 5946 H 593.724 -4.18955 0.652149 0
M  V30 5947 C 592.183 -3.32292 -0.555288 0
M  V30 5948 O 592.713 -3.68794 -1.59229 0
M  V30 5949 N 590.919 -2.85394 -0.54762 0
M  V30 5950 H 590.466 -2.55886 0.296667 0
M  V30 5951 H 590.424 -2.80795 -1.41427 0
M  V30 5952 N 594.196 -1.08629 -1.14182 0
M  V30 5953 C 595.426 -0.837673 -1.88856 0
M  V30 5954 C 595.834 0.614024 -1.78959 0
M  V30 5955 O 595.177 1.43384 -1.14833 0
M  V30 5956 C 595.239 -1.18355 -3.39459 0
M  V30 5957 C 594.903 -2.63848 -3.73139 0
M  V30 5958 C 595.9 -3.62099 -3.73069 0
M  V30 5959 C 593.585 -2.99761 -4.03049 0
M  V30 5960 C 595.579 -4.94292 -4.02435 0
M  V30 5961 C 593.266 -4.32147 -4.32078 0
M  V30 5962 C 594.264 -5.29223 -4.31755 0
M  V30 5963 O 593.952 -6.59229 -4.60079 0
M  V30 5964 H 593.684 -0.301609 -0.604986 0
M  V30 5965 H 596.238 -1.44961 -1.45518 0
M  V30 5966 H 594.468 -0.514628 -3.8326 0
M  V30 5967 H 596.157 -0.915391 -3.95443 0
M  V30 5968 H 596.923 -3.35698 -3.50046 0
M  V30 5969 H 592.802 -2.2484 -4.02453 0
M  V30 5970 H 596.346 -5.70055 -4.02098 0
M  V30 5971 H 592.243 -4.58296 -4.54571 0
M  V30 5972 H 593.011 -6.64578 -4.77785 0
M  V30 5973 N 595.674 1.31259 -0.872281 0
M  V30 5974 C 596.584 2.32221 -0.333255 0
M  V30 5975 C 597.6 1.6481 0.558013 0
M  V30 5976 O 598.776 1.96212 0.454175 0
M  V30 5977 C 595.841 3.43708 0.454479 0
M  V30 5978 C 594.902 4.26774 -0.465024 0
M  V30 5979 C 594.135 5.32937 0.28521 0
M  V30 5980 O 594.358 5.49968 1.513 0
M  V30 5981 O 593.292 6.00834 -0.358126 0
M  V30 5982 H 597.118 2.80252 -1.17016 0
M  V30 5983 H 594.703 1.352 -0.635724 0
M  V30 5984 H 596.585 4.11656 0.900963 0
M  V30 5985 H 595.26 2.97836 1.26789 0
M  V30 5986 H 594.167 3.61571 -0.960055 0
M  V30 5987 H 595.5 4.76217 -1.2441 0
M  V30 5988 N 597.152 0.631951 1.44375 0
M  V30 5989 C 598.062 -0.073674 2.34484 0
M  V30 5990 C 599.078 -0.834825 1.52665 0
M  V30 5991 O 600.254 -0.786902 1.85391 0
M  V30 5992 C 597.319 -1.04247 3.30656 0
M  V30 5993 C 596.38 -0.280602 4.28382 0
M  V30 5994 C 595.613 -1.20325 5.19959 0
M  V30 5995 O 595.836 -2.44199 5.15484 0
M  V30 5996 O 594.77 -0.687128 5.97965 0
M  V30 5997 H 598.596 0.667477 2.96274 0
M  V30 5998 H 596.181 0.392144 1.44162 0
M  V30 5999 H 598.063 -1.59981 3.89851 0
M  V30 6000 H 596.738 -1.76422 2.71398 0
M  V30 6001 H 595.645 0.319804 3.72731 0
M  V30 6002 H 596.978 0.401144 4.90563 0
M  V30 6003 N 598.631 -1.53133 0.372548 0
M  V30 6004 C 599.856 -2.0625 -0.218098 0
M  V30 6005 C 600.281 -1.24375 -1.41111 0
M  V30 6006 O 599.639 -0.264554 -1.79359 0
M  V30 6007 C 599.687 -3.55858 -0.582876 0
M  V30 6008 O 598.791 -3.76667 -1.67917 0
M  V30 6009 H 598.132 -0.663317 -0.030104 0
M  V30 6010 H 600.662 -1.97477 0.535169 0
M  V30 6011 H 600.672 -3.99007 -0.851925 0
M  V30 6012 H 599.347 -4.14892 0.289428 0
M  V30 6013 H 597.924 -3.45413 -1.40513 0
M  V30 6014 N 600.109 -0.101901 -1.5727 0
M  V30 6015 C 601.52 0.426173 -1.81771 0
M  V30 6016 C 601.871 1.67725 -1.01797 0
M  V30 6017 O 600.996 2.14958 -0.249386 0
M  V30 6018 C 601.591 0.779962 -3.297 0
M  V30 6019 C 600.15 1.25275 -3.54941 0
M  V30 6020 C 599.297 0.252814 -2.76145 0
M  V30 6021 H 602.248 -0.32726 -1.55289 0
M  V30 6022 H 602.269 1.63891 -3.43395 0
M  V30 6023 H 601.781 -0.130778 -3.8788 0
M  V30 6024 H 599.882 2.18097 -3.021 0
M  V30 6025 H 599.995 1.20988 -4.63572 0
M  V30 6026 H 598.359 0.736362 -2.43823 0
M  V30 6027 H 599.142 -0.650724 -3.37076 0
M  V30 6028 N 601.587 1.56661 0.17182 0
M  V30 6029 C 602.497 1.99604 1.2327 0
M  V30 6030 C 603.513 0.907333 1.4847 0
M  V30 6031 O 604.689 1.21492 1.60629 0
M  V30 6032 C 601.754 2.34685 2.55194 0
M  V30 6033 C 600.815 3.57381 2.3786 0
M  V30 6034 C 600.048 3.90779 3.63494 0
M  V30 6035 O 600.271 3.25152 4.6865 0
M  V30 6036 O 599.205 4.84129 3.57634 0
M  V30 6037 H 603.031 2.90114 0.898192 0
M  V30 6038 H 600.616 1.44522 0.378647 0
M  V30 6039 H 602.498 2.5822 3.33017 0
M  V30 6040 H 601.173 1.47336 2.88225 0
M  V30 6041 H 600.08 3.39064 1.5807 0
M  V30 6042 H 601.413 4.45268 2.09754 0
M  V30 6043 N 603.065 -0.440357 1.51323 0
M  V30 6044 C 604.481 -0.7766 1.39431 0
M  V30 6045 C 604.681 -1.95838 0.474296 0
M  V30 6046 O 603.737 -2.52398 -0.0716692 0
M  V30 6047 C 605.05 -1.05981 2.81405 0
M  V30 6048 C 606.598 -1.16442 2.90534 0
M  V30 6049 C 607.073 -1.48058 4.33408 0
M  V30 6050 N 608.564 -1.54988 4.36501 0
M  V30 6051 C 609.299 -1.81017 5.44078 0
M  V30 6052 N 608.795 -2.04858 6.61819 0
M  V30 6053 N 610.588 -1.82774 5.31554 0
M  V30 6054 H 602.739 0.338006 2.09693 0
M  V30 6055 H 605.002 0.0888072 0.943831 0
M  V30 6056 H 604.708 -0.264173 3.50706 0
M  V30 6057 H 604.582 -1.98822 3.20546 0
M  V30 6058 H 606.969 -1.95068 2.21432 0
M  V30 6059 H 607.05 -0.215088 2.54894 0
M  V30 6060 H 606.694 -0.699605 5.03059 0
M  V30 6061 H 606.624 -2.44192 4.66559 0
M  V30 6062 H 609.115 -1.38479 3.51613 0
M  V30 6063 H 609.428 -2.2408 7.396 0
M  V30 6064 H 607.773 -2.02187 6.6494 0
M  V30 6065 H 610.964 -1.63665 4.38556 0
M  V30 6066 H 611.137 -2.02722 6.15474 0
M  V30 6067 N 604.543 -1.41418 -0.695603 0
M  V30 6068 C 605.49 -1.43264 -1.80954 0
M  V30 6069 C 606.46 -0.287016 -1.63601 0
M  V30 6070 O 607.645 -0.488054 -1.84452 0
M  V30 6071 C 604.785 -1.32054 -3.18835 0
M  V30 6072 C 603.898 -2.56485 -3.4762 0
M  V30 6073 C 603.033 -2.3757 -4.75115 0
M  V30 6074 C 602.072 -3.57477 -4.96867 0
M  V30 6075 N 601.209 -3.37632 -6.15588 0
M  V30 6076 H 606.049 -2.38467 -1.78711 0
M  V30 6077 H 603.586 -1.18415 -0.872715 0
M  V30 6078 H 605.544 -1.23558 -3.98484 0
M  V30 6079 H 604.174 -0.404592 -3.20254 0
M  V30 6080 H 603.226 -2.75432 -2.62376 0
M  V30 6081 H 604.538 -3.45678 -3.59594 0
M  V30 6082 H 603.692 -2.2654 -5.62818 0
M  V30 6083 H 602.431 -1.45834 -4.65386 0
M  V30 6084 H 601.436 -3.68961 -4.07612 0
M  V30 6085 H 602.661 -4.50167 -5.08455 0
M  V30 6086 H 600.607 -2.48596 -6.07072 0
M  V30 6087 H 600.524 -4.20401 -6.2833 0
M  V30 6088 H 601.792 -3.30375 -7.06026 0
M  V30 6089 N 606.021 0.929856 -1.27246 0
M  V30 6090 C 607.249 1.71144 -1.16265 0
M  V30 6091 C 607.664 1.867 0.280786 0
M  V30 6092 O 607.021 1.38249 1.19136 0
M  V30 6093 C 607.072 3.11222 -1.83911 0
M  V30 6094 O 606.793 2.96398 -3.22614 0
M  V30 6095 C 608.294 4.05541 -1.79028 0
M  V30 6096 H 605.514 0.535499 -0.404328 0
M  V30 6097 H 608.058 1.16492 -1.68077 0
M  V30 6098 H 606.213 3.6274 -1.36009 0
M  V30 6099 H 606.627 3.8494 -3.56261 0
M  V30 6100 H 608.101 5.01351 -2.30978 0
M  V30 6101 H 608.578 4.32589 -0.759168 0
M  V30 6102 H 609.184 3.59947 -2.26535 0
M  V30 6103 N 607.499 1.09233 1.13605 0
M  V30 6104 C 608.429 0.751738 2.21068 0
M  V30 6105 C 609.41 -0.269688 1.67948 0
M  V30 6106 O 610.595 -0.13819 1.93708 0
M  V30 6107 C 607.725 0.16935 3.46887 0
M  V30 6108 C 606.679 1.12007 4.13084 0
M  V30 6109 C 606.005 0.399483 5.33206 0
M  V30 6110 C 607.305 2.46168 4.6065 0
M  V30 6111 H 608.999 1.65024 2.49815 0
M  V30 6112 H 606.545 0.794905 1.20072 0
M  V30 6113 H 608.498 -0.0809824 4.21322 0
M  V30 6114 H 607.222 -0.764335 3.1753 0
M  V30 6115 H 605.881 1.35564 3.40614 0
M  V30 6116 H 605.529 -0.538277 5.00112 0
M  V30 6117 H 605.229 1.03337 5.78442 0
M  V30 6118 H 606.753 0.157403 6.10397 0
M  V30 6119 H 608.167 2.26829 5.26518 0
M  V30 6120 H 606.564 3.05326 5.1662 0
M  V30 6121 H 607.634 3.07076 3.75276 0
M  V30 6122 N 608.977 -1.30795 0.87923 0
M  V30 6123 C 609.91 -2.26396 0.286404 0
M  V30 6124 C 610.888 -1.51528 -0.589748 0
M  V30 6125 O 612.072 -1.80566 -0.541119 0
M  V30 6126 C 609.199 -3.33458 -0.593581 0
M  V30 6127 C 608.245 -4.2597 0.21247 0
M  V30 6128 S 609.078 -5.11132 1.59702 0
M  V30 6129 C 610.234 -6.21705 0.723408 0
M  V30 6130 H 610.467 -2.7633 1.09677 0
M  V30 6131 H 608 -1.38703 0.678305 0
M  V30 6132 H 609.958 -3.9561 -1.09557 0
M  V30 6133 H 608.619 -2.82259 -1.37799 0
M  V30 6134 H 607.812 -5.01907 -0.458822 0
M  V30 6135 H 607.414 -3.68363 0.646883 0
M  V30 6136 H 609.706 -6.77472 -0.0620739 0
M  V30 6137 H 610.649 -6.93007 1.4542 0
M  V30 6138 H 611.057 -5.63771 0.286855 0
M  V30 6139 N 610.455 -0.639598 -1.44038 0
M  V30 6140 C 611.68 -0.153117 -2.06834 0
M  V30 6141 C 612.105 1.16676 -1.47541 0
M  V30 6142 O 611.463 1.71769 -0.580093 0
M  V30 6143 C 611.511 -0.0609169 -3.60549 0
M  V30 6144 O 610.615 0.98071 -4.00569 0
M  V30 6145 H 609.956 -0.0886402 -0.658057 0
M  V30 6146 H 612.486 -0.878674 -1.84771 0
M  V30 6147 H 612.496 0.126892 -4.07803 0
M  V30 6148 H 611.171 -1.0245 -4.03084 0
M  V30 6149 H 609.748 0.766789 -3.64931 0
M  V30 6150 N 611.933 1.52934 -0.380664 0
M  V30 6151 C 612.866 2.22597 0.502564 0
M  V30 6152 C 613.844 1.22345 1.071 0
M  V30 6153 O 615.028 1.51302 1.12428 0
M  V30 6154 C 612.155 2.93246 1.69482 0
M  V30 6155 C 611.201 4.07696 1.25244 0
M  V30 6156 S 612.034 5.34957 0.241159 0
M  V30 6157 C 613.19 6.09124 1.4394 0
M  V30 6158 H 613.423 2.97167 -0.089029 0
M  V30 6159 H 610.956 1.53518 -0.164817 0
M  V30 6160 H 612.914 3.34562 2.37863 0
M  V30 6161 H 611.575 2.18373 2.2577 0
M  V30 6162 H 610.768 4.56199 2.1424 0
M  V30 6163 H 610.37 3.68349 0.647664 0
M  V30 6164 H 612.662 6.34771 2.36794 0
M  V30 6165 H 613.605 7.01068 0.995464 0
M  V30 6166 H 614.013 5.39777 1.65229 0
M  V30 6167 N 613.412 0.11024 1.57214 0
M  V30 6168 C 614.823 -0.416527 1.81994 0
M  V30 6169 C 615.174 -1.67183 1.02686 0
M  V30 6170 O 614.299 -2.14823 0.260782 0
M  V30 6171 C 614.894 -0.762466 3.30109 0
M  V30 6172 C 613.453 -1.23391 3.556 0
M  V30 6173 C 612.6 -0.238166 2.76275 0
M  V30 6174 H 615.551 0.335491 1.55113 0
M  V30 6175 H 615.572 -1.62068 3.44259 0
M  V30 6176 H 615.084 0.151346 3.87805 0
M  V30 6177 H 613.185 -2.16492 3.03253 0
M  V30 6178 H 613.298 -1.18528 4.64207 0
M  V30 6179 H 611.662 -0.723421 2.4421 0
M  V30 6180 H 612.445 0.668591 3.36727 0
M  V30 6181 N 614.89 -1.56749 -0.16351 0
M  V30 6182 C 615.838 -1.97939 -1.22159 0
M  V30 6183 C 616.832 -0.869288 -1.45395 0
M  V30 6184 O 618.038 -1.05443 -1.45883 0
M  V30 6185 H 614.413 -0.629869 -0.410815 0
M  V30 6186 H 616.384 -2.86115 -0.847381 0
M  V30 6187 C 615.133 -2.36206 -2.55151 0
M  V30 6188 H 614.456 -3.2117 -2.38097 0
M  V30 6189 H 615.896 -2.68863 -3.27854 0
M  V30 6190 C 614.355 -1.20841 -3.14482 0
M  V30 6191 O 614.885 -0.500258 -3.98573 0
M  V30 6192 N 613.091 -0.976943 -2.73686 0
M  V30 6193 H 612.638 -1.55457 -2.05404 0
M  V30 6194 H 612.596 -0.206912 -3.13718 0
M  V30 6195 N 616.368 0.432326 -1.51554 0
M  V30 6196 C 617.598 1.2019 -1.68042 0
M  V30 6197 C 618.006 1.85356 -0.379434 0
M  V30 6198 O 617.349 1.71724 0.652427 0
M  V30 6199 C 617.411 2.32387 -2.74292 0
M  V30 6200 C 617.075 1.87548 -4.16743 0
M  V30 6201 C 618.072 1.37611 -5.01357 0
M  V30 6202 C 615.757 1.95087 -4.62868 0
M  V30 6203 C 617.751 0.958069 -6.30159 0
M  V30 6204 C 615.438 1.52894 -5.91664 0
M  V30 6205 C 616.436 1.03336 -6.75137 0
M  V30 6206 O 616.124 0.617435 -8.01525 0
M  V30 6207 H 615.856 0.368132 -0.56697 0
M  V30 6208 H 618.41 0.517875 -1.98764 0
M  V30 6209 H 616.64 3.04082 -2.38895 0
M  V30 6210 H 618.329 2.94235 -2.79608 0
M  V30 6211 H 619.095 1.31178 -4.66923 0
M  V30 6212 H 614.974 2.32606 -3.98015 0
M  V30 6213 H 618.518 0.570562 -6.95263 0
M  V30 6214 H 614.415 1.58999 -6.25611 0
M  V30 6215 H 615.183 0.742835 -8.15122 0
M  V30 6216 N 617.846 1.41785 0.688094 0
M  V30 6217 C 618.779 1.38643 1.81255 0
M  V30 6218 C 619.757 0.252583 1.60626 0
M  V30 6219 O 620.941 0.440691 1.83276 0
M  V30 6220 C 618.068 1.16449 3.18053 0
M  V30 6221 C 617.114 2.32651 3.57457 0
M  V30 6222 S 617.947 3.95152 3.61407 0
M  V30 6223 C 619.103 3.75275 5.00919 0
M  V30 6224 H 619.336 2.33799 1.83644 0
M  V30 6225 H 616.869 1.28398 0.857513 0
M  V30 6226 H 618.827 1.0433 3.97021 0
M  V30 6227 H 617.488 0.229002 3.13264 0
M  V30 6228 H 616.681 2.12835 4.56856 0
M  V30 6229 H 616.283 2.41215 2.85817 0
M  V30 6230 H 618.575 3.35443 5.88629 0
M  V30 6231 H 619.518 4.74302 5.25778 0
M  V30 6232 H 619.926 3.08401 4.7281 0
M  V30 6233 N 619.324 -0.923095 1.27737 0
M  V30 6234 C 620.256 -2.02871 1.06658 0
M  V30 6235 C 621.269 -1.62786 0.0212095 0
M  V30 6236 O 622.458 -1.76548 0.263267 0
M  V30 6237 C 619.558 -3.33603 0.59682 0
M  V30 6238 C 618.731 -4.02354 1.71551 0
M  V30 6239 C 617.79 -5.11364 1.24071 0
M  V30 6240 O 616.816 -5.35075 1.94123 0
M  V30 6241 N 618.018 -5.80416 0.0988444 0
M  V30 6242 H 620.783 -2.21515 2.01869 0
M  V30 6243 H 618.344 -1.09378 1.19365 0
M  V30 6244 H 620.336 -4.03845 0.262984 0
M  V30 6245 H 618.906 -3.11499 -0.262187 0
M  V30 6246 H 618.126 -3.25786 2.2194 0
M  V30 6247 H 619.414 -4.45035 2.46619 0
M  V30 6248 H 618.812 -5.63611 -0.485743 0
M  V30 6249 H 617.369 -6.51563 -0.17578 0
M  V30 6250 N 620.802 -1.09834 -1.13024 0
M  V30 6251 C 622.03 -0.858902 -1.8823 0
M  V30 6252 C 622.445 0.590164 -1.79339 0
M  V30 6253 O 621.802 1.4065 -1.16292 0
M  V30 6254 C 621.853 -1.29066 -3.37675 0
M  V30 6255 O 621.574 -2.6829 -3.46341 0
M  V30 6256 C 623.075 -1.08421 -4.29837 0
M  V30 6257 H 620.295 -0.308713 -0.595766 0
M  V30 6258 H 622.839 -1.4614 -1.4305 0
M  V30 6259 H 620.994 -0.731961 -3.80422 0
M  V30 6260 H 621.408 -2.86598 -4.39274 0
M  V30 6261 H 622.882 -1.43553 -5.33007 0
M  V30 6262 H 623.359 -0.0223315 -4.39194 0
M  V30 6263 H 623.965 -1.62907 -3.92863 0
M  V30 6264 N 622.28 1.30327 -0.886154 0
M  V30 6265 C 623.528 1.9571 -0.504195 0
M  V30 6266 C 623.849 1.70294 0.950003 0
M  V30 6267 O 623.119 1.02718 1.66811 0
M  V30 6268 H 621.699 0.72412 -0.183465 0
M  V30 6269 H 624.361 1.58835 -1.12949 0
M  V30 6270 H 623.457 3.04704 -0.675431 0
M  V30 6271 N 623.758 0.647228 1.43697 0
M  V30 6272 C 625.006 0.157876 2.01482 0
M  V30 6273 C 625.327 -1.23039 1.51282 0
M  V30 6274 O 624.597 -1.82071 0.722982 0
M  V30 6275 H 623.177 0.0553745 0.744945 0
M  V30 6276 H 625.839 0.83755 1.75986 0
M  V30 6277 H 624.935 0.137895 3.11795 0
M  V30 6278 N 625.236 -1.5273 0.388769 0
M  V30 6279 C 626.166 -2.29353 -0.438111 0
M  V30 6280 C 627.147 -1.32719 -1.06394 0
M  V30 6281 O 628.332 -1.61612 -1.07681 0
M  V30 6282 C 625.462 -3.09995 -1.56589 0
M  V30 6283 C 624.416 -4.14509 -1.06613 0
M  V30 6284 C 623.742 -4.83372 -2.28594 0
M  V30 6285 C 625.042 -5.22127 -0.134459 0
M  V30 6286 H 626.736 -2.98723 0.201206 0
M  V30 6287 H 624.282 -1.43665 0.0982089 0
M  V30 6288 H 626.235 -3.62357 -2.15118 0
M  V30 6289 H 624.959 -2.38357 -2.23279 0
M  V30 6290 H 623.618 -3.63128 -0.503383 0
M  V30 6291 H 623.266 -4.08283 -2.93792 0
M  V30 6292 H 622.966 -5.54012 -1.95817 0
M  V30 6293 H 624.49 -5.38538 -2.87766 0
M  V30 6294 H 625.904 -5.69851 -0.627914 0
M  V30 6295 H 624.301 -6.00011 0.103534 0
M  V30 6296 H 625.371 -4.77971 0.816798 0
M  V30 6297 N 626.714 -0.118576 -1.57153 0
M  V30 6298 C 627.624 0.845484 -2.18835 0
M  V30 6299 C 628.64 1.29299 -1.16438 0
M  V30 6300 O 629.816 1.35607 -1.48905 0
M  V30 6301 C 626.881 2.07795 -2.77529 0
M  V30 6302 C 625.942 1.6824 -3.9496 0
M  V30 6303 C 625.175 2.85612 -4.50845 0
M  V30 6304 O 625.398 4.01025 -4.05629 0
M  V30 6305 O 624.332 2.62721 -5.41536 0
M  V30 6306 H 628.158 0.350568 -3.0167 0
M  V30 6307 H 625.743 0.107013 -1.49016 0
M  V30 6308 H 627.625 2.79978 -3.14945 0
M  V30 6309 H 626.3 2.56294 -1.97725 0
M  V30 6310 H 625.207 0.931663 -3.62313 0
M  V30 6311 H 626.54 1.24484 -4.76198 0
M  V30 6312 N 628.193 1.56834 0.155195 0
M  V30 6313 C 629.441 1.82536 0.867462 0
M  V30 6314 C 629.762 0.698168 1.82073 0
M  V30 6315 O 629.032 -0.280807 1.93877 0
M  V30 6316 H 627.612 0.673401 0.323327 0
M  V30 6317 H 630.274 1.94313 0.151156 0
M  V30 6318 H 629.37 2.77171 1.43466 0
M  V30 6319 N 629.671 -0.424282 1.51781 0
M  V30 6320 C 630.896 -1.19928 1.6921 0
M  V30 6321 C 631.321 -1.8392 0.394355 0
M  V30 6322 O 630.679 -1.69371 -0.646778 0
M  V30 6323 C 630.727 -2.24937 2.81843 0
M  V30 6324 O 629.831 -3.3073 2.46356 0
M  V30 6325 H 629.172 -0.35078 0.563781 0
M  V30 6326 H 631.702 -0.499401 1.98412 0
M  V30 6327 H 631.712 -2.69512 3.06312 0
M  V30 6328 H 630.387 -1.77742 3.76006 0
M  V30 6329 H 628.964 -2.9154 2.32505 0
M  V30 6330 N 631.149 -1.42148 -0.680565 0
M  V30 6331 C 632.099 -1.41634 -1.78672 0
M  V30 6332 C 633.083 -0.288494 -1.58293 0
M  V30 6333 O 634.275 -0.530295 -1.68869 0
M  V30 6334 C 631.404 -1.31558 -3.17092 0
M  V30 6335 C 630.49 -2.49265 -3.43115 0
M  V30 6336 N 630.881 -3.74702 -3.39753 0
M  V30 6337 C 629.179 -2.43401 -3.73727 0
M  V30 6338 C 629.88 -4.52854 -3.651 0
M  V30 6339 N 628.856 -3.83181 -3.85582 0
M  V30 6340 H 632.658 -2.3652 -1.74458 0
M  V30 6341 H 630.172 -1.36415 -0.881171 0
M  V30 6342 H 632.169 -1.29272 -3.96351 0
M  V30 6343 H 630.829 -0.376696 -3.22508 0
M  V30 6344 H 631.84 -4.07378 -3.19787 0
M  V30 6345 H 628.517 -1.58062 -3.86423 0
M  V30 6346 H 629.907 -5.61827 -3.6851 0
M  V30 6347 N 632.627 0.916307 -1.28225 0
M  V30 6348 C 633.857 1.69654 -1.17902 0
M  V30 6349 C 634.265 1.87331 0.265268 0
M  V30 6350 O 633.608 1.39828 1.19137 0
M  V30 6351 C 633.67 3.11024 -1.80289 0
M  V30 6352 C 633.334 3.16643 -3.29525 0
M  V30 6353 C 634.331 2.98032 -4.25997 0
M  V30 6354 C 632.016 3.39238 -3.70436 0
M  V30 6355 C 634.01 3.01924 -5.61356 0
M  V30 6356 C 631.697 3.42762 -5.05922 0
M  V30 6357 C 632.695 3.24125 -6.01192 0
M  V30 6358 O 632.383 3.27406 -7.34208 0
M  V30 6359 H 632.115 0.537197 -0.41036 0
M  V30 6360 H 634.669 1.15547 -1.69817 0
M  V30 6361 H 632.899 3.66662 -1.22865 0
M  V30 6362 H 634.588 3.71063 -1.6452 0
M  V30 6363 H 635.354 2.80405 -3.95725 0
M  V30 6364 H 631.233 3.52791 -2.96749 0
M  V30 6365 H 634.777 2.87295 -6.35694 0
M  V30 6366 H 630.674 3.59916 -5.35846 0
M  V30 6367 H 631.442 3.43784 -7.42802 0
M  V30 6368 N 634.105 1.10431 1.1244 0
M  V30 6369 C 635.035 0.775143 2.20258 0
M  V30 6370 C 636.016 -0.25186 1.68225 0
M  V30 6371 O 637.201 -0.117637 1.93843 0
M  V30 6372 C 634.331 0.206133 3.46688 0
M  V30 6373 C 633.285 1.16382 4.11873 0
M  V30 6374 C 632.611 0.456014 5.32752 0
M  V30 6375 C 633.911 2.5104 4.58013 0
M  V30 6376 H 635.605 1.67665 2.4805 0
M  V30 6377 H 633.151 0.807595 1.19222 0
M  V30 6378 H 635.104 -0.036291 4.21384 0
M  V30 6379 H 633.828 -0.730614 3.18323 0
M  V30 6380 H 632.487 1.39169 3.39157 0
M  V30 6381 H 632.135 -0.485203 5.00654 0
M  V30 6382 H 631.835 1.09466 5.77314 0
M  V30 6383 H 633.359 0.222135 6.10196 0
M  V30 6384 H 634.773 2.32401 5.24083 0
M  V30 6385 H 633.17 3.10789 5.13352 0
M  V30 6386 H 634.24 3.11039 3.71998 0
M  V30 6387 N 635.583 -1.29855 0.893053 0
M  V30 6388 C 636.994 -1.77946 0.564998 0
M  V30 6389 C 637.345 -1.73339 -0.919134 0
M  V30 6390 O 636.47 -1.3152 -1.71847 0
M  V30 6391 C 637.065 -3.23118 1.01883 0
M  V30 6392 C 635.624 -3.69013 0.742051 0
M  V30 6393 C 634.771 -2.50121 1.19727 0
M  V30 6394 H 637.722 -1.16611 1.07646 0
M  V30 6395 H 637.743 -3.78875 0.351249 0
M  V30 6396 H 637.255 -3.26439 2.09903 0
M  V30 6397 H 635.356 -3.71173 -0.325816 0
M  V30 6398 H 635.469 -4.60117 1.33527 0
M  V30 6399 H 633.833 -2.47128 0.616418 0
M  V30 6400 H 634.616 -2.56174 2.28538 0
M  V30 6401 N 637.061 -0.65484 -1.43351 0
M  V30 6402 C 638.472 -0.248506 -1.85039 0
M  V30 6403 C 638.823 1.20526 -1.54816 0
M  V30 6404 O 637.948 1.92016 -0.99794 0
M  V30 6405 C 638.543 -0.444241 -3.35875 0
M  V30 6406 C 637.102 -0.0922108 -3.76287 0
M  V30 6407 C 636.249 -0.746327 -2.67068 0
M  V30 6408 H 639.2 -0.8584 -1.33481 0
M  V30 6409 H 639.221 0.309762 -3.79237 0
M  V30 6410 H 638.733 -1.50239 -3.5784 0
M  V30 6411 H 636.834 0.96328 -3.59933 0
M  V30 6412 H 636.947 -0.518807 -4.76283 0
M  V30 6413 H 635.311 -0.179416 -2.54067 0
M  V30 6414 H 636.094 -1.80754 -2.91861 0
M  V30 6415 N 638.539 1.52521 -0.396863 0
M  V30 6416 C 639.767 2.06091 0.18275 0
M  V30 6417 C 640.182 1.26796 1.39886 0
M  V30 6418 O 639.539 0.316585 1.79733 0
M  V30 6419 C 639.59 3.57362 0.545377 0
M  V30 6420 O 639.311 4.33656 -0.622428 0
M  V30 6421 C 640.812 4.27305 1.18004 0
M  V30 6422 H 638.032 0.670504 0.025789 0
M  V30 6423 H 640.576 1.96561 -0.564276 0
M  V30 6424 H 638.731 3.66941 1.2423 0
M  V30 6425 H 639.145 5.23507 -0.322662 0
M  V30 6426 H 640.619 5.34366 1.38408 0
M  V30 6427 H 641.096 3.83 2.1496 0
M  V30 6428 H 641.702 4.22064 0.523671 0
M  V30 6429 N 640.017 0.126909 1.57088 0
M  V30 6430 C 640.964 -0.82036 2.15728 0
M  V30 6431 C 641.934 -1.25811 1.08447 0
M  V30 6432 O 643.119 -1.33422 1.36393 0
M  V30 6433 C 640.259 -2.06199 2.76724 0
M  V30 6434 C 639.372 -1.67188 3.98337 0
M  V30 6435 C 638.507 -2.86378 4.47393 0
M  V30 6436 C 637.546 -2.43644 5.61519 0
M  V30 6437 N 636.683 -3.55775 6.05284 0
M  V30 6438 H 641.523 -0.313472 2.96347 0
M  V30 6439 H 639.06 -0.14303 1.46403 0
M  V30 6440 H 641.018 -2.78959 3.10222 0
M  V30 6441 H 639.648 -2.54333 1.98782 0
M  V30 6442 H 638.7 -0.842714 3.70948 0
M  V30 6443 H 640.012 -1.31789 4.81075 0
M  V30 6444 H 639.166 -3.67353 4.82842 0
M  V30 6445 H 637.905 -3.25009 3.63621 0
M  V30 6446 H 636.91 -1.61104 5.25667 0
M  V30 6447 H 638.135 -2.06122 6.47063 0
M  V30 6448 H 636.081 -3.94065 5.24451 0
M  V30 6449 H 635.998 -3.24325 6.82898 0
M  V30 6450 H 637.266 -4.37166 6.45373 0
M  V30 6451 N 641.495 -1.56914 -0.146875 0
M  V30 6452 C 642.742 -1.83356 -0.859467 0
M  V30 6453 C 643.07 -0.707811 -1.81164 0
M  V30 6454 O 642.325 0.303155 -1.93338 0
M  V30 6455 C 642.624 -3.16128 -1.66727 0
M  V30 6456 C 642.29 -4.42586 -0.861881 0
M  V30 6457 C 640.952 -4.76929 -0.639687 0
M  V30 6458 C 643.304 -5.20344 -0.298643 0
M  V30 6459 C 640.632 -5.86491 0.156451 0
M  V30 6460 C 642.984 -6.30742 0.484536 0
M  V30 6461 C 641.648 -6.63635 0.717306 0
M  V30 6462 H 640.918 -0.670947 -0.314501 0
M  V30 6463 H 643.565 -1.91104 -0.123108 0
M  V30 6464 H 641.87 -3.03831 -2.47374 0
M  V30 6465 H 643.567 -3.33802 -2.2221 0
M  V30 6466 H 640.157 -4.15662 -1.04513 0
M  V30 6467 H 644.341 -4.94186 -0.457585 0
M  V30 6468 H 639.597 -6.10419 0.346292 0
M  V30 6469 H 643.771 -6.90188 0.928105 0
M  V30 6470 H 641.398 -7.48367 1.33607 0
M  V30 6471 N 642.974 0.416227 -1.52004 0
M  V30 6472 C 644.199 1.19029 -1.69843 0
M  V30 6473 C 644.624 1.83708 -0.404103 0
M  V30 6474 O 643.982 1.69711 0.637787 0
M  V30 6475 C 644.03 2.23439 -2.83032 0
M  V30 6476 O 643.134 3.29419 -2.48106 0
M  V30 6477 H 642.475 0.347785 -0.565634 0
M  V30 6478 H 645.005 0.488871 -1.98674 0
M  V30 6479 H 645.015 2.67884 -3.07737 0
M  V30 6480 H 643.69 1.75745 -3.76944 0
M  V30 6481 H 642.267 2.90303 -2.34048 0
M  V30 6482 N 644.452 1.42507 0.673017 0
M  V30 6483 C 645.7 1.42789 1.43023 0
M  V30 6484 C 646.021 0.0459738 1.94946 0
M  V30 6485 O 645.291 -0.915765 1.73178 0
M  V30 6486 H 643.871 0.525657 0.530748 0
M  V30 6487 H 646.533 1.77944 0.795113 0
M  V30 6488 H 645.629 2.12872 2.28237 0
M  V30 6489 N 645.93 -0.909495 1.28709 0
M  V30 6490 C 646.86 -2.0291 1.15542 0
M  V30 6491 C 647.841 -1.7002 0.0521017 0
M  V30 6492 O 649.026 -1.92835 0.229849 0
M  V30 6493 C 646.156 -3.37458 0.820935 0
M  V30 6494 C 645.11 -3.84524 1.87949 0
M  V30 6495 C 644.436 -5.16086 1.39854 0
M  V30 6496 C 645.736 -4.05918 3.28676 0
M  V30 6497 H 647.43 -2.14183 2.09203 0
M  V30 6498 H 644.976 -1.02913 1.00722 0
M  V30 6499 H 646.929 -4.1528 0.715571 0
M  V30 6500 H 645.653 -3.26249 -0.151374 0
M  V30 6501 H 644.312 -3.08911 1.97408 0
M  V30 6502 H 643.96 -5.01284 0.41518 0
M  V30 6503 H 643.66 -5.48547 2.1064 0
M  V30 6504 H 645.184 -5.96459 1.30649 0
M  V30 6505 H 646.598 -4.74252 3.22115 0
M  V30 6506 H 644.995 -4.49717 3.97334 0
M  V30 6507 H 646.065 -3.10583 3.72379 0
M  V30 6508 N 647.408 -1.11026 -1.11852 0
M  V30 6509 C 648.819 -0.873203 -1.65021 0
M  V30 6510 C 649.17 0.595364 -1.86949 0
M  V30 6511 O 648.295 1.45645 -1.60051 0
M  V30 6512 C 648.89 -1.57859 -2.99777 0
M  V30 6513 C 647.449 -1.38807 -3.49871 0
M  V30 6514 C 646.596 -1.62403 -2.24768 0
M  V30 6515 H 649.547 -1.26712 -0.955503 0
M  V30 6516 H 649.568 -1.02111 -3.66543 0
M  V30 6517 H 649.08 -2.6474 -2.83786 0
M  V30 6518 H 647.181 -0.341163 -3.71035 0
M  V30 6519 H 647.294 -2.13421 -4.28938 0
M  V30 6520 H 645.658 -1.04714 -2.32179 0
M  V30 6521 H 646.441 -2.70549 -2.11324 0
M  V30 6522 N 648.886 1.2938 -0.899927 0
M  V30 6523 C 650.302 1.48052 -0.596059 0
M  V30 6524 C 650.502 1.82114 0.862372 0
M  V30 6525 O 649.558 1.91774 1.64253 0
M  V30 6526 C 650.871 2.59332 -1.52208 0
M  V30 6527 C 652.419 2.73208 -1.5273 0
M  V30 6528 C 652.894 3.87617 -2.43961 0
M  V30 6529 N 654.385 3.9495 -2.42009 0
M  V30 6530 C 655.12 4.82824 -3.09303 0
M  V30 6531 N 654.616 5.75387 -3.85877 0
M  V30 6532 N 656.409 4.76317 -2.98459 0
M  V30 6533 H 648.56 1.05546 -1.8432 0
M  V30 6534 H 650.823 0.524314 -0.78981 0
M  V30 6535 H 650.529 2.41029 -2.56121 0
M  V30 6536 H 650.403 3.56139 -1.24278 0
M  V30 6537 H 652.79 2.90908 -0.495614 0
M  V30 6538 H 652.871 1.76975 -1.84698 0
M  V30 6539 H 652.515 3.70672 -3.47224 0
M  V30 6540 H 652.445 4.83218 -2.09303 0
M  V30 6541 H 654.936 3.28744 -1.86375 0
M  V30 6542 H 655.249 6.39235 -4.34279 0
M  V30 6543 H 653.594 5.75272 -3.89984 0
M  V30 6544 H 656.785 4.0299 -2.38152 0
M  V30 6545 H 656.958 5.44589 -3.51179 0
M  V30 6546 N 650.364 0.662433 1.43002 0
M  V30 6547 C 651.611 0.179591 2.01702 0
M  V30 6548 C 651.939 -1.20964 1.52309 0
M  V30 6549 O 651.194 -1.82343 0.7106 0
M  V30 6550 C 651.493 0.149363 3.57088 0
M  V30 6551 C 651.159 1.48158 4.25864 0
M  V30 6552 C 649.821 1.84638 4.44367 0
M  V30 6553 C 652.173 2.35953 4.64732 0
M  V30 6554 C 649.501 3.08561 4.99006 0
M  V30 6555 C 651.853 3.59176 5.20745 0
M  V30 6556 C 650.517 3.95841 5.37463 0
M  V30 6557 H 649.787 0.0657172 0.73808 0
M  V30 6558 H 652.434 0.854968 1.71355 0
M  V30 6559 H 650.739 -0.609491 3.8703 0
M  V30 6560 H 652.436 -0.241241 4.00274 0
M  V30 6561 H 649.026 1.18777 4.11813 0
M  V30 6562 H 653.21 2.09058 4.50121 0
M  V30 6563 H 648.466 3.37005 5.10135 0
M  V30 6564 H 652.64 4.27417 5.49807 0
M  V30 6565 H 650.267 4.91942 5.79566 0
M  V30 6566 N 651.842 -1.52309 0.404946 0
M  V30 6567 C 653.067 -2.06666 -0.1743 0
M  V30 6568 C 653.492 -1.27341 -1.38441 0
M  V30 6569 O 652.85 -0.302539 -1.78758 0
M  V30 6570 C 652.898 -3.57014 -0.507262 0
M  V30 6571 O 652.002 -3.80144 -1.59889 0
M  V30 6572 H 651.343 -0.663807 -0.0160273 0
M  V30 6573 H 653.873 -1.96297 0.576937 0
M  V30 6574 H 653.883 -4.00724 -0.767098 0
M  V30 6575 H 652.558 -4.14184 0.377368 0
M  V30 6576 H 651.135 -3.48316 -1.33155 0
M  V30 6577 N 653.32 -0.135238 -1.57019 0
M  V30 6578 C 654.27 0.820408 -2.12728 0
M  V30 6579 C 655.254 1.21735 -1.05211 0
M  V30 6580 O 656.446 1.18574 -1.31413 0
M  V30 6581 C 653.575 2.06414 -2.74314 0
M  V30 6582 C 652.661 1.69083 -3.88937 0
M  V30 6583 N 653.052 1.0251 -4.95303 0
M  V30 6584 C 651.35 1.98434 -3.99425 0
M  V30 6585 C 652.051 0.846749 -5.75504 0
M  V30 6586 N 651.027 1.3769 -5.25873 0
M  V30 6587 H 654.829 0.302426 -2.9234 0
M  V30 6588 H 652.343 0.0667009 -1.62263 0
M  V30 6589 H 654.34 2.75863 -3.12579 0
M  V30 6590 H 653 2.58741 -1.96171 0
M  V30 6591 H 654.011 0.687207 -5.1332 0
M  V30 6592 H 650.688 2.52693 -3.32344 0
M  V30 6593 H 652.078 0.322949 -6.71123 0
M  V30 6594 N 654.798 1.5699 0.138552 0
M  V30 6595 C 656.075 1.74741 0.87891 0
M  V30 6596 C 656.455 0.705522 1.98961 0
M  V30 6597 O 655.803 -0.274066 2.2685 0
M  V30 6598 C 656.013 3.1909 1.4136 0
M  V30 6599 C 657.361 3.81023 1.87368 0
M  V30 6600 O 658.385 3.22571 1.51084 0
M  V30 6601 O 657.244 4.83722 2.54312 0
M  V30 6602 H 654.338 0.714781 0.415953 0
M  V30 6603 H 656.884 1.69248 0.123817 0
M  V30 6604 H 655.656 3.86424 0.61579 0
M  V30 6605 H 655.279 3.29043 2.23196 0
M  V30 6606 N 656.276 -0.40816 1.52223 0
M  V30 6607 C 657.692 -0.74685 1.41047 0
M  V30 6608 C 657.892 -1.94788 0.51573 0
M  V30 6609 O 656.948 -2.52494 -0.0181156 0
M  V30 6610 C 658.261 -0.999878 2.83589 0
M  V30 6611 C 659.809 -1.10253 2.92939 0
M  V30 6612 C 660.284 -1.38832 4.36451 0
M  V30 6613 N 661.775 -1.45694 4.3969 0
M  V30 6614 C 662.51 -1.69435 5.47795 0
M  V30 6615 N 662.006 -1.90774 6.66016 0
M  V30 6616 N 663.799 -1.71458 5.35312 0
M  V30 6617 H 655.95 0.382409 2.08929 0
M  V30 6618 H 658.213 0.108807 0.941735 0
M  V30 6619 H 657.919 -0.189723 3.51188 0
M  V30 6620 H 657.793 -1.91978 3.24691 0
M  V30 6621 H 660.18 -1.90328 2.2552 0
M  V30 6622 H 660.261 -0.160973 2.55293 0
M  V30 6623 H 659.905 -0.592741 5.04429 0
M  V30 6624 H 659.835 -2.34241 4.71634 0
M  V30 6625 H 662.326 -1.3099 3.54472 0
M  V30 6626 H 662.639 -2.08342 7.44186 0
M  V30 6627 H 660.984 -1.88037 6.69079 0
M  V30 6628 H 664.175 -1.54326 4.41929 0
M  V30 6629 H 664.348 -1.89621 6.19635 0
M  V30 6630 N 657.755 -1.42862 -0.66545 0
M  V30 6631 C 659.171 -1.25993 -0.979687 0
M  V30 6632 C 659.371 -0.170831 -2.00775 0
M  V30 6633 O 658.427 0.454827 -2.4837 0
M  V30 6634 C 659.74 -2.62005 -1.47559 0
M  V30 6635 C 661.288 -2.69437 -1.59288 0
M  V30 6636 C 661.763 -4.05838 -2.12272 0
M  V30 6637 N 663.254 -4.0784 -2.19592 0
M  V30 6638 C 663.989 -5.10205 -2.61684 0
M  V30 6639 N 663.485 -6.22949 -3.03161 0
M  V30 6640 N 665.278 -4.9756 -2.61516 0
M  V30 6641 H 657.429 -2.12395 0.0150493 0
M  V30 6642 H 659.692 -0.946355 -0.0558187 0
M  V30 6643 H 659.398 -3.42605 -0.794654 0
M  V30 6644 H 659.272 -2.86566 -2.45275 0
M  V30 6645 H 661.659 -1.89178 -2.26486 0
M  V30 6646 H 661.74 -2.48655 -0.600374 0
M  V30 6647 H 661.384 -4.86559 -1.4568 0
M  V30 6648 H 661.314 -4.23977 -3.12331 0
M  V30 6649 H 663.805 -3.26452 -1.90361 0
M  V30 6650 H 664.118 -6.96899 -3.33993 0
M  V30 6651 H 662.463 -6.2644 -3.00995 0
M  V30 6652 H 665.654 -4.08551 -2.28481 0
M  V30 6653 H 665.827 -5.77468 -2.93999 0
M  V30 6654 N 659.233 0.902656 -1.29189 0
M  V30 6655 C 660.644 1.46809 -1.15343 0
M  V30 6656 C 660.995 1.94568 0.252517 0
M  V30 6657 O 660.12 1.83454 1.14777 0
M  V30 6658 C 660.715 2.66829 -2.08776 0
M  V30 6659 C 659.274 3.19518 -1.98961 0
M  V30 6660 C 658.421 1.92212 -1.99874 0
M  V30 6661 H 661.372 0.714282 -1.41717 0
M  V30 6662 H 661.393 3.42465 -1.65826 0
M  V30 6663 H 660.905 2.32039 -3.11094 0
M  V30 6664 H 659.006 3.59008 -0.99721 0
M  V30 6665 H 659.119 3.84016 -2.86477 0
M  V30 6666 H 657.483 2.0979 -1.44431 0
M  V30 6667 H 658.266 1.59702 -3.03891 0
M  V30 6668 N 660.711 1.11618 1.11262 0
M  V30 6669 C 661.936 0.889013 1.8738 0
M  V30 6670 C 662.361 -0.555884 1.79698 0
M  V30 6671 O 661.719 -1.39272 1.16073 0
M  V30 6672 C 661.767 1.35759 3.34069 0
M  V30 6673 O 660.871 0.530499 4.08974 0
M  V30 6674 H 660.212 0.320082 0.581759 0
M  V30 6675 H 662.742 1.48611 1.40627 0
M  V30 6676 H 662.752 1.35291 3.84916 0
M  V30 6677 H 661.427 2.40973 3.38976 0
M  V30 6678 H 660.004 0.601439 3.68018 0
M  V30 6679 N 662.189 -1.289 0.906776 0
M  V30 6680 C 663.414 -1.99939 0.551303 0
M  V30 6681 C 663.839 -1.67366 -0.858496 0
M  V30 6682 O 663.197 -0.902176 -1.57259 0
M  V30 6683 C 663.245 -3.52523 0.758937 0
M  V30 6684 O 662.349 -4.11983 -0.185308 0
M  V30 6685 H 661.69 -0.628376 0.214568 0
M  V30 6686 H 664.22 -1.64225 1.2203 0
M  V30 6687 H 664.23 -4.02522 0.666329 0
M  V30 6688 H 662.905 -3.75566 1.78671 0
M  V30 6689 H 661.482 -3.72873 -0.0445577 0
M  V30 6690 N 663.667 -0.670007 -1.42649 0
M  V30 6691 C 664.907 -0.194106 -2.03476 0
M  V30 6692 C 665.271 1.1755 -1.51809 0
M  V30 6693 O 666.472 1.74579 -2.04391 0
M  V30 6694 C 664.743 -0.221828 -3.56711 0
M  V30 6695 S 666.302 0.183772 -4.38415 0
M  V30 6696 H 663.12 -0.0802478 -0.706457 0
M  V30 6697 H 665.722 -0.882092 -1.74469 0
M  V30 6698 H 664.426 -1.22107 -3.91814 0
M  V30 6699 H 663.957 0.486149 -3.90385 0
M  V30 6700 H 665.972 1.41839 -4.75496 0
M  V30 6701 N 665.145 1.52092 -0.413018 0
M  V30 6702 C 666.394 2.01041 0.16287 0
M  V30 6703 C 666.707 1.30288 1.45892 0
M  V30 6704 O 667.913 1.70075 2.11629 0
M  V30 6705 C 666.369 3.58283 0.340806 0
M  V30 6706 C 665.977 4.37955 -0.943377 0
M  V30 6707 C 667.721 4.15452 0.871774 0
M  V30 6708 C 665.628 5.86847 -0.732417 0
M  V30 6709 H 664.558 0.751224 0.0646414 0
M  V30 6710 H 667.209 1.75404 -0.539059 0
M  V30 6711 H 665.591 3.80266 1.10516 0
M  V30 6712 H 666.765 4.2773 -1.71418 0
M  V30 6713 H 665.08 3.92122 -1.40105 0
M  V30 6714 H 667.677 5.24375 1.0457 0
M  V30 6715 H 668.02 3.73057 1.84755 0
M  V30 6716 H 668.553 3.97452 0.166377 0
M  V30 6717 H 665.292 6.33609 -1.67986 0
M  V30 6718 H 664.812 5.998 -0.000980058 0
M  V30 6719 H 666.491 6.45906 -0.376105 0
M  V30 6720 N 666.623 0.143563 1.56945 0
M  V30 6721 C 667.848 -0.518701 2.00809 0
M  V30 6722 C 668.273 -1.5785 1.02298 0
M  V30 6723 O 667.631 -1.813 -0.0017839 0
M  V30 6724 C 667.679 -1.09929 3.43436 0
M  V30 6725 O 666.783 -2.21425 3.47915 0
M  V30 6726 H 666.124 -0.127215 0.6517 0
M  V30 6727 H 668.654 0.239283 2.03196 0
M  V30 6728 H 668.664 -1.4288 3.82164 0
M  V30 6729 H 667.339 -0.323162 4.14643 0
M  V30 6730 H 665.916 -1.89728 3.21026 0
M  V30 6731 N 668.101 -1.57061 -0.130224 0
M  V30 6732 C 669.347 -1.85412 -0.836295 0
M  V30 6733 C 669.702 -0.729831 -1.7802 0
M  V30 6734 O 668.995 0.271021 -1.89673 0
M  V30 6735 C 669.189 -3.17878 -1.63365 0
M  V30 6736 C 669.018 -4.43086 -0.768453 0
M  V30 6737 C 667.788 -5.03488 -0.427598 0
M  V30 6738 C 669.986 -5.14219 -0.0911495 0
M  V30 6739 N 667.968 -6.12253 0.449439 0
M  V30 6740 C 669.339 -6.16632 0.645341 0
M  V30 6741 C 671.394 -4.97898 -0.0135625 0
M  V30 6742 C 670.097 -7.0449 1.45212 0
M  V30 6743 C 672.123 -5.86234 0.780001 0
M  V30 6744 C 671.485 -6.88141 1.50472 0
M  V30 6745 H 667.584 -0.728875 -0.283311 0
M  V30 6746 H 670.168 -1.9444 -0.100662 0
M  V30 6747 H 668.339 -3.09967 -2.3404 0
M  V30 6748 H 670.071 -3.34076 -2.28419 0
M  V30 6749 H 666.826 -4.67344 -0.767264 0
M  V30 6750 H 667.25 -6.71263 0.879476 0
M  V30 6751 H 671.892 -4.19082 -0.559511 0
M  V30 6752 H 669.61 -7.82722 2.00926 0
M  V30 6753 H 673.196 -5.75671 0.842246 0
M  V30 6754 H 672.076 -7.55311 2.1089 0
M  V30 6755 N 669.579 0.400081 -1.52437 0
M  V30 6756 C 670.489 1.51253 -1.79331 0
M  V30 6757 C 671.505 1.60188 -0.679396 0
M  V30 6758 O 672.681 1.76733 -0.965791 0
M  V30 6759 C 669.746 2.869 -1.94652 0
M  V30 6760 C 668.807 2.87777 -3.18564 0
M  V30 6761 C 668.04 4.16954 -3.33145 0
M  V30 6762 O 668.263 5.11329 -2.52783 0
M  V30 6763 O 667.197 4.2487 -4.26343 0
M  V30 6764 H 671.023 1.31461 -2.73773 0
M  V30 6765 H 668.608 0.586834 -1.37392 0
M  V30 6766 H 670.49 3.67336 -2.065 0
M  V30 6767 H 669.165 3.06741 -1.034 0
M  V30 6768 H 668.072 2.06162 -3.12167 0
M  V30 6769 H 669.405 2.72886 -4.09627 0
M  V30 6770 N 671.057 1.43213 0.657864 0
M  V30 6771 C 672.303 1.44798 1.41991 0
M  V30 6772 C 672.636 0.070256 1.94073 0
M  V30 6773 O 671.911 -0.908177 1.71995 0
M  V30 6774 C 672.194 2.4865 2.60471 0
M  V30 6775 C 672.047 3.95679 2.13911 0
M  V30 6776 C 673.366 2.49292 3.62686 0
M  V30 6777 H 670.485 0.527244 0.514959 0
M  V30 6778 H 673.127 1.74733 0.74621 0
M  V30 6779 H 671.277 2.23254 3.17946 0
M  V30 6780 H 672.949 4.32116 1.61472 0
M  V30 6781 H 671.192 4.08733 1.45325 0
M  V30 6782 H 671.863 4.6395 2.99089 0
M  V30 6783 H 674.339 2.71917 3.14961 0
M  V30 6784 H 673.215 3.23907 4.43143 0
M  V30 6785 H 673.476 1.52502 4.14964 0
M  V30 6786 N 672.536 -0.895792 1.29666 0
M  V30 6787 C 673.782 -1.64908 1.18039 0
M  V30 6788 C 674.115 -1.9236 -0.266682 0
M  V30 6789 O 673.39 -1.53682 -1.19214 0
M  V30 6790 C 673.673 -2.99574 1.99819 0
M  V30 6791 C 673.526 -2.79163 3.52687 0
M  V30 6792 C 674.845 -4.00358 1.82761 0
M  V30 6793 H 671.964 -0.598437 0.430165 0
M  V30 6794 H 674.606 -1.03736 1.59182 0
M  V30 6795 H 672.756 -3.51786 1.64859 0
M  V30 6796 H 674.428 -2.33821 3.9765 0
M  V30 6797 H 672.671 -2.13871 3.77414 0
M  V30 6798 H 673.342 -3.74871 4.05186 0
M  V30 6799 H 675.818 -3.57268 2.13304 0
M  V30 6800 H 674.694 -4.92514 2.42325 0
M  V30 6801 H 674.955 -4.35096 0.783839 0
M  V30 6802 N 674.014 -1.12206 -1.10668 0
M  V30 6803 C 674.924 -0.800686 -2.20513 0
M  V30 6804 C 675.94 0.209512 -1.72734 0
M  V30 6805 O 677.116 0.043705 -2.01353 0
M  V30 6806 C 674.181 -0.257353 -3.45744 0
M  V30 6807 C 673.242 -1.32718 -4.0827 0
M  V30 6808 C 672.475 -0.809674 -5.27522 0
M  V30 6809 O 672.698 0.35742 -5.69279 0
M  V30 6810 O 671.632 -1.57816 -5.80842 0
M  V30 6811 H 675.458 -1.71807 -2.50432 0
M  V30 6812 H 673.043 -0.898546 -1.19359 0
M  V30 6813 H 674.925 0.0408849 -4.2138 0
M  V30 6814 H 673.6 0.632627 -3.17458 0
M  V30 6815 H 672.507 -1.67855 -3.34329 0
M  V30 6816 H 673.84 -2.19083 -4.40753 0
M  V30 6817 N 675.492 1.28418 -0.913599 0
M  V30 6818 C 676.455 2.25564 -0.406624 0
M  V30 6819 C 677.455 1.5387 0.466965 0
M  V30 6820 O 678.645 1.72094 0.270042 0
M  V30 6821 C 675.777 3.38339 0.417053 0
M  V30 6822 H 676.97 2.71926 -1.26477 0
M  V30 6823 H 674.523 1.40098 -0.692986 0
M  V30 6824 H 675.258 2.97339 1.29461 0
M  V30 6825 H 675.043 3.91542 -0.209102 0
M  V30 6826 H 676.533 4.10578 0.762602 0
M  V30 6827 N 676.97 0.677563 1.42291 0
M  V30 6828 C 678.198 0.209459 2.05837 0
M  V30 6829 C 678.613 -1.13444 1.50917 0
M  V30 6830 O 677.97 -1.70529 0.65008 0
M  V30 6831 C 678.021 0.138819 3.61233 0
M  V30 6832 O 677.742 1.42962 4.14118 0
M  V30 6833 C 679.243 -0.352449 4.41897 0
M  V30 6834 H 676.463 0.101209 0.663323 0
M  V30 6835 H 679.007 0.925077 1.8238 0
M  V30 6836 H 677.162 -0.527505 3.83792 0
M  V30 6837 H 677.576 1.3048 5.08011 0
M  V30 6838 H 679.05 -0.350778 5.50884 0
M  V30 6839 H 679.527 -1.3882 4.16684 0
M  V30 6840 H 680.133 0.282236 4.24362 0
M  V30 6841 N 678.448 -1.51871 0.421078 0
M  V30 6842 C 679.688 -2.03848 -0.150167 0
M  V30 6843 C 680.052 -1.29925 -1.41363 0
M  V30 6844 O 681.253 -1.7219 -2.06408 0
M  V30 6845 C 679.524 -3.55374 -0.38003 0
M  V30 6846 S 681.083 -4.29111 -0.917011 0
M  V30 6847 H 677.901 -0.709904 -0.0394639 0
M  V30 6848 H 680.503 -1.86799 0.576746 0
M  V30 6849 H 679.207 -4.0675 0.546122 0
M  V30 6850 H 678.738 -3.76687 -1.13448 0
M  V30 6851 H 680.753 -4.44944 -2.19635 0
M  V30 6852 N 679.926 -0.151884 -1.56866 0
M  V30 6853 C 680.889 0.771861 -2.15812 0
M  V30 6854 C 681.889 1.17181 -1.10115 0
M  V30 6855 O 683.079 1.09194 -1.35729 0
M  V30 6856 C 680.211 2.04806 -2.7252 0
M  V30 6857 H 681.404 0.259021 -2.98779 0
M  V30 6858 H 678.957 0.097588 -1.55995 0
M  V30 6859 H 679.692 2.60445 -1.93233 0
M  V30 6860 H 679.477 1.77044 -3.49854 0
M  V30 6861 H 680.967 2.70771 -3.1792 0
M  V30 6862 N 681.404 1.57128 0.121893 0
M  V30 6863 C 682.644 1.86517 0.836113 0
M  V30 6864 C 683.008 0.739497 1.77188 0
M  V30 6865 O 684.209 0.91508 2.52744 0
M  V30 6866 C 682.48 3.21129 1.56878 0
M  V30 6867 S 684.039 3.72143 2.32497 0
M  V30 6868 H 680.857 0.653923 0.279115 0
M  V30 6869 H 683.459 1.95271 0.0946254 0
M  V30 6870 H 682.163 4.01002 0.873255 0
M  V30 6871 H 681.694 3.15446 2.35069 0
M  V30 6872 H 683.709 3.43413 3.58164 0
M  V30 6873 N 682.882 -0.391992 1.52647 0
M  V30 6874 C 683.812 -1.48517 1.8018 0
M  V30 6875 C 684.793 -1.57039 0.653667 0
M  V30 6876 O 685.978 -1.72036 0.900962 0
M  V30 6877 C 683.108 -2.86161 1.96797 0
M  V30 6878 C 682.062 -2.92481 3.12472 0
M  V30 6879 C 681.388 -4.32546 3.14338 0
M  V30 6880 C 682.688 -2.624 4.51601 0
M  V30 6881 H 684.382 -1.25726 2.71723 0
M  V30 6882 H 681.928 -0.603387 1.30749 0
M  V30 6883 H 683.881 -3.62639 2.14641 0
M  V30 6884 H 682.605 -3.10283 1.01941 0
M  V30 6885 H 681.264 -2.18451 2.94406 0
M  V30 6886 H 680.912 -4.53703 2.1717 0
M  V30 6887 H 680.612 -4.37695 3.92042 0
M  V30 6888 H 682.136 -5.10934 3.34333 0
M  V30 6889 H 683.55 -3.28596 4.69785 0
M  V30 6890 H 681.947 -2.78903 5.3135 0
M  V30 6891 H 683.017 -1.57754 4.58521 0
M  V30 6892 N 684.36 -1.4356 -0.65026 0
M  V30 6893 C 685.29 -1.51758 -1.77459 0
M  V30 6894 C 686.271 -0.372019 -1.65982 0
M  V30 6895 O 687.456 -0.589627 -1.85033 0
M  V30 6896 C 684.586 -1.44302 -3.15902 0
M  V30 6897 C 683.54 -2.57138 -3.42146 0
M  V30 6898 C 682.866 -2.34735 -4.8042 0
M  V30 6899 C 684.166 -3.99373 -3.36598 0
M  V30 6900 H 685.86 -2.45863 -1.70855 0
M  V30 6901 H 683.406 -1.18333 -0.820566 0
M  V30 6902 H 685.359 -1.48641 -3.94314 0
M  V30 6903 H 684.083 -0.467026 -3.23244 0
M  V30 6904 H 682.742 -2.52157 -2.66106 0
M  V30 6905 H 682.39 -1.35372 -4.84441 0
M  V30 6906 H 682.09 -3.10375 -4.9894 0
M  V30 6907 H 683.614 -2.40862 -5.61086 0
M  V30 6908 H 685.028 -4.05826 -4.04942 0
M  V30 6909 H 683.425 -4.75063 -3.66654 0
M  V30 6910 H 684.495 -4.243 -2.34729 0
M  V30 6911 N 685.838 0.888903 -1.30139 0
M  V30 6912 C 686.801 1.97576 -1.16174 0
M  V30 6913 C 687.801 1.60525 -0.094086 0
M  V30 6914 O 688.991 1.70812 -0.341889 0
M  V30 6915 C 686.123 3.3188 -0.778983 0
M  V30 6916 H 687.316 2.11393 -2.12728 0
M  V30 6917 H 684.869 1.0748 -1.1348 0
M  V30 6918 H 685.604 3.23765 0.186225 0
M  V30 6919 H 685.389 3.60141 -1.55051 0
M  V30 6920 H 686.879 4.11612 -0.704631 0
M  V30 6921 N 687.317 1.12792 1.10072 0
M  V30 6922 C 688.249 0.757003 2.16338 0
M  V30 6923 C 689.262 -0.218144 1.61332 0
M  V30 6924 O 690.451 0.0010727 1.785 0
M  V30 6925 C 687.551 0.100303 3.38752 0
M  V30 6926 C 686.724 1.10586 4.2319 0
M  V30 6927 C 685.783 0.47609 5.24042 0
M  V30 6928 O 684.809 1.13418 5.57786 0
M  V30 6929 N 686.011 -0.754823 5.75572 0
M  V30 6930 H 688.776 1.6714 2.48766 0
M  V30 6931 H 686.337 1.02003 1.25726 0
M  V30 6932 H 688.329 -0.333092 4.03327 0
M  V30 6933 H 686.899 -0.716915 3.04268 0
M  V30 6934 H 686.119 1.71677 3.54853 0
M  V30 6935 H 687.407 1.78571 4.76435 0
M  V30 6936 H 686.805 -1.30838 5.50362 0
M  V30 6937 H 685.362 -1.13098 6.41913 0
M  V30 6938 N 688.795 -1.27931 0.920396 0
M  V30 6939 C 690.043 -1.94304 0.555906 0
M  V30 6940 C 690.364 -1.72753 -0.904519 0
M  V30 6941 O 689.634 -1.07104 -1.64029 0
M  V30 6942 H 688.214 -0.719001 0.202599 0
M  V30 6943 H 690.876 -1.55785 1.1712 0
M  V30 6944 H 689.972 -3.02806 0.755981 0
M  V30 6945 N 690.273 -0.685099 -1.4193 0
M  V30 6946 C 691.183 -0.013404 -2.34596 0
M  V30 6947 C 692.199 0.777589 -1.55658 0
M  V30 6948 O 693.375 0.717553 -1.88184 0
M  V30 6949 C 690.44 0.919031 -3.34297 0
M  V30 6950 C 689.501 0.121417 -4.29128 0
M  V30 6951 C 688.734 1.00944 -5.24067 0
M  V30 6952 O 688.957 2.24898 -5.24192 0
M  V30 6953 O 687.891 0.464724 -6.00103 0
M  V30 6954 H 691.717 -0.776978 -2.93593 0
M  V30 6955 H 689.302 -0.445379 -1.42607 0
M  V30 6956 H 691.184 1.45402 -3.9552 0
M  V30 6957 H 689.859 1.66228 -2.77759 0
M  V30 6958 H 688.766 -0.45792 -3.71287 0
M  V30 6959 H 690.099 -0.582937 -4.88736 0
M  V30 6960 N 691.751 1.51645 -0.429126 0
M  V30 6961 C 692.661 2.31288 0.392809 0
M  V30 6962 C 693.677 1.39852 1.03525 0
M  V30 6963 O 694.853 1.72926 1.03241 0
M  V30 6964 C 691.918 3.13347 1.48372 0
M  V30 6965 C 690.979 4.20551 0.862268 0
M  V30 6966 C 690.212 4.98688 1.9012 0
M  V30 6967 O 690.435 4.77359 3.12225 0
M  V30 6968 O 689.369 5.83005 1.4963 0
M  V30 6969 H 693.195 3.02609 -0.257138 0
M  V30 6970 H 690.78 1.48163 -0.191851 0
M  V30 6971 H 692.662 3.64387 2.1166 0
M  V30 6972 H 691.337 2.44799 2.1179 0
M  V30 6973 H 690.244 3.73609 0.191568 0
M  V30 6974 H 691.577 4.91449 0.271704 0
M  V30 6975 N 693.229 0.160201 1.56784 0
M  V30 6976 C 694.192 -0.760405 2.16219 0
M  V30 6977 C 695.192 -1.16595 1.10735 0
M  V30 6978 O 696.382 -1.08472 1.36306 0
M  V30 6979 C 693.514 -2.03358 2.73603 0
M  V30 6980 H 694.707 -0.243173 2.98912 0
M  V30 6981 H 692.26 -0.0893139 1.56045 0
M  V30 6982 H 692.995 -2.59416 1.94612 0
M  V30 6983 H 692.78 -1.75186 3.50788 0
M  V30 6984 H 694.27 -2.69081 3.19351 0
M  V30 6985 N 694.707 -1.5719 -0.113559 0
M  V30 6986 C 695.617 -2.04041 -1.15777 0
M  V30 6987 C 696.633 -0.961812 -1.45001 0
M  V30 6988 O 697.809 -1.2737 -1.56009 0
M  V30 6989 C 694.874 -2.43994 -2.46308 0
M  V30 6990 C 693.935 -3.65962 -2.24433 0
M  V30 6991 C 693.168 -4.04 -3.4874 0
M  V30 6992 O 693.391 -3.42321 -4.56259 0
M  V30 6993 O 692.325 -4.97069 -3.3942 0
M  V30 6994 H 696.151 -2.93248 -0.789899 0
M  V30 6995 H 693.736 -1.45828 -0.324748 0
M  V30 6996 H 695.618 -2.70401 -3.23204 0
M  V30 6997 H 694.293 -1.57932 -2.82558 0
M  V30 6998 H 693.2 -3.44697 -1.45377 0
M  V30 6999 H 694.533 -4.52746 -1.93084 0
M  V30 7000 N 696.185 0.383891 -1.52853 0
M  V30 7001 C 697.132 1.46924 -1.77995 0
M  V30 7002 C 698.102 1.53958 -0.623396 0
M  V30 7003 O 699.287 1.70134 -0.863657 0
M  V30 7004 C 696.427 2.84093 -1.95921 0
M  V30 7005 C 695.54 2.86171 -3.23621 0
M  V30 7006 C 694.675 4.14799 -3.31836 0
M  V30 7007 C 693.714 4.10948 -4.53639 0
M  V30 7008 N 692.851 5.31192 -4.59107 0
M  V30 7009 H 697.691 1.24786 -2.70615 0
M  V30 7010 H 695.228 0.605265 -1.34071 0
M  V30 7011 H 697.186 3.63755 -2.04299 0
M  V30 7012 H 695.816 3.04671 -1.06656 0
M  V30 7013 H 694.868 1.9885 -3.24288 0
M  V30 7014 H 696.18 2.79194 -4.13343 0
M  V30 7015 H 695.334 5.02867 -3.39425 0
M  V30 7016 H 694.073 4.24505 -2.40097 0
M  V30 7017 H 693.078 3.21268 -4.46169 0
M  V30 7018 H 694.303 4.0286 -5.467 0
M  V30 7019 H 692.249 5.41518 -3.70262 0
M  V30 7020 H 692.166 5.26311 -5.42708 0
M  V30 7021 H 693.434 6.21143 -4.70958 0
M  V30 7022 N 697.663 1.43903 0.642637 0
M  V30 7023 C 698.573 1.52349 1.78401 0
M  V30 7024 C 699.589 0.409869 1.69104 0
M  V30 7025 O 700.765 0.665548 1.90085 0
M  V30 7026 C 697.83 1.45408 3.14734 0
M  V30 7027 C 696.891 2.67528 3.35749 0
M  V30 7028 C 696.124 2.60909 4.65577 0
M  V30 7029 O 696.347 1.6627 5.45628 0
M  V30 7030 O 695.281 3.5158 4.88544 0
M  V30 7031 H 699.107 2.48752 1.7423 0
M  V30 7032 H 696.692 1.26021 0.802439 0
M  V30 7033 H 698.574 1.44019 3.96026 0
M  V30 7034 H 697.249 0.521437 3.19473 0
M  V30 7035 H 696.156 2.74487 2.5418 0
M  V30 7036 H 697.489 3.598 3.35864 0
M  V30 7037 N 699.141 -0.881989 1.30609 0
M  V30 7038 C 700.091 -1.97539 1.13852 0
M  V30 7039 C 701.075 -1.60813 0.0528428 0
M  V30 7040 O 702.267 -1.74827 0.276484 0
M  V30 7041 C 699.396 -3.32977 0.835519 0
M  V30 7042 C 698.482 -3.76008 1.96159 0
M  V30 7043 N 698.873 -3.91109 3.20729 0
M  V30 7044 C 697.171 -4.05427 1.85863 0
M  V30 7045 C 697.872 -4.27661 3.94311 0
M  V30 7046 N 696.848 -4.37686 3.22385 0
M  V30 7047 H 700.65 -2.07309 2.08327 0
M  V30 7048 H 698.164 -1.072 1.21992 0
M  V30 7049 H 700.161 -4.11041 0.696477 0
M  V30 7050 H 698.821 -3.24542 -0.101135 0
M  V30 7051 H 699.832 -3.7616 3.55984 0
M  V30 7052 H 696.509 -4.05449 0.995847 0
M  V30 7053 H 697.899 -4.47042 5.01601 0
M  V30 7054 N 700.619 -1.13374 -1.09472 0
M  V30 7055 C 701.859 -0.905422 -1.83252 0
M  V30 7056 C 702.223 0.558396 -1.83701 0
M  V30 7057 O 703.424 0.904254 -2.53134 0
M  V30 7058 C 701.695 -1.47658 -3.25472 0
M  V30 7059 S 703.254 -1.38825 -4.16261 0
M  V30 7060 H 700.072 -0.326371 -0.631667 0
M  V30 7061 H 702.674 -1.44517 -1.31663 0
M  V30 7062 H 701.378 -2.53533 -3.22722 0
M  V30 7063 H 700.909 -0.934756 -3.82133 0
M  V30 7064 H 702.924 -0.366379 -4.94846 0
M  V30 7065 N 702.098 1.27442 -0.927168 0
M  V30 7066 C 703.323 1.99036 -0.583042 0
M  V30 7067 C 703.748 1.68711 0.83176 0
M  V30 7068 O 703.106 0.927081 1.55804 0
M  V30 7069 C 703.154 3.51271 -0.814925 0
M  V30 7070 O 702.258 4.12226 0.119742 0
M  V30 7071 H 701.599 0.624883 -0.224538 0
M  V30 7072 H 704.129 1.62263 -1.24628 0
M  V30 7073 H 704.139 4.01411 -0.730282 0
M  V30 7074 H 702.814 3.72676 -1.84623 0
M  V30 7075 H 701.391 3.72897 -0.0147688 0
M  V30 7076 N 703.576 0.692616 1.41565 0
M  V30 7077 C 704.523 0.0254264 2.30786 0
M  V30 7078 C 705.493 -0.774347 1.46946 0
M  V30 7079 O 706.678 -0.742981 1.7574 0
M  V30 7080 C 703.818 -0.907123 3.32964 0
M  V30 7081 C 702.931 -0.0992784 4.31886 0
M  V30 7082 C 702.066 -1.0292 5.21134 0
M  V30 7083 C 701.105 -0.214088 6.11725 0
M  V30 7084 N 700.242 -1.09766 6.93467 0
M  V30 7085 H 705.082 0.792036 2.87282 0
M  V30 7086 H 702.619 0.4023 1.41492 0
M  V30 7087 H 704.577 -1.46181 3.90752 0
M  V30 7088 H 703.207 -1.64016 2.78026 0
M  V30 7089 H 702.259 0.572287 3.76071 0
M  V30 7090 H 703.571 0.532782 4.95946 0
M  V30 7091 H 702.725 -1.65321 5.83741 0
M  V30 7092 H 701.464 -1.69512 4.57293 0
M  V30 7093 H 700.469 0.42302 5.4817 0
M  V30 7094 H 701.694 0.447995 6.77621 0
M  V30 7095 H 699.64 -1.74965 6.32237 0
M  V30 7096 H 699.557 -0.521099 7.54202 0
M  V30 7097 H 700.825 -1.70858 7.60544 0
M  V30 7098 N 705.054 -1.51416 0.437162 0
M  V30 7099 C 706.294 -2.03995 -0.128538 0
M  V30 7100 C 706.658 -1.31417 -1.39977 0
M  V30 7101 O 707.859 -1.74369 -2.0457 0
M  V30 7102 C 706.13 -3.55757 -0.342317 0
M  V30 7103 S 707.689 -4.3006 -0.871446 0
M  V30 7104 H 704.507 -0.710283 -0.0319322 0
M  V30 7105 H 707.109 -1.86177 0.596526 0
M  V30 7106 H 705.813 -4.06148 0.589233 0
M  V30 7107 H 705.344 -3.77869 -1.09447 0
M  V30 7108 H 707.359 -4.47248 -2.14903 0
M  V30 7109 N 706.532 -0.168513 -1.56696 0
M  V30 7110 C 707.462 0.758563 -2.20835 0
M  V30 7111 C 708.443 1.24121 -1.1631 0
M  V30 7112 O 709.628 1.29487 -1.4473 0
M  V30 7113 C 706.758 1.9892 -2.8469 0
M  V30 7114 C 705.712 1.64252 -3.95228 0
M  V30 7115 C 705.038 2.94757 -4.46119 0
M  V30 7116 C 706.338 0.872675 -5.14958 0
M  V30 7117 H 708.032 0.223953 -2.98561 0
M  V30 7118 H 705.578 0.106277 -1.43607 0
M  V30 7119 H 707.531 2.64275 -3.28233 0
M  V30 7120 H 706.255 2.5479 -2.04327 0
M  V30 7121 H 704.914 1.01266 -3.52336 0
M  V30 7122 H 704.562 3.48662 -3.62552 0
M  V30 7123 H 704.262 2.72316 -5.2069 0
M  V30 7124 H 705.786 3.61147 -4.92347 0
M  V30 7125 H 707.2 1.42875 -5.55211 0
M  V30 7126 H 705.597 0.747402 -5.95428 0
M  V30 7127 H 706.667 -0.131535 -4.84722 0
M  V30 7128 N 708.01 1.57248 0.105221 0
M  V30 7129 C 708.973 2.00388 1.11252 0
M  V30 7130 C 709.973 0.89594 1.33527 0
M  V30 7131 O 711.163 1.16166 1.29811 0
M  V30 7132 C 708.295 2.35589 2.46395 0
M  V30 7133 H 709.488 2.90591 0.741424 0
M  V30 7134 H 707.041 1.52332 0.349956 0
M  V30 7135 H 707.776 1.4831 2.884 0
M  V30 7136 H 707.561 3.16408 2.31578 0
M  V30 7137 H 709.051 2.69658 3.18864 0
M  V30 7138 N 709.488 -0.375779 1.53054 0
M  V30 7139 C 710.398 -1.48381 1.81715 0
M  V30 7140 C 711.414 -1.59087 0.704795 0
M  V30 7141 O 712.59 -1.75174 0.993785 0
M  V30 7142 C 709.655 -2.83767 1.99192 0
M  V30 7143 C 708.716 -2.82673 3.23102 0
M  V30 7144 C 707.949 -4.11601 3.39736 0
M  V30 7145 O 708.172 -5.07243 2.60885 0
M  V30 7146 O 707.106 -4.18034 4.33049 0
M  V30 7147 H 710.932 -1.27089 2.7583 0
M  V30 7148 H 708.517 -0.564902 1.38308 0
M  V30 7149 H 710.399 -3.64004 2.12318 0
M  V30 7150 H 709.074 -3.05057 1.08267 0
M  V30 7151 H 707.981 -2.0117 3.15407 0
M  V30 7152 H 709.314 -2.66335 4.13916 0
M  V30 7153 N 710.966 -1.44241 -0.634997 0
M  V30 7154 C 711.898 -1.46793 -1.76024 0
M  V30 7155 C 712.911 -0.361781 -1.58729 0
M  V30 7156 O 714.1 -0.627297 -1.67114 0
M  V30 7157 C 711.2 -1.28248 -3.13697 0
M  V30 7158 C 710.373 -2.52038 -3.57485 0
M  V30 7159 C 709.432 -2.2845 -4.74022 0
M  V30 7160 O 708.458 -3.01915 -4.82531 0
M  V30 7161 N 709.66 -1.31264 -5.65464 0
M  V30 7162 H 712.425 -2.43797 -1.74307 0
M  V30 7163 H 709.986 -1.39631 -0.819438 0
M  V30 7164 H 711.978 -1.10321 -3.89373 0
M  V30 7165 H 710.548 -0.39623 -3.10079 0
M  V30 7166 H 709.768 -2.85268 -2.72059 0
M  V30 7167 H 711.056 -3.34382 -3.83492 0
M  V30 7168 H 710.454 -0.705817 -5.6128 0
M  V30 7169 H 709.011 -1.19316 -6.40786 0
M  V30 7170 N 712.444 0.87505 -1.31075 0
M  V30 7171 C 713.377 1.98471 -1.12625 0
M  V30 7172 C 714.355 1.6257 -0.0311379 0
M  V30 7173 O 715.539 1.87574 -0.186594 0
M  V30 7174 C 712.666 3.30963 -0.719799 0
M  V30 7175 C 711.712 3.85849 -1.81722 0
M  V30 7176 S 712.545 4.11926 -3.42165 0
M  V30 7177 C 713.701 5.47423 -3.03445 0
M  V30 7178 H 713.934 2.13817 -2.06566 0
M  V30 7179 H 711.467 1.02463 -1.15502 0
M  V30 7180 H 713.425 4.07541 -0.492035 0
M  V30 7181 H 712.086 3.1346 0.200413 0
M  V30 7182 H 711.279 4.81616 -1.48533 0
M  V30 7183 H 710.881 3.16046 -1.99977 0
M  V30 7184 H 713.173 6.28881 -2.52023 0
M  V30 7185 H 714.116 5.85557 -3.98157 0
M  V30 7186 H 714.524 5.10455 -2.41031 0
M  V30 7187 N 713.922 1.13953 1.08869 0
M  V30 7188 C 715.171 0.899431 1.80536 0
M  V30 7189 C 715.484 -0.575781 1.86933 0
M  V30 7190 O 716.69 -0.932988 2.54966 0
M  V30 7191 C 715.146 1.55963 3.24351 0
M  V30 7192 C 714.754 3.07077 3.26202 0
M  V30 7193 C 716.498 1.40046 4.00733 0
M  V30 7194 C 714.405 3.65955 4.64576 0
M  V30 7195 H 713.335 0.332849 0.676556 0
M  V30 7196 H 715.986 1.3679 1.22314 0
M  V30 7197 H 714.368 1.01883 3.82669 0
M  V30 7198 H 715.542 3.67785 2.77617 0
M  V30 7199 H 713.857 3.22576 2.63312 0
M  V30 7200 H 716.454 1.81441 5.02974 0
M  V30 7201 H 716.797 0.345993 4.1486 0
M  V30 7202 H 717.33 1.91137 3.48872 0
M  V30 7203 H 714.069 4.71234 4.55652 0
M  V30 7204 H 713.589 3.10027 5.13462 0
M  V30 7205 H 715.268 3.65968 5.33551 0
M  V30 7206 N 715.4 -1.26948 0.933913 0
M  V30 7207 C 716.33 -2.29017 0.45534 0
M  V30 7208 C 717.311 -1.62961 -0.487605 0
M  V30 7209 O 718.496 -1.90223 -0.391022 0
M  V30 7210 C 715.626 -3.46112 -0.287015 0
M  V30 7211 C 714.58 -4.24205 0.568682 0
M  V30 7212 C 713.906 -5.3384 -0.303206 0
M  V30 7213 C 715.206 -4.88954 1.83633 0
M  V30 7214 H 716.9 -2.69298 1.30839 0
M  V30 7215 H 714.446 -1.29459 0.630579 0
M  V30 7216 H 716.399 -4.16622 -0.6328 0
M  V30 7217 H 715.123 -3.04765 -1.17414 0
M  V30 7218 H 713.782 -3.5545 0.897261 0
M  V30 7219 H 713.43 -4.88734 -1.18947 0
M  V30 7220 H 713.13 -5.86998 0.265879 0
M  V30 7221 H 714.654 -6.0719 -0.644423 0
M  V30 7222 H 716.068 -5.51717 1.55823 0
M  V30 7223 H 714.465 -5.52198 2.34941 0
M  V30 7224 H 715.535 -4.12305 2.55211 0
M  V30 7225 N 716.879 -0.700114 -1.41195 0
M  V30 7226 C 717.789 -0.0382854 -2.34569 0
M  V30 7227 C 718.805 0.761036 -1.56474 0
M  V30 7228 O 719.981 0.697553 -1.88934 0
M  V30 7229 C 717.046 0.883522 -3.35253 0
M  V30 7230 C 716.107 0.0758957 -4.29233 0
M  V30 7231 C 715.34 0.9538 -5.25108 0
M  V30 7232 O 715.563 2.19326 -5.26547 0
M  V30 7233 O 714.497 0.401049 -6.00562 0
M  V30 7234 H 718.323 -0.808073 -2.92752 0
M  V30 7235 H 715.908 -0.460479 -1.42127 0
M  V30 7236 H 717.79 1.41199 -3.9704 0
M  V30 7237 H 716.465 1.63272 -2.79506 0
M  V30 7238 H 715.372 -0.497274 -3.7078 0
M  V30 7239 H 716.705 -0.634741 -4.8809 0
M  V30 7240 N 718.357 1.51182 -0.445186 0
M  V30 7241 C 719.267 2.31692 0.368255 0
M  V30 7242 C 720.283 1.40942 1.02036 0
M  V30 7243 O 721.459 1.74011 1.01401 0
M  V30 7244 C 718.524 3.14903 1.45041 0
M  V30 7245 C 717.585 4.21442 0.817615 0
M  V30 7246 C 716.818 5.00677 1.8482 0
M  V30 7247 O 717.041 4.80644 3.07145 0
M  V30 7248 O 715.975 5.84559 1.43438 0
M  V30 7249 H 719.801 3.0232 -0.289219 0
M  V30 7250 H 717.386 1.47951 -0.207555 0
M  V30 7251 H 719.268 3.66612 2.07783 0
M  V30 7252 H 717.943 2.47031 2.09182 0
M  V30 7253 H 716.85 3.73791 0.151931 0
M  V30 7254 H 718.183 4.9171 0.219564 0
M  V30 7255 N 719.835 0.176821 1.56605 0
M  V30 7256 C 721.082 -0.466715 1.97048 0
M  V30 7257 C 721.41 -1.6288 1.06302 0
M  V30 7258 O 720.665 -1.95453 0.0982571 0
M  V30 7259 C 720.964 -0.986208 3.43524 0
M  V30 7260 C 720.63 0.0605667 4.50859 0
M  V30 7261 C 719.292 0.348242 4.79938 0
M  V30 7262 C 721.644 0.770794 5.15469 0
M  V30 7263 C 718.972 1.35144 5.70923 0
M  V30 7264 C 721.324 1.76301 6.07537 0
M  V30 7265 C 719.988 2.05808 6.3498 0
M  V30 7266 H 719.258 -0.170783 0.721051 0
M  V30 7267 H 721.905 0.269942 1.89588 0
M  V30 7268 H 720.21 -1.80079 3.47964 0
M  V30 7269 H 721.907 -1.49323 3.72161 0
M  V30 7270 H 718.497 -0.173823 4.28247 0
M  V30 7271 H 722.681 0.56176 4.9311 0
M  V30 7272 H 717.937 1.58616 5.90467 0
M  V30 7273 H 722.111 2.31868 6.56666 0
M  V30 7274 H 719.738 2.8369 7.05283 0
M  V30 7275 N 721.313 -1.57302 -0.09688 0
M  V30 7276 C 722.561 -1.8563 -0.799117 0
M  V30 7277 C 722.882 -0.765263 -1.79356 0
M  V30 7278 O 722.152 0.208657 -1.94786 0
M  V30 7279 H 720.732 -0.684937 -0.298111 0
M  V30 7280 H 723.394 -1.9474 -0.0789341 0
M  V30 7281 H 722.49 -2.82305 -1.3308 0
M  V30 7282 N 722.791 0.367657 -1.53252 0
M  V30 7283 C 724.207 0.709191 -1.42978 0
M  V30 7284 C 724.407 1.93352 -0.567193 0
M  V30 7285 O 723.463 2.52453 -0.0488349 0
M  V30 7286 C 724.776 0.924338 -2.86141 0
M  V30 7287 C 726.324 1.02448 -2.95759 0
M  V30 7288 C 726.799 1.27211 -4.39979 0
M  V30 7289 N 728.29 1.33986 -4.43398 0
M  V30 7290 C 729.025 1.54852 -5.52095 0
M  V30 7291 N 728.521 1.73049 -6.7084 0
M  V30 7292 N 730.314 1.57205 -5.39669 0
M  V30 7293 H 722.465 -0.437669 -2.07842 0
M  V30 7294 H 724.728 -0.133737 -0.938519 0
M  V30 7295 H 724.434 0.0965455 -3.51567 0
M  V30 7296 H 724.308 1.83302 -3.29667 0
M  V30 7297 H 726.695 1.84282 -2.30487 0
M  V30 7298 H 726.776 0.0932301 -2.5563 0
M  V30 7299 H 726.42 0.458792 -5.05824 0
M  V30 7300 H 726.35 2.21654 -4.77679 0
M  V30 7301 H 728.841 1.21545 -3.5782 0
M  V30 7302 H 729.154 1.88538 -7.49449 0
M  V30 7303 H 727.499 1.70231 -6.7383 0
M  V30 7304 H 730.69 1.42555 -4.45865 0
M  V30 7305 H 730.863 1.73126 -6.24445 0
M  V30 7306 N 724.269 1.44576 0.627338 0
M  V30 7307 C 725.509 1.49083 1.39834 0
M  V30 7308 C 725.873 0.121643 1.91614 0
M  V30 7309 O 727.074 0.0413885 2.68768 0
M  V30 7310 C 725.345 2.52467 2.52973 0
M  V30 7311 S 726.904 2.7605 3.41089 0
M  V30 7312 H 723.722 0.527252 0.476997 0
M  V30 7313 H 726.324 1.81525 0.725872 0
M  V30 7314 H 725.028 3.50646 2.13249 0
M  V30 7315 H 724.559 2.2161 3.25042 0
M  V30 7316 H 726.574 2.07932 4.50531 0
M  V30 7317 N 725.747 -0.868086 1.31537 0
M  V30 7318 C 726.677 -1.99131 1.21939 0
M  V30 7319 C 727.658 -1.69768 0.106166 0
M  V30 7320 O 728.843 -1.92006 0.291081 0
M  V30 7321 C 725.973 -3.34676 0.927879 0
M  V30 7322 C 724.927 -3.7835 2.00088 0
M  V30 7323 C 724.253 -5.11375 1.56203 0
M  V30 7324 C 725.553 -3.95256 3.41424 0
M  V30 7325 H 727.247 -2.07419 2.15911 0
M  V30 7326 H 724.793 -0.996569 1.03945 0
M  V30 7327 H 726.746 -4.12793 0.847327 0
M  V30 7328 H 725.47 -3.26565 -0.0475042 0
M  V30 7329 H 724.129 -3.02474 2.07135 0
M  V30 7330 H 723.777 -4.99709 0.57445 0
M  V30 7331 H 723.477 -5.41568 2.27985 0
M  V30 7332 H 725.001 -5.92001 1.49558 0
M  V30 7333 H 726.415 -4.63764 3.3704 0
M  V30 7334 H 724.812 -4.36849 4.1144 0
M  V30 7335 H 725.882 -2.98579 3.82072 0
M  V30 7336 N 727.225 -1.14528 -1.08264 0
M  V30 7337 C 728.45 -0.938381 -1.84957 0
M  V30 7338 C 728.875 0.508044 -1.81109 0
M  V30 7339 O 728.233 1.36146 -1.19724 0
M  V30 7340 C 728.281 -1.44568 -3.30352 0
M  V30 7341 O 727.385 -0.638745 -4.07423 0
M  V30 7342 H 726.726 -0.335394 -0.573068 0
M  V30 7343 H 729.256 -1.52287 -1.36637 0
M  V30 7344 H 729.266 -1.45449 -3.81194 0
M  V30 7345 H 727.941 -2.49876 -3.32468 0
M  V30 7346 H 726.518 -0.698801 -3.66294 0
M  V30 7347 N 728.703 1.26451 -0.940633 0
M  V30 7348 C 729.635 2.25556 -0.407104 0
M  V30 7349 C 730.648 1.55888 0.469324 0
M  V30 7350 O 731.837 1.76292 0.279858 0
M  V30 7351 C 728.937 3.36109 0.434064 0
M  V30 7352 C 728.11 4.3532 -0.426082 0
M  V30 7353 C 727.169 5.25004 0.354563 0
M  V30 7354 O 726.195 5.68684 -0.242219 0
M  V30 7355 N 727.397 5.5652 1.65123 0
M  V30 7356 H 730.162 2.7197 -1.25907 0
M  V30 7357 H 727.723 1.40212 -0.809456 0
M  V30 7358 H 729.715 3.93059 0.963684 0
M  V30 7359 H 728.285 2.89194 1.18683 0
M  V30 7360 H 727.505 3.77449 -1.13692 0
M  V30 7361 H 728.793 4.986 -1.01366 0
M  V30 7362 H 728.191 5.22912 2.15822 0
M  V30 7363 H 726.748 6.16115 2.12711 0
M  V30 7364 N 730.181 0.707592 1.40822 0
M  V30 7365 C 731.43 0.240705 2.00259 0
M  V30 7366 C 731.743 -1.17027 1.56729 0
M  V30 7367 O 732.949 -1.73526 2.08809 0
M  V30 7368 C 731.405 0.379432 3.57894 0
M  V30 7369 C 731.013 1.79654 4.104 0
M  V30 7370 C 732.757 -0.0270684 4.24491 0
M  V30 7371 C 730.664 1.88628 5.60512 0
M  V30 7372 H 729.594 0.0862369 0.749052 0
M  V30 7373 H 732.245 0.877528 1.61157 0
M  V30 7374 H 730.627 -0.325842 3.94657 0
M  V30 7375 H 731.801 2.53155 3.85032 0
M  V30 7376 H 730.116 2.15379 3.56372 0
M  V30 7377 H 732.713 0.0193743 5.34696 0
M  V30 7378 H 733.056 -1.06772 4.02375 0
M  V30 7379 H 733.589 0.628361 3.92806 0
M  V30 7380 H 730.328 2.90787 5.87472 0
M  V30 7381 H 729.848 1.19528 5.8777 0
M  V30 7382 H 731.527 1.6547 6.25483 0
M  V30 7383 N 731.66 -1.50943 0.453197 0
M  V30 7384 C 732.59 -2.31005 -0.34044 0
M  V30 7385 C 733.571 -1.37112 -1.00669 0
M  V30 7386 O 734.756 -1.66033 -1.0073 0
M  V30 7387 C 731.886 -3.16358 -1.433 0
M  V30 7388 C 730.84 -4.18658 -0.889363 0
M  V30 7389 C 730.166 -4.92633 -2.07887 0
M  V30 7390 C 731.466 -5.22227 0.0871142 0
M  V30 7391 H 733.16 -2.97601 0.327723 0
M  V30 7392 H 730.706 -1.43119 0.159054 0
M  V30 7393 H 732.659 -3.71155 -1.99555 0
M  V30 7394 H 731.383 -2.47613 -2.12968 0
M  V30 7395 H 730.042 -3.64936 -0.348915 0
M  V30 7396 H 729.69 -4.20376 -2.76211 0
M  V30 7397 H 729.39 -5.61819 -1.72143 0
M  V30 7398 H 730.914 -5.50258 -2.64666 0
M  V30 7399 H 732.328 -5.72001 -0.385656 0
M  V30 7400 H 730.725 -5.99032 0.357926 0
M  V30 7401 H 731.795 -4.74077 1.01879 0
M  V30 7402 N 733.138 -0.185124 -1.56509 0
M  V30 7403 C 734.088 0.752315 -2.15231 0
M  V30 7404 C 735.072 1.18327 -1.0903 0
M  V30 7405 O 736.264 1.14333 -1.35119 0
M  V30 7406 C 733.393 1.97583 -2.80742 0
M  V30 7407 C 732.479 1.56623 -3.94119 0
M  V30 7408 N 732.87 0.867008 -4.98314 0
M  V30 7409 C 731.168 1.85626 -4.05535 0
M  V30 7410 C 731.869 0.663228 -5.77907 0
M  V30 7411 N 730.845 1.20891 -5.29987 0
M  V30 7412 H 734.647 0.209267 -2.93154 0
M  V30 7413 H 732.161 0.0150444 -1.62393 0
M  V30 7414 H 734.158 2.65779 -3.21197 0
M  V30 7415 H 732.818 2.52369 -2.04303 0
M  V30 7416 H 733.829 0.52355 -5.15247 0
M  V30 7417 H 730.506 2.41992 -3.40215 0
M  V30 7418 H 731.896 0.109273 -6.71811 0
M  V30 7419 N 734.616 1.57351 0.0885366 0
M  V30 7420 C 735.844 1.90631 0.804196 0
M  V30 7421 C 736.259 0.779474 1.71958 0
M  V30 7422 O 735.616 -0.248179 1.80805 0
M  V30 7423 C 735.667 3.23568 1.61202 0
M  V30 7424 O 735.388 4.31917 0.733447 0
M  V30 7425 C 736.889 3.70753 2.43016 0
M  V30 7426 H 734.109 0.630501 0.229585 0
M  V30 7427 H 736.653 2.044 0.0638092 0
M  V30 7428 H 734.808 3.11377 2.30485 0
M  V30 7429 H 735.222 5.08297 1.29361 0
M  V30 7430 H 736.696 4.66447 2.9518 0
M  V30 7431 H 737.173 2.98922 3.2178 0
M  V30 7432 H 737.779 3.85834 1.7892 0
M  V30 7433 N 736.094 -0.359525 1.53444 0
M  V30 7434 C 737.004 -1.46445 1.83278 0
M  V30 7435 C 738.02 -1.5833 0.721629 0
M  V30 7436 O 739.196 -1.7411 1.01231 0
M  V30 7437 C 736.261 -2.81638 2.02191 0
M  V30 7438 C 735.322 -2.7923 3.26082 0
M  V30 7439 C 734.555 -4.07974 3.44082 0
M  V30 7440 O 734.778 -5.04447 2.66251 0
M  V30 7441 O 733.712 -4.13417 4.37458 0
M  V30 7442 H 737.538 -1.24156 2.77162 0
M  V30 7443 H 735.123 -0.550201 1.389 0
M  V30 7444 H 737.005 -3.61732 2.16167 0
M  V30 7445 H 735.68 -3.03892 1.11496 0
M  V30 7446 H 734.587 -1.97813 3.17523 0
M  V30 7447 H 735.92 -2.6193 4.16718 0
M  V30 7448 N 737.572 -1.44907 -0.619662 0
M  V30 7449 C 738.819 -1.48292 -1.37898 0
M  V30 7450 C 739.147 -0.119933 -1.9413 0
M  V30 7451 O 738.402 0.879834 -1.74807 0
M  V30 7452 C 738.701 -2.50002 -2.55409 0
M  V30 7453 C 738.367 -3.95031 -2.17397 0
M  V30 7454 C 737.029 -4.34524 -2.06743 0
M  V30 7455 C 739.381 -4.86287 -1.87548 0
M  V30 7456 C 736.709 -5.63183 -1.64445 0
M  V30 7457 C 739.061 -6.15346 -1.4674 0
M  V30 7458 C 737.725 -6.53781 -1.34636 0
M  V30 7459 H 736.995 -0.542638 -0.504603 0
M  V30 7460 H 739.642 -1.78186 -0.701581 0
M  V30 7461 H 737.947 -2.13634 -3.28433 0
M  V30 7462 H 739.644 -2.49864 -3.13639 0
M  V30 7463 H 736.234 -3.63793 -2.26611 0
M  V30 7464 H 740.418 -4.56522 -1.94682 0
M  V30 7465 H 735.674 -5.91769 -1.53687 0
M  V30 7466 H 739.848 -6.85508 -1.22685 0
M  V30 7467 H 737.475 -7.53375 -1.01634 0
M  V30 7468 N 739.05 0.861098 -1.31996 0
M  V30 7469 C 739.997 1.96912 -1.20392 0
M  V30 7470 C 740.967 1.65869 -0.0875899 0
M  V30 7471 O 742.152 1.88992 -0.262011 0
M  V30 7472 C 739.292 3.32435 -0.926335 0
M  V30 7473 C 738.405 3.76018 -2.12684 0
M  V30 7474 C 737.54 5.00301 -1.78529 0
M  V30 7475 C 736.579 5.36357 -2.94937 0
M  V30 7476 N 735.716 6.51818 -2.60917 0
M  V30 7477 H 740.556 2.06169 -2.1517 0
M  V30 7478 H 738.093 1.00917 -1.07024 0
M  V30 7479 H 740.051 4.10478 -0.745917 0
M  V30 7480 H 738.681 3.22796 -0.0153578 0
M  V30 7481 H 737.733 2.93683 -2.41774 0
M  V30 7482 H 739.045 3.98664 -2.99781 0
M  V30 7483 H 738.199 5.86034 -1.57001 0
M  V30 7484 H 736.938 4.79578 -0.886356 0
M  V30 7485 H 735.943 4.49139 -3.17103 0
M  V30 7486 H 737.168 5.59041 -3.85552 0
M  V30 7487 H 735.114 6.32624 -1.73558 0
M  V30 7488 H 735.031 6.7445 -3.41544 0
M  V30 7489 H 736.299 7.4072 -2.42804 0
M  V30 7490 N 740.528 1.15101 1.07655 0
M  V30 7491 C 741.753 0.948177 1.84457 0
M  V30 7492 C 742.178 -0.498432 1.81376 0
M  V30 7493 O 741.536 -1.35509 1.20445 0
M  V30 7494 C 741.584 1.46318 3.29581 0
M  V30 7495 O 740.688 0.660342 4.07079 0
M  V30 7496 H 740.029 0.338428 0.571281 0
M  V30 7497 H 742.559 1.5301 1.35828 0
M  V30 7498 H 742.569 1.47468 3.80417 0
M  V30 7499 H 741.244 2.51635 3.31138 0
M  V30 7500 H 739.821 0.718216 3.65918 0
M  V30 7501 N 742.006 -1.2595 0.947325 0
M  V30 7502 C 742.953 -2.26159 0.460497 0
M  V30 7503 C 743.923 -1.58919 -0.483125 0
M  V30 7504 O 745.108 -1.86603 -0.397983 0
M  V30 7505 C 742.248 -3.441 -0.26247 0
M  V30 7506 C 741.361 -4.25999 0.717539 0
M  V30 7507 C 740.496 -5.31193 -0.0272486 0
M  V30 7508 C 739.535 -6.04774 0.944177 0
M  V30 7509 N 738.672 -7.01721 0.230741 0
M  V30 7510 H 743.512 -2.67173 1.31995 0
M  V30 7511 H 741.049 -1.31358 0.662088 0
M  V30 7512 H 743.007 -4.11317 -0.698137 0
M  V30 7513 H 741.637 -3.03983 -1.08602 0
M  V30 7514 H 740.689 -3.58513 1.27171 0
M  V30 7515 H 742.001 -4.76981 1.45913 0
M  V30 7516 H 741.155 -6.04451 -0.521903 0
M  V30 7517 H 739.894 -4.81066 -0.801682 0
M  V30 7518 H 738.899 -5.30338 1.4499 0
M  V30 7519 H 740.124 -6.56991 1.71872 0
M  V30 7520 H 738.07 -6.53895 -0.525088 0
M  V30 7521 H 737.987 -7.50484 0.911556 0
M  V30 7522 H 739.255 -7.79122 -0.242616 0
M  V30 7523 N 743.484 -0.715051 -1.40445 0
M  V30 7524 C 744.732 -0.253826 -2.005 0
M  V30 7525 C 745.053 1.15681 -1.5698 0
M  V30 7526 O 744.323 1.78414 -0.809027 0
M  V30 7527 H 742.903 -0.0908537 -0.741454 0
M  V30 7528 H 745.565 -0.920561 -1.7179 0
M  V30 7529 H 744.661 -0.286499 -3.10782 0
M  V30 7530 N 744.962 1.50701 -0.461195 0
M  V30 7531 C 745.892 2.31182 0.328184 0
M  V30 7532 C 746.873 1.37644 0.999408 0
M  V30 7533 O 748.058 1.66565 0.99848 0
M  V30 7534 C 745.188 3.17113 1.41621 0
M  V30 7535 C 744.142 4.19124 0.867148 0
M  V30 7536 C 743.468 4.93728 2.05272 0
M  V30 7537 C 744.768 5.22174 -0.114808 0
M  V30 7538 H 746.462 2.97423 -0.343501 0
M  V30 7539 H 744.008 1.43033 -0.166641 0
M  V30 7540 H 745.961 3.72208 1.97584 0
M  V30 7541 H 744.685 2.48739 2.11652 0
M  V30 7542 H 743.344 3.65116 0.329557 0
M  V30 7543 H 742.992 4.21835 2.73978 0
M  V30 7544 H 742.692 5.62724 1.69161 0
M  V30 7545 H 744.216 5.51654 2.61744 0
M  V30 7546 H 745.63 5.72198 0.355316 0
M  V30 7547 H 744.027 5.98833 -0.389689 0
M  V30 7548 H 745.097 4.7353 -1.04391 0
M  V30 7549 N 746.441 0.193421 1.56409 0
M  V30 7550 C 747.388 -0.728124 2.19014 0
M  V30 7551 C 748.358 -1.21098 1.13686 0
M  V30 7552 O 749.543 -1.27517 1.4193 0
M  V30 7553 C 746.683 -1.94277 2.8522 0
M  V30 7554 C 745.796 -1.50143 4.05069 0
M  V30 7555 C 744.931 -2.67145 4.59137 0
M  V30 7556 C 743.97 -2.19609 5.71348 0
M  V30 7557 N 743.107 -3.29782 6.19829 0
M  V30 7558 H 747.947 -0.187499 2.9741 0
M  V30 7559 H 745.484 -0.0808064 1.46878 0
M  V30 7560 H 747.442 -2.65551 3.21774 0
M  V30 7561 H 746.072 -2.45673 2.09391 0
M  V30 7562 H 745.124 -0.684624 3.74189 0
M  V30 7563 H 746.436 -1.11266 4.86232 0
M  V30 7564 H 745.59 -3.46544 4.97988 0
M  V30 7565 H 744.329 -3.09295 3.77078 0
M  V30 7566 H 743.334 -1.38664 5.32027 0
M  V30 7567 H 744.559 -1.78492 6.55223 0
M  V30 7568 H 742.505 -3.71466 5.40693 0
M  V30 7569 H 742.422 -2.95069 6.96039 0
M  V30 7570 H 743.69 -4.094 6.63334 0
M  V30 7571 N 747.919 -1.57396 -0.0801906 0
M  V30 7572 C 748.852 -1.98386 -1.12774 0
M  V30 7573 C 749.83 -0.859423 -1.38031 0
M  V30 7574 O 751.014 -1.12101 -1.51544 0
M  V30 7575 C 748.141 -2.3134 -2.47386 0
M  V30 7576 C 747.187 -3.53706 -2.38316 0
M  V30 7577 S 748.02 -5.04862 -1.78534 0
M  V30 7578 C 749.176 -5.41008 -3.1474 0
M  V30 7579 H 749.409 -2.86929 -0.778382 0
M  V30 7580 H 746.942 -1.51682 -0.28842 0
M  V30 7581 H 748.9 -2.51 -3.24822 0
M  V30 7582 H 747.561 -1.4334 -2.79486 0
M  V30 7583 H 746.754 -3.74253 -3.37566 0
M  V30 7584 H 746.356 -3.33632 -1.69014 0
M  V30 7585 H 748.648 -5.38565 -4.1104 0
M  V30 7586 H 749.591 -6.41885 -2.98981 0
M  V30 7587 H 749.999 -4.68467 -3.14958 0
M  V30 7588 N 749.397 0.351382 -1.53633 0
M  V30 7589 C 750.307 1.45471 -1.84052 0
M  V30 7590 C 751.323 1.57945 -0.730015 0
M  V30 7591 O 752.499 1.73571 -1.02153 0
M  V30 7592 C 749.564 2.80562 -2.03681 0
M  V30 7593 C 748.625 2.77497 -3.27558 0
M  V30 7594 C 747.858 4.06144 -3.46241 0
M  V30 7595 O 748.081 5.03028 -2.68922 0
M  V30 7596 O 747.015 4.11092 -4.39645 0
M  V30 7597 H 750.841 1.22684 -2.77817 0
M  V30 7598 H 748.426 0.542827 -1.3919 0
M  V30 7599 H 750.308 3.6058 -2.18082 0
M  V30 7600 H 748.983 3.03296 -1.13106 0
M  V30 7601 H 747.89 1.96126 -3.18568 0
M  V30 7602 H 749.223 2.59716 -4.18101 0
M  V30 7603 O 750.914 1.53651 0.497361 0
M  V30 7604 H 751.605 1.55706 1.15218 0
M  V30 END ATOM
M  V30 BEGIN BOND
M  V30 END BOND
M  V30 END CTAB
M  END
$$$$
