drugbank_target|Q9Y4R7 Tubulin monoglycylase TTLL3 (DB00277)
 OpenBabel12092121063D

  0  0  0     0  0            999 V3000
M  V30 BEGIN CTAB
M  V30 COUNTS 12335 12483 0 0 0
M  V30 BEGIN ATOM
M  V30 1 H -0.908 1.98254 -0.117106 0
M  V30 2 N 0 1.576 0 0
M  V30 3 C 0.933 2.03868 1.02534 0
M  V30 4 C 1.911 0.928543 1.3348 0
M  V30 5 O 3.095 1.19667 1.45644 0
M  V30 6 C 0.222 2.43627 2.35294 0
M  V30 7 C -0.732 3.65373 2.2001 0
M  V30 8 S 0.101 5.13292 1.52614 0
M  V30 9 C 1.257 5.56322 2.86805 0
M  V30 10 H 1.49 2.90518 0.631377 0
M  V30 11 H -0.977 1.52953 0.210867 0
M  V30 12 H 0.981 2.67203 3.11629 0
M  V30 13 H -0.358 1.57376 2.7183 0
M  V30 14 H -1.165 3.90944 3.18086 0
M  V30 15 H -1.563 3.418 1.51819 0
M  V30 16 H 0.729 5.58782 3.83104 0
M  V30 17 H 1.672 6.56266 2.65933 0
M  V30 18 H 2.08 4.83886 2.90714 0
M  V30 19 N 1.4781 -0.272755 1.55222 0
M  V30 20 C 2.4261 -1.35705 1.88909 0
M  V30 21 C 3.4201 -1.5112 0.765456 0
M  V30 22 O 4.6261 -1.52901 0.949802 0
M  V30 23 H 1.0011 -0.453868 0.59959 0
M  V30 24 H 2.9721 -1.04544 2.79487 0
M  V30 25 C 1.7211 -2.71049 2.17779 0
M  V30 26 H 1.0441 -2.59979 3.03728 0
M  V30 27 H 2.4841 -3.45858 2.45272 0
M  V30 28 C 0.9431 -3.22165 0.985473 0
M  V30 29 O 1.4731 -4.01096 0.220233 0
M  V30 30 N -0.3209 -2.7985 0.783108 0
M  V30 31 H -0.7739 -2.15775 1.40708 0
M  V30 32 H -0.8159 -3.14397 -0.0130392 0
M  V30 33 N 2.9562 -1.48159 -0.537278 0
M  V30 34 C 4.3722 -1.34118 -0.865129 0
M  V30 35 C 4.5722 -0.346678 -1.98495 0
M  V30 36 O 3.6282 0.234715 -2.51407 0
M  V30 37 C 4.9412 -2.73963 -1.23954 0
M  V30 38 C 6.4892 -2.82397 -1.34984 0
M  V30 39 C 6.9642 -4.22928 -1.75772 0
M  V30 40 N 8.4552 -4.25566 -1.82887 0
M  V30 41 C 9.1902 -5.31235 -2.15817 0
M  V30 42 N 8.6862 -6.47189 -2.47222 0
M  V30 43 N 10.4792 -5.18624 -2.16761 0
M  V30 44 H 2.6302 -2.1144 0.201715 0
M  V30 45 H 4.8932 -0.947598 0.0275949 0
M  V30 46 H 4.5992 -3.48264 -0.490381 0
M  V30 47 H 4.4732 -3.0702 -2.19132 0
M  V30 48 H 6.8602 -2.08356 -2.08978 0
M  V30 49 H 6.9412 -2.5297 -0.379448 0
M  V30 50 H 6.5852 -4.97482 -1.02341 0
M  V30 51 H 6.5152 -4.49794 -2.73848 0
M  V30 52 H 9.0062 -3.41924 -1.60924 0
M  V30 53 H 9.3192 -7.23564 -2.71433 0
M  V30 54 H 7.6642 -6.50476 -2.44757 0
M  V30 55 H 10.8552 -4.27056 -1.91679 0
M  V30 56 H 11.0282 -6.01078 -2.42093 0
M  V30 57 N 4.4343 0.785586 -1.36625 0
M  V30 58 C 5.3643 1.91259 -1.33949 0
M  V30 59 C 6.3453 1.68795 -0.210325 0
M  V30 60 O 7.5303 1.89854 -0.408561 0
M  V30 61 C 4.6603 3.28339 -1.13186 0
M  V30 62 C 3.6143 3.65335 -2.22967 0
M  V30 63 C 2.9403 5.00806 -1.87342 0
M  V30 64 C 4.2403 3.7352 -3.65075 0
M  V30 65 H 5.9343 1.93755 -2.28253 0
M  V30 66 H 3.4803 0.930788 -1.09874 0
M  V30 67 H 5.4333 4.06804 -1.09948 0
M  V30 68 H 4.1573 3.2624 -0.153332 0
M  V30 69 H 2.8163 2.89169 -2.25337 0
M  V30 70 H 2.4643 4.95233 -0.880545 0
M  V30 71 H 2.1643 5.26529 -2.60846 0
M  V30 72 H 3.6883 5.81687 -1.85667 0
M  V30 73 H 5.1023 4.42168 -3.64911 0
M  V30 74 H 3.4993 4.10731 -4.37516 0
M  V30 75 H 4.5693 2.74527 -3.99703 0
M  V30 76 N 5.9124 1.20967 1.01018 0
M  V30 77 C 7.3284 0.965905 1.27053 0
M  V30 78 C 7.5284 -0.350785 1.98423 0
M  V30 79 O 6.5844 -1.07773 2.28344 0
M  V30 80 C 7.8974 2.15294 2.09926 0
M  V30 81 C 9.4454 2.19463 2.23171 0
M  V30 82 C 9.9204 3.3767 3.09424 0
M  V30 83 N 11.4114 3.37724 3.17012 0
M  V30 84 C 12.1464 4.25837 3.83993 0
M  V30 85 N 11.6424 5.24138 4.53047 0
M  V30 86 N 13.4354 4.1366 3.80581 0
M  V30 87 H 5.5864 2.0565 0.531194 0
M  V30 88 H 7.8494 0.90024 0.297106 0
M  V30 89 H 7.5554 3.10684 1.64828 0
M  V30 90 H 7.4294 2.13923 3.10672 0
M  V30 91 H 9.8164 1.24632 2.6749 0
M  V30 92 H 9.8974 2.2488 1.21912 0
M  V30 93 H 9.5414 4.32791 2.65808 0
M  V30 94 H 9.4714 3.29491 4.10784 0
M  V30 95 H 11.9624 2.6658 2.6785 0
M  V30 96 H 12.2754 5.87684 5.01844 0
M  V30 97 H 10.6204 5.28068 4.5185 0
M  V30 98 H 13.8114 3.36127 3.25785 0
M  V30 99 H 13.9844 4.82538 4.32505 0
M  V30 100 N 7.3905 -1.2043 1.01659 0
M  V30 101 C 8.3385 -2.25249 0.580143 0
M  V30 102 C 9.3325 -1.65057 -0.381115 0
M  V30 103 O 10.5385 -1.78241 -0.251039 0
M  V30 104 H 6.9135 -0.732695 0.169299 0
M  V30 105 H 8.8845 -2.59389 1.47512 0
M  V30 106 C 7.6335 -3.47638 -0.065788 0
M  V30 107 H 6.9565 -3.94233 0.664874 0
M  V30 108 H 8.3965 -4.2268 -0.334282 0
M  V30 109 C 6.8555 -3.10447 -1.3086 0
M  V30 110 O 7.3855 -3.21981 -2.4019 0
M  V30 111 N 5.5915 -2.64996 -1.1927 0
M  V30 112 H 5.1385 -2.55811 -0.303064 0
M  V30 113 H 5.0965 -2.40482 -2.02523 0
M  V30 114 N 8.8686 -0.792821 -1.36206 0
M  V30 115 C 9.8316 -0.199459 -2.2833 0
M  V30 116 C 10.8316 0.605189 -1.48977 0
M  V30 117 O 12.0216 0.425685 -1.68919 0
M  V30 118 C 9.1536 0.723523 -3.33134 0
M  V30 119 H 10.3466 -1.01181 -2.82316 0
M  V30 120 H 7.8996 -0.562485 -1.45828 0
M  V30 121 H 8.6346 1.56008 -2.84309 0
M  V30 122 H 8.4196 0.148436 -3.91819 0
M  V30 123 H 9.9096 1.13344 -4.01924 0
M  V30 124 N 10.3467 1.47872 -0.545128 0
M  V30 125 C 11.2937 2.29849 0.2093 0
M  V30 126 C 12.2637 1.38313 0.919707 0
M  V30 127 O 13.4487 1.67277 0.917772 0
M  V30 128 C 10.5887 3.22019 1.24088 0
M  V30 129 C 9.7017 4.2864 0.537778 0
M  V30 130 C 8.8367 5.07973 1.5536 0
M  V30 131 C 7.8757 6.06381 0.8348 0
M  V30 132 N 7.0127 6.78717 1.79688 0
M  V30 133 H 11.8527 2.93845 -0.49591 0
M  V30 134 H 9.3897 1.44848 -0.256389 0
M  V30 135 H 11.3477 3.73868 1.85144 0
M  V30 136 H 9.9777 2.59914 1.91428 0
M  V30 137 H 9.0297 3.7994 -0.187046 0
M  V30 138 H 10.3417 4.98793 -0.0258907 0
M  V30 139 H 9.4957 5.63912 2.23803 0
M  V30 140 H 8.2347 4.37693 2.15118 0
M  V30 141 H 7.2397 5.49631 0.136388 0
M  V30 142 H 8.4647 6.78665 0.24313 0
M  V30 143 H 6.4107 6.11177 2.38326 0
M  V30 144 H 6.3277 7.44998 1.28505 0
M  V30 145 H 7.5957 7.39237 2.47282 0
M  V30 146 N 11.8248 0.280983 1.55075 0
M  V30 147 C 13.0738 -0.334784 1.98902 0
M  V30 148 C 13.3868 -1.56534 1.17288 0
M  V30 149 O 14.5928 -2.25443 1.51287 0
M  V30 150 C 13.0488 -0.646994 3.54037 0
M  V30 151 C 12.6568 0.564085 4.44435 0
M  V30 152 C 14.4008 -1.22506 4.06439 0
M  V30 153 C 12.3078 0.226137 5.90967 0
M  V30 154 H 11.2378 -0.128866 0.742906 0
M  V30 155 H 13.8888 0.386556 1.79382 0
M  V30 156 H 12.2708 -1.42739 3.6938 0
M  V30 157 H 13.4448 1.34082 4.40861 0
M  V30 158 H 11.7598 1.0594 4.02698 0
M  V30 159 H 14.3568 -1.49182 5.13468 0
M  V30 160 H 14.6998 -2.16085 3.55827 0
M  V30 161 H 15.2328 -0.50682 3.94558 0
M  V30 162 H 11.9718 1.12996 6.45687 0
M  V30 163 H 11.4918 -0.513717 5.97596 0
M  V30 164 H 13.1708 -0.179539 6.46751 0
M  V30 165 N 13.3029 -1.57598 0.00835791 0
M  V30 166 C 14.5329 -1.94931 -0.684496 0
M  V30 167 C 14.9409 -0.882233 -1.67372 0
M  V30 168 O 14.2839 0.146621 -1.83114 0
M  V30 169 C 14.3459 -3.283 -1.4649 0
M  V30 170 C 14.0099 -4.52548 -0.63634 0
M  V30 171 C 15.0069 -5.19839 0.0795586 0
M  V30 172 C 12.6919 -4.98942 -0.579849 0
M  V30 173 C 14.6859 -6.3183 0.840843 0
M  V30 174 C 12.3729 -6.10819 0.185155 0
M  V30 175 C 13.3709 -6.77121 0.894227 0
M  V30 176 O 13.0589 -7.86853 1.64673 0
M  V30 177 H 12.7909 -0.647249 -0.19505 0
M  V30 178 H 15.3449 -2.05318 0.0581272 0
M  V30 179 H 13.5749 -3.14345 -2.2522 0
M  V30 180 H 15.2639 -3.50685 -2.04389 0
M  V30 181 H 16.0299 -4.84979 0.0451202 0
M  V30 182 H 11.9089 -4.47155 -1.1213 0
M  V30 183 H 15.4529 -6.83513 1.39483 0
M  V30 184 H 11.3499 -6.4512 0.221384 0
M  V30 185 H 12.1179 -8.03412 1.56432 0
M  V30 186 N 14.781 0.264519 -1.55364 0
M  V30 187 C 16.027 0.99646 -1.76631 0
M  V30 188 C 16.36 1.85632 -0.570478 0
M  V30 189 O 15.635 1.89647 0.43175 0
M  V30 190 C 15.918 1.87187 -3.07625 0
M  V30 191 C 15.771 1.04138 -4.37579 0
M  V30 192 C 17.09 2.85749 -3.34717 0
M  V30 193 H 14.209 0.360841 -0.642622 0
M  V30 194 H 16.851 0.268218 -1.88097 0
M  V30 195 H 15.001 2.49279 -2.9798 0
M  V30 196 H 16.673 0.440517 -4.59192 0
M  V30 197 H 14.916 0.345115 -4.32425 0
M  V30 198 H 15.587 1.68729 -5.2558 0
M  V30 199 H 18.063 2.33793 -3.4421 0
M  V30 200 H 16.939 3.44136 -4.27623 0
M  V30 201 H 17.2 3.61311 -2.54768 0
M  V30 202 N 16.2591 1.48442 0.529413 0
M  V30 203 C 17.1691 1.6569 1.66084 0
M  V30 204 C 18.1851 0.539432 1.65427 0
M  V30 205 O 19.3611 0.810572 1.84368 0
M  V30 206 C 16.4261 1.69315 3.02545 0
M  V30 207 C 15.4871 2.92694 3.14052 0
M  V30 208 C 14.7201 2.96137 4.44003 0
M  V30 209 O 14.9431 2.07973 5.31134 0
M  V30 210 O 13.8771 3.88312 4.59888 0
M  V30 211 H 17.7031 2.61483 1.54469 0
M  V30 212 H 15.2881 1.3185 0.702567 0
M  V30 213 H 17.1701 1.74217 3.83701 0
M  V30 214 H 15.8451 0.766966 3.14483 0
M  V30 215 H 14.7521 2.93324 2.32189 0
M  V30 216 H 16.0851 3.84699 3.0703 0
M  V30 217 N 17.7372 -0.778329 1.37039 0
M  V30 218 C 19.1532 -1.07796 1.17695 0
M  V30 219 C 19.3532 -2.01498 0.00860115 0
M  V30 220 O 18.4092 -2.43901 -0.653352 0
M  V30 221 C 19.7222 -1.68178 2.49272 0
M  V30 222 C 21.2702 -1.80467 2.55735 0
M  V30 223 C 21.7452 -2.44263 3.87427 0
M  V30 224 N 23.2362 -2.51721 3.88833 0
M  V30 225 C 23.9712 -3.01919 4.87476 0
M  V30 226 N 23.4672 -3.5234 5.96513 0
M  V30 227 N 25.2602 -3.00733 4.74885 0
M  V30 228 H 17.4112 -0.156032 2.11826 0
M  V30 229 H 19.6742 -0.131844 0.938787 0
M  V30 230 H 19.3802 -1.06796 3.35093 0
M  V30 231 H 19.2542 -2.67554 2.65885 0
M  V30 232 H 21.6412 -2.40984 1.70325 0
M  V30 233 H 21.7222 -0.798656 2.43013 0
M  V30 234 H 21.3662 -1.84388 4.73248 0
M  V30 235 H 21.2962 -3.45458 3.9745 0
M  V30 236 H 23.7872 -2.1603 3.10063 0
M  V30 237 H 24.1002 -3.89027 6.67741 0
M  V30 238 H 22.4452 -3.50462 6.00168 0
M  V30 239 H 25.6362 -2.60638 3.88826 0
M  V30 240 H 25.8092 -3.39545 5.51918 0
M  V30 241 N 19.2153 -1.21501 -1.00376 0
M  V30 242 C 20.1783 -0.976927 -2.07337 0
M  V30 243 C 21.1783 0.0525322 -1.60714 0
M  V30 244 O 22.3683 -0.184869 -1.73216 0
M  V30 245 C 19.5003 -0.473423 -3.37597 0
M  V30 246 H 20.6933 -1.92587 -2.29892 0
M  V30 247 H 18.2463 -1.03217 -1.17371 0
M  V30 248 H 18.9813 0.480379 -3.20722 0
M  V30 249 H 18.7663 -1.216 -3.72768 0
M  V30 250 H 20.2563 -0.32675 -4.1632 0
M  V30 251 N 20.6934 1.19889 -1.02296 0
M  V30 252 C 21.9394 1.89701 -0.717033 0
M  V30 253 C 22.2724 1.7905 0.751989 0
M  V30 254 O 21.5474 1.17891 1.547 0
M  V30 255 C 21.8304 3.40858 -1.16136 0
M  V30 256 C 21.6834 3.60411 -2.69117 0
M  V30 257 C 23.0024 4.33876 -0.737549 0
M  V30 258 H 20.1214 0.688874 -0.261957 0
M  V30 259 H 22.7634 1.41154 -1.27183 0
M  V30 260 H 20.9134 3.82335 -0.689342 0
M  V30 261 H 22.5854 3.28145 -3.2422 0
M  V30 262 H 20.8284 3.03665 -3.0979 0
M  V30 263 H 21.4994 4.66396 -2.95261 0
M  V30 264 H 23.9754 4.00081 -1.14344 0
M  V30 265 H 22.8514 5.38242 -1.0764 0
M  V30 266 H 23.1124 4.40628 0.360436 0
M  V30 267 N 22.1715 0.800033 1.35784 0
M  V30 268 C 23.1185 0.203848 2.29898 0
M  V30 269 C 24.0885 -0.658375 1.52495 0
M  V30 270 O 25.2735 -0.604832 1.8096 0
M  V30 271 C 22.4135 -0.64688 3.38983 0
M  V30 272 C 21.5265 0.235054 4.3136 0
M  V30 273 C 20.6615 -0.623054 5.27533 0
M  V30 274 C 19.7005 0.259682 6.11549 0
M  V30 275 N 18.8375 -0.558019 6.99879 0
M  V30 276 H 23.6775 1.01186 2.80295 0
M  V30 277 H 21.2145 0.51053 1.37957 0
M  V30 278 H 23.1725 -1.15521 4.00887 0
M  V30 279 H 21.8025 -1.42021 2.89879 0
M  V30 280 H 20.8545 0.861438 3.70518 0
M  V30 281 H 22.1665 0.914768 4.9034 0
M  V30 282 H 21.3205 -1.19678 5.94779 0
M  V30 283 H 20.0595 -1.33636 4.69034 0
M  V30 284 H 19.0645 0.845726 5.43256 0
M  V30 285 H 20.2895 0.970748 6.72126 0
M  V30 286 H 18.2355 -1.25542 6.43875 0
M  V30 287 H 18.1525 0.0637872 7.55973 0
M  V30 288 H 19.4205 -1.11523 7.71481 0
M  V30 289 N 23.6496 -1.47581 0.552962 0
M  V30 290 C 24.5816 -2.27997 -0.234533 0
M  V30 291 C 25.5946 -1.36753 -0.883321 0
M  V30 292 O 26.7836 -1.61612 -0.757889 0
M  V30 293 C 23.8836 -3.10879 -1.34935 0
M  V30 294 C 23.0566 -4.30056 -0.798158 0
M  V30 295 C 22.1156 -4.94567 -1.79694 0
M  V30 296 O 21.1416 -5.53087 -1.34474 0
M  V30 297 N 22.3436 -4.88878 -3.13015 0
M  V30 298 H 25.1086 -2.96222 0.455255 0
M  V30 299 H 22.6696 -1.57163 0.388761 0
M  V30 300 H 24.6616 -3.50903 -2.01616 0
M  V30 301 H 23.2316 -2.44924 -1.94244 0
M  V30 302 H 22.4516 -3.94174 0.0453079 0
M  V30 303 H 23.7396 -5.07152 -0.409173 0
M  V30 304 H 23.1376 -4.42526 -3.52402 0
M  V30 305 H 21.6946 -5.32934 -3.75266 0
M  V30 306 N 25.1277 -0.289203 -1.54924 0
M  V30 307 C 26.0747 0.592115 -2.23075 0
M  V30 308 C 27.0447 1.13881 -1.20915 0
M  V30 309 O 28.2297 1.18551 -1.495 0
M  V30 310 C 25.3697 1.76376 -2.96623 0
M  V30 311 C 24.4827 1.24959 -4.13533 0
M  V30 312 C 23.6177 2.38416 -4.74691 0
M  V30 313 C 22.6567 1.84072 -5.83767 0
M  V30 314 N 21.7937 2.91057 -6.38929 0
M  V30 315 H 26.6337 0.00432038 -2.98 0
M  V30 316 H 24.1707 -0.00963529 -1.47097 0
M  V30 317 H 26.1287 2.45268 -3.3749 0
M  V30 318 H 24.7587 2.32337 -2.24097 0
M  V30 319 H 23.8107 0.453307 -3.77689 0
M  V30 320 H 25.1227 0.811662 -4.92152 0
M  V30 321 H 24.2767 3.15276 -5.18349 0
M  V30 322 H 23.0157 2.8553 -3.95378 0
M  V30 323 H 22.0207 1.05697 -5.39545 0
M  V30 324 H 23.2457 1.37877 -6.64956 0
M  V30 325 H 21.1917 3.37526 -5.62505 0
M  V30 326 H 21.1087 2.51724 -7.12861 0
M  V30 327 H 22.3767 3.6785 -6.87246 0
M  V30 328 N 26.6058 1.57591 -0.0167156 0
M  V30 329 C 27.5528 2.09462 0.969251 0
M  V30 330 C 28.5228 0.99381 1.33089 0
M  V30 331 O 29.7078 1.26726 1.42636 0
M  V30 332 C 26.8478 2.61622 2.25051 0
M  V30 333 C 25.9608 3.85666 1.94642 0
M  V30 334 C 25.0958 4.26266 3.16972 0
M  V30 335 C 24.1348 5.43101 2.82326 0
M  V30 336 N 23.2718 5.78915 3.97243 0
M  V30 337 H 28.1118 2.93428 0.519997 0
M  V30 338 H 25.6488 1.45044 0.245087 0
M  V30 339 H 27.6068 2.89949 2.99976 0
M  V30 340 H 26.2368 1.80505 2.67615 0
M  V30 341 H 25.2888 3.64145 1.10013 0
M  V30 342 H 26.6008 4.70678 1.65117 0
M  V30 343 H 25.7548 4.55963 4.00228 0
M  V30 344 H 24.4938 3.39996 3.49648 0
M  V30 345 H 23.4988 5.1311 1.97479 0
M  V30 346 H 24.7238 6.3106 2.50879 0
M  V30 347 H 22.6698 4.95602 4.29785 0
M  V30 348 H 22.5868 6.58539 3.71299 0
M  V30 349 H 23.8548 6.13212 4.81239 0
M  V30 350 N 28.0839 -0.256276 1.55502 0
M  V30 351 C 29.3329 -0.983486 1.76098 0
M  V30 352 C 29.6459 -1.86837 0.578896 0
M  V30 353 O 30.8519 -2.63163 0.667648 0
M  V30 354 C 29.3079 -1.79868 3.1173 0
M  V30 355 C 28.9159 -0.961648 4.37557 0
M  V30 356 C 30.6599 -2.51919 3.41668 0
M  V30 357 C 28.5669 -1.77219 5.64223 0
M  V30 358 H 27.4969 -0.370936 0.656447 0
M  V30 359 H 30.1479 -0.238492 1.81944 0
M  V30 360 H 28.5299 -2.58527 2.99966 0
M  V30 361 H 29.7039 -0.218048 4.60284 0
M  V30 362 H 28.0189 -0.354913 4.14885 0
M  V30 363 H 30.6159 -3.12998 4.33516 0
M  V30 364 H 30.9589 -3.23059 2.62562 0
M  V30 365 H 31.4919 -1.80278 3.54605 0
M  V30 366 H 28.2309 -1.10471 6.46124 0
M  V30 367 H 27.7509 -2.49132 5.45613 0
M  V30 368 H 29.4299 -2.34169 6.03137 0
M  V30 369 N 29.562 -1.4872 -0.521534 0
M  V30 370 C 30.809 -1.57168 -1.27689 0
M  V30 371 C 31.137 -0.249275 -1.92896 0
M  V30 372 O 30.392 0.761162 -1.80291 0
M  V30 373 C 30.691 -2.66497 -2.38148 0
M  V30 374 C 30.357 -4.08664 -1.90538 0
M  V30 375 C 29.019 -4.47357 -1.77271 0
M  V30 376 C 31.371 -4.97724 -1.54663 0
M  V30 377 C 28.699 -5.72905 -1.26478 0
M  V30 378 C 31.051 -6.2377 -1.05329 0
M  V30 379 C 29.715 -6.61311 -0.906861 0
M  V30 380 H 28.985 -0.575117 -0.467249 0
M  V30 381 H 31.632 -1.82472 -0.581051 0
M  V30 382 H 29.937 -2.35085 -3.13437 0
M  V30 383 H 31.634 -2.70246 -2.96257 0
M  V30 384 H 28.224 -3.78111 -2.01816 0
M  V30 385 H 32.408 -4.68501 -1.63768 0
M  V30 386 H 27.664 -6.00709 -1.13835 0
M  V30 387 H 31.838 -6.9217 -0.76644 0
M  V30 388 H 29.465 -7.5848 -0.511083 0
M  V30 389 N 31.0401 0.771051 -1.3745 0
M  V30 390 C 32.2681 1.56015 -1.35893 0
M  V30 391 C 32.6831 1.88718 0.0555523 0
M  V30 392 O 32.0401 1.51502 1.01752 0
M  V30 393 C 32.0911 2.87001 -2.19801 0
M  V30 394 O 31.8121 2.557 -3.55738 0
M  V30 395 C 33.3131 3.81228 -2.26231 0
M  V30 396 H 30.5331 0.483317 -0.465453 0
M  V30 397 H 33.0771 0.955611 -1.80799 0
M  V30 398 H 31.2321 3.43877 -1.78402 0
M  V30 399 H 31.6461 3.39584 -3.99729 0
M  V30 400 H 33.1201 4.70139 -2.89263 0
M  V30 401 H 33.5971 4.20409 -1.27093 0
M  V30 402 H 34.2031 3.30281 -2.67945 0
M  V30 403 N 32.5182 1.22032 0.997298 0
M  V30 404 C 33.7672 1.03637 1.73038 0
M  V30 405 C 34.0802 -0.429475 1.90827 0
M  V30 406 O 35.2862 -0.732995 2.61418 0
M  V30 407 C 33.7422 1.80582 3.11317 0
M  V30 408 C 33.3502 3.31387 3.01474 0
M  V30 409 C 35.0942 1.70621 3.88701 0
M  V30 410 C 33.0012 4.00791 4.3488 0
M  V30 411 H 31.9312 0.384179 0.648785 0
M  V30 412 H 34.5822 1.4584 1.11368 0
M  V30 413 H 32.9642 1.31175 3.73643 0
M  V30 414 H 34.1382 3.88155 2.4834 0
M  V30 415 H 32.4532 3.41976 2.37575 0
M  V30 416 H 35.0502 2.19799 4.87434 0
M  V30 417 H 35.3932 0.665823 4.10941 0
M  V30 418 H 35.9262 2.17547 3.33044 0
M  V30 419 H 32.6652 5.05064 4.1784 0
M  V30 420 H 32.1852 3.48811 4.87945 0
M  V30 421 H 33.8642 4.06139 5.03647 0
M  V30 422 N 33.9963 -1.19345 1.0293 0
M  V30 423 C 34.9283 -2.22036 0.56857 0
M  V30 424 C 35.9413 -1.58865 -0.355779 0
M  V30 425 O 37.1303 -1.77851 -0.152103 0
M  V30 426 C 34.2303 -3.38363 -0.190752 0
M  V30 427 C 33.4033 -4.31118 0.738643 0
M  V30 428 C 32.4623 -5.26194 0.0246497 0
M  V30 429 O 31.4883 -5.65461 0.651354 0
M  V30 430 N 32.6903 -5.66971 -1.24594 0
M  V30 431 H 35.4553 -2.6219 1.45177 0
M  V30 432 H 33.0163 -1.34015 0.908381 0
M  V30 433 H 35.0083 -3.98981 -0.677961 0
M  V30 434 H 33.5783 -2.96994 -0.975366 0
M  V30 435 H 32.7983 -3.68276 1.40593 0
M  V30 436 H 34.0863 -4.90001 1.37029 0
M  V30 437 H 33.4843 -5.37104 -1.77583 0
M  V30 438 H 32.0413 -6.2984 -1.67764 0
M  V30 439 N 35.4744 -0.807222 -1.35358 0
M  V30 440 C 36.7224 -0.387122 -1.98358 0
M  V30 441 C 37.0434 1.04942 -1.64354 0
M  V30 442 O 36.3134 1.72615 -0.926339 0
M  V30 443 H 34.8934 -0.140154 -0.733734 0
M  V30 444 H 37.5554 -1.0332 -1.6526 0
M  V30 445 H 36.6514 -0.493352 -3.08176 0
M  V30 446 N 36.9525 1.47285 -0.560781 0
M  V30 447 C 38.1925 2.0436 -0.0404627 0
M  V30 448 C 38.5565 1.42534 1.28639 0
M  V30 449 O 39.7575 1.90677 1.89462 0
M  V30 450 C 38.0285 3.57369 0.0471856 0
M  V30 451 S 39.5875 4.3579 0.513109 0
M  V30 452 H 36.4055 0.710492 -0.0268674 0
M  V30 453 H 39.0075 1.80611 -0.748323 0
M  V30 454 H 37.7115 3.9989 -0.922817 0
M  V30 455 H 37.2425 3.8562 0.778491 0
M  V30 456 H 39.2575 4.63476 1.77212 0
M  V30 457 N 38.4306 0.297415 1.54768 0
M  V30 458 C 39.6606 -0.315165 2.04182 0
M  V30 459 C 40.0686 -1.4834 1.17439 0
M  V30 460 O 39.4116 -1.82695 0.191891 0
M  V30 461 C 39.4736 -0.837583 3.49607 0
M  V30 462 C 39.1376 0.204912 4.5654 0
M  V30 463 C 40.1346 1.03214 5.09552 0
M  V30 464 C 37.8196 0.345578 5.0111 0
M  V30 465 C 39.8136 1.986 6.05671 0
M  V30 466 C 37.5006 1.30289 5.97049 0
M  V30 467 C 38.4986 2.12159 6.49213 0
M  V30 468 O 38.1866 3.06268 7.43273 0
M  V30 469 H 37.9186 -0.0729646 0.672051 0
M  V30 470 H 40.4726 0.433907 2.00765 0
M  V30 471 H 38.7026 -1.63712 3.50336 0
M  V30 472 H 40.3916 -1.36566 3.82236 0
M  V30 473 H 41.1576 0.934312 4.75916 0
M  V30 474 H 37.0366 -0.28171 4.60138 0
M  V30 475 H 40.5806 2.62542 6.46311 0
M  V30 476 H 36.4776 1.40145 6.30103 0
M  V30 477 H 37.2456 3.01205 7.61064 0
M  V30 478 N 39.9087 -1.5758 0.0250728 0
M  V30 479 C 41.3197 -1.79476 -0.514323 0
M  V30 480 C 41.6707 -0.934956 -1.72491 0
M  V30 481 O 40.7957 -0.144245 -2.15919 0
M  V30 482 C 41.3907 -3.25503 -0.939842 0
M  V30 483 C 39.9497 -3.48408 -1.42438 0
M  V30 484 C 39.0967 -2.74583 -0.387201 0
M  V30 485 H 42.0477 -1.567 0.25113 0
M  V30 486 H 42.0687 -3.34992 -1.80445 0
M  V30 487 H 41.5807 -3.88056 -0.0585628 0
M  V30 488 H 39.6817 -2.91103 -2.32572 0
M  V30 489 H 39.7947 -4.57119 -1.43455 0
M  V30 490 H 38.1587 -2.39942 -0.854409 0
M  V30 491 H 38.9417 -3.39849 0.485543 0
M  V30 492 N 41.3868 0.248026 -1.55636 0
M  V30 493 C 42.6328 0.97767 -1.77678 0
M  V30 494 C 42.9658 1.85016 -0.590135 0
M  V30 495 O 42.2408 1.90095 0.411611 0
M  V30 496 C 42.5238 1.83914 -3.09593 0
M  V30 497 C 42.3768 0.99491 -4.38659 0
M  V30 498 C 43.6958 2.82183 -3.37729 0
M  V30 499 H 40.8148 0.354005 -0.646413 0
M  V30 500 H 43.4568 0.248253 -1.88371 0
M  V30 501 H 41.6068 2.46104 -3.00608 0
M  V30 502 H 43.2788 0.391789 -4.59633 0
M  V30 503 H 41.5218 0.299231 -4.32767 0
M  V30 504 H 42.1928 1.63145 -5.2734 0
M  V30 505 H 44.6688 2.30129 -3.4667 0
M  V30 506 H 43.5448 3.39582 -4.31249 0
M  V30 507 H 43.8058 3.58588 -2.58586 0
M  V30 508 N 42.8649 1.48995 0.513639 0
M  V30 509 C 44.1139 1.57093 1.2651 0
M  V30 510 C 44.4269 0.257091 1.93903 0
M  V30 511 O 45.6329 0.216478 2.70636 0
M  V30 512 C 44.0889 2.77118 2.29638 0
M  V30 513 C 43.6969 4.15209 1.68241 0
M  V30 514 C 45.4409 2.94538 3.05692 0
M  V30 515 C 43.3479 5.26474 2.69406 0
M  V30 516 H 42.2779 0.584876 0.475854 0
M  V30 517 H 44.9289 1.7536 0.540487 0
M  V30 518 H 43.3109 2.52319 3.05207 0
M  V30 519 H 44.4849 4.50094 0.987505 0
M  V30 520 H 42.7999 4.03042 1.04623 0
M  V30 521 H 45.3969 3.74832 3.8132 0
M  V30 522 H 45.7399 2.04614 3.62545 0
M  V30 523 H 46.2729 3.19316 2.37238 0
M  V30 524 H 43.0119 6.18417 2.17351 0
M  V30 525 H 42.5319 4.96058 3.37175 0
M  V30 526 H 44.2109 5.55277 3.32078 0
M  V30 527 N 44.343 -0.763751 1.37857 0
M  V30 528 C 45.759 -1.06542 1.18832 0
M  V30 529 C 45.959 -2.01478 0.0299722 0
M  V30 530 O 45.015 -2.4458 -0.627447 0
M  V30 531 C 46.328 -1.65525 2.51042 0
M  V30 532 C 47.876 -1.77745 2.57635 0
M  V30 533 C 48.351 -2.4014 3.89996 0
M  V30 534 N 49.842 -2.47582 3.91481 0
M  V30 535 C 50.577 -2.96732 4.9065 0
M  V30 536 N 50.073 -3.45993 6.00217 0
M  V30 537 N 51.866 -2.95679 4.78048 0
M  V30 538 H 44.017 -0.133556 2.1198 0
M  V30 539 H 46.28 -0.121879 0.940133 0
M  V30 540 H 45.986 -1.03236 3.36207 0
M  V30 541 H 45.86 -2.64719 2.68707 0
M  V30 542 H 48.247 -2.39164 1.72872 0
M  V30 543 H 48.328 -0.772836 2.43846 0
M  V30 544 H 47.972 -1.79358 4.75177 0
M  V30 545 H 47.902 -3.41223 4.01092 0
M  V30 546 H 50.393 -2.1273 3.12337 0
M  V30 547 H 50.706 -3.81922 6.7183 0
M  V30 548 H 49.051 -3.44077 6.03851 0
M  V30 549 H 52.242 -2.56499 3.91568 0
M  V30 550 H 52.415 -3.33672 5.55488 0
M  V30 551 N 45.8211 -1.22559 -0.990812 0
M  V30 552 C 47.0611 -1.06302 -1.74583 0
M  V30 553 C 47.4251 0.394737 -1.87898 0
M  V30 554 O 48.6261 0.678214 -2.60103 0
M  V30 555 C 46.8971 -1.75699 -3.11231 0
M  V30 556 S 48.4561 -1.74882 -4.02445 0
M  V30 557 H 45.2741 -0.380639 -0.600529 0
M  V30 558 H 47.8761 -1.55532 -1.18449 0
M  V30 559 H 46.5801 -2.80923 -2.99183 0
M  V30 560 H 46.1111 -1.26708 -3.72436 0
M  V30 561 H 48.1261 -0.799997 -4.89709 0
M  V30 562 N 47.2992 1.18797 -1.03562 0
M  V30 563 C 48.2292 2.24472 -0.643019 0
M  V30 564 C 49.2102 1.66433 0.351283 0
M  V30 565 O 50.3952 1.92803 0.232505 0
M  V30 566 C 47.5252 3.473 4.24935e-05 0
M  V30 567 C 46.4792 4.18055 -0.917257 0
M  V30 568 C 45.8052 5.34519 -0.138941 0
M  V30 569 C 47.1052 4.72109 -2.23407 0
M  V30 570 H 48.7992 2.57566 -1.52643 0
M  V30 571 H 46.3452 1.23806 -0.735394 0
M  V30 572 H 48.2982 4.20426 0.286383 0
M  V30 573 H 47.0222 3.13424 0.918299 0
M  V30 574 H 45.6812 3.46821 -1.1879 0
M  V30 575 H 45.3292 4.96891 0.781562 0
M  V30 576 H 45.0292 5.82794 -0.750005 0
M  V30 577 H 46.5532 6.10438 0.1405 0
M  V30 578 H 47.9672 5.36955 -2.00879 0
M  V30 579 H 46.3642 5.30897 -2.79765 0
M  V30 580 H 47.4342 3.89807 -2.88407 0
M  V30 581 N 48.7773 0.814389 1.34928 0
M  V30 582 C 49.7073 0.244827 2.32213 0
M  V30 583 C 50.6883 -0.634024 1.57842 0
M  V30 584 O 51.8733 -0.562676 1.8587 0
M  V30 585 C 49.0033 -0.601106 3.42058 0
M  V30 586 C 47.9573 0.179896 4.27622 0
M  V30 587 C 47.2833 -0.788237 5.28858 0
M  V30 588 C 48.5833 1.38329 5.03649 0
M  V30 589 H 50.2773 1.05763 2.80097 0
M  V30 590 H 47.8233 0.510029 1.34665 0
M  V30 591 H 49.7763 -1.00968 4.09125 0
M  V30 592 H 48.5003 -1.44688 2.92802 0
M  V30 593 H 47.1593 0.569739 3.62146 0
M  V30 594 H 46.8073 -1.62973 4.75866 0
M  V30 595 H 46.5073 -0.269942 5.8698 0
M  V30 596 H 48.0313 -1.19485 5.98795 0
M  V30 597 H 49.4453 1.04918 5.63618 0
M  V30 598 H 47.8423 1.83662 5.71304 0
M  V30 599 H 48.9123 2.16592 4.33839 0
M  V30 600 N 50.2554 -1.46986 0.568584 0
M  V30 601 C 51.6714 -1.57946 0.229189 0
M  V30 602 C 51.8714 -1.56567 -1.26843 0
M  V30 603 O 50.9274 -1.47511 -2.04931 0
M  V30 604 C 52.2404 -2.87963 0.865909 0
M  V30 605 C 53.7884 -3.01568 0.838188 0
M  V30 606 C 54.2634 -4.34301 1.45419 0
M  V30 607 N 55.7544 -4.40965 1.41788 0
M  V30 608 C 56.4894 -5.42256 1.86403 0
M  V30 609 N 55.9854 -6.50297 2.38926 0
M  V30 610 N 57.7784 -5.3337 1.77405 0
M  V30 611 H 49.9294 -1.46126 1.54146 0
M  V30 612 H 52.1924 -0.696156 0.643484 0
M  V30 613 H 51.8984 -2.94742 1.91886 0
M  V30 614 H 51.7724 -3.75423 0.365687 0
M  V30 615 H 54.1594 -2.94379 -0.206106 0
M  V30 616 H 54.2404 -2.1562 1.37629 0
M  V30 617 H 53.8844 -4.42247 2.49761 0
M  V30 618 H 53.8144 -5.19 0.891435 0
M  V30 619 H 56.3054 -3.63484 1.03381 0
M  V30 620 H 56.6184 -7.23777 2.70863 0
M  V30 621 H 54.9634 -6.51155 2.42944 0
M  V30 622 H 58.1544 -4.47865 1.3614 0
M  V30 623 H 58.3274 -6.12169 2.12492 0
M  V30 624 N 51.7335 -0.305618 -1.54608 0
M  V30 625 C 53.1495 0.0476228 -1.59529 0
M  V30 626 C 53.3495 1.52025 -1.32252 0
M  V30 627 O 52.4055 2.27368 -1.09818 0
M  V30 628 C 53.7185 -0.354471 -2.98603 0
M  V30 629 C 55.2665 -0.303622 -3.11524 0
M  V30 630 C 55.7415 -0.680608 -4.52915 0
M  V30 631 N 57.2325 -0.63332 -4.5885 0
M  V30 632 C 57.9675 -0.897432 -5.66334 0
M  V30 633 N 57.4635 -1.22775 -6.81834 0
M  V30 634 N 59.2565 -0.824186 -5.56025 0
M  V30 635 H 51.4075 -1.2653 -1.70599 0
M  V30 636 H 53.6705 -0.513291 -0.797017 0
M  V30 637 H 53.3765 -1.3798 -3.23503 0
M  V30 638 H 53.2505 0.289568 -3.76087 0
M  V30 639 H 55.6375 0.712472 -2.8637 0
M  V30 640 H 55.7185 -0.982348 -2.36185 0
M  V30 641 H 55.3625 -1.69453 -4.78799 0
M  V30 642 H 55.2925 0.0202385 -5.26596 0
M  V30 643 H 57.7835 -0.389138 -3.75891 0
M  V30 644 H 58.0965 -1.41513 -7.59733 0
M  V30 645 H 56.4415 -1.26583 -6.83375 0
M  V30 646 H 59.6325 -0.565748 -4.64669 0
M  V30 647 H 59.8055 -1.03338 -6.39707 0
M  V30 648 N 53.2116 1.57565 -0.0334293 0
M  V30 649 C 54.6276 1.56297 0.322997 0
M  V30 650 C 54.8276 1.03945 1.7262 0
M  V30 651 O 53.8836 0.688109 2.42943 0
M  V30 652 C 55.1966 3.00232 0.167664 0
M  V30 653 C 56.7446 3.12078 0.240107 0
M  V30 654 C 57.2196 4.57859 0.113513 0
M  V30 655 N 58.7106 4.62887 0.170359 0
M  V30 656 C 59.4456 5.73319 0.0962517 0
M  V30 657 N 58.9416 6.92794 -0.0291881 0
M  V30 658 N 60.7346 5.61898 0.150551 0
M  V30 659 H 52.8856 1.89923 -0.950956 0
M  V30 660 H 55.1486 0.873824 -0.367608 0
M  V30 661 H 54.8546 3.42501 -0.799102 0
M  V30 662 H 54.7286 3.654 0.936083 0
M  V30 663 H 57.1156 2.69718 1.19733 0
M  V30 664 H 57.1966 2.49623 -0.558763 0
M  V30 665 H 56.8406 5.009 -0.840314 0
M  V30 666 H 56.7706 5.18299 0.931302 0
M  V30 667 H 59.2616 3.76954 0.26728 0
M  V30 668 H 59.5746 7.7276 -0.0789252 0
M  V30 669 H 57.9196 6.94971 -0.0640299 0
M  V30 670 H 61.1106 4.67448 0.246981 0
M  V30 671 H 61.2836 6.47938 0.0893365 0
M  V30 672 N 54.6897 -0.239769 1.55765 0
M  V30 673 C 55.9377 -0.964892 1.77579 0
M  V30 674 C 56.2587 -1.85582 0.598699 0
M  V30 675 O 55.5287 -1.92075 -0.385226 0
M  V30 676 H 54.1087 -0.359265 0.654933 0
M  V30 677 H 56.7707 -0.256001 1.93211 0
M  V30 678 H 55.8667 -1.58243 2.69009 0
M  V30 679 N 56.1678 -1.49265 -0.50573 0
M  V30 680 C 57.4138 -1.59723 -1.25937 0
M  V30 681 C 57.7688 -0.278236 -1.90378 0
M  V30 682 O 57.0618 0.72113 -1.77511 0
M  V30 683 C 57.2558 -2.69008 -2.35308 0
M  V30 684 C 57.0848 -4.11405 -1.81592 0
M  V30 685 C 55.8548 -4.78252 -1.63105 0
M  V30 686 C 58.0528 -4.96792 -1.33048 0
M  V30 687 N 56.0348 -6.0498 -1.04269 0
M  V30 688 C 57.4058 -6.13962 -0.863168 0
M  V30 689 C 59.4608 -4.82828 -1.21577 0
M  V30 690 C 58.1638 -7.18705 -0.292489 0
M  V30 691 C 60.1898 -5.87716 -0.65907 0
M  V30 692 C 59.5518 -7.0411 -0.201954 0
M  V30 693 H 55.6508 -0.638864 -0.450973 0
M  V30 694 H 58.2348 -1.86251 -0.567326 0
M  V30 695 H 56.4058 -2.4426 -3.01979 0
M  V30 696 H 58.1378 -2.69013 -3.02348 0
M  V30 697 H 54.8928 -4.34974 -1.87336 0
M  V30 698 H 55.3168 -6.72631 -0.767919 0
M  V30 699 H 59.9588 -3.93159 -1.55518 0
M  V30 700 H 57.6768 -8.08078 0.0591987 0
M  V30 701 H 61.2628 -5.7897 -0.573156 0
M  V30 702 H 60.1428 -7.83885 0.222101 0
M  V30 703 N 57.6459 0.756429 -1.3826 0
M  V30 704 C 58.8919 1.51772 -1.34511 0
M  V30 705 C 59.2249 1.94089 0.0656691 0
M  V30 706 O 58.4999 1.65221 1.02626 0
M  V30 707 C 58.7829 2.77226 -2.29821 0
M  V30 708 C 58.6359 2.41065 -3.79747 0
M  V30 709 C 59.9549 3.79236 -2.23312 0
M  V30 710 H 57.0739 0.550578 -0.489931 0
M  V30 711 H 59.7159 0.866607 -1.69086 0
M  V30 712 H 57.8659 3.32784 -2.00467 0
M  V30 713 H 59.5379 1.91303 -4.19763 0
M  V30 714 H 57.7809 1.7356 -3.97567 0
M  V30 715 H 58.4519 3.3081 -4.41892 0
M  V30 716 H 60.9279 3.3321 -2.49219 0
M  V30 717 H 59.8039 4.64714 -2.92116 0
M  V30 718 H 60.0649 4.24615 -1.23102 0
M  V30 719 N 59.124 1.23083 0.984299 0
M  V30 720 C 60.034 1.02515 2.11016 0
M  V30 721 C 61.05 -0.0291702 1.73976 0
M  V30 722 O 62.226 0.165434 2.00719 0
M  V30 723 C 59.291 0.614673 3.41208 0
M  V30 724 C 58.352 1.74359 3.92297 0
M  V30 725 C 57.585 1.35261 5.16275 0
M  V30 726 O 57.808 0.235136 5.69915 0
M  V30 727 O 56.742 2.17227 5.61334 0
M  V30 728 H 60.568 1.96862 2.31255 0
M  V30 729 H 58.153 1.01753 1.09392 0
M  V30 730 H 60.035 0.396518 4.1953 0
M  V30 731 H 58.71 -0.299851 3.22308 0
M  V30 732 H 57.617 2.01635 3.1511 0
M  V30 733 H 58.95 2.63629 4.15645 0
M  V30 734 N 60.6021 -1.18246 1.0419 0
M  V30 735 C 61.5491 -2.2192 0.634037 0
M  V30 736 C 62.5191 -1.62179 -0.358765 0
M  V30 737 O 63.7041 -1.89122 -0.252466 0
M  V30 738 C 60.8441 -3.451 0.00445535 0
M  V30 739 C 59.9571 -4.19174 1.04487 0
M  V30 740 C 59.0921 -5.29813 0.383676 0
M  V30 741 C 58.1311 -5.9566 1.4091 0
M  V30 742 N 57.2681 -6.97834 0.772784 0
M  V30 743 H 62.1081 -2.56164 1.52263 0
M  V30 744 H 59.6451 -1.25843 0.761701 0
M  V30 745 H 61.6031 -4.15485 -0.377919 0
M  V30 746 H 60.2331 -3.11472 -0.847652 0
M  V30 747 H 59.2851 -3.47604 1.54518 0
M  V30 748 H 60.5971 -4.64267 1.82368 0
M  V30 749 H 59.7511 -6.06677 -0.0528366 0
M  V30 750 H 58.4901 -4.85825 -0.427208 0
M  V30 751 H 57.4951 -5.17535 1.85574 0
M  V30 752 H 58.7201 -6.4173 2.22171 0
M  V30 753 H 56.6661 -6.55998 -0.0177708 0
M  V30 754 H 56.5831 -7.41186 1.48928 0
M  V30 755 H 57.8511 -7.78665 0.36071 0
M  V30 756 N 62.0802 -0.821533 -1.34494 0
M  V30 757 C 63.0272 -0.240397 -2.29545 0
M  V30 758 C 63.9972 0.634031 -1.53523 0
M  V30 759 O 65.1822 0.575966 -1.81899 0
M  V30 760 C 62.3222 0.592869 -3.39969 0
M  V30 761 C 61.4352 -0.30365 -4.30932 0
M  V30 762 C 60.5702 0.539049 -5.28458 0
M  V30 763 C 59.6092 -0.356942 -6.11058 0
M  V30 764 N 58.7462 0.446603 -7.00678 0
M  V30 765 H 63.5862 -1.05632 -2.7865 0
M  V30 766 H 61.1232 -0.532413 -1.37127 0
M  V30 767 H 63.0812 1.09129 -4.02675 0
M  V30 768 H 61.7112 1.37392 -2.92102 0
M  V30 769 H 60.7632 -0.920276 -3.691 0
M  V30 770 H 62.0752 -0.992661 -4.88823 0
M  V30 771 H 61.2292 1.102 -5.96608 0
M  V30 772 H 59.9682 1.26157 -4.71101 0
M  V30 773 H 58.9732 -0.932047 -5.41842 0
M  V30 774 H 60.1982 -1.07755 -6.70497 0
M  V30 775 H 58.1442 1.15282 -6.45791 0
M  V30 776 H 58.0612 -0.184048 -7.55776 0
M  V30 777 H 59.3292 0.992352 -7.73158 0
M  V30 778 N 63.5583 1.46682 -0.576371 0
M  V30 779 C 64.4913 2.27243 0.208731 0
M  V30 780 C 65.4693 1.35238 0.902746 0
M  V30 781 O 66.6533 1.64641 0.917904 0
M  V30 782 C 63.7803 3.12802 1.29896 0
M  V30 783 C 62.8263 4.20524 0.711457 0
M  V30 784 S 63.6593 5.33548 -0.456781 0
M  V30 785 C 64.8153 6.22673 0.634798 0
M  V30 786 H 65.0483 2.93484 -0.474838 0
M  V30 787 H 62.5813 1.50069 -0.363118 0
M  V30 788 H 64.5393 3.62661 1.92321 0
M  V30 789 H 63.2003 2.45887 1.95444 0
M  V30 790 H 62.3933 4.80191 1.53076 0
M  V30 791 H 61.9953 3.73645 0.162999 0
M  V30 792 H 64.2873 6.60181 1.52209 0
M  V30 793 H 65.2303 7.0806 0.0750311 0
M  V30 794 H 65.6383 5.56684 0.936092 0
M  V30 795 N 65.0364 0.313813 1.54444 0
M  V30 796 C 66.2824 -0.292108 2.00685 0
M  V30 797 C 66.6154 -1.52548 1.20177 0
M  V30 798 O 65.8904 -1.92452 0.281531 0
M  V30 799 C 66.1734 -0.635968 3.5444 0
M  V30 800 C 66.0264 0.607437 4.4568 0
M  V30 801 C 67.3454 -1.45747 4.15266 0
M  V30 802 H 64.4644 -0.104697 0.729526 0
M  V30 803 H 67.1064 0.428457 1.85106 0
M  V30 804 H 65.2564 -1.24986 3.67846 0
M  V30 805 H 66.9284 1.24581 4.44159 0
M  V30 806 H 65.1714 1.23822 4.15753 0
M  V30 807 H 65.8424 0.322515 5.51057 0
M  V30 808 H 68.3184 -0.938645 4.05375 0
M  V30 809 H 67.1944 -1.66683 5.2298 0
M  V30 810 H 67.4554 -2.45063 3.67963 0
M  V30 811 N 66.5145 -1.57545 0.0417849 0
M  V30 812 C 67.4645 -2.07483 -0.945247 0
M  V30 813 C 68.4485 -0.977983 -1.27767 0
M  V30 814 O 69.6405 -1.24142 -1.26166 0
M  V30 815 C 66.7695 -2.61576 -2.22335 0
M  V30 816 C 65.8555 -3.78213 -1.91874 0
M  V30 817 N 66.2465 -4.88344 -1.31733 0
M  V30 818 C 64.5445 -3.8694 -2.21796 0
M  V30 819 C 65.2455 -5.69462 -1.1869 0
M  V30 820 N 64.2215 -5.16771 -1.68666 0
M  V30 821 H 68.0235 -2.90029 -0.475441 0
M  V30 822 H 65.5375 -1.61581 -0.162911 0
M  V30 823 H 67.5345 -2.95651 -2.93932 0
M  V30 824 H 66.1945 -1.80465 -2.69931 0
M  V30 825 H 67.2055 -5.08335 -0.990729 0
M  V30 826 H 63.8825 -3.16757 -2.71977 0
M  V30 827 H 65.2725 -6.68023 -0.720793 0
M  V30 828 N 67.9926 0.231505 -1.5589 0
M  V30 829 C 69.4086 0.580748 -1.48659 0
M  V30 830 C 69.6086 1.87617 -0.73498 0
M  V30 831 O 68.6646 2.51046 -0.270586 0
M  V30 832 C 69.9776 0.669202 -2.93159 0
M  V30 833 C 71.5256 0.760499 -3.03621 0
M  V30 834 C 72.0006 0.880383 -4.49459 0
M  V30 835 N 73.4916 0.944861 -4.53461 0
M  V30 836 C 74.2266 1.05716 -5.63571 0
M  V30 837 N 73.7226 1.13403 -6.83456 0
M  V30 838 N 75.5156 1.09152 -5.514 0
M  V30 839 H 67.6666 -0.618695 -2.03189 0
M  V30 840 H 69.9296 -0.215728 -0.923128 0
M  V30 841 H 69.6356 -0.212904 -3.51055 0
M  V30 842 H 69.5096 1.5361 -3.44505 0
M  V30 843 H 71.8966 1.63305 -2.45796 0
M  V30 844 H 71.9776 -0.131864 -2.5546 0
M  V30 845 H 71.6216 0.0123284 -5.07899 0
M  V30 846 H 71.5516 1.78802 -4.95316 0
M  V30 847 H 74.0426 0.896176 -3.6712 0
M  V30 848 H 74.3556 1.21921 -7.63122 0
M  V30 849 H 72.7006 1.10333 -6.86186 0
M  V30 850 H 75.8916 1.02805 -4.56671 0
M  V30 851 H 76.0646 1.17558 -6.37247 0
M  V30 852 N 69.4707 1.49531 0.497807 0
M  V30 853 C 70.6957 1.63159 1.28039 0
M  V30 854 C 71.1207 0.30418 1.85624 0
M  V30 855 O 70.4787 -0.728618 1.66015 0
M  V30 856 C 70.5267 2.70537 2.38416 0
M  V30 857 O 69.6307 2.29931 3.42353 0
M  V30 858 H 68.9717 0.546001 0.377861 0
M  V30 859 H 71.5017 1.9574 0.59558 0
M  V30 860 H 71.5117 2.92802 2.84132 0
M  V30 861 H 70.1867 3.6689 1.95869 0
M  V30 862 H 68.7637 2.18009 3.02533 0
M  V30 863 N 70.9488 -0.749086 1.3866 0
M  V30 864 C 72.1968 -1.50535 1.34847 0
M  V30 865 C 72.5178 -1.94909 -0.0595016 0
M  V30 866 O 71.7878 -1.67973 -1.00806 0
M  V30 867 H 70.3678 -0.558395 0.49619 0
M  V30 868 H 73.0298 -0.890165 1.73384 0
M  V30 869 H 72.1258 -2.39413 2.00219 0
M  V30 870 N 72.4269 -1.23603 -0.977757 0
M  V30 871 C 73.8379 -1.06424 -1.53398 0
M  V30 872 C 74.1889 0.367578 -1.92726 0
M  V30 873 O 73.3139 1.25465 -1.76316 0
M  V30 874 C 73.9089 -1.92568 -2.78753 0
M  V30 875 C 72.4679 -1.79642 -3.30765 0
M  V30 876 C 71.6149 -1.88111 -2.03739 0
M  V30 877 H 74.5659 -1.37227 -0.797152 0
M  V30 878 H 74.5869 -1.45203 -3.51705 0
M  V30 879 H 74.0989 -2.96771 -2.50098 0
M  V30 880 H 72.1999 -0.782325 -3.64294 0
M  V30 881 H 72.3129 -2.63174 -4.00345 0
M  V30 882 H 70.6769 -1.31723 -2.17994 0
M  V30 883 H 71.4599 -2.93875 -1.77461 0
M  V30 884 N 73.905 1.17692 -1.04816 0
M  V30 885 C 75.133 1.91786 -0.776254 0
M  V30 886 C 75.548 1.76604 0.667577 0
M  V30 887 O 74.905 1.10067 1.45573 0
M  V30 888 C 74.956 3.42967 -1.14263 0
M  V30 889 O 74.677 3.57678 -2.52978 0
M  V30 890 C 76.178 4.34144 -0.896311 0
M  V30 891 H 73.398 0.608624 -0.282519 0
M  V30 892 H 75.942 1.49268 -1.39783 0
M  V30 893 H 74.097 3.83245 -0.565874 0
M  V30 894 H 74.511 4.51319 -2.67229 0
M  V30 895 H 75.985 5.38744 -1.20244 0
M  V30 896 H 76.462 4.38876 0.168636 0
M  V30 897 H 77.068 3.99574 -1.45672 0
M  V30 898 N 75.3831 0.828654 1.34056 0
M  V30 899 C 76.3131 0.269443 2.3194 0
M  V30 900 C 77.2941 -0.617247 1.58506 0
M  V30 901 O 78.4791 -0.542931 1.86456 0
M  V30 902 C 75.6091 -0.564793 3.42677 0
M  V30 903 C 74.5631 0.225241 4.27407 0
M  V30 904 C 73.8891 -0.7321 5.29664 0
M  V30 905 C 75.1891 1.43663 5.02154 0
M  V30 906 H 76.8831 1.08728 2.7896 0
M  V30 907 H 74.4291 0.524283 1.34117 0
M  V30 908 H 76.3821 -0.966233 4.10173 0
M  V30 909 H 75.1061 -1.41574 2.9432 0
M  V30 910 H 73.7651 0.608117 3.61521 0
M  V30 911 H 73.4131 -1.57916 4.77568 0
M  V30 912 H 73.1131 -0.20767 5.87233 0
M  V30 913 H 74.6371 -1.13128 6.00029 0
M  V30 914 H 76.0511 1.1089 5.62473 0
M  V30 915 H 74.4481 1.89711 5.69324 0
M  V30 916 H 75.5181 2.21181 4.31517 0
M  V30 917 N 76.8612 -1.46375 0.584142 0
M  V30 918 C 77.7912 -2.33103 -0.136037 0
M  V30 919 C 78.7722 -1.45431 -0.882255 0
M  V30 920 O 79.9572 -1.74246 -0.857434 0
M  V30 921 C 77.0872 -3.27731 -1.14933 0
M  V30 922 C 76.0412 -4.24855 -0.517862 0
M  V30 923 C 75.3672 -5.09001 -1.63773 0
M  V30 924 C 76.6672 -5.19439 0.545886 0
M  V30 925 H 78.3612 -2.93568 0.588086 0
M  V30 926 H 75.9072 -1.41166 0.284259 0
M  V30 927 H 77.8602 -3.87261 -1.66153 0
M  V30 928 H 76.5842 -2.65377 -1.90375 0
M  V30 929 H 75.2432 -3.6659 -0.0267361 0
M  V30 930 H 74.8912 -4.43031 -2.38185 0
M  V30 931 H 74.5912 -5.74777 -1.22085 0
M  V30 932 H 76.1152 -5.71396 -2.15266 0
M  V30 933 H 77.5292 -5.73177 0.118704 0
M  V30 934 H 75.9262 -5.93566 0.88317 0
M  V30 935 H 76.9962 -4.63285 1.43162 0
M  V30 936 N 78.3393 -0.321999 -1.54275 0
M  V30 937 C 79.7503 0.166384 -1.85957 0
M  V30 938 C 80.1013 1.51747 -1.24367 0
M  V30 939 O 79.2263 2.09317 -0.549124 0
M  V30 940 C 79.8213 0.308681 -3.37391 0
M  V30 941 C 78.3803 0.741286 -3.69028 0
M  V30 942 C 77.5273 -0.137937 -2.76957 0
M  V30 943 H 80.4783 -0.542335 -1.49146 0
M  V30 944 H 80.4993 1.13984 -3.63026 0
M  V30 945 H 80.0113 -0.674809 -3.82188 0
M  V30 946 H 78.1123 1.73458 -3.29762 0
M  V30 947 H 78.2253 0.546118 -4.75977 0
M  V30 948 H 76.5893 0.386251 -2.51754 0
M  V30 949 H 77.3723 -1.11816 -3.2458 0
M  V30 950 N 79.8174 1.5752 -0.0501392 0
M  V30 951 C 81.2284 1.80271 0.485705 0
M  V30 952 C 81.5794 0.96228 1.70981 0
M  V30 953 O 80.7044 0.178578 2.15662 0
M  V30 954 C 81.2994 3.26957 0.887938 0
M  V30 955 C 79.8584 3.5063 1.36877 0
M  V30 956 C 79.0054 2.75165 0.343468 0
M  V30 957 H 81.9564 1.56281 -0.276028 0
M  V30 958 H 81.9774 3.37821 1.75093 0
M  V30 959 H 81.4894 3.881 -0.0031809 0
M  V30 960 H 79.5904 2.94766 2.27911 0
M  V30 961 H 79.7034 4.59343 1.36164 0
M  V30 962 H 78.0674 2.4127 0.816128 0
M  V30 963 H 78.8504 3.39034 -0.539548 0
M  V30 964 N 81.2955 -0.223234 1.56011 0
M  V30 965 C 82.2275 -1.30006 1.88762 0
M  V30 966 C 83.2405 -1.43129 0.775746 0
M  V30 967 O 84.4295 -1.44057 1.05403 0
M  V30 968 C 81.5295 -2.67589 2.07965 0
M  V30 969 C 80.7025 -2.76434 3.38973 0
M  V30 970 C 79.7615 -3.95019 3.47629 0
M  V30 971 O 78.7875 -3.83436 4.20672 0
M  V30 972 N 79.9895 -5.09249 2.78649 0
M  V30 973 H 82.7545 -1.02238 2.81722 0
M  V30 974 H 80.3155 -0.413278 1.56536 0
M  V30 975 H 82.3075 -3.45297 2.11073 0
M  V30 976 H 80.8775 -2.87964 1.21638 0
M  V30 977 H 80.0975 -1.85216 3.47978 0
M  V30 978 H 81.3855 -2.79313 4.25278 0
M  V30 979 H 80.7835 -5.21556 2.19081 0
M  V30 980 H 79.3405 -5.85007 2.8742 0
M  V30 981 N 82.7736 -1.49793 -0.48987 0
M  V30 982 C 83.7206 -1.67281 -1.59014 0
M  V30 983 C 84.6906 -0.514177 -1.57941 0
M  V30 984 O 85.8756 -0.742533 -1.75759 0
M  V30 985 C 83.0156 -1.75569 -2.97102 0
M  V30 986 C 82.1286 -3.0281 -3.08107 0
M  V30 987 C 81.2636 -3.02008 -4.36995 0
M  V30 988 C 80.3026 -4.23782 -4.41673 0
M  V30 989 N 79.4396 -4.20826 -5.62005 0
M  V30 990 H 84.2796 -2.61224 -1.43409 0
M  V30 991 H 81.8166 -1.29508 -0.697565 0
M  V30 992 H 83.7746 -1.78354 -3.77155 0
M  V30 993 H 82.4046 -0.850827 -3.11385 0
M  V30 994 H 81.4566 -3.09584 -2.21047 0
M  V30 995 H 82.7686 -3.92801 -3.07423 0
M  V30 996 H 81.9226 -3.03418 -5.25378 0
M  V30 997 H 80.6616 -2.09815 -4.4026 0
M  V30 998 H 79.6666 -4.22604 -3.5169 0
M  V30 999 H 80.8916 -5.17181 -4.40115 0
M  V30 1000 H 78.8376 -3.31476 -5.66091 0
M  V30 1001 H 78.7546 -5.04564 -5.62984 0
M  V30 1002 H 80.0226 -4.26355 -6.52565 0
M  V30 1003 N 84.2517 0.741722 -1.39055 0
M  V30 1004 C 85.5287 1.49252 -1.26425 0
M  V30 1005 C 85.9087 2.10705 0.129144 0
M  V30 1006 O 85.2567 1.98045 1.13976 0
M  V30 1007 C 85.4667 2.54934 -2.38347 0
M  V30 1008 C 86.8147 3.21506 -2.77343 0
M  V30 1009 O 87.8387 2.65245 -2.37747 0
M  V30 1010 O 86.6977 4.23294 -3.45665 0
M  V30 1011 H 83.7917 0.662451 -0.495064 0
M  V30 1012 H 86.3377 0.776121 -1.50912 0
M  V30 1013 H 85.1097 2.07857 -3.31529 0
M  V30 1014 H 84.7327 3.34141 -2.15489 0
M  V30 1015 N 85.7298 1.2412 0.971189 0
M  V30 1016 C 86.6598 1.05508 2.08304 0
M  V30 1017 C 87.6408 -0.0308864 1.70072 0
M  V30 1018 O 88.8258 0.135521 1.93727 0
M  V30 1019 C 85.9558 0.655365 3.4106 0
M  V30 1020 C 84.9098 1.68971 3.93234 0
M  V30 1021 C 84.2358 1.14516 5.22293 0
M  V30 1022 C 85.5358 3.08487 4.21465 0
M  V30 1023 H 87.2298 1.98507 2.24132 0
M  V30 1024 H 84.7758 0.955821 1.07704 0
M  V30 1025 H 86.7288 0.51217 4.18276 0
M  V30 1026 H 85.4528 -0.31032 3.25122 0
M  V30 1027 H 84.1118 1.82106 3.18171 0
M  V30 1028 H 83.7598 0.170189 5.02712 0
M  V30 1029 H 83.4598 1.83635 5.58168 0
M  V30 1030 H 84.9838 1.01401 6.02121 0
M  V30 1031 H 86.3978 2.98601 4.89398 0
M  V30 1032 H 84.7948 3.74926 4.68562 0
M  V30 1033 H 85.8648 3.56787 3.28376 0
M  V30 1034 N 87.2079 -1.17134 1.05439 0
M  V30 1035 C 88.4849 -1.83411 0.679699 0
M  V30 1036 C 88.8649 -1.9368 -0.839726 0
M  V30 1037 O 88.2129 -1.47325 -1.74664 0
M  V30 1038 C 88.4229 -3.20918 1.37159 0
M  V30 1039 C 89.7709 -3.96796 1.51123 0
M  V30 1040 O 90.7949 -3.30406 1.3308 0
M  V30 1041 O 89.6539 -5.15778 1.80651 0
M  V30 1042 H 86.7479 -0.79154 0.239569 0
M  V30 1043 H 89.2939 -1.24411 1.15413 0
M  V30 1044 H 88.0659 -3.08428 2.40807 0
M  V30 1045 H 87.6889 -3.87587 0.886674 0
M  V30 1046 N 88.686 -0.835752 -1.33615 0
M  V30 1047 C 89.911 -0.442389 -2.02627 0
M  V30 1048 C 90.336 0.947735 -1.62479 0
M  V30 1049 O 89.694 1.61907 -0.815826 0
M  V30 1050 C 89.742 -0.567216 -3.56111 0
M  V30 1051 O 88.846 0.407799 -4.10379 0
M  V30 1052 H 88.187 -0.180278 -0.639059 0
M  V30 1053 H 90.717 -1.12972 -1.70583 0
M  V30 1054 H 90.727 -0.447708 -4.05536 0
M  V30 1055 H 89.402 -1.58103 -3.84677 0
M  V30 1056 H 87.979 0.246107 -3.72087 0
M  V30 1057 N 90.1641 1.46063 -0.591896 0
M  V30 1058 C 91.3891 2.07226 -0.0850314 0
M  V30 1059 C 91.8141 1.43625 1.21463 0
M  V30 1060 O 91.1721 0.523305 1.73583 0
M  V30 1061 C 91.2201 3.60554 0.0576567 0
M  V30 1062 O 90.3241 3.97128 1.11188 0
M  V30 1063 H 89.6651 0.660615 -0.0669568 0
M  V30 1064 H 92.1951 1.8756 -0.81745 0
M  V30 1065 H 92.2051 4.07165 0.2609 0
M  V30 1066 H 90.8801 4.06235 -0.891416 0
M  V30 1067 H 89.4571 3.62213 0.886356 0
M  V30 1068 N 91.6422 0.330177 1.54103 0
M  V30 1069 C 92.6052 -0.520144 2.2322 0
M  V30 1070 C 93.6052 -1.03828 1.22786 0
M  V30 1071 O 94.7952 -0.929652 1.4732 0
M  V30 1072 C 91.9272 -1.72317 2.94142 0
M  V30 1073 H 93.1202 0.0841605 2.99782 0
M  V30 1074 H 90.6732 0.0813433 1.56088 0
M  V30 1075 H 91.4082 -2.36653 2.21734 0
M  V30 1076 H 91.1932 -1.35898 3.67796 0
M  V30 1077 H 92.6832 -2.3266 3.46784 0
M  V30 1078 N 93.1203 -1.57491 0.0584922 0
M  V30 1079 C 94.0533 -2.07533 -0.948969 0
M  V30 1080 C 95.0313 -0.977444 -1.29942 0
M  V30 1081 O 96.2153 -1.2499 -1.41102 0
M  V30 1082 C 93.3423 -2.52192 -2.2609 0
M  V30 1083 C 92.3883 -3.73287 -2.06298 0
M  V30 1084 S 93.2213 -5.18603 -1.33459 0
M  V30 1085 C 94.3773 -5.66583 -2.65959 0
M  V30 1086 H 94.6103 -2.92662 -0.523118 0
M  V30 1087 H 92.1433 -1.53631 -0.153954 0
M  V30 1088 H 94.1013 -2.78585 -3.01498 0
M  V30 1089 H 92.7623 -1.67356 -2.65802 0
M  V30 1090 H 91.9553 -4.0248 -3.03357 0
M  V30 1091 H 91.5573 -3.47199 -1.39029 0
M  V30 1092 H 93.8493 -5.72616 -3.62101 0
M  V30 1093 H 94.7923 -6.65684 -2.41393 0
M  V30 1094 H 95.2003 -4.94342 -2.72554 0
M  V30 1095 N 94.5984 0.214957 -1.56127 0
M  V30 1096 C 95.8464 0.936518 -1.79091 0
M  V30 1097 C 96.1674 1.84606 -0.628148 0
M  V30 1098 O 95.4374 1.92664 0.35462 0
M  V30 1099 H 94.0174 0.3488 -0.660566 0
M  V30 1100 H 96.6794 0.22523 -1.93594 0
M  V30 1101 H 95.7754 1.53943 -2.71492 0
M  V30 1102 N 96.0765 1.50051 0.48192 0
M  V30 1103 C 97.3535 1.51009 1.2432 0
M  V30 1104 C 97.7335 0.248587 2.09631 0
M  V30 1105 O 97.0815 -0.768409 2.15192 0
M  V30 1106 C 97.2915 2.79981 2.08355 0
M  V30 1107 C 98.6395 3.3022 2.66908 0
M  V30 1108 O 99.6635 2.81228 2.18607 0
M  V30 1109 O 98.5225 4.15595 3.54884 0
M  V30 1110 H 95.6165 0.605239 0.563573 0
M  V30 1111 H 98.1625 1.62332 0.494627 0
M  V30 1112 H 96.9345 3.63275 1.45419 0
M  V30 1113 H 96.5575 2.7161 2.90368 0
M  V30 1114 N 97.5546 -0.734337 1.39446 0
M  V30 1115 C 98.7796 -1.52866 1.40167 0
M  V30 1116 C 99.2046 -1.881 -0.00171513 0
M  V30 1117 O 98.5626 -1.51957 -0.988879 0
M  V30 1118 C 98.6106 -2.79235 2.28167 0
M  V30 1119 O 97.7146 -3.75185 1.71201 0
M  V30 1120 H 97.0556 -0.461618 0.477289 0
M  V30 1121 H 99.5856 -0.905949 1.8345 0
M  V30 1122 H 99.5956 -3.27963 2.42702 0
M  V30 1123 H 98.2706 -2.52923 3.30156 0
M  V30 1124 H 96.8476 -3.33958 1.65912 0
M  V30 1125 N 99.0327 -1.24633 -0.964593 0
M  V30 1126 C 100.31 -0.995809 -1.68354 0
M  V30 1127 C 100.69 0.480964 -2.05548 0
M  V30 1128 O 100.038 1.45599 -1.76105 0
M  V30 1129 C 100.248 -1.92177 -2.91323 0
M  V30 1130 C 101.596 -2.19446 -3.63495 0
M  V30 1131 O 102.62 -1.89855 -3.01386 0
M  V30 1132 O 101.479 -2.69714 -4.75307 0
M  V30 1133 H 98.5727 -0.376854 -0.736146 0
M  V30 1134 H 101.119 -1.35745 -1.0184 0
M  V30 1135 H 99.8907 -2.91938 -2.60553 0
M  V30 1136 H 99.5137 -1.56349 -3.65569 0
M  V30 1137 N 100.511 1.16574 -1.06058 0
M  V30 1138 C 101.739 1.90952 -0.796552 0
M  V30 1139 C 102.154 1.77302 0.648808 0
M  V30 1140 O 101.511 1.11605 1.44397 0
M  V30 1141 C 101.562 3.41736 -1.17894 0
M  V30 1142 O 101.283 3.54975 -2.56758 0
M  V30 1143 C 102.784 4.33169 -0.942308 0
M  V30 1144 H 100.004 0.605594 -0.288959 0
M  V30 1145 H 102.548 1.47777 -1.41358 0
M  V30 1146 H 100.703 3.82623 -0.606491 0
M  V30 1147 H 101.117 4.4846 -2.72 0
M  V30 1148 H 102.591 5.37439 -1.25952 0
M  V30 1149 H 103.068 4.3903 0.122078 0
M  V30 1150 H 103.674 3.98007 -1.49902 0
M  V30 1151 N 101.989 0.842826 1.3317 0
M  V30 1152 C 103.217 0.454055 2.01856 0
M  V30 1153 C 103.632 -0.94587 1.63397 0
M  V30 1154 O 102.989 -1.61534 0.849302 0
M  V30 1155 C 103.04 0.569715 3.56982 0
M  V30 1156 O 102.761 1.91448 3.94055 0
M  V30 1157 C 104.262 0.178412 4.42941 0
M  V30 1158 H 101.482 0.17979 0.646465 0
M  V30 1159 H 104.026 1.1365 1.70012 0
M  V30 1160 H 102.181 -0.0648587 3.87346 0
M  V30 1161 H 102.595 1.90282 4.88767 0
M  V30 1162 H 104.069 0.310376 5.51127 0
M  V30 1163 H 104.546 -0.880056 4.30293 0
M  V30 1164 H 105.152 0.787579 4.17944 0
M  V30 1165 N 103.467 -1.45747 0.599634 0
M  V30 1166 C 104.377 -2.34262 -0.125888 0
M  V30 1167 C 105.393 -1.50768 -0.868625 0
M  V30 1168 O 106.569 -1.83592 -0.828003 0
M  V30 1169 C 103.634 -3.28252 -1.11587 0
M  V30 1170 C 102.695 -4.27651 -0.375956 0
M  V30 1171 C 101.928 -5.1715 -1.31877 0
M  V30 1172 O 102.151 -5.09916 -2.55621 0
M  V30 1173 O 101.085 -5.96286 -0.820157 0
M  V30 1174 H 104.911 -2.97688 0.601315 0
M  V30 1175 H 102.496 -1.44999 0.359934 0
M  V30 1176 H 104.378 -3.86191 -1.68626 0
M  V30 1177 H 103.053 -2.67401 -1.82424 0
M  V30 1178 H 101.96 -3.7335 0.236698 0
M  V30 1179 H 103.293 -4.91334 0.29177 0
M  V30 1180 N 104.945 -0.338344 -1.53925 0
M  V30 1181 C 106.222 0.314774 -1.93051 0
M  V30 1182 C 106.602 1.68669 -1.26941 0
M  V30 1183 O 105.95 2.24636 -0.418445 0
M  V30 1184 C 106.16 0.392249 -3.46789 0
M  V30 1185 C 107.508 0.645554 -4.19664 0
M  V30 1186 O 108.532 0.474575 -3.53024 0
M  V30 1187 O 107.391 0.976408 -5.37707 0
M  V30 1188 H 104.485 0.182598 -0.80659 0
M  V30 1189 H 107.031 -0.389141 -1.65178 0
M  V30 1190 H 105.803 -0.570702 -3.87116 0
M  V30 1191 H 105.426 1.14316 -3.80812 0
M  V30 1192 N 106.423 1.57458 -0.0668435 0
M  V30 1193 C 107.333 2.15937 0.916975 0
M  V30 1194 C 108.349 1.12123 1.33058 0
M  V30 1195 O 109.525 1.44366 1.40429 0
M  V30 1196 C 106.59 2.70547 2.16807 0
M  V30 1197 C 105.651 3.89215 1.81135 0
M  V30 1198 C 104.884 4.41211 3.0028 0
M  V30 1199 O 105.107 3.92225 4.14144 0
M  V30 1200 O 104.041 5.32605 2.80384 0
M  V30 1201 H 107.867 3.00354 0.449561 0
M  V30 1202 H 105.452 1.48584 0.155949 0
M  V30 1203 H 107.334 3.0557 2.90181 0
M  V30 1204 H 106.009 1.89192 2.62656 0
M  V30 1205 H 104.916 3.59054 1.05028 0
M  V30 1206 H 106.249 4.71848 1.40073 0
M  V30 1207 N 107.901 -0.206675 1.56239 0
M  V30 1208 C 109.178 -0.954051 1.70755 0
M  V30 1209 C 109.558 -2.01841 0.618353 0
M  V30 1210 O 108.906 -2.25444 -0.372434 0
M  V30 1211 C 109.116 -1.551 3.12642 0
M  V30 1212 C 110.464 -2.03757 3.72516 0
M  V30 1213 O 111.488 -1.64965 3.15698 0
M  V30 1214 O 110.347 -2.75103 4.72208 0
M  V30 1215 H 107.441 -0.446636 0.696021 0
M  V30 1216 H 109.987 -0.197283 1.68549 0
M  V30 1217 H 108.759 -0.783212 3.83382 0
M  V30 1218 H 108.382 -2.37291 3.19028 0
M  V30 1219 N 109.379 -1.50304 -0.473955 0
M  V30 1220 C 110.289 -1.7174 -1.5982 0
M  V30 1221 C 111.305 -0.600457 -1.63311 0
M  V30 1222 O 112.481 -0.878441 -1.81233 0
M  V30 1223 C 109.546 -1.80427 -2.96052 0
M  V30 1224 C 108.607 -3.04148 -3.02972 0
M  V30 1225 C 107.84 -3.12411 -4.32706 0
M  V30 1226 O 108.063 -2.27542 -5.23049 0
M  V30 1227 O 106.997 -4.05113 -4.45159 0
M  V30 1228 H 110.823 -2.67035 -1.44657 0
M  V30 1229 H 108.408 -1.34366 -0.653148 0
M  V30 1230 H 110.29 -1.88338 -3.7697 0
M  V30 1231 H 108.965 -0.883156 -3.11419 0
M  V30 1232 H 107.872 -3.0174 -2.21142 0
M  V30 1233 H 109.205 -3.95829 -2.92541 0
M  V30 1234 N 110.857 0.726932 -1.39834 0
M  V30 1235 C 112.134 1.47902 -1.28001 0
M  V30 1236 C 112.514 2.1083 0.106789 0
M  V30 1237 O 111.862 1.99242 1.11869 0
M  V30 1238 C 112.072 2.52392 -2.41038 0
M  V30 1239 C 113.42 3.18546 -2.80737 0
M  V30 1240 O 114.444 2.62708 -2.40547 0
M  V30 1241 O 113.303 4.19604 -3.50135 0
M  V30 1242 H 110.397 0.657163 -0.502062 0
M  V30 1243 H 112.943 0.760071 -1.51727 0
M  V30 1244 H 111.715 2.04329 -3.33715 0
M  V30 1245 H 111.338 3.31837 -2.19021 0
M  V30 1246 N 112.336 1.25143 0.95797 0
M  V30 1247 C 113.246 1.06968 2.08794 0
M  V30 1248 C 114.262 0.00773911 1.73998 0
M  V30 1249 O 115.438 0.207972 2.00323 0
M  V30 1250 C 112.503 0.68691 3.39827 0
M  V30 1251 C 111.564 1.82641 3.88511 0
M  V30 1252 C 110.797 1.46181 5.1329 0
M  V30 1253 O 111.02 0.355971 5.69288 0
M  V30 1254 O 109.954 2.29085 5.566 0
M  V30 1255 H 113.78 2.01723 2.27027 0
M  V30 1256 H 111.365 1.04051 1.07209 0
M  V30 1257 H 113.247 0.485417 4.18595 0
M  V30 1258 H 111.922 -0.231417 3.22872 0
M  V30 1259 H 110.829 2.08274 3.10762 0
M  V30 1260 H 112.162 2.72386 4.09959 0
M  V30 1261 N 113.814 -1.1601 1.06675 0
M  V30 1262 C 115.091 -1.82679 0.699114 0
M  V30 1263 C 115.471 -1.94559 -0.819137 0
M  V30 1264 O 114.819 -1.49169 -1.73092 0
M  V30 1265 C 115.029 -3.19445 1.40555 0
M  V30 1266 C 116.377 -3.95171 1.55323 0
M  V30 1267 O 117.401 -3.28976 1.36577 0
M  V30 1268 O 116.26 -5.13833 1.86112 0
M  V30 1269 H 113.354 -0.788954 0.247951 0
M  V30 1270 H 115.9 -1.23179 1.16726 0
M  V30 1271 H 114.672 -3.05856 2.44065 0
M  V30 1272 H 114.295 -3.86625 0.927733 0
M  V30 1273 N 115.292 -0.849877 -1.32721 0
M  V30 1274 C 116.202 -0.293791 -2.32753 0
M  V30 1275 C 117.218 0.585906 -1.63839 0
M  V30 1276 O 118.394 0.487413 -1.95413 0
M  V30 1277 C 115.459 0.512752 -3.42887 0
M  V30 1278 C 114.52 -0.39252 -4.27502 0
M  V30 1279 C 113.753 0.375625 -5.32377 0
M  V30 1280 O 113.976 1.60613 -5.4732 0
M  V30 1281 O 112.91 -0.256094 -6.01355 0
M  V30 1282 H 116.736 -1.12242 -2.82197 0
M  V30 1283 H 114.321 -0.612685 -1.36259 0
M  V30 1284 H 116.203 0.970704 -4.10067 0
M  V30 1285 H 114.878 1.31826 -2.95641 0
M  V30 1286 H 113.785 -0.898547 -3.63149 0
M  V30 1287 H 115.118 -1.16309 -4.7826 0
M  V30 1288 N 116.77 1.45427 -0.607355 0
M  V30 1289 C 117.68 2.34325 0.113463 0
M  V30 1290 C 118.696 1.51226 0.860617 0
M  V30 1291 O 119.872 1.84029 0.818255 0
M  V30 1292 C 116.937 3.28839 1.09844 0
M  V30 1293 C 115.998 4.27844 0.353271 0
M  V30 1294 C 115.231 5.17842 1.29133 0
M  V30 1295 O 115.454 5.11264 2.52913 0
M  V30 1296 O 114.388 5.96713 0.788523 0
M  V30 1297 H 118.214 2.97364 -0.617094 0
M  V30 1298 H 115.799 1.44807 -0.367619 0
M  V30 1299 H 117.681 3.8708 1.66575 0
M  V30 1300 H 116.356 2.68365 1.81003 0
M  V30 1301 H 115.263 3.7322 -0.256494 0
M  V30 1302 H 116.596 4.91173 -0.317822 0
M  V30 1303 N 118.248 0.346503 1.53744 0
M  V30 1304 C 119.495 -0.249104 2.00962 0
M  V30 1305 C 119.823 -1.5032 1.23426 0
M  V30 1306 O 119.078 -1.93217 0.310761 0
M  V30 1307 C 119.377 -0.605809 3.52228 0
M  V30 1308 C 119.043 0.551747 4.47512 0
M  V30 1309 C 117.705 0.86941 4.73281 0
M  V30 1310 C 120.057 1.32818 5.03993 0
M  V30 1311 C 117.385 1.96582 5.52786 0
M  V30 1312 C 119.737 2.41486 5.84694 0
M  V30 1313 C 118.401 2.73808 6.08757 0
M  V30 1314 H 117.671 -0.0911538 0.735372 0
M  V30 1315 H 120.318 0.475027 1.85515 0
M  V30 1316 H 118.623 -1.4107 3.65522 0
M  V30 1317 H 120.32 -1.07858 3.86222 0
M  V30 1318 H 116.91 0.294102 4.2759 0
M  V30 1319 H 121.094 1.09602 4.84047 0
M  V30 1320 H 116.35 2.22045 5.69654 0
M  V30 1321 H 120.524 3.02078 6.27473 0
M  V30 1322 H 118.151 3.58892 6.7015 0
M  V30 1323 N 119.726 -1.57421 0.075193 0
M  V30 1324 C 120.658 -2.09904 -0.920483 0
M  V30 1325 C 121.671 -1.03191 -1.25918 0
M  V30 1326 O 122.86 -1.30695 -1.21577 0
M  V30 1327 C 119.96 -2.54726 -2.23534 0
M  V30 1328 C 119.133 -3.8505 -2.07498 0
M  V30 1329 C 118.192 -4.15929 -3.22319 0
M  V30 1330 O 117.218 -4.85474 -2.9716 0
M  V30 1331 N 118.42 -3.69745 -4.47514 0
M  V30 1332 H 121.185 -2.95954 -0.472359 0
M  V30 1333 H 118.746 -1.61523 -0.110444 0
M  V30 1334 H 120.738 -2.72443 -2.9926 0
M  V30 1335 H 119.308 -1.73795 -2.59835 0
M  V30 1336 H 118.528 -3.76679 -1.16219 0
M  V30 1337 H 119.816 -4.70348 -1.94038 0
M  V30 1338 H 119.214 -3.13569 -4.7084 0
M  V30 1339 H 117.771 -3.92655 -5.20255 0
M  V30 1340 N 121.204 0.198386 -1.56346 0
M  V30 1341 C 122.615 0.763358 -1.70381 0
M  V30 1342 C 122.966 1.83995 -0.681203 0
M  V30 1343 O 122.091 2.15785 0.16305 0
M  V30 1344 C 122.686 1.39143 -3.08909 0
M  V30 1345 C 121.245 1.90352 -3.2472 0
M  V30 1346 C 120.392 0.772233 -2.6633 0
M  V30 1347 H 123.343 -0.0266377 -1.58678 0
M  V30 1348 H 123.364 2.26076 -3.06055 0
M  V30 1349 H 122.876 0.607638 -3.83314 0
M  V30 1350 H 120.977 2.71461 -2.55225 0
M  V30 1351 H 121.09 2.06757 -4.3219 0
M  V30 1352 H 119.454 1.18566 -2.2542 0
M  V30 1353 H 120.237 0.00073556 -3.433 0
M  V30 1354 N 122.682 1.50554 0.465978 0
M  V30 1355 C 123.907 1.65838 1.24549 0
M  V30 1356 C 124.332 0.343486 1.84937 0
M  V30 1357 O 123.69 -0.69324 1.67523 0
M  V30 1358 C 123.738 2.75533 2.32624 0
M  V30 1359 O 122.842 2.37142 3.37398 0
M  V30 1360 H 122.183 0.553893 0.366194 0
M  V30 1361 H 124.713 1.96959 0.553927 0
M  V30 1362 H 124.723 2.98763 2.77857 0
M  V30 1363 H 123.398 3.70962 1.88043 0
M  V30 1364 H 121.975 2.24377 2.97841 0
M  V30 1365 N 124.16 -0.719506 1.40217 0
M  V30 1366 C 125.092 -1.84428 1.36084 0
M  V30 1367 C 126.105 -1.60597 0.266913 0
M  V30 1368 O 127.294 -1.70544 0.526983 0
M  V30 1369 C 124.394 -3.20757 1.094 0
M  V30 1370 C 123.567 -3.71817 2.30372 0
M  V30 1371 C 122.626 -4.86748 1.99907 0
M  V30 1372 O 121.652 -4.99603 2.72737 0
M  V30 1373 N 122.854 -5.7226 0.974635 0
M  V30 1374 H 125.619 -1.88473 2.33019 0
M  V30 1375 H 123.18 -0.900885 1.3452 0
M  V30 1376 H 125.172 -3.95235 0.870116 0
M  V30 1377 H 123.742 -3.11884 0.211452 0
M  V30 1378 H 122.962 -2.88514 2.68614 0
M  V30 1379 H 124.25 -4.02666 3.11026 0
M  V30 1380 H 123.648 -5.6448 0.371368 0
M  V30 1381 H 122.205 -6.46739 0.810656 0
M  V30 1382 N 125.638 -1.25649 -0.95132 0
M  V30 1383 C 126.568 -1.08808 -2.06599 0
M  V30 1384 C 127.549 0.00382547 -1.701 0
M  V30 1385 O 128.734 -0.166325 -1.93486 0
M  V30 1386 C 125.864 -0.709542 -3.39975 0
M  V30 1387 C 124.818 -1.75206 -3.90496 0
M  V30 1388 C 124.144 -1.22811 -5.20405 0
M  V30 1389 C 125.444 -3.15153 -4.16504 0
M  V30 1390 H 127.138 -2.02048 -2.20946 0
M  V30 1391 H 124.684 -0.972835 -1.06169 0
M  V30 1392 H 126.637 -0.578649 -4.17408 0
M  V30 1393 H 125.361 0.258556 -3.25575 0
M  V30 1394 H 124.02 -1.87145 -3.15234 0
M  V30 1395 H 123.668 -0.250145 -5.02378 0
M  V30 1396 H 123.368 -1.92492 -5.55176 0
M  V30 1397 H 124.892 -1.10968 -6.00432 0
M  V30 1398 H 126.306 -3.06349 -4.84586 0
M  V30 1399 H 124.703 -3.82333 -4.62538 0
M  V30 1400 H 125.773 -3.61966 -3.22658 0
M  V30 1401 N 127.117 1.15442 -1.07289 0
M  V30 1402 C 128.364 1.86213 -0.795668 0
M  V30 1403 C 128.692 1.82291 0.678238 0
M  V30 1404 O 127.947 1.24057 1.51355 0
M  V30 1405 C 128.246 3.3489 -1.24834 0
M  V30 1406 C 127.912 3.59007 -2.72809 0
M  V30 1407 C 126.574 3.65298 -3.13227 0
M  V30 1408 C 128.926 3.68762 -3.68326 0
M  V30 1409 C 126.254 3.78854 -4.4798 0
M  V30 1410 C 128.606 3.83842 -5.0284 0
M  V30 1411 C 127.27 3.88378 -5.4288 0
M  V30 1412 H 126.54 0.681403 -0.291155 0
M  V30 1413 H 129.187 1.36435 -1.34379 0
M  V30 1414 H 127.492 3.8687 -0.619595 0
M  V30 1415 H 129.189 3.88052 -1.01076 0
M  V30 1416 H 125.779 3.5475 -2.40521 0
M  V30 1417 H 129.963 3.63202 -3.38227 0
M  V30 1418 H 125.219 3.80623 -4.78472 0
M  V30 1419 H 129.393 3.90332 -5.76727 0
M  V30 1420 H 127.02 3.98635 -6.47298 0
M  V30 1421 N 128.595 0.856903 1.32268 0
M  V30 1422 C 129.872 0.382583 1.91822 0
M  V30 1423 C 130.252 -1.13407 1.78051 0
M  V30 1424 O 129.6 -1.95673 1.18001 0
M  V30 1425 C 129.81 0.849446 3.38505 0
M  V30 1426 C 131.158 0.867936 4.15634 0
M  V30 1427 O 132.182 0.794232 3.47232 0
M  V30 1428 O 131.041 0.972286 5.37781 0
M  V30 1429 H 128.135 0.112014 0.819379 0
M  V30 1430 H 130.681 0.943952 1.41024 0
M  V30 1431 H 129.453 1.89267 3.42482 0
M  V30 1432 H 129.076 0.265652 3.96712 0
M  V30 1433 N 130.073 -1.45103 0.615059 0
M  V30 1434 C 131.32 -2.02183 0.113179 0
M  V30 1435 C 131.648 -1.48249 -1.25906 0
M  V30 1436 O 130.903 -0.650265 -1.84581 0
M  V30 1437 C 131.202 -3.57386 0.0318797 0
M  V30 1438 C 130.868 -4.30505 1.34077 0
M  V30 1439 C 129.53 -4.50197 1.69929 0
M  V30 1440 C 131.882 -4.72238 2.20546 0
M  V30 1441 C 129.21 -5.08881 2.91988 0
M  V30 1442 C 131.562 -5.32272 3.41861 0
M  V30 1443 C 130.226 -5.50187 3.77956 0
M  V30 1444 H 129.496 -0.739842 0.0414151 0
M  V30 1445 H 132.143 -1.74073 0.798168 0
M  V30 1446 H 130.448 -3.84817 -0.736409 0
M  V30 1447 H 132.145 -3.99264 -0.372712 0
M  V30 1448 H 128.735 -4.15496 1.05173 0
M  V30 1449 H 132.919 -4.56751 1.94146 0
M  V30 1450 H 128.175 -5.20939 3.2005 0
M  V30 1451 H 132.349 -5.63563 4.09109 0
M  V30 1452 H 129.976 -5.95427 4.72622 0
M  V30 1453 N 131.551 -0.354651 -1.53558 0
M  V30 1454 C 132.828 0.294281 -1.93374 0
M  V30 1455 C 133.208 1.67313 -1.28723 0
M  V30 1456 O 132.556 2.24179 -0.442247 0
M  V30 1457 C 132.766 0.355445 -3.47185 0
M  V30 1458 C 134.114 0.601007 -4.20325 0
M  V30 1459 O 135.138 0.437106 -3.53508 0
M  V30 1460 O 133.997 0.919322 -5.38712 0
M  V30 1461 H 131.091 0.174033 -0.808481 0
M  V30 1462 H 133.637 -0.406638 -1.64756 0
M  V30 1463 H 132.409 -0.611729 -3.86489 0
M  V30 1464 H 132.032 1.1027 -3.82003 0
M  V30 1465 N 133.029 1.57378 -0.0835403 0
M  V30 1466 C 134.306 1.85363 0.624507 0
M  V30 1467 C 134.686 0.978239 1.87066 0
M  V30 1468 O 134.034 0.0475908 2.2845 0
M  V30 1469 C 134.244 3.35795 0.950947 0
M  V30 1470 C 135.592 4.03581 1.31939 0
M  V30 1471 O 136.616 3.40609 1.04232 0
M  V30 1472 O 135.475 5.14672 1.83779 0
M  V30 1473 H 132.569 0.766162 0.311329 0
M  V30 1474 H 135.115 1.69307 -0.115362 0
M  V30 1475 H 133.887 3.91244 0.0663899 0
M  V30 1476 H 133.51 3.57154 1.74719 0
M  V30 1477 N 134.507 -0.190092 1.56449 0
M  V30 1478 C 135.437 -1.23816 1.97969 0
M  V30 1479 C 136.418 -1.47201 0.852395 0
M  V30 1480 O 137.603 -1.58854 1.1171 0
M  V30 1481 C 134.733 -2.5813 2.3235 0
M  V30 1482 C 133.687 -2.49348 3.47864 0
M  V30 1483 C 133.013 -3.8798 3.67934 0
M  V30 1484 C 134.313 -2.01424 4.81898 0
M  V30 1485 H 136.007 -0.89311 2.85769 0
M  V30 1486 H 133.553 -0.428177 1.37487 0
M  V30 1487 H 135.506 -3.31637 2.59991 0
M  V30 1488 H 134.23 -2.94386 1.41438 0
M  V30 1489 H 132.889 -1.78297 3.20321 0
M  V30 1490 H 132.537 -4.21597 2.74344 0
M  V30 1491 H 132.237 -3.82978 4.45648 0
M  V30 1492 H 133.761 -4.63101 3.97957 0
M  V30 1493 H 135.175 -2.64693 5.08538 0
M  V30 1494 H 133.572 -2.07413 5.63116 0
M  V30 1495 H 134.642 -0.967677 4.75146 0
M  V30 1496 N 135.985 -1.50799 -0.457987 0
M  V30 1497 C 136.915 -1.73553 -1.5621 0
M  V30 1498 C 137.896 -0.584774 -1.59732 0
M  V30 1499 O 139.081 -0.825314 -1.7579 0
M  V30 1500 C 136.211 -1.84169 -2.94447 0
M  V30 1501 C 135.165 -2.99461 -3.0579 0
M  V30 1502 C 134.491 -2.95235 -4.45803 0
M  V30 1503 C 135.791 -4.39766 -2.81786 0
M  V30 1504 H 137.485 -2.66 -1.37421 0
M  V30 1505 H 135.031 -1.28002 -0.659662 0
M  V30 1506 H 136.984 -1.98672 -3.71628 0
M  V30 1507 H 135.708 -0.883545 -3.14422 0
M  V30 1508 H 134.367 -2.8463 -2.31044 0
M  V30 1509 H 134.015 -1.97239 -4.62715 0
M  V30 1510 H 133.715 -3.72642 -4.54326 0
M  V30 1511 H 135.239 -3.11803 -5.24987 0
M  V30 1512 H 136.653 -4.55054 -3.4871 0
M  V30 1513 H 135.05 -5.18722 -3.0174 0
M  V30 1514 H 136.12 -4.51229 -1.7754 0
M  V30 1515 N 137.463 0.71206 -1.40597 0
M  V30 1516 C 138.41 1.82613 -1.41142 0
M  V30 1517 C 139.38 1.63925 -0.267903 0
M  V30 1518 O 140.565 1.85009 -0.466495 0
M  V30 1519 C 137.705 3.20354 -1.28324 0
M  V30 1520 C 136.818 3.50589 -2.52411 0
M  V30 1521 C 135.953 4.77855 -2.32009 0
M  V30 1522 C 134.992 5.01005 -3.51654 0
M  V30 1523 N 134.129 6.19487 -3.30425 0
M  V30 1524 H 138.969 1.81482 -2.36365 0
M  V30 1525 H 136.506 0.886475 -1.17388 0
M  V30 1526 H 138.464 3.99899 -1.18899 0
M  V30 1527 H 137.094 3.20705 -0.367189 0
M  V30 1528 H 136.146 2.65573 -2.72351 0
M  V30 1529 H 137.458 3.63604 -3.41458 0
M  V30 1530 H 136.612 5.65424 -2.19956 0
M  V30 1531 H 135.351 4.67056 -1.40392 0
M  V30 1532 H 134.356 4.1189 -3.64179 0
M  V30 1533 H 135.581 5.13674 -4.44202 0
M  V30 1534 H 133.527 6.09932 -2.41494 0
M  V30 1535 H 133.444 6.33194 -4.13039 0
M  V30 1536 H 134.712 7.09834 -3.22113 0
M  V30 1537 N 138.941 1.26152 0.944643 0
M  V30 1538 C 140.188 1.11492 1.69044 0
M  V30 1539 C 140.516 -0.342366 1.91463 0
M  V30 1540 O 139.771 -1.26812 1.49054 0
M  V30 1541 C 140.07 1.82541 3.07268 0
M  V30 1542 C 139.736 3.32445 3.04616 0
M  V30 1543 C 138.398 3.73337 3.036 0
M  V30 1544 C 140.75 4.28171 2.97185 0
M  V30 1545 C 138.078 5.08348 2.92915 0
M  V30 1546 C 140.43 5.63218 2.88041 0
M  V30 1547 C 139.094 6.03426 2.85366 0
M  V30 1548 H 138.364 0.407977 0.618576 0
M  V30 1549 H 141.011 1.56551 1.10291 0
M  V30 1550 H 139.316 1.29941 3.69625 0
M  V30 1551 H 141.013 1.68642 3.63815 0
M  V30 1552 H 137.603 2.99915 3.06185 0
M  V30 1553 H 141.787 3.97563 2.97081 0
M  V30 1554 H 137.043 5.38667 2.89219 0
M  V30 1555 H 141.217 6.37078 2.81254 0
M  V30 1556 H 138.844 7.07999 2.76842 0
M  V30 1557 N 140.419 -1.14872 1.07899 0
M  V30 1558 C 141.696 -1.81928 0.71845 0
M  V30 1559 C 142.076 -1.95417 -0.798455 0
M  V30 1560 O 141.424 -1.50997 -1.715 0
M  V30 1561 C 141.634 -3.17937 1.43935 0
M  V30 1562 C 142.982 -3.93501 1.59506 0
M  V30 1563 O 144.006 -3.27509 1.40058 0
M  V30 1564 O 142.865 -5.1183 1.91551 0
M  V30 1565 H 139.959 -0.78628 0.256305 0
M  V30 1566 H 142.505 -1.21934 1.18026 0
M  V30 1567 H 141.277 -3.0325 2.47295 0
M  V30 1568 H 140.9 -3.85619 0.968687 0
M  V30 1569 N 141.898 -0.863906 -1.31812 0
M  V30 1570 C 143.175 -0.39275 -1.91616 0
M  V30 1571 C 143.555 1.12461 -1.7865 0
M  V30 1572 O 142.903 1.95045 -1.19037 0
M  V30 1573 C 143.113 -0.867385 -3.38049 0
M  V30 1574 C 144.461 -0.889966 -4.15168 0
M  V30 1575 O 145.485 -0.812635 -3.46806 0
M  V30 1576 O 144.344 -1.00079 -5.37258 0
M  V30 1577 H 141.438 -0.116358 -0.818773 0
M  V30 1578 H 143.984 -0.951418 -1.40521 0
M  V30 1579 H 142.756 -1.91081 -3.41473 0
M  V30 1580 H 142.379 -0.286687 -3.96565 0
M  V30 1581 N 143.376 1.44774 -0.622745 0
M  V30 1582 C 144.306 2.33382 0.0741861 0
M  V30 1583 C 145.287 1.47719 0.843387 0
M  V30 1584 O 146.472 1.76458 0.810934 0
M  V30 1585 C 143.602 3.30663 1.06204 0
M  V30 1586 C 142.556 4.26079 0.405037 0
M  V30 1587 C 141.882 5.13165 1.5022 0
M  V30 1588 C 143.182 5.1781 -0.683414 0
M  V30 1589 H 144.876 2.91905 -0.665713 0
M  V30 1590 H 142.422 1.40363 -0.321587 0
M  V30 1591 H 144.375 3.9153 1.55827 0
M  V30 1592 H 143.099 2.70331 1.83272 0
M  V30 1593 H 141.758 3.66532 -0.0704683 0
M  V30 1594 H 141.406 4.49191 2.26355 0
M  V30 1595 H 141.106 5.77812 1.06803 0
M  V30 1596 H 142.63 5.76902 2.00041 0
M  V30 1597 H 144.044 5.72661 -0.270631 0
M  V30 1598 H 142.441 5.91015 -1.04023 0
M  V30 1599 H 143.511 4.59326 -1.55395 0
M  V30 1600 N 144.854 0.36279 1.53368 0
M  V30 1601 C 146.131 -0.284021 1.93527 0
M  V30 1602 C 146.511 -1.66628 1.29608 0
M  V30 1603 O 145.859 -2.23942 0.45413 0
M  V30 1604 C 146.069 -0.337028 3.47369 0
M  V30 1605 C 147.417 -0.578708 4.20638 0
M  V30 1606 O 148.441 -0.418352 3.53735 0
M  V30 1607 O 147.3 -0.89074 5.39192 0
M  V30 1608 H 144.394 -0.169743 0.809393 0
M  V30 1609 H 146.94 0.41537 1.64538 0
M  V30 1610 H 145.712 0.632217 3.86159 0
M  V30 1611 H 145.335 -1.08243 3.82582 0
M  V30 1612 N 146.332 -1.57332 0.0918853 0
M  V30 1613 C 147.58 -1.93853 -0.571446 0
M  V30 1614 C 147.901 -0.974212 -1.6892 0
M  V30 1615 O 147.171 -0.0257254 -1.95883 0
M  V30 1616 H 145.751 -0.715666 -0.214082 0
M  V30 1617 H 148.413 -1.94287 0.154464 0
M  V30 1618 H 147.509 -2.96191 -0.983729 0
M  V30 1619 N 147.81 0.181792 -1.56548 0
M  V30 1620 C 149.038 0.915947 -1.85521 0
M  V30 1621 C 149.453 1.76282 -0.676016 0
M  V30 1622 O 148.81 1.79012 0.355077 0
M  V30 1623 C 148.861 1.80126 -3.13427 0
M  V30 1624 O 148.582 0.988562 -4.26801 0
M  V30 1625 C 150.083 2.64597 -3.55673 0
M  V30 1626 H 147.303 0.26661 -0.61576 0
M  V30 1627 H 149.847 0.185039 -2.03661 0
M  V30 1628 H 148.002 2.48563 -2.97145 0
M  V30 1629 H 148.416 1.59308 -4.99721 0
M  V30 1630 H 149.89 3.2235 -4.48101 0
M  V30 1631 H 150.367 3.38958 -2.79292 0
M  V30 1632 H 150.973 2.0151 -3.74532 0
M  V30 1633 N 149.288 1.51039 0.449983 0
M  V30 1634 C 150.238 1.67824 1.54335 0
M  V30 1635 C 151.222 0.5324 1.51836 0
M  V30 1636 O 152.414 0.787762 1.58503 0
M  V30 1637 C 149.543 1.7951 2.92628 0
M  V30 1638 C 148.629 2.99838 2.9993 0
M  V30 1639 N 149.02 4.23207 2.77001 0
M  V30 1640 C 147.318 2.98832 3.31082 0
M  V30 1641 C 148.019 5.04361 2.89818 0
M  V30 1642 N 146.995 4.38746 3.2094 0
M  V30 1643 H 150.797 2.60884 1.35339 0
M  V30 1644 H 148.311 1.48513 0.657085 0
M  V30 1645 H 150.308 1.89642 3.7127 0
M  V30 1646 H 148.968 0.876227 3.12654 0
M  V30 1647 H 149.979 4.5236 2.52172 0
M  V30 1648 H 146.656 2.16527 3.56963 0
M  V30 1649 H 148.046 6.12528 2.76151 0
M  V30 1650 N 150.766 -0.704594 1.40972 0
M  V30 1651 C 151.729 -1.80035 1.41845 0
M  V30 1652 C 152.729 -1.57774 0.310474 0
M  V30 1653 O 153.919 -1.64613 0.56992 0
M  V30 1654 C 151.051 -3.18284 1.22098 0
M  V30 1655 H 152.244 -1.80658 2.3938 0
M  V30 1656 H 149.797 -0.911329 1.26982 0
M  V30 1657 H 150.532 -3.23306 0.253672 0
M  V30 1658 H 150.317 -3.35843 2.02366 0
M  V30 1659 H 151.807 -3.98289 1.25522 0
M  V30 1660 N 152.244 -1.26651 -0.937939 0
M  V30 1661 C 153.174 -1.10993 -2.05433 0
M  V30 1662 C 154.155 -0.0142161 -1.70094 0
M  V30 1663 O 155.34 -0.186837 -1.93299 0
M  V30 1664 C 152.47 -0.745561 -3.39203 0
M  V30 1665 C 151.424 -1.79337 -3.88616 0
M  V30 1666 C 150.75 -1.28324 -5.19073 0
M  V30 1667 C 152.05 -3.19553 -4.13138 0
M  V30 1668 H 153.744 -2.0438 -2.1879 0
M  V30 1669 H 151.29 -0.984041 -1.05131 0
M  V30 1670 H 153.243 -0.622888 -4.16771 0
M  V30 1671 H 151.967 0.22401 -3.25831 0
M  V30 1672 H 150.626 -1.90477 -3.13231 0
M  V30 1673 H 150.274 -0.303414 -5.02084 0
M  V30 1674 H 149.974 -1.98369 -5.53103 0
M  V30 1675 H 151.498 -1.1733 -5.99221 0
M  V30 1676 H 152.912 -3.11471 -4.81309 0
M  V30 1677 H 151.309 -3.87218 -4.58457 0
M  V30 1678 H 152.379 -3.65368 -3.18801 0
M  V30 1679 N 153.722 1.14298 -1.08507 0
M  V30 1680 C 154.655 2.18447 -0.660004 0
M  V30 1681 C 155.633 1.59242 0.328749 0
M  V30 1682 O 156.817 1.87062 0.232367 0
M  V30 1683 C 153.944 3.38688 0.0290807 0
M  V30 1684 C 152.99 4.1646 -0.919982 0
M  V30 1685 S 153.823 4.77334 -2.42718 0
M  V30 1686 C 154.979 6.00931 -1.75024 0
M  V30 1687 H 155.212 2.54166 -1.54231 0
M  V30 1688 H 152.745 1.25446 -0.900149 0
M  V30 1689 H 154.703 4.08342 0.420378 0
M  V30 1690 H 153.364 3.01289 0.887895 0
M  V30 1691 H 152.557 5.02529 -0.384751 0
M  V30 1692 H 152.159 3.52414 -1.25223 0
M  V30 1693 H 154.451 6.69017 -1.06877 0
M  V30 1694 H 155.394 6.59044 -2.58971 0
M  V30 1695 H 155.802 5.51089 -1.22317 0
M  V30 1696 N 155.201 0.870884 1.31352 0
M  V30 1697 C 156.447 0.482987 1.96965 0
M  V30 1698 C 156.78 -0.962462 1.68672 0
M  V30 1699 O 156.055 -1.6779 0.98371 0
M  V30 1700 C 156.338 0.741752 3.52378 0
M  V30 1701 C 156.191 2.2368 3.9024 0
M  V30 1702 C 157.51 0.208838 4.39604 0
M  V30 1703 H 154.629 0.176955 0.715441 0
M  V30 1704 H 157.271 1.09229 1.55464 0
M  V30 1705 H 155.421 0.223149 3.87859 0
M  V30 1706 H 157.093 2.82273 3.64856 0
M  V30 1707 H 155.336 2.70901 3.38814 0
M  V30 1708 H 156.007 2.3685 4.98604 0
M  V30 1709 H 158.483 0.652529 4.10952 0
M  V30 1710 H 157.359 0.419336 5.47296 0
M  V30 1711 H 157.62 -0.889275 4.33064 0
M  V30 1712 N 156.679 -1.44442 0.630414 0
M  V30 1713 C 157.927 -2.01653 0.134351 0
M  V30 1714 C 158.248 -1.49836 -1.24796 0
M  V30 1715 O 157.518 -0.701684 -1.82902 0
M  V30 1716 H 156.098 -0.74554 0.0466769 0
M  V30 1717 H 158.76 -1.76952 0.816955 0
M  V30 1718 H 157.856 -3.11935 0.101498 0
M  V30 1719 N 158.157 -0.370918 -1.53173 0
M  V30 1720 C 159.087 0.464847 -2.28826 0
M  V30 1721 C 160.068 1.07936 -1.31468 0
M  V30 1722 O 161.253 1.0956 -1.60344 0
M  V30 1723 C 158.383 1.60196 -3.08147 0
M  V30 1724 C 157.337 1.11443 -4.13237 0
M  V30 1725 C 156.663 2.3422 -4.80672 0
M  V30 1726 C 157.963 0.195384 -5.21934 0
M  V30 1727 H 159.657 -0.166329 -2.98938 0
M  V30 1728 H 157.203 -0.0814359 -1.4377 0
M  V30 1729 H 159.156 2.19332 -3.59822 0
M  V30 1730 H 157.88 2.26045 -2.35735 0
M  V30 1731 H 156.539 0.545727 -3.62515 0
M  V30 1732 H 156.187 2.98537 -4.04827 0
M  V30 1733 H 155.887 2.02269 -5.51689 0
M  V30 1734 H 157.411 2.94032 -5.35143 0
M  V30 1735 H 158.825 0.694375 -5.69079 0
M  V30 1736 H 157.222 -0.0335027 -6.00091 0
M  V30 1737 H 158.292 -0.760961 -4.78892 0
M  V30 1738 N 159.635 1.57281 -0.100228 0
M  V30 1739 C 160.875 1.96419 0.56558 0
M  V30 1740 C 161.239 0.981265 1.65031 0
M  V30 1741 O 162.44 1.26133 2.37369 0
M  V30 1742 C 160.711 3.39996 1.10171 0
M  V30 1743 S 162.27 4.01134 1.77867 0
M  V30 1744 H 159.088 0.68667 0.184406 0
M  V30 1745 H 161.69 1.94662 -0.180851 0
M  V30 1746 H 160.394 4.09296 0.300803 0
M  V30 1747 H 159.925 3.45361 1.88385 0
M  V30 1748 H 161.94 3.90358 3.06326 0
M  V30 1749 N 161.113 -0.173488 1.56642 0
M  V30 1750 C 162.043 -1.2171 1.99271 0
M  V30 1751 C 163.024 -1.46289 0.867959 0
M  V30 1752 O 164.209 -1.5766 1.13388 0
M  V30 1753 C 161.339 -2.55651 2.35074 0
M  V30 1754 C 160.293 -2.45645 3.50489 0
M  V30 1755 C 159.619 -3.84056 3.72028 0
M  V30 1756 C 160.919 -1.96302 4.84007 0
M  V30 1757 H 162.613 -0.86275 2.867 0
M  V30 1758 H 160.159 -0.413571 1.37933 0
M  V30 1759 H 162.112 -3.2886 2.63494 0
M  V30 1760 H 160.836 -2.92869 1.44552 0
M  V30 1761 H 159.495 -1.7489 3.22194 0
M  V30 1762 H 159.143 -4.18664 2.788 0
M  V30 1763 H 158.843 -3.7823 4.49684 0
M  V30 1764 H 160.367 -4.58854 4.02846 0
M  V30 1765 H 161.781 -2.59284 5.11317 0
M  V30 1766 H 160.178 -2.01429 5.65284 0
M  V30 1767 H 161.248 -0.917226 4.76146 0
M  V30 1768 N 162.591 -1.51276 -0.441967 0
M  V30 1769 C 163.539 -1.72823 -1.55676 0
M  V30 1770 C 164.533 -0.59445 -1.58627 0
M  V30 1771 O 165.739 -0.775715 -1.62427 0
M  V30 1772 H 162.114 -0.545983 -0.517113 0
M  V30 1773 H 164.085 -2.6628 -1.34675 0
M  V30 1774 C 162.834 -1.86619 -2.93375 0
M  V30 1775 H 162.157 -2.73264 -2.91834 0
M  V30 1776 H 163.597 -2.05709 -3.70756 0
M  V30 1777 C 162.056 -0.624842 -3.31055 0
M  V30 1778 O 162.586 0.222636 -4.01083 0
M  V30 1779 N 160.792 -0.470288 -2.86769 0
M  V30 1780 H 160.339 -1.161 -2.29953 0
M  V30 1781 H 160.297 0.359051 -3.12343 0
M  V30 1782 N 164.069 0.697108 -1.41344 0
M  V30 1783 C 164.999 1.82353 -1.45841 0
M  V30 1784 C 165.98 1.67115 -0.317247 0
M  V30 1785 O 167.165 1.86871 -0.528474 0
M  V30 1786 C 164.295 3.20476 -1.33838 0
M  V30 1787 C 163.249 3.50415 -2.4575 0
M  V30 1788 C 162.575 4.87878 -2.18813 0
M  V30 1789 C 163.875 3.49546 -3.88091 0
M  V30 1790 H 165.569 1.78846 -2.40113 0
M  V30 1791 H 163.115 0.859028 -1.15571 0
M  V30 1792 H 165.068 3.98988 -1.35596 0
M  V30 1793 H 163.792 3.24604 -0.360498 0
M  V30 1794 H 162.451 2.74253 -2.43271 0
M  V30 1795 H 162.099 4.8863 -1.19371 0
M  V30 1796 H 161.799 5.08875 -2.93803 0
M  V30 1797 H 163.323 5.68702 -2.22284 0
M  V30 1798 H 164.737 4.18066 -3.92293 0
M  V30 1799 H 163.134 3.82075 -4.62751 0
M  V30 1800 H 164.204 2.48552 -4.16353 0
M  V30 1801 N 165.547 1.27147 0.931209 0
M  V30 1802 C 166.963 1.04475 1.20653 0
M  V30 1803 C 167.163 -0.223885 2.00252 0
M  V30 1804 O 166.219 -0.930332 2.34736 0
M  V30 1805 C 167.532 2.28209 1.95809 0
M  V30 1806 C 169.08 2.33211 2.08762 0
M  V30 1807 C 169.555 3.56665 2.87323 0
M  V30 1808 N 171.046 3.57201 2.94892 0
M  V30 1809 C 171.781 4.49395 3.56134 0
M  V30 1810 N 171.277 5.51889 4.18796 0
M  V30 1811 N 173.07 4.37026 3.53504 0
M  V30 1812 H 165.221 2.08612 0.399333 0
M  V30 1813 H 167.484 0.917312 0.239253 0
M  V30 1814 H 167.19 3.20538 1.44736 0
M  V30 1815 H 167.064 2.33247 2.96438 0
M  V30 1816 H 169.451 1.41391 2.59023 0
M  V30 1817 H 169.532 2.32178 1.07364 0
M  V30 1818 H 169.176 4.4882 2.37746 0
M  V30 1819 H 169.106 3.54948 3.88998 0
M  V30 1820 H 171.597 2.83074 2.50354 0
M  V30 1821 H 171.91 6.18409 4.63454 0
M  V30 1822 H 170.255 5.55735 4.17353 0
M  V30 1823 H 173.446 3.56166 3.03749 0
M  V30 1824 H 173.619 5.09067 4.00942 0
M  V30 1825 N 167.025 -1.13721 1.09112 0
M  V30 1826 C 167.973 -2.21103 0.722219 0
M  V30 1827 C 168.967 -1.67147 -0.275374 0
M  V30 1828 O 170.173 -1.79477 -0.137176 0
M  V30 1829 H 166.548 -0.720445 0.215553 0
M  V30 1830 H 168.519 -2.49483 1.63709 0
M  V30 1831 C 167.268 -3.47352 0.15543 0
M  V30 1832 H 166.591 -3.89206 0.914246 0
M  V30 1833 H 168.031 -4.2395 -0.0647967 0
M  V30 1834 C 166.49 -3.1814 -1.10852 0
M  V30 1835 O 167.02 -3.36604 -2.19227 0
M  V30 1836 N 165.226 -2.72045 -1.02176 0
M  V30 1837 H 164.773 -2.57221 -0.139764 0
M  V30 1838 H 164.731 -2.52875 -1.8682 0
M  V30 1839 N 168.503 -0.877838 -1.30888 0
M  V30 1840 C 169.433 -0.35534 -2.3078 0
M  V30 1841 C 170.414 0.557994 -1.60687 0
M  V30 1842 O 171.599 0.473355 -1.88343 0
M  V30 1843 C 168.729 0.437221 -3.44537 0
M  V30 1844 C 167.683 -0.383715 -4.26276 0
M  V30 1845 C 167.009 0.535014 -5.32017 0
M  V30 1846 C 168.309 -1.62201 -4.96476 0
M  V30 1847 H 170.003 -1.19007 -2.74732 0
M  V30 1848 H 167.549 -0.573698 -1.32078 0
M  V30 1849 H 169.502 0.813334 -4.13477 0
M  V30 1850 H 168.226 1.30553 -2.99372 0
M  V30 1851 H 166.885 -0.741874 -3.59015 0
M  V30 1852 H 166.533 1.40083 -4.831 0
M  V30 1853 H 166.233 -0.0104211 -5.87599 0
M  V30 1854 H 167.757 0.907799 -6.03814 0
M  V30 1855 H 169.171 -1.31689 -5.5797 0
M  V30 1856 H 167.568 -2.10711 -5.61891 0
M  V30 1857 H 168.638 -2.37044 -4.23011 0
M  V30 1858 N 169.982 1.44106 -0.638065 0
M  V30 1859 C 171.393 1.85316 -0.226894 0
M  V30 1860 C 171.744 1.53399 1.22324 0
M  V30 1861 O 170.869 0.975463 1.93167 0
M  V30 1862 C 171.464 3.3637 -0.405013 0
M  V30 1863 C 170.023 3.76369 -0.0482902 0
M  V30 1864 C 169.17 2.67921 -0.715108 0
M  V30 1865 H 172.121 1.34474 -0.842764 0
M  V30 1866 H 172.142 3.7885 0.354 0
M  V30 1867 H 171.654 3.59569 -1.46053 0
M  V30 1868 H 169.755 3.58784 1.00522 0
M  V30 1869 H 169.868 4.76856 -0.463187 0
M  V30 1870 H 168.232 2.54259 -0.149753 0
M  V30 1871 H 169.015 2.93951 -1.77335 0
M  V30 1872 N 171.46 0.379036 1.52974 0
M  V30 1873 C 172.706 -0.199244 2.02422 0
M  V30 1874 C 173.061 -1.4532 1.26095 0
M  V30 1875 O 172.354 -1.88377 0.34996 0
M  V30 1876 C 172.548 -0.53096 3.53434 0
M  V30 1877 C 172.377 0.689298 4.44386 0
M  V30 1878 C 171.147 1.20546 4.9071 0
M  V30 1879 C 173.345 1.55856 4.90116 0
M  V30 1880 N 171.327 2.38434 5.65705 0
M  V30 1881 C 172.698 2.58396 5.63588 0
M  V30 1882 C 174.753 1.57986 4.7217 0
M  V30 1883 C 173.456 3.62939 6.21022 0
M  V30 1884 C 175.482 2.6143 5.30479 0
M  V30 1885 C 174.844 3.62693 6.03849 0
M  V30 1886 H 170.943 -0.0352671 0.781204 0
M  V30 1887 H 173.527 0.526614 1.87443 0
M  V30 1888 H 171.698 -1.22588 3.68547 0
M  V30 1889 H 173.43 -1.0955 3.89591 0
M  V30 1890 H 170.185 0.768022 4.67331 0
M  V30 1891 H 170.609 2.98055 6.07859 0
M  V30 1892 H 175.251 0.810475 4.14959 0
M  V30 1893 H 172.969 4.40751 6.77321 0
M  V30 1894 H 176.555 2.63949 5.18481 0
M  V30 1895 H 175.435 4.41424 6.48163 0
M  V30 1896 N 172.938 -1.57226 0.108567 0
M  V30 1897 C 174.185 -1.94833 -0.551943 0
M  V30 1898 C 174.513 -0.991204 -1.67348 0
M  V30 1899 O 173.768 -0.0131878 -1.95696 0
M  V30 1900 C 174.067 -3.38911 -1.13463 0
M  V30 1901 C 173.733 -4.50696 -0.135509 0
M  V30 1902 C 172.395 -4.80998 0.139252 0
M  V30 1903 C 174.747 -5.18333 0.545957 0
M  V30 1904 C 172.075 -5.76259 1.10194 0
M  V30 1905 C 174.427 -6.14627 1.49721 0
M  V30 1906 C 173.091 -6.43327 1.78006 0
M  V30 1907 H 172.361 -0.712944 -0.20197 0
M  V30 1908 H 175.008 -1.90582 0.18726 0
M  V30 1909 H 173.313 -3.39805 -1.95037 0
M  V30 1910 H 175.01 -3.65317 -1.65362 0
M  V30 1911 H 171.6 -4.27087 -0.359846 0
M  V30 1912 H 175.784 -4.95087 0.346842 0
M  V30 1913 H 171.04 -5.96804 1.32795 0
M  V30 1914 H 175.214 -6.66126 2.03099 0
M  V30 1915 H 172.841 -7.1695 2.52759 0
M  V30 1916 N 174.416 0.165178 -1.56732 0
M  V30 1917 C 175.693 0.908443 -1.73224 0
M  V30 1918 C 176.073 2.0013 -0.67165 0
M  V30 1919 O 175.421 2.26353 0.31253 0
M  V30 1920 C 175.631 1.46756 -3.16644 0
M  V30 1921 C 176.979 1.93809 -3.77787 0
M  V30 1922 O 178.003 1.56537 -3.1996 0
M  V30 1923 O 176.862 2.62486 -4.79336 0
M  V30 1924 H 173.956 0.428025 -0.707618 0
M  V30 1925 H 176.502 0.152526 -1.69013 0
M  V30 1926 H 175.274 0.68129 -3.85323 0
M  V30 1927 H 174.897 2.28749 -3.25207 0
M  V30 1928 N 175.894 1.51508 0.433938 0
M  V30 1929 C 176.804 1.75917 1.5521 0
M  V30 1930 C 177.82 0.643545 1.61662 0
M  V30 1931 O 178.996 0.926183 1.7884 0
M  V30 1932 C 176.061 1.88213 2.91164 0
M  V30 1933 C 175.122 3.12074 2.94802 0
M  V30 1934 C 174.355 3.23774 4.24271 0
M  V30 1935 O 174.578 2.4133 5.16833 0
M  V30 1936 O 173.512 4.16774 4.34262 0
M  V30 1937 H 177.338 2.70777 1.37527 0
M  V30 1938 H 174.923 1.36051 0.617293 0
M  V30 1939 H 176.805 1.98267 3.71845 0
M  V30 1940 H 175.48 0.965413 3.08968 0
M  V30 1941 H 174.387 3.07497 2.13065 0
M  V30 1942 H 175.72 4.03446 2.81943 0
M  V30 1943 N 177.372 -0.689602 1.41712 0
M  V30 1944 C 178.618 -1.45181 1.41599 0
M  V30 1945 C 178.951 -1.94181 0.0270081 0
M  V30 1946 O 178.226 -1.6993 -0.946265 0
M  V30 1947 C 178.509 -2.65945 2.42787 0
M  V30 1948 C 178.362 -2.22672 3.90816 0
M  V30 1949 C 179.681 -3.68149 2.41151 0
M  V30 1950 H 176.8 -0.526576 0.515642 0
M  V30 1951 H 179.442 -0.784947 1.73028 0
M  V30 1952 H 177.592 -3.2284 2.16116 0
M  V30 1953 H 179.264 -1.71058 4.28412 0
M  V30 1954 H 177.507 -1.54394 4.05395 0
M  V30 1955 H 178.178 -3.0935 4.57172 0
M  V30 1956 H 180.654 -3.2094 2.64834 0
M  V30 1957 H 179.53 -4.50248 3.13955 0
M  V30 1958 H 179.791 -4.18259 1.43221 0
M  V30 1959 N 178.85 -1.27639 -0.924453 0
M  V30 1960 C 180.127 -1.04887 -1.651 0
M  V30 1961 C 180.507 0.415327 -2.06974 0
M  V30 1962 O 179.855 1.39923 -1.80648 0
M  V30 1963 C 180.065 -2.01348 -2.85061 0
M  V30 1964 C 181.413 -2.30899 -3.56329 0
M  V30 1965 O 182.437 -1.99348 -2.95193 0
M  V30 1966 O 181.296 -2.84699 -4.66485 0
M  V30 1967 H 178.39 -0.400083 -0.723784 0
M  V30 1968 H 180.936 -1.38916 -0.974703 0
M  V30 1969 H 179.708 -3.0008 -2.51133 0
M  V30 1970 H 179.331 -1.679 -3.6041 0
M  V30 1971 N 180.328 1.1314 -1.09713 0
M  V30 1972 C 181.291 2.16831 -0.742751 0
M  V30 1973 C 182.291 1.59159 0.229129 0
M  V30 1974 O 183.481 1.74199 0.00693237 0
M  V30 1975 C 180.613 3.40756 -0.0989168 0
M  V30 1976 H 181.806 2.49695 -1.66109 0
M  V30 1977 H 179.359 1.2802 -0.896699 0
M  V30 1978 H 180.094 3.13485 0.830514 0
M  V30 1979 H 179.879 3.83888 -0.798265 0
M  V30 1980 H 181.369 4.17386 0.133524 0
M  V30 1981 N 181.806 0.884767 1.30421 0
M  V30 1982 C 182.754 0.340869 2.30089 0
M  V30 1983 C 183.748 -0.55201 1.60154 0
M  V30 1984 O 184.954 -0.436467 1.74628 0
M  V30 1985 H 181.329 0.0915739 0.746404 0
M  V30 1986 H 183.3 1.19513 2.73421 0
M  V30 1987 C 182.049 -0.429779 3.45034 0
M  V30 1988 H 181.372 0.248024 3.9903 0
M  V30 1989 H 182.812 -0.775445 4.16849 0
M  V30 1990 C 181.271 -1.62677 2.95022 0
M  V30 1991 O 181.801 -2.72614 2.95033 0
M  V30 1992 N 180.007 -1.46387 2.51036 0
M  V30 1993 H 179.554 -0.569506 2.51226 0
M  V30 1994 H 179.512 -2.26612 2.17932 0
M  V30 1995 N 183.284 -1.43765 0.645699 0
M  V30 1996 C 184.509 -2.06767 0.161883 0
M  V30 1997 C 184.934 -1.48034 -1.16049 0
M  V30 1998 O 184.292 -0.587369 -1.71522 0
M  V30 1999 C 184.34 -3.60519 0.0762003 0
M  V30 2000 O 183.444 -4.00982 -0.963721 0
M  V30 2001 H 182.785 -0.657675 0.091429 0
M  V30 2002 H 185.315 -1.84397 0.886499 0
M  V30 2003 H 185.325 -4.07853 -0.109604 0
M  V30 2004 H 184 -4.02646 1.04157 0
M  V30 2005 H 182.577 -3.65253 -0.751312 0
M  V30 2006 N 184.763 -0.387143 -1.52771 0
M  V30 2007 C 186.01 0.195735 -2.01552 0
M  V30 2008 C 186.338 1.46995 -1.27369 0
M  V30 2009 O 185.593 1.92325 -0.361879 0
M  V30 2010 C 185.892 0.512209 -3.53711 0
M  V30 2011 C 185.558 -0.670202 -4.45891 0
M  V30 2012 C 184.22 -0.994586 -4.70809 0
M  V30 2013 C 186.572 -1.46134 -5.00294 0
M  V30 2014 C 183.9 -2.11169 -5.4738 0
M  V30 2015 C 186.252 -2.56903 -5.78086 0
M  V30 2016 C 184.916 -2.89852 -6.01284 0
M  V30 2017 H 184.186 0.0716246 -0.73753 0
M  V30 2018 H 186.833 -0.524046 -1.8419 0
M  V30 2019 H 185.138 1.31329 -3.69134 0
M  V30 2020 H 186.835 0.975804 -3.88946 0
M  V30 2021 H 183.425 -0.407366 -4.2666 0
M  V30 2022 H 187.609 -1.22397 -4.80971 0
M  V30 2023 H 182.865 -2.3707 -5.63567 0
M  V30 2024 H 187.039 -3.18608 -6.19243 0
M  V30 2025 H 184.666 -3.76533 -6.60399 0
M  V30 2026 N 186.241 1.57166 -0.116904 0
M  V30 2027 C 187.488 1.95123 0.541603 0
M  V30 2028 C 187.816 1.00006 1.6682 0
M  V30 2029 O 187.071 0.0235658 1.95686 0
M  V30 2030 C 187.37 3.39508 1.11664 0
M  V30 2031 C 187.036 4.50762 0.111606 0
M  V30 2032 C 185.698 4.80918 -0.164758 0
M  V30 2033 C 188.05 5.18036 -0.573438 0
M  V30 2034 C 185.378 5.75666 -1.13249 0
M  V30 2035 C 187.73 6.13824 -1.52978 0
M  V30 2036 C 186.394 6.42374 -1.81415 0
M  V30 2037 H 185.664 0.714005 0.198187 0
M  V30 2038 H 188.311 1.9048 -0.197365 0
M  V30 2039 H 186.616 3.40835 1.93232 0
M  V30 2040 H 188.313 3.66189 1.63422 0
M  V30 2041 H 184.903 4.27272 0.337192 0
M  V30 2042 H 189.087 4.94896 -0.373092 0
M  V30 2043 H 184.343 5.96092 -1.35958 0
M  V30 2044 H 188.517 6.65039 -2.06629 0
M  V30 2045 H 186.144 7.15599 -2.56557 0
M  V30 2046 N 187.719 -0.156864 1.56817 0
M  V30 2047 C 189.13 -0.717916 1.72345 0
M  V30 2048 C 189.481 -1.82124 0.729747 0
M  V30 2049 O 188.606 -2.16141 -0.105781 0
M  V30 2050 C 189.201 -1.30904 3.12489 0
M  V30 2051 C 187.76 -1.81676 3.29653 0
M  V30 2052 C 186.907 -0.701349 2.68284 0
M  V30 2053 H 189.858 0.0686989 1.58551 0
M  V30 2054 H 189.879 -2.17882 3.11942 0
M  V30 2055 H 189.391 -0.505796 3.8479 0
M  V30 2056 H 187.492 -2.64598 2.62333 0
M  V30 2057 H 187.605 -1.95226 4.3752 0
M  V30 2058 H 185.969 -1.12548 2.28484 0
M  V30 2059 H 186.752 0.0902846 3.43181 0
M  V30 2060 N 189.197 -1.51736 -0.425897 0
M  V30 2061 C 190.613 -1.40166 -0.76326 0
M  V30 2062 C 190.813 -0.492962 -1.95377 0
M  V30 2063 O 189.869 0.0475815 -2.52455 0
M  V30 2064 C 191.182 -2.82403 -1.03291 0
M  V30 2065 C 192.73 -2.91632 -1.13665 0
M  V30 2066 C 193.205 -4.34801 -1.43916 0
M  V30 2067 N 194.696 -4.3796 -1.50816 0
M  V30 2068 C 195.431 -5.4578 -1.75817 0
M  V30 2069 N 194.927 -6.63744 -1.98534 0
M  V30 2070 N 196.72 -5.33274 -1.77694 0
M  V30 2071 H 188.871 -2.09361 0.358 0
M  V30 2072 H 191.134 -0.942941 0.0978094 0
M  V30 2073 H 190.84 -3.50943 -0.230696 0
M  V30 2074 H 190.714 -3.22428 -1.95754 0
M  V30 2075 H 193.101 -2.23284 -1.92947 0
M  V30 2076 H 193.182 -2.55088 -0.190756 0
M  V30 2077 H 192.826 -5.03703 -0.65157 0
M  V30 2078 H 192.756 -4.68868 -2.39729 0
M  V30 2079 H 195.247 -3.52919 -1.35118 0
M  V30 2080 H 195.56 -7.41704 -2.17013 0
M  V30 2081 H 193.905 -6.66839 -1.95832 0
M  V30 2082 H 197.096 -4.40098 -1.59473 0
M  V30 2083 H 197.269 -6.1738 -1.9684 0
M  V30 2084 N 190.675 0.682077 -1.42076 0
M  V30 2085 C 191.915 1.45424 -1.43636 0
M  V30 2086 C 192.279 1.91939 -0.0484001 0
M  V30 2087 O 193.48 2.6873 0.0612514 0
M  V30 2088 C 191.751 2.62427 -2.42625 0
M  V30 2089 S 193.31 3.51379 -2.62827 0
M  V30 2090 H 190.128 0.496779 -0.508657 0
M  V30 2091 H 192.73 0.794645 -1.78621 0
M  V30 2092 H 191.434 2.26481 -3.42249 0
M  V30 2093 H 190.965 3.33266 -2.09039 0
M  V30 2094 H 192.98 4.58141 -1.9058 0
M  V30 2095 N 192.153 1.28127 0.917671 0
M  V30 2096 C 193.383 1.17722 1.6978 0
M  V30 2097 C 193.791 -0.267261 1.87303 0
M  V30 2098 O 193.134 -1.19286 1.39702 0
M  V30 2099 C 193.196 1.79958 3.11216 0
M  V30 2100 C 192.86 3.29187 3.16993 0
M  V30 2101 C 193.857 4.25679 2.98485 0
M  V30 2102 C 191.542 3.70075 3.39632 0
M  V30 2103 C 193.536 5.61035 3.02521 0
M  V30 2104 C 191.223 5.05557 3.433 0
M  V30 2105 C 192.221 6.00847 3.24764 0
M  V30 2106 O 191.909 7.33859 3.28187 0
M  V30 2107 H 191.641 0.409788 0.537634 0
M  V30 2108 H 194.195 1.69694 1.15728 0
M  V30 2109 H 192.425 1.22475 3.66793 0
M  V30 2110 H 194.114 1.64125 3.71238 0
M  V30 2111 H 194.88 3.95426 2.80826 0
M  V30 2112 H 190.759 2.96373 3.53106 0
M  V30 2113 H 194.303 6.35388 2.87971 0
M  V30 2114 H 190.2 5.35462 3.60486 0
M  V30 2115 H 190.968 7.42436 3.44575 0
M  V30 2116 N 193.631 -1.12557 1.10312 0
M  V30 2117 C 194.871 -1.8568 0.854543 0
M  V30 2118 C 195.235 -1.82091 -0.608843 0
M  V30 2119 O 196.436 -2.50544 -0.973717 0
M  V30 2120 C 194.707 -3.2942 1.38626 0
M  V30 2121 S 196.266 -4.19931 1.27293 0
M  V30 2122 H 193.084 -0.640427 0.308827 0
M  V30 2123 H 195.686 -1.35599 1.40831 0
M  V30 2124 H 194.39 -3.2959 2.44537 0
M  V30 2125 H 193.921 -3.84566 0.82902 0
M  V30 2126 H 195.936 -4.95668 0.229776 0
M  V30 2127 N 195.109 -0.891671 -1.2995 0
M  V30 2128 C 196.039 -0.379797 -2.30391 0
M  V30 2129 C 197.02 0.540919 -1.6127 0
M  V30 2130 O 198.205 0.453352 -1.88834 0
M  V30 2131 C 195.335 0.400654 -3.44981 0
M  V30 2132 C 194.289 -0.428905 -4.25846 0
M  V30 2133 C 193.615 0.478557 -5.32554 0
M  V30 2134 C 194.915 -1.67458 -4.94727 0
M  V30 2135 H 196.609 -1.21914 -2.73454 0
M  V30 2136 H 194.155 -0.587675 -1.31462 0
M  V30 2137 H 196.108 0.769434 -4.14316 0
M  V30 2138 H 194.832 1.27371 -3.0074 0
M  V30 2139 H 193.491 -0.779911 -3.58208 0
M  V30 2140 H 193.139 1.34951 -4.84559 0
M  V30 2141 H 192.839 -0.0727433 -5.87555 0
M  V30 2142 H 194.363 0.843705 -6.04743 0
M  V30 2143 H 195.777 -1.376 -5.56542 0
M  V30 2144 H 194.174 -2.16659 -5.59624 0
M  V30 2145 H 195.244 -2.41518 -4.20473 0
M  V30 2146 N 196.587 1.43421 -0.653314 0
M  V30 2147 C 197.835 2.01414 -0.166415 0
M  V30 2148 C 198.156 1.51803 1.22397 0
M  V30 2149 O 197.426 0.730693 1.81763 0
M  V30 2150 H 196.006 0.744703 -0.0585319 0
M  V30 2151 H 198.668 1.75629 -0.845003 0
M  V30 2152 H 197.764 3.11734 -0.151111 0
M  V30 2153 N 198.065 0.39524 1.52563 0
M  V30 2154 C 199.028 -0.425001 2.25225 0
M  V30 2155 C 200.028 -0.985266 1.27079 0
M  V30 2156 O 201.218 -0.866332 1.5113 0
M  V30 2157 C 198.35 -1.59686 3.01186 0
M  V30 2158 H 199.543 0.211233 2.99155 0
M  V30 2159 H 197.096 0.147472 1.55603 0
M  V30 2160 H 197.831 -2.27035 2.31572 0
M  V30 2161 H 197.616 -1.20176 3.73229 0
M  V30 2162 H 199.106 -2.17743 3.5634 0
M  V30 2163 N 199.544 -1.57102 0.125237 0
M  V30 2164 C 200.454 -2.19191 -0.8362 0
M  V30 2165 C 201.47 -1.16985 -1.28805 0
M  V30 2166 O 202.646 -1.49479 -1.34974 0
M  V30 2167 C 199.711 -2.78407 -2.06617 0
M  V30 2168 C 198.772 -3.9567 -1.66565 0
M  V30 2169 C 198.005 -4.52052 -2.83698 0
M  V30 2170 O 198.228 -4.07326 -3.99302 0
M  V30 2171 O 197.162 -5.42645 -2.60423 0
M  V30 2172 H 200.988 -3.01816 -0.337776 0
M  V30 2173 H 198.573 -1.4906 -0.100695 0
M  V30 2174 H 200.455 -3.16129 -2.7864 0
M  V30 2175 H 199.13 -1.9881 -2.55453 0
M  V30 2176 H 198.037 -3.62705 -0.916296 0
M  V30 2177 H 199.37 -4.76722 -1.22464 0
M  V30 2178 N 201.022 0.148545 -1.56898 0
M  V30 2179 C 202.299 0.890019 -1.74178 0
M  V30 2180 C 202.679 1.99407 -0.692839 0
M  V30 2181 O 202.027 2.26671 0.288505 0
M  V30 2182 C 202.237 1.43389 -3.18183 0
M  V30 2183 C 203.585 1.89791 -3.79822 0
M  V30 2184 O 204.609 1.53134 -3.21603 0
M  V30 2185 O 203.468 2.57387 -4.82093 0
M  V30 2186 H 200.562 0.420496 -0.712118 0
M  V30 2187 H 203.108 0.134591 -1.69165 0
M  V30 2188 H 201.88 0.640383 -3.86024 0
M  V30 2189 H 201.503 2.25287 -3.27615 0
M  V30 2190 N 202.5 1.5196 0.417844 0
M  V30 2191 C 203.777 1.56146 1.17803 0
M  V30 2192 C 204.157 0.337275 2.08388 0
M  V30 2193 O 203.505 -0.676447 2.18258 0
M  V30 2194 C 203.715 2.88566 1.96293 0
M  V30 2195 C 205.063 3.41244 2.52662 0
M  V30 2196 O 206.087 2.90247 2.06483 0
M  V30 2197 O 204.946 4.30273 3.36938 0
M  V30 2198 H 202.04 0.628598 0.537395 0
M  V30 2199 H 204.586 1.64283 0.425331 0
M  V30 2200 H 203.358 3.69116 1.2988 0
M  V30 2201 H 202.981 2.83681 2.78587 0
M  V30 2202 N 203.978 -0.674533 1.42435 0
M  V30 2203 C 204.925 -1.78807 1.45934 0
M  V30 2204 C 205.895 -1.63157 0.311271 0
M  V30 2205 O 207.08 -1.83707 0.515383 0
M  V30 2206 C 204.22 -3.16839 1.36773 0
M  V30 2207 C 203.333 -3.43774 2.61617 0
M  V30 2208 C 202.468 -4.71536 2.44597 0
M  V30 2209 C 201.507 -4.91505 3.64814 0
M  V30 2210 N 200.644 -6.10508 3.46734 0
M  V30 2211 H 205.484 -1.75151 2.41093 0
M  V30 2212 H 203.021 -0.85504 1.19697 0
M  V30 2213 H 204.979 -3.96606 1.29459 0
M  V30 2214 H 203.609 -3.19619 0.452089 0
M  V30 2215 H 202.661 -2.58259 2.79297 0
M  V30 2216 H 203.973 -3.54423 3.50978 0
M  V30 2217 H 203.127 -5.59393 2.3487 0
M  V30 2218 H 201.866 -4.6317 1.52726 0
M  V30 2219 H 200.871 -4.0209 3.74972 0
M  V30 2220 H 202.096 -5.01716 4.57665 0
M  V30 2221 H 200.042 -6.03315 2.5758 0
M  V30 2222 H 199.959 -6.2202 4.29682 0
M  V30 2223 H 201.227 -7.01044 3.40819 0
M  V30 2224 N 205.456 -1.28612 -0.910864 0
M  V30 2225 C 206.403 -1.12786 -2.01365 0
M  V30 2226 C 207.373 -0.024201 -1.66082 0
M  V30 2227 O 208.558 -0.189667 -1.89855 0
M  V30 2228 C 205.698 -0.798743 -3.35729 0
M  V30 2229 C 204.811 -1.98173 -3.83864 0
M  V30 2230 C 203.946 -1.59298 -5.06752 0
M  V30 2231 C 202.985 -2.74245 -5.47226 0
M  V30 2232 N 202.122 -2.35842 -6.61304 0
M  V30 2233 H 206.962 -2.07142 -2.14234 0
M  V30 2234 H 204.499 -1.03093 -1.0493 0
M  V30 2235 H 206.457 -0.588662 -4.13026 0
M  V30 2236 H 205.087 0.10789 -3.2262 0
M  V30 2237 H 204.139 -2.30386 -3.02699 0
M  V30 2238 H 205.451 -2.84343 -4.09818 0
M  V30 2239 H 204.605 -1.34513 -5.916 0
M  V30 2240 H 203.344 -0.702618 -4.82612 0
M  V30 2241 H 202.349 -2.99725 -4.60918 0
M  V30 2242 H 203.574 -3.63928 -5.73353 0
M  V30 2243 H 201.52 -1.49279 -6.38789 0
M  V30 2244 H 201.437 -3.15546 -6.86998 0
M  V30 2245 H 202.705 -2.14348 -7.4945 0
M  V30 2246 N 206.934 1.1197 -1.10907 0
M  V30 2247 C 207.897 2.16031 -0.765707 0
M  V30 2248 C 208.897 1.59393 0.212235 0
M  V30 2249 O 210.087 1.74196 -0.0115441 0
M  V30 2250 C 207.219 3.40632 -0.135053 0
M  V30 2251 H 208.412 2.47919 -1.68748 0
M  V30 2252 H 205.965 1.27061 -0.910226 0
M  V30 2253 H 206.7 3.14348 0.797218 0
M  V30 2254 H 206.485 3.8302 -0.838937 0
M  V30 2255 H 207.975 4.17505 0.0892469 0
M  V30 2256 N 208.412 0.89855 1.29475 0
M  V30 2257 C 209.659 0.523882 1.95606 0
M  V30 2258 C 209.987 -0.929608 1.70847 0
M  V30 2259 O 209.242 -1.67401 1.01367 0
M  V30 2260 C 209.541 0.761398 3.49195 0
M  V30 2261 C 209.207 2.19207 3.94029 0
M  V30 2262 C 207.869 2.58326 4.05982 0
M  V30 2263 C 210.221 3.12379 4.17216 0
M  V30 2264 C 207.549 3.898 4.38489 0
M  V30 2265 C 209.901 4.43401 4.51197 0
M  V30 2266 C 208.565 4.82394 4.61359 0
M  V30 2267 H 207.835 0.191702 0.715773 0
M  V30 2268 H 210.482 1.13699 1.54094 0
M  V30 2269 H 208.787 0.0653622 3.91745 0
M  V30 2270 H 210.484 0.450904 3.98457 0
M  V30 2271 H 207.074 1.87846 3.85242 0
M  V30 2272 H 211.258 2.83371 4.07449 0
M  V30 2273 H 206.514 4.19734 4.44559 0
M  V30 2274 H 210.688 5.15623 4.68087 0
M  V30 2275 H 208.315 5.84306 4.86303 0
M  V30 2276 N 209.89 -1.43072 0.660911 0
M  V30 2277 C 211.139 -2.00942 0.174735 0
M  V30 2278 C 211.452 -1.52797 -1.22117 0
M  V30 2279 O 212.658 -2.02991 -1.80297 0
M  V30 2280 C 211.114 -3.58948 0.261559 0
M  V30 2281 C 210.722 -4.16085 1.66064 0
M  V30 2282 C 212.466 -4.24173 -0.166617 0
M  V30 2283 C 210.373 -5.6641 1.70098 0
M  V30 2284 H 209.303 -0.751483 0.0615631 0
M  V30 2285 H 211.954 -1.63955 0.824069 0
M  V30 2286 H 210.336 -3.93372 -0.455421 0
M  V30 2287 H 211.51 -3.93147 2.40359 0
M  V30 2288 H 209.825 -3.6326 2.03546 0
M  V30 2289 H 212.422 -5.34471 -0.156433 0
M  V30 2290 H 212.765 -3.98647 -1.19943 0
M  V30 2291 H 213.298 -3.94659 0.498875 0
M  V30 2292 H 210.037 -5.96715 2.71315 0
M  V30 2293 H 209.557 -5.91382 1.00139 0
M  V30 2294 H 211.236 -6.30585 1.44816 0
M  V30 2295 N 211.368 -0.403325 -1.52352 0
M  V30 2296 C 212.278 0.432009 -2.30588 0
M  V30 2297 C 213.294 1.05884 -1.38075 0
M  V30 2298 O 214.47 1.06161 -1.71148 0
M  V30 2299 C 211.535 1.53669 -3.10784 0
M  V30 2300 C 210.596 0.933525 -4.19027 0
M  V30 2301 C 209.829 1.98557 -4.9539 0
M  V30 2302 O 210.052 3.20283 -4.71991 0
M  V30 2303 O 208.986 1.59504 -5.80381 0
M  V30 2304 H 212.812 -0.205739 -3.03002 0
M  V30 2305 H 210.397 -0.166675 -1.48467 0
M  V30 2306 H 212.279 2.17814 -3.60742 0
M  V30 2307 H 210.954 2.15915 -2.41169 0
M  V30 2308 H 209.861 0.254954 -3.7323 0
M  V30 2309 H 211.194 0.35508 -4.90918 0
M  V30 2310 N 212.846 1.57033 -0.133567 0
M  V30 2311 C 214.123 1.87256 0.56522 0
M  V30 2312 C 214.503 1.03726 1.83859 0
M  V30 2313 O 213.851 0.120247 2.28183 0
M  V30 2314 C 214.061 3.3865 0.843636 0
M  V30 2315 C 215.409 4.07574 1.19032 0
M  V30 2316 O 216.433 3.43752 0.933429 0
M  V30 2317 O 215.292 5.20259 1.67312 0
M  V30 2318 H 212.386 0.775678 0.286796 0
M  V30 2319 H 214.932 1.68855 -0.169168 0
M  V30 2320 H 213.704 3.91257 -0.0581149 0
M  V30 2321 H 213.327 3.62532 1.63268 0
M  V30 2322 N 214.325 -0.140222 1.56975 0
M  V30 2323 C 215.572 -0.851687 1.83719 0
M  V30 2324 C 215.9 -1.80862 0.715485 0
M  V30 2325 O 215.155 -1.93464 -0.294956 0
M  V30 2326 C 215.454 -1.65386 3.16832 0
M  V30 2327 C 215.12 -0.843112 4.42947 0
M  V30 2328 C 213.782 -0.619464 4.77196 0
M  V30 2329 C 216.134 -0.276582 5.20466 0
M  V30 2330 C 213.462 0.181312 5.8642 0
M  V30 2331 C 215.814 0.51127 6.30531 0
M  V30 2332 C 214.478 0.745432 6.63325 0
M  V30 2333 H 213.748 -0.311654 0.672274 0
M  V30 2334 H 216.395 -0.115006 1.91154 0
M  V30 2335 H 214.7 -2.46084 3.04877 0
M  V30 2336 H 216.397 -2.20793 3.34741 0
M  V30 2337 H 212.987 -1.0275 4.16101 0
M  V30 2338 H 217.171 -0.436632 4.94376 0
M  V30 2339 H 212.427 0.372165 6.10266 0
M  V30 2340 H 216.601 0.957354 6.89788 0
M  V30 2341 H 214.228 1.36778 7.47794 0
M  V30 2342 N 215.803 -1.52179 -0.40978 0
M  V30 2343 C 217.049 -1.67408 -1.15525 0
M  V30 2344 C 217.404 -0.398746 -1.88223 0
M  V30 2345 O 216.697 0.60678 -1.81738 0
M  V30 2346 C 216.891 -2.83428 -2.17723 0
M  V30 2347 C 216.72 -4.22121 -1.55061 0
M  V30 2348 C 215.49 -4.87657 -1.3236 0
M  V30 2349 C 217.688 -5.04248 -1.01185 0
M  V30 2350 N 215.67 -6.10387 -0.655834 0
M  V30 2351 C 217.041 -6.18209 -0.470963 0
M  V30 2352 C 219.096 -4.89583 -0.906252 0
M  V30 2353 C 217.799 -7.1911 0.165172 0
M  V30 2354 C 219.825 -5.90718 -0.28397 0
M  V30 2355 C 219.187 -7.03969 0.246243 0
M  V30 2356 H 215.286 -0.666251 -0.409431 0
M  V30 2357 H 217.87 -1.89482 -0.447729 0
M  V30 2358 H 216.041 -2.6297 -2.85834 0
M  V30 2359 H 217.773 -2.87697 -2.84627 0
M  V30 2360 H 214.528 -4.46007 -1.59294 0
M  V30 2361 H 214.952 -6.76153 -0.338596 0
M  V30 2362 H 219.594 -4.02253 -1.302 0
M  V30 2363 H 217.312 -8.06066 0.572986 0
M  V30 2364 H 220.898 -5.81443 -0.203792 0
M  V30 2365 H 219.778 -7.80886 0.720173 0
M  V30 2366 N 217.281 0.66697 -1.42791 0
M  V30 2367 C 218.211 1.79218 -1.49677 0
M  V30 2368 C 219.192 1.66405 -0.352623 0
M  V30 2369 O 220.377 1.85708 -0.567993 0
M  V30 2370 C 217.507 3.17565 -1.40605 0
M  V30 2371 C 216.461 3.45124 -2.53127 0
M  V30 2372 C 215.787 4.83127 -2.29112 0
M  V30 2373 C 217.087 3.41236 -3.95418 0
M  V30 2374 H 218.781 1.73713 -2.43853 0
M  V30 2375 H 216.327 0.83432 -1.17367 0
M  V30 2376 H 218.28 3.96022 -1.44029 0
M  V30 2377 H 217.004 3.23767 -0.429271 0
M  V30 2378 H 215.663 2.69031 -2.49034 0
M  V30 2379 H 215.311 4.85988 -1.29709 0
M  V30 2380 H 215.011 5.02528 -3.04531 0
M  V30 2381 H 216.535 5.63859 -2.34297 0
M  V30 2382 H 217.949 4.09651 -4.01073 0
M  V30 2383 H 216.346 3.72173 -4.70752 0
M  V30 2384 H 217.416 2.39665 -4.21532 0
M  V30 2385 N 218.759 1.29093 0.90403 0
M  V30 2386 C 219.987 1.19689 1.68766 0
M  V30 2387 C 220.402 -0.243113 1.87228 0
M  V30 2388 O 219.759 -1.16326 1.40621 0
M  V30 2389 C 219.81 1.90144 3.07453 0
M  V30 2390 O 219.531 3.2852 2.89838 0
M  V30 2391 C 221.032 1.87162 4.01852 0
M  V30 2392 H 218.252 0.415035 0.527244 0
M  V30 2393 H 220.796 1.7039 1.13082 0
M  V30 2394 H 218.951 1.43289 3.59926 0
M  V30 2395 H 219.365 3.63944 3.77684 0
M  V30 2396 H 220.839 2.41032 4.96596 0
M  V30 2397 H 221.316 0.84617 4.30972 0
M  V30 2398 H 221.922 2.33741 3.5531 0
M  V30 2399 N 220.237 -1.11381 1.11499 0
M  V30 2400 C 221.2 -2.15622 0.777153 0
M  V30 2401 C 222.2 -1.59504 -0.203779 0
M  V30 2402 O 223.39 -1.74188 0.020782 0
M  V30 2403 C 220.522 -3.40556 0.153116 0
M  V30 2404 H 221.715 -2.47021 1.70061 0
M  V30 2405 H 219.268 -1.26577 0.916952 0
M  V30 2406 H 220.003 -3.14767 -0.780536 0
M  V30 2407 H 219.788 -3.8257 0.859238 0
M  V30 2408 H 221.278 -4.17546 -0.0671044 0
M  V30 2409 N 221.715 -0.905404 -1.28997 0
M  V30 2410 C 222.678 -0.392253 -2.25819 0
M  V30 2411 C 223.678 0.476753 -1.5357 0
M  V30 2412 O 224.868 0.280994 -1.71919 0
M  V30 2413 C 222 0.438588 -3.38067 0
M  V30 2414 H 223.193 -1.24743 -2.72725 0
M  V30 2415 H 220.746 -0.684051 -1.40536 0
M  V30 2416 H 221.481 1.31352 -2.96508 0
M  V30 2417 H 221.266 -0.184167 -3.91667 0
M  V30 2418 H 222.756 0.78873 -4.10084 0
M  V30 2419 N 223.193 1.4272 -0.668489 0
M  V30 2420 C 224.609 1.55992 -0.33745 0
M  V30 2421 C 224.809 1.64933 1.15756 0
M  V30 2422 O 223.865 1.61278 1.94282 0
M  V30 2423 C 225.178 2.81314 -1.06222 0
M  V30 2424 C 226.726 2.95078 -1.04394 0
M  V30 2425 C 227.201 4.23252 -1.74991 0
M  V30 2426 N 228.692 4.3015 -1.71829 0
M  V30 2427 C 229.427 5.28127 -2.23315 0
M  V30 2428 N 228.923 6.32293 -2.83156 0
M  V30 2429 N 230.716 5.19882 -2.13726 0
M  V30 2430 H 222.867 1.3516 -1.63846 0
M  V30 2431 H 225.13 0.650174 -0.689912 0
M  V30 2432 H 224.836 2.80823 -2.11734 0
M  V30 2433 H 224.71 3.72012 -0.62344 0
M  V30 2434 H 227.097 2.951 0.0028244 0
M  V30 2435 H 227.178 2.05627 -1.52155 0
M  V30 2436 H 226.822 4.2399 -2.79633 0
M  V30 2437 H 226.752 5.11626 -1.24685 0
M  V30 2438 H 229.243 3.55499 -1.28175 0
M  V30 2439 H 229.556 7.03398 -3.20079 0
M  V30 2440 H 227.901 6.32873 -2.87223 0
M  V30 2441 H 231.092 4.37423 -1.66669 0
M  V30 2442 H 231.265 5.96077 -2.54158 0
M  V30 2443 N 224.671 0.411399 1.52136 0
M  V30 2444 C 225.619 -0.427633 2.28635 0
M  V30 2445 C 226.613 -1.04383 1.33419 0
M  V30 2446 O 227.819 -0.981772 1.50868 0
M  V30 2447 H 224.194 -0.156689 0.735495 0
M  V30 2448 H 226.165 0.238761 2.97443 0
M  V30 2449 C 224.914 -1.53082 3.12188 0
M  V30 2450 H 224.237 -1.06601 3.85326 0
M  V30 2451 H 225.677 -2.09167 3.68816 0
M  V30 2452 C 224.136 -2.49946 2.25895 0
M  V30 2453 O 224.666 -3.53884 1.90076 0
M  V30 2454 N 222.872 -2.2021 1.8962 0
M  V30 2455 H 222.419 -1.35719 2.18948 0
M  V30 2456 H 222.377 -2.85266 1.32176 0
M  V30 2457 N 226.149 -1.5696 0.141893 0
M  V30 2458 C 227.395 -1.9625 -0.511248 0
M  V30 2459 C 227.728 -1.02654 -1.64851 0
M  V30 2460 O 227.003 -0.0679676 -1.94381 0
M  V30 2461 C 227.286 -3.45285 -1.02227 0
M  V30 2462 C 227.139 -4.49658 0.113138 0
M  V30 2463 C 228.458 -3.96698 -1.90574 0
M  V30 2464 H 225.577 -0.713567 -0.184367 0
M  V30 2465 H 228.219 -1.88698 0.222087 0
M  V30 2466 H 226.369 -3.51852 -1.64719 0
M  V30 2467 H 228.041 -4.55174 0.749302 0
M  V30 2468 H 226.284 -4.26857 0.773026 0
M  V30 2469 H 226.955 -5.51258 -0.286053 0
M  V30 2470 H 229.431 -3.92578 -1.37918 0
M  V30 2471 H 228.307 -5.01453 -2.2324 0
M  V30 2472 H 228.568 -3.3875 -2.84079 0
M  V30 2473 N 227.627 0.131896 -1.57047 0
M  V30 2474 C 228.557 1.16384 -2.02428 0
M  V30 2475 C 229.538 1.43936 -0.90644 0
M  V30 2476 O 230.723 1.54599 -1.17528 0
M  V30 2477 C 227.853 2.49328 -2.4177 0
M  V30 2478 C 226.807 2.36266 -3.56879 0
M  V30 2479 C 226.133 3.74057 -3.8208 0
M  V30 2480 C 227.433 1.834 -4.89042 0
M  V30 2481 H 229.127 0.786433 -2.88887 0
M  V30 2482 H 226.673 0.376855 -1.38981 0
M  V30 2483 H 228.626 3.21759 -2.7212 0
M  V30 2484 H 227.35 2.88934 -1.52266 0
M  V30 2485 H 226.009 1.66286 -3.26718 0
M  V30 2486 H 225.657 4.11125 -2.89803 0
M  V30 2487 H 225.357 3.66174 -4.59554 0
M  V30 2488 H 226.881 4.48012 -4.1487 0
M  V30 2489 H 228.295 2.45636 -5.18011 0
M  V30 2490 H 226.692 1.8637 -5.70426 0
M  V30 2491 H 227.762 0.790662 -4.7841 0
M  V30 2492 N 229.106 1.52395 0.401703 0
M  V30 2493 C 230.053 1.76268 1.48991 0
M  V30 2494 C 231.023 0.605386 1.54675 0
M  V30 2495 O 232.208 0.843742 1.7113 0
M  V30 2496 C 229.348 1.92592 2.86361 0
M  V30 2497 C 228.461 3.20259 2.89928 0
M  V30 2498 C 227.596 3.26972 4.18644 0
M  V30 2499 C 226.635 4.48812 4.16214 0
M  V30 2500 N 225.772 4.52877 5.36514 0
M  V30 2501 H 230.612 2.6914 1.27935 0
M  V30 2502 H 228.149 1.33355 0.620871 0
M  V30 2503 H 230.107 2.0004 3.66115 0
M  V30 2504 H 228.737 1.03093 3.05895 0
M  V30 2505 H 227.789 3.21945 2.02621 0
M  V30 2506 H 229.101 4.10056 2.83999 0
M  V30 2507 H 228.255 3.33533 5.06794 0
M  V30 2508 H 226.994 2.35126 4.27278 0
M  V30 2509 H 225.999 4.4239 3.26453 0
M  V30 2510 H 227.224 5.41961 4.09213 0
M  V30 2511 H 225.17 3.63917 5.45802 0
M  V30 2512 H 225.087 5.36529 5.32609 0
M  V30 2513 H 226.355 4.63676 6.26597 0
M  V30 2514 N 230.584 -0.659388 1.43143 0
M  V30 2515 C 231.514 -1.78422 1.50625 0
M  V30 2516 C 232.495 -1.66216 0.361443 0
M  V30 2517 O 233.68 -1.85404 0.577834 0
M  V30 2518 C 230.81 -3.16815 1.42287 0
M  V30 2519 C 229.764 -3.43777 2.54954 0
M  V30 2520 C 229.09 -4.81905 2.31671 0
M  V30 2521 C 230.39 -3.39134 3.97222 0
M  V30 2522 H 232.084 -1.72417 2.44771 0
M  V30 2523 H 229.63 -0.828084 1.17808 0
M  V30 2524 H 231.583 -3.95253 1.46127 0
M  V30 2525 H 230.307 -3.23534 0.446435 0
M  V30 2526 H 228.966 -2.67707 2.50457 0
M  V30 2527 H 228.614 -4.85294 1.32284 0
M  V30 2528 H 228.314 -5.00906 3.07192 0
M  V30 2529 H 229.838 -5.62609 2.37284 0
M  V30 2530 H 231.252 -4.07518 4.03239 0
M  V30 2531 H 229.649 -3.69671 4.72719 0
M  V30 2532 H 230.719 -2.37426 4.22797 0
M  V30 2533 N 232.062 -1.29571 -0.897171 0
M  V30 2534 C 233.308 -1.17863 -1.65034 0
M  V30 2535 C 233.641 0.268729 -1.92332 0
M  V30 2536 O 232.916 1.19378 -1.53555 0
M  V30 2537 C 233.199 -1.995 -2.99786 0
M  V30 2538 C 233.052 -3.5239 -2.79538 0
M  V30 2539 C 234.371 -1.82335 -4.00552 0
M  V30 2540 H 231.49 -0.429528 -0.598895 0
M  V30 2541 H 234.132 -1.59072 -1.03905 0
M  V30 2542 H 232.282 -1.64485 -3.51962 0
M  V30 2543 H 233.954 -3.97401 -2.34244 0
M  V30 2544 H 232.197 -3.77187 -2.14273 0
M  V30 2545 H 232.868 -4.04787 -3.75302 0
M  V30 2546 H 235.344 -2.12924 -3.57495 0
M  V30 2547 H 234.22 -2.41801 -4.92771 0
M  V30 2548 H 234.481 -0.779209 -4.35179 0
M  V30 2549 N 233.54 1.10788 -1.12088 0
M  V30 2550 C 234.786 1.82942 -0.875226 0
M  V30 2551 C 235.119 1.84779 0.597538 0
M  V30 2552 O 234.394 1.30578 1.44152 0
M  V30 2553 C 234.677 3.29789 -1.44606 0
M  V30 2554 C 234.53 3.36307 -2.98693 0
M  V30 2555 C 235.849 4.26064 -1.10261 0
M  V30 2556 H 232.968 0.664195 -0.319397 0
M  V30 2557 H 235.61 1.29867 -1.38689 0
M  V30 2558 H 233.76 3.75118 -1.01089 0
M  V30 2559 H 235.432 2.99487 -3.50864 0
M  V30 2560 H 233.675 2.76318 -3.34411 0
M  V30 2561 H 234.346 4.39694 -3.33726 0
M  V30 2562 H 236.822 3.88951 -1.4784 0
M  V30 2563 H 235.698 5.27183 -1.52869 0
M  V30 2564 H 235.959 4.42098 -0.0142953 0
M  V30 2565 N 235.018 0.912232 1.28515 0
M  V30 2566 C 235.965 0.397954 2.27343 0
M  V30 2567 C 236.935 -0.526766 1.57526 0
M  V30 2568 O 238.12 -0.449292 1.85435 0
M  V30 2569 C 235.26 -0.357263 3.43246 0
M  V30 2570 C 234.373 0.599788 4.27816 0
M  V30 2571 C 233.508 -0.173725 5.30916 0
M  V30 2572 C 232.547 0.777039 6.07148 0
M  V30 2573 N 231.684 0.0371398 7.0209 0
M  V30 2574 H 236.524 1.24577 2.70711 0
M  V30 2575 H 234.061 0.625612 1.33133 0
M  V30 2576 H 236.019 -0.8113 4.09236 0
M  V30 2577 H 234.649 -1.16943 3.00872 0
M  V30 2578 H 233.701 1.17235 3.61884 0
M  V30 2579 H 235.013 1.32704 4.80823 0
M  V30 2580 H 234.167 -0.688394 6.02782 0
M  V30 2581 H 232.906 -0.934041 4.78672 0
M  V30 2582 H 231.911 1.3031 5.34134 0
M  V30 2583 H 233.136 1.53689 6.61481 0
M  V30 2584 H 231.082 -0.705213 6.52198 0
M  V30 2585 H 230.999 0.704249 7.52713 0
M  V30 2586 H 232.267 -0.457383 7.78157 0
M  V30 2587 N 236.496 -1.42363 0.676048 0
M  V30 2588 C 237.721 -2.06377 0.205705 0
M  V30 2589 C 238.146 -1.50463 -1.12883 0
M  V30 2590 O 237.504 -0.623619 -1.70237 0
M  V30 2591 C 237.552 -3.60277 0.152655 0
M  V30 2592 O 236.656 -4.02935 -0.87845 0
M  V30 2593 H 235.997 -0.655588 0.105359 0
M  V30 2594 H 238.527 -1.82475 0.925412 0
M  V30 2595 H 238.537 -4.07993 -0.0230675 0
M  V30 2596 H 237.212 -4.00346 1.12675 0
M  V30 2597 H 235.789 -3.66764 -0.673668 0
M  V30 2598 N 237.974 -0.419461 -1.51915 0
M  V30 2599 C 238.884 0.407528 -2.31033 0
M  V30 2600 C 239.9 1.04413 -1.3919 0
M  V30 2601 O 241.076 1.0434 -1.72265 0
M  V30 2602 C 238.141 1.50365 -3.12396 0
M  V30 2603 C 237.202 0.889029 -4.19994 0
M  V30 2604 C 236.435 1.93291 -4.97468 0
M  V30 2605 O 236.658 3.15259 -4.75361 0
M  V30 2606 O 235.592 1.53339 -5.8204 0
M  V30 2607 H 239.418 -0.237865 -3.02767 0
M  V30 2608 H 237.003 -0.182413 -1.48282 0
M  V30 2609 H 238.885 2.13975 -3.63032 0
M  V30 2610 H 237.56 2.13345 -2.43445 0
M  V30 2611 H 236.467 0.215353 -3.7348 0
M  V30 2612 H 237.8 0.302991 -4.91267 0
M  V30 2613 N 239.452 1.56882 -0.150215 0
M  V30 2614 C 240.698 1.97299 0.494427 0
M  V30 2615 C 241.053 1.0338 1.62266 0
M  V30 2616 O 240.346 0.0694497 1.91474 0
M  V30 2617 C 240.54 3.41801 1.04437 0
M  V30 2618 C 240.369 4.49691 -0.0290451 0
M  V30 2619 C 239.139 5.03095 -0.47156 0
M  V30 2620 C 241.337 5.07693 -0.821703 0
M  V30 2621 N 239.319 5.94593 -1.52749 0
M  V30 2622 C 240.69 5.95431 -1.72805 0
M  V30 2623 C 242.745 4.90256 -0.869134 0
M  V30 2624 C 241.448 6.67599 -2.67777 0
M  V30 2625 C 243.474 5.63127 -1.8067 0
M  V30 2626 C 242.836 6.50576 -2.70057 0
M  V30 2627 H 238.935 0.76755 0.149639 0
M  V30 2628 H 241.519 1.93145 -0.24556 0
M  V30 2629 H 239.69 3.46541 1.75396 0
M  V30 2630 H 241.422 3.69272 1.6559 0
M  V30 2631 H 238.177 4.73543 -0.0732101 0
M  V30 2632 H 238.601 6.45047 -2.05531 0
M  V30 2633 H 243.243 4.22363 -0.192134 0
M  V30 2634 H 240.961 7.34717 -3.36476 0
M  V30 2635 H 244.547 5.51629 -1.84924 0
M  V30 2636 H 243.427 7.05974 -3.41424 0
M  V30 2637 N 240.93 -0.123565 1.57115 0
M  V30 2638 C 241.877 -1.15177 2.00007 0
M  V30 2639 C 242.847 -1.41403 0.871454 0
M  V30 2640 O 244.032 -1.53346 1.13533 0
M  V30 2641 C 241.172 -2.47436 2.40561 0
M  V30 2642 C 240.285 -2.28184 3.66819 0
M  V30 2643 C 239.42 -3.53641 3.96373 0
M  V30 2644 C 238.459 -3.29528 5.15827 0
M  V30 2645 N 237.596 -4.47175 5.41275 0
M  V30 2646 H 242.436 -0.779008 2.87638 0
M  V30 2647 H 239.973 -0.373166 1.42288 0
M  V30 2648 H 241.931 -3.24584 2.62109 0
M  V30 2649 H 240.561 -2.82614 1.55978 0
M  V30 2650 H 239.613 -1.41976 3.52912 0
M  V30 2651 H 240.925 -2.0634 4.5412 0
M  V30 2652 H 240.079 -4.39209 4.18545 0
M  V30 2653 H 238.818 -3.78512 3.07538 0
M  V30 2654 H 237.823 -2.42349 4.93505 0
M  V30 2655 H 239.048 -3.06031 6.06236 0
M  V30 2656 H 236.994 -4.72175 4.55397 0
M  V30 2657 H 236.911 -4.28419 6.22891 0
M  V30 2658 H 238.179 -5.3389 5.67963 0
M  V30 2659 N 242.408 -1.52605 -0.393616 0
M  V30 2660 C 243.633 -1.71592 -1.16495 0
M  V30 2661 C 244.058 -0.43133 -1.83088 0
M  V30 2662 O 243.416 0.612523 -1.7064 0
M  V30 2663 C 243.464 -2.86318 -2.19213 0
M  V30 2664 O 242.568 -2.52969 -3.257 0
M  V30 2665 H 241.909 -0.570734 -0.33935 0
M  V30 2666 H 244.439 -1.99377 -0.459324 0
M  V30 2667 H 244.449 -3.1168 -2.63286 0
M  V30 2668 H 243.124 -3.79511 -1.7013 0
M  V30 2669 H 241.701 -2.38332 -2.86797 0
M  V30 2670 N 243.887 0.651787 -1.4349 0
M  V30 2671 C 245.117 1.43728 -1.48411 0
M  V30 2672 C 245.525 1.8893 -0.10103 0
M  V30 2673 O 244.868 1.60182 0.899307 0
M  V30 2674 C 244.93 2.70411 -2.36893 0
M  V30 2675 C 244.594 2.4714 -3.8441 0
M  V30 2676 C 245.591 2.10271 -4.75481 0
M  V30 2677 C 243.276 2.6142 -4.28912 0
M  V30 2678 C 245.27 1.87982 -6.0905 0
M  V30 2679 C 242.957 2.38746 -5.62533 0
M  V30 2680 C 243.955 2.02083 -6.5242 0
M  V30 2681 O 243.643 1.79647 -7.8357 0
M  V30 2682 H 243.375 0.447962 -0.506267 0
M  V30 2683 H 245.929 0.80624 -1.88915 0
M  V30 2684 H 244.159 3.36079 -1.91278 0
M  V30 2685 H 245.848 3.32364 -2.33 0
M  V30 2686 H 246.614 1.98814 -4.42378 0
M  V30 2687 H 242.493 2.88931 -3.59222 0
M  V30 2688 H 246.037 1.5929 -6.7917 0
M  V30 2689 H 241.934 2.49806 -5.95203 0
M  V30 2690 H 242.702 1.9406 -7.95162 0
M  V30 2691 N 245.365 1.30045 0.890287 0
M  V30 2692 C 246.776 1.16738 1.45702 0
M  V30 2693 C 247.127 -0.233939 1.948 0
M  V30 2694 O 246.252 -1.13021 1.84541 0
M  V30 2695 C 246.847 2.11313 2.64825 0
M  V30 2696 C 245.406 2.02001 3.17604 0
M  V30 2697 C 244.553 2.01699 1.90296 0
M  V30 2698 H 247.504 1.42392 0.700726 0
M  V30 2699 H 247.525 1.69086 3.40867 0
M  V30 2700 H 247.037 3.13294 2.2906 0
M  V30 2701 H 245.138 1.03142 3.5804 0
M  V30 2702 H 245.251 2.90128 3.81264 0
M  V30 2703 H 243.615 1.46427 2.08402 0
M  V30 2704 H 244.398 3.05402 1.56795 0
M  V30 2705 N 246.843 -1.10192 1.12674 0
M  V30 2706 C 248.092 -1.81573 0.8783 0
M  V30 2707 C 248.405 -1.86249 -0.597557 0
M  V30 2708 O 249.611 -2.5386 -0.962681 0
M  V30 2709 C 248.067 -3.26149 1.52167 0
M  V30 2710 C 247.675 -3.29763 3.03249 0
M  V30 2711 C 249.419 -4.0234 1.3536 0
M  V30 2712 C 247.326 -4.68815 3.60508 0
M  V30 2713 H 246.256 -0.680394 0.324931 0
M  V30 2714 H 248.907 -1.23902 1.35353 0
M  V30 2715 H 247.289 -3.83832 0.974104 0
M  V30 2716 H 248.463 -2.8189 3.6452 0
M  V30 2717 H 246.778 -2.67059 3.19481 0
M  V30 2718 H 249.375 -5.05058 1.75559 0
M  V30 2719 H 249.718 -4.15235 0.297554 0
M  V30 2720 H 250.251 -3.51079 1.87052 0
M  V30 2721 H 246.99 -4.61121 4.65884 0
M  V30 2722 H 246.51 -5.17045 3.04014 0
M  V30 2723 H 248.189 -5.37785 3.59717 0
M  V30 2724 N 248.321 -0.919034 -1.28029 0
M  V30 2725 C 249.253 -0.368762 -2.26214 0
M  V30 2726 C 250.266 0.495716 -1.55069 0
M  V30 2727 O 251.455 0.30974 -1.75792 0
M  V30 2728 C 248.555 0.491049 -3.35324 0
M  V30 2729 C 247.728 -0.352133 -4.3598 0
M  V30 2730 C 246.787 0.443622 -5.24327 0
M  V30 2731 O 245.813 -0.14566 -5.69014 0
M  V30 2732 N 247.015 1.74545 -5.53637 0
M  V30 2733 H 249.78 -1.21273 -2.74068 0
M  V30 2734 H 247.341 -0.785541 -1.41566 0
M  V30 2735 H 249.333 1.03026 -3.91366 0
M  V30 2736 H 247.903 1.23574 -2.87138 0
M  V30 2737 H 247.123 -1.07269 -3.79324 0
M  V30 2738 H 248.411 -0.928883 -5.00249 0
M  V30 2739 H 247.809 2.24666 -5.19174 0
M  V30 2740 H 246.366 2.23138 -6.12416 0
M  V30 2741 N 249.799 1.42003 -0.683588 0
M  V30 2742 C 250.762 2.29191 -0.0198243 0
M  V30 2743 C 251.762 1.43773 0.72013 0
M  V30 2744 O 252.952 1.65061 0.556815 0
M  V30 2745 C 250.084 3.26435 0.982487 0
M  V30 2746 H 251.277 2.8938 -0.787345 0
M  V30 2747 H 248.83 1.49789 -0.446418 0
M  V30 2748 H 249.565 2.71203 1.77819 0
M  V30 2749 H 249.35 3.89449 0.455182 0
M  V30 2750 H 250.84 3.918 1.44508 0
M  V30 2751 N 251.277 0.427512 1.51691 0
M  V30 2752 C 252.523 -0.142439 2.02299 0
M  V30 2753 C 252.856 -1.43214 1.31162 0
M  V30 2754 O 252.131 -1.89833 0.423511 0
M  V30 2755 C 252.414 -0.371301 3.58181 0
M  V30 2756 C 252.267 0.936358 4.39946 0
M  V30 2757 C 253.586 -1.14542 4.24933 0
M  V30 2758 H 250.705 -0.0502937 0.735282 0
M  V30 2759 H 253.347 0.564584 1.81418 0
M  V30 2760 H 251.497 -0.973559 3.76104 0
M  V30 2761 H 253.169 1.57184 4.33694 0
M  V30 2762 H 251.412 1.5432 4.05423 0
M  V30 2763 H 252.083 0.730388 5.47147 0
M  V30 2764 H 254.559 -0.635362 4.11221 0
M  V30 2765 H 253.435 -1.27431 5.33903 0
M  V30 2766 H 253.696 -2.17093 3.85127 0
M  V30 2767 N 252.755 -1.56801 0.158532 0
M  V30 2768 C 253.665 -2.20916 -0.789518 0
M  V30 2769 C 254.681 -1.1969 -1.26294 0
M  V30 2770 O 255.857 -1.52308 -1.31773 0
M  V30 2771 C 252.922 -2.82727 -2.00665 0
M  V30 2772 C 251.983 -3.99114 -1.58134 0
M  V30 2773 C 251.216 -4.57968 -2.74045 0
M  V30 2774 O 251.439 -4.15704 -3.90572 0
M  V30 2775 O 250.373 -5.48047 -2.48855 0
M  V30 2776 H 254.199 -3.02464 -0.273681 0
M  V30 2777 H 251.784 -1.4924 -0.0690548 0
M  V30 2778 H 253.666 -3.21968 -2.71872 0
M  V30 2779 H 252.341 -2.04184 -2.51179 0
M  V30 2780 H 251.248 -3.64567 -0.839155 0
M  V30 2781 H 252.581 -4.79212 -1.12325 0
M  V30 2782 N 254.233 0.115231 -1.57178 0
M  V30 2783 C 255.143 1.15994 -2.03918 0
M  V30 2784 C 256.159 1.45103 -0.960268 0
M  V30 2785 O 257.335 1.56144 -1.27204 0
M  V30 2786 C 254.4 2.46568 -2.43732 0
M  V30 2787 C 253.461 2.24822 -3.65723 0
M  V30 2788 C 252.694 3.4917 -4.03629 0
M  V30 2789 O 252.917 4.56623 -3.41835 0
M  V30 2790 O 251.851 3.39949 -4.96708 0
M  V30 2791 H 255.677 0.793019 -2.93164 0
M  V30 2792 H 253.262 0.3263 -1.45793 0
M  V30 2793 H 255.144 3.23492 -2.70057 0
M  V30 2794 H 253.819 2.82726 -1.57631 0
M  V30 2795 H 252.726 1.45744 -3.44542 0
M  V30 2796 H 254.059 1.93566 -4.52541 0
M  V30 2797 N 255.711 1.52812 0.385517 0
M  V30 2798 C 256.621 1.80766 1.49535 0
M  V30 2799 C 257.637 0.694651 1.59532 0
M  V30 2800 O 258.813 0.982611 1.75803 0
M  V30 2801 C 255.878 1.97381 2.85029 0
M  V30 2802 C 254.939 3.21295 2.84724 0
M  V30 2803 C 254.172 3.37108 4.13756 0
M  V30 2804 O 254.395 2.5765 5.08893 0
M  V30 2805 O 253.329 4.30378 4.20783 0
M  V30 2806 H 257.155 2.75015 1.28842 0
M  V30 2807 H 254.74 1.37946 0.573697 0
M  V30 2808 H 256.622 2.09996 3.65349 0
M  V30 2809 H 255.297 1.06322 3.05741 0
M  V30 2810 H 254.204 3.1412 2.03174 0
M  V30 2811 H 255.537 4.12212 2.68965 0
M  V30 2812 N 257.189 -0.644168 1.43834 0
M  V30 2813 C 258.152 -1.73857 1.49353 0
M  V30 2814 C 259.152 -1.56315 0.377112 0
M  V30 2815 O 260.342 -1.62048 0.639226 0
M  V30 2816 C 257.474 -3.12819 1.35488 0
M  V30 2817 H 258.667 -1.70342 2.46827 0
M  V30 2818 H 256.22 -0.856652 1.30733 0
M  V30 2819 H 256.955 -3.2194 0.390569 0
M  V30 2820 H 256.74 -3.26958 2.16428 0
M  V30 2821 H 258.23 -3.92606 1.42302 0
M  V30 2822 N 258.668 -1.30515 -0.883378 0
M  V30 2823 C 259.893 -1.22487 -1.67367 0
M  V30 2824 C 260.318 0.208767 -1.86938 0
M  V30 2825 O 259.676 1.15015 -1.40148 0
M  V30 2826 C 259.724 -1.96041 -3.02655 0
M  V30 2827 O 258.828 -1.28859 -3.91751 0
M  V30 2828 H 258.169 -0.423573 -0.511353 0
M  V30 2829 H 260.699 -1.72362 -1.10239 0
M  V30 2830 H 260.709 -2.05124 -3.52687 0
M  V30 2831 H 259.384 -3.00307 -2.8773 0
M  V30 2832 H 257.961 -1.28141 -3.50192 0
M  V30 2833 N 260.146 1.09593 -1.13257 0
M  V30 2834 C 261.394 1.81375 -0.891492 0
M  V30 2835 C 261.715 1.86049 0.584009 0
M  V30 2836 O 260.985 1.34481 1.42449 0
M  V30 2837 H 259.565 0.671708 -0.326828 0
M  V30 2838 H 262.227 1.3256 -1.42877 0
M  V30 2839 H 261.323 2.84612 -1.28071 0
M  V30 2840 N 261.624 0.925811 1.2754 0
M  V30 2841 C 262.901 0.483726 1.89524 0
M  V30 2842 C 263.281 -1.03809 1.83812 0
M  V30 2843 O 262.629 -1.89143 1.28207 0
M  V30 2844 C 262.839 1.02769 3.33526 0
M  V30 2845 C 264.187 1.08703 4.10449 0
M  V30 2846 O 265.211 0.977175 3.42534 0
M  V30 2847 O 264.07 1.25599 5.31871 0
M  V30 2848 H 261.164 0.15529 0.812289 0
M  V30 2849 H 263.71 1.01738 1.35822 0
M  V30 2850 H 262.482 2.07155 3.31967 0
M  V30 2851 H 262.105 0.475567 3.94746 0
M  V30 2852 N 263.102 -1.41638 0.69111 0
M  V30 2853 C 264.049 -2.30789 0.0229705 0
M  V30 2854 C 265.019 -1.46863 -0.775911 0
M  V30 2855 O 266.204 -1.75661 -0.74485 0
M  V30 2856 C 263.344 -3.32868 -0.910666 0
M  V30 2857 C 262.457 -4.31875 -0.103874 0
M  V30 2858 C 261.592 -5.21024 -1.03475 0
M  V30 2859 C 260.631 -6.11702 -0.220598 0
M  V30 2860 N 259.768 -6.93349 -1.10504 0
M  V30 2861 H 264.608 -2.87366 0.788978 0
M  V30 2862 H 262.145 -1.41535 0.400794 0
M  V30 2863 H 264.103 -3.90596 -1.46597 0
M  V30 2864 H 262.733 -2.77851 -1.64312 0
M  V30 2865 H 261.785 -3.76131 0.568285 0
M  V30 2866 H 263.097 -4.96003 0.527504 0
M  V30 2867 H 262.251 -5.83565 -1.65943 0
M  V30 2868 H 260.99 -4.57112 -1.69999 0
M  V30 2869 H 259.995 -5.48215 0.417187 0
M  V30 2870 H 261.22 -6.77668 0.440784 0
M  V30 2871 H 259.166 -6.3205 -1.75638 0
M  V30 2872 H 259.083 -7.54146 -0.529125 0
M  V30 2873 H 260.351 -7.60362 -1.71667 0
M  V30 2874 N 264.58 -0.43555 -1.51462 0
M  V30 2875 C 265.512 0.41257 -2.25456 0
M  V30 2876 C 266.525 0.987822 -1.29406 0
M  V30 2877 O 267.714 0.882266 -1.55172 0
M  V30 2878 C 264.814 1.58894 -2.99342 0
M  V30 2879 C 263.987 1.13288 -4.22474 0
M  V30 2880 C 263.046 2.17917 -4.78956 0
M  V30 2881 O 262.072 1.77425 -5.40841 0
M  V30 2882 N 263.274 3.50382 -4.62832 0
M  V30 2883 H 266.039 -0.221603 -2.9888 0
M  V30 2884 H 263.6 -0.264342 -1.59727 0
M  V30 2885 H 265.592 2.28508 -3.34015 0
M  V30 2886 H 264.162 2.12849 -2.28941 0
M  V30 2887 H 263.382 0.263881 -3.93316 0
M  V30 2888 H 264.67 0.805542 -5.02383 0
M  V30 2889 H 264.068 3.86013 -4.13534 0
M  V30 2890 H 262.625 4.15895 -5.01871 0
M  V30 2891 N 266.058 1.56714 -0.166846 0
M  V30 2892 C 267.469 1.83378 0.350646 0
M  V30 2893 C 267.82 1.08646 1.63372 0
M  V30 2894 O 266.945 0.338058 2.13743 0
M  V30 2895 C 267.54 3.32643 0.642963 0
M  V30 2896 C 266.099 3.59818 1.10491 0
M  V30 2897 C 265.246 2.76954 0.138411 0
M  V30 2898 H 268.197 1.53803 -0.391193 0
M  V30 2899 H 268.218 3.49878 1.49551 0
M  V30 2900 H 267.73 3.87007 -0.291055 0
M  V30 2901 H 265.831 3.1086 2.05418 0
M  V30 2902 H 265.944 4.68178 1.01716 0
M  V30 2903 H 264.308 2.4666 0.634911 0
M  V30 2904 H 265.091 3.34097 -0.789549 0
M  V30 2905 N 267.536 -0.106894 1.57237 0
M  V30 2906 C 268.483 -1.13049 2.01217 0
M  V30 2907 C 269.453 -1.40471 0.886403 0
M  V30 2908 O 270.638 -1.52133 1.15153 0
M  V30 2909 C 267.778 -2.4487 2.43172 0
M  V30 2910 C 266.891 -2.24281 3.69218 0
M  V30 2911 C 266.026 -3.49417 4.00101 0
M  V30 2912 C 265.065 -3.24038 5.19294 0
M  V30 2913 N 264.202 -4.41409 5.45988 0
M  V30 2914 H 269.042 -0.748456 2.88448 0
M  V30 2915 H 266.579 -0.358054 1.42676 0
M  V30 2916 H 268.537 -3.21786 2.65537 0
M  V30 2917 H 267.167 -2.80944 1.58967 0
M  V30 2918 H 266.219 -1.38224 3.54398 0
M  V30 2919 H 267.531 -2.01512 4.56283 0
M  V30 2920 H 266.685 -4.34746 4.2318 0
M  V30 2921 H 265.424 -3.75229 3.11535 0
M  V30 2922 H 264.429 -2.37102 4.96047 0
M  V30 2923 H 265.654 -2.99584 6.09447 0
M  V30 2924 H 263.6 -4.67319 4.60379 0
M  V30 2925 H 263.517 -4.21788 6.274 0
M  V30 2926 H 264.785 -5.27836 5.73593 0
M  V30 2927 N 269.014 -1.53014 -0.377408 0
M  V30 2928 C 269.961 -1.78616 -1.46168 0
M  V30 2929 C 270.931 -0.629917 -1.53692 0
M  V30 2930 O 272.116 -0.870861 -1.69766 0
M  V30 2931 C 269.256 -1.97123 -2.8326 0
M  V30 2932 C 268.369 -3.24831 -2.84796 0
M  V30 2933 C 267.504 -3.33591 -4.13389 0
M  V30 2934 C 266.543 -4.55377 -4.09021 0
M  V30 2935 N 265.68 -4.61355 -5.29241 0
M  V30 2936 H 270.52 -2.71142 -1.23637 0
M  V30 2937 H 268.057 -1.34326 -0.599577 0
M  V30 2938 H 270.015 -2.05839 -3.62886 0
M  V30 2939 H 268.645 -1.07946 -3.04216 0
M  V30 2940 H 267.697 -3.25128 -1.97474 0
M  V30 2941 H 269.009 -4.14523 -2.77439 0
M  V30 2942 H 268.163 -3.41554 -5.01424 0
M  V30 2943 H 266.902 -2.41894 -4.23484 0
M  V30 2944 H 265.907 -4.47527 -3.19373 0
M  V30 2945 H 267.132 -5.48402 -4.00539 0
M  V30 2946 H 265.078 -3.72554 -5.39944 0
M  V30 2947 H 264.995 -5.44935 -5.24006 0
M  V30 2948 H 266.263 -4.73586 -6.19141 0
M  V30 2949 N 270.492 0.636531 -1.44174 0
M  V30 2950 C 271.424 1.7618 -1.46606 0
M  V30 2951 C 272.437 1.58768 -0.360091 0
M  V30 2952 O 273.626 1.67181 -0.625518 0
M  V30 2953 C 270.726 3.13833 -1.27915 0
M  V30 2954 C 269.899 3.57753 -2.51658 0
M  V30 2955 C 268.958 4.74265 -2.27945 0
M  V30 2956 O 267.984 4.82852 -3.01401 0
M  V30 2957 N 269.186 5.65604 -1.30662 0
M  V30 2958 H 271.951 1.74567 -2.43612 0
M  V30 2959 H 269.512 0.820924 -1.39544 0
M  V30 2960 H 271.504 3.8949 -1.09907 0
M  V30 2961 H 270.074 3.10121 -0.39293 0
M  V30 2962 H 269.294 2.72362 -2.84978 0
M  V30 2963 H 270.582 3.83847 -3.33974 0
M  V30 2964 H 269.98 5.61354 -0.699844 0
M  V30 2965 H 268.537 6.40913 -1.18634 0
M  V30 2966 N 271.97 1.30982 0.876444 0
M  V30 2967 C 272.88 1.2003 2.01569 0
M  V30 2968 C 273.896 0.11838 1.73597 0
M  V30 2969 O 275.072 0.33495 1.98595 0
M  V30 2970 C 272.137 0.901637 3.34771 0
M  V30 2971 C 271.198 2.06979 3.76109 0
M  V30 2972 C 270.431 1.78529 5.02954 0
M  V30 2973 O 270.654 0.717296 5.65872 0
M  V30 2974 O 269.588 2.64019 5.40905 0
M  V30 2975 H 273.414 2.15753 2.13739 0
M  V30 2976 H 270.999 1.10658 1.00375 0
M  V30 2977 H 272.881 0.750645 4.1466 0
M  V30 2978 H 271.556 -0.0256141 3.2369 0
M  V30 2979 H 270.463 2.27616 2.96887 0
M  V30 2980 H 271.796 2.97907 3.91807 0
M  V30 2981 N 273.449 -1.08991 1.13837 0
M  V30 2982 C 274.396 -2.15748 0.819835 0
M  V30 2983 C 275.366 -1.64636 -0.220026 0
M  V30 2984 O 276.551 -1.90582 -0.0912757 0
M  V30 2985 C 273.691 -3.4382 0.296913 0
M  V30 2986 C 272.804 -4.0881 1.39636 0
M  V30 2987 C 271.939 -5.24655 0.831314 0
M  V30 2988 C 270.978 -5.81575 1.90886 0
M  V30 2989 N 270.115 -6.88774 1.36142 0
M  V30 2990 H 274.955 -2.42338 1.73426 0
M  V30 2991 H 272.492 -1.18935 0.865613 0
M  V30 2992 H 274.45 -4.17193 -0.0244339 0
M  V30 2993 H 273.08 -3.17535 -0.580628 0
M  V30 2994 H 272.132 -3.33258 1.83422 0
M  V30 2995 H 273.444 -4.47141 2.21058 0
M  V30 2996 H 272.598 -6.04942 0.461515 0
M  V30 2997 H 271.337 -4.87698 -0.013932 0
M  V30 2998 H 270.342 -4.99946 2.28767 0
M  V30 2999 H 271.567 -6.20592 2.75758 0
M  V30 3000 H 269.513 -6.53788 0.538254 0
M  V30 3001 H 269.43 -7.25898 2.11208 0
M  V30 3002 H 270.698 -7.72806 1.01933 0
M  V30 3003 N 274.927 -0.932562 -1.27047 0
M  V30 3004 C 275.875 -0.42603 -2.28665 0
M  V30 3005 C 276.869 0.49219 -1.62092 0
M  V30 3006 O 278.075 0.371355 -1.76128 0
M  V30 3007 H 274.45 -0.119213 -0.742491 0
M  V30 3008 H 276.421 -1.29579 -2.68797 0
M  V30 3009 C 275.17 0.301426 -3.46391 0
M  V30 3010 H 274.493 -0.39595 -3.97834 0
M  V30 3011 H 275.933 0.6202 -4.1944 0
M  V30 3012 C 274.392 1.51616 -3.00856 0
M  V30 3013 O 274.922 2.61476 -3.04948 0
M  V30 3014 N 273.128 1.36969 -2.56296 0
M  V30 3015 H 272.675 0.475873 -2.53166 0
M  V30 3016 H 272.633 2.18368 -2.26192 0
M  V30 3017 N 276.405 1.4127 -0.698611 0
M  V30 3018 C 277.816 1.84187 -0.305289 0
M  V30 3019 C 278.167 1.58449 1.15708 0
M  V30 3020 O 277.292 1.05651 1.88856 0
M  V30 3021 C 277.887 3.3435 -0.547314 0
M  V30 3022 C 276.446 3.75826 -0.207878 0
M  V30 3023 C 275.593 2.64647 -0.828099 0
M  V30 3024 H 278.544 1.30778 -0.89904 0
M  V30 3025 H 278.565 3.8001 0.192998 0
M  V30 3026 H 278.077 3.53051 -1.61172 0
M  V30 3027 H 276.178 3.62725 0.852143 0
M  V30 3028 H 276.291 4.74462 -0.665021 0
M  V30 3029 H 274.655 2.53395 -0.257458 0
M  V30 3030 H 275.438 2.86165 -1.89643 0
M  V30 3031 N 277.883 0.443576 1.51229 0
M  V30 3032 C 279.129 -0.120975 2.02439 0
M  V30 3033 C 279.462 -1.41815 1.32674 0
M  V30 3034 O 278.737 -1.89373 0.443622 0
M  V30 3035 C 279.02 -0.333291 3.58554 0
M  V30 3036 C 278.873 0.982968 4.38928 0
M  V30 3037 C 280.192 -1.10028 4.26124 0
M  V30 3038 H 277.311 -0.0424923 0.735774 0
M  V30 3039 H 279.953 0.583794 1.80809 0
M  V30 3040 H 278.103 -0.933614 3.77115 0
M  V30 3041 H 279.775 1.61775 4.32003 0
M  V30 3042 H 278.018 1.58611 4.03763 0
M  V30 3043 H 278.689 0.788379 5.46341 0
M  V30 3044 H 281.165 -0.591711 4.11871 0
M  V30 3045 H 280.041 -1.21761 5.35225 0
M  V30 3046 H 280.302 -2.12996 3.87408 0
M  V30 3047 N 279.361 -1.56624 0.175154 0
M  V30 3048 C 280.291 -2.21155 -0.749195 0
M  V30 3049 C 281.272 -1.16836 -1.23626 0
M  V30 3050 O 282.457 -1.45277 -1.28873 0
M  V30 3051 C 279.587 -2.8553 -1.97711 0
M  V30 3052 C 278.541 -3.95921 -1.62575 0
M  V30 3053 C 277.867 -4.47365 -2.92864 0
M  V30 3054 C 279.167 -5.15323 -0.850838 0
M  V30 3055 H 280.861 -2.98653 -0.211295 0
M  V30 3056 H 278.407 -1.43651 -0.100188 0
M  V30 3057 H 280.36 -3.2935 -2.62881 0
M  V30 3058 H 279.084 -2.05406 -2.53921 0
M  V30 3059 H 277.743 -3.52762 -0.997719 0
M  V30 3060 H 277.391 -3.64027 -3.47122 0
M  V30 3061 H 277.091 -5.21839 -2.70106 0
M  V30 3062 H 278.615 -4.93873 -3.59056 0
M  V30 3063 H 280.029 -5.55812 -1.40521 0
M  V30 3064 H 278.426 -5.95739 -0.722154 0
M  V30 3065 H 279.496 -4.84661 0.152082 0
M  V30 3066 N 280.839 0.0985539 -1.57292 0
M  V30 3067 C 282.085 0.803867 -1.86188 0
M  V30 3068 C 282.418 1.78549 -0.763794 0
M  V30 3069 O 281.693 1.93153 0.22855 0
M  V30 3070 C 281.976 1.53568 -3.25713 0
M  V30 3071 C 281.829 0.572277 -4.46145 0
M  V30 3072 C 283.148 2.48708 -3.63087 0
M  V30 3073 H 280.267 0.290781 -0.677211 0
M  V30 3074 H 282.909 0.0675783 -1.8988 0
M  V30 3075 H 281.059 2.16332 -3.22696 0
M  V30 3076 H 282.731 -0.0480894 -4.61275 0
M  V30 3077 H 280.974 -0.114618 -4.33649 0
M  V30 3078 H 281.645 1.12139 -5.40489 0
M  V30 3079 H 284.121 1.96039 -3.67026 0
M  V30 3080 H 282.997 2.96932 -4.61652 0
M  V30 3081 H 283.258 3.32309 -2.91588 0
M  V30 3082 N 282.317 1.53212 0.369288 0
M  V30 3083 C 283.542 1.73423 1.1375 0
M  V30 3084 C 283.967 0.460404 1.82378 0
M  V30 3085 O 283.325 -0.585298 1.71592 0
M  V30 3086 C 283.373 2.89769 2.1463 0
M  V30 3087 O 282.477 2.58119 3.21634 0
M  V30 3088 H 281.818 0.576061 0.330227 0
M  V30 3089 H 284.348 2.00083 0.427547 0
M  V30 3090 H 284.358 3.15829 2.58294 0
M  V30 3091 H 283.033 3.8217 1.64071 0
M  V30 3092 H 281.61 2.42864 2.82969 0
M  V30 3093 N 283.795 -0.628877 1.44509 0
M  V30 3094 C 285.206 -1.21054 1.42137 0
M  V30 3095 C 285.557 -1.95715 0.137881 0
M  V30 3096 O 284.682 -2.02554 -0.761645 0
M  V30 3097 C 285.277 -2.20189 2.57493 0
M  V30 3098 C 283.836 -2.73777 2.58308 0
M  V30 3099 C 282.983 -1.48813 2.33987 0
M  V30 3100 H 285.934 -0.41942 1.53057 0
M  V30 3101 H 285.955 -3.02833 2.30375 0
M  V30 3102 H 285.467 -1.6582 3.50892 0
M  V30 3103 H 283.568 -3.32142 1.68856 0
M  V30 3104 H 283.681 -3.19662 3.56865 0
M  V30 3105 H 282.045 -1.77024 1.83124 0
M  V30 3106 H 282.828 -0.963442 3.29504 0
M  V30 3107 N 285.273 -1.31445 -0.869486 0
M  V30 3108 C 286.183 -1.21097 -2.0093 0
M  V30 3109 C 287.199 -0.127584 -1.73532 0
M  V30 3110 O 288.375 -0.345477 -1.98415 0
M  V30 3111 C 285.44 -0.919378 -3.34288 0
M  V30 3112 C 284.501 -2.08971 -3.75006 0
M  V30 3113 C 283.734 -1.81194 -5.02001 0
M  V30 3114 O 283.957 -0.747296 -5.65484 0
M  V30 3115 O 282.891 -2.66883 -5.39497 0
M  V30 3116 H 286.717 -2.16883 -2.12592 0
M  V30 3117 H 284.302 -1.11189 -0.997868 0
M  V30 3118 H 286.184 -0.772625 -4.14257 0
M  V30 3119 H 284.859 0.00844772 -3.23699 0
M  V30 3120 H 283.766 -2.29187 -2.95676 0
M  V30 3121 H 285.099 -2.9998 -3.90221 0
M  V30 3122 N 286.751 1.08385 -1.14413 0
M  V30 3123 C 287.998 1.80776 -0.912482 0
M  V30 3124 C 288.326 1.86236 0.560934 0
M  V30 3125 O 287.581 1.33431 1.43159 0
M  V30 3126 C 287.88 3.26273 -1.45879 0
M  V30 3127 C 287.546 3.4093 -2.95089 0
M  V30 3128 C 286.208 3.44638 -3.35824 0
M  V30 3129 C 288.56 3.44591 -3.91033 0
M  V30 3130 C 285.888 3.49597 -4.71167 0
M  V30 3131 C 288.24 3.51086 -5.26233 0
M  V30 3132 C 286.904 3.53067 -5.6648 0
M  V30 3133 H 286.174 0.661507 -0.333901 0
M  V30 3134 H 288.821 1.27613 -1.42784 0
M  V30 3135 H 287.126 3.82146 -0.864376 0
M  V30 3136 H 288.823 3.80839 -1.2555 0
M  V30 3137 H 285.413 3.38736 -2.62594 0
M  V30 3138 H 289.597 3.40957 -3.60641 0
M  V30 3139 H 284.853 3.49424 -5.0171 0
M  V30 3140 H 289.027 3.52864 -6.00383 0
M  V30 3141 H 286.654 3.56662 -6.71339 0
M  V30 3142 N 288.23 0.939286 1.26551 0
M  V30 3143 C 289.476 0.586715 1.94128 0
M  V30 3144 C 289.809 -0.8717 1.73537 0
M  V30 3145 O 289.084 -1.62339 1.07127 0
M  V30 3146 C 289.367 0.927497 3.4795 0
M  V30 3147 C 289.22 2.44052 3.77834 0
M  V30 3148 C 290.539 0.441569 4.37879 0
M  V30 3149 H 287.658 0.21463 0.705055 0
M  V30 3150 H 290.3 1.17316 1.49455 0
M  V30 3151 H 288.45 0.428431 3.8613 0
M  V30 3152 H 290.122 3.01216 3.4938 0
M  V30 3153 H 288.365 2.8848 3.23978 0
M  V30 3154 H 289.036 2.62947 4.85348 0
M  V30 3155 H 291.512 0.869448 4.06915 0
M  V30 3156 H 290.388 0.708856 5.44304 0
M  V30 3157 H 290.649 -0.658467 4.37169 0
M  V30 3158 N 289.708 -1.40897 0.706093 0
M  V30 3159 C 290.985 -1.94868 0.169099 0
M  V30 3160 C 291.365 -1.64485 -1.32318 0
M  V30 3161 O 290.713 -0.95744 -2.07474 0
M  V30 3162 C 290.923 -3.45798 0.471654 0
M  V30 3163 C 292.271 -4.22663 0.405127 0
M  V30 3164 O 293.295 -3.53865 0.407168 0
M  V30 3165 O 292.154 -5.45216 0.374383 0
M  V30 3166 H 289.248 -0.82673 0.0211352 0
M  V30 3167 H 291.794 -1.50558 0.782976 0
M  V30 3168 H 290.566 -3.61235 1.50416 0
M  V30 3169 H 290.189 -3.97225 -0.172666 0
M  V30 3170 N 291.186 -0.45159 -1.50991 0
M  V30 3171 C 292.096 0.358431 -2.31846 0
M  V30 3172 C 293.112 1.01438 -1.41373 0
M  V30 3173 O 294.288 1.00663 -1.74439 0
M  V30 3174 C 291.353 1.43704 -3.15515 0
M  V30 3175 C 290.414 0.799742 -4.21785 0
M  V30 3176 C 289.647 1.82696 -5.01456 0
M  V30 3177 O 289.87 3.05105 -4.81941 0
M  V30 3178 O 288.804 1.40958 -5.85162 0
M  V30 3179 H 292.63 -0.302032 -3.02194 0
M  V30 3180 H 290.215 -0.213825 -1.47862 0
M  V30 3181 H 292.097 2.06227 -3.67489 0
M  V30 3182 H 290.772 2.08133 -2.47916 0
M  V30 3183 H 289.679 0.136084 -3.73852 0
M  V30 3184 H 291.012 0.198718 -4.91799 0
M  V30 3185 N 292.664 1.56529 -0.183458 0
M  V30 3186 C 293.627 2.17324 0.728223 0
M  V30 3187 C 294.627 1.12453 1.14939 0
M  V30 3188 O 295.817 1.37902 1.06437 0
M  V30 3189 C 292.949 2.76591 1.99274 0
M  V30 3190 H 294.142 2.99241 0.198772 0
M  V30 3191 H 291.695 1.5616 0.0661391 0
M  V30 3192 H 292.43 1.98441 2.56499 0
M  V30 3193 H 292.215 3.5335 1.69959 0
M  V30 3194 H 293.705 3.23311 2.6431 0
M  V30 3195 N 294.142 -0.090211 1.57342 0
M  V30 3196 C 295.072 -1.10976 2.05443 0
M  V30 3197 C 296.053 -1.41482 0.944284 0
M  V30 3198 O 297.238 -1.51428 1.21586 0
M  V30 3199 C 294.368 -2.42831 2.48295 0
M  V30 3200 C 293.322 -2.26721 3.63018 0
M  V30 3201 C 292.648 -3.63796 3.91863 0
M  V30 3202 C 293.948 -1.7037 4.93732 0
M  V30 3203 H 295.642 -0.709564 2.9087 0
M  V30 3204 H 293.188 -0.339874 1.39932 0
M  V30 3205 H 295.141 -3.14431 2.80555 0
M  V30 3206 H 293.865 -2.84795 1.59873 0
M  V30 3207 H 292.524 -1.57565 3.31012 0
M  V30 3208 H 292.172 -4.03297 3.00601 0
M  V30 3209 H 291.872 -3.53861 4.69101 0
M  V30 3210 H 293.396 -4.36855 4.26603 0
M  V30 3211 H 294.81 -2.31816 5.24342 0
M  V30 3212 H 293.207 -1.71181 5.75167 0
M  V30 3213 H 294.277 -0.663542 4.80339 0
M  V30 3214 N 295.62 -1.53406 -0.361157 0
M  V30 3215 C 296.86 -1.71507 -1.11197 0
M  V30 3216 C 297.224 -0.459337 -1.86425 0
M  V30 3217 O 298.425 -0.517102 -2.63779 0
M  V30 3218 C 296.696 -2.93307 -2.0422 0
M  V30 3219 S 298.255 -3.32135 -2.86761 0
M  V30 3220 H 295.073 -0.603448 -0.375995 0
M  V30 3221 H 297.675 -1.91516 -0.392642 0
M  V30 3222 H 296.379 -3.82891 -1.47724 0
M  V30 3223 H 295.91 -2.75712 -2.80618 0
M  V30 3224 H 297.925 -2.84493 -4.06544 0
M  V30 3225 N 297.098 0.621204 -1.44841 0
M  V30 3226 C 298.061 1.71459 -1.521 0
M  V30 3227 C 299.061 1.55696 -0.401933 0
M  V30 3228 O 300.251 1.61011 -0.664925 0
M  V30 3229 C 297.383 3.10624 -1.40447 0
M  V30 3230 H 298.576 1.66394 -2.49506 0
M  V30 3231 H 296.129 0.835745 -1.3208 0
M  V30 3232 H 296.864 3.21277 -0.441737 0
M  V30 3233 H 296.649 3.23473 -2.21602 0
M  V30 3234 H 298.139 3.90293 -1.4853 0
M  V30 3235 N 298.576 1.31904 0.862503 0
M  V30 3236 C 299.816 1.23324 1.63004 0
M  V30 3237 C 300.18 -0.203724 1.90916 0
M  V30 3238 O 301.381 -0.413132 2.65606 0
M  V30 3239 C 299.652 2.06116 2.91978 0
M  V30 3240 S 301.211 2.14478 3.82812 0
M  V30 3241 H 298.029 0.439117 0.559193 0
M  V30 3242 H 300.631 1.66658 1.02202 0
M  V30 3243 H 299.335 3.09593 2.69407 0
M  V30 3244 H 298.866 1.6353 3.57801 0
M  V30 3245 H 300.881 1.28855 4.79177 0
M  V30 3246 N 300.054 -1.07777 1.14986 0
M  V30 3247 C 300.964 -2.18404 0.856546 0
M  V30 3248 C 301.98 -1.73211 -0.165485 0
M  V30 3249 O 303.156 -2.01399 0.00755219 0
M  V30 3250 C 300.221 -3.44977 0.34526 0
M  V30 3251 C 299.282 -4.0476 1.43065 0
M  V30 3252 C 298.515 -5.25291 0.943663 0
M  V30 3253 O 298.738 -5.70004 -0.212426 0
M  V30 3254 O 297.672 -5.76638 1.72547 0
M  V30 3255 H 301.498 -2.45978 1.78125 0
M  V30 3256 H 299.083 -1.17033 0.928631 0
M  V30 3257 H 300.965 -4.21348 0.0663671 0
M  V30 3258 H 299.64 -3.18965 -0.551631 0
M  V30 3259 H 298.547 -3.29949 1.76309 0
M  V30 3260 H 299.88 -4.35035 2.30229 0
M  V30 3261 N 301.532 -0.945985 -1.26051 0
M  V30 3262 C 302.442 -0.465633 -2.29933 0
M  V30 3263 C 303.458 0.462761 -1.67733 0
M  V30 3264 O 304.634 0.341118 -1.9849 0
M  V30 3265 C 301.699 0.256994 -3.45746 0
M  V30 3266 C 300.76 -0.708549 -4.23412 0
M  V30 3267 C 299.993 -0.0203135 -5.33696 0
M  V30 3268 O 300.216 1.19571 -5.57726 0
M  V30 3269 O 299.15 -0.701459 -5.97799 0
M  V30 3270 H 302.976 -1.32866 -2.73094 0
M  V30 3271 H 300.561 -0.712071 -1.31339 0
M  V30 3272 H 302.443 0.663852 -4.16138 0
M  V30 3273 H 301.118 1.09533 -3.04605 0
M  V30 3274 H 300.025 -1.16545 -3.55483 0
M  V30 3275 H 301.358 -1.51465 -4.68315 0
M  V30 3276 N 303.011 1.40521 -0.713556 0
M  V30 3277 C 304.241 2.0494 -0.261395 0
M  V30 3278 C 304.649 1.53861 1.10107 0
M  V30 3279 O 303.992 0.689321 1.70276 0
M  V30 3280 C 304.054 3.59138 -0.161227 0
M  V30 3281 C 303.718 4.33096 -1.45865 0
M  V30 3282 C 304.715 4.61182 -2.40016 0
M  V30 3283 C 302.4 4.72043 -1.71701 0
M  V30 3284 C 304.394 5.27196 -3.58251 0
M  V30 3285 C 302.081 5.37789 -2.90218 0
M  V30 3286 C 303.079 5.65295 -3.83315 0
M  V30 3287 O 302.767 6.29683 -4.99754 0
M  V30 3288 H 302.499 0.666041 -0.115608 0
M  V30 3289 H 305.053 1.80954 -0.971849 0
M  V30 3290 H 303.283 3.81936 0.605153 0
M  V30 3291 H 304.972 4.05091 0.256105 0
M  V30 3292 H 305.738 4.31559 -2.21318 0
M  V30 3293 H 301.617 4.50003 -1.00092 0
M  V30 3294 H 305.161 5.48582 -4.30934 0
M  V30 3295 H 301.058 5.66831 -3.08825 0
M  V30 3296 H 301.826 6.4818 -4.99805 0
M  V30 3297 N 304.489 0.459591 1.5075 0
M  V30 3298 C 305.419 -0.330644 2.31147 0
M  V30 3299 C 306.4 -1.00087 1.37538 0
M  V30 3300 O 307.585 -1.00025 1.66459 0
M  V30 3301 C 304.715 -1.41958 3.16962 0
M  V30 3302 C 303.669 -0.871608 4.19031 0
M  V30 3303 C 302.995 -2.05797 4.9351 0
M  V30 3304 C 304.295 0.109251 5.22186 0
M  V30 3305 H 305.989 0.340336 2.97459 0
M  V30 3306 H 303.535 0.165119 1.4305 0
M  V30 3307 H 305.488 -1.9798 3.71997 0
M  V30 3308 H 304.212 -2.11917 2.48513 0
M  V30 3309 H 302.871 -0.333442 3.6508 0
M  V30 3310 H 302.519 -2.74427 4.21544 0
M  V30 3311 H 302.219 -1.6976 5.62544 0
M  V30 3312 H 303.743 -2.62331 5.51375 0
M  V30 3313 H 305.157 -0.361405 5.7216 0
M  V30 3314 H 303.554 0.383316 5.98875 0
M  V30 3315 H 304.624 1.03887 4.73641 0
M  V30 3316 N 305.967 -1.56429 0.191757 0
M  V30 3317 C 307.192 -2.02309 -0.456706 0
M  V30 3318 C 307.617 -1.07103 -1.5463 0
M  V30 3319 O 306.975 -0.0539677 -1.8122 0
M  V30 3320 C 307.023 -3.46654 -0.993159 0
M  V30 3321 O 306.127 -3.54559 -2.10622 0
M  V30 3322 H 305.468 -0.655303 -0.107114 0
M  V30 3323 H 307.998 -2.02364 0.301653 0
M  V30 3324 H 308.008 -3.86377 -1.31061 0
M  V30 3325 H 306.683 -4.1544 -0.195504 0
M  V30 3326 H 305.26 -3.26708 -1.79767 0
M  V30 3327 N 307.445 0.0818655 -1.57387 0
M  V30 3328 C 308.393 1.11712 -2.04018 0
M  V30 3329 C 309.387 1.40683 -0.94364 0
M  V30 3330 O 310.593 1.40209 -1.12878 0
M  V30 3331 H 306.968 0.377542 -0.650358 0
M  V30 3332 H 308.939 0.697614 -2.90131 0
M  V30 3333 C 307.688 2.42537 -2.49141 0
M  V30 3334 H 307.011 2.21092 -3.33104 0
M  V30 3335 H 308.451 3.13446 -2.85531 0
M  V30 3336 C 306.91 3.0778 -1.37014 0
M  V30 3337 O 307.44 3.95436 -0.706621 0
M  V30 3338 N 305.646 2.68242 -1.11779 0
M  V30 3339 H 305.193 1.97052 -1.65917 0
M  V30 3340 H 305.151 3.1222 -0.369594 0
M  V30 3341 N 308.923 1.53595 0.353017 0
M  V30 3342 C 309.853 1.83902 1.43883 0
M  V30 3343 C 310.834 0.693421 1.55324 0
M  V30 3344 O 312.019 0.944452 1.69687 0
M  V30 3345 C 309.149 2.04016 2.8106 0
M  V30 3346 C 308.103 3.19814 2.84434 0
M  V30 3347 C 307.429 3.25244 4.24406 0
M  V30 3348 C 308.729 4.58133 2.50822 0
M  V30 3349 H 310.423 2.74835 1.1877 0
M  V30 3350 H 307.969 1.32242 0.569917 0
M  V30 3351 H 309.922 2.238 3.57059 0
M  V30 3352 H 308.646 1.09804 3.07588 0
M  V30 3353 H 307.305 2.9987 2.10887 0
M  V30 3354 H 306.953 2.28646 4.48029 0
M  V30 3355 H 306.653 4.03054 4.27576 0
M  V30 3356 H 308.177 3.47228 5.0226 0
M  V30 3357 H 309.591 4.77995 3.16534 0
M  V30 3358 H 307.988 5.38276 2.6529 0
M  V30 3359 H 309.058 4.62387 1.46034 0
M  V30 3360 N 310.401 -0.613514 1.45168 0
M  V30 3361 C 311.364 -1.7065 1.53007 0
M  V30 3362 C 312.364 -1.5548 0.410184 0
M  V30 3363 O 313.554 -1.60656 0.673455 0
M  V30 3364 C 310.686 -3.09875 1.42093 0
M  V30 3365 H 311.879 -1.65068 2.50385 0
M  V30 3366 H 309.432 -0.828728 1.32521 0
M  V30 3367 H 310.167 -3.21039 0.458769 0
M  V30 3368 H 309.952 -3.22293 2.23315 0
M  V30 3369 H 311.442 -3.895 1.50598 0
M  V30 3370 N 311.879 -1.3236 -0.855495 0
M  V30 3371 C 312.829 -1.17809 -1.95205 0
M  V30 3372 C 313.813 -0.0852319 -1.60674 0
M  V30 3373 O 315.005 -0.311651 -1.74235 0
M  V30 3374 C 312.134 -0.902437 -3.31226 0
M  V30 3375 C 311.22 -2.03695 -3.7198 0
M  V30 3376 N 311.611 -3.28544 -3.84568 0
M  V30 3377 C 309.909 -1.93993 -4.016 0
M  V30 3378 C 310.61 -4.02847 -4.19629 0
M  V30 3379 N 309.586 -3.31138 -4.31102 0
M  V30 3380 H 313.388 -2.12462 -2.0307 0
M  V30 3381 H 310.902 -1.24127 -1.0472 0
M  V30 3382 H 312.899 -0.77915 -4.09554 0
M  V30 3383 H 311.559 0.0357267 -3.2468 0
M  V30 3384 H 312.57 -3.6349 -3.68911 0
M  V30 3385 H 309.247 -1.07733 -4.03361 0
M  V30 3386 H 310.637 -5.10506 -4.36845 0
M  V30 3387 N 313.357 1.07166 -1.15556 0
M  V30 3388 C 314.29 2.13808 -0.797593 0
M  V30 3389 C 315.268 1.6101 0.226812 0
M  V30 3390 O 316.452 1.88161 0.112932 0
M  V30 3391 C 313.579 3.38187 -0.186371 0
M  V30 3392 C 312.625 4.09766 -1.18297 0
M  V30 3393 S 313.458 4.60932 -2.72584 0
M  V30 3394 C 314.614 5.88583 -2.12886 0
M  V30 3395 H 314.847 2.43843 -1.70083 0
M  V30 3396 H 312.38 1.19467 -0.978106 0
M  V30 3397 H 314.338 4.10189 0.159837 0
M  V30 3398 H 312.999 3.06326 0.694489 0
M  V30 3399 H 312.192 4.99065 -0.703562 0
M  V30 3400 H 311.794 3.43736 -1.47381 0
M  V30 3401 H 314.086 6.60866 -1.49208 0
M  V30 3402 H 315.029 6.41241 -3.0036 0
M  V30 3403 H 315.437 5.42194 -1.57116 0
M  V30 3404 N 314.835 0.952656 1.25548 0
M  V30 3405 C 316.112 0.523818 1.88456 0
M  V30 3406 C 316.492 -0.998871 1.85973 0
M  V30 3407 O 315.84 -1.86381 1.3219 0
M  V30 3408 C 316.05 1.0982 3.31271 0
M  V30 3409 C 317.398 1.17385 4.08051 0
M  V30 3410 O 318.422 1.04961 3.40384 0
M  V30 3411 O 317.281 1.36852 5.29088 0
M  V30 3412 H 314.375 0.172485 0.808813 0
M  V30 3413 H 316.921 1.04596 1.33633 0
M  V30 3414 H 315.693 2.1415 3.27499 0
M  V30 3415 H 315.316 0.559191 3.93648 0
M  V30 3416 N 316.313 -1.40141 0.720998 0
M  V30 3417 C 317.562 -2.0002 0.259804 0
M  V30 3418 C 317.875 -1.57839 -1.15526 0
M  V30 3419 O 319.081 -2.10455 -1.71525 0
M  V30 3420 C 317.537 -3.57516 0.413566 0
M  V30 3421 C 317.145 -4.08667 1.83562 0
M  V30 3422 C 318.889 -4.24498 0.0134387 0
M  V30 3423 C 316.796 -5.58686 1.93968 0
M  V30 3424 H 315.726 -0.748195 0.0933806 0
M  V30 3425 H 318.377 -1.60313 0.892866 0
M  V30 3426 H 316.759 -3.9495 -0.288169 0
M  V30 3427 H 317.933 -3.82598 2.56817 0
M  V30 3428 H 316.248 -3.543 2.1877 0
M  V30 3429 H 318.845 -5.34654 0.0703954 0
M  V30 3430 H 319.188 -4.03375 -1.02927 0
M  V30 3431 H 319.721 -3.92188 0.665815 0
M  V30 3432 H 316.46 -5.8467 2.96379 0
M  V30 3433 H 315.98 -5.86602 1.25131 0
M  V30 3434 H 317.659 -6.23875 1.71431 0
M  V30 3435 N 317.792 -0.46758 -1.50504 0
M  V30 3436 C 319.069 0.15003 -1.95024 0
M  V30 3437 C 319.449 1.57304 -1.40779 0
M  V30 3438 O 318.797 2.20281 -0.607319 0
M  V30 3439 C 319.007 0.0969324 -3.48865 0
M  V30 3440 C 320.355 0.287565 -4.23625 0
M  V30 3441 O 321.379 0.173678 -3.55776 0
M  V30 3442 O 320.238 0.517186 -5.44047 0
M  V30 3443 H 317.332 0.113582 -0.819163 0
M  V30 3444 H 319.878 -0.52773 -1.61286 0
M  V30 3445 H 318.65 -0.896732 -3.80886 0
M  V30 3446 H 318.273 0.816303 -3.8913 0
M  V30 3447 N 319.27 1.56325 -0.20005 0
M  V30 3448 C 320.217 2.1932 0.718833 0
M  V30 3449 C 321.187 1.14198 1.20615 0
M  V30 3450 O 322.372 1.42469 1.26914 0
M  V30 3451 C 319.512 2.86041 1.93066 0
M  V30 3452 C 318.625 4.05702 1.48425 0
M  V30 3453 C 317.76 4.60266 2.65196 0
M  V30 3454 C 316.799 5.72273 2.17185 0
M  V30 3455 N 315.936 6.21221 3.27152 0
M  V30 3456 H 320.776 2.97486 0.17489 0
M  V30 3457 H 318.313 1.46911 0.0745794 0
M  V30 3458 H 320.271 3.22897 2.64184 0
M  V30 3459 H 318.901 2.1043 2.44783 0
M  V30 3460 H 317.953 3.74475 0.668755 0
M  V30 3461 H 319.265 4.86699 1.09204 0
M  V30 3462 H 318.419 4.99453 3.4443 0
M  V30 3463 H 317.158 3.78386 3.07693 0
M  V30 3464 H 316.163 5.3261 1.36407 0
M  V30 3465 H 317.388 6.55974 1.75713 0
M  V30 3466 H 315.334 5.42263 3.69171 0
M  V30 3467 H 315.251 6.97284 2.92116 0
M  V30 3468 H 316.519 6.65063 4.06585 0
M  V30 3469 N 320.748 -0.0735177 1.57428 0
M  V30 3470 C 322.025 -0.805903 1.78226 0
M  V30 3471 C 322.405 -1.95874 0.787189 0
M  V30 3472 O 321.753 -2.2779 -0.180029 0
M  V30 3473 C 321.963 -1.28045 3.24662 0
M  V30 3474 C 323.311 -1.71453 3.88444 0
M  V30 3475 O 324.335 -1.37616 3.28543 0
M  V30 3476 O 323.194 -2.34093 4.93825 0
M  V30 3477 H 320.288 -0.386041 0.73137 0
M  V30 3478 H 322.834 -0.0537269 1.69615 0
M  V30 3479 H 321.606 -0.455476 3.8864 0
M  V30 3480 H 321.229 -2.094 3.37991 0
M  V30 3481 N 322.226 -1.5378 -0.344866 0
M  V30 3482 C 323.156 -1.84662 -1.42906 0
M  V30 3483 C 324.137 -0.701648 -1.54955 0
M  V30 3484 O 325.322 -0.953438 -1.69184 0
M  V30 3485 C 322.452 -2.05503 -2.79974 0
M  V30 3486 C 321.406 -3.21318 -2.82734 0
M  V30 3487 C 320.732 -3.2749 -4.22675 0
M  V30 3488 C 322.032 -4.59456 -2.48389 0
M  V30 3489 H 323.726 -2.75461 -1.17311 0
M  V30 3490 H 321.272 -1.32542 -0.562896 0
M  V30 3491 H 323.225 -2.25691 -3.55867 0
M  V30 3492 H 321.949 -1.11434 -3.07002 0
M  V30 3493 H 320.608 -3.00984 -2.09294 0
M  V30 3494 H 320.256 -2.31019 -4.4681 0
M  V30 3495 H 319.956 -4.05316 -4.25433 0
M  V30 3496 H 321.48 -3.49887 -5.00412 0
M  V30 3497 H 322.894 -4.79667 -3.13995 0
M  V30 3498 H 321.291 -5.39675 -2.62432 0
M  V30 3499 H 322.361 -4.63155 -1.4358 0
M  V30 3500 N 323.704 0.605807 -1.45491 0
M  V30 3501 C 324.614 1.74466 -1.56839 0
M  V30 3502 C 325.63 1.68006 -0.452772 0
M  V30 3503 O 326.806 1.8833 -0.713708 0
M  V30 3504 C 323.871 3.10931 -1.53371 0
M  V30 3505 C 322.932 3.28832 -2.75986 0
M  V30 3506 C 322.165 4.58787 -2.72673 0
M  V30 3507 O 322.388 5.4122 -1.80102 0
M  V30 3508 O 321.322 4.79438 -3.63899 0
M  V30 3509 H 325.148 1.67843 -2.53106 0
M  V30 3510 H 322.733 0.770108 -1.28022 0
M  V30 3511 H 324.615 3.92233 -1.54051 0
M  V30 3512 H 323.29 3.18042 -0.602572 0
M  V30 3513 H 322.197 2.47112 -2.80867 0
M  V30 3514 H 323.53 3.26599 -3.68231 0
M  V30 3515 N 325.182 1.32811 0.848464 0
M  V30 3516 C 326.145 1.22194 1.9391 0
M  V30 3517 C 327.145 0.143404 1.60159 0
M  V30 3518 O 328.335 0.394253 1.6968 0
M  V30 3519 C 325.467 0.88067 3.29328 0
M  V30 3520 H 326.66 2.19127 2.04752 0
M  V30 3521 H 324.213 1.16731 1.0394 0
M  V30 3522 H 324.948 -0.0865776 3.24184 0
M  V30 3523 H 324.733 1.66052 3.55203 0
M  V30 3524 H 326.223 0.830871 4.09251 0
M  V30 3525 N 326.66 -1.06551 1.16123 0
M  V30 3526 C 328.071 -1.60768 0.949232 0
M  V30 3527 C 328.422 -1.89523 -0.507508 0
M  V30 3528 O 327.547 -1.66671 -1.38021 0
M  V30 3529 C 328.142 -2.92086 1.71671 0
M  V30 3530 C 326.701 -3.43015 1.54977 0
M  V30 3531 C 325.848 -2.16947 1.72711 0
M  V30 3532 H 328.799 -0.895354 1.31031 0
M  V30 3533 H 328.82 -3.6138 1.19099 0
M  V30 3534 H 328.332 -2.71127 2.7769 0
M  V30 3535 H 326.433 -3.69039 0.513873 0
M  V30 3536 H 326.546 -4.18516 2.33198 0
M  V30 3537 H 324.91 -2.27041 1.15431 0
M  V30 3538 H 325.693 -1.98473 2.80113 0
M  V30 3539 N 328.138 -0.959301 -1.25041 0
M  V30 3540 C 329.068 -0.501388 -2.28053 0
M  V30 3541 C 330.049 0.454673 -1.63911 0
M  V30 3542 O 331.234 0.352618 -1.90972 0
M  V30 3543 C 328.364 0.217224 -3.4662 0
M  V30 3544 C 327.318 -0.654034 -4.22973 0
M  V30 3545 C 326.644 0.195589 -5.34342 0
M  V30 3546 C 327.944 -1.93447 -4.85155 0
M  V30 3547 H 329.638 -1.36238 -2.66608 0
M  V30 3548 H 327.184 -0.656534 -1.28163 0
M  V30 3549 H 329.137 0.548732 -4.17812 0
M  V30 3550 H 327.861 1.1125 -3.07068 0
M  V30 3551 H 326.52 -0.968693 -3.5357 0
M  V30 3552 H 326.168 1.09076 -4.91031 0
M  V30 3553 H 325.868 -0.384091 -5.86343 0
M  V30 3554 H 327.392 0.521958 -6.08365 0
M  V30 3555 H 328.806 -1.66908 -5.48466 0
M  V30 3556 H 327.203 -2.46018 -5.47353 0
M  V30 3557 H 328.273 -2.63466 -4.07079 0
M  V30 3558 N 329.616 1.39756 -0.72842 0
M  V30 3559 C 330.846 2.04651 -0.283117 0
M  V30 3560 C 331.254 1.5502 1.08469 0
M  V30 3561 O 330.597 0.707343 1.69536 0
M  V30 3562 C 330.659 3.58947 -0.199309 0
M  V30 3563 C 330.323 4.31525 -1.5045 0
M  V30 3564 C 331.32 4.5861 -2.44894 0
M  V30 3565 C 329.005 4.70195 -1.76698 0
M  V30 3566 C 330.999 5.23366 -3.63822 0
M  V30 3567 C 328.686 5.3468 -2.95906 0
M  V30 3568 C 329.684 5.61198 -3.89289 0
M  V30 3569 O 329.372 6.24347 -5.06404 0
M  V30 3570 H 329.104 0.664777 -0.122666 0
M  V30 3571 H 331.658 1.79913 -0.990987 0
M  V30 3572 H 329.888 3.82556 0.56461 0
M  V30 3573 H 331.577 4.0534 0.213125 0
M  V30 3574 H 332.343 4.29187 -2.25883 0
M  V30 3575 H 328.222 4.48916 -1.04859 0
M  V30 3576 H 331.766 5.4398 -4.36728 0
M  V30 3577 H 327.663 5.63524 -3.14819 0
M  V30 3578 H 328.431 6.42842 -5.06652 0
M  V30 3579 N 331.094 0.475555 1.50254 0
M  V30 3580 C 332.024 -0.30611 2.31485 0
M  V30 3581 C 333.005 -0.986228 1.38591 0
M  V30 3582 O 334.19 -0.982541 1.67511 0
M  V30 3583 C 331.32 -1.38588 3.1845 0
M  V30 3584 C 330.274 -0.827115 4.19932 0
M  V30 3585 C 329.6 -2.00551 4.95665 0
M  V30 3586 C 330.9 0.16463 5.2204 0
M  V30 3587 H 332.594 0.371866 2.97082 0
M  V30 3588 H 330.14 0.180282 1.42867 0
M  V30 3589 H 332.093 -1.94023 3.74076 0
M  V30 3590 H 330.817 -2.09269 2.50747 0
M  V30 3591 H 329.476 -0.294702 3.65414 0
M  V30 3592 H 329.124 -2.6994 4.2443 0
M  V30 3593 H 328.824 -1.63784 5.64313 0
M  V30 3594 H 330.348 -2.56468 5.54127 0
M  V30 3595 H 331.762 -0.300699 5.72511 0
M  V30 3596 H 330.159 0.446813 5.98434 0
M  V30 3597 H 331.229 1.08905 4.72512 0
M  V30 3598 N 332.573 -1.56217 0.208337 0
M  V30 3599 C 333.801 -2.02337 -0.43215 0
M  V30 3600 C 334.216 -1.08834 -1.54275 0
M  V30 3601 O 333.573 -0.0955462 -1.8225 0
M  V30 3602 C 333.624 -3.48072 -0.976138 0
M  V30 3603 O 333.345 -4.38007 0.0901621 0
M  V30 3604 C 334.846 -4.09773 -1.69119 0
M  V30 3605 H 332.066 -0.662385 -0.10718 0
M  V30 3606 H 334.61 -2.01966 0.320923 0
M  V30 3607 H 332.765 -3.49099 -1.67954 0
M  V30 3608 H 333.179 -5.23543 -0.316701 0
M  V30 3609 H 334.653 -5.13556 -2.02397 0
M  V30 3610 H 335.13 -3.53999 -2.59964 0
M  V30 3611 H 335.736 -4.12556 -1.03332 0
M  V30 3612 N 334.051 0.0651679 -1.57465 0
M  V30 3613 C 335.462 0.616213 -1.76238 0
M  V30 3614 C 335.813 1.7756 -0.834689 0
M  V30 3615 O 334.938 2.1639 -0.0204156 0
M  V30 3616 C 335.533 1.12462 -3.1959 0
M  V30 3617 C 334.092 1.62147 -3.39684 0
M  V30 3618 C 333.239 0.543739 -2.71917 0
M  V30 3619 H 336.19 -0.161022 -1.57881 0
M  V30 3620 H 336.211 1.99324 -3.24114 0
M  V30 3621 H 335.723 0.280592 -3.87084 0
M  V30 3622 H 333.824 2.48854 -2.77313 0
M  V30 3623 H 333.937 1.69385 -4.48158 0
M  V30 3624 H 332.301 0.990352 -2.34657 0
M  V30 3625 H 333.084 -0.290216 -3.42071 0
M  V30 3626 N 335.529 1.53961 0.336706 0
M  V30 3627 C 336.439 1.85432 1.43708 0
M  V30 3628 C 337.455 0.745053 1.57242 0
M  V30 3629 O 338.631 1.03804 1.72588 0
M  V30 3630 C 335.696 2.06349 2.78605 0
M  V30 3631 C 334.757 3.30191 2.74358 0
M  V30 3632 C 333.99 3.50101 4.02822 0
M  V30 3633 O 334.213 2.7371 5.00439 0
M  V30 3634 O 333.147 4.43547 4.06878 0
M  V30 3635 H 336.973 2.78975 1.20028 0
M  V30 3636 H 334.558 1.39701 0.52952 0
M  V30 3637 H 336.44 2.21513 3.58483 0
M  V30 3638 H 335.115 1.15995 3.02203 0
M  V30 3639 H 334.022 3.20425 1.93078 0
M  V30 3640 H 335.355 4.2056 2.55715 0
M  V30 3641 N 337.007 -0.598083 1.45811 0
M  V30 3642 C 338.255 -1.35413 1.50026 0
M  V30 3643 C 338.576 -1.94444 0.147177 0
M  V30 3644 O 337.846 -1.77701 -0.824571 0
M  V30 3645 H 336.426 -0.502727 0.552517 0
M  V30 3646 H 339.088 -0.701606 1.81834 0
M  V30 3647 H 338.184 -2.16871 2.2444 0
M  V30 3648 N 338.485 -1.33259 -0.841409 0
M  V30 3649 C 339.731 -1.25766 -1.59857 0
M  V30 3650 C 340.086 0.175602 -1.91597 0
M  V30 3651 O 339.379 1.117 -1.55672 0
M  V30 3652 C 339.573 -2.06381 -2.9179 0
M  V30 3653 C 339.402 -3.57401 -2.72937 0
M  V30 3654 C 338.172 -4.26718 -2.70628 0
M  V30 3655 C 340.37 -4.51786 -2.45753 0
M  V30 3656 N 338.352 -5.63705 -2.43125 0
M  V30 3657 C 339.723 -5.76643 -2.27777 0
M  V30 3658 C 341.778 -4.40898 -2.31329 0
M  V30 3659 C 340.481 -6.91842 -1.96841 0
M  V30 3660 C 342.507 -5.55911 -2.01786 0
M  V30 3661 C 341.869 -6.79776 -1.8462 0
M  V30 3662 H 337.968 -0.515406 -0.588117 0
M  V30 3663 H 340.552 -1.67772 -0.987955 0
M  V30 3664 H 338.723 -1.667 -3.50807 0
M  V30 3665 H 340.455 -1.90678 -3.56965 0
M  V30 3666 H 337.21 -3.78968 -2.84043 0
M  V30 3667 H 337.634 -6.35911 -2.32265 0
M  V30 3668 H 342.276 -3.45772 -2.43314 0
M  V30 3669 H 339.994 -7.86968 -1.83594 0
M  V30 3670 H 343.58 -5.49421 -1.91384 0
M  V30 3671 H 342.46 -7.67266 -1.62088 0
M  V30 3672 N 339.963 1.05934 -1.16686 0
M  V30 3673 C 341.188 1.83029 -0.975455 0
M  V30 3674 C 341.613 1.82096 0.471452 0
M  V30 3675 O 340.971 1.22443 1.33706 0
M  V30 3676 C 341.019 3.27372 -1.51195 0
M  V30 3677 O 340.123 4.06054 -0.720701 0
M  V30 3678 H 339.464 0.566194 -0.346872 0
M  V30 3679 H 341.994 1.33541 -1.55009 0
M  V30 3680 H 342.004 3.78186 -1.53099 0
M  V30 3681 H 340.679 3.27366 -2.56523 0
M  V30 3682 H 339.256 3.64812 -0.772458 0
M  V30 3683 N 341.441 0.965919 1.2453 0
M  V30 3684 C 342.371 0.513476 2.27784 0
M  V30 3685 C 343.352 -0.445974 1.6415 0
M  V30 3686 O 344.537 -0.342485 1.91156 0
M  V30 3687 C 341.667 -0.198839 3.4673 0
M  V30 3688 C 340.621 0.676456 4.2262 0
M  V30 3689 C 339.947 -0.167248 5.34438 0
M  V30 3690 C 341.247 1.96017 4.84123 0
M  V30 3691 H 342.941 1.3765 2.65881 0
M  V30 3692 H 340.487 0.663321 1.27813 0
M  V30 3693 H 342.44 -0.526567 4.18097 0
M  V30 3694 H 341.164 -1.0962 3.07654 0
M  V30 3695 H 339.823 0.98743 3.53052 0
M  V30 3696 H 339.471 -1.0647 4.91603 0
M  V30 3697 H 339.171 0.415181 5.86131 0
M  V30 3698 H 340.695 -0.489688 6.08633 0
M  V30 3699 H 342.109 1.69814 5.47573 0
M  V30 3700 H 340.506 2.48918 5.4604 0
M  V30 3701 H 341.576 2.65622 4.05676 0
M  V30 3702 N 342.919 -1.39368 0.735821 0
M  V30 3703 C 344.166 -2.00497 0.284123 0
M  V30 3704 C 344.494 -1.58387 -1.12889 0
M  V30 3705 O 343.749 -0.804359 -1.78406 0
M  V30 3706 C 344.048 -3.5583 0.334651 0
M  V30 3707 C 343.714 -4.17593 1.7008 0
M  V30 3708 C 342.376 -4.34176 2.07472 0
M  V30 3709 C 344.728 -4.51848 2.59775 0
M  V30 3710 C 342.056 -4.82304 3.34065 0
M  V30 3711 C 344.408 -5.01384 3.85741 0
M  V30 3712 C 343.072 -5.16175 4.23225 0
M  V30 3713 H 342.342 -0.73367 0.103968 0
M  V30 3714 H 344.989 -1.66683 0.942825 0
M  V30 3715 H 343.294 -3.89674 -0.407625 0
M  V30 3716 H 344.991 -4.00986 -0.0329927 0
M  V30 3717 H 341.581 -4.05087 1.40008 0
M  V30 3718 H 345.765 -4.38653 2.32157 0
M  V30 3719 H 341.021 -4.91941 3.63049 0
M  V30 3720 H 345.195 -5.26863 4.55399 0
M  V30 3721 H 342.822 -5.5323 5.21384 0
M  V30 3722 N 344.397 -0.483516 -1.5 0
M  V30 3723 C 345.327 0.293829 -2.31644 0
M  V30 3724 C 346.308 0.978864 -1.39112 0
M  V30 3725 O 347.493 0.973644 -1.68029 0
M  V30 3726 C 344.623 1.36897 -3.19181 0
M  V30 3727 C 343.577 0.804833 -4.20365 0
M  V30 3728 C 342.903 1.9792 -4.96721 0
M  V30 3729 C 344.203 -0.192313 -5.21946 0
M  V30 3730 H 345.897 -0.387616 -2.9688 0
M  V30 3731 H 343.443 -0.187856 -1.42769 0
M  V30 3732 H 345.396 1.92037 -3.751 0
M  V30 3733 H 344.12 2.07936 -2.51853 0
M  V30 3734 H 342.779 0.275319 -3.65565 0
M  V30 3735 H 342.427 2.67686 -4.25856 0
M  V30 3736 H 342.127 1.60789 -5.65173 0
M  V30 3737 H 343.651 2.53526 -5.55479 0
M  V30 3738 H 345.065 0.270333 -5.72662 0
M  V30 3739 H 343.462 -0.478543 -5.98189 0
M  V30 3740 H 344.532 -1.11409 -4.71928 0
M  V30 3741 N 345.875 1.56104 -0.216619 0
M  V30 3742 C 346.807 2.17339 0.72776 0
M  V30 3743 C 347.82 1.14109 1.16116 0
M  V30 3744 O 349.009 1.4111 1.09317 0
M  V30 3745 C 346.109 2.73818 1.99693 0
M  V30 3746 C 345.282 4.02168 1.71988 0
M  V30 3747 C 344.341 4.43259 2.83562 0
M  V30 3748 O 343.367 5.10257 2.52244 0
M  V30 3749 N 344.569 4.08535 4.12407 0
M  V30 3750 H 347.334 2.99005 0.203983 0
M  V30 3751 H 344.895 1.61861 -0.0354289 0
M  V30 3752 H 346.887 2.9828 2.73516 0
M  V30 3753 H 345.457 1.96483 2.43132 0
M  V30 3754 H 344.677 3.85612 0.818337 0
M  V30 3755 H 345.965 4.85907 1.50903 0
M  V30 3756 H 345.363 3.54687 4.40696 0
M  V30 3757 H 343.92 4.37901 4.8279 0
M  V30 3758 N 347.353 -0.0568162 1.57498 0
M  V30 3759 C 348.769 -0.411933 1.54192 0
M  V30 3760 C 348.969 -1.78287 0.938942 0
M  V30 3761 O 348.025 -2.46483 0.547919 0
M  V30 3762 C 349.338 -0.339244 2.9878 0
M  V30 3763 C 350.886 -0.418348 3.10192 0
M  V30 3764 C 351.361 -0.375407 4.56459 0
M  V30 3765 N 352.852 -0.435038 4.61153 0
M  V30 3766 C 353.587 -0.424265 5.71828 0
M  V30 3767 N 353.083 -0.367418 6.91825 0
M  V30 3768 N 354.876 -0.471938 5.60115 0
M  V30 3769 H 347.027 0.840684 1.95055 0
M  V30 3770 H 349.29 0.316987 0.893433 0
M  V30 3771 H 348.996 0.601742 3.46514 0
M  V30 3772 H 348.87 -1.14371 3.59443 0
M  V30 3773 H 351.257 -1.34976 2.62422 0
M  V30 3774 H 351.338 0.414962 2.52412 0
M  V30 3775 H 350.982 0.552219 5.04889 0
M  V30 3776 H 350.912 -1.22645 5.12119 0
M  V30 3777 H 353.403 -0.482612 3.74806 0
M  V30 3778 H 353.716 -0.363535 7.71944 0
M  V30 3779 H 352.061 -0.333879 6.94198 0
M  V30 3780 H 355.252 -0.514145 4.65268 0
M  V30 3781 H 355.425 -0.460073 6.46365 0
M  V30 3782 N 348.832 -1.54138 -0.328536 0
M  V30 3783 C 350.062 -1.75807 -1.08516 0
M  V30 3784 C 350.47 -0.50428 -1.82356 0
M  V30 3785 O 349.813 0.534451 -1.75754 0
M  V30 3786 C 349.875 -2.89423 -2.13248 0
M  V30 3787 C 349.539 -4.28504 -1.5885 0
M  V30 3788 C 350.536 -5.09536 -1.03289 0
M  V30 3789 C 348.221 -4.75034 -1.63243 0
M  V30 3790 C 350.215 -6.35206 -0.52845 0
M  V30 3791 C 347.902 -6.00672 -1.12411 0
M  V30 3792 C 348.9 -6.80592 -0.573062 0
M  V30 3793 O 348.588 -8.03867 -0.0723692 0
M  V30 3794 H 348.32 -0.590633 -0.328829 0
M  V30 3795 H 350.874 -2.01819 -0.381868 0
M  V30 3796 H 349.104 -2.5897 -2.87178 0
M  V30 3797 H 350.793 -2.98921 -2.74592 0
M  V30 3798 H 351.559 -4.74745 -0.99206 0
M  V30 3799 H 347.438 -4.12875 -2.05074 0
M  V30 3800 H 350.982 -6.97532 -0.0976774 0
M  V30 3801 H 346.879 -6.34955 -1.162 0
M  V30 3802 H 347.647 -8.18283 -0.188258 0
M  V30 3803 N 350.31 0.590341 -1.46126 0
M  V30 3804 C 351.54 1.37304 -1.54373 0
M  V30 3805 C 351.948 1.88332 -0.181071 0
M  V30 3806 O 351.291 1.63852 0.830559 0
M  V30 3807 C 351.353 2.6012 -2.48149 0
M  V30 3808 C 351.017 2.30613 -3.94546 0
M  V30 3809 C 352.014 1.89915 -4.83971 0
M  V30 3810 C 349.699 2.42993 -4.39613 0
M  V30 3811 C 351.693 1.61981 -6.16475 0
M  V30 3812 C 349.38 2.14672 -5.72153 0
M  V30 3813 C 350.378 1.7423 -6.60404 0
M  V30 3814 O 350.066 1.46251 -7.90485 0
M  V30 3815 H 349.798 0.426086 -0.524811 0
M  V30 3816 H 352.352 0.72539 -1.92165 0
M  V30 3817 H 350.582 3.27664 -2.05361 0
M  V30 3818 H 352.271 3.22182 -2.46887 0
M  V30 3819 H 353.037 1.79872 -4.50412 0
M  V30 3820 H 348.916 2.73435 -3.71153 0
M  V30 3821 H 352.46 1.30341 -6.85315 0
M  V30 3822 H 348.357 2.24337 -6.05263 0
M  V30 3823 H 349.125 1.6016 -8.02677 0
M  V30 3824 N 351.788 1.33704 0.83433 0
M  V30 3825 C 352.72 1.20172 1.9517 0
M  V30 3826 C 353.733 0.131572 1.62267 0
M  V30 3827 O 354.922 0.382406 1.74356 0
M  V30 3828 C 352.022 0.821716 3.28787 0
M  V30 3829 C 351.195 1.98446 3.89792 0
M  V30 3830 C 350.254 1.58469 5.01771 0
M  V30 3831 O 349.28 2.29968 5.20676 0
M  V30 3832 N 350.482 0.492291 5.78409 0
M  V30 3833 H 353.247 2.16429 2.07313 0
M  V30 3834 H 350.808 1.26509 1.0103 0
M  V30 3835 H 352.8 0.536291 4.01131 0
M  V30 3836 H 351.37 -0.0503058 3.1256 0
M  V30 3837 H 350.59 2.43526 3.09982 0
M  V30 3838 H 351.878 2.76236 4.27283 0
M  V30 3839 H 351.276 -0.102349 5.65607 0
M  V30 3840 H 349.833 0.266555 6.51255 0
M  V30 3841 N 353.266 -1.05314 1.17247 0
M  V30 3842 C 354.512 -1.78557 0.961513 0
M  V30 3843 C 354.845 -1.87419 -0.508697 0
M  V30 3844 O 354.12 -1.37307 -1.37757 0
M  V30 3845 C 354.403 -3.22514 1.60176 0
M  V30 3846 C 354.256 -3.21673 3.14399 0
M  V30 3847 C 355.575 -4.20318 1.30463 0
M  V30 3848 H 352.694 -0.6482 0.350723 0
M  V30 3849 H 355.336 -1.23102 1.44727 0
M  V30 3850 H 353.486 -3.69867 1.18871 0
M  V30 3851 H 355.158 -2.82405 3.64753 0
M  V30 3852 H 353.401 -2.60048 3.47214 0
M  V30 3853 H 354.072 -4.23271 3.54324 0
M  V30 3854 H 356.548 -3.81454 1.66229 0
M  V30 3855 H 355.424 -5.19289 1.77848 0
M  V30 3856 H 355.685 -4.41526 0.22521 0
M  V30 3857 N 354.744 -0.972509 -1.24016 0
M  V30 3858 C 355.99 -0.637978 -1.92504 0
M  V30 3859 C 356.323 0.825383 -1.75787 0
M  V30 3860 O 355.598 1.59442 -1.11393 0
M  V30 3861 C 355.881 -1.01942 -3.45369 0
M  V30 3862 C 355.734 -2.53983 -3.71231 0
M  V30 3863 C 357.053 -0.55751 -4.36555 0
M  V30 3864 H 354.172 -0.233248 -0.699117 0
M  V30 3865 H 356.814 -1.21238 -1.46292 0
M  V30 3866 H 354.964 -0.530656 -3.84859 0
M  V30 3867 H 356.636 -3.10374 -3.41271 0
M  V30 3868 H 354.879 -2.96968 -3.16216 0
M  V30 3869 H 355.55 -2.75723 -4.78206 0
M  V30 3870 H 358.026 -0.977029 -4.04467 0
M  V30 3871 H 356.902 -0.85292 -5.42233 0
M  V30 3872 H 357.163 0.542328 -4.38761 0
M  V30 3873 N 356.222 1.38976 -0.743202 0
M  V30 3874 C 357.172 2.27843 -0.084513 0
M  V30 3875 C 358.156 1.44677 0.704094 0
M  V30 3876 O 359.348 1.67511 0.571755 0
M  V30 3877 C 356.477 3.33466 0.815781 0
M  V30 3878 C 355.563 4.24095 0.0208844 0
M  V30 3879 N 355.954 4.95609 -1.0102 0
M  V30 3880 C 354.252 4.45303 0.249293 0
M  V30 3881 C 354.953 5.62287 -1.49024 0
M  V30 3882 N 353.929 5.37571 -0.807377 0
M  V30 3883 H 357.731 2.80593 -0.87436 0
M  V30 3884 H 355.245 1.51755 -0.578283 0
M  V30 3885 H 357.242 3.96008 1.30321 0
M  V30 3886 H 355.902 2.82276 1.6047 0
M  V30 3887 H 356.913 4.98849 -1.39176 0
M  V30 3888 H 353.59 4.0504 1.01237 0
M  V30 3889 H 354.98 6.29519 -2.34853 0
M  V30 3890 N 357.7 0.491464 1.49741 0
M  V30 3891 C 358.61 -0.296835 2.32715 0
M  V30 3892 C 359.626 -0.976536 1.44013 0
M  V30 3893 O 360.802 -0.960023 1.77047 0
M  V30 3894 C 357.867 -1.35288 3.19215 0
M  V30 3895 C 356.928 -0.687632 4.23757 0
M  V30 3896 C 356.161 -1.69336 5.06123 0
M  V30 3897 O 356.384 -2.92219 4.89861 0
M  V30 3898 O 355.318 -1.25394 5.88693 0
M  V30 3899 H 359.144 0.382048 3.01287 0
M  V30 3900 H 356.729 0.252953 1.47243 0
M  V30 3901 H 358.611 -1.96411 3.72828 0
M  V30 3902 H 357.286 -2.01487 2.53347 0
M  V30 3903 H 356.193 -0.0369159 3.74082 0
M  V30 3904 H 357.526 -0.0682566 4.92153 0
M  V30 3905 N 359.178 -1.55987 0.224894 0
M  V30 3906 C 360.426 -1.97998 -0.405099 0
M  V30 3907 C 360.747 -1.11387 -1.60056 0
M  V30 3908 O 360.017 -0.191645 -1.9496 0
M  V30 3909 H 358.597 -0.731235 -0.152658 0
M  V30 3910 H 361.259 -1.92279 0.318567 0
M  V30 3911 H 360.355 -3.03463 -0.729167 0
M  V30 3912 N 360.656 0.0484629 -1.57525 0
M  V30 3913 C 361.619 1.03956 -2.04269 0
M  V30 3914 C 362.619 1.30211 -0.943496 0
M  V30 3915 O 363.809 1.25539 -1.20771 0
M  V30 3916 C 360.941 2.37742 -2.44319 0
M  V30 3917 H 362.134 0.636182 -2.93075 0
M  V30 3918 H 359.687 0.294811 -1.53494 0
M  V30 3919 H 360.422 2.82866 -1.5861 0
M  V30 3920 H 360.207 2.20021 -3.24551 0
M  V30 3921 H 361.697 3.08936 -2.80978 0
M  V30 3922 N 362.134 1.5431 0.320358 0
M  V30 3923 C 363.044 1.86946 1.41734 0
M  V30 3924 C 364.06 0.761689 1.56443 0
M  V30 3925 O 365.236 1.05629 1.71477 0
M  V30 3926 C 362.301 2.09293 2.76401 0
M  V30 3927 C 361.362 3.33082 2.70841 0
M  V30 3928 C 360.595 3.54353 3.99086 0
M  V30 3929 O 360.818 2.79002 4.97508 0
M  V30 3930 O 359.752 4.47838 4.0215 0
M  V30 3931 H 363.578 2.80232 1.17062 0
M  V30 3932 H 361.163 1.40255 0.514673 0
M  V30 3933 H 363.045 2.25303 3.56113 0
M  V30 3934 H 361.72 1.19194 3.00956 0
M  V30 3935 H 360.627 3.22454 1.89668 0
M  V30 3936 H 361.96 4.23249 2.5124 0
M  V30 3937 N 363.613 -0.582584 1.46437 0
M  V30 3938 C 364.543 -1.70187 1.59871 0
M  V30 3939 C 365.524 -1.64066 0.449042 0
M  V30 3940 O 366.709 -1.82081 0.6753 0
M  V30 3941 C 363.839 -3.08827 1.58881 0
M  V30 3942 C 362.793 -3.29779 2.72819 0
M  V30 3943 C 362.119 -4.68947 2.5689 0
M  V30 3944 C 363.419 -3.17601 4.1464 0
M  V30 3945 H 365.113 -1.592 2.53566 0
M  V30 3946 H 362.659 -0.764472 1.22032 0
M  V30 3947 H 364.612 -3.86951 1.66873 0
M  V30 3948 H 363.336 -3.20713 0.617306 0
M  V30 3949 H 361.995 -2.54054 2.64296 0
M  V30 3950 H 361.643 -4.77599 1.57823 0
M  V30 3951 H 361.343 -4.83919 3.33312 0
M  V30 3952 H 362.867 -5.4924 2.66773 0
M  V30 3953 H 364.281 -3.8557 4.24274 0
M  V30 3954 H 362.678 -3.44094 4.9165 0
M  V30 3955 H 363.748 -2.14681 4.34788 0
M  V30 3956 N 365.091 -1.34144 -0.827227 0
M  V30 3957 C 366.507 -1.13732 -1.11969 0
M  V30 3958 C 366.707 0.0640463 -2.01398 0
M  V30 3959 O 365.763 0.740856 -2.41387 0
M  V30 3960 C 367.076 -2.43047 -1.77055 0
M  V30 3961 C 368.624 -2.49063 -1.89569 0
M  V30 3962 C 369.099 -3.78369 -2.58072 0
M  V30 3963 N 370.59 -3.79505 -2.65575 0
M  V30 3964 C 371.325 -4.76274 -3.19297 0
M  V30 3965 N 370.821 -5.83424 -3.73616 0
M  V30 3966 N 372.614 -4.63735 -3.17658 0
M  V30 3967 H 364.765 -2.11126 -0.232296 0
M  V30 3968 H 367.028 -0.933424 -0.165602 0
M  V30 3969 H 366.734 -3.31025 -1.18807 0
M  V30 3970 H 366.608 -2.56066 -2.76966 0
M  V30 3971 H 368.995 -1.61527 -2.46968 0
M  V30 3972 H 369.076 -2.39975 -0.885745 0
M  V30 3973 H 368.72 -4.66293 -2.01329 0
M  V30 3974 H 368.65 -3.84737 -3.59562 0
M  V30 3975 H 371.141 -3.02074 -2.27068 0
M  V30 3976 H 371.454 -6.53282 -4.12846 0
M  V30 3977 H 369.799 -5.87143 -3.71871 0
M  V30 3978 H 372.99 -3.79177 -2.74486 0
M  V30 3979 H 373.163 -5.39318 -3.59221 0
M  V30 3980 N 366.569 1.04691 -1.17803 0
M  V30 3981 C 367.519 2.10856 -0.867391 0
M  V30 3982 C 368.503 1.601 0.160206 0
M  V30 3983 O 369.695 1.76948 -0.042947 0
M  V30 3984 C 366.824 3.411 -0.388012 0
M  V30 3985 C 365.91 3.9864 -1.44732 0
M  V30 3986 N 366.301 4.30075 -2.66212 0
M  V30 3987 C 364.599 4.26439 -1.30637 0
M  V30 3988 C 365.3 4.76033 -3.34317 0
M  V30 3989 N 364.276 4.76462 -2.61696 0
M  V30 3990 H 368.078 2.33029 -1.79094 0
M  V30 3991 H 365.592 1.22386 -1.0675 0
M  V30 3992 H 367.589 4.16641 -0.146994 0
M  V30 3993 H 366.249 3.20357 0.529271 0
M  V30 3994 H 367.26 4.19917 -3.03134 0
M  V30 3995 H 363.937 4.15056 -0.451129 0
M  V30 3996 H 365.327 5.09427 -4.38103 0
M  V30 3997 N 368.047 0.979072 1.23499 0
M  V30 3998 C 368.977 0.537606 2.27227 0
M  V30 3999 C 369.958 -0.428539 1.64613 0
M  V30 4000 O 371.143 -0.322191 1.91509 0
M  V30 4001 C 368.273 -0.162052 3.46922 0
M  V30 4002 C 367.227 0.721242 4.21879 0
M  V30 4003 C 366.553 -0.110555 5.34586 0
M  V30 4004 C 367.853 2.01141 4.82016 0
M  V30 4005 H 369.547 1.40462 2.64406 0
M  V30 4006 H 367.093 0.67684 1.27102 0
M  V30 4007 H 369.046 -0.482192 4.18632 0
M  V30 4008 H 367.77 -1.06351 3.08799 0
M  V30 4009 H 366.429 1.02482 3.51984 0
M  V30 4010 H 366.077 -1.0125 4.92704 0
M  V30 4011 H 365.777 0.477325 5.85658 0
M  V30 4012 H 367.301 -0.425107 6.09118 0
M  V30 4013 H 368.715 1.75612 5.45741 0
M  V30 4014 H 367.112 2.54695 5.43369 0
M  V30 4015 H 368.182 2.69909 4.02836 0
M  V30 4016 N 369.525 -1.3858 0.750561 0
M  V30 4017 C 370.802 -1.94231 0.231009 0
M  V30 4018 C 371.182 -1.68611 -1.27018 0
M  V30 4019 O 370.53 -1.02296 -2.04323 0
M  V30 4020 C 370.74 -3.44123 0.581428 0
M  V30 4021 C 372.088 -4.2116 0.539389 0
M  V30 4022 O 373.112 -3.52391 0.519541 0
M  V30 4023 O 371.971 -5.43749 0.54765 0
M  V30 4024 H 369.065 -0.825639 0.0474263 0
M  V30 4025 H 371.611 -1.4799 0.830478 0
M  V30 4026 H 370.383 -3.56267 1.61833 0
M  V30 4027 H 370.006 -3.97573 -0.0462047 0
M  V30 4028 N 371.003 -0.499398 -1.49478 0
M  V30 4029 C 372.231 0.0425456 -2.06856 0
M  V30 4030 C 372.646 1.30964 -1.35992 0
M  V30 4031 O 372.003 1.77172 -0.437762 0
M  V30 4032 C 372.054 0.301735 -3.60239 0
M  V30 4033 O 371.775 -0.915127 -4.28436 0
M  V30 4034 C 373.276 0.887499 -4.34325 0
M  V30 4035 H 370.496 -0.0197482 -0.670709 0
M  V30 4036 H 373.04 -0.696297 -1.92281 0
M  V30 4037 H 371.195 0.990556 -3.74522 0
M  V30 4038 H 371.609 -0.676993 -5.20113 0
M  V30 4039 H 373.083 1.01845 -5.42523 0
M  V30 4040 H 373.56 1.88488 -3.96698 0
M  V30 4041 H 374.166 0.236196 -4.24644 0
M  V30 4042 N 372.481 1.55866 -0.233164 0
M  V30 4043 C 373.413 2.18099 0.704668 0
M  V30 4044 C 374.426 1.15334 1.14899 0
M  V30 4045 O 375.615 1.42262 1.07814 0
M  V30 4046 C 372.715 2.7592 1.96777 0
M  V30 4047 C 371.888 4.03969 1.67713 0
M  V30 4048 C 370.947 4.46242 2.78845 0
M  V30 4049 O 369.973 5.12903 2.46818 0
M  V30 4050 N 371.175 4.12886 4.08051 0
M  V30 4051 H 373.94 2.99205 0.172258 0
M  V30 4052 H 371.501 1.61815 -0.0525945 0
M  V30 4053 H 373.493 3.01165 2.70337 0
M  V30 4054 H 372.063 1.99051 2.41034 0
M  V30 4055 H 371.283 3.86459 0.777391 0
M  V30 4056 H 372.571 4.8748 1.4574 0
M  V30 4057 H 371.969 3.59342 4.3691 0
M  V30 4058 H 370.526 4.42997 4.78118 0
M  V30 4059 N 373.959 -0.0401083 1.57549 0
M  V30 4060 C 375.205 -0.734211 1.89043 0
M  V30 4061 C 375.538 -1.75591 0.829535 0
M  V30 4062 O 374.813 -1.93868 -0.156706 0
M  V30 4063 C 375.096 -1.41374 3.31188 0
M  V30 4064 C 374.949 -0.406299 4.47961 0
M  V30 4065 C 376.268 -2.35061 3.72068 0
M  V30 4066 H 373.387 -0.265447 0.687537 0
M  V30 4067 H 376.029 0.00294087 1.9 0
M  V30 4068 H 374.179 -2.04206 3.30503 0
M  V30 4069 H 375.851 0.219255 4.60779 0
M  V30 4070 H 374.094 0.275485 4.32924 0
M  V30 4071 H 374.765 -0.920022 5.44279 0
M  V30 4072 H 377.241 -1.82282 3.74049 0
M  V30 4073 H 376.117 -2.79593 4.72355 0
M  V30 4074 H 376.378 -3.21258 3.0372 0
M  V30 4075 N 375.437 -1.54477 -0.31217 0
M  V30 4076 C 376.369 -1.81011 -1.40598 0
M  V30 4077 C 377.382 -0.692546 -1.47335 0
M  V30 4078 O 378.571 -0.969847 -1.49854 0
M  V30 4079 C 375.671 -1.92307 -2.79054 0
M  V30 4080 C 374.844 -3.22594 -2.95384 0
M  V30 4081 C 373.903 -3.24448 -4.1427 0
M  V30 4082 O 372.929 -3.98035 -4.06887 0
M  V30 4083 N 374.131 -2.49042 -5.24365 0
M  V30 4084 H 376.896 -2.75408 -1.18196 0
M  V30 4085 H 374.457 -1.53914 -0.502202 0
M  V30 4086 H 376.449 -1.90962 -3.56813 0
M  V30 4087 H 375.019 -1.04955 -2.94454 0
M  V30 4088 H 374.239 -3.36806 -2.04831 0
M  V30 4089 H 375.527 -4.08593 -3.03198 0
M  V30 4090 H 374.925 -1.88867 -5.33241 0
M  V30 4091 H 373.482 -2.53463 -6.005 0
M  V30 4092 N 376.915 0.57481 -1.46744 0
M  V30 4093 C 378.331 0.898981 -1.31873 0
M  V30 4094 C 378.531 1.99313 -0.29605 0
M  V30 4095 O 377.587 2.50728 0.298621 0
M  V30 4096 C 378.9 1.30886 -2.7072 0
M  V30 4097 C 380.448 1.42127 -2.78871 0
M  V30 4098 C 380.923 1.86478 -4.18318 0
M  V30 4099 N 382.414 1.93658 -4.20774 0
M  V30 4100 C 383.149 2.29267 -5.2557 0
M  V30 4101 N 382.645 2.63612 -6.40688 0
M  V30 4102 N 384.438 2.29889 -5.1294 0
M  V30 4103 H 376.589 -0.147839 -2.11885 0
M  V30 4104 H 378.852 -0.00347013 -0.947994 0
M  V30 4105 H 378.558 0.578853 -3.46904 0
M  V30 4106 H 378.432 2.26874 -3.01343 0
M  V30 4107 H 380.819 2.14213 -2.0297 0
M  V30 4108 H 380.9 0.443705 -2.51922 0
M  V30 4109 H 380.544 1.14968 -4.94717 0
M  V30 4110 H 380.474 2.85207 -4.42679 0
M  V30 4111 H 382.965 1.69574 -3.37718 0
M  V30 4112 H 383.278 2.89759 -7.16421 0
M  V30 4113 H 381.623 2.61232 -6.44036 0
M  V30 4114 H 384.814 2.02485 -4.22039 0
M  V30 4115 H 384.987 2.57312 -5.94722 0
M  V30 4116 N 378.394 1.34581 0.820102 0
M  V30 4117 C 379.634 1.28448 1.58998 0
M  V30 4118 C 379.998 -0.142883 1.91468 0
M  V30 4119 O 381.199 -0.328422 2.66786 0
M  V30 4120 C 379.47 2.153 2.85273 0
M  V30 4121 S 381.029 2.26548 3.75794 0
M  V30 4122 H 377.847 0.456685 0.54494 0
M  V30 4123 H 380.449 1.69825 0.968487 0
M  V30 4124 H 379.153 3.18008 2.59421 0
M  V30 4125 H 378.684 1.7483 3.52417 0
M  V30 4126 H 380.699 1.44034 4.74835 0
M  V30 4127 N 379.872 -1.04064 1.18357 0
M  V30 4128 C 380.782 -2.15569 0.925596 0
M  V30 4129 C 381.798 -1.7365 -0.110295 0
M  V30 4130 O 382.974 -2.01273 0.0716218 0
M  V30 4131 C 380.039 -3.43704 0.454836 0
M  V30 4132 C 379.1 -4.00004 1.55869 0
M  V30 4133 C 378.333 -5.22023 1.1103 0
M  V30 4134 O 378.556 -5.70392 -0.0309756 0
M  V30 4135 O 377.49 -5.70856 1.90805 0
M  V30 4136 H 381.316 -2.40187 1.8586 0
M  V30 4137 H 378.901 -1.1402 0.965394 0
M  V30 4138 H 380.783 -4.20923 0.200382 0
M  V30 4139 H 379.458 -3.20559 -0.449876 0
M  V30 4140 H 378.365 -3.24172 1.86716 0
M  V30 4141 H 379.698 -4.2749 2.43953 0
M  V30 4142 N 381.35 -0.985608 -1.22978 0
M  V30 4143 C 382.627 -0.573599 -1.87001 0
M  V30 4144 C 383.007 0.949213 -1.88555 0
M  V30 4145 O 382.355 1.82811 -1.37086 0
M  V30 4146 C 382.565 -1.18564 -3.28243 0
M  V30 4147 C 383.913 -1.28163 -4.04796 0
M  V30 4148 O 384.937 -1.13949 -3.37482 0
M  V30 4149 O 383.796 -1.50832 -5.25273 0
M  V30 4150 H 380.89 -0.193868 -0.803955 0
M  V30 4151 H 383.436 -1.08102 -1.30813 0
M  V30 4152 H 382.208 -2.22758 -3.21706 0
M  V30 4153 H 381.831 -0.663363 -3.92027 0
M  V30 4154 N 382.828 1.3818 -0.7579 0
M  V30 4155 C 384.077 1.99261 -0.312744 0
M  V30 4156 C 384.39 1.60846 1.11301 0
M  V30 4157 O 385.596 2.14929 1.65885 0
M  V30 4158 C 384.052 3.56294 -0.50821 0
M  V30 4159 C 383.66 4.03657 -1.94333 0
M  V30 4160 C 385.404 4.24313 -0.125982 0
M  V30 4161 C 383.311 5.53347 -2.08712 0
M  V30 4162 H 382.241 0.745456 -0.113185 0
M  V30 4163 H 384.892 1.57889 -0.935056 0
M  V30 4164 H 383.274 3.95575 0.183353 0
M  V30 4165 H 384.448 3.75655 -2.66871 0
M  V30 4166 H 382.763 3.48376 -2.28086 0
M  V30 4167 H 385.36 5.34279 -0.212125 0
M  V30 4168 H 385.703 4.05962 0.921964 0
M  V30 4169 H 386.236 3.90285 -0.769563 0
M  V30 4170 H 382.975 5.76607 -3.11777 0
M  V30 4171 H 382.495 5.83078 -1.4064 0
M  V30 4172 H 384.174 6.19111 -1.87912 0
M  V30 4173 N 384.306 0.507319 1.49211 0
M  V30 4174 C 385.236 -0.256939 2.32082 0
M  V30 4175 C 386.217 -0.956609 1.40652 0
M  V30 4176 O 387.402 -0.946788 1.69557 0
M  V30 4177 C 384.532 -1.31802 3.21318 0
M  V30 4178 C 383.486 -0.737855 4.21592 0
M  V30 4179 C 382.812 -1.89992 4.99807 0
M  V30 4180 C 384.112 0.275325 5.21574 0
M  V30 4181 H 385.806 0.434798 2.96226 0
M  V30 4182 H 383.352 0.210546 1.42452 0
M  V30 4183 H 385.305 -1.86045 3.78107 0
M  V30 4184 H 384.029 -2.03903 2.5513 0
M  V30 4185 H 382.688 -0.217126 3.65956 0
M  V30 4186 H 382.336 -2.60877 4.30061 0
M  V30 4187 H 382.036 -1.51777 5.6766 0
M  V30 4188 H 383.56 -2.44657 5.59442 0
M  V30 4189 H 384.974 -0.179193 5.7302 0
M  V30 4190 H 383.371 0.573649 5.97352 0
M  V30 4191 H 384.441 1.18903 4.70096 0
M  V30 4192 N 385.784 -1.5574 0.241426 0
M  V30 4193 C 386.716 -2.18469 -0.693091 0
M  V30 4194 C 387.729 -1.15942 -1.14286 0
M  V30 4195 O 388.918 -1.42832 -1.07058 0
M  V30 4196 C 386.018 -2.7696 -1.95311 0
M  V30 4197 C 385.191 -4.04853 -1.65568 0
M  V30 4198 C 384.25 -4.47715 -2.76474 0
M  V30 4199 O 383.276 -5.14205 -2.44094 0
M  V30 4200 N 384.478 -4.15044 -4.05855 0
M  V30 4201 H 387.243 -2.99292 -0.156388 0
M  V30 4202 H 384.804 -1.61784 0.0611752 0
M  V30 4203 H 386.796 -3.02594 -2.68736 0
M  V30 4204 H 385.366 -2.00326 -2.39975 0
M  V30 4205 H 384.586 -3.86865 -0.756886 0
M  V30 4206 H 385.874 -4.88246 -1.43153 0
M  V30 4207 H 385.272 -3.61654 -4.34998 0
M  V30 4208 H 383.829 -4.45526 -4.75762 0
M  V30 4209 N 387.262 0.0317525 -1.57568 0
M  V30 4210 C 388.194 1.06073 -2.03178 0
M  V30 4211 C 389.207 1.32627 -0.944132 0
M  V30 4212 O 390.396 1.30162 -1.22148 0
M  V30 4213 C 387.496 2.40297 -2.38978 0
M  V30 4214 C 386.669 2.33137 -3.70089 0
M  V30 4215 C 385.728 3.49787 -3.9311 0
M  V30 4216 O 384.754 3.29403 -4.64201 0
M  V30 4217 N 385.956 4.71562 -3.38541 0
M  V30 4218 H 388.721 0.672006 -2.92069 0
M  V30 4219 H 386.282 0.219745 -1.60402 0
M  V30 4220 H 388.274 3.1705 -2.51518 0
M  V30 4221 H 386.844 2.71024 -1.55771 0
M  V30 4222 H 386.064 1.415 -3.67928 0
M  V30 4223 H 387.352 2.25493 -4.56104 0
M  V30 4224 H 386.75 4.91024 -2.80912 0
M  V30 4225 H 385.307 5.45689 -3.56464 0
M  V30 4226 N 388.74 1.54641 0.303973 0
M  V30 4227 C 389.67 1.88386 1.3796 0
M  V30 4228 C 390.651 0.742485 1.5304 0
M  V30 4229 O 391.836 0.997959 1.66597 0
M  V30 4230 C 388.966 2.12854 2.74427 0
M  V30 4231 C 387.92 3.28702 2.74115 0
M  V30 4232 C 387.246 3.38582 4.13844 0
M  V30 4233 C 388.546 4.65881 2.3612 0
M  V30 4234 H 390.24 2.78474 1.09966 0
M  V30 4235 H 387.786 1.33988 0.527556 0
M  V30 4236 H 389.739 2.35047 3.49758 0
M  V30 4237 H 388.463 1.19535 3.03939 0
M  V30 4238 H 387.122 3.06428 2.0124 0
M  V30 4239 H 386.77 2.42784 4.40528 0
M  V30 4240 H 386.47 4.16453 4.14537 0
M  V30 4241 H 387.994 3.63031 4.90959 0
M  V30 4242 H 389.408 4.87823 3.01167 0
M  V30 4243 H 387.805 5.46444 2.48031 0
M  V30 4244 H 388.875 4.66799 1.3125 0
M  V30 4245 N 390.218 -0.567019 1.47046 0
M  V30 4246 C 391.15 -1.68985 1.54844 0
M  V30 4247 C 392.163 -1.56869 0.435431 0
M  V30 4248 O 393.352 -1.64006 0.70457 0
M  V30 4249 C 390.452 -3.07373 1.42742 0
M  V30 4250 C 389.625 -3.45339 2.6844 0
M  V30 4251 C 388.684 -4.62849 2.50314 0
M  V30 4252 O 387.71 -4.67922 3.24095 0
M  V30 4253 N 388.912 -5.58726 1.57499 0
M  V30 4254 H 391.677 -1.62745 2.51663 0
M  V30 4255 H 389.238 -0.753411 1.43302 0
M  V30 4256 H 391.23 -3.83803 1.28365 0
M  V30 4257 H 389.8 -3.07893 0.540445 0
M  V30 4258 H 389.02 -2.58455 2.97648 0
M  V30 4259 H 390.308 -3.67476 3.51907 0
M  V30 4260 H 389.706 -5.57376 0.966876 0
M  V30 4261 H 388.263 -6.34523 1.49078 0
M  V30 4262 N 391.696 -1.35014 -0.812953 0
M  V30 4263 C 392.659 -1.27292 -1.90602 0
M  V30 4264 C 393.659 -0.185817 -1.59723 0
M  V30 4265 O 394.849 -0.439102 -1.68575 0
M  V30 4266 C 391.981 -0.967676 -3.26877 0
M  V30 4267 H 393.174 -2.24479 -1.9887 0
M  V30 4268 H 390.727 -1.19446 -1.00808 0
M  V30 4269 H 391.462 0.0005954 -3.243 0
M  V30 4270 H 391.247 -1.75412 -3.50675 0
M  V30 4271 H 392.737 -0.939085 -4.06904 0
M  V30 4272 N 393.175 1.03435 -1.18907 0
M  V30 4273 C 394.421 1.77005 -0.989798 0
M  V30 4274 C 394.754 1.88205 0.478816 0
M  V30 4275 O 394.029 1.39481 1.35556 0
M  V30 4276 C 394.312 3.19925 -1.65287 0
M  V30 4277 C 394.165 3.1663 -3.19477 0
M  V30 4278 C 395.484 4.18189 -1.37134 0
M  V30 4279 H 392.603 0.642538 -0.360991 0
M  V30 4280 H 395.245 1.20784 -1.46667 0
M  V30 4281 H 393.395 3.67929 -1.24741 0
M  V30 4282 H 395.067 2.76567 -3.692 0
M  V30 4283 H 393.31 2.54491 -3.51307 0
M  V30 4284 H 393.981 4.1758 -3.61013 0
M  V30 4285 H 396.457 3.78761 -1.72276 0
M  V30 4286 H 395.333 5.16394 -1.86087 0
M  V30 4287 H 395.594 4.41112 -0.295424 0
M  V30 4288 N 394.653 0.992116 1.22453 0
M  V30 4289 C 395.899 0.668523 1.91464 0
M  V30 4290 C 396.232 -0.797313 1.77078 0
M  V30 4291 O 395.507 -1.5765 1.13916 0
M  V30 4292 C 395.79 1.07424 3.43703 0
M  V30 4293 C 395.643 2.59857 3.67143 0
M  V30 4294 C 396.962 0.626891 4.35612 0
M  V30 4295 H 394.081 0.244341 0.695318 0
M  V30 4296 H 396.723 1.2355 1.44345 0
M  V30 4297 H 394.873 0.591816 3.83966 0
M  V30 4298 H 396.545 3.15764 3.3629 0
M  V30 4299 H 394.788 3.01961 3.11451 0
M  V30 4300 H 395.459 2.83296 4.73759 0
M  V30 4301 H 397.935 1.04125 4.02861 0
M  V30 4302 H 396.811 0.939076 5.40807 0
M  V30 4303 H 397.072 -0.472457 4.39568 0
M  V30 4304 N 396.131 -1.37776 0.765217 0
M  V30 4305 C 397.542 -1.82521 0.392819 0
M  V30 4306 C 397.893 -1.63789 -1.08017 0
M  V30 4307 O 397.018 -1.14542 -1.83601 0
M  V30 4308 C 397.613 -3.31358 0.706214 0
M  V30 4309 C 396.172 -3.74406 0.386952 0
M  V30 4310 C 395.319 -2.60394 0.953422 0
M  V30 4311 H 398.27 -1.2634 0.960412 0
M  V30 4312 H 398.291 -3.80498 -0.0114706 0
M  V30 4313 H 397.803 -3.44959 1.77833 0
M  V30 4314 H 395.904 -3.66377 -0.678112 0
M  V30 4315 H 396.017 -4.70749 0.890636 0
M  V30 4316 H 394.381 -2.51878 0.378064 0
M  V30 4317 H 395.164 -2.76791 2.03081 0
M  V30 4318 N 397.609 -0.515225 -1.4894 0
M  V30 4319 C 398.541 0.292481 -2.27326 0
M  V30 4320 C 399.554 0.917838 -1.3446 0
M  V30 4321 O 400.743 0.798772 -1.5963 0
M  V30 4322 C 397.843 1.42803 -3.07344 0
M  V30 4323 C 397.016 0.907347 -4.27885 0
M  V30 4324 C 396.075 1.92222 -4.89834 0
M  V30 4325 O 395.101 1.48506 -5.49486 0
M  V30 4326 N 396.303 3.25355 -4.80754 0
M  V30 4327 H 399.068 -0.379721 -2.97285 0
M  V30 4328 H 396.629 -0.348638 -1.58102 0
M  V30 4329 H 398.621 2.10481 -3.45658 0
M  V30 4330 H 397.191 2.00414 -2.39902 0
M  V30 4331 H 396.411 0.0550218 -3.94162 0
M  V30 4332 H 397.699 0.538108 -5.05946 0
M  V30 4333 H 397.097 3.6355 -4.33414 0
M  V30 4334 H 395.654 3.88707 -5.23211 0
M  V30 4335 N 399.087 1.5561 -0.249682 0
M  V30 4336 C 400.336 1.98187 0.37479 0
M  V30 4337 C 400.649 1.14111 1.58865 0
M  V30 4338 O 401.855 1.46714 2.28445 0
M  V30 4339 C 400.311 3.52661 0.718192 0
M  V30 4340 C 399.919 4.45481 -0.474428 0
M  V30 4341 C 401.663 4.03888 1.3067 0
M  V30 4342 C 399.57 5.91303 -0.107026 0
M  V30 4343 H 398.5 0.740159 0.143808 0
M  V30 4344 H 401.151 1.80125 -0.350336 0
M  V30 4345 H 399.533 3.66429 1.50152 0
M  V30 4346 H 400.707 4.43473 -1.25172 0
M  V30 4347 H 399.022 4.04751 -0.978052 0
M  V30 4348 H 401.619 5.10358 1.59496 0
M  V30 4349 H 401.962 3.51401 2.23211 0
M  V30 4350 H 402.495 3.93457 0.586211 0
M  V30 4351 H 399.234 6.47833 -0.999642 0
M  V30 4352 H 398.754 5.9644 0.634013 0
M  V30 4353 H 400.433 6.46258 0.309807 0
M  V30 4354 N 400.565 -0.0233959 1.57583 0
M  V30 4355 C 401.842 -0.748794 1.807 0
M  V30 4356 C 402.222 -1.9327 0.849106 0
M  V30 4357 O 401.57 -2.28247 -0.107468 0
M  V30 4358 C 401.78 -1.17651 3.28571 0
M  V30 4359 C 403.128 -1.59008 3.93702 0
M  V30 4360 O 404.152 -1.27094 3.32755 0
M  V30 4361 O 403.011 -2.18264 5.01022 0
M  V30 4362 H 400.105 -0.362578 0.743281 0
M  V30 4363 H 402.651 0.000261958 1.697 0
M  V30 4364 H 401.423 -0.331603 3.89892 0
M  V30 4365 H 401.046 -1.98541 3.44481 0
M  V30 4366 N 402.043 -1.548 -0.295768 0
M  V30 4367 C 402.976 -1.81003 -1.38972 0
M  V30 4368 C 403.954 -0.661544 -1.48534 0
M  V30 4369 O 405.138 -0.902074 -1.65514 0
M  V30 4370 C 402.265 -1.95141 -2.76835 0
M  V30 4371 C 401.311 -3.17592 -2.84671 0
M  V30 4372 S 402.144 -4.75531 -2.46232 0
M  V30 4373 C 403.3 -4.92613 -3.86114 0
M  V30 4374 H 403.533 -2.73507 -1.16537 0
M  V30 4375 H 401.066 -1.46278 -0.494168 0
M  V30 4376 H 403.024 -2.03972 -3.56238 0
M  V30 4377 H 401.685 -1.03565 -2.96535 0
M  V30 4378 H 400.878 -3.24303 -3.85803 0
M  V30 4379 H 400.48 -3.07235 -2.13267 0
M  V30 4380 H 402.772 -4.76957 -4.81164 0
M  V30 4381 H 403.715 -5.94698 -3.8437 0
M  V30 4382 H 404.123 -4.2073 -3.76359 0
M  V30 4383 N 403.521 0.559213 -1.47345 0
M  V30 4384 C 404.431 1.69388 -1.62311 0
M  V30 4385 C 405.447 1.6648 -0.505993 0
M  V30 4386 O 406.623 1.85964 -0.773262 0
M  V30 4387 C 403.688 3.05894 -1.63185 0
M  V30 4388 C 402.749 3.19885 -2.86307 0
M  V30 4389 C 401.982 4.49879 -2.87131 0
M  V30 4390 O 402.205 5.35217 -1.97229 0
M  V30 4391 O 401.139 4.67618 -3.78968 0
M  V30 4392 H 404.965 1.59706 -2.58317 0
M  V30 4393 H 402.55 0.728989 -1.30407 0
M  V30 4394 H 404.432 3.87133 -1.66451 0
M  V30 4395 H 403.107 3.15964 -0.70345 0
M  V30 4396 H 402.014 2.38052 -2.88587 0
M  V30 4397 H 403.347 3.14718 -3.78435 0
M  V30 4398 N 404.999 1.35443 0.805782 0
M  V30 4399 C 406.247 1.28507 1.55982 0
M  V30 4400 C 406.568 -0.140046 1.94496 0
M  V30 4401 O 405.838 -1.07666 1.63661 0
M  V30 4402 H 404.418 0.472676 0.578434 0
M  V30 4403 H 407.08 1.69555 0.961098 0
M  V30 4404 H 406.176 1.90148 2.47488 0
M  V30 4405 N 406.477 -1.02803 1.19454 0
M  V30 4406 C 407.754 -1.73299 0.907013 0
M  V30 4407 C 408.134 -2.02772 -0.587086 0
M  V30 4408 O 407.482 -1.68304 -1.54551 0
M  V30 4409 C 407.692 -3.00912 1.76785 0
M  V30 4410 C 409.04 -3.74403 2.00268 0
M  V30 4411 O 410.064 -3.10841 1.73943 0
M  V30 4412 O 408.923 -4.88675 2.4466 0
M  V30 4413 H 406.017 -0.754727 0.338106 0
M  V30 4414 H 408.563 -1.08754 1.30271 0
M  V30 4415 H 407.335 -2.75366 2.7801 0
M  V30 4416 H 406.958 -3.73197 1.37149 0
M  V30 4417 N 407.956 -0.998596 -1.21925 0
M  V30 4418 C 409.372 -0.710303 -1.42923 0
M  V30 4419 C 409.572 0.716933 -1.88314 0
M  V30 4420 O 408.628 1.48712 -2.04062 0
M  V30 4421 C 409.941 -1.72072 -2.466 0
M  V30 4422 C 411.489 -1.73681 -2.60392 0
M  V30 4423 C 411.964 -2.73601 -3.67296 0
M  V30 4424 N 413.455 -2.7223 -3.7476 0
M  V30 4425 C 414.19 -3.46206 -4.57087 0
M  V30 4426 N 413.686 -4.29802 -5.43362 0
M  V30 4427 N 415.479 -3.34886 -4.51451 0
M  V30 4428 H 407.63 -1.92028 -0.9077 0
M  V30 4429 H 409.893 -0.828487 -0.460775 0
M  V30 4430 H 409.599 -2.74231 -2.20206 0
M  V30 4431 H 409.473 -1.51818 -3.45299 0
M  V30 4432 H 411.86 -0.722173 -2.86127 0
M  V30 4433 H 411.941 -1.98005 -1.61949 0
M  V30 4434 H 411.585 -3.75217 -3.42307 0
M  V30 4435 H 411.515 -2.46545 -4.65321 0
M  V30 4436 H 414.006 -2.11576 -3.1312 0
M  V30 4437 H 414.319 -4.83061 -6.03218 0
M  V30 4438 H 412.664 -4.33887 -5.42925 0
M  V30 4439 H 415.855 -2.69015 -3.83078 0
M  V30 4440 H 416.028 -3.92796 -5.15379 0
M  V30 4441 N 409.434 1.37368 -0.772513 0
M  V30 4442 C 410.382 2.32134 -0.147111 0
M  V30 4443 C 411.376 1.54972 0.684106 0
M  V30 4444 O 412.582 1.70363 0.581083 0
M  V30 4445 H 408.957 0.751449 -0.028786 0
M  V30 4446 H 410.928 2.82464 -0.962112 0
M  V30 4447 C 409.677 3.40226 0.71703 0
M  V30 4448 H 409 3.99706 0.0867951 0
M  V30 4449 H 410.44 4.08897 1.12159 0
M  V30 4450 C 408.899 2.80372 1.86797 0
M  V30 4451 O 409.429 2.71183 2.96349 0
M  V30 4452 N 407.635 2.37904 1.66883 0
M  V30 4453 H 407.182 2.45578 0.777759 0
M  V30 4454 H 407.14 1.98202 2.44056 0
M  V30 4455 N 410.912 0.523116 1.48665 0
M  V30 4456 C 412.161 -0.01544 2.01694 0
M  V30 4457 C 412.474 -1.35975 1.40606 0
M  V30 4458 O 413.68 -1.98627 1.85093 0
M  V30 4459 C 412.136 -0.0779303 3.59816 0
M  V30 4460 C 411.744 1.26107 4.29885 0
M  V30 4461 C 413.488 -0.565678 4.20714 0
M  V30 4462 C 411.395 1.15954 5.79921 0
M  V30 4463 H 410.325 -0.00954163 0.75394 0
M  V30 4464 H 412.976 0.665865 1.70993 0
M  V30 4465 H 411.358 -0.824165 3.87329 0
M  V30 4466 H 412.532 2.02233 4.14051 0
M  V30 4467 H 410.847 1.68401 3.80828 0
M  V30 4468 H 413.444 -0.6595 5.30617 0
M  V30 4469 H 413.787 -1.56984 3.85567 0
M  V30 4470 H 414.32 0.12467 3.97605 0
M  V30 4471 H 411.059 2.13864 6.19631 0
M  V30 4472 H 410.579 0.439529 5.98187 0
M  V30 4473 H 412.258 0.847361 6.41427 0
M  V30 4474 N 412.39 -1.55475 0.257931 0
M  V30 4475 C 413.636 -2.00237 -0.357338 0
M  V30 4476 C 413.991 -1.14313 -1.54759 0
M  V30 4477 O 413.284 -0.201187 -1.90541 0
M  V30 4478 C 413.478 -3.48183 -0.806433 0
M  V30 4479 C 413.307 -4.48422 0.338758 0
M  V30 4480 C 412.077 -4.98651 0.817011 0
M  V30 4481 C 414.275 -5.00827 1.16949 0
M  V30 4482 N 412.257 -5.82658 1.93346 0
M  V30 4483 C 413.628 -5.82113 2.13413 0
M  V30 4484 C 415.683 -4.83104 1.2048 0
M  V30 4485 C 414.386 -6.47566 3.13131 0
M  V30 4486 C 416.412 -5.49343 2.19034 0
M  V30 4487 C 415.774 -6.30427 3.14232 0
M  V30 4488 H 411.873 -0.776034 -0.0964083 0
M  V30 4489 H 414.457 -1.90995 0.37803 0
M  V30 4490 H 412.628 -3.57801 -1.51107 0
M  V30 4491 H 414.36 -3.79802 -1.39758 0
M  V30 4492 H 411.115 -4.71914 0.39925 0
M  V30 4493 H 411.539 -6.29356 2.49478 0
M  V30 4494 H 416.181 -4.20036 0.482634 0
M  V30 4495 H 413.899 -7.09793 3.8629 0
M  V30 4496 H 417.485 -5.37579 2.22485 0
M  V30 4497 H 416.365 -6.80777 3.89246 0
M  V30 4498 N 413.868 0.0150385 -1.57593 0
M  V30 4499 C 415.117 0.702115 -1.89085 0
M  V30 4500 C 415.43 1.75764 -0.858277 0
M  V30 4501 O 416.636 2.49829 -1.0629 0
M  V30 4502 C 415.092 1.29992 -3.35604 0
M  V30 4503 C 414.7 0.280007 -4.47124 0
M  V30 4504 C 416.444 1.96606 -3.76227 0
M  V30 4505 C 414.351 0.886949 -5.84711 0
M  V30 4506 H 413.281 0.265997 -0.705522 0
M  V30 4507 H 415.932 -0.0430408 -1.8345 0
M  V30 4508 H 414.314 2.09525 -3.36029 0
M  V30 4509 H 415.488 -0.489631 -4.58191 0
M  V30 4510 H 413.803 -0.284835 -4.15425 0
M  V30 4511 H 416.4 2.42893 -4.76347 0
M  V30 4512 H 416.743 2.79024 -3.08952 0
M  V30 4513 H 417.276 1.23828 -3.78036 0
M  V30 4514 H 414.015 0.101876 -6.55421 0
M  V30 4515 H 413.535 1.6261 -5.77337 0
M  V30 4516 H 415.214 1.39011 -6.3189 0
M  V30 4517 N 415.346 1.54954 0.287554 0
M  V30 4518 C 416.592 1.75132 1.02257 0
M  V30 4519 C 416.925 0.542858 1.86458 0
M  V30 4520 O 416.2 -0.459856 1.88986 0
M  V30 4521 C 416.483 3.04812 1.91733 0
M  V30 4522 C 416.336 4.35985 1.10622 0
M  V30 4523 C 417.655 3.30438 2.90687 0
M  V30 4524 H 414.774 0.637194 0.370341 0
M  V30 4525 H 417.416 1.87678 0.296111 0
M  V30 4526 H 415.566 2.94247 2.53675 0
M  V30 4527 H 417.238 4.58487 0.508636 0
M  V30 4528 H 415.481 4.31865 0.409271 0
M  V30 4529 H 416.152 5.23017 1.76513 0
M  V30 4530 H 418.628 3.40701 2.38877 0
M  V30 4531 H 417.504 4.22467 3.50447 0
M  V30 4532 H 417.765 2.49377 3.65053 0
M  V30 4533 N 416.824 -0.551391 1.4764 0
M  V30 4534 C 417.771 -1.65796 1.60563 0
M  V30 4535 C 418.741 -1.59932 0.448428 0
M  V30 4536 O 419.926 -1.78679 0.669222 0
M  V30 4537 C 417.066 -3.04108 1.63133 0
M  V30 4538 C 416.179 -3.20365 2.89811 0
M  V30 4539 C 415.314 -4.49109 2.8368 0
M  V30 4540 C 414.353 -4.58819 4.05156 0
M  V30 4541 N 413.49 -5.78926 3.97227 0
M  V30 4542 H 418.33 -1.54088 2.5507 0
M  V30 4543 H 415.867 -0.75052 1.26513 0
M  V30 4544 H 417.825 -3.84207 1.62606 0
M  V30 4545 H 416.455 -3.14637 0.721341 0
M  V30 4546 H 415.507 -2.33659 3.00179 0
M  V30 4547 H 416.819 -3.23402 3.79753 0
M  V30 4548 H 415.973 -5.37475 2.81434 0
M  V30 4549 H 414.712 -4.4856 1.91431 0
M  V30 4550 H 413.717 -3.68864 4.077 0
M  V30 4551 H 414.942 -4.61124 4.98539 0
M  V30 4552 H 412.888 -5.79314 3.07785 0
M  V30 4553 H 412.805 -5.83367 4.80853 0
M  V30 4554 H 414.073 -6.69637 3.99007 0
M  V30 4555 N 418.302 -1.35869 -0.798587 0
M  V30 4556 C 419.713 -1.26498 -1.37314 0
M  V30 4557 C 420.064 0.0991899 -1.95949 0
M  V30 4558 O 419.189 1.0004 -1.91888 0
M  V30 4559 C 419.784 -2.29054 -2.49639 0
M  V30 4560 C 418.343 -2.234 -3.02935 0
M  V30 4561 C 417.49 -2.14329 -1.75949 0
M  V30 4562 H 420.441 -1.46881 -0.600971 0
M  V30 4563 H 420.462 -1.92166 -3.28409 0
M  V30 4564 H 419.974 -3.2833 -2.06933 0
M  V30 4565 H 418.075 -1.27562 -3.50084 0
M  V30 4566 H 418.188 -3.15703 -3.60372 0
M  V30 4567 H 416.552 -1.60435 -1.9782 0
M  V30 4568 H 417.335 -3.15477 -1.35384 0
M  V30 4569 N 419.78 1.02168 -1.19998 0
M  V30 4570 C 421.028 1.75338 -1.00504 0
M  V30 4571 C 421.349 1.89387 0.464506 0
M  V30 4572 O 420.619 1.43268 1.33608 0
M  V30 4573 H 419.199 0.649564 -0.368885 0
M  V30 4574 H 421.861 1.23205 -1.51018 0
M  V30 4575 H 420.957 2.75892 -1.45912 0
M  V30 4576 N 421.258 1.00505 1.21394 0
M  V30 4577 C 422.221 0.570459 2.21987 0
M  V30 4578 C 423.221 -0.353211 1.56873 0
M  V30 4579 O 424.411 -0.14349 1.73608 0
M  V30 4580 C 421.543 -0.168555 3.40483 0
M  V30 4581 H 422.736 1.46021 2.6195 0
M  V30 4582 H 420.289 0.793565 1.34656 0
M  V30 4583 H 421.024 -1.07374 3.06009 0
M  V30 4584 H 420.809 0.494823 3.88965 0
M  V30 4585 H 422.299 -0.460362 4.15055 0
M  V30 4586 N 422.737 -1.36956 0.779787 0
M  V30 4587 C 423.684 -2.30175 0.169697 0
M  V30 4588 C 424.654 -1.51501 -0.68094 0
M  V30 4589 O 425.839 -1.80042 -0.631629 0
M  V30 4590 C 422.979 -3.37985 -0.697131 0
M  V30 4591 C 422.092 -4.31661 0.170992 0
M  V30 4592 C 421.227 -5.2655 -0.701298 0
M  V30 4593 C 420.266 -6.11867 0.168869 0
M  V30 4594 N 419.403 -6.98973 -0.661855 0
M  V30 4595 H 424.243 -2.81767 0.970135 0
M  V30 4596 H 421.78 -1.38699 0.489994 0
M  V30 4597 H 423.738 -3.99128 -1.2146 0
M  V30 4598 H 422.368 -2.87739 -1.46309 0
M  V30 4599 H 421.42 -3.71756 0.80634 0
M  V30 4600 H 422.732 -4.91644 0.841875 0
M  V30 4601 H 421.886 -5.92937 -1.28494 0
M  V30 4602 H 420.625 -4.66998 -1.40584 0
M  V30 4603 H 419.63 -5.44452 0.764986 0
M  V30 4604 H 420.855 -6.73493 0.870863 0
M  V30 4605 H 418.801 -6.41941 -1.35086 0
M  V30 4606 H 418.718 -7.55984 -0.0484447 0
M  V30 4607 H 419.986 -7.6974 -1.22963 0
M  V30 4608 N 424.215 -0.530993 -1.48385 0
M  V30 4609 C 425.44 0.000729535 -2.074 0
M  V30 4610 C 425.865 1.27298 -1.3848 0
M  V30 4611 O 425.223 1.75599 -0.451081 0
M  V30 4612 C 425.271 0.206697 -3.60007 0
M  V30 4613 O 424.375 1.27514 -3.92191 0
M  V30 4614 H 423.716 -0.039583 -0.662819 0
M  V30 4615 H 426.246 -0.739194 -1.9078 0
M  V30 4616 H 426.256 0.42904 -4.05738 0
M  V30 4617 H 424.931 -0.722675 -4.09573 0
M  V30 4618 H 423.508 1.03537 -3.58238 0
M  V30 4619 N 425.693 1.55336 -0.266172 0
M  V30 4620 C 427.109 1.59356 0.0882065 0
M  V30 4621 C 427.309 1.2834 1.55342 0
M  V30 4622 O 426.365 1.03996 2.30089 0
M  V30 4623 C 427.678 2.99409 -0.278364 0
M  V30 4624 C 429.226 3.12196 -0.224243 0
M  V30 4625 C 429.701 4.545 -0.565123 0
M  V30 4626 N 431.192 4.60313 -0.51634 0
M  V30 4627 C 431.927 5.68434 -0.753013 0
M  V30 4628 N 431.423 6.84738 -1.05383 0
M  V30 4629 N 433.216 5.57942 -0.682414 0
M  V30 4630 H 425.367 1.73764 -1.22147 0
M  V30 4631 H 427.63 0.809822 -0.492841 0
M  V30 4632 H 427.336 3.2691 -1.29703 0
M  V30 4633 H 427.21 3.75228 0.385186 0
M  V30 4634 H 429.597 2.84464 0.78512 0
M  V30 4635 H 429.678 2.38609 -0.921922 0
M  V30 4636 H 429.322 4.82956 -1.57213 0
M  V30 4637 H 429.252 5.26374 0.154248 0
M  V30 4638 H 431.743 3.7676 -0.29335 0
M  V30 4639 H 432.056 7.63088 -1.22133 0
M  V30 4640 H 430.401 6.86375 -1.09151 0
M  V30 4641 H 433.592 4.65958 -0.44731 0
M  V30 4642 H 433.765 6.4213 -0.870248 0
M  V30 4643 N 427.171 -0.0066808 1.57599 0
M  V30 4644 C 428.419 -0.691552 1.899 0
M  V30 4645 C 428.74 -1.74682 0.866672 0
M  V30 4646 O 428.01 -1.95661 -0.0968189 0
M  V30 4647 H 426.59 -0.258416 0.700878 0
M  V30 4648 H 429.252 0.0326655 1.94873 0
M  V30 4649 H 428.348 -1.16702 2.8946 0
M  V30 4650 N 428.649 -1.55105 -0.279332 0
M  V30 4651 C 430.065 -1.46803 -0.626187 0
M  V30 4652 C 430.265 -0.676939 -1.89789 0
M  V30 4653 O 429.321 -0.19326 -2.51759 0
M  V30 4654 C 430.634 -2.90962 -0.759034 0
M  V30 4655 C 432.182 -3.01138 -0.853504 0
M  V30 4656 C 432.657 -4.46539 -1.01818 0
M  V30 4657 N 434.148 -4.50341 -1.08386 0
M  V30 4658 C 434.883 -5.60053 -1.22996 0
M  V30 4659 N 434.379 -6.79645 -1.34366 0
M  V30 4660 N 436.172 -5.47783 -1.26056 0
M  V30 4661 H 428.323 -2.04996 0.555921 0
M  V30 4662 H 430.586 -0.929325 0.187239 0
M  V30 4663 H 430.292 -3.51544 0.104852 0
M  V30 4664 H 430.166 -3.39619 -1.64131 0
M  V30 4665 H 432.553 -2.40658 -1.70786 0
M  V30 4666 H 432.634 -2.55745 0.0532466 0
M  V30 4667 H 432.278 -5.0762 -0.168504 0
M  V30 4668 H 432.208 -4.89583 -1.93948 0
M  V30 4669 H 434.699 -3.64191 -1.00864 0
M  V30 4670 H 435.012 -7.59012 -1.4533 0
M  V30 4671 H 433.357 -6.82469 -1.31382 0
M  V30 4672 H 436.548 -4.53294 -1.168 0
M  V30 4673 H 436.721 -6.33331 -1.37098 0
M  V30 4674 N 430.127 0.543554 -1.4793 0
M  V30 4675 C 431.375 1.29752 -1.54948 0
M  V30 4676 C 431.696 1.93764 -0.219242 0
M  V30 4677 O 430.966 1.80639 0.75805 0
M  V30 4678 H 429.546 0.481874 -0.570795 0
M  V30 4679 H 432.208 0.633636 -1.84312 0
M  V30 4680 H 431.304 2.08392 -2.32334 0
M  V30 4681 N 431.605 1.3629 0.791371 0
M  V30 4682 C 432.854 1.29742 1.54434 0
M  V30 4683 C 433.167 -0.121729 1.95221 0
M  V30 4684 O 434.373 -0.309579 2.69729 0
M  V30 4685 C 432.829 2.27623 2.78776 0
M  V30 4686 C 432.437 3.74963 2.45166 0
M  V30 4687 C 434.181 2.30047 3.56761 0
M  V30 4688 C 432.088 4.64626 3.65891 0
M  V30 4689 H 431.018 0.482113 0.579727 0
M  V30 4690 H 433.669 1.61642 0.868565 0
M  V30 4691 H 432.051 1.88714 3.48142 0
M  V30 4692 H 433.225 4.22596 1.83709 0
M  V30 4693 H 431.54 3.75295 1.80396 0
M  V30 4694 H 434.137 2.94247 4.46456 0
M  V30 4695 H 434.48 1.30846 3.95203 0
M  V30 4696 H 435.013 2.67563 2.94372 0
M  V30 4697 H 431.752 5.64883 3.32547 0
M  V30 4698 H 431.272 4.2171 4.26521 0
M  V30 4699 H 432.951 4.80801 4.32943 0
M  V30 4700 N 433.083 -1.0153 1.20538 0
M  V30 4701 C 434.016 -2.09759 0.898695 0
M  V30 4702 C 434.994 -1.61909 -0.149733 0
M  V30 4703 O 436.178 -1.88486 -0.0230293 0
M  V30 4704 C 433.305 -3.36913 0.347512 0
M  V30 4705 C 432.351 -4.03655 1.37713 0
M  V30 4706 S 433.184 -4.47402 2.94265 0
M  V30 4707 C 434.34 -5.77756 2.40726 0
M  V30 4708 H 434.573 -2.3545 1.81523 0
M  V30 4709 H 432.106 -1.14665 1.03399 0
M  V30 4710 H 434.064 -4.10484 0.0360518 0
M  V30 4711 H 432.725 -3.09291 -0.547546 0
M  V30 4712 H 431.918 -4.9514 0.940872 0
M  V30 4713 H 431.52 -3.36313 1.63614 0
M  V30 4714 H 433.812 -6.52994 1.80569 0
M  V30 4715 H 434.755 -6.2618 3.30612 0
M  V30 4716 H 435.163 -5.34081 1.82806 0
M  V30 4717 N 434.561 -1.01147 -1.20859 0
M  V30 4718 C 435.801 -0.706331 -1.91808 0
M  V30 4719 C 436.165 0.749736 -1.76757 0
M  V30 4720 O 437.366 1.16716 -2.42138 0
M  V30 4721 C 435.637 -1.12371 -3.39275 0
M  V30 4722 S 437.196 -0.939764 -4.28619 0
M  V30 4723 H 434.014 -0.257665 -0.662669 0
M  V30 4724 H 436.616 -1.29766 -1.46223 0
M  V30 4725 H 435.32 -2.17943 -3.47749 0
M  V30 4726 H 434.851 -0.524952 -3.89882 0
M  V30 4727 H 436.866 0.159556 -4.95943 0
M  V30 4728 N 436.039 1.36541 -0.78704 0
M  V30 4729 C 436.972 2.27831 -0.129765 0
M  V30 4730 C 437.95 1.47105 0.692732 0
M  V30 4731 O 439.134 1.7641 0.664222 0
M  V30 4732 C 436.261 3.28577 0.821883 0
M  V30 4733 C 435.307 4.26422 0.0814771 0
M  V30 4734 S 436.14 5.20919 -1.24112 0
M  V30 4735 C 437.296 6.25212 -0.293409 0
M  V30 4736 H 437.529 2.83229 -0.903811 0
M  V30 4737 H 435.062 1.43046 -0.581144 0
M  V30 4738 H 437.02 3.87123 1.3655 0
M  V30 4739 H 435.681 2.72096 1.56916 0
M  V30 4740 H 434.874 4.97554 0.803485 0
M  V30 4741 H 434.476 3.71944 -0.391589 0
M  V30 4742 H 436.768 6.75435 0.528622 0
M  V30 4743 H 437.711 7.01378 -0.973344 0
M  V30 4744 H 438.119 5.64407 0.102196 0
M  V30 4745 N 437.518 0.538854 1.48102 0
M  V30 4746 C 438.795 -0.0568108 1.95517 0
M  V30 4747 C 439.175 -1.50408 1.48124 0
M  V30 4748 O 438.523 -2.17133 0.711727 0
M  V30 4749 C 438.733 0.0696262 3.48931 0
M  V30 4750 C 440.081 -0.0851202 4.24515 0
M  V30 4751 O 441.105 -0.0037347 3.562 0
M  V30 4752 O 439.964 -0.257025 5.45895 0
M  V30 4753 H 437.058 -0.0743695 0.823649 0
M  V30 4754 H 439.604 0.604081 1.58584 0
M  V30 4755 H 438.376 1.07744 3.76174 0
M  V30 4756 H 437.999 -0.629714 3.92582 0
M  V30 4757 N 438.996 -1.55193 0.274407 0
M  V30 4758 C 439.946 -2.19184 -0.627882 0
M  V30 4759 C 440.93 -1.15625 -1.11892 0
M  V30 4760 O 442.122 -1.41441 -1.06411 0
M  V30 4761 C 439.251 -2.91591 -1.81189 0
M  V30 4762 C 438.337 -4.02438 -1.33807 0
M  V30 4763 N 438.728 -5.0246 -0.580349 0
M  V30 4764 C 437.026 -4.15496 -1.62109 0
M  V30 4765 C 437.727 -5.80756 -0.331344 0
M  V30 4766 N 436.703 -5.36038 -0.903556 0
M  V30 4767 H 440.505 -2.93871 -0.0411216 0
M  V30 4768 H 438.019 -1.62213 0.0779348 0
M  V30 4769 H 440.016 -3.35883 -2.46957 0
M  V30 4770 H 438.676 -2.18414 -2.40261 0
M  V30 4771 H 439.687 -5.17399 -0.227762 0
M  V30 4772 H 436.364 -3.53509 -2.22121 0
M  V30 4773 H 437.754 -6.71335 0.275454 0
M  V30 4774 N 440.474 -0.00167713 -1.576 0
M  V30 4775 C 441.404 0.988091 -2.11563 0
M  V30 4776 C 442.385 1.35736 -1.02517 0
M  V30 4777 O 443.57 1.44082 -1.30208 0
M  V30 4778 C 440.7 2.27941 -2.62031 0
M  V30 4779 C 439.654 2.0517 -3.75619 0
M  V30 4780 C 438.98 3.4033 -4.12407 0
M  V30 4781 C 440.28 1.41294 -5.02825 0
M  V30 4782 H 441.974 0.538771 -2.94513 0
M  V30 4783 H 439.52 0.257712 -1.41675 0
M  V30 4784 H 441.473 2.97539 -2.9841 0
M  V30 4785 H 440.197 2.74989 -1.76205 0
M  V30 4786 H 438.856 1.37998 -3.39635 0
M  V30 4787 H 438.504 3.85085 -3.23603 0
M  V30 4788 H 438.204 3.25909 -4.88935 0
M  V30 4789 H 439.728 4.1124 -4.51347 0
M  V30 4790 H 441.142 2.00851 -5.36965 0
M  V30 4791 H 439.539 1.37356 -5.84169 0
M  V30 4792 H 440.609 0.382362 -4.8339 0
M  V30 4793 N 441.952 1.55251 0.271103 0
M  V30 4794 C 442.862 1.9136 1.35714 0
M  V30 4795 C 443.878 0.811075 1.5394 0
M  V30 4796 O 445.054 1.11031 1.6803 0
M  V30 4797 C 442.119 2.1798 2.69603 0
M  V30 4798 C 441.18 3.4153 2.60107 0
M  V30 4799 C 440.413 3.66871 3.8761 0
M  V30 4800 O 440.636 2.94689 4.8838 0
M  V30 4801 O 439.57 4.60405 3.87699 0
M  V30 4802 H 443.396 2.83815 1.08088 0
M  V30 4803 H 440.981 1.41821 0.469792 0
M  V30 4804 H 442.863 2.36518 3.48765 0
M  V30 4805 H 441.538 1.28708 2.97012 0
M  V30 4806 H 440.445 3.28325 1.79314 0
M  V30 4807 H 441.778 4.31027 2.37647 0
M  V30 4808 N 443.43 -0.535701 1.48216 0
M  V30 4809 C 444.34 -1.66785 1.64985 0
M  V30 4810 C 445.356 -1.65654 0.532414 0
M  V30 4811 O 446.532 -1.8471 0.80275 0
M  V30 4812 C 443.597 -3.0326 1.68031 0
M  V30 4813 C 442.658 -3.1529 2.9136 0
M  V30 4814 C 441.891 -4.45255 2.94252 0
M  V30 4815 O 442.114 -5.32011 2.05719 0
M  V30 4816 O 441.048 -4.6153 3.86359 0
M  V30 4817 H 444.874 -1.55576 2.60825 0
M  V30 4818 H 442.459 -0.70815 1.31551 0
M  V30 4819 H 444.341 -3.84436 1.72589 0
M  V30 4820 H 443.016 -3.14805 0.753628 0
M  V30 4821 H 441.923 -2.3343 2.92337 0
M  V30 4822 H 443.256 -3.08658 3.83394 0
M  V30 4823 N 444.908 -1.36708 -0.784132 0
M  V30 4824 C 445.841 -1.25827 -1.90375 0
M  V30 4825 C 446.819 -0.141331 -1.61985 0
M  V30 4826 O 448.003 -0.313389 -1.85877 0
M  V30 4827 C 445.13 -0.942621 -3.25319 0
M  V30 4828 C 444.176 -2.07474 -3.72635 0
M  V30 4829 S 445.009 -3.69317 -3.8777 0
M  V30 4830 C 446.165 -3.39876 -5.25581 0
M  V30 4831 H 446.398 -2.20593 -1.99314 0
M  V30 4832 H 443.931 -1.22186 -0.943926 0
M  V30 4833 H 445.889 -0.767321 -4.03265 0
M  V30 4834 H 444.55 -0.0126566 -3.14097 0
M  V30 4835 H 443.743 -1.80858 -4.70432 0
M  V30 4836 H 443.345 -2.20953 -3.01754 0
M  V30 4837 H 445.637 -2.94097 -6.10339 0
M  V30 4838 H 446.58 -4.36956 -5.57203 0
M  V30 4839 H 446.988 -2.75098 -4.92931 0
M  V30 4840 N 446.386 1.0089 -1.21074 0
M  V30 4841 C 447.316 2.1145 -0.990523 0
M  V30 4842 C 448.297 1.69897 0.0831699 0
M  V30 4843 O 449.482 1.94052 -0.0758853 0
M  V30 4844 C 446.612 3.42914 -0.550177 0
M  V30 4845 C 445.566 3.98244 -1.56799 0
M  V30 4846 C 444.892 5.25568 -0.984013 0
M  V30 4847 C 446.192 4.30752 -2.95381 0
M  V30 4848 H 447.886 2.3013 -1.91521 0
M  V30 4849 H 445.432 1.10592 -0.92225 0
M  V30 4850 H 447.385 4.19653 -0.383305 0
M  V30 4851 H 446.109 3.24014 0.41015 0
M  V30 4852 H 444.768 3.23621 -1.72236 0
M  V30 4853 H 444.416 5.02998 -0.0155216 0
M  V30 4854 H 444.116 5.63551 -1.66384 0
M  V30 4855 H 445.64 6.04955 -0.828378 0
M  V30 4856 H 447.054 4.98349 -2.8341 0
M  V30 4857 H 445.451 4.79869 -3.60341 0
M  V30 4858 H 446.521 3.39192 -3.46521 0
M  V30 4859 N 447.864 1.01787 1.20321 0
M  V30 4860 C 448.811 0.589197 2.23153 0
M  V30 4861 C 449.781 -0.391367 1.61423 0
M  V30 4862 O 450.966 -0.290518 1.88575 0
M  V30 4863 C 448.106 -0.0650747 3.45039 0
M  V30 4864 C 447.219 0.960207 4.21194 0
M  V30 4865 C 446.354 0.276854 5.30478 0
M  V30 4866 C 445.393 1.2888 5.98378 0
M  V30 4867 N 444.53 0.632031 6.99249 0
M  V30 4868 H 449.37 1.47071 2.59179 0
M  V30 4869 H 446.907 0.736192 1.27352 0
M  V30 4870 H 448.865 -0.461552 4.14639 0
M  V30 4871 H 447.495 -0.910233 3.09701 0
M  V30 4872 H 446.547 1.47484 3.50646 0
M  V30 4873 H 447.859 1.72977 4.67847 0
M  V30 4874 H 447.013 -0.175056 6.06447 0
M  V30 4875 H 445.752 -0.525004 4.84866 0
M  V30 4876 H 444.757 1.75109 5.21169 0
M  V30 4877 H 445.982 2.09196 6.46076 0
M  V30 4878 H 443.928 -0.149935 6.55829 0
M  V30 4879 H 443.845 1.33964 7.44036 0
M  V30 4880 H 445.113 0.203755 7.79234 0
M  V30 4881 N 449.342 -1.36122 0.79427 0
M  V30 4882 C 450.272 -2.32551 0.210328 0
M  V30 4883 C 451.253 -1.56884 -0.657386 0
M  V30 4884 O 452.438 -1.85014 -0.590207 0
M  V30 4885 C 449.568 -3.41128 -0.651819 0
M  V30 4886 C 448.522 -4.27842 0.116395 0
M  V30 4887 C 447.848 -5.2763 -0.86666 0
M  V30 4888 C 449.148 -5.05647 1.30837 0
M  V30 4889 H 450.842 -2.81636 1.01594 0
M  V30 4890 H 448.388 -1.35407 0.489981 0
M  V30 4891 H 450.341 -4.07581 -1.07031 0
M  V30 4892 H 449.065 -2.90622 -1.49019 0
M  V30 4893 H 447.724 -3.62952 0.515915 0
M  V30 4894 H 447.372 -4.73395 -1.70019 0
M  V30 4895 H 447.072 -5.86514 -0.35705 0
M  V30 4896 H 448.596 -5.96955 -1.28361 0
M  V30 4897 H 450.01 -5.65113 0.965393 0
M  V30 4898 H 448.407 -5.73967 1.75161 0
M  V30 4899 H 449.477 -4.37006 2.10128 0
M  V30 4900 N 450.82 -0.546701 -1.47814 0
M  V30 4901 C 452.066 -0.0187684 -2.02791 0
M  V30 4902 C 452.399 1.32338 -1.42128 0
M  V30 4903 O 451.674 1.85867 -0.573023 0
M  V30 4904 C 451.957 0.0854985 -3.59998 0
M  V30 4905 C 451.81 -1.283 -4.31114 0
M  V30 4906 C 453.129 0.80412 -4.32691 0
M  V30 4907 H 450.248 -0.0082946 -0.736953 0
M  V30 4908 H 452.89 -0.706962 -1.76358 0
M  V30 4909 H 451.04 0.671609 -3.82651 0
M  V30 4910 H 452.712 -1.91151 -4.19832 0
M  V30 4911 H 450.955 -1.86049 -3.91878 0
M  V30 4912 H 451.626 -1.16287 -5.39612 0
M  V30 4913 H 454.102 0.306576 -4.14969 0
M  V30 4914 H 452.978 0.846011 -5.42341 0
M  V30 4915 H 453.239 1.85802 -4.01161 0
M  V30 4916 N 452.299 1.55045 -0.282633 0
M  V30 4917 C 453.247 2.24254 0.617478 0
M  V30 4918 C 454.241 1.24215 1.15183 0
M  V30 4919 O 455.447 1.42123 1.10459 0
M  V30 4920 H 451.822 0.719801 0.217693 0
M  V30 4921 H 453.793 2.98398 0.0110076 0
M  V30 4922 C 452.542 2.98281 1.78672 0
M  V30 4923 H 451.865 3.75053 1.38475 0
M  V30 4924 H 453.305 3.50017 2.393 0
M  V30 4925 C 451.764 2.04184 2.67975 0
M  V30 4926 O 452.294 1.59792 3.6855 0
M  V30 4927 N 450.5 1.70526 2.35307 0
M  V30 4928 H 450.047 2.06821 1.53567 0
M  V30 4929 H 450.005 1.07839 2.95327 0
M  V30 4930 N 453.777 0.010035 1.57597 0
M  V30 4931 C 455.025 -0.671371 1.90623 0
M  V30 4932 C 455.346 -1.73753 0.885151 0
M  V30 4933 O 454.616 -1.95752 -0.0760611 0
M  V30 4934 H 453.196 -0.250968 0.703579 0
M  V30 4935 H 455.858 0.0533325 1.94827 0
M  V30 4936 H 454.954 -1.13626 2.90681 0
M  V30 4937 N 455.255 -1.55392 -0.262866 0
M  V30 4938 C 456.203 -1.8977 -1.345 0
M  V30 4939 C 457.197 -0.775063 -1.50629 0
M  V30 4940 O 458.403 -0.959519 -1.52293 0
M  V30 4941 H 454.778 -0.602467 -0.450041 0
M  V30 4942 H 456.749 -2.80147 -1.02762 0
M  V30 4943 C 455.498 -2.19501 -2.69657 0
M  V30 4944 H 454.821 -3.05378 -2.5804 0
M  V30 4945 H 456.261 -2.47469 -3.44289 0
M  V30 4946 C 454.72 -1.00597 -3.21531 0
M  V30 4947 O 455.25 -0.245768 -4.00947 0
M  V30 4948 N 453.456 -0.800911 -2.79345 0
M  V30 4949 H 453.003 -1.42079 -2.14875 0
M  V30 4950 H 452.961 -0.00697996 -3.14399 0
M  V30 4951 N 456.733 0.527833 -1.48498 0
M  V30 4952 C 458.144 1.10975 -1.50138 0
M  V30 4953 C 458.495 1.943 -0.272378 0
M  V30 4954 O 457.62 2.07319 0.620301 0
M  V30 4955 C 458.215 2.01927 -2.72049 0
M  V30 4956 C 456.774 2.55332 -2.76554 0
M  V30 4957 C 455.921 1.32341 -2.43683 0
M  V30 4958 H 458.872 0.312986 -1.55583 0
M  V30 4959 H 458.893 2.86244 -2.50689 0
M  V30 4960 H 458.405 1.41254 -3.61481 0
M  V30 4961 H 456.506 3.19721 -1.91336 0
M  V30 4962 H 456.619 2.94319 -3.78038 0
M  V30 4963 H 454.983 1.63989 -1.94884 0
M  V30 4964 H 455.766 0.734165 -3.35358 0
M  V30 4965 N 458.211 1.37122 0.776871 0
M  V30 4966 C 459.457 1.32243 1.53752 0
M  V30 4967 C 459.79 -0.0944745 1.9397 0
M  V30 4968 O 459.065 -1.05068 1.6368 0
M  V30 4969 C 459.348 2.25681 2.80607 0
M  V30 4970 C 459.201 3.76127 2.46676 0
M  V30 4971 C 460.52 2.17657 3.82509 0
M  V30 4972 H 457.639 0.481704 0.557791 0
M  V30 4973 H 460.281 1.6778 0.891612 0
M  V30 4974 H 458.431 1.95505 3.35723 0
M  V30 4975 H 460.103 4.16877 1.97513 0
M  V30 4976 H 458.346 3.94946 1.79443 0
M  V30 4977 H 459.017 4.36933 3.37333 0
M  V30 4978 H 461.493 2.44245 3.36873 0
M  V30 4979 H 460.369 2.85185 4.69 0
M  V30 4980 H 460.63 1.16785 4.26396 0
M  V30 4981 N 459.689 -1.00246 1.21608 0
M  V30 4982 C 460.935 -1.74319 1.03638 0
M  V30 4983 C 461.268 -1.89408 -0.428749 0
M  V30 4984 O 460.543 -1.43026 -1.3181 0
M  V30 4985 C 460.826 -3.15431 1.73711 0
M  V30 4986 C 460.679 -3.08049 3.27759 0
M  V30 4987 C 461.998 -4.14407 1.48173 0
M  V30 4988 H 459.117 -0.632741 0.377899 0
M  V30 4989 H 461.759 -1.16853 1.49818 0
M  V30 4990 H 459.909 -3.64493 1.34452 0
M  V30 4991 H 461.581 -2.66681 3.76403 0
M  V30 4992 H 459.824 -2.45088 3.57931 0
M  V30 4993 H 460.495 -4.07862 3.71958 0
M  V30 4994 H 462.971 -3.74061 1.82258 0
M  V30 4995 H 461.847 -5.11279 1.99713 0
M  V30 4996 H 462.108 -4.40174 0.412273 0
M  V30 4997 N 461.167 -1.02423 -1.1978 0
M  V30 4998 C 462.1 -0.545641 -2.21581 0
M  V30 4999 C 463.078 0.411024 -1.57319 0
M  V30 5000 O 464.262 0.329223 -1.85603 0
M  V30 5001 C 461.389 0.204973 -3.38079 0
M  V30 5002 C 460.435 -0.70241 -4.20676 0
M  V30 5003 S 461.268 -2.17595 -4.89298 0
M  V30 5004 C 462.424 -1.43572 -6.09211 0
M  V30 5005 H 462.657 -1.4082 -2.61834 0
M  V30 5006 H 460.19 -0.833771 -1.29952 0
M  V30 5007 H 462.148 0.631924 -4.05607 0
M  V30 5008 H 460.809 1.0432 -2.9627 0
M  V30 5009 H 460.002 -0.123193 -5.03849 0
M  V30 5010 H 459.604 -1.06747 -3.58442 0
M  V30 5011 H 461.896 -0.719806 -6.73665 0
M  V30 5012 H 462.839 -2.24388 -6.71607 0
M  V30 5013 H 463.247 -0.935252 -5.56699 0
M  V30 5014 N 462.645 1.35699 -0.801477 0
M  V30 5015 C 463.592 2.29876 -0.206294 0
M  V30 5016 C 464.562 1.52565 0.656752 0
M  V30 5017 O 465.747 1.81024 0.602906 0
M  V30 5018 C 462.887 3.39052 0.643272 0
M  V30 5019 C 462 4.31335 -0.239644 0
M  V30 5020 C 461.135 5.27599 0.61744 0
M  V30 5021 C 460.174 6.11521 -0.26619 0
M  V30 5022 N 459.311 6.99938 0.550571 0
M  V30 5023 H 464.151 2.80187 -1.01484 0
M  V30 5024 H 461.688 1.37902 -0.511997 0
M  V30 5025 H 463.646 4.0101 1.15094 0
M  V30 5026 H 462.276 2.9003 1.41713 0
M  V30 5027 H 461.328 3.70426 -0.865381 0
M  V30 5028 H 462.64 4.90243 -0.919985 0
M  V30 5029 H 461.794 5.94906 1.19045 0
M  V30 5030 H 460.533 4.69176 1.33137 0
M  V30 5031 H 459.538 5.43166 -0.851507 0
M  V30 5032 H 460.763 6.72022 -0.9779 0
M  V30 5033 H 458.709 6.44008 1.24856 0
M  V30 5034 H 458.626 7.55966 -0.071832 0
M  V30 5035 H 459.894 7.71599 1.10702 0
M  V30 5036 N 464.123 0.554532 1.47522 0
M  V30 5037 C 465.4 -0.0360704 1.95567 0
M  V30 5038 C 465.78 -1.48828 1.49711 0
M  V30 5039 O 465.128 -2.16366 0.734717 0
M  V30 5040 C 465.338 0.106631 3.48837 0
M  V30 5041 C 466.686 -0.0400899 4.24581 0
M  V30 5042 O 467.71 0.0340453 3.56184 0
M  V30 5043 O 466.569 -0.199111 5.46137 0
M  V30 5044 H 463.663 -0.0656294 0.824392 0
M  V30 5045 H 466.209 0.620867 1.57935 0
M  V30 5046 H 464.981 1.11727 3.7501 0
M  V30 5047 H 464.604 -0.58804 3.93227 0
M  V30 5048 N 465.601 -1.54893 0.290851 0
M  V30 5049 C 466.849 -1.99538 -0.320756 0
M  V30 5050 C 467.17 -1.18075 -1.55188 0
M  V30 5051 O 466.44 -0.274162 -1.93972 0
M  V30 5052 H 465.02 -0.737052 -0.121507 0
M  V30 5053 H 467.682 -1.90755 0.399832 0
M  V30 5054 H 466.778 -3.06282 -0.599802 0
M  V30 5055 N 467.08 -0.0183926 -1.57589 0
M  V30 5056 C 468.027 0.967022 -2.09565 0
M  V30 5057 C 468.997 1.32983 -0.995225 0
M  V30 5058 O 470.182 1.42501 -1.26878 0
M  V30 5059 C 467.322 2.24772 -2.61861 0
M  V30 5060 C 466.435 1.94232 -3.85873 0
M  V30 5061 C 465.57 3.16518 -4.26603 0
M  V30 5062 C 464.609 2.81748 -5.43401 0
M  V30 5063 N 463.746 3.96626 -5.79338 0
M  V30 5064 H 468.586 0.516874 -2.93483 0
M  V30 5065 H 466.123 0.243544 -1.4507 0
M  V30 5066 H 468.081 2.99667 -2.90268 0
M  V30 5067 H 466.711 2.67423 -1.8079 0
M  V30 5068 H 465.763 1.09625 -3.64262 0
M  V30 5069 H 467.075 1.64616 -4.70853 0
M  V30 5070 H 466.229 3.99743 -4.56389 0
M  V30 5071 H 464.968 3.49286 -3.40368 0
M  V30 5072 H 463.973 1.96933 -5.1332 0
M  V30 5073 H 465.198 2.50207 -6.31327 0
M  V30 5074 H 463.144 4.29257 -4.96059 0
M  V30 5075 H 463.061 3.70598 -6.58933 0
M  V30 5076 H 464.329 4.80586 -6.13724 0
M  V30 5077 N 468.558 1.5553 0.254621 0
M  V30 5078 C 469.804 1.7818 0.980989 0
M  V30 5079 C 470.159 0.586059 1.83257 0
M  V30 5080 O 469.452 -0.420889 1.8692 0
M  V30 5081 C 469.646 3.03891 1.88109 0
M  V30 5082 C 469.475 4.35578 1.11812 0
M  V30 5083 C 468.245 4.98497 0.826343 0
M  V30 5084 C 470.443 5.11869 0.499486 0
M  V30 5085 N 468.425 6.13888 0.0385095 0
M  V30 5086 C 469.796 6.1981 -0.153292 0
M  V30 5087 C 471.851 4.96216 0.409175 0
M  V30 5088 C 470.554 7.13801 -0.8877 0
M  V30 5089 C 472.58 5.90578 -0.311683 0
M  V30 5090 C 471.942 6.97922 -0.953129 0
M  V30 5091 H 468.041 0.704057 0.340335 0
M  V30 5092 H 470.625 1.93025 0.254855 0
M  V30 5093 H 468.796 2.90389 2.57932 0
M  V30 5094 H 470.528 3.14869 2.54244 0
M  V30 5095 H 467.283 4.59769 1.13621 0
M  V30 5096 H 467.707 6.76129 -0.343275 0
M  V30 5097 H 472.349 4.1331 0.890765 0
M  V30 5098 H 470.067 7.96214 -1.38092 0
M  V30 5099 H 473.653 5.80544 -0.382125 0
M  V30 5100 H 472.533 7.69681 -1.50203 0
M  V30 5101 N 470.036 -0.519951 1.48776 0
M  V30 5102 C 471.282 -1.27711 1.57536 0
M  V30 5103 C 471.615 -1.92547 0.252866 0
M  V30 5104 O 470.89 -1.7979 -0.742021 0
M  V30 5105 C 471.173 -2.35875 2.72094 0
M  V30 5106 C 471.026 -1.75664 4.1408 0
M  V30 5107 C 472.345 -3.37575 2.82367 0
M  V30 5108 H 469.464 -0.462971 0.573434 0
M  V30 5109 H 472.106 -0.578194 1.80989 0
M  V30 5110 H 470.256 -2.95488 2.52228 0
M  V30 5111 H 471.928 -1.20025 4.45412 0
M  V30 5112 H 470.171 -1.06154 4.20611 0
M  V30 5113 H 470.842 -2.54029 4.90075 0
M  V30 5114 H 473.318 -2.87929 3.00393 0
M  V30 5115 H 472.194 -4.1064 3.64233 0
M  V30 5116 H 472.455 -3.98743 1.90936 0
M  V30 5117 N 471.514 -1.37532 -0.769588 0
M  V30 5118 C 472.76 -1.33057 -1.53048 0
M  V30 5119 C 473.093 0.0841865 -1.94017 0
M  V30 5120 O 472.368 1.04198 -1.64235 0
M  V30 5121 C 472.651 -2.27166 -2.79406 0
M  V30 5122 C 472.504 -3.77429 -2.44677 0
M  V30 5123 C 473.823 -2.19683 -3.81349 0
M  V30 5124 H 470.942 -0.484655 -0.555228 0
M  V30 5125 H 473.584 -1.68251 -0.882702 0
M  V30 5126 H 471.734 -1.97283 -3.34682 0
M  V30 5127 H 473.406 -4.17918 -1.953 0
M  V30 5128 H 471.649 -3.95892 -1.77346 0
M  V30 5129 H 472.32 -4.38716 -3.35011 0
M  V30 5130 H 474.796 -2.46029 -3.35573 0
M  V30 5131 H 473.672 -2.87668 -4.67481 0
M  V30 5132 H 473.933 -1.19045 -4.25771 0
M  V30 5133 N 472.992 0.995999 -1.22138 0
M  V30 5134 C 473.924 2.08745 -0.946485 0
M  V30 5135 C 474.937 1.62633 0.0737356 0
M  V30 5136 O 476.126 1.77782 -0.159886 0
M  V30 5137 C 473.226 3.36516 -0.401305 0
M  V30 5138 C 472.399 4.11672 -1.47801 0
M  V30 5139 C 471.458 5.17728 -0.940461 0
M  V30 5140 O 470.484 5.45482 -1.62596 0
M  V30 5141 N 471.686 5.80005 0.239723 0
M  V30 5142 H 474.451 2.32908 -1.88611 0
M  V30 5143 H 472.012 1.16152 -1.12785 0
M  V30 5144 H 474.004 4.04691 -0.0270837 0
M  V30 5145 H 472.574 3.0944 0.443354 0
M  V30 5146 H 471.794 3.38171 -2.02568 0
M  V30 5147 H 473.082 4.58657 -2.20253 0
M  V30 5148 H 472.48 5.5982 0.813518 0
M  V30 5149 H 471.037 6.4943 0.555361 0
M  V30 5150 N 474.47 1.03057 1.19235 0
M  V30 5151 C 475.417 0.612832 2.22515 0
M  V30 5152 C 476.387 -0.374224 1.61829 0
M  V30 5153 O 477.572 -0.270501 1.88873 0
M  V30 5154 C 474.712 -0.028475 3.45088 0
M  V30 5155 C 473.825 1.00483 4.20151 0
M  V30 5156 C 472.96 0.333102 5.30155 0
M  V30 5157 C 471.999 1.3522 5.96977 0
M  V30 5158 N 471.136 0.70616 6.9854 0
M  V30 5159 H 475.976 1.49812 2.57605 0
M  V30 5160 H 473.513 0.749658 1.26564 0
M  V30 5161 H 475.471 -0.417548 4.15105 0
M  V30 5162 H 474.101 -0.877334 3.10649 0
M  V30 5163 H 473.153 1.51194 3.49062 0
M  V30 5164 H 474.465 1.77929 4.65986 0
M  V30 5165 H 473.619 -0.110725 6.06599 0
M  V30 5166 H 472.358 -0.473547 4.85396 0
M  V30 5167 H 471.363 1.80627 5.19282 0
M  V30 5168 H 472.588 2.16037 6.4382 0
M  V30 5169 H 470.534 -0.0803667 6.55951 0
M  V30 5170 H 470.451 1.41848 7.42573 0
M  V30 5171 H 471.719 0.286391 7.78974 0
M  V30 5172 N 475.948 -1.35272 0.808662 0
M  V30 5173 C 477.178 -2.02652 0.401953 0
M  V30 5174 C 477.586 -1.6108 -0.992462 0
M  V30 5175 O 476.929 -0.804984 -1.65123 0
M  V30 5176 C 476.991 -3.57174 0.408246 0
M  V30 5177 C 476.655 -4.22019 1.75353 0
M  V30 5178 C 477.652 -4.43552 2.71215 0
M  V30 5179 C 475.337 -4.59093 2.03811 0
M  V30 5180 C 477.331 -5.01264 3.93717 0
M  V30 5181 C 475.018 -5.16519 3.26576 0
M  V30 5182 C 476.016 -5.37546 4.21347 0
M  V30 5183 O 475.704 -5.93761 5.41944 0
M  V30 5184 H 475.436 -0.656495 0.161216 0
M  V30 5185 H 477.99 -1.73829 1.0942 0
M  V30 5186 H 476.22 -3.85197 -0.340608 0
M  V30 5187 H 477.909 -4.05893 0.0235623 0
M  V30 5188 H 478.675 -4.15288 2.50522 0
M  V30 5189 H 474.554 -4.42039 1.30854 0
M  V30 5190 H 478.098 -5.17592 4.67701 0
M  V30 5191 H 473.995 -5.4421 3.47139 0
M  V30 5192 H 474.763 -6.1221 5.43269 0
M  V30 5193 N 477.426 -0.562348 -1.47226 0
M  V30 5194 C 478.675 -0.038041 -2.01664 0
M  V30 5195 C 478.988 1.32199 -1.44162 0
M  V30 5196 O 480.194 1.9365 -1.90294 0
M  V30 5197 C 478.65 -0.0174958 -3.59896 0
M  V30 5198 C 478.258 -1.3746 -4.2639 0
M  V30 5199 C 480.002 0.453934 -4.22066 0
M  V30 5200 C 477.909 -1.31289 -5.76643 0
M  V30 5201 H 476.839 -0.0104511 -0.753928 0
M  V30 5202 H 479.49 -0.710966 -1.69167 0
M  V30 5203 H 477.872 0.721182 -3.89378 0
M  V30 5204 H 479.046 -2.1314 -4.08544 0
M  V30 5205 H 477.361 -1.78438 -3.7623 0
M  V30 5206 H 479.958 0.518584 -5.32179 0
M  V30 5207 H 480.301 1.46706 -3.89594 0
M  V30 5208 H 480.834 -0.230044 -3.97134 0
M  V30 5209 H 477.573 -2.30217 -6.13743 0
M  V30 5210 H 477.093 -0.597973 -5.96812 0
M  V30 5211 H 478.772 -1.01713 -6.38955 0
M  V30 5212 N 478.904 1.54736 -0.299062 0
M  V30 5213 C 479.814 2.27127 0.587413 0
M  V30 5214 C 480.83 1.30575 1.15005 0
M  V30 5215 O 482.006 1.63554 1.17525 0
M  V30 5216 C 479.071 2.99645 1.74395 0
M  V30 5217 C 478.132 4.11731 1.21559 0
M  V30 5218 C 477.365 4.80781 2.317 0
M  V30 5219 O 477.588 4.4918 3.51558 0
M  V30 5220 O 476.522 5.68226 1.98501 0
M  V30 5221 H 480.348 3.037 0.000250109 0
M  V30 5222 H 477.933 1.49256 -0.0655919 0
M  V30 5223 H 479.815 3.45138 2.4178 0
M  V30 5224 H 478.49 2.25969 2.31775 0
M  V30 5225 H 477.397 3.70641 0.507514 0
M  V30 5226 H 478.73 4.87379 0.687233 0
M  V30 5227 N 480.382 0.0267497 1.57577 0
M  V30 5228 C 481.798 -0.32962 1.56159 0
M  V30 5229 C 481.998 -1.73059 1.03213 0
M  V30 5230 O 481.054 -2.43233 0.677804 0
M  V30 5231 C 482.367 -0.18039 3.00158 0
M  V30 5232 C 483.915 -0.253334 3.11973 0
M  V30 5233 C 484.39 -0.132921 4.57807 0
M  V30 5234 N 485.881 -0.189979 4.6281 0
M  V30 5235 C 486.616 -0.120554 5.73273 0
M  V30 5236 N 486.112 -0.000180315 6.928 0
M  V30 5237 N 487.905 -0.174369 5.61829 0
M  V30 5238 H 480.056 0.942896 1.90324 0
M  V30 5239 H 482.319 0.3639 0.875375 0
M  V30 5240 H 482.025 0.784576 3.42837 0
M  V30 5241 H 481.899 -0.951565 3.65 0
M  V30 5242 H 484.286 -1.20876 2.69208 0
M  V30 5243 H 484.367 0.548177 2.49857 0
M  V30 5244 H 484.011 0.819073 5.01252 0
M  V30 5245 H 483.941 -0.953264 5.179 0
M  V30 5246 H 486.432 -0.283257 3.76837 0
M  V30 5247 H 486.745 0.0461666 7.72786 0
M  V30 5248 H 485.09 0.034569 6.94991 0
M  V30 5249 H 488.281 -0.266794 4.67339 0
M  V30 5250 H 488.454 -0.116802 6.47895 0
M  V30 5251 N 481.861 -1.55662 -0.24637 0
M  V30 5252 C 483.272 -1.67953 -0.81539 0
M  V30 5253 C 483.623 -0.624302 -1.86002 0
M  V30 5254 O 482.748 0.229328 -2.15181 0
M  V30 5255 C 483.343 -3.04484 -1.48576 0
M  V30 5256 C 481.902 -3.18713 -2.00248 0
M  V30 5257 C 481.049 -2.6383 -0.853766 0
M  V30 5258 H 484 -1.58685 -0.0221692 0
M  V30 5259 H 484.021 -2.98959 -2.3538 0
M  V30 5260 H 483.533 -3.81264 -0.725222 0
M  V30 5261 H 481.634 -2.46757 -2.79181 0
M  V30 5262 H 481.747 -4.25628 -2.1995 0
M  V30 5263 H 480.111 -2.21667 -1.25442 0
M  V30 5264 H 480.894 -3.43135 -0.106302 0
M  V30 5265 N 483.339 0.512053 -1.4905 0
M  V30 5266 C 484.269 1.62365 -1.67809 0
M  V30 5267 C 485.25 1.61737 -0.526809 0
M  V30 5268 O 486.435 1.78651 -0.761404 0
M  V30 5269 C 483.565 3.00895 -1.73435 0
M  V30 5270 C 482.519 3.16387 -2.88242 0
M  V30 5271 C 481.845 4.56157 -2.78971 0
M  V30 5272 C 483.145 2.97457 -4.29321 0
M  V30 5273 H 484.839 1.46921 -2.60873 0
M  V30 5274 H 482.385 0.705379 -1.2554 0
M  V30 5275 H 484.338 3.78549 -1.85145 0
M  V30 5276 H 483.062 3.17403 -0.769619 0
M  V30 5277 H 481.721 2.41155 -2.76116 0
M  V30 5278 H 481.369 4.69525 -1.8043 0
M  V30 5279 H 481.069 4.67465 -3.5602 0
M  V30 5280 H 482.593 5.35886 -2.92675 0
M  V30 5281 H 484.007 3.64888 -4.42187 0
M  V30 5282 H 482.404 3.20245 -5.07507 0
M  V30 5283 H 483.474 1.93692 -4.44535 0
M  V30 5284 N 484.817 1.37938 0.762283 0
M  V30 5285 C 485.747 1.37176 1.88958 0
M  V30 5286 C 486.728 0.238945 1.68413 0
M  V30 5287 O 487.913 0.440726 1.89133 0
M  V30 5288 C 485.043 1.18742 3.2637 0
M  V30 5289 C 483.997 2.29136 3.61498 0
M  V30 5290 C 483.323 1.95816 4.97554 0
M  V30 5291 C 484.623 3.71363 3.6727 0
M  V30 5292 H 486.317 2.31509 1.89853 0
M  V30 5293 H 483.863 1.11438 0.912005 0
M  V30 5294 H 485.816 1.16837 4.04879 0
M  V30 5295 H 484.54 0.208683 3.25933 0
M  V30 5296 H 483.199 2.30213 2.85303 0
M  V30 5297 H 482.847 0.964475 4.93667 0
M  V30 5298 H 482.547 2.69745 5.22026 0
M  V30 5299 H 484.071 1.95513 5.78452 0
M  V30 5300 H 485.485 3.72364 4.35911 0
M  V30 5301 H 483.882 4.44425 4.03245 0
M  V30 5302 H 484.952 4.04305 2.67704 0
M  V30 5303 N 486.295 -0.989507 1.22664 0
M  V30 5304 C 487.544 -1.72375 1.04737 0
M  V30 5305 C 487.857 -1.91096 -0.417316 0
M  V30 5306 O 489.063 -2.6188 -0.716334 0
M  V30 5307 C 487.519 -3.10161 1.82561 0
M  V30 5308 C 487.127 -2.99358 3.333 0
M  V30 5309 C 488.871 -3.87607 1.73093 0
M  V30 5310 C 486.778 -4.32319 4.03552 0
M  V30 5311 H 485.708 -0.646326 0.388302 0
M  V30 5312 H 488.359 -1.10437 1.46546 0
M  V30 5313 H 486.741 -3.728 1.33552 0
M  V30 5314 H 487.915 -2.45863 3.89728 0
M  V30 5315 H 486.23 -2.35392 3.43481 0
M  V30 5316 H 488.827 -4.86025 2.22899 0
M  V30 5317 H 489.17 -4.10509 0.691976 0
M  V30 5318 H 489.703 -3.31652 2.19663 0
M  V30 5319 H 486.442 -4.14616 5.07714 0
M  V30 5320 H 485.962 -4.85714 3.51911 0
M  V30 5321 H 487.641 -5.01051 4.09337 0
M  V30 5322 N 487.773 -1.03688 -1.18687 0
M  V30 5323 C 489.02 -0.73803 -1.88572 0
M  V30 5324 C 489.348 0.733973 -1.8012 0
M  V30 5325 O 488.603 1.55098 -1.19344 0
M  V30 5326 C 488.902 -1.14477 -3.3857 0
M  V30 5327 C 488.568 -2.61641 -3.67226 0
M  V30 5328 C 487.23 -3.01846 -3.74757 0
M  V30 5329 C 489.582 -3.56812 -3.79914 0
M  V30 5330 C 486.91 -4.36118 -3.92451 0
M  V30 5331 C 489.262 -4.90799 -3.99123 0
M  V30 5332 C 487.926 -5.3068 -4.04888 0
M  V30 5333 H 487.196 -0.270064 -0.690034 0
M  V30 5334 H 489.843 -1.3012 -1.40503 0
M  V30 5335 H 488.148 -0.500337 -3.88592 0
M  V30 5336 H 489.845 -0.89095 -3.90977 0
M  V30 5337 H 486.435 -2.29498 -3.61979 0
M  V30 5338 H 490.619 -3.26899 -3.73431 0
M  V30 5339 H 485.875 -4.66542 -3.95157 0
M  V30 5340 H 490.049 -5.64451 -4.07882 0
M  V30 5341 H 487.676 -6.34733 -4.18351 0
M  V30 5342 N 489.251 1.34841 -0.815825 0
M  V30 5343 C 490.499 1.98107 -0.399744 0
M  V30 5344 C 490.82 1.65019 1.03894 0
M  V30 5345 O 490.09 0.937311 1.72021 0
M  V30 5346 H 488.67 0.732827 -0.144823 0
M  V30 5347 H 491.332 1.64599 -1.0437 0
M  V30 5348 H 490.428 3.07856 -0.512965 0
M  V30 5349 N 490.729 0.570148 1.46925 0
M  V30 5350 C 491.957 0.0561966 2.06824 0
M  V30 5351 C 492.372 -1.24326 1.42086 0
M  V30 5352 O 491.729 -1.74882 0.521794 0
M  V30 5353 C 491.78 -0.129517 3.61268 0
M  V30 5354 O 491.501 1.1185 4.23581 0
M  V30 5355 C 493.002 -0.679266 4.38065 0
M  V30 5356 H 490.222 0.0517261 0.669003 0
M  V30 5357 H 492.766 0.787243 1.8874 0
M  V30 5358 H 490.921 -0.810739 3.78822 0
M  V30 5359 H 491.335 0.924375 5.1629 0
M  V30 5360 H 492.809 -0.758445 5.46765 0
M  V30 5361 H 493.286 -1.69346 4.05239 0
M  V30 5362 H 493.892 -0.0333237 4.25287 0
M  V30 5363 N 492.207 -1.54576 0.307264 0
M  V30 5364 C 493.154 -2.23751 -0.56604 0
M  V30 5365 C 494.124 -1.22235 -1.12462 0
M  V30 5366 O 495.309 -1.50873 -1.16799 0
M  V30 5367 C 492.449 -2.98661 -1.72903 0
M  V30 5368 C 491.562 -4.14963 -1.20124 0
M  V30 5369 C 490.697 -4.77441 -2.3286 0
M  V30 5370 C 489.736 -5.85875 -1.77247 0
M  V30 5371 N 488.873 -6.42282 -2.8358 0
M  V30 5372 H 493.713 -2.97984 0.0304578 0
M  V30 5373 H 491.25 -1.47076 0.0268015 0
M  V30 5374 H 493.208 -3.40329 -2.41313 0
M  V30 5375 H 491.838 -2.26793 -2.29706 0
M  V30 5376 H 490.89 -3.78193 -0.409198 0
M  V30 5377 H 492.202 -4.93066 -0.754171 0
M  V30 5378 H 491.356 -5.21993 -3.09205 0
M  V30 5379 H 490.095 -3.98684 -2.80896 0
M  V30 5380 H 489.1 -5.40741 -0.993926 0
M  V30 5381 H 490.325 -6.6652 -1.30107 0
M  V30 5382 H 488.271 -5.66406 -3.30939 0
M  V30 5383 H 488.188 -7.1575 -2.43388 0
M  V30 5384 H 489.456 -6.91492 -3.59804 0
M  V30 5385 N 493.685 -0.035106 -1.57561 0
M  V30 5386 C 494.932 0.642229 -1.92046 0
M  V30 5387 C 495.26 1.7179 -0.91206 0
M  V30 5388 O 494.515 1.95544 0.0781153 0
M  V30 5389 C 494.814 1.29149 -3.3325 0
M  V30 5390 C 494.48 0.345604 -4.49574 0
M  V30 5391 C 493.142 0.0852775 -4.81124 0
M  V30 5392 C 495.494 -0.303569 -5.20315 0
M  V30 5393 C 492.822 -0.831927 -5.80772 0
M  V30 5394 C 495.174 -1.20886 -6.20942 0
M  V30 5395 C 493.838 -1.47802 -6.50931 0
M  V30 5396 H 493.108 0.235008 -0.702746 0
M  V30 5397 H 495.755 -0.0981529 -1.91248 0
M  V30 5398 H 494.06 2.10676 -3.30337 0
M  V30 5399 H 495.757 1.82223 -3.57205 0
M  V30 5400 H 492.347 0.558683 -4.24943 0
M  V30 5401 H 496.531 -0.115515 -4.96166 0
M  V30 5402 H 491.787 -1.0481 -6.02349 0
M  V30 5403 H 495.961 -1.71804 -6.74875 0
M  V30 5404 H 493.588 -2.19039 -7.2796 0
M  V30 5405 N 495.163 1.55791 0.238111 0
M  V30 5406 C 496.44 1.68798 0.98826 0
M  V30 5407 C 496.82 0.577562 2.03045 0
M  V30 5408 O 496.168 -0.41778 2.24648 0
M  V30 5409 C 496.378 3.09454 1.61367 0
M  V30 5410 C 497.726 3.68335 2.11221 0
M  V30 5411 O 498.75 3.1231 1.71292 0
M  V30 5412 O 497.609 4.6657 2.84561 0
M  V30 5413 H 494.703 0.686881 0.460568 0
M  V30 5414 H 497.249 1.68118 0.231202 0
M  V30 5415 H 496.021 3.81726 0.860295 0
M  V30 5416 H 495.644 3.14182 2.4367 0
M  V30 5417 N 496.642 -0.504142 1.49319 0
M  V30 5418 C 497.572 -1.61473 1.68667 0
M  V30 5419 C 498.553 -1.61455 0.535378 0
M  V30 5420 O 499.738 -1.78245 0.770868 0
M  V30 5421 C 496.868 -2.99971 1.75028 0
M  V30 5422 C 495.822 -3.14854 2.89916 0
M  V30 5423 C 495.148 -4.54671 2.81387 0
M  V30 5424 C 496.448 -2.95176 4.30893 0
M  V30 5425 H 498.142 -1.45535 2.61648 0
M  V30 5426 H 495.688 -0.698711 1.25913 0
M  V30 5427 H 497.641 -3.77562 1.8715 0
M  V30 5428 H 496.365 -3.1699 0.786441 0
M  V30 5429 H 495.024 -2.39687 2.77391 0
M  V30 5430 H 494.672 -4.68562 1.82917 0
M  V30 5431 H 494.372 -4.6557 3.58494 0
M  V30 5432 H 495.896 -5.34327 2.95512 0
M  V30 5433 H 497.31 -3.62538 4.44116 0
M  V30 5434 H 495.707 -3.17549 5.09198 0
M  V30 5435 H 496.777 -1.91332 4.45556 0
M  V30 5436 N 498.12 -1.38341 -0.754957 0
M  V30 5437 C 499.536 -1.19508 -1.05783 0
M  V30 5438 C 499.736 -0.0428005 -2.01455 0
M  V30 5439 O 498.792 0.611861 -2.44975 0
M  V30 5440 C 500.105 -2.52091 -1.63923 0
M  V30 5441 C 501.653 -2.58762 -1.76101 0
M  V30 5442 C 502.128 -3.91517 -2.37652 0
M  V30 5443 N 503.619 -3.93049 -2.45085 0
M  V30 5444 C 504.354 -4.9253 -2.93602 0
M  V30 5445 N 503.85 -6.02408 -3.42165 0
M  V30 5446 N 505.643 -4.79921 -2.92629 0
M  V30 5447 H 497.794 -2.1206 -0.120056 0
M  V30 5448 H 500.057 -0.94089 -0.11589 0
M  V30 5449 H 499.763 -3.36858 -1.01093 0
M  V30 5450 H 499.637 -2.70388 -2.63003 0
M  V30 5451 H 502.024 -1.74391 -2.38058 0
M  V30 5452 H 502.105 -2.44333 -0.757294 0
M  V30 5453 H 501.749 -4.76309 -1.76329 0
M  V30 5454 H 501.679 -4.03256 -3.38662 0
M  V30 5455 H 504.17 -3.13685 -2.10736 0
M  V30 5456 H 504.483 -6.74248 -3.77637 0
M  V30 5457 H 502.828 -6.0603 -3.40225 0
M  V30 5458 H 506.019 -3.93194 -2.54001 0
M  V30 5459 H 506.192 -5.57601 -3.30128 0
M  V30 5460 N 499.598 0.982988 -1.23187 0
M  V30 5461 C 500.53 2.07729 -0.968572 0
M  V30 5462 C 501.543 1.62702 0.0564821 0
M  V30 5463 O 502.732 1.77603 -0.178733 0
M  V30 5464 C 499.832 3.36071 -0.436974 0
M  V30 5465 C 499.005 4.10081 -1.52159 0
M  V30 5466 C 498.064 5.16701 -0.99532 0
M  V30 5467 O 497.09 5.43727 -1.68373 0
M  V30 5468 N 498.292 5.80226 0.178192 0
M  V30 5469 H 501.057 2.30894 -1.9107 0
M  V30 5470 H 498.618 1.14949 -1.1401 0
M  V30 5471 H 500.61 4.04639 -0.0700051 0
M  V30 5472 H 499.18 3.09893 0.410509 0
M  V30 5473 H 498.4 3.36004 -2.06144 0
M  V30 5474 H 499.688 4.56295 -2.25105 0
M  V30 5475 H 499.086 5.60651 0.754096 0
M  V30 5476 H 497.643 6.49982 0.486449 0
M  V30 5477 N 501.076 1.04316 1.18135 0
M  V30 5478 C 502.322 0.758899 1.88712 0
M  V30 5479 C 502.677 -0.705863 1.78984 0
M  V30 5480 O 501.97 -1.50874 1.18101 0
M  V30 5481 C 502.164 1.16271 3.37958 0
M  V30 5482 C 501.993 2.66518 3.62213 0
M  V30 5483 C 500.763 3.33702 3.79436 0
M  V30 5484 C 502.961 3.64739 3.62588 0
M  V30 5485 N 500.943 4.72904 3.91452 0
M  V30 5486 C 502.314 4.89627 3.80348 0
M  V30 5487 C 504.369 3.58333 3.4569 0
M  V30 5488 C 503.072 6.08879 3.8296 0
M  V30 5489 C 505.098 4.77016 3.49586 0
M  V30 5490 C 504.46 6.00724 3.67845 0
M  V30 5491 H 500.559 0.329795 0.709055 0
M  V30 5492 H 503.143 1.33334 1.4188 0
M  V30 5493 H 501.314 0.616319 3.83479 0
M  V30 5494 H 503.046 0.829205 3.96114 0
M  V30 5495 H 499.801 2.84105 3.78921 0
M  V30 5496 H 500.225 5.45258 4.01277 0
M  V30 5497 H 504.867 2.63663 3.30517 0
M  V30 5498 H 502.585 7.03903 3.96921 0
M  V30 5499 H 506.171 4.73703 3.37782 0
M  V30 5500 H 505.051 6.91022 3.70753 0
M  V30 5501 N 502.554 -1.34406 0.822964 0
M  V30 5502 C 503.801 -1.98284 0.411057 0
M  V30 5503 C 504.129 -1.65245 -1.02588 0
M  V30 5504 O 503.384 -0.91619 -1.72929 0
M  V30 5505 C 503.683 -3.52981 0.560268 0
M  V30 5506 C 503.349 -4.05931 1.96293 0
M  V30 5507 C 502.011 -4.20103 2.34664 0
M  V30 5508 C 504.363 -4.34412 2.87985 0
M  V30 5509 C 501.691 -4.60082 3.64062 0
M  V30 5510 C 504.043 -4.75838 4.16847 0
M  V30 5511 C 502.707 -4.88215 4.55195 0
M  V30 5512 H 501.977 -0.725573 0.150416 0
M  V30 5513 H 504.624 -1.60349 1.04692 0
M  V30 5514 H 502.929 -3.91477 -0.158982 0
M  V30 5515 H 504.626 -4.00385 0.222087 0
M  V30 5516 H 501.216 -3.95363 1.65487 0
M  V30 5517 H 505.4 -4.23001 2.59584 0
M  V30 5518 H 500.656 -4.67856 3.93599 0
M  V30 5519 H 504.83 -4.96834 4.87984 0
M  V30 5520 H 502.457 -5.18952 5.55512 0
M  V30 5521 N 504.032 -0.577932 -1.46621 0
M  V30 5522 C 504.962 0.145917 -2.33044 0
M  V30 5523 C 505.943 0.888412 -1.45056 0
M  V30 5524 O 507.128 0.864812 -1.73881 0
M  V30 5525 C 504.258 1.16322 -3.27241 0
M  V30 5526 C 503.212 0.535868 -4.24632 0
M  V30 5527 C 502.538 1.65929 -5.08303 0
M  V30 5528 C 503.838 -0.523861 -5.19666 0
M  V30 5529 H 505.532 -0.575636 -2.93814 0
M  V30 5530 H 503.078 -0.278272 -1.41286 0
M  V30 5531 H 505.031 1.67793 -3.86553 0
M  V30 5532 H 503.755 1.91498 -2.64567 0
M  V30 5533 H 502.414 0.0422759 -3.66576 0
M  V30 5534 H 502.062 2.40061 -4.42018 0
M  V30 5535 H 501.762 1.2452 -5.74255 0
M  V30 5536 H 503.286 2.17686 -5.70478 0
M  V30 5537 H 504.7 -0.0944059 -5.73222 0
M  V30 5538 H 503.097 -0.858 -5.93935 0
M  V30 5539 H 504.167 -1.41197 -4.63887 0
M  V30 5540 N 505.51 1.54411 -0.315457 0
M  V30 5541 C 506.756 2.00716 0.289972 0
M  V30 5542 C 507.089 1.2034 1.5242 0
M  V30 5543 O 506.364 0.283579 1.92422 0
M  V30 5544 C 506.647 3.54507 0.632196 0
M  V30 5545 C 506.5 4.45615 -0.61218 0
M  V30 5546 C 507.819 4.15421 1.45305 0
M  V30 5547 H 504.938 0.729637 0.10392 0
M  V30 5548 H 507.58 1.8506 -0.430427 0
M  V30 5549 H 505.73 3.67979 1.24595 0
M  V30 5550 H 507.402 4.44026 -1.25053 0
M  V30 5551 H 505.645 4.15621 -1.24264 0
M  V30 5552 H 506.316 5.51022 -0.328379 0
M  V30 5553 H 508.792 4.05474 0.934331 0
M  V30 5554 H 507.668 5.23157 1.66127 0
M  V30 5555 H 507.929 3.68223 2.44671 0
M  V30 5556 N 506.988 0.0434614 1.5754 0
M  V30 5557 C 508.216 -0.641835 1.96693 0
M  V30 5558 C 508.631 -1.64832 0.920652 0
M  V30 5559 O 507.988 -1.82247 -0.095993 0
M  V30 5560 C 508.039 -1.33557 3.35924 0
M  V30 5561 O 507.76 -0.369403 4.3654 0
M  V30 5562 C 509.261 -2.11135 3.89791 0
M  V30 5563 H 506.481 -0.176013 0.647503 0
M  V30 5564 H 509.025 0.107478 2.04217 0
M  V30 5565 H 507.18 -2.03617 3.29574 0
M  V30 5566 H 507.594 -0.863674 5.1734 0
M  V30 5567 H 509.068 -2.55107 4.89514 0
M  V30 5568 H 509.545 -2.95634 3.24803 0
M  V30 5569 H 510.151 -1.46002 3.99454 0
M  V30 5570 N 508.466 -1.55915 -0.229846 0
M  V30 5571 C 509.743 -1.6932 -0.979295 0
M  V30 5572 C 510.123 -0.588321 -2.02736 0
M  V30 5573 O 509.471 0.40586 -2.24867 0
M  V30 5574 C 509.681 -3.10305 -1.59724 0
M  V30 5575 C 511.029 -3.6945 -2.09264 0
M  V30 5576 O 512.053 -3.13214 -1.69633 0
M  V30 5577 O 510.912 -4.68072 -2.82082 0
M  V30 5578 H 508.006 -0.689314 -0.456919 0
M  V30 5579 H 510.552 -1.68238 -0.222283 0
M  V30 5580 H 509.324 -3.82177 -0.840039 0
M  V30 5581 H 508.947 -3.1547 -2.42001 0
M  V30 5582 N 509.944 0.496216 -1.49584 0
M  V30 5583 C 511.19 1.24918 -1.60521 0
M  V30 5584 C 511.545 1.90197 -0.290352 0
M  V30 5585 O 510.838 1.77967 0.709813 0
M  V30 5586 C 511.032 2.3359 -2.705 0
M  V30 5587 C 510.861 1.78969 -4.12553 0
M  V30 5588 C 509.631 1.60057 -4.79281 0
M  V30 5589 C 511.829 1.29883 -4.97629 0
M  V30 5590 N 509.811 1.00415 -6.05632 0
M  V30 5591 C 511.182 0.824057 -6.14499 0
M  V30 5592 C 513.237 1.18501 -4.83593 0
M  V30 5593 C 511.94 0.246721 -7.18877 0
M  V30 5594 C 513.966 0.621634 -5.88124 0
M  V30 5595 C 513.328 0.157116 -7.04225 0
M  V30 5596 H 509.427 0.446896 -0.641722 0
M  V30 5597 H 512.011 0.555456 -1.86609 0
M  V30 5598 H 510.182 3.00418 -2.46178 0
M  V30 5599 H 511.914 3.00628 -2.70933 0
M  V30 5600 H 508.669 1.84562 -4.36158 0
M  V30 5601 H 509.093 0.725074 -6.73106 0
M  V30 5602 H 513.735 1.53012 -3.94141 0
M  V30 5603 H 511.453 -0.110651 -8.08024 0
M  V30 5604 H 515.039 0.536279 -5.79323 0
M  V30 5605 H 513.919 -0.272009 -7.83728 0
M  V30 5606 N 511.423 1.38739 0.74761 0
M  V30 5607 C 512.371 1.36573 1.88283 0
M  V30 5608 C 513.365 0.250712 1.67534 0
M  V30 5609 O 514.571 0.420073 1.7503 0
M  V30 5610 H 510.946 0.42619 0.619569 0
M  V30 5611 H 512.917 2.32356 1.87226 0
M  V30 5612 C 511.666 1.21361 3.25832 0
M  V30 5613 H 510.989 2.06424 3.42388 0
M  V30 5614 H 512.429 1.23901 4.05493 0
M  V30 5615 C 510.888 -0.0790099 3.36807 0
M  V30 5616 O 511.418 -1.05385 3.8763 0
M  V30 5617 N 509.624 -0.13785 2.90273 0
M  V30 5618 H 509.171 0.656128 2.49104 0
M  V30 5619 H 509.129 -1.00228 2.97996 0
M  V30 5620 N 512.901 -0.976442 1.23707 0
M  V30 5621 C 514.312 -1.53284 1.06587 0
M  V30 5622 C 514.663 -1.92765 -0.365526 0
M  V30 5623 O 513.788 -1.7645 -1.25277 0
M  V30 5624 C 514.383 -2.78548 1.92864 0
M  V30 5625 C 512.942 -3.30574 1.79994 0
M  V30 5626 C 512.089 -2.03538 1.88328 0
M  V30 5627 H 515.04 -0.795692 1.37311 0
M  V30 5628 H 515.061 -3.5155 1.45577 0
M  V30 5629 H 514.573 -2.49782 2.97037 0
M  V30 5630 H 512.674 -3.64211 0.786202 0
M  V30 5631 H 512.787 -4.00065 2.636 0
M  V30 5632 H 511.151 -2.17853 1.31954 0
M  V30 5633 H 511.934 -1.77149 2.94063 0
M  V30 5634 N 514.379 -1.04941 -1.1758 0
M  V30 5635 C 515.309 -0.669172 -2.23706 0
M  V30 5636 C 516.29 0.331835 -1.66832 0
M  V30 5637 O 517.475 0.209988 -1.93061 0
M  V30 5638 C 514.605 -0.0404889 -3.47276 0
M  V30 5639 C 513.559 -0.965983 -4.16957 0
M  V30 5640 C 512.885 -0.201312 -5.34321 0
M  V30 5641 C 514.185 -2.28902 -4.69469 0
M  V30 5642 H 515.879 -1.55639 -2.55767 0
M  V30 5643 H 513.425 -0.749793 -1.22939 0
M  V30 5644 H 515.378 0.237298 -4.20731 0
M  V30 5645 H 514.102 0.881658 -3.14475 0
M  V30 5646 H 512.761 -1.22829 -3.45411 0
M  V30 5647 H 512.409 0.723519 -4.97769 0
M  V30 5648 H 512.109 -0.817968 -5.81879 0
M  V30 5649 H 513.633 0.0692499 -6.10561 0
M  V30 5650 H 515.047 -2.07132 -5.34574 0
M  V30 5651 H 513.444 -2.85942 -5.27596 0
M  V30 5652 H 514.514 -2.92937 -3.86414 0
M  V30 5653 N 515.857 1.33968 -0.830081 0
M  V30 5654 C 517.085 2.0228 -0.434773 0
M  V30 5655 C 517.5 1.62487 0.961419 0
M  V30 5656 O 516.857 0.833849 1.62337 0
M  V30 5657 C 516.908 3.5751 -0.535625 0
M  V30 5658 O 516.629 3.95864 -1.87679 0
M  V30 5659 C 518.13 4.43091 -0.136137 0
M  V30 5660 H 515.35 0.648151 -0.173613 0
M  V30 5661 H 517.894 1.71089 -1.12022 0
M  V30 5662 H 516.049 3.87266 0.101817 0
M  V30 5663 H 516.463 4.9056 -1.85609 0
M  V30 5664 H 517.937 5.51398 -0.257772 0
M  V30 5665 H 518.414 4.29433 0.921076 0
M  V30 5666 H 519.02 4.18677 -0.747662 0
M  V30 5667 N 517.335 0.585699 1.46312 0
M  V30 5668 C 518.581 0.0725284 2.0267 0
M  V30 5669 C 518.914 -1.28523 1.45586 0
M  V30 5670 O 518.189 -1.84283 0.622101 0
M  V30 5671 C 518.472 0.0099788 3.60099 0
M  V30 5672 C 518.325 1.39685 4.27561 0
M  V30 5673 C 519.644 -0.689117 4.34671 0
M  V30 5674 H 516.763 0.0278307 0.736474 0
M  V30 5675 H 519.405 0.753472 1.74421 0
M  V30 5676 H 517.555 -0.56992 3.84297 0
M  V30 5677 H 519.227 2.02215 4.14617 0
M  V30 5678 H 517.47 1.96374 3.86807 0
M  V30 5679 H 518.141 1.30553 5.36339 0
M  V30 5680 H 520.617 -0.196446 4.15636 0
M  V30 5681 H 519.493 -0.701921 5.44393 0
M  V30 5682 H 519.754 -1.75101 4.05946 0
M  V30 5683 N 518.813 -1.54241 0.323641 0
M  V30 5684 C 520.059 -2.01572 -0.272089 0
M  V30 5685 C 520.414 -1.20774 -1.49771 0
M  V30 5686 O 519.707 -0.281821 -1.89516 0
M  V30 5687 C 519.901 -3.5129 -0.658031 0
M  V30 5688 C 519.73 -4.46582 0.528645 0
M  V30 5689 C 518.5 -4.94737 1.02777 0
M  V30 5690 C 520.698 -4.95416 1.38086 0
M  V30 5691 N 518.68 -5.73933 2.17885 0
M  V30 5692 C 520.051 -5.72537 2.3791 0
M  V30 5693 C 522.106 -4.77559 1.40861 0
M  V30 5694 C 520.809 -6.33702 3.40314 0
M  V30 5695 C 522.835 -5.39559 2.42136 0
M  V30 5696 C 522.197 -6.16532 3.40688 0
M  V30 5697 H 518.296 -0.779425 -0.0634072 0
M  V30 5698 H 520.88 -1.8922 0.458697 0
M  V30 5699 H 519.051 -3.63888 -1.35795 0
M  V30 5700 H 520.783 -3.85388 -1.23524 0
M  V30 5701 H 517.538 -4.69796 0.599046 0
M  V30 5702 H 517.962 -6.18209 2.75947 0
M  V30 5703 H 522.604 -4.17611 0.660352 0
M  V30 5704 H 520.322 -6.9277 4.16047 0
M  V30 5705 H 523.908 -5.27659 2.45086 0
M  V30 5706 H 522.788 -6.63655 4.1777 0
M  V30 5707 N 520.291 -0.0518155 -1.57515 0
M  V30 5708 C 521.538 0.621823 -1.92716 0
M  V30 5709 C 521.866 1.70813 -0.930229 0
M  V30 5710 O 521.121 1.95616 0.0573708 0
M  V30 5711 C 521.42 1.25607 -3.34601 0
M  V30 5712 C 521.086 0.297901 -4.49915 0
M  V30 5713 C 519.748 0.034243 -4.81188 0
M  V30 5714 C 522.1 -0.358738 -5.19964 0
M  V30 5715 C 519.428 -0.893479 -5.79857 0
M  V30 5716 C 521.78 -1.27466 -6.19625 0
M  V30 5717 C 520.444 -1.54698 -6.49326 0
M  V30 5718 H 519.714 0.227541 -0.705199 0
M  V30 5719 H 522.361 -0.118432 -1.91133 0
M  V30 5720 H 520.666 2.07161 -3.32553 0
M  V30 5721 H 522.363 1.78424 -3.59118 0
M  V30 5722 H 518.953 0.513581 -4.25512 0
M  V30 5723 H 523.137 -0.168133 -4.96015 0
M  V30 5724 H 518.393 -1.11193 -6.01204 0
M  V30 5725 H 522.567 -1.78953 -6.73015 0
M  V30 5726 H 520.194 -2.26748 -7.25596 0
M  V30 5727 N 521.769 1.56035 0.221574 0
M  V30 5728 C 522.999 1.82864 0.961468 0
M  V30 5729 C 523.407 0.628703 1.78449 0
M  V30 5730 O 522.75 -0.412109 1.79018 0
M  V30 5731 C 522.812 3.03425 1.92804 0
M  V30 5732 C 522.476 4.38429 1.28954 0
M  V30 5733 C 523.473 5.15441 0.679431 0
M  V30 5734 C 521.158 4.85151 1.30131 0
M  V30 5735 C 523.152 6.37337 0.0896148 0
M  V30 5736 C 520.839 6.06989 0.707651 0
M  V30 5737 C 521.837 6.82923 0.102855 0
M  V30 5738 O 521.525 8.02456 -0.48157 0
M  V30 5739 H 521.257 0.611883 0.28736 0
M  V30 5740 H 523.811 2.0397 0.241932 0
M  V30 5741 H 522.041 2.78138 2.68656 0
M  V30 5742 H 523.73 3.17127 2.53348 0
M  V30 5743 H 524.496 4.80452 0.662661 0
M  V30 5744 H 520.375 4.26021 1.76145 0
M  V30 5745 H 523.919 6.96547 -0.383069 0
M  V30 5746 H 519.816 6.41451 0.721834 0
M  V30 5747 H 520.584 8.17636 -0.375887 0
M  V30 5748 N 523.247 -0.488276 1.49845 0
M  V30 5749 C 524.663 -0.820566 1.3689 0
M  V30 5750 C 524.863 -1.97248 0.411752 0
M  V30 5751 O 523.919 -2.52042 -0.151931 0
M  V30 5752 C 525.232 -1.1488 2.77891 0
M  V30 5753 C 526.78 -1.25626 2.86683 0
M  V30 5754 C 527.255 -1.61772 4.28479 0
M  V30 5755 N 528.746 -1.68797 4.31349 0
M  V30 5756 C 529.481 -1.98235 5.38043 0
M  V30 5757 N 528.977 -2.2581 6.54967 0
M  V30 5758 N 530.77 -1.99593 5.2547 0
M  V30 5759 H 522.921 0.271123 2.10662 0
M  V30 5760 H 525.184 0.058735 0.946179 0
M  V30 5761 H 524.89 -0.375614 3.49688 0
M  V30 5762 H 524.764 -2.08919 3.14058 0
M  V30 5763 H 527.151 -2.02014 2.15114 0
M  V30 5764 H 527.232 -0.296072 2.54081 0
M  V30 5765 H 526.876 -0.859295 5.00578 0
M  V30 5766 H 526.806 -2.58912 4.58554 0
M  V30 5767 H 529.297 -1.49595 3.4703 0
M  V30 5768 H 529.61 -2.47497 7.32096 0
M  V30 5769 H 527.955 -2.23239 6.58171 0
M  V30 5770 H 531.146 -1.77535 4.33127 0
M  V30 5771 H 531.319 -2.222 6.08713 0
M  V30 5772 N 524.725 -1.39134 -0.740242 0
M  V30 5773 C 526.002 -1.26584 -1.49117 0
M  V30 5774 C 526.382 0.126902 -2.10718 0
M  V30 5775 O 525.73 1.13765 -1.98166 0
M  V30 5776 C 525.94 -2.38619 -2.54681 0
M  V30 5777 C 527.288 -2.77685 -3.21211 0
M  V30 5778 O 528.312 -2.38029 -2.64991 0
M  V30 5779 O 527.171 -3.46115 -4.22926 0
M  V30 5780 H 524.265 -0.495769 -0.661923 0
M  V30 5781 H 526.811 -1.50995 -0.774514 0
M  V30 5782 H 525.583 -3.3175 -2.07504 0
M  V30 5783 H 525.206 -2.15845 -3.33911 0
M  V30 5784 N 526.204 0.969867 -1.24223 0
M  V30 5785 C 527.429 1.75289 -1.10853 0
M  V30 5786 C 527.854 1.85091 0.335079 0
M  V30 5787 O 527.212 1.32024 1.24255 0
M  V30 5788 C 527.26 3.15255 -1.75062 0
M  V30 5789 O 526.364 3.99589 -1.01992 0
M  V30 5790 H 525.705 0.538904 -0.387915 0
M  V30 5791 H 528.235 1.21675 -1.64488 0
M  V30 5792 H 528.245 3.65787 -1.80731 0
M  V30 5793 H 526.92 3.07436 -2.801 0
M  V30 5794 H 525.497 3.58077 -1.04094 0
M  V30 5795 N 527.682 1.05563 1.17022 0
M  V30 5796 C 528.912 0.787307 1.91011 0
M  V30 5797 C 529.32 -0.661256 1.77268 0
M  V30 5798 O 528.663 -1.46379 1.10991 0
M  V30 5799 C 528.725 1.09313 3.42478 0
M  V30 5800 C 528.389 2.53863 3.80004 0
M  V30 5801 C 529.386 3.52081 3.82538 0
M  V30 5802 C 527.071 2.88969 4.10855 0
M  V30 5803 C 529.065 4.83449 4.15399 0
M  V30 5804 C 526.752 4.2054 4.43384 0
M  V30 5805 C 527.75 5.17589 4.45635 0
M  V30 5806 O 527.438 6.46799 4.77395 0
M  V30 5807 H 527.17 0.285463 0.61277 0
M  V30 5808 H 529.724 1.41051 1.49311 0
M  V30 5809 H 527.954 0.412833 3.8449 0
M  V30 5810 H 529.643 0.810224 3.97731 0
M  V30 5811 H 530.409 3.26299 3.58823 0
M  V30 5812 H 526.288 2.1409 4.08272 0
M  V30 5813 H 529.832 5.59194 4.1707 0
M  V30 5814 H 525.729 4.46083 4.66563 0
M  V30 5815 H 526.497 6.51677 4.95237 0
M  V30 5816 N 529.16 -1.33526 0.837174 0
M  V30 5817 C 530.409 -1.97098 0.428387 0
M  V30 5818 C 530.722 -1.67062 -1.01734 0
M  V30 5819 O 531.928 -2.24235 -1.53072 0
M  V30 5820 C 530.384 -3.52725 0.715075 0
M  V30 5821 C 529.992 -3.9164 2.17537 0
M  V30 5822 C 531.736 -4.22857 0.373154 0
M  V30 5823 C 529.643 -5.40237 2.40619 0
M  V30 5824 H 528.573 -0.737589 0.156455 0
M  V30 5825 H 531.224 -1.52169 1.02552 0
M  V30 5826 H 529.606 -3.95971 0.0475904 0
M  V30 5827 H 530.78 -3.59456 2.88319 0
M  V30 5828 H 529.095 -3.34485 2.4801 0
M  V30 5829 H 531.692 -5.32133 0.523264 0
M  V30 5830 H 532.035 -4.10647 -0.683708 0
M  V30 5831 H 532.568 -3.85135 0.995801 0
M  V30 5832 H 529.307 -5.57449 3.44864 0
M  V30 5833 H 528.827 -5.73887 1.74396 0
M  V30 5834 H 530.506 -6.07102 2.23688 0
M  V30 5835 N 530.638 -0.59345 -1.46 0
M  V30 5836 C 532.054 -0.255965 -1.57534 0
M  V30 5837 C 532.254 1.24167 -1.58697 0
M  V30 5838 O 531.31 2.02398 -1.50968 0
M  V30 5839 C 532.623 -0.91466 -2.86451 0
M  V30 5840 C 534.171 -0.889253 -3.00102 0
M  V30 5841 C 534.646 -1.52769 -4.3177 0
M  V30 5842 N 536.137 -1.49253 -4.38495 0
M  V30 5843 C 536.872 -1.9558 -5.39014 0
M  V30 5844 N 536.368 -2.49929 -6.46148 0
M  V30 5845 N 538.161 -1.86432 -5.30282 0
M  V30 5846 H 530.312 -1.56604 -1.43489 0
M  V30 5847 H 532.575 -0.655207 -0.685133 0
M  V30 5848 H 532.281 -1.96861 -2.91442 0
M  V30 5849 H 532.155 -0.429356 -3.74748 0
M  V30 5850 H 534.542 0.156111 -2.94687 0
M  V30 5851 H 534.623 -1.41268 -2.13253 0
M  V30 5852 H 534.267 -2.57231 -4.37944 0
M  V30 5853 H 534.197 -0.979398 -5.17412 0
M  V30 5854 H 536.688 -1.09536 -3.61677 0
M  V30 5855 H 537.001 -2.83109 -7.19075 0
M  V30 5856 H 535.346 -2.53961 -6.46938 0
M  V30 5857 H 538.537 -1.43722 -4.4549 0
M  V30 5858 H 538.71 -2.22852 -6.08474 0
M  V30 5859 N 532.116 1.54067 -0.331816 0
M  V30 5860 C 533.363 2.00715 0.268269 0
M  V30 5861 C 533.691 1.21986 1.51491 0
M  V30 5862 O 532.946 0.292309 1.93505 0
M  V30 5863 C 533.245 3.51634 0.639392 0
M  V30 5864 C 532.911 4.48018 -0.509019 0
M  V30 5865 C 531.573 4.74089 -0.824209 0
M  V30 5866 C 533.925 5.05237 -1.28003 0
M  V30 5867 C 531.253 5.54637 -1.91298 0
M  V30 5868 C 533.605 5.86972 -2.35895 0
M  V30 5869 C 532.269 6.11342 -2.67987 0
M  V30 5870 H 531.539 0.734469 0.0981667 0
M  V30 5871 H 534.186 1.8596 -0.457304 0
M  V30 5872 H 532.491 3.6416 1.44551 0
M  V30 5873 H 534.188 3.85175 1.11539 0
M  V30 5874 H 530.778 4.27851 -0.253287 0
M  V30 5875 H 534.962 4.8507 -1.04978 0
M  V30 5876 H 530.218 5.71747 -2.16599 0
M  V30 5877 H 534.392 6.30327 -2.96076 0
M  V30 5878 H 532.019 6.73544 -3.5248 0
M  V30 5879 N 533.594 0.0601682 1.57485 0
M  V30 5880 C 534.819 -0.624416 1.97777 0
M  V30 5881 C 535.244 -1.63051 0.937867 0
M  V30 5882 O 534.602 -1.81036 -0.0978845 0
M  V30 5883 C 534.65 -1.27979 3.37126 0
M  V30 5884 O 533.754 -2.39556 3.35688 0
M  V30 5885 H 533.095 -0.161581 0.64404 0
M  V30 5886 H 535.625 0.131237 2.04179 0
M  V30 5887 H 535.635 -1.62937 3.74053 0
M  V30 5888 H 534.31 -0.542501 4.12347 0
M  V30 5889 H 532.887 -2.06478 3.10517 0
M  V30 5890 N 535.072 -1.5615 -0.213296 0
M  V30 5891 C 536.3 -1.83638 -0.953139 0
M  V30 5892 C 536.715 -0.640362 -1.77609 0
M  V30 5893 O 536.072 0.391071 -1.78261 0
M  V30 5894 C 536.123 -3.09735 -1.86405 0
M  V30 5895 O 535.844 -4.24723 -1.07435 0
M  V30 5896 C 537.345 -3.5027 -2.71709 0
M  V30 5897 H 534.565 -0.610263 -0.278962 0
M  V30 5898 H 537.109 -2.03247 -0.226035 0
M  V30 5899 H 535.264 -2.92077 -2.545 0
M  V30 5900 H 535.678 -4.9641 -1.69343 0
M  V30 5901 H 537.152 -4.41515 -3.31313 0
M  V30 5902 H 537.629 -2.72406 -3.44516 0
M  V30 5903 H 538.235 -3.70396 -2.09015 0
M  V30 5904 N 536.55 0.480323 -1.50102 0
M  V30 5905 C 537.482 1.59669 -1.64433 0
M  V30 5906 C 538.495 1.54063 -0.52615 0
M  V30 5907 O 539.684 1.59619 -0.798992 0
M  V30 5908 C 536.784 2.98527 -1.6042 0
M  V30 5909 C 535.957 3.291 -2.88117 0
M  V30 5910 C 535.016 4.47468 -2.76873 0
M  V30 5911 O 534.042 4.4823 -3.50825 0
M  V30 5912 N 535.244 5.48593 -1.89806 0
M  V30 5913 H 538.009 1.47795 -2.60723 0
M  V30 5914 H 535.57 0.66858 -1.4745 0
M  V30 5915 H 537.562 3.75666 -1.50523 0
M  V30 5916 H 536.132 3.04218 -0.719036 0
M  V30 5917 H 535.352 2.40662 -3.12211 0
M  V30 5918 H 536.64 3.46334 -3.72734 0
M  V30 5919 H 536.038 5.50791 -1.2902 0
M  V30 5920 H 534.595 6.24752 -1.85819 0
M  V30 5921 N 538.028 1.39524 0.732853 0
M  V30 5922 C 539.439 1.32905 1.31122 0
M  V30 5923 C 539.79 -0.00558708 1.96199 0
M  V30 5924 O 538.915 -0.907706 1.96443 0
M  V30 5925 C 539.51 2.40704 2.38426 0
M  V30 5926 C 538.069 2.37599 2.91931 0
M  V30 5927 C 537.216 2.2248 1.65523 0
M  V30 5928 H 540.167 1.49581 0.530207 0
M  V30 5929 H 540.188 2.07616 3.18867 0
M  V30 5930 H 539.7 3.37829 1.91033 0
M  V30 5931 H 537.801 1.44119 3.43599 0
M  V30 5932 H 537.914 3.32538 3.44899 0
M  V30 5933 H 536.278 1.69691 1.8994 0
M  V30 5934 H 537.061 3.21577 1.20178 0
M  V30 5935 N 539.506 -0.963266 1.24736 0
M  V30 5936 C 540.753 -1.7068 1.0897 0
M  V30 5937 C 541.081 -1.90934 -0.370751 0
M  V30 5938 O 540.336 -1.47155 -1.29011 0
M  V30 5939 C 540.635 -3.09944 1.7796 0
M  V30 5940 C 540.301 -3.09518 3.27887 0
M  V30 5941 C 538.963 -3.09109 3.68789 0
M  V30 5942 C 541.315 -3.03509 4.23712 0
M  V30 5943 C 538.643 -3.00429 5.03944 0
M  V30 5944 C 540.995 -2.96371 5.5888 0
M  V30 5945 C 539.659 -2.94293 5.99123 0
M  V30 5946 H 538.929 -0.624564 0.398749 0
M  V30 5947 H 541.576 -1.12603 1.54896 0
M  V30 5948 H 539.881 -3.71513 1.2444 0
M  V30 5949 H 541.578 -3.66278 1.63222 0
M  V30 5950 H 538.168 -3.10603 2.95337 0
M  V30 5951 H 542.352 -3.0295 3.93109 0
M  V30 5952 H 537.608 -2.97183 5.34314 0
M  V30 5953 H 541.782 -2.90681 6.32833 0
M  V30 5954 H 539.409 -2.87322 7.03811 0
M  V30 5955 N 540.985 -1.06182 -1.16461 0
M  V30 5956 C 542.21 -0.798599 -1.91408 0
M  V30 5957 C 542.635 0.640987 -1.76842 0
M  V30 5958 O 541.993 1.44652 -1.09296 0
M  V30 5959 C 542.041 -1.19665 -3.40165 0
M  V30 5960 O 541.145 -0.334768 -4.11039 0
M  V30 5961 H 540.486 -0.291961 -0.596368 0
M  V30 5962 H 543.016 -1.41732 -1.47557 0
M  V30 5963 H 543.026 -1.16772 -3.90933 0
M  V30 5964 H 541.701 -2.24526 -3.50087 0
M  V30 5965 H 540.278 -0.425168 -3.70468 0
M  V30 5966 N 542.463 1.3308 -0.844243 0
M  V30 5967 C 543.393 2.3161 -0.296493 0
M  V30 5968 C 544.374 1.59215 0.598707 0
M  V30 5969 O 545.559 1.87077 0.521134 0
M  V30 5970 C 542.689 3.43313 0.524762 0
M  V30 5971 C 541.643 4.27115 -0.275106 0
M  V30 5972 C 540.969 5.30483 0.670236 0
M  V30 5973 C 542.269 5.00443 -1.49514 0
M  V30 5974 H 543.963 2.77672 -1.11976 0
M  V30 5975 H 541.509 1.33496 -0.539899 0
M  V30 5976 H 543.462 4.11273 0.918298 0
M  V30 5977 H 542.186 2.95952 1.3813 0
M  V30 5978 H 540.845 3.60787 -0.650267 0
M  V30 5979 H 540.493 4.79379 1.52332 0
M  V30 5980 H 540.193 5.87435 0.139123 0
M  V30 5981 H 541.717 6.01308 1.06117 0
M  V30 5982 H 543.131 5.61141 -1.17447 0
M  V30 5983 H 541.528 5.67071 -1.96343 0
M  V30 5984 H 542.598 4.28906 -2.26202 0
M  V30 5985 N 543.941 0.601185 1.45683 0
M  V30 5986 C 544.888 -0.121396 2.30481 0
M  V30 5987 C 545.858 -0.866232 1.41724 0
M  V30 5988 O 547.043 -0.85324 1.70659 0
M  V30 5989 C 544.183 -1.11704 3.26521 0
M  V30 5990 C 543.296 -0.373741 4.3038 0
M  V30 5991 C 542.431 -1.35854 5.13534 0
M  V30 5992 C 541.47 -0.602689 6.09126 0
M  V30 5993 N 540.607 -1.53645 6.85082 0
M  V30 5994 H 545.447 0.607732 2.91737 0
M  V30 5995 H 542.984 0.311502 1.43764 0
M  V30 5996 H 544.942 -1.70735 3.80664 0
M  V30 5997 H 543.572 -1.81366 2.67032 0
M  V30 5998 H 542.624 0.331962 3.78949 0
M  V30 5999 H 543.936 0.2163 4.98331 0
M  V30 6000 H 543.09 -2.02111 5.72046 0
M  V30 6001 H 541.829 -1.98251 4.45587 0
M  V30 6002 H 540.834 0.0735482 5.49751 0
M  V30 6003 H 542.059 0.0161467 6.79098 0
M  V30 6004 H 540.005 -2.14819 6.1983 0
M  V30 6005 H 539.922 -0.999688 7.49361 0
M  V30 6006 H 541.19 -2.1888 7.48139 0
M  V30 6007 N 545.419 -1.53889 0.339982 0
M  V30 6008 C 546.367 -2.26391 -0.533822 0
M  V30 6009 C 547.361 -1.28404 -1.10493 0
M  V30 6010 O 548.567 -1.46124 -1.05108 0
M  V30 6011 H 544.942 -0.727385 -0.190828 0
M  V30 6012 H 546.913 -2.98233 0.0997484 0
M  V30 6013 C 545.662 -3.04707 -1.67479 0
M  V30 6014 H 544.985 -3.79934 -1.2446 0
M  V30 6015 H 546.425 -3.58657 -2.26144 0
M  V30 6016 C 544.884 -2.13989 -2.60212 0
M  V30 6017 O 545.414 -1.73361 -3.62366 0
M  V30 6018 N 543.62 -1.79141 -2.28816 0
M  V30 6019 H 543.167 -2.12378 -1.45785 0
M  V30 6020 H 543.125 -1.18725 -2.91121 0
M  V30 6021 N 546.897 -0.0685191 -1.57451 0
M  V30 6022 C 547.827 0.89747 -2.15564 0
M  V30 6023 C 548.808 1.31266 -1.08181 0
M  V30 6024 O 549.993 1.38429 -1.36202 0
M  V30 6025 C 547.123 2.16623 -2.71463 0
M  V30 6026 C 546.077 1.89054 -3.83982 0
M  V30 6027 C 545.403 3.22532 -4.26471 0
M  V30 6028 C 546.703 1.1984 -5.08366 0
M  V30 6029 H 548.397 0.413373 -2.96533 0
M  V30 6030 H 545.943 0.197391 -1.42641 0
M  V30 6031 H 547.896 2.84614 -3.10761 0
M  V30 6032 H 546.62 2.67269 -1.8771 0
M  V30 6033 H 545.279 1.23469 -3.45183 0
M  V30 6034 H 544.927 3.71013 -3.39644 0
M  V30 6035 H 544.627 3.04879 -5.02317 0
M  V30 6036 H 546.151 3.91727 -4.68383 0
M  V30 6037 H 547.565 1.77896 -5.45001 0
M  V30 6038 H 545.962 1.12456 -5.89469 0
M  V30 6039 H 547.032 0.176996 -4.84577 0
M  V30 6040 N 548.375 1.56261 0.205012 0
M  V30 6041 C 549.652 1.70856 0.952233 0
M  V30 6042 C 550.032 0.620501 2.01775 0
M  V30 6043 O 549.38 -0.370035 2.25484 0
M  V30 6044 C 549.59 3.12807 1.54767 0
M  V30 6045 C 550.938 3.72733 2.0336 0
M  V30 6046 O 551.962 3.15873 1.64629 0
M  V30 6047 O 550.821 4.72501 2.746 0
M  V30 6048 H 547.915 0.696496 0.445895 0
M  V30 6049 H 550.461 1.6857 0.195489 0
M  V30 6050 H 549.233 3.83465 0.779132 0
M  V30 6051 H 548.856 3.1928 2.36951 0
M  V30 6052 N 549.853 -0.472356 1.50355 0
M  V30 6053 C 550.801 -1.59126 1.69651 0
M  V30 6054 C 551.795 -1.59793 0.56237 0
M  V30 6055 O 553.001 -1.63957 0.742832 0
M  V30 6056 H 549.376 -0.528008 0.535454 0
M  V30 6057 H 551.347 -1.40013 2.63513 0
M  V30 6058 C 550.096 -2.97075 1.8067 0
M  V30 6059 H 549.419 -2.9728 2.67329 0
M  V30 6060 H 550.859 -3.74825 1.98197 0
M  V30 6061 C 549.318 -3.32247 0.558016 0
M  V30 6062 O 549.848 -4.00553 -0.303399 0
M  V30 6063 N 548.054 -2.87659 0.412415 0
M  V30 6064 H 547.601 -2.32246 1.11443 0
M  V30 6065 H 547.559 -3.11556 -0.421908 0
M  V30 6066 N 551.331 -1.39911 -0.725443 0
M  V30 6067 C 552.556 -1.41137 -1.5197 0
M  V30 6068 C 552.981 -0.010262 -1.88097 0
M  V30 6069 O 552.339 0.979184 -1.52583 0
M  V30 6070 C 552.387 -2.2994 -2.77777 0
M  V30 6071 O 551.491 -1.73586 -3.74088 0
M  V30 6072 H 550.832 -0.480219 -0.458569 0
M  V30 6073 H 553.362 -1.84023 -0.894249 0
M  V30 6074 H 553.372 -2.44785 -3.26411 0
M  V30 6075 H 552.047 -3.31759 -2.50816 0
M  V30 6076 H 550.624 -1.68035 -3.32894 0
M  V30 6077 N 552.809 0.956637 -1.25245 0
M  V30 6078 C 554.055 1.70352 -1.10036 0
M  V30 6079 C 554.388 1.90869 0.358156 0
M  V30 6080 O 553.663 1.47819 1.26411 0
M  V30 6081 C 553.946 3.08766 -1.85298 0
M  V30 6082 C 553.799 2.95672 -3.38966 0
M  V30 6083 C 555.118 4.08622 -1.63451 0
M  V30 6084 H 552.237 0.618279 -0.401123 0
M  V30 6085 H 554.879 1.11212 -1.54051 0
M  V30 6086 H 553.029 3.59252 -1.47887 0
M  V30 6087 H 554.701 2.52527 -3.86041 0
M  V30 6088 H 552.944 2.31634 -3.6678 0
M  V30 6089 H 553.615 3.93776 -3.86839 0
M  V30 6090 H 556.091 3.67038 -1.96015 0
M  V30 6091 H 554.967 5.03514 -2.18551 0
M  V30 6092 H 555.228 4.3834 -0.575357 0
M  V30 6093 N 554.287 1.06798 1.15896 0
M  V30 6094 C 555.237 0.653213 2.18443 0
M  V30 6095 C 556.221 -0.318763 1.57711 0
M  V30 6096 O 557.413 -0.133388 1.76497 0
M  V30 6097 C 554.542 0.0465785 3.43268 0
M  V30 6098 C 553.628 1.04336 4.11066 0
M  V30 6099 N 554.019 2.22084 4.54436 0
M  V30 6100 C 552.317 0.875433 4.37324 0
M  V30 6101 C 553.018 2.85276 5.06944 0
M  V30 6102 N 551.994 2.12973 5.00143 0
M  V30 6103 H 555.796 1.55011 2.49698 0
M  V30 6104 H 553.31 0.940384 1.32403 0
M  V30 6105 H 555.307 -0.26843 4.16035 0
M  V30 6106 H 553.967 -0.845504 3.13499 0
M  V30 6107 H 554.978 2.59833 4.48004 0
M  V30 6108 H 551.655 0.0357721 4.17485 0
M  V30 6109 H 553.045 3.85223 5.50503 0
M  V30 6110 N 555.766 -1.3263 0.851289 0
M  V30 6111 C 556.696 -2.31449 0.308771 0
M  V30 6112 C 557.677 -1.59531 -0.590255 0
M  V30 6113 O 558.862 -1.87351 -0.511205 0
M  V30 6114 C 555.992 -3.43586 -0.506548 0
M  V30 6115 C 554.946 -4.26963 0.297753 0
M  V30 6116 C 554.272 -5.30831 -0.642094 0
M  V30 6117 C 555.572 -4.99643 1.52166 0
M  V30 6118 H 557.266 -2.77074 1.13447 0
M  V30 6119 H 554.812 -1.33207 0.546971 0
M  V30 6120 H 556.765 -4.11754 -0.896474 0
M  V30 6121 H 555.489 -2.96681 -1.36558 0
M  V30 6122 H 554.148 -3.60437 0.669391 0
M  V30 6123 H 553.796 -4.8018 -1.49788 0
M  V30 6124 H 553.496 -5.87501 -0.107968 0
M  V30 6125 H 555.02 -6.01862 -1.02927 0
M  V30 6126 H 556.434 -5.6051 1.20421 0
M  V30 6127 H 554.831 -5.66022 1.99347 0
M  V30 6128 H 555.901 -4.27701 2.28474 0
M  V30 6129 N 557.244 -0.608902 -1.45362 0
M  V30 6130 C 558.484 -0.10763 -2.04116 0
M  V30 6131 C 558.848 1.23883 -1.46686 0
M  V30 6132 O 560.049 1.83091 -1.96803 0
M  V30 6133 C 558.32 -0.0703351 -3.57331 0
M  V30 6134 S 559.879 0.369554 -4.37241 0
M  V30 6135 H 556.697 -0.0502123 -0.709225 0
M  V30 6136 H 559.299 -0.8073 -1.78053 0
M  V30 6137 H 558.003 -1.05379 -3.9664 0
M  V30 6138 H 557.534 0.651287 -3.87971 0
M  V30 6139 H 559.549 1.61878 -4.69052 0
M  V30 6140 N 558.722 1.53707 -0.348139 0
M  V30 6141 C 559.67 2.26671 0.521808 0
M  V30 6142 C 560.664 1.28988 1.09811 0
M  V30 6143 O 561.87 1.4668 1.04332 0
M  V30 6144 H 558.245 0.728387 0.186968 0
M  V30 6145 H 560.216 2.98176 -0.115563 0
M  V30 6146 C 558.965 3.05591 1.6586 0
M  V30 6147 H 558.288 3.80589 1.22443 0
M  V30 6148 H 559.728 3.59851 2.24239 0
M  V30 6149 C 558.187 2.15366 2.59073 0
M  V30 6150 O 558.717 1.7528 3.61441 0
M  V30 6151 N 556.923 1.80352 2.27863 0
M  V30 6152 H 556.47 2.13149 1.44656 0
M  V30 6153 H 556.428 1.20268 2.90488 0
M  V30 6154 N 560.2 0.0768682 1.57412 0
M  V30 6155 C 561.148 -0.906229 2.1422 0
M  V30 6156 C 562.142 -1.30477 1.08037 0
M  V30 6157 O 563.348 -1.28143 1.2641 0
M  V30 6158 H 559.723 -0.310207 0.685037 0
M  V30 6159 H 561.694 -0.402228 2.95677 0
M  V30 6160 C 560.443 -2.16245 2.72274 0
M  V30 6161 H 559.766 -1.86463 3.53655 0
M  V30 6162 H 561.206 -2.83134 3.15613 0
M  V30 6163 C 559.665 -2.92437 1.67279 0
M  V30 6164 O 560.195 -3.86322 1.10081 0
M  V30 6165 N 558.401 -2.55637 1.38195 0
M  V30 6166 H 557.948 -1.79363 1.84897 0
M  V30 6167 H 557.906 -3.06919 0.681787 0
M  V30 6168 N 561.678 -1.56367 -0.196722 0
M  V30 6169 C 562.903 -1.84991 -0.937714 0
M  V30 6170 C 563.328 -0.660244 -1.76132 0
M  V30 6171 O 562.686 0.390967 -1.77034 0
M  V30 6172 C 562.734 -3.11828 -1.81096 0
M  V30 6173 O 561.838 -2.92266 -2.90955 0
M  V30 6174 H 561.179 -0.609193 -0.264159 0
M  V30 6175 H 563.709 -2.03595 -0.202529 0
M  V30 6176 H 563.719 -3.42579 -2.21594 0
M  V30 6177 H 562.394 -3.98037 -1.2058 0
M  V30 6178 H 560.971 -2.72809 -2.54224 0
M  V30 6179 N 563.156 0.464375 -1.50603 0
M  V30 6180 C 564.405 1.21277 -1.61167 0
M  V30 6181 C 564.718 1.92953 -0.320704 0
M  V30 6182 O 565.924 2.69778 -0.30534 0
M  V30 6183 C 564.38 2.20403 -2.84518 0
M  V30 6184 C 563.988 1.54499 -4.20516 0
M  V30 6185 C 565.732 2.95843 -3.0443 0
M  V30 6186 C 563.639 2.51951 -5.35047 0
M  V30 6187 H 562.569 0.456367 -0.600204 0
M  V30 6188 H 565.22 0.48254 -1.77042 0
M  V30 6189 H 563.602 2.96746 -2.62217 0
M  V30 6190 H 564.776 0.83899 -4.53098 0
M  V30 6191 H 563.091 0.913152 -4.06264 0
M  V30 6192 H 565.688 3.6879 -3.87167 0
M  V30 6193 H 566.031 3.55622 -2.16423 0
M  V30 6194 H 566.564 2.26611 -3.26944 0
M  V30 6195 H 563.303 1.96901 -6.25228 0
M  V30 6196 H 562.823 3.20683 -5.06875 0
M  V30 6197 H 564.502 3.13643 -5.65895 0
M  V30 6198 N 564.634 1.40294 0.718013 0
M  V30 6199 C 565.566 1.36281 1.84283 0
M  V30 6200 C 566.579 0.268621 1.60569 0
M  V30 6201 O 567.768 0.528798 1.70487 0
M  V30 6202 C 564.868 1.09741 3.2064 0
M  V30 6203 C 564.041 2.30767 3.71571 0
M  V30 6204 C 563.1 2.00424 4.86535 0
M  V30 6205 O 562.126 2.73268 4.99313 0
M  V30 6206 N 563.328 0.980724 5.72156 0
M  V30 6207 H 566.093 2.3322 1.88225 0
M  V30 6208 H 563.654 1.34616 0.899453 0
M  V30 6209 H 565.646 0.874322 3.95143 0
M  V30 6210 H 564.216 0.214771 3.11861 0
M  V30 6211 H 563.436 2.68921 2.88228 0
M  V30 6212 H 564.724 3.11455 4.02335 0
M  V30 6213 H 564.122 0.377375 5.6444 0
M  V30 6214 H 562.679 0.817538 6.46653 0
M  V30 6215 N 566.112 -0.949982 1.2575 0
M  V30 6216 C 567.059 -2.04738 1.06541 0
M  V30 6217 C 568.029 -1.66078 -0.0268818 0
M  V30 6218 O 569.214 -1.90348 0.131196 0
M  V30 6219 C 566.354 -3.38027 0.695127 0
M  V30 6220 C 565.467 -3.89776 1.86276 0
M  V30 6221 C 564.602 -5.11411 1.4364 0
M  V30 6222 C 563.641 -5.554 2.57287 0
M  V30 6223 N 562.778 -6.68244 2.15395 0
M  V30 6224 H 567.618 -2.20502 2.00457 0
M  V30 6225 H 565.155 -1.0805 0.998178 0
M  V30 6226 H 567.113 -4.14641 0.461375 0
M  V30 6227 H 565.743 -3.22135 -0.207046 0
M  V30 6228 H 564.795 -3.0964 2.20969 0
M  V30 6229 H 566.107 -4.18368 2.71606 0
M  V30 6230 H 565.261 -5.95457 1.16257 0
M  V30 6231 H 564 -4.84545 0.553879 0
M  V30 6232 H 563.005 -4.69916 2.85409 0
M  V30 6233 H 564.23 -5.84272 3.46125 0
M  V30 6234 H 562.176 -6.43078 1.29565 0
M  V30 6235 H 562.093 -6.96377 2.94272 0
M  V30 6236 H 563.361 -7.55687 1.91201 0
M  V30 6237 N 567.59 -1.07411 -1.15328 0
M  V30 6238 C 568.54 -0.664788 -2.18093 0
M  V30 6239 C 569.524 0.310395 -1.57878 0
M  V30 6240 O 570.716 0.124026 -1.76565 0
M  V30 6241 C 567.845 -0.0647822 -3.43239 0
M  V30 6242 C 566.931 -1.06514 -4.10506 0
M  V30 6243 N 567.322 -2.24491 -4.53252 0
M  V30 6244 C 565.62 -0.898613 -4.36853 0
M  V30 6245 C 566.321 -2.8796 -5.05424 0
M  V30 6246 N 565.297 -2.15622 -4.99007 0
M  V30 6247 H 569.099 -1.56333 -2.48872 0
M  V30 6248 H 566.613 -0.947393 -1.31902 0
M  V30 6249 H 568.61 0.246363 -4.16171 0
M  V30 6250 H 567.27 0.828866 -3.13943 0
M  V30 6251 H 568.281 -2.62205 -4.46619 0
M  V30 6252 H 564.958 -0.0579118 -4.1746 0
M  V30 6253 H 566.348 -3.88137 -5.48452 0
M  V30 6254 N 569.068 1.32177 -0.85831 0
M  V30 6255 C 569.998 2.31282 -0.321041 0
M  V30 6256 C 570.979 1.59841 0.581786 0
M  V30 6257 O 572.164 1.87619 0.501262 0
M  V30 6258 C 569.294 3.4385 0.48832 0
M  V30 6259 C 568.248 4.26799 -0.320391 0
M  V30 6260 C 567.574 5.31164 0.613934 0
M  V30 6261 C 568.874 4.98829 -1.54813 0
M  V30 6262 H 570.568 2.76469 -1.14915 0
M  V30 6263 H 568.114 1.32916 -0.554028 0
M  V30 6264 H 570.067 4.12224 0.874626 0
M  V30 6265 H 568.791 2.97401 1.34983 0
M  V30 6266 H 567.45 3.60077 -0.688497 0
M  V30 6267 H 567.098 4.80967 1.47239 0
M  V30 6268 H 566.798 5.8755 0.0768097 0
M  V30 6269 H 568.322 6.024 0.997336 0
M  V30 6270 H 569.736 5.59864 -1.23392 0
M  V30 6271 H 568.133 5.64957 -2.02346 0
M  V30 6272 H 569.203 4.26483 -2.30739 0
M  V30 6273 N 570.547 0.616602 1.45037 0
M  V30 6274 C 571.457 -0.0985401 2.34393 0
M  V30 6275 C 572.473 -0.850971 1.51771 0
M  V30 6276 O 573.649 -0.806521 1.84546 0
M  V30 6277 C 570.714 -1.07748 3.29532 0
M  V30 6278 C 569.775 -0.326022 4.2806 0
M  V30 6279 C 569.008 -1.25833 5.18654 0
M  V30 6280 O 569.231 -2.49652 5.12864 0
M  V30 6281 O 568.165 -0.750512 5.97203 0
M  V30 6282 H 571.991 0.636016 2.96966 0
M  V30 6283 H 569.576 0.376832 1.44569 0
M  V30 6284 H 571.458 -1.64107 3.88133 0
M  V30 6285 H 570.133 -1.79291 2.69512 0
M  V30 6286 H 569.04 0.280253 3.73049 0
M  V30 6287 H 570.373 0.349091 4.9096 0
M  V30 6288 N 572.025 -1.5352 0.356285 0
M  V30 6289 C 572.973 -2.26945 -0.50978 0
M  V30 6290 C 573.967 -1.29569 -1.09125 0
M  V30 6291 O 575.173 -1.47231 -1.03552 0
M  V30 6292 H 571.548 -0.729368 -0.183102 0
M  V30 6293 H 573.519 -2.98111 0.131374 0
M  V30 6294 C 572.268 -3.06466 -1.64237 0
M  V30 6295 H 571.591 -3.81233 -1.20423 0
M  V30 6296 H 573.031 -3.61035 -2.22327 0
M  V30 6297 C 571.49 -2.16737 -2.57928 0
M  V30 6298 O 572.02 -1.77195 -3.60507 0
M  V30 6299 N 570.226 -1.81558 -2.26903 0
M  V30 6300 H 569.773 -2.13913 -1.43524 0
M  V30 6301 H 569.731 -1.21806 -2.89846 0
M  V30 6302 N 573.503 -0.0852151 -1.57369 0
M  V30 6303 C 574.728 0.592872 -1.98746 0
M  V30 6304 C 575.153 1.61538 -0.963689 0
M  V30 6305 O 574.511 1.81168 0.069071 0
M  V30 6306 C 574.559 1.22599 -3.39119 0
M  V30 6307 O 573.663 2.34185 -3.39457 0
M  V30 6308 H 573.004 0.151314 -0.646529 0
M  V30 6309 H 575.534 -0.163703 -2.03944 0
M  V30 6310 H 575.544 1.56965 -3.76598 0
M  V30 6311 H 574.219 0.476831 -4.13158 0
M  V30 6312 H 572.796 2.01512 -3.13763 0
M  V30 6313 N 574.981 1.5647 0.188427 0
M  V30 6314 C 576.221 1.82803 0.914469 0
M  V30 6315 C 576.585 0.663681 1.80165 0
M  V30 6316 O 577.786 0.807059 2.56398 0
M  V30 6317 C 576.057 3.14187 1.70357 0
M  V30 6318 S 577.616 3.61947 2.48072 0
M  V30 6319 H 574.434 0.641497 0.306599 0
M  V30 6320 H 577.036 1.94694 0.177361 0
M  V30 6321 H 575.74 3.96937 1.04255 0
M  V30 6322 H 575.271 3.05192 2.48237 0
M  V30 6323 H 577.286 3.27913 3.72407 0
M  V30 6324 N 576.459 -0.456382 1.50847 0
M  V30 6325 C 577.409 -1.55045 1.67168 0
M  V30 6326 C 578.393 -1.52061 0.525958 0
M  V30 6327 O 579.585 -1.58836 0.781036 0
M  V30 6328 C 576.714 -2.93386 1.78268 0
M  V30 6329 C 575.8 -3.01198 2.98564 0
M  V30 6330 N 576.191 -2.78792 4.22029 0
M  V30 6331 C 574.489 -3.32346 2.97426 0
M  V30 6332 C 575.19 -2.91953 5.03128 0
M  V30 6333 N 574.166 -3.22797 4.37382 0
M  V30 6334 H 577.968 -1.36444 2.60308 0
M  V30 6335 H 575.482 -0.663375 1.48233 0
M  V30 6336 H 577.479 -3.72071 1.88067 0
M  V30 6337 H 576.139 -3.13022 0.862965 0
M  V30 6338 H 577.15 -2.54087 4.51287 0
M  V30 6339 H 573.827 -3.57877 2.15012 0
M  V30 6340 H 575.217 -2.78745 6.11351 0
M  V30 6341 N 577.937 -1.40673 -0.710563 0
M  V30 6342 C 579.353 -1.22813 -1.01928 0
M  V30 6343 C 579.553 -0.10687 -2.01216 0
M  V30 6344 O 578.609 0.533614 -2.46797 0
M  V30 6345 C 579.922 -2.57178 -1.5582 0
M  V30 6346 C 581.47 -2.64233 -1.67779 0
M  V30 6347 C 581.945 -3.98879 -2.25076 0
M  V30 6348 N 583.436 -4.00647 -2.32456 0
M  V30 6349 C 584.171 -5.01621 -2.77784 0
M  V30 6350 N 583.667 -6.12989 -3.22826 0
M  V30 6351 N 585.46 -4.88988 -2.77213 0
M  V30 6352 H 577.611 -2.12335 -0.05253 0
M  V30 6353 H 579.874 -0.9441 -0.085898 0
M  V30 6354 H 579.58 -3.39903 -0.903249 0
M  V30 6355 H 579.454 -2.78618 -2.54267 0
M  V30 6356 H 581.841 -1.81876 -2.3239 0
M  V30 6357 H 581.922 -2.46619 -0.679178 0
M  V30 6358 H 581.566 -4.81678 -1.61086 0
M  V30 6359 H 581.496 -4.13826 -3.25661 0
M  V30 6360 H 583.987 -3.20231 -2.0065 0
M  V30 6361 H 584.3 -6.85921 -3.55995 0
M  V30 6362 H 582.645 -6.16547 -3.20773 0
M  V30 6363 H 585.836 -4.01075 -2.41363 0
M  V30 6364 H 586.009 -5.67822 -3.12221 0
M  V30 6365 N 579.415 0.9433 -1.26252 0
M  V30 6366 C 580.365 2.02746 -1.04297 0
M  V30 6367 C 581.349 1.60882 0.0239435 0
M  V30 6368 O 582.541 1.75947 -0.192757 0
M  V30 6369 C 579.67 3.36585 -0.6757 0
M  V30 6370 C 578.756 3.84939 -1.77996 0
M  V30 6371 N 579.147 4.05966 -3.01704 0
M  V30 6372 C 577.445 4.13833 -1.66308 0
M  V30 6373 C 578.146 4.45987 -3.73458 0
M  V30 6374 N 577.122 4.52569 -3.01135 0
M  V30 6375 H 580.924 2.17012 -1.98199 0
M  V30 6376 H 578.438 1.12898 -1.16738 0
M  V30 6377 H 580.435 4.13896 -0.499571 0
M  V30 6378 H 579.095 3.2369 0.255863 0
M  V30 6379 H 580.106 3.92716 -3.37631 0
M  V30 6380 H 576.783 4.09739 -0.801267 0
M  V30 6381 H 578.173 4.70465 -4.79701 0
M  V30 6382 N 580.893 1.08022 1.14757 0
M  V30 6383 C 582.304 0.829144 1.67279 0
M  V30 6384 C 582.655 -0.644721 1.85305 0
M  V30 6385 O 581.78 -1.49838 1.56133 0
M  V30 6386 C 582.375 1.49855 3.03857 0
M  V30 6387 C 580.934 1.29482 3.53428 0
M  V30 6388 C 580.081 1.56386 2.28995 0
M  V30 6389 H 583.032 1.24134 0.988762 0
M  V30 6390 H 583.053 0.923572 3.69121 0
M  V30 6391 H 582.565 2.57123 2.90705 0
M  V30 6392 H 580.666 0.242669 3.71809 0
M  V30 6393 H 580.779 2.01974 4.34446 0
M  V30 6394 H 579.143 0.985217 2.34874 0
M  V30 6395 H 579.926 2.64851 2.18423 0
M  V30 6396 N 582.371 -1.3172 0.865308 0
M  V30 6397 C 583.301 -2.31109 0.333302 0
M  V30 6398 C 584.282 -1.60148 -0.573301 0
M  V30 6399 O 585.467 -1.87882 -0.491305 0
M  V30 6400 C 582.597 -3.44104 -0.470078 0
M  V30 6401 C 581.551 -4.26623 0.343021 0
M  V30 6402 C 580.877 -5.31482 -0.585756 0
M  V30 6403 C 582.177 -4.98001 1.57456 0
M  V30 6404 H 583.871 -2.75855 1.1638 0
M  V30 6405 H 581.417 -1.3262 0.561069 0
M  V30 6406 H 583.37 -4.12682 -0.852752 0
M  V30 6407 H 582.094 -2.98112 -1.33404 0
M  V30 6408 H 580.753 -3.59707 0.707583 0
M  V30 6409 H 580.401 -4.81741 -1.44686 0
M  V30 6410 H 580.101 -5.87582 -0.0456494 0
M  V30 6411 H 581.625 -6.0292 -0.965375 0
M  V30 6412 H 583.039 -5.59201 1.26359 0
M  V30 6413 H 581.436 -5.63876 2.05339 0
M  V30 6414 H 582.506 -4.25253 2.32997 0
M  V30 6415 N 583.85 -0.624285 -1.44708 0
M  V30 6416 C 584.779 0.0717025 -2.3339 0
M  V30 6417 C 585.76 0.841814 -1.47809 0
M  V30 6418 O 586.946 0.809056 -1.76544 0
M  V30 6419 C 584.076 1.05852 -3.30776 0
M  V30 6420 C 583.029 0.400503 -4.26122 0
M  V30 6421 C 582.356 1.49674 -5.13324 0
M  V30 6422 C 583.656 -0.688924 -5.17737 0
M  V30 6423 H 585.35 -0.668819 -2.91834 0
M  V30 6424 H 582.896 -0.32308 -1.40329 0
M  V30 6425 H 584.849 1.5541 -3.91696 0
M  V30 6426 H 583.572 1.82984 -2.70526 0
M  V30 6427 H 582.231 -0.0743687 -3.66525 0
M  V30 6428 H 581.88 2.25877 -4.49431 0
M  V30 6429 H 581.58 1.06188 -5.77926 0
M  V30 6430 H 583.104 1.99427 -5.77115 0
M  V30 6431 H 584.518 -0.276724 -5.72632 0
M  V30 6432 H 582.915 -1.04652 -5.90904 0
M  V30 6433 H 583.985 -1.55884 -4.5916 0
M  V30 6434 N 585.328 1.53329 -0.364422 0
M  V30 6435 C 586.739 1.86345 0.115039 0
M  V30 6436 C 587.09 1.28505 1.4826 0
M  V30 6437 O 586.215 0.606639 2.07723 0
M  V30 6438 C 586.81 3.38114 0.215522 0
M  V30 6439 C 585.369 3.70932 0.639237 0
M  V30 6440 C 584.516 2.76471 -0.214261 0
M  V30 6441 H 587.467 1.47593 -0.583258 0
M  V30 6442 H 587.488 3.66031 1.0393 0
M  V30 6443 H 587 3.80182 -0.779948 0
M  V30 6444 H 585.101 3.3442 1.64298 0
M  V30 6445 H 585.214 4.77302 0.41465 0
M  V30 6446 H 583.578 2.52724 0.316678 0
M  V30 6447 H 584.361 3.21373 -1.20725 0
M  V30 6448 N 586.806 0.0935595 1.57322 0
M  V30 6449 C 588.217 -0.435807 1.81542 0
M  V30 6450 C 588.568 -1.68263 1.00907 0
M  V30 6451 O 587.693 -2.15087 0.237983 0
M  V30 6452 C 588.288 -0.797436 3.29282 0
M  V30 6453 C 586.847 -1.27155 3.54272 0
M  V30 6454 C 585.994 -0.267455 2.76007 0
M  V30 6455 H 588.945 0.31902 1.5546 0
M  V30 6456 H 588.966 -1.6571 3.42521 0
M  V30 6457 H 588.478 0.110206 3.87943 0
M  V30 6458 H 586.579 -2.19696 3.00939 0
M  V30 6459 H 586.692 -1.23445 4.62923 0
M  V30 6460 H 585.056 -0.749282 2.43429 0
M  V30 6461 H 585.839 0.632839 3.37417 0
M  V30 6462 N 588.284 -1.56567 -0.180126 0
M  V30 6463 C 589.561 -1.7235 -0.924931 0
M  V30 6464 C 589.941 -0.652523 -2.00762 0
M  V30 6465 O 589.289 0.334115 -2.26044 0
M  V30 6466 C 589.499 -3.1523 -1.49771 0
M  V30 6467 C 590.847 -3.75921 -1.97405 0
M  V30 6468 O 591.871 -3.18452 -1.59583 0
M  V30 6469 O 590.73 -4.7681 -2.67048 0
M  V30 6470 H 587.824 -0.703502 -0.434758 0
M  V30 6471 H 590.37 -1.6886 -0.168647 0
M  V30 6472 H 589.142 -3.84656 -0.718027 0
M  V30 6473 H 588.765 -3.23009 -2.31842 0
M  V30 6474 N 589.762 0.448376 -1.51087 0
M  V30 6475 C 590.71 1.56407 -1.72161 0
M  V30 6476 C 591.704 1.58878 -0.587721 0
M  V30 6477 O 592.91 1.62755 -0.768822 0
M  V30 6478 H 589.285 0.519423 -0.543786 0
M  V30 6479 H 591.256 1.35803 -2.65707 0
M  V30 6480 C 590.005 2.94163 -1.85373 0
M  V30 6481 H 589.328 2.9299 -2.72024 0
M  V30 6482 H 590.768 3.71625 -2.04135 0
M  V30 6483 C 589.227 3.31317 -0.610803 0
M  V30 6484 O 589.757 4.00985 0.239636 0
M  V30 6485 N 587.963 2.86966 -0.458127 0
M  V30 6486 H 587.51 2.30443 -1.15124 0
M  V30 6487 H 587.468 3.12188 0.372289 0
M  V30 6488 N 591.24 1.41047 0.703093 0
M  V30 6489 C 592.173 1.36713 1.82715 0
M  V30 6490 C 593.151 0.235533 1.60885 0
M  V30 6491 O 594.335 0.421227 1.83733 0
M  V30 6492 C 591.462 1.13069 3.1927 0
M  V30 6493 C 590.508 2.28846 3.59905 0
M  V30 6494 S 591.341 3.91297 3.65578 0
M  V30 6495 C 592.497 3.69941 5.04871 0
M  V30 6496 H 592.73 2.31838 1.86114 0
M  V30 6497 H 590.263 1.27481 0.871083 0
M  V30 6498 H 592.221 1.00113 3.98105 0
M  V30 6499 H 590.882 0.195763 3.13489 0
M  V30 6500 H 590.075 2.07977 4.59088 0
M  V30 6501 H 589.677 2.3817 2.88359 0
M  V30 6502 H 591.969 3.29181 5.92154 0
M  V30 6503 H 592.912 4.68699 5.30779 0
M  V30 6504 H 593.32 3.03369 4.76054 0
M  V30 6505 N 592.718 -0.936591 1.26751 0
M  V30 6506 C 593.964 -1.68625 1.13741 0
M  V30 6507 C 594.319 -1.898 -0.315221 0
M  V30 6508 O 593.612 -1.47088 -1.22783 0
M  V30 6509 C 593.806 -3.06099 1.84494 0
M  V30 6510 C 593.635 -2.98338 3.36488 0
M  V30 6511 C 592.405 -3.01104 4.05789 0
M  V30 6512 C 594.603 -2.78128 4.32608 0
M  V30 6513 N 592.585 -2.8369 5.4442 0
M  V30 6514 C 593.956 -2.69329 5.58446 0
M  V30 6515 C 596.011 -2.62946 4.22804 0
M  V30 6516 C 594.714 -2.46899 6.75598 0
M  V30 6517 C 596.74 -2.41892 5.39669 0
M  V30 6518 C 596.102 -2.33829 6.64457 0
M  V30 6519 H 592.201 -0.624227 0.471025 0
M  V30 6520 H 594.785 -1.10798 1.601 0
M  V30 6521 H 592.956 -3.62057 1.40604 0
M  V30 6522 H 594.688 -3.69951 1.64067 0
M  V30 6523 H 591.443 -3.10992 3.57185 0
M  V30 6524 H 591.867 -2.78138 6.17226 0
M  V30 6525 H 596.509 -2.67944 3.27056 0
M  V30 6526 H 594.227 -2.40642 7.71438 0
M  V30 6527 H 597.813 -2.31043 5.33957 0
M  V30 6528 H 596.693 -2.17754 7.53361 0
M  V30 6529 N 594.196 -1.08629 -1.14182 0
M  V30 6530 C 595.421 -0.83902 -1.89671 0
M  V30 6531 C 595.846 0.603332 -1.78161 0
M  V30 6532 O 595.204 1.42301 -1.12339 0
M  V30 6533 C 595.252 -1.26854 -3.37551 0
M  V30 6534 O 594.356 -0.42188 -4.10236 0
M  V30 6535 H 593.697 -0.304545 -0.590041 0
M  V30 6536 H 596.227 -1.4483 -1.44518 0
M  V30 6537 H 596.237 -1.25038 -3.88368 0
M  V30 6538 H 594.912 -2.31901 -3.45246 0
M  V30 6539 H 593.489 -0.503654 -3.69483 0
M  V30 6540 N 595.674 1.31259 -0.872281 0
M  V30 6541 C 596.899 2.0133 -0.498099 0
M  V30 6542 C 597.324 1.65031 0.902568 0
M  V30 6543 O 596.682 0.860164 1.59596 0
M  V30 6544 C 596.73 3.54411 -0.665205 0
M  V30 6545 O 595.834 4.11347 0.294473 0
M  V30 6546 H 595.175 0.633844 -0.197832 0
M  V30 6547 H 597.705 1.67402 -1.17633 0
M  V30 6548 H 597.715 4.04147 -0.559373 0
M  V30 6549 H 596.39 3.80171 -1.68651 0
M  V30 6550 H 594.967 3.72624 0.143403 0
M  V30 6551 N 597.152 0.631951 1.44375 0
M  V30 6552 C 598.084 -0.110911 2.28931 0
M  V30 6553 C 599.097 -0.808086 1.41329 0
M  V30 6554 O 600.286 -0.669396 1.65473 0
M  V30 6555 C 597.386 -1.17928 3.1772 0
M  V30 6556 C 596.559 -0.564458 4.33743 0
M  V30 6557 C 595.618 -1.5269 5.0356 0
M  V30 6558 O 594.644 -1.04372 5.59549 0
M  V30 6559 N 595.846 -2.86123 5.05088 0
M  V30 6560 H 598.611 0.614758 2.93327 0
M  V30 6561 H 596.172 0.473171 1.54831 0
M  V30 6562 H 598.164 -1.82348 3.61291 0
M  V30 6563 H 596.734 -1.80717 2.55069 0
M  V30 6564 H 595.954 0.258373 3.93352 0
M  V30 6565 H 597.242 -0.134355 5.08623 0
M  V30 6566 H 596.64 -3.27959 4.60933 0
M  V30 6567 H 595.197 -3.45901 5.52445 0
M  V30 6568 N 598.631 -1.53133 0.372548 0
M  V30 6569 C 600.047 -1.59585 0.02178 0
M  V30 6570 C 600.247 -1.38736 -1.46132 0
M  V30 6571 O 599.303 -1.19599 -2.22379 0
M  V30 6572 C 600.616 -2.9678 0.483959 0
M  V30 6573 C 602.164 -3.09909 0.438775 0
M  V30 6574 C 602.639 -4.49527 0.876876 0
M  V30 6575 N 604.13 -4.55663 0.832214 0
M  V30 6576 C 604.865 -5.61896 1.14281 0
M  V30 6577 N 604.361 -6.75852 1.52303 0
M  V30 6578 N 606.154 -5.51916 1.06515 0
M  V30 6579 H 598.305 -1.64936 1.33827 0
M  V30 6580 H 600.568 -0.773947 0.547458 0
M  V30 6581 H 600.274 -3.17198 1.51915 0
M  V30 6582 H 600.148 -3.7699 -0.125784 0
M  V30 6583 H 602.535 -2.89197 -0.587294 0
M  V30 6584 H 602.616 -2.31691 1.0841 0
M  V30 6585 H 602.26 -4.70979 1.90109 0
M  V30 6586 H 602.19 -5.26186 0.208727 0
M  V30 6587 H 604.681 -3.73844 0.552195 0
M  V30 6588 H 604.994 -7.52862 1.7441 0
M  V30 6589 H 603.339 -6.77226 1.56175 0
M  V30 6590 H 606.53 -4.6177 0.767235 0
M  V30 6591 H 606.703 -6.34609 1.31053 0
M  V30 6592 N 600.109 -0.101901 -1.5727 0
M  V30 6593 C 601.356 0.560197 -1.94597 0
M  V30 6594 C 601.684 1.67767 -0.984101 0
M  V30 6595 O 600.939 1.95699 -0.00489193 0
M  V30 6596 C 601.238 1.14898 -3.38427 0
M  V30 6597 C 600.904 0.154613 -4.50635 0
M  V30 6598 C 599.566 -0.118861 -4.81053 0
M  V30 6599 C 601.918 -0.523979 -5.18559 0
M  V30 6600 C 599.246 -1.0775 -5.76721 0
M  V30 6601 C 601.598 -1.47114 -6.15256 0
M  V30 6602 C 600.262 -1.75278 -6.44076 0
M  V30 6603 H 599.532 0.204991 -0.712081 0
M  V30 6604 H 602.179 -0.17918 -1.9066 0
M  V30 6605 H 600.484 1.96476 -3.38976 0
M  V30 6606 H 602.181 1.66909 -3.64613 0
M  V30 6607 H 598.771 0.377948 -4.2693 0
M  V30 6608 H 602.955 -0.325851 -4.95229 0
M  V30 6609 H 598.211 -1.30263 -5.97362 0
M  V30 6610 H 602.385 -2.00274 -6.66981 0
M  V30 6611 H 600.012 -2.49717 -7.18015 0
M  V30 6612 N 601.587 1.56661 0.17182 0
M  V30 6613 C 602.519 1.92934 1.2373 0
M  V30 6614 C 603.532 0.822385 1.40502 0
M  V30 6615 O 604.721 1.10083 1.40514 0
M  V30 6616 C 601.821 2.16651 2.60607 0
M  V30 6617 C 600.994 3.47878 2.6514 0
M  V30 6618 C 600.053 3.60429 3.83377 0
M  V30 6619 O 599.079 4.33051 3.69398 0
M  V30 6620 N 600.281 2.95241 4.99813 0
M  V30 6621 H 603.046 2.84931 0.929205 0
M  V30 6622 H 600.607 1.5781 0.361588 0
M  V30 6623 H 602.599 2.22312 3.38171 0
M  V30 6624 H 601.169 1.3104 2.83809 0
M  V30 6625 H 600.389 3.53879 1.73675 0
M  V30 6626 H 601.677 4.34232 2.6518 0
M  V30 6627 H 601.075 2.3611 5.14071 0
M  V30 6628 H 599.632 3.06499 5.75241 0
M  V30 6629 N 603.065 -0.440357 1.51323 0
M  V30 6630 C 604.028 -1.51679 1.71832 0
M  V30 6631 C 605.028 -1.49648 0.588386 0
M  V30 6632 O 606.218 -1.51724 0.855891 0
M  V30 6633 C 603.35 -2.91228 1.77199 0
M  V30 6634 H 604.543 -1.34799 2.67898 0
M  V30 6635 H 602.096 -0.66883 1.41267 0
M  V30 6636 H 602.831 -3.13516 0.829363 0
M  V30 6637 H 602.616 -2.94107 2.59314 0
M  V30 6638 H 604.106 -3.69321 1.94915 0
M  V30 6639 N 604.543 -1.41418 -0.695603 0
M  V30 6640 C 605.493 -1.39731 -1.80165 0
M  V30 6641 C 606.477 -0.271689 -1.5859 0
M  V30 6642 O 607.669 -0.512354 -1.69422 0
M  V30 6643 C 604.798 -1.28187 -3.1847 0
M  V30 6644 C 603.884 -2.45612 -3.45739 0
M  V30 6645 N 604.275 -3.71077 -3.43708 0
M  V30 6646 C 602.573 -2.39424 -3.76288 0
M  V30 6647 C 603.274 -4.48957 -3.69882 0
M  V30 6648 N 602.25 -3.7907 -3.89624 0
M  V30 6649 H 606.052 -2.34656 -1.76957 0
M  V30 6650 H 603.566 -1.35473 -0.89559 0
M  V30 6651 H 605.563 -1.2506 -3.977 0
M  V30 6652 H 604.223 -0.342468 -3.22889 0
M  V30 6653 H 605.234 -4.03963 -3.2409 0
M  V30 6654 H 601.911 -1.53955 -3.88077 0
M  V30 6655 H 603.301 -5.57887 -3.74448 0
M  V30 6656 N 606.021 0.929856 -1.27246 0
M  V30 6657 C 606.951 2.04722 -1.12299 0
M  V30 6658 C 607.932 1.70082 -0.0250464 0
M  V30 6659 O 609.117 1.93176 -0.199141 0
M  V30 6660 C 606.247 3.38721 -0.767145 0
M  V30 6661 C 605.201 3.87466 -1.81808 0
M  V30 6662 C 604.527 5.18246 -1.31626 0
M  V30 6663 C 605.827 4.11095 -3.22177 0
M  V30 6664 H 607.521 2.17485 -2.05769 0
M  V30 6665 H 605.067 1.04503 -0.990715 0
M  V30 6666 H 607.02 4.16366 -0.649413 0
M  V30 6667 H 605.744 3.25967 0.203259 0
M  V30 6668 H 604.403 3.12012 -1.92468 0
M  V30 6669 H 604.051 5.01881 -0.335378 0
M  V30 6670 H 603.751 5.51829 -2.01887 0
M  V30 6671 H 605.275 5.98462 -1.21143 0
M  V30 6672 H 606.689 4.79316 -3.1453 0
M  V30 6673 H 605.086 4.55982 -3.90129 0
M  V30 6674 H 606.156 3.16468 -3.67391 0
M  V30 6675 N 607.499 1.09233 1.13605 0
M  V30 6676 C 608.431 0.687794 2.18637 0
M  V30 6677 C 609.444 -0.26936 1.60556 0
M  V30 6678 O 610.633 -0.0557162 1.78413 0
M  V30 6679 C 607.733 -0.00751901 3.38899 0
M  V30 6680 C 606.906 0.97067 4.26494 0
M  V30 6681 C 605.965 0.309129 5.25291 0
M  V30 6682 O 604.991 0.956149 5.61112 0
M  V30 6683 N 606.193 -0.937555 5.72879 0
M  V30 6684 H 608.958 1.59141 2.53957 0
M  V30 6685 H 606.519 0.979515 1.28907 0
M  V30 6686 H 608.511 -0.461238 4.02063 0
M  V30 6687 H 607.081 -0.813353 3.01833 0
M  V30 6688 H 606.301 1.603 3.60135 0
M  V30 6689 H 607.589 1.63323 4.81875 0
M  V30 6690 H 606.987 -1.48281 5.4592 0
M  V30 6691 H 605.544 -1.33463 6.3799 0
M  V30 6692 N 608.977 -1.30795 0.87923 0
M  V30 6693 C 609.887 -2.32041 0.345565 0
M  V30 6694 C 610.903 -1.65103 -0.549265 0
M  V30 6695 O 612.079 -1.9645 -0.443763 0
M  V30 6696 C 609.144 -3.43944 -0.436245 0
M  V30 6697 C 608.205 -4.26521 0.48765 0
M  V30 6698 C 607.438 -5.33081 -0.256943 0
M  V30 6699 O 607.661 -5.50762 -1.48381 0
M  V30 6700 O 606.595 -6.00635 0.389985 0
M  V30 6701 H 610.421 -2.79627 1.18501 0
M  V30 6702 H 608.006 -1.3486 0.642885 0
M  V30 6703 H 609.888 -4.12128 -0.879119 0
M  V30 6704 H 608.563 -2.98504 -1.25208 0
M  V30 6705 H 607.47 -3.61057 0.979216 0
M  V30 6706 H 608.803 -4.75551 1.26933 0
M  V30 6707 N 610.455 -0.639598 -1.44038 0
M  V30 6708 C 611.388 0.109736 -2.27936 0
M  V30 6709 C 612.366 0.843095 -1.39035 0
M  V30 6710 O 613.55 0.845456 -1.68476 0
M  V30 6711 C 610.677 1.16173 -3.18153 0
M  V30 6712 C 609.723 0.527954 -4.2322 0
M  V30 6713 S 610.556 -0.688318 -5.31058 0
M  V30 6714 C 611.712 0.363481 -6.24844 0
M  V30 6715 H 611.945 -0.601986 -2.91142 0
M  V30 6716 H 609.478 -0.42802 -1.48349 0
M  V30 6717 H 611.436 1.76372 -3.7068 0
M  V30 6718 H 610.097 1.84569 -2.54151 0
M  V30 6719 H 609.29 1.32054 -4.86393 0
M  V30 6720 H 608.892 0.000396444 -3.74 0
M  V30 6721 H 611.184 1.23362 -6.66174 0
M  V30 6722 H 612.127 -0.23288 -7.07717 0
M  V30 6723 H 612.535 0.693179 -5.60228 0
M  V30 6724 N 611.933 1.52934 -0.380664 0
M  V30 6725 C 613.181 2.01069 0.203874 0
M  V30 6726 C 613.502 1.26922 1.4804 0
M  V30 6727 O 612.772 0.386787 1.92044 0
M  V30 6728 H 611.352 0.742882 0.0783279 0
M  V30 6729 H 614.014 1.88099 -0.510368 0
M  V30 6730 H 613.11 3.09258 0.42021 0
M  V30 6731 N 613.412 0.11024 1.57214 0
M  V30 6732 C 614.375 -0.828808 2.1369 0
M  V30 6733 C 615.375 -1.20059 1.06969 0
M  V30 6734 O 616.565 -1.12754 1.32786 0
M  V30 6735 C 613.697 -2.11959 2.66994 0
M  V30 6736 H 614.89 -0.338146 2.97988 0
M  V30 6737 H 612.443 -0.138913 1.55681 0
M  V30 6738 H 613.178 -2.65476 1.8626 0
M  V30 6739 H 612.963 -1.86258 3.45037 0
M  V30 6740 H 614.453 -2.79105 3.10629 0
M  V30 6741 N 614.89 -1.56749 -0.16351 0
M  V30 6742 C 616.301 -1.72039 -0.725216 0
M  V30 6743 C 616.652 -0.72202 -1.82432 0
M  V30 6744 O 615.777 0.114942 -2.16095 0
M  V30 6745 C 616.372 -3.11932 -1.32227 0
M  V30 6746 C 614.931 -3.28879 -1.83072 0
M  V30 6747 C 614.078 -2.67984 -0.712716 0
M  V30 6748 H 617.029 -1.58579 0.0619772 0
M  V30 6749 H 617.05 -3.11015 -2.19202 0
M  V30 6750 H 616.562 -3.84572 -0.522103 0
M  V30 6751 H 614.663 -2.61209 -2.65708 0
M  V30 6752 H 614.776 -4.36688 -1.97079 0
M  V30 6753 H 613.14 -2.28005 -1.13515 0
M  V30 6754 H 613.923 -3.43216 0.0757361 0
M  V30 6755 N 616.368 0.432326 -1.51554 0
M  V30 6756 C 617.316 1.54572 -1.73811 0
M  V30 6757 C 618.31 1.58246 -0.604539 0
M  V30 6758 O 619.516 1.6193 -0.786041 0
M  V30 6759 H 615.891 0.513626 -0.549265 0
M  V30 6760 H 617.862 1.32977 -2.67132 0
M  V30 6761 C 616.611 2.92181 -1.88483 0
M  V30 6762 H 615.934 2.90088 -2.75116 0
M  V30 6763 H 617.374 3.69439 -2.08065 0
M  V30 6764 C 615.833 3.3065 -0.645909 0
M  V30 6765 O 616.363 4.01216 0.197093 0
M  V30 6766 N 614.569 2.86464 -0.488538 0
M  V30 6767 H 614.116 2.29209 -1.17562 0
M  V30 6768 H 614.074 3.12565 0.339156 0
M  V30 6769 N 617.846 1.41785 0.688094 0
M  V30 6770 C 618.809 1.43936 1.78368 0
M  V30 6771 C 619.809 0.328866 1.57401 0
M  V30 6772 O 620.999 0.589093 1.63937 0
M  V30 6773 C 618.131 1.25804 3.16838 0
M  V30 6774 H 619.324 2.41472 1.77852 0
M  V30 6775 H 616.877 1.28037 0.896448 0
M  V30 6776 H 617.612 0.291386 3.22988 0
M  V30 6777 H 617.397 2.06272 3.33458 0
M  V30 6778 H 618.887 1.30162 3.96797 0
M  V30 6779 N 619.324 -0.923095 1.27737 0
M  V30 6780 C 620.57 -1.67409 1.15524 0
M  V30 6781 C 620.925 -1.90124 -0.295072 0
M  V30 6782 O 620.218 -1.48382 -1.21216 0
M  V30 6783 C 620.412 -3.04125 1.8773 0
M  V30 6784 C 620.241 -2.94752 3.39634 0
M  V30 6785 C 619.011 -2.96783 4.0896 0
M  V30 6786 C 621.209 -2.73524 4.35533 0
M  V30 6787 N 619.191 -2.779 5.47398 0
M  V30 6788 C 620.562 -2.63391 5.61271 0
M  V30 6789 C 622.617 -2.58447 4.2557 0
M  V30 6790 C 621.32 -2.3972 6.78179 0
M  V30 6791 C 623.346 -2.36154 5.42204 0
M  V30 6792 C 622.708 -2.26768 6.669 0
M  V30 6793 H 618.807 -0.619196 0.477619 0
M  V30 6794 H 621.391 -1.09094 1.61266 0
M  V30 6795 H 619.562 -3.60545 1.44436 0
M  V30 6796 H 621.294 -3.6819 1.67982 0
M  V30 6797 H 618.049 -3.07186 3.60463 0
M  V30 6798 H 618.473 -2.71576 6.20141 0
M  V30 6799 H 623.115 -2.6446 3.2988 0
M  V30 6800 H 620.833 -2.32447 7.73947 0
M  V30 6801 H 624.419 -2.25367 5.36378 0
M  V30 6802 H 623.299 -2.09751 7.55628 0
M  V30 6803 N 620.802 -1.09834 -1.13024 0
M  V30 6804 C 622.027 -0.85909 -1.88771 0
M  V30 6805 C 622.452 0.584402 -1.78791 0
M  V30 6806 O 621.81 1.41101 -1.13842 0
M  V30 6807 C 621.858 -1.30427 -3.36186 0
M  V30 6808 O 620.962 -0.465368 -4.09766 0
M  V30 6809 H 620.303 -0.310786 -0.586778 0
M  V30 6810 H 622.833 -1.46355 -1.42973 0
M  V30 6811 H 622.843 -1.2915 -3.8702 0
M  V30 6812 H 621.518 -2.3555 -3.42767 0
M  V30 6813 H 620.095 -0.542814 -3.68928 0
M  V30 6814 N 622.28 1.30327 -0.886154 0
M  V30 6815 C 623.508 2.00254 -0.520176 0
M  V30 6816 C 623.923 1.66419 0.891637 0
M  V30 6817 O 623.28 0.901951 1.58654 0
M  V30 6818 C 623.331 3.54916 -0.686775 0
M  V30 6819 O 623.052 3.87547 -2.04301 0
M  V30 6820 C 624.553 4.42115 -0.323945 0
M  V30 6821 H 621.773 0.640204 -0.200947 0
M  V30 6822 H 624.317 1.66183 -1.19178 0
M  V30 6823 H 622.472 3.8735 -0.0625273 0
M  V30 6824 H 622.886 4.82247 -2.06249 0
M  V30 6825 H 624.36 5.49808 -0.491407 0
M  V30 6826 H 624.837 4.32953 0.73811 0
M  V30 6827 H 625.443 4.15129 -0.924565 0
M  V30 6828 N 623.758 0.647228 1.43697 0
M  V30 6829 C 625.007 0.155552 2.01099 0
M  V30 6830 C 625.32 -1.23569 1.51624 0
M  V30 6831 O 626.526 -1.82226 2.01261 0
M  V30 6832 C 624.982 0.227296 3.59182 0
M  V30 6833 C 624.59 1.62086 4.17651 0
M  V30 6834 C 626.334 -0.207085 4.23995 0
M  V30 6835 C 624.241 1.64685 5.68008 0
M  V30 6836 H 623.171 0.0543895 0.752036 0
M  V30 6837 H 625.822 0.808386 1.64734 0
M  V30 6838 H 624.204 -0.492937 3.9292 0
M  V30 6839 H 625.378 2.36597 3.95422 0
M  V30 6840 H 623.693 2.0007 3.65186 0
M  V30 6841 H 626.29 -0.207426 5.34298 0
M  V30 6842 H 626.633 -1.23742 3.97484 0
M  V30 6843 H 627.166 0.461193 3.95118 0
M  V30 6844 H 623.905 2.65608 5.99277 0
M  V30 6845 H 623.425 0.944914 5.9231 0
M  V30 6846 H 625.104 1.38792 6.31938 0
M  V30 6847 N 625.236 -1.5273 0.388769 0
M  V30 6848 C 626.485 -2.00757 -0.194833 0
M  V30 6849 C 626.798 -1.27951 -1.47946 0
M  V30 6850 O 628.004 -1.66686 -2.14308 0
M  V30 6851 C 626.46 -3.57695 -0.397762 0
M  V30 6852 C 626.068 -4.394 0.873583 0
M  V30 6853 C 627.812 -4.14012 -0.937759 0
M  V30 6854 C 625.719 -5.87938 0.638962 0
M  V30 6855 H 624.649 -0.750101 -0.0765845 0
M  V30 6856 H 627.3 -1.76239 0.511086 0
M  V30 6857 H 625.682 -3.7846 -1.16552 0
M  V30 6858 H 626.856 -4.30403 1.64591 0
M  V30 6859 H 625.171 -3.94301 1.33849 0
M  V30 6860 H 627.768 -5.22645 -1.12899 0
M  V30 6861 H 628.111 -3.7007 -1.90666 0
M  V30 6862 H 628.644 -3.97137 -0.229588 0
M  V30 6863 H 625.383 -6.36202 1.57885 0
M  V30 6864 H 624.903 -5.99726 -0.094443 0
M  V30 6865 H 626.582 -6.46423 0.273299 0
M  V30 6866 N 626.714 -0.118576 -1.57153 0
M  V30 6867 C 627.96 0.540326 -1.95469 0
M  V30 6868 C 628.293 1.66356 -1.00196 0
M  V30 6869 O 627.568 1.94461 -0.039104 0
M  V30 6870 C 627.851 1.07342 -3.43729 0
M  V30 6871 C 627.704 -0.0463732 -4.49776 0
M  V30 6872 C 629.023 1.96442 -3.93826 0
M  V30 6873 H 626.142 0.19494 -0.710751 0
M  V30 6874 H 628.784 -0.19405 -1.89006 0
M  V30 6875 H 626.934 1.69925 -3.49368 0
M  V30 6876 H 628.606 -0.681648 -4.56236 0
M  V30 6877 H 626.849 -0.709574 -4.27957 0
M  V30 6878 H 627.52 0.367856 -5.50773 0
M  V30 6879 H 629.996 1.43731 -3.90488 0
M  V30 6880 H 628.872 2.3066 -4.98084 0
M  V30 6881 H 629.133 2.89077 -3.34495 0
M  V30 6882 N 628.193 1.56834 0.155195 0
M  V30 6883 C 629.604 1.72421 0.716082 0
M  V30 6884 C 629.955 0.731685 1.82046 0
M  V30 6885 O 629.08 -0.103481 2.16152 0
M  V30 6886 C 629.675 3.12629 1.30571 0
M  V30 6887 C 628.234 3.29846 1.81325 0
M  V30 6888 C 627.381 2.68359 0.698494 0
M  V30 6889 H 630.332 1.58544 -0.0703861 0
M  V30 6890 H 630.353 3.12174 2.1755 0
M  V30 6891 H 629.865 3.84844 0.501701 0
M  V30 6892 H 627.966 2.62614 2.64319 0
M  V30 6893 H 628.079 4.37727 1.9476 0
M  V30 6894 H 626.443 2.28604 1.12305 0
M  V30 6895 H 627.226 3.43171 -0.0939366 0
M  V30 6896 N 629.671 -0.424282 1.51781 0
M  V30 6897 C 630.919 -1.17028 1.64769 0
M  V30 6898 C 631.24 -1.91409 0.372523 0
M  V30 6899 O 630.51 -1.86091 -0.612108 0
M  V30 6900 H 629.09 -0.434992 0.607282 0
M  V30 6901 H 631.752 -0.485169 1.88765 0
M  V30 6902 H 630.848 -1.8927 2.4816 0
M  V30 6903 N 631.149 -1.42148 -0.680565 0
M  V30 6904 C 632.082 -1.39602 -1.80517 0
M  V30 6905 C 633.06 -0.261098 -1.6049 0
M  V30 6906 O 634.244 -0.450404 -1.8304 0
M  V30 6907 C 631.371 -1.18134 -3.1743 0
M  V30 6908 C 630.417 -2.34543 -3.56219 0
M  V30 6909 S 631.25 -3.97063 -3.59306 0
M  V30 6910 C 632.406 -3.77926 -4.98921 0
M  V30 6911 H 632.639 -2.3477 -1.82402 0
M  V30 6912 H 630.172 -1.28851 -0.850691 0
M  V30 6913 H 632.13 -1.06434 -3.96462 0
M  V30 6914 H 630.791 -0.245611 -3.13138 0
M  V30 6915 H 629.984 -2.15255 -4.55721 0
M  V30 6916 H 629.586 -2.42728 -2.84533 0
M  V30 6917 H 631.878 -3.3856 -5.86842 0
M  V30 6918 H 632.821 -4.77084 -5.23256 0
M  V30 6919 H 633.229 -3.10904 -4.71167 0
M  V30 6920 N 632.627 0.916307 -1.28225 0
M  V30 6921 C 633.574 2.01841 -1.11932 0
M  V30 6922 C 634.544 1.66091 -0.0171604 0
M  V30 6923 O 635.729 1.89934 -0.181617 0
M  V30 6924 C 632.869 3.36065 -0.784504 0
M  V30 6925 C 631.982 3.847 -1.96544 0
M  V30 6926 C 631.117 5.07423 -1.57149 0
M  V30 6927 C 630.156 5.48384 -2.71922 0
M  V30 6928 N 629.293 6.62298 -2.33037 0
M  V30 6929 H 634.133 2.1511 -2.06232 0
M  V30 6930 H 631.67 1.05366 -1.02647 0
M  V30 6931 H 633.628 4.13272 -0.571148 0
M  V30 6932 H 632.258 3.22571 0.121565 0
M  V30 6933 H 631.31 3.03673 -2.291 0
M  V30 6934 H 632.622 4.1102 -2.82603 0
M  V30 6935 H 631.776 5.92165 -1.32004 0
M  V30 6936 H 630.515 4.82906 -0.682153 0
M  V30 6937 H 629.52 4.62184 -2.97768 0
M  V30 6938 H 630.745 5.7489 -3.61494 0
M  V30 6939 H 628.691 6.39416 -1.4657 0
M  V30 6940 H 628.608 6.8833 -3.12631 0
M  V30 6941 H 629.876 7.50352 -2.11169 0
M  V30 6942 N 634.105 1.10431 1.1244 0
M  V30 6943 C 635.382 0.758797 1.80282 0
M  V30 6944 C 635.762 -0.754727 1.97147 0
M  V30 6945 O 635.11 -1.68094 1.54779 0
M  V30 6946 C 635.32 1.50982 3.14651 0
M  V30 6947 C 636.668 1.68232 3.8985 0
M  V30 6948 O 637.692 1.47319 3.24308 0
M  V30 6949 O 636.551 2.02905 5.07437 0
M  V30 6950 H 633.645 0.273756 0.780376 0
M  V30 6951 H 636.191 1.20713 1.19275 0
M  V30 6952 H 634.963 2.53989 2.97666 0
M  V30 6953 H 634.586 1.05435 3.83366 0
M  V30 6954 N 635.583 -1.29855 0.893053 0
M  V30 6955 C 636.546 -2.26183 0.370687 0
M  V30 6956 C 637.546 -1.53108 -0.491385 0
M  V30 6957 O 638.736 -1.71643 -0.297386 0
M  V30 6958 C 635.868 -3.37633 -0.470827 0
M  V30 6959 H 637.061 -2.73903 1.22135 0
M  V30 6960 H 634.614 -1.41183 0.67061 0
M  V30 6961 H 635.349 -2.95241 -1.34175 0
M  V30 6962 H 635.134 -3.91825 0.146784 0
M  V30 6963 H 636.624 -4.09313 -0.827825 0
M  V30 6964 N 637.061 -0.65484 -1.43351 0
M  V30 6965 C 638.307 -0.169142 -2.02093 0
M  V30 6966 C 638.64 1.21431 -1.51553 0
M  V30 6967 O 637.915 1.81105 -0.709317 0
M  V30 6968 C 638.198 -0.181775 -3.59641 0
M  V30 6969 C 638.051 -1.59926 -4.20409 0
M  V30 6970 C 639.37 0.480945 -4.37464 0
M  V30 6971 H 636.489 -0.0629371 -0.734308 0
M  V30 6972 H 639.131 -0.835833 -1.70628 0
M  V30 6973 H 637.281 0.385918 -3.86578 0
M  V30 6974 H 638.953 -2.21766 -4.04497 0
M  V30 6975 H 637.196 -2.14605 -3.76998 0
M  V30 6976 H 637.867 -1.55994 -5.295 0
M  V30 6977 H 640.343 -0.00208273 -4.161 0
M  V30 6978 H 639.219 0.441384 -5.47122 0
M  V30 6979 H 639.48 1.55533 -4.13838 0
M  V30 6980 N 638.539 1.52521 -0.396863 0
M  V30 6981 C 639.788 2.00857 0.184184 0
M  V30 6982 C 640.101 1.28733 1.47265 0
M  V30 6983 O 641.307 1.67821 2.13421 0
M  V30 6984 C 639.763 3.57901 0.378787 0
M  V30 6985 C 639.371 4.38931 -0.896873 0
M  V30 6986 C 641.115 4.14504 0.915789 0
M  V30 6987 C 639.022 5.87591 -0.670133 0
M  V30 6988 H 637.952 0.750496 0.0726055 0
M  V30 6989 H 640.603 1.75965 -0.520425 0
M  V30 6990 H 638.985 3.79072 1.14543 0
M  V30 6991 H 640.159 4.29524 -1.66872 0
M  V30 6992 H 638.474 3.93586 -1.35938 0
M  V30 6993 H 641.071 5.23236 1.10126 0
M  V30 6994 H 641.414 3.71076 1.88701 0
M  V30 6995 H 641.947 3.97253 0.208523 0
M  V30 6996 H 638.686 6.35355 -1.61257 0
M  V30 6997 H 638.206 5.99767 0.0626368 0
M  V30 6998 H 639.885 6.46268 -0.307577 0
M  V30 6999 N 640.017 0.126909 1.57088 0
M  V30 7000 C 640.967 -0.831678 2.1229 0
M  V30 7001 C 641.951 -1.22292 1.04564 0
M  V30 7002 O 643.143 -1.19269 1.30782 0
M  V30 7003 C 640.272 -2.07866 2.73215 0
M  V30 7004 C 639.358 -1.71143 3.88035 0
M  V30 7005 N 639.749 -1.05136 4.94753 0
M  V30 7006 C 638.047 -2.00549 3.98367 0
M  V30 7007 C 638.748 -0.877257 5.75047 0
M  V30 7008 N 637.724 -1.40477 5.25135 0
M  V30 7009 H 641.526 -0.317926 2.92175 0
M  V30 7010 H 639.04 -0.0753052 1.62225 0
M  V30 7011 H 641.037 -2.77516 3.11111 0
M  V30 7012 H 639.697 -2.59778 1.94796 0
M  V30 7013 H 640.708 -0.71442 5.12949 0
M  V30 7014 H 637.385 -2.54452 3.30999 0
M  V30 7015 H 638.775 -0.358536 6.70943 0
M  V30 7016 N 641.495 -1.56914 -0.146875 0
M  V30 7017 C 642.458 -1.97368 -1.16526 0
M  V30 7018 C 643.458 -0.860223 -1.35856 0
M  V30 7019 O 644.648 -1.12684 -1.32846 0
M  V30 7020 C 641.78 -2.28974 -2.52555 0
M  V30 7021 H 642.973 -2.88523 -0.818209 0
M  V30 7022 H 640.526 -1.5135 -0.390221 0
M  V30 7023 H 641.261 -1.40611 -2.92231 0
M  V30 7024 H 641.046 -3.10157 -2.39886 0
M  V30 7025 H 642.536 -2.61109 -3.25902 0
M  V30 7026 N 642.974 0.416227 -1.52004 0
M  V30 7027 C 643.904 1.51365 -1.77795 0
M  V30 7028 C 644.885 1.58059 -0.628601 0
M  V30 7029 O 646.07 1.73447 -0.873478 0
M  V30 7030 C 643.2 2.89256 -1.92219 0
M  V30 7031 C 642.154 2.97415 -3.0778 0
M  V30 7032 C 641.48 4.37492 -3.07417 0
M  V30 7033 C 642.78 2.69551 -4.47369 0
M  V30 7034 H 644.474 1.30033 -2.69688 0
M  V30 7035 H 642.02 0.624112 -1.29772 0
M  V30 7036 H 643.973 3.66008 -2.08845 0
M  V30 7037 H 642.697 3.11866 -0.969917 0
M  V30 7038 H 641.356 2.23107 -2.90893 0
M  V30 7039 H 641.004 4.571 -2.09925 0
M  V30 7040 H 640.704 4.43877 -3.85029 0
M  V30 7041 H 642.228 5.16188 -3.26162 0
M  V30 7042 H 643.642 3.36028 -4.64497 0
M  V30 7043 H 642.039 2.87321 -5.26846 0
M  V30 7044 H 643.109 1.65029 -4.55953 0
M  V30 7045 N 644.452 1.42507 0.673017 0
M  V30 7046 C 645.384 1.42074 1.79854 0
M  V30 7047 C 646.397 0.319569 1.59633 0
M  V30 7048 O 647.586 0.582769 1.68719 0
M  V30 7049 C 644.686 1.19886 3.16987 0
M  V30 7050 C 643.859 2.42471 3.64042 0
M  V30 7051 C 642.918 2.15802 4.79913 0
M  V30 7052 O 641.944 2.89015 4.90366 0
M  V30 7053 N 643.146 1.16225 5.68746 0
M  V30 7054 H 645.911 2.3909 1.8071 0
M  V30 7055 H 643.472 1.37409 0.856171 0
M  V30 7056 H 645.464 0.999591 3.92161 0
M  V30 7057 H 644.034 0.313879 3.1102 0
M  V30 7058 H 643.254 2.77954 2.79526 0
M  V30 7059 H 644.542 3.24097 3.92223 0
M  V30 7060 H 643.94 0.556756 5.62954 0
M  V30 7061 H 642.497 1.02285 6.43724 0
M  V30 7062 N 645.93 -0.909495 1.28709 0
M  V30 7063 C 647.158 -1.69272 1.18973 0
M  V30 7064 C 647.573 -1.87123 -0.251048 0
M  V30 7065 O 646.93 -1.40127 -1.16922 0
M  V30 7066 C 646.981 -3.08257 1.88839 0
M  V30 7067 O 646.702 -2.91228 3.27289 0
M  V30 7068 C 648.203 -4.02642 1.85457 0
M  V30 7069 H 645.423 -0.528999 0.412797 0
M  V30 7070 H 647.967 -1.13803 1.69909 0
M  V30 7071 H 646.122 -3.6053 1.41762 0
M  V30 7072 H 646.536 -3.79223 3.6234 0
M  V30 7073 H 648.01 -4.97613 2.38925 0
M  V30 7074 H 648.487 -4.31327 0.827893 0
M  V30 7075 H 649.093 -3.56298 2.32233 0
M  V30 7076 N 647.408 -1.11026 -1.11852 0
M  V30 7077 C 648.633 -0.879064 -1.87849 0
M  V30 7078 C 649.058 0.565406 -1.79401 0
M  V30 7079 O 648.416 1.39886 -1.15333 0
M  V30 7080 C 648.464 -1.33985 -3.34784 0
M  V30 7081 O 647.568 -0.508803 -4.09249 0
M  V30 7082 H 646.909 -0.316992 -0.583448 0
M  V30 7083 H 649.439 -1.47863 -1.41413 0
M  V30 7084 H 649.449 -1.33248 -3.85628 0
M  V30 7085 H 648.124 -2.39172 -3.40249 0
M  V30 7086 H 646.701 -0.581913 -3.68332 0
M  V30 7087 N 648.886 1.2938 -0.899927 0
M  V30 7088 C 649.818 2.26737 -0.335139 0
M  V30 7089 C 650.831 1.54316 0.518681 0
M  V30 7090 O 652.02 1.75313 0.335803 0
M  V30 7091 C 649.12 3.34558 0.540774 0
M  V30 7092 C 648.293 4.36455 -0.287372 0
M  V30 7093 C 647.352 5.2361 0.52141 0
M  V30 7094 O 646.378 5.69167 -0.0611735 0
M  V30 7095 N 647.58 5.50985 1.82745 0
M  V30 7096 H 650.345 2.75838 -1.17191 0
M  V30 7097 H 647.906 1.42716 -0.764438 0
M  V30 7098 H 649.898 3.89794 1.08825 0
M  V30 7099 H 648.468 2.85272 1.27823 0
M  V30 7100 H 647.688 3.80875 -1.01626 0
M  V30 7101 H 648.976 5.01573 -0.854518 0
M  V30 7102 H 648.374 5.15781 2.32349 0
M  V30 7103 H 646.931 6.09036 2.32204 0
M  V30 7104 N 650.364 0.662433 1.43002 0
M  V30 7105 C 651.641 0.109096 1.95296 0
M  V30 7106 C 652.021 -1.37313 1.60338 0
M  V30 7107 O 651.369 -2.1032 0.893187 0
M  V30 7108 C 651.579 0.365096 3.47085 0
M  V30 7109 C 652.927 0.274964 4.23709 0
M  V30 7110 O 653.951 0.29816 3.5495 0
M  V30 7111 O 652.81 0.206549 5.4611 0
M  V30 7112 H 649.904 -0.00429724 0.826989 0
M  V30 7113 H 652.45 0.736308 1.52894 0
M  V30 7114 H 651.222 1.39237 3.65689 0
M  V30 7115 H 650.845 -0.294733 3.96506 0
M  V30 7116 N 651.842 -1.52309 0.404946 0
M  V30 7117 C 653.07 -2.06185 -0.171818 0
M  V30 7118 C 653.485 -1.27536 -1.39212 0
M  V30 7119 O 652.842 -0.326112 -1.79563 0
M  V30 7120 C 652.893 -3.57647 -0.526417 0
M  V30 7121 O 652.614 -4.3332 0.645417 0
M  V30 7122 C 654.115 -4.27925 -1.15736 0
M  V30 7123 H 651.335 -0.670632 -0.0222328 0
M  V30 7124 H 653.879 -1.96259 0.574692 0
M  V30 7125 H 652.034 -3.67595 -1.22282 0
M  V30 7126 H 652.448 -5.23328 0.35042 0
M  V30 7127 H 653.922 -5.35093 -1.35572 0
M  V30 7128 H 654.399 -3.84134 -2.12926 0
M  V30 7129 H 655.005 -4.22335 -0.501281 0
M  V30 7130 N 653.32 -0.135238 -1.57019 0
M  V30 7131 C 654.566 0.519563 -1.96032 0
M  V30 7132 C 654.899 1.65284 -1.01955 0
M  V30 7133 O 654.174 1.94408 -0.059727 0
M  V30 7134 C 654.457 1.0369 -3.44848 0
M  V30 7135 C 654.31 -0.0940754 -4.49702 0
M  V30 7136 C 655.629 1.92254 -3.95887 0
M  V30 7137 H 652.748 0.18739 -0.712779 0
M  V30 7138 H 655.39 -0.214086 -1.8879 0
M  V30 7139 H 653.54 1.66209 -3.5115 0
M  V30 7140 H 655.212 -0.73 -4.55487 0
M  V30 7141 H 653.455 -0.754924 -4.27181 0
M  V30 7142 H 654.126 0.309419 -5.51132 0
M  V30 7143 H 656.602 1.39581 -3.9199 0
M  V30 7144 H 655.478 2.25364 -5.00502 0
M  V30 7145 H 655.739 2.85513 -3.37543 0
M  V30 7146 N 654.798 1.5699 0.138552 0
M  V30 7147 C 655.73 1.95515 1.1961 0
M  V30 7148 C 656.743 0.852002 1.38726 0
M  V30 7149 O 657.932 1.13038 1.38147 0
M  V30 7150 C 655.032 2.2213 2.55952 0
M  V30 7151 C 654.205 3.53424 2.57702 0
M  V30 7152 C 653.264 3.6848 3.75645 0
M  V30 7153 O 652.29 4.4079 3.60129 0
M  V30 7154 N 653.492 3.05777 4.93438 0
M  V30 7155 H 656.257 2.86838 0.868557 0
M  V30 7156 H 653.818 1.58542 0.328033 0
M  V30 7157 H 655.81 2.29435 3.33379 0
M  V30 7158 H 654.38 1.3703 2.80965 0
M  V30 7159 H 653.6 3.57484 1.6613 0
M  V30 7160 H 654.888 4.39759 2.55909 0
M  V30 7161 H 654.286 2.46961 5.08947 0
M  V30 7162 H 652.843 3.18631 5.6861 0
M  V30 7163 N 656.276 -0.40816 1.52223 0
M  V30 7164 C 657.516 -1.16418 1.68006 0
M  V30 7165 C 657.88 -1.87749 0.401793 0
M  V30 7166 O 659.081 -2.65245 0.435743 0
M  V30 7167 C 657.352 -2.13143 2.86889 0
M  V30 7168 S 658.911 -2.96839 3.2316 0
M  V30 7169 H 655.729 -0.394373 0.5916 0
M  V30 7170 H 658.331 -0.451349 1.90219 0
M  V30 7171 H 657.035 -1.59428 3.78168 0
M  V30 7172 H 656.566 -2.88963 2.66953 0
M  V30 7173 H 658.581 -4.151 2.71857 0
M  V30 7174 N 657.755 -1.42862 -0.66545 0
M  V30 7175 C 659.171 -1.25993 -0.979687 0
M  V30 7176 C 659.371 -0.170831 -2.00775 0
M  V30 7177 O 658.427 0.454827 -2.4837 0
M  V30 7178 C 659.74 -2.62005 -1.47559 0
M  V30 7179 C 661.288 -2.69437 -1.59288 0
M  V30 7180 C 661.763 -4.05838 -2.12272 0
M  V30 7181 N 663.254 -4.0784 -2.19592 0
M  V30 7182 C 663.989 -5.10205 -2.61684 0
M  V30 7183 N 663.485 -6.22949 -3.03161 0
M  V30 7184 N 665.278 -4.9756 -2.61516 0
M  V30 7185 H 657.429 -2.12395 0.0150493 0
M  V30 7186 H 659.692 -0.946355 -0.0558187 0
M  V30 7187 H 659.398 -3.42605 -0.794654 0
M  V30 7188 H 659.272 -2.86566 -2.45275 0
M  V30 7189 H 661.659 -1.89178 -2.26486 0
M  V30 7190 H 661.74 -2.48655 -0.600374 0
M  V30 7191 H 661.384 -4.86559 -1.4568 0
M  V30 7192 H 661.314 -4.23977 -3.12331 0
M  V30 7193 H 663.805 -3.26452 -1.90361 0
M  V30 7194 H 664.118 -6.96899 -3.33993 0
M  V30 7195 H 662.463 -6.2644 -3.00995 0
M  V30 7196 H 665.654 -4.08551 -2.28481 0
M  V30 7197 H 665.827 -5.77468 -2.93999 0
M  V30 7198 N 659.233 0.902656 -1.29189 0
M  V30 7199 C 660.18 2.00643 -1.14066 0
M  V30 7200 C 661.15 1.66064 -0.0347756 0
M  V30 7201 O 662.335 1.8973 -0.201752 0
M  V30 7202 C 659.475 3.35214 -0.820104 0
M  V30 7203 C 658.588 3.82594 -2.00614 0
M  V30 7204 C 657.723 5.05727 -1.62522 0
M  V30 7205 C 656.762 5.45469 -2.77724 0
M  V30 7206 N 655.899 6.59789 -2.40048 0
M  V30 7207 H 660.739 2.1291 -2.08502 0
M  V30 7208 H 658.276 1.04271 -1.03759 0
M  V30 7209 H 660.234 4.12643 -0.614949 0
M  V30 7210 H 658.864 3.22682 0.0873452 0
M  V30 7211 H 657.916 3.01226 -2.32308 0
M  V30 7212 H 659.228 4.07999 -2.86946 0
M  V30 7213 H 658.382 5.90732 -1.38277 0
M  V30 7214 H 657.121 4.82155 -0.733333 0
M  V30 7215 H 656.126 4.59 -3.02653 0
M  V30 7216 H 657.351 5.71024 -3.67572 0
M  V30 7217 H 655.297 6.37826 -1.53343 0
M  V30 7218 H 655.214 6.84975 -3.19914 0
M  V30 7219 H 656.482 7.4807 -2.19116 0
M  V30 7220 N 660.711 1.11618 1.11262 0
M  V30 7221 C 661.674 0.779447 2.15539 0
M  V30 7222 C 662.674 -0.202081 1.59525 0
M  V30 7223 O 663.864 0.0226356 1.74185 0
M  V30 7224 C 660.996 0.15674 3.40539 0
M  V30 7225 H 662.189 1.70324 2.4684 0
M  V30 7226 H 659.742 0.918298 1.26479 0
M  V30 7227 H 660.477 -0.777186 3.1485 0
M  V30 7228 H 660.262 0.863308 3.82478 0
M  V30 7229 H 661.752 -0.062661 4.17553 0
M  V30 7230 N 662.189 -1.289 0.906776 0
M  V30 7231 C 663.414 -1.99939 0.551303 0
M  V30 7232 C 663.839 -1.67366 -0.858496 0
M  V30 7233 O 663.197 -0.902176 -1.57259 0
M  V30 7234 C 663.245 -3.52523 0.758937 0
M  V30 7235 O 662.349 -4.11983 -0.185308 0
M  V30 7236 H 661.69 -0.628376 0.214568 0
M  V30 7237 H 664.22 -1.64225 1.2203 0
M  V30 7238 H 664.23 -4.02522 0.666329 0
M  V30 7239 H 662.905 -3.75566 1.78671 0
M  V30 7240 H 661.482 -3.72873 -0.0445577 0
M  V30 7241 N 663.667 -0.670007 -1.42649 0
M  V30 7242 C 664.914 -0.190286 -2.01604 0
M  V30 7243 C 665.242 1.20155 -1.52948 0
M  V30 7244 O 664.497 1.81964 -0.72026 0
M  V30 7245 C 664.796 -0.168298 -3.57004 0
M  V30 7246 C 664.462 -1.50415 -4.25072 0
M  V30 7247 C 663.124 -1.86992 -4.43382 0
M  V30 7248 C 665.476 -2.38414 -4.63474 0
M  V30 7249 C 662.804 -3.11203 -4.97363 0
M  V30 7250 C 665.156 -3.61933 -5.18833 0
M  V30 7251 C 663.82 -3.98685 -5.35356 0
M  V30 7252 H 663.09 -0.0696305 -0.737721 0
M  V30 7253 H 665.737 -0.864044 -1.70899 0
M  V30 7254 H 664.042 0.588958 -3.87348 0
M  V30 7255 H 665.739 0.22001 -4.00396 0
M  V30 7256 H 662.329 -1.20959 -4.11177 0
M  V30 7257 H 666.513 -2.11442 -4.49006 0
M  V30 7258 H 661.769 -3.39705 -5.08341 0
M  V30 7259 H 665.943 -4.30326 -5.47533 0
M  V30 7260 H 663.57 -4.95009 -5.76949 0
M  V30 7261 N 665.145 1.52092 -0.413018 0
M  V30 7262 C 666.055 2.30858 0.417318 0
M  V30 7263 C 667.071 1.38746 1.05003 0
M  V30 7264 O 668.247 1.71821 1.05069 0
M  V30 7265 C 665.312 3.11756 1.51687 0
M  V30 7266 C 664.373 4.19613 0.906825 0
M  V30 7267 C 663.606 4.96644 1.95399 0
M  V30 7268 O 663.829 4.7402 3.17271 0
M  V30 7269 O 662.763 5.81385 1.55805 0
M  V30 7270 H 666.589 3.02865 -0.225028 0
M  V30 7271 H 664.174 1.48358 -0.176126 0
M  V30 7272 H 666.056 3.62122 2.15512 0
M  V30 7273 H 664.731 2.42539 2.14375 0
M  V30 7274 H 663.638 3.73385 0.231183 0
M  V30 7275 H 664.971 4.91134 0.323814 0
M  V30 7276 N 666.623 0.143563 1.56945 0
M  V30 7277 C 667.553 -0.7936 2.196 0
M  V30 7278 C 668.534 -1.25955 1.14321 0
M  V30 7279 O 669.719 -1.31773 1.42651 0
M  V30 7280 C 666.849 -2.03424 2.81489 0
M  V30 7281 C 665.803 -1.70519 3.92565 0
M  V30 7282 C 665.129 -3.01817 4.41373 0
M  V30 7283 C 666.429 -0.95449 5.13504 0
M  V30 7284 H 668.123 -0.271423 2.98167 0
M  V30 7285 H 665.669 -0.12911 1.4342 0
M  V30 7286 H 667.622 -2.69463 3.23987 0
M  V30 7287 H 666.346 -2.58008 2.00248 0
M  V30 7288 H 665.005 -1.06859 3.5068 0
M  V30 7289 H 664.653 -3.54386 3.56959 0
M  V30 7290 H 664.353 -2.80565 5.16292 0
M  V30 7291 H 665.877 -3.68934 4.86539 0
M  V30 7292 H 667.291 -1.5169 5.52868 0
M  V30 7293 H 665.688 -0.842035 5.94163 0
M  V30 7294 H 666.758 0.0544033 4.84869 0
M  V30 7295 N 668.101 -1.57061 -0.130224 0
M  V30 7296 C 669.331 -1.88159 -0.853217 0
M  V30 7297 C 669.739 -0.731675 -1.7448 0
M  V30 7298 O 669.082 0.307035 -1.81116 0
M  V30 7299 C 669.144 -3.1415 -1.74785 0
M  V30 7300 C 668.808 -4.45202 -1.03173 0
M  V30 7301 C 669.805 -5.18526 -0.377759 0
M  V30 7302 C 667.49 -4.91912 -1.01624 0
M  V30 7303 C 669.484 -6.36775 0.282123 0
M  V30 7304 C 667.171 -6.10082 -0.352555 0
M  V30 7305 C 668.169 -6.82361 0.295483 0
M  V30 7306 O 667.857 -7.98284 0.948606 0
M  V30 7307 H 667.589 -0.627596 -0.251197 0
M  V30 7308 H 670.143 -2.05034 -0.1226 0
M  V30 7309 H 668.373 -2.93328 -2.51983 0
M  V30 7310 H 670.062 -3.31359 -2.34427 0
M  V30 7311 H 670.828 -4.83498 -0.381417 0
M  V30 7312 H 666.707 -4.35566 -1.51007 0
M  V30 7313 H 670.251 -6.93129 0.788525 0
M  V30 7314 H 666.148 -6.44569 -0.346621 0
M  V30 7315 H 666.916 -8.14054 0.851954 0
M  V30 7316 N 669.579 0.400081 -1.52437 0
M  V30 7317 C 670.827 1.14392 -1.6661 0
M  V30 7318 C 671.148 1.90792 -0.402927 0
M  V30 7319 O 670.418 1.87042 0.582425 0
M  V30 7320 H 668.998 0.425275 -0.614125 0
M  V30 7321 H 671.66 0.455076 -1.89513 0
M  V30 7322 H 670.756 1.85298 -2.51139 0
M  V30 7323 N 671.057 1.43213 0.657864 0
M  V30 7324 C 672.02 1.47687 1.75275 0
M  V30 7325 C 673.02 0.362179 1.56668 0
M  V30 7326 O 674.21 0.623734 1.62651 0
M  V30 7327 C 671.342 1.32497 3.14098 0
M  V30 7328 H 672.535 2.4519 1.7269 0
M  V30 7329 H 670.088 1.2991 0.869087 0
M  V30 7330 H 670.823 0.359831 3.22298 0
M  V30 7331 H 670.608 2.13299 3.29008 0
M  V30 7332 H 672.098 1.38549 3.93946 0
M  V30 7333 N 672.536 -0.895792 1.29666 0
M  V30 7334 C 673.813 -1.62723 1.08538 0
M  V30 7335 C 674.193 -2.07848 -0.369119 0
M  V30 7336 O 673.541 -1.8372 -1.35864 0
M  V30 7337 C 673.751 -2.80505 2.07648 0
M  V30 7338 C 675.099 -3.51098 2.3878 0
M  V30 7339 O 676.123 -2.90679 2.05874 0
M  V30 7340 O 674.982 -4.60028 2.9502 0
M  V30 7341 H 672.076 -0.714692 0.416106 0
M  V30 7342 H 674.622 -0.943517 1.41053 0
M  V30 7343 H 673.394 -2.44386 3.05599 0
M  V30 7344 H 673.017 -3.5658 1.75887 0
M  V30 7345 N 674.014 -1.12206 -1.10668 0
M  V30 7346 C 675.261 -0.875875 -1.82578 0
M  V30 7347 C 675.589 0.598342 -1.85068 0
M  V30 7348 O 674.844 1.45818 -1.3052 0
M  V30 7349 C 675.143 -1.39276 -3.29146 0
M  V30 7350 C 674.809 -2.8816 -3.46806 0
M  V30 7351 C 673.471 -3.28813 -3.51334 0
M  V30 7352 C 675.823 -3.8401 -3.52399 0
M  V30 7353 C 673.151 -4.64028 -3.59019 0
M  V30 7354 C 675.503 -5.19053 -3.61617 0
M  V30 7355 C 674.167 -5.59252 -3.64408 0
M  V30 7356 H 673.437 -0.320505 -0.6681 0
M  V30 7357 H 676.084 -1.40184 -1.30464 0
M  V30 7358 H 674.389 -0.787207 -3.8381 0
M  V30 7359 H 676.086 -1.17851 -3.83291 0
M  V30 7360 H 672.676 -2.55716 -3.43958 0
M  V30 7361 H 676.86 -3.53698 -3.48154 0
M  V30 7362 H 672.116 -4.94568 -3.59461 0
M  V30 7363 H 676.29 -5.93152 -3.64889 0
M  V30 7364 H 673.917 -6.64017 -3.70116 0
M  V30 7365 N 675.492 1.28418 -0.913599 0
M  V30 7366 C 676.738 1.9527 -0.547484 0
M  V30 7367 C 677.071 1.71745 0.906486 0
M  V30 7368 O 676.346 1.03834 1.64465 0
M  V30 7369 C 676.629 3.49748 -0.857205 0
M  V30 7370 C 676.482 3.82675 -2.3639 0
M  V30 7371 C 677.801 4.3868 -0.353258 0
M  V30 7372 H 674.92 0.709236 -0.200381 0
M  V30 7373 H 677.562 1.51789 -1.14281 0
M  V30 7374 H 675.712 3.86915 -0.350548 0
M  V30 7375 H 677.384 3.55378 -2.94116 0
M  V30 7376 H 675.627 3.29724 -2.81894 0
M  V30 7377 H 676.298 4.90547 -2.53115 0
M  V30 7378 H 678.774 4.08584 -0.787288 0
M  V30 7379 H 677.65 5.45621 -0.599049 0
M  V30 7380 H 677.911 4.35753 0.746413 0
M  V30 7381 N 676.97 0.677563 1.42291 0
M  V30 7382 C 678.217 0.200975 2.015 0
M  V30 7383 C 678.545 -1.19342 1.53583 0
M  V30 7384 O 677.8 -1.81579 0.7299 0
M  V30 7385 C 678.099 0.187229 3.56909 0
M  V30 7386 C 677.765 1.52667 4.24268 0
M  V30 7387 C 676.427 1.89341 4.42384 0
M  V30 7388 C 678.779 2.40869 4.62203 0
M  V30 7389 C 676.107 3.13836 4.95705 0
M  V30 7390 C 678.459 3.64679 5.16906 0
M  V30 7391 C 677.123 4.01519 5.33234 0
M  V30 7392 H 676.393 0.0735418 0.737342 0
M  V30 7393 H 679.04 0.873095 1.70439 0
M  V30 7394 H 677.345 -0.568407 3.87655 0
M  V30 7395 H 679.042 -0.198773 4.00507 0
M  V30 7396 H 675.632 1.23138 4.1053 0
M  V30 7397 H 679.816 2.1382 4.47878 0
M  V30 7398 H 675.072 3.42396 5.06532 0
M  V30 7399 H 679.246 4.33224 5.45243 0
M  V30 7400 H 676.873 4.98062 5.74316 0
M  V30 7401 N 678.448 -1.51871 0.421078 0
M  V30 7402 C 679.696 -2.01539 -0.150492 0
M  V30 7403 C 680.017 -1.30803 -1.44623 0
M  V30 7404 O 679.287 -0.437568 -1.90951 0
M  V30 7405 H 677.867 -0.744698 -0.0586041 0
M  V30 7406 H 680.529 -1.8668 0.560059 0
M  V30 7407 H 679.625 -3.10264 -0.338068 0
M  V30 7408 N 679.926 -0.151884 -1.56866 0
M  V30 7409 C 680.836 0.798876 -2.20579 0
M  V30 7410 C 681.852 1.268 -1.19154 0
M  V30 7411 O 683.028 1.32418 -1.51748 0
M  V30 7412 C 680.093 2.01861 -2.81874 0
M  V30 7413 C 679.154 1.59825 -3.9844 0
M  V30 7414 C 678.387 2.75984 -4.56802 0
M  V30 7415 O 678.61 3.92331 -4.14044 0
M  V30 7416 O 677.544 2.51175 -5.46987 0
M  V30 7417 H 681.37 0.2865 -3.02346 0
M  V30 7418 H 678.955 0.0753806 -1.4921 0
M  V30 7419 H 680.837 2.73235 -3.20813 0
M  V30 7420 H 679.512 2.52042 -2.03117 0
M  V30 7421 H 678.419 0.854601 -3.64208 0
M  V30 7422 H 679.752 1.14355 -4.78731 0
M  V30 7423 N 681.404 1.57128 0.121893 0
M  V30 7424 C 682.681 1.75664 0.860327 0
M  V30 7425 C 683.061 0.726585 1.98202 0
M  V30 7426 O 682.409 -0.24999 2.27128 0
M  V30 7427 C 682.619 3.20571 1.37968 0
M  V30 7428 C 683.967 3.82988 1.83317 0
M  V30 7429 O 684.991 3.24156 1.47654 0
M  V30 7430 O 683.85 4.86393 2.49168 0
M  V30 7431 H 680.944 0.719153 0.408348 0
M  V30 7432 H 683.49 1.6937 0.105859 0
M  V30 7433 H 682.262 3.87056 0.57477 0
M  V30 7434 H 681.885 3.31392 2.19694 0
M  V30 7435 N 682.882 -0.391992 1.52647 0
M  V30 7436 C 684.129 -1.13732 1.67545 0
M  V30 7437 C 684.457 -1.90045 0.413881 0
M  V30 7438 O 683.712 -1.86157 -0.603646 0
M  V30 7439 C 684.011 -2.14401 2.85949 0
M  V30 7440 C 683.677 -1.54767 4.23507 0
M  V30 7441 C 682.339 -1.38229 4.60919 0
M  V30 7442 C 684.691 -1.11382 5.0916 0
M  V30 7443 C 682.019 -0.7685 5.81645 0
M  V30 7444 C 684.371 -0.514143 6.30507 0
M  V30 7445 C 683.035 -0.33604 6.66654 0
M  V30 7446 H 682.305 -0.416174 0.613091 0
M  V30 7447 H 684.952 -0.422327 1.86785 0
M  V30 7448 H 683.257 -2.92108 2.61114 0
M  V30 7449 H 684.954 -2.71974 2.94671 0
M  V30 7450 H 681.544 -1.68626 3.94035 0
M  V30 7451 H 685.728 -1.22962 4.80826 0
M  V30 7452 H 680.984 -0.618681 6.08262 0
M  V30 7453 H 685.158 -0.169657 6.96193 0
M  V30 7454 H 682.785 0.14166 7.60068 0
M  V30 7455 N 684.36 -1.4356 -0.65026 0
M  V30 7456 C 685.292 -1.44918 -1.77571 0
M  V30 7457 C 686.305 -0.344925 -1.59104 0
M  V30 7458 O 687.494 -0.609537 -1.6777 0
M  V30 7459 C 684.594 -1.24914 -3.15039 0
M  V30 7460 C 683.767 -2.48232 -3.60138 0
M  V30 7461 C 682.826 -2.23409 -4.76419 0
M  V30 7462 O 681.852 -2.9678 -4.85706 0
M  V30 7463 N 683.054 -1.25259 -5.66825 0
M  V30 7464 H 685.819 -2.41935 -1.76883 0
M  V30 7465 H 683.38 -1.38754 -0.834202 0
M  V30 7466 H 685.372 -1.06185 -3.90521 0
M  V30 7467 H 683.942 -0.363319 -3.10481 0
M  V30 7468 H 683.162 -2.82366 -2.75069 0
M  V30 7469 H 684.45 -3.30296 -3.87017 0
M  V30 7470 H 683.848 -0.646246 -5.61997 0
M  V30 7471 H 682.405 -1.12513 -6.42016 0
M  V30 7472 N 685.838 0.888903 -1.30139 0
M  V30 7473 C 687.249 1.45578 -1.16893 0
M  V30 7474 C 687.6 1.94825 0.231866 0
M  V30 7475 O 686.725 1.84661 1.12824 0
M  V30 7476 C 687.32 2.646 -2.11595 0
M  V30 7477 C 685.879 3.17389 -2.02339 0
M  V30 7478 C 685.026 1.90081 -2.01902 0
M  V30 7479 H 687.977 0.69921 -1.42467 0
M  V30 7480 H 687.998 3.40687 -1.69449 0
M  V30 7481 H 687.51 2.28726 -3.13538 0
M  V30 7482 H 685.611 3.5793 -1.03523 0
M  V30 7483 H 685.724 3.80955 -2.90534 0
M  V30 7484 H 684.088 2.08246 -1.46648 0
M  V30 7485 H 684.871 1.5647 -3.05568 0
M  V30 7486 N 687.317 1.12792 1.10072 0
M  V30 7487 C 688.563 0.89679 1.82563 0
M  V30 7488 C 688.918 -0.571152 1.83727 0
M  V30 7489 O 688.211 -1.41697 1.28967 0
M  V30 7490 C 688.405 1.4102 3.28403 0
M  V30 7491 C 688.234 2.92652 3.41445 0
M  V30 7492 C 687.004 3.60928 3.53637 0
M  V30 7493 C 689.202 3.9063 3.34534 0
M  V30 7494 N 687.184 5.00638 3.55295 0
M  V30 7495 C 688.555 5.16492 3.42981 0
M  V30 7496 C 690.61 3.82989 3.18157 0
M  V30 7497 C 689.313 6.35609 3.3674 0
M  V30 7498 C 691.339 5.01633 3.13239 0
M  V30 7499 C 690.701 6.26355 3.22272 0
M  V30 7500 H 686.8 0.381482 0.682638 0
M  V30 7501 H 689.384 1.43491 1.31599 0
M  V30 7502 H 687.555 0.899077 3.77851 0
M  V30 7503 H 689.287 1.12075 3.88872 0
M  V30 7504 H 686.042 3.11429 3.56803 0
M  V30 7505 H 686.466 5.73521 3.59725 0
M  V30 7506 H 691.108 2.87454 3.10049 0
M  V30 7507 H 688.826 7.31407 3.43613 0
M  V30 7508 H 692.412 4.97454 3.01713 0
M  V30 7509 H 691.292 7.1662 3.18473 0
M  V30 7510 N 688.795 -1.27931 0.920396 0
M  V30 7511 C 689.725 -2.29487 0.431024 0
M  V30 7512 C 690.706 -1.62435 -0.504861 0
M  V30 7513 O 691.891 -1.89797 -0.411176 0
M  V30 7514 C 689.021 -3.45788 -0.323709 0
M  V30 7515 C 687.975 -4.24784 0.523658 0
M  V30 7516 C 687.301 -5.33488 -0.359809 0
M  V30 7517 C 688.601 -4.90874 1.78437 0
M  V30 7518 H 690.295 -2.70671 1.27975 0
M  V30 7519 H 687.841 -1.30121 0.616813 0
M  V30 7520 H 689.794 -4.15927 -0.676952 0
M  V30 7521 H 688.518 -3.03502 -1.2064 0
M  V30 7522 H 687.177 -3.56382 0.85951 0
M  V30 7523 H 686.825 -4.87445 -1.24124 0
M  V30 7524 H 686.525 -5.87247 0.203605 0
M  V30 7525 H 688.049 -6.06472 -0.708787 0
M  V30 7526 H 689.463 -5.53339 1.49963 0
M  V30 7527 H 687.86 -5.54659 2.29071 0
M  V30 7528 H 688.93 -4.14988 2.50824 0
M  V30 7529 N 690.273 -0.685099 -1.4193 0
M  V30 7530 C 691.522 -0.208816 -2.00616 0
M  V30 7531 C 691.835 1.19506 -1.54847 0
M  V30 7532 O 693.041 1.76826 -2.06021 0
M  V30 7533 C 691.497 -0.322446 -3.58453 0
M  V30 7534 C 691.105 -1.73102 -4.13206 0
M  V30 7535 C 692.849 0.0945979 -4.24395 0
M  V30 7536 C 690.756 -1.79687 -5.63442 0
M  V30 7537 H 689.686 -0.0743092 -0.750329 0
M  V30 7538 H 692.337 -0.851778 -1.62533 0
M  V30 7539 H 690.719 0.388588 -3.94089 0
M  V30 7540 H 691.893 -2.46997 -3.8901 0
M  V30 7541 H 690.208 -2.09682 -3.59753 0
M  V30 7542 H 692.805 0.0656937 -5.3466 0
M  V30 7543 H 693.148 1.1316 -4.00625 0
M  V30 7544 H 693.681 -0.56579 -3.93756 0
M  V30 7545 H 690.42 -2.81404 -5.92024 0
M  V30 7546 H 689.94 -1.10162 -5.89597 0
M  V30 7547 H 691.619 -1.55498 -6.28036 0
M  V30 7548 N 691.751 1.51645 -0.429126 0
M  V30 7549 C 692.661 2.31288 0.392809 0
M  V30 7550 C 693.677 1.39852 1.03525 0
M  V30 7551 O 694.853 1.72926 1.03241 0
M  V30 7552 C 691.918 3.13347 1.48372 0
M  V30 7553 C 690.979 4.20551 0.862268 0
M  V30 7554 C 690.212 4.98688 1.9012 0
M  V30 7555 O 690.435 4.77359 3.12225 0
M  V30 7556 O 689.369 5.83005 1.4963 0
M  V30 7557 H 693.195 3.02609 -0.257138 0
M  V30 7558 H 690.78 1.48163 -0.191851 0
M  V30 7559 H 692.662 3.64387 2.1166 0
M  V30 7560 H 691.337 2.44799 2.1179 0
M  V30 7561 H 690.244 3.73609 0.191568 0
M  V30 7562 H 691.577 4.91449 0.271704 0
M  V30 7563 N 693.229 0.160201 1.56784 0
M  V30 7564 C 694.478 -0.487619 1.95717 0
M  V30 7565 C 694.791 -1.65136 1.0483 0
M  V30 7566 O 695.997 -2.36468 1.33398 0
M  V30 7567 C 694.453 -0.91888 3.47972 0
M  V30 7568 C 694.061 0.218655 4.47466 0
M  V30 7569 C 695.805 -1.53575 3.95746 0
M  V30 7570 C 693.712 -0.231614 5.90946 0
M  V30 7571 H 692.642 -0.185939 0.730714 0
M  V30 7572 H 695.293 0.246657 1.81835 0
M  V30 7573 H 693.675 -1.70881 3.57234 0
M  V30 7574 H 694.849 0.995825 4.49911 0
M  V30 7575 H 693.164 0.744767 4.09685 0
M  V30 7576 H 695.761 -1.88448 5.00391 0
M  V30 7577 H 696.104 -2.42959 3.38048 0
M  V30 7578 H 696.637 -0.810467 3.89456 0
M  V30 7579 H 693.376 0.62718 6.52493 0
M  V30 7580 H 692.896 -0.974379 5.91833 0
M  V30 7581 H 694.575 -0.67922 6.43425 0
M  V30 7582 N 694.707 -1.5719 -0.113559 0
M  V30 7583 C 695.655 -2.01725 -1.158 0
M  V30 7584 C 696.649 -0.915105 -1.42556 0
M  V30 7585 O 697.855 -1.10031 -1.42454 0
M  V30 7586 H 694.23 -0.64262 -0.390569 0
M  V30 7587 H 696.201 -2.88666 -0.755926 0
M  V30 7588 C 694.95 -2.44203 -2.47507 0
M  V30 7589 H 694.273 -3.28582 -2.27758 0
M  V30 7590 H 695.713 -2.79158 -3.19135 0
M  V30 7591 C 694.172 -1.30785 -3.10478 0
M  V30 7592 O 694.702 -0.626807 -3.9678 0
M  V30 7593 N 692.908 -1.06352 -2.7044 0
M  V30 7594 H 692.455 -1.61913 -2.00355 0
M  V30 7595 H 692.413 -0.306614 -3.12901 0
M  V30 7596 N 696.185 0.383891 -1.52853 0
M  V30 7597 C 697.148 1.45197 -1.77343 0
M  V30 7598 C 698.148 1.47362 -0.643522 0
M  V30 7599 O 699.338 1.48443 -0.911613 0
M  V30 7600 C 696.47 2.8445 -1.87885 0
M  V30 7601 H 697.663 1.24764 -2.72716 0
M  V30 7602 H 695.216 0.615939 -1.43652 0
M  V30 7603 H 695.951 3.10222 -0.94515 0
M  V30 7604 H 695.736 2.8428 -2.70051 0
M  V30 7605 H 697.226 3.61832 -2.08488 0
M  V30 7606 N 697.663 1.43903 0.642637 0
M  V30 7607 C 698.888 1.49758 1.43483 0
M  V30 7608 C 699.313 0.119911 1.87717 0
M  V30 7609 O 698.671 -0.888558 1.58033 0
M  V30 7610 C 698.719 2.45744 2.63898 0
M  V30 7611 O 697.823 1.95101 3.63331 0
M  V30 7612 H 697.164 0.506138 0.429791 0
M  V30 7613 H 699.694 1.88923 0.785438 0
M  V30 7614 H 699.704 2.63399 3.11584 0
M  V30 7615 H 698.379 3.45818 2.31046 0
M  V30 7616 H 696.956 1.87158 3.22531 0
M  V30 7617 N 699.141 -0.881989 1.30609 0
M  V30 7618 C 700.552 -1.44956 1.17664 0
M  V30 7619 C 700.903 -1.94945 -0.221531 0
M  V30 7620 O 700.028 -1.85257 -1.11844 0
M  V30 7621 C 700.623 -2.63474 2.12995 0
M  V30 7622 C 699.182 -3.16312 2.04019 0
M  V30 7623 C 698.329 -1.89008 2.02907 0
M  V30 7624 H 701.28 -0.691645 1.42835 0
M  V30 7625 H 701.301 -3.39783 1.71253 0
M  V30 7626 H 700.813 -2.2706 3.14746 0
M  V30 7627 H 698.914 -3.57376 1.0542 0
M  V30 7628 H 699.027 -3.79409 2.9255 0
M  V30 7629 H 697.391 -2.07465 1.47751 0
M  V30 7630 H 698.174 -1.54848 3.06394 0
M  V30 7631 N 700.619 -1.13374 -1.09472 0
M  V30 7632 C 701.847 -0.918351 -1.85402 0
M  V30 7633 C 702.262 0.53281 -1.81126 0
M  V30 7634 O 701.619 1.36879 -1.20708 0
M  V30 7635 C 701.67 -1.39743 -3.33398 0
M  V30 7636 O 701.391 -2.79172 -3.37631 0
M  V30 7637 C 702.892 -1.22042 -4.2617 0
M  V30 7638 H 700.112 -0.327511 -0.585643 0
M  V30 7639 H 702.656 -1.50617 -1.38328 0
M  V30 7640 H 700.811 -0.852619 -3.77901 0
M  V30 7641 H 701.225 -3.00428 -4.29934 0
M  V30 7642 H 702.699 -1.60438 -5.2817 0
M  V30 7643 H 703.176 -0.162047 -4.38901 0
M  V30 7644 H 703.782 -1.75323 -3.87482 0
M  V30 7645 N 702.098 1.27442 -0.927168 0
M  V30 7646 C 703.031 2.25177 -0.370232 0
M  V30 7647 C 704.009 1.53612 0.533103 0
M  V30 7648 O 705.193 1.8245 0.47373 0
M  V30 7649 C 702.32 3.35431 0.469411 0
M  V30 7650 C 701.366 4.24888 -0.370419 0
M  V30 7651 S 702.199 5.04852 -1.78562 0
M  V30 7652 C 703.355 6.18592 -0.953651 0
M  V30 7653 H 703.588 2.72069 -1.19858 0
M  V30 7654 H 701.121 1.36089 -0.729316 0
M  V30 7655 H 703.079 3.99404 0.947992 0
M  V30 7656 H 701.74 2.87179 1.27228 0
M  V30 7657 H 700.933 5.03264 0.272226 0
M  V30 7658 H 700.535 3.65709 -0.783153 0
M  V30 7659 H 702.827 6.77235 -0.189408 0
M  V30 7660 H 703.77 6.87132 -1.7104 0
M  V30 7661 H 704.178 5.62318 -0.495897 0
M  V30 7662 N 703.576 0.692616 1.41565 0
M  V30 7663 C 704.539 0.0344174 2.29174 0
M  V30 7664 C 705.539 -0.710961 1.44229 0
M  V30 7665 O 706.729 -0.546293 1.65412 0
M  V30 7666 C 703.861 -0.961682 3.27054 0
M  V30 7667 H 705.054 0.805755 2.88873 0
M  V30 7668 H 702.607 0.455947 1.49502 0
M  V30 7669 H 703.342 -1.76089 2.72329 0
M  V30 7670 H 703.127 -0.430375 3.89731 0
M  V30 7671 H 704.617 -1.4201 3.92712 0
M  V30 7672 N 705.054 -1.51416 0.437162 0
M  V30 7673 C 706.465 -1.86682 -0.0260005 0
M  V30 7674 C 706.816 -1.35432 -1.4196 0
M  V30 7675 O 705.941 -0.705055 -2.04592 0
M  V30 7676 C 706.536 -3.38757 -0.0539577 0
M  V30 7677 C 705.095 -3.7356 -0.461532 0
M  V30 7678 C 704.242 -2.75134 0.345924 0
M  V30 7679 H 707.193 -1.44642 0.653013 0
M  V30 7680 H 707.214 -3.70573 -0.863478 0
M  V30 7681 H 706.726 -3.76028 0.96045 0
M  V30 7682 H 704.827 -3.41878 -1.48155 0
M  V30 7683 H 704.94 -4.78737 -0.186451 0
M  V30 7684 H 703.304 -2.53947 -0.195739 0
M  V30 7685 H 704.087 -3.15247 1.35921 0
M  V30 7686 N 706.532 -0.168513 -1.56696 0
M  V30 7687 C 707.757 0.486688 -2.01609 0
M  V30 7688 C 708.182 1.56203 -1.04796 0
M  V30 7689 O 707.54 1.8128 -0.0270596 0
M  V30 7690 C 707.588 1.04451 -3.45141 0
M  V30 7691 O 706.692 2.15862 -3.51393 0
M  V30 7692 H 706.033 0.116831 -0.653641 0
M  V30 7693 H 708.563 -0.271579 -2.0279 0
M  V30 7694 H 708.573 1.36782 -3.84389 0
M  V30 7695 H 707.248 0.257155 -4.15104 0
M  V30 7696 H 705.825 1.84597 -3.24004 0
M  V30 7697 N 708.01 1.57248 0.105221 0
M  V30 7698 C 709.238 1.89768 0.82437 0
M  V30 7699 C 709.653 0.761192 1.72775 0
M  V30 7700 O 709.01 -0.267342 1.80531 0
M  V30 7701 C 709.061 3.2184 1.64625 0
M  V30 7702 O 708.782 4.31115 0.779217 0
M  V30 7703 C 710.283 3.68155 2.46935 0
M  V30 7704 H 707.503 0.628031 0.236259 0
M  V30 7705 H 710.047 2.04321 0.085485 0
M  V30 7706 H 708.202 3.08915 2.33775 0
M  V30 7707 H 708.616 5.06897 1.34745 0
M  V30 7708 H 710.09 4.6329 3.00111 0
M  V30 7709 H 710.567 2.95492 3.24932 0
M  V30 7710 H 711.173 3.83914 1.83002 0
M  V30 7711 N 709.488 -0.375779 1.53054 0
M  V30 7712 C 710.451 -1.44254 1.7811 0
M  V30 7713 C 711.451 -1.47018 0.651328 0
M  V30 7714 O 712.641 -1.47957 0.919472 0
M  V30 7715 C 709.773 -2.8345 1.89391 0
M  V30 7716 H 710.966 -1.23316 2.73374 0
M  V30 7717 H 708.519 -0.608312 1.43977 0
M  V30 7718 H 709.254 -3.09716 0.961589 0
M  V30 7719 H 709.039 -2.82844 2.71555 0
M  V30 7720 H 710.529 -3.60722 2.10404 0
M  V30 7721 N 710.966 -1.44241 -0.634997 0
M  V30 7722 C 712.212 -1.47038 -1.39669 0
M  V30 7723 C 712.545 -0.101122 -1.93937 0
M  V30 7724 O 711.82 0.880699 -1.73418 0
M  V30 7725 C 712.103 -2.52763 -2.56482 0
M  V30 7726 C 711.956 -3.99032 -2.07589 0
M  V30 7727 C 713.275 -2.55031 -3.58674 0
M  V30 7728 H 710.394 -0.53537 -0.506506 0
M  V30 7729 H 713.036 -1.75898 -0.718317 0
M  V30 7730 H 711.186 -2.28284 -3.14354 0
M  V30 7731 H 712.858 -4.3463 -1.54577 0
M  V30 7732 H 711.101 -4.10994 -1.38804 0
M  V30 7733 H 711.772 -4.68649 -2.91671 0
M  V30 7734 H 714.248 -2.76893 -3.10595 0
M  V30 7735 H 713.124 -3.30916 -4.37934 0
M  V30 7736 H 713.385 -1.59085 -4.12486 0
M  V30 7737 N 712.444 0.87505 -1.31075 0
M  V30 7738 C 713.672 1.66058 -1.23419 0
M  V30 7739 C 714.087 1.87723 0.201347 0
M  V30 7740 O 713.444 1.43178 1.13165 0
M  V30 7741 C 713.495 3.03142 -1.96945 0
M  V30 7742 O 713.216 2.82448 -3.34895 0
M  V30 7743 C 714.717 3.97583 -1.96067 0
M  V30 7744 H 711.937 0.517868 -0.426677 0
M  V30 7745 H 714.481 1.09258 -1.72867 0
M  V30 7746 H 712.636 3.56645 -1.51271 0
M  V30 7747 H 713.05 3.69483 -3.72267 0
M  V30 7748 H 714.524 4.91104 -2.52034 0
M  V30 7749 H 715.001 4.2898 -0.941961 0
M  V30 7750 H 715.607 3.50015 -2.41597 0
M  V30 7751 N 713.922 1.13953 1.08869 0
M  V30 7752 C 714.885 0.824991 2.13838 0
M  V30 7753 C 715.885 -0.168198 1.59918 0
M  V30 7754 O 717.075 0.0595778 1.74098 0
M  V30 7755 C 714.207 0.228938 3.4013 0
M  V30 7756 H 715.4 1.75521 2.43171 0
M  V30 7757 H 712.953 0.94492 1.24503 0
M  V30 7758 H 713.688 -0.710227 3.16427 0
M  V30 7759 H 713.473 0.944243 3.80561 0
M  V30 7760 H 714.963 0.0259223 4.17592 0
M  V30 7761 N 715.4 -1.26948 0.933913 0
M  V30 7762 C 716.816 -1.46419 0.635103 0
M  V30 7763 C 717.016 -1.84336 -0.813785 0
M  V30 7764 O 716.072 -1.96061 -1.59111 0
M  V30 7765 C 717.385 -2.55206 1.5903 0
M  V30 7766 C 718.933 -2.69062 1.5992 0
M  V30 7767 C 719.408 -3.81013 2.54152 0
M  V30 7768 N 720.899 -3.88395 2.52395 0
M  V30 7769 C 721.634 -4.74454 3.21996 0
M  V30 7770 N 721.13 -5.64954 4.00997 0
M  V30 7771 N 722.923 -4.68237 3.10983 0
M  V30 7772 H 715.074 -1.00622 1.87053 0
M  V30 7773 H 717.337 -0.503189 0.803433 0
M  V30 7774 H 717.043 -2.34153 2.62422 0
M  V30 7775 H 716.917 -3.52719 1.33677 0
M  V30 7776 H 719.304 -2.89492 0.572569 0
M  V30 7777 H 719.385 -1.72016 1.89325 0
M  V30 7778 H 719.029 -3.61336 3.5693 0
M  V30 7779 H 718.959 -4.77499 2.22041 0
M  V30 7780 H 721.45 -3.23687 1.95025 0
M  V30 7781 H 721.763 -6.27496 4.51074 0
M  V30 7782 H 720.108 -5.6473 4.05099 0
M  V30 7783 H 723.299 -3.96535 2.48753 0
M  V30 7784 H 723.472 -5.35087 3.65494 0
M  V30 7785 N 716.879 -0.700114 -1.41195 0
M  V30 7786 C 717.809 -0.0521132 -2.33442 0
M  V30 7787 C 718.79 0.76228 -1.52063 0
M  V30 7788 O 719.975 0.714336 -1.80585 0
M  V30 7789 C 717.105 0.881693 -3.35922 0
M  V30 7790 C 716.059 0.174062 -4.27646 0
M  V30 7791 C 715.385 1.22254 -5.20536 0
M  V30 7792 C 716.685 -0.962396 -5.13357 0
M  V30 7793 H 718.379 -0.822574 -2.87879 0
M  V30 7794 H 715.925 -0.397011 -1.38419 0
M  V30 7795 H 717.878 1.34429 -3.99383 0
M  V30 7796 H 716.602 1.68387 -2.79845 0
M  V30 7797 H 715.261 -0.268551 -3.65615 0
M  V30 7798 H 714.909 2.01736 -4.60773 0
M  V30 7799 H 714.609 0.754038 -5.82742 0
M  V30 7800 H 716.133 1.68555 -5.86874 0
M  V30 7801 H 717.547 -0.579875 -5.7036 0
M  V30 7802 H 715.944 -1.35828 -5.84526 0
M  V30 7803 H 717.014 -1.80003 -4.50252 0
M  V30 7804 N 718.357 1.51182 -0.445186 0
M  V30 7805 C 719.597 2.04061 0.117717 0
M  V30 7806 C 719.961 1.32158 1.39278 0
M  V30 7807 O 721.162 1.75452 2.03642 0
M  V30 7808 C 719.433 3.55933 0.323445 0
M  V30 7809 S 720.992 4.30516 0.848627 0
M  V30 7810 H 717.81 0.710442 0.028165 0
M  V30 7811 H 720.412 1.85858 -0.606391 0
M  V30 7812 H 719.116 4.0583 -0.610764 0
M  V30 7813 H 718.647 3.78444 1.07441 0
M  V30 7814 H 720.662 4.48382 2.12528 0
M  V30 7815 N 719.835 0.176821 1.56605 0
M  V30 7816 C 720.798 -0.737429 2.17013 0
M  V30 7817 C 721.798 -1.15414 1.11965 0
M  V30 7818 O 722.988 -1.0702 1.37449 0
M  V30 7819 C 720.12 -2.00445 2.75744 0
M  V30 7820 H 721.313 -0.211455 2.99154 0
M  V30 7821 H 718.866 -0.0727582 1.56131 0
M  V30 7822 H 719.601 -2.57338 1.97352 0
M  V30 7823 H 719.386 -1.71456 3.52626 0
M  V30 7824 H 720.876 -2.65679 3.22187 0
M  V30 7825 N 721.313 -1.57302 -0.09688 0
M  V30 7826 C 722.561 -1.8563 -0.799117 0
M  V30 7827 C 722.882 -0.765263 -1.79356 0
M  V30 7828 O 722.152 0.208657 -1.94786 0
M  V30 7829 H 720.732 -0.684937 -0.298111 0
M  V30 7830 H 723.394 -1.9474 -0.0789341 0
M  V30 7831 H 722.49 -2.82305 -1.3308 0
M  V30 7832 N 722.791 0.367657 -1.53252 0
M  V30 7833 C 724.037 1.11216 -1.69584 0
M  V30 7834 C 724.37 1.89026 -0.445269 0
M  V30 7835 O 723.645 1.86342 0.557404 0
M  V30 7836 C 723.928 2.07308 -2.94441 0
M  V30 7837 C 723.781 1.3312 -4.2965 0
M  V30 7838 C 725.1 3.07459 -3.14892 0
M  V30 7839 H 722.219 0.40294 -0.617096 0
M  V30 7840 H 724.861 0.393201 -1.85887 0
M  V30 7841 H 723.011 2.68617 -2.80673 0
M  V30 7842 H 724.683 0.746111 -4.55226 0
M  V30 7843 H 722.926 0.633051 -4.29156 0
M  V30 7844 H 723.597 2.03443 -5.13142 0
M  V30 7845 H 726.073 2.56252 -3.27832 0
M  V30 7846 H 724.949 3.71919 -4.03693 0
M  V30 7847 H 725.21 3.77514 -2.30077 0
M  V30 7848 N 724.269 1.44576 0.627338 0
M  V30 7849 C 725.201 1.47724 1.75243 0
M  V30 7850 C 726.214 0.370193 1.58535 0
M  V30 7851 O 727.403 0.636151 1.66779 0
M  V30 7852 C 724.503 1.2991 3.13012 0
M  V30 7853 C 723.676 2.5393 3.56143 0
M  V30 7854 C 722.735 2.30961 4.72804 0
M  V30 7855 O 721.761 3.04469 4.80923 0
M  V30 7856 N 722.963 1.34261 5.6476 0
M  V30 7857 H 725.728 2.44718 1.73012 0
M  V30 7858 H 723.289 1.40064 0.812022 0
M  V30 7859 H 725.281 1.12385 3.88782 0
M  V30 7860 H 723.851 0.412668 3.09864 0
M  V30 7861 H 723.071 2.86707 2.70542 0
M  V30 7862 H 724.359 3.36411 3.81713 0
M  V30 7863 H 723.757 0.735573 5.60897 0
M  V30 7864 H 722.314 1.22713 6.40144 0
M  V30 7865 N 725.747 -0.868086 1.31537 0
M  V30 7866 C 726.71 -1.95703 1.19302 0
M  V30 7867 C 727.71 -1.60355 0.119612 0
M  V30 7868 O 728.9 -1.70247 0.36902 0
M  V30 7869 C 726.032 -3.30599 0.831684 0
M  V30 7870 H 727.225 -2.07982 2.16064 0
M  V30 7871 H 724.778 -1.05661 1.15176 0
M  V30 7872 H 725.513 -3.2402 -0.134694 0
M  V30 7873 H 725.298 -3.57629 1.60761 0
M  V30 7874 H 726.788 -4.10439 0.770026 0
M  V30 7875 N 727.225 -1.14528 -1.08264 0
M  V30 7876 C 728.502 -0.825185 -1.77342 0
M  V30 7877 C 728.882 0.681037 -1.99813 0
M  V30 7878 O 728.23 1.62234 -1.60912 0
M  V30 7879 C 728.44 -1.62556 -3.08831 0
M  V30 7880 C 729.788 -1.82585 -3.83338 0
M  V30 7881 O 730.812 -1.59254 -3.18617 0
M  V30 7882 O 729.671 -2.21598 -4.99556 0
M  V30 7883 H 726.765 -0.302531 -0.769678 0
M  V30 7884 H 729.311 -1.25056 -1.14713 0
M  V30 7885 H 728.083 -2.64862 -2.88035 0
M  V30 7886 H 727.706 -1.1959 -3.79189 0
M  V30 7887 N 728.703 1.26451 -0.940633 0
M  V30 7888 C 729.931 1.97868 -0.604642 0
M  V30 7889 C 730.346 1.70051 0.820251 0
M  V30 7890 O 729.703 0.96843 1.54686 0
M  V30 7891 C 729.754 3.51684 -0.836689 0
M  V30 7892 O 729.475 3.78533 -2.20554 0
M  V30 7893 C 730.976 4.40343 -0.511169 0
M  V30 7894 H 728.196 0.631105 -0.227919 0
M  V30 7895 H 730.74 1.60979 -1.26119 0
M  V30 7896 H 728.895 3.86736 -0.226759 0
M  V30 7897 H 729.309 4.73065 -2.26517 0
M  V30 7898 H 730.783 5.47229 -0.724157 0
M  V30 7899 H 731.26 4.35694 0.553815 0
M  V30 7900 H 731.866 4.10834 -1.0998 0
M  V30 7901 N 730.181 0.707592 1.40822 0
M  V30 7902 C 731.111 0.0644925 2.33411 0
M  V30 7903 C 732.092 -0.754205 1.52466 0
M  V30 7904 O 733.277 -0.704749 1.80961 0
M  V30 7905 C 730.407 -0.863865 3.36385 0
M  V30 7906 C 729.361 -0.15138 4.27732 0
M  V30 7907 C 728.687 -1.19491 5.21177 0
M  V30 7908 C 729.987 0.989607 5.12839 0
M  V30 7909 H 731.681 0.837829 2.87438 0
M  V30 7910 H 729.227 0.404346 1.38207 0
M  V30 7911 H 731.18 -1.32309 4.0009 0
M  V30 7912 H 729.904 -1.66901 2.80734 0
M  V30 7913 H 728.563 0.287937 3.65467 0
M  V30 7914 H 728.211 -1.9929 4.61836 0
M  V30 7915 H 727.911 -0.723123 5.83134 0
M  V30 7916 H 729.435 -1.6544 5.8776 0
M  V30 7917 H 730.849 0.610114 5.70044 0
M  V30 7918 H 729.246 1.38926 5.83798 0
M  V30 7919 H 730.316 1.82389 4.49291 0
M  V30 7920 N 731.66 -1.50943 0.453197 0
M  V30 7921 C 733.076 -1.59245 0.106342 0
M  V30 7922 C 733.276 -1.46287 -1.38572 0
M  V30 7923 O 732.332 -1.31219 -2.15726 0
M  V30 7924 C 733.645 -2.93797 0.640595 0
M  V30 7925 C 735.193 -3.07148 0.602435 0
M  V30 7926 C 735.668 -4.44247 1.11393 0
M  V30 7927 N 737.159 -4.50611 1.07258 0
M  V30 7928 C 737.894 -5.55049 1.43905 0
M  V30 7929 N 737.39 -6.66828 1.87914 0
M  V30 7930 N 739.183 -5.45494 1.35621 0
M  V30 7931 H 731.334 -1.5761 1.42382 0
M  V30 7932 H 733.597 -0.74384 0.587713 0
M  V30 7933 H 733.303 -3.087 1.68515 0
M  V30 7934 H 733.177 -3.77127 0.0742272 0
M  V30 7935 H 735.564 -2.91903 -0.433171 0
M  V30 7936 H 735.645 -2.25619 1.20539 0
M  V30 7937 H 735.289 -4.60239 2.14808 0
M  V30 7938 H 735.219 -5.2434 0.487353 0
M  V30 7939 H 737.71 -3.70391 0.749585 0
M  V30 7940 H 738.023 -7.42558 2.14072 0
M  V30 7941 H 736.368 -6.67995 1.91853 0
M  V30 7942 H 739.559 -4.57053 1.01093 0
M  V30 7943 H 739.732 -6.2677 1.64508 0
M  V30 7944 N 733.138 -0.185124 -1.56509 0
M  V30 7945 C 734.384 0.456934 -1.97585 0
M  V30 7946 C 734.717 1.61957 -1.07161 0
M  V30 7947 O 733.992 1.9412 -0.121546 0
M  V30 7948 C 734.275 0.926666 -3.47973 0
M  V30 7949 C 734.128 -0.237097 -4.49175 0
M  V30 7950 C 735.447 1.79561 -4.01803 0
M  V30 7951 H 732.566 0.164619 -0.71838 0
M  V30 7952 H 735.208 -0.274039 -1.88013 0
M  V30 7953 H 733.358 1.54954 -3.56261 0
M  V30 7954 H 735.03 -0.87454 -4.52934 0
M  V30 7955 H 733.273 -0.890446 -4.24563 0
M  V30 7956 H 733.944 0.133924 -5.51838 0
M  V30 7957 H 736.42 1.27039 -3.96232 0
M  V30 7958 H 735.296 2.09327 -5.07418 0
M  V30 7959 H 735.557 2.74629 -3.46455 0
M  V30 7960 N 734.616 1.57351 0.0885366 0
M  V30 7961 C 735.862 1.86696 0.791996 0
M  V30 7962 C 736.195 0.775148 1.78059 0
M  V30 7963 O 735.47 -0.216247 1.93294 0
M  V30 7964 C 735.753 3.26684 1.51491 0
M  V30 7965 C 735.606 4.465 0.543858 0
M  V30 7966 C 736.925 3.64664 2.46391 0
M  V30 7967 H 734.044 0.679049 0.286463 0
M  V30 7968 H 736.686 1.89919 0.0554866 0
M  V30 7969 H 734.836 3.24067 2.14273 0
M  V30 7970 H 736.508 4.61235 -0.0774597 0
M  V30 7971 H 734.751 4.33567 -0.142228 0
M  V30 7972 H 735.422 5.41192 1.08696 0
M  V30 7973 H 737.898 3.68267 1.93698 0
M  V30 7974 H 736.774 4.63534 2.93986 0
M  V30 7975 H 737.035 2.93698 3.30445 0
M  V30 7976 N 736.094 -0.359525 1.53444 0
M  V30 7977 C 737.343 -1.09886 1.69139 0
M  V30 7978 C 737.656 -1.90285 0.452863 0
M  V30 7979 O 738.862 -2.67033 0.490459 0
M  V30 7980 C 737.318 -2.0028 2.99025 0
M  V30 7981 C 736.926 -1.25164 4.30161 0
M  V30 7982 C 738.67 -2.74168 3.24086 0
M  V30 7983 C 736.577 -2.14494 5.51132 0
M  V30 7984 H 735.507 -0.413936 0.630217 0
M  V30 7985 H 738.158 -0.359434 1.79945 0
M  V30 7986 H 736.54 -2.77978 2.82036 0
M  V30 7987 H 737.714 -0.524867 4.57801 0
M  V30 7988 H 736.029 -0.631116 4.11589 0
M  V30 7989 H 738.626 -3.41243 4.11652 0
M  V30 7990 H 738.969 -3.39868 2.40407 0
M  V30 7991 H 739.502 -2.0355 3.41778 0
M  V30 7992 H 736.241 -1.53362 6.37307 0
M  V30 7993 H 735.761 -2.85004 5.27762 0
M  V30 7994 H 737.44 -2.73914 5.86157 0
M  V30 7995 N 737.572 -1.44907 -0.619662 0
M  V30 7996 C 738.849 -1.38766 -1.37852 0
M  V30 7997 C 739.229 -0.0521393 -2.11036 0
M  V30 7998 O 738.577 0.965613 -2.07095 0
M  V30 7999 C 738.787 -2.59344 -2.33541 0
M  V30 8000 C 740.135 -3.03909 -2.96521 0
M  V30 8001 O 741.159 -2.59631 -2.43865 0
M  V30 8002 O 740.018 -3.80713 -3.92071 0
M  V30 8003 H 737.112 -0.550083 -0.617525 0
M  V30 8004 H 739.658 -1.57015 -0.643759 0
M  V30 8005 H 738.43 -3.48142 -1.78642 0
M  V30 8006 H 738.053 -2.43367 -3.14417 0
M  V30 8007 N 739.05 0.861098 -1.31996 0
M  V30 8008 C 740.466 1.14827 -1.10846 0
M  V30 8009 C 740.666 2.0117 0.11528 0
M  V30 8010 O 739.722 2.39423 0.802048 0
M  V30 8011 C 741.035 1.83183 -2.38462 0
M  V30 8012 C 742.583 1.95847 -2.44158 0
M  V30 8013 C 743.058 2.67617 -3.71679 0
M  V30 8014 N 744.549 2.75147 -3.72624 0
M  V30 8015 C 745.284 3.31314 -4.67994 0
M  V30 8016 N 744.78 3.88343 -5.73726 0
M  V30 8017 N 746.573 3.29356 -4.55501 0
M  V30 8018 H 738.724 0.285951 -2.10466 0
M  V30 8019 H 740.987 0.189303 -0.928907 0
M  V30 8020 H 740.693 1.27193 -3.27895 0
M  V30 8021 H 740.567 2.83393 -2.48935 0
M  V30 8022 H 742.954 2.50999 -1.55189 0
M  V30 8023 H 743.035 0.94653 -2.37644 0
M  V30 8024 H 742.679 2.13131 -4.61018 0
M  V30 8025 H 742.609 3.69237 -3.75462 0
M  V30 8026 H 745.1 2.34682 -2.96197 0
M  V30 8027 H 745.413 4.29338 -6.42564 0
M  V30 8028 H 743.758 3.86693 -5.77489 0
M  V30 8029 H 746.949 2.84047 -3.72069 0
M  V30 8030 H 747.122 3.7283 -5.30001 0
M  V30 8031 N 740.528 1.15101 1.07655 0
M  V30 8032 C 741.461 0.788522 2.14144 0
M  V30 8033 C 742.439 -0.233635 1.60913 0
M  V30 8034 O 743.623 -0.120908 1.88112 0
M  V30 8035 C 740.75 0.172033 3.38263 0
M  V30 8036 C 739.796 1.16559 4.10264 0
M  V30 8037 S 740.629 2.70627 4.62084 0
M  V30 8038 C 741.785 2.10389 5.8948 0
M  V30 8039 H 742.018 1.69047 2.44561 0
M  V30 8040 H 739.551 0.973033 1.19881 0
M  V30 8041 H 741.509 -0.177223 4.10117 0
M  V30 8042 H 740.17 -0.707468 3.06029 0
M  V30 8043 H 739.363 0.6824 4.99359 0
M  V30 8044 H 738.965 1.45923 3.44358 0
M  V30 8045 H 741.257 1.46405 6.61492 0
M  V30 8046 H 742.2 2.97639 6.42508 0
M  V30 8047 H 742.608 1.54816 5.42856 0
M  V30 8048 N 742.006 -1.2595 0.947325 0
M  V30 8049 C 742.936 -2.28521 0.479604 0
M  V30 8050 C 743.917 -1.63469 -0.470293 0
M  V30 8051 O 745.102 -1.90627 -0.370824 0
M  V30 8052 C 742.232 -3.46397 -0.250289 0
M  V30 8053 C 741.186 -4.23578 0.613643 0
M  V30 8054 C 740.512 -5.34131 -0.246568 0
M  V30 8055 C 741.812 -4.86979 1.88809 0
M  V30 8056 H 743.506 -2.67895 1.33688 0
M  V30 8057 H 741.052 -1.28783 0.644274 0
M  V30 8058 H 743.005 -4.17269 -0.588576 0
M  V30 8059 H 741.729 -3.05993 -1.14175 0
M  V30 8060 H 740.388 -3.54478 0.93491 0
M  V30 8061 H 740.036 -4.89968 -1.13756 0
M  V30 8062 H 739.736 -5.86683 0.328123 0
M  V30 8063 H 741.26 -6.07839 -0.579986 0
M  V30 8064 H 742.674 -5.50034 1.61666 0
M  V30 8065 H 741.071 -5.49675 2.40784 0
M  V30 8066 H 742.141 -4.09575 2.5957 0
M  V30 8067 N 743.484 -0.715051 -1.40445 0
M  V30 8068 C 744.761 -0.181503 -1.94756 0
M  V30 8069 C 745.141 1.31268 -1.65324 0
M  V30 8070 O 744.489 2.0686 -0.970631 0
M  V30 8071 C 744.699 -0.493663 -3.45491 0
M  V30 8072 C 746.047 -0.432032 -4.22396 0
M  V30 8073 O 747.071 -0.429692 -3.53599 0
M  V30 8074 O 745.93 -0.409091 -5.44967 0
M  V30 8075 H 743.024 -0.0263989 -0.826579 0
M  V30 8076 H 745.57 -0.792546 -1.50056 0
M  V30 8077 H 744.342 -1.52713 -3.6027 0
M  V30 8078 H 743.965 0.14737 -3.97327 0
M  V30 8079 N 744.962 1.50701 -0.461195 0
M  V30 8080 C 746.378 1.59187 -0.114786 0
M  V30 8081 C 746.578 1.4702 1.37794 0
M  V30 8082 O 745.634 1.32361 2.15027 0
M  V30 8083 C 746.947 2.93453 -0.656167 0
M  V30 8084 C 748.495 3.06824 -0.618715 0
M  V30 8085 C 748.97 4.4365 -1.13747 0
M  V30 8086 N 750.461 4.50035 -1.09646 0
M  V30 8087 C 751.196 5.54278 -1.46846 0
M  V30 8088 N 750.692 6.65822 -1.91448 0
M  V30 8089 N 752.485 5.44767 -1.38512 0
M  V30 8090 H 744.636 1.56853 -1.43216 0
M  V30 8091 H 746.899 0.740712 -0.59165 0
M  V30 8092 H 746.605 3.07802 -1.7015 0
M  V30 8093 H 746.479 3.77082 -0.0942261 0
M  V30 8094 H 748.866 2.92129 0.417685 0
M  V30 8095 H 748.947 2.24976 -1.21734 0
M  V30 8096 H 748.591 4.59093 -2.17245 0
M  V30 8097 H 748.521 5.24074 -0.515153 0
M  V30 8098 H 751.012 3.69988 -0.769217 0
M  V30 8099 H 751.325 7.41413 -2.18007 0
M  V30 8100 H 749.67 6.66968 -1.95393 0
M  V30 8101 H 752.861 4.56511 -1.03516 0
M  V30 8102 H 753.034 6.25889 -1.6783 0
M  V30 8103 N 746.441 0.193421 1.56409 0
M  V30 8104 C 747.389 -0.744829 2.20352 0
M  V30 8105 C 748.383 -1.22104 1.17418 0
M  V30 8106 O 749.589 -1.18413 1.35567 0
M  V30 8107 H 745.964 -0.258538 0.70616 0
M  V30 8108 H 747.935 -0.181794 2.97846 0
M  V30 8109 C 746.684 -1.95453 2.87565 0
M  V30 8110 H 746.007 -1.59716 3.66512 0
M  V30 8111 H 747.447 -2.58942 3.35745 0
M  V30 8112 C 745.906 -2.79223 1.8851 0
M  V30 8113 O 746.436 -3.77093 1.38434 0
M  V30 8114 N 744.642 -2.44682 1.56777 0
M  V30 8115 H 744.189 -1.65153 1.97692 0
M  V30 8116 H 744.147 -3.01016 0.907573 0
M  V30 8117 N 747.919 -1.57396 -0.0801906 0
M  V30 8118 C 749.159 -1.88668 -0.786367 0
M  V30 8119 C 749.523 -0.786216 -1.75165 0
M  V30 8120 O 750.724 -0.981769 -2.50229 0
M  V30 8121 C 748.995 -3.25176 -1.48308 0
M  V30 8122 S 750.554 -3.78177 -2.22549 0
M  V30 8123 H 747.372 -0.661094 -0.261679 0
M  V30 8124 H 749.974 -1.95453 -0.0428196 0
M  V30 8125 H 748.678 -4.03176 -0.766629 0
M  V30 8126 H 748.209 -3.21567 -2.26623 0
M  V30 8127 H 750.224 -3.52789 -3.48934 0
M  V30 8128 N 749.397 0.351382 -1.53633 0
M  V30 8129 C 750.674 1.10903 -1.6112 0
M  V30 8130 C 751.054 2.06725 -0.427556 0
M  V30 8131 O 750.402 2.20992 0.580916 0
M  V30 8132 C 750.612 1.83561 -2.96827 0
M  V30 8133 C 751.96 2.37587 -3.51906 0
M  V30 8134 O 752.984 1.93669 -2.9895 0
M  V30 8135 O 751.843 3.17913 -4.44515 0
M  V30 8136 H 748.937 0.509558 -0.651368 0
M  V30 8137 H 751.483 0.353504 -1.65977 0
M  V30 8138 H 750.255 1.1371 -3.74414 0
M  V30 8139 H 749.878 2.6599 -2.95525 0
M  V30 8140 N 750.875 1.45233 0.611969 0
M  V30 8141 C 752.103 1.52539 1.39784 0
M  V30 8142 C 752.518 0.156533 1.8815 0
M  V30 8143 O 751.875 -0.84112 1.61961 0
M  V30 8144 C 751.926 2.50614 2.60528 0
M  V30 8145 O 751.647 3.8218 2.14173 0
M  V30 8146 C 753.148 2.67574 3.53439 0
M  V30 8147 H 750.368 0.51674 0.428043 0
M  V30 8148 H 752.912 1.90379 0.746727 0
M  V30 8149 H 751.067 2.15858 3.2169 0
M  V30 8150 H 751.481 4.35305 2.92592 0
M  V30 8151 H 752.955 3.40184 4.34717 0
M  V30 8152 H 753.432 1.73458 4.03496 0
M  V30 8153 H 754.038 3.0331 2.98133 0
M  V30 8154 N 752.353 -0.854086 1.3245 0
M  V30 8155 C 753.601 -1.60513 1.228 0
M  V30 8156 C 753.922 -1.93865 -0.210073 0
M  V30 8157 O 753.192 -1.59673 -1.13496 0
M  V30 8158 H 751.772 -0.595099 0.451516 0
M  V30 8159 H 754.434 -1.0216 1.6598 0
M  V30 8160 H 753.53 -2.54182 1.81102 0
M  V30 8161 N 753.831 -1.1567 -1.07043 0
M  V30 8162 C 754.794 -0.858906 -2.12498 0
M  V30 8163 C 755.794 0.142735 -1.60165 0
M  V30 8164 O 756.984 -0.0872678 -1.73981 0
M  V30 8165 C 754.116 -0.283021 -3.39723 0
M  V30 8166 H 755.309 -1.79368 -2.40348 0
M  V30 8167 H 752.862 -0.964608 -1.22984 0
M  V30 8168 H 753.597 0.659796 -3.17517 0
M  V30 8169 H 753.382 -1.00467 -3.7901 0
M  V30 8170 H 754.872 -0.0923543 -4.17498 0
M  V30 8171 N 755.309 1.25446 -0.953992 0
M  V30 8172 C 756.556 1.93143 -0.608429 0
M  V30 8173 C 756.884 1.74727 0.854451 0
M  V30 8174 O 756.139 1.0855 1.62836 0
M  V30 8175 C 756.438 3.45555 -0.912496 0
M  V30 8176 C 756.104 3.84126 -2.36131 0
M  V30 8177 C 754.766 3.94367 -2.75732 0
M  V30 8178 C 757.118 4.0324 -3.30223 0
M  V30 8179 C 754.446 4.21127 -4.08496 0
M  V30 8180 C 756.798 4.31493 -4.62598 0
M  V30 8181 C 755.462 4.3995 -5.01996 0
M  V30 8182 H 754.732 0.706762 -0.22264 0
M  V30 8183 H 757.379 1.49005 -1.20291 0
M  V30 8184 H 755.684 3.91091 -0.235618 0
M  V30 8185 H 757.381 3.9612 -0.623714 0
M  V30 8186 H 753.971 3.76711 -2.04418 0
M  V30 8187 H 758.155 3.94744 -3.00817 0
M  V30 8188 H 753.411 4.2589 -4.38665 0
M  V30 8189 H 757.585 4.45227 -5.35486 0
M  V30 8190 H 755.212 4.60439 -6.04896 0
M  V30 8191 N 756.787 0.722489 1.40064 0
M  V30 8192 C 757.697 0.0755984 2.34478 0
M  V30 8193 C 758.713 -0.736046 1.57665 0
M  V30 8194 O 759.889 -0.667407 1.9002 0
M  V30 8195 C 756.954 -0.830075 3.36616 0
M  V30 8196 C 756.015 -0.00759884 4.29299 0
M  V30 8197 C 755.248 -0.870139 5.26559 0
M  V30 8198 O 755.471 -2.10921 5.2997 0
M  V30 8199 O 754.405 -0.305454 6.01124 0
M  V30 8200 H 758.231 0.854545 2.9143 0
M  V30 8201 H 755.816 0.483032 1.41376 0
M  V30 8202 H 757.698 -1.34864 3.99236 0
M  V30 8203 H 756.373 -1.58805 2.82069 0
M  V30 8204 H 755.28 0.556199 3.69942 0
M  V30 8205 H 756.613 0.712312 4.87018 0
M  V30 8206 N 758.265 -1.50454 0.469181 0
M  V30 8207 C 759.195 -2.31353 -0.31592 0
M  V30 8208 C 760.176 -1.38172 -0.992094 0
M  V30 8209 O 761.361 -1.67093 -0.989633 0
M  V30 8210 C 758.491 -3.1786 -1.39937 0
M  V30 8211 C 757.445 -4.19578 -0.844909 0
M  V30 8212 C 756.771 -4.9481 -2.0265 0
M  V30 8213 C 758.071 -5.22106 0.142499 0
M  V30 8214 H 759.765 -2.97237 0.359269 0
M  V30 8215 H 757.311 -1.42942 0.174224 0
M  V30 8216 H 759.264 -3.7325 -1.95607 0
M  V30 8217 H 757.988 -2.49858 -2.1033 0
M  V30 8218 H 756.647 -3.65285 -0.310189 0
M  V30 8219 H 756.295 -4.23282 -2.71737 0
M  V30 8220 H 755.995 -5.63613 -1.66174 0
M  V30 8221 H 757.519 -5.53035 -2.58815 0
M  V30 8222 H 758.933 -5.72378 -0.324966 0
M  V30 8223 H 757.33 -5.98618 0.421441 0
M  V30 8224 H 758.4 -4.7297 1.06901 0
M  V30 8225 N 759.743 -0.201713 -1.56304 0
M  V30 8226 C 760.992 0.435557 -1.96941 0
M  V30 8227 C 761.305 1.62299 -1.09172 0
M  V30 8228 O 762.511 2.32849 -1.3962 0
M  V30 8229 C 760.967 0.826298 -3.50286 0
M  V30 8230 C 760.575 -0.337216 -4.46729 0
M  V30 8231 C 762.319 1.43028 -3.99679 0
M  V30 8232 C 760.226 0.0748539 -5.91353 0
M  V30 8233 H 759.156 0.1665 -0.735387 0
M  V30 8234 H 761.807 -0.294781 -1.81117 0
M  V30 8235 H 760.189 1.61349 -3.61639 0
M  V30 8236 H 761.363 -1.11476 -4.47113 0
M  V30 8237 H 759.678 -0.853126 -4.07567 0
M  V30 8238 H 762.275 1.75115 -5.05212 0
M  V30 8239 H 762.618 2.33911 -3.44371 0
M  V30 8240 H 763.151 0.706924 -3.91468 0
M  V30 8241 H 759.89 -0.799957 -6.506 0
M  V30 8242 H 759.41 0.817122 -5.94208 0
M  V30 8243 H 761.089 0.508389 -6.45 0
M  V30 8244 N 761.222 1.57436 0.0718424 0
M  V30 8245 C 762.452 1.91196 0.782795 0
M  V30 8246 C 762.86 0.795927 1.71644 0
M  V30 8247 O 762.203 -0.239604 1.82131 0
M  V30 8248 C 762.265 3.20421 1.63005 0
M  V30 8249 C 761.929 4.48724 0.865782 0
M  V30 8250 C 762.926 5.19571 0.185051 0
M  V30 8251 C 760.611 4.95345 0.832971 0
M  V30 8252 C 762.605 6.3529 -0.518264 0
M  V30 8253 C 760.292 6.1097 0.125884 0
M  V30 8254 C 761.29 6.80794 -0.548533 0
M  V30 8255 O 760.978 7.94213 -1.24423 0
M  V30 8256 H 760.71 0.636486 0.227731 0
M  V30 8257 H 763.264 2.05348 0.0464187 0
M  V30 8258 H 761.494 3.02478 2.40923 0
M  V30 8259 H 763.183 3.39831 2.21968 0
M  V30 8260 H 763.949 4.8458 0.201707 0
M  V30 8261 H 759.828 4.40871 1.34737 0
M  V30 8262 H 763.372 6.89725 -1.04523 0
M  V30 8263 H 759.269 6.45411 0.107155 0
M  V30 8264 H 760.037 8.10331 -1.1535 0
M  V30 8265 N 762.7 -0.34323 1.53817 0
M  V30 8266 C 763.647 -1.42153 1.81827 0
M  V30 8267 C 764.617 -1.52251 0.663996 0
M  V30 8268 O 765.802 -1.67784 0.908461 0
M  V30 8269 C 762.942 -2.78799 2.03384 0
M  V30 8270 C 762.055 -2.7749 3.31094 0
M  V30 8271 C 761.19 -4.05856 3.42717 0
M  V30 8272 C 760.229 -3.98776 4.64375 0
M  V30 8273 N 759.366 -5.18833 4.73029 0
M  V30 8274 H 764.206 -1.17567 2.73829 0
M  V30 8275 H 761.743 -0.569506 1.35628 0
M  V30 8276 H 763.701 -3.58211 2.13872 0
M  V30 8277 H 762.331 -3.01736 1.14696 0
M  V30 8278 H 761.383 -1.90182 3.29446 0
M  V30 8279 H 762.695 -2.68137 4.206 0
M  V30 8280 H 761.849 -4.93691 3.52638 0
M  V30 8281 H 760.588 -4.1799 2.51267 0
M  V30 8282 H 759.593 -3.09325 4.5453 0
M  V30 8283 H 760.818 -3.88224 5.57189 0
M  V30 8284 H 758.764 -5.31511 3.84489 0
M  V30 8285 H 758.681 -5.11737 5.56472 0
M  V30 8286 H 759.949 -6.08439 4.87261 0
M  V30 8287 N 764.178 -1.45556 -0.604258 0
M  V30 8288 C 765.11 -1.50494 -1.72871 0
M  V30 8289 C 766.123 -0.395368 -1.57926 0
M  V30 8290 O 767.312 -0.662603 -1.65746 0
M  V30 8291 C 764.412 -1.34874 -3.10906 0
M  V30 8292 C 763.585 -2.59564 -3.52058 0
M  V30 8293 C 762.644 -2.38453 -4.6907 0
M  V30 8294 O 761.67 -3.12082 -4.76018 0
M  V30 8295 N 762.872 -1.43229 -5.62553 0
M  V30 8296 H 765.637 -2.4744 -1.69097 0
M  V30 8297 H 763.198 -1.41338 -0.789636 0
M  V30 8298 H 765.19 -1.18556 -3.86945 0
M  V30 8299 H 763.76 -0.461913 -3.09168 0
M  V30 8300 H 762.98 -2.90974 -2.65946 0
M  V30 8301 H 764.268 -3.42441 -3.76313 0
M  V30 8302 H 763.666 -0.824714 -5.59656 0
M  V30 8303 H 762.223 -1.32882 -6.38111 0
M  V30 8304 N 765.656 0.84705 -1.32902 0
M  V30 8305 C 767.067 1.41785 -1.21466 0
M  V30 8306 C 767.418 1.95464 0.169767 0
M  V30 8307 O 766.543 1.88157 1.06892 0
M  V30 8308 C 767.138 2.57734 -2.19906 0
M  V30 8309 C 765.697 3.10791 -2.12334 0
M  V30 8310 C 764.844 1.83562 -2.07847 0
M  V30 8311 H 767.795 0.653532 -1.44619 0
M  V30 8312 H 767.816 3.35123 -1.80202 0
M  V30 8313 H 767.328 2.18635 -3.20656 0
M  V30 8314 H 765.429 3.54455 -1.14858 0
M  V30 8315 H 765.542 3.71519 -3.02506 0
M  V30 8316 H 763.906 2.03475 -1.53199 0
M  V30 8317 H 764.689 1.4667 -3.10392 0
M  V30 8318 N 767.134 1.16236 1.06428 0
M  V30 8319 C 768.097 0.870163 2.1204 0
M  V30 8320 C 769.097 -0.134239 1.60239 0
M  V30 8321 O 770.287 0.0964932 1.73933 0
M  V30 8322 C 767.419 0.301033 3.39568 0
M  V30 8323 H 768.612 1.8064 2.39394 0
M  V30 8324 H 766.165 0.971116 1.2247 0
M  V30 8325 H 766.9 -0.642948 3.17863 0
M  V30 8326 H 766.685 1.02475 3.78472 0
M  V30 8327 H 768.175 0.114494 4.17443 0
M  V30 8328 N 768.612 -1.24939 0.960631 0
M  V30 8329 C 769.858 -1.93104 0.61958 0
M  V30 8330 C 770.191 -1.74991 -0.84212 0
M  V30 8331 O 769.466 -1.09867 -1.60498 0
M  V30 8332 C 769.749 -3.46326 0.986422 0
M  V30 8333 C 769.602 -3.73638 2.50429 0
M  V30 8334 C 770.921 -4.37067 0.515827 0
M  V30 8335 H 768.04 -0.701311 0.226566 0
M  V30 8336 H 770.682 -1.47442 1.19836 0
M  V30 8337 H 768.832 -3.85348 0.493907 0
M  V30 8338 H 770.504 -3.44217 3.07103 0
M  V30 8339 H 768.747 -3.19035 2.93937 0
M  V30 8340 H 769.418 -4.80815 2.71147 0
M  V30 8341 H 771.894 -4.05381 0.938389 0
M  V30 8342 H 770.77 -5.43022 0.80114 0
M  V30 8343 H 771.031 -4.38224 -0.584171 0
M  V30 8344 N 770.09 -0.729906 -1.39679 0
M  V30 8345 C 771 -0.0880322 -2.34435 0
M  V30 8346 C 772.016 0.727674 -1.58053 0
M  V30 8347 O 773.192 0.657321 -1.90371 0
M  V30 8348 C 770.257 0.812211 -3.37052 0
M  V30 8349 C 769.318 -0.0151681 -4.29297 0
M  V30 8350 C 768.551 0.842202 -5.27013 0
M  V30 8351 O 768.774 2.08108 -5.31081 0
M  V30 8352 O 767.708 0.27357 -6.01278 0
M  V30 8353 H 771.534 -0.869989 -2.90972 0
M  V30 8354 H 769.119 -0.490522 -1.41118 0
M  V30 8355 H 771.001 1.32745 -3.99946 0
M  V30 8356 H 769.676 1.57307 -2.82907 0
M  V30 8357 H 768.583 -0.575811 -3.69642 0
M  V30 8358 H 769.916 -0.738129 -4.86634 0
M  V30 8359 N 771.568 1.50203 -0.477153 0
M  V30 8360 C 772.814 2.02658 0.0758507 0
M  V30 8361 C 773.147 1.358 1.38824 0
M  V30 8362 O 772.422 0.485696 1.88338 0
M  V30 8363 C 772.705 3.59208 0.253339 0
M  V30 8364 C 772.558 4.36629 -1.0805 0
M  V30 8365 C 773.877 4.28469 1.00509 0
M  V30 8366 H 770.996 0.736538 0.0260921 0
M  V30 8367 H 773.638 1.79464 -0.623925 0
M  V30 8368 H 771.788 3.79101 0.849378 0
M  V30 8369 H 773.46 4.28292 -1.71358 0
M  V30 8370 H 771.703 4.0013 -1.67566 0
M  V30 8371 H 772.374 5.44449 -0.909883 0
M  V30 8372 H 774.85 4.13087 0.499818 0
M  V30 8373 H 773.726 5.37804 1.09808 0
M  V30 8374 H 773.987 3.92057 2.04314 0
M  V30 8375 N 773.046 0.209999 1.56195 0
M  V30 8376 C 774.457 -0.299943 1.84275 0
M  V30 8377 C 774.808 -1.60314 1.1311 0
M  V30 8378 O 773.933 -2.1273 0.396874 0
M  V30 8379 C 774.528 -0.550986 3.3429 0
M  V30 8380 C 773.087 -1.00526 3.62728 0
M  V30 8381 C 772.234 -0.0619828 2.77231 0
M  V30 8382 H 775.185 0.433458 1.52666 0
M  V30 8383 H 775.206 -1.39846 3.53869 0
M  V30 8384 H 774.718 0.397669 3.86057 0
M  V30 8385 H 772.819 -1.96768 3.16407 0
M  V30 8386 H 772.932 -0.887664 4.70805 0
M  V30 8387 H 771.296 -0.566648 2.48317 0
M  V30 8388 H 772.079 0.881383 3.31793 0
M  V30 8389 N 774.524 -1.57472 -0.0634922 0
M  V30 8390 C 775.456 -2.00999 -1.10145 0
M  V30 8391 C 776.469 -0.917219 -1.34503 0
M  V30 8392 O 777.658 -1.19501 -1.32596 0
M  V30 8393 C 774.758 -2.34089 -2.45063 0
M  V30 8394 C 773.931 -3.65317 -2.40546 0
M  V30 8395 C 772.99 -3.85982 -3.57637 0
M  V30 8396 O 772.016 -4.5747 -3.38689 0
M  V30 8397 N 773.218 -3.28971 -4.78287 0
M  V30 8398 H 775.983 -2.90656 -0.730714 0
M  V30 8399 H 773.544 -1.59926 -0.252017 0
M  V30 8400 H 775.536 -2.4508 -3.22053 0
M  V30 8401 H 774.106 -1.50279 -2.74107 0
M  V30 8402 H 773.326 -3.65003 -1.48885 0
M  V30 8403 H 774.614 -4.51468 -2.34636 0
M  V30 8404 H 774.012 -2.70962 -4.96584 0
M  V30 8405 H 772.569 -3.45398 -5.5276 0
M  V30 8406 N 776.003 0.335068 -1.53997 0
M  V30 8407 C 777.233 1.0926 -1.75345 0
M  V30 8408 C 777.641 1.82568 -0.496545 0
M  V30 8409 O 776.984 1.75525 0.541897 0
M  V30 8410 C 777.046 2.14473 -2.88516 0
M  V30 8411 C 776.71 1.60665 -4.27827 0
M  V30 8412 C 777.707 1.05448 -5.09094 0
M  V30 8413 C 775.392 1.65255 -4.74337 0
M  V30 8414 C 777.386 0.555372 -6.34976 0
M  V30 8415 C 775.073 1.14956 -6.0019 0
M  V30 8416 C 776.071 0.601907 -6.80343 0
M  V30 8417 O 775.759 0.106445 -8.0383 0
M  V30 8418 H 775.491 0.331329 -0.589234 0
M  V30 8419 H 778.045 0.39042 -2.01655 0
M  V30 8420 H 776.275 2.88274 -2.5775 0
M  V30 8421 H 777.964 2.75857 -2.97755 0
M  V30 8422 H 778.73 1.01218 -4.74321 0
M  V30 8423 H 774.609 2.06822 -4.12002 0
M  V30 8424 H 778.153 0.127245 -6.97484 0
M  V30 8425 H 774.05 1.18891 -6.34457 0
M  V30 8426 H 774.818 0.222944 -8.18196 0
M  V30 8427 N 777.481 1.45874 0.596531 0
M  V30 8428 C 778.727 1.5069 1.35722 0
M  V30 8429 C 779.06 0.152506 1.936 0
M  V30 8430 O 778.335 -0.834411 1.75692 0
M  V30 8431 C 778.618 2.59474 2.4969 0
M  V30 8432 C 778.471 4.04396 1.96937 0
M  V30 8433 C 779.79 2.64451 3.51787 0
M  V30 8434 H 776.909 0.548611 0.492133 0
M  V30 8435 H 779.551 1.77741 0.671428 0
M  V30 8436 H 777.701 2.36539 3.08191 0
M  V30 8437 H 779.373 4.38576 1.43 0
M  V30 8438 H 777.616 4.14529 1.27859 0
M  V30 8439 H 778.287 4.76218 2.79143 0
M  V30 8440 H 780.763 2.85031 3.03145 0
M  V30 8441 H 779.639 3.42411 4.29006 0
M  V30 8442 H 779.9 1.69965 4.08123 0
M  V30 8443 N 778.959 -0.83999 1.33349 0
M  V30 8444 C 780.207 -1.59202 1.24496 0
M  V30 8445 C 780.528 -1.94077 -0.189499 0
M  V30 8446 O 779.798 -1.60868 -1.11796 0
M  V30 8447 H 778.378 -0.590276 0.457802 0
M  V30 8448 H 781.04 -1.00394 1.67054 0
M  V30 8449 H 780.136 -2.52247 1.83788 0
M  V30 8450 N 780.437 -1.16799 -1.0581 0
M  V30 8451 C 781.686 -0.94698 -1.78088 0
M  V30 8452 C 781.999 0.526016 -1.88394 0
M  V30 8453 O 783.205 0.865061 -2.5735 0
M  V30 8454 C 781.661 -1.64508 -3.20102 0
M  V30 8455 C 781.269 -3.15618 -3.17946 0
M  V30 8456 C 783.013 -1.50622 -3.96879 0
M  V30 8457 C 780.92 -3.78144 -4.5471 0
M  V30 8458 H 779.85 -0.35067 -0.667493 0
M  V30 8459 H 782.501 -1.39985 -1.18645 0
M  V30 8460 H 780.883 -1.11993 -3.79834 0
M  V30 8461 H 782.057 -3.75016 -2.67768 0
M  V30 8462 H 780.372 -3.29444 -2.54667 0
M  V30 8463 H 782.969 -1.94713 -4.97987 0
M  V30 8464 H 783.312 -0.455864 -4.13797 0
M  V30 8465 H 783.845 -2.00319 -3.43682 0
M  V30 8466 H 780.584 -4.83149 -4.42998 0
M  V30 8467 H 780.104 -3.23532 -5.05062 0
M  V30 8468 H 781.783 -3.79986 -5.2366 0
M  V30 8469 N 781.915 1.24427 -0.967243 0
M  V30 8470 C 783.331 1.44684 -0.6737 0
M  V30 8471 C 783.531 1.86429 0.764625 0
M  V30 8472 O 782.587 2.00211 1.53857 0
M  V30 8473 C 783.9 2.509 -1.6574 0
M  V30 8474 C 785.448 2.64728 -1.66998 0
M  V30 8475 C 785.923 3.7414 -2.64165 0
M  V30 8476 N 787.414 3.81567 -2.62604 0
M  V30 8477 C 788.149 4.6575 -3.34462 0
M  V30 8478 N 787.645 5.54124 -4.15835 0
M  V30 8479 N 789.438 4.59827 -3.23288 0
M  V30 8480 H 781.589 0.956276 -1.89655 0
M  V30 8481 H 783.852 0.48171 -0.816492 0
M  V30 8482 H 783.558 2.27113 -2.68538 0
M  V30 8483 H 783.432 3.4905 -1.42981 0
M  V30 8484 H 785.819 2.87872 -0.649121 0
M  V30 8485 H 785.9 1.66936 -1.93819 0
M  V30 8486 H 785.544 3.51745 -3.66384 0
M  V30 8487 H 785.474 4.71444 -2.34623 0
M  V30 8488 H 787.965 3.18403 -2.03539 0
M  V30 8489 H 788.278 6.15316 -4.67553 0
M  V30 8490 H 786.623 5.53791 -4.19929 0
M  V30 8491 H 789.814 3.898 -2.59179 0
M  V30 8492 H 789.987 5.25208 -3.79553 0
M  V30 8493 N 783.393 0.737304 1.3929 0
M  V30 8494 C 784.323 0.113988 2.33222 0
M  V30 8495 C 785.304 -0.721695 1.54031 0
M  V30 8496 O 786.489 -0.666206 1.82415 0
M  V30 8497 C 783.619 -0.792319 3.38141 0
M  V30 8498 C 782.573 -0.0606178 4.27957 0
M  V30 8499 C 781.899 -1.08409 5.23595 0
M  V30 8500 C 783.199 1.09817 5.10625 0
M  V30 8501 H 784.893 0.898611 2.85596 0
M  V30 8502 H 782.439 0.433571 1.37318 0
M  V30 8503 H 784.392 -1.23793 4.02807 0
M  V30 8504 H 783.116 -1.60908 2.84211 0
M  V30 8505 H 781.775 0.365393 3.64775 0
M  V30 8506 H 781.423 -1.89449 4.6596 0
M  V30 8507 H 781.123 -0.599269 5.84536 0
M  V30 8508 H 782.647 -1.52936 5.91137 0
M  V30 8509 H 784.061 0.730892 5.68622 0
M  V30 8510 H 782.458 1.51278 5.80719 0
M  V30 8511 H 783.528 1.91878 4.45321 0
M  V30 8512 N 784.871 -1.49948 0.485112 0
M  V30 8513 C 785.801 -2.31675 -0.291364 0
M  V30 8514 C 786.782 -1.39216 -0.977383 0
M  V30 8515 O 787.967 -1.68133 -0.971855 0
M  V30 8516 C 785.097 -3.19326 -1.36558 0
M  V30 8517 C 784.051 -4.2045 -0.800359 0
M  V30 8518 C 783.377 -4.96931 -1.97391 0
M  V30 8519 C 784.677 -5.21925 0.197867 0
M  V30 8520 H 786.371 -2.96839 0.390775 0
M  V30 8521 H 783.917 -1.42749 0.189375 0
M  V30 8522 H 785.87 -3.75304 -1.91638 0
M  V30 8523 H 784.594 -2.52074 -2.07668 0
M  V30 8524 H 783.253 -3.65594 -0.271428 0
M  V30 8525 H 782.901 -4.26141 -2.67232 0
M  V30 8526 H 782.601 -5.65344 -1.60187 0
M  V30 8527 H 784.125 -5.55749 -2.52935 0
M  V30 8528 H 785.539 -5.72691 -0.264239 0
M  V30 8529 H 783.936 -5.98138 0.484908 0
M  V30 8530 H 785.006 -4.71809 1.11912 0
M  V30 8531 N 786.349 -0.21828 -1.56081 0
M  V30 8532 C 787.595 0.414921 -1.9851 0
M  V30 8533 C 787.928 1.59648 -1.10573 0
M  V30 8534 O 787.203 1.93818 -0.162695 0
M  V30 8535 C 787.486 0.852647 -3.4986 0
M  V30 8536 C 787.339 -0.33232 -4.48571 0
M  V30 8537 C 788.658 1.70998 -4.05521 0
M  V30 8538 H 785.777 0.149344 -0.72171 0
M  V30 8539 H 788.419 -0.313858 -1.8739 0
M  V30 8540 H 786.569 1.47362 -3.59467 0
M  V30 8541 H 788.241 -0.970418 -4.50977 0
M  V30 8542 H 786.484 -0.980302 -4.22578 0
M  V30 8543 H 787.155 0.0168407 -5.51997 0
M  V30 8544 H 789.631 1.18606 -3.98838 0
M  V30 8545 H 788.507 1.98517 -5.11744 0
M  V30 8546 H 788.768 2.67219 -3.52202 0
M  V30 8547 N 787.827 1.57504 0.0551401 0
M  V30 8548 C 788.737 2.08198 1.08124 0
M  V30 8549 C 789.753 1.01496 1.41331 0
M  V30 8550 O 790.929 1.33073 1.51174 0
M  V30 8551 C 787.994 2.52968 2.37083 0
M  V30 8552 C 787.055 3.7404 2.10696 0
M  V30 8553 C 786.288 4.16665 3.33505 0
M  V30 8554 O 786.511 3.59019 4.4324 0
M  V30 8555 O 785.445 5.09324 3.20737 0
M  V30 8556 H 789.271 2.95977 0.680518 0
M  V30 8557 H 786.856 1.46933 0.270401 0
M  V30 8558 H 788.738 2.82211 3.12946 0
M  V30 8559 H 787.413 1.6831 2.76502 0
M  V30 8560 H 786.32 3.49855 1.32484 0
M  V30 8561 H 787.653 4.59601 1.76148 0
M  V30 8562 N 789.305 -0.326896 1.54172 0
M  V30 8563 C 790.553 -1.06313 1.71878 0
M  V30 8564 C 790.874 -1.88652 0.493498 0
M  V30 8565 O 790.144 -1.89608 -0.492522 0
M  V30 8566 H 788.724 -0.39549 0.633716 0
M  V30 8567 H 791.386 -0.364139 1.91468 0
M  V30 8568 H 790.482 -1.73105 2.59694 0
M  V30 8569 N 790.784 -1.46188 -0.588786 0
M  V30 8570 C 792.031 -1.51184 -1.34721 0
M  V30 8571 C 792.359 -0.161084 -1.93832 0
M  V30 8572 O 791.614 0.842557 -1.76634 0
M  V30 8573 C 791.913 -2.55364 -2.50048 0
M  V30 8574 C 791.579 -3.99553 -2.08969 0
M  V30 8575 C 790.241 -4.38811 -1.9748 0
M  V30 8576 C 792.593 -4.90156 -1.77191 0
M  V30 8577 C 789.921 -5.66544 -1.52463 0
M  V30 8578 C 792.273 -6.1832 -1.33654 0
M  V30 8579 C 790.937 -6.5649 -1.20738 0
M  V30 8580 H 790.207 -0.55322 -0.49298 0
M  V30 8581 H 792.854 -1.79634 -0.663627 0
M  V30 8582 H 791.159 -2.20552 -3.23827 0
M  V30 8583 H 792.856 -2.5646 -3.08268 0
M  V30 8584 H 789.446 -3.68518 -2.18843 0
M  V30 8585 H 793.63 -4.60549 -1.84955 0
M  V30 8586 H 788.886 -5.94895 -1.411 0
M  V30 8587 H 793.06 -6.87956 -1.08117 0
M  V30 8588 H 790.687 -7.55362 -0.856307 0
M  V30 8589 N 792.262 0.832906 -1.33792 0
M  V30 8590 C 793.49 1.62048 -1.28639 0
M  V30 8591 C 793.905 1.88269 0.141522 0
M  V30 8592 O 793.262 1.46706 1.08553 0
M  V30 8593 C 793.313 2.96722 -2.0649 0
M  V30 8594 O 793.034 2.7165 -3.43712 0
M  V30 8595 C 794.535 3.91144 -2.08617 0
M  V30 8596 H 791.755 0.504032 -0.442937 0
M  V30 8597 H 794.299 1.03704 -1.76255 0
M  V30 8598 H 792.454 3.51652 -1.62541 0
M  V30 8599 H 792.868 3.57453 -3.83833 0
M  V30 8600 H 794.342 4.82837 -2.67531 0
M  V30 8601 H 794.819 4.25766 -1.07796 0
M  V30 8602 H 795.425 3.42152 -2.52611 0
M  V30 8603 N 793.74 1.17359 1.05189 0
M  V30 8604 C 794.989 0.956412 1.77583 0
M  V30 8605 C 795.302 -0.516018 1.88671 0
M  V30 8606 O 796.508 -0.851401 2.57805 0
M  V30 8607 C 794.964 1.66203 3.19225 0
M  V30 8608 C 794.572 3.17299 3.16267 0
M  V30 8609 C 796.316 1.52725 3.96075 0
M  V30 8610 C 794.223 3.8055 4.52698 0
M  V30 8611 H 793.153 0.354204 0.665624 0
M  V30 8612 H 795.804 1.40612 1.17901 0
M  V30 8613 H 794.186 1.14006 3.79234 0
M  V30 8614 H 795.36 3.76431 2.65776 0
M  V30 8615 H 793.675 3.3079 2.52917 0
M  V30 8616 H 796.272 1.97351 4.96947 0
M  V30 8617 H 796.615 0.477803 4.13549 0
M  V30 8618 H 797.148 2.02139 3.42614 0
M  V30 8619 H 793.887 4.85492 4.4043 0
M  V30 8620 H 793.407 3.26206 5.03339 0
M  V30 8621 H 795.086 3.82757 5.21638 0
M  V30 8622 N 795.218 -1.23913 0.973828 0
M  V30 8623 C 796.165 -2.25132 0.508366 0
M  V30 8624 C 797.135 -1.59908 -0.449307 0
M  V30 8625 O 798.32 -1.87405 -0.358313 0
M  V30 8626 C 795.46 -3.4458 -0.189422 0
M  V30 8627 C 794.573 -4.24381 0.807738 0
M  V30 8628 C 793.708 -5.31131 0.0854315 0
M  V30 8629 C 792.747 -6.02635 1.07225 0
M  V30 8630 N 791.884 -7.01073 0.379535 0
M  V30 8631 H 796.724 -2.64313 1.37632 0
M  V30 8632 H 794.261 -1.29924 0.689802 0
M  V30 8633 H 796.219 -4.12706 -0.610733 0
M  V30 8634 H 794.849 -3.06218 -1.02129 0
M  V30 8635 H 793.901 -3.55735 1.34747 0
M  V30 8636 H 795.213 -4.73778 1.55998 0
M  V30 8637 H 794.367 -6.05422 -0.393572 0
M  V30 8638 H 793.106 -4.82658 -0.699461 0
M  V30 8639 H 792.111 -5.27143 1.56207 0
M  V30 8640 H 793.336 -6.53197 1.85769 0
M  V30 8641 H 791.282 -6.54862 -0.386269 0
M  V30 8642 H 791.199 -7.48382 1.07054 0
M  V30 8643 H 792.467 -7.79462 -0.0772984 0
M  V30 8644 N 796.696 -0.74468 -1.38897 0
M  V30 8645 C 797.643 -0.111064 -2.30533 0
M  V30 8646 C 798.613 0.719276 -1.49719 0
M  V30 8647 O 799.798 0.677244 -1.78376 0
M  V30 8648 C 796.938 0.78292 -3.36102 0
M  V30 8649 C 796.051 -0.0610817 -4.31957 0
M  V30 8650 C 795.186 0.835075 -5.24595 0
M  V30 8651 C 794.225 -0.0130974 -6.12099 0
M  V30 8652 N 793.362 0.839525 -6.97063 0
M  V30 8653 H 798.202 -0.898113 -2.84144 0
M  V30 8654 H 795.739 -0.454537 -1.39901 0
M  V30 8655 H 797.697 1.31578 -3.95908 0
M  V30 8656 H 796.327 1.53585 -2.83922 0
M  V30 8657 H 795.379 -0.711469 -3.73687 0
M  V30 8658 H 796.691 -0.716482 -4.93627 0
M  V30 8659 H 795.845 1.43542 -5.89475 0
M  V30 8660 H 794.584 1.52423 -4.63269 0
M  V30 8661 H 793.589 -0.626179 -5.46223 0
M  V30 8662 H 794.814 -0.699181 -6.75491 0
M  V30 8663 H 792.76 1.5138 -6.38295 0
M  V30 8664 H 792.677 0.240823 -7.55616 0
M  V30 8665 H 793.945 1.42513 -7.66362 0
M  V30 8666 N 798.174 1.49689 -0.493057 0
M  V30 8667 C 799.585 1.8665 -0.0433032 0
M  V30 8668 C 799.936 1.40607 1.36836 0
M  V30 8669 O 799.061 0.780503 2.01834 0
M  V30 8670 C 799.656 3.38724 -0.0718069 0
M  V30 8671 C 798.215 3.75015 0.32257 0
M  V30 8672 C 797.362 2.7366 -0.4478 0
M  V30 8673 H 800.313 1.42119 -0.706246 0
M  V30 8674 H 800.334 3.73522 0.725347 0
M  V30 8675 H 799.846 3.72204 -1.09935 0
M  V30 8676 H 797.947 3.47142 1.35364 0
M  V30 8677 H 798.06 4.79099 0.00864259 0
M  V30 8678 H 796.424 2.54498 0.101354 0
M  V30 8679 H 797.207 3.09985 -1.47527 0
M  V30 8680 N 799.652 0.226554 1.55963 0
M  V30 8681 C 800.585 -0.721625 2.1649 0
M  V30 8682 C 801.563 -1.18745 1.11078 0
M  V30 8683 O 802.747 -1.26929 1.3936 0
M  V30 8684 C 799.874 -1.97828 2.74921 0
M  V30 8685 C 798.92 -1.65202 3.93206 0
M  V30 8686 S 799.753 -0.772419 5.299 0
M  V30 8687 C 800.909 -2.03853 5.91773 0
M  V30 8688 H 801.142 -0.207192 2.96577 0
M  V30 8689 H 798.675 0.0111976 1.54396 0
M  V30 8690 H 800.633 -2.69982 3.09225 0
M  V30 8691 H 799.294 -2.46384 1.94817 0
M  V30 8692 H 798.487 -2.58583 4.32609 0
M  V30 8693 H 798.089 -1.01108 3.60074 0
M  V30 8694 H 800.381 -2.98799 6.08051 0
M  V30 8695 H 801.324 -1.68831 6.87678 0
M  V30 8696 H 801.732 -2.18134 5.20651 0
M  V30 8697 N 801.13 -1.57531 -0.0467866 0
M  V30 8698 C 802.093 -2.04379 -1.03738 0
M  V30 8699 C 803.093 -0.944881 -1.3011 0
M  V30 8700 O 804.283 -1.20904 -1.25411 0
M  V30 8701 C 801.415 -2.44572 -2.37482 0
M  V30 8702 H 802.608 -2.93142 -0.633063 0
M  V30 8703 H 800.161 -1.53526 -0.293177 0
M  V30 8704 H 800.896 -1.58911 -2.82697 0
M  V30 8705 H 800.681 -3.24785 -2.19675 0
M  V30 8706 H 802.171 -2.81307 -3.08636 0
M  V30 8707 N 802.608 0.318715 -1.54344 0
M  V30 8708 C 803.541 1.41644 -1.7892 0
M  V30 8709 C 804.519 1.495 -0.639421 0
M  V30 8710 O 805.703 1.66835 -0.877404 0
M  V30 8711 C 802.83 2.79701 -1.9101 0
M  V30 8712 C 801.876 2.89354 -3.13331 0
M  V30 8713 S 802.709 2.53264 -4.71824 0
M  V30 8714 C 803.865 3.93384 -4.86826 0
M  V30 8715 H 804.098 1.20585 -2.71747 0
M  V30 8716 H 801.631 0.515828 -1.45529 0
M  V30 8717 H 803.589 3.59227 -1.98661 0
M  V30 8718 H 802.25 2.9804 -0.991516 0
M  V30 8719 H 801.443 3.90574 -3.1854 0
M  V30 8720 H 801.045 2.17805 -3.04035 0
M  V30 8721 H 803.337 4.88191 -4.69761 0
M  V30 8722 H 804.28 3.93156 -5.88926 0
M  V30 8723 H 804.688 3.82564 -4.15097 0
M  V30 8724 N 804.086 1.46499 0.581025 0
M  V30 8725 C 805.326 1.53456 1.35021 0
M  V30 8726 C 805.69 0.182542 1.9113 0
M  V30 8727 O 806.891 0.126874 2.685 0
M  V30 8728 C 805.162 2.60387 2.44812 0
M  V30 8729 S 806.721 2.86762 3.32134 0
M  V30 8730 H 803.539 0.54216 0.459982 0
M  V30 8731 H 806.141 1.83742 0.667754 0
M  V30 8732 H 804.845 3.57253 2.01986 0
M  V30 8733 H 804.376 2.31839 3.17828 0
M  V30 8734 H 806.391 2.2216 4.43688 0
M  V30 8735 N 805.565 -0.825799 1.34232 0
M  V30 8736 C 806.515 -1.92533 1.22128 0
M  V30 8737 C 807.499 -1.60444 0.121002 0
M  V30 8738 O 808.691 -1.73497 0.350385 0
M  V30 8739 C 805.82 -3.29134 0.975995 0
M  V30 8740 C 804.906 -3.6735 2.11931 0
M  V30 8741 N 805.297 -3.77154 3.37029 0
M  V30 8742 C 803.595 -3.97179 2.02891 0
M  V30 8743 C 804.296 -4.10552 4.12095 0
M  V30 8744 N 803.272 -4.23619 3.40658 0
M  V30 8745 H 807.074 -1.98287 2.16932 0
M  V30 8746 H 804.588 -1.01929 1.26429 0
M  V30 8747 H 806.585 -4.07717 0.870187 0
M  V30 8748 H 805.245 -3.24679 0.036606 0
M  V30 8749 H 806.256 -3.60723 3.71618 0
M  V30 8750 H 802.933 -4.00861 1.16692 0
M  V30 8751 H 804.323 -4.25365 5.2011 0
M  V30 8752 N 807.043 -1.17915 -1.04565 0
M  V30 8753 C 808.459 -0.927761 -1.29864 0
M  V30 8754 C 808.659 0.409536 -1.97294 0
M  V30 8755 O 807.715 1.14505 -2.25044 0
M  V30 8756 C 809.028 -2.08967 -2.16225 0
M  V30 8757 C 810.576 -2.12741 -2.29587 0
M  V30 8758 C 811.051 -3.28335 -3.19312 0
M  V30 8759 N 812.542 -3.28164 -3.26898 0
M  V30 8760 C 813.277 -4.14249 -3.96466 0
M  V30 8761 N 812.773 -5.10457 -4.68407 0
M  V30 8762 N 814.566 -4.02179 -3.92694 0
M  V30 8763 H 806.717 -2.03983 -0.592011 0
M  V30 8764 H 808.98 -0.891023 -0.323701 0
M  V30 8765 H 808.686 -3.05654 -1.73979 0
M  V30 8766 H 808.56 -2.04606 -3.16885 0
M  V30 8767 H 810.947 -1.16636 -2.71072 0
M  V30 8768 H 811.028 -2.21162 -1.28535 0
M  V30 8769 H 810.672 -4.2471 -2.78539 0
M  V30 8770 H 810.602 -3.17151 -4.20384 0
M  V30 8771 H 813.093 -2.58511 -2.75646 0
M  V30 8772 H 813.406 -5.72526 -5.1907 0
M  V30 8773 H 811.751 -5.14422 -4.67328 0
M  V30 8774 H 814.942 -3.26308 -3.3562 0
M  V30 8775 H 815.115 -4.69486 -4.4664 0
M  V30 8776 N 808.521 1.23394 -0.980386 0
M  V30 8777 C 809.937 1.43961 -0.689008 0
M  V30 8778 C 810.137 1.87229 0.744809 0
M  V30 8779 O 809.193 2.01831 1.51725 0
M  V30 8780 C 810.506 2.49128 -1.68392 0
M  V30 8781 C 812.054 2.62941 -1.69796 0
M  V30 8782 C 812.529 3.71317 -2.68118 0
M  V30 8783 N 814.02 3.7876 -2.66636 0
M  V30 8784 C 814.755 4.62176 -3.39383 0
M  V30 8785 N 814.251 5.49682 -4.21688 0
M  V30 8786 N 816.044 4.56372 -3.28147 0
M  V30 8787 H 808.195 0.936106 -1.90659 0
M  V30 8788 H 810.458 0.473023 -0.821555 0
M  V30 8789 H 810.164 2.24252 -2.70931 0
M  V30 8790 H 810.038 3.47514 -1.46675 0
M  V30 8791 H 812.425 2.87168 -0.679617 0
M  V30 8792 H 812.506 1.64871 -1.95579 0
M  V30 8793 H 812.15 3.4784 -3.70095 0
M  V30 8794 H 812.08 4.68929 -2.3961 0
M  V30 8795 H 814.571 3.16226 -2.06904 0
M  V30 8796 H 814.884 6.10323 -4.74053 0
M  V30 8797 H 813.229 5.49306 -4.25779 0
M  V30 8798 H 816.42 3.87029 -2.63299 0
M  V30 8799 H 816.593 5.21153 -3.85102 0
M  V30 8800 N 809.999 0.752036 1.385 0
M  V30 8801 C 810.932 0.0717411 2.28087 0
M  V30 8802 C 811.91 -0.729945 1.45295 0
M  V30 8803 O 813.094 -0.708902 1.74662 0
M  V30 8804 C 810.221 -0.905237 3.26379 0
M  V30 8805 C 809.267 -0.189973 4.26077 0
M  V30 8806 S 810.1 1.10815 5.23909 0
M  V30 8807 C 811.256 0.134202 6.25756 0
M  V30 8808 H 811.489 0.831438 2.85437 0
M  V30 8809 H 809.022 0.544552 1.44478 0
M  V30 8810 H 810.98 -1.46358 3.83523 0
M  V30 8811 H 809.641 -1.63789 2.68015 0
M  V30 8812 H 808.834 -0.92985 4.95348 0
M  V30 8813 H 808.436 0.296804 3.7282 0
M  V30 8814 H 810.728 -0.700345 6.7387 0
M  V30 8815 H 811.671 0.794532 7.03628 0
M  V30 8816 H 812.079 -0.245801 5.63965 0
M  V30 8817 N 811.477 -1.49425 0.500989 0
M  V30 8818 C 812.725 -2.02053 -0.0434495 0
M  V30 8819 C 813.046 -1.38285 -1.37486 0
M  V30 8820 O 812.316 -0.538171 -1.88363 0
M  V30 8821 H 810.896 -0.746757 -0.0190469 0
M  V30 8822 H 813.558 -1.83449 0.658227 0
M  V30 8823 H 812.654 -3.11619 -0.173129 0
M  V30 8824 N 812.955 -0.234822 -1.55841 0
M  V30 8825 C 814.201 0.393843 -1.98939 0
M  V30 8826 C 814.534 1.58466 -1.1226 0
M  V30 8827 O 813.809 1.93635 -0.183242 0
M  V30 8828 C 814.092 0.815492 -3.50745 0
M  V30 8829 C 813.945 -0.379878 -4.48193 0
M  V30 8830 C 815.264 1.66687 -4.07312 0
M  V30 8831 H 812.383 0.141681 -0.723253 0
M  V30 8832 H 815.025 -0.333716 -1.87046 0
M  V30 8833 H 813.175 1.43541 -3.6101 0
M  V30 8834 H 814.847 -1.0182 -4.49923 0
M  V30 8835 H 813.09 -1.02507 -4.21515 0
M  V30 8836 H 813.761 -0.0417069 -5.51984 0
M  V30 8837 H 816.237 1.14369 -4.00074 0
M  V30 8838 H 815.113 1.93078 -5.13821 0
M  V30 8839 H 815.374 2.63468 -3.55017 0
M  V30 8840 N 814.433 1.57553 0.0384317 0
M  V30 8841 C 815.849 1.54663 0.39391 0
M  V30 8842 C 816.049 0.959685 1.77179 0
M  V30 8843 O 815.105 0.576647 2.45827 0
M  V30 8844 C 816.418 2.99156 0.304352 0
M  V30 8845 C 817.966 3.10659 0.382119 0
M  V30 8846 C 818.441 4.56866 0.322111 0
M  V30 8847 N 819.932 4.61629 0.38119 0
M  V30 8848 C 820.667 5.72284 0.357501 0
M  V30 8849 N 820.163 6.92207 0.286654 0
M  V30 8850 N 821.956 5.60628 0.406538 0
M  V30 8851 H 814.107 1.9406 -0.86339 0
M  V30 8852 H 816.37 0.889673 -0.327392 0
M  V30 8853 H 816.076 3.45788 -0.642141 0
M  V30 8854 H 815.95 3.60753 1.10168 0
M  V30 8855 H 818.337 2.6398 1.31904 0
M  V30 8856 H 818.418 2.5191 -0.444391 0
M  V30 8857 H 818.062 5.0421 -0.611104 0
M  V30 8858 H 817.992 5.13515 1.1666 0
M  V30 8859 H 820.483 3.75343 0.438838 0
M  V30 8860 H 820.796 7.72316 0.273421 0
M  V30 8861 H 819.141 6.9454 0.252841 0
M  V30 8862 H 822.332 4.65836 0.459812 0
M  V30 8863 H 822.505 6.46858 0.384608 0
M  V30 8864 N 815.911 -0.310526 1.54511 0
M  V30 8865 C 817.322 -0.884142 1.64438 0
M  V30 8866 C 817.673 -1.88425 0.546855 0
M  V30 8867 O 816.798 -2.14049 -0.31811 0
M  V30 8868 C 817.393 -1.6104 2.9808 0
M  V30 8869 C 815.952 -2.13255 3.1016 0
M  V30 8870 C 815.099 -0.96213 2.60074 0
M  V30 8871 H 818.05 -0.0877666 1.58457 0
M  V30 8872 H 818.071 -2.47541 2.8897 0
M  V30 8873 H 817.583 -0.882255 3.77939 0
M  V30 8874 H 815.684 -2.89145 2.35002 0
M  V30 8875 H 815.797 -2.37361 4.16169 0
M  V30 8876 H 814.161 -1.34501 2.16291 0
M  V30 8877 H 814.944 -0.248098 3.42402 0
M  V30 8878 N 817.389 -1.46805 -0.573248 0
M  V30 8879 C 818.352 -1.57655 -1.66366 0
M  V30 8880 C 819.352 -0.452905 -1.5429 0
M  V30 8881 O 820.542 -0.717502 -1.58737 0
M  V30 8882 C 817.674 -1.50584 -3.05839 0
M  V30 8883 H 818.867 -2.54842 -1.581 0
M  V30 8884 H 816.42 -1.34756 -0.791868 0
M  V30 8885 H 817.155 -0.547127 -3.19651 0
M  V30 8886 H 816.94 -2.32118 -3.16012 0
M  V30 8887 H 818.43 -1.61282 -3.85199 0
M  V30 8888 N 818.867 0.818669 -1.34668 0
M  V30 8889 C 820.113 1.57746 -1.27453 0
M  V30 8890 C 820.446 1.93588 0.154077 0
M  V30 8891 O 819.721 1.60371 1.10051 0
M  V30 8892 C 820.004 2.87414 -2.16945 0
M  V30 8893 C 819.857 2.58125 -3.68363 0
M  V30 8894 C 821.176 3.89021 -2.05792 0
M  V30 8895 H 818.295 0.572339 -0.464324 0
M  V30 8896 H 820.937 0.942784 -1.64959 0
M  V30 8897 H 819.087 3.41576 -1.85089 0
M  V30 8898 H 820.759 2.10239 -4.10606 0
M  V30 8899 H 819.002 1.91503 -3.89242 0
M  V30 8900 H 819.673 3.5061 -4.26353 0
M  V30 8901 H 822.149 3.44224 -2.33771 0
M  V30 8902 H 821.025 4.77548 -2.70628 0
M  V30 8903 H 821.286 4.29786 -1.03618 0
M  V30 8904 N 820.346 1.18468 1.03938 0
M  V30 8905 C 821.757 0.984808 1.58614 0
M  V30 8906 C 822.108 -0.465165 1.90606 0
M  V30 8907 O 821.233 -1.34274 1.69704 0
M  V30 8908 C 821.828 1.78135 2.8819 0
M  V30 8909 C 820.387 1.62579 3.39478 0
M  V30 8910 C 819.534 1.77501 2.13046 0
M  V30 8911 H 822.485 1.32993 0.865944 0
M  V30 8912 H 822.506 1.27119 3.58638 0
M  V30 8913 H 822.018 2.83661 2.64874 0
M  V30 8914 H 820.119 0.59595 3.67803 0
M  V30 8915 H 820.232 2.42463 4.13217 0
M  V30 8916 H 818.596 1.2046 2.24414 0
M  V30 8917 H 819.379 2.84464 1.92185 0
M  V30 8918 N 821.824 -1.22873 0.986916 0
M  V30 8919 C 822.754 -2.2688 0.552064 0
M  V30 8920 C 823.735 -1.64883 -0.418048 0
M  V30 8921 O 824.92 -1.9171 -0.30999 0
M  V30 8922 C 822.05 -3.47018 -0.139959 0
M  V30 8923 C 821.004 -4.21411 0.748091 0
M  V30 8924 C 820.33 -5.34645 -0.0765132 0
M  V30 8925 C 821.63 -4.80726 2.04206 0
M  V30 8926 H 823.324 -2.63507 1.42143 0
M  V30 8927 H 820.87 -1.26668 0.68492 0
M  V30 8928 H 822.823 -4.18931 -0.455527 0
M  V30 8929 H 821.547 -3.0947 -1.04382 0
M  V30 8930 H 820.206 -3.51325 1.04721 0
M  V30 8931 H 819.854 -4.93339 -0.981109 0
M  V30 8932 H 819.554 -5.85342 0.514606 0
M  V30 8933 H 821.078 -6.09377 -0.386313 0
M  V30 8934 H 822.492 -5.44612 1.79083 0
M  V30 8935 H 820.889 -5.41737 2.5815 0
M  V30 8936 H 821.959 -4.01109 2.72469 0
M  V30 8937 N 823.302 -0.75937 -1.38099 0
M  V30 8938 C 824.232 -0.151077 -2.33011 0
M  V30 8939 C 825.213 0.697099 -1.5516 0
M  V30 8940 O 826.398 0.637101 -1.83452 0
M  V30 8941 C 823.528 0.738423 -3.39359 0
M  V30 8942 C 822.482 -0.0074741 -4.27999 0
M  V30 8943 C 821.808 1.00066 -5.25253 0
M  V30 8944 C 823.108 -1.17926 -5.08813 0
M  V30 8945 H 824.802 -0.943933 -2.84131 0
M  V30 8946 H 822.348 -0.455362 -1.36611 0
M  V30 8947 H 824.301 1.17369 -4.04725 0
M  V30 8948 H 823.025 1.56366 -2.86735 0
M  V30 8949 H 821.684 -0.423379 -3.64147 0
M  V30 8950 H 821.332 1.82012 -4.68914 0
M  V30 8951 H 821.032 0.506199 -5.85416 0
M  V30 8952 H 822.556 1.43512 -5.93495 0
M  V30 8953 H 823.97 -0.821262 -5.67387 0
M  V30 8954 H 822.367 -1.60497 -5.78239 0
M  V30 8955 H 823.437 -1.98938 -4.42212 0
M  V30 8956 N 824.78 1.49157 -0.508906 0
M  V30 8957 C 826.008 2.06879 0.0293734 0
M  V30 8958 C 826.423 1.36823 1.30095 0
M  V30 8959 O 825.78 0.449034 1.7689 0
M  V30 8960 C 825.831 3.60423 0.278791 0
M  V30 8961 O 825.552 4.27844 -0.942389 0
M  V30 8962 C 827.053 4.34881 0.859825 0
M  V30 8963 H 824.273 0.67057 -0.0240184 0
M  V30 8964 H 826.817 1.91834 -0.708526 0
M  V30 8965 H 824.972 3.75145 0.966689 0
M  V30 8966 H 825.386 5.19671 -0.710097 0
M  V30 8967 H 826.86 5.43161 0.983884 0
M  V30 8968 H 827.337 3.9789 1.85958 0
M  V30 8969 H 827.943 4.24785 0.209152 0
M  V30 8970 N 826.258 0.243083 1.55714 0
M  V30 8971 C 827.19 -0.690766 2.18543 0
M  V30 8972 C 828.203 -1.14163 1.16064 0
M  V30 8973 O 829.392 -1.06906 1.42946 0
M  V30 8974 C 826.492 -1.95016 2.77168 0
M  V30 8975 C 825.665 -1.65137 4.05029 0
M  V30 8976 C 824.724 -2.75998 4.48009 0
M  V30 8977 O 823.75 -2.43547 5.14464 0
M  V30 8978 N 824.952 -4.05414 4.15476 0
M  V30 8979 H 827.717 -0.153203 2.99308 0
M  V30 8980 H 825.278 0.0628968 1.61778 0
M  V30 8981 H 827.27 -2.68414 3.0288 0
M  V30 8982 H 825.84 -2.39762 2.00582 0
M  V30 8983 H 825.06 -0.752768 3.86946 0
M  V30 8984 H 826.348 -1.42633 4.88399 0
M  V30 8985 H 825.746 -4.34613 3.62116 0
M  V30 8986 H 824.303 -4.75288 4.46032 0
M  V30 8987 N 827.736 -1.57571 -0.0300757 0
M  V30 8988 C 829.152 -1.54869 -0.385703 0
M  V30 8989 C 829.352 -0.969068 -1.76667 0
M  V30 8990 O 828.408 -0.589676 -2.45518 0
M  V30 8991 C 829.721 -2.99313 -0.288482 0
M  V30 8992 C 831.269 -3.10857 -0.365638 0
M  V30 8993 C 831.744 -4.5703 -0.297878 0
M  V30 8994 N 833.235 -4.61825 -0.356703 0
M  V30 8995 C 833.97 -5.72466 -0.327146 0
M  V30 8996 N 833.466 -6.92349 -0.249941 0
M  V30 8997 N 835.259 -5.60836 -0.376801 0
M  V30 8998 H 827.41 -1.936 0.87367 0
M  V30 8999 H 829.673 -0.887924 0.332106 0
M  V30 9000 H 829.379 -3.45443 0.66047 0
M  V30 9001 H 829.253 -3.61332 -1.08253 0
M  V30 9002 H 831.64 -2.64676 -1.30502 0
M  V30 9003 H 831.721 -2.51671 0.457744 0
M  V30 9004 H 831.365 -5.03879 0.637835 0
M  V30 9005 H 831.295 -5.14127 -1.13935 0
M  V30 9006 H 833.786 -3.75571 -0.418926 0
M  V30 9007 H 834.099 -7.7245 -0.23246 0
M  V30 9008 H 832.444 -6.94664 -0.216004 0
M  V30 9009 H 835.635 -4.66073 -0.435101 0
M  V30 9010 H 835.808 -6.47052 -0.350298 0
M  V30 9011 N 829.214 0.302327 -1.54673 0
M  V30 9012 C 830.462 1.03565 -1.73547 0
M  V30 9013 C 830.783 1.87843 -0.523448 0
M  V30 9014 O 830.053 1.90367 0.462295 0
M  V30 9015 H 828.633 0.385358 -0.639928 0
M  V30 9016 H 831.295 0.333632 -1.92023 0
M  V30 9017 H 830.391 1.68952 -2.62415 0
M  V30 9018 N 830.692 1.47107 0.565454 0
M  V30 9019 C 831.917 1.57153 1.35343 0
M  V30 9020 C 832.342 0.219247 1.86818 0
M  V30 9021 O 831.7 -0.803539 1.62521 0
M  V30 9022 C 831.748 2.59387 2.50501 0
M  V30 9023 O 830.852 2.14086 3.52478 0
M  V30 9024 H 830.193 0.528209 0.402357 0
M  V30 9025 H 832.723 1.92821 0.684189 0
M  V30 9026 H 832.733 2.79546 2.97184 0
M  V30 9027 H 831.408 3.57579 2.12391 0
M  V30 9028 H 829.985 2.03991 3.12157 0
M  V30 9029 N 832.17 -0.811516 1.35101 0
M  V30 9030 C 833.418 -1.56525 1.27845 0
M  V30 9031 C 833.739 -1.94435 -0.14829 0
M  V30 9032 O 833.009 -1.63203 -1.08359 0
M  V30 9033 H 831.589 -0.580433 0.47022 0
M  V30 9034 H 834.251 -0.968277 1.69146 0
M  V30 9035 H 833.347 -2.48291 1.89097 0
M  V30 9036 N 833.648 -1.19017 -1.03309 0
M  V30 9037 C 834.558 -0.939303 -2.14975 0
M  V30 9038 C 835.574 0.0992359 -1.73717 0
M  V30 9039 O 836.75 -0.0844362 -2.01223 0
M  V30 9040 C 833.815 -0.476712 -3.43407 0
M  V30 9041 C 832.876 -1.58413 -3.99003 0
M  V30 9042 C 832.109 -1.14352 -5.21305 0
M  V30 9043 O 832.332 -0.00534408 -5.704 0
M  V30 9044 O 831.266 -1.94436 -5.6963 0
M  V30 9045 H 835.092 -1.87386 -2.38998 0
M  V30 9046 H 832.677 -0.972635 -1.13403 0
M  V30 9047 H 834.559 -0.22718 -4.20787 0
M  V30 9048 H 833.234 0.429455 -3.20839 0
M  V30 9049 H 832.141 -1.88777 -3.22977 0
M  V30 9050 H 833.474 -2.4667 -4.25928 0
M  V30 9051 N 835.127 1.22348 -0.993418 0
M  V30 9052 C 836.09 2.22522 -0.549251 0
M  V30 9053 C 837.09 1.56529 0.368164 0
M  V30 9054 O 838.28 1.73463 0.16005 0
M  V30 9055 C 835.412 3.40307 0.201037 0
M  V30 9056 H 836.605 2.63332 -1.43515 0
M  V30 9057 H 834.158 1.35407 -0.78068 0
M  V30 9058 H 834.893 3.0497 1.10289 0
M  V30 9059 H 834.678 3.8942 -0.457685 0
M  V30 9060 H 836.168 4.14597 0.499946 0
M  V30 9061 N 836.605 0.766683 1.37694 0
M  V30 9062 C 838.021 0.445739 1.53249 0
M  V30 9063 C 838.221 -1.03935 1.72626 0
M  V30 9064 O 837.277 -1.82525 1.74473 0
M  V30 9065 C 838.59 1.2564 2.73194 0
M  V30 9066 C 840.138 1.24779 2.87053 0
M  V30 9067 C 840.613 2.04169 4.09974 0
M  V30 9068 N 842.104 2.01497 4.17077 0
M  V30 9069 C 842.839 2.5971 5.11212 0
M  V30 9070 N 842.335 3.26691 6.10938 0
M  V30 9071 N 844.128 2.49568 5.03659 0
M  V30 9072 H 836.279 1.72899 1.23368 0
M  V30 9073 H 838.542 0.733701 0.600322 0
M  V30 9074 H 838.248 2.30859 2.65324 0
M  V30 9075 H 838.122 0.882133 3.6674 0
M  V30 9076 H 840.509 0.203603 2.94397 0
M  V30 9077 H 840.59 1.66166 1.9448 0
M  V30 9078 H 840.234 3.08606 4.03392 0
M  V30 9079 H 840.164 1.60167 5.01651 0
M  V30 9080 H 842.655 1.52728 3.45662 0
M  V30 9081 H 842.968 3.68497 6.79286 0
M  V30 9082 H 841.313 3.30789 6.11231 0
M  V30 9083 H 844.504 1.96859 4.24693 0
M  V30 9084 H 844.677 2.95231 5.76839 0
M  V30 9085 N 838.083 -1.48885 0.516809 0
M  V30 9086 C 839.033 -2.26363 -0.272704 0
M  V30 9087 C 840.017 -1.31891 -0.921604 0
M  V30 9088 O 841.209 -1.56514 -0.826589 0
M  V30 9089 C 838.338 -3.16614 -1.32705 0
M  V30 9090 C 837.424 -4.18554 -0.683598 0
M  V30 9091 N 837.815 -5.05308 0.223015 0
M  V30 9092 C 836.113 -4.35931 -0.942351 0
M  V30 9093 C 836.814 -5.7867 0.592918 0
M  V30 9094 N 835.79 -5.43583 -0.042912 0
M  V30 9095 H 839.592 -2.90811 0.424971 0
M  V30 9096 H 837.106 -1.5893 0.333941 0
M  V30 9097 H 839.103 -3.70766 -1.90625 0
M  V30 9098 H 837.763 -2.5372 -2.02624 0
M  V30 9099 H 838.774 -5.14473 0.594818 0
M  V30 9100 H 835.451 -3.84234 -1.6331 0
M  V30 9101 H 836.841 -6.58493 1.33556 0
M  V30 9102 N 839.561 -0.251338 -1.55583 0
M  V30 9103 C 840.511 0.660351 -2.18228 0
M  V30 9104 C 841.495 1.13596 -1.13951 0
M  V30 9105 O 842.687 1.08499 -1.39846 0
M  V30 9106 C 839.816 1.85498 -2.88869 0
M  V30 9107 C 838.902 1.39767 -4.00407 0
M  V30 9108 N 839.293 0.654876 -5.01543 0
M  V30 9109 C 837.591 1.68259 -4.13044 0
M  V30 9110 C 838.292 0.417521 -5.802 0
M  V30 9111 N 837.268 0.983032 -5.34638 0
M  V30 9112 H 841.07 0.0847425 -2.93778 0
M  V30 9113 H 838.584 -0.0538456 -1.62311 0
M  V30 9114 H 840.581 2.51916 -3.3218 0
M  V30 9115 H 839.241 2.43477 -2.14823 0
M  V30 9116 H 840.252 0.304545 -5.17004 0
M  V30 9117 H 836.929 2.27344 -3.50172 0
M  V30 9118 H 838.319 -0.175764 -6.7167 0
M  V30 9119 N 841.039 1.57585 0.0217189 0
M  V30 9120 C 842.286 1.89606 0.711045 0
M  V30 9121 C 842.614 0.849535 1.74966 0
M  V30 9122 O 841.869 -0.14856 1.95135 0
M  V30 9123 C 842.168 3.28377 1.41079 0
M  V30 9124 C 841.834 4.48035 0.507454 0
M  V30 9125 C 840.496 4.80504 0.258672 0
M  V30 9126 C 842.848 5.21071 -0.115793 0
M  V30 9127 C 840.176 5.83393 -0.622013 0
M  V30 9128 C 842.528 6.24897 -0.984224 0
M  V30 9129 C 841.192 6.55836 -1.2424 0
M  V30 9130 H 840.462 0.693817 0.26019 0
M  V30 9131 H 843.109 1.91478 -0.0291424 0
M  V30 9132 H 841.414 3.22528 2.22448 0
M  V30 9133 H 843.111 3.50404 1.94982 0
M  V30 9134 H 839.701 4.22653 0.711516 0
M  V30 9135 H 843.885 4.96259 0.0634327 0
M  V30 9136 H 839.141 6.05736 -0.830267 0
M  V30 9137 H 843.315 6.8063 -1.47363 0
M  V30 9138 H 840.942 7.35383 -1.92653 0
M  V30 9139 N 842.517 -0.29412 1.54831 0
M  V30 9140 C 843.928 -0.866651 1.65366 0
M  V30 9141 C 844.279 -1.87834 0.56681 0
M  V30 9142 O 843.404 -2.14374 -0.295389 0
M  V30 9143 C 843.999 -1.57869 2.99771 0
M  V30 9144 C 842.558 -2.09954 3.12404 0
M  V30 9145 C 841.705 -0.934492 2.6108 0
M  V30 9146 H 844.656 -0.0709551 1.58541 0
M  V30 9147 H 844.677 -2.44462 2.91579 0
M  V30 9148 H 844.189 -0.84212 3.78853 0
M  V30 9149 H 842.29 -2.86637 2.38055 0
M  V30 9150 H 842.403 -2.32934 4.18663 0
M  V30 9151 H 840.767 -1.32199 2.17705 0
M  V30 9152 H 841.55 -0.211768 3.42646 0
M  V30 9153 N 843.995 -1.47404 -0.557645 0
M  V30 9154 C 845.22 -1.57868 -1.34508 0
M  V30 9155 C 845.645 -0.229151 -1.86699 0
M  V30 9156 O 845.003 0.794908 -1.62944 0
M  V30 9157 C 845.051 -2.60712 -2.49122 0
M  V30 9158 O 844.155 -2.15952 -3.51338 0
M  V30 9159 H 843.496 -0.530335 -0.399551 0
M  V30 9160 H 846.026 -1.93181 -0.673954 0
M  V30 9161 H 846.036 -2.81118 -2.95697 0
M  V30 9162 H 844.711 -3.58701 -2.10491 0
M  V30 9163 H 843.288 -2.05644 -3.11071 0
M  V30 9164 N 845.473 0.80434 -1.35529 0
M  V30 9165 C 846.403 1.93086 -1.31301 0
M  V30 9166 C 847.384 1.69068 -0.187044 0
M  V30 9167 O 848.569 1.90399 -0.382359 0
M  V30 9168 C 845.699 3.29867 -1.0865 0
M  V30 9169 C 844.653 3.68373 -2.17911 0
M  V30 9170 C 843.979 5.0334 -1.80423 0
M  V30 9171 C 845.279 3.78516 -3.59893 0
M  V30 9172 H 846.973 1.96882 -2.25561 0
M  V30 9173 H 844.519 0.945841 -1.08581 0
M  V30 9174 H 846.472 4.08281 -1.04331 0
M  V30 9175 H 845.196 3.2642 -0.108359 0
M  V30 9176 H 843.855 2.92247 -2.21331 0
M  V30 9177 H 843.503 4.96399 -0.812213 0
M  V30 9178 H 843.203 5.30074 -2.53565 0
M  V30 9179 H 844.727 5.84191 -1.77633 0
M  V30 9180 H 846.141 4.47155 -3.58783 0
M  V30 9181 H 844.538 4.16721 -4.31814 0
M  V30 9182 H 845.608 2.8001 -3.95882 0
M  V30 9183 N 846.951 1.19563 1.02676 0
M  V30 9184 C 847.901 0.903055 2.09354 0
M  V30 9185 C 848.885 -0.133009 1.60349 0
M  V30 9186 O 850.077 0.0729744 1.7685 0
M  V30 9187 C 847.206 0.445852 3.40392 0
M  V30 9188 C 846.292 1.51477 3.96126 0
M  V30 9189 N 846.683 2.73474 4.25495 0
M  V30 9190 C 844.981 1.37856 4.2416 0
M  V30 9191 C 845.682 3.42348 4.7029 0
M  V30 9192 N 844.658 2.69746 4.71952 0
M  V30 9193 H 848.46 1.83023 2.29956 0
M  V30 9194 H 845.974 1.08812 1.20556 0
M  V30 9195 H 847.971 0.21769 4.16331 0
M  V30 9196 H 846.631 -0.47482 3.2121 0
M  V30 9197 H 847.642 3.10217 4.14711 0
M  V30 9198 H 844.319 0.521512 4.1423 0
M  V30 9199 H 845.709 4.46686 5.01917 0
M  V30 9200 N 848.429 -1.21819 0.999893 0
M  V30 9201 C 849.657 -1.94758 0.698359 0
M  V30 9202 C 850.072 -1.73771 -0.738183 0
M  V30 9203 O 849.429 -1.04113 -1.49889 0
M  V30 9204 C 849.48 -3.47292 1.00353 0
M  V30 9205 O 849.201 -3.67579 2.38363 0
M  V30 9206 C 850.702 -4.37403 0.72068 0
M  V30 9207 H 847.922 -0.619512 0.257771 0
M  V30 9208 H 850.466 -1.54778 1.33656 0
M  V30 9209 H 848.621 -3.85213 0.411018 0
M  V30 9210 H 849.035 -4.61719 2.48829 0
M  V30 9211 H 850.509 -5.43151 0.984422 0
M  V30 9212 H 850.986 -4.3784 -0.345309 0
M  V30 9213 H 851.592 -4.05119 1.29456 0
M  V30 9214 N 849.908 -0.773975 -1.37286 0
M  V30 9215 C 850.855 -0.159938 -2.30245 0
M  V30 9216 C 851.825 0.687356 -1.51211 0
M  V30 9217 O 853.01 0.639255 -1.79773 0
M  V30 9218 C 850.15 0.711452 -3.37687 0
M  V30 9219 C 849.263 -0.152692 -4.3173 0
M  V30 9220 C 848.398 0.723613 -5.26248 0
M  V30 9221 C 847.437 -0.14293 -6.11933 0
M  V30 9222 N 846.574 0.691479 -6.98687 0
M  V30 9223 H 851.414 -0.958182 -2.82175 0
M  V30 9224 H 848.951 -0.48411 -1.38906 0
M  V30 9225 H 850.909 1.2315 -3.9861 0
M  V30 9226 H 849.539 1.47528 -2.87116 0
M  V30 9227 H 848.591 -0.790574 -3.72094 0
M  V30 9228 H 849.903 -0.821027 -4.91997 0
M  V30 9229 H 849.057 1.31006 -5.92387 0
M  V30 9230 H 847.796 1.42562 -4.66398 0
M  V30 9231 H 846.801 -0.7419 -5.44771 0
M  V30 9232 H 848.026 -0.842305 -6.73856 0
M  V30 9233 H 845.972 1.37806 -6.41362 0
M  V30 9234 H 845.889 0.0804911 -7.55957 0
M  V30 9235 H 847.157 1.26225 -7.69212 0
M  V30 9236 N 851.386 1.48609 -0.524698 0
M  V30 9237 C 852.349 2.28041 0.230166 0
M  V30 9238 C 853.349 1.35065 0.872584 0
M  V30 9239 O 854.539 1.58007 0.73345 0
M  V30 9240 C 851.671 3.13778 1.33252 0
M  V30 9241 H 852.864 2.96239 -0.467161 0
M  V30 9242 H 850.417 1.53763 -0.280452 0
M  V30 9243 H 851.152 2.502 2.06327 0
M  V30 9244 H 850.937 3.82165 0.877058 0
M  V30 9245 H 852.427 3.7371 1.86362 0
M  V30 9246 N 852.864 0.259585 1.55447 0
M  V30 9247 C 853.796 -0.667548 2.19263 0
M  V30 9248 C 854.809 -1.12925 1.17268 0
M  V30 9249 O 855.998 -1.05384 1.44071 0
M  V30 9250 C 853.098 -1.92066 2.7922 0
M  V30 9251 C 852.271 -1.60832 4.06758 0
M  V30 9252 C 851.33 -2.71231 4.50911 0
M  V30 9253 O 850.356 -2.38077 5.17019 0
M  V30 9254 N 851.558 -4.00984 4.19752 0
M  V30 9255 H 854.323 -0.121449 2.99454 0
M  V30 9256 H 851.884 0.0800519 1.61702 0
M  V30 9257 H 853.876 -2.65186 3.0571 0
M  V30 9258 H 852.446 -2.37621 2.03113 0
M  V30 9259 H 851.666 -0.711685 3.87722 0
M  V30 9260 H 852.954 -1.37445 4.89884 0
M  V30 9261 H 852.352 -4.30748 3.66706 0
M  V30 9262 H 850.909 -4.7053 4.51048 0
M  V30 9263 N 854.342 -1.57594 -0.0133615 0
M  V30 9264 C 855.272 -2.10611 -1.00823 0
M  V30 9265 C 856.253 -1.01217 -1.36708 0
M  V30 9266 O 857.438 -1.28827 -1.45318 0
M  V30 9267 C 854.568 -2.59844 -2.30431 0
M  V30 9268 C 853.522 -3.73644 -2.08745 0
M  V30 9269 C 852.848 -4.09141 -3.4425 0
M  V30 9270 C 854.148 -5.01454 -1.46086 0
M  V30 9271 H 855.842 -2.93985 -0.566849 0
M  V30 9272 H 853.388 -1.41423 -0.271219 0
M  V30 9273 H 855.341 -2.95557 -3.00373 0
M  V30 9274 H 854.065 -1.73573 -2.76658 0
M  V30 9275 H 852.724 -3.38303 -1.41232 0
M  V30 9276 H 852.372 -3.19914 -3.88155 0
M  V30 9277 H 852.072 -4.85802 -3.3056 0
M  V30 9278 H 853.596 -4.47402 -4.15528 0
M  V30 9279 H 855.01 -5.35024 -2.05966 0
M  V30 9280 H 853.407 -5.82832 -1.42924 0
M  V30 9281 H 854.477 -4.83003 -0.428471 0
M  V30 9282 N 855.82 0.285905 -1.54985 0
M  V30 9283 C 857.231 0.857869 -1.65824 0
M  V30 9284 C 857.582 1.87531 -0.576763 0
M  V30 9285 O 856.707 2.14528 0.284016 0
M  V30 9286 C 857.302 1.56277 -3.00604 0
M  V30 9287 C 855.861 2.08294 -3.13513 0
M  V30 9288 C 855.008 0.920633 -2.61571 0
M  V30 9289 H 857.959 0.0625463 -1.58577 0
M  V30 9290 H 857.98 2.42912 -2.92872 0
M  V30 9291 H 857.492 0.822017 -3.79295 0
M  V30 9292 H 855.593 2.8537 -2.39572 0
M  V30 9293 H 855.706 2.3071 -4.19892 0
M  V30 9294 H 854.07 1.31043 -2.18403 0
M  V30 9295 H 854.853 0.193594 -3.42754 0
M  V30 9296 N 857.298 1.47698 0.54982 0
M  V30 9297 C 858.523 1.58579 1.33669 0
M  V30 9298 C 858.948 0.239049 1.86575 0
M  V30 9299 O 858.306 -0.786256 1.63364 0
M  V30 9300 C 858.354 2.62029 2.47736 0
M  V30 9301 O 857.458 2.17813 3.50188 0
M  V30 9302 H 856.799 0.532447 0.396732 0
M  V30 9303 H 859.329 1.93536 0.6637 0
M  V30 9304 H 859.339 2.82682 2.94202 0
M  V30 9305 H 858.014 3.59812 2.08586 0
M  V30 9306 H 856.591 2.07291 3.09976 0
M  V30 9307 N 858.776 -0.797141 1.35954 0
M  V30 9308 C 860.187 -1.37179 1.26644 0
M  V30 9309 C 860.538 -1.9596 -0.0971046 0
M  V30 9310 O 859.663 -1.91994 -0.998355 0
M  V30 9311 C 860.258 -2.49395 2.2932 0
M  V30 9312 C 858.817 -3.02697 2.23722 0
M  V30 9313 C 857.964 -1.75721 2.14517 0
M  V30 9314 H 860.915 -0.599407 1.46945 0
M  V30 9315 H 860.936 -3.28204 1.92515 0
M  V30 9316 H 860.448 -2.06584 3.2855 0
M  V30 9317 H 858.549 -3.49948 1.27934 0
M  V30 9318 H 858.662 -3.60036 3.16087 0
M  V30 9319 H 857.026 -1.97649 1.60646 0
M  V30 9320 H 857.809 -1.35049 3.15621 0
M  V30 9321 N 860.254 -1.20106 -1.0204 0
M  V30 9322 C 861.204 -0.914145 -2.08872 0
M  V30 9323 C 862.188 0.124503 -1.60418 0
M  V30 9324 O 863.38 -0.0823521 -1.76808 0
M  V30 9325 C 860.509 -0.463897 -3.40151 0
M  V30 9326 C 859.595 -1.53576 -3.95317 0
M  V30 9327 N 859.986 -2.75726 -4.24038 0
M  V30 9328 C 858.284 -1.40103 -4.23423 0
M  V30 9329 C 858.985 -3.44838 -4.68468 0
M  V30 9330 N 857.961 -2.72245 -4.70514 0
M  V30 9331 H 861.763 -1.8424 -2.28982 0
M  V30 9332 H 859.277 -1.0945 -1.19977 0
M  V30 9333 H 861.274 -0.239766 -4.1621 0
M  V30 9334 H 859.934 0.457779 -3.21457 0
M  V30 9335 H 860.945 -3.12412 -4.13061 0
M  V30 9336 H 857.622 -0.543472 -4.13948 0
M  V30 9337 H 859.012 -4.49342 -4.99541 0
M  V30 9338 N 861.732 1.21287 -1.00634 0
M  V30 9339 C 862.978 1.90671 -0.690822 0
M  V30 9340 C 863.311 1.77996 0.776592 0
M  V30 9341 O 862.586 1.15748 1.5631 0
M  V30 9342 C 862.869 3.42426 -1.11428 0
M  V30 9343 C 862.722 3.64086 -2.64124 0
M  V30 9344 C 864.041 4.34851 -0.677686 0
M  V30 9345 H 861.16 0.692419 -0.252439 0
M  V30 9346 H 863.802 1.42893 -1.25226 0
M  V30 9347 H 861.952 3.83249 -0.636586 0
M  V30 9348 H 863.624 3.32582 -3.19667 0
M  V30 9349 H 861.867 3.07906 -3.05576 0
M  V30 9350 H 862.538 4.7042 -2.88806 0
M  V30 9351 H 865.014 4.01619 -1.0882 0
M  V30 9352 H 863.89 5.39675 -1.00213 0
M  V30 9353 H 864.151 4.4009 0.421125 0
M  V30 9354 N 863.21 0.781244 1.36873 0
M  V30 9355 C 864.14 0.188128 2.32741 0
M  V30 9356 C 865.121 -0.672326 1.56249 0
M  V30 9357 O 866.306 -0.607835 1.84442 0
M  V30 9358 C 863.436 -0.684341 3.40491 0
M  V30 9359 C 862.39 0.0755641 4.27933 0
M  V30 9360 C 861.716 -0.916968 5.26779 0
M  V30 9361 C 863.016 1.26006 5.06873 0
M  V30 9362 H 864.71 0.989016 2.82593 0
M  V30 9363 H 862.256 0.477038 1.35869 0
M  V30 9364 H 864.209 -1.10915 4.06541 0
M  V30 9365 H 862.933 -1.51785 2.89187 0
M  V30 9366 H 861.592 0.481258 3.63427 0
M  V30 9367 H 861.24 -1.74528 4.71751 0
M  V30 9368 H 860.94 -0.413 5.86147 0
M  V30 9369 H 862.464 -1.34052 5.95703 0
M  V30 9370 H 863.878 0.911425 5.66009 0
M  V30 9371 H 862.275 1.69676 5.75613 0
M  V30 9372 H 863.345 2.05948 4.38991 0
M  V30 9373 N 864.689 -1.48329 0.532571 0
M  V30 9374 C 866.105 -1.58458 0.190605 0
M  V30 9375 C 866.305 -1.53427 -1.30623 0
M  V30 9376 O 865.361 -1.4247 -2.08467 0
M  V30 9377 C 866.674 -2.89989 0.79543 0
M  V30 9378 C 868.222 -3.03523 0.7644 0
M  V30 9379 C 868.697 -4.37718 1.34785 0
M  V30 9380 N 870.188 -4.44292 1.30993 0
M  V30 9381 C 870.923 -5.4664 1.73124 0
M  V30 9382 N 870.419 -6.5593 2.22997 0
M  V30 9383 N 872.212 -5.37538 1.64346 0
M  V30 9384 H 864.363 -1.49842 1.50537 0
M  V30 9385 H 866.626 -0.71164 0.626316 0
M  V30 9386 H 866.332 -2.99333 1.84642 0
M  V30 9387 H 866.206 -3.76203 0.27403 0
M  V30 9388 H 868.593 -2.93789 -0.277831 0
M  V30 9389 H 868.674 -2.18912 1.3233 0
M  V30 9390 H 868.318 -4.48206 2.38902 0
M  V30 9391 H 868.248 -5.21019 0.764609 0
M  V30 9392 H 870.739 -3.65897 0.944868 0
M  V30 9393 H 871.052 -7.30167 2.53133 0
M  V30 9394 H 869.397 -6.56886 2.26992 0
M  V30 9395 H 872.588 -4.51052 1.25178 0
M  V30 9396 H 872.761 -6.17169 1.97501 0
M  V30 9397 N 866.167 -0.267825 -1.55308 0
M  V30 9398 C 867.117 0.637168 -2.18916 0
M  V30 9399 C 868.101 1.12381 -1.15149 0
M  V30 9400 O 869.293 1.0701 -1.40989 0
M  V30 9401 C 866.422 1.82423 -2.90821 0
M  V30 9402 C 865.508 1.35512 -4.01867 0
M  V30 9403 N 865.899 0.601644 -5.02209 0
M  V30 9404 C 864.197 1.63868 -4.14805 0
M  V30 9405 C 864.898 0.35596 -5.8061 0
M  V30 9406 N 863.874 0.926271 -5.3565 0
M  V30 9407 H 867.676 0.0535787 -2.93851 0
M  V30 9408 H 865.19 -0.0710577 -1.62244 0
M  V30 9409 H 867.187 2.48379 -3.34834 0
M  V30 9410 H 865.847 2.41185 -2.17394 0
M  V30 9411 H 866.858 0.249693 -5.17298 0
M  V30 9412 H 863.535 2.23618 -3.52564 0
M  V30 9413 H 864.925 -0.246994 -6.71446 0
M  V30 9414 N 867.645 1.57599 0.00500368 0
M  V30 9415 C 868.577 2.04949 1.02609 0
M  V30 9416 C 869.59 0.966507 1.31006 0
M  V30 9417 O 870.779 1.2434 1.2807 0
M  V30 9418 C 867.879 2.43023 2.36206 0
M  V30 9419 C 867.052 3.73993 2.26821 0
M  V30 9420 C 866.111 3.9899 3.43065 0
M  V30 9421 O 865.137 4.69725 3.21477 0
M  V30 9422 N 866.339 3.46496 4.65748 0
M  V30 9423 H 869.104 2.93167 0.622336 0
M  V30 9424 H 866.665 1.60752 0.192488 0
M  V30 9425 H 868.657 2.56863 3.12735 0
M  V30 9426 H 867.227 1.60349 2.68341 0
M  V30 9427 H 866.447 3.70277 1.35235 0
M  V30 9428 H 867.735 4.59865 2.17719 0
M  V30 9429 H 867.133 2.89206 4.86186 0
M  V30 9430 H 865.69 3.65675 5.3956 0
M  V30 9431 N 869.123 -0.277682 1.55134 0
M  V30 9432 C 870.371 -1.00791 1.75173 0
M  V30 9433 C 870.692 -1.86987 0.553266 0
M  V30 9434 O 869.962 -1.91079 -0.43195 0
M  V30 9435 H 868.542 -0.375129 0.645978 0
M  V30 9436 H 871.204 -0.303041 1.9253 0
M  V30 9437 H 870.3 -1.64756 2.6507 0
M  V30 9438 N 870.601 -1.47988 -0.541979 0
M  V30 9439 C 871.533 -1.5769 -1.66332 0
M  V30 9440 C 872.546 -0.461994 -1.56107 0
M  V30 9441 O 873.735 -0.732306 -1.62787 0
M  V30 9442 C 870.835 -1.47939 -3.04905 0
M  V30 9443 C 870.008 -2.74263 -3.40733 0
M  V30 9444 C 869.067 -2.58133 -4.58534 0
M  V30 9445 O 868.093 -3.31991 -4.62354 0
M  V30 9446 N 869.295 -1.6696 -5.55972 0
M  V30 9447 H 872.06 -2.54389 -1.5845 0
M  V30 9448 H 869.621 -1.4456 -0.728979 0
M  V30 9449 H 871.613 -1.34861 -3.81569 0
M  V30 9450 H 870.183 -0.592626 -3.06931 0
M  V30 9451 H 869.403 -3.01992 -2.53366 0
M  V30 9452 H 870.691 -3.58094 -3.6145 0
M  V30 9453 H 870.089 -1.06134 -5.55655 0
M  V30 9454 H 868.646 -1.59826 -6.31901 0
M  V30 9455 N 872.079 0.78992 -1.36375 0
M  V30 9456 C 873.325 1.55007 -1.3077 0
M  V30 9457 C 873.658 1.93871 0.112979 0
M  V30 9458 O 872.933 1.6267 1.06625 0
M  V30 9459 C 873.216 2.82748 -2.22993 0
M  V30 9460 C 873.069 2.50253 -3.73756 0
M  V30 9461 C 874.388 3.84569 -2.13998 0
M  V30 9462 H 871.507 0.562362 -0.476359 0
M  V30 9463 H 874.149 0.907582 -1.66922 0
M  V30 9464 H 872.299 3.37573 -1.92292 0
M  V30 9465 H 873.971 2.01482 -4.14973 0
M  V30 9466 H 872.214 1.83203 -3.93216 0
M  V30 9467 H 872.885 3.41487 -4.33694 0
M  V30 9468 H 875.361 3.39188 -2.4102 0
M  V30 9469 H 874.237 4.717 -2.80697 0
M  V30 9470 H 874.498 4.27491 -1.12711 0
M  V30 9471 N 873.557 1.20646 1.01402 0
M  V30 9472 C 874.487 0.98155 2.11867 0
M  V30 9473 C 875.468 -0.0903712 1.6986 0
M  V30 9474 O 876.653 0.0676586 1.94082 0
M  V30 9475 C 873.783 0.535636 3.43145 0
M  V30 9476 C 872.737 1.55109 3.98905 0
M  V30 9477 C 872.063 0.961725 5.2598 0
M  V30 9478 C 873.363 2.93552 4.32001 0
M  V30 9479 H 875.057 1.90544 2.3094 0
M  V30 9480 H 872.603 0.917554 1.10982 0
M  V30 9481 H 874.556 0.365512 4.19812 0
M  V30 9482 H 873.28 -0.423882 3.23838 0
M  V30 9483 H 871.939 1.70862 3.24348 0
M  V30 9484 H 871.587 -0.00580108 5.03 0
M  V30 9485 H 871.287 1.63993 5.64252 0
M  V30 9486 H 872.811 0.802726 6.053 0
M  V30 9487 H 874.225 2.81295 4.99546 0
M  V30 9488 H 872.622 3.58303 4.81393 0
M  V30 9489 H 873.692 3.4508 3.40658 0
M  V30 9490 N 875.035 -1.20752 1.01276 0
M  V30 9491 C 876.451 -1.42084 0.726934 0
M  V30 9492 C 876.651 -1.89138 -0.694907 0
M  V30 9493 O 875.707 -2.05783 -1.4632 0
M  V30 9494 C 877.02 -2.44575 1.74938 0
M  V30 9495 C 878.568 -2.58347 1.76708 0
M  V30 9496 C 879.043 -3.64078 2.77869 0
M  V30 9497 N 880.534 -3.71558 2.76585 0
M  V30 9498 C 881.269 -4.53016 3.51517 0
M  V30 9499 N 880.765 -5.38309 4.36114 0
M  V30 9500 N 882.558 -4.47512 3.40132 0
M  V30 9501 H 874.709 -0.885228 1.93074 0
M  V30 9502 H 876.972 -0.451075 0.833808 0
M  V30 9503 H 876.678 -2.1699 2.76782 0
M  V30 9504 H 876.552 -3.43503 1.55838 0
M  V30 9505 H 878.939 -2.85265 0.755516 0
M  V30 9506 H 879.02 -1.59628 1.99882 0
M  V30 9507 H 878.664 -3.37905 3.79187 0
M  V30 9508 H 878.594 -4.62412 2.51958 0
M  V30 9509 H 881.085 -3.10629 2.15216 0
M  V30 9510 H 881.398 -5.9754 4.90068 0
M  V30 9511 H 879.743 -5.37824 4.40194 0
M  V30 9512 H 882.934 -3.79912 2.73467 0
M  V30 9513 H 883.107 -5.10759 3.98784 0
M  V30 9514 N 876.513 -0.788492 -1.36457 0
M  V30 9515 C 877.929 -0.470063 -1.52521 0
M  V30 9516 C 878.129 1.01176 -1.74258 0
M  V30 9517 O 877.185 1.79726 -1.77355 0
M  V30 9518 C 878.498 -1.2997 -2.71161 0
M  V30 9519 C 880.046 -1.2933 -2.85031 0
M  V30 9520 C 880.521 -2.10665 -4.06674 0
M  V30 9521 N 882.012 -2.08107 -4.13819 0
M  V30 9522 C 882.747 -2.6781 -5.07016 0
M  V30 9523 N 882.243 -3.36369 -6.05663 0
M  V30 9524 N 884.036 -2.57549 -4.99625 0
M  V30 9525 H 876.187 -1.7484 -1.20602 0
M  V30 9526 H 878.45 -0.743159 -0.588574 0
M  V30 9527 H 878.156 -2.35051 -2.61618 0
M  V30 9528 H 878.03 -0.940367 -3.6529 0
M  V30 9529 H 880.417 -0.250414 -2.94036 0
M  V30 9530 H 880.498 -1.69239 -1.91812 0
M  V30 9531 H 880.142 -3.14984 -3.98431 0
M  V30 9532 H 880.072 -1.68128 -4.9904 0
M  V30 9533 H 882.563 -1.58208 -3.43189 0
M  V30 9534 H 882.876 -3.79258 -6.73338 0
M  V30 9535 H 881.221 -3.40471 -6.05891 0
M  V30 9536 H 884.412 -2.0359 -4.21508 0
M  V30 9537 H 884.585 -3.0437 -5.72069 0
M  V30 9538 N 877.991 1.48044 -0.54043 0
M  V30 9539 C 878.923 2.2779 0.253854 0
M  V30 9540 C 879.936 1.35999 0.894883 0
M  V30 9541 O 881.125 1.60963 0.771563 0
M  V30 9542 C 878.225 3.09724 1.37566 0
M  V30 9543 C 877.398 4.29364 0.83459 0
M  V30 9544 C 876.457 4.93026 1.83881 0
M  V30 9545 O 875.483 5.51927 1.39159 0
M  V30 9546 N 876.685 4.86207 3.17149 0
M  V30 9547 H 879.45 2.96597 -0.430125 0
M  V30 9548 H 877.011 1.57487 -0.375423 0
M  V30 9549 H 879.003 3.49181 2.04584 0
M  V30 9550 H 877.573 2.43269 1.96314 0
M  V30 9551 H 876.793 3.94198 -0.0118878 0
M  V30 9552 H 878.081 5.06787 0.452155 0
M  V30 9553 H 877.479 4.39523 3.56141 0
M  V30 9554 H 876.036 5.29733 3.79771 0
M  V30 9555 N 879.47 0.276058 1.55163 0
M  V30 9556 C 880.42 -0.625549 2.19251 0
M  V30 9557 C 881.404 -1.11769 1.15744 0
M  V30 9558 O 882.596 -1.0626 1.41555 0
M  V30 9559 C 879.725 -1.80879 2.91784 0
M  V30 9560 C 878.811 -1.33379 4.0258 0
M  V30 9561 N 879.202 -0.575002 5.02521 0
M  V30 9562 C 877.5 -1.61666 4.15668 0
M  V30 9563 C 878.201 -0.325164 5.8079 0
M  V30 9564 N 877.177 -0.897851 5.36134 0
M  V30 9565 H 880.979 -0.0379943 2.93875 0
M  V30 9566 H 878.493 0.079661 1.62205 0
M  V30 9567 H 880.49 -2.466 3.36146 0
M  V30 9568 H 879.15 -2.40028 2.1867 0
M  V30 9569 H 880.161 -0.222256 5.17423 0
M  V30 9570 H 876.838 -2.21745 3.53745 0
M  V30 9571 H 878.228 0.282598 6.71305 0
M  V30 9572 N 880.948 -1.576 0.00335426 0
M  V30 9573 C 882.173 -1.95398 -0.695311 0
M  V30 9574 C 882.598 -0.878476 -1.66326 0
M  V30 9575 O 881.956 0.163086 -1.80565 0
M  V30 9576 C 882.004 -3.32293 -1.40049 0
M  V30 9577 O 881.108 -3.26834 -2.51502 0
M  V30 9578 H 880.449 -0.637796 -0.184694 0
M  V30 9579 H 882.979 -2.04519 0.057543 0
M  V30 9580 H 882.989 -3.67936 -1.76316 0
M  V30 9581 H 881.664 -4.10123 -0.690803 0
M  V30 9582 H 880.241 -3.02872 -2.17539 0
M  V30 9583 N 882.426 0.269451 -1.5528 0
M  V30 9584 C 883.373 1.33316 -1.88403 0
M  V30 9585 C 884.343 1.48909 -0.735881 0
M  V30 9586 O 885.528 1.63259 -0.987479 0
M  V30 9587 C 882.668 2.68778 -2.16454 0
M  V30 9588 C 881.781 2.61377 -3.43956 0
M  V30 9589 C 880.916 3.89042 -3.6169 0
M  V30 9590 C 879.955 3.76166 -4.82872 0
M  V30 9591 N 879.092 4.95673 -4.97245 0
M  V30 9592 H 883.932 1.04368 -2.79126 0
M  V30 9593 H 881.469 0.504147 -1.38191 0
M  V30 9594 H 883.427 3.47599 -2.30719 0
M  V30 9595 H 882.057 2.9592 -1.28961 0
M  V30 9596 H 881.109 1.74247 -3.38145 0
M  V30 9597 H 882.421 2.47764 -4.32914 0
M  V30 9598 H 881.575 4.76304 -3.75791 0
M  V30 9599 H 880.314 4.05526 -2.70924 0
M  V30 9600 H 879.319 2.87287 -4.68771 0
M  V30 9601 H 880.544 3.61198 -5.75077 0
M  V30 9602 H 878.49 5.12561 -4.09411 0
M  V30 9603 H 878.407 4.84605 -5.80254 0
M  V30 9604 H 879.675 5.84498 -5.15735 0
M  V30 9605 N 883.904 1.48273 0.534124 0
M  V30 9606 C 884.834 1.6538 1.64839 0
M  V30 9607 C 885.815 0.502741 1.62501 0
M  V30 9608 O 887 0.734799 1.79762 0
M  V30 9609 C 884.13 1.68949 3.03436 0
M  V30 9610 C 883.084 2.83513 3.20631 0
M  V30 9611 C 882.41 2.72169 4.60248 0
M  V30 9612 C 883.71 4.24858 3.03797 0
M  V30 9613 H 885.404 2.58663 1.50777 0
M  V30 9614 H 882.95 1.24479 0.723937 0
M  V30 9615 H 884.903 1.79505 3.81256 0
M  V30 9616 H 883.627 0.722415 3.1851 0
M  V30 9617 H 882.286 2.72505 2.45227 0
M  V30 9618 H 881.934 1.7344 4.72152 0
M  V30 9619 H 881.634 3.49042 4.72698 0
M  V30 9620 H 883.158 2.84687 5.40172 0
M  V30 9621 H 884.572 4.36721 3.71413 0
M  V30 9622 H 882.969 5.02697 3.27743 0
M  V30 9623 H 884.039 4.41611 2.0027 0
M  V30 9624 N 885.382 -0.782676 1.36792 0
M  V30 9625 C 886.628 -1.54311 1.3159 0
M  V30 9626 C 886.961 -1.93928 -0.102696 0
M  V30 9627 O 886.236 -1.63233 -1.05761 0
M  V30 9628 C 886.519 -2.81561 2.24489 0
M  V30 9629 C 886.372 -2.48268 3.75078 0
M  V30 9630 C 887.691 -3.83428 2.16034 0
M  V30 9631 H 884.81 -0.559828 0.479335 0
M  V30 9632 H 887.452 -0.898717 1.67401 0
M  V30 9633 H 885.602 -3.36549 1.9408 0
M  V30 9634 H 887.274 -1.99279 4.16036 0
M  V30 9635 H 885.517 -1.81116 3.94182 0
M  V30 9636 H 886.188 -3.39183 4.35499 0
M  V30 9637 H 888.664 -3.37905 2.42815 0
M  V30 9638 H 887.54 -4.70204 2.83194 0
M  V30 9639 H 887.801 -4.26887 1.14976 0
M  V30 9640 N 886.86 -1.21182 -1.00761 0
M  V30 9641 C 888.108 -1.02543 -1.74153 0
M  V30 9642 C 888.429 0.442372 -1.89916 0
M  V30 9643 O 887.699 1.31927 -1.44818 0
M  V30 9644 H 886.279 -0.37644 -0.645214 0
M  V30 9645 H 888.941 -1.52446 -1.21434 0
M  V30 9646 H 888.037 -1.49122 -2.7417 0
M  V30 9647 N 888.338 1.20213 -1.01915 0
M  V30 9648 C 889.566 1.93622 -0.729255 0
M  V30 9649 C 889.981 1.74923 0.710444 0
M  V30 9650 O 889.338 1.06484 1.48214 0
M  V30 9651 C 889.389 3.45651 -1.05865 0
M  V30 9652 O 889.11 3.63741 -2.44181 0
M  V30 9653 C 890.611 4.36201 -0.790176 0
M  V30 9654 H 887.831 0.615333 -0.267594 0
M  V30 9655 H 890.375 1.52633 -1.36101 0
M  V30 9656 H 888.53 3.84511 -0.47225 0
M  V30 9657 H 888.944 4.57702 -2.56143 0
M  V30 9658 H 890.418 5.41516 -1.07071 0
M  V30 9659 H 890.895 4.38334 0.275609 0
M  V30 9660 H 891.501 4.03008 -1.35885 0
M  V30 9661 N 889.816 0.795718 1.36037 0
M  V30 9662 C 890.763 0.196548 2.29962 0
M  V30 9663 C 891.733 -0.663213 1.52285 0
M  V30 9664 O 892.918 -0.610574 1.80767 0
M  V30 9665 C 890.058 -0.657639 3.38776 0
M  V30 9666 C 889.171 0.221358 4.31433 0
M  V30 9667 C 888.306 -0.6398 5.27333 0
M  V30 9668 C 887.345 0.240265 6.11628 0
M  V30 9669 N 886.482 -0.580237 6.99698 0
M  V30 9670 H 891.322 1.00295 2.80615 0
M  V30 9671 H 888.859 0.506147 1.38118 0
M  V30 9672 H 890.817 -1.16793 4.00519 0
M  V30 9673 H 889.447 -1.42941 2.89426 0
M  V30 9674 H 888.499 0.84967 3.70789 0
M  V30 9675 H 889.811 0.899195 4.90628 0
M  V30 9676 H 888.965 -1.21566 5.94396 0
M  V30 9677 H 887.704 -1.35124 4.68607 0
M  V30 9678 H 886.709 0.828474 5.43522 0
M  V30 9679 H 887.934 0.949403 6.72431 0
M  V30 9680 H 885.88 -1.27585 6.43473 0
M  V30 9681 H 885.797 0.0397853 7.5599 0
M  V30 9682 H 887.065 -1.13972 7.71123 0
M  V30 9683 N 891.294 -1.47756 0.548274 0
M  V30 9684 C 892.257 -2.28379 -0.193857 0
M  V30 9685 C 893.257 -1.36436 -0.850986 0
M  V30 9686 O 894.447 -1.59154 -0.70822 0
M  V30 9687 C 891.579 -3.15858 -1.28243 0
M  V30 9688 H 892.772 -2.95458 0.514231 0
M  V30 9689 H 890.325 -1.53298 0.304879 0
M  V30 9690 H 891.06 -2.5345 -2.0232 0
M  V30 9691 H 890.845 -3.83512 -0.816148 0
M  V30 9692 H 892.335 -3.76627 -1.80393 0
M  V30 9693 N 892.772 -0.284283 -1.55015 0
M  V30 9694 C 893.702 0.592663 -2.25853 0
M  V30 9695 C 894.683 1.15151 -1.25197 0
M  V30 9696 O 895.868 1.18395 -1.53936 0
M  V30 9697 C 892.998 1.77254 -2.98661 0
M  V30 9698 C 891.952 1.34482 -4.06323 0
M  V30 9699 C 891.278 2.60853 -4.66754 0
M  V30 9700 C 892.578 0.488288 -5.20013 0
M  V30 9701 H 894.272 0.00187041 -2.994 0
M  V30 9702 H 891.818 -0.000540402 -1.44 0
M  V30 9703 H 893.771 2.39199 -3.46932 0
M  V30 9704 H 892.495 2.38931 -2.22664 0
M  V30 9705 H 891.154 0.748519 -3.58877 0
M  V30 9706 H 890.802 3.20808 -3.87416 0
M  V30 9707 H 890.502 2.32942 -5.39455 0
M  V30 9708 H 892.026 3.23631 -5.1778 0
M  V30 9709 H 893.44 1.01298 -5.6428 0
M  V30 9710 H 891.837 0.303669 -5.99331 0
M  V30 9711 H 892.907 -0.490727 -4.8241 0
M  V30 9712 N 894.251 1.57596 -0.0117121 0
M  V30 9713 C 895.476 1.95764 0.684938 0
M  V30 9714 C 895.901 0.887285 1.65858 0
M  V30 9715 O 895.259 -0.153508 1.80649 0
M  V30 9716 C 895.307 3.33031 1.38285 0
M  V30 9717 O 894.411 3.28163 2.49765 0
M  V30 9718 H 893.752 0.638767 0.181309 0
M  V30 9719 H 896.282 2.04486 -0.0683883 0
M  V30 9720 H 896.292 3.68866 1.74362 0
M  V30 9721 H 894.967 4.10483 0.669043 0
M  V30 9722 H 893.544 3.04021 2.15929 0
M  V30 9723 N 895.729 -0.261212 1.5542 0
M  V30 9724 C 896.957 -1.00916 1.8062 0
M  V30 9725 C 897.372 -1.79494 0.585444 0
M  V30 9726 O 896.729 -1.76974 -0.445702 0
M  V30 9727 C 896.78 -1.95841 3.03856 0
M  V30 9728 O 896.501 -1.20445 4.21218 0
M  V30 9729 C 898.002 -2.82352 3.41749 0
M  V30 9730 H 895.222 -0.297596 0.601397 0
M  V30 9731 H 897.766 -0.288427 2.02456 0
M  V30 9732 H 895.921 -2.63361 2.84112 0
M  V30 9733 H 896.335 -1.84528 4.90968 0
M  V30 9734 H 897.809 -3.44733 4.31118 0
M  V30 9735 H 898.286 -3.5273 2.61683 0
M  V30 9736 H 898.892 -2.20306 3.63793 0
M  V30 9737 N 897.207 -1.48554 -0.526253 0
M  V30 9738 C 898.435 -1.60429 -1.30652 0
M  V30 9739 C 898.85 -0.265963 -1.86917 0
M  V30 9740 O 898.207 0.745262 -1.6659 0
M  V30 9741 C 898.258 -2.65377 -2.45473 0
M  V30 9742 O 897.979 -3.94017 -1.91527 0
M  V30 9743 C 899.48 -2.87726 -3.37237 0
M  V30 9744 H 896.7 -0.540817 -0.397187 0
M  V30 9745 H 899.244 -1.94409 -0.634461 0
M  V30 9746 H 897.399 -2.34246 -3.08557 0
M  V30 9747 H 897.813 -4.51623 -2.66715 0
M  V30 9748 H 899.287 -3.64951 -4.14144 0
M  V30 9749 H 899.764 -1.96688 -3.92696 0
M  V30 9750 H 900.37 -3.20176 -2.79942 0
M  V30 9751 N 898.685 0.775411 -1.37205 0
M  V30 9752 C 899.933 1.53081 -1.3195 0
M  V30 9753 C 900.254 1.9476 0.0966864 0
M  V30 9754 O 899.524 1.66019 1.03993 0
M  V30 9755 H 898.104 0.567762 -0.485444 0
M  V30 9756 H 900.766 0.92309 -1.71654 0
M  V30 9757 H 899.862 2.4319 -1.95614 0
M  V30 9758 N 900.163 1.21714 1.00117 0
M  V30 9759 C 901.11 0.979837 2.08968 0
M  V30 9760 C 902.08 -0.0955324 1.65825 0
M  V30 9761 O 903.265 0.0523742 1.90728 0
M  V30 9762 C 900.405 0.554758 3.40612 0
M  V30 9763 C 899.518 1.69999 3.97145 0
M  V30 9764 C 898.653 1.2237 5.16913 0
M  V30 9765 C 897.692 2.34101 5.65564 0
M  V30 9766 N 896.829 1.87579 6.76579 0
M  V30 9767 H 901.669 1.91167 2.28602 0
M  V30 9768 H 899.206 0.952645 1.12085 0
M  V30 9769 H 901.164 0.289526 4.16194 0
M  V30 9770 H 899.794 -0.340073 3.21004 0
M  V30 9771 H 898.846 2.07976 3.18512 0
M  V30 9772 H 900.158 2.54074 4.29241 0
M  V30 9773 H 899.312 0.915358 5.99755 0
M  V30 9774 H 898.051 0.353045 4.8642 0
M  V30 9775 H 897.056 2.65734 4.81316 0
M  V30 9776 H 898.281 3.21669 5.98085 0
M  V30 9777 H 896.227 1.02863 6.47885 0
M  V30 9778 H 896.144 2.65225 7.07949 0
M  V30 9779 H 897.412 1.5979 7.62947 0
M  V30 9780 N 901.641 -1.19671 1.02551 0
M  V30 9781 C 902.604 -2.20987 0.608055 0
M  V30 9782 C 903.604 -1.5745 -0.326534 0
M  V30 9783 O 904.794 -1.73827 -0.114003 0
M  V30 9784 C 901.926 -3.4072 -0.11074 0
M  V30 9785 H 903.119 -2.59434 1.50446 0
M  V30 9786 H 900.672 -1.3329 0.816307 0
M  V30 9787 H 901.407 -3.07787 -1.02165 0
M  V30 9788 H 901.192 -3.88069 0.560772 0
M  V30 9789 H 902.682 -4.15776 -0.389848 0
M  V30 9790 N 903.119 -0.802921 -1.35613 0
M  V30 9791 C 904.049 -0.225131 -2.32412 0
M  V30 9792 C 905.03 0.647383 -1.57299 0
M  V30 9793 O 906.215 0.578414 -1.85386 0
M  V30 9794 C 903.345 0.630085 -3.41537 0
M  V30 9795 C 902.299 -0.143635 -4.27759 0
M  V30 9796 C 901.625 0.833046 -5.28171 0
M  V30 9797 C 902.925 -1.34054 -5.04804 0
M  V30 9798 H 904.619 -1.03385 -2.80984 0
M  V30 9799 H 902.165 -0.498593 -1.35093 0
M  V30 9800 H 904.118 1.04433 -4.08254 0
M  V30 9801 H 902.842 1.47165 -2.91565 0
M  V30 9802 H 901.501 -0.539015 -3.62616 0
M  V30 9803 H 901.149 1.67001 -4.74468 0
M  V30 9804 H 900.849 0.319697 -5.8673 0
M  V30 9805 H 902.373 1.24558 -5.97761 0
M  V30 9806 H 903.787 -1.00136 -5.64487 0
M  V30 9807 H 902.184 -1.78812 -5.72841 0
M  V30 9808 H 903.254 -2.12906 -4.35659 0
M  V30 9809 N 904.597 1.47463 -0.556102 0
M  V30 9810 C 906.013 1.58134 -0.21579 0
M  V30 9811 C 906.213 1.55486 1.28166 0
M  V30 9812 O 905.269 1.45768 2.06174 0
M  V30 9813 C 906.582 2.88686 -0.841464 0
M  V30 9814 C 908.13 3.02268 -0.812591 0
M  V30 9815 C 908.605 4.35518 -1.41731 0
M  V30 9816 N 910.096 4.42151 -1.38045 0
M  V30 9817 C 910.831 5.43817 -1.81799 0
M  V30 9818 N 910.327 6.52299 -2.33404 0
M  V30 9819 N 912.12 5.34855 -1.72877 0
M  V30 9820 H 904.271 1.47428 -1.52901 0
M  V30 9821 H 906.534 0.701586 -0.637559 0
M  V30 9822 H 906.24 2.96358 -1.8938 0
M  V30 9823 H 906.114 3.7572 -0.333846 0
M  V30 9824 H 908.501 2.94194 0.231056 0
M  V30 9825 H 908.582 2.16779 -1.35796 0
M  V30 9826 H 908.226 4.44348 -2.46002 0
M  V30 9827 H 908.156 5.19737 -0.847402 0
M  V30 9828 H 910.647 3.64348 -1.00296 0
M  V30 9829 H 910.96 7.26047 -2.64717 0
M  V30 9830 H 909.305 6.53192 -2.37414 0
M  V30 9831 H 912.496 4.49004 -1.32338 0
M  V30 9832 H 912.669 6.13949 -2.07294 0
M  V30 9833 N 906.075 0.2925 1.54862 0
M  V30 9834 C 907.303 -0.322113 2.04377 0
M  V30 9835 C 907.718 -1.48164 1.17016 0
M  V30 9836 O 907.075 -1.81466 0.19395 0
M  V30 9837 C 907.126 -0.786506 3.5284 0
M  V30 9838 O 906.847 0.326863 4.36879 0
M  V30 9839 C 908.348 -1.46715 4.18318 0
M  V30 9840 H 905.568 -0.0712074 0.667211 0
M  V30 9841 H 908.112 0.429657 1.99935 0
M  V30 9842 H 906.267 -1.48832 3.5767 0
M  V30 9843 H 906.681 -0.0331558 5.2449 0
M  V30 9844 H 908.155 -1.74333 5.23748 0
M  V30 9845 H 908.632 -2.40443 3.67538 0
M  V30 9846 H 909.238 -0.808735 4.1754 0
M  V30 9847 N 907.553 -1.57587 0.0200696 0
M  V30 9848 C 908.483 -2.12702 -0.963333 0
M  V30 9849 C 909.464 -1.04094 -1.34531 0
M  V30 9850 O 910.649 -1.31881 -1.42552 0
M  V30 9851 C 907.779 -2.64673 -2.24868 0
M  V30 9852 C 906.733 -3.77987 -2.00772 0
M  V30 9853 C 906.059 -4.16351 -3.35494 0
M  V30 9854 C 907.359 -5.0444 -1.35416 0
M  V30 9855 H 909.053 -2.95121 -0.504363 0
M  V30 9856 H 906.599 -1.41966 -0.24116 0
M  V30 9857 H 908.552 -3.01862 -2.94036 0
M  V30 9858 H 907.276 -1.79403 -2.72914 0
M  V30 9859 H 905.935 -3.41223 -1.34025 0
M  V30 9860 H 905.583 -3.28075 -3.81282 0
M  V30 9861 H 905.283 -4.92705 -3.20181 0
M  V30 9862 H 906.807 -4.56115 -4.05945 0
M  V30 9863 H 908.221 -5.39273 -1.94571 0
M  V30 9864 H 906.618 -5.85732 -1.30529 0
M  V30 9865 H 907.688 -4.83803 -0.325923 0
M  V30 9866 N 909.032 0.252966 -1.55557 0
M  V30 9867 C 910.443 0.822503 -1.67606 0
M  V30 9868 C 910.794 1.86265 -0.616411 0
M  V30 9869 O 909.919 2.15082 0.238447 0
M  V30 9870 C 910.514 1.49866 -3.03852 0
M  V30 9871 C 909.073 2.01597 -3.17861 0
M  V30 9872 C 908.22 0.864943 -2.63465 0
M  V30 9873 H 911.171 0.0288958 -1.58674 0
M  V30 9874 H 911.192 2.36646 -2.97958 0
M  V30 9875 H 910.704 0.741378 -3.80953 0
M  V30 9876 H 908.805 2.80224 -2.45571 0
M  V30 9877 H 908.918 2.21752 -4.24692 0
M  V30 9878 H 907.282 1.2638 -2.21134 0
M  V30 9879 H 908.065 0.120847 -3.43087 0
M  V30 9880 N 910.51 1.48831 0.518367 0
M  V30 9881 C 911.738 1.6112 1.298 0
M  V30 9882 C 912.153 0.275872 1.86774 0
M  V30 9883 O 911.51 -0.736416 1.66983 0
M  V30 9884 C 911.561 2.66675 2.44063 0
M  V30 9885 O 911.282 3.95027 1.89434 0
M  V30 9886 C 912.783 2.8951 3.35706 0
M  V30 9887 H 910.003 0.542916 0.394314 0
M  V30 9888 H 912.547 1.94743 0.624142 0
M  V30 9889 H 910.702 2.35879 3.07311 0
M  V30 9890 H 911.116 4.53031 2.64316 0
M  V30 9891 H 912.59 3.67142 4.12202 0
M  V30 9892 H 913.067 1.98768 3.91648 0
M  V30 9893 H 913.673 3.21656 2.7824 0
M  V30 9894 N 911.988 -0.768124 1.37614 0
M  V30 9895 C 912.951 -1.86314 1.3349 0
M  V30 9896 C 913.951 -1.59025 0.23823 0
M  V30 9897 O 915.141 -1.6704 0.494288 0
M  V30 9898 C 912.273 -3.23519 1.07462 0
M  V30 9899 H 913.466 -1.91382 2.30896 0
M  V30 9900 H 911.019 -0.968267 1.22696 0
M  V30 9901 H 911.754 -3.24127 0.106028 0
M  V30 9902 H 911.539 -3.44719 1.86846 0
M  V30 9903 H 913.029 -4.03597 1.07236 0
M  V30 9904 N 913.466 -1.22244 -0.994698 0
M  V30 9905 C 914.413 -0.990906 -2.08446 0
M  V30 9906 C 915.383 0.086737 -1.65873 0
M  V30 9907 O 916.568 -0.0624882 -1.90698 0
M  V30 9908 C 913.708 -0.572813 -3.40313 0
M  V30 9909 C 912.821 -1.72103 -3.96238 0
M  V30 9910 C 911.956 -1.2511 -5.16257 0
M  V30 9911 C 910.995 -2.37098 -5.64315 0
M  V30 9912 N 910.132 -1.91164 -6.75574 0
M  V30 9913 H 914.972 -1.92377 -2.27585 0
M  V30 9914 H 912.509 -0.958576 -1.11578 0
M  V30 9915 H 914.467 -0.311594 -4.16035 0
M  V30 9916 H 913.097 0.323044 -3.21179 0
M  V30 9917 H 912.149 -2.09662 -3.17405 0
M  V30 9918 H 913.461 -2.56347 -4.27888 0
M  V30 9919 H 912.615 -0.947152 -5.99261 0
M  V30 9920 H 911.354 -0.378836 -4.86226 0
M  V30 9921 H 910.359 -2.68283 -4.799 0
M  V30 9922 H 911.584 -3.24837 -5.96371 0
M  V30 9923 H 909.53 -1.06298 -6.47331 0
M  V30 9924 H 909.447 -2.68975 -7.06533 0
M  V30 9925 H 910.715 -1.63833 -7.62088 0
M  V30 9926 N 914.944 1.19125 -1.03184 0
M  V30 9927 C 916.19 1.89163 -0.731111 0
M  V30 9928 C 916.523 1.79604 0.738662 0
M  V30 9929 O 915.798 1.19037 1.53819 0
M  V30 9930 C 916.081 3.39986 -1.18666 0
M  V30 9931 C 915.934 3.58401 -2.71788 0
M  V30 9932 C 917.253 4.33316 -0.769772 0
M  V30 9933 H 914.372 0.686908 -0.267069 0
M  V30 9934 H 917.014 1.40205 -1.28229 0
M  V30 9935 H 915.164 3.81813 -0.717736 0
M  V30 9936 H 916.836 3.25727 -3.26649 0
M  V30 9937 H 915.079 3.01355 -3.12038 0
M  V30 9938 H 915.75 4.64189 -2.98719 0
M  V30 9939 H 918.226 3.9922 -1.17314 0
M  V30 9940 H 917.102 5.37427 -1.11637 0
M  V30 9941 H 917.363 4.40884 0.327681 0
M  V30 9942 N 916.422 0.810101 1.35185 0
M  V30 9943 C 917.669 0.392117 1.98667 0
M  V30 9944 C 917.997 -1.0416 1.64259 0
M  V30 9945 O 917.252 -1.73795 0.899647 0
M  V30 9946 C 917.551 0.526561 3.535 0
M  V30 9947 C 917.217 1.92411 4.07785 0
M  V30 9948 C 915.879 2.30644 4.22323 0
M  V30 9949 C 918.231 2.83827 4.37141 0
M  V30 9950 C 915.559 3.59655 4.63536 0
M  V30 9951 C 917.911 4.12287 4.79794 0
M  V30 9952 C 916.575 4.50515 4.92536 0
M  V30 9953 H 915.845 0.143486 0.726975 0
M  V30 9954 H 918.492 1.03157 1.61341 0
M  V30 9955 H 916.797 -0.19633 3.91308 0
M  V30 9956 H 918.494 0.183871 4.00578 0
M  V30 9957 H 915.084 1.61707 3.96924 0
M  V30 9958 H 919.268 2.55536 4.25459 0
M  V30 9959 H 914.524 3.89117 4.71591 0
M  V30 9960 H 918.698 4.83221 5.01468 0
M  V30 9961 H 916.325 5.50535 5.24229 0
M  V30 9962 N 917.9 -1.47166 0.563914 0
M  V30 9963 C 919.149 -2.0166 0.0401871 0
M  V30 9964 C 919.462 -1.44303 -1.32046 0
M  V30 9965 O 920.668 -1.905 -1.93448 0
M  V30 9966 C 919.124 -3.59894 0.0213257 0
M  V30 9967 C 918.732 -4.26244 1.37914 0
M  V30 9968 C 920.476 -4.22114 -0.449442 0
M  V30 9969 C 918.383 -5.76503 1.31902 0
M  V30 9970 H 917.313 -0.753916 0.0112534 0
M  V30 9971 H 919.964 -1.69091 0.712766 0
M  V30 9972 H 918.346 -3.89454 -0.717038 0
M  V30 9973 H 919.52 -4.08317 2.13574 0
M  V30 9974 H 917.835 -3.76039 1.78839 0
M  V30 9975 H 920.432 -5.32234 -0.51292 0
M  V30 9976 H 920.775 -3.89749 -1.46291 0
M  V30 9977 H 921.308 -3.9711 0.23427 0
M  V30 9978 H 918.047 -6.13498 2.3087 0
M  V30 9979 H 917.567 -5.96748 0.604324 0
M  V30 9980 H 919.246 -6.38846 1.02392 0
M  V30 9981 N 919.378 -0.300708 -1.54705 0
M  V30 9982 C 920.603 0.314073 -2.05008 0
M  V30 9983 C 921.028 1.46759 -1.17657 0
M  V30 9984 O 920.386 1.80398 -0.180598 0
M  V30 9985 C 920.434 0.748243 -3.52752 0
M  V30 9986 O 919.538 1.85305 -3.68424 0
M  V30 9987 H 918.879 0.0610139 -0.661191 0
M  V30 9988 H 921.409 -0.442467 -1.99758 0
M  V30 9989 H 921.419 1.03713 -3.94598 0
M  V30 9990 H 920.094 -0.095573 -4.1579 0
M  V30 9991 H 918.671 1.56473 -3.38483 0
M  V30 9992 N 920.856 1.57574 -0.0284266 0
M  V30 9993 C 921.786 2.1321 0.952039 0
M  V30 9994 C 922.767 1.04806 1.33977 0
M  V30 9995 O 923.952 1.32635 1.41851 0
M  V30 9996 C 921.082 2.65862 2.23461 0
M  V30 9997 C 920.036 3.79047 1.98765 0
M  V30 9998 C 919.362 4.18124 3.33281 0
M  V30 9999 C 920.662 5.05151 1.32739 0
M  V30 10000 H 922.356 2.95385 0.488705 0
M  V30 10001 H 919.902 1.42092 0.233628 0
M  V30 10002 H 921.855 3.03417 2.92431 0
M  V30 10003 H 920.579 1.80848 2.71959 0
M  V30 10004 H 919.238 3.41929 1.32213 0
M  V30 10005 H 918.886 3.30092 3.79537 0
M  V30 10006 H 918.586 4.94396 3.17563 0
M  V30 10007 H 920.11 4.58262 4.0352 0
M  V30 10008 H 921.524 5.40297 1.91708 0
M  V30 10009 H 919.921 5.86416 1.27421 0
M  V30 10010 H 920.991 4.83969 0.300261 0
M  V30 10011 N 922.334 -0.244713 1.55689 0
M  V30 10012 C 923.745 -0.813603 1.6804 0
M  V30 10013 C 924.096 -1.85936 0.626281 0
M  V30 10014 O 923.221 -2.15206 -0.227038 0
M  V30 10015 C 923.816 -1.48252 3.04642 0
M  V30 10016 C 922.375 -1.99908 3.18926 0
M  V30 10017 C 921.522 -0.850958 2.6392 0
M  V30 10018 H 924.473 -0.0204805 1.58687 0
M  V30 10019 H 924.494 -2.35062 2.99209 0
M  V30 10020 H 924.006 -0.721164 3.81341 0
M  V30 10021 H 922.107 -2.78918 2.47054 0
M  V30 10022 H 922.22 -2.19497 4.25862 0
M  V30 10023 H 920.584 -1.25206 2.21801 0
M  V30 10024 H 921.367 -0.10265 3.43146 0
M  V30 10025 N 923.813 -1.49104 -0.510467 0
M  V30 10026 C 925.224 -1.51423 -1.09215 0
M  V30 10027 C 925.575 -0.295035 -1.93969 0
M  V30 10028 O 924.7 0.596064 -2.08029 0
M  V30 10029 C 925.295 -2.74387 -1.98739 0
M  V30 10030 C 923.854 -2.79515 -2.52088 0
M  V30 10031 C 923.001 -2.4521 -1.29488 0
M  V30 10032 H 925.952 -1.55938 -0.294807 0
M  V30 10033 H 925.973 -2.54012 -2.83298 0
M  V30 10034 H 925.485 -3.63105 -1.37026 0
M  V30 10035 H 923.586 -1.95054 -3.17466 0
M  V30 10036 H 923.699 -3.81447 -2.89887 0
M  V30 10037 H 922.063 -1.96785 -1.61703 0
M  V30 10038 H 922.846 -3.36192 -0.694978 0
M  V30 10039 N 925.291 0.760815 -1.38019 0
M  V30 10040 C 926.239 1.89578 -1.34771 0
M  V30 10041 C 927.233 1.67766 -0.234714 0
M  V30 10042 O 928.439 1.75423 -0.403352 0
M  V30 10043 H 924.814 0.623608 -0.420258 0
M  V30 10044 H 926.785 1.89434 -2.30558 0
M  V30 10045 C 925.534 3.26976 -1.18246 0
M  V30 10046 H 924.857 3.44342 -2.03147 0
M  V30 10047 H 926.297 4.06657 -1.20026 0
M  V30 10048 C 924.756 3.36717 0.111145 0
M  V30 10049 O 925.286 3.86607 1.09079 0
M  V30 10050 N 923.492 2.90128 0.165542 0
M  V30 10051 H 923.039 2.49719 -0.632328 0
M  V30 10052 H 922.997 2.97026 1.03067 0
M  V30 10053 N 926.769 1.22769 0.988202 0
M  V30 10054 C 927.699 1.02627 2.09738 0
M  V30 10055 C 928.68 -0.0543211 1.70013 0
M  V30 10056 O 929.865 0.108811 1.93895 0
M  V30 10057 C 926.995 0.608302 3.41931 0
M  V30 10058 C 925.949 1.63536 3.95525 0
M  V30 10059 C 925.275 1.07308 5.23822 0
M  V30 10060 C 926.575 3.02649 4.25677 0
M  V30 10061 H 928.269 1.954 2.26847 0
M  V30 10062 H 925.815 0.940888 1.09011 0
M  V30 10063 H 927.768 0.454478 4.18942 0
M  V30 10064 H 926.492 -0.355095 3.24664 0
M  V30 10065 H 925.151 1.77704 3.20651 0
M  V30 10066 H 924.799 0.100894 5.02899 0
M  V30 10067 H 924.499 1.75925 5.60646 0
M  V30 10068 H 926.023 0.930938 6.03462 0
M  V30 10069 H 927.437 2.91828 4.93467 0
M  V30 10070 H 925.834 3.68434 4.73684 0
M  V30 10071 H 926.904 3.52228 3.33262 0
M  V30 10072 N 928.247 -1.18576 1.03814 0
M  V30 10073 C 929.524 -1.8433 0.654358 0
M  V30 10074 C 929.904 -1.92504 -0.866338 0
M  V30 10075 O 929.252 -1.44904 -1.76678 0
M  V30 10076 C 929.462 -3.22778 1.32723 0
M  V30 10077 C 930.81 -3.98841 1.45641 0
M  V30 10078 O 931.834 -3.32209 1.28514 0
M  V30 10079 O 930.693 -5.18219 1.73526 0
M  V30 10080 H 927.787 -0.794766 0.228638 0
M  V30 10081 H 930.333 -1.25989 1.13687 0
M  V30 10082 H 929.105 -3.11717 2.36534 0
M  V30 10083 H 928.728 -3.88772 0.833176 0
M  V30 10084 N 929.725 -0.817259 -1.34754 0
M  V30 10085 C 930.972 -0.402648 -1.98457 0
M  V30 10086 C 931.3 1.03287 -1.64809 0
M  V30 10087 O 930.555 1.73316 -0.908851 0
M  V30 10088 C 930.854 -0.5453 -3.53216 0
M  V30 10089 C 930.52 -1.9457 -4.06759 0
M  V30 10090 C 929.182 -2.32881 -4.21094 0
M  V30 10091 C 931.534 -2.86141 -4.35629 0
M  V30 10092 C 928.862 -3.62108 -4.61622 0
M  V30 10093 C 931.214 -4.14826 -4.776 0
M  V30 10094 C 929.878 -4.53121 -4.9014 0
M  V30 10095 H 929.148 -0.147339 -0.726204 0
M  V30 10096 H 931.795 -1.04011 -1.60791 0
M  V30 10097 H 930.1 0.175576 -3.91406 0
M  V30 10098 H 931.797 -0.205112 -4.00475 0
M  V30 10099 H 928.387 -1.6381 -3.96061 0
M  V30 10100 H 932.571 -2.57788 -4.24098 0
M  V30 10101 H 927.827 -3.91613 -4.69521 0
M  V30 10102 H 932.001 -4.85874 -4.98899 0
M  V30 10103 H 929.628 -5.53307 -5.21302 0
M  V30 10104 N 931.203 1.46865 -0.571711 0
M  V30 10105 C 932.15 2.30189 0.167808 0
M  V30 10106 C 933.12 1.3995 0.89461 0
M  V30 10107 O 934.305 1.68905 0.887451 0
M  V30 10108 C 931.445 3.24205 1.1826 0
M  V30 10109 C 930.558 4.2954 0.460376 0
M  V30 10110 C 929.693 5.10693 1.46173 0
M  V30 10111 C 928.732 6.07788 0.725291 0
M  V30 10112 N 927.869 6.81847 1.67417 0
M  V30 10113 H 932.709 2.92902 -0.548831 0
M  V30 10114 H 930.246 1.44362 -0.282474 0
M  V30 10115 H 932.204 3.77147 1.7837 0
M  V30 10116 H 930.834 2.63324 1.86709 0
M  V30 10117 H 929.886 3.79541 -0.255546 0
M  V30 10118 H 931.198 4.98665 -0.115855 0
M  V30 10119 H 930.352 5.67857 2.13595 0
M  V30 10120 H 929.091 4.41502 2.07188 0
M  V30 10121 H 928.096 5.49787 0.037228 0
M  V30 10122 H 929.321 6.78993 0.120678 0
M  V30 10123 H 927.267 6.15376 2.27263 0
M  V30 10124 H 927.184 7.47195 1.15046 0
M  V30 10125 H 928.452 7.43577 2.33908 0
M  V30 10126 N 932.681 0.308908 1.54543 0
M  V30 10127 C 933.927 -0.298478 2.00592 0
M  V30 10128 C 934.26 -1.52929 1.19692 0
M  V30 10129 O 933.535 -1.9254 0.27542 0
M  V30 10130 C 933.818 -0.647218 3.54236 0
M  V30 10131 C 933.671 0.593284 4.4587 0
M  V30 10132 C 934.99 -1.47064 4.14801 0
M  V30 10133 H 932.109 -0.107012 0.72919 0
M  V30 10134 H 934.751 0.422578 1.85241 0
M  V30 10135 H 932.901 -1.26153 3.67447 0
M  V30 10136 H 934.573 1.2317 4.44552 0
M  V30 10137 H 932.816 1.22501 4.16144 0
M  V30 10138 H 933.487 0.305018 5.51157 0
M  V30 10139 H 935.963 -0.951511 4.05075 0
M  V30 10140 H 934.839 -1.68343 5.22448 0
M  V30 10141 H 935.1 -2.4623 3.67183 0
M  V30 10142 N 934.159 -1.57557 0.0367827 0
M  V30 10143 C 935.122 -2.09591 -0.927589 0
M  V30 10144 C 936.122 -1.01252 -1.24919 0
M  V30 10145 O 937.312 -1.27382 -1.18825 0
M  V30 10146 C 934.444 -2.56816 -2.24184 0
M  V30 10147 H 935.637 -2.96086 -0.476784 0
M  V30 10148 H 933.19 -1.54864 -0.211385 0
M  V30 10149 H 933.925 -1.73673 -2.73876 0
M  V30 10150 H 933.71 -3.35973 -2.0215 0
M  V30 10151 H 935.2 -2.97271 -2.93291 0
M  V30 10152 N 935.637 0.236453 -1.55816 0
M  V30 10153 C 937.048 0.80468 -1.68469 0
M  V30 10154 C 937.399 1.85601 -0.636133 0
M  V30 10155 O 936.524 2.15323 0.215622 0
M  V30 10156 C 937.119 1.46634 -3.05424 0
M  V30 10157 C 935.678 1.98214 -3.19981 0
M  V30 10158 C 934.825 0.83695 -2.64368 0
M  V30 10159 H 937.776 0.0120647 -1.58695 0
M  V30 10160 H 937.797 2.33472 -3.00451 0
M  V30 10161 H 937.309 0.700931 -3.81718 0
M  V30 10162 H 935.41 2.77604 -2.4853 0
M  V30 10163 H 935.523 2.17235 -4.2702 0
M  V30 10164 H 933.887 1.24028 -2.22462 0
M  V30 10165 H 934.67 0.084451 -3.43196 0
M  V30 10166 N 937.115 1.49373 0.502552 0
M  V30 10167 C 938.34 1.62752 1.28556 0
M  V30 10168 C 938.765 0.298285 1.8572 0
M  V30 10169 O 938.123 -0.733885 1.65782 0
M  V30 10170 C 938.171 2.69778 2.39274 0
M  V30 10171 O 937.275 2.28843 3.43081 0
M  V30 10172 H 936.616 0.544799 0.379592 0
M  V30 10173 H 939.146 1.9555 0.601792 0
M  V30 10174 H 939.156 2.91899 2.8506 0
M  V30 10175 H 937.831 3.66266 1.97033 0
M  V30 10176 H 936.408 2.17047 3.03224 0
M  V30 10177 N 938.594 -0.753485 1.38421 0
M  V30 10178 C 939.843 -1.50797 1.33952 0
M  V30 10179 C 940.156 -1.95482 -0.0678464 0
M  V30 10180 O 941.362 -2.7048 -0.235078 0
M  V30 10181 C 939.818 -2.72393 2.35224 0
M  V30 10182 C 939.426 -2.34733 3.81582 0
M  V30 10183 C 941.17 -3.50281 2.39798 0
M  V30 10184 C 939.077 -3.52939 4.7454 0
M  V30 10185 H 938.007 -0.566211 0.497916 0
M  V30 10186 H 940.658 -0.823659 1.63976 0
M  V30 10187 H 939.04 -3.42806 1.98243 0
M  V30 10188 H 940.214 -1.71985 4.27502 0
M  V30 10189 H 938.529 -1.69978 3.80127 0
M  V30 10190 H 941.126 -4.38172 3.06447 0
M  V30 10191 H 941.469 -3.91444 1.41695 0
M  V30 10192 H 942.002 -2.86881 2.75579 0
M  V30 10193 H 938.741 -3.16843 5.73839 0
M  V30 10194 H 938.261 -4.1473 4.33312 0
M  V30 10195 H 939.94 -4.19519 4.92557 0
M  V30 10196 N 940.072 -1.23292 -0.981677 0
M  V30 10197 C 941.002 -1.03738 -2.09191 0
M  V30 10198 C 941.983 0.0453041 -1.7004 0
M  V30 10199 O 943.168 -0.119092 -1.93834 0
M  V30 10200 C 940.298 -0.626426 -3.41604 0
M  V30 10201 C 939.252 -1.65631 -3.94652 0
M  V30 10202 C 938.578 -1.10084 -5.23245 0
M  V30 10203 C 939.878 -3.04903 -4.24066 0
M  V30 10204 H 941.572 -1.966 -2.25807 0
M  V30 10205 H 939.118 -0.946656 -1.0851 0
M  V30 10206 H 941.071 -0.476689 -4.18695 0
M  V30 10207 H 939.795 0.337873 -3.24848 0
M  V30 10208 H 938.454 -1.79402 -3.19704 0
M  V30 10209 H 938.102 -0.127562 -5.02838 0
M  V30 10210 H 937.802 -1.78896 -5.59705 0
M  V30 10211 H 939.326 -0.962928 -6.02959 0
M  V30 10212 H 940.74 -2.94441 -4.91912 0
M  V30 10213 H 939.137 -3.70941 -4.71724 0
M  V30 10214 H 940.207 -3.53991 -3.31389 0
M  V30 10215 N 941.55 1.18024 -1.04442 0
M  V30 10216 C 942.497 2.21785 -0.638759 0
M  V30 10217 C 943.467 1.62255 0.355312 0
M  V30 10218 O 944.652 1.89176 0.24844 0
M  V30 10219 C 941.792 3.45098 -0.0118002 0
M  V30 10220 C 940.905 4.1895 -1.05379 0
M  V30 10221 C 940.04 5.2973 -0.394951 0
M  V30 10222 C 939.079 5.95359 -1.42178 0
M  V30 10223 N 938.216 6.97668 -0.787635 0
M  V30 10224 H 943.056 2.55839 -1.52808 0
M  V30 10225 H 940.593 1.25681 -0.764378 0
M  V30 10226 H 942.551 4.15564 0.369075 0
M  V30 10227 H 941.181 3.11652 0.84102 0
M  V30 10228 H 940.233 3.47274 -1.55258 0
M  V30 10229 H 941.545 4.63877 -1.83355 0
M  V30 10230 H 940.699 6.06687 0.0399244 0
M  V30 10231 H 939.438 4.85915 0.416867 0
M  V30 10232 H 938.443 5.17139 -1.86675 0
M  V30 10233 H 939.668 6.41255 -2.23536 0
M  V30 10234 H 937.614 6.56 0.00380893 0
M  V30 10235 H 937.531 7.40867 -1.50505 0
M  V30 10236 H 938.799 7.78586 -0.377282 0
M  V30 10237 N 943.028 0.824394 1.34319 0
M  V30 10238 C 944.439 0.471802 1.8064 0
M  V30 10239 C 944.79 -1.00793 1.6833 0
M  V30 10240 O 943.915 -1.78447 1.22416 0
M  V30 10241 C 944.51 0.849609 3.27974 0
M  V30 10242 C 943.069 0.549365 3.72369 0
M  V30 10243 C 942.216 1.06573 2.56003 0
M  V30 10244 H 945.167 1.01443 1.22045 0
M  V30 10245 H 945.188 0.153968 3.80188 0
M  V30 10246 H 944.7 1.92663 3.36902 0
M  V30 10247 H 942.801 -0.518182 3.68979 0
M  V30 10248 H 942.914 1.09446 4.66432 0
M  V30 10249 H 941.278 0.487214 2.49997 0
M  V30 10250 H 942.061 2.14923 2.677 0
M  V30 10251 N 944.506 -1.46559 0.579492 0
M  V30 10252 C 945.922 -1.57771 0.240921 0
M  V30 10253 C 946.122 -1.57505 -1.25676 0
M  V30 10254 O 945.178 -1.4903 -2.03829 0
M  V30 10255 C 946.491 -2.87311 0.887285 0
M  V30 10256 C 948.039 -3.00937 0.860576 0
M  V30 10257 C 948.514 -4.33208 1.48642 0
M  V30 10258 N 950.005 -4.39899 1.45062 0
M  V30 10259 C 950.74 -5.40856 1.90428 0
M  V30 10260 N 950.236 -6.48503 2.43752 0
M  V30 10261 N 952.029 -5.32037 1.81364 0
M  V30 10262 H 944.18 -1.44976 1.55228 0
M  V30 10263 H 946.443 -0.691354 0.648639 0
M  V30 10264 H 946.149 -2.93307 1.94071 0
M  V30 10265 H 946.023 -3.75141 0.393577 0
M  V30 10266 H 948.41 -2.94524 -0.184223 0
M  V30 10267 H 948.491 -2.14591 1.39227 0
M  V30 10268 H 948.135 -4.40378 2.5304 0
M  V30 10269 H 948.065 -5.18323 0.92998 0
M  V30 10270 H 950.556 -3.62706 1.0608 0
M  V30 10271 H 950.869 -7.21744 2.76234 0
M  V30 10272 H 949.214 -6.49332 2.47776 0
M  V30 10273 H 952.405 -4.46841 1.39465 0
M  V30 10274 H 952.578 -6.10573 2.17035 0
M  V30 10275 N 945.984 -0.3171 -1.54377 0
M  V30 10276 C 946.931 0.551782 -2.24107 0
M  V30 10277 C 947.901 1.11681 -1.22949 0
M  V30 10278 O 949.086 1.15836 -1.51614 0
M  V30 10279 C 946.226 1.70997 -2.99756 0
M  V30 10280 C 945.339 1.17479 -4.15719 0
M  V30 10281 C 944.474 2.29815 -4.78914 0
M  V30 10282 C 943.513 1.73513 -5.86992 0
M  V30 10283 N 942.65 2.79485 -6.44075 0
M  V30 10284 H 947.49 -0.049431 -2.97959 0
M  V30 10285 H 945.027 -0.0361658 -1.47056 0
M  V30 10286 H 946.985 2.39141 -3.41859 0
M  V30 10287 H 945.615 2.28257 -2.28251 0
M  V30 10288 H 944.667 0.385109 -3.78446 0
M  V30 10289 H 945.979 0.72276 -4.93536 0
M  V30 10290 H 945.133 3.05875 -5.23952 0
M  V30 10291 H 943.872 2.78352 -4.00464 0
M  V30 10292 H 942.877 0.959475 -5.41363 0
M  V30 10293 H 944.102 1.2586 -6.67335 0
M  V30 10294 H 942.048 3.27325 -5.68502 0
M  V30 10295 H 941.965 2.38825 -7.17286 0
M  V30 10296 H 943.233 3.55394 -6.93769 0
M  V30 10297 N 947.462 1.57535 -0.0451378 0
M  V30 10298 C 948.425 2.1008 0.916461 0
M  V30 10299 C 949.425 1.01913 1.2438 0
M  V30 10300 O 950.615 1.2801 1.18148 0
M  V30 10301 C 947.747 2.58001 2.22818 0
M  V30 10302 H 948.94 2.96334 0.461076 0
M  V30 10303 H 946.493 1.54974 0.203169 0
M  V30 10304 H 947.228 1.75123 2.72951 0
M  V30 10305 H 947.013 3.3704 2.00366 0
M  V30 10306 H 948.503 2.98822 2.9171 0
M  V30 10307 N 948.94 -0.228186 1.55939 0
M  V30 10308 C 950.351 -0.795734 1.68893 0
M  V30 10309 C 950.702 -1.85261 0.645967 0
M  V30 10310 O 949.827 -2.15434 -0.2042 0
M  V30 10311 C 950.422 -1.45013 3.06197 0
M  V30 10312 C 948.981 -1.96514 3.21028 0
M  V30 10313 C 948.128 -0.822918 2.64808 0
M  V30 10314 H 951.079 -0.0036485 1.587 0
M  V30 10315 H 951.1 -2.31875 3.01685 0
M  V30 10316 H 950.612 -0.680678 3.82084 0
M  V30 10317 H 948.713 -2.76282 2.49998 0
M  V30 10318 H 948.826 -2.14967 4.28166 0
M  V30 10319 H 947.19 -1.22846 2.23116 0
M  V30 10320 H 947.973 -0.0662493 3.43236 0
M  V30 10321 N 950.418 -1.49637 -0.494624 0
M  V30 10322 C 951.381 -1.66252 -1.57775 0
M  V30 10323 C 952.381 -0.534054 -1.51672 0
M  V30 10324 O 953.571 -0.800637 -1.54711 0
M  V30 10325 C 950.703 -1.66584 -2.97426 0
M  V30 10326 H 951.896 -2.62864 -1.4437 0
M  V30 10327 H 949.449 -1.38764 -0.719323 0
M  V30 10328 H 950.184 -0.715798 -3.16302 0
M  V30 10329 H 949.969 -2.48543 -3.03264 0
M  V30 10330 H 951.459 -1.81474 -3.76108 0
M  V30 10331 N 951.896 0.746133 -1.38819 0
M  V30 10332 C 952.826 1.87344 -1.39372 0
M  V30 10333 C 953.807 1.68123 -0.258583 0
M  V30 10334 O 954.992 1.88606 -0.462769 0
M  V30 10335 C 952.122 3.24962 -1.22543 0
M  V30 10336 C 951.076 3.58799 -2.33339 0
M  V30 10337 C 950.402 4.95235 -2.01609 0
M  V30 10338 C 951.702 3.62911 -3.75624 0
M  V30 10339 H 953.396 1.87138 -2.33709 0
M  V30 10340 H 950.942 0.898937 -1.12495 0
M  V30 10341 H 952.895 4.03488 -1.21554 0
M  V30 10342 H 951.619 3.25667 -0.246707 0
M  V30 10343 H 950.278 2.82596 -2.33527 0
M  V30 10344 H 949.926 4.92508 -1.02202 0
M  V30 10345 H 949.626 5.18843 -2.75819 0
M  V30 10346 H 951.15 5.76131 -2.02251 0
M  V30 10347 H 952.564 4.31535 -3.77426 0
M  V30 10348 H 950.961 3.98031 -4.491 0
M  V30 10349 H 952.031 2.62967 -4.07402 0
M  V30 10350 N 953.375 1.23811 0.975125 0
M  V30 10351 C 954.305 1.04846 2.08638 0
M  V30 10352 C 955.286 -0.0362859 1.70061 0
M  V30 10353 O 956.471 0.12937 1.93769 0
M  V30 10354 C 953.601 0.644534 3.41267 0
M  V30 10355 C 952.555 1.67722 3.93768 0
M  V30 10356 C 951.881 1.12857 5.22654 0
M  V30 10357 C 953.181 3.07147 4.22443 0
M  V30 10358 H 954.875 1.97795 2.24761 0
M  V30 10359 H 952.421 0.952397 1.08006 0
M  V30 10360 H 954.374 0.498887 4.18436 0
M  V30 10361 H 953.098 -0.320641 3.25022 0
M  V30 10362 H 951.757 1.81095 3.18748 0
M  V30 10363 H 951.405 0.154227 5.02764 0
M  V30 10364 H 951.105 1.81862 5.58749 0
M  V30 10365 H 952.629 0.994891 6.0244 0
M  V30 10366 H 954.043 2.97045 4.90344 0
M  V30 10367 H 952.44 3.73437 4.6975 0
M  V30 10368 H 953.51 3.55743 3.29507 0
M  V30 10369 N 954.853 -1.17469 1.05066 0
M  V30 10370 C 956.093 -1.89382 0.769012 0
M  V30 10371 C 956.457 -1.79126 -0.691217 0
M  V30 10372 O 957.658 -2.45845 -1.08692 0
M  V30 10373 C 955.929 -3.35397 1.23465 0
M  V30 10374 S 957.488 -4.25297 1.08018 0
M  V30 10375 H 954.306 -0.653839 0.279312 0
M  V30 10376 H 956.908 -1.41877 1.34503 0
M  V30 10377 H 955.612 -3.40395 2.29258 0
M  V30 10378 H 955.143 -3.87945 0.652853 0
M  V30 10379 H 957.158 -4.962 0.00358573 0
M  V30 10380 N 956.331 -0.831506 -1.3388 0
M  V30 10381 C 957.261 -0.274378 -2.31882 0
M  V30 10382 C 958.242 0.613872 -1.58637 0
M  V30 10383 O 959.427 0.538961 -1.86571 0
M  V30 10384 C 956.557 0.557498 -3.42796 0
M  V30 10385 C 955.511 -0.234337 -4.27358 0
M  V30 10386 C 954.837 0.720825 -5.29819 0
M  V30 10387 C 956.137 -1.44732 -5.01847 0
M  V30 10388 H 957.831 -1.09322 -2.78728 0
M  V30 10389 H 955.377 -0.527136 -1.34005 0
M  V30 10390 H 957.33 0.957501 -4.10378 0
M  V30 10391 H 956.054 1.40947 -2.94621 0
M  V30 10392 H 954.713 -0.61581 -3.61391 0
M  V30 10393 H 954.361 1.569 -4.77903 0
M  V30 10394 H 954.061 0.195171 -5.87276 0
M  V30 10395 H 955.585 1.1185 -6.00268 0
M  V30 10396 H 956.999 -1.12087 -5.62236 0
M  V30 10397 H 955.396 -1.90923 -5.68919 0
M  V30 10398 H 956.466 -2.22099 -4.31045 0
M  V30 10399 N 957.809 1.4625 -0.587256 0
M  V30 10400 C 959.225 1.57641 -0.249284 0
M  V30 10401 C 959.425 1.58169 1.24839 0
M  V30 10402 O 958.481 1.50109 2.03036 0
M  V30 10403 C 959.794 2.86837 -0.902509 0
M  V30 10404 C 961.342 3.00476 -0.876524 0
M  V30 10405 C 961.817 4.32414 -1.50938 0
M  V30 10406 N 963.308 4.39124 -1.47392 0
M  V30 10407 C 964.043 5.39838 -1.93293 0
M  V30 10408 N 963.539 6.47202 -2.47188 0
M  V30 10409 N 965.332 5.31068 -1.84183 0
M  V30 10410 H 957.483 1.44151 -1.55994 0
M  V30 10411 H 959.746 0.687905 -0.652297 0
M  V30 10412 H 959.452 2.92274 -1.95624 0
M  V30 10413 H 959.326 3.74927 -0.413466 0
M  V30 10414 H 961.713 2.94618 0.168601 0
M  V30 10415 H 961.794 2.1385 -1.40363 0
M  V30 10416 H 961.438 4.3903 -2.55372 0
M  V30 10417 H 961.368 5.17823 -0.957455 0
M  V30 10418 H 963.859 3.62138 -1.08002 0
M  V30 10419 H 964.172 7.20269 -2.80058 0
M  V30 10420 H 962.517 6.48009 -2.51216 0
M  V30 10421 H 965.708 4.46095 -1.41833 0
M  V30 10422 H 965.881 6.09414 -2.2027 0
M  V30 10423 N 959.287 0.325282 1.54207 0
M  V30 10424 C 960.535 -0.276229 2.00203 0
M  V30 10425 C 960.856 -1.52519 1.21503 0
M  V30 10426 O 960.126 -1.93313 0.317302 0
M  V30 10427 H 958.706 -0.105059 0.739575 0
M  V30 10428 H 961.368 0.442225 1.89817 0
M  V30 10429 H 960.464 -0.531427 3.07542 0
M  V30 10430 N 960.765 -1.57509 0.0534917 0
M  V30 10431 C 962.176 -1.80374 -0.481867 0
M  V30 10432 C 962.527 -0.965917 -1.70776 0
M  V30 10433 O 961.652 -0.183167 -2.15623 0
M  V30 10434 C 962.247 -3.27146 -0.880978 0
M  V30 10435 C 960.806 -3.50921 -1.3613 0
M  V30 10436 C 959.953 -2.75237 -0.337611 0
M  V30 10437 H 962.904 -1.56222 0.279353 0
M  V30 10438 H 962.925 -3.38193 -1.74373 0
M  V30 10439 H 962.437 -3.88098 0.011441 0
M  V30 10440 H 960.538 -2.95251 -2.27283 0
M  V30 10441 H 960.651 -4.59632 -1.35186 0
M  V30 10442 H 959.015 -2.41444 -0.810991 0
M  V30 10443 H 959.798 -3.38918 0.546763 0
M  V30 10444 N 962.243 0.219913 -1.56058 0
M  V30 10445 C 963.175 1.29604 -1.89038 0
M  V30 10446 C 964.188 1.42964 -0.778791 0
M  V30 10447 O 965.377 1.43832 -1.0571 0
M  V30 10448 C 962.477 2.67145 -2.08534 0
M  V30 10449 C 961.65 2.75712 -3.39561 0
M  V30 10450 C 960.709 3.94279 -3.48469 0
M  V30 10451 O 959.735 3.8254 -4.21487 0
M  V30 10452 N 960.937 5.08655 -2.79732 0
M  V30 10453 H 963.702 1.01638 -2.81939 0
M  V30 10454 H 961.263 0.409945 -1.56624 0
M  V30 10455 H 963.255 3.44847 -2.11808 0
M  V30 10456 H 961.825 2.87704 -1.2225 0
M  V30 10457 H 961.045 1.84475 -3.48371 0
M  V30 10458 H 962.333 2.78407 -4.25872 0
M  V30 10459 H 961.731 5.21088 -2.2019 0
M  V30 10460 H 960.288 5.84394 -2.88665 0
M  V30 10461 N 963.721 1.49897 0.486681 0
M  V30 10462 C 964.651 1.7054 1.59494 0
M  V30 10463 C 965.632 0.554184 1.60819 0
M  V30 10464 O 966.817 0.791617 1.77333 0
M  V30 10465 C 963.947 1.78517 2.97908 0
M  V30 10466 C 962.901 2.93571 3.11449 0
M  V30 10467 C 962.227 2.86674 4.51356 0
M  V30 10468 C 963.527 4.34308 2.90127 0
M  V30 10469 H 965.221 2.63329 1.42472 0
M  V30 10470 H 962.767 1.2672 0.683969 0
M  V30 10471 H 964.72 1.91544 3.75352 0
M  V30 10472 H 963.444 0.823381 3.16051 0
M  V30 10473 H 962.103 2.80169 2.36433 0
M  V30 10474 H 961.751 1.88373 4.66395 0
M  V30 10475 H 961.451 3.63903 4.61355 0
M  V30 10476 H 962.975 3.01728 5.30841 0
M  V30 10477 H 964.389 4.48317 3.57331 0
M  V30 10478 H 962.786 5.12869 3.11585 0
M  V30 10479 H 963.856 4.47759 1.86119 0
M  V30 10480 N 965.199 -0.738761 1.39212 0
M  V30 10481 C 966.109 -1.88324 1.39897 0
M  V30 10482 C 967.125 -1.71494 0.294229 0
M  V30 10483 O 968.301 -1.94162 0.535087 0
M  V30 10484 C 965.366 -3.23871 1.23726 0
M  V30 10485 C 964.427 -3.53121 2.44139 0
M  V30 10486 C 963.66 -4.82202 2.2873 0
M  V30 10487 O 963.883 -5.55649 1.28879 0
M  V30 10488 O 962.817 -5.11265 3.17634 0
M  V30 10489 H 966.643 -1.90701 2.36362 0
M  V30 10490 H 964.228 -0.886067 1.20288 0
M  V30 10491 H 966.11 -4.04882 1.16826 0
M  V30 10492 H 964.785 -3.22274 0.303551 0
M  V30 10493 H 963.692 -2.72212 2.56615 0
M  V30 10494 H 965.025 -3.59495 3.36191 0
M  V30 10495 N 966.677 -1.24326 -0.968545 0
M  V30 10496 C 967.923 -1.08406 -1.71394 0
M  V30 10497 C 968.256 0.376353 -1.90518 0
M  V30 10498 O 967.531 1.27816 -1.46606 0
M  V30 10499 C 967.814 -1.82344 -3.1052 0
M  V30 10500 C 967.667 -3.3613 -2.98893 0
M  V30 10501 C 968.986 -1.59545 -4.10163 0
M  V30 10502 H 966.105 -0.395205 -0.622079 0
M  V30 10503 H 968.747 -1.52983 -1.12677 0
M  V30 10504 H 966.897 -1.44452 -3.60646 0
M  V30 10505 H 968.569 -3.83614 -2.56199 0
M  V30 10506 H 966.812 -3.64553 -2.35124 0
M  V30 10507 H 967.483 -3.83064 -3.97449 0
M  V30 10508 H 969.959 -1.92504 -3.68892 0
M  V30 10509 H 968.835 -2.13736 -5.05577 0
M  V30 10510 H 969.096 -0.533503 -4.38869 0
M  V30 10511 N 968.156 1.1691 -1.05688 0
M  V30 10512 C 969.567 1.68915 -0.795273 0
M  V30 10513 C 969.918 1.83968 0.681925 0
M  V30 10514 O 969.043 1.53083 1.52953 0
M  V30 10515 C 969.638 3.06814 -1.43703 0
M  V30 10516 C 968.197 3.55965 -1.22335 0
M  V30 10517 C 967.344 2.32099 -1.51741 0
M  V30 10518 H 970.295 1.01357 -1.22116 0
M  V30 10519 H 970.316 3.70907 -0.849016 0
M  V30 10520 H 969.828 2.95826 -2.51214 0
M  V30 10521 H 967.929 3.72222 -0.16771 0
M  V30 10522 H 968.042 4.38427 -1.9318 0
M  V30 10523 H 966.406 2.36811 -0.937696 0
M  V30 10524 H 967.189 2.23715 -2.60397 0
M  V30 10525 N 969.634 0.838594 1.33437 0
M  V30 10526 C 970.874 0.440239 1.99603 0
M  V30 10527 C 971.238 -0.982061 1.64984 0
M  V30 10528 O 972.439 -1.48413 2.24114 0
M  V30 10529 C 970.71 0.654201 3.51362 0
M  V30 10530 S 972.269 0.351025 4.37394 0
M  V30 10531 H 969.087 0.165608 0.691444 0
M  V30 10532 H 971.689 1.08782 1.6244 0
M  V30 10533 H 970.393 1.68873 3.74045 0
M  V30 10534 H 969.924 -0.00754449 3.93399 0
M  V30 10535 H 971.939 -0.829298 4.89221 0
M  V30 10536 N 971.112 -1.45937 0.595003 0
M  V30 10537 C 972.352 -2.0421 0.0881479 0
M  V30 10538 C 972.716 -1.45498 -1.25277 0
M  V30 10539 O 973.917 -1.95047 -1.8496 0
M  V30 10540 C 972.188 -3.57382 0.0362346 0
M  V30 10541 S 973.747 -4.36869 -0.41126 0
M  V30 10542 H 970.565 -0.709672 0.0434424 0
M  V30 10543 H 973.167 -1.78815 0.790273 0
M  V30 10544 H 971.871 -3.97628 1.0159 0
M  V30 10545 H 971.402 -3.87332 -0.688278 0
M  V30 10546 H 973.417 -4.67486 -1.66347 0
M  V30 10547 N 972.59 -0.333456 -1.54032 0
M  V30 10548 C 973.52 0.52051 -2.27625 0
M  V30 10549 C 974.501 1.1111 -1.28797 0
M  V30 10550 O 975.686 1.13438 -1.57625 0
M  V30 10551 C 972.816 1.67663 -3.04149 0
M  V30 10552 C 971.77 1.21487 -4.10396 0
M  V30 10553 C 971.096 2.45872 -4.74817 0
M  V30 10554 C 972.396 0.322603 -5.21303 0
M  V30 10555 H 974.09 -0.0933823 -2.99254 0
M  V30 10556 H 971.636 -0.0463526 -1.43925 0
M  V30 10557 H 973.589 2.28041 -3.54366 0
M  V30 10558 H 972.313 2.31727 -2.30153 0
M  V30 10559 H 970.972 0.633966 -3.61077 0
M  V30 10560 H 970.62 3.0832 -3.97426 0
M  V30 10561 H 970.32 2.15662 -5.46593 0
M  V30 10562 H 971.844 3.06994 -5.27814 0
M  V30 10563 H 973.258 0.832942 -5.67217 0
M  V30 10564 H 971.655 0.112843 -5.99994 0
M  V30 10565 H 972.725 -0.643954 -4.80605 0
M  V30 10566 N 974.068 1.57479 -0.061844 0
M  V30 10567 C 975.308 1.94982 0.613309 0
M  V30 10568 C 975.672 0.940729 1.67375 0
M  V30 10569 O 976.873 1.20307 2.40374 0
M  V30 10570 C 975.144 3.37208 1.18429 0
M  V30 10571 S 976.703 3.96678 1.87596 0
M  V30 10572 H 973.521 0.681969 0.201096 0
M  V30 10573 H 976.123 1.95045 -0.133328 0
M  V30 10574 H 974.827 4.08441 0.400522 0
M  V30 10575 H 974.358 3.40665 1.96751 0
M  V30 10576 H 976.373 3.82772 3.15754 0
M  V30 10577 N 975.546 -0.211634 1.56173 0
M  V30 10578 C 976.957 -0.777776 1.69728 0
M  V30 10579 C 977.308 -1.84566 0.66558 0
M  V30 10580 O 976.433 -2.15639 -0.181338 0
M  V30 10581 C 977.028 -1.41757 3.07718 0
M  V30 10582 C 975.587 -1.93098 3.23094 0
M  V30 10583 C 974.734 -0.794785 2.65666 0
M  V30 10584 H 977.685 0.0131839 1.58695 0
M  V30 10585 H 977.706 -2.28662 3.04128 0
M  V30 10586 H 977.218 -0.640114 3.82785 0
M  V30 10587 H 975.319 -2.73615 2.52914 0
M  V30 10588 H 975.432 -2.10414 4.30422 0
M  V30 10589 H 973.796 -1.20473 2.24407 0
M  V30 10590 H 974.579 -0.0298408 3.43287 0
M  V30 10591 N 977.024 -1.50153 -0.478725 0
M  V30 10592 C 977.954 -1.71384 -1.58587 0
M  V30 10593 C 978.935 -0.562705 -1.60523 0
M  V30 10594 O 980.12 -0.80101 -1.76911 0
M  V30 10595 C 977.25 -1.80094 -2.96957 0
M  V30 10596 C 976.204 -2.95218 -3.09888 0
M  V30 10597 C 975.53 -2.89063 -4.49829 0
M  V30 10598 C 976.83 -4.35841 -2.8782 0
M  V30 10599 H 978.524 -2.64081 -1.41073 0
M  V30 10600 H 976.07 -1.27081 -0.677239 0
M  V30 10601 H 978.023 -1.93531 -3.74331 0
M  V30 10602 H 976.747 -0.840131 -3.1561 0
M  V30 10603 H 975.406 -2.81419 -2.34944 0
M  V30 10604 H 975.054 -1.90844 -4.6539 0
M  V30 10605 H 974.754 -3.66345 -4.59418 0
M  V30 10606 H 976.278 -3.04539 -5.29234 0
M  V30 10607 H 977.692 -4.50205 -3.54948 0
M  V30 10608 H 976.089 -5.14515 -3.0886 0
M  V30 10609 H 977.159 -4.48739 -1.83742 0
M  V30 10610 N 978.502 0.731368 -1.39602 0
M  V30 10611 C 979.449 1.84541 -1.38612 0
M  V30 10612 C 980.419 1.64279 -0.245287 0
M  V30 10613 O 981.604 1.85635 -0.440954 0
M  V30 10614 C 978.744 3.22092 -1.23897 0
M  V30 10615 C 977.857 3.54034 -2.47555 0
M  V30 10616 C 976.992 4.81007 -2.25402 0
M  V30 10617 C 976.031 5.05804 -3.44716 0
M  V30 10618 N 975.168 6.23981 -3.21857 0
M  V30 10619 H 980.008 1.84722 -2.33841 0
M  V30 10620 H 977.545 0.902569 -1.16156 0
M  V30 10621 H 979.503 4.01499 -1.13376 0
M  V30 10622 H 978.133 3.2118 -0.322958 0
M  V30 10623 H 977.185 2.69301 -2.68665 0
M  V30 10624 H 978.497 3.68275 -3.36415 0
M  V30 10625 H 977.651 5.68401 -2.12143 0
M  V30 10626 H 976.39 4.68946 -1.33943 0
M  V30 10627 H 975.395 4.1687 -3.58468 0
M  V30 10628 H 976.62 5.19747 -4.37081 0
M  V30 10629 H 974.566 6.13202 -2.33065 0
M  V30 10630 H 974.483 6.38826 -4.04274 0
M  V30 10631 H 975.751 7.14205 -3.123 0
M  V30 10632 N 979.98 1.24838 0.961938 0
M  V30 10633 C 981.205 1.11967 1.7458 0
M  V30 10634 C 981.63 -0.323287 1.85301 0
M  V30 10635 O 980.988 -1.23412 1.32812 0
M  V30 10636 C 981.036 1.77066 3.14134 0
M  V30 10637 O 980.14 1.04534 3.98932 0
M  V30 10638 H 979.481 0.391338 0.536424 0
M  V30 10639 H 982.011 1.65259 1.20626 0
M  V30 10640 H 982.021 1.83056 3.64629 0
M  V30 10641 H 980.696 2.82052 3.05646 0
M  V30 10642 H 979.273 1.06372 3.57407 0
M  V30 10643 N 981.458 -1.16348 1.06306 0
M  V30 10644 C 982.368 -2.24375 0.685059 0
M  V30 10645 C 983.384 -1.71413 -0.298956 0
M  V30 10646 O 984.56 -2.00854 -0.148239 0
M  V30 10647 C 981.625 -3.46614 0.0774088 0
M  V30 10648 C 980.686 -4.14613 1.11331 0
M  V30 10649 C 979.919 -5.31016 0.534559 0
M  V30 10650 O 980.142 -5.66654 -0.65265 0
M  V30 10651 O 979.076 -5.88256 1.27431 0
M  V30 10652 H 982.902 -2.59018 1.58566 0
M  V30 10653 H 980.487 -1.23865 0.835332 0
M  V30 10654 H 982.369 -4.20599 -0.259716 0
M  V30 10655 H 981.044 -3.13743 -0.796677 0
M  V30 10656 H 979.951 -3.42597 1.50261 0
M  V30 10657 H 981.284 -4.51538 1.95893 0
M  V30 10658 N 982.937 -0.845659 -1.3299 0
M  V30 10659 C 983.869 -0.241097 -2.27928 0
M  V30 10660 C 984.882 0.582048 -1.5204 0
M  V30 10661 O 986.071 0.408008 -1.73774 0
M  V30 10662 C 983.171 0.678652 -3.32035 0
M  V30 10663 C 982.344 -0.106652 -4.3727 0
M  V30 10664 C 981.403 0.737478 -5.21006 0
M  V30 10665 O 980.429 0.174231 -5.68933 0
M  V30 10666 N 981.631 2.05372 -5.42957 0
M  V30 10667 H 984.396 -1.05685 -2.80448 0
M  V30 10668 H 981.957 -0.704771 -1.45755 0
M  V30 10669 H 983.949 1.24849 -3.84961 0
M  V30 10670 H 982.519 1.3951 -2.79742 0
M  V30 10671 H 981.739 -0.857897 -3.84752 0
M  V30 10672 H 983.027 -0.646386 -5.04677 0
M  V30 10673 H 982.425 2.53478 -5.05733 0
M  V30 10674 H 980.982 2.5719 -5.98913 0
M  V30 10675 N 984.415 1.45619 -0.602734 0
M  V30 10676 C 985.662 2.02272 -0.0960337 0
M  V30 10677 C 985.99 1.47177 1.27159 0
M  V30 10678 O 985.245 0.634593 1.85125 0
M  V30 10679 C 985.544 3.574 -0.00157909 0
M  V30 10680 C 985.21 4.31626 -1.30422 0
M  V30 10681 C 983.872 4.51622 -1.66106 0
M  V30 10682 C 986.224 4.74091 -2.16535 0
M  V30 10683 C 983.552 5.11338 -2.87663 0
M  V30 10684 C 985.904 5.35151 -3.37336 0
M  V30 10685 C 984.568 5.53371 -3.73278 0
M  V30 10686 H 983.838 0.740166 -0.0351412 0
M  V30 10687 H 986.485 1.74744 -0.783382 0
M  V30 10688 H 984.79 3.84179 0.769008 0
M  V30 10689 H 986.487 3.98934 0.406549 0
M  V30 10690 H 983.077 4.16372 -1.01647 0
M  V30 10691 H 987.261 4.5838 -1.90266 0
M  V30 10692 H 982.517 5.23634 -3.15622 0
M  V30 10693 H 986.691 5.67011 -4.04316 0
M  V30 10694 H 984.318 5.99412 -4.67556 0
M  V30 10695 N 985.893 0.34162 1.53853 0
M  V30 10696 C 986.823 -0.508431 2.27897 0
M  V30 10697 C 987.804 -1.10425 1.29384 0
M  V30 10698 O 988.989 -1.126 1.58224 0
M  V30 10699 C 986.119 -1.66048 3.05034 0
M  V30 10700 C 985.073 -1.19309 4.11035 0
M  V30 10701 C 984.399 -2.4335 4.76114 0
M  V30 10702 C 985.699 -0.294952 5.21467 0
M  V30 10703 H 987.393 0.109251 2.99201 0
M  V30 10704 H 984.939 0.0539847 1.43899 0
M  V30 10705 H 986.892 -2.26158 3.5557 0
M  V30 10706 H 985.616 -2.30503 2.31379 0
M  V30 10707 H 984.275 -0.614809 3.61408 0
M  V30 10708 H 983.923 -3.06208 3.99056 0
M  V30 10709 H 983.623 -2.1276 5.47729 0
M  V30 10710 H 985.147 -3.0419 5.29434 0
M  V30 10711 H 986.561 -0.80285 5.67651 0
M  V30 10712 H 984.958 -0.0810221 6.00045 0
M  V30 10713 H 986.028 0.669433 4.80257 0
M  V30 10714 N 987.371 -1.57444 0.0701946 0
M  V30 10715 C 988.334 -2.11511 -0.882923 0
M  V30 10716 C 989.334 -1.03879 -1.22743 0
M  V30 10717 O 990.524 -1.29874 -1.16097 0
M  V30 10718 C 987.656 -2.61514 -2.18686 0
M  V30 10719 H 988.849 -2.9703 -0.413873 0
M  V30 10720 H 986.402 -1.55278 -0.178488 0
M  V30 10721 H 987.137 -1.79443 -2.70131 0
M  V30 10722 H 986.922 -3.40185 -1.94978 0
M  V30 10723 H 988.412 -3.03425 -2.86919 0
M  V30 10724 N 988.849 0.203349 -1.56283 0
M  V30 10725 C 990.26 0.768764 -1.70138 0
M  V30 10726 C 990.611 1.8421 -0.675358 0
M  V30 10727 O 989.736 2.15732 0.1699 0
M  V30 10728 C 990.331 1.40123 -3.08466 0
M  V30 10729 C 988.89 1.91382 -3.24114 0
M  V30 10730 C 988.037 0.780685 -2.66084 0
M  V30 10731 H 990.988 -0.0215997 -1.58685 0
M  V30 10732 H 991.009 2.27046 -3.05336 0
M  V30 10733 H 990.521 0.619805 -3.83119 0
M  V30 10734 H 988.622 2.7227 -2.54362 0
M  V30 10735 H 988.735 2.08128 -4.31531 0
M  V30 10736 H 987.099 1.19281 -2.25042 0
M  V30 10737 H 987.882 0.0116351 -3.43298 0
M  V30 10738 N 990.327 1.50405 0.470755 0
M  V30 10739 C 991.573 1.6165 1.22462 0
M  V30 10740 C 991.906 0.316034 1.91611 0
M  V30 10741 O 991.181 -0.682509 1.82132 0
M  V30 10742 C 991.464 2.79702 2.26801 0
M  V30 10743 C 991.317 4.19631 1.61955 0
M  V30 10744 C 992.636 2.93313 3.28109 0
M  V30 10745 H 989.755 0.588345 0.443868 0
M  V30 10746 H 992.397 1.82792 0.518376 0
M  V30 10747 H 990.547 2.61807 2.87036 0
M  V30 10748 H 992.219 4.49117 1.05316 0
M  V30 10749 H 990.462 4.23874 0.922674 0
M  V30 10750 H 991.133 4.98162 2.37779 0
M  V30 10751 H 993.609 3.09697 2.77897 0
M  V30 10752 H 992.485 3.77537 3.98443 0
M  V30 10753 H 992.746 2.03942 3.9225 0
M  V30 10754 N 991.805 -0.723954 1.39988 0
M  V30 10755 C 993.053 -1.48078 1.3754 0
M  V30 10756 C 993.374 -1.94985 -0.0243358 0
M  V30 10757 O 992.644 -1.69764 -0.977602 0
M  V30 10758 H 991.224 -0.549354 0.506181 0
M  V30 10759 H 993.886 -0.858746 1.74962 0
M  V30 10760 H 992.982 -2.35763 2.04505 0
M  V30 10761 N 993.283 -1.25346 -0.955304 0
M  V30 10762 C 994.699 -1.02154 -1.22625 0
M  V30 10763 C 994.899 0.26206 -1.99789 0
M  V30 10764 O 993.955 0.974958 -2.32918 0
M  V30 10765 C 995.268 -2.2443 -2.00129 0
M  V30 10766 C 996.816 -2.29185 -2.13174 0
M  V30 10767 C 997.291 -3.51117 -2.94077 0
M  V30 10768 N 998.782 -3.51509 -3.01655 0
M  V30 10769 C 999.517 -4.42517 -3.64645 0
M  V30 10770 N 999.013 -5.43796 -4.29252 0
M  V30 10771 N 1000.81 -4.302 -3.61779 0
M  V30 10772 H 992.957 -2.07812 -0.439071 0
M  V30 10773 H 995.22 -0.91258 -0.256715 0
M  V30 10774 H 994.926 -3.17717 -1.50827 0
M  V30 10775 H 994.8 -2.27548 -3.00835 0
M  V30 10776 H 997.187 -1.36422 -2.61674 0
M  V30 10777 H 997.268 -2.30087 -1.11775 0
M  V30 10778 H 996.912 -4.44201 -2.46268 0
M  V30 10779 H 996.842 -3.4746 -3.95701 0
M  V30 10780 H 999.333 -2.78245 -2.55711 0
M  V30 10781 H 999.646 -6.09453 -4.75171 0
M  V30 10782 H 997.991 -5.4767 -4.27882 0
M  V30 10783 H 1001.18 -3.50304 -3.10491 0
M  V30 10784 H 1001.36 -5.01323 -4.10584 0
M  V30 10785 N 994.761 1.15782 -1.06922 0
M  V30 10786 C 995.986 1.90896 -0.810771 0
M  V30 10787 C 996.411 1.77246 0.629714 0
M  V30 10788 O 995.769 1.10215 1.43953 0
M  V30 10789 C 995.817 3.39397 -1.21829 0
M  V30 10790 O 994.921 4.10818 -0.360934 0
M  V30 10791 H 994.262 0.594497 -0.295752 0
M  V30 10792 H 996.792 1.46652 -1.42669 0
M  V30 10793 H 996.802 3.90181 -1.19259 0
M  V30 10794 H 995.477 3.4865 -2.2675 0
M  V30 10795 H 994.054 3.7019 -0.448748 0
M  V30 10796 N 996.239 0.8527 1.3254 0
M  V30 10797 C 997.655 0.542298 1.50104 0
M  V30 10798 C 997.855 -0.927465 1.78886 0
M  V30 10799 O 996.911 -1.7106 1.85728 0
M  V30 10800 C 998.224 1.4276 2.64651 0
M  V30 10801 C 999.772 1.42782 2.78536 0
M  V30 10802 C 1000.25 2.29828 3.9616 0
M  V30 10803 N 1001.74 2.27613 4.03418 0
M  V30 10804 C 1002.47 2.91696 4.93661 0
M  V30 10805 N 1001.97 3.64883 5.88925 0
M  V30 10806 N 1003.76 2.81094 4.86768 0
M  V30 10807 H 995.913 1.80395 1.12123 0
M  V30 10808 H 998.176 0.770394 0.552446 0
M  V30 10809 H 997.882 2.47266 2.50105 0
M  V30 10810 H 997.756 1.11358 3.60388 0
M  V30 10811 H 1000.14 0.390417 2.92506 0
M  V30 10812 H 1000.22 1.78198 1.83519 0
M  V30 10813 H 999.868 3.33635 3.82949 0
M  V30 10814 H 999.798 1.91746 4.9045 0
M  V30 10815 H 1002.29 1.74402 3.3525 0
M  V30 10816 H 1002.6 4.10952 6.54476 0
M  V30 10817 H 1000.95 3.68991 5.88957 0
M  V30 10818 H 1004.14 2.23469 4.11314 0
M  V30 10819 H 1004.31 3.31318 5.56895 0
M  V30 10820 N 997.718 -1.45297 0.610449 0
M  V30 10821 C 999.129 -1.85715 0.191488 0
M  V30 10822 C 999.48 -1.51036 -1.25229 0
M  V30 10823 O 998.605 -0.938422 -1.94994 0
M  V30 10824 C 999.2 -3.37082 0.340747 0
M  V30 10825 C 997.759 -3.76393 -0.0235433 0
M  V30 10826 C 996.906 -2.69237 0.663849 0
M  V30 10827 H 999.857 -1.36058 0.816948 0
M  V30 10828 H 999.878 -3.78105 -0.426233 0
M  V30 10829 H 999.39 -3.62291 1.39164 0
M  V30 10830 H 997.491 -3.56801 -1.07351 0
M  V30 10831 H 997.604 -4.77653 0.372102 0
M  V30 10832 H 995.968 -2.54499 0.101204 0
M  V30 10833 H 996.751 -2.97281 1.71694 0
M  V30 10834 N 999.196 -0.349774 -1.5367 0
M  V30 10835 C 1000.14 0.504121 -2.25227 0
M  V30 10836 C 1001.11 1.09048 -1.2529 0
M  V30 10837 O 1002.3 1.12594 -1.54037 0
M  V30 10838 C 999.438 1.64601 -3.03316 0
M  V30 10839 C 998.551 1.08635 -4.18118 0
M  V30 10840 C 997.686 2.19605 -4.83681 0
M  V30 10841 C 996.725 1.61023 -5.90541 0
M  V30 10842 N 995.862 2.6576 -6.49858 0
M  V30 10843 H 1000.7 -0.112621 -2.97787 0
M  V30 10844 H 998.239 -0.0673503 -1.46946 0
M  V30 10845 H 1000.2 2.31836 -3.46854 0
M  V30 10846 H 998.827 2.23364 -2.33041 0
M  V30 10847 H 997.879 0.304748 -3.79177 0
M  V30 10848 H 999.191 0.617911 -4.94958 0
M  V30 10849 H 998.345 2.94693 -5.30322 0
M  V30 10850 H 997.084 2.69795 -4.06278 0
M  V30 10851 H 996.089 0.844428 -5.43277 0
M  V30 10852 H 997.314 1.11677 -6.69855 0
M  V30 10853 H 995.26 3.15193 -5.75317 0
M  V30 10854 H 995.177 2.23557 -7.2219 0
M  V30 10855 H 996.445 3.40598 -7.01151 0
M  V30 10856 N 1000.67 1.57404 -0.0785433 0
M  V30 10857 C 1001.64 2.11977 0.871693 0
M  V30 10858 C 1002.64 1.04529 1.2219 0
M  V30 10859 O 1003.83 1.30488 1.15406 0
M  V30 10860 C 1000.96 2.6267 2.17296 0
M  V30 10861 H 1002.15 2.97246 0.398115 0
M  V30 10862 H 999.705 1.5537 0.170251 0
M  V30 10863 H 1000.44 1.80873 2.69175 0
M  V30 10864 H 1000.22 3.41214 1.93171 0
M  V30 10865 H 1001.71 3.04943 2.85306 0
M  V30 10866 N 1002.15 -0.195058 1.56388 0
M  V30 10867 C 1003.1 -1.26122 1.95438 0
M  V30 10868 C 1004.09 -1.47117 0.839818 0
M  V30 10869 O 1005.3 -1.47978 1.02482 0
M  V30 10870 H 1001.67 -0.423422 0.621464 0
M  V30 10871 H 1003.65 -0.904854 2.8435 0
M  V30 10872 C 1002.39 -2.59858 2.31017 0
M  V30 10873 H 1001.72 -2.44519 3.16308 0
M  V30 10874 H 1003.16 -3.33205 2.62203 0
M  V30 10875 C 1001.62 -3.16853 1.14481 0
M  V30 10876 O 1002.15 -3.995 0.419853 0
M  V30 10877 N 1000.35 -2.75599 0.921604 0
M  V30 10878 H 999.9 -2.08495 1.51287 0
M  V30 10879 H 999.858 -3.14072 0.143663 0
M  V30 10880 N 1003.63 -1.50653 -0.462772 0
M  V30 10881 C 1004.85 -1.66103 -1.24196 0
M  V30 10882 C 1005.28 -0.347421 -1.84864 0
M  V30 10883 O 1004.64 0.689673 -1.6767 0
M  V30 10884 C 1004.69 -2.76027 -2.32037 0
M  V30 10885 O 1003.79 -2.37859 -3.36893 0
M  V30 10886 H 1003.13 -0.554672 -0.365014 0
M  V30 10887 H 1005.66 -1.97076 -0.549734 0
M  V30 10888 H 1005.67 -2.99354 -2.77221 0
M  V30 10889 H 1004.35 -3.71361 -1.87253 0
M  V30 10890 H 1002.92 -2.2501 -2.97363 0
M  V30 10891 N 1005.11 0.71652 -1.4037 0
M  V30 10892 C 1006.52 1.02447 -1.22379 0
M  V30 10893 C 1006.72 2.0126 -0.0983394 0
M  V30 10894 O 1005.78 2.46569 0.544071 0
M  V30 10895 C 1007.09 1.56909 -2.56515 0
M  V30 10896 C 1008.64 1.68898 -2.6352 0
M  V30 10897 C 1009.12 2.26765 -3.97922 0
M  V30 10898 N 1010.61 2.34152 -3.99658 0
M  V30 10899 C 1011.34 2.79907 -5.00439 0
M  V30 10900 N 1010.84 3.25422 -6.11615 0
M  V30 10901 N 1012.63 2.79283 -4.87809 0
M  V30 10902 H 1004.78 0.0615306 -2.12311 0
M  V30 10903 H 1007.05 0.0898994 -0.943728 0
M  V30 10904 H 1006.75 0.917649 -3.39517 0
M  V30 10905 H 1006.63 2.55446 -2.77538 0
M  V30 10906 H 1009.01 2.33159 -1.8089 0
M  V30 10907 H 1009.09 0.689626 -2.46329 0
M  V30 10908 H 1008.74 1.63126 -4.80991 0
M  V30 10909 H 1008.67 3.27413 -4.12442 0
M  V30 10910 H 1011.16 2.02006 -3.19378 0
M  V30 10911 H 1011.47 3.58899 -6.84406 0
M  V30 10912 H 1009.82 3.23383 -6.15181 0
M  V30 10913 H 1013.01 2.43061 -4.00049 0
M  V30 10914 H 1013.18 3.14626 -5.66493 0
M  V30 10915 N 1006.59 1.25851 0.948643 0
M  V30 10916 C 1008 1.09975 1.50872 0
M  V30 10917 C 1008.35 -0.322497 1.93531 0
M  V30 10918 O 1007.47 -1.21316 1.79197 0
M  V30 10919 C 1008.07 1.99021 2.74182 0
M  V30 10920 C 1006.63 1.87313 3.26483 0
M  V30 10921 C 1005.77 1.92815 1.99293 0
M  V30 10922 H 1008.73 1.3905 0.764908 0
M  V30 10923 H 1008.75 1.53372 3.4822 0
M  V30 10924 H 1008.26 3.02527 2.43103 0
M  V30 10925 H 1006.36 0.867136 3.62369 0
M  V30 10926 H 1006.47 2.72446 3.94094 0
M  V30 10927 H 1004.84 1.36774 2.1486 0
M  V30 10928 H 1005.62 2.97936 1.70554 0
M  V30 10929 N 1008.06 -1.15214 1.07534 0
M  V30 10930 C 1009.34 -1.82155 0.71267 0
M  V30 10931 C 1009.72 -1.95163 -0.804655 0
M  V30 10932 O 1009.07 -1.50451 -1.71979 0
M  V30 10933 C 1009.28 -3.18392 1.42925 0
M  V30 10934 C 1010.63 -3.94005 1.58256 0
M  V30 10935 O 1011.65 -3.27952 1.39018 0
M  V30 10936 O 1010.51 -5.12436 1.89925 0
M  V30 10937 H 1007.6 -0.78709 0.253808 0
M  V30 10938 H 1010.15 -1.22309 1.17638 0
M  V30 10939 H 1008.92 -3.04034 2.46331 0
M  V30 10940 H 1008.55 -3.85925 0.956439 0
M  V30 10941 N 1009.54 -0.859717 -1.32086 0
M  V30 10942 C 1010.78 -0.471939 -1.98877 0
M  V30 10943 C 1011.15 0.955689 -1.66525 0
M  V30 10944 O 1012.35 1.44829 -2.26447 0
M  V30 10945 C 1010.62 -0.710016 -3.50276 0
M  V30 10946 S 1012.18 -0.420566 -4.3678 0
M  V30 10947 H 1009 -0.176588 -0.688722 0
M  V30 10948 H 1011.6 -1.11352 -1.60689 0
M  V30 10949 H 1010.3 -1.74803 -3.71311 0
M  V30 10950 H 1009.83 -0.0550429 -3.93361 0
M  V30 10951 H 1011.85 0.751362 -4.90478 0
M  V30 10952 N 1011.02 1.44971 -0.618145 0
M  V30 10953 C 1012.3 1.95539 -0.0489895 0
M  V30 10954 C 1012.68 1.5604 1.42179 0
M  V30 10955 O 1012.03 0.82809 2.12967 0
M  V30 10956 C 1012.24 3.48044 -0.258193 0
M  V30 10957 C 1013.58 4.24354 -0.144541 0
M  V30 10958 O 1014.61 3.55699 -0.18887 0
M  V30 10959 O 1013.47 5.46486 -0.038519 0
M  V30 10960 H 1010.56 0.826466 0.0297256 0
M  V30 10961 H 1013.11 1.55086 -0.688944 0
M  V30 10962 H 1011.88 3.69798 -1.27926 0
M  V30 10963 H 1011.5 3.95412 0.416522 0
M  V30 10964 N 1012.5 0.357919 1.53482 0
M  V30 10965 C 1013.45 -0.49217 2.25491 0
M  V30 10966 C 1014.42 -1.08382 1.25867 0
M  V30 10967 O 1015.6 -1.11775 1.54632 0
M  V30 10968 C 1012.74 -1.6299 3.04185 0
M  V30 10969 C 1011.85 -1.06416 4.18688 0
M  V30 10970 C 1010.99 -2.17037 4.84839 0
M  V30 10971 C 1010.03 -1.57889 5.91386 0
M  V30 10972 N 1009.16 -2.6231 6.51259 0
M  V30 10973 H 1014 0.128412 2.97723 0
M  V30 10974 H 1011.54 0.0751423 1.46908 0
M  V30 10975 H 1013.5 -2.29993 3.48079 0
M  V30 10976 H 1012.13 -2.22125 2.34223 0
M  V30 10977 H 1011.18 -0.284635 3.79334 0
M  V30 10978 H 1012.49 -0.591654 4.95279 0
M  V30 10979 H 1011.65 -2.91876 5.31877 0
M  V30 10980 H 1010.39 -2.67636 4.07703 0
M  V30 10981 H 1009.39 -0.815605 5.43717 0
M  V30 10982 H 1010.62 -1.08123 6.70437 0
M  V30 10983 H 1008.56 -3.12137 5.7698 0
M  V30 10984 H 1008.48 -2.19724 7.23365 0
M  V30 10985 H 1009.75 -3.36875 7.02948 0
M  V30 10986 N 1013.98 -1.5736 0.0868897 0
M  V30 10987 C 1015.39 -1.81356 -0.443499 0
M  V30 10988 C 1015.74 -1.00192 -1.68689 0
M  V30 10989 O 1014.86 -0.228863 -2.15186 0
M  V30 10990 C 1015.46 -3.28941 -0.811387 0
M  V30 10991 C 1014.02 -3.53729 -1.28656 0
M  V30 10992 C 1013.16 -2.75891 -0.279153 0
M  V30 10993 H 1016.12 -1.55594 0.312427 0
M  V30 10994 H 1016.14 -3.41815 -1.6716 0
M  V30 10995 H 1015.65 -3.87987 0.0937598 0
M  V30 10996 H 1013.75 -3.00005 -2.2097 0
M  V30 10997 H 1013.86 -4.62396 -1.25406 0
M  V30 10998 H 1012.23 -2.4311 -0.759595 0
M  V30 10999 H 1013.01 -3.37682 0.618529 0
M  V30 11000 N 1015.45 0.186762 -1.56489 0
M  V30 11001 C 1016.87 0.537933 -1.50261 0
M  V30 11002 C 1017.07 1.85435 -0.788414 0
M  V30 11003 O 1016.13 2.50168 -0.342377 0
M  V30 11004 C 1017.44 0.584965 -2.94955 0
M  V30 11005 C 1018.99 0.673228 -3.05674 0
M  V30 11006 C 1019.46 0.751294 -4.51796 0
M  V30 11007 N 1020.95 0.814599 -4.55981 0
M  V30 11008 C 1021.69 0.895313 -5.66367 0
M  V30 11009 N 1021.18 0.937814 -6.86423 0
M  V30 11010 N 1022.98 0.933145 -5.543 0
M  V30 11011 H 1015.13 -0.676636 -2.01334 0
M  V30 11012 H 1017.39 -0.242079 -0.916571 0
M  V30 11013 H 1017.1 -0.313361 -3.50301 0
M  V30 11014 H 1016.97 1.4368 -3.48763 0
M  V30 11015 H 1019.36 1.56198 -2.50372 0
M  V30 11016 H 1019.44 -0.204976 -2.54977 0
M  V30 11017 H 1019.08 -0.133143 -5.07725 0
M  V30 11018 H 1019.01 1.64542 -5.00233 0
M  V30 11019 H 1021.5 0.790662 -3.69536 0
M  V30 11020 H 1021.82 1.00015 -7.66301 0
M  V30 11021 H 1020.16 0.906351 -6.89065 0
M  V30 11022 H 1023.35 0.896836 -4.59428 0
M  V30 11023 H 1023.53 0.992588 -6.40353 0
M  V30 11024 N 1016.93 1.50896 0.454776 0
M  V30 11025 C 1017.9 1.70377 1.53312 0
M  V30 11026 C 1018.9 0.57408 1.50203 0
M  V30 11027 O 1020.09 0.841374 1.52534 0
M  V30 11028 C 1017.22 1.74411 2.92905 0
M  V30 11029 H 1018.41 2.66599 1.37349 0
M  V30 11030 H 1015.96 1.40622 0.68228 0
M  V30 11031 H 1016.7 0.799408 3.14293 0
M  V30 11032 H 1016.48 2.56496 2.96568 0
M  V30 11033 H 1017.97 1.91382 3.71164 0
M  V30 11034 N 1018.41 -0.709066 1.40748 0
M  V30 11035 C 1019.32 -1.85314 1.43861 0
M  V30 11036 C 1020.34 -1.70832 0.330539 0
M  V30 11037 O 1021.51 -1.92983 0.576152 0
M  V30 11038 C 1018.58 -3.21174 1.30568 0
M  V30 11039 C 1017.64 -3.47863 2.51574 0
M  V30 11040 C 1016.87 -4.77241 2.38906 0
M  V30 11041 O 1017.09 -5.52791 1.40636 0
M  V30 11042 O 1016.03 -5.04413 3.28407 0
M  V30 11043 H 1019.85 -1.85644 2.40354 0
M  V30 11044 H 1017.44 -0.860352 1.2214 0
M  V30 11045 H 1019.32 -4.02313 1.25388 0
M  V30 11046 H 1018 -3.21557 0.371841 0
M  V30 11047 H 1016.9 -2.66708 2.62331 0
M  V30 11048 H 1018.24 -3.52283 3.43741 0
M  V30 11049 N 1019.89 -1.26353 -0.941956 0
M  V30 11050 C 1020.85 -1.07904 -2.02211 0
M  V30 11051 C 1021.85 -0.0276283 -1.60776 0
M  V30 11052 O 1023.04 -0.270965 -1.7208 0
M  V30 11053 C 1020.17 -0.641084 -3.34818 0
M  V30 11054 H 1021.37 -2.03804 -2.20009 0
M  V30 11055 H 1018.92 -1.08939 -1.12081 0
M  V30 11056 H 1019.66 0.319943 -3.22718 0
M  V30 11057 H 1019.44 -1.40027 -3.66244 0
M  V30 11058 H 1020.93 -0.533826 -4.14174 0
M  V30 11059 N 1021.37 1.14642 -1.08144 0
M  V30 11060 C 1022.61 1.87277 -0.818953 0
M  V30 11061 C 1022.97 1.80896 0.643482 0
M  V30 11062 O 1024.17 2.4864 1.02135 0
M  V30 11063 C 1022.44 3.32006 -1.32314 0
M  V30 11064 S 1024 4.22284 -1.19256 0
M  V30 11065 H 1020.82 0.646204 -0.29655 0
M  V30 11066 H 1023.42 1.38261 -1.38217 0
M  V30 11067 H 1022.13 3.34197 -2.38203 0
M  V30 11068 H 1021.66 3.86078 -0.75548 0
M  V30 11069 H 1023.67 4.96016 -0.135143 0
M  V30 11070 N 1022.85 0.866709 1.31628 0
M  V30 11071 C 1024.26 0.529032 1.79048 0
M  V30 11072 C 1024.61 -0.953871 1.71452 0
M  V30 11073 O 1023.73 -1.74462 1.28031 0
M  V30 11074 C 1024.33 0.953522 3.25105 0
M  V30 11075 C 1022.89 0.667554 3.70433 0
M  V30 11076 C 1022.03 1.14664 2.52483 0
M  V30 11077 H 1024.98 1.05275 1.18756 0
M  V30 11078 H 1025.01 0.274844 3.79506 0
M  V30 11079 H 1024.52 2.03283 3.30602 0
M  V30 11080 H 1022.62 -0.400532 3.70441 0
M  V30 11081 H 1022.73 1.2423 4.62714 0
M  V30 11082 H 1021.1 0.566502 2.4832 0
M  V30 11083 H 1021.88 2.2333 2.60727 0
M  V30 11084 N 1024.32 -1.44642 0.625825 0
M  V30 11085 C 1025.26 -2.27821 -0.131481 0
M  V30 11086 C 1026.23 -1.38224 -0.856324 0
M  V30 11087 O 1027.42 -1.67662 -0.861493 0
M  V30 11088 C 1024.55 -3.1703 -1.19204 0
M  V30 11089 C 1023.59 -4.22697 -0.568315 0
M  V30 11090 S 1024.42 -5.3169 0.637612 0
M  V30 11091 C 1025.58 -6.24468 -0.423088 0
M  V30 11092 H 1025.81 -2.91703 0.574177 0
M  V30 11093 H 1023.35 -1.4875 0.413844 0
M  V30 11094 H 1025.3 -3.6898 -1.79901 0
M  V30 11095 H 1023.97 -2.52379 -1.86986 0
M  V30 11096 H 1023.16 -4.8511 -1.36689 0
M  V30 11097 H 1022.76 -3.73983 -0.0360843 0
M  V30 11098 H 1025.05 -6.64967 -1.29713 0
M  V30 11099 H 1026 -7.07907 0.165338 0
M  V30 11100 H 1026.4 -5.59541 -0.746606 0
M  V30 11101 N 1025.8 -0.366053 -1.5329 0
M  V30 11102 C 1026.75 0.480205 -2.25749 0
M  V30 11103 C 1027.72 1.07713 -1.2644 0
M  V30 11104 O 1028.9 1.10953 -1.55222 0
M  V30 11105 C 1026.04 1.61374 -3.05045 0
M  V30 11106 C 1025.16 1.04194 -4.19246 0
M  V30 11107 C 1024.29 2.14462 -4.85983 0
M  V30 11108 C 1023.33 1.5475 -5.92215 0
M  V30 11109 N 1022.47 2.58852 -6.52641 0
M  V30 11110 H 1027.31 -0.144199 -2.97651 0
M  V30 11111 H 1024.84 -0.0829321 -1.46866 0
M  V30 11112 H 1026.8 2.28144 -3.49294 0
M  V30 11113 H 1025.43 2.2088 -2.35397 0
M  V30 11114 H 1024.48 0.264514 -3.79479 0
M  V30 11115 H 1025.8 0.565379 -4.95585 0
M  V30 11116 H 1024.95 2.89051 -5.33418 0
M  V30 11117 H 1023.69 2.6547 -4.09117 0
M  V30 11118 H 1022.69 0.786759 -5.44142 0
M  V30 11119 H 1023.92 1.04566 -6.71001 0
M  V30 11120 H 1021.87 3.09073 -5.78627 0
M  V30 11121 H 1021.78 2.15884 -7.24521 0
M  V30 11122 H 1023.05 3.33142 -7.04724 0
M  V30 11123 N 1027.28 1.57312 -0.0952337 0
M  V30 11124 C 1028.7 1.57445 0.261416 0
M  V30 11125 C 1028.9 1.10639 1.68408 0
M  V30 11126 O 1027.95 0.782912 2.40056 0
M  V30 11127 C 1029.26 3.00659 0.0497206 0
M  V30 11128 C 1030.81 3.1278 0.117459 0
M  V30 11129 C 1031.29 4.57952 -0.0662441 0
M  V30 11130 N 1032.78 4.63199 -0.0114146 0
M  V30 11131 C 1033.51 5.73255 -0.128799 0
M  V30 11132 N 1033.01 6.92146 -0.301026 0
M  V30 11133 N 1034.8 5.62056 -0.0700599 0
M  V30 11134 H 1026.95 1.86045 -1.02475 0
M  V30 11135 H 1029.22 0.858726 -0.401614 0
M  V30 11136 H 1028.92 3.39102 -0.932888 0
M  V30 11137 H 1028.8 3.68792 0.791975 0
M  V30 11138 H 1031.18 2.74209 1.09057 0
M  V30 11139 H 1031.26 2.47238 -0.656288 0
M  V30 11140 H 1030.91 4.97217 -1.03623 0
M  V30 11141 H 1030.84 5.21555 0.727198 0
M  V30 11142 H 1033.33 3.77712 0.119154 0
M  V30 11143 H 1033.64 7.71855 -0.382104 0
M  V30 11144 H 1031.99 6.94184 -0.336695 0
M  V30 11145 H 1035.18 4.68057 0.0633587 0
M  V30 11146 H 1035.35 6.4779 -0.164991 0
M  V30 11147 N 1028.76 -0.17846 1.56586 0
M  V30 11148 C 1029.69 -1.22342 1.98884 0
M  V30 11149 C 1030.67 -1.46564 0.86331 0
M  V30 11150 O 1031.85 -1.58019 1.12887 0
M  V30 11151 C 1028.98 -2.56396 2.34261 0
M  V30 11152 C 1027.94 -2.46756 3.49708 0
M  V30 11153 C 1027.26 -3.85235 3.70807 0
M  V30 11154 C 1028.56 -1.97838 4.83381 0
M  V30 11155 H 1030.26 -0.871848 2.86425 0
M  V30 11156 H 1027.8 -0.417948 1.37801 0
M  V30 11157 H 1029.76 -3.29695 2.62448 0
M  V30 11158 H 1028.48 -2.93327 1.43621 0
M  V30 11159 H 1027.14 -1.75912 3.21637 0
M  V30 11160 H 1026.79 -4.19547 2.7747 0
M  V30 11161 H 1026.49 -3.79655 4.48481 0
M  V30 11162 H 1028.01 -4.60131 4.01387 0
M  V30 11163 H 1029.43 -2.60906 5.10491 0
M  V30 11164 H 1027.82 -2.03223 5.64642 0
M  V30 11165 H 1028.89 -0.932339 4.75852 0
M  V30 11166 N 1030.24 -1.51135 -0.446768 0
M  V30 11167 C 1031.46 -1.67411 -1.22427 0
M  V30 11168 C 1031.89 -0.367009 -1.84485 0
M  V30 11169 O 1031.24 0.67185 -1.68392 0
M  V30 11170 C 1031.29 -2.78473 -2.29096 0
M  V30 11171 O 1030.4 -2.41419 -3.34351 0
M  V30 11172 H 1029.74 -0.558512 -0.359111 0
M  V30 11173 H 1032.27 -1.97648 -0.5288 0
M  V30 11174 H 1032.28 -3.02277 -2.7403 0
M  V30 11175 H 1030.95 -3.73326 -1.83304 0
M  V30 11176 H 1029.53 -2.28152 -2.9496 0
M  V30 11177 N 1031.71 0.701592 -1.41122 0
M  V30 11178 C 1033.12 1.28129 -1.35793 0
M  V30 11179 C 1033.48 1.96163 -0.0381185 0
M  V30 11180 O 1032.6 1.98416 0.863723 0
M  V30 11181 C 1033.2 2.33005 -2.45955 0
M  V30 11182 C 1031.75 2.86566 -2.44043 0
M  V30 11183 C 1030.9 1.60526 -2.26112 0
M  V30 11184 H 1033.85 0.496756 -1.50725 0
M  V30 11185 H 1033.87 3.14163 -2.14667 0
M  V30 11186 H 1033.39 1.8346 -3.42 0
M  V30 11187 H 1031.49 3.40304 -1.51737 0
M  V30 11188 H 1031.6 3.37406 -3.40138 0
M  V30 11189 H 1029.96 1.86113 -1.7388 0
M  V30 11190 H 1030.75 1.12985 -3.24175 0
M  V30 11191 N 1033.19 1.2685 0.935242 0
M  V30 11192 C 1034.12 1.1143 2.05196 0
M  V30 11193 C 1035.1 0.0178362 1.70091 0
M  V30 11194 O 1036.29 0.190951 1.93259 0
M  V30 11195 C 1033.42 0.752779 3.39044 0
M  V30 11196 C 1032.37 1.80164 3.88233 0
M  V30 11197 C 1031.7 1.29428 5.18799 0
M  V30 11198 C 1033 3.20431 4.12457 0
M  V30 11199 H 1034.69 2.04845 2.18355 0
M  V30 11200 H 1032.24 0.986276 1.04922 0
M  V30 11201 H 1034.19 0.631757 4.16637 0
M  V30 11202 H 1032.91 -0.217075 3.25878 0
M  V30 11203 H 1031.57 1.91144 3.12825 0
M  V30 11204 H 1031.22 0.3141 5.02018 0
M  V30 11205 H 1030.92 1.99546 5.5268 0
M  V30 11206 H 1032.45 1.18605 5.9897 0
M  V30 11207 H 1033.86 3.12495 4.80645 0
M  V30 11208 H 1032.26 3.88193 4.57631 0
M  V30 11209 H 1033.33 3.66046 3.18023 0
M  V30 11210 N 1034.67 -1.14067 1.0875 0
M  V30 11211 C 1035.62 -2.19261 0.720633 0
M  V30 11212 C 1036.59 -1.63462 -0.294847 0
M  V30 11213 O 1037.77 -1.89967 -0.178058 0
M  V30 11214 C 1034.91 -3.44816 0.139873 0
M  V30 11215 C 1034.03 -4.1475 1.20856 0
M  V30 11216 C 1033.16 -5.27899 0.591285 0
M  V30 11217 C 1032.2 -5.89672 1.64176 0
M  V30 11218 N 1031.34 -6.94264 1.04603 0
M  V30 11219 H 1036.18 -2.49991 1.62198 0
M  V30 11220 H 1033.71 -1.22757 0.810497 0
M  V30 11221 H 1035.67 -4.16648 -0.214587 0
M  V30 11222 H 1034.3 -3.14558 -0.724774 0
M  V30 11223 H 1033.35 -3.41272 1.6804 0
M  V30 11224 H 1034.67 -4.56753 2.00446 0
M  V30 11225 H 1033.82 -6.06417 0.185271 0
M  V30 11226 H 1032.56 -4.87128 -0.236236 0
M  V30 11227 H 1031.56 -5.09854 2.05739 0
M  V30 11228 H 1032.79 -6.32517 2.47182 0
M  V30 11229 H 1030.73 -6.55562 0.239664 0
M  V30 11230 H 1030.65 -7.34771 1.77898 0
M  V30 11231 H 1031.92 -7.7665 0.665989 0
M  V30 11232 N 1036.15 -0.873678 -1.31166 0
M  V30 11233 C 1037.56 -0.53852 -1.78765 0
M  V30 11234 C 1037.91 0.944765 -1.71955 0
M  V30 11235 O 1037.04 1.73781 -1.28954 0
M  V30 11236 C 1037.63 -0.970749 -3.24595 0
M  V30 11237 C 1036.19 -0.687189 -3.70074 0
M  V30 11238 C 1035.34 -1.16001 -2.51871 0
M  V30 11239 H 1038.29 -1.05903 -1.18196 0
M  V30 11240 H 1038.31 -0.294966 -3.79355 0
M  V30 11241 H 1037.82 -2.05034 -3.29519 0
M  V30 11242 H 1035.92 0.380881 -3.70648 0
M  V30 11243 H 1036.03 -1.26682 -4.62048 0
M  V30 11244 H 1034.4 -0.579663 -2.48016 0
M  V30 11245 H 1035.18 -2.2471 -2.59539 0
M  V30 11246 N 1037.63 1.44308 -0.633487 0
M  V30 11247 C 1038.56 2.33431 0.0568402 0
M  V30 11248 C 1039.54 1.48342 0.832386 0
M  V30 11249 O 1040.72 1.77056 0.797798 0
M  V30 11250 C 1037.85 3.31443 1.03743 0
M  V30 11251 C 1036.81 4.26368 0.373362 0
M  V30 11252 C 1036.13 5.14267 1.46403 0
M  V30 11253 C 1037.43 5.17287 -0.721876 0
M  V30 11254 H 1039.13 2.91402 -0.687388 0
M  V30 11255 H 1036.67 1.4012 -0.332009 0
M  V30 11256 H 1038.63 3.92677 1.52913 0
M  V30 11257 H 1037.35 2.71686 1.81258 0
M  V30 11258 H 1036.01 3.6647 -0.0977053 0
M  V30 11259 H 1035.66 4.50861 2.23011 0
M  V30 11260 H 1035.36 5.7859 1.02506 0
M  V30 11261 H 1036.88 5.78373 1.95748 0
M  V30 11262 H 1038.29 5.72444 -0.313181 0
M  V30 11263 H 1036.69 5.90226 -1.08413 0
M  V30 11264 H 1037.76 4.58159 -1.58804 0
M  V30 11265 N 1039.1 0.374177 1.53094 0
M  V30 11266 C 1040.52 -0.103172 1.86415 0
M  V30 11267 C 1040.87 -1.47439 1.29446 0
M  V30 11268 O 1039.99 -2.07333 0.619853 0
M  V30 11269 C 1040.59 -0.193988 3.38244 0
M  V30 11270 C 1039.15 -0.615605 3.71332 0
M  V30 11271 C 1038.29 0.23186 2.76329 0
M  V30 11272 H 1041.24 0.592644 1.47219 0
M  V30 11273 H 1041.26 -1.01597 3.66686 0
M  V30 11274 H 1040.78 0.80414 3.79678 0
M  V30 11275 H 1038.88 -1.62165 3.3546 0
M  V30 11276 H 1038.99 -0.38425 4.77557 0
M  V30 11277 H 1037.35 -0.300579 2.5292 0
M  V30 11278 H 1038.14 1.22769 3.20597 0
M  V30 11279 N 1040.58 -1.57259 0.103575 0
M  V30 11280 C 1041.51 -2.17509 -0.84923 0
M  V30 11281 C 1042.49 -1.11079 -1.28824 0
M  V30 11282 O 1043.68 -1.39252 -1.35361 0
M  V30 11283 C 1040.81 -2.76221 -2.10522 0
M  V30 11284 C 1039.76 -3.88098 -1.80454 0
M  V30 11285 C 1039.09 -4.33549 -3.12952 0
M  V30 11286 C 1040.39 -5.10909 -1.08486 0
M  V30 11287 H 1042.08 -2.9738 -0.347217 0
M  V30 11288 H 1039.63 -1.43045 -0.165568 0
M  V30 11289 H 1041.58 -3.17024 -2.77621 0
M  V30 11290 H 1040.31 -1.93617 -2.63021 0
M  V30 11291 H 1038.96 -3.47847 -1.15749 0
M  V30 11292 H 1038.61 -3.47825 -3.63355 0
M  V30 11293 H 1038.31 -5.08984 -2.93614 0
M  V30 11294 H 1039.84 -4.76992 -3.81196 0
M  V30 11295 H 1041.25 -5.48828 -1.65711 0
M  V30 11296 H 1039.65 -5.91828 -0.992973 0
M  V30 11297 H 1040.72 -4.84851 -0.0690108 0
M  V30 11298 N 1042.06 0.170153 -1.56679 0
M  V30 11299 C 1043.31 0.887906 -1.8233 0
M  V30 11300 C 1043.64 1.81845 -0.681608 0
M  V30 11301 O 1042.91 1.9191 0.316362 0
M  V30 11302 C 1043.2 1.68256 -3.18374 0
M  V30 11303 C 1043.05 0.775059 -4.43072 0
M  V30 11304 C 1044.37 2.65001 -3.51372 0
M  V30 11305 H 1041.49 0.32135 -0.663252 0
M  V30 11306 H 1044.13 0.154065 -1.89374 0
M  V30 11307 H 1042.28 2.30817 -3.12499 0
M  V30 11308 H 1043.95 0.162234 -4.61015 0
M  V30 11309 H 1042.2 0.0831809 -4.3372 0
M  V30 11310 H 1042.87 1.36661 -5.34816 0
M  V30 11311 H 1045.34 2.12566 -3.57708 0
M  V30 11312 H 1044.22 3.17667 -4.47637 0
M  V30 11313 H 1044.48 3.45255 -2.76136 0
M  V30 11314 N 1043.54 1.5137 0.438746 0
M  V30 11315 C 1044.79 1.63645 1.18595 0
M  V30 11316 C 1045.11 0.354241 1.91755 0
M  V30 11317 O 1044.38 -0.629838 1.85499 0
M  V30 11318 H 1042.96 0.603103 0.440767 0
M  V30 11319 H 1045.62 1.88293 0.503159 0
M  V30 11320 H 1044.72 2.46342 1.9163 0
M  V30 11321 N 1045.02 -0.694098 1.41492 0
M  V30 11322 C 1046.24 -1.48286 1.44288 0
M  V30 11323 C 1046.66 -1.88737 0.0485783 0
M  V30 11324 O 1046.02 -1.56881 -0.932449 0
M  V30 11325 C 1046.07 -2.74446 2.3529 0
M  V30 11326 O 1045.79 -2.35698 3.69294 0
M  V30 11327 C 1047.29 -3.68175 2.46905 0
M  V30 11328 H 1044.51 -0.45692 0.491391 0
M  V30 11329 H 1047.05 -0.854477 1.85793 0
M  V30 11330 H 1045.21 -3.33518 1.9709 0
M  V30 11331 H 1045.62 -3.17029 4.17843 0
M  V30 11332 H 1047.1 -4.53476 3.14743 0
M  V30 11333 H 1047.57 -4.12763 1.50078 0
M  V30 11334 H 1048.18 -3.15006 2.85747 0
M  V30 11335 N 1046.49 -1.27344 -0.928501 0
M  V30 11336 C 1047.74 -1.13635 -1.6761 0
M  V30 11337 C 1048.07 0.317957 -1.91884 0
M  V30 11338 O 1047.32 1.24904 -1.50657 0
M  V30 11339 C 1047.62 -1.86439 -3.04918 0
M  V30 11340 C 1047.29 -3.36298 -3.00358 0
M  V30 11341 C 1045.95 -3.77173 -2.98821 0
M  V30 11342 C 1048.3 -4.31921 -2.91708 0
M  V30 11343 C 1045.63 -5.12037 -2.86417 0
M  V30 11344 C 1047.98 -5.66841 -2.80846 0
M  V30 11345 C 1046.65 -6.07011 -2.77659 0
M  V30 11346 H 1045.92 -0.415821 -0.61333 0
M  V30 11347 H 1048.56 -1.57943 -1.08288 0
M  V30 11348 H 1046.87 -1.34638 -3.6794 0
M  V30 11349 H 1048.57 -1.73261 -3.61637 0
M  V30 11350 H 1045.16 -3.0379 -3.0234 0
M  V30 11351 H 1049.34 -4.01314 -2.91994 0
M  V30 11352 H 1044.6 -5.42307 -2.82336 0
M  V30 11353 H 1048.77 -6.40608 -2.73119 0
M  V30 11354 H 1046.4 -7.11467 -2.67804 0
M  V30 11355 N 1047.97 1.13488 -1.09353 0
M  V30 11356 C 1048.9 2.18563 -0.69012 0
M  V30 11357 C 1049.92 1.60585 0.267651 0
M  V30 11358 O 1051.11 1.78419 0.0538176 0
M  V30 11359 C 1048.21 3.389 0.00391255 0
M  V30 11360 C 1047.38 4.2639 -0.975209 0
M  V30 11361 C 1046.44 5.25258 -0.314719 0
M  V30 11362 O 1045.46 5.6101 -0.962119 0
M  V30 11363 N 1046.67 5.72978 0.931458 0
M  V30 11364 H 1049.43 2.53788 -1.59411 0
M  V30 11365 H 1046.99 1.28803 -0.980886 0
M  V30 11366 H 1048.98 4.02112 0.45696 0
M  V30 11367 H 1047.55 3.0192 0.81014 0
M  V30 11368 H 1046.77 3.59964 -1.60684 0
M  V30 11369 H 1048.06 4.817 -1.63836 0
M  V30 11370 H 1047.46 5.46078 1.477 0
M  V30 11371 H 1046.02 6.38131 1.32784 0
M  V30 11372 N 1049.45 0.880621 1.30701 0
M  V30 11373 C 1050.87 0.574015 1.4892 0
M  V30 11374 C 1051.07 -0.889312 1.80813 0
M  V30 11375 O 1050.12 -1.67082 1.89314 0
M  V30 11376 C 1051.44 1.48341 2.61563 0
M  V30 11377 C 1052.98 1.48658 2.75445 0
M  V30 11378 C 1053.46 2.3818 3.91196 0
M  V30 11379 N 1054.95 2.36119 3.985 0
M  V30 11380 C 1055.69 3.02101 4.87363 0
M  V30 11381 N 1055.18 3.77293 5.81052 0
M  V30 11382 N 1056.97 2.91356 4.80696 0
M  V30 11383 H 1049.13 1.82732 1.08271 0
M  V30 11384 H 1051.39 0.781939 0.535981 0
M  V30 11385 H 1051.09 2.52515 2.44804 0
M  V30 11386 H 1050.97 1.18977 3.57944 0
M  V30 11387 H 1053.36 0.452374 2.91612 0
M  V30 11388 H 1053.44 1.8205 1.79698 0
M  V30 11389 H 1053.08 3.41683 3.75786 0
M  V30 11390 H 1053.01 2.02106 4.86272 0
M  V30 11391 H 1055.5 1.81474 3.31475 0
M  V30 11392 H 1055.81 4.24742 6.45612 0
M  V30 11393 H 1054.16 3.81401 5.80998 0
M  V30 11394 H 1057.35 2.32143 4.06481 0
M  V30 11395 H 1057.52 3.43056 5.49742 0
M  V30 11396 N 1050.93 -1.4397 0.641131 0
M  V30 11397 C 1052.35 -1.56607 0.30762 0
M  V30 11398 C 1052.55 -1.62694 -1.18882 0
M  V30 11399 O 1051.6 -1.57541 -1.97325 0
M  V30 11400 C 1052.91 -2.83289 1.00834 0
M  V30 11401 C 1054.46 -2.97016 0.98744 0
M  V30 11402 C 1054.94 -4.26514 1.66882 0
M  V30 11403 N 1056.43 -4.33351 1.63589 0
M  V30 11404 C 1057.16 -5.32292 2.13196 0
M  V30 11405 N 1056.66 -6.37582 2.71038 0
M  V30 11406 N 1058.45 -5.23866 2.03766 0
M  V30 11407 H 1050.6 -1.38262 1.61237 0
M  V30 11408 H 1052.87 -0.663221 0.677378 0
M  V30 11409 H 1052.57 -2.84812 2.06337 0
M  V30 11410 H 1052.45 -3.73134 0.552333 0
M  V30 11411 H 1054.83 -2.95041 -0.0591395 0
M  V30 11412 H 1054.91 -2.08493 1.48203 0
M  V30 11413 H 1054.56 -4.2925 2.71491 0
M  V30 11414 H 1054.49 -5.13912 1.14898 0
M  V30 11415 H 1056.98 -3.5788 1.21368 0
M  V30 11416 H 1057.29 -7.09378 3.06597 0
M  V30 11417 H 1055.64 -6.38239 2.75093 0
M  V30 11418 H 1058.83 -4.40524 1.58291 0
M  V30 11419 H 1059 -6.00819 2.42737 0
M  V30 11420 N 1052.41 -0.382291 -1.52893 0
M  V30 11421 C 1053.82 -0.031941 -1.59568 0
M  V30 11422 C 1054.02 1.45245 -1.39664 0
M  V30 11423 O 1053.08 2.21612 -1.21013 0
M  V30 11424 C 1054.39 -0.502846 -2.96466 0
M  V30 11425 C 1055.94 -0.4585 -3.09624 0
M  V30 11426 C 1056.42 -0.905481 -4.4896 0
M  V30 11427 N 1057.91 -0.861211 -4.55124 0
M  V30 11428 C 1058.64 -1.17856 -5.61157 0
M  V30 11429 N 1058.14 -1.56603 -6.74868 0
M  V30 11430 N 1059.93 -1.10027 -5.51226 0
M  V30 11431 H 1052.08 -1.34875 -1.64081 0
M  V30 11432 H 1054.34 -0.552375 -0.770446 0
M  V30 11433 H 1054.05 -1.53931 -3.16225 0
M  V30 11434 H 1053.92 0.101777 -3.77063 0
M  V30 11435 H 1056.31 0.568868 -2.89565 0
M  V30 11436 H 1056.39 -1.09884 -2.30996 0
M  V30 11437 H 1056.04 -1.93105 -4.69759 0
M  V30 11438 H 1055.97 -0.242227 -5.26043 0
M  V30 11439 H 1058.46 -0.575988 -3.73485 0
M  V30 11440 H 1058.77 -1.792 -7.51736 0
M  V30 11441 H 1057.12 -1.60484 -6.76217 0
M  V30 11442 H 1060.31 -0.796623 -4.61272 0
M  V30 11443 H 1060.48 -1.35091 -6.33762 0
M  V30 11444 N 1053.89 1.57202 -0.111913 0
M  V30 11445 C 1055.13 1.94565 0.546713 0
M  V30 11446 C 1055.45 0.995644 1.67666 0
M  V30 11447 O 1054.72 0.0506681 1.95834 0
M  V30 11448 H 1053.3 0.718334 0.204951 0
M  V30 11449 H 1055.97 1.94074 -0.179193 0
M  V30 11450 H 1055.06 2.9742 0.945931 0
M  V30 11451 N 1055.36 -0.161842 1.56767 0
M  V30 11452 C 1056.29 -1.20226 2.0017 0
M  V30 11453 C 1057.27 -1.4564 0.878807 0
M  V30 11454 O 1058.46 -1.56813 1.14557 0
M  V30 11455 C 1055.59 -2.53897 2.36968 0
M  V30 11456 C 1054.54 -2.43033 3.52305 0
M  V30 11457 C 1053.87 -3.81281 3.74872 0
M  V30 11458 C 1055.17 -1.927 4.85453 0
M  V30 11459 H 1056.86 -0.84142 2.87333 0
M  V30 11460 H 1054.41 -0.403309 1.38237 0
M  V30 11461 H 1056.36 -3.26893 2.6593 0
M  V30 11462 H 1055.09 -2.91787 1.46724 0
M  V30 11463 H 1053.75 -1.7249 3.23485 0
M  V30 11464 H 1053.39 -4.1658 2.81904 0
M  V30 11465 H 1053.09 -3.74877 4.52483 0
M  V30 11466 H 1054.62 -4.55848 4.06245 0
M  V30 11467 H 1056.03 -2.55477 5.13229 0
M  V30 11468 H 1054.43 -1.97222 5.66766 0
M  V30 11469 H 1055.5 -0.881816 4.76814 0
M  V30 11470 N 1056.84 -1.516 -0.430713 0
M  V30 11471 C 1058.09 -1.64271 -1.17726 0
M  V30 11472 C 1058.41 -0.364406 -1.91565 0
M  V30 11473 O 1057.68 0.619991 -1.8583 0
M  V30 11474 H 1056.26 -0.605432 -0.437562 0
M  V30 11475 H 1058.92 -1.88557 -0.493166 0
M  V30 11476 H 1058.02 -2.47355 -1.90321 0
M  V30 11477 N 1058.32 0.686584 -1.41858 0
M  V30 11478 C 1059.6 1.44176 -1.32185 0
M  V30 11479 C 1059.98 2.11049 0.046362 0
M  V30 11480 O 1059.32 2.02365 1.06117 0
M  V30 11481 C 1059.53 2.45385 -2.48168 0
M  V30 11482 C 1060.88 3.10375 -2.89746 0
M  V30 11483 O 1061.91 2.55711 -2.47973 0
M  V30 11484 O 1060.77 4.09404 -3.62009 0
M  V30 11485 H 1057.86 0.642513 -0.520678 0
M  V30 11486 H 1060.41 0.716303 -1.53841 0
M  V30 11487 H 1059.18 1.94687 -3.3943 0
M  V30 11488 H 1058.8 3.25428 -2.28435 0
M  V30 11489 N 1059.8 1.27835 0.921735 0
M  V30 11490 C 1060.73 1.05397 2.02402 0
M  V30 11491 C 1061.71 -0.0274904 1.62577 0
M  V30 11492 O 1062.89 0.11885 1.88125 0
M  V30 11493 C 1060.02 0.600016 3.33343 0
M  V30 11494 C 1059.07 1.67693 3.9215 0
M  V30 11495 S 1059.9 3.27093 4.23994 0
M  V30 11496 C 1061.05 2.83513 5.58006 0
M  V30 11497 H 1061.29 1.98723 2.21125 0
M  V30 11498 H 1058.82 1.11733 1.0656 0
M  V30 11499 H 1060.78 0.344793 4.09049 0
M  V30 11500 H 1059.44 -0.313288 3.12534 0
M  V30 11501 H 1058.63 1.31074 4.86658 0
M  V30 11502 H 1058.23 1.88454 3.2305 0
M  V30 11503 H 1060.53 2.29187 6.37557 0
M  V30 11504 H 1061.47 3.76788 5.9953 0
M  V30 11505 H 1061.88 2.22472 5.18813 0
M  V30 11506 N 1061.28 -1.12907 1.09954 0
M  V30 11507 C 1062.22 -2.18485 0.743848 0
M  V30 11508 C 1063.19 -1.63766 -0.277494 0
M  V30 11509 O 1064.38 -1.90146 -0.157899 0
M  V30 11510 C 1061.52 -3.44649 0.176437 0
M  V30 11511 C 1060.63 -4.13445 1.25248 0
M  V30 11512 C 1059.77 -5.27242 0.647242 0
M  V30 11513 C 1058.8 -5.87897 1.70421 0
M  V30 11514 N 1057.94 -6.93116 1.1196 0
M  V30 11515 H 1062.78 -2.48257 1.64841 0
M  V30 11516 H 1060.32 -1.21891 0.823471 0
M  V30 11517 H 1062.28 -4.16852 -0.170384 0
M  V30 11518 H 1060.91 -3.15309 -0.69137 0
M  V30 11519 H 1059.96 -3.39471 1.7165 0
M  V30 11520 H 1061.27 -4.54601 2.05279 0
M  V30 11521 H 1060.42 -6.06186 0.249579 0
M  V30 11522 H 1059.16 -4.87351 -0.184556 0
M  V30 11523 H 1058.17 -5.07643 2.11136 0
M  V30 11524 H 1059.39 -6.2986 2.53877 0
M  V30 11525 H 1057.34 -6.55271 0.309181 0
M  V30 11526 H 1057.26 -7.32843 1.85681 0
M  V30 11527 H 1058.52 -7.759 0.748326 0
M  V30 11528 N 1062.75 -0.88754 -1.30232 0
M  V30 11529 C 1063.68 -0.372481 -2.3051 0
M  V30 11530 C 1064.66 0.546037 -1.61098 0
M  V30 11531 O 1065.85 0.459345 -1.88689 0
M  V30 11532 C 1062.98 0.411605 -3.44852 0
M  V30 11533 C 1061.93 -0.415383 -4.2598 0
M  V30 11534 C 1061.26 0.495463 -5.324 0
M  V30 11535 C 1062.56 -1.65886 -4.95257 0
M  V30 11536 H 1064.25 -1.21045 -2.7384 0
M  V30 11537 H 1061.8 -0.583498 -1.31648 0
M  V30 11538 H 1063.75 0.782584 -4.1407 0
M  V30 11539 H 1062.48 1.28325 -3.00334 0
M  V30 11540 H 1061.14 -0.768534 -3.58454 0
M  V30 11541 H 1060.78 1.36489 -4.84128 0
M  V30 11542 H 1060.48 -0.0540885 -5.87575 0
M  V30 11543 H 1062.01 0.862901 -6.04472 0
M  V30 11544 H 1063.42 -1.35832 -5.56976 0
M  V30 11545 H 1061.82 -2.14881 -5.60309 0
M  V30 11546 H 1062.89 -2.40181 -4.21237 0
M  V30 11547 N 1064.23 1.43628 -0.648757 0
M  V30 11548 C 1065.48 2.01465 -0.16002 0
M  V30 11549 C 1065.8 1.51413 1.22878 0
M  V30 11550 O 1065.07 0.724919 1.81994 0
M  V30 11551 H 1063.65 0.744885 -0.0561672 0
M  V30 11552 H 1066.31 1.75897 -0.839422 0
M  V30 11553 H 1065.41 3.1178 -0.141213 0
M  V30 11554 N 1065.71 0.390394 1.52688 0
M  V30 11555 C 1066.66 -0.444229 2.26485 0
M  V30 11556 C 1067.63 -1.05688 1.28138 0
M  V30 11557 O 1068.81 -1.0847 1.56968 0
M  V30 11558 C 1065.95 -1.56501 3.07574 0
M  V30 11559 C 1065.07 -0.975111 4.20851 0
M  V30 11560 C 1064.2 -2.06704 4.89333 0
M  V30 11561 C 1063.24 -1.45309 5.94602 0
M  V30 11562 N 1062.38 -2.48437 6.56676 0
M  V30 11563 H 1067.22 0.191535 2.97384 0
M  V30 11564 H 1064.75 0.106287 1.46716 0
M  V30 11565 H 1066.71 -2.22558 3.52879 0
M  V30 11566 H 1065.34 -2.17107 2.38881 0
M  V30 11567 H 1064.39 -0.204109 3.79852 0
M  V30 11568 H 1065.71 -0.486465 4.96422 0
M  V30 11569 H 1064.86 -2.80528 5.37949 0
M  V30 11570 H 1063.6 -2.58928 4.13289 0
M  V30 11571 H 1062.6 -0.700091 5.45324 0
M  V30 11572 H 1063.83 -0.938775 6.7258 0
M  V30 11573 H 1061.77 -2.99829 5.83471 0
M  V30 11574 H 1061.69 -2.04331 7.27863 0
M  V30 11575 H 1062.96 -3.21888 7.09935 0
M  V30 11576 N 1067.19 -1.57141 0.120249 0
M  V30 11577 C 1068.6 -1.82256 -0.404931 0
M  V30 11578 C 1068.95 -1.03748 -1.66526 0
M  V30 11579 O 1068.08 -0.274456 -2.14653 0
M  V30 11580 C 1068.67 -3.30588 -0.741431 0
M  V30 11581 C 1067.23 -3.56379 -1.21124 0
M  V30 11582 C 1066.38 -2.76421 -0.220569 0
M  V30 11583 H 1069.33 -1.54897 0.345361 0
M  V30 11584 H 1069.35 -3.45284 -1.59872 0
M  V30 11585 H 1068.86 -3.87701 0.176036 0
M  V30 11586 H 1066.96 -3.04625 -2.14556 0
M  V30 11587 H 1067.07 -4.64952 -1.1557 0
M  V30 11588 H 1065.44 -2.44666 -0.707857 0
M  V30 11589 H 1066.22 -3.36294 0.690018 0
M  V30 11590 N 1068.67 0.153526 -1.5685 0
M  V30 11591 C 1069.6 1.19162 -2.00805 0
M  V30 11592 C 1070.58 1.45172 -0.886518 0
M  V30 11593 O 1071.76 1.56203 -1.15387 0
M  V30 11594 C 1068.89 2.52637 -2.38311 0
M  V30 11595 C 1067.85 2.41161 -3.53589 0
M  V30 11596 C 1067.17 3.79287 -3.76889 0
M  V30 11597 C 1068.47 1.90122 -4.86468 0
M  V30 11598 H 1070.17 0.82617 -2.87776 0
M  V30 11599 H 1067.71 0.395972 -1.38449 0
M  V30 11600 H 1069.67 3.25478 -2.6766 0
M  V30 11601 H 1068.39 2.91005 -1.4827 0
M  V30 11602 H 1067.05 1.70772 -3.24395 0
M  V30 11603 H 1066.7 4.15079 -2.84109 0
M  V30 11604 H 1066.4 3.72472 -4.54465 0
M  V30 11605 H 1067.92 4.53687 -4.08657 0
M  V30 11606 H 1069.33 2.52752 -5.14577 0
M  V30 11607 H 1067.73 1.94214 -5.67804 0
M  V30 11608 H 1068.8 0.856517 -4.77275 0
M  V30 11609 N 1070.14 1.51827 0.422667 0
M  V30 11610 C 1071.07 1.77152 1.52117 0
M  V30 11611 C 1072.06 0.621895 1.58324 0
M  V30 11612 O 1073.24 0.866118 1.73816 0
M  V30 11613 C 1070.37 1.90991 2.90068 0
M  V30 11614 C 1069.32 3.06516 2.98717 0
M  V30 11615 C 1068.65 3.05559 4.38791 0
M  V30 11616 C 1069.95 4.46223 2.71445 0
M  V30 11617 H 1071.64 2.69135 1.31175 0
M  V30 11618 H 1069.19 1.29507 0.629607 0
M  V30 11619 H 1071.14 2.07291 3.6689 0
M  V30 11620 H 1069.87 0.956688 3.12274 0
M  V30 11621 H 1068.53 2.89945 2.24338 0
M  V30 11622 H 1068.17 2.07985 4.57986 0
M  V30 11623 H 1067.87 3.83144 4.45505 0
M  V30 11624 H 1069.4 3.23971 5.17566 0
M  V30 11625 H 1070.81 4.63069 3.37994 0
M  V30 11626 H 1069.21 5.25623 2.89552 0
M  V30 11627 H 1070.28 4.5525 1.6696 0
M  V30 11628 N 1071.62 -0.679052 1.4222 0
M  V30 11629 C 1073.04 -0.991665 1.25053 0
M  V30 11630 C 1073.24 -2.00928 0.151665 0
M  V30 11631 O 1072.29 -2.47925 -0.478507 0
M  V30 11632 C 1073.61 -1.50053 2.60585 0
M  V30 11633 C 1075.16 -1.61852 2.67905 0
M  V30 11634 C 1075.63 -2.16135 4.03794 0
M  V30 11635 N 1077.12 -2.23474 4.05726 0
M  V30 11636 C 1077.86 -2.66541 5.07685 0
M  V30 11637 N 1077.35 -3.09092 6.20028 0
M  V30 11638 N 1079.15 -2.66252 4.95042 0
M  V30 11639 H 1071.3 -0.00521851 2.12399 0
M  V30 11640 H 1073.56 -0.0648465 0.94578 0
M  V30 11641 H 1073.27 -0.82731 3.41831 0
M  V30 11642 H 1073.14 -2.47998 2.84213 0
M  V30 11643 H 1075.53 -2.28281 1.87008 0
M  V30 11644 H 1075.61 -0.624074 2.4807 0
M  V30 11645 H 1075.25 -1.50316 4.85147 0
M  V30 11646 H 1075.18 -3.16363 4.20978 0
M  V30 11647 H 1077.67 -1.93467 3.24621 0
M  V30 11648 H 1077.99 -3.40627 6.93681 0
M  V30 11649 H 1076.33 -3.06959 6.23539 0
M  V30 11650 H 1079.52 -2.32369 4.06352 0
M  V30 11651 H 1079.69 -2.99496 5.74636 0
M  V30 11652 N 1073.1 -1.28322 -0.914942 0
M  V30 11653 C 1074.35 -1.15407 -1.66396 0
M  V30 11654 C 1074.68 0.297587 -1.9221 0
M  V30 11655 O 1073.93 1.23299 -1.51973 0
M  V30 11656 C 1074.23 -1.89663 -3.02924 0
M  V30 11657 C 1073.9 -3.39464 -2.96774 0
M  V30 11658 C 1072.56 -3.80321 -2.94804 0
M  V30 11659 C 1074.91 -4.3499 -2.87111 0
M  V30 11660 C 1072.24 -5.15046 -2.8097 0
M  V30 11661 C 1074.59 -5.69788 -2.74818 0
M  V30 11662 C 1073.25 -6.09921 -2.71205 0
M  V30 11663 H 1072.52 -0.422303 -0.608885 0
M  V30 11664 H 1075.17 -1.59082 -1.06607 0
M  V30 11665 H 1073.48 -1.38533 -3.66491 0
M  V30 11666 H 1075.17 -1.77087 -3.59779 0
M  V30 11667 H 1071.76 -3.06979 -2.99101 0
M  V30 11668 H 1075.95 -4.04389 -2.87721 0
M  V30 11669 H 1071.2 -5.45271 -2.76568 0
M  V30 11670 H 1075.38 -6.43469 -2.66309 0
M  V30 11671 H 1073 -7.14267 -2.60243 0
M  V30 11672 N 1074.58 1.12322 -1.10551 0
M  V30 11673 C 1075.99 1.6539 -0.8662 0
M  V30 11674 C 1076.34 1.86695 0.603284 0
M  V30 11675 O 1075.47 1.59432 1.46323 0
M  V30 11676 C 1076.06 3.00443 -1.56587 0
M  V30 11677 C 1074.62 3.50456 -1.37323 0
M  V30 11678 C 1073.77 2.25454 -1.61449 0
M  V30 11679 H 1076.72 0.960866 -1.26305 0
M  V30 11680 H 1076.74 3.66972 -1.00557 0
M  V30 11681 H 1076.25 2.84905 -2.63535 0
M  V30 11682 H 1074.35 3.71176 -0.325431 0
M  V30 11683 H 1074.46 4.29839 -2.11601 0
M  V30 11684 H 1072.83 2.32621 -1.03729 0
M  V30 11685 H 1073.61 2.12469 -2.69651 0
M  V30 11686 N 1076.06 0.894434 1.2976 0
M  V30 11687 C 1077.28 0.532916 1.99919 0
M  V30 11688 C 1077.7 -0.881022 1.66983 0
M  V30 11689 O 1077.06 -1.58076 0.912035 0
M  V30 11690 C 1077.11 0.70936 3.54472 0
M  V30 11691 O 1076.83 2.06764 3.86239 0
M  V30 11692 C 1078.33 0.352089 4.419 0
M  V30 11693 H 1075.55 0.205019 0.638912 0
M  V30 11694 H 1078.09 1.20233 1.65421 0
M  V30 11695 H 1076.25 0.0871901 3.87302 0
M  V30 11696 H 1076.66 2.09315 4.80924 0
M  V30 11697 H 1078.14 0.526405 5.49484 0
M  V30 11698 H 1078.61 -0.710527 4.33415 0
M  V30 11699 H 1079.22 0.950979 4.14532 0
M  V30 11700 N 1077.53 -1.43282 0.656365 0
M  V30 11701 C 1078.5 -2.29188 -0.0239173 0
M  V30 11702 C 1079.5 -1.42373 -0.747436 0
M  V30 11703 O 1080.69 -1.63969 -0.588213 0
M  V30 11704 C 1077.82 -3.24501 -1.0446 0
M  V30 11705 H 1079.01 -2.9083 0.731978 0
M  V30 11706 H 1076.57 -1.50614 0.417752 0
M  V30 11707 H 1077.3 -2.6776 -1.82962 0
M  V30 11708 H 1077.09 -3.88509 -0.52942 0
M  V30 11709 H 1078.58 -3.88971 -1.51958 0
M  V30 11710 N 1079.01 -0.398486 -1.52479 0
M  V30 11711 C 1079.94 0.423498 -2.29627 0
M  V30 11712 C 1080.92 1.05547 -1.33394 0
M  V30 11713 O 1082.11 1.0665 -1.62294 0
M  V30 11714 C 1079.24 1.54612 -3.10986 0
M  V30 11715 C 1078.19 1.03971 -4.15179 0
M  V30 11716 C 1077.52 2.25512 -4.84818 0
M  V30 11717 C 1078.82 0.10121 -5.22202 0
M  V30 11718 H 1080.51 -0.220222 -2.98589 0
M  V30 11719 H 1078.06 -0.107355 -1.43599 0
M  V30 11720 H 1080.01 2.12806 -3.63719 0
M  V30 11721 H 1078.74 2.21756 -2.39774 0
M  V30 11722 H 1077.4 0.480251 -3.63441 0
M  V30 11723 H 1077.04 2.91187 -4.10145 0
M  V30 11724 H 1076.74 1.92285 -5.55248 0
M  V30 11725 H 1078.27 2.84331 -5.40359 0
M  V30 11726 H 1079.68 0.591617 -5.70239 0
M  V30 11727 H 1078.08 -0.141737 -5.99933 0
M  V30 11728 H 1079.15 -0.847216 -4.77441 0
M  V30 11729 N 1080.49 1.57075 -0.12858 0
M  V30 11730 C 1081.74 1.9581 0.527868 0
M  V30 11731 C 1082.07 1.01253 1.65715 0
M  V30 11732 O 1081.35 0.0514853 1.94432 0
M  V30 11733 C 1081.63 3.44406 1.05151 0
M  V30 11734 C 1081.48 4.49737 -0.0750113 0
M  V30 11735 C 1082.8 3.95069 1.9393 0
M  V30 11736 H 1079.92 0.711978 0.19041 0
M  V30 11737 H 1082.56 1.88879 -0.206081 0
M  V30 11738 H 1080.71 3.50443 1.67697 0
M  V30 11739 H 1082.38 4.55793 -0.710685 0
M  V30 11740 H 1080.63 4.27497 -0.736809 0
M  V30 11741 H 1081.3 5.50996 0.332779 0
M  V30 11742 H 1083.77 3.91395 1.41241 0
M  V30 11743 H 1082.65 4.99542 2.27484 0
M  V30 11744 H 1082.91 3.36329 2.86941 0
M  V30 11745 N 1081.97 -0.145205 1.5693 0
M  V30 11746 C 1082.9 -1.18096 2.01434 0
M  V30 11747 C 1083.88 -1.447 0.894204 0
M  V30 11748 O 1085.07 -1.55589 1.16214 0
M  V30 11749 C 1082.2 -2.51369 2.39647 0
M  V30 11750 C 1081.15 -2.39283 3.54863 0
M  V30 11751 C 1080.48 -3.77283 3.78895 0
M  V30 11752 C 1081.78 -1.8754 4.87469 0
M  V30 11753 H 1083.47 -0.810897 2.8821 0
M  V30 11754 H 1081.02 -0.388624 1.38657 0
M  V30 11755 H 1082.97 -3.24054 2.69382 0
M  V30 11756 H 1081.69 -2.90214 1.49811 0
M  V30 11757 H 1080.35 -1.6905 3.25296 0
M  V30 11758 H 1080 -4.13567 2.86307 0
M  V30 11759 H 1079.7 -3.70057 4.56433 0
M  V30 11760 H 1081.22 -4.51514 4.11057 0
M  V30 11761 H 1082.64 -2.50019 5.1591 0
M  V30 11762 H 1081.03 -1.912 5.68826 0
M  V30 11763 H 1082.1 -0.831194 4.77723 0
M  V30 11764 N 1083.45 -1.52049 -0.414609 0
M  V30 11765 C 1084.72 -1.56397 -1.17471 0
M  V30 11766 C 1085.1 -0.34171 -2.08316 0
M  V30 11767 O 1084.45 0.6718 -2.18401 0
M  V30 11768 C 1084.66 -2.88983 -1.95678 0
M  V30 11769 C 1086.01 -3.41781 -2.51935 0
M  V30 11770 O 1087.03 -2.90686 -2.05865 0
M  V30 11771 O 1085.89 -4.30989 -3.36022 0
M  V30 11772 H 1082.99 -0.62974 -0.536056 0
M  V30 11773 H 1085.53 -1.64374 -0.421834 0
M  V30 11774 H 1084.31 -3.69392 -1.29094 0
M  V30 11775 H 1083.93 -2.84274 -2.77983 0
M  V30 11776 N 1084.93 0.6715 -1.42579 0
M  V30 11777 C 1086.34 1.2522 -1.38481 0
M  V30 11778 C 1086.69 1.96038 -0.079719 0
M  V30 11779 O 1085.81 2.00203 0.821441 0
M  V30 11780 C 1086.41 2.27736 -2.50842 0
M  V30 11781 C 1084.97 2.81325 -2.50067 0
M  V30 11782 C 1084.11 1.55694 -2.29466 0
M  V30 11783 H 1087.06 0.464673 -1.51745 0
M  V30 11784 H 1087.09 3.09539 -2.21283 0
M  V30 11785 H 1086.6 1.76164 -3.45815 0
M  V30 11786 H 1084.7 3.37008 -1.58922 0
M  V30 11787 H 1084.81 3.30116 -3.47218 0
M  V30 11788 H 1083.18 1.82383 -1.77788 0
M  V30 11789 H 1083.96 1.06084 -3.26498 0
M  V30 11790 N 1086.4 1.28806 0.908124 0
M  V30 11791 C 1087.63 1.19153 1.69146 0
M  V30 11792 C 1088.05 -0.249056 1.8715 0
M  V30 11793 O 1087.4 -1.16772 1.40251 0
M  V30 11794 C 1087.45 1.89167 3.08055 0
M  V30 11795 O 1087.18 3.27599 2.90879 0
M  V30 11796 C 1088.68 1.85886 4.02444 0
M  V30 11797 H 1085.9 0.413359 0.528559 0
M  V30 11798 H 1088.44 1.7003 1.13622 0
M  V30 11799 H 1086.6 1.42146 3.60379 0
M  V30 11800 H 1087.01 3.62743 3.78837 0
M  V30 11801 H 1088.48 2.39454 4.97359 0
M  V30 11802 H 1088.96 0.832483 4.31238 0
M  V30 11803 H 1089.57 2.32612 3.5605 0
M  V30 11804 N 1087.88 -1.11734 1.11145 0
M  V30 11805 C 1089.29 -1.64928 0.874959 0
M  V30 11806 C 1089.64 -1.87012 -0.593375 0
M  V30 11807 O 1088.77 -1.60206 -1.45475 0
M  V30 11808 C 1089.36 -2.99608 1.58178 0
M  V30 11809 C 1087.92 -3.49723 1.39179 0
M  V30 11810 C 1087.07 -2.24595 1.62642 0
M  V30 11811 H 1090.02 -0.954154 1.26813 0
M  V30 11812 H 1090.04 -3.66434 1.02501 0
M  V30 11813 H 1089.55 -2.83504 2.65042 0
M  V30 11814 H 1087.65 -3.70998 0.345111 0
M  V30 11815 H 1087.77 -4.28711 2.13878 0
M  V30 11816 H 1086.13 -2.32067 1.04961 0
M  V30 11817 H 1086.91 -2.11036 2.70774 0
M  V30 11818 N 1089.36 -0.901303 -1.29284 0
M  V30 11819 C 1090.31 -0.370142 -2.29636 0
M  V30 11820 C 1091.3 0.53157 -1.60844 0
M  V30 11821 O 1092.51 0.414194 -1.7517 0
M  V30 11822 H 1088.88 -0.101072 -0.745177 0
M  V30 11823 H 1090.85 -1.22985 -2.71877 0
M  V30 11824 C 1089.6 0.385806 -3.45553 0
M  V30 11825 H 1088.93 -0.298818 -3.98682 0
M  V30 11826 H 1090.37 0.722299 -4.17802 0
M  V30 11827 C 1088.82 1.58907 -2.97069 0
M  V30 11828 O 1089.35 2.68835 -2.98481 0
M  V30 11829 N 1087.56 1.43178 -2.5288 0
M  V30 11830 H 1087.11 0.537467 -2.51931 0
M  V30 11831 H 1087.07 2.23819 -2.208 0
M  V30 11832 N 1090.84 1.42931 -0.663954 0
M  V30 11833 C 1091.78 2.3079 0.0210764 0
M  V30 11834 C 1092.75 1.45356 0.803796 0
M  V30 11835 O 1093.94 1.74207 0.778237 0
M  V30 11836 C 1091.08 3.31069 0.974023 0
M  V30 11837 C 1090.19 4.31598 0.186273 0
M  V30 11838 C 1089.33 5.18955 1.13399 0
M  V30 11839 C 1088.37 6.1117 0.337292 0
M  V30 11840 N 1087.5 6.91114 1.23715 0
M  V30 11841 H 1092.34 2.88819 -0.733995 0
M  V30 11842 H 1089.88 1.42274 -0.373711 0
M  V30 11843 H 1091.84 3.87727 1.54024 0
M  V30 11844 H 1090.47 2.74665 1.69585 0
M  V30 11845 H 1089.52 3.77147 -0.496402 0
M  V30 11846 H 1090.83 4.96919 -0.432753 0
M  V30 11847 H 1089.99 5.80292 1.77049 0
M  V30 11848 H 1088.73 4.53785 1.78691 0
M  V30 11849 H 1087.73 5.48911 -0.312492 0
M  V30 11850 H 1088.96 6.78386 -0.31138 0
M  V30 11851 H 1086.9 6.28583 1.87668 0
M  V30 11852 H 1086.82 7.52999 0.672946 0
M  V30 11853 H 1088.09 7.56948 1.86146 0
M  V30 11854 N 1092.32 0.406567 1.52266 0
M  V30 11855 C 1093.26 -0.420182 2.26943 0
M  V30 11856 C 1094.23 -1.04323 1.29251 0
M  V30 11857 O 1095.42 -1.06799 1.5811 0
M  V30 11858 C 1092.56 -1.5323 3.09216 0
M  V30 11859 C 1091.67 -0.930419 4.21862 0
M  V30 11860 C 1090.81 -2.01502 4.91498 0
M  V30 11861 C 1089.84 -1.38994 5.9611 0
M  V30 11862 N 1088.98 -2.41458 6.59274 0
M  V30 11863 H 1093.82 0.223066 2.97164 0
M  V30 11864 H 1091.36 0.121842 1.46595 0
M  V30 11865 H 1093.32 -2.18803 3.5522 0
M  V30 11866 H 1091.95 -2.14561 2.41171 0
M  V30 11867 H 1091 -0.163809 3.80047 0
M  V30 11868 H 1092.31 -0.433785 4.9691 0
M  V30 11869 H 1091.46 -2.74807 5.40894 0
M  V30 11870 H 1090.2 -2.5453 4.16012 0
M  V30 11871 H 1089.21 -0.642213 5.46036 0
M  V30 11872 H 1090.43 -0.867386 6.73538 0
M  V30 11873 H 1088.38 -2.93623 5.86619 0
M  V30 11874 H 1088.3 -1.96599 7.2999 0
M  V30 11875 H 1089.56 -3.14341 7.13309 0
M  V30 11876 N 1093.79 -1.57004 0.136909 0
M  V30 11877 C 1094.74 -2.16246 -0.806607 0
M  V30 11878 C 1095.71 -1.09246 -1.25118 0
M  V30 11879 O 1096.9 -1.3724 -1.32551 0
M  V30 11880 C 1094.04 -2.78031 -2.04433 0
M  V30 11881 C 1093.15 -3.99393 -1.64649 0
M  V30 11882 C 1092.28 -4.49208 -2.83524 0
M  V30 11883 C 1091.32 -5.63059 -2.40064 0
M  V30 11884 N 1090.46 -6.07537 -3.51913 0
M  V30 11885 H 1095.3 -2.9654 -0.294596 0
M  V30 11886 H 1092.84 -1.46491 -0.133705 0
M  V30 11887 H 1094.8 -3.11992 -2.76978 0
M  V30 11888 H 1093.43 -2.00398 -2.53062 0
M  V30 11889 H 1092.48 -3.71477 -0.819077 0
M  V30 11890 H 1093.79 -4.81904 -1.28723 0
M  V30 11891 H 1092.94 -4.85171 -3.64271 0
M  V30 11892 H 1091.68 -3.65683 -3.22688 0
M  V30 11893 H 1090.69 -5.26682 -1.57754 0
M  V30 11894 H 1091.91 -6.48362 -2.01997 0
M  V30 11895 H 1089.86 -5.2695 -3.90717 0
M  V30 11896 H 1089.78 -6.84949 -3.1997 0
M  V30 11897 H 1091.04 -6.48143 -4.33048 0
M  V30 11898 N 1095.27 0.136881 -1.57004 0
M  V30 11899 C 1096.2 1.19402 -1.95642 0
M  V30 11900 C 1097.22 1.38635 -0.853478 0
M  V30 11901 O 1098.41 1.38027 -1.13185 0
M  V30 11902 C 1095.51 2.55716 -2.22402 0
M  V30 11903 C 1094.68 2.57325 -3.53698 0
M  V30 11904 C 1093.74 3.75253 -3.68879 0
M  V30 11905 O 1092.76 3.5966 -4.41173 0
M  V30 11906 N 1093.97 4.93112 -3.06302 0
M  V30 11907 H 1096.73 0.865504 -2.8693 0
M  V30 11908 H 1094.29 0.326346 -1.58577 0
M  V30 11909 H 1096.28 3.33135 -2.29789 0
M  V30 11910 H 1094.85 2.80819 -1.37329 0
M  V30 11911 H 1094.07 1.65749 -3.5766 0
M  V30 11912 H 1095.36 2.55441 -4.40031 0
M  V30 11913 H 1094.76 5.08684 -2.47502 0
M  V30 11914 H 1093.32 5.68271 -3.19236 0
M  V30 11915 N 1096.75 1.52266 0.40654 0
M  V30 11916 C 1098 1.66699 1.15496 0
M  V30 11917 C 1098.33 0.397019 1.90098 0
M  V30 11918 O 1097.6 -0.604646 1.84863 0
M  V30 11919 C 1097.89 2.8907 2.14734 0
M  V30 11920 C 1097.74 4.26123 1.44012 0
M  V30 11921 C 1099.06 3.06966 3.15373 0
M  V30 11922 H 1096.18 0.606642 0.418515 0
M  V30 11923 H 1098.82 1.84826 0.440381 0
M  V30 11924 H 1096.97 2.73745 2.75673 0
M  V30 11925 H 1098.64 4.5318 0.861722 0
M  V30 11926 H 1096.89 4.27406 0.742064 0
M  V30 11927 H 1097.56 5.07799 2.16436 0
M  V30 11928 H 1100.03 3.21205 2.64512 0
M  V30 11929 H 1098.91 3.94097 3.82072 0
M  V30 11930 H 1099.17 2.20395 3.83247 0
M  V30 11931 N 1098.23 -0.663929 1.42933 0
M  V30 11932 C 1099.18 -1.77717 1.47259 0
M  V30 11933 C 1100.15 -1.62922 0.323387 0
M  V30 11934 O 1101.33 -1.83319 0.529021 0
M  V30 11935 C 1098.47 -3.15814 1.39124 0
M  V30 11936 C 1097.58 -3.4182 2.64165 0
M  V30 11937 C 1096.72 -4.69705 2.48094 0
M  V30 11938 C 1095.76 -4.88781 3.68456 0
M  V30 11939 N 1094.89 -6.07915 3.51261 0
M  V30 11940 H 1099.73 -1.73355 2.42388 0
M  V30 11941 H 1097.27 -0.846121 1.2033 0
M  V30 11942 H 1099.23 -3.95633 1.32403 0
M  V30 11943 H 1097.86 -3.19274 0.475829 0
M  V30 11944 H 1096.91 -2.56176 2.81208 0
M  V30 11945 H 1098.22 -3.51805 3.53602 0
M  V30 11946 H 1097.38 -5.57632 2.39021 0
M  V30 11947 H 1096.12 -4.62022 1.56164 0
M  V30 11948 H 1095.12 -3.99292 3.7795 0
M  V30 11949 H 1096.35 -4.98301 4.61381 0
M  V30 11950 H 1094.29 -6.01384 2.62057 0
M  V30 11951 H 1094.21 -6.1881 4.34293 0
M  V30 11952 H 1095.48 -6.98492 3.4602 0
M  V30 11953 N 1099.71 -1.29285 -0.901281 0
M  V30 11954 C 1100.94 -1.19874 -1.68267 0
M  V30 11955 C 1101.34 0.243387 -1.87628 0
M  V30 11956 O 1100.69 1.17497 -1.41209 0
M  V30 11957 C 1100.75 -1.83907 -3.08899 0
M  V30 11958 C 1100.41 -3.33198 -3.12775 0
M  V30 11959 C 1101.41 -4.29446 -2.9304 0
M  V30 11960 C 1099.1 -3.7437 -3.34892 0
M  V30 11961 C 1101.09 -5.64842 -2.95352 0
M  V30 11962 C 1098.78 -5.09888 -3.36834 0
M  V30 11963 C 1099.77 -6.04934 -3.17087 0
M  V30 11964 O 1099.46 -7.37979 -3.18815 0
M  V30 11965 H 1099.19 -0.416601 -0.532372 0
M  V30 11966 H 1101.75 -1.71154 -1.13558 0
M  V30 11967 H 1099.98 -1.27136 -3.65203 0
M  V30 11968 H 1101.67 -1.6884 -3.69118 0
M  V30 11969 H 1102.43 -3.9897 -2.75767 0
M  V30 11970 H 1098.31 -3.00846 -3.49303 0
M  V30 11971 H 1101.86 -6.39004 -2.79856 0
M  V30 11972 H 1097.75 -5.40009 -3.53638 0
M  V30 11973 H 1098.52 -7.46763 -3.35092 0
M  V30 11974 N 1101.18 1.11143 -1.11736 0
M  V30 11975 C 1102.11 2.19339 -0.800795 0
M  V30 11976 C 1103.1 1.68508 0.23221 0
M  V30 11977 O 1104.28 1.93967 0.0950063 0
M  V30 11978 C 1101.41 3.46424 -0.246579 0
M  V30 11979 C 1100.36 4.10487 -1.21181 0
M  V30 11980 C 1099.69 5.32183 -0.518158 0
M  V30 11981 C 1100.99 4.55052 -2.56368 0
M  V30 11982 H 1102.68 2.46077 -1.70548 0
M  V30 11983 H 1100.23 1.18271 -0.821454 0
M  V30 11984 H 1102.18 4.21398 -0.0128889 0
M  V30 11985 H 1100.91 3.19154 0.693415 0
M  V30 11986 H 1099.57 3.3751 -1.43118 0
M  V30 11987 H 1099.21 5.01187 0.426742 0
M  V30 11988 H 1098.91 5.75997 -1.16196 0
M  V30 11989 H 1100.44 6.09895 -0.293333 0
M  V30 11990 H 1101.85 5.21335 -2.38501 0
M  V30 11991 H 1100.25 5.0969 -3.16758 0
M  V30 11992 H 1101.32 3.68343 -3.1536 0
M  V30 11993 N 1102.66 0.908147 1.28804 0
M  V30 11994 C 1103.91 0.53734 1.94826 0
M  V30 11995 C 1104.23 -0.920962 1.71882 0
M  V30 11996 O 1103.5 -1.65043 1.05534 0
M  V30 11997 H 1102.08 0.195729 0.720902 0
M  V30 11998 H 1104.74 1.15628 1.56895 0
M  V30 11999 H 1103.84 0.727052 3.03513 0
M  V30 12000 N 1104.14 -1.42577 0.671525 0
M  V30 12001 C 1105.07 -2.33499 0.00506984 0
M  V30 12002 C 1106.05 -1.50497 -0.792763 0
M  V30 12003 O 1107.24 -1.79109 -0.750574 0
M  V30 12004 C 1104.37 -3.34077 -0.949194 0
M  V30 12005 C 1103.32 -4.27208 -0.260187 0
M  V30 12006 C 1102.65 -5.17968 -1.32716 0
M  V30 12007 C 1103.95 -5.15192 0.858772 0
M  V30 12008 H 1105.64 -2.89477 0.764407 0
M  V30 12009 H 1103.19 -1.39191 0.369043 0
M  V30 12010 H 1105.14 -3.96594 -1.42448 0
M  V30 12011 H 1103.86 -2.76396 -1.73991 0
M  V30 12012 H 1102.52 -3.66082 0.194834 0
M  V30 12013 H 1102.17 -4.56615 -2.10979 0
M  V30 12014 H 1101.87 -5.81104 -0.871293 0
M  V30 12015 H 1103.39 -5.83359 -1.80345 0
M  V30 12016 H 1104.81 -5.71412 0.464844 0
M  V30 12017 H 1103.21 -5.87144 1.24023 0
M  V30 12018 H 1104.28 -4.53787 1.70895 0
M  V30 12019 N 1105.62 -0.414636 -1.52048 0
M  V30 12020 C 1106.9 0.218172 -1.94379 0
M  V30 12021 C 1107.28 1.62133 -1.35189 0
M  V30 12022 O 1106.62 2.22271 -0.529877 0
M  V30 12023 C 1106.83 0.218932 -3.48313 0
M  V30 12024 C 1108.18 0.435604 -4.2236 0
M  V30 12025 O 1109.21 0.298049 -3.54951 0
M  V30 12026 O 1108.06 0.707217 -5.41905 0
M  V30 12027 H 1105.16 0.142173 -0.814688 0
M  V30 12028 H 1107.7 -0.470977 -1.63033 0
M  V30 12029 H 1106.48 -0.76292 -3.83791 0
M  V30 12030 H 1106.1 0.951949 -3.86036 0
M  V30 12031 N 1107.1 1.56929 -0.145233 0
M  V30 12032 C 1108.32 2.00864 0.516564 0
M  V30 12033 C 1108.75 1.02466 1.57741 0
M  V30 12034 O 1108.1 0.000145439 1.813 0
M  V30 12035 C 1108.15 3.43552 1.09563 0
M  V30 12036 O 1107.26 3.4815 2.21055 0
M  V30 12037 H 1106.6 0.651835 0.126521 0
M  V30 12038 H 1109.13 2.0317 -0.241445 0
M  V30 12039 H 1109.14 3.82316 1.42473 0
M  V30 12040 H 1107.81 4.14677 0.318749 0
M  V30 12041 H 1106.39 3.21228 1.89387 0
M  V30 12042 N 1108.58 -0.128553 1.57075 0
M  V30 12043 C 1109.82 -0.836536 1.83535 0
M  V30 12044 C 1110.14 -1.81491 0.7294 0
M  V30 12045 O 1111.34 -2.56838 0.880128 0
M  V30 12046 C 1109.8 -1.53836 3.25365 0
M  V30 12047 C 1109.41 -0.601454 4.43944 0
M  V30 12048 C 1111.15 -2.23204 3.61082 0
M  V30 12049 C 1109.06 -1.30596 5.768 0
M  V30 12050 H 1107.99 -0.316142 0.684522 0
M  V30 12051 H 1110.64 -0.0892555 1.83283 0
M  V30 12052 H 1109.02 -2.33192 3.20058 0
M  V30 12053 H 1110.2 0.158209 4.60528 0
M  V30 12054 H 1108.51 -0.0152393 4.16397 0
M  V30 12055 H 1111.11 -2.76585 4.57608 0
M  V30 12056 H 1111.45 -3.0056 2.88044 0
M  V30 12057 H 1111.98 -1.50746 3.68131 0
M  V30 12058 H 1108.72 -0.573874 6.52983 0
M  V30 12059 H 1108.24 -2.03787 5.6412 0
M  V30 12060 H 1109.92 -1.8418 6.20231 0
M  V30 12061 N 1110.05 -1.5248 -0.398459 0
M  V30 12062 C 1111.02 -1.75949 -1.46883 0
M  V30 12063 C 1112.02 -0.629431 -1.47969 0
M  V30 12064 O 1113.21 -0.897407 -1.49306 0
M  V30 12065 C 1110.34 -1.85162 -2.8623 0
M  V30 12066 H 1111.53 -2.71513 -1.2736 0
M  V30 12067 H 1109.08 -1.43058 -0.629619 0
M  V30 12068 H 1109.82 -0.915505 -3.11109 0
M  V30 12069 H 1109.6 -2.67326 -2.86844 0
M  V30 12070 H 1111.09 -2.05025 -3.63805 0
M  V30 12071 N 1111.53 0.65634 -1.43283 0
M  V30 12072 C 1112.78 1.41837 -1.44949 0
M  V30 12073 C 1113.11 1.94065 -0.0723212 0
M  V30 12074 O 1112.39 1.72092 0.906346 0
M  V30 12075 C 1112.67 2.60206 -2.48927 0
M  V30 12076 C 1112.52 2.1349 -3.95907 0
M  V30 12077 C 1113.84 3.62421 -2.49678 0
M  V30 12078 H 1110.96 0.514398 -0.527792 0
M  V30 12079 H 1113.6 0.74435 -1.74813 0
M  V30 12080 H 1111.75 3.17708 -2.23592 0
M  V30 12081 H 1113.42 1.61012 -4.32288 0
M  V30 12082 H 1111.67 1.4489 -4.08888 0
M  V30 12083 H 1112.34 2.98596 -4.64268 0
M  V30 12084 H 1114.81 3.14671 -2.72252 0
M  V30 12085 H 1113.69 4.42798 -3.24378 0
M  V30 12086 H 1113.95 4.14802 -1.52944 0
M  V30 12087 N 1113.01 1.29761 0.894412 0
M  V30 12088 C 1114.26 1.17806 1.64214 0
M  V30 12089 C 1114.58 -0.269588 1.93127 0
M  V30 12090 O 1113.85 -1.18352 1.56107 0
M  V30 12091 H 1112.43 0.433002 0.608702 0
M  V30 12092 H 1115.09 1.6276 1.07216 0
M  V30 12093 H 1114.19 1.73201 2.5963 0
M  V30 12094 N 1114.49 -1.10549 1.12324 0
M  V30 12095 C 1115.74 -1.82124 0.876083 0
M  V30 12096 C 1116.06 -1.85547 -0.599761 0
M  V30 12097 O 1115.33 -1.33269 -1.43584 0
M  V30 12098 H 1113.91 -0.674455 0.321122 0
M  V30 12099 H 1116.57 -1.33766 1.41748 0
M  V30 12100 H 1115.66 -2.85688 1.25653 0
M  V30 12101 N 1115.97 -0.914965 -1.28321 0
M  V30 12102 C 1117.19 -0.564023 -1.99583 0
M  V30 12103 C 1117.62 0.847821 -1.6791 0
M  V30 12104 O 1116.97 1.56682 -0.912171 0
M  V30 12105 C 1117.02 -0.781368 -3.52033 0
M  V30 12106 O 1116.13 0.159072 -4.12093 0
M  V30 12107 H 1115.47 -0.218565 -0.626997 0
M  V30 12108 H 1118 -1.23074 -1.63444 0
M  V30 12109 H 1118.01 -0.691946 -4.0209 0
M  V30 12110 H 1116.68 -1.81059 -3.7442 0
M  V30 12111 H 1115.26 0.0208145 -3.72894 0
M  V30 12112 N 1117.44 1.42219 -0.679077 0
M  V30 12113 C 1118.86 1.55737 -0.349034 0
M  V30 12114 C 1119.06 1.65789 1.14527 0
M  V30 12115 O 1118.12 1.62717 1.93079 0
M  V30 12116 C 1119.43 2.80516 -1.0831 0
M  V30 12117 C 1120.98 2.94294 -1.06584 0
M  V30 12118 C 1121.45 4.2194 -1.78132 0
M  V30 12119 N 1122.94 4.28861 -1.75021 0
M  V30 12120 C 1123.68 5.26453 -2.27234 0
M  V30 12121 N 1123.17 6.30171 -2.87847 0
M  V30 12122 N 1124.97 5.1828 -2.17584 0
M  V30 12123 H 1117.12 1.33939 -1.64846 0
M  V30 12124 H 1119.38 0.645029 -0.694725 0
M  V30 12125 H 1119.09 2.79241 -2.13816 0
M  V30 12126 H 1118.96 3.71539 -0.651069 0
M  V30 12127 H 1121.35 2.95094 -0.0191061 0
M  V30 12128 H 1121.43 2.04491 -1.53679 0
M  V30 12129 H 1121.07 4.21901 -2.82776 0
M  V30 12130 H 1121 5.10685 -1.28483 0
M  V30 12131 H 1123.49 3.54537 -1.30814 0
M  V30 12132 H 1123.81 7.01 -3.25298 0
M  V30 12133 H 1122.15 6.30721 -2.91918 0
M  V30 12134 H 1125.34 4.36172 -1.69916 0
M  V30 12135 H 1125.52 5.94172 -2.58581 0
M  V30 12136 N 1118.92 0.422693 1.51826 0
M  V30 12137 C 1120.17 -0.148861 2.02253 0
M  V30 12138 C 1120.5 -1.43629 1.30707 0
M  V30 12139 O 1119.78 -1.89967 0.417482 0
M  V30 12140 C 1120.06 -0.382672 3.58061 0
M  V30 12141 C 1119.91 0.922386 4.40241 0
M  V30 12142 C 1121.23 -1.1589 4.24567 0
M  V30 12143 H 1118.35 -0.0526279 0.735119 0
M  V30 12144 H 1120.99 0.558821 1.81596 0
M  V30 12145 H 1119.14 -0.985495 3.75793 0
M  V30 12146 H 1120.81 1.55806 4.34191 0
M  V30 12147 H 1119.06 1.53032 4.05911 0
M  V30 12148 H 1119.73 0.713012 5.47376 0
M  V30 12149 H 1122.2 -0.648415 4.11017 0
M  V30 12150 H 1121.08 -1.29125 5.33496 0
M  V30 12151 H 1121.34 -2.18315 3.84436 0
M  V30 12152 N 1120.4 -1.5685 0.153553 0
M  V30 12153 C 1121.68 -1.8796 -0.541328 0
M  V30 12154 C 1122.06 -1.06059 -1.82523 0
M  V30 12155 O 1121.4 -0.149295 -2.28012 0
M  V30 12156 C 1121.61 -3.39697 -0.800442 0
M  V30 12157 C 1122.96 -4.09057 -1.13832 0
M  V30 12158 O 1123.99 -3.44913 -0.889578 0
M  V30 12159 O 1122.85 -5.22347 -1.60673 0
M  V30 12160 H 1119.94 -0.779268 -0.276895 0
M  V30 12161 H 1122.49 -1.68626 0.190657 0
M  V30 12162 H 1121.26 -3.91151 0.107935 0
M  V30 12163 H 1120.88 -3.64582 -1.58638 0
M  V30 12164 N 1121.88 0.120221 -1.57141 0
M  V30 12165 C 1123.13 0.826586 -1.84423 0
M  V30 12166 C 1123.45 1.80473 -0.738553 0
M  V30 12167 O 1122.72 1.94454 0.23755 0
M  V30 12168 H 1121.3 0.308246 -0.680436 0
M  V30 12169 H 1123.96 0.107835 -1.94601 0
M  V30 12170 H 1123.05 1.37256 -2.80298 0
M  V30 12171 N 1123.36 1.52689 0.390367 0
M  V30 12172 C 1124.32 1.76726 1.45947 0
M  V30 12173 C 1125.32 0.637269 1.47633 0
M  V30 12174 O 1126.51 0.905312 1.48828 0
M  V30 12175 C 1123.64 1.86678 2.85244 0
M  V30 12176 H 1124.83 2.72185 1.25918 0
M  V30 12177 H 1122.39 1.4339 0.622023 0
M  V30 12178 H 1123.12 0.931991 3.10619 0
M  V30 12179 H 1122.91 2.68843 2.85422 0
M  V30 12180 H 1124.4 2.06952 3.62713 0
M  V30 12181 N 1124.83 -0.648732 1.43629 0
M  V30 12182 C 1126.25 -0.964917 1.27128 0
M  V30 12183 C 1126.45 -2.00561 0.194251 0
M  V30 12184 O 1125.51 -2.48884 -0.42581 0
M  V30 12185 C 1126.82 -1.44491 2.6371 0
M  V30 12186 C 1128.37 -1.56133 2.71278 0
M  V30 12187 C 1128.84 -2.07521 4.08288 0
M  V30 12188 N 1130.33 -2.14817 4.10375 0
M  V30 12189 C 1131.07 -2.55712 5.13224 0
M  V30 12190 N 1130.56 -2.9587 6.26444 0
M  V30 12191 N 1132.36 -2.55691 5.00578 0
M  V30 12192 H 1124.51 0.0398357 2.12363 0
M  V30 12193 H 1126.77 -0.0447705 0.946942 0
M  V30 12194 H 1126.48 -0.754616 3.43509 0
M  V30 12195 H 1126.35 -2.41914 2.89409 0
M  V30 12196 H 1128.74 -2.24263 1.91808 0
M  V30 12197 H 1128.82 -0.571314 2.49338 0
M  V30 12198 H 1128.46 -1.39992 4.88226 0
M  V30 12199 H 1128.39 -3.07362 4.27594 0
M  V30 12200 H 1130.88 -1.86538 3.28652 0
M  V30 12201 H 1131.2 -3.25837 7.0075 0
M  V30 12202 H 1129.54 -2.93664 6.2991 0
M  V30 12203 H 1132.73 -2.23697 4.1119 0
M  V30 12204 H 1132.91 -2.87239 5.80859 0
M  V30 12205 N 1126.31 -1.30234 -0.887518 0
M  V30 12206 C 1127.72 -1.17048 -1.45453 0
M  V30 12207 C 1128.07 0.229793 -1.9485 0
M  V30 12208 O 1127.2 1.12628 -1.84781 0
M  V30 12209 C 1127.79 -2.11876 -2.64375 0
M  V30 12210 C 1126.35 -2.02676 -3.17174 0
M  V30 12211 C 1125.5 -2.02104 -1.89866 0
M  V30 12212 H 1128.45 -1.42541 -0.697694 0
M  V30 12213 H 1128.47 -1.69811 -3.40506 0
M  V30 12214 H 1127.98 -3.13781 -2.28392 0
M  V30 12215 H 1126.09 -1.03904 -3.57819 0
M  V30 12216 H 1126.2 -2.90939 -3.80646 0
M  V30 12217 H 1124.56 -1.4687 -2.0809 0
M  V30 12218 H 1125.35 -3.05735 -1.56145 0
M  V30 12219 N 1127.79 1.09952 -1.12909 0
M  V30 12220 C 1129.03 1.83635 -0.897646 0
M  V30 12221 C 1129.39 1.83462 0.566179 0
M  V30 12222 O 1130.6 2.52748 0.914977 0
M  V30 12223 C 1128.87 3.26095 -1.46277 0
M  V30 12224 S 1130.43 4.16846 -1.37059 0
M  V30 12225 H 1127.24 0.633045 -0.32369 0
M  V30 12226 H 1129.85 1.32275 -1.43957 0
M  V30 12227 H 1128.55 3.23793 -2.52163 0
M  V30 12228 H 1128.08 3.82526 -0.918549 0
M  V30 12229 H 1130.1 4.94996 -0.345399 0
M  V30 12230 N 1129.27 0.921757 1.27833 0
M  V30 12231 C 1130.5 0.575202 1.98744 0
M  V30 12232 C 1130.91 -0.845405 1.68815 0
M  V30 12233 O 1130.27 -1.56106 0.94536 0
M  V30 12234 C 1130.32 0.784389 3.52888 0
M  V30 12235 O 1130.04 2.1491 3.81766 0
M  V30 12236 C 1131.54 0.445744 4.41053 0
M  V30 12237 H 1128.76 0.218525 0.634419 0
M  V30 12238 H 1131.31 1.23715 1.62834 0
M  V30 12239 H 1129.46 0.169323 3.8703 0
M  V30 12240 H 1129.87 2.19469 4.76375 0
M  V30 12241 H 1131.35 0.64284 5.48244 0
M  V30 12242 H 1131.83 -0.618433 4.34824 0
M  V30 12243 H 1132.43 1.03869 4.12421 0
M  V30 12244 N 1130.75 -1.41857 0.686609 0
M  V30 12245 C 1132.16 -1.84439 0.289662 0
M  V30 12246 C 1132.51 -1.57462 -1.17047 0
M  V30 12247 O 1131.63 -1.04046 -1.89745 0
M  V30 12248 C 1132.23 -3.34802 0.518948 0
M  V30 12249 C 1130.79 -3.75988 0.176007 0
M  V30 12250 C 1129.93 -2.65339 0.805632 0
M  V30 12251 H 1132.89 -1.31536 0.88792 0
M  V30 12252 H 1132.91 -3.79833 -0.225209 0
M  V30 12253 H 1132.42 -3.54405 1.58173 0
M  V30 12254 H 1130.52 -3.61989 -0.882865 0
M  V30 12255 H 1130.63 -4.75009 0.624772 0
M  V30 12256 H 1129 -2.53605 0.235966 0
M  V30 12257 H 1129.78 -2.87762 1.8721 0
M  V30 12258 N 1132.22 -0.430739 -1.51599 0
M  V30 12259 C 1133.47 0.137657 -2.01631 0
M  V30 12260 C 1133.79 1.43787 -1.31721 0
M  V30 12261 O 1133.06 1.90668 -0.449717 0
M  V30 12262 H 1131.64 0.0538611 -0.745056 0
M  V30 12263 H 1134.31 -0.571935 -1.86319 0
M  V30 12264 H 1133.4 0.318305 -3.10473 0
M  V30 12265 N 1133.7 1.56767 -0.161869 0
M  V30 12266 C 1134.93 2.01401 0.49523 0
M  V30 12267 C 1135.35 1.04133 1.56646 0
M  V30 12268 O 1134.71 0.0193747 1.8129 0
M  V30 12269 C 1134.76 3.44695 1.05913 0
M  V30 12270 O 1133.86 3.50475 2.1735 0
M  V30 12271 H 1133.2 0.65314 0.1196 0
M  V30 12272 H 1135.73 2.02903 -0.26298 0
M  V30 12273 H 1135.74 3.83805 1.3841 0
M  V30 12274 H 1134.42 4.14991 0.274749 0
M  V30 12275 H 1133 3.23218 1.85969 0
M  V30 12276 N 1135.18 -0.111886 1.57202 0
M  V30 12277 C 1136.41 -0.832407 1.89416 0
M  V30 12278 C 1136.82 -1.73096 0.753861 0
M  V30 12279 O 1136.18 -1.80416 -0.274992 0
M  V30 12280 C 1136.23 -1.65988 3.21139 0
M  V30 12281 O 1135.95 -0.797485 4.3078 0
M  V30 12282 C 1137.45 -2.48493 3.67105 0
M  V30 12283 H 1134.67 -0.238919 0.627024 0
M  V30 12284 H 1137.22 -0.0941456 2.04283 0
M  V30 12285 H 1135.37 -2.35082 3.07921 0
M  V30 12286 H 1135.79 -1.36892 5.06321 0
M  V30 12287 H 1137.26 -3.02072 4.62014 0
M  V30 12288 H 1137.74 -3.26182 2.94112 0
M  V30 12289 H 1138.34 -1.84628 3.83135 0
M  V30 12290 N 1136.66 -1.52894 -0.382264 0
M  V30 12291 C 1137.62 -1.77497 -1.45008 0
M  V30 12292 C 1138.62 -0.64509 -1.47293 0
M  V30 12293 O 1139.81 -0.913192 -1.48346 0
M  V30 12294 C 1136.94 -1.88188 -2.8425 0
M  V30 12295 H 1138.14 -2.72849 -1.24473 0
M  V30 12296 H 1135.69 -1.43717 -0.61441 0
M  V30 12297 H 1136.42 -0.948451 -3.10121 0
M  V30 12298 H 1136.21 -2.70353 -2.83992 0
M  V30 12299 H 1137.7 -2.08873 -3.6161 0
M  V30 12300 N 1138.14 0.641106 -1.43971 0
M  V30 12301 C 1139.55 0.958161 -1.27638 0
M  V30 12302 C 1139.75 2.00456 -0.204885 0
M  V30 12303 O 1138.81 2.49106 0.412606 0
M  V30 12304 C 1140.12 1.43091 -2.64472 0
M  V30 12305 C 1141.67 1.54692 -2.72102 0
M  V30 12306 C 1142.15 2.05353 -4.09382 0
M  V30 12307 N 1143.64 2.12638 -4.11509 0
M  V30 12308 C 1144.37 2.52987 -5.14573 0
M  V30 12309 N 1143.87 2.92544 -6.28005 0
M  V30 12310 N 1145.66 2.53033 -5.01927 0
M  V30 12311 H 1137.81 -0.0510973 -2.12339 0
M  V30 12312 H 1140.07 0.039748 -0.947166 0
M  V30 12313 H 1139.78 0.736389 -3.43904 0
M  V30 12314 H 1139.65 2.40375 -2.90688 0
M  V30 12315 H 1142.04 2.23242 -1.92994 0
M  V30 12316 H 1142.12 0.558083 -2.49638 0
M  V30 12317 H 1141.77 1.37401 -4.88962 0
M  V30 12318 H 1141.7 3.0509 -4.29218 0
M  V30 12319 H 1144.19 1.84792 -3.29636 0
M  V30 12320 H 1144.5 3.22116 -7.02468 0
M  V30 12321 H 1142.85 2.90319 -6.31458 0
M  V30 12322 H 1146.04 2.21514 -4.1237 0
M  V30 12323 H 1146.21 2.84155 -5.82375 0
M  V30 12324 N 1139.62 1.30703 0.880598 0
M  V30 12325 C 1140.58 1.17429 1.96832 0
M  V30 12326 C 1141.58 0.104305 1.60461 0
M  V30 12327 O 1142.77 0.352758 1.70591 0
M  V30 12328 C 1139.9 0.800099 3.31378 0
M  V30 12329 H 1141.09 2.14069 2.10034 0
M  V30 12330 H 1138.65 1.14162 1.06755 0
M  V30 12331 H 1139.38 -0.165606 3.23877 0
M  V30 12332 H 1139.17 1.57341 3.59146 0
M  V30 12333 H 1140.66 0.730826 4.11155 0
M  V30 12334 O 1141.13 -1.01687 1.25467 0
M  V30 12335 H 1141.82 -1.63523 1.03826 0
M  V30 END ATOM
M  V30 BEGIN BOND
M  V30 END BOND
M  V30 END CTAB
M  END
$$$$
