drugbank_target|Q9Y5R2 Matrix metalloproteinase-24 (DB00786)
 OpenBabel12092120373D

  0  0  0     0  0            999 V3000
M  V30 BEGIN CTAB
M  V30 COUNTS 10255 10430 0 0 0
M  V30 BEGIN ATOM
M  V30 1 H -0.908 1.98254 -0.117106 0
M  V30 2 N 0 1.576 0 0
M  V30 3 C 0.933 2.03868 1.02534 0
M  V30 4 C 1.911 0.928543 1.3348 0
M  V30 5 O 3.095 1.19667 1.45644 0
M  V30 6 C 0.222 2.43627 2.35294 0
M  V30 7 C -0.732 3.65373 2.2001 0
M  V30 8 S 0.101 5.13292 1.52614 0
M  V30 9 C 1.257 5.56322 2.86805 0
M  V30 10 H 1.49 2.90518 0.631377 0
M  V30 11 H -0.977 1.52953 0.210867 0
M  V30 12 H 0.981 2.67203 3.11629 0
M  V30 13 H -0.358 1.57376 2.7183 0
M  V30 14 H -1.165 3.90944 3.18086 0
M  V30 15 H -1.563 3.418 1.51819 0
M  V30 16 H 0.729 5.58782 3.83104 0
M  V30 17 H 1.672 6.56266 2.65933 0
M  V30 18 H 2.08 4.83886 2.90714 0
M  V30 19 N 1.4781 -0.272755 1.55222 0
M  V30 20 C 2.8891 -0.84378 1.66545 0
M  V30 21 C 3.2401 -1.87035 0.592641 0
M  V30 22 O 2.3651 -2.14761 -0.265818 0
M  V30 23 C 2.9601 -1.53723 3.01918 0
M  V30 24 C 1.5191 -2.05628 3.15268 0
M  V30 25 C 0.6661 -0.898424 2.62343 0
M  V30 26 H 3.6171 -0.0490998 1.58624 0
M  V30 27 H 3.6381 -2.40421 2.94921 0
M  V30 28 H 3.1501 -0.78983 3.79978 0
M  V30 29 H 1.2511 -2.83329 2.41983 0
M  V30 30 H 1.3641 -2.27142 4.21833 0
M  V30 31 H -0.2719 -1.29186 2.19506 0
M  V30 32 H 0.5111 -0.164528 3.42906 0
M  V30 33 N 2.9562 -1.48159 -0.537278 0
M  V30 34 C 4.3722 -1.34118 -0.865129 0
M  V30 35 C 4.5722 -0.346678 -1.98495 0
M  V30 36 O 3.6282 0.234715 -2.51407 0
M  V30 37 C 4.9412 -2.73963 -1.23954 0
M  V30 38 C 6.4892 -2.82397 -1.34984 0
M  V30 39 C 6.9642 -4.22928 -1.75772 0
M  V30 40 N 8.4552 -4.25566 -1.82887 0
M  V30 41 C 9.1902 -5.31235 -2.15817 0
M  V30 42 N 8.6862 -6.47189 -2.47222 0
M  V30 43 N 10.4792 -5.18624 -2.16761 0
M  V30 44 H 2.6302 -2.1144 0.201715 0
M  V30 45 H 4.8932 -0.947598 0.0275949 0
M  V30 46 H 4.5992 -3.48264 -0.490381 0
M  V30 47 H 4.4732 -3.0702 -2.19132 0
M  V30 48 H 6.8602 -2.08356 -2.08978 0
M  V30 49 H 6.9412 -2.5297 -0.379448 0
M  V30 50 H 6.5852 -4.97482 -1.02341 0
M  V30 51 H 6.5152 -4.49794 -2.73848 0
M  V30 52 H 9.0062 -3.41924 -1.60924 0
M  V30 53 H 9.3192 -7.23564 -2.71433 0
M  V30 54 H 7.6642 -6.50476 -2.44757 0
M  V30 55 H 10.8552 -4.27056 -1.91679 0
M  V30 56 H 11.0282 -6.01078 -2.42093 0
M  V30 57 N 4.4343 0.785586 -1.36625 0
M  V30 58 C 5.6593 1.57963 -1.34397 0
M  V30 59 C 6.0843 1.87964 0.071526 0
M  V30 60 O 5.4423 1.48182 1.0446 0
M  V30 61 C 5.4903 2.87511 -2.17646 0
M  V30 62 O 4.5943 3.81281 -1.57158 0
M  V30 63 H 3.9353 0.479014 -0.459828 0
M  V30 64 H 6.4653 0.973411 -1.79961 0
M  V30 65 H 6.4753 3.36745 -2.30362 0
M  V30 66 H 5.1503 2.65002 -3.20541 0
M  V30 67 H 3.7273 3.39885 -1.53403 0
M  V30 68 N 5.9124 1.20967 1.01018 0
M  V30 69 C 7.3284 0.965905 1.27053 0
M  V30 70 C 7.5284 -0.350785 1.98423 0
M  V30 71 O 6.5844 -1.07773 2.28344 0
M  V30 72 C 7.8974 2.15294 2.09926 0
M  V30 73 C 9.4454 2.19463 2.23171 0
M  V30 74 C 9.9204 3.3767 3.09424 0
M  V30 75 N 11.4114 3.37724 3.17012 0
M  V30 76 C 12.1464 4.25837 3.83993 0
M  V30 77 N 11.6424 5.24138 4.53047 0
M  V30 78 N 13.4354 4.1366 3.80581 0
M  V30 79 H 5.5864 2.0565 0.531194 0
M  V30 80 H 7.8494 0.90024 0.297106 0
M  V30 81 H 7.5554 3.10684 1.64828 0
M  V30 82 H 7.4294 2.13923 3.10672 0
M  V30 83 H 9.8164 1.24632 2.6749 0
M  V30 84 H 9.8974 2.2488 1.21912 0
M  V30 85 H 9.5414 4.32791 2.65808 0
M  V30 86 H 9.4714 3.29491 4.10784 0
M  V30 87 H 11.9624 2.6658 2.6785 0
M  V30 88 H 12.2754 5.87684 5.01844 0
M  V30 89 H 10.6204 5.28068 4.5185 0
M  V30 90 H 13.8114 3.36127 3.25785 0
M  V30 91 H 13.9844 4.82538 4.32505 0
M  V30 92 N 7.3905 -1.2043 1.01659 0
M  V30 93 C 8.6385 -1.89423 0.704522 0
M  V30 94 C 8.9595 -1.79231 -0.768197 0
M  V30 95 O 8.2295 -1.1947 -1.55254 0
M  V30 96 H 6.8095 -0.701178 0.257602 0
M  V30 97 H 9.4715 -1.4626 1.28818 0
M  V30 98 H 8.5675 -2.96052 0.987916 0
M  V30 99 N 8.8686 -0.792821 -1.36206 0
M  V30 100 C 10.1166 -0.366062 -1.98757 0
M  V30 101 C 10.4376 1.0668 -1.63231 0
M  V30 102 O 9.7076 1.73587 -0.907978 0
M  V30 103 H 8.2876 -0.132364 -0.735179 0
M  V30 104 H 10.9496 -1.01562 -1.66347 0
M  V30 105 H 10.0456 -0.460638 -3.08682 0
M  V30 106 N 10.3467 1.47872 -0.545128 0
M  V30 107 C 11.7627 1.5829 -0.204032 0
M  V30 108 C 11.9627 1.54529 1.29317 0
M  V30 109 O 11.0187 1.44232 2.07252 0
M  V30 110 C 12.3317 2.89304 -0.819987 0
M  V30 111 C 13.8797 3.02864 -0.790105 0
M  V30 112 C 14.3547 4.3656 -1.38491 0
M  V30 113 N 15.8457 4.43165 -1.34755 0
M  V30 114 C 16.5807 5.45153 -1.77753 0
M  V30 115 N 16.0767 6.54016 -2.2855 0
M  V30 116 N 17.8697 5.36125 -1.68897 0
M  V30 117 H 10.0207 1.4856 -1.51802 0
M  V30 118 H 12.2837 0.706305 -0.632327 0
M  V30 119 H 11.9897 2.97757 -1.87173 0
M  V30 120 H 11.8637 3.75957 -0.305915 0
M  V30 121 H 14.2507 2.94014 0.252913 0
M  V30 122 H 14.3317 2.17782 -1.34181 0
M  V30 123 H 13.9757 4.46164 -2.42693 0
M  V30 124 H 13.9057 5.20353 -0.808754 0
M  V30 125 H 16.3967 3.65083 -0.975855 0
M  V30 126 H 16.7097 7.27994 -2.59314 0
M  V30 127 H 15.0547 6.54938 -2.32553 0
M  V30 128 H 18.2457 4.49975 -1.28998 0
M  V30 129 H 18.4187 6.15472 -2.02726 0
M  V30 130 N 11.8248 0.280983 1.55075 0
M  V30 131 C 12.7878 -0.590896 2.21452 0
M  V30 132 C 13.7878 -1.07682 1.19421 0
M  V30 133 O 14.9778 -0.97605 1.44288 0
M  V30 134 C 12.1098 -1.81587 2.88511 0
M  V30 135 H 13.3028 -0.0112554 2.99898 0
M  V30 136 H 10.8558 0.0316438 1.56268 0
M  V30 137 H 11.5908 -2.43587 2.14093 0
M  V30 138 H 11.3758 -1.4753 3.63287 0
M  V30 139 H 12.8658 -2.43575 3.39206 0
M  V30 140 N 13.3029 -1.57598 0.00835791 0
M  V30 141 C 14.2659 -2.07884 -0.965242 0
M  V30 142 C 15.2659 -0.989825 -1.26725 0
M  V30 143 O 16.4559 -1.25218 -1.21104 0
M  V30 144 C 13.5879 -2.52731 -2.28779 0
M  V30 145 H 14.7809 -2.95178 -0.530112 0
M  V30 146 H 12.3339 -1.54458 -0.239283 0
M  V30 147 H 13.0689 -1.68705 -2.76964 0
M  V30 148 H 12.8539 -3.32272 -2.08177 0
M  V30 149 H 14.3439 -2.91933 -2.98605 0
M  V30 150 N 14.781 0.264519 -1.55364 0
M  V30 151 C 16.192 0.834936 -1.6699 0
M  V30 152 C 16.543 1.86718 -0.602552 0
M  V30 153 O 15.668 2.14899 0.254425 0
M  V30 154 C 16.263 1.5212 -3.02729 0
M  V30 155 C 14.822 2.03954 -3.16354 0
M  V30 156 C 13.969 0.884498 -2.62815 0
M  V30 157 H 16.92 0.0406869 -1.58648 0
M  V30 158 H 16.941 2.38853 -2.96191 0
M  V30 159 H 16.453 0.769668 -3.80392 0
M  V30 160 H 14.554 2.82041 -2.43482 0
M  V30 161 H 14.667 2.24902 -4.23032 0
M  V30 162 H 13.031 1.2802 -2.20188 0
M  V30 163 H 13.814 0.14634 -3.42988 0
M  V30 164 N 16.2591 1.48442 0.529413 0
M  V30 165 C 17.5071 1.56179 1.28267 0
M  V30 166 C 17.8281 0.237721 1.93546 0
M  V30 167 O 17.0981 -0.740779 1.81354 0
M  V30 168 H 15.6781 0.575367 0.476405 0
M  V30 169 H 18.3401 1.84909 0.61602 0
M  V30 170 H 17.4361 2.34312 2.06165 0
M  V30 171 N 17.7372 -0.778329 1.37039 0
M  V30 172 C 19.1482 -1.35421 1.28523 0
M  V30 173 C 19.4992 -1.96075 -0.0700901 0
M  V30 174 O 18.6242 -1.93352 -0.971801 0
M  V30 175 C 19.2192 -2.46211 2.32735 0
M  V30 176 C 17.7782 -2.99585 2.27873 0
M  V30 177 C 16.9252 -1.72748 2.16918 0
M  V30 178 H 19.8762 -0.5791 1.47757 0
M  V30 179 H 19.8972 -3.2552 1.9702 0
M  V30 180 H 19.4092 -2.02036 3.31365 0
M  V30 181 H 17.5102 -3.48152 1.32745 0
M  V30 182 H 17.6232 -3.55646 3.21018 0
M  V30 183 H 15.9872 -1.95416 1.63354 0
M  V30 184 H 16.7702 -1.30686 3.17452 0
M  V30 185 N 19.2153 -1.21501 -1.00376 0
M  V30 186 C 20.6263 -1.03146 -1.55621 0
M  V30 187 C 20.9773 0.408375 -1.91903 0
M  V30 188 O 20.1023 1.29177 -1.73616 0
M  V30 189 C 20.6973 -1.86612 -2.82775 0
M  V30 190 C 19.2563 -1.72586 -3.34501 0
M  V30 191 C 18.4033 -1.83747 -2.07683 0
M  V30 192 H 21.3543 -1.35505 -0.826081 0
M  V30 193 H 21.3753 -1.3771 -3.54706 0
M  V30 194 H 20.8873 -2.91399 -2.56336 0
M  V30 195 H 18.9883 -0.704877 -3.65872 0
M  V30 196 H 19.1013 -2.54623 -4.05837 0
M  V30 197 H 17.4653 -1.27069 -2.20739 0
M  V30 198 H 18.2483 -2.90044 -1.83655 0
M  V30 199 N 20.6934 1.19889 -1.02296 0
M  V30 200 C 22.1044 1.71124 -0.746568 0
M  V30 201 C 22.4554 1.81939 0.734335 0
M  V30 202 O 21.5804 1.48639 1.57275 0
M  V30 203 C 22.1754 3.10804 -1.34857 0
M  V30 204 C 20.7344 3.59323 -1.1209 0
M  V30 205 C 19.8814 2.3635 -1.45031 0
M  V30 206 H 22.8324 1.04813 -1.19163 0
M  V30 207 H 22.8534 3.73186 -0.742437 0
M  V30 208 H 22.3654 3.029 -2.42638 0
M  V30 209 H 20.4664 3.7255 -0.0610337 0
M  V30 210 H 20.5794 4.4378 -1.80544 0
M  V30 211 H 18.9434 2.39399 -0.869487 0
M  V30 212 H 19.7264 2.31081 -2.53883 0
M  V30 213 N 22.1715 0.800033 1.35784 0
M  V30 214 C 23.5825 0.439142 1.81462 0
M  V30 215 C 23.9335 -1.03813 1.66485 0
M  V30 216 O 23.0585 -1.80626 1.19177 0
M  V30 217 C 23.6535 0.790314 3.29453 0
M  V30 218 C 22.2125 0.482111 3.733 0
M  V30 219 C 21.3595 1.01938 2.57883 0
M  V30 220 H 24.3105 0.992254 1.23855 0
M  V30 221 H 24.3315 0.0853677 3.80404 0
M  V30 222 H 23.8435 1.86554 3.40322 0
M  V30 223 H 21.9445 -0.584652 3.67984 0
M  V30 224 H 22.0575 1.01015 4.6833 0
M  V30 225 H 20.4215 0.442043 2.50835 0
M  V30 226 H 21.2045 2.10059 2.71533 0
M  V30 227 N 23.6496 -1.47581 0.552962 0
M  V30 228 C 25.0606 -1.86324 0.118463 0
M  V30 229 C 25.4116 -1.46006 -1.3106 0
M  V30 230 O 24.5366 -0.861182 -1.98526 0
M  V30 231 C 25.1316 -3.3816 0.20821 0
M  V30 232 C 23.6906 -3.7601 -0.171226 0
M  V30 233 C 22.8376 -2.71634 0.557686 0
M  V30 234 H 25.7886 -1.39159 0.762928 0
M  V30 235 H 25.8096 -3.76141 -0.574278 0
M  V30 236 H 25.3216 -3.67473 1.24841 0
M  V30 237 H 23.4226 -3.52313 -1.21269 0
M  V30 238 H 23.5356 -4.78745 0.184379 0
M  V30 239 H 21.8996 -2.547 0.00125792 0
M  V30 240 H 22.6826 -3.0379 1.59896 0
M  V30 241 N 25.1277 -0.289203 -1.54924 0
M  V30 242 C 26.5387 0.205791 -1.85562 0
M  V30 243 C 26.8897 1.54351 -1.2112 0
M  V30 244 O 26.0147 2.10435 -0.504601 0
M  V30 245 C 26.6097 0.380177 -3.3666 0
M  V30 246 C 25.1687 0.819395 -3.67373 0
M  V30 247 C 24.3157 -0.079159 -2.77187 0
M  V30 248 H 27.2667 -0.510577 -1.50262 0
M  V30 249 H 27.2877 1.21659 -3.60526 0
M  V30 250 H 26.7997 -0.593589 -3.83534 0
M  V30 251 H 24.9007 1.80413 -3.26009 0
M  V30 252 H 25.0137 0.646957 -4.74712 0
M  V30 253 H 23.3777 0.439565 -2.50878 0
M  V30 254 H 24.1607 -1.04906 -3.26878 0
M  V30 255 N 26.6058 1.57591 -0.0167156 0
M  V30 256 C 28.0168 1.79201 0.523834 0
M  V30 257 C 28.3678 0.925796 1.72984 0
M  V30 258 O 27.4928 0.132792 2.15992 0
M  V30 259 C 28.0878 3.25 0.957091 0
M  V30 260 C 26.6468 3.47648 1.44283 0
M  V30 261 C 25.7938 2.74374 0.401757 0
M  V30 262 H 28.7448 1.56831 -0.242816 0
M  V30 263 H 28.7658 3.34031 1.82219 0
M  V30 264 H 28.2778 3.88019 0.0791415 0
M  V30 265 H 26.3788 2.89866 2.34113 0
M  V30 266 H 26.4918 4.56352 1.45877 0
M  V30 267 H 24.8558 2.39485 0.867121 0
M  V30 268 H 25.6388 3.40102 -0.467513 0
M  V30 269 N 28.0839 -0.256276 1.55502 0
M  V30 270 C 29.4949 -0.826068 1.67431 0
M  V30 271 C 29.8459 -1.86396 0.612446 0
M  V30 272 O 28.9709 -2.15031 -0.243025 0
M  V30 273 C 29.5659 -1.50512 3.03532 0
M  V30 274 C 28.1249 -2.02273 3.17431 0
M  V30 275 C 27.2719 -0.870548 2.63281 0
M  V30 276 H 30.2229 -0.0322728 1.58667 0
M  V30 277 H 30.2439 -2.37279 2.97454 0
M  V30 278 H 29.7559 -0.749484 3.80794 0
M  V30 279 H 27.8569 -2.80746 2.44974 0
M  V30 280 H 27.9699 -2.22655 4.24219 0
M  V30 281 H 26.3339 -1.26851 2.20864 0
M  V30 282 H 27.1169 -0.128149 3.43061 0
M  V30 283 N 29.562 -1.4872 -0.521534 0
M  V30 284 C 30.81 -1.56857 -1.27437 0
M  V30 285 C 31.131 -0.247982 -1.93417 0
M  V30 286 O 30.401 0.731151 -1.81744 0
M  V30 287 H 28.981 -0.577885 -0.473347 0
M  V30 288 H 31.643 -1.85233 -0.606205 0
M  V30 289 H 30.739 -2.35402 -2.0492 0
M  V30 290 N 31.0401 0.771051 -1.3745 0
M  V30 291 C 31.9721 1.89352 -1.29146 0
M  V30 292 C 32.9851 1.61477 -0.207124 0
M  V30 293 O 34.1741 1.72382 -0.463324 0
M  V30 294 C 31.2741 3.24596 -0.974195 0
M  V30 295 C 30.4471 3.80111 -2.16413 0
M  V30 296 C 29.5061 4.93832 -1.81703 0
M  V30 297 O 28.5321 5.09382 -2.54006 0
M  V30 298 N 29.7341 5.75483 -0.761573 0
M  V30 299 H 32.4991 1.96991 -2.25864 0
M  V30 300 H 30.0601 0.950191 -1.31084 0
M  V30 301 H 32.0521 3.98193 -0.722828 0
M  V30 302 H 30.6221 3.12454 -0.0955527 0
M  V30 303 H 29.8421 2.98284 -2.57721 0
M  V30 304 H 31.1301 4.13932 -2.95867 0
M  V30 305 H 30.5281 5.65469 -0.161609 0
M  V30 306 H 29.0851 6.49302 -0.570064 0
M  V30 307 N 32.5182 1.22032 0.997298 0
M  V30 308 C 33.4812 0.987909 2.06816 0
M  V30 309 C 34.4812 -0.0440084 1.6074 0
M  V30 310 O 35.6712 0.194053 1.73116 0
M  V30 311 C 32.8032 0.49132 3.37341 0
M  V30 312 H 33.9962 1.93803 2.28868 0
M  V30 313 H 31.5492 1.03838 1.16822 0
M  V30 314 H 32.2842 -0.463364 3.20973 0
M  V30 315 H 32.0692 1.23575 3.72118 0
M  V30 316 H 33.5592 0.348824 4.16141 0
M  V30 317 N 33.9963 -1.19345 1.0293 0
M  V30 318 C 35.4073 -1.70725 0.755633 0
M  V30 319 C 35.7583 -1.82326 -0.724676 0
M  V30 320 O 34.8833 -1.49471 -1.56484 0
M  V30 321 C 35.4783 -3.10084 1.36503 0
M  V30 322 C 34.0373 -3.58723 1.13994 0
M  V30 323 C 33.1843 -2.35577 1.46283 0
M  V30 324 H 36.1353 -1.0418 1.19718 0
M  V30 325 H 36.1563 -3.72787 0.762217 0
M  V30 326 H 35.6683 -3.01609 2.44241 0
M  V30 327 H 33.7693 -3.72512 0.0807901 0
M  V30 328 H 33.8823 -4.42816 1.82894 0
M  V30 329 H 32.2463 -2.38935 0.88217 0
M  V30 330 H 33.0293 -2.29731 2.55105 0
M  V30 331 N 35.4744 -0.807222 -1.35358 0
M  V30 332 C 36.8904 -0.491038 -1.51858 0
M  V30 333 C 37.0904 0.987648 -1.75635 0
M  V30 334 O 36.1464 1.77265 -1.79815 0
M  V30 335 C 37.4594 -1.33695 -2.69344 0
M  V30 336 C 39.0074 -1.33246 -2.83222 0
M  V30 337 C 39.4824 -2.1625 -4.03733 0
M  V30 338 N 40.9734 -2.1379 -4.10911 0
M  V30 339 C 41.7084 -2.74772 -5.03277 0
M  V30 340 N 41.2044 -3.44684 -6.0097 0
M  V30 341 N 42.9974 -2.6441 -4.96028 0
M  V30 342 H 35.1484 -1.76485 -1.18181 0
M  V30 343 H 37.4114 -0.751199 -0.578276 0
M  V30 344 H 37.1174 -2.38634 -2.58354 0
M  V30 345 H 36.9914 -0.990618 -3.6396 0
M  V30 346 H 39.3784 -0.290911 -2.93663 0
M  V30 347 H 39.4594 -1.71866 -1.89461 0
M  V30 348 H 39.1034 -3.20445 -3.94052 0
M  V30 349 H 39.0334 -1.74989 -4.96675 0
M  V30 350 H 41.5244 -1.62923 -3.40976 0
M  V30 351 H 41.8374 -3.88501 -6.68047 0
M  V30 352 H 40.1824 -3.48788 -6.01142 0
M  V30 353 H 43.3734 -2.0938 -4.18662 0
M  V30 354 H 43.5464 -3.12225 -5.6782 0
M  V30 355 N 36.9525 1.47285 -0.560781 0
M  V30 356 C 38.1985 2.03347 -0.0463654 0
M  V30 357 C 38.5535 1.42702 1.2905 0
M  V30 358 O 37.8465 0.574619 1.8278 0
M  V30 359 C 38.0405 3.57258 0.100784 0
M  V30 360 C 37.8695 4.32827 -1.22027 0
M  V30 361 C 36.6395 4.72588 -1.78854 0
M  V30 362 C 38.8375 4.67739 -2.13834 0
M  V30 363 N 36.8195 5.32816 -3.04927 0
M  V30 364 C 38.1905 5.28307 -3.24487 0
M  V30 365 C 40.2455 4.49667 -2.13784 0
M  V30 366 C 38.9485 5.72711 -4.35194 0
M  V30 367 C 40.9745 4.95073 -3.23506 0
M  V30 368 C 40.3365 5.55693 -4.32879 0
M  V30 369 H 36.4355 0.779755 -0.0592166 0
M  V30 370 H 39.0195 1.79723 -0.748857 0
M  V30 371 H 37.1905 3.80642 0.772404 0
M  V30 372 H 38.9225 3.9996 0.617589 0
M  V30 373 H 35.6775 4.54656 -1.32609 0
M  V30 374 H 36.1015 5.67471 -3.69197 0
M  V30 375 H 40.7435 4.02154 -1.30507 0
M  V30 376 H 38.4615 6.19214 -5.1923 0
M  V30 377 H 42.0475 4.82859 -3.24559 0
M  V30 378 H 40.9275 5.90188 -5.1638 0
M  V30 379 N 38.4306 0.297415 1.54768 0
M  V30 380 C 39.6556 -0.318435 2.04941 0
M  V30 381 C 40.0806 -1.4701 1.17345 0
M  V30 382 O 39.4386 -1.80436 0.176758 0
M  V30 383 C 39.4866 -0.755749 3.52592 0
M  V30 384 O 38.5906 -1.86088 3.68028 0
M  V30 385 H 37.9316 -0.062421 0.661059 0
M  V30 386 H 40.4616 0.438215 1.99852 0
M  V30 387 H 40.4716 -1.04552 3.94376 0
M  V30 388 H 39.1466 0.0867233 4.1581 0
M  V30 389 H 37.7236 -1.57193 3.38149 0
M  V30 390 N 39.9087 -1.5758 0.0250728 0
M  V30 391 C 41.3247 -1.56124 -0.331282 0
M  V30 392 C 41.5247 -1.03029 -1.73169 0
M  V30 393 O 40.5807 -0.675215 -2.43305 0
M  V30 394 C 41.8937 -3.00139 -0.183584 0
M  V30 395 C 43.4417 -3.11946 -0.256654 0
M  V30 396 C 43.9167 -4.57793 -0.137792 0
M  V30 397 N 45.4077 -4.6279 -0.194904 0
M  V30 398 C 46.1427 -5.7326 -0.126655 0
M  V30 399 N 45.6387 -6.928 -0.00755288 0
M  V30 400 N 47.4317 -5.61811 -0.180348 0
M  V30 401 H 39.5827 -1.90424 0.94087 0
M  V30 402 H 41.8457 -0.875761 0.362968 0
M  V30 403 H 41.5517 -3.4292 0.780927 0
M  V30 404 H 41.4257 -3.64899 -0.955448 0
M  V30 405 H 43.8127 -2.69079 -1.21162 0
M  V30 406 H 43.8937 -2.49915 0.545517 0
M  V30 407 H 43.5377 -5.01339 0.813739 0
M  V30 408 H 43.4677 -5.17798 -0.958775 0
M  V30 409 H 45.9587 -3.76807 -0.287267 0
M  V30 410 H 46.2717 -7.72791 0.0379428 0
M  V30 411 H 44.6167 -6.94995 0.0271731 0
M  V30 412 H 47.8077 -4.6731 -0.271767 0
M  V30 413 H 47.9807 -6.47882 -0.123697 0
M  V30 414 N 41.3868 0.248026 -1.55636 0
M  V30 415 C 42.6328 0.973427 -1.78594 0
M  V30 416 C 42.9878 1.83007 -0.593823 0
M  V30 417 O 42.2808 1.87097 0.412961 0
M  V30 418 C 42.4748 1.86819 -3.04686 0
M  V30 419 C 42.3038 1.09965 -4.36048 0
M  V30 420 C 41.0738 0.805204 -4.98843 0
M  V30 421 C 43.2718 0.477783 -5.12076 0
M  V30 422 N 41.2538 0.0124859 -6.13899 0
M  V30 423 C 42.6248 -0.179565 -6.1974 0
M  V30 424 C 44.6798 0.388136 -4.96385 0
M  V30 425 C 43.3828 -0.91795 -7.13419 0
M  V30 426 C 45.4088 -0.336716 -5.90441 0
M  V30 427 C 44.7708 -0.982705 -6.97511 0
M  V30 428 H 40.8698 0.337348 -0.705493 0
M  V30 429 H 43.4538 0.24667 -1.93131 0
M  V30 430 H 41.6248 2.56698 -2.9148 0
M  V30 431 H 43.3568 2.52907 -3.15944 0
M  V30 432 H 40.1118 1.11671 -4.60246 0
M  V30 433 H 40.5358 -0.371933 -6.75978 0
M  V30 434 H 45.1778 0.873237 -4.13684 0
M  V30 435 H 42.8958 -1.41466 -7.95621 0
M  V30 436 H 46.4818 -0.406731 -5.80377 0
M  V30 437 H 45.3618 -1.53464 -7.69037 0
M  V30 438 N 42.8649 1.48995 0.513639 0
M  V30 439 C 44.2809 1.35478 0.843682 0
M  V30 440 C 44.4809 0.378213 1.97919 0
M  V30 441 O 43.5369 -0.194689 2.51748 0
M  V30 442 C 44.8499 2.75901 1.1958 0
M  V30 443 C 46.3979 2.84509 1.30474 0
M  V30 444 C 46.8729 4.25671 1.69021 0
M  V30 445 N 48.3639 4.28422 1.76094 0
M  V30 446 C 49.0989 5.34601 2.07338 0
M  V30 447 N 48.5949 6.5104 2.36894 0
M  V30 448 N 50.3879 5.22007 2.08483 0
M  V30 449 H 42.5389 2.11092 -0.235328 0
M  V30 450 H 44.8019 0.947039 -0.0426669 0
M  V30 451 H 44.5079 3.49001 0.434913 0
M  V30 452 H 44.3819 3.10467 2.1422 0
M  V30 453 H 46.7689 2.11655 2.05637 0
M  V30 454 H 46.8499 2.53542 0.339155 0
M  V30 455 H 46.4939 4.99048 0.944135 0
M  V30 456 H 46.4239 4.54094 2.66658 0
M  V30 457 H 48.9149 3.44441 1.55464 0
M  V30 458 H 49.2279 7.2779 2.59887 0
M  V30 459 H 47.5729 6.54287 2.34378 0
M  V30 460 H 50.7639 4.30051 1.84861 0
M  V30 461 H 50.9369 6.04854 2.325 0
M  V30 462 N 44.343 -0.763751 1.37857 0
M  V30 463 C 45.589 -1.52483 1.33704 0
M  V30 464 C 45.922 -1.94051 -0.0759612 0
M  V30 465 O 45.197 -1.64675 -1.03501 0
M  V30 466 C 45.48 -2.78441 2.28348 0
M  V30 467 C 45.333 -2.43075 3.78463 0
M  V30 468 C 46.652 -3.80415 2.21298 0
M  V30 469 H 43.771 -0.553169 0.487005 0
M  V30 470 H 46.413 -0.875562 1.68624 0
M  V30 471 H 44.563 -3.33842 1.987 0
M  V30 472 H 46.235 -1.93527 4.18742 0
M  V30 473 H 44.478 -1.75666 3.96641 0
M  V30 474 H 45.149 -3.33149 4.40132 0
M  V30 475 H 47.625 -3.34527 2.47449 0
M  V30 476 H 46.501 -4.66257 2.89647 0
M  V30 477 H 46.762 -4.25262 1.20849 0
M  V30 478 N 45.8211 -1.22559 -0.990812 0
M  V30 479 C 47.2321 -1.04791 -1.54518 0
M  V30 480 C 47.5831 0.387998 -1.92325 0
M  V30 481 O 46.7081 1.27328 -1.74976 0
M  V30 482 C 47.3031 -1.896 -2.80779 0
M  V30 483 C 45.8621 -1.76124 -3.32652 0
M  V30 484 C 45.0091 -1.8594 -2.05722 0
M  V30 485 H 47.9601 -1.36374 -0.811662 0
M  V30 486 H 47.9811 -1.41464 -3.53225 0
M  V30 487 H 47.4931 -2.94101 -2.53231 0
M  V30 488 H 45.5941 -0.743643 -3.65104 0
M  V30 489 H 45.7071 -2.58913 -4.03114 0
M  V30 490 H 44.0711 -1.29403 -2.19379 0
M  V30 491 H 44.8541 -2.91976 -1.80568 0
M  V30 492 N 47.2992 1.18797 -1.03562 0
M  V30 493 C 48.5472 1.88278 -0.734569 0
M  V30 494 C 48.8682 1.8043 0.739586 0
M  V30 495 O 48.1382 1.21925 1.53333 0
M  V30 496 H 46.7182 0.696991 -0.268725 0
M  V30 497 H 49.3802 1.44192 -1.31129 0
M  V30 498 H 48.4762 2.94443 -1.03489 0
M  V30 499 N 48.7773 0.814389 1.34928 0
M  V30 500 C 50.1933 0.499084 1.51596 0
M  V30 501 C 50.3933 -0.978319 1.76157 0
M  V30 502 O 49.4493 -1.76309 1.80752 0
M  V30 503 C 50.7623 1.35121 2.68631 0
M  V30 504 C 52.3103 1.34746 2.82511 0
M  V30 505 C 52.7853 2.18388 4.0258 0
M  V30 506 N 54.2763 2.15966 4.09772 0
M  V30 507 C 55.0113 2.77437 5.01813 0
M  V30 508 N 54.5073 3.47866 5.99134 0
M  V30 509 N 56.3003 2.67037 4.94619 0
M  V30 510 H 48.4513 1.7711 1.17243 0
M  V30 511 H 50.7143 0.754256 0.574284 0
M  V30 512 H 50.4203 2.40001 2.57085 0
M  V30 513 H 50.2943 1.00991 3.63429 0
M  V30 514 H 52.6813 0.30648 2.93504 0
M  V30 515 H 52.7623 1.72869 1.88547 0
M  V30 516 H 52.4063 3.2253 3.92347 0
M  V30 517 H 52.3363 1.77621 4.9574 0
M  V30 518 H 54.8273 1.64729 3.40107 0
M  V30 519 H 55.1403 3.92038 6.65977 0
M  V30 520 H 53.4853 3.51972 5.99284 0
M  V30 521 H 56.6763 2.11597 4.17546 0
M  V30 522 H 56.8493 3.15232 5.66156 0
M  V30 523 N 50.2554 -1.46986 0.568584 0
M  V30 524 C 51.1854 -2.32946 -0.160753 0
M  V30 525 C 52.1664 -1.44487 -0.897631 0
M  V30 526 O 53.3514 -1.73327 -0.875867 0
M  V30 527 C 50.4814 -3.26494 -1.18403 0
M  V30 528 C 49.4354 -4.24282 -0.562895 0
M  V30 529 C 48.7614 -5.07236 -1.69163 0
M  V30 530 C 50.0614 -5.19989 0.490761 0
M  V30 531 H 51.7554 -2.94175 0.556916 0
M  V30 532 H 49.3014 -1.4146 0.26927 0
M  V30 533 H 51.2544 -3.85477 -1.70251 0
M  V30 534 H 49.9784 -2.63343 -1.93179 0
M  V30 535 H 48.6374 -3.66541 -0.0656164 0
M  V30 536 H 48.2854 -4.4048 -2.42871 0
M  V30 537 H 47.9854 -5.7345 -1.28174 0
M  V30 538 H 49.5094 -5.6908 -2.21314 0
M  V30 539 H 50.9234 -5.73271 0.0579047 0
M  V30 540 H 49.3204 -5.94469 0.820165 0
M  V30 541 H 50.3904 -4.64777 1.3824 0
M  V30 542 N 51.7335 -0.305618 -1.54608 0
M  V30 543 C 52.6635 0.561482 -2.26649 0
M  V30 544 C 53.6445 1.13415 -1.26772 0
M  V30 545 O 54.8295 1.16262 -1.55553 0
M  V30 546 C 51.9595 1.73122 -3.01075 0
M  V30 547 C 50.9135 1.2887 -4.08138 0
M  V30 548 C 50.2395 2.54396 -4.70305 0
M  V30 549 C 51.5395 0.416578 -5.20636 0
M  V30 550 H 53.2335 -0.0393902 -2.99374 0
M  V30 551 H 50.7795 -0.020385 -1.43986 0
M  V30 552 H 52.7325 2.34396 -3.50195 0
M  V30 553 H 51.4565 2.3584 -2.25936 0
M  V30 554 H 50.1155 0.698991 -3.59875 0
M  V30 555 H 49.7635 3.15439 -3.918 0
M  V30 556 H 49.4635 2.25486 -5.42614 0
M  V30 557 H 50.9875 3.16464 -5.2219 0
M  V30 558 H 52.4015 0.935116 -5.65622 0
M  V30 559 H 50.7985 0.221046 -5.99693 0
M  V30 560 H 51.8685 -0.557162 -4.81688 0
M  V30 561 N 53.2116 1.57565 -0.0334293 0
M  V30 562 C 54.1416 2.13511 0.945265 0
M  V30 563 C 55.1226 1.05231 1.33643 0
M  V30 564 O 56.3076 1.33084 1.41429 0
M  V30 565 C 53.4376 2.6657 2.22616 0
M  V30 566 C 52.3916 3.79676 1.97561 0
M  V30 567 C 51.7176 4.1918 3.31952 0
M  V30 568 C 53.0176 5.0557 1.31135 0
M  V30 569 H 54.7116 2.95538 0.479325 0
M  V30 570 H 52.2576 1.42166 0.229115 0
M  V30 571 H 54.2106 3.04344 2.91466 0
M  V30 572 H 52.9346 1.8171 2.71384 0
M  V30 573 H 51.5936 3.42347 1.31127 0
M  V30 574 H 51.2416 3.31296 3.78487 0
M  V30 575 H 50.9416 4.95402 3.15992 0
M  V30 576 H 52.4656 4.59541 4.02063 0
M  V30 577 H 53.8796 5.40903 1.89992 0
M  V30 578 H 52.2766 5.86818 1.25559 0
M  V30 579 H 53.3466 4.84062 0.284894 0
M  V30 580 N 54.6897 -0.239769 1.55765 0
M  V30 581 C 55.6197 -1.30052 1.9393 0
M  V30 582 C 56.6007 -1.49839 0.805132 0
M  V30 583 O 57.7857 -1.62328 1.06599 0
M  V30 584 C 54.9157 -2.65391 2.2402 0
M  V30 585 C 53.8697 -2.60289 3.39755 0
M  V30 586 C 53.1957 -3.99489 3.55405 0
M  V30 587 C 54.4957 -2.16654 4.75246 0
M  V30 588 H 56.1897 -0.983573 2.82783 0
M  V30 589 H 53.7357 -0.471701 1.36055 0
M  V30 590 H 55.6887 -3.3974 2.49308 0
M  V30 591 H 54.4127 -2.98736 1.32 0
M  V30 592 H 53.0717 -1.88398 3.14487 0
M  V30 593 H 52.7197 -4.30112 2.60793 0
M  V30 594 H 52.4197 -3.96962 4.33238 0
M  V30 595 H 53.9437 -4.75528 3.83022 0
M  V30 596 H 55.3577 -2.80737 4.99859 0
M  V30 597 H 53.7547 -2.25223 5.56232 0
M  V30 598 H 54.8247 -1.11835 4.71827 0
M  V30 599 N 56.1678 -1.49265 -0.50573 0
M  V30 600 C 57.0978 -1.68495 -1.61653 0
M  V30 601 C 58.0788 -0.53366 -1.61512 0
M  V30 602 O 59.2638 -0.76897 -1.78327 0
M  V30 603 C 56.3938 -1.74709 -3.00157 0
M  V30 604 C 55.3478 -2.89581 -3.15162 0
M  V30 605 C 54.6738 -2.80903 -4.5497 0
M  V30 606 C 55.9738 -4.30578 -2.95634 0
M  V30 607 H 57.6678 -2.61493 -1.45814 0
M  V30 608 H 55.2138 -1.25838 -0.70005 0
M  V30 609 H 57.1668 -1.86748 -3.77761 0
M  V30 610 H 55.8908 -0.783067 -3.17074 0
M  V30 611 H 54.5498 -2.77136 -2.39982 0
M  V30 612 H 54.1978 -1.82419 -4.68756 0
M  V30 613 H 53.8978 -3.57999 -4.65951 0
M  V30 614 H 55.4218 -2.94944 -5.34641 0
M  V30 615 H 56.8358 -4.4373 -3.63011 0
M  V30 616 H 55.2328 -5.0886 -3.18091 0
M  V30 617 H 56.3028 -4.45352 -1.91806 0
M  V30 618 N 57.6459 0.756429 -1.3826 0
M  V30 619 C 58.5759 1.88374 -1.37976 0
M  V30 620 C 59.5569 1.68311 -0.246082 0
M  V30 621 O 60.7419 1.88944 -0.44874 0
M  V30 622 C 57.8719 3.25864 -1.20125 0
M  V30 623 C 56.8259 3.60523 -2.30666 0
M  V30 624 C 56.1519 4.9672 -1.97923 0
M  V30 625 C 57.4519 3.65692 -3.72916 0
M  V30 626 H 59.1459 1.88869 -2.32312 0
M  V30 627 H 56.6919 0.907272 -1.11824 0
M  V30 628 H 58.6449 4.0438 -1.18552 0
M  V30 629 H 57.3689 3.25841 -0.222498 0
M  V30 630 H 56.0279 2.84324 -2.3142 0
M  V30 631 H 55.6759 4.93253 -0.985393 0
M  V30 632 H 55.3759 5.20878 -2.71955 0
M  V30 633 H 56.8999 5.77618 -1.97964 0
M  V30 634 H 58.3139 4.34328 -3.74208 0
M  V30 635 H 56.7109 4.01358 -4.4613 0
M  V30 636 H 57.7809 2.65987 -4.05436 0
M  V30 637 N 59.124 1.23083 0.984299 0
M  V30 638 C 60.535 1.05609 1.5396 0
M  V30 639 C 60.886 -0.377793 1.92528 0
M  V30 640 O 60.011 -1.26398 1.75649 0
M  V30 641 C 60.606 1.91087 2.7977 0
M  V30 642 C 59.165 1.77885 3.31713 0
M  V30 643 C 58.312 1.87028 2.04733 0
M  V30 644 H 61.263 1.36802 0.804419 0
M  V30 645 H 61.284 1.43336 3.5247 0
M  V30 646 H 60.796 2.9544 2.51668 0
M  V30 647 H 58.897 0.762995 3.64704 0
M  V30 648 H 59.01 2.61047 4.01735 0
M  V30 649 H 57.374 1.30565 2.18689 0
M  V30 650 H 58.157 2.92929 1.79017 0
M  V30 651 N 60.6021 -1.18246 1.0419 0
M  V30 652 C 61.5651 -2.20128 0.638452 0
M  V30 653 C 62.5651 -1.57885 -0.304805 0
M  V30 654 O 63.7551 -1.73967 -0.0900369 0
M  V30 655 C 60.8871 -3.4084 -0.0637751 0
M  V30 656 H 62.0801 -2.57336 1.54007 0
M  V30 657 H 59.6331 -1.32152 0.834598 0
M  V30 658 H 60.3681 -3.09166 -0.979136 0
M  V30 659 H 60.1531 -3.8726 0.614198 0
M  V30 660 H 61.6431 -4.16274 -0.332512 0
M  V30 661 N 62.0802 -0.821533 -1.34494 0
M  V30 662 C 63.0102 -0.257138 -2.3208 0
M  V30 663 C 63.9912 0.625645 -1.58176 0
M  V30 664 O 65.1762 0.552811 -1.86166 0
M  V30 665 C 62.3062 0.582958 -3.42372 0
M  V30 666 C 61.2602 -0.202571 -4.2752 0
M  V30 667 C 60.5862 0.760179 -5.29269 0
M  V30 668 C 61.8862 -1.40998 -5.02908 0
M  V30 669 H 63.5802 -1.07247 -2.79532 0
M  V30 670 H 61.1262 -0.517163 -1.34393 0
M  V30 671 H 63.0792 0.987972 -4.09655 0
M  V30 672 H 61.8032 1.43133 -2.93565 0
M  V30 673 H 60.4622 -0.588936 -3.61838 0
M  V30 674 H 60.1102 1.60447 -4.76724 0
M  V30 675 H 59.8102 0.238809 -5.87115 0
M  V30 676 H 61.3342 1.16308 -5.9942 0
M  V30 677 H 62.7482 -1.07905 -5.63054 0
M  V30 678 H 61.1452 -1.86689 -5.70322 0
M  V30 679 H 62.2152 -2.1889 -4.32684 0
M  V30 680 N 63.5583 1.46682 -0.576371 0
M  V30 681 C 64.7983 2.04306 -0.0621356 0
M  V30 682 C 65.1623 1.4389 1.2712 0
M  V30 683 O 66.3633 1.92675 1.87429 0
M  V30 684 C 64.6343 3.57399 0.00927922 0
M  V30 685 S 66.1933 4.36309 0.466859 0
M  V30 686 H 63.0113 0.710167 -0.0344016 0
M  V30 687 H 65.6133 1.79807 -0.767437 0
M  V30 688 H 64.3173 3.98889 -0.965178 0
M  V30 689 H 63.8483 3.86424 0.737547 0
M  V30 690 H 65.8633 4.6533 1.72287 0
M  V30 691 N 65.0364 0.313813 1.54444 0
M  V30 692 C 66.2764 -0.292389 2.02298 0
M  V30 693 C 66.6404 -1.50105 1.19719 0
M  V30 694 O 67.8414 -2.17947 1.5733 0
M  V30 695 C 66.1124 -0.627682 3.51845 0
M  V30 696 S 67.6714 -1.21493 4.21646 0
M  V30 697 H 64.4894 -0.0890247 0.705405 0
M  V30 698 H 67.0914 0.444668 1.90376 0
M  V30 699 H 65.7954 0.260265 4.09574 0
M  V30 700 H 65.3264 -1.39519 3.67829 0
M  V30 701 H 67.3414 -2.5022 4.28491 0
M  V30 702 N 66.5145 -1.57545 0.0417849 0
M  V30 703 C 67.4445 -2.14009 -0.933929 0
M  V30 704 C 68.4255 -1.05938 -1.33083 0
M  V30 705 O 69.6105 -1.33833 -1.40721 0
M  V30 706 C 66.7405 -2.67747 -2.21199 0
M  V30 707 C 65.6945 -3.80718 -1.95544 0
M  V30 708 C 65.0205 -4.20935 -3.29724 0
M  V30 709 C 66.3205 -5.06258 -1.28452 0
M  V30 710 H 68.0145 -2.95788 -0.463645 0
M  V30 711 H 65.5605 -1.42285 -0.221573 0
M  V30 712 H 67.5135 -3.05886 -2.89848 0
M  V30 713 H 66.2375 -1.83147 -2.70416 0
M  V30 714 H 64.8965 -3.43037 -1.2931 0
M  V30 715 H 64.5445 -3.33298 -3.76724 0
M  V30 716 H 64.2445 -4.9707 -3.13361 0
M  V30 717 H 65.7685 -4.61666 -3.9962 0
M  V30 718 H 67.1825 -5.41903 -1.8712 0
M  V30 719 H 65.5795 -5.87475 -1.22445 0
M  V30 720 H 66.6495 -4.84207 -0.259219 0
M  V30 721 N 67.9926 0.231505 -1.5589 0
M  V30 722 C 69.4036 0.799327 -1.68724 0
M  V30 723 C 69.7546 1.85398 -0.642022 0
M  V30 724 O 68.8796 2.1539 0.208784 0
M  V30 725 C 69.4746 1.45664 -3.05888 0
M  V30 726 C 68.0336 1.97197 -3.20609 0
M  V30 727 C 67.1806 0.828552 -2.64632 0
M  V30 728 H 70.1316 0.00702616 -1.58698 0
M  V30 729 H 70.1526 2.32517 -3.01191 0
M  V30 730 H 69.6646 0.688808 -3.81939 0
M  V30 731 H 67.7656 2.76813 -2.4941 0
M  V30 732 H 67.8786 2.15878 -4.27707 0
M  V30 733 H 66.2426 1.23321 -2.22854 0
M  V30 734 H 67.0256 0.0735544 -3.43221 0
M  V30 735 N 69.4707 1.49531 0.497807 0
M  V30 736 C 70.7187 1.58865 1.24926 0
M  V30 737 C 71.0397 0.278721 1.92998 0
M  V30 738 O 70.3097 -0.702144 1.82885 0
M  V30 739 H 68.8897 0.585343 0.464094 0
M  V30 740 H 71.5517 1.86174 0.57666 0
M  V30 741 H 70.6477 2.38633 2.01149 0
M  V30 742 N 70.9488 -0.749086 1.3866 0
M  V30 743 C 71.9118 -1.84457 1.36045 0
M  V30 744 C 72.9118 -1.58682 0.260122 0
M  V30 745 O 74.1018 -1.66343 0.517261 0
M  V30 746 C 71.2338 -3.22008 1.11911 0
M  V30 747 H 72.4268 -1.88182 2.33512 0
M  V30 748 H 69.9798 -0.951266 1.24019 0
M  V30 749 H 70.7148 -3.2395 0.150686 0
M  V30 750 H 70.4998 -3.42111 1.91579 0
M  V30 751 H 71.9898 -4.0208 1.12788 0
M  V30 752 N 72.4269 -1.23603 -0.977757 0
M  V30 753 C 73.3899 -1.02069 -2.05218 0
M  V30 754 C 74.3899 0.0184305 -1.60789 0
M  V30 755 O 75.5799 -0.221569 -1.72785 0
M  V30 756 C 72.7119 -0.544926 -3.36517 0
M  V30 757 H 73.9049 -1.9742 -2.25755 0
M  V30 758 H 71.4579 -1.05684 -1.15155 0
M  V30 759 H 72.1929 0.412241 -3.21669 0
M  V30 760 H 71.9779 -1.2948 -3.70105 0
M  V30 761 H 73.4679 -0.414985 -4.15533 0
M  V30 762 N 73.905 1.17692 -1.04816 0
M  V30 763 C 75.321 1.39863 -0.768794 0
M  V30 764 C 75.521 1.91118 0.638451 0
M  V30 765 O 74.577 2.10036 1.40146 0
M  V30 766 C 75.89 2.39274 -1.82122 0
M  V30 767 C 77.438 2.52987 -1.843 0
M  V30 768 C 77.913 3.55669 -2.88555 0
M  V30 769 N 79.404 3.63183 -2.87493 0
M  V30 770 C 80.139 4.42381 -3.64811 0
M  V30 771 N 79.635 5.25125 -4.51903 0
M  V30 772 N 81.428 4.37217 -3.53267 0
M  V30 773 H 73.579 0.82752 -1.95617 0
M  V30 774 H 75.842 0.426123 -0.846831 0
M  V30 775 H 75.548 2.08678 -2.83102 0
M  V30 776 H 75.422 3.38725 -1.65967 0
M  V30 777 H 77.809 2.82896 -0.839869 0
M  V30 778 H 77.89 1.53623 -2.04532 0
M  V30 779 H 77.534 3.26499 -3.89051 0
M  V30 780 H 77.464 4.54728 -2.65575 0
M  V30 781 H 79.955 3.04103 -2.24343 0
M  V30 782 H 80.268 5.82728 -5.07591 0
M  V30 783 H 78.613 5.24519 -4.55966 0
M  V30 784 H 81.804 3.71626 -2.84625 0
M  V30 785 H 81.977 4.98696 -4.13771 0
M  V30 786 N 75.3831 0.828654 1.34056 0
M  V30 787 C 76.3461 0.259927 2.27721 0
M  V30 788 C 77.3461 -0.565478 1.50529 0
M  V30 789 O 78.5361 -0.38075 1.69988 0
M  V30 790 C 75.6681 -0.634944 3.34935 0
M  V30 791 H 76.8611 1.0863 2.79534 0
M  V30 792 H 74.4141 0.600951 1.44285 0
M  V30 793 H 75.1491 -1.48416 2.88346 0
M  V30 794 H 74.9341 -0.0444999 3.92075 0
M  V30 795 H 76.4241 -1.02648 4.04788 0
M  V30 796 N 76.8612 -1.46375 0.584142 0
M  V30 797 C 77.8242 -2.28784 -0.138108 0
M  V30 798 C 78.8242 -1.38471 -0.817462 0
M  V30 799 O 80.0142 -1.60833 -0.669199 0
M  V30 800 C 77.1462 -3.18892 -1.20503 0
M  V30 801 H 78.3392 -2.94117 0.586127 0
M  V30 802 H 75.8922 -1.52509 0.342171 0
M  V30 803 H 76.6272 -2.58309 -1.96079 0
M  V30 804 H 76.4122 -3.85388 -0.722384 0
M  V30 805 H 77.9022 -3.80914 -1.71155 0
M  V30 806 N 78.3393 -0.321999 -1.54275 0
M  V30 807 C 79.3023 0.531975 -2.22941 0
M  V30 808 C 80.3023 1.04478 -1.22234 0
M  V30 809 O 81.4923 0.937452 -1.46825 0
M  V30 810 C 78.6243 1.73874 -2.93224 0
M  V30 811 H 79.8173 -0.0682612 -2.99822 0
M  V30 812 H 77.3703 -0.0730644 -1.56129 0
M  V30 813 H 78.1053 2.37825 -2.20476 0
M  V30 814 H 77.8903 1.37847 -3.6707 0
M  V30 815 H 79.3803 2.34496 -3.45545 0
M  V30 816 N 79.8174 1.5752 -0.0501392 0
M  V30 817 C 80.7804 2.1037 0.909786 0
M  V30 818 C 81.7804 1.02308 1.24056 0
M  V30 819 O 82.9704 1.28385 1.17741 0
M  V30 820 C 80.1024 2.58708 2.21998 0
M  V30 821 H 81.2954 2.96479 0.451665 0
M  V30 822 H 78.8484 1.55038 0.198248 0
M  V30 823 H 79.5834 1.75989 2.72394 0
M  V30 824 H 79.3684 3.37675 1.99295 0
M  V30 825 H 80.8584 2.99747 2.9076 0
M  V30 826 N 81.2955 -0.223234 1.56011 0
M  V30 827 C 82.2585 -1.26014 1.9145 0
M  V30 828 C 83.2585 -1.3989 0.792937 0
M  V30 829 O 84.4485 -1.38184 1.0607 0
M  V30 830 C 81.5805 -2.63422 2.16383 0
M  V30 831 H 82.7735 -0.95796 2.84189 0
M  V30 832 H 80.3265 -0.463576 1.49267 0
M  V30 833 H 81.0615 -2.98741 1.2619 0
M  V30 834 H 80.8465 -2.54728 2.98088 0
M  V30 835 H 82.3365 -3.38249 2.44903 0
M  V30 836 N 82.7736 -1.49793 -0.48987 0
M  V30 837 C 83.7366 -1.66752 -1.57246 0
M  V30 838 C 84.7366 -0.538867 -1.51502 0
M  V30 839 O 85.9266 -0.805545 -1.54456 0
M  V30 840 C 83.0586 -1.67528 -2.96896 0
M  V30 841 H 84.2516 -2.63321 -1.43534 0
M  V30 842 H 81.8046 -1.38992 -0.714914 0
M  V30 843 H 82.5396 -0.725837 -3.16073 0
M  V30 844 H 82.3246 -2.49504 -3.02473 0
M  V30 845 H 83.8146 -1.82667 -3.7553 0
M  V30 846 N 84.2517 0.741722 -1.39055 0
M  V30 847 C 85.4997 1.49818 -1.35643 0
M  V30 848 C 85.8207 1.94938 0.0491642 0
M  V30 849 O 85.0907 1.68505 0.999141 0
M  V30 850 H 83.6707 0.555755 -0.499144 0
M  V30 851 H 86.3327 0.880957 -1.73854 0
M  V30 852 H 85.4287 2.38348 -2.01486 0
M  V30 853 N 85.7298 1.2412 0.971189 0
M  V30 854 C 86.6928 1.03156 2.04674 0
M  V30 855 C 87.6928 -0.00990322 1.60797 0
M  V30 856 O 88.8828 0.230729 1.72665 0
M  V30 857 C 86.0148 0.562765 3.36223 0
M  V30 858 H 87.2078 1.98614 2.24705 0
M  V30 859 H 84.7608 1.06293 1.14593 0
M  V30 860 H 85.4958 -0.395176 3.21883 0
M  V30 861 H 85.2808 1.31441 3.69413 0
M  V30 862 H 86.7708 0.437015 4.15307 0
M  V30 863 N 87.2079 -1.17134 1.05439 0
M  V30 864 C 88.4559 -1.87085 0.764429 0
M  V30 865 C 88.7769 -1.81584 -0.710787 0
M  V30 866 O 88.0469 -1.24349 -1.51374 0
M  V30 867 H 86.6269 -0.692627 0.279779 0
M  V30 868 H 89.2889 -1.42087 1.33406 0
M  V30 869 H 88.3849 -2.92759 1.0816 0
M  V30 870 N 88.686 -0.835752 -1.33615 0
M  V30 871 C 89.634 -0.255238 -2.31195 0
M  V30 872 C 90.628 0.61107 -1.57995 0
M  V30 873 O 91.834 0.500979 -1.72888 0
M  V30 874 H 88.209 -0.0638085 -0.749288 0
M  V30 875 H 90.18 -1.09283 -2.77669 0
M  V30 876 C 88.929 0.55754 -3.43201 0
M  V30 877 H 88.252 -0.0997553 -3.99676 0
M  V30 878 H 89.692 0.929622 -4.13683 0
M  V30 879 C 88.151 1.73515 -2.88781 0
M  V30 880 O 88.681 2.83376 -2.84712 0
M  V30 881 N 86.887 1.55603 -2.4543 0
M  V30 882 H 86.434 0.662354 -2.48939 0
M  V30 883 H 86.392 2.34545 -2.09371 0
M  V30 884 N 90.1641 1.46063 -0.591896 0
M  V30 885 C 91.5801 1.57561 -0.254288 0
M  V30 886 C 91.7801 1.58565 1.24336 0
M  V30 887 O 90.8361 1.50753 2.02558 0
M  V30 888 C 92.1491 2.86549 -0.911611 0
M  V30 889 C 93.6971 3.00197 -0.886059 0
M  V30 890 C 94.1721 4.31933 -1.5231 0
M  V30 891 N 95.6631 4.38654 -1.48786 0
M  V30 892 C 96.3981 5.39222 -1.95006 0
M  V30 893 N 95.8941 6.46414 -2.49241 0
M  V30 894 N 97.6871 5.3048 -1.85868 0
M  V30 895 H 89.8381 1.43655 -1.56451 0
M  V30 896 H 92.1011 0.68583 -0.654478 0
M  V30 897 H 91.8071 2.91651 -1.96551 0
M  V30 898 H 91.6811 3.74794 -0.425368 0
M  V30 899 H 94.0681 2.9467 0.159246 0
M  V30 900 H 94.1491 2.13403 -1.41041 0
M  V30 901 H 93.7931 4.38217 -2.56765 0
M  V30 902 H 93.7231 5.17516 -0.973891 0
M  V30 903 H 96.2141 3.61793 -1.09151 0
M  V30 904 H 96.5271 7.19376 -2.82344 0
M  V30 905 H 94.8721 6.47208 -2.53272 0
M  V30 906 H 98.0631 4.45643 -1.43248 0
M  V30 907 H 98.2361 6.08711 -2.22204 0
M  V30 908 N 91.6422 0.330177 1.54103 0
M  V30 909 C 92.6052 -0.520144 2.2322 0
M  V30 910 C 93.6052 -1.03828 1.22786 0
M  V30 911 O 94.7952 -0.929652 1.4732 0
M  V30 912 C 91.9272 -1.72317 2.94142 0
M  V30 913 H 93.1202 0.0841605 2.99782 0
M  V30 914 H 90.6732 0.0813433 1.56088 0
M  V30 915 H 91.4082 -2.36653 2.21734 0
M  V30 916 H 91.1932 -1.35898 3.67796 0
M  V30 917 H 92.6832 -2.3266 3.46784 0
M  V30 918 N 93.1203 -1.57491 0.0584922 0
M  V30 919 C 94.0833 -2.1085 -0.898617 0
M  V30 920 C 95.0833 -1.02964 -1.23511 0
M  V30 921 O 96.2733 -1.29007 -1.17059 0
M  V30 922 C 93.4053 -2.59881 -2.20623 0
M  V30 923 H 94.5983 -2.96715 -0.435936 0
M  V30 924 H 92.1513 -1.55141 -0.190023 0
M  V30 925 H 92.8863 -1.77431 -2.71457 0
M  V30 926 H 92.6713 -3.38727 -1.97501 0
M  V30 927 H 94.1613 -3.01285 -2.89166 0
M  V30 928 N 94.5984 0.214957 -1.56127 0
M  V30 929 C 95.8444 0.939762 -1.79712 0
M  V30 930 C 96.1774 1.83723 -0.629247 0
M  V30 931 O 95.4524 1.90925 0.371197 0
M  V30 932 C 95.7354 1.77306 -3.13424 0
M  V30 933 C 95.5884 0.90164 -4.40671 0
M  V30 934 C 96.9074 2.74956 -3.43638 0
M  V30 935 H 94.0264 0.340214 -0.653776 0
M  V30 936 H 96.6684 0.20824 -1.88855 0
M  V30 937 H 94.8184 2.39673 -3.0576 0
M  V30 938 H 96.4904 0.294206 -4.60361 0
M  V30 939 H 94.7334 0.207368 -4.33304 0
M  V30 940 H 95.4044 1.51923 -5.30682 0
M  V30 941 H 97.8804 2.22724 -3.51473 0
M  V30 942 H 96.7564 3.30358 -4.38355 0
M  V30 943 H 97.0174 3.53023 -2.66134 0
M  V30 944 N 96.0765 1.50051 0.48192 0
M  V30 945 C 97.0395 1.67584 1.5636 0
M  V30 946 C 98.0395 0.546894 1.51214 0
M  V30 947 O 99.2295 0.813725 1.54026 0
M  V30 948 C 96.3615 1.691 2.96003 0
M  V30 949 H 97.5545 2.64078 1.42136 0
M  V30 950 H 95.1075 1.39369 0.707533 0
M  V30 951 H 95.8425 0.742589 3.15684 0
M  V30 952 H 95.6275 2.51105 3.01146 0
M  V30 953 H 97.1175 1.84656 3.74556 0
M  V30 954 N 97.5546 -0.734337 1.39446 0
M  V30 955 C 98.8006 -1.49613 1.36908 0
M  V30 956 C 99.1336 -1.94169 -0.0347829 0
M  V30 957 O 98.4086 -1.66833 -0.999847 0
M  V30 958 C 98.6916 -2.73534 2.34203 0
M  V30 959 C 98.5446 -2.34993 3.83534 0
M  V30 960 C 99.8636 -3.75635 2.29317 0
M  V30 961 H 96.9826 -0.542714 0.498629 0
M  V30 962 H 99.6246 -0.839597 1.70443 0
M  V30 963 H 97.7746 -3.29553 2.05736 0
M  V30 964 H 99.4466 -1.84601 4.22753 0
M  V30 965 H 97.6896 -1.67213 4.00278 0
M  V30 966 H 98.3606 -3.23738 4.47099 0
M  V30 967 H 100.837 -3.29203 2.54489 0
M  V30 968 H 99.7126 -4.60008 2.99472 0
M  V30 969 H 99.9736 -4.22603 1.29842 0
M  V30 970 N 99.0327 -1.24633 -0.964593 0
M  V30 971 C 99.9957 -1.0424 -2.04124 0
M  V30 972 C 100.996 0.00137563 -1.608 0
M  V30 973 O 102.186 -0.239883 -1.7254 0
M  V30 974 C 99.3177 -0.580588 -3.3592 0
M  V30 975 H 100.511 -1.99803 -2.23649 0
M  V30 976 H 98.0637 -1.06899 -1.14027 0
M  V30 977 H 98.7987 0.3781 -3.22088 0
M  V30 978 H 98.5837 -1.33398 -3.6871 0
M  V30 979 H 100.074 -0.459034 -4.15069 0
M  V30 980 N 100.511 1.16574 -1.06058 0
M  V30 981 C 101.757 1.87324 -0.777022 0
M  V30 982 C 102.09 1.81351 0.694645 0
M  V30 983 O 101.365 1.22753 1.50871 0
M  V30 984 C 101.648 3.36991 -1.26922 0
M  V30 985 C 101.501 3.51667 -2.80447 0
M  V30 986 C 102.82 4.3131 -0.87521 0
M  V30 987 H 99.9388 0.680191 -0.28374 0
M  V30 988 H 102.581 1.37036 -1.3161 0
M  V30 989 H 100.731 3.79949 -0.81063 0
M  V30 990 H 102.403 3.17664 -3.34495 0
M  V30 991 H 100.646 2.93656 -3.19294 0
M  V30 992 H 101.317 4.56766 -3.0995 0
M  V30 993 H 103.793 3.9624 -1.27014 0
M  V30 994 H 102.669 5.34545 -1.2471 0
M  V30 995 H 102.93 4.41552 0.220071 0
M  V30 996 N 101.989 0.842826 1.3317 0
M  V30 997 C 102.952 0.284065 2.27433 0
M  V30 998 C 103.952 -0.54948 1.5112 0
M  V30 999 O 105.142 -0.362699 1.70382 0
M  V30 1000 C 102.274 -0.599384 3.35589 0
M  V30 1001 H 103.467 1.11589 2.78366 0
M  V30 1002 H 101.02 0.616221 1.4364 0
M  V30 1003 H 101.755 -1.45349 2.89904 0
M  V30 1004 H 101.54 -0.00291266 3.921 0
M  V30 1005 H 103.03 -0.983488 4.05854 0
M  V30 1006 N 103.467 -1.45747 0.599634 0
M  V30 1007 C 104.883 -1.57424 0.26264 0
M  V30 1008 C 105.083 -1.59222 -1.23493 0
M  V30 1009 O 104.139 -1.51825 -2.01756 0
M  V30 1010 C 105.452 -2.86061 0.926795 0
M  V30 1011 C 107 -2.99722 0.901967 0
M  V30 1012 C 107.475 -4.31119 1.54598 0
M  V30 1013 N 108.966 -4.37858 1.5111 0
M  V30 1014 C 109.701 -5.3818 1.97863 0
M  V30 1015 N 109.197 -6.45083 2.52666 0
M  V30 1016 N 110.99 -5.29487 1.88679 0
M  V30 1017 H 103.141 -1.42823 1.57211 0
M  V30 1018 H 105.404 -0.68235 0.658105 0
M  V30 1019 H 105.11 -2.90605 1.98095 0
M  V30 1020 H 104.984 -3.74563 0.445238 0
M  V30 1021 H 107.371 -2.9475 -0.143617 0
M  V30 1022 H 107.452 -2.12652 1.42171 0
M  V30 1023 H 107.096 -4.36849 2.59085 0
M  V30 1024 H 107.026 -5.16992 1.00132 0
M  V30 1025 H 109.517 -3.61209 1.11068 0
M  V30 1026 H 109.83 -7.17869 2.86155 0
M  V30 1027 H 108.175 -6.45856 2.56701 0
M  V30 1028 H 111.366 -4.44877 1.4561 0
M  V30 1029 H 111.539 -6.07524 2.25429 0
M  V30 1030 N 104.945 -0.338344 -1.53925 0
M  V30 1031 C 105.908 0.508299 -2.23493 0
M  V30 1032 C 106.908 1.03175 -1.23335 0
M  V30 1033 O 108.098 0.921826 -1.47811 0
M  V30 1034 C 105.23 1.70754 -2.95052 0
M  V30 1035 H 106.423 -0.100058 -2.99733 0
M  V30 1036 H 103.976 -0.0896198 -1.56043 0
M  V30 1037 H 104.711 2.35474 -2.22986 0
M  V30 1038 H 104.496 1.33946 -3.68512 0
M  V30 1039 H 105.986 2.30818 -3.48013 0
M  V30 1040 N 106.423 1.57458 -0.0668435 0
M  V30 1041 C 107.7 1.8469 0.644132 0
M  V30 1042 C 108.08 0.958343 1.88093 0
M  V30 1043 O 107.428 0.0233579 2.28488 0
M  V30 1044 C 107.638 3.34767 0.986509 0
M  V30 1045 C 108.986 4.02159 1.36212 0
M  V30 1046 O 110.01 3.39484 1.07839 0
M  V30 1047 O 108.869 5.12694 1.89227 0
M  V30 1048 H 105.963 0.762816 0.319437 0
M  V30 1049 H 108.509 1.6942 -0.0973986 0
M  V30 1050 H 107.281 3.91151 0.107883 0
M  V30 1051 H 106.904 3.55281 1.78497 0
M  V30 1052 N 107.901 -0.206675 1.56239 0
M  V30 1053 C 108.811 -1.27686 1.96808 0
M  V30 1054 C 109.827 -1.50455 0.874035 0
M  V30 1055 O 111.003 -1.63295 1.17884 0
M  V30 1056 C 108.068 -2.60358 2.28942 0
M  V30 1057 C 107.129 -2.45762 3.51994 0
M  V30 1058 C 106.362 -3.72108 3.82585 0
M  V30 1059 O 106.585 -4.75776 3.14631 0
M  V30 1060 O 105.519 -3.6833 4.76043 0
M  V30 1061 H 109.345 -0.962593 2.88041 0
M  V30 1062 H 106.93 -0.410746 1.43643 0
M  V30 1063 H 108.812 -3.38687 2.50737 0
M  V30 1064 H 107.487 -2.91435 1.4088 0
M  V30 1065 H 106.394 -1.65584 3.35459 0
M  V30 1066 H 107.727 -2.19621 4.40486 0
M  V30 1067 N 109.379 -1.50304 -0.473955 0
M  V30 1068 C 110.342 -1.6841 -1.55469 0
M  V30 1069 C 111.342 -0.554905 -1.50922 0
M  V30 1070 O 112.532 -0.821882 -1.53593 0
M  V30 1071 C 109.664 -1.70667 -2.95102 0
M  V30 1072 H 110.857 -2.64828 -1.40733 0
M  V30 1073 H 108.41 -1.39742 -0.700132 0
M  V30 1074 H 109.145 -0.75932 -3.15285 0
M  V30 1075 H 108.93 -2.52698 -2.9981 0
M  V30 1076 H 110.42 -1.8664 -3.73571 0
M  V30 1077 N 110.857 0.726932 -1.39834 0
M  V30 1078 C 111.767 1.87131 -1.41489 0
M  V30 1079 C 112.783 1.71239 -0.308757 0
M  V30 1080 O 113.959 1.93701 -0.551529 0
M  V30 1081 C 111.024 3.22811 -1.26468 0
M  V30 1082 C 110.085 3.51039 -2.47124 0
M  V30 1083 C 109.318 4.80245 -2.3281 0
M  V30 1084 O 109.541 5.54537 -1.33585 0
M  V30 1085 O 108.475 5.08554 -3.21957 0
M  V30 1086 H 112.301 1.8869 -2.3797 0
M  V30 1087 H 109.886 0.875837 -1.21035 0
M  V30 1088 H 111.768 4.03877 -1.20255 0
M  V30 1089 H 110.443 3.22005 -0.330862 0
M  V30 1090 H 109.35 2.70027 -2.58914 0
M  V30 1091 H 110.683 3.56632 -3.39227 0
M  V30 1092 N 112.336 1.25143 0.95797 0
M  V30 1093 C 113.299 1.05321 2.03569 0
M  V30 1094 C 114.299 0.007152 1.60798 0
M  V30 1095 O 115.489 0.24903 1.72411 0
M  V30 1096 C 112.621 0.598394 3.35607 0
M  V30 1097 H 113.814 2.00986 2.22586 0
M  V30 1098 H 111.367 1.07502 1.13459 0
M  V30 1099 H 112.102 -0.361014 3.22284 0
M  V30 1100 H 111.887 1.35351 3.67998 0
M  V30 1101 H 113.377 0.48104 4.1482 0
M  V30 1102 N 113.814 -1.1601 1.06675 0
M  V30 1103 C 115.225 -1.68235 0.809565 0
M  V30 1104 C 115.576 -1.8454 -0.666303 0
M  V30 1105 O 114.701 -1.54374 -1.5165 0
M  V30 1106 C 115.296 -3.05585 1.46299 0
M  V30 1107 C 113.855 -3.54915 1.25349 0
M  V30 1108 C 113.002 -2.30804 1.53703 0
M  V30 1109 H 115.953 -1.00318 1.22971 0
M  V30 1110 H 115.974 -3.70174 0.880431 0
M  V30 1111 H 115.486 -2.93686 2.53713 0
M  V30 1112 H 113.587 -3.72067 0.199261 0
M  V30 1113 H 113.7 -4.36774 1.9689 0
M  V30 1114 H 112.064 -2.36007 0.957739 0
M  V30 1115 H 112.847 -2.21499 2.62284 0
M  V30 1116 N 115.292 -0.849877 -1.32721 0
M  V30 1117 C 116.539 -0.450923 -1.97416 0
M  V30 1118 C 116.867 0.992376 -1.67279 0
M  V30 1119 O 116.122 1.71048 -0.950845 0
M  V30 1120 C 116.421 -0.631272 -3.51781 0
M  V30 1121 C 116.087 -2.04432 -4.01894 0
M  V30 1122 C 114.749 -2.4308 -4.1529 0
M  V30 1123 C 117.101 -2.96679 -4.28522 0
M  V30 1124 C 114.429 -3.73257 -4.52654 0
M  V30 1125 C 116.781 -4.26349 -4.67343 0
M  V30 1126 C 115.445 -4.64939 -4.78945 0
M  V30 1127 H 114.715 -0.165004 -0.722395 0
M  V30 1128 H 117.362 -1.07901 -1.58207 0
M  V30 1129 H 115.667 0.0800767 -3.91718 0
M  V30 1130 H 117.364 -0.302709 -3.99856 0
M  V30 1131 H 113.954 -1.73419 -3.91949 0
M  V30 1132 H 118.138 -2.68054 -4.17685 0
M  V30 1133 H 113.394 -4.02946 -4.59831 0
M  V30 1134 H 117.568 -4.97895 -4.86902 0
M  V30 1135 H 115.195 -5.65855 -5.07654 0
M  V30 1136 N 116.77 1.45427 -0.607355 0
M  V30 1137 C 117.733 2.28974 0.101693 0
M  V30 1138 C 118.733 1.39754 0.795329 0
M  V30 1139 O 119.923 1.61878 0.643527 0
M  V30 1140 C 117.055 3.20768 1.15414 0
M  V30 1141 H 118.248 2.93147 -0.632844 0
M  V30 1142 H 115.801 1.51945 -0.366391 0
M  V30 1143 H 116.536 2.61395 1.91945 0
M  V30 1144 H 116.321 3.86489 0.66098 0
M  V30 1145 H 117.811 3.83589 1.65073 0
M  V30 1146 N 118.248 0.346503 1.53744 0
M  V30 1147 C 119.496 -0.248612 2.00565 0
M  V30 1148 C 119.817 -1.5083 1.23593 0
M  V30 1149 O 119.087 -1.92858 0.343912 0
M  V30 1150 H 117.667 -0.0948564 0.740953 0
M  V30 1151 H 120.329 0.468341 1.89189 0
M  V30 1152 H 119.425 -0.488994 3.08245 0
M  V30 1153 N 119.726 -1.57421 0.075193 0
M  V30 1154 C 120.658 -2.09904 -0.920483 0
M  V30 1155 C 121.671 -1.03191 -1.25918 0
M  V30 1156 O 122.86 -1.30695 -1.21577 0
M  V30 1157 C 119.96 -2.54726 -2.23534 0
M  V30 1158 C 119.133 -3.8505 -2.07498 0
M  V30 1159 C 118.192 -4.15929 -3.22319 0
M  V30 1160 O 117.218 -4.85474 -2.9716 0
M  V30 1161 N 118.42 -3.69745 -4.47514 0
M  V30 1162 H 121.185 -2.95954 -0.472359 0
M  V30 1163 H 118.746 -1.61523 -0.110444 0
M  V30 1164 H 120.738 -2.72443 -2.9926 0
M  V30 1165 H 119.308 -1.73795 -2.59835 0
M  V30 1166 H 118.528 -3.76679 -1.16219 0
M  V30 1167 H 119.816 -4.70348 -1.94038 0
M  V30 1168 H 119.214 -3.13569 -4.7084 0
M  V30 1169 H 117.771 -3.92655 -5.20255 0
M  V30 1170 N 121.204 0.198386 -1.56346 0
M  V30 1171 C 122.152 1.26538 -1.95169 0
M  V30 1172 C 123.146 1.47295 -0.836685 0
M  V30 1173 O 124.352 1.48195 -1.02167 0
M  V30 1174 H 120.727 0.424744 -0.620561 0
M  V30 1175 H 122.698 0.910904 -2.84157 0
M  V30 1176 C 121.447 2.6035 -2.30463 0
M  V30 1177 H 120.77 2.45192 -3.15786 0
M  V30 1178 H 122.21 3.33762 -2.61494 0
M  V30 1179 C 120.669 3.17096 -1.13806 0
M  V30 1180 O 121.199 3.99588 -0.41135 0
M  V30 1181 N 119.405 2.75795 -0.915736 0
M  V30 1182 H 118.952 2.08816 -1.50843 0
M  V30 1183 H 118.91 3.14101 -0.136979 0
M  V30 1184 N 122.682 1.50554 0.465978 0
M  V30 1185 C 123.928 1.63006 1.21658 0
M  V30 1186 C 124.283 0.328613 1.89573 0
M  V30 1187 O 123.576 -0.673813 1.79361 0
M  V30 1188 C 123.77 2.75152 2.28093 0
M  V30 1189 C 123.599 4.16075 1.7062 0
M  V30 1190 C 122.369 4.82408 1.50368 0
M  V30 1191 C 124.567 5.00145 1.1983 0
M  V30 1192 N 122.549 6.07532 0.881924 0
M  V30 1193 C 123.92 6.16035 0.700083 0
M  V30 1194 C 125.975 4.85882 1.08733 0
M  V30 1195 C 124.678 7.19228 0.101835 0
M  V30 1196 C 126.704 5.89257 0.503016 0
M  V30 1197 C 126.066 7.04398 0.0152005 0
M  V30 1198 H 122.165 0.650596 0.433877 0
M  V30 1199 H 124.749 1.8769 0.517746 0
M  V30 1200 H 122.92 2.52181 2.95397 0
M  V30 1201 H 124.652 2.76935 2.95109 0
M  V30 1202 H 121.407 4.39788 1.75737 0
M  V30 1203 H 121.831 6.7443 0.589312 0
M  V30 1204 H 126.473 3.97144 1.4504 0
M  V30 1205 H 124.191 8.07637 -0.273426 0
M  V30 1206 H 127.777 5.80286 0.419451 0
M  V30 1207 H 126.657 7.83021 -0.429856 0
M  V30 1208 N 124.16 -0.719506 1.40217 0
M  V30 1209 C 125.09 -1.8465 1.42922 0
M  V30 1210 C 126.071 -1.67599 0.29062 0
M  V30 1211 O 127.256 -1.87688 0.498677 0
M  V30 1212 C 124.386 -3.22565 1.28722 0
M  V30 1213 C 123.34 -3.54281 2.40144 0
M  V30 1214 C 122.666 -4.91298 2.11023 0
M  V30 1215 C 123.966 -3.55676 3.82481 0
M  V30 1216 H 125.66 -1.82644 2.37237 0
M  V30 1217 H 123.206 -0.877305 1.1419 0
M  V30 1218 H 125.159 -4.01095 1.29232 0
M  V30 1219 H 123.883 -3.25137 0.308811 0
M  V30 1220 H 122.542 -2.78088 2.38877 0
M  V30 1221 H 122.19 -4.90468 1.11582 0
M  V30 1222 H 121.89 -5.13485 2.8567 0
M  V30 1223 H 123.414 -5.72166 2.13209 0
M  V30 1224 H 124.828 -4.24254 3.85592 0
M  V30 1225 H 123.225 -3.89388 4.56614 0
M  V30 1226 H 124.295 -2.55144 4.12346 0
M  V30 1227 N 125.638 -1.25649 -0.95132 0
M  V30 1228 C 126.585 -1.06323 -2.04851 0
M  V30 1229 C 127.555 0.0286491 -1.66075 0
M  V30 1230 O 128.74 -0.12917 -1.90362 0
M  V30 1231 C 125.88 -0.691529 -3.381 0
M  V30 1232 C 124.993 -1.85861 -3.89974 0
M  V30 1233 C 124.128 -1.43096 -5.11563 0
M  V30 1234 C 123.167 -2.56696 -5.55674 0
M  V30 1235 N 122.304 -2.14684 -6.68472 0
M  V30 1236 H 127.144 -2.00222 -2.20715 0
M  V30 1237 H 124.681 -0.997027 -1.08156 0
M  V30 1238 H 126.639 -0.456963 -4.1469 0
M  V30 1239 H 125.269 0.210474 -3.22113 0
M  V30 1240 H 124.321 -2.20639 -3.09875 0
M  V30 1241 H 125.633 -2.71161 -4.18657 0
M  V30 1242 H 124.787 -1.15624 -5.9558 0
M  V30 1243 H 123.526 -0.548722 -4.84603 0
M  V30 1244 H 122.531 -2.84909 -4.7022 0
M  V30 1245 H 123.756 -3.45503 -5.8464 0
M  V30 1246 H 121.702 -1.28881 -6.43215 0
M  V30 1247 H 121.619 -2.9353 -6.96689 0
M  V30 1248 H 122.887 -1.90397 -7.5589 0
M  V30 1249 N 127.117 1.15442 -1.07289 0
M  V30 1250 C 128.342 1.90638 -0.816828 0
M  V30 1251 C 128.767 1.77445 0.624083 0
M  V30 1252 O 128.125 1.10671 1.43602 0
M  V30 1253 C 128.173 3.39008 -1.22906 0
M  V30 1254 O 127.277 4.10701 -0.373975 0
M  V30 1255 H 126.618 0.593555 -0.297638 0
M  V30 1256 H 129.148 1.46198 -1.43134 0
M  V30 1257 H 129.158 3.89801 -1.20497 0
M  V30 1258 H 127.833 3.47929 -2.27856 0
M  V30 1259 H 126.41 3.70046 -0.460499 0
M  V30 1260 N 128.595 0.856903 1.32268 0
M  V30 1261 C 129.825 0.47475 2.01071 0
M  V30 1262 C 130.233 -0.933746 1.64553 0
M  V30 1263 O 129.576 -1.62114 0.863989 0
M  V30 1264 C 129.638 0.536746 3.55471 0
M  V30 1265 C 129.302 1.90453 4.15423 0
M  V30 1266 C 130.299 2.87029 4.33486 0
M  V30 1267 C 127.984 2.20229 4.51447 0
M  V30 1268 C 129.978 4.11532 4.86744 0
M  V30 1269 C 127.665 3.44984 5.0441 0
M  V30 1270 C 128.663 4.40452 5.22007 0
M  V30 1271 O 128.351 5.62998 5.73837 0
M  V30 1272 H 128.083 0.184778 0.650256 0
M  V30 1273 H 130.637 1.15615 1.69771 0
M  V30 1274 H 128.867 -0.20152 3.86175 0
M  V30 1275 H 130.556 0.169875 4.05544 0
M  V30 1276 H 131.322 2.6533 4.05986 0
M  V30 1277 H 127.201 1.46705 4.37034 0
M  V30 1278 H 130.745 4.86056 5.00395 0
M  V30 1279 H 126.642 3.66532 5.31342 0
M  V30 1280 H 127.41 5.64987 5.92226 0
M  V30 1281 N 130.073 -1.45103 0.615059 0
M  V30 1282 C 131.321 -2.01784 0.112955 0
M  V30 1283 C 131.642 -1.48504 -1.26378 0
M  V30 1284 O 130.912 -0.682245 -1.83636 0
M  V30 1285 H 129.492 -0.745993 0.0387668 0
M  V30 1286 H 132.154 -1.77808 0.798141 0
M  V30 1287 H 131.25 -3.12025 0.0684069 0
M  V30 1288 N 131.551 -0.354651 -1.53558 0
M  V30 1289 C 132.781 0.239167 -2.05211 0
M  V30 1290 C 133.189 1.43879 -1.22863 0
M  V30 1291 O 132.532 1.81857 -0.259565 0
M  V30 1292 C 132.594 0.707251 -3.52474 0
M  V30 1293 C 132.258 -0.374212 -4.55465 0
M  V30 1294 C 133.255 -1.22054 -5.0537 0
M  V30 1295 C 130.94 -0.531323 -4.99482 0
M  V30 1296 C 132.934 -2.20942 -5.97882 0
M  V30 1297 C 130.621 -1.52358 -5.91802 0
M  V30 1298 C 131.619 -2.36108 -6.40892 0
M  V30 1299 O 131.307 -3.33643 -7.31394 0
M  V30 1300 H 131.039 0.0479716 -0.674296 0
M  V30 1301 H 133.593 -0.508121 -1.99016 0
M  V30 1302 H 131.823 1.50596 -3.56171 0
M  V30 1303 H 133.512 1.22285 -3.87042 0
M  V30 1304 H 134.278 -1.1103 -4.7212 0
M  V30 1305 H 130.157 0.110738 -4.60867 0
M  V30 1306 H 133.701 -2.86348 -6.36121 0
M  V30 1307 H 129.598 -1.63434 -6.24467 0
M  V30 1308 H 130.366 -3.29244 -7.4936 0
M  V30 1309 N 133.029 1.57378 -0.0835403 0
M  V30 1310 C 133.959 2.1641 0.87686 0
M  V30 1311 C 134.94 1.09429 1.30228 0
M  V30 1312 O 136.125 1.37516 1.37124 0
M  V30 1313 C 133.255 2.73517 2.14022 0
M  V30 1314 C 132.209 3.85769 1.85381 0
M  V30 1315 C 131.535 4.29529 3.18448 0
M  V30 1316 C 132.835 5.09486 1.14984 0
M  V30 1317 H 134.529 2.96914 0.385059 0
M  V30 1318 H 132.075 1.42823 0.18377 0
M  V30 1319 H 134.028 3.13463 2.81636 0
M  V30 1320 H 132.752 1.90252 2.65465 0
M  V30 1321 H 131.411 3.46345 1.20169 0
M  V30 1322 H 131.059 3.43169 3.67755 0
M  V30 1323 H 130.759 5.05204 3.00071 0
M  V30 1324 H 132.283 4.72099 3.8724 0
M  V30 1325 H 133.697 5.46674 1.72687 0
M  V30 1326 H 132.094 5.90515 1.06826 0
M  V30 1327 H 133.164 4.84724 0.130749 0
M  V30 1328 N 134.507 -0.190092 1.56449 0
M  V30 1329 C 135.437 -1.23816 1.97969 0
M  V30 1330 C 136.418 -1.47201 0.852395 0
M  V30 1331 O 137.603 -1.58854 1.1171 0
M  V30 1332 C 134.733 -2.5813 2.3235 0
M  V30 1333 C 133.687 -2.49348 3.47864 0
M  V30 1334 C 133.013 -3.8798 3.67934 0
M  V30 1335 C 134.313 -2.01424 4.81898 0
M  V30 1336 H 136.007 -0.89311 2.85769 0
M  V30 1337 H 133.553 -0.428177 1.37487 0
M  V30 1338 H 135.506 -3.31637 2.59991 0
M  V30 1339 H 134.23 -2.94386 1.41438 0
M  V30 1340 H 132.889 -1.78297 3.20321 0
M  V30 1341 H 132.537 -4.21597 2.74344 0
M  V30 1342 H 132.237 -3.82978 4.45648 0
M  V30 1343 H 133.761 -4.63101 3.97957 0
M  V30 1344 H 135.175 -2.64693 5.08538 0
M  V30 1345 H 133.572 -2.07413 5.63116 0
M  V30 1346 H 134.642 -0.967677 4.75146 0
M  V30 1347 N 135.985 -1.50799 -0.457987 0
M  V30 1348 C 137.396 -1.55152 -1.0385 0
M  V30 1349 C 137.747 -0.362719 -1.92818 0
M  V30 1350 O 136.872 0.522915 -2.09987 0
M  V30 1351 C 137.467 -2.81173 -1.89017 0
M  V30 1352 C 136.026 -2.88164 -2.42154 0
M  V30 1353 C 135.173 -2.49591 -1.20829 0
M  V30 1354 H 138.124 -1.56874 -0.240068 0
M  V30 1355 H 138.145 -2.63769 -2.74238 0
M  V30 1356 H 137.657 -3.67677 -1.24238 0
M  V30 1357 H 135.758 -2.06042 -3.10447 0
M  V30 1358 H 135.871 -3.91356 -2.76364 0
M  V30 1359 H 134.235 -2.02322 -1.54719 0
M  V30 1360 H 135.018 -3.38418 -0.576927 0
M  V30 1361 N 137.463 0.71206 -1.40597 0
M  V30 1362 C 138.693 1.49894 -1.42181 0
M  V30 1363 C 139.101 1.89189 -0.0208078 0
M  V30 1364 O 138.444 1.56223 0.966436 0
M  V30 1365 C 138.506 2.80215 -2.25211 0
M  V30 1366 C 138.17 2.63221 -3.73582 0
M  V30 1367 C 139.167 2.30249 -4.66135 0
M  V30 1368 C 136.852 2.79376 -4.17438 0
M  V30 1369 C 138.846 2.13645 -6.00529 0
M  V30 1370 C 136.533 2.6239 -5.51901 0
M  V30 1371 C 137.531 2.29573 -6.43262 0
M  V30 1372 O 137.219 2.12719 -7.75246 0
M  V30 1373 H 136.951 0.469031 -0.486812 0
M  V30 1374 H 139.505 0.88564 -1.85326 0
M  V30 1375 H 137.735 3.4389 -1.76852 0
M  V30 1376 H 139.424 3.41947 -2.18694 0
M  V30 1377 H 140.19 2.17398 -4.33547 0
M  V30 1378 H 136.069 3.03906 -3.46644 0
M  V30 1379 H 139.613 1.87953 -6.71803 0
M  V30 1380 H 135.51 2.74826 -5.84073 0
M  V30 1381 H 136.278 2.27611 -7.86216 0
M  V30 1382 N 138.941 1.26152 0.944643 0
M  V30 1383 C 140.218 1.02247 1.66748 0
M  V30 1384 C 140.598 -0.448202 2.06287 0
M  V30 1385 O 139.946 -1.42779 1.78399 0
M  V30 1386 C 140.156 1.96788 2.88228 0
M  V30 1387 C 141.504 2.25201 3.59958 0
M  V30 1388 O 142.528 1.94626 2.98327 0
M  V30 1389 O 141.387 2.77242 4.70956 0
M  V30 1390 H 138.481 0.388517 0.730057 0
M  V30 1391 H 141.027 1.37348 0.99668 0
M  V30 1392 H 139.799 2.96047 2.55875 0
M  V30 1393 H 139.422 1.62145 3.63035 0
M  V30 1394 N 140.419 -1.14872 1.07899 0
M  V30 1395 C 141.644 -1.90202 0.826926 0
M  V30 1396 C 142.069 -1.77774 -0.614664 0
M  V30 1397 O 141.427 -1.11431 -1.43013 0
M  V30 1398 C 141.475 -3.38352 1.24702 0
M  V30 1399 O 140.579 -4.10497 0.39575 0
M  V30 1400 H 139.92 -0.591968 0.300782 0
M  V30 1401 H 142.45 -1.45437 1.43907 0
M  V30 1402 H 142.46 -3.89156 1.22563 0
M  V30 1403 H 141.135 -3.46715 2.29698 0
M  V30 1404 H 139.712 -3.69796 0.480117 0
M  V30 1405 N 141.898 -0.863906 -1.31812 0
M  V30 1406 C 143.314 -0.555004 -1.49639 0
M  V30 1407 C 143.514 0.912266 -1.79666 0
M  V30 1408 O 142.57 1.69479 -1.87171 0
M  V30 1409 C 143.883 -1.44998 -2.63431 0
M  V30 1410 C 145.431 -1.45138 -2.77316 0
M  V30 1411 C 145.906 -2.33179 -3.94197 0
M  V30 1412 N 147.397 -2.31025 -4.01474 0
M  V30 1413 C 148.132 -2.95871 -4.9117 0
M  V30 1414 N 147.628 -3.69863 -5.8581 0
M  V30 1415 N 149.421 -2.85211 -4.84367 0
M  V30 1416 H 141.572 -1.81339 -1.10589 0
M  V30 1417 H 143.835 -0.77505 -0.545895 0
M  V30 1418 H 143.541 -2.49377 -2.48 0
M  V30 1419 H 143.415 -1.14409 -3.59431 0
M  V30 1420 H 145.802 -0.415201 -2.92164 0
M  V30 1421 H 145.883 -1.79747 -1.82001 0
M  V30 1422 H 145.527 -3.3687 -3.80107 0
M  V30 1423 H 145.457 -1.95897 -4.88807 0
M  V30 1424 H 147.948 -1.77238 -3.33759 0
M  V30 1425 H 148.261 -4.16486 -6.50968 0
M  V30 1426 H 146.606 -3.73971 -5.85808 0
M  V30 1427 H 149.797 -2.26948 -4.09405 0
M  V30 1428 H 149.97 -3.36027 -5.54066 0
M  V30 1429 N 143.376 1.44774 -0.622745 0
M  V30 1430 C 144.339 2.29069 0.0774015 0
M  V30 1431 C 145.339 1.4059 0.780461 0
M  V30 1432 O 146.529 1.62551 0.626322 0
M  V30 1433 C 143.661 3.21974 1.12006 0
M  V30 1434 H 144.854 2.92459 -0.663901 0
M  V30 1435 H 142.407 1.51548 -0.382486 0
M  V30 1436 H 143.142 2.63417 1.89162 0
M  V30 1437 H 142.927 3.87168 0.619951 0
M  V30 1438 H 144.417 3.85318 1.60995 0
M  V30 1439 N 144.854 0.36279 1.53368 0
M  V30 1440 C 146.079 -0.231226 2.06107 0
M  V30 1441 C 146.504 -1.419 1.23474 0
M  V30 1442 O 145.862 -1.79524 0.253128 0
M  V30 1443 C 145.91 -0.605523 3.5548 0
M  V30 1444 O 145.014 -1.70312 3.7559 0
M  V30 1445 H 144.355 -0.034327 0.663112 0
M  V30 1446 H 146.885 0.522584 1.97814 0
M  V30 1447 H 146.895 -0.877314 3.98456 0
M  V30 1448 H 145.57 0.263004 4.15068 0
M  V30 1449 H 144.147 -1.4271 3.44512 0
M  V30 1450 N 146.332 -1.57332 0.0918853 0
M  V30 1451 C 147.295 -2.12708 -0.85369 0
M  V30 1452 C 148.295 -1.05561 -1.213 0
M  V30 1453 O 149.485 -1.31461 -1.14296 0
M  V30 1454 C 146.617 -2.64503 -2.15061 0
M  V30 1455 H 147.81 -2.97573 -0.3729 0
M  V30 1456 H 145.363 -1.55509 -0.157072 0
M  V30 1457 H 146.098 -1.83149 -2.67632 0
M  V30 1458 H 145.883 -3.4284 -1.90272 0
M  V30 1459 H 147.373 -3.07351 -2.82711 0
M  V30 1460 N 147.81 0.181792 -1.56548 0
M  V30 1461 C 148.74 1.22765 -1.98623 0
M  V30 1462 C 149.721 1.46747 -0.860189 0
M  V30 1463 O 150.906 1.58259 -1.12551 0
M  V30 1464 C 148.036 2.56894 -2.33715 0
M  V30 1465 C 146.99 2.475 -3.49182 0
M  V30 1466 C 146.316 3.86023 -3.69986 0
M  V30 1467 C 147.616 1.98866 -4.82959 0
M  V30 1468 H 149.31 0.877942 -2.86239 0
M  V30 1469 H 146.856 0.42088 -1.37712 0
M  V30 1470 H 148.809 3.30253 -2.61746 0
M  V30 1471 H 147.533 2.93632 -1.42997 0
M  V30 1472 H 146.192 1.76596 -3.21262 0
M  V30 1473 H 145.84 4.20136 -2.76576 0
M  V30 1474 H 145.54 3.80609 -4.47672 0
M  V30 1475 H 147.064 4.60984 -4.00407 0
M  V30 1476 H 148.478 2.61992 -5.09934 0
M  V30 1477 H 146.875 2.04424 -5.64208 0
M  V30 1478 H 147.945 0.942465 -4.75653 0
M  V30 1479 N 149.288 1.51039 0.449983 0
M  V30 1480 C 150.238 1.67824 1.54335 0
M  V30 1481 C 151.222 0.5324 1.51836 0
M  V30 1482 O 152.414 0.787762 1.58503 0
M  V30 1483 C 149.543 1.7951 2.92628 0
M  V30 1484 C 148.629 2.99838 2.9993 0
M  V30 1485 N 149.02 4.23207 2.77001 0
M  V30 1486 C 147.318 2.98832 3.31082 0
M  V30 1487 C 148.019 5.04361 2.89818 0
M  V30 1488 N 146.995 4.38746 3.2094 0
M  V30 1489 H 150.797 2.60884 1.35339 0
M  V30 1490 H 148.311 1.48513 0.657085 0
M  V30 1491 H 150.308 1.89642 3.7127 0
M  V30 1492 H 148.968 0.876227 3.12654 0
M  V30 1493 H 149.979 4.5236 2.52172 0
M  V30 1494 H 146.656 2.16527 3.56963 0
M  V30 1495 H 148.046 6.12528 2.76151 0
M  V30 1496 N 150.766 -0.704594 1.40972 0
M  V30 1497 C 151.991 -1.49858 1.43378 0
M  V30 1498 C 152.416 -1.88061 0.038184 0
M  V30 1499 O 151.774 -1.5402 -0.956425 0
M  V30 1500 C 151.822 -2.74333 2.34038 0
M  V30 1501 O 150.926 -3.7147 1.7912 0
M  V30 1502 H 150.267 -0.45139 0.486974 0
M  V30 1503 H 152.797 -0.866832 1.8533 0
M  V30 1504 H 152.807 -3.22741 2.49604 0
M  V30 1505 H 151.482 -2.45863 3.35446 0
M  V30 1506 H 150.059 -3.30363 1.72958 0
M  V30 1507 N 152.244 -1.26651 -0.937939 0
M  V30 1508 C 153.207 -1.08546 -2.01867 0
M  V30 1509 C 154.207 -0.0327327 -1.60767 0
M  V30 1510 O 155.397 -0.276427 -1.71993 0
M  V30 1511 C 152.529 -0.651711 -3.34613 0
M  V30 1512 H 153.722 -2.04502 -2.1936 0
M  V30 1513 H 151.275 -1.09294 -1.11734 0
M  V30 1514 H 152.01 0.309696 -3.22818 0
M  V30 1515 H 151.795 -1.41189 -3.65798 0
M  V30 1516 H 153.285 -0.546973 -4.14002 0
M  V30 1517 N 153.722 1.14298 -1.08507 0
M  V30 1518 C 154.669 2.19414 -0.715965 0
M  V30 1519 C 155.639 1.63399 0.298326 0
M  V30 1520 O 156.824 1.89929 0.182101 0
M  V30 1521 C 153.964 3.44845 -0.132534 0
M  V30 1522 C 153.077 4.15007 -1.19973 0
M  V30 1523 C 152.212 5.28024 -0.580048 0
M  V30 1524 C 151.251 5.9002 -1.62921 0
M  V30 1525 N 150.388 6.94485 -1.03125 0
M  V30 1526 H 155.228 2.50336 -1.61666 0
M  V30 1527 H 152.765 1.2293 -0.807882 0
M  V30 1528 H 154.723 4.16601 0.223454 0
M  V30 1529 H 153.353 3.14403 0.731467 0
M  V30 1530 H 152.405 3.41629 -1.67313 0
M  V30 1531 H 153.717 4.57178 -1.99473 0
M  V30 1532 H 152.871 6.06455 -0.172364 0
M  V30 1533 H 151.61 4.87076 0.246603 0
M  V30 1534 H 150.615 5.10291 -2.04654 0
M  V30 1535 H 151.84 6.33042 -2.45835 0
M  V30 1536 H 149.786 6.55612 -0.225711 0
M  V30 1537 H 149.703 7.35148 -1.76334 0
M  V30 1538 H 150.971 7.7679 -0.649458 0
M  V30 1539 N 155.201 0.870884 1.31352 0
M  V30 1540 C 156.164 0.332243 2.26779 0
M  V30 1541 C 157.164 -0.517302 1.52252 0
M  V30 1542 O 158.354 -0.326477 1.71113 0
M  V30 1543 C 155.486 -0.528066 3.36785 0
M  V30 1544 H 156.679 1.17469 2.75937 0
M  V30 1545 H 154.232 0.64655 1.423 0
M  V30 1546 H 154.967 -1.39167 2.92922 0
M  V30 1547 H 154.752 0.0802582 3.92018 0
M  V30 1548 H 156.242 -0.897179 4.07849 0
M  V30 1549 N 156.679 -1.44442 0.630414 0
M  V30 1550 C 157.609 -2.33418 -0.0618083 0
M  V30 1551 C 158.59 -1.48165 -0.835541 0
M  V30 1552 O 159.775 -1.76886 -0.801564 0
M  V30 1553 C 156.905 -3.31222 -1.04449 0
M  V30 1554 C 155.859 -4.26288 -0.382436 0
M  V30 1555 C 155.185 -5.13954 -1.47497 0
M  V30 1556 C 156.485 -5.1744 0.710865 0
M  V30 1557 H 158.179 -2.91548 0.681184 0
M  V30 1558 H 155.725 -1.40191 0.329026 0
M  V30 1559 H 157.678 -3.92351 -1.53748 0
M  V30 1560 H 156.402 -2.71299 -1.81836 0
M  V30 1561 H 155.061 -3.6649 0.0899054 0
M  V30 1562 H 154.709 -4.50385 -2.2397 0
M  V30 1563 H 154.409 -5.7837 -1.03737 0
M  V30 1564 H 155.933 -5.77955 -1.96979 0
M  V30 1565 H 157.347 -5.72509 0.300996 0
M  V30 1566 H 155.744 -5.90455 1.07156 0
M  V30 1567 H 156.814 -4.58496 1.57829 0
M  V30 1568 N 158.157 -0.370918 -1.53173 0
M  V30 1569 C 159.089 0.507823 -2.23503 0
M  V30 1570 C 160.102 1.04182 -1.251 0
M  V30 1571 O 161.291 0.947286 -1.5129 0
M  V30 1572 C 158.391 1.71447 -2.92334 0
M  V30 1573 C 157.564 1.31105 -4.17289 0
M  V30 1574 C 156.623 2.38035 -4.69282 0
M  V30 1575 O 155.649 2.00204 -5.32829 0
M  V30 1576 N 156.851 3.69697 -4.47554 0
M  V30 1577 H 159.616 -0.0946382 -2.99551 0
M  V30 1578 H 157.177 -0.196358 -1.60705 0
M  V30 1579 H 159.169 2.42469 -3.24023 0
M  V30 1580 H 157.739 2.22368 -2.19707 0
M  V30 1581 H 156.959 0.430462 -3.91843 0
M  V30 1582 H 158.247 1.0179 -4.98514 0
M  V30 1583 H 157.645 4.03205 -3.9679 0
M  V30 1584 H 156.202 4.36807 -4.8378 0
M  V30 1585 N 159.635 1.57281 -0.100228 0
M  V30 1586 C 160.86 1.99302 0.573881 0
M  V30 1587 C 161.285 0.979059 1.60611 0
M  V30 1588 O 160.643 -0.0517803 1.81226 0
M  V30 1589 C 160.691 3.40274 1.19358 0
M  V30 1590 O 159.795 3.41676 2.30935 0
M  V30 1591 H 159.136 0.647944 0.145138 0
M  V30 1592 H 161.666 2.03779 -0.183156 0
M  V30 1593 H 161.676 3.78078 1.53365 0
M  V30 1594 H 160.351 4.13594 0.437385 0
M  V30 1595 H 158.928 3.15672 1.98509 0
M  V30 1596 N 161.113 -0.173488 1.56642 0
M  V30 1597 C 162.076 -1.19859 1.95362 0
M  V30 1598 C 163.076 -1.37296 0.83704 0
M  V30 1599 O 164.266 -1.34739 1.10413 0
M  V30 1600 C 161.398 -2.56405 2.24654 0
M  V30 1601 H 162.591 -0.867062 2.87092 0
M  V30 1602 H 160.144 -0.415853 1.50666 0
M  V30 1603 H 160.879 -2.94576 1.35631 0
M  V30 1604 H 160.664 -2.45115 3.06041 0
M  V30 1605 H 162.154 -3.30287 2.5554 0
M  V30 1606 N 162.591 -1.51276 -0.441967 0
M  V30 1607 C 163.837 -1.63958 -1.19355 0
M  V30 1608 C 164.17 -0.352543 -1.90973 0
M  V30 1609 O 163.445 0.647627 -1.83401 0
M  V30 1610 C 163.728 -2.83979 -2.21422 0
M  V30 1611 C 163.581 -4.22646 -1.53918 0
M  V30 1612 C 164.9 -2.99521 -3.22451 0
M  V30 1613 H 162.019 -0.596709 -0.432559 0
M  V30 1614 H 164.661 -1.83748 -0.483398 0
M  V30 1615 H 162.811 -2.67237 -2.81987 0
M  V30 1616 H 164.483 -4.51045 -0.967256 0
M  V30 1617 H 162.726 -4.25558 -0.841615 0
M  V30 1618 H 163.397 -5.02609 -2.28229 0
M  V30 1619 H 165.873 -3.14944 -2.71937 0
M  V30 1620 H 164.749 -3.85072 -3.91166 0
M  V30 1621 H 165.01 -2.11391 -3.88287 0
M  V30 1622 N 164.069 0.697108 -1.41344 0
M  V30 1623 C 165.294 1.49096 -1.44171 0
M  V30 1624 C 165.719 1.88038 -0.0481568 0
M  V30 1625 O 165.077 1.54525 0.948243 0
M  V30 1626 C 165.125 2.73088 -2.3549 0
M  V30 1627 O 164.229 3.70514 -1.81088 0
M  V30 1628 H 163.57 0.448801 -0.489361 0
M  V30 1629 H 166.1 0.856992 -1.85787 0
M  V30 1630 H 166.11 3.21413 -2.51312 0
M  V30 1631 H 164.785 2.44081 -3.36745 0
M  V30 1632 H 163.362 3.29441 -1.74708 0
M  V30 1633 N 165.547 1.27147 0.931209 0
M  V30 1634 C 166.775 1.16082 1.71267 0
M  V30 1635 C 167.19 -0.282772 1.8667 0
M  V30 1636 O 166.547 -1.19283 1.38122 0
M  V30 1637 C 166.598 1.8358 3.11417 0
M  V30 1638 O 166.319 3.22299 2.96741 0
M  V30 1639 C 167.82 1.78597 4.05732 0
M  V30 1640 H 165.04 0.403758 0.535929 0
M  V30 1641 H 167.584 1.67953 1.16671 0
M  V30 1642 H 165.739 1.35623 3.62885 0
M  V30 1643 H 166.153 3.55851 3.85319 0
M  V30 1644 H 167.627 2.30444 5.01597 0
M  V30 1645 H 168.104 0.754564 4.3267 0
M  V30 1646 H 168.71 2.26152 3.60188 0
M  V30 1647 N 167.025 -1.13721 1.09112 0
M  V30 1648 C 167.958 -2.18094 0.67158 0
M  V30 1649 C 168.936 -1.59414 -0.320299 0
M  V30 1650 O 170.12 -1.87183 -0.222444 0
M  V30 1651 C 167.247 -3.38698 -0.0111189 0
M  V30 1652 C 166.293 -4.15966 0.942055 0
M  V30 1653 S 167.126 -4.7604 2.45246 0
M  V30 1654 C 168.282 -5.99994 1.78208 0
M  V30 1655 H 168.515 -2.53344 1.55577 0
M  V30 1656 H 166.048 -1.24967 0.906789 0
M  V30 1657 H 168.006 -4.08559 -0.398716 0
M  V30 1658 H 166.667 -3.01756 -0.871905 0
M  V30 1659 H 165.86 -5.02318 0.411396 0
M  V30 1660 H 165.462 -3.51745 1.2709 0
M  V30 1661 H 167.754 -6.68441 1.10424 0
M  V30 1662 H 168.697 -6.57662 2.62463 0
M  V30 1663 H 169.105 -5.50432 1.25238 0
M  V30 1664 N 168.503 -0.877838 -1.30888 0
M  V30 1665 C 169.435 -0.296607 -2.27273 0
M  V30 1666 C 170.448 0.544799 -1.53414 0
M  V30 1667 O 171.637 0.365511 -1.74718 0
M  V30 1668 C 168.737 0.597481 -3.33592 0
M  V30 1669 C 167.91 -0.213251 -4.3688 0
M  V30 1670 C 166.969 0.610208 -5.2265 0
M  V30 1671 O 165.995 0.035441 -5.69189 0
M  V30 1672 N 167.197 1.92071 -5.47804 0
M  V30 1673 H 169.962 -1.12492 -2.77787 0
M  V30 1674 H 167.523 -0.740105 -1.43993 0
M  V30 1675 H 169.515 1.15425 -3.87891 0
M  V30 1676 H 168.085 1.32647 -2.83061 0
M  V30 1677 H 167.305 -0.951466 -3.82545 0
M  V30 1678 H 168.593 -0.769262 -5.02951 0
M  V30 1679 H 167.991 2.4107 -5.11763 0
M  V30 1680 H 166.548 2.42508 -6.05007 0
M  V30 1681 N 169.982 1.44106 -0.638065 0
M  V30 1682 C 170.914 2.28976 0.101205 0
M  V30 1683 C 171.927 1.4167 0.802088 0
M  V30 1684 O 173.116 1.65755 0.662375 0
M  V30 1685 C 170.216 3.18217 1.16581 0
M  V30 1686 C 169.389 4.33978 0.546066 0
M  V30 1687 C 168.448 5.04202 1.50554 0
M  V30 1688 O 167.474 5.59986 1.01999 0
M  V30 1689 N 168.676 5.06296 2.8398 0
M  V30 1690 H 171.441 2.93064 -0.627186 0
M  V30 1691 H 169.002 1.54629 -0.479731 0
M  V30 1692 H 170.994 3.62061 1.80815 0
M  V30 1693 H 169.564 2.55833 1.79634 0
M  V30 1694 H 168.784 3.93239 -0.275046 0
M  V30 1695 H 170.072 5.08675 0.112793 0
M  V30 1696 H 169.47 4.62319 3.26002 0
M  V30 1697 H 168.027 5.53907 3.43556 0
M  V30 1698 N 171.46 0.379036 1.52974 0
M  V30 1699 C 172.707 -0.206421 2.01445 0
M  V30 1700 C 173.035 -1.47668 1.26587 0
M  V30 1701 O 172.29 -1.92514 0.351675 0
M  V30 1702 C 172.589 -0.53096 3.53434 0
M  V30 1703 C 172.255 0.646546 4.46241 0
M  V30 1704 C 170.917 0.969604 4.7133 0
M  V30 1705 C 173.269 1.43479 5.01062 0
M  V30 1706 C 170.597 2.08263 5.48492 0
M  V30 1707 C 172.949 2.53834 5.7944 0
M  V30 1708 C 171.613 2.86659 6.02812 0
M  V30 1709 H 170.883 -0.0755349 0.73714 0
M  V30 1710 H 173.53 0.514271 1.84465 0
M  V30 1711 H 171.835 -1.33285 3.68432 0
M  V30 1712 H 173.532 -0.996417 3.88423 0
M  V30 1713 H 170.122 0.384734 4.2687 0
M  V30 1714 H 174.306 1.19844 4.81613 0
M  V30 1715 H 169.562 2.34078 5.64816 0
M  V30 1716 H 173.736 3.15319 6.20924 0
M  V30 1717 H 171.363 3.73026 6.62387 0
M  V30 1718 N 172.938 -1.57226 0.108567 0
M  V30 1719 C 174.168 -1.9889 -0.559142 0
M  V30 1720 C 174.576 -0.986889 -1.61422 0
M  V30 1721 O 173.919 0.0298705 -1.83676 0
M  V30 1722 C 173.981 -3.36952 -1.25315 0
M  V30 1723 C 173.645 -4.55679 -0.347248 0
M  V30 1724 C 174.642 -5.18281 0.409996 0
M  V30 1725 C 172.327 -5.0162 -0.261367 0
M  V30 1726 C 174.321 -6.25203 1.24096 0
M  V30 1727 C 172.008 -6.08405 0.573238 0
M  V30 1728 C 173.006 -6.70063 1.32304 0
M  V30 1729 O 172.694 -7.74788 2.14381 0
M  V30 1730 H 172.426 -0.658343 -0.153492 0
M  V30 1731 H 174.98 -2.04532 0.188584 0
M  V30 1732 H 173.21 -3.28032 -2.04773 0
M  V30 1733 H 174.899 -3.62974 -1.81673 0
M  V30 1734 H 175.665 -4.8371 0.353457 0
M  V30 1735 H 171.544 -4.53381 -0.834656 0
M  V30 1736 H 175.088 -6.73259 1.82669 0
M  V30 1737 H 170.985 -6.42406 0.631208 0
M  V30 1738 H 171.753 -7.91837 2.07209 0
M  V30 1739 N 174.416 0.165178 -1.56732 0
M  V30 1740 C 175.664 0.879068 -1.8198 0
M  V30 1741 C 175.985 1.82514 -0.686561 0
M  V30 1742 O 175.255 1.93694 0.293146 0
M  V30 1743 H 173.835 0.327608 -0.671329 0
M  V30 1744 H 176.497 0.163526 -1.94213 0
M  V30 1745 H 175.593 1.45228 -2.76252 0
M  V30 1746 N 175.894 1.51508 0.433938 0
M  V30 1747 C 177.143 1.63578 1.18005 0
M  V30 1748 C 177.456 0.359514 1.92268 0
M  V30 1749 O 178.662 0.359632 2.69108 0
M  V30 1750 C 177.118 2.88901 2.14626 0
M  V30 1751 C 176.726 4.23544 1.45995 0
M  V30 1752 C 178.47 3.10328 2.89649 0
M  V30 1753 C 176.377 5.40014 2.4112 0
M  V30 1754 H 175.307 0.609277 0.444182 0
M  V30 1755 H 177.958 1.77978 0.446773 0
M  V30 1756 H 176.34 2.68142 2.91403 0
M  V30 1757 H 177.514 4.54696 0.747532 0
M  V30 1758 H 175.829 4.08021 0.831115 0
M  V30 1759 H 178.426 3.94518 3.60915 0
M  V30 1760 H 178.769 2.23544 3.51189 0
M  V30 1761 H 179.302 3.31443 2.19978 0
M  V30 1762 H 176.041 6.29068 1.84264 0
M  V30 1763 H 175.561 5.13233 3.10406 0
M  V30 1764 H 177.24 5.72099 3.02177 0
M  V30 1765 N 177.372 -0.689602 1.41712 0
M  V30 1766 C 178.783 -1.26973 1.36875 0
M  V30 1767 C 179.134 -1.96124 0.054748 0
M  V30 1768 O 178.259 -1.99141 -0.84687 0
M  V30 1769 C 178.854 -2.30912 2.47922 0
M  V30 1770 C 177.413 -2.84486 2.46464 0
M  V30 1771 C 176.56 -1.58603 2.27465 0
M  V30 1772 H 179.511 -0.48396 1.51141 0
M  V30 1773 H 179.532 -3.12331 2.17323 0
M  V30 1774 H 179.044 -1.80554 3.43543 0
M  V30 1775 H 177.145 -3.39005 1.54617 0
M  V30 1776 H 177.258 -3.34511 3.42986 0
M  V30 1777 H 175.622 -1.84632 1.75451 0
M  V30 1778 H 176.405 -1.10233 3.25121 0
M  V30 1779 N 178.85 -1.27639 -0.924453 0
M  V30 1780 C 180.096 -1.14336 -1.67497 0
M  V30 1781 C 180.429 0.309465 -1.91718 0
M  V30 1782 O 179.704 1.22608 -1.50989 0
M  V30 1783 C 179.987 -1.93096 -3.0395 0
M  V30 1784 C 179.84 -3.46381 -2.8695 0
M  V30 1785 C 181.159 -1.73798 -4.0433 0
M  V30 1786 H 178.278 -0.416728 -0.607871 0
M  V30 1787 H 180.92 -1.56832 -1.07256 0
M  V30 1788 H 179.07 -1.56982 -3.55372 0
M  V30 1789 H 180.742 -3.92343 -2.42621 0
M  V30 1790 H 178.985 -3.72557 -2.22225 0
M  V30 1791 H 179.656 -3.96735 -3.83804 0
M  V30 1792 H 182.132 -2.05293 -3.61931 0
M  V30 1793 H 181.008 -2.31294 -4.97789 0
M  V30 1794 H 181.269 -0.686725 -4.36734 0
M  V30 1795 N 180.328 1.1314 -1.09713 0
M  V30 1796 C 181.556 1.88321 -0.856898 0
M  V30 1797 C 181.971 1.79276 0.592073 0
M  V30 1798 O 181.328 1.16142 1.40774 0
M  V30 1799 C 181.379 3.37812 -1.28706 0
M  V30 1800 O 181.1 3.46627 -2.67921 0
M  V30 1801 C 182.601 4.29952 -1.07964 0
M  V30 1802 H 179.821 0.596094 -0.308079 0
M  V30 1803 H 182.365 1.43205 -1.45988 0
M  V30 1804 H 180.52 3.805 -0.727912 0
M  V30 1805 H 180.934 4.39579 -2.8613 0
M  V30 1806 H 182.408 5.33159 -1.42986 0
M  V30 1807 H 182.885 4.39196 -0.0176577 0
M  V30 1808 H 183.491 3.93036 -1.62489 0
M  V30 1809 N 181.806 0.884767 1.30421 0
M  V30 1810 C 183.054 0.502112 1.95763 0
M  V30 1811 C 183.375 -0.951815 1.70192 0
M  V30 1812 O 182.645 -1.6692 1.0254 0
M  V30 1813 H 181.225 0.182694 0.724315 0
M  V30 1814 H 183.887 1.1278 1.58955 0
M  V30 1815 H 182.983 0.672188 3.04775 0
M  V30 1816 N 183.284 -1.43765 0.645699 0
M  V30 1817 C 184.53 -2.02197 0.156271 0
M  V30 1818 C 184.863 -1.50776 -1.22393 0
M  V30 1819 O 184.138 -0.697771 -1.81553 0
M  V30 1820 C 184.421 -3.59749 0.158872 0
M  V30 1821 C 184.274 -4.21419 1.57245 0
M  V30 1822 C 185.593 -4.37149 -0.50879 0
M  V30 1823 H 182.712 -0.734694 0.0582602 0
M  V30 1824 H 185.354 -1.71157 0.824951 0
M  V30 1825 H 183.504 -3.86325 -0.410525 0
M  V30 1826 H 185.176 -4.059 2.19186 0
M  V30 1827 H 183.419 -3.78356 2.122 0
M  V30 1828 H 184.09 -5.30482 1.52619 0
M  V30 1829 H 186.566 -4.16093 -0.024412 0
M  V30 1830 H 185.442 -5.4683 -0.476213 0
M  V30 1831 H 185.703 -4.12839 -1.58165 0
M  V30 1832 N 184.763 -0.387143 -1.52771 0
M  V30 1833 C 185.693 0.440551 -2.29306 0
M  V30 1834 C 186.674 1.06535 -1.32606 0
M  V30 1835 O 187.859 1.07853 -1.61497 0
M  V30 1836 C 184.989 1.56919 -3.09829 0
M  V30 1837 C 183.943 1.07054 -4.14395 0
M  V30 1838 C 183.269 2.29109 -4.83129 0
M  V30 1839 C 184.569 0.140015 -5.22112 0
M  V30 1840 H 186.263 -0.198026 -2.98744 0
M  V30 1841 H 183.809 -0.09668 -1.43675 0
M  V30 1842 H 185.762 2.15503 -3.62128 0
M  V30 1843 H 184.486 2.23532 -2.3812 0
M  V30 1844 H 183.145 0.507247 -3.63074 0
M  V30 1845 H 182.793 2.94227 -4.0797 0
M  V30 1846 H 182.493 1.96406 -5.53804 0
M  V30 1847 H 184.017 2.88339 -5.38231 0
M  V30 1848 H 185.431 0.633978 -5.69784 0
M  V30 1849 H 183.828 -0.0971485 -6.00021 0
M  V30 1850 H 184.898 -0.811711 -4.78058 0
M  V30 1851 N 186.241 1.57166 -0.116904 0
M  V30 1852 C 187.518 1.86645 0.585049 0
M  V30 1853 C 187.898 1.0177 1.84949 0
M  V30 1854 O 187.246 0.0960379 2.28298 0
M  V30 1855 C 187.456 3.37736 0.879507 0
M  V30 1856 C 188.804 4.06289 1.23348 0
M  V30 1857 O 189.828 3.42743 0.969836 0
M  V30 1858 O 188.687 5.18455 1.7282 0
M  V30 1859 H 185.781 0.772593 0.295007 0
M  V30 1860 H 188.327 1.69025 -0.151249 0
M  V30 1861 H 187.099 3.91296 -0.0166136 0
M  V30 1862 H 186.722 3.6078 1.67103 0
M  V30 1863 N 187.719 -0.156864 1.56817 0
M  V30 1864 C 188.651 -1.21883 1.94106 0
M  V30 1865 C 189.664 -1.3971 0.835754 0
M  V30 1866 O 190.853 -1.39457 1.11418 0
M  V30 1867 C 187.953 -2.58527 2.19127 0
M  V30 1868 C 187.126 -2.61809 3.50393 0
M  V30 1869 C 186.185 -3.7992 3.64071 0
M  V30 1870 O 185.211 -3.65249 4.36557 0
M  V30 1871 N 186.413 -4.96973 2.99997 0
M  V30 1872 H 189.178 -0.901974 2.85805 0
M  V30 1873 H 186.739 -0.346513 1.58148 0
M  V30 1874 H 188.731 -3.36034 2.25529 0
M  V30 1875 H 187.301 -2.82545 1.33742 0
M  V30 1876 H 186.521 -1.7029 3.5552 0
M  V30 1877 H 187.809 -2.61024 4.36742 0
M  V30 1878 H 187.207 -5.11794 2.41004 0
M  V30 1879 H 185.764 -5.7229 3.11974 0
M  V30 1880 N 189.197 -1.51736 -0.425897 0
M  V30 1881 C 190.425 -1.68794 -1.1965 0
M  V30 1882 C 190.84 -0.390164 -1.84725 0
M  V30 1883 O 190.197 0.632376 -1.71194 0
M  V30 1884 C 190.248 -2.81174 -2.27208 0
M  V30 1885 O 189.969 -4.05925 -1.64793 0
M  V30 1886 C 191.47 -3.09599 -3.17275 0
M  V30 1887 H 188.69 -0.566128 -0.360194 0
M  V30 1888 H 191.234 -1.98211 -0.503249 0
M  V30 1889 H 189.389 -2.54324 -2.9223 0
M  V30 1890 H 189.803 -4.68423 -2.35967 0
M  V30 1891 H 191.277 -3.91786 -3.88854 0
M  V30 1892 H 191.754 -2.22468 -3.78688 0
M  V30 1893 H 192.36 -3.38151 -2.57941 0
M  V30 1894 N 190.675 0.682077 -1.42076 0
M  V30 1895 C 191.903 1.47057 -1.4554 0
M  V30 1896 C 192.318 1.8869 -0.0645779 0
M  V30 1897 O 191.675 1.57666 0.919115 0
M  V30 1898 C 191.726 2.72442 -2.37609 0
M  V30 1899 O 191.447 2.32559 -3.71279 0
M  V30 1900 C 192.948 3.66069 -2.50017 0
M  V30 1901 H 190.168 0.452737 -0.495248 0
M  V30 1902 H 192.712 0.838695 -1.8651 0
M  V30 1903 H 190.867 3.31835 -1.9991 0
M  V30 1904 H 191.281 3.13475 -4.20516 0
M  V30 1905 H 192.755 4.50792 -3.18576 0
M  V30 1906 H 193.232 4.11476 -1.53572 0
M  V30 1907 H 193.838 3.12572 -2.88407 0
M  V30 1908 N 192.153 1.28127 0.917671 0
M  V30 1909 C 193.402 1.14432 1.66097 0
M  V30 1910 C 193.715 -0.307247 1.93172 0
M  V30 1911 O 194.921 -0.565259 2.65551 0
M  V30 1912 C 193.377 2.00015 2.99202 0
M  V30 1913 C 192.985 3.49889 2.79789 0
M  V30 1914 C 194.729 1.94996 3.77064 0
M  V30 1915 C 192.636 4.27636 4.08511 0
M  V30 1916 H 191.566 0.424662 0.62304 0
M  V30 1917 H 194.217 1.52628 1.01868 0
M  V30 1918 H 192.599 1.54672 3.64544 0
M  V30 1919 H 193.773 4.03162 2.23152 0
M  V30 1920 H 192.088 3.56392 2.15345 0
M  V30 1921 H 194.685 2.50354 4.72469 0
M  V30 1922 H 195.028 0.925819 4.05875 0
M  V30 1923 H 195.561 2.38287 3.18534 0
M  V30 1924 H 192.3 5.30615 3.84874 0
M  V30 1925 H 191.82 3.79137 4.64774 0
M  V30 1926 H 193.499 4.37346 4.76799 0
M  V30 1927 N 193.631 -1.12557 1.10312 0
M  V30 1928 C 194.541 -2.21841 0.763142 0
M  V30 1929 C 195.557 -1.72354 -0.238801 0
M  V30 1930 O 196.733 -2.01249 -0.0778746 0
M  V30 1931 C 193.798 -3.46131 0.198632 0
M  V30 1932 C 192.859 -4.10464 1.25769 0
M  V30 1933 C 192.092 -5.28821 0.72002 0
M  V30 1934 O 192.315 -5.6859 -0.453993 0
M  V30 1935 O 191.249 -5.83437 1.47935 0
M  V30 1936 H 195.075 -2.53312 1.67532 0
M  V30 1937 H 192.66 -1.20867 0.878157 0
M  V30 1938 H 194.542 -4.2125 -0.112401 0
M  V30 1939 H 193.217 -3.16338 -0.686419 0
M  V30 1940 H 192.124 -3.3713 1.62156 0
M  V30 1941 H 193.457 -4.44408 2.11571 0
M  V30 1942 N 195.109 -0.891671 -1.2995 0
M  V30 1943 C 196.355 -0.523649 -1.96544 0
M  V30 1944 C 196.71 0.918394 -1.69066 0
M  V30 1945 O 196.003 1.64122 -0.988659 0
M  V30 1946 C 196.197 -0.742868 -3.49594 0
M  V30 1947 C 196.026 -2.20467 -3.9195 0
M  V30 1948 C 194.796 -2.85055 -4.17219 0
M  V30 1949 C 196.994 -3.17912 -4.04273 0
M  V30 1950 N 194.976 -4.21762 -4.46083 0
M  V30 1951 C 196.347 -4.39712 -4.37097 0
M  V30 1952 C 198.402 -3.1361 -3.86721 0
M  V30 1953 C 197.105 -5.5776 -4.54199 0
M  V30 1954 C 199.131 -4.30936 -4.05028 0
M  V30 1955 C 198.493 -5.51504 -4.38204 0
M  V30 1956 H 194.592 -0.241072 -0.743914 0
M  V30 1957 H 197.176 -1.15081 -1.5705 0
M  V30 1958 H 195.347 -0.14515 -3.88129 0
M  V30 1959 H 197.079 -0.341081 -4.0326 0
M  V30 1960 H 193.834 -2.35889 -4.10674 0
M  V30 1961 H 194.258 -4.92382 -4.64638 0
M  V30 1962 H 198.9 -2.21489 -3.60142 0
M  V30 1963 H 196.618 -6.50379 -4.79618 0
M  V30 1964 H 200.204 -4.29085 -3.92909 0
M  V30 1965 H 199.084 -6.40778 -4.52077 0
M  V30 1966 N 196.587 1.43421 -0.653314 0
M  V30 1967 C 197.52 2.2803 0.0879804 0
M  V30 1968 C 198.498 1.39833 0.82979 0
M  V30 1969 O 199.682 1.69275 0.829341 0
M  V30 1970 C 196.809 3.19247 1.13132 0
M  V30 1971 C 195.855 4.23704 0.487546 0
M  V30 1972 S 196.688 5.30377 -0.738961 0
M  V30 1973 C 197.844 6.25162 0.30384 0
M  V30 1974 H 198.077 2.90554 -0.629739 0
M  V30 1975 H 195.61 1.47934 -0.442156 0
M  V30 1976 H 197.568 3.72346 1.72827 0
M  V30 1977 H 196.229 2.55901 1.82136 0
M  V30 1978 H 195.422 4.87631 1.27407 0
M  V30 1979 H 195.024 3.73983 -0.0352915 0
M  V30 1980 H 197.316 6.67321 1.17 0
M  V30 1981 H 198.259 7.07463 -0.300402 0
M  V30 1982 H 198.667 5.60864 0.63969 0
M  V30 1983 N 198.065 0.39524 1.52563 0
M  V30 1984 C 199.012 -0.437036 2.26624 0
M  V30 1985 C 199.982 -1.05281 1.28472 0
M  V30 1986 O 201.167 -1.07971 1.57311 0
M  V30 1987 C 198.307 -1.55524 3.08069 0
M  V30 1988 C 197.42 -0.961745 4.21158 0
M  V30 1989 C 196.555 -2.05149 4.89987 0
M  V30 1990 C 195.594 -1.4342 5.95061 0
M  V30 1991 N 194.731 -2.46351 6.57462 0
M  V30 1992 H 199.571 0.200976 2.97322 0
M  V30 1993 H 197.108 0.110944 1.46681 0
M  V30 1994 H 199.066 -2.21437 3.53584 0
M  V30 1995 H 197.696 -2.16348 2.3957 0
M  V30 1996 H 196.748 -0.192048 3.79915 0
M  V30 1997 H 198.06 -0.470701 4.96574 0
M  V30 1998 H 197.214 -2.78819 5.38837 0
M  V30 1999 H 195.953 -2.57615 4.14109 0
M  V30 2000 H 194.958 -0.682774 5.45544 0
M  V30 2001 H 196.183 -0.917416 6.72875 0
M  V30 2002 H 194.129 -2.97975 5.8442 0
M  V30 2003 H 194.046 -2.02019 7.28508 0
M  V30 2004 H 195.314 -3.19633 7.10954 0
M  V30 2005 N 199.544 -1.57102 0.125237 0
M  V30 2006 C 200.491 -2.15641 -0.822655 0
M  V30 2007 C 201.461 -1.08313 -1.25927 0
M  V30 2008 O 202.646 -1.36251 -1.33567 0
M  V30 2009 C 199.786 -2.76504 -2.06494 0
M  V30 2010 C 198.899 -3.98158 -1.67612 0
M  V30 2011 C 198.034 -4.47088 -2.86854 0
M  V30 2012 C 197.073 -5.6126 -2.44242 0
M  V30 2013 N 196.21 -6.04905 -3.56419 0
M  V30 2014 H 201.05 -2.96313 -0.316625 0
M  V30 2015 H 198.587 -1.46388 -0.144588 0
M  V30 2016 H 200.545 -3.09925 -2.79289 0
M  V30 2017 H 199.175 -1.98512 -2.54545 0
M  V30 2018 H 198.227 -3.70858 -0.846661 0
M  V30 2019 H 199.539 -4.80934 -1.32301 0
M  V30 2020 H 198.693 -4.82451 -3.67867 0
M  V30 2021 H 197.432 -3.63275 -3.25396 0
M  V30 2022 H 196.437 -5.25495 -1.61663 0
M  V30 2023 H 197.662 -6.46843 -2.0681 0
M  V30 2024 H 195.608 -5.24032 -3.94623 0
M  V30 2025 H 195.525 -6.82552 -3.25051 0
M  V30 2026 H 196.793 -6.44907 -4.37853 0
M  V30 2027 N 201.022 0.148545 -1.56898 0
M  V30 2028 C 202.433 0.708766 -1.72723 0
M  V30 2029 C 202.784 1.81734 -0.739395 0
M  V30 2030 O 201.909 2.16194 0.0943169 0
M  V30 2031 C 202.504 1.29245 -3.13179 0
M  V30 2032 C 201.063 1.79925 -3.30611 0
M  V30 2033 C 200.21 0.687111 -2.68652 0
M  V30 2034 H 203.161 -0.0771063 -1.58513 0
M  V30 2035 H 203.182 2.16224 -3.13093 0
M  V30 2036 H 202.694 0.485382 -3.85053 0
M  V30 2037 H 200.795 2.63203 -2.63732 0
M  V30 2038 H 200.908 1.92903 -4.38549 0
M  V30 2039 H 199.272 1.11335 -2.29078 0
M  V30 2040 H 200.055 -0.108483 -3.43129 0
M  V30 2041 N 202.5 1.5196 0.417844 0
M  V30 2042 C 203.916 1.40569 0.755816 0
M  V30 2043 C 204.116 0.503316 1.95113 0
M  V30 2044 O 203.172 -0.0341925 2.52477 0
M  V30 2045 C 204.485 2.82947 1.01791 0
M  V30 2046 C 206.033 2.92231 1.12116 0
M  V30 2047 C 206.508 4.35559 1.41608 0
M  V30 2048 N 207.999 4.38753 1.48491 0
M  V30 2049 C 208.734 5.46705 1.7292 0
M  V30 2050 N 208.23 6.64788 1.95011 0
M  V30 2051 N 210.023 5.34209 1.74863 0
M  V30 2052 H 202.174 2.09168 -0.369098 0
M  V30 2053 H 204.437 0.942409 -0.102809 0
M  V30 2054 H 204.143 3.5106 0.212081 0
M  V30 2055 H 204.017 3.23462 1.94042 0
M  V30 2056 H 206.404 2.24304 1.9176 0
M  V30 2057 H 206.485 2.55185 0.177225 0
M  V30 2058 H 206.129 5.04042 0.624848 0
M  V30 2059 H 206.059 4.70133 2.37239 0
M  V30 2060 H 208.55 3.5363 1.33244 0
M  V30 2061 H 208.863 7.42845 2.13076 0
M  V30 2062 H 207.208 6.67869 1.92293 0
M  V30 2063 H 210.399 4.40937 1.57137 0
M  V30 2064 H 210.572 6.18415 1.93563 0
M  V30 2065 N 203.978 -0.674533 1.42435 0
M  V30 2066 C 205.218 -1.4466 1.44405 0
M  V30 2067 C 205.582 -1.91911 0.0585784 0
M  V30 2068 O 206.783 -2.68759 -0.0469991 0
M  V30 2069 C 205.054 -2.61136 2.44013 0
M  V30 2070 S 206.613 -3.49981 2.64687 0
M  V30 2071 H 203.431 -0.494074 0.511284 0
M  V30 2072 H 206.033 -0.785162 1.7904 0
M  V30 2073 H 204.737 -2.24662 3.43446 0
M  V30 2074 H 204.268 -3.32153 2.10803 0
M  V30 2075 H 206.283 -4.57124 1.93007 0
M  V30 2076 N 205.456 -1.28612 -0.910864 0
M  V30 2077 C 206.704 -1.15705 -1.65701 0
M  V30 2078 C 207.025 0.29416 -1.92769 0
M  V30 2079 O 206.295 1.20331 -1.54588 0
M  V30 2080 H 204.875 -0.425216 -0.614167 0
M  V30 2081 H 207.537 -1.61381 -1.0928 0
M  V30 2082 H 206.633 -1.6988 -2.61815 0
M  V30 2083 N 206.934 1.1197 -1.10907 0
M  V30 2084 C 208.18 1.8386 -0.855773 0
M  V30 2085 C 208.513 1.84134 0.617103 0
M  V30 2086 O 207.788 1.29041 1.45529 0
M  V30 2087 C 208.071 3.31305 -1.411 0
M  V30 2088 C 207.924 3.39456 -2.9511 0
M  V30 2089 C 209.243 4.2721 -1.05736 0
M  V30 2090 H 206.362 0.667545 -0.312334 0
M  V30 2091 H 209.004 1.31331 -1.37303 0
M  V30 2092 H 207.154 3.76169 -0.97105 0
M  V30 2093 H 208.826 3.03191 -3.47668 0
M  V30 2094 H 207.069 2.79849 -3.31462 0
M  V30 2095 H 207.74 4.43209 -3.29044 0
M  V30 2096 H 210.216 3.90497 -1.43706 0
M  V30 2097 H 209.092 5.28775 -1.47269 0
M  V30 2098 H 209.353 4.42088 0.0325958 0
M  V30 2099 N 208.412 0.89855 1.29475 0
M  V30 2100 C 209.823 0.572537 1.77705 0
M  V30 2101 C 210.174 -0.911778 1.73727 0
M  V30 2102 O 209.299 -1.71288 1.32247 0
M  V30 2103 C 209.894 1.03252 3.22683 0
M  V30 2104 C 208.453 0.757687 3.68695 0
M  V30 2105 C 207.6 1.20787 2.49612 0
M  V30 2106 H 210.551 1.08139 1.16153 0
M  V30 2107 H 210.572 0.367307 3.78723 0
M  V30 2108 H 210.084 2.11285 3.25546 0
M  V30 2109 H 208.185 -0.310079 3.71308 0
M  V30 2110 H 208.298 1.35476 4.59547 0
M  V30 2111 H 206.662 0.626888 2.46865 0
M  V30 2112 H 207.445 2.29622 2.55203 0
M  V30 2113 N 209.89 -1.43072 0.660911 0
M  V30 2114 C 211.167 -1.95307 0.107017 0
M  V30 2115 C 211.547 -1.60192 -1.37484 0
M  V30 2116 O 210.895 -0.890949 -2.10415 0
M  V30 2117 C 211.105 -3.47124 0.361402 0
M  V30 2118 C 212.453 -4.23738 0.270455 0
M  V30 2119 O 213.477 -3.54981 0.294382 0
M  V30 2120 O 212.336 -5.46131 0.200737 0
M  V30 2121 H 209.43 -0.826984 -0.00517729 0
M  V30 2122 H 211.976 -1.52972 0.734681 0
M  V30 2123 H 210.748 -3.65837 1.38848 0
M  V30 2124 H 210.371 -3.96475 -0.298953 0
M  V30 2125 N 211.368 -0.403325 -1.52352 0
M  V30 2126 C 212.318 0.442244 -2.2367 0
M  V30 2127 C 213.302 1.01823 -1.24583 0
M  V30 2128 O 214.494 0.942005 -1.49851 0
M  V30 2129 C 211.623 1.5615 -3.05732 0
M  V30 2130 C 210.709 0.996575 -4.12225 0
M  V30 2131 N 211.1 0.157804 -5.05554 0
M  V30 2132 C 209.398 1.26767 -4.27605 0
M  V30 2133 C 210.099 -0.155853 -5.81491 0
M  V30 2134 N 209.075 0.451775 -5.41719 0
M  V30 2135 H 212.877 -0.204964 -2.93184 0
M  V30 2136 H 210.391 -0.213418 -1.60992 0
M  V30 2137 H 212.388 2.17981 -3.55373 0
M  V30 2138 H 211.048 2.21139 -2.37755 0
M  V30 2139 H 212.059 -0.206049 -5.1749 0
M  V30 2140 H 208.736 1.91757 -3.70858 0
M  V30 2141 H 210.126 -0.836329 -6.66675 0
M  V30 2142 N 212.846 1.57033 -0.133567 0
M  V30 2143 C 214.257 1.82593 0.389464 0
M  V30 2144 C 214.608 1.05156 1.6564 0
M  V30 2145 O 213.733 0.292644 2.14412 0
M  V30 2146 C 214.328 3.31204 0.713377 0
M  V30 2147 C 212.887 3.57393 1.18098 0
M  V30 2148 C 212.034 2.76598 0.197126 0
M  V30 2149 H 214.985 1.54598 -0.358481 0
M  V30 2150 H 215.006 3.46627 1.56939 0
M  V30 2151 H 214.518 3.87537 -0.2089 0
M  V30 2152 H 212.619 3.06433 2.11966 0
M  V30 2153 H 212.732 4.65915 1.11624 0
M  V30 2154 H 211.096 2.45257 0.687088 0
M  V30 2155 H 211.879 3.35697 -0.718504 0
M  V30 2156 N 214.325 -0.140222 1.56975 0
M  V30 2157 C 215.275 -1.17827 1.95194 0
M  V30 2158 C 216.259 -1.38195 0.824075 0
M  V30 2159 O 217.451 -1.39643 1.0876 0
M  V30 2160 C 214.58 -2.51024 2.34184 0
M  V30 2161 C 213.666 -2.3422 3.53556 0
M  V30 2162 N 214.057 -1.87185 4.69889 0
M  V30 2163 C 212.355 -2.64949 3.58773 0
M  V30 2164 C 213.056 -1.83586 5.5197 0
M  V30 2165 N 212.032 -2.2715 4.93866 0
M  V30 2166 H 215.834 -0.806817 2.82609 0
M  V30 2167 H 213.348 -0.348208 1.58623 0
M  V30 2168 H 215.345 -3.26074 2.59772 0
M  V30 2169 H 214.005 -2.88945 1.48124 0
M  V30 2170 H 215.016 -1.57048 4.93514 0
M  V30 2171 H 211.693 -3.067 2.8327 0
M  V30 2172 H 213.083 -1.48655 6.55249 0
M  V30 2173 N 215.803 -1.52179 -0.40978 0
M  V30 2174 C 216.733 -1.78435 -1.5061 0
M  V30 2175 C 217.714 -0.635295 -1.57791 0
M  V30 2176 O 218.899 -0.880823 -1.73076 0
M  V30 2177 C 216.029 -1.93444 -2.88439 0
M  V30 2178 C 214.983 -3.09038 -2.96108 0
M  V30 2179 C 214.309 -3.09268 -4.36185 0
M  V30 2180 C 215.609 -4.48508 -2.67652 0
M  V30 2181 H 217.303 -2.70237 -1.28889 0
M  V30 2182 H 214.849 -1.30036 -0.618605 0
M  V30 2183 H 216.802 -2.10394 -3.65119 0
M  V30 2184 H 215.526 -0.983129 -3.11452 0
M  V30 2185 H 214.185 -2.91837 -2.21872 0
M  V30 2186 H 213.833 -2.11861 -4.56206 0
M  V30 2187 H 213.533 -3.86907 -4.42241 0
M  V30 2188 H 215.057 -3.28348 -5.14801 0
M  V30 2189 H 216.471 -4.65918 -3.34056 0
M  V30 2190 H 214.868 -5.28059 -2.85085 0
M  V30 2191 H 215.938 -4.56649 -1.63095 0
M  V30 2192 N 217.281 0.66697 -1.42791 0
M  V30 2193 C 218.506 1.46004 -1.47301 0
M  V30 2194 C 218.931 1.87894 -0.0880317 0
M  V30 2195 O 218.289 1.56502 0.915253 0
M  V30 2196 C 218.337 2.68031 -2.41229 0
M  V30 2197 O 217.441 3.6659 -1.88906 0
M  V30 2198 H 216.782 0.43832 -0.49877 0
M  V30 2199 H 219.312 0.817391 -1.87563 0
M  V30 2200 H 219.322 3.1601 -2.58073 0
M  V30 2201 H 217.997 2.36883 -3.41847 0
M  V30 2202 H 216.574 3.25661 -1.81656 0
M  V30 2203 N 218.759 1.29093 0.90403 0
M  V30 2204 C 220.175 1.07011 1.1841 0
M  V30 2205 C 220.375 -0.181358 2.00682 0
M  V30 2206 O 219.431 -0.880331 2.36657 0
M  V30 2207 C 220.744 2.32311 1.90924 0
M  V30 2208 C 222.292 2.37587 2.03768 0
M  V30 2209 C 222.767 3.62679 2.79693 0
M  V30 2210 N 224.258 3.63376 2.87249 0
M  V30 2211 C 224.993 4.56848 3.46522 0
M  V30 2212 N 224.489 5.60648 4.06996 0
M  V30 2213 N 226.282 4.44426 3.44154 0
M  V30 2214 H 218.433 2.09412 0.354993 0
M  V30 2215 H 220.696 0.922181 0.219742 0
M  V30 2216 H 220.402 3.23536 1.37905 0
M  V30 2217 H 220.276 2.39483 2.91424 0
M  V30 2218 H 222.663 1.46853 2.55965 0
M  V30 2219 H 222.744 2.34403 1.02415 0
M  V30 2220 H 222.388 4.53762 2.28173 0
M  V30 2221 H 222.318 3.63119 3.81381 0
M  V30 2222 H 224.809 2.88321 2.44293 0
M  V30 2223 H 225.122 6.28101 4.50232 0
M  V30 2224 H 223.467 5.64463 4.05471 0
M  V30 2225 H 226.658 3.62529 2.96126 0
M  V30 2226 H 226.831 5.17457 3.90054 0
M  V30 2227 N 220.237 -1.11381 1.11499 0
M  V30 2228 C 221.653 -1.35143 0.849031 0
M  V30 2229 C 221.853 -1.94515 -0.525938 0
M  V30 2230 O 220.909 -2.1785 -1.27662 0
M  V30 2231 C 222.222 -2.28249 1.95762 0
M  V30 2232 C 223.77 -2.41812 1.98736 0
M  V30 2233 C 224.245 -3.3824 3.088 0
M  V30 2234 N 225.736 -3.45803 3.08179 0
M  V30 2235 C 226.471 -4.20358 3.89982 0
M  V30 2236 N 225.967 -4.97884 4.8175 0
M  V30 2237 N 227.76 -4.15877 3.78157 0
M  V30 2238 H 219.911 -0.712062 2.00109 0
M  V30 2239 H 222.174 -0.376025 0.870235 0
M  V30 2240 H 221.88 -1.91817 2.94787 0
M  V30 2241 H 221.754 -3.28473 1.85433 0
M  V30 2242 H 224.141 -2.77518 1.00338 0
M  V30 2243 H 224.222 -1.41437 2.13141 0
M  V30 2244 H 223.866 -3.03261 4.07425 0
M  V30 2245 H 223.796 -4.38471 2.91635 0
M  V30 2246 H 226.287 -2.90506 2.41691 0
M  V30 2247 H 226.6 -5.52142 5.40702 0
M  V30 2248 H 224.945 -4.97043 4.85771 0
M  V30 2249 H 228.136 -3.544 3.05808 0
M  V30 2250 H 228.309 -4.73723 4.42143 0
M  V30 2251 N 221.715 -0.905404 -1.28997 0
M  V30 2252 C 223.131 -0.60233 -1.47798 0
M  V30 2253 C 223.331 0.854645 -1.82478 0
M  V30 2254 O 222.387 1.63439 -1.92468 0
M  V30 2255 C 223.7 -1.53306 -2.58685 0
M  V30 2256 C 225.248 -1.53887 -2.72558 0
M  V30 2257 C 225.723 -2.45602 -3.86579 0
M  V30 2258 N 227.214 -2.43681 -3.93921 0
M  V30 2259 C 227.949 -3.11347 -4.81509 0
M  V30 2260 N 227.445 -3.88313 -5.73746 0
M  V30 2261 N 229.238 -3.00476 -4.75048 0
M  V30 2262 H 221.389 -1.84765 -1.04764 0
M  V30 2263 H 223.652 -0.792025 -0.520961 0
M  V30 2264 H 223.358 -2.57141 -2.39941 0
M  V30 2265 H 223.232 -1.25787 -3.55609 0
M  V30 2266 H 225.619 -0.507941 -2.90696 0
M  V30 2267 H 225.7 -1.85447 -1.76191 0
M  V30 2268 H 225.344 -3.48792 -3.69197 0
M  V30 2269 H 225.274 -2.11349 -4.82327 0
M  V30 2270 H 227.765 -1.87767 -3.27951 0
M  V30 2271 H 228.078 -4.36985 -6.37389 0
M  V30 2272 H 226.423 -3.92419 -5.73614 0
M  V30 2273 H 229.614 -2.39858 -4.01977 0
M  V30 2274 H 229.787 -3.53485 -5.43095 0
M  V30 2275 N 223.193 1.4272 -0.668489 0
M  V30 2276 C 224.609 1.55992 -0.33745 0
M  V30 2277 C 224.809 1.64933 1.15756 0
M  V30 2278 O 223.865 1.61278 1.94282 0
M  V30 2279 C 225.178 2.81314 -1.06222 0
M  V30 2280 C 226.726 2.95078 -1.04394 0
M  V30 2281 C 227.201 4.23252 -1.74991 0
M  V30 2282 N 228.692 4.3015 -1.71829 0
M  V30 2283 C 229.427 5.28127 -2.23315 0
M  V30 2284 N 228.923 6.32293 -2.83156 0
M  V30 2285 N 230.716 5.19882 -2.13726 0
M  V30 2286 H 222.867 1.3516 -1.63846 0
M  V30 2287 H 225.13 0.650174 -0.689912 0
M  V30 2288 H 224.836 2.80823 -2.11734 0
M  V30 2289 H 224.71 3.72012 -0.62344 0
M  V30 2290 H 227.097 2.951 0.0028244 0
M  V30 2291 H 227.178 2.05627 -1.52155 0
M  V30 2292 H 226.822 4.2399 -2.79633 0
M  V30 2293 H 226.752 5.11626 -1.24685 0
M  V30 2294 H 229.243 3.55499 -1.28175 0
M  V30 2295 H 229.556 7.03398 -3.20079 0
M  V30 2296 H 227.901 6.32873 -2.87223 0
M  V30 2297 H 231.092 4.37423 -1.66669 0
M  V30 2298 H 231.265 5.96077 -2.54158 0
M  V30 2299 N 224.671 0.411399 1.52136 0
M  V30 2300 C 225.619 -0.427633 2.28635 0
M  V30 2301 C 226.613 -1.04383 1.33419 0
M  V30 2302 O 227.819 -0.981772 1.50868 0
M  V30 2303 H 224.194 -0.156689 0.735495 0
M  V30 2304 H 226.165 0.238761 2.97443 0
M  V30 2305 C 224.914 -1.53082 3.12188 0
M  V30 2306 H 224.237 -1.06601 3.85326 0
M  V30 2307 H 225.677 -2.09167 3.68816 0
M  V30 2308 C 224.136 -2.49946 2.25895 0
M  V30 2309 O 224.666 -3.53884 1.90076 0
M  V30 2310 N 222.872 -2.2021 1.8962 0
M  V30 2311 H 222.419 -1.35719 2.18948 0
M  V30 2312 H 222.377 -2.85266 1.32176 0
M  V30 2313 N 226.149 -1.5696 0.141893 0
M  V30 2314 C 227.096 -2.16501 -0.799737 0
M  V30 2315 C 228.066 -1.09643 -1.24771 0
M  V30 2316 O 229.251 -1.3766 -1.32115 0
M  V30 2317 C 226.391 -2.78679 -2.03549 0
M  V30 2318 C 225.504 -3.99914 -1.6338 0
M  V30 2319 C 224.639 -4.50106 -2.82096 0
M  V30 2320 C 223.678 -5.63819 -2.38275 0
M  V30 2321 N 222.815 -6.08651 -3.49983 0
M  V30 2322 H 227.655 -2.96632 -0.285179 0
M  V30 2323 H 225.192 -1.46533 -0.129053 0
M  V30 2324 H 227.15 -3.1287 -2.75986 0
M  V30 2325 H 225.78 -2.012 -2.52425 0
M  V30 2326 H 224.832 -3.71735 -0.807279 0
M  V30 2327 H 226.144 -4.82311 -1.27192 0
M  V30 2328 H 225.298 -4.86325 -3.62729 0
M  V30 2329 H 224.037 -3.66706 -3.21525 0
M  V30 2330 H 223.042 -5.2718 -1.56081 0
M  V30 2331 H 224.267 -6.49 -1.99938 0
M  V30 2332 H 222.213 -5.28188 -3.89042 0
M  V30 2333 H 222.13 -6.85961 -3.17794 0
M  V30 2334 H 223.398 -6.49515 -4.30988 0
M  V30 2335 N 227.627 0.131896 -1.57047 0
M  V30 2336 C 229.043 0.485031 -1.52051 0
M  V30 2337 C 229.243 1.82563 -0.85281 0
M  V30 2338 O 228.299 2.48817 -0.429694 0
M  V30 2339 C 229.612 0.481409 -2.96821 0
M  V30 2340 C 231.16 0.565868 -3.07842 0
M  V30 2341 C 231.635 0.592762 -4.54148 0
M  V30 2342 N 233.126 0.654564 -4.58552 0
M  V30 2343 C 233.861 0.696608 -5.69153 0
M  V30 2344 N 233.357 0.697078 -6.89284 0
M  V30 2345 N 235.15 0.738639 -5.57226 0
M  V30 2346 H 227.301 -0.746664 -1.98843 0
M  V30 2347 H 229.564 -0.273999 -0.90754 0
M  V30 2348 H 229.27 -0.435731 -3.4899 0
M  V30 2349 H 229.144 1.3139 -3.53577 0
M  V30 2350 H 231.531 1.47343 -2.55684 0
M  V30 2351 H 231.612 -0.29406 -2.54104 0
M  V30 2352 H 231.256 -0.310701 -5.06949 0
M  V30 2353 H 231.186 1.46939 -5.05684 0
M  V30 2354 H 233.677 0.660887 -3.72076 0
M  V30 2355 H 233.99 0.731426 -7.69331 0
M  V30 2356 H 232.335 0.66471 -6.91814 0
M  V30 2357 H 235.526 0.735545 -4.62285 0
M  V30 2358 H 235.699 0.767938 -6.43434 0
M  V30 2359 N 229.106 1.52395 0.401703 0
M  V30 2360 C 230.336 1.70429 1.1678 0
M  V30 2361 C 230.744 0.416702 1.84554 0
M  V30 2362 O 230.087 -0.617697 1.73003 0
M  V30 2363 C 230.149 2.78919 2.26814 0
M  V30 2364 C 229.813 4.20437 1.79113 0
M  V30 2365 C 230.81 5.04028 1.27482 0
M  V30 2366 C 228.495 4.66704 1.85722 0
M  V30 2367 C 230.489 6.31961 0.830913 0
M  V30 2368 C 228.176 5.94625 1.40942 0
M  V30 2369 C 229.174 6.77082 0.897128 0
M  V30 2370 O 228.862 8.02607 0.455822 0
M  V30 2371 H 228.594 0.574272 0.356634 0
M  V30 2372 H 231.148 1.99767 0.477724 0
M  V30 2373 H 229.378 2.44973 2.99207 0
M  V30 2374 H 231.067 2.8548 2.88541 0
M  V30 2375 H 231.833 4.69471 1.21744 0
M  V30 2376 H 227.712 4.0262 2.24539 0
M  V30 2377 H 231.256 6.96271 0.430368 0
M  V30 2378 H 227.153 6.28688 1.46362 0
M  V30 2379 H 227.921 8.16453 0.578457 0
M  V30 2380 N 230.584 -0.659388 1.43143 0
M  V30 2381 C 231.547 -1.75432 1.47501 0
M  V30 2382 C 232.547 -1.56707 0.360512 0
M  V30 2383 O 233.737 -1.62717 0.622002 0
M  V30 2384 C 230.869 -3.14239 1.32162 0
M  V30 2385 H 232.062 -1.7295 2.45006 0
M  V30 2386 H 229.615 -0.870469 1.29817 0
M  V30 2387 H 230.35 -3.22336 0.356401 0
M  V30 2388 H 230.135 -3.29235 2.12948 0
M  V30 2389 H 231.625 -3.94094 1.3813 0
M  V30 2390 N 232.062 -1.29571 -0.897171 0
M  V30 2391 C 232.992 -1.17473 -2.01798 0
M  V30 2392 C 233.973 -0.068323 -1.69963 0
M  V30 2393 O 235.158 -0.248239 -1.92607 0
M  V30 2394 C 232.288 -0.853099 -3.36659 0
M  V30 2395 C 231.242 -1.9161 -3.82713 0
M  V30 2396 C 230.568 -1.44773 -5.14728 0
M  V30 2397 C 231.868 -3.32535 -4.02763 0
M  V30 2398 H 233.562 -2.11237 -2.12177 0
M  V30 2399 H 231.108 -1.01699 -1.01948 0
M  V30 2400 H 233.061 -0.755165 -4.14578 0
M  V30 2401 H 231.785 0.120236 -3.26379 0
M  V30 2402 H 230.444 -2.00346 -3.07013 0
M  V30 2403 H 230.092 -0.462995 -5.00865 0
M  V30 2404 H 229.792 -2.15865 -5.46513 0
M  V30 2405 H 231.316 -1.36334 -5.95185 0
M  V30 2406 H 232.73 -3.26626 -4.71156 0
M  V30 2407 H 231.127 -4.01607 -4.45905 0
M  V30 2408 H 232.197 -3.75326 -3.07016 0
M  V30 2409 N 233.54 1.10788 -1.12088 0
M  V30 2410 C 234.768 1.86461 -0.896651 0
M  V30 2411 C 235.183 1.80492 0.553912 0
M  V30 2412 O 234.54 1.19102 1.38278 0
M  V30 2413 C 234.591 3.35006 -1.35843 0
M  V30 2414 O 234.312 3.40866 -2.75213 0
M  V30 2415 C 235.813 4.27565 -1.1706 0
M  V30 2416 H 233.033 0.589425 -0.320654 0
M  V30 2417 H 235.577 1.40076 -1.48993 0
M  V30 2418 H 233.732 3.7887 -0.808458 0
M  V30 2419 H 234.146 4.33411 -2.9539 0
M  V30 2420 H 235.62 5.30007 -1.54263 0
M  V30 2421 H 236.097 4.3906 -0.110814 0
M  V30 2422 H 236.703 3.89501 -1.70789 0
M  V30 2423 N 235.018 0.912232 1.28515 0
M  V30 2424 C 236.266 0.543523 1.94654 0
M  V30 2425 C 236.587 -0.9155 1.72173 0
M  V30 2426 O 235.857 -1.64708 1.06058 0
M  V30 2427 H 234.437 0.198017 0.720277 0
M  V30 2428 H 237.099 1.16126 1.56527 0
M  V30 2429 H 236.195 0.736684 3.03281 0
M  V30 2430 N 236.496 -1.42363 0.676048 0
M  V30 2431 C 237.428 -2.29164 -0.0404605 0
M  V30 2432 C 238.441 -1.43747 -0.764245 0
M  V30 2433 O 239.63 -1.67453 -0.618195 0
M  V30 2434 C 236.73 -3.21196 -1.08103 0
M  V30 2435 C 235.903 -4.35273 -0.430812 0
M  V30 2436 C 234.962 -5.08017 -1.37133 0
M  V30 2437 O 233.988 -5.62494 -0.87116 0
M  V30 2438 N 235.19 -5.13647 -2.70456 0
M  V30 2439 H 237.955 -2.91298 0.704667 0
M  V30 2440 H 235.516 -1.53303 0.520559 0
M  V30 2441 H 237.508 -3.66728 -1.71152 0
M  V30 2442 H 236.078 -2.60505 -1.72788 0
M  V30 2443 H 235.298 -3.92372 0.379209 0
M  V30 2444 H 236.586 -5.08795 0.0221132 0
M  V30 2445 H 235.984 -4.708 -3.1363 0
M  V30 2446 H 234.541 -5.62821 -3.28749 0
M  V30 2447 N 237.974 -0.419461 -1.51915 0
M  V30 2448 C 238.921 0.400927 -2.27291 0
M  V30 2449 C 239.891 1.03224 -1.30131 0
M  V30 2450 O 241.076 1.05455 -1.59009 0
M  V30 2451 C 238.216 1.50603 -3.10504 0
M  V30 2452 C 237.329 0.89462 -4.22635 0
M  V30 2453 C 236.464 1.97328 -4.93189 0
M  V30 2454 C 235.503 1.33935 -5.97267 0
M  V30 2455 N 234.64 2.3586 -6.61298 0
M  V30 2456 H 239.48 -0.248251 -2.96964 0
M  V30 2457 H 237.017 -0.134266 -1.46486 0
M  V30 2458 H 238.975 2.15783 -3.57062 0
M  V30 2459 H 237.605 2.12509 -2.42981 0
M  V30 2460 H 236.657 0.131583 -3.80172 0
M  V30 2461 H 237.969 0.391641 -4.9726 0
M  V30 2462 H 237.123 2.70211 -5.43204 0
M  V30 2463 H 235.862 2.50994 -4.18155 0
M  V30 2464 H 234.867 0.595896 -5.46561 0
M  V30 2465 H 236.092 0.810252 -6.74249 0
M  V30 2466 H 234.038 2.88639 -5.89087 0
M  V30 2467 H 233.955 1.90403 -7.3163 0
M  V30 2468 H 235.223 3.08282 -7.15949 0
M  V30 2469 N 239.452 1.56882 -0.150215 0
M  V30 2470 C 240.698 1.97299 0.494427 0
M  V30 2471 C 241.053 1.0338 1.62266 0
M  V30 2472 O 240.346 0.0694497 1.91474 0
M  V30 2473 C 240.54 3.41801 1.04437 0
M  V30 2474 C 240.369 4.49691 -0.0290451 0
M  V30 2475 C 239.139 5.03095 -0.47156 0
M  V30 2476 C 241.337 5.07693 -0.821703 0
M  V30 2477 N 239.319 5.94593 -1.52749 0
M  V30 2478 C 240.69 5.95431 -1.72805 0
M  V30 2479 C 242.745 4.90256 -0.869134 0
M  V30 2480 C 241.448 6.67599 -2.67777 0
M  V30 2481 C 243.474 5.63127 -1.8067 0
M  V30 2482 C 242.836 6.50576 -2.70057 0
M  V30 2483 H 238.935 0.76755 0.149639 0
M  V30 2484 H 241.519 1.93145 -0.24556 0
M  V30 2485 H 239.69 3.46541 1.75396 0
M  V30 2486 H 241.422 3.69272 1.6559 0
M  V30 2487 H 238.177 4.73543 -0.0732101 0
M  V30 2488 H 238.601 6.45047 -2.05531 0
M  V30 2489 H 243.243 4.22363 -0.192134 0
M  V30 2490 H 240.961 7.34717 -3.36476 0
M  V30 2491 H 244.547 5.51629 -1.84924 0
M  V30 2492 H 243.427 7.05974 -3.41424 0
M  V30 2493 N 240.93 -0.123565 1.57115 0
M  V30 2494 C 242.346 -0.476961 1.52306 0
M  V30 2495 C 242.546 -1.82109 0.86248 0
M  V30 2496 O 241.602 -2.48586 0.442884 0
M  V30 2497 C 242.915 -0.465661 2.97073 0
M  V30 2498 C 244.463 -0.549534 3.08138 0
M  V30 2499 C 244.938 -0.568669 4.54456 0
M  V30 2500 N 246.429 -0.630237 4.58892 0
M  V30 2501 C 247.164 -0.666415 5.69514 0
M  V30 2502 N 246.66 -0.660514 6.89644 0
M  V30 2503 N 248.453 -0.709077 5.5761 0
M  V30 2504 H 240.604 0.757198 1.98445 0
M  V30 2505 H 242.867 0.278808 0.906074 0
M  V30 2506 H 242.573 0.454232 3.48754 0
M  V30 2507 H 242.447 -1.29513 3.54269 0
M  V30 2508 H 244.834 -1.45985 2.56461 0
M  V30 2509 H 244.915 0.307532 2.53945 0
M  V30 2510 H 244.559 0.337581 5.06777 0
M  V30 2511 H 244.489 -1.44256 5.06456 0
M  V30 2512 H 246.98 -0.641146 3.72421 0
M  V30 2513 H 247.293 -0.690616 7.69708 0
M  V30 2514 H 245.638 -0.628012 6.92157 0
M  V30 2515 H 248.829 -0.711019 4.62668 0
M  V30 2516 H 249.002 -0.733804 6.43832 0
M  V30 2517 N 242.408 -1.52605 -0.393616 0
M  V30 2518 C 243.34 -1.73303 -1.49995 0
M  V30 2519 C 244.353 -0.613473 -1.50799 0
M  V30 2520 O 245.542 -0.889049 -1.54784 0
M  V30 2521 C 242.642 -1.77245 -2.88855 0
M  V30 2522 C 241.815 -3.06483 -3.12069 0
M  V30 2523 C 240.874 -3.02033 -4.30886 0
M  V30 2524 O 239.9 -3.75907 -4.27414 0
M  V30 2525 N 241.102 -2.20897 -5.36828 0
M  V30 2526 H 243.867 -2.68756 -1.32629 0
M  V30 2527 H 241.428 -1.51036 -0.583083 0
M  V30 2528 H 243.42 -1.7178 -3.66434 0
M  V30 2529 H 241.99 -0.891993 -2.99603 0
M  V30 2530 H 241.21 -3.25474 -2.22396 0
M  V30 2531 H 242.498 -3.91947 -3.2443 0
M  V30 2532 H 241.896 -1.60336 -5.42502 0
M  V30 2533 H 240.453 -2.21275 -6.13091 0
M  V30 2534 N 243.887 0.651787 -1.4349 0
M  V30 2535 C 244.834 1.76462 -1.4876 0
M  V30 2536 C 245.804 1.62641 -0.337189 0
M  V30 2537 O 246.989 1.82864 -0.544544 0
M  V30 2538 C 244.129 3.14623 -1.41796 0
M  V30 2539 C 243.242 3.39568 -2.67053 0
M  V30 2540 C 242.377 4.67585 -2.52068 0
M  V30 2541 C 241.416 4.85639 -3.72587 0
M  V30 2542 N 240.553 6.04915 -3.56402 0
M  V30 2543 H 245.393 1.71293 -2.43849 0
M  V30 2544 H 242.93 0.835889 -1.21043 0
M  V30 2545 H 244.888 3.94496 -1.35753 0
M  V30 2546 H 243.518 3.18859 -0.50288 0
M  V30 2547 H 242.57 2.53783 -2.8337 0
M  V30 2548 H 243.882 3.48795 -3.56572 0
M  V30 2549 H 243.036 5.55586 -2.4374 0
M  V30 2550 H 241.775 4.60681 -1.60075 0
M  V30 2551 H 240.78 3.96073 -3.81321 0
M  V30 2552 H 242.005 4.94372 -4.65589 0
M  V30 2553 H 239.951 5.9914 -2.67146 0
M  V30 2554 H 239.868 6.15106 -4.39524 0
M  V30 2555 H 241.136 6.95533 -3.51929 0
M  V30 2556 N 245.365 1.30045 0.890287 0
M  V30 2557 C 246.315 1.12592 1.9826 0
M  V30 2558 C 247.299 0.0426021 1.60844 0
M  V30 2559 O 248.491 0.265346 1.75 0
M  V30 2560 C 245.62 0.814301 3.33503 0
M  V30 2561 C 244.706 1.93761 3.7725 0
M  V30 2562 N 245.097 3.18232 3.93143 0
M  V30 2563 C 243.395 1.83277 4.06602 0
M  V30 2564 C 244.096 3.9158 4.30163 0
M  V30 2565 N 243.072 3.19591 4.3973 0
M  V30 2566 H 246.874 2.07003 2.08631 0
M  V30 2567 H 244.388 1.21307 1.07974 0
M  V30 2568 H 246.385 0.67029 4.11476 0
M  V30 2569 H 245.045 -0.121797 3.24471 0
M  V30 2570 H 246.056 3.53581 3.78419 0
M  V30 2571 H 242.733 0.97001 4.06075 0
M  V30 2572 H 244.123 4.98744 4.50226 0
M  V30 2573 N 246.843 -1.10192 1.12674 0
M  V30 2574 C 248.092 -1.81573 0.8783 0
M  V30 2575 C 248.405 -1.86249 -0.597557 0
M  V30 2576 O 249.611 -2.5386 -0.962681 0
M  V30 2577 C 248.067 -3.26149 1.52167 0
M  V30 2578 C 247.675 -3.29763 3.03249 0
M  V30 2579 C 249.419 -4.0234 1.3536 0
M  V30 2580 C 247.326 -4.68815 3.60508 0
M  V30 2581 H 246.256 -0.680394 0.324931 0
M  V30 2582 H 248.907 -1.23902 1.35353 0
M  V30 2583 H 247.289 -3.83832 0.974104 0
M  V30 2584 H 248.463 -2.8189 3.6452 0
M  V30 2585 H 246.778 -2.67059 3.19481 0
M  V30 2586 H 249.375 -5.05058 1.75559 0
M  V30 2587 H 249.718 -4.15235 0.297554 0
M  V30 2588 H 250.251 -3.51079 1.87052 0
M  V30 2589 H 246.99 -4.61121 4.65884 0
M  V30 2590 H 246.51 -5.17045 3.04014 0
M  V30 2591 H 248.189 -5.37785 3.59717 0
M  V30 2592 N 248.321 -0.919034 -1.28029 0
M  V30 2593 C 249.549 -0.570971 -1.98866 0
M  V30 2594 C 249.964 0.848996 -1.68634 0
M  V30 2595 O 249.321 1.56307 -0.942036 0
M  V30 2596 C 249.372 -0.776876 -3.53054 0
M  V30 2597 O 249.093 -2.14097 -3.82222 0
M  V30 2598 C 250.594 -0.436356 -4.41147 0
M  V30 2599 H 247.814 -0.217175 -0.634883 0
M  V30 2600 H 250.358 -1.23368 -1.63097 0
M  V30 2601 H 248.513 -0.161085 -3.87065 0
M  V30 2602 H 248.927 -2.18455 -4.76841 0
M  V30 2603 H 250.401 -0.63117 -5.4838 0
M  V30 2604 H 250.878 0.627686 -4.34692 0
M  V30 2605 H 251.484 -1.02991 -4.12641 0
M  V30 2606 N 249.799 1.42003 -0.683588 0
M  V30 2607 C 251.029 2.05448 -0.217866 0
M  V30 2608 C 251.437 1.51491 1.13346 0
M  V30 2609 O 250.78 0.653048 1.717 0
M  V30 2610 C 250.842 3.59399 -0.0850118 0
M  V30 2611 C 250.506 4.36093 -1.36645 0
M  V30 2612 C 251.503 4.66169 -2.30179 0
M  V30 2613 C 249.188 4.75578 -1.61649 0
M  V30 2614 C 251.182 5.34676 -3.46988 0
M  V30 2615 C 248.869 5.43824 -2.78745 0
M  V30 2616 C 249.867 5.73299 -3.71238 0
M  V30 2617 O 249.555 6.40142 -4.86285 0
M  V30 2618 H 249.287 0.668344 -0.101454 0
M  V30 2619 H 251.841 1.82974 -0.933248 0
M  V30 2620 H 250.071 3.80566 0.686031 0
M  V30 2621 H 251.76 4.04457 0.341973 0
M  V30 2622 H 252.526 4.36156 -2.12115 0
M  V30 2623 H 248.405 4.52025 -0.905243 0
M  V30 2624 H 251.949 5.57599 -4.19201 0
M  V30 2625 H 247.846 5.73254 -2.96732 0
M  V30 2626 H 248.614 6.58636 -4.85944 0
M  V30 2627 N 251.277 0.427512 1.51691 0
M  V30 2628 C 252.502 -0.143601 2.06902 0
M  V30 2629 C 252.927 -1.36536 1.29382 0
M  V30 2630 O 252.285 -1.78289 0.329043 0
M  V30 2631 C 252.333 -0.454207 3.57728 0
M  V30 2632 O 251.437 -1.54228 3.82475 0
M  V30 2633 H 250.778 -0.00617128 0.663971 0
M  V30 2634 H 253.308 0.606014 1.95419 0
M  V30 2635 H 253.318 -0.707525 4.01818 0
M  V30 2636 H 251.993 0.438812 4.13579 0
M  V30 2637 H 250.57 -1.2797 3.50254 0
M  V30 2638 N 252.755 -1.56801 0.158532 0
M  V30 2639 C 254.004 -1.95665 -0.489702 0
M  V30 2640 C 254.317 -1.04654 -1.65248 0
M  V30 2641 O 255.523 -1.33146 -2.3661 0
M  V30 2642 C 253.979 -3.47874 -0.922582 0
M  V30 2643 C 253.587 -4.47489 0.213893 0
M  V30 2644 C 255.331 -3.95583 -1.53996 0
M  V30 2645 C 253.238 -5.90921 -0.237903 0
M  V30 2646 H 252.168 -0.730516 -0.186716 0
M  V30 2647 H 254.819 -1.81861 0.244722 0
M  V30 2648 H 253.201 -3.57051 -1.71261 0
M  V30 2649 H 254.375 -4.50017 0.991036 0
M  V30 2650 H 252.69 -4.09764 0.740407 0
M  V30 2651 H 255.287 -5.0019 -1.8898 0
M  V30 2652 H 255.63 -3.37789 -2.43319 0
M  V30 2653 H 256.163 -3.8937 -0.814611 0
M  V30 2654 H 252.902 -6.52559 0.620236 0
M  V30 2655 H 252.422 -5.91729 -0.980676 0
M  V30 2656 H 254.101 -6.43352 -0.686067 0
M  V30 2657 N 254.233 0.115231 -1.57178 0
M  V30 2658 C 255.183 1.14707 -1.97044 0
M  V30 2659 C 256.167 1.36866 -0.845957 0
M  V30 2660 O 257.359 1.37895 -1.10968 0
M  V30 2661 C 254.488 2.47266 -2.38148 0
M  V30 2662 C 253.574 2.28566 -3.57237 0
M  V30 2663 N 253.965 1.79685 -4.72807 0
M  V30 2664 C 252.263 2.59208 -3.62943 0
M  V30 2665 C 252.964 1.74781 -5.54821 0
M  V30 2666 N 251.94 2.19264 -4.97417 0
M  V30 2667 H 255.742 0.761754 -2.83857 0
M  V30 2668 H 253.256 0.322928 -1.59157 0
M  V30 2669 H 255.253 3.219 -2.64927 0
M  V30 2670 H 253.913 2.86552 -1.52702 0
M  V30 2671 H 254.924 1.49177 -4.9595 0
M  V30 2672 H 251.601 3.02154 -2.88113 0
M  V30 2673 H 252.991 1.38212 -6.57531 0
M  V30 2674 N 255.711 1.52812 0.385517 0
M  V30 2675 C 256.659 1.78482 1.49155 0
M  V30 2676 C 257.653 0.652914 1.56312 0
M  V30 2677 O 258.859 0.835464 1.59436 0
M  V30 2678 H 255.234 0.5648 0.496493 0
M  V30 2679 H 257.205 2.71095 1.24699 0
M  V30 2680 C 255.954 1.97378 2.86247 0
M  V30 2681 H 255.277 2.83907 2.81491 0
M  V30 2682 H 256.717 2.19327 3.62866 0
M  V30 2683 C 255.176 0.74728 3.28508 0
M  V30 2684 O 255.706 -0.0736232 4.01633 0
M  V30 2685 N 253.912 0.576396 2.84826 0
M  V30 2686 H 253.459 1.24555 2.25486 0
M  V30 2687 H 253.417 -0.24288 3.1346 0
M  V30 2688 N 257.189 -0.644168 1.43834 0
M  V30 2689 C 258.419 -1.42939 1.49171 0
M  V30 2690 C 258.827 -1.88874 0.111048 0
M  V30 2691 O 258.17 -1.60656 -0.8908 0
M  V30 2692 C 258.232 -2.69151 2.38324 0
M  V30 2693 C 257.896 -2.45097 3.85715 0
M  V30 2694 C 258.893 -2.07747 4.76589 0
M  V30 2695 C 256.578 -2.59141 4.30292 0
M  V30 2696 C 258.572 -1.8475 6.10038 0
M  V30 2697 C 256.259 -2.35759 5.63792 0
M  V30 2698 C 257.257 -1.9862 6.53482 0
M  V30 2699 O 256.945 -1.75489 7.84512 0
M  V30 2700 H 256.677 -0.445271 0.508635 0
M  V30 2701 H 259.231 -0.79621 1.8934 0
M  V30 2702 H 257.461 -3.3506 1.93058 0
M  V30 2703 H 259.15 -3.31123 2.3476 0
M  V30 2704 H 259.916 -1.96465 4.43426 0
M  V30 2705 H 255.795 -2.87022 3.60749 0
M  V30 2706 H 259.339 -1.55686 6.80006 0
M  V30 2707 H 255.236 -2.46646 5.9652 0
M  V30 2708 H 256.004 -1.89841 7.9618 0
M  V30 2709 N 258.668 -1.30515 -0.883378 0
M  V30 2710 C 259.896 -1.22359 -1.66841 0
M  V30 2711 C 260.311 0.213296 -1.87591 0
M  V30 2712 O 259.668 1.14075 -1.42454 0
M  V30 2713 C 259.719 -1.95011 -3.04389 0
M  V30 2714 O 259.44 -3.3309 -2.84575 0
M  V30 2715 C 260.941 -1.93532 -3.98824 0
M  V30 2716 H 258.161 -0.423371 -0.520575 0
M  V30 2717 H 260.705 -1.72167 -1.10357 0
M  V30 2718 H 258.86 -1.48997 -3.57601 0
M  V30 2719 H 259.274 -3.69907 -3.71846 0
M  V30 2720 H 260.748 -2.48902 -4.92699 0
M  V30 2721 H 261.225 -0.914627 -4.29571 0
M  V30 2722 H 261.831 -2.39364 -3.51547 0
M  V30 2723 N 260.146 1.09593 -1.13257 0
M  V30 2724 C 261.557 1.63229 -0.906274 0
M  V30 2725 C 261.908 1.8811 0.557578 0
M  V30 2726 O 261.033 1.62953 1.42391 0
M  V30 2727 C 261.628 2.96535 -1.63867 0
M  V30 2728 C 260.187 3.47003 -1.45828 0
M  V30 2729 C 259.334 2.2145 -1.66898 0
M  V30 2730 H 262.285 0.92978 -1.28611 0
M  V30 2731 H 262.306 3.64411 -1.09476 0
M  V30 2732 H 261.818 2.78394 -2.70404 0
M  V30 2733 H 259.919 3.70272 -0.415848 0
M  V30 2734 H 260.032 4.24551 -2.2202 0
M  V30 2735 H 258.396 2.30022 -1.09371 0
M  V30 2736 H 259.179 2.0583 -2.74752 0
M  V30 2737 N 261.624 0.925811 1.2754 0
M  V30 2738 C 262.571 0.422045 2.26908 0
M  V30 2739 C 263.541 -0.510029 1.58076 0
M  V30 2740 O 264.726 -0.429599 1.85901 0
M  V30 2741 C 261.866 -0.320837 3.43605 0
M  V30 2742 C 260.979 0.64513 4.27156 0
M  V30 2743 C 260.114 -0.117405 5.3107 0
M  V30 2744 C 259.153 0.841391 6.0629 0
M  V30 2745 N 258.29 0.111604 7.02011 0
M  V30 2746 H 263.13 1.27441 2.69375 0
M  V30 2747 H 260.667 0.639697 1.32462 0
M  V30 2748 H 262.625 -0.76785 4.10073 0
M  V30 2749 H 261.255 -1.13745 3.02096 0
M  V30 2750 H 260.307 1.21067 3.6062 0
M  V30 2751 H 261.619 1.37797 4.79389 0
M  V30 2752 H 260.773 -0.624422 6.03478 0
M  V30 2753 H 259.512 -0.883219 4.79636 0
M  V30 2754 H 258.517 1.35967 5.32722 0
M  V30 2755 H 259.742 1.60696 6.59813 0
M  V30 2756 H 257.688 -0.635999 6.5291 0
M  V30 2757 H 257.605 0.784044 7.51923 0
M  V30 2758 H 258.873 -0.374823 7.78598 0
M  V30 2759 N 263.102 -1.41638 0.69111 0
M  V30 2760 C 264.348 -2.01598 0.220519 0
M  V30 2761 C 264.681 -1.54594 -1.17535 0
M  V30 2762 O 263.956 -0.755177 -1.79241 0
M  V30 2763 C 264.239 -3.59062 0.273243 0
M  V30 2764 C 264.092 -4.16203 1.70573 0
M  V30 2765 C 265.411 -4.38546 -0.369457 0
M  V30 2766 H 262.53 -0.732468 0.0816045 0
M  V30 2767 H 265.172 -1.68445 0.878986 0
M  V30 2768 H 263.322 -3.87435 -0.287411 0
M  V30 2769 H 264.994 -3.98722 2.31989 0
M  V30 2770 H 263.237 -3.71414 2.2413 0
M  V30 2771 H 263.908 -5.25358 1.69419 0
M  V30 2772 H 266.384 -4.1596 0.107977 0
M  V30 2773 H 265.26 -5.48069 -0.302002 0
M  V30 2774 H 265.521 -4.17662 -1.44951 0
M  V30 2775 N 264.58 -0.43555 -1.51462 0
M  V30 2776 C 265.828 0.131254 -2.01673 0
M  V30 2777 C 266.149 1.43368 -1.32177 0
M  V30 2778 O 265.419 1.90524 -0.455769 0
M  V30 2779 H 263.999 0.0514954 -0.745223 0
M  V30 2780 H 266.661 -0.577847 -1.86137 0
M  V30 2781 H 265.757 0.308446 -3.10572 0
M  V30 2782 N 266.058 1.56714 -0.166846 0
M  V30 2783 C 266.968 2.21331 0.777791 0
M  V30 2784 C 267.984 1.20358 1.25658 0
M  V30 2785 O 269.16 1.53005 1.30964 0
M  V30 2786 C 266.225 2.83787 1.99163 0
M  V30 2787 C 265.286 3.99947 1.56016 0
M  V30 2788 C 264.519 4.59415 2.71613 0
M  V30 2789 O 264.742 4.17769 3.88362 0
M  V30 2790 O 263.676 5.49359 2.45945 0
M  V30 2791 H 267.502 3.02605 0.257636 0
M  V30 2792 H 265.087 1.49275 0.0611393 0
M  V30 2793 H 266.969 3.23405 2.70161 0
M  V30 2794 H 265.644 2.05513 2.50092 0
M  V30 2795 H 264.551 3.65007 0.819809 0
M  V30 2796 H 265.884 4.79801 1.09782 0
M  V30 2797 N 267.536 -0.106894 1.57237 0
M  V30 2798 C 268.466 -1.13148 2.04254 0
M  V30 2799 C 269.447 -1.42476 0.929224 0
M  V30 2800 O 270.632 -1.52709 1.19973 0
M  V30 2801 C 267.762 -2.4545 2.45706 0
M  V30 2802 C 266.716 -2.30558 3.60592 0
M  V30 2803 C 266.042 -3.67931 3.87983 0
M  V30 2804 C 267.342 -1.75597 4.91897 0
M  V30 2805 H 269.036 -0.740374 2.90101 0
M  V30 2806 H 266.582 -0.354696 1.39563 0
M  V30 2807 H 268.535 -3.17389 2.77205 0
M  V30 2808 H 267.259 -2.86475 1.56843 0
M  V30 2809 H 265.918 -1.61067 3.29322 0
M  V30 2810 H 265.566 -4.06462 2.96306 0
M  V30 2811 H 265.266 -3.58817 4.65322 0
M  V30 2812 H 266.79 -4.41356 4.21945 0
M  V30 2813 H 268.204 -2.37364 5.21854 0
M  V30 2814 H 266.601 -1.77272 5.73319 0
M  V30 2815 H 267.671 -0.714451 4.79608 0
M  V30 2816 N 269.014 -1.53014 -0.377408 0
M  V30 2817 C 270.291 -1.59215 -1.13622 0
M  V30 2818 C 270.671 -0.392407 -2.07421 0
M  V30 2819 O 270.019 0.618342 -2.19975 0
M  V30 2820 C 270.229 -2.93669 -1.88573 0
M  V30 2821 C 271.577 -3.47822 -2.43526 0
M  V30 2822 O 272.601 -2.9562 -1.98715 0
M  V30 2823 O 271.46 -4.39055 -3.25412 0
M  V30 2824 H 268.554 -0.642625 -0.52054 0
M  V30 2825 H 271.1 -1.65353 -0.381625 0
M  V30 2826 H 269.872 -3.7243 -1.20048 0
M  V30 2827 H 269.495 -2.90968 -2.70968 0
M  V30 2828 N 270.492 0.636531 -1.44174 0
M  V30 2829 C 271.72 1.42353 -1.50144 0
M  V30 2830 C 272.135 1.88389 -0.124575 0
M  V30 2831 O 271.492 1.6051 0.868489 0
M  V30 2832 C 271.543 2.64744 -2.46156 0
M  V30 2833 O 271.264 2.20629 -3.7849 0
M  V30 2834 C 272.765 3.57929 -2.61537 0
M  V30 2835 H 269.985 0.436752 -0.5094 0
M  V30 2836 H 272.529 0.778933 -1.89084 0
M  V30 2837 H 270.684 3.25307 -2.10366 0
M  V30 2838 H 271.098 2.99938 -4.30276 0
M  V30 2839 H 272.572 4.40428 -3.32757 0
M  V30 2840 H 273.049 4.06382 -1.66585 0
M  V30 2841 H 273.655 3.03238 -2.98206 0
M  V30 2842 N 271.97 1.30982 0.876444 0
M  V30 2843 C 273.386 1.09498 1.16113 0
M  V30 2844 C 273.586 -0.13875 2.01022 0
M  V30 2845 O 272.642 -0.829935 2.38471 0
M  V30 2846 C 273.955 2.36308 1.85954 0
M  V30 2847 C 275.503 2.41856 1.98683 0
M  V30 2848 C 275.978 3.6853 2.71937 0
M  V30 2849 N 277.469 3.69387 2.79477 0
M  V30 2850 C 278.204 4.64096 3.36753 0
M  V30 2851 N 277.7 5.69155 3.95012 0
M  V30 2852 N 279.493 4.51626 3.3465 0
M  V30 2853 H 271.644 2.10118 0.310494 0
M  V30 2854 H 273.907 0.926634 0.200131 0
M  V30 2855 H 273.613 3.26388 1.31011 0
M  V30 2856 H 273.487 2.4561 2.86278 0
M  V30 2857 H 275.874 1.52249 2.52793 0
M  V30 2858 H 275.955 2.36523 0.9742 0
M  V30 2859 H 275.599 4.58499 2.18496 0
M  V30 2860 H 275.529 3.71127 3.73593 0
M  V30 2861 H 278.02 2.93438 2.38123 0
M  V30 2862 H 278.333 6.3751 4.36808 0
M  V30 2863 H 276.678 5.72937 3.93406 0
M  V30 2864 H 279.869 3.68728 2.8837 0
M  V30 2865 H 280.042 5.25614 3.7899 0
M  V30 2866 N 273.449 -1.08991 1.13837 0
M  V30 2867 C 274.396 -2.15748 0.819835 0
M  V30 2868 C 275.366 -1.64636 -0.220026 0
M  V30 2869 O 276.551 -1.90582 -0.0912757 0
M  V30 2870 C 273.691 -3.4382 0.296913 0
M  V30 2871 C 272.804 -4.0881 1.39636 0
M  V30 2872 C 271.939 -5.24655 0.831314 0
M  V30 2873 C 270.978 -5.81575 1.90886 0
M  V30 2874 N 270.115 -6.88774 1.36142 0
M  V30 2875 H 274.955 -2.42338 1.73426 0
M  V30 2876 H 272.492 -1.18935 0.865613 0
M  V30 2877 H 274.45 -4.17193 -0.0244339 0
M  V30 2878 H 273.08 -3.17535 -0.580628 0
M  V30 2879 H 272.132 -3.33258 1.83422 0
M  V30 2880 H 273.444 -4.47141 2.21058 0
M  V30 2881 H 272.598 -6.04942 0.461515 0
M  V30 2882 H 271.337 -4.87698 -0.013932 0
M  V30 2883 H 270.342 -4.99946 2.28767 0
M  V30 2884 H 271.567 -6.20592 2.75758 0
M  V30 2885 H 269.513 -6.53788 0.538254 0
M  V30 2886 H 269.43 -7.25898 2.11208 0
M  V30 2887 H 270.698 -7.72806 1.01933 0
M  V30 2888 N 274.927 -0.932562 -1.27047 0
M  V30 2889 C 275.89 -0.440064 -2.24936 0
M  V30 2890 C 276.89 0.444071 -1.54547 0
M  V30 2891 O 278.08 0.244465 -1.72476 0
M  V30 2892 C 275.212 0.36678 -3.38921 0
M  V30 2893 H 276.405 -1.305 -2.70018 0
M  V30 2894 H 273.958 -0.713707 -1.39054 0
M  V30 2895 H 274.693 1.25033 -2.99228 0
M  V30 2896 H 274.478 -0.267204 -3.91188 0
M  V30 2897 H 275.968 0.701567 -4.11665 0
M  V30 2898 N 276.405 1.4127 -0.698611 0
M  V30 2899 C 277.654 2.00408 -0.227949 0
M  V30 2900 C 277.967 1.55981 1.18023 0
M  V30 2901 O 279.173 2.07699 1.74852 0
M  V30 2902 C 277.629 3.58129 -0.356636 0
M  V30 2903 C 277.237 4.11536 -1.77037 0
M  V30 2904 C 278.981 4.24466 0.0540969 0
M  V30 2905 C 276.888 5.61701 -1.85055 0
M  V30 2906 H 275.818 0.749586 -0.0814657 0
M  V30 2907 H 278.469 1.61713 -0.867249 0
M  V30 2908 H 276.851 3.94442 0.350965 0
M  V30 2909 H 278.025 3.86636 -2.50698 0
M  V30 2910 H 276.34 3.57736 -2.13105 0
M  V30 2911 H 278.937 5.34698 0.0146723 0
M  V30 2912 H 279.28 4.01687 1.09332 0
M  V30 2913 H 279.813 3.93198 -0.603337 0
M  V30 2914 H 276.552 5.89312 -2.8704 0
M  V30 2915 H 276.072 5.88519 -1.15783 0
M  V30 2916 H 277.751 6.26524 -1.61484 0
M  V30 2917 N 277.883 0.443576 1.51229 0
M  V30 2918 C 279.299 0.0962001 1.5931 0
M  V30 2919 C 279.499 -1.39501 1.45402 0
M  V30 2920 O 278.555 -2.16557 1.29843 0
M  V30 2921 C 279.868 0.621875 2.94199 0
M  V30 2922 C 281.416 0.582865 3.07525 0
M  V30 2923 C 281.891 1.08562 4.44948 0
M  V30 2924 N 283.382 1.04387 4.51284 0
M  V30 2925 C 284.117 1.40368 5.55954 0
M  V30 2926 N 283.613 1.83664 6.68011 0
M  V30 2927 N 285.406 1.32145 5.46346 0
M  V30 2928 H 277.557 1.41376 1.58514 0
M  V30 2929 H 279.82 0.582965 0.747567 0
M  V30 2930 H 279.526 1.66546 3.09767 0
M  V30 2931 H 279.4 0.0502125 3.77167 0
M  V30 2932 H 281.787 -0.451749 2.91622 0
M  V30 2933 H 281.868 1.191 2.26382 0
M  V30 2934 H 281.512 2.11873 4.61598 0
M  V30 2935 H 281.442 0.453956 5.2464 0
M  V30 2936 H 283.933 0.725986 3.70861 0
M  V30 2937 H 284.246 2.0934 7.43906 0
M  V30 2938 H 282.591 1.87596 6.69203 0
M  V30 2939 H 285.782 0.981808 4.57688 0
M  V30 2940 H 285.955 1.60514 6.27805 0
M  V30 2941 N 279.361 -1.56624 0.175154 0
M  V30 2942 C 280.293 -2.15333 -0.785128 0
M  V30 2943 C 281.306 -1.1099 -1.19101 0
M  V30 2944 O 282.495 -1.38162 -1.13019 0
M  V30 2945 C 279.595 -2.68427 -2.06882 0
M  V30 2946 C 278.768 -3.97466 -1.8259 0
M  V30 2947 C 277.827 -4.35585 -2.95215 0
M  V30 2948 O 276.853 -5.03389 -2.65684 0
M  V30 2949 N 278.055 -3.97457 -4.23094 0
M  V30 2950 H 280.82 -2.98359 -0.283187 0
M  V30 2951 H 278.381 -1.61898 -0.00749817 0
M  V30 2952 H 280.373 -2.90924 -2.81328 0
M  V30 2953 H 278.943 -1.89968 -2.48256 0
M  V30 2954 H 278.163 -3.83307 -0.920287 0
M  V30 2955 H 279.451 -4.81736 -1.63733 0
M  V30 2956 H 278.849 -3.42878 -4.49945 0
M  V30 2957 H 277.406 -4.24947 -4.9423 0
M  V30 2958 N 280.839 0.0985539 -1.57292 0
M  V30 2959 C 281.802 1.10402 -2.00858 0
M  V30 2960 C 282.802 1.33146 -0.901593 0
M  V30 2961 O 283.992 1.29318 -1.16716 0
M  V30 2962 C 281.124 2.45394 -2.36632 0
M  V30 2963 H 282.317 0.729099 -2.90902 0
M  V30 2964 H 279.87 0.343495 -1.52479 0
M  V30 2965 H 280.605 2.87769 -1.49531 0
M  V30 2966 H 280.39 2.30235 -3.17387 0
M  V30 2967 H 281.88 3.17718 -2.71007 0
M  V30 2968 N 282.317 1.53212 0.369288 0
M  V30 2969 C 283.564 1.69215 1.11232 0
M  V30 2970 C 283.892 0.442048 1.8941 0
M  V30 2971 O 283.147 -0.575944 1.87033 0
M  V30 2972 C 283.446 2.89101 2.10132 0
M  V30 2973 C 283.112 4.25758 1.48463 0
M  V30 2974 C 281.774 4.6292 1.31372 0
M  V30 2975 C 284.126 5.10757 1.03811 0
M  V30 2976 C 281.454 5.82722 0.68207 0
M  V30 2977 C 283.806 6.31201 0.420487 0
M  V30 2978 C 282.47 6.67079 0.237038 0
M  V30 2979 H 281.74 0.619201 0.407027 0
M  V30 2980 H 284.387 1.87391 0.394552 0
M  V30 2981 H 282.692 2.65421 2.88199 0
M  V30 2982 H 284.389 2.98676 2.6757 0
M  V30 2983 H 280.979 3.96494 1.62758 0
M  V30 2984 H 285.163 4.82599 1.1581 0
M  V30 2985 H 280.419 6.09113 0.528316 0
M  V30 2986 H 284.593 6.96368 0.0662874 0
M  V30 2987 H 282.22 7.59774 -0.254477 0
M  V30 2988 N 283.795 -0.628877 1.44509 0
M  V30 2989 C 285.072 -1.38733 1.37886 0
M  V30 2990 C 285.452 -2.11065 0.0387008 0
M  V30 2991 O 284.8 -2.06476 -0.97878 0
M  V30 2992 C 285.01 -2.35188 2.57852 0
M  V30 2993 C 286.358 -2.9845 3.02014 0
M  V30 2994 O 287.382 -2.45513 2.58073 0
M  V30 2995 O 286.241 -3.94487 3.78209 0
M  V30 2996 H 283.335 -0.621015 0.54614 0
M  V30 2997 H 285.881 -0.653744 1.56602 0
M  V30 2998 H 284.653 -1.80855 3.46998 0
M  V30 2999 H 284.276 -3.1596 2.4136 0
M  V30 3000 N 285.273 -1.31445 -0.869486 0
M  V30 3001 C 286.519 -1.21337 -1.62496 0
M  V30 3002 C 286.852 0.227872 -1.92858 0
M  V30 3003 O 286.127 1.16094 -1.56053 0
M  V30 3004 C 286.41 -2.05814 -2.95487 0
M  V30 3005 C 286.263 -3.5824 -2.72 0
M  V30 3006 C 287.582 -1.9079 -3.96594 0
M  V30 3007 H 284.701 -0.442135 -0.589649 0
M  V30 3008 H 287.343 -1.6124 -1.00507 0
M  V30 3009 H 285.493 -1.71913 -3.48394 0
M  V30 3010 H 287.165 -4.0228 -2.25762 0
M  V30 3011 H 285.408 -3.81647 -2.06224 0
M  V30 3012 H 286.079 -4.12657 -3.66631 0
M  V30 3013 H 288.555 -2.20459 -3.52898 0
M  V30 3014 H 287.431 -2.52199 -4.87531 0
M  V30 3015 H 287.692 -0.871341 -4.33428 0
M  V30 3016 N 286.751 1.08385 -1.14413 0
M  V30 3017 C 287.997 1.81212 -0.923793 0
M  V30 3018 C 288.352 1.84555 0.543814 0
M  V30 3019 O 287.645 1.31056 1.39767 0
M  V30 3020 C 287.839 3.26273 -1.45879 0
M  V30 3021 C 287.668 3.37063 -2.97689 0
M  V30 3022 C 286.438 3.4824 -3.66138 0
M  V30 3023 C 288.636 3.28698 -3.95553 0
M  V30 3024 N 286.618 3.47824 -5.05858 0
M  V30 3025 C 287.989 3.35276 -5.21527 0
M  V30 3026 C 290.044 3.12437 -3.8767 0
M  V30 3027 C 288.747 3.27267 -6.40538 0
M  V30 3028 C 290.773 3.05757 -5.06228 0
M  V30 3029 C 290.135 3.12938 -6.3107 0
M  V30 3030 H 286.234 0.6769 -0.391574 0
M  V30 3031 H 288.818 1.29455 -1.45429 0
M  V30 3032 H 286.989 3.76474 -0.95507 0
M  V30 3033 H 288.721 3.87165 -1.17835 0
M  V30 3034 H 285.476 3.52141 -3.16692 0
M  V30 3035 H 285.9 3.51171 -5.78798 0
M  V30 3036 H 290.542 3.05747 -2.92025 0
M  V30 3037 H 288.26 3.32718 -7.36427 0
M  V30 3038 H 291.846 2.94295 -5.01878 0
M  V30 3039 H 290.726 3.078 -7.21269 0
M  V30 3040 N 288.23 0.939286 1.26551 0
M  V30 3041 C 289.162 0.404704 2.25599 0
M  V30 3042 C 290.175 -0.470983 1.55838 0
M  V30 3043 O 291.364 -0.281734 1.76263 0
M  V30 3044 C 288.464 -0.43764 3.36062 0
M  V30 3045 C 287.637 0.421449 4.35365 0
M  V30 3046 C 286.696 -0.36015 5.24966 0
M  V30 3047 O 285.722 0.236167 5.6871 0
M  V30 3048 N 286.924 -1.65715 5.56344 0
M  V30 3049 H 289.689 1.25618 2.72103 0
M  V30 3050 H 287.25 0.807963 1.40298 0
M  V30 3051 H 289.242 -0.967866 3.92956 0
M  V30 3052 H 287.812 -1.18991 2.89067 0
M  V30 3053 H 287.032 1.1329 3.7757 0
M  V30 3054 H 288.32 1.00835 4.98708 0
M  V30 3055 H 287.718 -2.16378 5.22682 0
M  V30 3056 H 286.275 -2.13366 6.15888 0
M  V30 3057 N 289.708 -1.40897 0.706093 0
M  V30 3058 C 290.655 -2.30751 0.0474474 0
M  V30 3059 C 291.625 -1.47678 -0.76029 0
M  V30 3060 O 292.81 -1.76441 -0.726177 0
M  V30 3061 C 289.95 -3.33815 -0.875309 0
M  V30 3062 C 289.063 -4.31961 -0.0580623 0
M  V30 3063 C 288.198 -5.22093 -0.979425 0
M  V30 3064 C 287.237 -6.11902 -0.155706 0
M  V30 3065 N 286.374 -6.94482 -1.03144 0
M  V30 3066 H 291.214 -2.86513 0.819413 0
M  V30 3067 H 288.751 -1.41102 0.415783 0
M  V30 3068 H 290.709 -3.92129 -1.42446 0
M  V30 3069 H 289.339 -2.79579 -1.61356 0
M  V30 3070 H 288.391 -3.75507 0.608147 0
M  V30 3071 H 289.703 -4.95415 0.580082 0
M  V30 3072 H 288.857 -5.85292 -1.59744 0
M  V30 3073 H 287.596 -4.5889 -1.65141 0
M  V30 3074 H 286.601 -5.47742 0.475309 0
M  V30 3075 H 287.826 -6.77162 0.512635 0
M  V30 3076 H 285.772 -6.33877 -1.68924 0
M  V30 3077 H 285.689 -7.54665 -0.449108 0
M  V30 3078 H 286.957 -7.6214 -1.63593 0
M  V30 3079 N 291.186 -0.45159 -1.50991 0
M  V30 3080 C 292.432 0.110237 -2.025 0
M  V30 3081 C 292.765 1.41109 -1.33424 0
M  V30 3082 O 292.04 1.89135 -0.453659 0
M  V30 3083 C 292.323 0.314271 -3.58726 0
M  V30 3084 C 292.176 -1.00623 -4.38401 0
M  V30 3085 C 293.495 1.07767 -4.26702 0
M  V30 3086 H 290.614 0.0385897 -0.735989 0
M  V30 3087 H 293.256 -0.593374 -1.80497 0
M  V30 3088 H 291.406 0.913601 -3.77605 0
M  V30 3089 H 293.078 -1.64064 -4.31139 0
M  V30 3090 H 291.321 -1.6075 -4.02917 0
M  V30 3091 H 291.992 -0.817341 -5.45915 0
M  V30 3092 H 294.468 0.56986 -4.12179 0
M  V30 3093 H 293.344 1.18921 -5.35863 0
M  V30 3094 H 293.605 2.10939 -3.88532 0
M  V30 3095 N 292.664 1.56529 -0.183458 0
M  V30 3096 C 293.892 2.01623 0.464285 0
M  V30 3097 C 294.307 1.06366 1.55986 0
M  V30 3098 O 293.664 0.0665398 1.82379 0
M  V30 3099 C 293.715 3.46475 1.03139 0
M  V30 3100 O 293.436 4.38095 -0.0204675 0
M  V30 3101 C 294.937 4.0703 1.75617 0
M  V30 3102 H 292.157 0.660596 0.117704 0
M  V30 3103 H 294.701 2.02451 -0.288751 0
M  V30 3104 H 292.856 3.46383 1.73486 0
M  V30 3105 H 293.27 5.22973 0.399952 0
M  V30 3106 H 294.744 5.10271 2.10542 0
M  V30 3107 H 295.221 3.49819 2.65563 0
M  V30 3108 H 295.827 4.1086 1.09882 0
M  V30 3109 N 294.142 -0.090211 1.57342 0
M  V30 3110 C 295.553 -0.644173 1.75235 0
M  V30 3111 C 295.904 -1.78865 0.806335 0
M  V30 3112 O 295.029 -2.16395 -0.0140128 0
M  V30 3113 C 295.624 -1.17532 3.1776 0
M  V30 3114 C 294.183 -1.67531 3.37061 0
M  V30 3115 C 293.33 -0.58693 2.71017 0
M  V30 3116 H 296.281 0.135884 1.58117 0
M  V30 3117 H 296.302 -2.04455 3.20902 0
M  V30 3118 H 295.814 -0.342138 3.86589 0
M  V30 3119 H 293.915 -2.53234 2.73319 0
M  V30 3120 H 294.028 -1.76493 4.45406 0
M  V30 3121 H 292.392 -1.02756 2.33052 0
M  V30 3122 H 293.175 0.235758 3.4249 0
M  V30 3123 N 295.62 -1.53406 -0.361157 0
M  V30 3124 C 296.55 -1.83136 -1.44857 0
M  V30 3125 C 297.531 -0.685174 -1.5569 0
M  V30 3126 O 298.716 -0.93544 -1.70186 0
M  V30 3127 C 295.846 -2.02522 -2.82138 0
M  V30 3128 C 294.8 -3.18302 -2.86126 0
M  V30 3129 C 294.126 -3.22989 -4.26125 0
M  V30 3130 C 295.426 -4.56796 -2.53248 0
M  V30 3131 H 297.12 -2.74201 -1.20226 0
M  V30 3132 H 294.666 -1.31938 -0.576922 0
M  V30 3133 H 296.619 -2.21904 -3.58241 0
M  V30 3134 H 295.343 -1.08172 -3.08166 0
M  V30 3135 H 294.002 -2.98747 -2.12475 0
M  V30 3136 H 293.65 -2.26267 -4.49235 0
M  V30 3137 H 293.35 -4.00781 -4.29708 0
M  V30 3138 H 294.874 -3.44559 -5.04094 0
M  V30 3139 H 296.288 -4.7631 -3.19064 0
M  V30 3140 H 294.685 -5.36862 -2.68141 0
M  V30 3141 H 295.755 -4.61606 -1.48484 0
M  V30 3142 N 297.098 0.621204 -1.44841 0
M  V30 3143 C 298.326 1.40752 -1.51646 0
M  V30 3144 C 298.741 1.88246 -0.144549 0
M  V30 3145 O 298.098 1.61422 0.851416 0
M  V30 3146 C 298.149 2.62119 -2.4895 0
M  V30 3147 O 297.87 2.16602 -3.80808 0
M  V30 3148 C 299.371 3.55135 -2.65319 0
M  V30 3149 H 296.591 0.431325 -0.514004 0
M  V30 3150 H 299.135 0.758835 -1.899 0
M  V30 3151 H 297.29 3.23058 -2.13805 0
M  V30 3152 H 297.704 2.95358 -4.33433 0
M  V30 3153 H 299.178 4.36874 -3.37409 0
M  V30 3154 H 299.655 4.04592 -1.70886 0
M  V30 3155 H 300.261 3.00058 -3.01405 0
M  V30 3156 N 298.576 1.31904 0.862503 0
M  V30 3157 C 299.823 1.22017 1.61611 0
M  V30 3158 C 300.151 -0.21991 1.93253 0
M  V30 3159 O 299.406 -1.17076 1.56817 0
M  V30 3160 C 299.705 2.01713 2.95037 0
M  V30 3161 C 299.371 3.51145 2.82857 0
M  V30 3162 C 298.033 3.91889 2.79243 0
M  V30 3163 C 300.385 4.46204 2.69353 0
M  V30 3164 C 297.713 5.25947 2.59993 0
M  V30 3165 C 300.065 5.80397 2.5164 0
M  V30 3166 C 298.729 6.20352 2.46413 0
M  V30 3167 H 297.999 0.44649 0.591378 0
M  V30 3168 H 300.646 1.63248 1.00111 0
M  V30 3169 H 298.951 1.53185 3.60613 0
M  V30 3170 H 300.648 1.91437 3.52353 0
M  V30 3171 H 297.238 3.1878 2.86491 0
M  V30 3172 H 301.422 4.15652 2.71196 0
M  V30 3173 H 296.678 5.5597 2.54376 0
M  V30 3174 H 300.852 6.53676 2.40169 0
M  V30 3175 H 298.479 7.24172 2.31256 0
M  V30 3176 N 300.054 -1.07777 1.14986 0
M  V30 3177 C 300.964 -2.18404 0.856546 0
M  V30 3178 C 301.98 -1.73211 -0.165485 0
M  V30 3179 O 303.156 -2.01399 0.00755219 0
M  V30 3180 C 300.221 -3.44977 0.34526 0
M  V30 3181 C 299.282 -4.0476 1.43065 0
M  V30 3182 C 298.515 -5.25291 0.943663 0
M  V30 3183 O 298.738 -5.70004 -0.212426 0
M  V30 3184 O 297.672 -5.76638 1.72547 0
M  V30 3185 H 301.498 -2.45978 1.78125 0
M  V30 3186 H 299.083 -1.17033 0.928631 0
M  V30 3187 H 300.965 -4.21348 0.0663671 0
M  V30 3188 H 299.64 -3.18965 -0.551631 0
M  V30 3189 H 298.547 -3.29949 1.76309 0
M  V30 3190 H 299.88 -4.35035 2.30229 0
M  V30 3191 N 301.532 -0.945985 -1.26051 0
M  V30 3192 C 302.442 -0.465633 -2.29933 0
M  V30 3193 C 303.458 0.462761 -1.67733 0
M  V30 3194 O 304.634 0.341118 -1.9849 0
M  V30 3195 C 301.699 0.256994 -3.45746 0
M  V30 3196 C 300.76 -0.708549 -4.23412 0
M  V30 3197 C 299.993 -0.0203135 -5.33696 0
M  V30 3198 O 300.216 1.19571 -5.57726 0
M  V30 3199 O 299.15 -0.701459 -5.97799 0
M  V30 3200 H 302.976 -1.32866 -2.73094 0
M  V30 3201 H 300.561 -0.712071 -1.31339 0
M  V30 3202 H 302.443 0.663852 -4.16138 0
M  V30 3203 H 301.118 1.09533 -3.04605 0
M  V30 3204 H 300.025 -1.16545 -3.55483 0
M  V30 3205 H 301.358 -1.51465 -4.68315 0
M  V30 3206 N 303.011 1.40521 -0.713556 0
M  V30 3207 C 304.257 2.01221 -0.252564 0
M  V30 3208 C 304.59 1.56444 1.1506 0
M  V30 3209 O 303.865 0.783597 1.78017 0
M  V30 3210 C 304.148 3.58582 -0.330332 0
M  V30 3211 C 304.001 4.13437 -1.77173 0
M  V30 3212 C 305.32 4.39079 0.299641 0
M  V30 3213 H 302.439 0.731077 -0.0932471 0
M  V30 3214 H 305.081 1.67026 -0.905673 0
M  V30 3215 H 303.231 3.87844 0.225737 0
M  V30 3216 H 304.903 3.9498 -2.38303 0
M  V30 3217 H 303.146 3.67801 -2.3001 0
M  V30 3218 H 303.817 5.22597 -1.77755 0
M  V30 3219 H 306.293 4.15735 -0.174139 0
M  V30 3220 H 305.169 5.4848 0.214771 0
M  V30 3221 H 305.43 4.19915 1.38288 0
M  V30 3222 N 304.489 0.459591 1.5075 0
M  V30 3223 C 305.9 0.00171547 1.867 0
M  V30 3224 C 306.251 -1.39934 1.37525 0
M  V30 3225 O 305.376 -2.03523 0.735349 0
M  V30 3226 C 305.971 -0.00366298 3.388 0
M  V30 3227 C 304.53 -0.406026 3.74204 0
M  V30 3228 C 303.677 0.38673 2.7459 0
M  V30 3229 H 306.628 0.674413 1.43657 0
M  V30 3230 H 306.649 -0.808371 3.71814 0
M  V30 3231 H 306.161 1.01617 3.74561 0
M  V30 3232 H 304.262 -1.43063 3.4404 0
M  V30 3233 H 304.375 -0.115362 4.78961 0
M  V30 3234 H 302.739 -0.158019 2.54209 0
M  V30 3235 H 303.522 1.40585 3.13194 0
M  V30 3236 N 305.967 -1.56429 0.191757 0
M  V30 3237 C 307.197 -2.01574 -0.452928 0
M  V30 3238 C 307.605 -1.07107 -1.55964 0
M  V30 3239 O 306.948 -0.067534 -1.83576 0
M  V30 3240 C 307.01 -3.43121 -1.07278 0
M  V30 3241 C 306.674 -4.56879 -0.105214 0
M  V30 3242 C 307.671 -5.15379 0.684149 0
M  V30 3243 C 305.356 -5.023 0.00489824 0
M  V30 3244 C 307.35 -6.17746 1.57062 0
M  V30 3245 C 305.037 -6.04511 0.894935 0
M  V30 3246 C 306.035 -6.62108 1.67637 0
M  V30 3247 O 305.723 -7.62335 2.55149 0
M  V30 3248 H 305.455 -0.665554 -0.118379 0
M  V30 3249 H 308.009 -2.03245 0.296737 0
M  V30 3250 H 306.239 -3.38425 -1.87097 0
M  V30 3251 H 307.928 -3.72093 -1.62177 0
M  V30 3252 H 308.694 -4.81157 0.609365 0
M  V30 3253 H 304.573 -4.57168 -0.593156 0
M  V30 3254 H 308.117 -6.6263 2.181 0
M  V30 3255 H 304.014 -6.38157 0.970847 0
M  V30 3256 H 304.782 -7.79741 2.48892 0
M  V30 3257 N 307.445 0.0818655 -1.57387 0
M  V30 3258 C 308.395 1.10501 -1.99433 0
M  V30 3259 C 309.379 1.35041 -0.874798 0
M  V30 3260 O 310.571 1.35511 -1.13868 0
M  V30 3261 C 307.7 2.42159 -2.43339 0
M  V30 3262 C 306.786 2.20937 -3.62005 0
M  V30 3263 N 307.177 1.69616 -4.76512 0
M  V30 3264 C 305.475 2.51451 -3.68359 0
M  V30 3265 C 306.176 1.62973 -5.58404 0
M  V30 3266 N 305.152 2.08664 -5.01956 0
M  V30 3267 H 308.954 0.701373 -2.85408 0
M  V30 3268 H 306.468 0.289096 -1.59806 0
M  V30 3269 H 308.465 3.16208 -2.71695 0
M  V30 3270 H 307.125 2.83249 -1.58746 0
M  V30 3271 H 308.136 1.38624 -4.99003 0
M  V30 3272 H 304.813 2.95975 -2.94457 0
M  V30 3273 H 306.203 1.24233 -6.60315 0
M  V30 3274 N 308.923 1.53595 0.353017 0
M  V30 3275 C 309.833 1.83897 1.45667 0
M  V30 3276 C 310.849 0.728334 1.58023 0
M  V30 3277 O 312.025 1.01968 1.73679 0
M  V30 3278 C 309.09 2.03383 2.80778 0
M  V30 3279 C 308.151 3.27262 2.77845 0
M  V30 3280 C 307.384 3.45809 4.06512 0
M  V30 3281 O 307.607 2.68387 5.03314 0
M  V30 3282 O 306.541 4.39207 4.11559 0
M  V30 3283 H 310.367 2.77686 1.2298 0
M  V30 3284 H 307.952 1.39132 0.544308 0
M  V30 3285 H 309.834 2.17698 3.60812 0
M  V30 3286 H 308.509 1.12783 3.03417 0
M  V30 3287 H 307.416 3.18359 1.96465 0
M  V30 3288 H 308.749 4.17824 2.60161 0
M  V30 3289 N 310.401 -0.613514 1.45168 0
M  V30 3290 C 311.65 -1.36874 1.4815 0
M  V30 3291 C 311.963 -1.952 0.124982 0
M  V30 3292 O 313.169 -2.71481 0.0324176 0
M  V30 3293 C 311.625 -2.47905 2.60904 0
M  V30 3294 C 311.233 -1.96016 4.02842 0
M  V30 3295 C 312.977 -3.24965 2.73126 0
M  V30 3296 C 310.884 -3.04494 5.06988 0
M  V30 3297 H 309.814 -0.514428 0.551253 0
M  V30 3298 H 312.465 -0.658182 1.7129 0
M  V30 3299 H 310.847 -3.21618 2.31037 0
M  V30 3300 H 312.021 -1.29051 4.4236 0
M  V30 3301 H 310.336 -1.31719 3.95018 0
M  V30 3302 H 312.933 -4.05865 3.48106 0
M  V30 3303 H 313.276 -3.75588 1.79553 0
M  V30 3304 H 313.809 -2.5835 3.0249 0
M  V30 3305 H 310.548 -2.58795 6.0225 0
M  V30 3306 H 310.068 -3.70044 4.72046 0
M  V30 3307 H 311.747 -3.68976 5.31475 0
M  V30 3308 N 311.879 -1.3236 -0.855495 0
M  V30 3309 C 312.826 -1.21225 -1.964 0
M  V30 3310 C 313.796 -0.0946204 -1.6583 0
M  V30 3311 O 314.981 -0.27002 -1.8888 0
M  V30 3312 C 312.121 -0.940419 -3.32039 0
M  V30 3313 C 311.234 -2.14276 -3.75113 0
M  V30 3314 C 310.369 -1.80648 -4.9954 0
M  V30 3315 C 309.408 -2.97208 -5.35102 0
M  V30 3316 N 308.545 -2.63678 -6.50706 0
M  V30 3317 H 313.385 -2.16042 -2.05255 0
M  V30 3318 H 310.922 -1.07451 -1.00463 0
M  V30 3319 H 312.88 -0.763311 -4.10158 0
M  V30 3320 H 311.51 -0.0290413 -3.22787 0
M  V30 3321 H 310.562 -2.43017 -2.92655 0
M  V30 3322 H 311.874 -3.01468 -3.97389 0
M  V30 3323 H 311.028 -1.59484 -5.85363 0
M  V30 3324 H 309.767 -0.906678 -4.79198 0
M  V30 3325 H 308.772 -3.19004 -4.47791 0
M  V30 3326 H 309.997 -3.87918 -5.57401 0
M  V30 3327 H 307.943 -1.76238 -6.31883 0
M  V30 3328 H 307.86 -3.444 -6.72997 0
M  V30 3329 H 309.128 -2.45942 -7.39684 0
M  V30 3330 N 313.357 1.07166 -1.15556 0
M  V30 3331 C 314.582 1.84053 -0.955988 0
M  V30 3332 C 315.007 1.81586 0.490739 0
M  V30 3333 O 314.365 1.21018 1.34997 0
M  V30 3334 C 314.413 3.28957 -1.47714 0
M  V30 3335 O 313.517 4.06795 -0.677593 0
M  V30 3336 H 312.858 0.569842 -0.340847 0
M  V30 3337 H 315.388 1.35178 -1.53584 0
M  V30 3338 H 315.398 3.79788 -1.4908 0
M  V30 3339 H 314.073 3.30068 -2.53037 0
M  V30 3340 H 312.65 3.6561 -0.733721 0
M  V30 3341 N 314.835 0.952656 1.25548 0
M  V30 3342 C 316.112 0.523818 1.88456 0
M  V30 3343 C 316.492 -0.998871 1.85973 0
M  V30 3344 O 315.84 -1.86381 1.3219 0
M  V30 3345 C 316.05 1.0982 3.31271 0
M  V30 3346 C 317.398 1.17385 4.08051 0
M  V30 3347 O 318.422 1.04961 3.40384 0
M  V30 3348 O 317.281 1.36852 5.29088 0
M  V30 3349 H 314.375 0.172485 0.808813 0
M  V30 3350 H 316.921 1.04596 1.33633 0
M  V30 3351 H 315.693 2.1415 3.27499 0
M  V30 3352 H 315.316 0.559191 3.93648 0
M  V30 3353 N 316.313 -1.40141 0.720998 0
M  V30 3354 C 317.729 -1.54632 0.395113 0
M  V30 3355 C 317.929 -1.69115 -1.09555 0
M  V30 3356 O 316.985 -1.68377 -1.88163 0
M  V30 3357 C 318.298 -2.77177 1.1659 0
M  V30 3358 C 319.846 -2.91 1.15274 0
M  V30 3359 C 320.321 -4.16465 1.90579 0
M  V30 3360 N 321.812 -4.23476 1.87675 0
M  V30 3361 C 322.547 -5.19475 2.42762 0
M  V30 3362 N 322.043 -6.21348 3.06428 0
M  V30 3363 N 323.836 -5.11592 2.32874 0
M  V30 3364 H 315.987 -1.28986 1.68749 0
M  V30 3365 H 318.25 -0.62412 0.713567 0
M  V30 3366 H 317.956 -2.72771 2.22011 0
M  V30 3367 H 317.83 -3.69442 0.76108 0
M  V30 3368 H 320.217 -2.94907 0.106702 0
M  V30 3369 H 320.298 -1.99838 1.59682 0
M  V30 3370 H 319.942 -4.1332 2.95176 0
M  V30 3371 H 319.872 -5.06646 1.43587 0
M  V30 3372 H 322.363 -3.50497 1.41281 0
M  V30 3373 H 322.676 -6.91034 3.45965 0
M  V30 3374 H 321.021 -6.21777 3.10514 0
M  V30 3375 H 324.212 -4.30936 1.82789 0
M  V30 3376 H 324.385 -5.86233 2.76106 0
M  V30 3377 N 317.792 -0.46758 -1.50504 0
M  V30 3378 C 318.739 0.328413 -2.28452 0
M  V30 3379 C 319.709 0.990313 -1.33349 0
M  V30 3380 O 320.894 1.00343 -1.62284 0
M  V30 3381 C 318.034 1.40648 -3.15138 0
M  V30 3382 C 317.147 0.759709 -4.25267 0
M  V30 3383 C 316.282 1.81537 -4.99217 0
M  V30 3384 C 315.321 1.14866 -6.01226 0
M  V30 3385 N 314.458 2.14702 -6.68467 0
M  V30 3386 H 319.298 -0.342603 -2.96024 0
M  V30 3387 H 316.835 -0.180801 -1.45985 0
M  V30 3388 H 318.793 2.04315 -3.63746 0
M  V30 3389 H 317.423 2.04671 -2.49619 0
M  V30 3390 H 316.475 0.0105671 -3.80399 0
M  V30 3391 H 317.787 0.233243 -4.98254 0
M  V30 3392 H 316.941 2.52793 -5.51526 0
M  V30 3393 H 315.68 2.37564 -4.25928 0
M  V30 3394 H 314.685 0.42171 -5.4818 0
M  V30 3395 H 315.91 0.595334 -6.76485 0
M  V30 3396 H 313.856 2.69752 -5.97972 0
M  V30 3397 H 313.773 1.6703 -7.37317 0
M  V30 3398 H 315.041 2.85348 -7.25394 0
M  V30 3399 N 319.27 1.56325 -0.20005 0
M  V30 3400 C 320.18 2.22931 0.730668 0
M  V30 3401 C 321.196 1.22997 1.23076 0
M  V30 3402 O 322.372 1.55748 1.27689 0
M  V30 3403 C 319.437 2.87948 1.93098 0
M  V30 3404 C 318.498 4.03166 1.47497 0
M  V30 3405 C 317.731 4.65073 2.61807 0
M  V30 3406 O 317.954 4.25913 3.79413 0
M  V30 3407 O 316.888 5.54452 2.34237 0
M  V30 3408 H 320.714 3.03084 0.193391 0
M  V30 3409 H 318.299 1.49371 0.0294621 0
M  V30 3410 H 320.181 3.29063 2.6324 0
M  V30 3411 H 318.856 2.10771 2.45677 0
M  V30 3412 H 317.763 3.66664 0.742201 0
M  V30 3413 H 319.096 4.82022 0.995796 0
M  V30 3414 N 320.748 -0.0735177 1.57428 0
M  V30 3415 C 321.711 -1.07192 2.02589 0
M  V30 3416 C 322.711 -1.31695 0.922661 0
M  V30 3417 O 323.901 -1.27445 1.18758 0
M  V30 3418 C 321.033 -2.41599 2.40506 0
M  V30 3419 H 322.226 -0.682727 2.92025 0
M  V30 3420 H 319.779 -0.319193 1.53006 0
M  V30 3421 H 320.514 -2.85354 1.5409 0
M  V30 3422 H 320.299 -2.25156 3.21009 0
M  V30 3423 H 321.789 -3.13367 2.76027 0
M  V30 3424 N 322.226 -1.5378 -0.344866 0
M  V30 3425 C 323.503 -1.61589 -1.10219 0
M  V30 3426 C 323.883 -0.436316 -2.06542 0
M  V30 3427 O 323.231 0.571543 -2.21237 0
M  V30 3428 C 323.441 -2.97602 -1.82301 0
M  V30 3429 C 324.789 -3.5291 -2.36093 0
M  V30 3430 O 325.813 -2.99768 -1.924 0
M  V30 3431 O 324.672 -4.45859 -3.16026 0
M  V30 3432 H 321.766 -0.653522 -0.506792 0
M  V30 3433 H 324.312 -1.66126 -0.346465 0
M  V30 3434 H 323.084 -3.74893 -1.12121 0
M  V30 3435 H 322.707 -2.9665 -2.64735 0
M  V30 3436 N 323.704 0.605807 -1.45491 0
M  V30 3437 C 324.953 1.36086 -1.48874 0
M  V30 3438 C 325.266 1.95131 -0.135333 0
M  V30 3439 O 326.472 2.7146 -0.0468144 0
M  V30 3440 C 324.928 2.46518 -2.62215 0
M  V30 3441 C 324.536 1.93877 -4.03876 0
M  V30 3442 C 326.28 3.23512 -2.74846 0
M  V30 3443 C 324.187 3.01801 -5.08596 0
M  V30 3444 H 323.117 0.511497 -0.553974 0
M  V30 3445 H 325.768 0.649089 -1.71636 0
M  V30 3446 H 324.15 3.20388 -2.32739 0
M  V30 3447 H 325.324 1.26704 -4.43038 0
M  V30 3448 H 323.639 1.29622 -3.95711 0
M  V30 3449 H 326.236 4.04013 -3.50253 0
M  V30 3450 H 326.579 3.74631 -1.81542 0
M  V30 3451 H 327.112 2.56742 -3.03856 0
M  V30 3452 H 323.851 2.55597 -6.03614 0
M  V30 3453 H 323.371 3.67535 -4.74002 0
M  V30 3454 H 325.05 3.66152 -5.33424 0
M  V30 3455 N 325.182 1.32811 0.848464 0
M  V30 3456 C 326.115 1.16601 1.96162 0
M  V30 3457 C 327.093 0.0638855 1.62474 0
M  V30 3458 O 328.277 0.224348 1.8716 0
M  V30 3459 C 325.404 0.786333 3.29446 0
M  V30 3460 C 324.45 1.89459 3.8211 0
M  V30 3461 S 325.283 3.50395 4.04949 0
M  V30 3462 C 326.439 3.14413 5.41198 0
M  V30 3463 H 326.672 2.10832 2.09612 0
M  V30 3464 H 324.205 1.17543 1.00115 0
M  V30 3465 H 326.163 0.574044 4.06466 0
M  V30 3466 H 324.824 -0.137218 3.138 0
M  V30 3467 H 324.017 1.58207 4.78526 0
M  V30 3468 H 323.619 2.06304 3.11953 0
M  V30 3469 H 325.911 2.64642 6.23675 0
M  V30 3470 H 326.854 4.09874 5.77416 0
M  V30 3471 H 327.262 2.51266 5.05495 0
M  V30 3472 N 326.66 -1.06551 1.16123 0
M  V30 3473 C 327.909 -1.78687 0.935622 0
M  V30 3474 C 328.222 -1.88056 -0.538001 0
M  V30 3475 O 329.428 -2.56794 -0.88143 0
M  V30 3476 C 327.884 -3.21143 1.62466 0
M  V30 3477 C 327.492 -3.19949 3.13587 0
M  V30 3478 C 329.236 -3.9783 1.48092 0
M  V30 3479 C 327.143 -4.57108 3.75241 0
M  V30 3480 H 326.073 -0.669712 0.346412 0
M  V30 3481 H 328.724 -1.19534 1.39226 0
M  V30 3482 H 327.106 -3.80539 1.09572 0
M  V30 3483 H 328.28 -2.70151 3.73303 0
M  V30 3484 H 326.595 -2.5676 3.27816 0
M  V30 3485 H 329.192 -4.99217 1.91538 0
M  V30 3486 H 329.535 -4.14078 0.429507 0
M  V30 3487 H 330.068 -3.4495 1.98127 0
M  V30 3488 H 326.807 -4.46065 4.80319 0
M  V30 3489 H 326.327 -5.07111 3.20309 0
M  V30 3490 H 328.006 -5.26069 3.76644 0
M  V30 3491 N 328.138 -0.959301 -1.25041 0
M  V30 3492 C 329.385 -0.616611 -1.92884 0
M  V30 3493 C 329.713 0.847036 -1.75087 0
M  V30 3494 O 328.968 1.62374 -1.09239 0
M  V30 3495 C 329.267 -0.927136 -3.45165 0
M  V30 3496 C 328.933 -2.37757 -3.83122 0
M  V30 3497 C 327.595 -2.77402 -3.93194 0
M  V30 3498 C 329.947 -3.31929 -4.01836 0
M  V30 3499 C 327.275 -4.10277 -4.19392 0
M  V30 3500 C 329.627 -4.64423 -4.29528 0
M  V30 3501 C 328.291 -5.03857 -4.37818 0
M  V30 3502 H 327.561 -0.225634 -0.705812 0
M  V30 3503 H 330.208 -1.20921 -1.48493 0
M  V30 3504 H 328.513 -0.252195 -3.90987 0
M  V30 3505 H 330.21 -0.6405 -3.95852 0
M  V30 3506 H 326.8 -2.06013 -3.75841 0
M  V30 3507 H 330.984 -3.02488 -3.93465 0
M  V30 3508 H 326.24 -4.40467 -4.24027 0
M  V30 3509 H 330.414 -5.37369 -4.42953 0
M  V30 3510 H 328.041 -6.06843 -4.57871 0
M  V30 3511 N 329.616 1.39756 -0.72842 0
M  V30 3512 C 330.863 2.00645 -0.273487 0
M  V30 3513 C 331.191 1.57786 1.13727 0
M  V30 3514 O 330.446 0.794886 1.7883 0
M  V30 3515 C 330.745 3.56002 -0.315776 0
M  V30 3516 C 330.411 4.18489 -1.67863 0
M  V30 3517 C 329.073 4.3527 -2.05166 0
M  V30 3518 C 331.425 4.53219 -2.57375 0
M  V30 3519 C 328.753 4.84069 -3.31503 0
M  V30 3520 C 331.105 5.03423 -3.83077 0
M  V30 3521 C 329.769 5.18413 -4.20481 0
M  V30 3522 H 329.039 0.734211 -0.100076 0
M  V30 3523 H 331.686 1.6718 -0.933972 0
M  V30 3524 H 329.991 3.89452 0.428285 0
M  V30 3525 H 331.688 4.00963 0.0542575 0
M  V30 3526 H 328.278 4.05824 -1.37858 0
M  V30 3527 H 332.462 4.39878 -2.29827 0
M  V30 3528 H 327.718 4.93859 -3.60435 0
M  V30 3529 H 331.892 5.2927 -4.52599 0
M  V30 3530 H 329.519 5.55987 -5.18443 0
M  V30 3531 N 331.094 0.475555 1.50254 0
M  V30 3532 C 332.057 -0.305016 2.27161 0
M  V30 3533 C 333.057 -0.916519 1.32123 0
M  V30 3534 O 334.247 -0.785003 1.5551 0
M  V30 3535 C 331.379 -1.43496 3.09227 0
M  V30 3536 H 332.572 0.369511 2.97615 0
M  V30 3537 H 330.125 0.229747 1.54602 0
M  V30 3538 H 330.86 -2.14441 2.43281 0
M  V30 3539 H 330.645 -1.00223 3.79075 0
M  V30 3540 H 332.135 -1.98548 3.67381 0
M  V30 3541 N 332.573 -1.56217 0.208337 0
M  V30 3542 C 333.798 -2.02782 -0.435222 0
M  V30 3543 C 334.223 -1.08738 -1.53485 0
M  V30 3544 O 333.581 -0.0731855 -1.81152 0
M  V30 3545 C 333.629 -3.47687 -0.956335 0
M  V30 3546 O 332.733 -3.56773 -2.06849 0
M  V30 3547 H 332.074 -0.656403 -0.100158 0
M  V30 3548 H 334.604 -2.02033 0.3231 0
M  V30 3549 H 334.614 -3.87745 -1.26955 0
M  V30 3550 H 333.289 -4.15624 -0.15143 0
M  V30 3551 H 331.866 -3.28597 -1.76292 0
M  V30 3552 N 334.051 0.0651679 -1.57465 0
M  V30 3553 C 335.299 0.761555 -1.87202 0
M  V30 3554 C 335.62 1.77778 -0.801243 0
M  V30 3555 O 334.89 1.95166 0.16937 0
M  V30 3556 H 333.47 0.284251 -0.690804 0
M  V30 3557 H 336.132 0.0396827 -1.9486 0
M  V30 3558 H 335.228 1.27365 -2.84929 0
M  V30 3559 N 335.529 1.53961 0.336706 0
M  V30 3560 C 336.776 1.71536 1.07618 0
M  V30 3561 C 337.104 0.482125 1.8843 0
M  V30 3562 O 336.359 -0.536142 1.88213 0
M  V30 3563 C 336.658 2.93493 2.03953 0
M  V30 3564 C 336.324 4.28811 1.39399 0
M  V30 3565 C 334.986 4.65602 1.21523 0
M  V30 3566 C 337.338 5.12844 0.929541 0
M  V30 3567 C 334.666 5.84037 0.558312 0
M  V30 3568 C 337.018 6.31951 0.286505 0
M  V30 3569 C 335.682 6.67432 0.0954869 0
M  V30 3570 H 334.952 0.627696 0.393801 0
M  V30 3571 H 337.599 1.88186 0.354715 0
M  V30 3572 H 335.904 2.71475 2.82504 0
M  V30 3573 H 337.601 3.04285 2.61174 0
M  V30 3574 H 334.191 3.99858 1.54311 0
M  V30 3575 H 338.375 4.84947 1.05548 0
M  V30 3576 H 333.631 6.10097 0.398995 0
M  V30 3577 H 337.805 6.96352 -0.0814376 0
M  V30 3578 H 335.432 7.59063 -0.415579 0
M  V30 3579 N 337.007 -0.598083 1.45811 0
M  V30 3580 C 337.957 -1.70272 1.51629 0
M  V30 3581 C 338.941 -1.56382 0.378629 0
M  V30 3582 O 340.133 -1.65557 0.626087 0
M  V30 3583 C 337.262 -3.09042 1.49493 0
M  V30 3584 C 336.348 -3.28284 2.68496 0
M  V30 3585 N 336.739 -3.17748 3.93535 0
M  V30 3586 C 335.037 -3.59182 2.64394 0
M  V30 3587 C 335.738 -3.38579 4.7301 0
M  V30 3588 N 334.714 -3.63016 4.04624 0
M  V30 3589 H 338.516 -1.60634 2.46118 0
M  V30 3590 H 336.03 -0.801642 1.41235 0
M  V30 3591 H 338.027 -3.88302 1.51747 0
M  V30 3592 H 336.687 -3.19823 0.560683 0
M  V30 3593 H 337.698 -2.95944 4.25014 0
M  V30 3594 H 334.375 -3.76742 1.79922 0
M  V30 3595 H 335.765 -3.35747 5.82 0
M  V30 3596 N 338.485 -1.33259 -0.841409 0
M  V30 3597 C 339.733 -1.24326 -1.59334 0
M  V30 3598 C 340.054 0.191564 -1.94057 0
M  V30 3599 O 339.324 1.11967 -1.60749 0
M  V30 3600 H 337.904 -0.457174 -0.590763 0
M  V30 3601 H 340.566 -1.66947 -1.00571 0
M  V30 3602 H 339.662 -1.8352 -2.52442 0
M  V30 3603 N 339.963 1.05934 -1.16686 0
M  V30 3604 C 341.24 1.75643 -0.860747 0
M  V30 3605 C 341.62 2.01144 0.640641 0
M  V30 3606 O 340.968 1.64147 1.58959 0
M  V30 3607 C 341.178 3.05493 -1.68745 0
M  V30 3608 C 342.526 3.79581 -1.90271 0
M  V30 3609 O 343.55 3.15344 -1.65641 0
M  V30 3610 O 342.409 4.9499 -2.31618 0
M  V30 3611 H 339.503 0.763426 -0.317977 0
M  V30 3612 H 342.049 1.1217 -1.27342 0
M  V30 3613 H 340.821 2.8264 -2.70611 0
M  V30 3614 H 340.444 3.76702 -1.27206 0
M  V30 3615 N 341.441 0.965919 1.2453 0
M  V30 3616 C 342.666 0.643971 1.97149 0
M  V30 3617 C 343.091 -0.779487 1.71189 0
M  V30 3618 O 342.449 -1.5288 0.974553 0
M  V30 3619 C 342.497 0.922557 3.48599 0
M  V30 3620 O 341.601 0.00707672 4.12399 0
M  V30 3621 H 340.942 0.243647 0.617683 0
M  V30 3622 H 343.472 1.29558 1.58353 0
M  V30 3623 H 343.482 0.853373 3.98976 0
M  V30 3624 H 342.157 1.95996 3.66822 0
M  V30 3625 H 340.734 0.12943 3.72675 0
M  V30 3626 N 342.919 -1.39368 0.735821 0
M  V30 3627 C 344.144 -2.05319 0.293052 0
M  V30 3628 C 344.569 -1.55115 -1.064 0
M  V30 3629 O 343.927 -0.695261 -1.67439 0
M  V30 3630 C 343.975 -3.59305 0.305323 0
M  V30 3631 O 343.079 -4.06299 -0.706761 0
M  V30 3632 H 342.42 -0.650529 0.13307 0
M  V30 3633 H 344.95 -1.78386 1.00197 0
M  V30 3634 H 344.96 -4.07724 0.149997 0
M  V30 3635 H 343.635 -3.95207 1.29553 0
M  V30 3636 H 342.212 -3.69292 -0.517504 0
M  V30 3637 N 344.397 -0.483516 -1.5 0
M  V30 3638 C 345.808 -0.0314176 -1.86674 0
M  V30 3639 C 346.159 1.37728 -1.39733 0
M  V30 3640 O 345.284 2.02327 -0.767635 0
M  V30 3641 C 345.879 -0.0502376 -3.38763 0
M  V30 3642 C 344.438 0.346442 -3.74802 0
M  V30 3643 C 343.585 -0.430366 -2.7394 0
M  V30 3644 H 346.536 -0.697182 -1.42566 0
M  V30 3645 H 346.557 0.749116 -3.73053 0
M  V30 3646 H 346.069 -1.07563 -3.72897 0
M  V30 3647 H 344.17 1.37572 -3.46273 0
M  V30 3648 H 344.283 0.0391486 -4.79084 0
M  V30 3649 H 342.647 0.117557 -2.54429 0
M  V30 3650 H 343.43 -1.4555 -3.10918 0
M  V30 3651 N 345.875 1.56104 -0.216619 0
M  V30 3652 C 347.122 1.98172 0.416416 0
M  V30 3653 C 347.45 1.10413 1.60122 0
M  V30 3654 O 346.705 0.147967 1.9514 0
M  V30 3655 C 347.004 3.45923 0.898464 0
M  V30 3656 C 346.67 4.50559 -0.175288 0
M  V30 3657 C 345.332 4.78897 -0.470271 0
M  V30 3658 C 347.684 5.1334 -0.901728 0
M  V30 3659 C 345.012 5.67299 -1.4963 0
M  V30 3660 C 347.364 6.02853 -1.91705 0
M  V30 3661 C 346.028 6.29537 -2.21901 0
M  V30 3662 H 345.298 0.725164 0.152377 0
M  V30 3663 H 347.945 1.88839 -0.318103 0
M  V30 3664 H 346.25 3.52434 1.71165 0
M  V30 3665 H 347.947 3.75841 1.39803 0
M  V30 3666 H 344.537 4.28551 0.0647806 0
M  V30 3667 H 348.721 4.91521 -0.687072 0
M  V30 3668 H 343.977 5.86239 -1.73592 0
M  V30 3669 H 348.151 6.50552 -2.48505 0
M  V30 3670 H 345.778 6.97835 -3.01548 0
M  V30 3671 N 347.353 -0.0568162 1.57498 0
M  V30 3672 C 348.63 -0.786954 1.79071 0
M  V30 3673 C 349.01 -1.95028 0.80792 0
M  V30 3674 O 348.358 -2.27968 -0.155858 0
M  V30 3675 C 348.568 -1.24594 3.26002 0
M  V30 3676 C 349.916 -1.67323 3.90241 0
M  V30 3677 O 350.94 -1.34124 3.29984 0
M  V30 3678 O 349.799 -2.28842 4.9628 0
M  V30 3679 H 346.893 -0.378262 0.735423 0
M  V30 3680 H 349.439 -0.035734 1.69662 0
M  V30 3681 H 348.211 -0.41423 3.89101 0
M  V30 3682 H 347.834 -2.05803 3.40192 0
M  V30 3683 N 348.832 -1.54138 -0.328536 0
M  V30 3684 C 350.08 -1.71765 -1.06496 0
M  V30 3685 C 350.401 -0.49149 -1.88704 0
M  V30 3686 O 349.671 0.494539 -1.89555 0
M  V30 3687 H 348.251 -0.633295 -0.396164 0
M  V30 3688 H 350.913 -1.91429 -0.366176 0
M  V30 3689 H 350.009 -2.5951 -1.73381 0
M  V30 3690 N 350.31 0.590341 -1.46126 0
M  V30 3691 C 351.22 1.72793 -1.58681 0
M  V30 3692 C 352.236 1.67516 -0.470566 0
M  V30 3693 O 353.412 1.87562 -0.733642 0
M  V30 3694 C 350.477 3.09287 -1.5666 0
M  V30 3695 C 349.538 3.25886 -2.79458 0
M  V30 3696 C 348.771 4.55869 -2.77524 0
M  V30 3697 O 348.994 5.3928 -1.85832 0
M  V30 3698 O 347.928 4.75552 -3.68964 0
M  V30 3699 H 351.754 1.65149 -2.54872 0
M  V30 3700 H 349.339 0.756486 -1.28832 0
M  V30 3701 H 351.221 3.90577 -1.58202 0
M  V30 3702 H 349.896 3.17385 -0.636271 0
M  V30 3703 H 348.803 2.44119 -2.83472 0
M  V30 3704 H 350.136 3.22675 -3.71674 0
M  V30 3705 N 351.788 1.33704 0.83433 0
M  V30 3706 C 353.036 1.25169 1.58673 0
M  V30 3707 C 353.357 -0.18127 1.94156 0
M  V30 3708 O 352.627 -1.11113 1.6134 0
M  V30 3709 H 351.207 0.4603 0.58833 0
M  V30 3710 H 353.869 1.67478 0.996847 0
M  V30 3711 H 352.965 1.84856 2.51465 0
M  V30 3712 N 353.266 -1.05314 1.17247 0
M  V30 3713 C 354.514 -1.77941 0.958194 0
M  V30 3714 C 354.835 -1.88089 -0.514556 0
M  V30 3715 O 354.105 -1.39676 -1.37359 0
M  V30 3716 H 352.685 -0.659116 0.351533 0
M  V30 3717 H 355.347 -1.27166 1.47699 0
M  V30 3718 H 354.443 -2.79663 1.38546 0
M  V30 3719 N 354.744 -0.972509 -1.24016 0
M  V30 3720 C 355.991 -0.637034 -1.92219 0
M  V30 3721 C 356.319 0.828418 -1.75976 0
M  V30 3722 O 355.574 1.61206 -1.10955 0
M  V30 3723 C 355.873 -0.963694 -3.44162 0
M  V30 3724 C 355.539 -2.41807 -3.80579 0
M  V30 3725 C 354.201 -2.81556 -3.9023 0
M  V30 3726 C 356.553 -3.36172 -3.98293 0
M  V30 3727 C 353.881 -4.14702 -4.15017 0
M  V30 3728 C 356.233 -4.68952 -4.24578 0
M  V30 3729 C 354.897 -5.08472 -4.32449 0
M  V30 3730 H 354.167 -0.233107 -0.703379 0
M  V30 3731 H 356.814 -1.2249 -1.47202 0
M  V30 3732 H 355.119 -0.29365 -3.90698 0
M  V30 3733 H 356.816 -0.682449 -3.9515 0
M  V30 3734 H 353.406 -2.09988 -3.73635 0
M  V30 3735 H 357.59 -3.06644 -3.90234 0
M  V30 3736 H 352.846 -4.4494 -4.19331 0
M  V30 3737 H 357.02 -5.42037 -4.37229 0
M  V30 3738 H 354.647 -6.11665 -4.51409 0
M  V30 3739 N 356.222 1.38976 -0.743202 0
M  V30 3740 C 357.152 2.33171 -0.123873 0
M  V30 3741 C 358.133 1.54336 0.71516 0
M  V30 3742 O 359.318 1.82696 0.658467 0
M  V30 3743 C 356.448 3.38474 0.777978 0
M  V30 3744 C 355.402 4.27979 0.0424758 0
M  V30 3745 C 354.728 5.2405 1.06189 0
M  V30 3746 C 356.028 5.10155 -1.1198 0
M  V30 3747 H 357.722 2.85213 -0.910709 0
M  V30 3748 H 355.268 1.37133 -0.439388 0
M  V30 3749 H 357.221 4.03328 1.22084 0
M  V30 3750 H 355.945 2.84891 1.59702 0
M  V30 3751 H 354.604 3.64616 -0.380853 0
M  V30 3752 H 354.252 4.66758 1.87472 0
M  V30 3753 H 353.952 5.84785 0.574485 0
M  V30 3754 H 355.476 5.9178 1.50428 0
M  V30 3755 H 356.89 5.68307 -0.75499 0
M  V30 3756 H 355.287 5.80073 -1.53738 0
M  V30 3757 H 356.357 4.44504 -1.93764 0
M  V30 3758 N 357.7 0.491464 1.49741 0
M  V30 3759 C 358.663 -0.280906 2.27472 0
M  V30 3760 C 359.663 -0.902454 1.33088 0
M  V30 3761 O 360.853 -0.768465 1.56334 0
M  V30 3762 C 357.985 -1.40209 3.10732 0
M  V30 3763 H 359.178 0.401056 2.97206 0
M  V30 3764 H 356.731 0.246131 1.5435 0
M  V30 3765 H 357.466 -2.11849 2.45541 0
M  V30 3766 H 357.251 -0.961969 3.80117 0
M  V30 3767 H 358.741 -1.9464 3.69466 0
M  V30 3768 N 359.178 -1.55987 0.224894 0
M  V30 3769 C 360.128 -2.17076 -0.697296 0
M  V30 3770 C 361.112 -1.12006 -1.15514 0
M  V30 3771 O 362.304 -1.37985 -1.10857 0
M  V30 3772 C 359.433 -2.85679 -1.90374 0
M  V30 3773 C 358.519 -3.97977 -1.46543 0
M  V30 3774 N 358.91 -5.00359 -0.739909 0
M  V30 3775 C 357.208 -4.10128 -1.75245 0
M  V30 3776 C 357.909 -5.79407 -0.515939 0
M  V30 3777 N 356.885 -5.32892 -1.07364 0
M  V30 3778 H 360.687 -2.93592 -0.134594 0
M  V30 3779 H 358.201 -1.62379 0.0262885 0
M  V30 3780 H 360.198 -3.27857 -2.57518 0
M  V30 3781 H 358.858 -2.1066 -2.47088 0
M  V30 3782 H 359.869 -5.16412 -0.392253 0
M  V30 3783 H 356.546 -3.46263 -2.33255 0
M  V30 3784 H 357.936 -6.71872 0.0617349 0
M  V30 3785 N 360.656 0.0484629 -1.57525 0
M  V30 3786 C 361.619 1.03956 -2.04269 0
M  V30 3787 C 362.619 1.30211 -0.943496 0
M  V30 3788 O 363.809 1.25539 -1.20771 0
M  V30 3789 C 360.941 2.37742 -2.44319 0
M  V30 3790 H 362.134 0.636182 -2.93075 0
M  V30 3791 H 359.687 0.294811 -1.53494 0
M  V30 3792 H 360.422 2.82866 -1.5861 0
M  V30 3793 H 360.207 2.20021 -3.24551 0
M  V30 3794 H 361.697 3.08936 -2.80978 0
M  V30 3795 N 362.134 1.5431 0.320358 0
M  V30 3796 C 363.364 1.7638 1.07582 0
M  V30 3797 C 363.772 0.513944 1.82086 0
M  V30 3798 O 363.115 -0.525123 1.76035 0
M  V30 3799 C 363.177 2.9055 2.1171 0
M  V30 3800 C 362.841 4.2934 1.56575 0
M  V30 3801 C 363.838 5.10077 1.00586 0
M  V30 3802 C 361.523 4.75893 1.60722 0
M  V30 3803 C 363.517 6.35477 0.494756 0
M  V30 3804 C 361.204 6.0126 1.09224 0
M  V30 3805 C 362.202 6.80886 0.53696 0
M  V30 3806 O 361.89 8.03894 0.0297371 0
M  V30 3807 H 361.622 0.592369 0.325692 0
M  V30 3808 H 364.176 2.02019 0.37116 0
M  V30 3809 H 362.406 2.60489 2.85801 0
M  V30 3810 H 364.095 3.00373 2.73003 0
M  V30 3811 H 364.861 4.75265 0.966869 0
M  V30 3812 H 360.74 4.13957 2.02882 0
M  V30 3813 H 364.284 6.97574 0.0606842 0
M  V30 3814 H 360.181 6.35562 1.12831 0
M  V30 3815 H 360.949 8.18372 0.14486 0
M  V30 3816 N 363.613 -0.582584 1.46437 0
M  V30 3817 C 364.86 -1.34079 1.51753 0
M  V30 3818 C 365.188 -1.93762 0.169299 0
M  V30 3819 O 364.443 -1.76989 -0.835062 0
M  V30 3820 C 364.742 -2.48964 2.56421 0
M  V30 3821 C 364.408 -2.07273 4.00436 0
M  V30 3822 C 363.07 -1.95618 4.39644 0
M  V30 3823 C 365.422 -1.75111 4.90903 0
M  V30 3824 C 362.75 -1.5006 5.67185 0
M  V30 3825 C 365.102 -1.31032 6.18881 0
M  V30 3826 C 363.766 -1.17954 6.56996 0
M  V30 3827 H 363.036 -0.49063 0.555304 0
M  V30 3828 H 365.683 -0.656007 1.79913 0
M  V30 3829 H 363.988 -3.22889 2.21923 0
M  V30 3830 H 365.685 -3.07178 2.57765 0
M  V30 3831 H 362.275 -2.17279 3.69443 0
M  V30 3832 H 366.459 -1.83001 4.61329 0
M  V30 3833 H 361.715 -1.38577 5.95488 0
M  V30 3834 H 365.889 -1.052 6.88408 0
M  V30 3835 H 363.516 -0.824279 7.55718 0
M  V30 3836 N 365.091 -1.34144 -0.827227 0
M  V30 3837 C 366.502 -1.23557 -1.39966 0
M  V30 3838 C 366.853 0.140731 -1.95695 0
M  V30 3839 O 365.978 1.04087 -1.89723 0
M  V30 3840 C 366.573 -2.23708 -2.54441 0
M  V30 3841 C 365.132 -2.16924 -3.07605 0
M  V30 3842 C 364.279 -2.10549 -1.80456 0
M  V30 3843 H 367.23 -1.45573 -0.631991 0
M  V30 3844 H 367.251 -1.85157 -3.32411 0
M  V30 3845 H 366.763 -3.23866 -2.13851 0
M  V30 3846 H 364.864 -1.20107 -3.52711 0
M  V30 3847 H 364.977 -3.07988 -3.66988 0
M  V30 3848 H 363.341 -1.56203 -2.01178 0
M  V30 3849 H 364.124 -3.12535 -1.42046 0
M  V30 3850 N 366.569 1.04691 -1.17803 0
M  V30 3851 C 367.817 1.7743 -0.967617 0
M  V30 3852 C 368.138 1.88359 0.504574 0
M  V30 3853 O 367.408 1.40402 1.36617 0
M  V30 3854 H 365.988 0.657242 -0.355024 0
M  V30 3855 H 368.65 1.2638 -1.48371 0
M  V30 3856 H 367.746 2.78924 -1.40027 0
M  V30 3857 N 368.047 0.979072 1.23499 0
M  V30 3858 C 369.458 0.684391 1.73704 0
M  V30 3859 C 369.809 -0.799448 1.79174 0
M  V30 3860 O 368.934 -1.62531 1.42873 0
M  V30 3861 C 369.529 1.23564 3.15464 0
M  V30 3862 C 368.088 0.99063 3.6313 0
M  V30 3863 C 367.235 1.36416 2.41425 0
M  V30 3864 H 370.186 1.15307 1.09041 0
M  V30 3865 H 370.207 0.607417 3.7562 0
M  V30 3866 H 369.719 2.31561 3.1145 0
M  V30 3867 H 367.82 -0.0733136 3.72528 0
M  V30 3868 H 367.933 1.64427 4.5 0
M  V30 3869 H 366.297 0.782616 2.42378 0
M  V30 3870 H 367.08 2.45387 2.40083 0
M  V30 3871 N 369.525 -1.3858 0.750561 0
M  V30 3872 C 370.773 -1.99789 0.30477 0
M  V30 3873 C 371.094 -1.59874 -1.11649 0
M  V30 3874 O 370.364 -0.85417 -1.76297 0
M  V30 3875 H 368.944 -0.738902 0.109694 0
M  V30 3876 H 371.606 -1.69391 0.963983 0
M  V30 3877 H 370.702 -3.09952 0.365499 0
M  V30 3878 N 371.003 -0.499398 -1.49478 0
M  V30 3879 C 372.252 0.0475259 -2.01644 0
M  V30 3880 C 372.565 1.38195 -1.38425 0
M  V30 3881 O 373.771 2.01547 -1.8191 0
M  V30 3882 C 372.227 0.135164 -3.59646 0
M  V30 3883 C 371.835 -1.19252 -4.31837 0
M  V30 3884 C 373.579 0.632538 -4.19761 0
M  V30 3885 C 371.486 -1.06713 -5.81693 0
M  V30 3886 H 370.416 0.0215349 -0.753692 0
M  V30 3887 H 373.067 -0.638577 -1.7203 0
M  V30 3888 H 371.449 0.885681 -3.85969 0
M  V30 3889 H 372.623 -1.9562 -4.17216 0
M  V30 3890 H 370.938 -1.62321 -3.83459 0
M  V30 3891 H 373.535 0.743833 -5.29501 0
M  V30 3892 H 373.878 1.63098 -3.83021 0
M  V30 3893 H 374.411 -0.0613987 -3.97753 0
M  V30 3894 H 371.15 -2.03979 -6.22955 0
M  V30 3895 H 370.67 -0.344307 -5.98811 0
M  V30 3896 H 372.349 -0.745208 -6.42694 0
M  V30 3897 N 372.481 1.55866 -0.233164 0
M  V30 3898 C 373.729 1.9821 0.394593 0
M  V30 3899 C 374.05 1.12234 1.59463 0
M  V30 3900 O 373.32 0.201981 1.94856 0
M  V30 3901 H 371.9 0.732034 0.148778 0
M  V30 3902 H 374.562 1.92107 -0.32876 0
M  V30 3903 H 373.658 3.03845 0.713063 0
M  V30 3904 N 373.959 -0.0401083 1.57549 0
M  V30 3905 C 375.207 -0.731677 1.8839 0
M  V30 3906 C 375.528 -1.76481 0.829425 0
M  V30 3907 O 374.798 -1.95411 -0.1383 0
M  V30 3908 H 373.378 -0.273225 0.695239 0
M  V30 3909 H 376.04 -0.00867725 1.94898 0
M  V30 3910 H 375.136 -1.22816 2.86919 0
M  V30 3911 N 375.437 -1.54477 -0.31217 0
M  V30 3912 C 376.714 -1.63891 -1.06767 0
M  V30 3913 C 377.094 -0.480028 -2.0557 0
M  V30 3914 O 376.442 0.524487 -2.22399 0
M  V30 3915 C 376.652 -3.01402 -1.75948 0
M  V30 3916 C 378 -3.57838 -2.28554 0
M  V30 3917 O 379.024 -3.03782 -1.85998 0
M  V30 3918 O 377.883 -4.52462 -3.06497 0
M  V30 3919 H 374.977 -0.664125 -0.492816 0
M  V30 3920 H 377.523 -1.66823 -0.311149 0
M  V30 3921 H 376.295 -3.77187 -1.04144 0
M  V30 3922 H 375.918 -3.02199 -2.58383 0
M  V30 3923 N 376.915 0.57481 -1.46744 0
M  V30 3924 C 378.143 1.35856 -1.56047 0
M  V30 3925 C 378.558 1.87691 -0.204365 0
M  V30 3926 O 377.915 1.64049 0.79963 0
M  V30 3927 C 377.966 2.54066 -2.57163 0
M  V30 3928 O 377.687 2.04377 -3.87507 0
M  V30 3929 C 379.188 3.46514 -2.76483 0
M  V30 3930 H 376.408 0.414754 -0.527466 0
M  V30 3931 H 378.952 0.698035 -1.92218 0
M  V30 3932 H 377.107 3.16092 -2.23974 0
M  V30 3933 H 377.521 2.81419 -4.4261 0
M  V30 3934 H 378.995 4.25919 -3.51137 0
M  V30 3935 H 379.472 3.98951 -1.83671 0
M  V30 3936 H 380.078 2.90318 -3.10799 0
M  V30 3937 N 378.394 1.34581 0.820102 0
M  V30 3938 C 379.344 1.22943 1.92013 0
M  V30 3939 C 380.328 0.127802 1.60392 0
M  V30 3940 O 381.52 0.357737 1.73347 0
M  V30 3941 C 378.649 0.989938 3.28717 0
M  V30 3942 C 377.735 2.13486 3.66449 0
M  V30 3943 N 378.126 3.38625 3.75722 0
M  V30 3944 C 376.424 2.04573 3.96315 0
M  V30 3945 C 377.125 4.13832 4.08801 0
M  V30 3946 N 376.101 3.42451 4.22171 0
M  V30 3947 H 379.903 2.17771 1.97365 0
M  V30 3948 H 377.417 1.2686 1.01392 0
M  V30 3949 H 379.414 0.887462 4.07345 0
M  V30 3950 H 378.074 0.0503691 3.24661 0
M  V30 3951 H 379.085 3.73143 3.59144 0
M  V30 3952 H 375.762 1.1839 4.00362 0
M  V30 3953 H 377.152 5.21909 4.23156 0
M  V30 3954 N 379.872 -1.04064 1.18357 0
M  V30 3955 C 381.119 -1.77265 0.978947 0
M  V30 3956 C 381.447 -1.88189 -0.491428 0
M  V30 3957 O 380.702 -1.38653 -1.38108 0
M  V30 3958 C 381.001 -3.20634 1.57888 0
M  V30 3959 C 380.667 -3.29743 3.07539 0
M  V30 3960 C 379.329 -3.31937 3.48384 0
M  V30 3961 C 381.681 -3.29841 4.03552 0
M  V30 3962 C 379.009 -3.3187 4.83818 0
M  V30 3963 C 381.361 -3.31313 5.38901 0
M  V30 3964 C 380.025 -3.31799 5.79194 0
M  V30 3965 H 379.295 -0.648659 0.358222 0
M  V30 3966 H 381.942 -1.22225 1.47422 0
M  V30 3967 H 380.247 -3.78675 1.00561 0
M  V30 3968 H 381.944 -3.75917 1.39598 0
M  V30 3969 H 378.534 -3.28757 2.74986 0
M  V30 3970 H 382.718 -3.27337 3.73047 0
M  V30 3971 H 377.974 -3.30562 5.14333 0
M  V30 3972 H 382.148 -3.30338 6.13066 0
M  V30 3973 H 379.775 -3.315 6.84114 0
M  V30 3974 N 381.35 -0.985608 -1.22978 0
M  V30 3975 C 382.627 -0.573599 -1.87001 0
M  V30 3976 C 383.007 0.949213 -1.88555 0
M  V30 3977 O 382.355 1.82811 -1.37086 0
M  V30 3978 C 382.565 -1.18564 -3.28243 0
M  V30 3979 C 383.913 -1.28163 -4.04796 0
M  V30 3980 O 384.937 -1.13949 -3.37482 0
M  V30 3981 O 383.796 -1.50832 -5.25273 0
M  V30 3982 H 380.89 -0.193868 -0.803955 0
M  V30 3983 H 383.436 -1.08102 -1.30813 0
M  V30 3984 H 382.208 -2.22758 -3.21706 0
M  V30 3985 H 381.831 -0.663363 -3.92027 0
M  V30 3986 N 382.828 1.3818 -0.7579 0
M  V30 3987 C 384.053 2.04827 -0.325679 0
M  V30 3988 C 384.478 1.56788 1.03919 0
M  V30 3989 O 383.836 0.721811 1.66312 0
M  V30 3990 C 383.884 3.58774 -0.362447 0
M  V30 3991 O 382.988 4.07372 0.642033 0
M  V30 3992 H 382.329 0.64833 -0.143402 0
M  V30 3993 H 384.859 1.7677 -1.03023 0
M  V30 3994 H 384.869 4.07434 -0.214844 0
M  V30 3995 H 383.544 3.93096 -1.35824 0
M  V30 3996 H 382.121 3.70068 0.458688 0
M  V30 3997 N 384.306 0.507319 1.49211 0
M  V30 3998 C 385.583 -0.0982702 1.95353 0
M  V30 3999 C 385.963 -1.53516 1.449 0
M  V30 4000 O 385.311 -2.18594 0.66551 0
M  V30 4001 C 385.521 -0.00440283 3.49 0
M  V30 4002 C 386.869 -0.175147 4.24239 0
M  V30 4003 O 387.893 -0.0792891 3.56112 0
M  V30 4004 O 386.752 -0.37276 5.45227 0
M  V30 4005 H 383.846 -0.0918236 0.821887 0
M  V30 4006 H 386.392 0.570307 1.5983 0
M  V30 4007 H 385.164 0.997402 3.78375 0
M  V30 4008 H 384.787 -0.712845 3.91158 0
M  V30 4009 N 385.784 -1.5574 0.241426 0
M  V30 4010 C 386.694 -2.2479 -0.671305 0
M  V30 4011 C 387.71 -1.26217 -1.19772 0
M  V30 4012 O 388.886 -1.59079 -1.23514 0
M  V30 4013 C 385.951 -2.92966 -1.85396 0
M  V30 4014 C 385.012 -4.06935 -1.36756 0
M  V30 4015 C 384.245 -4.71851 -2.49384 0
M  V30 4016 O 384.468 -4.35823 -3.67987 0
M  V30 4017 O 383.402 -5.60467 -2.19454 0
M  V30 4018 H 387.228 -3.0349 -0.112966 0
M  V30 4019 H 384.813 -1.49397 0.0101513 0
M  V30 4020 H 386.695 -3.35927 -2.54423 0
M  V30 4021 H 385.37 -2.17211 -2.40002 0
M  V30 4022 H 384.277 -3.68503 -0.644726 0
M  V30 4023 H 385.61 -4.84492 -0.867647 0
M  V30 4024 N 387.262 0.0317525 -1.57568 0
M  V30 4025 C 388.673 0.578692 -1.77505 0
M  V30 4026 C 389.024 1.75749 -0.872164 0
M  V30 4027 O 388.149 2.16298 -0.0663106 0
M  V30 4028 C 388.744 1.05658 -3.21904 0
M  V30 4029 C 387.303 1.54906 -3.43047 0
M  V30 4030 C 386.45 0.485939 -2.73009 0
M  V30 4031 H 389.401 -0.194475 -1.57504 0
M  V30 4032 H 389.422 1.92404 -3.28269 0
M  V30 4033 H 388.934 0.198422 -3.87592 0
M  V30 4034 H 387.035 2.42915 -2.82529 0
M  V30 4035 H 387.148 1.59841 -4.5165 0
M  V30 4036 H 385.512 0.940354 -2.36705 0
M  V30 4037 H 386.295 -0.362709 -3.41379 0
M  V30 4038 N 388.74 1.54641 0.303973 0
M  V30 4039 C 389.986 1.74969 1.03718 0
M  V30 4040 C 390.341 0.527461 1.85029 0
M  V30 4041 O 389.634 -0.480143 1.85486 0
M  V30 4042 C 389.828 2.97753 1.97681 0
M  V30 4043 C 389.657 4.318 1.25613 0
M  V30 4044 C 388.427 4.95616 0.984518 0
M  V30 4045 C 390.625 5.10021 0.662081 0
M  V30 4046 N 388.607 6.13455 0.233794 0
M  V30 4047 C 389.978 6.19984 0.0439736 0
M  V30 4048 C 392.033 4.94663 0.566835 0
M  V30 4049 C 390.736 7.16264 -0.66016 0
M  V30 4050 C 392.762 5.91271 -0.123637 0
M  V30 4051 C 392.124 7.00601 -0.730608 0
M  V30 4052 H 388.223 0.692873 0.362562 0
M  V30 4053 H 390.807 1.92116 0.316135 0
M  V30 4054 H 388.978 2.82036 2.6704 0
M  V30 4055 H 390.71 3.06621 2.64132 0
M  V30 4056 H 387.465 4.55921 1.28191 0
M  V30 4057 H 387.889 6.76879 -0.127996 0
M  V30 4058 H 392.531 4.10267 1.02181 0
M  V30 4059 H 390.249 8.00204 -1.12691 0
M  V30 4060 H 393.835 5.81466 -0.197236 0
M  V30 4061 H 392.715 7.7407 -1.2564 0
M  V30 4062 N 390.218 -0.567019 1.47046 0
M  V30 4063 C 391.446 -1.35027 1.56765 0
M  V30 4064 C 391.861 -1.8758 0.214316 0
M  V30 4065 O 391.218 -1.64471 -0.790919 0
M  V30 4066 C 391.269 -2.52698 2.58507 0
M  V30 4067 O 390.99 -2.0232 3.88585 0
M  V30 4068 C 392.491 -3.45043 2.78316 0
M  V30 4069 H 389.711 -0.41195 0.529658 0
M  V30 4070 H 392.255 -0.687832 1.92585 0
M  V30 4071 H 390.41 -3.149 2.25648 0
M  V30 4072 H 390.824 -2.79068 4.44096 0
M  V30 4073 H 392.298 -4.2405 3.53391 0
M  V30 4074 H 392.775 -3.97971 1.85784 0
M  V30 4075 H 393.381 -2.88665 3.12334 0
M  V30 4076 N 391.696 -1.35014 -0.812953 0
M  V30 4077 C 392.626 -1.30069 -1.93919 0
M  V30 4078 C 393.607 -0.176275 -1.69184 0
M  V30 4079 O 394.792 -0.370227 -1.90638 0
M  V30 4080 C 391.922 -1.06547 -3.30552 0
M  V30 4081 C 390.876 -2.15561 -3.69753 0
M  V30 4082 C 390.202 -1.77214 -5.04479 0
M  V30 4083 C 391.502 -3.57476 -3.808 0
M  V30 4084 H 393.196 -2.24303 -1.98314 0
M  V30 4085 H 390.742 -1.07977 -0.952736 0
M  V30 4086 H 392.695 -1.01729 -4.08937 0
M  V30 4087 H 391.419 -0.0875719 -3.26483 0
M  V30 4088 H 390.078 -2.19466 -2.9365 0
M  V30 4089 H 389.726 -0.780589 -4.96906 0
M  V30 4090 H 389.426 -2.50184 -5.31678 0
M  V30 4091 H 390.95 -1.7391 -5.8531 0
M  V30 4092 H 392.364 -3.55929 -4.4943 0
M  V30 4093 H 390.761 -4.29152 -4.19462 0
M  V30 4094 H 391.831 -3.94091 -2.82525 0
M  V30 4095 N 393.175 1.03435 -1.18907 0
M  V30 4096 C 394.423 1.76394 -0.986382 0
M  V30 4097 C 394.744 1.88883 0.484567 0
M  V30 4098 O 394.014 1.41843 1.3512 0
M  V30 4099 H 392.594 0.65344 -0.361975 0
M  V30 4100 H 395.256 1.248 -1.49703 0
M  V30 4101 H 394.352 2.77424 -1.42978 0
M  V30 4102 N 394.653 0.992116 1.22453 0
M  V30 4103 C 395.601 0.534644 2.26372 0
M  V30 4104 C 396.595 -0.414293 1.64256 0
M  V30 4105 O 397.801 -0.286899 1.77699 0
M  V30 4106 H 394.176 0.154502 0.735957 0
M  V30 4107 H 396.147 1.42256 2.62309 0
M  V30 4108 C 394.896 -0.135815 3.47435 0
M  V30 4109 H 394.219 0.585311 3.95492 0
M  V30 4110 H 395.659 -0.419374 4.21921 0
M  V30 4111 C 394.118 -1.37089 3.07747 0
M  V30 4112 O 394.648 -2.46629 3.17076 0
M  V30 4113 N 392.854 -1.24585 2.62539 0
M  V30 4114 H 392.401 -0.354542 2.55149 0
M  V30 4115 H 392.359 -2.07327 2.36353 0
M  V30 4116 N 396.131 -1.37776 0.765217 0
M  V30 4117 C 397.094 -2.28686 0.153416 0
M  V30 4118 C 398.094 -1.47727 -0.635081 0
M  V30 4119 O 399.284 -1.68027 -0.459632 0
M  V30 4120 C 396.416 -3.31608 -0.790495 0
M  V30 4121 H 397.609 -2.84297 0.954723 0
M  V30 4122 H 395.162 -1.46932 0.53299 0
M  V30 4123 H 395.897 -2.81109 -1.61705 0
M  V30 4124 H 395.682 -3.9144 -0.227348 0
M  V30 4125 H 397.172 -3.99559 -1.21419 0
M  V30 4126 N 397.609 -0.515225 -1.4894 0
M  V30 4127 C 398.557 0.269115 -2.31038 0
M  V30 4128 C 399.551 0.949443 -1.40292 0
M  V30 4129 O 400.757 0.87551 -1.57273 0
M  V30 4130 H 397.132 0.10565 -0.744542 0
M  V30 4131 H 399.103 -0.443096 -2.95092 0
M  V30 4132 C 397.852 1.31213 -3.21991 0
M  V30 4133 H 397.175 0.798034 -3.91754 0
M  V30 4134 H 398.615 1.83263 -3.82349 0
M  V30 4135 C 397.074 2.33791 -2.42576 0
M  V30 4136 O 397.604 3.3995 -2.14003 0
M  V30 4137 N 395.81 2.06625 -2.0434 0
M  V30 4138 H 395.357 1.20314 -2.27777 0
M  V30 4139 H 395.315 2.75483 -1.51514 0
M  V30 4140 N 399.087 1.5561 -0.249682 0
M  V30 4141 C 400.037 2.18157 0.662673 0
M  V30 4142 C 401.021 1.1383 1.13717 0
M  V30 4143 O 402.213 1.39731 1.08648 0
M  V30 4144 C 399.342 2.88672 1.85805 0
M  V30 4145 C 398.428 4.00258 1.40193 0
M  V30 4146 N 398.819 5.01473 0.660213 0
M  V30 4147 C 397.117 4.12864 1.68698 0
M  V30 4148 C 397.818 5.80155 0.423695 0
M  V30 4149 N 396.794 5.34533 0.988721 0
M  V30 4150 H 400.596 2.93769 0.0878688 0
M  V30 4151 H 398.11 1.62316 -0.0521183 0
M  V30 4152 H 400.107 3.31912 2.5227 0
M  V30 4153 H 398.767 2.14564 2.43705 0
M  V30 4154 H 399.778 5.16971 0.310047 0
M  V30 4155 H 396.455 3.4993 2.27717 0
M  V30 4156 H 397.845 6.71688 -0.168616 0
M  V30 4157 N 400.565 -0.0233959 1.57583 0
M  V30 4158 C 401.842 -0.748794 1.807 0
M  V30 4159 C 402.222 -1.9327 0.849106 0
M  V30 4160 O 401.57 -2.28247 -0.107468 0
M  V30 4161 C 401.78 -1.17651 3.28571 0
M  V30 4162 C 403.128 -1.59008 3.93702 0
M  V30 4163 O 404.152 -1.27094 3.32755 0
M  V30 4164 O 403.011 -2.18264 5.01022 0
M  V30 4165 H 400.105 -0.362578 0.743281 0
M  V30 4166 H 402.651 0.000261958 1.697 0
M  V30 4167 H 401.423 -0.331603 3.89892 0
M  V30 4168 H 401.046 -1.98541 3.44481 0
M  V30 4169 N 402.043 -1.548 -0.295768 0
M  V30 4170 C 403.291 -1.73985 -1.02828 0
M  V30 4171 C 403.612 -0.531406 -1.87619 0
M  V30 4172 O 402.882 0.454221 -1.90561 0
M  V30 4173 H 401.462 -0.641556 -0.382642 0
M  V30 4174 H 404.124 -1.92163 -0.325489 0
M  V30 4175 H 403.22 -2.63129 -1.67838 0
M  V30 4176 N 403.521 0.559213 -1.47345 0
M  V30 4177 C 404.469 1.68747 -1.60085 0
M  V30 4178 C 405.463 1.628 -0.46825 0
M  V30 4179 O 406.669 1.68009 -0.645977 0
M  V30 4180 H 403.044 0.558329 -0.503759 0
M  V30 4181 H 405.015 1.55138 -2.54902 0
M  V30 4182 C 403.764 3.07103 -1.63042 0
M  V30 4183 H 403.087 3.12361 -2.49541 0
M  V30 4184 H 404.527 3.85743 -1.76006 0
M  V30 4185 C 402.986 3.34935 -0.363357 0
M  V30 4186 O 403.516 3.98102 0.536416 0
M  V30 4187 N 401.722 2.89574 -0.244 0
M  V30 4188 H 401.269 2.38348 -0.977133 0
M  V30 4189 H 401.227 3.08566 0.602836 0
M  V30 4190 N 404.999 1.35443 0.805782 0
M  V30 4191 C 406.276 1.19325 1.54987 0
M  V30 4192 C 406.656 -0.227294 2.09873 0
M  V30 4193 O 406.004 -1.2309 1.92512 0
M  V30 4194 C 406.214 2.26196 2.65775 0
M  V30 4195 C 407.562 2.62043 3.34094 0
M  V30 4196 O 408.586 2.25115 2.76046 0
M  V30 4197 O 407.445 3.25542 4.38958 0
M  V30 4198 H 404.539 0.463623 0.684823 0
M  V30 4199 H 407.085 1.47127 0.845674 0
M  V30 4200 H 405.857 3.21471 2.23096 0
M  V30 4201 H 405.48 1.99667 3.43829 0
M  V30 4202 N 406.477 -1.02803 1.19454 0
M  V30 4203 C 407.407 -2.12999 0.956758 0
M  V30 4204 C 408.388 -1.69743 -0.110188 0
M  V30 4205 O 409.573 -1.94148 0.0450038 0
M  V30 4206 C 406.703 -3.43746 0.495553 0
M  V30 4207 C 405.657 -4.00688 1.50443 0
M  V30 4208 C 404.983 -5.27067 0.900275 0
M  V30 4209 C 406.283 -4.35397 2.8849 0
M  V30 4210 H 407.977 -2.33148 1.87836 0
M  V30 4211 H 405.523 -1.12045 0.904539 0
M  V30 4212 H 407.476 -4.2021 0.316493 0
M  V30 4213 H 406.2 -3.23321 -0.461646 0
M  V30 4214 H 404.859 -3.2632 1.67065 0
M  V30 4215 H 404.507 -5.02959 -0.064503 0
M  V30 4216 H 404.207 -5.66127 1.57397 0
M  V30 4217 H 405.731 -6.06196 0.73203 0
M  V30 4218 H 407.145 -5.02795 2.75446 0
M  V30 4219 H 405.542 -4.85541 3.52661 0
M  V30 4220 H 406.612 -3.44662 3.41081 0
M  V30 4221 N 407.956 -0.998596 -1.21925 0
M  V30 4222 C 409.203 -0.677663 -1.90824 0
M  V30 4223 C 409.531 0.790905 -1.77693 0
M  V30 4224 O 408.786 1.58817 -1.14349 0
M  V30 4225 C 409.085 -1.03648 -3.42041 0
M  V30 4226 C 408.751 -2.49825 -3.75364 0
M  V30 4227 C 407.413 -2.8977 -3.8417 0
M  V30 4228 C 409.765 -3.44545 -3.91073 0
M  V30 4229 C 407.093 -4.23412 -4.06127 0
M  V30 4230 C 409.445 -4.77853 -4.14535 0
M  V30 4231 C 408.109 -5.17531 -4.21566 0
M  V30 4232 H 407.379 -0.247975 -0.698276 0
M  V30 4233 H 410.026 -1.25584 -1.44571 0
M  V30 4234 H 408.331 -0.376457 -3.89987 0
M  V30 4235 H 410.028 -0.766113 -3.93614 0
M  V30 4236 H 406.618 -2.17866 -3.69097 0
M  V30 4237 H 410.802 -3.14853 -3.83642 0
M  V30 4238 H 406.058 -4.53734 -4.09799 0
M  V30 4239 H 410.232 -5.51189 -4.25633 0
M  V30 4240 H 407.859 -6.21102 -4.38333 0
M  V30 4241 N 409.434 1.37368 -0.772513 0
M  V30 4242 C 410.364 2.32856 -0.173304 0
M  V30 4243 C 411.345 1.55818 0.682262 0
M  V30 4244 O 412.53 1.84052 0.619566 0
M  V30 4245 C 409.66 3.40048 0.706007 0
M  V30 4246 C 408.614 4.27973 -0.0483144 0
M  V30 4247 C 407.94 5.26184 0.950491 0
M  V30 4248 C 409.24 5.07665 -1.22776 0
M  V30 4249 H 410.934 2.83217 -0.971002 0
M  V30 4250 H 408.48 1.3617 -0.468377 0
M  V30 4251 H 410.433 4.05827 1.13501 0
M  V30 4252 H 409.157 2.88214 1.53623 0
M  V30 4253 H 407.816 3.63726 -0.458107 0
M  V30 4254 H 407.464 4.7063 1.77529 0
M  V30 4255 H 407.164 5.85872 0.450314 0
M  V30 4256 H 408.688 5.94838 1.37842 0
M  V30 4257 H 410.102 5.66578 -0.875366 0
M  V30 4258 H 408.499 5.76681 -1.66007 0
M  V30 4259 H 409.569 4.40294 -2.03149 0
M  V30 4260 N 410.912 0.523116 1.48665 0
M  V30 4261 C 412.158 -0.0134963 2.02796 0
M  V30 4262 C 412.491 -1.34582 1.40004 0
M  V30 4263 O 411.766 -1.86756 0.543381 0
M  V30 4264 C 412.049 -0.14276 3.59817 0
M  V30 4265 C 411.902 1.21425 4.331 0
M  V30 4266 C 413.221 -0.872856 4.31357 0
M  V30 4267 H 410.34 -0.00343074 0.736992 0
M  V30 4268 H 412.982 0.678816 1.7746 0
M  V30 4269 H 411.132 -0.732401 3.81534 0
M  V30 4270 H 412.804 1.84447 4.2282 0
M  V30 4271 H 411.047 1.79791 3.94788 0
M  V30 4272 H 411.718 1.07687 5.41394 0
M  V30 4273 H 414.194 -0.372555 4.14429 0
M  V30 4274 H 413.07 -0.932185 5.40927 0
M  V30 4275 H 413.331 -1.92161 3.98154 0
M  V30 4276 N 412.39 -1.55475 0.257931 0
M  V30 4277 C 413.353 -2.20551 -0.623706 0
M  V30 4278 C 414.353 -1.17809 -1.09443 0
M  V30 4279 O 415.543 -1.42823 -0.997362 0
M  V30 4280 C 412.675 -2.85784 -1.8585 0
M  V30 4281 H 413.868 -2.99848 -0.0557743 0
M  V30 4282 H 411.421 -1.56298 0.0084422 0
M  V30 4283 H 412.156 -2.10453 -2.46739 0
M  V30 4284 H 411.941 -3.61057 -1.52907 0
M  V30 4285 H 413.431 -3.35553 -2.48584 0
M  V30 4286 N 413.868 0.0150385 -1.57593 0
M  V30 4287 C 415.114 0.704043 -1.90187 0
M  V30 4288 C 415.447 1.74249 -0.857366 0
M  V30 4289 O 414.722 1.94092 0.125843 0
M  V30 4290 C 415.005 1.36087 -3.33395 0
M  V30 4291 C 414.858 0.334981 -4.48551 0
M  V30 4292 C 416.177 2.29112 -3.7576 0
M  V30 4293 H 413.296 0.254475 -0.691673 0
M  V30 4294 H 415.938 -0.0331678 -1.89971 0
M  V30 4295 H 414.088 1.98922 -3.3371 0
M  V30 4296 H 415.76 -0.292534 -4.60372 0
M  V30 4297 H 414.003 -0.344325 -4.32431 0
M  V30 4298 H 414.674 0.833316 -5.45674 0
M  V30 4299 H 417.15 1.76308 -3.76902 0
M  V30 4300 H 416.026 2.72043 -4.76743 0
M  V30 4301 H 416.287 3.16385 -3.08793 0
M  V30 4302 N 415.346 1.54954 0.287554 0
M  V30 4303 C 416.296 1.8322 1.357 0
M  V30 4304 C 417.28 0.690152 1.45347 0
M  V30 4305 O 418.472 0.951137 1.49273 0
M  V30 4306 C 415.601 2.09481 2.71979 0
M  V30 4307 C 414.687 3.29906 2.66502 0
M  V30 4308 N 415.078 4.50154 2.30641 0
M  V30 4309 C 413.376 3.32203 2.97585 0
M  V30 4310 C 414.077 5.32209 2.34794 0
M  V30 4311 N 413.053 4.70258 2.72688 0
M  V30 4312 H 416.855 2.73746 1.0696 0
M  V30 4313 H 414.369 1.54635 0.496167 0
M  V30 4314 H 416.366 2.27882 3.49107 0
M  V30 4315 H 415.026 1.2023 3.0162 0
M  V30 4316 H 416.037 4.76515 2.02865 0
M  V30 4317 H 412.714 2.53101 3.32034 0
M  V30 4318 H 414.104 6.38321 2.09753 0
M  V30 4319 N 416.824 -0.551391 1.4764 0
M  V30 4320 C 417.734 -1.68525 1.63207 0
M  V30 4321 C 418.75 -1.6621 0.514815 0
M  V30 4322 O 419.926 -1.85551 0.783113 0
M  V30 4323 C 416.991 -3.05025 1.64805 0
M  V30 4324 C 416.052 -3.18362 2.88 0
M  V30 4325 C 415.285 -4.4835 2.89513 0
M  V30 4326 O 415.508 -5.34163 2.00065 0
M  V30 4327 O 414.442 -4.65602 3.81443 0
M  V30 4328 H 418.268 -1.58333 2.59161 0
M  V30 4329 H 415.853 -0.722063 1.30792 0
M  V30 4330 H 417.735 -3.86245 1.68502 0
M  V30 4331 H 416.41 -3.15587 0.720197 0
M  V30 4332 H 415.317 -2.36518 2.89845 0
M  V30 4333 H 416.65 -3.12707 3.80099 0
M  V30 4334 N 418.302 -1.35869 -0.798587 0
M  V30 4335 C 419.232 -1.32118 -1.92528 0
M  V30 4336 C 420.213 -0.194209 -1.68988 0
M  V30 4337 O 421.398 -0.390426 -1.90235 0
M  V30 4338 C 418.528 -1.10047 -3.29404 0
M  V30 4339 C 417.482 -2.19471 -3.67446 0
M  V30 4340 C 416.808 -1.82555 -5.02571 0
M  V30 4341 C 418.108 -3.61495 -3.76987 0
M  V30 4342 H 419.802 -2.26394 -1.95924 0
M  V30 4343 H 417.348 -1.08981 -0.94123 0
M  V30 4344 H 419.301 -1.06061 -4.07835 0
M  V30 4345 H 418.025 -0.122195 -3.26371 0
M  V30 4346 H 416.684 -2.22568 -2.91306 0
M  V30 4347 H 416.332 -0.833249 -4.9605 0
M  V30 4348 H 416.032 -2.5581 -5.28995 0
M  V30 4349 H 417.556 -1.80108 -5.83432 0
M  V30 4350 H 418.97 -3.60676 -4.4563 0
M  V30 4351 H 417.367 -4.33577 -4.14887 0
M  V30 4352 H 418.437 -3.97065 -2.78329 0
M  V30 4353 N 419.78 1.02168 -1.19998 0
M  V30 4354 C 421.028 1.75338 -1.00504 0
M  V30 4355 C 421.349 1.89387 0.464506 0
M  V30 4356 O 420.619 1.43268 1.33608 0
M  V30 4357 H 419.199 0.649564 -0.368885 0
M  V30 4358 H 421.861 1.23205 -1.51018 0
M  V30 4359 H 420.957 2.75892 -1.45912 0
M  V30 4360 N 421.258 1.00505 1.21394 0
M  V30 4361 C 422.208 0.536503 2.21598 0
M  V30 4362 C 423.192 -0.401914 1.55799 0
M  V30 4363 O 424.384 -0.226757 1.75541 0
M  V30 4364 C 421.513 -0.135446 3.43033 0
M  V30 4365 C 420.599 0.823992 4.16018 0
M  V30 4366 N 420.99 1.97683 4.6557 0
M  V30 4367 C 419.288 0.642387 4.4135 0
M  V30 4368 C 419.989 2.58003 5.21354 0
M  V30 4369 N 418.965 1.86162 5.1073 0
M  V30 4370 H 422.767 1.41557 2.57563 0
M  V30 4371 H 420.281 0.868878 1.37202 0
M  V30 4372 H 422.278 -0.488584 4.14027 0
M  V30 4373 H 420.938 -1.01049 3.08576 0
M  V30 4374 H 421.949 2.3572 4.61147 0
M  V30 4375 H 418.626 -0.185578 4.17087 0
M  V30 4376 H 420.016 3.555 5.70149 0
M  V30 4377 N 422.737 -1.36956 0.779787 0
M  V30 4378 C 423.7 -2.2851 0.177662 0
M  V30 4379 C 424.7 -1.48393 -0.619377 0
M  V30 4380 O 425.89 -1.68505 -0.441785 0
M  V30 4381 C 423.022 -3.32428 -0.755279 0
M  V30 4382 H 424.215 -2.83269 0.984823 0
M  V30 4383 H 421.768 -1.46358 0.548544 0
M  V30 4384 H 422.503 -2.82808 -1.58714 0
M  V30 4385 H 422.288 -3.91659 -0.185817 0
M  V30 4386 H 423.778 -4.00824 -1.17174 0
M  V30 4387 N 424.215 -0.530993 -1.48385 0
M  V30 4388 C 425.145 0.219985 -2.32461 0
M  V30 4389 C 426.126 0.934111 -1.42156 0
M  V30 4390 O 427.311 0.919694 -1.71042 0
M  V30 4391 C 424.441 1.26674 -3.23375 0
M  V30 4392 C 423.395 0.67069 -4.22712 0
M  V30 4393 C 422.721 1.82017 -5.02766 0
M  V30 4394 C 424.021 -0.358268 -5.2107 0
M  V30 4395 H 425.715 -0.48187 -2.95497 0
M  V30 4396 H 423.261 -0.233182 -1.42099 0
M  V30 4397 H 425.214 1.80006 -3.81019 0
M  V30 4398 H 423.938 1.99818 -2.58341 0
M  V30 4399 H 422.597 0.158878 -3.66256 0
M  V30 4400 H 422.245 2.54002 -4.34157 0
M  V30 4401 H 421.945 1.42727 -5.70003 0
M  V30 4402 H 423.469 2.35725 -5.63264 0
M  V30 4403 H 424.883 0.0880081 -5.73232 0
M  V30 4404 H 423.28 -0.66861 -5.96364 0
M  V30 4405 H 424.35 -1.26367 -4.68145 0
M  V30 4406 N 425.693 1.55336 -0.266172 0
M  V30 4407 C 426.941 1.99003 0.35246 0
M  V30 4408 C 427.262 1.15591 1.57047 0
M  V30 4409 O 426.532 0.243268 1.94384 0
M  V30 4410 H 425.112 0.735025 0.133217 0
M  V30 4411 H 427.774 1.91367 -0.369434 0
M  V30 4412 H 426.87 3.05289 0.648453 0
M  V30 4413 N 427.171 -0.0066808 1.57599 0
M  V30 4414 C 428.101 -0.999296 2.11036 0
M  V30 4415 C 429.082 -1.36278 1.01795 0
M  V30 4416 O 430.267 -1.4477 1.29442 0
M  V30 4417 C 427.397 -2.29328 2.60818 0
M  V30 4418 C 426.351 -2.07159 3.74525 0
M  V30 4419 C 425.677 -3.42512 4.10596 0
M  V30 4420 C 426.977 -1.43959 5.02069 0
M  V30 4421 H 428.671 -0.554382 2.94223 0
M  V30 4422 H 426.217 -0.265221 1.41536 0
M  V30 4423 H 428.17 -2.99117 2.96828 0
M  V30 4424 H 426.894 -2.7592 1.74745 0
M  V30 4425 H 425.553 -1.39797 3.38899 0
M  V30 4426 H 425.201 -3.86795 3.21556 0
M  V30 4427 H 424.901 -3.28498 4.87199 0
M  V30 4428 H 426.425 -4.13628 4.4916 0
M  V30 4429 H 427.839 -2.03696 5.35893 0
M  V30 4430 H 426.236 -1.40452 5.83432 0
M  V30 4431 H 427.306 -0.407992 4.83181 0
M  V30 4432 N 428.649 -1.55105 -0.279332 0
M  V30 4433 C 429.559 -1.90638 -1.36727 0
M  V30 4434 C 430.575 -0.802899 -1.54368 0
M  V30 4435 O 431.751 -1.10138 -1.68616 0
M  V30 4436 C 428.816 -2.16547 -2.70755 0
M  V30 4437 C 427.877 -3.40146 -2.61915 0
M  V30 4438 C 427.11 -3.6481 -3.8955 0
M  V30 4439 O 427.333 -2.92095 -4.89935 0
M  V30 4440 O 426.267 -4.58343 -3.90135 0
M  V30 4441 H 430.093 -2.83237 -1.09591 0
M  V30 4442 H 427.678 -1.4157 -0.477306 0
M  V30 4443 H 429.56 -2.34665 -3.50014 0
M  V30 4444 H 428.235 -1.27131 -2.9769 0
M  V30 4445 H 427.142 -3.2737 -1.81052 0
M  V30 4446 H 428.475 -4.29761 -2.3993 0
M  V30 4447 N 430.127 0.543554 -1.4793 0
M  V30 4448 C 431.077 1.64527 -1.57844 0
M  V30 4449 C 432.061 1.54869 -0.436408 0
M  V30 4450 O 433.253 1.63119 -0.687101 0
M  V30 4451 C 430.382 3.03281 -1.6086 0
M  V30 4452 C 429.468 3.18093 -2.80495 0
M  V30 4453 N 429.859 3.02923 -4.05057 0
M  V30 4454 C 428.157 3.49121 -2.77543 0
M  V30 4455 C 428.858 3.20791 -4.85251 0
M  V30 4456 N 427.834 3.47749 -4.17818 0
M  V30 4457 H 431.636 1.51388 -2.5191 0
M  V30 4458 H 429.15 0.748671 -1.44113 0
M  V30 4459 H 431.147 3.82403 -1.66054 0
M  V30 4460 H 429.807 3.17521 -0.678996 0
M  V30 4461 H 430.818 2.79966 -4.35705 0
M  V30 4462 H 427.495 3.69804 -1.93781 0
M  V30 4463 H 428.885 3.13915 -5.9406 0
M  V30 4464 N 431.605 1.3629 0.791371 0
M  V30 4465 C 432.83 1.33726 1.58531 0
M  V30 4466 C 433.255 -0.0794933 1.87932 0
M  V30 4467 O 432.613 -1.05087 1.47738 0
M  V30 4468 C 432.661 2.16425 2.88431 0
M  V30 4469 O 431.765 1.5554 3.81944 0
M  V30 4470 H 431.106 0.457793 0.480959 0
M  V30 4471 H 433.636 1.79547 0.981031 0
M  V30 4472 H 433.646 2.28933 3.37718 0
M  V30 4473 H 432.321 3.19415 2.66359 0
M  V30 4474 H 430.898 1.51961 3.40532 0
M  V30 4475 N 433.083 -1.0153 1.20538 0
M  V30 4476 C 434.308 -1.79283 1.04271 0
M  V30 4477 C 434.733 -1.8372 -0.403544 0
M  V30 4478 O 434.091 -1.27321 -1.2907 0
M  V30 4479 C 434.139 -3.21535 1.63241 0
M  V30 4480 O 433.243 -4.03099 0.870908 0
M  V30 4481 H 432.584 -0.55293 0.367647 0
M  V30 4482 H 435.114 -1.27696 1.59859 0
M  V30 4483 H 435.124 -3.72243 1.6703 0
M  V30 4484 H 433.799 -3.1762 2.68497 0
M  V30 4485 H 432.376 -3.61693 0.907323 0
M  V30 4486 N 434.561 -1.01147 -1.20859 0
M  V30 4487 C 435.838 -0.613136 -1.85742 0
M  V30 4488 C 436.218 0.909004 -1.90526 0
M  V30 4489 O 435.566 1.79862 -1.40932 0
M  V30 4490 C 435.776 -1.255 -3.25654 0
M  V30 4491 C 437.124 -1.3672 -4.01986 0
M  V30 4492 O 438.148 -1.21082 -3.34989 0
M  V30 4493 O 437.007 -1.6194 -5.21956 0
M  V30 4494 H 434.101 -0.210878 -0.799662 0
M  V30 4495 H 436.647 -1.10853 -1.2849 0
M  V30 4496 H 435.419 -2.29532 -3.16908 0
M  V30 4497 H 435.042 -0.746369 -3.90532 0
M  V30 4498 N 436.039 1.36541 -0.78704 0
M  V30 4499 C 437.45 1.81873 -0.421807 0
M  V30 4500 C 437.801 1.65487 1.05397 0
M  V30 4501 O 436.926 1.17448 1.81755 0
M  V30 4502 C 437.521 3.30192 -0.758841 0
M  V30 4503 C 436.08 3.73743 -0.446468 0
M  V30 4504 C 435.227 2.58844 -0.994728 0
M  V30 4505 H 438.178 1.24796 -0.98039 0
M  V30 4506 H 438.199 3.80468 -0.0490648 0
M  V30 4507 H 437.711 3.42087 -1.83299 0
M  V30 4508 H 435.812 3.6741 0.619739 0
M  V30 4509 H 435.925 4.69272 -0.965415 0
M  V30 4510 H 434.289 2.51245 -0.418087 0
M  V30 4511 H 435.072 2.73525 -2.07458 0
M  V30 4512 N 437.518 0.538854 1.48102 0
M  V30 4513 C 438.743 0.0102694 2.07397 0
M  V30 4514 C 439.168 -1.26562 1.39153 0
M  V30 4515 O 438.526 -1.75357 0.460387 0
M  V30 4516 C 438.574 -0.187602 3.60112 0
M  V30 4517 O 437.678 -1.25432 3.92862 0
M  V30 4518 H 437.019 0.0430975 0.6626 0
M  V30 4519 H 439.549 0.749301 1.90385 0
M  V30 4520 H 439.559 -0.407517 4.0596 0
M  V30 4521 H 438.234 0.744386 4.09184 0
M  V30 4522 H 436.811 -1.01636 3.58782 0
M  V30 4523 N 438.996 -1.55193 0.274407 0
M  V30 4524 C 439.959 -2.212 -0.600279 0
M  V30 4525 C 440.959 -1.18963 -1.08187 0
M  V30 4526 O 442.149 -1.43873 -0.982158 0
M  V30 4527 C 439.281 -2.87739 -1.82809 0
M  V30 4528 H 440.474 -2.9989 -0.0239682 0
M  V30 4529 H 438.027 -1.5628 0.0250192 0
M  V30 4530 H 438.762 -2.13058 -2.44493 0
M  V30 4531 H 438.547 -3.62658 -1.49069 0
M  V30 4532 H 440.037 -3.38171 -2.45011 0
M  V30 4533 N 440.474 -0.00167713 -1.576 0
M  V30 4534 C 441.723 0.682021 -1.89819 0
M  V30 4535 C 442.036 1.74844 -0.876871 0
M  V30 4536 O 443.242 2.48688 -1.08934 0
M  V30 4537 C 441.698 1.26425 -3.36964 0
M  V30 4538 C 441.306 0.232568 -4.47396 0
M  V30 4539 C 443.05 1.92604 -3.78291 0
M  V30 4540 C 440.957 0.824882 -5.85619 0
M  V30 4541 H 439.887 0.258499 -0.708304 0
M  V30 4542 H 442.538 -0.0624957 -1.83394 0
M  V30 4543 H 440.92 2.05949 -3.38232 0
M  V30 4544 H 442.094 -0.5382 -4.57646 0
M  V30 4545 H 440.409 -0.32888 -4.15099 0
M  V30 4546 H 443.006 2.37827 -4.78897 0
M  V30 4547 H 443.349 2.75732 -3.11894 0
M  V30 4548 H 443.882 1.19812 -3.79328 0
M  V30 4549 H 440.621 0.0323542 -6.55492 0
M  V30 4550 H 440.141 1.56477 -5.79029 0
M  V30 4551 H 441.82 1.32301 -6.33329 0
M  V30 4552 N 441.952 1.55251 0.271103 0
M  V30 4553 C 442.885 1.83191 1.36075 0
M  V30 4554 C 443.863 0.685091 1.47463 0
M  V30 4555 O 445.047 0.928292 1.64058 0
M  V30 4556 C 442.174 1.99521 2.73696 0
M  V30 4557 C 441.22 3.22081 2.79582 0
M  V30 4558 S 442.053 4.79388 2.38636 0
M  V30 4559 C 443.209 4.98693 3.78228 0
M  V30 4560 H 443.442 2.75327 1.12171 0
M  V30 4561 H 440.975 1.47046 0.470833 0
M  V30 4562 H 442.933 2.09613 3.52948 0
M  V30 4563 H 441.594 1.0827 2.9485 0
M  V30 4564 H 440.787 3.304 3.80594 0
M  V30 4565 H 440.389 3.10589 2.08352 0
M  V30 4566 H 442.681 4.84551 4.73515 0
M  V30 4567 H 443.624 6.00738 3.7486 0
M  V30 4568 H 444.032 4.26665 3.69618 0
M  V30 4569 N 443.43 -0.535701 1.48216 0
M  V30 4570 C 444.393 -1.623 1.61838 0
M  V30 4571 C 445.393 -1.53087 0.492024 0
M  V30 4572 O 446.583 -1.5686 0.757668 0
M  V30 4573 C 443.715 -3.01907 1.58319 0
M  V30 4574 H 444.908 -1.51564 2.58783 0
M  V30 4575 H 442.461 -0.757317 1.36727 0
M  V30 4576 H 443.196 -3.18155 0.628299 0
M  V30 4577 H 442.981 -3.10003 2.40085 0
M  V30 4578 H 444.471 -3.80969 1.71033 0
M  V30 4579 N 444.908 -1.36708 -0.784132 0
M  V30 4580 C 446.319 -1.27947 -1.35965 0
M  V30 4581 C 446.67 0.0784013 -1.96043 0
M  V30 4582 O 445.795 0.979989 -1.92938 0
M  V30 4583 C 446.39 -2.31689 -2.47195 0
M  V30 4584 C 444.949 -2.26601 -3.00548 0
M  V30 4585 C 444.096 -2.16184 -1.73666 0
M  V30 4586 H 447.047 -1.4751 -0.585358 0
M  V30 4587 H 447.068 -1.95638 -3.26352 0
M  V30 4588 H 446.58 -3.30506 -2.03439 0
M  V30 4589 H 444.681 -1.31268 -3.48711 0
M  V30 4590 H 444.794 -3.19508 -3.57004 0
M  V30 4591 H 443.158 -1.62524 -1.96107 0
M  V30 4592 H 443.941 -3.16896 -1.32031 0
M  V30 4593 N 446.386 1.0089 -1.21074 0
M  V30 4594 C 447.633 1.74607 -1.0256 0
M  V30 4595 C 447.961 1.89426 0.44136 0
M  V30 4596 O 447.216 1.42266 1.34384 0
M  V30 4597 C 447.515 3.16335 -1.66334 0
M  V30 4598 C 447.181 3.21474 -3.16173 0
M  V30 4599 C 445.843 3.22583 -3.57062 0
M  V30 4600 C 448.195 3.19025 -4.12156 0
M  V30 4601 C 445.523 3.18925 -4.92446 0
M  V30 4602 C 447.875 3.16909 -5.47496 0
M  V30 4603 C 446.539 3.16326 -5.87787 0
M  V30 4604 H 445.809 0.638933 -0.375294 0
M  V30 4605 H 448.456 1.18274 -1.50611 0
M  V30 4606 H 446.761 3.75876 -1.10566 0
M  V30 4607 H 448.458 3.72083 -1.49516 0
M  V30 4608 H 445.048 3.2135 -2.83605 0
M  V30 4609 H 449.232 3.17332 -3.81595 0
M  V30 4610 H 444.488 3.16809 -5.22917 0
M  V30 4611 H 448.662 3.13968 -6.21609 0
M  V30 4612 H 446.289 3.13246 -6.92662 0
M  V30 4613 N 447.864 1.01787 1.20321 0
M  V30 4614 C 449.094 0.72614 1.93419 0
M  V30 4615 C 449.502 -0.717317 1.75075 0
M  V30 4616 O 448.845 -1.49836 1.06278 0
M  V30 4617 C 448.907 0.983621 3.45782 0
M  V30 4618 C 448.571 2.41645 3.87888 0
M  V30 4619 C 449.568 3.39732 3.93545 0
M  V30 4620 C 447.253 2.75752 4.19841 0
M  V30 4621 C 449.247 4.69988 4.30569 0
M  V30 4622 C 446.934 4.06221 4.56539 0
M  V30 4623 C 447.932 5.0315 4.61876 0
M  V30 4624 O 447.62 6.31284 4.97731 0
M  V30 4625 H 447.352 0.265824 0.621541 0
M  V30 4626 H 449.906 1.3623 1.53722 0
M  V30 4627 H 448.136 0.290301 3.85609 0
M  V30 4628 H 449.825 0.683279 4.00108 0
M  V30 4629 H 450.591 3.14718 3.69022 0
M  V30 4630 H 446.47 2.00993 4.14877 0
M  V30 4631 H 450.014 5.45642 4.3465 0
M  V30 4632 H 445.911 4.31013 4.80518 0
M  V30 4633 H 446.679 6.35591 5.15719 0
M  V30 4634 N 449.342 -1.36122 0.79427 0
M  V30 4635 C 450.274 -2.28683 0.153903 0
M  V30 4636 C 451.287 -1.49707 -0.639669 0
M  V30 4637 O 452.476 -1.7209 -0.474054 0
M  V30 4638 C 449.576 -3.29202 -0.804921 0
M  V30 4639 C 448.749 -4.37358 -0.060366 0
M  V30 4640 C 447.808 -5.17811 -0.935849 0
M  V30 4641 O 446.834 -5.67853 -0.391309 0
M  V30 4642 N 448.036 -5.34721 -2.25951 0
M  V30 4643 H 450.801 -2.84278 0.949008 0
M  V30 4644 H 448.362 -1.4834 0.648611 0
M  V30 4645 H 450.354 -3.79914 -1.39455 0
M  V30 4646 H 448.924 -2.74212 -1.50088 0
M  V30 4647 H 448.144 -3.87746 0.710382 0
M  V30 4648 H 449.432 -5.06777 0.45324 0
M  V30 4649 H 448.83 -4.95687 -2.72601 0
M  V30 4650 H 447.387 -5.88657 -2.79867 0
M  V30 4651 N 450.82 -0.546701 -1.47814 0
M  V30 4652 C 452.05 -0.0232519 -2.06587 0
M  V30 4653 C 452.458 1.2712 -1.40133 0
M  V30 4654 O 451.801 1.77091 -0.488305 0
M  V30 4655 C 451.863 0.254117 -3.58601 0
M  V30 4656 C 451.527 -0.949331 -4.47031 0
M  V30 4657 C 452.524 -1.85216 -4.85789 0
M  V30 4658 C 450.209 -1.16104 -4.88697 0
M  V30 4659 C 452.203 -2.95047 -5.65001 0
M  V30 4660 C 449.89 -2.26247 -5.67676 0
M  V30 4661 C 450.888 -3.1555 -6.05737 0
M  V30 4662 O 450.576 -4.23784 -6.83127 0
M  V30 4663 H 450.308 -0.0380082 -0.674931 0
M  V30 4664 H 452.862 -0.756631 -1.90956 0
M  V30 4665 H 451.092 1.04168 -3.72406 0
M  V30 4666 H 452.781 0.72167 -3.99433 0
M  V30 4667 H 453.547 -1.70061 -4.54207 0
M  V30 4668 H 449.426 -0.475159 -4.58545 0
M  V30 4669 H 452.97 -3.64778 -5.94628 0
M  V30 4670 H 448.867 -2.41379 -5.98671 0
M  V30 4671 H 449.635 -4.21701 -7.01506 0
M  V30 4672 N 452.299 1.55045 -0.282633 0
M  V30 4673 C 453.232 2.18951 0.64311 0
M  V30 4674 C 454.21 1.15287 1.14664 0
M  V30 4675 O 455.394 1.43846 1.21822 0
M  V30 4676 C 452.521 2.81874 1.87789 0
M  V30 4677 C 451.567 3.98906 1.50919 0
M  V30 4678 S 452.4 5.3234 0.580884 0
M  V30 4679 C 453.556 5.98737 1.82387 0
M  V30 4680 H 453.789 2.97131 0.100138 0
M  V30 4681 H 451.322 1.54255 -0.0668514 0
M  V30 4682 H 453.28 3.18757 2.58658 0
M  V30 4683 H 451.941 2.03573 2.392 0
M  V30 4684 H 451.134 4.4165 2.42819 0
M  V30 4685 H 450.736 3.63485 0.88061 0
M  V30 4686 H 453.028 6.18427 2.76684 0
M  V30 4687 H 453.971 6.93318 1.4393 0
M  V30 4688 H 454.379 5.28177 1.99223 0
M  V30 4689 N 453.777 0.010035 1.57597 0
M  V30 4690 C 454.687 -0.994226 2.12491 0
M  V30 4691 C 455.703 -1.37013 1.07254 0
M  V30 4692 O 456.879 -1.45542 1.3921 0
M  V30 4693 C 453.944 -2.2642 2.62555 0
M  V30 4694 C 453.005 -1.95049 3.82432 0
M  V30 4695 C 452.238 -3.15991 4.30099 0
M  V30 4696 O 452.461 -4.28015 3.7704 0
M  V30 4697 O 451.395 -2.99403 5.22151 0
M  V30 4698 H 455.221 -0.557549 2.98538 0
M  V30 4699 H 452.806 -0.209413 1.47925 0
M  V30 4700 H 454.688 -3.01009 2.9491 0
M  V30 4701 H 453.363 -2.69306 1.796 0
M  V30 4702 H 452.27 -1.17904 3.55034 0
M  V30 4703 H 453.603 -1.56992 4.66491 0
M  V30 4704 N 455.255 -1.55392 -0.262866 0
M  V30 4705 C 456.483 -1.80513 -1.01108 0
M  V30 4706 C 456.898 -0.583533 -1.79556 0
M  V30 4707 O 456.255 0.447585 -1.76926 0
M  V30 4708 C 456.306 -3.03648 -1.96164 0
M  V30 4709 O 456.027 -4.2109 -1.20893 0
M  V30 4710 C 457.528 -3.41448 -2.82715 0
M  V30 4711 H 454.748 -0.601079 -0.298236 0
M  V30 4712 H 457.292 -2.02425 -0.290582 0
M  V30 4713 H 455.447 -2.83832 -2.63663 0
M  V30 4714 H 455.861 -4.90771 -1.85051 0
M  V30 4715 H 457.335 -4.30751 -3.45192 0
M  V30 4716 H 457.812 -2.61308 -3.53008 0
M  V30 4717 H 458.418 -3.63559 -2.20693 0
M  V30 4718 N 456.733 0.527833 -1.48498 0
M  V30 4719 C 457.683 1.62844 -1.5958 0
M  V30 4720 C 458.667 1.54397 -0.452809 0
M  V30 4721 O 459.859 1.62381 -0.704364 0
M  V30 4722 C 456.988 3.01557 -1.64067 0
M  V30 4723 C 456.074 3.151 -2.83853 0
M  V30 4724 N 456.465 2.9861 -4.08247 0
M  V30 4725 C 454.763 3.46158 -2.8123 0
M  V30 4726 C 455.464 3.15626 -4.88626 0
M  V30 4727 N 454.44 3.43298 -4.21483 0
M  V30 4728 H 458.242 1.48708 -2.53502 0
M  V30 4729 H 455.756 0.733343 -1.44899 0
M  V30 4730 H 457.753 3.8062 -1.70101 0
M  V30 4731 H 456.413 3.16783 -0.712636 0
M  V30 4732 H 457.424 2.75329 -4.3865 0
M  V30 4733 H 454.101 3.67728 -1.97692 0
M  V30 4734 H 455.491 3.07596 -5.97356 0
M  V30 4735 N 458.211 1.37122 0.776871 0
M  V30 4736 C 459.159 1.32549 1.91138 0
M  V30 4737 C 460.153 0.215119 1.68029 0
M  V30 4738 O 461.359 0.382852 1.75881 0
M  V30 4739 H 457.734 0.412952 0.62847 0
M  V30 4740 H 459.705 2.28332 1.92112 0
M  V30 4741 C 458.454 1.14422 3.28333 0
M  V30 4742 H 457.777 1.99115 3.46689 0
M  V30 4743 H 459.217 1.15272 4.0803 0
M  V30 4744 C 457.676 -0.150434 3.36564 0
M  V30 4745 O 458.206 -1.13584 3.85307 0
M  V30 4746 N 456.412 -0.19939 2.89915 0
M  V30 4747 H 455.959 0.603142 2.5044 0
M  V30 4748 H 455.917 -1.06526 2.95803 0
M  V30 4749 N 459.689 -1.00246 1.21608 0
M  V30 4750 C 460.936 -1.74061 1.03485 0
M  V30 4751 C 461.264 -1.89658 -0.431308 0
M  V30 4752 O 460.519 -1.42976 -1.33627 0
M  V30 4753 C 460.818 -3.15448 1.68009 0
M  V30 4754 C 460.484 -3.19792 3.17874 0
M  V30 4755 C 459.146 -3.20685 3.58768 0
M  V30 4756 C 461.498 -3.16835 4.13842 0
M  V30 4757 C 458.826 -3.16309 4.94131 0
M  V30 4758 C 461.178 -3.14001 5.49169 0
M  V30 4759 C 459.842 -3.13204 5.89457 0
M  V30 4760 H 459.112 -0.636934 0.378677 0
M  V30 4761 H 461.759 -1.17473 1.51236 0
M  V30 4762 H 460.064 -3.75284 1.12557 0
M  V30 4763 H 461.761 -3.71285 1.51487 0
M  V30 4764 H 458.351 -3.19842 2.85305 0
M  V30 4765 H 462.535 -3.15303 3.83272 0
M  V30 4766 H 457.791 -3.14032 5.24589 0
M  V30 4767 H 461.965 -3.10667 6.23265 0
M  V30 4768 H 459.592 -3.09568 6.94314 0
M  V30 4769 N 461.167 -1.02423 -1.1978 0
M  V30 4770 C 462.114 -0.601023 -2.22837 0
M  V30 4771 C 463.084 0.382801 -1.61629 0
M  V30 4772 O 464.269 0.280514 -1.88727 0
M  V30 4773 C 461.409 0.0467755 -3.45068 0
M  V30 4774 C 460.522 -0.98253 -4.20678 0
M  V30 4775 C 459.657 -0.304982 -5.30324 0
M  V30 4776 C 458.696 -1.32052 -5.97686 0
M  V30 4777 N 457.833 -0.669105 -6.98904 0
M  V30 4778 H 462.673 -1.48444 -2.58396 0
M  V30 4779 H 460.21 -0.742936 -1.2696 0
M  V30 4780 H 462.168 0.439556 -4.14878 0
M  V30 4781 H 460.798 0.893796 -3.10179 0
M  V30 4782 H 459.85 -1.49341 -3.49859 0
M  V30 4783 H 461.162 -1.75455 -4.66923 0
M  V30 4784 H 460.316 0.142893 -6.06532 0
M  V30 4785 H 459.055 0.499283 -4.85138 0
M  V30 4786 H 458.06 -1.7787 -5.20233 0
M  V30 4787 H 459.285 -2.1262 -6.44957 0
M  V30 4788 H 457.231 0.115152 -6.55899 0
M  V30 4789 H 457.148 -1.37908 -7.43315 0
M  V30 4790 H 458.416 -0.245076 -7.79115 0
M  V30 4791 N 462.645 1.35699 -0.801477 0
M  V30 4792 C 463.575 2.32436 -0.222658 0
M  V30 4793 C 464.556 1.5723 0.649057 0
M  V30 4794 O 465.741 1.85324 0.580387 0
M  V30 4795 C 462.871 3.41469 0.633719 0
M  V30 4796 C 461.825 4.27774 -0.139083 0
M  V30 4797 C 461.151 5.28082 0.838666 0
M  V30 4798 C 462.451 5.04946 -1.33517 0
M  V30 4799 H 464.145 2.81094 -1.03086 0
M  V30 4800 H 461.691 1.35146 -0.497155 0
M  V30 4801 H 463.644 4.08143 1.04868 0
M  V30 4802 H 462.368 2.91408 1.47475 0
M  V30 4803 H 461.027 3.62673 -0.535156 0
M  V30 4804 H 460.675 4.7429 1.67506 0
M  V30 4805 H 460.375 5.86695 0.32594 0
M  V30 4806 H 461.899 5.97628 1.25194 0
M  V30 4807 H 463.313 5.64593 -0.995349 0
M  V30 4808 H 461.71 5.7303 -1.78202 0
M  V30 4809 H 462.78 4.35886 -2.12442 0
M  V30 4810 N 464.123 0.554532 1.47522 0
M  V30 4811 C 465.534 0.120446 1.86311 0
M  V30 4812 C 465.885 -1.30904 1.46145 0
M  V30 4813 O 465.01 -1.98434 0.863294 0
M  V30 4814 C 465.605 0.211808 3.38137 0
M  V30 4815 C 464.164 -0.167224 3.76028 0
M  V30 4816 C 463.311 0.560576 2.71575 0
M  V30 4817 H 466.262 0.764408 1.39077 0
M  V30 4818 H 466.283 -0.570275 3.76202 0
M  V30 4819 H 465.795 1.25232 3.6734 0
M  V30 4820 H 463.896 -1.20894 3.52442 0
M  V30 4821 H 464.009 0.189473 4.78725 0
M  V30 4822 H 462.373 0.00396836 2.547 0
M  V30 4823 H 463.156 1.60219 3.0362 0
M  V30 4824 N 465.601 -1.54893 0.290851 0
M  V30 4825 C 466.533 -2.20564 -0.623236 0
M  V30 4826 C 467.546 -1.19519 -1.1054 0
M  V30 4827 O 468.735 -1.46165 -1.02459 0
M  V30 4828 C 465.835 -2.83033 -1.86401 0
M  V30 4829 C 465.008 -4.09916 -1.52604 0
M  V30 4830 C 464.067 -4.56284 -2.62091 0
M  V30 4831 O 463.093 -5.2171 -2.27612 0
M  V30 4832 N 464.295 -4.27746 -3.92446 0
M  V30 4833 H 467.06 -2.99638 -0.0610915 0
M  V30 4834 H 464.621 -1.61508 0.112615 0
M  V30 4835 H 466.613 -3.1099 -2.58973 0
M  V30 4836 H 465.183 -2.0786 -2.33481 0
M  V30 4837 H 464.403 -3.89078 -0.633424 0
M  V30 4838 H 465.691 -4.92554 -1.27547 0
M  V30 4839 H 465.089 -3.7531 -4.23272 0
M  V30 4840 H 463.646 -4.60437 -4.61347 0
M  V30 4841 N 467.08 -0.0183926 -1.57589 0
M  V30 4842 C 468.357 0.700621 -1.82622 0
M  V30 4843 C 468.737 1.90951 -0.90005 0
M  V30 4844 O 468.085 2.28452 0.0469145 0
M  V30 4845 C 468.295 1.08899 -3.31575 0
M  V30 4846 C 469.643 1.48514 -3.9778 0
M  V30 4847 O 470.667 1.18227 -3.36007 0
M  V30 4848 O 469.526 2.04903 -5.06633 0
M  V30 4849 H 466.62 0.342743 -0.752633 0
M  V30 4850 H 469.166 -0.0452548 -1.6964 0
M  V30 4851 H 467.938 0.228113 -3.90635 0
M  V30 4852 H 467.561 1.89338 -3.49624 0
M  V30 4853 N 468.558 1.5553 0.254621 0
M  V30 4854 C 469.835 1.6774 1.00611 0
M  V30 4855 C 470.215 0.555993 2.03647 0
M  V30 4856 O 469.563 -0.441583 2.24193 0
M  V30 4857 C 469.773 3.07725 1.6464 0
M  V30 4858 C 471.121 3.66074 2.15116 0
M  V30 4859 O 472.145 3.10476 1.74595 0
M  V30 4860 O 471.004 4.63526 2.89493 0
M  V30 4861 H 468.098 0.681958 0.467828 0
M  V30 4862 H 470.644 1.67863 0.24902 0
M  V30 4863 H 469.416 3.80792 0.900734 0
M  V30 4864 H 469.039 3.1158 2.46989 0
M  V30 4865 N 470.036 -0.519951 1.48776 0
M  V30 4866 C 470.966 -1.63253 1.66945 0
M  V30 4867 C 471.947 -1.62014 0.518224 0
M  V30 4868 O 473.132 -1.79053 0.751919 0
M  V30 4869 C 470.262 -3.0181 1.71836 0
M  V30 4870 C 469.216 -3.17911 2.8656 0
M  V30 4871 C 468.542 -4.5763 2.76548 0
M  V30 4872 C 469.842 -2.99729 4.27738 0
M  V30 4873 H 471.536 -1.48302 2.6009 0
M  V30 4874 H 469.082 -0.712026 1.25165 0
M  V30 4875 H 471.035 -3.79525 1.83135 0
M  V30 4876 H 469.759 -3.17806 0.752775 0
M  V30 4877 H 468.418 -2.42616 2.74833 0
M  V30 4878 H 468.066 -4.70476 1.77937 0
M  V30 4879 H 467.766 -4.69346 3.53536 0
M  V30 4880 H 469.29 -5.37431 2.89828 0
M  V30 4881 H 470.704 -3.67228 4.40246 0
M  V30 4882 H 469.101 -3.22932 5.05801 0
M  V30 4883 H 470.171 -1.96047 4.43502 0
M  V30 4884 N 471.514 -1.37532 -0.769588 0
M  V30 4885 C 472.446 -1.29347 -1.89214 0
M  V30 4886 C 473.459 -0.208842 -1.61455 0
M  V30 4887 O 474.648 -0.465158 -1.72333 0
M  V30 4888 C 471.748 -0.977649 -3.24492 0
M  V30 4889 C 470.921 -2.16817 -3.7988 0
M  V30 4890 C 469.98 -1.82229 -4.93639 0
M  V30 4891 O 469.006 -2.54548 -5.09111 0
M  V30 4892 N 470.208 -0.767696 -5.75401 0
M  V30 4893 H 472.973 -2.26073 -1.96751 0
M  V30 4894 H 470.534 -1.31185 -0.948795 0
M  V30 4895 H 472.526 -0.727065 -3.98115 0
M  V30 4896 H 471.096 -0.0988777 -3.12444 0
M  V30 4897 H 470.316 -2.58038 -2.9801 0
M  V30 4898 H 471.604 -2.96308 -4.13617 0
M  V30 4899 H 471.002 -0.167626 -5.65452 0
M  V30 4900 H 469.559 -0.576973 -6.49241 0
M  V30 4901 N 472.992 0.995999 -1.22138 0
M  V30 4902 C 474.24 1.73167 -1.042 0
M  V30 4903 C 474.561 1.90329 0.42423 0
M  V30 4904 O 473.831 1.4607 1.30539 0
M  V30 4905 H 472.411 0.641593 -0.38258 0
M  V30 4906 H 475.073 1.19974 -1.53598 0
M  V30 4907 H 474.169 2.72734 -1.51731 0
M  V30 4908 N 474.47 1.03057 1.19235 0
M  V30 4909 C 475.719 0.72326 1.88287 0
M  V30 4910 C 476.032 -0.751333 1.80594 0
M  V30 4911 O 477.238 -1.17176 2.44912 0
M  V30 4912 C 475.694 1.24338 3.3774 0
M  V30 4913 C 475.302 2.74587 3.53986 0
M  V30 4914 C 477.046 1.01213 4.12257 0
M  V30 4915 C 474.953 3.20009 4.97341 0
M  V30 4916 H 473.883 0.266848 0.705201 0
M  V30 4917 H 476.534 1.24509 1.34795 0
M  V30 4918 H 474.916 0.649457 3.90638 0
M  V30 4919 H 476.09 3.39649 3.11408 0
M  V30 4920 H 474.405 2.9601 2.9286 0
M  V30 4921 H 477.002 1.32675 5.17978 0
M  V30 4922 H 477.345 -0.051001 4.16269 0
M  V30 4923 H 477.878 1.57014 3.65501 0
M  V30 4924 H 474.617 4.25659 4.98493 0
M  V30 4925 H 474.137 2.59676 5.40674 0
M  V30 4926 H 475.816 3.13447 5.66003 0
M  V30 4927 N 475.948 -1.35272 0.808662 0
M  V30 4928 C 476.88 -2.28507 0.178149 0
M  V30 4929 C 477.893 -1.50377 -0.623754 0
M  V30 4930 O 479.082 -1.72583 -0.455774 0
M  V30 4931 C 476.182 -3.30038 -0.769959 0
M  V30 4932 C 475.355 -4.37398 -0.0139749 0
M  V30 4933 C 474.414 -5.18775 -0.880875 0
M  V30 4934 O 473.44 -5.68236 -0.331059 0
M  V30 4935 N 474.642 -5.37087 -2.20267 0
M  V30 4936 H 477.407 -2.83255 0.979106 0
M  V30 4937 H 474.968 -1.47643 0.664308 0
M  V30 4938 H 476.96 -3.81371 -1.35418 0
M  V30 4939 H 475.53 -2.75789 -1.47171 0
M  V30 4940 H 474.75 -3.86971 0.751468 0
M  V30 4941 H 476.038 -5.06268 0.506965 0
M  V30 4942 H 475.436 -4.9855 -2.67328 0
M  V30 4943 H 473.993 -5.91593 -2.73608 0
M  V30 4944 N 477.426 -0.562348 -1.47226 0
M  V30 4945 C 478.373 0.182461 -2.30078 0
M  V30 4946 C 479.343 0.903503 -1.39377 0
M  V30 4947 O 480.528 0.898188 -1.68337 0
M  V30 4948 C 477.668 1.20322 -3.23445 0
M  V30 4949 C 476.781 0.487717 -4.29238 0
M  V30 4950 C 475.916 1.49422 -5.09752 0
M  V30 4951 C 474.955 0.763976 -6.07314 0
M  V30 4952 N 474.092 1.71755 -6.80768 0
M  V30 4953 H 478.932 -0.530169 -2.93246 0
M  V30 4954 H 476.469 -0.273276 -1.44539 0
M  V30 4955 H 478.427 1.80768 -3.76004 0
M  V30 4956 H 477.057 1.88382 -2.6213 0
M  V30 4957 H 476.109 -0.231374 -3.79696 0
M  V30 4958 H 477.421 -0.0841003 -4.98729 0
M  V30 4959 H 476.575 2.17206 -5.66486 0
M  V30 4960 H 475.314 2.09995 -4.40174 0
M  V30 4961 H 474.319 0.0722344 -5.49753 0
M  V30 4962 H 475.544 0.16391 -6.78902 0
M  V30 4963 H 473.49 2.31177 -6.13916 0
M  V30 4964 H 473.407 1.19802 -7.46447 0
M  V30 4965 H 474.675 2.38638 -7.42073 0
M  V30 4966 N 478.904 1.54736 -0.299062 0
M  V30 4967 C 480.153 1.99279 0.311549 0
M  V30 4968 C 480.466 1.19107 1.55154 0
M  V30 4969 O 481.672 1.53908 2.23662 0
M  V30 4970 C 480.128 3.54768 0.605632 0
M  V30 4971 C 479.736 4.43746 -0.615914 0
M  V30 4972 C 481.48 4.07841 1.17754 0
M  V30 4973 C 479.387 5.90663 -0.29509 0
M  V30 4974 H 478.317 0.744359 0.120187 0
M  V30 4975 H 480.968 1.78919 -0.407464 0
M  V30 4976 H 479.35 3.71021 1.38419 0
M  V30 4977 H 480.524 4.39267 -1.39218 0
M  V30 4978 H 478.839 4.01434 -1.10633 0
M  V30 4979 H 481.436 5.15174 1.43179 0
M  V30 4980 H 481.779 3.58324 2.11918 0
M  V30 4981 H 482.312 3.95123 0.460739 0
M  V30 4982 H 479.051 6.44325 -1.20524 0
M  V30 4983 H 478.571 5.98155 0.44394 0
M  V30 4984 H 480.25 6.46916 0.104048 0
M  V30 4985 N 480.382 0.0267497 1.57577 0
M  V30 4986 C 481.612 -0.6617 1.95717 0
M  V30 4987 C 482.02 -1.66331 0.901706 0
M  V30 4988 O 481.363 -1.83273 -0.125241 0
M  V30 4989 C 481.425 -1.42649 3.29987 0
M  V30 4990 C 481.089 -0.583482 4.5326 0
M  V30 4991 C 482.086 0.140221 5.19711 0
M  V30 4992 C 479.771 -0.521581 4.99585 0
M  V30 4993 C 481.765 0.914523 6.30805 0
M  V30 4994 C 479.452 0.256428 6.10562 0
M  V30 4995 C 480.45 0.973189 6.76031 0
M  V30 4996 O 480.138 1.73845 7.84878 0
M  V30 4997 H 479.87 -0.187483 0.649481 0
M  V30 4998 H 482.424 0.0820847 2.05236 0
M  V30 4999 H 480.654 -2.21536 3.16952 0
M  V30 5000 H 482.343 -2.00282 3.53047 0
M  V30 5001 H 483.109 0.101716 4.84893 0
M  V30 5002 H 478.988 -1.06904 4.48433 0
M  V30 5003 H 482.532 1.4745 6.81839 0
M  V30 5004 H 478.429 0.296657 6.44818 0
M  V30 5005 H 479.197 1.65797 8.01532 0
M  V30 5006 N 481.861 -1.55662 -0.24637 0
M  V30 5007 C 483.109 -1.77168 -0.972411 0
M  V30 5008 C 483.43 -0.590827 -1.85834 0
M  V30 5009 O 482.7 0.393365 -1.9191 0
M  V30 5010 H 481.28 -0.653405 -0.362038 0
M  V30 5011 H 483.942 -1.93101 -0.264189 0
M  V30 5012 H 483.038 -2.68335 -1.59382 0
M  V30 5013 N 483.339 0.512053 -1.4905 0
M  V30 5014 C 484.75 1.09376 -1.51307 0
M  V30 5015 C 485.101 1.94 -0.292971 0
M  V30 5016 O 484.226 2.07965 0.598277 0
M  V30 5017 C 484.821 1.99031 -2.74176 0
M  V30 5018 C 483.38 2.52385 -2.79247 0
M  V30 5019 C 482.527 1.29749 -2.45073 0
M  V30 5020 H 485.478 0.296467 -1.55906 0
M  V30 5021 H 485.499 2.83569 -2.53711 0
M  V30 5022 H 485.011 1.37412 -3.62959 0
M  V30 5023 H 483.112 3.17673 -1.94716 0
M  V30 5024 H 483.225 2.90293 -3.81139 0
M  V30 5025 H 481.589 1.61912 -1.96612 0
M  V30 5026 H 482.372 0.698555 -3.36118 0
M  V30 5027 N 484.817 1.37938 0.762283 0
M  V30 5028 C 486.228 1.30094 1.33912 0
M  V30 5029 C 486.579 -0.0472026 1.96143 0
M  V30 5030 O 485.704 -0.94917 1.94473 0
M  V30 5031 C 486.299 2.35592 2.43478 0
M  V30 5032 C 484.858 2.31353 2.96905 0
M  V30 5033 C 484.005 2.18919 1.70205 0
M  V30 5034 H 486.956 1.48423 0.561816 0
M  V30 5035 H 486.977 2.00806 3.23199 0
M  V30 5036 H 486.489 3.33701 1.98155 0
M  V30 5037 H 484.59 1.36799 3.46579 0
M  V30 5038 H 484.703 3.25147 3.51875 0
M  V30 5039 H 483.067 1.65624 1.93496 0
M  V30 5040 H 483.85 3.18956 1.26973 0
M  V30 5041 N 486.295 -0.989507 1.22664 0
M  V30 5042 C 487.258 -2.06183 1.00106 0
M  V30 5043 C 488.258 -1.60765 -0.0337726 0
M  V30 5044 O 489.448 -1.72989 0.205072 0
M  V30 5045 C 486.58 -3.37021 0.51279 0
M  V30 5046 H 487.773 -2.27629 1.95256 0
M  V30 5047 H 485.326 -1.16158 1.0458 0
M  V30 5048 H 486.061 -3.21261 -0.442917 0
M  V30 5049 H 485.846 -3.71323 1.25942 0
M  V30 5050 H 487.336 -4.1591 0.375315 0
M  V30 5051 N 487.773 -1.03688 -1.18687 0
M  V30 5052 C 488.683 -0.634908 -2.25845 0
M  V30 5053 C 489.699 0.337065 -1.70704 0
M  V30 5054 O 490.875 0.192943 -2.00474 0
M  V30 5055 C 487.94 -0.000180054 -3.467 0
M  V30 5056 C 487.001 -1.02067 -4.1699 0
M  V30 5057 C 486.234 -0.41614 -5.32075 0
M  V30 5058 O 486.457 0.778712 -5.65059 0
M  V30 5059 O 485.391 -1.14296 -5.90948 0
M  V30 5060 H 489.217 -1.52757 -2.62486 0
M  V30 5061 H 486.802 -0.807533 -1.25695 0
M  V30 5062 H 488.684 0.353342 -4.19916 0
M  V30 5063 H 487.359 0.866367 -3.11891 0
M  V30 5064 H 486.266 -1.42592 -3.45859 0
M  V30 5065 H 487.599 -1.85786 -4.5579 0
M  V30 5066 N 489.251 1.34841 -0.815825 0
M  V30 5067 C 490.662 1.80937 -0.46029 0
M  V30 5068 C 491.013 1.67685 1.01863 0
M  V30 5069 O 490.138 1.21277 1.79223 0
M  V30 5070 C 490.733 3.28509 -0.828708 0
M  V30 5071 C 489.292 3.72712 -0.525644 0
M  V30 5072 C 488.439 2.56676 -1.04941 0
M  V30 5073 H 491.39 1.22688 -1.00664 0
M  V30 5074 H 491.411 3.80279 -0.129757 0
M  V30 5075 H 490.923 3.38122 -1.90513 0
M  V30 5076 H 489.024 3.68642 0.541666 0
M  V30 5077 H 489.137 4.67119 -1.06474 0
M  V30 5078 H 487.501 2.50302 -0.471286 0
M  V30 5079 H 488.284 2.69063 -2.13214 0
M  V30 5080 N 490.729 0.570148 1.46925 0
M  V30 5081 C 491.659 -0.158274 2.32963 0
M  V30 5082 C 492.64 -0.896093 1.44583 0
M  V30 5083 O 493.825 -0.874022 1.7342 0
M  V30 5084 C 490.955 -1.18055 3.26619 0
M  V30 5085 C 489.909 -0.558379 4.24342 0
M  V30 5086 C 489.235 -1.68623 5.07415 0
M  V30 5087 C 490.535 0.496295 5.19937 0
M  V30 5088 H 492.229 0.560046 2.94115 0
M  V30 5089 H 489.775 0.270775 1.41431 0
M  V30 5090 H 491.728 -1.69841 3.85658 0
M  V30 5091 H 490.452 -1.92899 2.63548 0
M  V30 5092 H 489.111 -0.0617157 3.66548 0
M  V30 5093 H 488.759 -2.42402 4.40738 0
M  V30 5094 H 488.459 -1.27564 5.73586 0
M  V30 5095 H 489.983 -2.20709 5.69315 0
M  V30 5096 H 491.397 0.0640052 5.73264 0
M  V30 5097 H 489.794 0.82649 5.94381 0
M  V30 5098 H 490.864 1.38735 4.6463 0
M  V30 5099 N 492.207 -1.54576 0.307264 0
M  V30 5100 C 493.117 -2.27435 -0.57536 0
M  V30 5101 C 494.133 -1.31183 -1.14311 0
M  V30 5102 O 495.309 -1.64175 -1.16656 0
M  V30 5103 C 492.374 -3.00566 -1.72803 0
M  V30 5104 C 491.435 -4.12369 -1.19373 0
M  V30 5105 C 490.668 -4.82003 -2.29147 0
M  V30 5106 O 490.891 -4.51038 -3.49171 0
M  V30 5107 O 489.825 -5.69271 -1.95485 0
M  V30 5108 H 493.651 -3.03696 0.0158558 0
M  V30 5109 H 491.236 -1.49219 0.0735064 0
M  V30 5110 H 493.118 -3.46416 -2.39946 0
M  V30 5111 H 491.793 -2.27195 -2.30574 0
M  V30 5112 H 490.7 -3.70905 -0.487851 0
M  V30 5113 H 492.033 -4.87736 -0.661376 0
M  V30 5114 N 493.685 -0.035106 -1.57561 0
M  V30 5115 C 495.096 0.502885 -1.798 0
M  V30 5116 C 495.447 1.71892 -0.945921 0
M  V30 5117 O 494.572 2.15822 -0.157991 0
M  V30 5118 C 495.167 0.919097 -3.26095 0
M  V30 5119 C 493.726 1.40216 -3.49308 0
M  V30 5120 C 492.873 0.369709 -2.74824 0
M  V30 5121 H 495.824 -0.261102 -1.56537 0
M  V30 5122 H 495.845 1.78308 -3.36135 0
M  V30 5123 H 495.357 0.0338526 -3.88085 0
M  V30 5124 H 493.458 2.30714 -2.92578 0
M  V30 5125 H 493.571 1.40541 -4.58023 0
M  V30 5126 H 491.935 0.839113 -2.40481 0
M  V30 5127 H 492.718 -0.507173 -3.39533 0
M  V30 5128 N 495.163 1.55791 0.238111 0
M  V30 5129 C 496.391 1.82098 0.982233 0
M  V30 5130 C 496.806 0.612025 1.78605 0
M  V30 5131 O 496.163 -0.419381 1.77616 0
M  V30 5132 C 496.214 3.0673 1.91309 0
M  V30 5133 O 495.935 4.2296 1.14179 0
M  V30 5134 C 497.436 3.45903 2.77248 0
M  V30 5135 H 494.656 0.605748 0.288635 0
M  V30 5136 H 497.2 2.02862 0.258341 0
M  V30 5137 H 495.355 2.87991 2.59114 0
M  V30 5138 H 495.769 4.93653 1.7722 0
M  V30 5139 H 497.243 4.36189 3.38295 0
M  V30 5140 H 497.72 2.66891 3.48806 0
M  V30 5141 H 498.326 3.67024 2.14881 0
M  V30 5142 N 496.642 -0.504142 1.49319 0
M  V30 5143 C 498.058 -0.835039 1.36012 0
M  V30 5144 C 498.258 -1.97674 0.390808 0
M  V30 5145 O 497.314 -2.51867 -0.178655 0
M  V30 5146 C 498.627 -1.17821 2.76656 0
M  V30 5147 C 500.175 -1.2866 2.85334 0
M  V30 5148 C 500.65 -1.66307 4.26739 0
M  V30 5149 N 502.141 -1.73362 4.29534 0
M  V30 5150 C 502.876 -2.0393 5.35911 0
M  V30 5151 N 502.372 -2.32744 6.52535 0
M  V30 5152 N 504.165 -2.05155 5.23324 0
M  V30 5153 H 496.316 0.248764 2.10938 0
M  V30 5154 H 498.579 0.0486962 0.946748 0
M  V30 5155 H 498.285 -0.412682 3.4927 0
M  V30 5156 H 498.159 -2.12239 3.11825 0
M  V30 5157 H 500.546 -2.04285 2.1296 0
M  V30 5158 H 500.627 -0.323004 2.53752 0
M  V30 5159 H 500.271 -0.91234 4.99639 0
M  V30 5160 H 500.201 -2.63761 4.55782 0
M  V30 5161 H 502.692 -1.53268 3.45424 0
M  V30 5162 H 503.005 -2.55248 7.2943 0
M  V30 5163 H 501.35 -2.30207 6.55767 0
M  V30 5164 H 504.541 -1.82119 4.3122 0
M  V30 5165 H 504.714 -2.28644 6.06322 0
M  V30 5166 N 498.12 -1.38341 -0.754957 0
M  V30 5167 C 499.531 -1.30803 -1.3322 0
M  V30 5168 C 499.882 0.0368 -1.96165 0
M  V30 5169 O 499.007 0.938844 -1.94974 0
M  V30 5170 C 499.602 -2.3688 -2.42225 0
M  V30 5171 C 498.161 -2.32925 -2.95674 0
M  V30 5172 C 497.308 -2.19819 -1.69042 0
M  V30 5173 H 500.259 -1.48719 -0.553937 0
M  V30 5174 H 500.28 -2.02517 -3.22129 0
M  V30 5175 H 499.792 -3.34747 -1.96383 0
M  V30 5176 H 497.893 -1.38635 -3.45848 0
M  V30 5177 H 498.006 -3.27008 -3.50146 0
M  V30 5178 H 496.37 -1.66648 -1.92615 0
M  V30 5179 H 497.153 -3.19625 -1.25279 0
M  V30 5180 N 499.598 0.982988 -1.23187 0
M  V30 5181 C 500.528 2.09301 -1.03515 0
M  V30 5182 C 501.509 1.70035 0.0471136 0
M  V30 5183 O 502.694 1.93847 -0.117029 0
M  V30 5184 C 499.824 3.4167 -0.622791 0
M  V30 5185 C 498.778 3.94828 -1.65211 0
M  V30 5186 C 498.104 5.23362 -1.09527 0
M  V30 5187 C 499.404 4.2439 -3.04451 0
M  V30 5188 H 501.098 2.26016 -1.96359 0
M  V30 5189 H 498.644 1.08611 -0.945501 0
M  V30 5190 H 500.597 4.18746 -0.472233 0
M  V30 5191 H 499.321 3.24811 0.341329 0
M  V30 5192 H 497.98 3.19895 -1.79061 0
M  V30 5193 H 497.628 5.02852 -0.122211 0
M  V30 5194 H 497.328 5.59895 -1.783 0
M  V30 5195 H 498.852 6.03062 -0.956511 0
M  V30 5196 H 500.266 4.92225 -2.93917 0
M  V30 5197 H 498.663 4.72118 -3.70438 0
M  V30 5198 H 499.733 3.31765 -3.53638 0
M  V30 5199 N 501.076 1.04316 1.18135 0
M  V30 5200 C 502.487 0.775505 1.69832 0
M  V30 5201 C 502.838 -0.703348 1.8316 0
M  V30 5202 O 501.963 -1.54729 1.51287 0
M  V30 5203 C 502.558 1.40112 3.0847 0
M  V30 5204 C 501.117 1.18172 3.57368 0
M  V30 5205 C 500.264 1.49022 2.33854 0
M  V30 5206 H 503.215 1.20925 1.02775 0
M  V30 5207 H 503.236 0.805672 3.71873 0
M  V30 5208 H 502.748 2.47744 2.98738 0
M  V30 5209 H 500.849 0.124258 3.72393 0
M  V30 5210 H 500.962 1.8805 4.40652 0
M  V30 5211 H 499.326 0.909995 2.37889 0
M  V30 5212 H 500.109 2.57768 2.26738 0
M  V30 5213 N 502.554 -1.34406 0.822964 0
M  V30 5214 C 503.782 -2.02508 0.424039 0
M  V30 5215 C 504.197 -1.61975 -0.970022 0
M  V30 5216 O 503.554 -0.825228 -1.62777 0
M  V30 5217 C 503.605 -3.57789 0.516657 0
M  V30 5218 O 503.326 -3.96853 1.85577 0
M  V30 5219 C 504.827 -4.43157 0.112637 0
M  V30 5220 H 502.047 -0.649063 0.170173 0
M  V30 5221 H 504.591 -1.7168 1.11113 0
M  V30 5222 H 502.746 -3.87207 -0.122353 0
M  V30 5223 H 503.16 -4.91538 1.83005 0
M  V30 5224 H 504.634 -5.51527 0.228526 0
M  V30 5225 H 505.111 -4.28939 -0.943837 0
M  V30 5226 H 505.717 -4.19067 0.725449 0
M  V30 5227 N 504.032 -0.577932 -1.46621 0
M  V30 5228 C 504.962 0.145917 -2.33044 0
M  V30 5229 C 505.943 0.888412 -1.45056 0
M  V30 5230 O 507.128 0.864812 -1.73881 0
M  V30 5231 C 504.258 1.16322 -3.27241 0
M  V30 5232 C 503.212 0.535868 -4.24632 0
M  V30 5233 C 502.538 1.65929 -5.08303 0
M  V30 5234 C 503.838 -0.523861 -5.19666 0
M  V30 5235 H 505.532 -0.575636 -2.93814 0
M  V30 5236 H 503.078 -0.278272 -1.41286 0
M  V30 5237 H 505.031 1.67793 -3.86553 0
M  V30 5238 H 503.755 1.91498 -2.64567 0
M  V30 5239 H 502.414 0.0422759 -3.66576 0
M  V30 5240 H 502.062 2.40061 -4.42018 0
M  V30 5241 H 501.762 1.2452 -5.74255 0
M  V30 5242 H 503.286 2.17686 -5.70478 0
M  V30 5243 H 504.7 -0.0944059 -5.73222 0
M  V30 5244 H 503.097 -0.858 -5.93935 0
M  V30 5245 H 504.167 -1.41197 -4.63887 0
M  V30 5246 N 505.51 1.54411 -0.315457 0
M  V30 5247 C 506.921 1.85885 0.174265 0
M  V30 5248 C 507.272 1.23723 1.52273 0
M  V30 5249 O 506.397 0.540246 2.09548 0
M  V30 5250 C 506.992 3.37257 0.322981 0
M  V30 5251 C 505.551 3.68711 0.756922 0
M  V30 5252 C 504.698 2.77013 -0.126195 0
M  V30 5253 H 507.649 1.49374 -0.536007 0
M  V30 5254 H 507.67 3.62539 1.15522 0
M  V30 5255 H 507.182 3.82471 -0.658602 0
M  V30 5256 H 505.283 3.29024 1.74854 0
M  V30 5257 H 505.396 4.75741 0.566291 0
M  V30 5258 H 503.76 2.51588 0.39692 0
M  V30 5259 H 504.543 3.25051 -1.1044 0
M  V30 5260 N 506.988 0.0434614 1.5754 0
M  V30 5261 C 508.234 -0.632971 1.92669 0
M  V30 5262 C 508.567 -1.70947 0.921446 0
M  V30 5263 O 507.842 -1.94426 -0.0537202 0
M  V30 5264 C 508.125 -1.23619 3.38216 0
M  V30 5265 C 507.978 -0.168274 4.49485 0
M  V30 5266 C 509.297 -2.15008 3.84005 0
M  V30 5267 H 506.416 -0.228629 0.700641 0
M  V30 5268 H 509.058 0.103651 1.89717 0
M  V30 5269 H 507.208 -1.864 3.40863 0
M  V30 5270 H 508.88 0.463196 4.58969 0
M  V30 5271 H 507.123 0.504581 4.30855 0
M  V30 5272 H 507.794 -0.630218 5.48391 0
M  V30 5273 H 510.27 -1.62198 3.83185 0
M  V30 5274 H 509.146 -2.54161 4.86511 0
M  V30 5275 H 509.407 -3.04707 3.20322 0
M  V30 5276 N 508.466 -1.55915 -0.229846 0
M  V30 5277 C 509.882 -1.48721 -0.579166 0
M  V30 5278 C 510.082 -0.736976 -1.87539 0
M  V30 5279 O 509.138 -0.273258 -2.51017 0
M  V30 5280 C 510.451 -2.9323 -0.666082 0
M  V30 5281 C 511.999 -3.03701 -0.757267 0
M  V30 5282 C 512.474 -4.49552 -0.8756 0
M  V30 5283 N 513.965 -4.53561 -0.940035 0
M  V30 5284 C 514.7 -5.63683 -1.05116 0
M  V30 5285 N 514.196 -6.83576 -1.12675 0
M  V30 5286 N 515.989 -5.51516 -1.08565 0
M  V30 5287 H 508.14 -2.03123 0.620857 0
M  V30 5288 H 510.403 -0.922898 0.21671 0
M  V30 5289 H 510.109 -3.51032 0.21664 0
M  V30 5290 H 509.983 -3.44668 -1.53243 0
M  V30 5291 H 512.37 -2.45969 -1.63043 0
M  V30 5292 H 512.451 -2.55446 0.134583 0
M  V30 5293 H 512.095 -5.079 -0.00692351 0
M  V30 5294 H 512.025 -4.95506 -1.78274 0
M  V30 5295 H 514.516 -3.67215 -0.892269 0
M  V30 5296 H 514.829 -7.63251 -1.21109 0
M  V30 5297 H 513.174 -6.86303 -1.09603 0
M  V30 5298 H 516.365 -4.5678 -1.02319 0
M  V30 5299 H 516.538 -6.37372 -1.1688 0
M  V30 5300 N 509.944 0.496216 -1.49584 0
M  V30 5301 C 511.36 0.827814 -1.36453 0
M  V30 5302 C 511.56 1.97464 -0.401285 0
M  V30 5303 O 510.616 2.51958 0.165296 0
M  V30 5304 C 511.929 1.16352 -2.77277 0
M  V30 5305 C 513.477 1.27145 -2.86013 0
M  V30 5306 C 513.952 1.64042 -4.27615 0
M  V30 5307 N 515.443 1.71082 -4.30448 0
M  V30 5308 C 516.178 2.01085 -5.36984 0
M  V30 5309 N 515.674 2.2928 -6.5376 0
M  V30 5310 N 517.467 2.02376 -5.24405 0
M  V30 5311 H 509.618 -0.259947 -2.10803 0
M  V30 5312 H 511.881 -0.0537163 -0.946477 0
M  V30 5313 H 511.587 0.394153 -3.49484 0
M  V30 5314 H 511.461 2.10582 -3.12946 0
M  V30 5315 H 513.848 2.03152 -2.1404 0
M  V30 5316 H 513.929 0.309542 -2.5392 0
M  V30 5317 H 513.573 0.88583 -5.00115 0
M  V30 5318 H 513.503 2.6134 -4.57175 0
M  V30 5319 H 515.994 1.51434 -3.46232 0
M  V30 5320 H 516.307 2.51376 -7.30774 0
M  V30 5321 H 514.652 2.26726 -6.56978 0
M  V30 5322 H 517.843 1.79829 -4.32179 0
M  V30 5323 H 518.016 2.25425 -6.07526 0
M  V30 5324 N 511.423 1.38739 0.74761 0
M  V30 5325 C 512.672 1.3459 1.50228 0
M  V30 5326 C 512.985 -0.0595592 1.95509 0
M  V30 5327 O 514.191 -0.22361 2.70578 0
M  V30 5328 C 512.647 2.36377 2.71393 0
M  V30 5329 C 512.255 3.82573 2.33113 0
M  V30 5330 C 513.999 2.41281 3.49262 0
M  V30 5331 C 511.906 4.76032 3.50924 0
M  V30 5332 H 510.836 0.500312 0.564096 0
M  V30 5333 H 513.487 1.64324 0.8167 0
M  V30 5334 H 511.869 1.99694 3.41962 0
M  V30 5335 H 513.043 4.28227 1.70171 0
M  V30 5336 H 511.358 3.80844 1.68365 0
M  V30 5337 H 513.955 3.08301 4.36869 0
M  V30 5338 H 514.298 1.43353 3.9084 0
M  V30 5339 H 514.831 2.76793 2.85711 0
M  V30 5340 H 511.57 5.75177 3.14408 0
M  V30 5341 H 511.09 4.35066 4.12889 0
M  V30 5342 H 512.769 4.94331 4.17427 0
M  V30 5343 N 512.901 -0.976442 1.23707 0
M  V30 5344 C 513.851 -2.0544 0.988851 0
M  V30 5345 C 514.835 -1.60762 -0.0665901 0
M  V30 5346 O 516.027 -1.76396 0.14604 0
M  V30 5347 C 513.156 -3.38258 0.586223 0
M  V30 5348 C 512.242 -3.89523 1.67728 0
M  V30 5349 N 512.633 -4.13823 2.90834 0
M  V30 5350 C 510.931 -4.18097 1.55277 0
M  V30 5351 C 511.632 -4.55731 3.61502 0
M  V30 5352 N 510.608 -4.60394 2.8903 0
M  V30 5353 H 514.41 -2.22191 1.92376 0
M  V30 5354 H 511.924 -1.15954 1.13704 0
M  V30 5355 H 513.921 -4.15075 0.389658 0
M  V30 5356 H 512.581 -3.22898 -0.341594 0
M  V30 5357 H 513.592 -4.01529 3.271 0
M  V30 5358 H 510.269 -4.11719 0.692351 0
M  V30 5359 H 511.659 -4.83018 4.67059 0
M  V30 5360 N 514.379 -1.04941 -1.1758 0
M  V30 5361 C 515.604 -0.778253 -1.92245 0
M  V30 5362 C 516.029 0.659707 -1.76152 0
M  V30 5363 O 515.387 1.45803 -1.07755 0
M  V30 5364 C 515.435 -1.16051 -3.41416 0
M  V30 5365 O 514.539 -0.291153 -4.11371 0
M  V30 5366 H 513.88 -0.285619 -0.599431 0
M  V30 5367 H 516.41 -1.40159 -1.49052 0
M  V30 5368 H 516.42 -1.12619 -3.92149 0
M  V30 5369 H 515.095 -2.208 -3.52449 0
M  V30 5370 H 513.672 -0.385851 -3.70898 0
M  V30 5371 N 515.857 1.33968 -0.830081 0
M  V30 5372 C 517.268 1.80439 -0.479455 0
M  V30 5373 C 517.619 1.68756 1.00079 0
M  V30 5374 O 516.744 1.23171 1.77927 0
M  V30 5375 C 517.339 3.27611 -0.863505 0
M  V30 5376 C 515.898 3.72133 -0.565145 0
M  V30 5377 C 515.045 2.55549 -1.07657 0
M  V30 5378 H 517.996 1.21614 -1.0196 0
M  V30 5379 H 518.017 3.8012 -0.170083 0
M  V30 5380 H 517.529 3.36082 -1.94089 0
M  V30 5381 H 515.63 3.69196 0.502536 0
M  V30 5382 H 515.743 4.65963 -1.11422 0
M  V30 5383 H 514.107 2.49788 -0.497807 0
M  V30 5384 H 514.89 2.66786 -2.16055 0
M  V30 5385 N 517.335 0.585699 1.46312 0
M  V30 5386 C 518.56 0.0762461 2.0726 0
M  V30 5387 C 518.985 -1.22071 1.43109 0
M  V30 5388 O 518.343 -1.73804 0.515942 0
M  V30 5389 C 518.391 -0.0729404 3.60526 0
M  V30 5390 O 517.495 -1.1287 3.96654 0
M  V30 5391 H 516.836 0.0641558 0.660893 0
M  V30 5392 H 519.366 0.809492 1.87905 0
M  V30 5393 H 519.376 -0.278158 4.07051 0
M  V30 5394 H 518.051 0.874188 4.06609 0
M  V30 5395 H 516.628 -0.901703 3.61834 0
M  V30 5396 N 518.813 -1.54241 0.323641 0
M  V30 5397 C 519.723 -2.28033 -0.551205 0
M  V30 5398 C 520.739 -1.32388 -1.12913 0
M  V30 5399 O 521.915 -1.65403 -1.14908 0
M  V30 5400 C 518.98 -3.02382 -1.69606 0
M  V30 5401 C 518.041 -4.13612 -1.14993 0
M  V30 5402 C 517.274 -4.84407 -2.24022 0
M  V30 5403 O 517.497 -4.54716 -3.44368 0
M  V30 5404 O 516.431 -5.71312 -1.89436 0
M  V30 5405 H 520.257 -3.03662 0.048066 0
M  V30 5406 H 517.842 -1.49133 0.0893289 0
M  V30 5407 H 519.724 -3.48941 -2.36259 0
M  V30 5408 H 518.399 -2.29628 -2.28151 0
M  V30 5409 H 517.306 -3.71402 -0.448484 0
M  V30 5410 H 518.639 -4.8841 -0.609608 0
M  V30 5411 N 520.291 -0.0518155 -1.57515 0
M  V30 5412 C 521.707 0.304735 -1.56664 0
M  V30 5413 C 521.907 1.71395 -1.05953 0
M  V30 5414 O 520.963 2.42123 -0.716414 0
M  V30 5415 C 522.276 0.132614 -3.00407 0
M  V30 5416 C 523.824 0.20367 -3.12337 0
M  V30 5417 C 524.299 0.0600706 -4.57961 0
M  V30 5418 N 525.79 0.116326 -4.63054 0
M  V30 5419 C 526.525 0.0293363 -5.73392 0
M  V30 5420 N 526.021 -0.110038 -6.92713 0
M  V30 5421 N 527.814 0.0849651 -5.62036 0
M  V30 5422 H 519.965 -0.973056 -1.888 0
M  V30 5423 H 522.228 -0.377781 -0.869474 0
M  V30 5424 H 521.934 -0.839019 -3.41546 0
M  V30 5425 H 521.808 0.893376 -3.66468 0
M  V30 5426 H 524.195 1.16578 -2.71097 0
M  V30 5427 H 524.276 -0.587857 -2.48954 0
M  V30 5428 H 523.92 -0.898715 -4.99886 0
M  V30 5429 H 523.85 0.87075 -5.19351 0
M  V30 5430 H 526.341 0.22327 -3.7724 0
M  V30 5431 H 526.654 -0.169104 -7.72615 0
M  V30 5432 H 524.999 -0.145132 -6.94848 0
M  V30 5433 H 528.19 0.192411 -4.67704 0
M  V30 5434 H 528.363 0.0137131 -6.47999 0
M  V30 5435 N 521.769 1.56035 0.221574 0
M  V30 5436 C 522.716 1.92413 1.27459 0
M  V30 5437 C 523.686 0.781323 1.46576 0
M  V30 5438 O 524.871 1.03721 1.60145 0
M  V30 5439 C 522.011 2.24617 2.61995 0
M  V30 5440 C 521.124 3.51831 2.50677 0
M  V30 5441 C 520.259 3.73482 3.77736 0
M  V30 5442 C 519.298 4.94211 3.6114 0
M  V30 5443 N 518.435 5.12252 4.80148 0
M  V30 5444 H 523.275 2.82203 0.957355 0
M  V30 5445 H 520.812 1.39676 0.461415 0
M  V30 5446 H 522.77 2.41298 3.40339 0
M  V30 5447 H 521.4 1.38 2.91815 0
M  V30 5448 H 520.452 3.43343 1.63767 0
M  V30 5449 H 521.764 4.40328 2.34334 0
M  V30 5450 H 520.918 3.9026 4.64523 0
M  V30 5451 H 519.657 2.83266 3.97003 0
M  V30 5452 H 518.662 4.77384 2.72736 0
M  V30 5453 H 519.887 5.85912 3.43343 0
M  V30 5454 H 517.833 4.24978 4.99729 0
M  V30 5455 H 517.75 5.94881 4.66532 0
M  V30 5456 H 519.018 5.33465 5.68362 0
M  V30 5457 N 523.247 -0.488276 1.49845 0
M  V30 5458 C 524.197 -1.58556 1.63842 0
M  V30 5459 C 525.181 -1.53142 0.493586 0
M  V30 5460 O 526.373 -1.60457 0.747169 0
M  V30 5461 C 523.502 -2.97101 1.72005 0
M  V30 5462 C 522.588 -3.07463 2.92108 0
M  V30 5463 N 522.979 -2.87681 4.16021 0
M  V30 5464 C 521.277 -3.3858 2.90309 0
M  V30 5465 C 521.978 -3.0256 4.96822 0
M  V30 5466 N 520.954 -3.32002 4.30437 0
M  V30 5467 H 524.756 -1.41935 2.57355 0
M  V30 5468 H 522.27 -0.694668 1.46793 0
M  V30 5469 H 524.267 -3.75976 1.80132 0
M  V30 5470 H 522.927 -3.14782 0.796375 0
M  V30 5471 H 523.938 -2.63603 4.45796 0
M  V30 5472 H 520.615 -3.62357 2.07372 0
M  V30 5473 H 522.005 -2.9165 6.05301 0
M  V30 5474 N 524.725 -1.39134 -0.740242 0
M  V30 5475 C 525.635 -1.39697 -1.88473 0
M  V30 5476 C 526.651 -0.292403 -1.71526 0
M  V30 5477 O 527.827 -0.533021 -1.94219 0
M  V30 5478 C 524.892 -1.23382 -3.24003 0
M  V30 5479 C 523.953 -2.43763 -3.53381 0
M  V30 5480 C 523.186 -2.28216 -4.82445 0
M  V30 5481 O 523.409 -1.28288 -5.55786 0
M  V30 5482 O 522.343 -3.1709 -5.11603 0
M  V30 5483 H 526.169 -2.36159 -1.90952 0
M  V30 5484 H 523.754 -1.20194 -0.887346 0
M  V30 5485 H 525.636 -1.16395 -4.05006 0
M  V30 5486 H 524.311 -0.300121 -3.22306 0
M  V30 5487 H 523.218 -2.56325 -2.72485 0
M  V30 5488 H 524.551 -3.35808 -3.59852 0
M  V30 5489 N 526.204 0.969867 -1.24223 0
M  V30 5490 C 527.62 1.23809 -1.00716 0
M  V30 5491 C 527.82 1.99469 0.285358 0
M  V30 5492 O 526.876 2.31764 1.00207 0
M  V30 5493 C 528.189 2.02734 -2.2208 0
M  V30 5494 C 529.737 2.15834 -2.26681 0
M  V30 5495 C 530.212 2.98154 -3.47661 0
M  V30 5496 N 531.703 3.05737 -3.47964 0
M  V30 5497 C 532.438 3.69785 -4.38231 0
M  V30 5498 N 531.934 4.35569 -5.3875 0
M  V30 5499 N 533.727 3.66775 -4.25949 0
M  V30 5500 H 525.878 0.463294 -2.07286 0
M  V30 5501 H 528.141 0.267348 -0.909521 0
M  V30 5502 H 527.847 1.54524 -3.15935 0
M  V30 5503 H 527.721 3.0347 -2.24021 0
M  V30 5504 H 530.108 2.63248 -1.33359 0
M  V30 5505 H 530.189 1.14453 -2.28767 0
M  V30 5506 H 529.833 2.51435 -4.41297 0
M  V30 5507 H 529.763 3.99729 -3.42818 0
M  V30 5508 H 532.254 2.58941 -2.75242 0
M  V30 5509 H 532.567 4.82251 -6.03866 0
M  V30 5510 H 530.912 4.34244 -5.42639 0
M  V30 5511 H 534.103 3.14558 -3.46657 0
M  V30 5512 H 534.276 4.16407 -4.96497 0
M  V30 5513 N 527.682 1.05563 1.17022 0
M  V30 5514 C 528.614 0.617888 2.20714 0
M  V30 5515 C 529.627 -0.320303 1.59618 0
M  V30 5516 O 530.816 -0.112449 1.78145 0
M  V30 5517 C 527.916 -0.115333 3.38704 0
M  V30 5518 C 527.089 0.834493 4.29366 0
M  V30 5519 C 526.148 0.141855 5.26009 0
M  V30 5520 O 525.174 0.777151 5.6387 0
M  V30 5521 N 526.376 -1.11934 5.69606 0
M  V30 5522 H 529.141 1.50981 2.58892 0
M  V30 5523 H 526.702 0.938008 1.31958 0
M  V30 5524 H 528.694 -0.588918 4.00392 0
M  V30 5525 H 527.264 -0.908967 2.99093 0
M  V30 5526 H 526.484 1.48762 3.65053 0
M  V30 5527 H 527.772 1.4791 4.86827 0
M  V30 5528 H 527.17 -1.65574 5.40927 0
M  V30 5529 H 525.727 -1.53692 6.33421 0
M  V30 5530 N 529.16 -1.33526 0.837174 0
M  V30 5531 C 530.571 -1.80182 0.489017 0
M  V30 5532 C 530.922 -1.69285 -0.991826 0
M  V30 5533 O 530.047 -1.24113 -1.77271 0
M  V30 5534 C 530.642 -3.27149 0.880866 0
M  V30 5535 C 529.201 -3.71828 0.584872 0
M  V30 5536 C 528.348 -2.54974 1.09011 0
M  V30 5537 H 531.299 -1.21071 1.02603 0
M  V30 5538 H 531.32 -3.80024 0.190239 0
M  V30 5539 H 530.832 -3.35048 1.95869 0
M  V30 5540 H 528.933 -3.69457 -0.48295 0
M  V30 5541 H 529.046 -4.65366 1.13892 0
M  V30 5542 H 527.41 -2.4952 0.511047 0
M  V30 5543 H 528.193 -2.65637 2.17467 0
M  V30 5544 N 530.638 -0.59345 -1.46 0
M  V30 5545 C 532.054 -0.255965 -1.57534 0
M  V30 5546 C 532.254 1.24167 -1.58697 0
M  V30 5547 O 531.31 2.02398 -1.50968 0
M  V30 5548 C 532.623 -0.91466 -2.86451 0
M  V30 5549 C 534.171 -0.889253 -3.00102 0
M  V30 5550 C 534.646 -1.52769 -4.3177 0
M  V30 5551 N 536.137 -1.49253 -4.38495 0
M  V30 5552 C 536.872 -1.9558 -5.39014 0
M  V30 5553 N 536.368 -2.49929 -6.46148 0
M  V30 5554 N 538.161 -1.86432 -5.30282 0
M  V30 5555 H 530.312 -1.56604 -1.43489 0
M  V30 5556 H 532.575 -0.655207 -0.685133 0
M  V30 5557 H 532.281 -1.96861 -2.91442 0
M  V30 5558 H 532.155 -0.429356 -3.74748 0
M  V30 5559 H 534.542 0.156111 -2.94687 0
M  V30 5560 H 534.623 -1.41268 -2.13253 0
M  V30 5561 H 534.267 -2.57231 -4.37944 0
M  V30 5562 H 534.197 -0.979398 -5.17412 0
M  V30 5563 H 536.688 -1.09536 -3.61677 0
M  V30 5564 H 537.001 -2.83109 -7.19075 0
M  V30 5565 H 535.346 -2.53961 -6.46938 0
M  V30 5566 H 538.537 -1.43722 -4.4549 0
M  V30 5567 H 538.71 -2.22852 -6.08474 0
M  V30 5568 N 532.116 1.54067 -0.331816 0
M  V30 5569 C 533.527 1.86059 0.15454 0
M  V30 5570 C 533.878 1.25331 1.50952 0
M  V30 5571 O 533.003 0.562441 2.08963 0
M  V30 5572 C 533.598 3.37581 0.287192 0
M  V30 5573 C 532.157 3.69493 0.717773 0
M  V30 5574 C 531.304 2.76863 -0.155569 0
M  V30 5575 H 534.255 1.48797 -0.55182 0
M  V30 5576 H 534.276 3.63744 1.11671 0
M  V30 5577 H 533.788 3.81751 -0.699131 0
M  V30 5578 H 531.889 3.3086 1.71354 0
M  V30 5579 H 532.002 4.76315 0.5158 0
M  V30 5580 H 530.366 2.51995 0.370213 0
M  V30 5581 H 531.149 3.23861 -1.13881 0
M  V30 5582 N 533.594 0.0601682 1.57485 0
M  V30 5583 C 535.005 -0.474217 1.80577 0
M  V30 5584 C 535.356 -1.70365 0.973147 0
M  V30 5585 O 534.481 -2.15544 0.192306 0
M  V30 5586 C 535.076 -0.867102 3.27516 0
M  V30 5587 C 533.635 -1.34642 3.51495 0
M  V30 5588 C 532.782 -0.32594 2.75378 0
M  V30 5589 H 535.733 0.285973 1.56102 0
M  V30 5590 H 535.754 -1.72938 3.38929 0
M  V30 5591 H 535.266 0.0278927 3.8809 0
M  V30 5592 H 533.367 -2.2603 2.96212 0
M  V30 5593 H 533.48 -1.33237 4.60201 0
M  V30 5594 H 531.844 -0.800749 2.41785 0
M  V30 5595 H 532.627 0.561125 3.38683 0
M  V30 5596 N 535.072 -1.5615 -0.213296 0
M  V30 5597 C 536.488 -1.49327 -0.56336 0
M  V30 5598 C 536.688 -0.756826 -1.86747 0
M  V30 5599 O 535.744 -0.299866 -2.50713 0
M  V30 5600 C 537.057 -2.9392 -0.634944 0
M  V30 5601 C 538.605 -3.04487 -0.725013 0
M  V30 5602 C 539.08 -4.50456 -0.82787 0
M  V30 5603 N 540.571 -4.54533 -0.891876 0
M  V30 5604 C 541.306 -5.64766 -0.991315 0
M  V30 5605 N 540.802 -6.84733 -1.05419 0
M  V30 5606 N 542.595 -5.52637 -1.02709 0
M  V30 5607 H 534.746 -2.02453 0.642366 0
M  V30 5608 H 537.009 -0.920548 0.226487 0
M  V30 5609 H 536.715 -3.50783 0.253859 0
M  V30 5610 H 536.589 -3.46274 -1.49579 0
M  V30 5611 H 538.976 -2.47685 -1.60425 0
M  V30 5612 H 539.057 -2.55289 0.161669 0
M  V30 5613 H 538.701 -5.07878 0.0469464 0
M  V30 5614 H 538.631 -4.97369 -1.73009 0
M  V30 5615 H 541.122 -3.68141 -0.85327 0
M  V30 5616 H 541.435 -7.64493 -1.13007 0
M  V30 5617 H 539.78 -6.87427 -1.02318 0
M  V30 5618 H 542.971 -4.5784 -0.974687 0
M  V30 5619 H 543.144 -6.38576 -1.10113 0
M  V30 5620 N 536.55 0.480323 -1.50102 0
M  V30 5621 C 537.961 1.06142 -1.53593 0
M  V30 5622 C 538.312 1.93335 -0.334055 0
M  V30 5623 O 537.437 2.09188 0.55403 0
M  V30 5624 C 538.032 1.9317 -2.78336 0
M  V30 5625 C 536.591 2.46405 -2.84538 0
M  V30 5626 C 535.738 1.24521 -2.4777 0
M  V30 5627 H 538.689 0.26333 -1.565 0
M  V30 5628 H 538.71 2.78123 -2.59669 0
M  V30 5629 H 538.222 1.29683 -3.65792 0
M  V30 5630 H 536.323 3.13472 -2.01411 0
M  V30 5631 H 536.436 2.82143 -3.87211 0
M  V30 5632 H 534.8 1.57706 -2.00003 0
M  V30 5633 H 535.583 0.627102 -3.37524 0
M  V30 5634 N 538.028 1.39524 0.732853 0
M  V30 5635 C 539.439 1.32905 1.31122 0
M  V30 5636 C 539.79 -0.00558708 1.96199 0
M  V30 5637 O 538.915 -0.907706 1.96443 0
M  V30 5638 C 539.51 2.40704 2.38426 0
M  V30 5639 C 538.069 2.37599 2.91931 0
M  V30 5640 C 537.216 2.2248 1.65523 0
M  V30 5641 H 540.167 1.49581 0.530207 0
M  V30 5642 H 540.188 2.07616 3.18867 0
M  V30 5643 H 539.7 3.37829 1.91033 0
M  V30 5644 H 537.801 1.44119 3.43599 0
M  V30 5645 H 537.914 3.32538 3.44899 0
M  V30 5646 H 536.278 1.69691 1.8994 0
M  V30 5647 H 537.061 3.21577 1.20178 0
M  V30 5648 N 539.506 -0.963266 1.24736 0
M  V30 5649 C 540.436 -2.07628 1.06832 0
M  V30 5650 C 541.417 -1.70088 -0.0200566 0
M  V30 5651 O 542.602 -1.93636 0.147854 0
M  V30 5652 C 539.732 -3.40636 0.677069 0
M  V30 5653 C 538.686 -3.9215 1.71471 0
M  V30 5654 C 538.012 -5.21553 1.1784 0
M  V30 5655 C 539.312 -4.19493 3.11164 0
M  V30 5656 H 541.006 -2.22864 1.9993 0
M  V30 5657 H 538.552 -1.07093 0.96266 0
M  V30 5658 H 540.505 -4.17941 0.538792 0
M  V30 5659 H 539.229 -3.25313 -0.289612 0
M  V30 5660 H 537.888 -3.17005 1.84128 0
M  V30 5661 H 537.536 -5.02593 0.202195 0
M  V30 5662 H 537.236 -5.56988 1.87185 0
M  V30 5663 H 538.76 -6.01463 1.05233 0
M  V30 5664 H 540.174 -4.87487 3.01711 0
M  V30 5665 H 538.571 -4.66165 3.77902 0
M  V30 5666 H 539.641 -3.26097 3.58871 0
M  V30 5667 N 540.985 -1.06182 -1.16461 0
M  V30 5668 C 542.233 -0.776326 -1.86595 0
M  V30 5669 C 542.554 0.69921 -1.82033 0
M  V30 5670 O 541.824 1.50579 -1.2531 0
M  V30 5671 H 540.404 -0.284184 -0.690832 0
M  V30 5672 H 543.066 -1.34308 -1.41235 0
M  V30 5673 H 542.162 -1.10022 -2.92064 0
M  V30 5674 N 542.463 1.3308 -0.844243 0
M  V30 5675 C 543.74 1.92178 -0.364261 0
M  V30 5676 C 544.12 1.76961 1.15101 0
M  V30 5677 O 543.468 1.16128 1.9679 0
M  V30 5678 C 543.678 3.393 -0.817106 0
M  V30 5679 C 545.026 4.16444 -0.828236 0
M  V30 5680 O 546.05 3.47975 -0.761062 0
M  V30 5681 O 544.909 5.38685 -0.920926 0
M  V30 5682 H 542.003 0.820411 -0.10419 0
M  V30 5683 H 544.549 1.41918 -0.930453 0
M  V30 5684 H 543.321 3.44272 -1.85991 0
M  V30 5685 H 542.944 3.96947 -0.227785 0
M  V30 5686 N 543.941 0.601185 1.45683 0
M  V30 5687 C 545.357 0.264315 1.57396 0
M  V30 5688 C 545.557 -1.23324 1.59353 0
M  V30 5689 O 544.613 -2.01594 1.52039 0
M  V30 5690 C 545.926 0.929839 2.85962 0
M  V30 5691 C 547.474 0.905156 2.99626 0
M  V30 5692 C 547.949 1.55057 4.30954 0
M  V30 5693 N 549.44 1.51576 4.37697 0
M  V30 5694 C 550.175 1.98436 5.37969 0
M  V30 5695 N 549.671 2.53352 6.44813 0
M  V30 5696 N 551.464 1.89242 5.29286 0
M  V30 5697 H 543.615 1.57363 1.42656 0
M  V30 5698 H 545.878 0.658831 0.681649 0
M  V30 5699 H 545.584 1.98404 2.90394 0
M  V30 5700 H 545.458 0.449224 3.74515 0
M  V30 5701 H 547.845 -0.14048 2.94765 0
M  V30 5702 H 547.926 1.42397 2.12501 0
M  V30 5703 H 547.57 2.5955 4.36573 0
M  V30 5704 H 547.5 1.00682 5.16886 0
M  V30 5705 H 549.991 1.11452 3.61091 0
M  V30 5706 H 550.304 2.86918 7.17564 0
M  V30 5707 H 548.649 2.57388 6.45582 0
M  V30 5708 H 551.84 1.46083 4.44722 0
M  V30 5709 H 552.013 2.26075 6.07284 0
M  V30 5710 N 545.419 -1.53889 0.339982 0
M  V30 5711 C 546.83 -1.86139 -0.144671 0
M  V30 5712 C 547.181 -1.2613 -1.50285 0
M  V30 5713 O 546.306 -0.573515 -2.08662 0
M  V30 5714 C 546.901 -3.37728 -0.269285 0
M  V30 5715 C 545.46 -3.69868 -0.698168 0
M  V30 5716 C 544.607 -2.76777 0.170249 0
M  V30 5717 H 547.558 -1.48503 0.559704 0
M  V30 5718 H 547.579 -3.64331 -1.0974 0
M  V30 5719 H 547.091 -3.81375 0.719366 0
M  V30 5720 H 545.192 -3.31764 -1.69597 0
M  V30 5721 H 545.305 -4.76582 -0.490533 0
M  V30 5722 H 543.669 -2.52188 -0.356844 0
M  V30 5723 H 544.452 -3.23253 1.15597 0
M  V30 5724 N 546.897 -0.0685191 -1.57451 0
M  V30 5725 C 548.122 0.613919 -1.98106 0
M  V30 5726 C 548.547 1.62551 -0.946501 0
M  V30 5727 O 547.905 1.81085 0.0882824 0
M  V30 5728 C 547.953 1.26189 -3.378 0
M  V30 5729 O 547.057 2.37773 -3.36954 0
M  V30 5730 H 546.398 0.158163 -0.644888 0
M  V30 5731 H 548.928 -0.142063 -2.04106 0
M  V30 5732 H 548.938 1.60951 -3.74912 0
M  V30 5733 H 547.613 0.520625 -4.12629 0
M  V30 5734 H 546.19 2.04829 -3.11608 0
M  V30 5735 N 548.375 1.56261 0.205012 0
M  V30 5736 C 549.603 1.84141 0.943386 0
M  V30 5737 C 550.018 0.649772 1.77266 0
M  V30 5738 O 549.375 -0.381612 1.78466 0
M  V30 5739 C 549.426 3.10719 1.84759 0
M  V30 5740 O 549.147 4.25286 1.05181 0
M  V30 5741 C 550.648 3.51706 2.69848 0
M  V30 5742 H 547.868 0.611734 0.275721 0
M  V30 5743 H 550.412 2.03364 0.215253 0
M  V30 5744 H 548.567 2.93422 2.52947 0
M  V30 5745 H 548.981 4.97301 1.66709 0
M  V30 5746 H 550.455 4.43266 3.28967 0
M  V30 5747 H 550.932 2.7423 3.43067 0
M  V30 5748 H 551.538 3.71499 2.07047 0
M  V30 5749 N 549.853 -0.472356 1.50355 0
M  V30 5750 C 551.264 -1.05326 1.54154 0
M  V30 5751 C 551.615 -1.93155 0.344303 0
M  V30 5752 O 550.74 -2.09479 -0.542928 0
M  V30 5753 C 551.335 -1.91691 2.79356 0
M  V30 5754 C 549.894 -2.44892 2.8584 0
M  V30 5755 C 549.041 -1.23205 2.48426 0
M  V30 5756 H 551.992 -0.255027 1.56637 0
M  V30 5757 H 552.013 -2.76742 2.6114 0
M  V30 5758 H 551.525 -1.27741 3.66475 0
M  V30 5759 H 549.626 -3.12399 2.0307 0
M  V30 5760 H 549.739 -2.80086 3.88701 0
M  V30 5761 H 548.103 -1.56643 2.00836 0
M  V30 5762 H 548.886 -0.609194 3.37852 0
M  V30 5763 N 551.331 -1.39911 -0.725443 0
M  V30 5764 C 552.579 -1.37382 -1.48224 0
M  V30 5765 C 552.9 0.0264107 -1.94982 0
M  V30 5766 O 552.17 0.979408 -1.6966 0
M  V30 5767 H 550.75 -0.505596 -0.549892 0
M  V30 5768 H 553.412 -1.7487 -0.860608 0
M  V30 5769 H 552.508 -2.04254 -2.3598 0
M  V30 5770 N 552.809 0.956637 -1.25245 0
M  V30 5771 C 554.037 1.73571 -1.12608 0
M  V30 5772 C 554.452 1.86063 0.320324 0
M  V30 5773 O 553.809 1.35691 1.22042 0
M  V30 5774 C 553.86 3.15053 -1.77268 0
M  V30 5775 O 553.581 3.03174 -3.16255 0
M  V30 5776 C 555.082 4.09248 -1.70386 0
M  V30 5777 H 552.302 0.543955 -0.392879 0
M  V30 5778 H 554.846 1.20031 -1.65568 0
M  V30 5779 H 553.001 3.65543 -1.28284 0
M  V30 5780 H 553.415 3.9241 -3.48015 0
M  V30 5781 H 554.889 5.06138 -2.20291 0
M  V30 5782 H 555.366 4.34102 -0.667239 0
M  V30 5783 H 555.972 3.64672 -2.18849 0
M  V30 5784 N 554.287 1.06798 1.15896 0
M  V30 5785 C 555.234 0.683314 2.20453 0
M  V30 5786 C 556.204 -0.32255 1.62938 0
M  V30 5787 O 557.389 -0.210276 1.89638 0
M  V30 5788 C 554.529 0.0813266 3.45004 0
M  V30 5789 C 553.642 1.13799 4.16742 0
M  V30 5790 C 552.777 0.501598 5.28826 0
M  V30 5791 C 551.816 1.54144 5.92373 0
M  V30 5792 N 550.953 0.928038 6.9594 0
M  V30 5793 H 555.793 1.57932 2.52708 0
M  V30 5794 H 553.33 0.789544 1.24115 0
M  V30 5795 H 555.288 -0.285274 4.16224 0
M  V30 5796 H 553.918 -0.77806 3.13283 0
M  V30 5797 H 552.97 1.62223 3.44075 0
M  V30 5798 H 554.282 1.92664 4.60089 0
M  V30 5799 H 553.436 0.0823162 6.06644 0
M  V30 5800 H 552.175 -0.318883 4.86656 0
M  V30 5801 H 551.18 1.97056 5.13273 0
M  V30 5802 H 552.405 2.3641 6.36621 0
M  V30 5803 H 550.351 0.12836 6.55874 0
M  V30 5804 H 550.268 1.65401 7.37685 0
M  V30 5805 H 551.536 0.534071 7.77668 0
M  V30 5806 N 555.766 -1.3263 0.851289 0
M  V30 5807 C 557.177 -1.79653 0.5081 0
M  V30 5808 C 557.528 -1.70327 -0.973815 0
M  V30 5809 O 556.653 -1.25986 -1.75944 0
M  V30 5810 C 557.248 -3.26196 0.915515 0
M  V30 5811 C 555.807 -3.71187 0.624277 0
M  V30 5812 C 554.954 -2.53804 1.11709 0
M  V30 5813 H 557.905 -1.19976 1.03882 0
M  V30 5814 H 557.926 -3.79801 0.230535 0
M  V30 5815 H 557.438 -3.32952 1.99411 0
M  V30 5816 H 555.539 -3.69948 -0.443737 0
M  V30 5817 H 555.652 -4.64132 1.18821 0
M  V30 5818 H 554.016 -2.48964 0.537484 0
M  V30 5819 H 554.799 -2.63315 2.20272 0
M  V30 5820 N 557.244 -0.608902 -1.45362 0
M  V30 5821 C 558.192 0.121639 -2.32282 0
M  V30 5822 C 559.186 0.858301 -1.46046 0
M  V30 5823 O 560.392 0.773718 -1.62523 0
M  V30 5824 H 556.767 0.058086 -0.749753 0
M  V30 5825 H 558.738 -0.629866 -2.91677 0
M  V30 5826 C 557.487 1.1047 -3.29684 0
M  V30 5827 H 556.81 0.547278 -3.96036 0
M  V30 5828 H 558.25 1.58576 -3.9323 0
M  V30 5829 C 556.709 2.17891 -2.56954 0
M  V30 5830 O 557.239 3.25652 -2.35189 0
M  V30 5831 N 555.445 1.93211 -2.17066 0
M  V30 5832 H 554.992 1.05584 -2.34967 0
M  V30 5833 H 554.95 2.6529 -1.68727 0
M  V30 5834 N 558.722 1.53707 -0.348139 0
M  V30 5835 C 559.971 2.0017 0.247992 0
M  V30 5836 C 560.284 1.23983 1.51286 0
M  V30 5837 O 561.49 1.60946 2.18652 0
M  V30 5838 C 559.946 3.56515 0.492459 0
M  V30 5839 C 559.554 4.41562 -0.756777 0
M  V30 5840 C 561.298 4.11381 1.0472 0
M  V30 5841 C 559.205 5.89426 -0.482856 0
M  V30 5842 H 558.135 0.747806 0.0964452 0
M  V30 5843 H 560.786 1.77532 -0.464179 0
M  V30 5844 H 559.168 3.75236 1.26545 0
M  V30 5845 H 560.342 4.34615 -1.53122 0
M  V30 5846 H 558.657 3.97711 -1.23348 0
M  V30 5847 H 561.254 5.19468 1.26717 0
M  V30 5848 H 561.597 3.64885 2.00411 0
M  V30 5849 H 562.13 3.96389 0.334801 0
M  V30 5850 H 558.869 6.40164 -1.40962 0
M  V30 5851 H 558.389 5.99264 0.253416 0
M  V30 5852 H 560.068 6.4692 -0.101816 0
M  V30 5853 N 560.2 0.0768682 1.57412 0
M  V30 5854 C 561.44 -0.594676 1.95558 0
M  V30 5855 C 561.804 -1.66469 0.956658 0
M  V30 5856 O 563.005 -2.39215 1.22595 0
M  V30 5857 C 561.276 -1.15206 3.38323 0
M  V30 5858 S 562.835 -1.83803 3.9845 0
M  V30 5859 H 559.653 -0.194579 0.683857 0
M  V30 5860 H 562.255 0.151933 1.94909 0
M  V30 5861 H 560.959 -0.36153 4.08805 0
M  V30 5862 H 560.49 -1.93491 3.42527 0
M  V30 5863 H 562.505 -3.12087 3.85767 0
M  V30 5864 N 561.678 -1.56367 -0.196722 0
M  V30 5865 C 562.955 -1.71359 -0.943159 0
M  V30 5866 C 563.335 -0.631192 -2.01443 0
M  V30 5867 O 562.683 0.358071 -2.25677 0
M  V30 5868 C 562.893 -3.13623 -1.53106 0
M  V30 5869 C 564.241 -3.73806 -2.01381 0
M  V30 5870 O 565.265 -3.16742 -1.62951 0
M  V30 5871 O 564.124 -4.73951 -2.7209 0
M  V30 5872 H 561.218 -0.698851 -0.442195 0
M  V30 5873 H 563.764 -1.68672 -0.186547 0
M  V30 5874 H 562.536 -3.83873 -0.758785 0
M  V30 5875 H 562.159 -3.20532 -2.35255 0
M  V30 5876 N 563.156 0.464375 -1.50603 0
M  V30 5877 C 564.404 1.21356 -1.61608 0
M  V30 5878 C 564.725 1.92329 -0.321643 0
M  V30 5879 O 563.995 1.84403 0.661232 0
M  V30 5880 H 562.575 0.45094 -0.595535 0
M  V30 5881 H 565.237 0.535046 -1.87412 0
M  V30 5882 H 564.333 1.95783 -2.43054 0
M  V30 5883 N 564.634 1.40294 0.718013 0
M  V30 5884 C 565.582 1.40536 1.85344 0
M  V30 5885 C 566.576 0.286192 1.66965 0
M  V30 5886 O 567.782 0.457105 1.74099 0
M  V30 5887 H 564.157 0.439236 0.61039 0
M  V30 5888 H 566.128 2.36275 1.82255 0
M  V30 5889 C 564.877 1.28245 3.23185 0
M  V30 5890 H 564.2 2.1364 3.37932 0
M  V30 5891 H 565.64 1.32474 4.02774 0
M  V30 5892 C 564.099 -0.0075503 3.36899 0
M  V30 5893 O 564.629 -0.971391 3.89778 0
M  V30 5894 N 562.835 -0.0762479 2.905 0
M  V30 5895 H 562.382 0.708819 2.47656 0
M  V30 5896 H 562.34 -0.938846 3.00055 0
M  V30 5897 N 566.112 -0.949982 1.2575 0
M  V30 5898 C 567.359 -1.69515 1.10774 0
M  V30 5899 C 567.687 -1.91316 -0.350479 0
M  V30 5900 O 566.942 -1.48515 -1.27443 0
M  V30 5901 C 567.241 -3.08039 1.81237 0
M  V30 5902 C 566.907 -3.06023 3.31151 0
M  V30 5903 C 565.569 -3.0518 3.72047 0
M  V30 5904 C 567.921 -2.98998 4.26907 0
M  V30 5905 C 565.249 -2.95067 5.07102 0
M  V30 5906 C 567.601 -2.90426 5.61992 0
M  V30 5907 C 566.265 -2.87922 6.0221 0
M  V30 5908 H 565.535 -0.6203 0.405351 0
M  V30 5909 H 568.182 -1.10953 1.56082 0
M  V30 5910 H 566.487 -3.70172 1.28373 0
M  V30 5911 H 568.184 -3.64526 1.67098 0
M  V30 5912 H 564.774 -3.07453 2.98614 0
M  V30 5913 H 568.958 -2.98764 3.963 0
M  V30 5914 H 564.214 -2.915 5.37436 0
M  V30 5915 H 568.388 -2.83952 6.35881 0
M  V30 5916 H 566.015 -2.79841 7.06819 0
M  V30 5917 N 567.59 -1.07411 -1.15328 0
M  V30 5918 C 568.538 -0.689316 -2.22151 0
M  V30 5919 C 569.532 0.300156 -1.6672 0
M  V30 5920 O 570.738 0.163804 -1.79253 0
M  V30 5921 H 567.113 -0.204834 -0.723566 0
M  V30 5922 H 569.084 -1.59988 -2.51886 0
M  V30 5923 C 567.833 -0.103848 -3.47545 0
M  V30 5924 H 567.156 -0.856367 -3.90521 0
M  V30 5925 H 568.596 0.127725 -4.23808 0
M  V30 5926 C 567.055 1.15563 -3.1646 0
M  V30 5927 O 567.585 2.242 -3.33312 0
M  V30 5928 N 565.791 1.06203 -2.70498 0
M  V30 5929 H 565.338 0.177933 -2.56985 0
M  V30 5930 H 565.296 1.90553 -2.50074 0
M  V30 5931 N 569.068 1.32177 -0.85831 0
M  V30 5932 C 570.296 2.01313 -0.477582 0
M  V30 5933 C 570.711 1.6449 0.926736 0
M  V30 5934 O 570.068 0.868096 1.60531 0
M  V30 5935 C 570.119 3.56293 -0.611337 0
M  V30 5936 O 569.84 3.91794 -1.96034 0
M  V30 5937 C 571.341 4.42702 -0.230093 0
M  V30 5938 H 568.561 0.644323 -0.187322 0
M  V30 5939 H 571.105 1.68674 -1.15626 0
M  V30 5940 H 569.26 3.87395 0.0196494 0
M  V30 5941 H 569.674 4.86513 -1.95973 0
M  V30 5942 H 571.148 5.50727 -0.374674 0
M  V30 5943 H 571.625 4.3129 0.829779 0
M  V30 5944 H 572.231 4.16997 -0.836302 0
M  V30 5945 N 570.547 0.616602 1.45037 0
M  V30 5946 C 571.793 0.115501 2.02471 0
M  V30 5947 C 572.126 -1.25406 1.4828 0
M  V30 5948 O 571.401 -1.82922 0.661051 0
M  V30 5949 C 571.684 0.0863588 3.59996 0
M  V30 5950 C 571.537 1.48723 4.24501 0
M  V30 5951 C 572.856 -0.596762 4.36035 0
M  V30 5952 H 569.975 0.0434461 0.735718 0
M  V30 5953 H 572.617 0.7903 1.72784 0
M  V30 5954 H 570.767 -0.488277 3.85419 0
M  V30 5955 H 572.439 2.10964 4.10234 0
M  V30 5956 H 570.682 2.04534 3.82555 0
M  V30 5957 H 571.353 1.419 5.3345 0
M  V30 5958 H 573.829 -0.10824 4.15959 0
M  V30 5959 H 572.705 -0.586289 5.4576 0
M  V30 5960 H 572.966 -1.66451 4.09569 0
M  V30 5961 N 572.025 -1.5352 0.356285 0
M  V30 5962 C 572.988 -2.24071 -0.482182 0
M  V30 5963 C 573.988 -1.24531 -1.01729 0
M  V30 5964 O 575.178 -1.48876 -0.904513 0
M  V30 5965 C 572.31 -2.97025 -1.67299 0
M  V30 5966 H 573.503 -2.99596 0.135031 0
M  V30 5967 H 571.056 -1.55928 0.107825 0
M  V30 5968 H 571.791 -2.25719 -2.32855 0
M  V30 5969 H 571.576 -3.7005 -1.29636 0
M  V30 5970 H 573.066 -3.50683 -2.26741 0
M  V30 5971 N 573.503 -0.0852151 -1.57369 0
M  V30 5972 C 574.433 0.874556 -2.16503 0
M  V30 5973 C 575.414 1.30111 -1.09568 0
M  V30 5974 O 576.599 1.36977 -1.37662 0
M  V30 5975 C 573.729 2.13731 -2.73745 0
M  V30 5976 C 572.683 1.84971 -3.85966 0
M  V30 5977 C 572.009 3.17991 -4.29867 0
M  V30 5978 C 573.309 1.14442 -5.09608 0
M  V30 5979 H 575.003 0.381899 -2.96954 0
M  V30 5980 H 572.549 0.18225 -1.42842 0
M  V30 5981 H 574.502 2.81302 -3.13763 0
M  V30 5982 H 573.226 2.65263 -1.90534 0
M  V30 5983 H 571.885 1.19801 -3.46473 0
M  V30 5984 H 571.533 3.6739 -3.4356 0
M  V30 5985 H 571.233 2.99534 -5.05523 0
M  V30 5986 H 572.757 3.86737 -4.72511 0
M  V30 5987 H 574.171 1.72105 -5.46857 0
M  V30 5988 H 572.568 1.06197 -5.90629 0
M  V30 5989 H 573.638 0.12559 -4.84737 0
M  V30 5990 N 574.981 1.5647 0.188427 0
M  V30 5991 C 576.228 1.81013 0.907779 0
M  V30 5992 C 576.556 0.65953 1.82977 0
M  V30 5993 O 575.811 -0.354308 1.92466 0
M  V30 5994 C 576.11 3.11596 1.7505 0
M  V30 5995 C 575.776 4.40145 0.978922 0
M  V30 5996 C 574.438 4.75066 0.765912 0
M  V30 5997 C 576.79 5.19369 0.436498 0
M  V30 5998 C 574.118 5.867 -0.00089868 0
M  V30 5999 C 576.47 6.31805 -0.317136 0
M  V30 6000 C 575.134 6.65303 -0.541103 0
M  V30 6001 H 574.404 0.662373 0.33218 0
M  V30 6002 H 577.051 1.9071 0.173732 0
M  V30 6003 H 575.356 2.97165 2.55343 0
M  V30 6004 H 577.053 3.27793 2.30983 0
M  V30 6005 H 573.643 4.12745 1.15497 0
M  V30 6006 H 577.827 4.92799 0.588449 0
M  V30 6007 H 573.083 6.11122 -0.184329 0
M  V30 6008 H 577.257 6.92406 -0.744788 0
M  V30 6009 H 574.884 7.51646 -1.13718 0
M  V30 6010 N 576.459 -0.456382 1.50847 0
M  V30 6011 C 577.875 -0.791345 1.386 0
M  V30 6012 C 578.075 -1.9633 0.453498 0
M  V30 6013 O 577.131 -2.52308 -0.0984353 0
M  V30 6014 C 578.444 -1.08959 2.80265 0
M  V30 6015 C 579.992 -1.19517 2.89283 0
M  V30 6016 C 580.467 -1.52647 4.31814 0
M  V30 6017 N 581.958 -1.59609 4.34832 0
M  V30 6018 C 582.693 -1.86777 5.42127 0
M  V30 6019 N 582.189 -2.11866 6.59609 0
M  V30 6020 N 583.982 -1.88402 5.29586 0
M  V30 6021 H 576.133 0.315746 2.1004 0
M  V30 6022 H 578.396 0.0787916 0.94472 0
M  V30 6023 H 578.102 -0.301355 3.50407 0
M  V30 6024 H 577.976 -2.02211 3.18419 0
M  V30 6025 H 580.363 -1.97406 2.19351 0
M  V30 6026 H 580.444 -0.242111 2.54652 0
M  V30 6027 H 580.088 -0.752922 5.02288 0
M  V30 6028 H 580.018 -2.49127 4.63943 0
M  V30 6029 H 582.509 -1.42201 3.50125 0
M  V30 6030 H 582.822 -2.31912 7.37182 0
M  V30 6031 H 581.167 -2.09228 6.62758 0
M  V30 6032 H 584.358 -1.68307 4.36795 0
M  V30 6033 H 584.531 -2.09238 6.13289 0
M  V30 6034 N 577.937 -1.40673 -0.710563 0
M  V30 6035 C 579.185 -1.38947 -1.46759 0
M  V30 6036 C 579.506 0.00572879 -1.94999 0
M  V30 6037 O 578.776 0.961358 -1.70689 0
M  V30 6038 H 577.356 -0.5114 -0.544499 0
M  V30 6039 H 580.018 -1.75773 -0.842012 0
M  V30 6040 H 579.114 -2.06745 -2.33801 0
M  V30 6041 N 579.415 0.9433 -1.26252 0
M  V30 6042 C 580.325 2.07532 -1.09397 0
M  V30 6043 C 581.341 1.73977 -0.0280449 0
M  V30 6044 O 582.517 2.00067 -0.231337 0
M  V30 6045 C 579.582 3.39002 -0.726523 0
M  V30 6046 C 578.643 3.86353 -1.87163 0
M  V30 6047 C 577.876 5.11549 -1.52162 0
M  V30 6048 O 578.099 5.68834 -0.422385 0
M  V30 6049 O 577.033 5.53889 -2.35565 0
M  V30 6050 H 580.859 2.24658 -2.04359 0
M  V30 6051 H 578.444 1.05988 -1.05295 0
M  V30 6052 H 580.326 4.18 -0.534236 0
M  V30 6053 H 579.001 3.2312 0.193721 0
M  V30 6054 H 577.908 3.0831 -2.11886 0
M  V30 6055 H 579.241 4.06752 -2.77152 0
M  V30 6056 N 580.893 1.08022 1.14757 0
M  V30 6057 C 581.826 0.650738 2.18725 0
M  V30 6058 C 582.804 -0.335496 1.59101 0
M  V30 6059 O 583.988 -0.240295 1.86962 0
M  V30 6060 C 581.115 -0.0434377 3.38672 0
M  V30 6061 C 580.161 0.90232 4.16846 0
M  V30 6062 S 580.994 2.40693 4.78359 0
M  V30 6063 C 582.15 1.72475 6.01667 0
M  V30 6064 H 582.383 1.53152 2.54817 0
M  V30 6065 H 579.916 0.894823 1.25826 0
M  V30 6066 H 581.874 -0.437684 4.0816 0
M  V30 6067 H 580.535 -0.900659 3.0091 0
M  V30 6068 H 579.728 0.363445 5.02688 0
M  V30 6069 H 579.33 1.23728 3.52941 0
M  V30 6070 H 581.622 1.0404 6.69464 0
M  V30 6071 H 582.565 2.56175 6.60136 0
M  V30 6072 H 582.973 1.19979 5.51602 0
M  V30 6073 N 582.371 -1.3172 0.865308 0
M  V30 6074 C 583.618 -1.96876 0.473931 0
M  V30 6075 C 583.946 -1.68425 -0.972786 0
M  V30 6076 O 583.201 -0.970742 -1.69927 0
M  V30 6077 C 583.5 -3.5102 0.672283 0
M  V30 6078 C 583.166 -3.9948 2.09108 0
M  V30 6079 C 581.828 -4.12425 2.4791 0
M  V30 6080 C 584.18 -4.2503 3.0166 0
M  V30 6081 C 581.508 -4.48267 3.78515 0
M  V30 6082 C 583.86 -4.62335 4.31774 0
M  V30 6083 C 582.524 -4.73486 4.70497 0
M  V30 6084 H 581.794 -0.72042 0.173424 0
M  V30 6085 H 584.441 -1.56937 1.0974 0
M  V30 6086 H 582.746 -3.91785 -0.034356 0
M  V30 6087 H 584.443 -3.99475 0.349353 0
M  V30 6088 H 581.033 -3.89898 1.77981 0
M  V30 6089 H 585.217 -4.14529 2.7291 0
M  V30 6090 H 580.473 -4.55097 4.08285 0
M  V30 6091 H 584.647 -4.81058 5.03543 0
M  V30 6092 H 582.274 -5.01016 5.71741 0
M  V30 6093 N 583.85 -0.624285 -1.44708 0
M  V30 6094 C 585.096 -0.126237 -2.02407 0
M  V30 6095 C 585.428 1.24618 -1.48943 0
M  V30 6096 O 584.704 1.82569 -0.670742 0
M  V30 6097 C 584.986 -0.105449 -3.59946 0
M  V30 6098 C 584.84 -1.50972 -4.23707 0
M  V30 6099 C 586.159 0.573629 -4.36346 0
M  V30 6100 H 583.278 -0.0473472 -0.735478 0
M  V30 6101 H 585.92 -0.799452 -1.72362 0
M  V30 6102 H 584.07 0.46783 -3.85673 0
M  V30 6103 H 585.742 -2.13136 -4.0911 0
M  V30 6104 H 583.985 -2.0656 -3.81465 0
M  V30 6105 H 584.656 -1.44727 -5.32689 0
M  V30 6106 H 587.132 0.0861787 -4.16011 0
M  V30 6107 H 586.008 0.557338 -5.46063 0
M  V30 6108 H 586.269 1.64276 -4.10446 0
M  V30 6109 N 585.328 1.53329 -0.364422 0
M  V30 6110 C 586.575 2.01239 0.225634 0
M  V30 6111 C 586.903 1.25172 1.48869 0
M  V30 6112 O 586.158 0.333289 1.92841 0
M  V30 6113 C 586.457 3.52911 0.564661 0
M  V30 6114 C 586.123 4.46837 -0.603936 0
M  V30 6115 C 584.785 4.72234 -0.924585 0
M  V30 6116 C 587.137 5.02409 -1.38691 0
M  V30 6117 C 584.465 5.50454 -2.0302 0
M  V30 6118 C 586.817 5.81836 -2.48293 0
M  V30 6119 C 585.481 6.0552 -2.80894 0
M  V30 6120 H 584.751 0.736386 0.0825654 0
M  V30 6121 H 587.398 1.84948 -0.496645 0
M  V30 6122 H 585.703 3.67144 1.36794 0
M  V30 6123 H 587.4 3.87455 1.03344 0
M  V30 6124 H 583.99 4.27217 -0.343983 0
M  V30 6125 H 588.174 4.82735 -1.15243 0
M  V30 6126 H 583.43 5.67024 -2.28678 0
M  V30 6127 H 587.604 6.23905 -3.0938 0
M  V30 6128 H 585.231 6.65916 -3.66688 0
M  V30 6129 N 586.806 0.0935595 1.57322 0
M  V30 6130 C 587.753 -0.865935 2.1394 0
M  V30 6131 C 588.723 -1.28083 1.05754 0
M  V30 6132 O 589.908 -1.36285 1.33533 0
M  V30 6133 C 587.048 -2.12023 2.72287 0
M  V30 6134 C 586.161 -1.756 3.94701 0
M  V30 6135 C 585.296 -2.95804 4.41218 0
M  V30 6136 C 584.335 -2.555 5.56225 0
M  V30 6137 N 583.472 -3.68534 5.97601 0
M  V30 6138 H 588.312 -0.376261 2.95615 0
M  V30 6139 H 585.849 -0.174052 1.46067 0
M  V30 6140 H 587.807 -2.85477 3.04235 0
M  V30 6141 H 586.437 -2.58492 1.93343 0
M  V30 6142 H 585.489 -0.921208 3.69077 0
M  V30 6143 H 586.801 -1.41964 4.78171 0
M  V30 6144 H 585.955 -3.77513 4.74941 0
M  V30 6145 H 584.694 -3.32649 3.56645 0
M  V30 6146 H 583.699 -1.72218 5.22131 0
M  V30 6147 H 584.924 -2.19801 6.42545 0
M  V30 6148 H 582.87 -4.051 5.15974 0
M  V30 6149 H 582.787 -3.38737 6.75865 0
M  V30 6150 H 584.055 -4.50757 6.35955 0
M  V30 6151 N 588.284 -1.56567 -0.180126 0
M  V30 6152 C 589.561 -1.7235 -0.924931 0
M  V30 6153 C 589.941 -0.652523 -2.00762 0
M  V30 6154 O 589.289 0.334115 -2.26044 0
M  V30 6155 C 589.499 -3.1523 -1.49771 0
M  V30 6156 C 590.847 -3.75921 -1.97405 0
M  V30 6157 O 591.871 -3.18452 -1.59583 0
M  V30 6158 O 590.73 -4.7681 -2.67048 0
M  V30 6159 H 587.824 -0.703502 -0.434758 0
M  V30 6160 H 590.37 -1.6886 -0.168647 0
M  V30 6161 H 589.142 -3.84656 -0.718027 0
M  V30 6162 H 588.765 -3.23009 -2.31842 0
M  V30 6163 N 589.762 0.448376 -1.51087 0
M  V30 6164 C 591.178 0.783984 -1.39017 0
M  V30 6165 C 591.378 1.96087 -0.463904 0
M  V30 6166 O 590.434 2.52357 0.0850534 0
M  V30 6167 C 591.747 1.07471 -2.80839 0
M  V30 6168 C 593.295 1.17981 -2.89913 0
M  V30 6169 C 593.77 1.50354 -4.32617 0
M  V30 6170 N 595.261 1.57301 -4.35673 0
M  V30 6171 C 595.996 1.839 -5.4311 0
M  V30 6172 N 595.492 2.08365 -6.60724 0
M  V30 6173 N 597.285 1.8559 -5.30578 0
M  V30 6174 H 589.436 -0.326881 -2.0987 0
M  V30 6175 H 591.699 -0.0838006 -0.944289 0
M  V30 6176 H 591.405 0.282768 -3.50561 0
M  V30 6177 H 591.279 2.00519 -3.19487 0
M  V30 6178 H 593.666 1.9624 -2.20395 0
M  V30 6179 H 593.747 0.228603 -2.54776 0
M  V30 6180 H 593.391 0.726273 -5.0268 0
M  V30 6181 H 593.321 2.46663 -4.65258 0
M  V30 6182 H 595.812 1.40342 -3.50874 0
M  V30 6183 H 596.125 2.27999 -7.38401 0
M  V30 6184 H 594.47 2.0571 -6.63859 0
M  V30 6185 H 597.661 1.65989 -4.37682 0
M  V30 6186 H 597.834 2.05983 -6.1439 0
M  V30 6187 N 591.24 1.41047 0.703093 0
M  V30 6188 C 592.486 1.41209 1.46396 0
M  V30 6189 C 592.841 0.0180188 1.92392 0
M  V30 6190 O 592.134 -0.954739 1.66118 0
M  V30 6191 C 592.328 2.34686 2.6955 0
M  V30 6192 C 592.157 3.83044 2.35601 0
M  V30 6193 C 590.927 4.51777 2.26331 0
M  V30 6194 C 593.125 4.74215 1.9906 0
M  V30 6195 N 591.107 5.85302 1.85188 0
M  V30 6196 C 592.478 5.96631 1.68616 0
M  V30 6197 C 594.533 4.61932 1.85805 0
M  V30 6198 C 593.236 7.08134 1.26249 0
M  V30 6199 C 595.262 5.73389 1.44842 0
M  V30 6200 C 594.624 6.94899 1.15304 0
M  V30 6201 H 590.723 0.571951 0.533288 0
M  V30 6202 H 593.307 1.76859 0.814179 0
M  V30 6203 H 591.478 2.01143 3.32259 0
M  V30 6204 H 593.21 2.25618 3.35974 0
M  V30 6205 H 589.965 4.05618 2.44482 0
M  V30 6206 H 590.389 6.56049 1.67119 0
M  V30 6207 H 595.031 3.68494 2.07298 0
M  V30 6208 H 592.749 8.01445 1.035 0
M  V30 6209 H 596.335 5.65886 1.35146 0
M  V30 6210 H 595.215 7.79679 0.840854 0
M  V30 6211 N 592.718 -0.936591 1.26751 0
M  V30 6212 C 593.965 -1.68331 1.12566 0
M  V30 6213 C 594.293 -1.91677 -0.330168 0
M  V30 6214 O 593.548 -1.49859 -1.2586 0
M  V30 6215 C 593.847 -3.06099 1.84494 0
M  V30 6216 C 593.513 -3.02493 3.34378 0
M  V30 6217 C 592.175 -3.01217 3.75262 0
M  V30 6218 C 594.527 -2.94453 4.30055 0
M  V30 6219 C 591.855 -2.89672 5.10203 0
M  V30 6220 C 594.207 -2.84449 5.65041 0
M  V30 6221 C 592.871 -2.81518 6.0523 0
M  V30 6222 H 592.141 -0.615965 0.411907 0
M  V30 6223 H 594.788 -1.09292 1.5725 0
M  V30 6224 H 593.093 -3.6879 1.32292 0
M  V30 6225 H 594.79 -3.62733 1.70955 0
M  V30 6226 H 591.38 -3.04269 3.01858 0
M  V30 6227 H 595.564 -2.94544 3.99447 0
M  V30 6228 H 590.82 -2.85783 5.40498 0
M  V30 6229 H 594.994 -2.77192 6.38856 0
M  V30 6230 H 592.621 -2.72329 7.09747 0
M  V30 6231 N 594.196 -1.08629 -1.14182 0
M  V30 6232 C 595.442 -0.828415 -1.85766 0
M  V30 6233 C 595.797 0.638947 -1.81481 0
M  V30 6234 O 595.09 1.46386 -1.23619 0
M  V30 6235 C 595.284 -1.28734 -3.3341 0
M  V30 6236 C 595.113 -2.79778 -3.52071 0
M  V30 6237 C 593.883 -3.47554 -3.66789 0
M  V30 6238 C 596.081 -3.77945 -3.48801 0
M  V30 6239 N 594.063 -4.87107 -3.73631 0
M  V30 6240 C 595.434 -5.03406 -3.61914 0
M  V30 6241 C 597.489 -3.70917 -3.32152 0
M  V30 6242 C 596.192 -6.22673 -3.60098 0
M  V30 6243 C 598.218 -4.89662 -3.31641 0
M  V30 6244 C 597.58 -6.13962 -3.45296 0
M  V30 6245 H 593.679 -0.355884 -0.696327 0
M  V30 6246 H 596.263 -1.38508 -1.36834 0
M  V30 6247 H 594.434 -0.75822 -3.80927 0
M  V30 6248 H 596.166 -0.975649 -3.92764 0
M  V30 6249 H 592.921 -2.97972 -3.68116 0
M  V30 6250 H 593.345 -5.59775 -3.80763 0
M  V30 6251 H 597.987 -2.75749 -3.20504 0
M  V30 6252 H 595.705 -7.1815 -3.70522 0
M  V30 6253 H 599.291 -4.85914 -3.19968 0
M  V30 6254 H 598.171 -7.04307 -3.44851 0
M  V30 6255 N 595.674 1.31259 -0.872281 0
M  V30 6256 C 597.09 1.49283 -0.564521 0
M  V30 6257 C 597.29 1.80243 0.900807 0
M  V30 6258 O 596.346 1.88246 1.68284 0
M  V30 6259 C 597.659 2.62503 -1.46673 0
M  V30 6260 C 599.207 2.76386 -1.46901 0
M  V30 6261 C 599.682 3.92705 -2.35684 0
M  V30 6262 N 601.173 3.99995 -2.33577 0
M  V30 6263 C 601.908 4.89276 -2.98992 0
M  V30 6264 N 601.404 5.83443 -3.73585 0
M  V30 6265 N 603.197 4.82541 -2.88289 0
M  V30 6266 H 595.348 1.09432 -1.82039 0
M  V30 6267 H 597.611 0.540949 -0.77851 0
M  V30 6268 H 597.317 2.46407 -2.50951 0
M  V30 6269 H 597.191 3.58695 -1.16696 0
M  V30 6270 H 599.578 2.91894 -0.433796 0
M  V30 6271 H 599.659 1.80853 -1.80903 0
M  V30 6272 H 599.303 3.77954 -3.39283 0
M  V30 6273 H 599.233 4.87549 -1.99006 0
M  V30 6274 H 601.724 3.32624 -1.7936 0
M  V30 6275 H 602.037 6.48303 -4.20622 0
M  V30 6276 H 600.382 5.83415 -3.77694 0
M  V30 6277 H 603.573 4.07951 -2.2955 0
M  V30 6278 H 603.746 5.51916 -3.39549 0
M  V30 6279 N 597.152 0.631951 1.44375 0
M  V30 6280 C 598.082 -0.0593243 2.33425 0
M  V30 6281 C 599.063 -0.833964 1.48253 0
M  V30 6282 O 600.248 -0.799682 1.76971 0
M  V30 6283 C 597.378 -1.04096 3.31333 0
M  V30 6284 C 596.332 -0.377899 4.26328 0
M  V30 6285 C 595.658 -1.4695 5.14111 0
M  V30 6286 C 596.958 0.716371 5.17364 0
M  V30 6287 H 598.652 0.684287 2.91475 0
M  V30 6288 H 596.198 0.330518 1.40156 0
M  V30 6289 H 598.151 -1.53331 3.92514 0
M  V30 6290 H 596.875 -1.81547 2.71493 0
M  V30 6291 H 595.534 0.0938054 3.6648 0
M  V30 6292 H 595.182 -2.2349 4.50623 0
M  V30 6293 H 594.882 -1.03121 5.78481 0
M  V30 6294 H 596.406 -1.96363 5.78164 0
M  V30 6295 H 597.82 0.307089 5.72477 0
M  V30 6296 H 596.217 1.07784 5.90341 0
M  V30 6297 H 597.287 1.58316 4.58327 0
M  V30 6298 N 598.631 -1.53133 0.372548 0
M  V30 6299 C 600.047 -1.59585 0.02178 0
M  V30 6300 C 600.247 -1.38736 -1.46132 0
M  V30 6301 O 599.303 -1.19599 -2.22379 0
M  V30 6302 C 600.616 -2.9678 0.483959 0
M  V30 6303 C 602.164 -3.09909 0.438775 0
M  V30 6304 C 602.639 -4.49527 0.876876 0
M  V30 6305 N 604.13 -4.55663 0.832214 0
M  V30 6306 C 604.865 -5.61896 1.14281 0
M  V30 6307 N 604.361 -6.75852 1.52303 0
M  V30 6308 N 606.154 -5.51916 1.06515 0
M  V30 6309 H 598.305 -1.64936 1.33827 0
M  V30 6310 H 600.568 -0.773947 0.547458 0
M  V30 6311 H 600.274 -3.17198 1.51915 0
M  V30 6312 H 600.148 -3.7699 -0.125784 0
M  V30 6313 H 602.535 -2.89197 -0.587294 0
M  V30 6314 H 602.616 -2.31691 1.0841 0
M  V30 6315 H 602.26 -4.70979 1.90109 0
M  V30 6316 H 602.19 -5.26186 0.208727 0
M  V30 6317 H 604.681 -3.73844 0.552195 0
M  V30 6318 H 604.994 -7.52862 1.7441 0
M  V30 6319 H 603.339 -6.77226 1.56175 0
M  V30 6320 H 606.53 -4.6177 0.767235 0
M  V30 6321 H 606.703 -6.34609 1.31053 0
M  V30 6322 N 600.109 -0.101901 -1.5727 0
M  V30 6323 C 601.057 0.872034 -2.15635 0
M  V30 6324 C 602.051 1.28742 -1.10099 0
M  V30 6325 O 603.257 1.26116 -1.28432 0
M  V30 6326 H 599.632 0.299269 -0.689886 0
M  V30 6327 H 601.603 0.355137 -2.96279 0
M  V30 6328 C 600.352 2.11886 -2.7568 0
M  V30 6329 H 599.675 1.80813 -3.56576 0
M  V30 6330 H 601.115 2.78077 -3.20077 0
M  V30 6331 C 599.574 2.89739 -1.7191 0
M  V30 6332 O 600.104 3.84522 -1.16213 0
M  V30 6333 N 598.31 2.53407 -1.42245 0
M  V30 6334 H 597.857 1.76398 -1.87727 0
M  V30 6335 H 597.815 3.05795 -0.730529 0
M  V30 6336 N 601.587 1.56661 0.17182 0
M  V30 6337 C 602.535 1.97289 1.23207 0
M  V30 6338 C 603.529 0.861566 1.45854 0
M  V30 6339 O 604.735 1.04668 1.4644 0
M  V30 6340 H 601.11 0.627681 0.41415 0
M  V30 6341 H 603.081 2.85662 0.862542 0
M  V30 6342 C 601.83 2.34849 2.564 0
M  V30 6343 H 601.153 3.19903 2.39797 0
M  V30 6344 H 602.593 2.67121 3.29276 0
M  V30 6345 C 601.052 1.19172 3.15119 0
M  V30 6346 O 601.582 0.479113 3.98833 0
M  V30 6347 N 599.788 0.962415 2.74201 0
M  V30 6348 H 599.335 1.54365 2.06226 0
M  V30 6349 H 599.293 0.190272 3.13824 0
M  V30 6350 N 603.065 -0.440357 1.51323 0
M  V30 6351 C 604.481 -0.7766 1.39431 0
M  V30 6352 C 604.681 -1.95838 0.474296 0
M  V30 6353 O 603.737 -2.52398 -0.0716692 0
M  V30 6354 C 605.05 -1.05981 2.81405 0
M  V30 6355 C 606.598 -1.16442 2.90534 0
M  V30 6356 C 607.073 -1.48058 4.33408 0
M  V30 6357 N 608.564 -1.54988 4.36501 0
M  V30 6358 C 609.299 -1.81017 5.44078 0
M  V30 6359 N 608.795 -2.04858 6.61819 0
M  V30 6360 N 610.588 -1.82774 5.31554 0
M  V30 6361 H 602.739 0.338006 2.09693 0
M  V30 6362 H 605.002 0.0888072 0.943831 0
M  V30 6363 H 604.708 -0.264173 3.50706 0
M  V30 6364 H 604.582 -1.98822 3.20546 0
M  V30 6365 H 606.969 -1.95068 2.21432 0
M  V30 6366 H 607.05 -0.215088 2.54894 0
M  V30 6367 H 606.694 -0.699605 5.03059 0
M  V30 6368 H 606.624 -2.44192 4.66559 0
M  V30 6369 H 609.115 -1.38479 3.51613 0
M  V30 6370 H 609.428 -2.2408 7.396 0
M  V30 6371 H 607.773 -2.02187 6.6494 0
M  V30 6372 H 610.964 -1.63665 4.38556 0
M  V30 6373 H 611.137 -2.02722 6.15474 0
M  V30 6374 N 604.543 -1.41418 -0.695603 0
M  V30 6375 C 605.789 -1.40982 -1.4578 0
M  V30 6376 C 606.122 -0.0187763 -1.94191 0
M  V30 6377 O 605.397 0.95346 -1.69527 0
M  V30 6378 C 605.68 -2.41657 -2.66972 0
M  V30 6379 C 605.533 -3.89869 -2.24327 0
M  V30 6380 C 606.852 -2.39589 -3.69168 0
M  V30 6381 H 603.971 -0.513405 -0.528757 0
M  V30 6382 H 606.613 -1.72693 -0.792275 0
M  V30 6383 H 604.763 -2.14746 -3.23754 0
M  V30 6384 H 606.435 -4.27683 -1.72872 0
M  V30 6385 H 604.678 -4.04737 -1.56111 0
M  V30 6386 H 605.349 -4.55857 -3.11285 0
M  V30 6387 H 607.825 -2.63471 -3.2206 0
M  V30 6388 H 606.701 -3.12044 -4.51575 0
M  V30 6389 H 606.962 -1.41447 -4.18862 0
M  V30 6390 N 606.021 0.929856 -1.27246 0
M  V30 6391 C 606.953 2.03434 -1.0558 0
M  V30 6392 C 607.966 1.62795 -0.0125762 0
M  V30 6393 O 609.155 1.76685 -0.2539 0
M  V30 6394 C 606.255 3.33915 -0.57912 0
M  V30 6395 C 605.428 4.03259 -1.69415 0
M  V30 6396 C 604.487 5.12014 -1.21357 0
M  V30 6397 O 603.513 5.36097 -1.91282 0
M  V30 6398 N 604.715 5.8046 -0.0680622 0
M  V30 6399 H 607.48 2.22583 -2.00691 0
M  V30 6400 H 605.041 1.1001 -1.18783 0
M  V30 6401 H 607.033 4.03978 -0.241563 0
M  V30 6402 H 605.603 3.11355 0.278703 0
M  V30 6403 H 604.823 3.26958 -2.20209 0
M  V30 6404 H 606.111 4.46337 -2.44255 0
M  V30 6405 H 605.509 5.63345 0.515626 0
M  V30 6406 H 604.066 6.51461 0.210332 0
M  V30 6407 N 607.499 1.09233 1.13605 0
M  V30 6408 C 608.409 0.741939 2.22559 0
M  V30 6409 C 609.425 -0.255236 1.72118 0
M  V30 6410 O 610.601 -0.0970747 2.01166 0
M  V30 6411 C 607.666 0.165595 3.46304 0
M  V30 6412 C 606.727 1.21846 4.11645 0
M  V30 6413 C 605.96 0.669526 5.29484 0
M  V30 6414 O 606.183 -0.508228 5.68131 0
M  V30 6415 O 605.117 1.42361 5.84822 0
M  V30 6416 H 608.943 1.65107 2.54899 0
M  V30 6417 H 606.528 0.866584 1.21699 0
M  V30 6418 H 608.41 -0.152592 4.21124 0
M  V30 6419 H 607.085 -0.716573 3.15669 0
M  V30 6420 H 605.992 1.58931 3.38662 0
M  V30 6421 H 607.325 2.07321 4.46407 0
M  V30 6422 N 608.977 -1.30795 0.87923 0
M  V30 6423 C 610.225 -1.95974 0.493809 0
M  V30 6424 C 610.546 -1.69787 -0.959021 0
M  V30 6425 O 609.816 -1.01832 -1.67353 0
M  V30 6426 H 608.396 -0.725083 0.179622 0
M  V30 6427 H 611.058 -1.59432 1.12105 0
M  V30 6428 H 610.154 -3.05058 0.659263 0
M  V30 6429 N 610.455 -0.639598 -1.44038 0
M  V30 6430 C 611.685 -0.154586 -2.06021 0
M  V30 6431 C 612.093 1.17951 -1.47933 0
M  V30 6432 O 611.436 1.73627 -0.59994 0
M  V30 6433 C 611.498 0.0255459 -3.59491 0
M  V30 6434 C 611.162 -1.2317 -4.40089 0
M  V30 6435 C 612.159 -2.15735 -4.73027 0
M  V30 6436 C 609.844 -1.46949 -4.80324 0
M  V30 6437 C 611.838 -3.30382 -5.45093 0
M  V30 6438 C 609.525 -2.61891 -5.52138 0
M  V30 6439 C 610.523 -3.53433 -5.84443 0
M  V30 6440 O 610.211 -4.6637 -6.54793 0
M  V30 6441 H 609.943 -0.0808543 -0.671147 0
M  V30 6442 H 612.497 -0.876541 -1.85758 0
M  V30 6443 H 610.727 0.802733 -3.78276 0
M  V30 6444 H 612.416 0.466184 -4.03214 0
M  V30 6445 H 613.182 -1.98602 -4.42473 0
M  V30 6446 H 609.061 -0.765815 -4.54595 0
M  V30 6447 H 612.605 -4.01856 -5.70226 0
M  V30 6448 H 608.502 -2.78964 -5.82108 0
M  V30 6449 H 609.27 -4.6546 -6.73267 0
M  V30 6450 N 611.933 1.52934 -0.380664 0
M  V30 6451 C 613.344 1.86457 0.0952684 0
M  V30 6452 C 613.695 1.3007 1.46889 0
M  V30 6453 O 612.82 0.628636 2.07068 0
M  V30 6454 C 613.415 3.38323 0.179648 0
M  V30 6455 C 611.974 3.71589 0.599858 0
M  V30 6456 C 611.121 2.76228 -0.243572 0
M  V30 6457 H 614.072 1.46966 -0.59888 0
M  V30 6458 H 614.093 3.67113 1.00042 0
M  V30 6459 H 613.605 3.79333 -0.820228 0
M  V30 6460 H 611.706 3.36144 1.60742 0
M  V30 6461 H 611.819 4.77715 0.364003 0
M  V30 6462 H 610.183 2.53045 0.289855 0
M  V30 6463 H 610.966 3.20074 -1.24127 0
M  V30 6464 N 613.412 0.11024 1.57214 0
M  V30 6465 C 614.345 -0.880224 2.1054 0
M  V30 6466 C 615.323 -1.26658 1.01964 0
M  V30 6467 O 616.507 -1.36917 1.29561 0
M  V30 6468 C 613.634 -2.17676 2.59489 0
M  V30 6469 C 612.68 -1.93914 3.79868 0
M  V30 6470 S 613.513 -1.16336 5.2271 0
M  V30 6471 C 614.669 -2.47188 5.75021 0
M  V30 6472 H 614.902 -0.426614 2.94223 0
M  V30 6473 H 612.435 -0.10336 1.54054 0
M  V30 6474 H 614.393 -2.92175 2.88347 0
M  V30 6475 H 613.054 -2.60156 1.76005 0
M  V30 6476 H 612.247 -2.8996 4.12236 0
M  V30 6477 H 611.849 -1.27539 3.51582 0
M  V30 6478 H 614.141 -3.43079 5.84211 0
M  V30 6479 H 615.084 -2.19377 6.7326 0
M  V30 6480 H 615.492 -2.56154 5.03036 0
M  V30 6481 N 614.89 -1.56749 -0.16351 0
M  V30 6482 C 615.822 -1.93587 -1.22705 0
M  V30 6483 C 616.835 -0.829824 -1.40063 0
M  V30 6484 O 618.024 -1.10826 -1.39928 0
M  V30 6485 C 615.124 -2.1803 -2.59454 0
M  V30 6486 C 614.297 -3.4928 -2.63292 0
M  V30 6487 C 613.356 -3.62457 -3.8146 0
M  V30 6488 O 612.382 -4.35004 -3.67096 0
M  V30 6489 N 613.584 -2.97888 -4.9824 0
M  V30 6490 H 616.349 -2.8542 -0.914081 0
M  V30 6491 H 613.91 -1.58 -0.353214 0
M  V30 6492 H 615.902 -2.24102 -3.36987 0
M  V30 6493 H 614.472 -1.32543 -2.8311 0
M  V30 6494 H 613.692 -3.54795 -1.71796 0
M  V30 6495 H 614.98 -4.35632 -2.62873 0
M  V30 6496 H 614.378 -2.38833 -5.12811 0
M  V30 6497 H 612.935 -3.09545 -5.73607 0
M  V30 6498 N 616.368 0.432326 -1.51554 0
M  V30 6499 C 617.617 1.17831 -1.63703 0
M  V30 6500 C 617.93 1.92229 -0.36156 0
M  V30 6501 O 619.136 2.69069 -0.362495 0
M  V30 6502 C 617.592 2.14318 -2.89129 0
M  V30 6503 C 617.2 1.45544 -4.23699 0
M  V30 6504 C 618.944 2.89319 -3.10636 0
M  V30 6505 C 616.851 2.40545 -5.4027 0
M  V30 6506 H 615.781 0.443533 -0.60975 0
M  V30 6507 H 618.432 0.444878 -1.78026 0
M  V30 6508 H 616.814 2.91117 -2.68452 0
M  V30 6509 H 617.988 0.742693 -4.54775 0
M  V30 6510 H 616.303 0.826772 -4.0811 0
M  V30 6511 H 618.9 3.60495 -3.94902 0
M  V30 6512 H 619.243 3.50951 -2.23918 0
M  V30 6513 H 619.776 2.19625 -3.31677 0
M  V30 6514 H 616.515 1.83594 -6.29264 0
M  V30 6515 H 616.035 3.09859 -5.13563 0
M  V30 6516 H 617.714 3.01569 -5.72421 0
M  V30 6517 N 617.846 1.41785 0.688094 0
M  V30 6518 C 618.756 1.46596 1.83158 0
M  V30 6519 C 619.772 0.355862 1.70322 0
M  V30 6520 O 620.948 0.604737 1.92106 0
M  V30 6521 C 618.013 1.35322 3.192 0
M  V30 6522 C 617.074 2.56711 3.4409 0
M  V30 6523 C 616.307 2.45965 4.73642 0
M  V30 6524 O 616.53 1.48827 5.50642 0
M  V30 6525 O 615.464 3.35859 4.99482 0
M  V30 6526 H 619.29 2.43083 1.82056 0
M  V30 6527 H 616.875 1.23404 0.842126 0
M  V30 6528 H 618.757 1.31347 4.00407 0
M  V30 6529 H 617.432 0.419536 3.2097 0
M  V30 6530 H 616.339 2.66262 2.62784 0
M  V30 6531 H 617.672 3.48933 3.47141 0
M  V30 6532 N 619.324 -0.923095 1.27737 0
M  V30 6533 C 620.256 -2.02871 1.06658 0
M  V30 6534 C 621.269 -1.62786 0.0212095 0
M  V30 6535 O 622.458 -1.76548 0.263267 0
M  V30 6536 C 619.558 -3.33603 0.59682 0
M  V30 6537 C 618.731 -4.02354 1.71551 0
M  V30 6538 C 617.79 -5.11364 1.24071 0
M  V30 6539 O 616.816 -5.35075 1.94123 0
M  V30 6540 N 618.018 -5.80416 0.0988444 0
M  V30 6541 H 620.783 -2.21515 2.01869 0
M  V30 6542 H 618.344 -1.09378 1.19365 0
M  V30 6543 H 620.336 -4.03845 0.262984 0
M  V30 6544 H 618.906 -3.11499 -0.262187 0
M  V30 6545 H 618.126 -3.25786 2.2194 0
M  V30 6546 H 619.414 -4.45035 2.46619 0
M  V30 6547 H 618.812 -5.63611 -0.485743 0
M  V30 6548 H 617.369 -6.51563 -0.17578 0
M  V30 6549 N 620.802 -1.09834 -1.13024 0
M  V30 6550 C 622.049 -0.83695 -1.84395 0
M  V30 6551 C 622.377 0.637463 -1.83757 0
M  V30 6552 O 621.632 1.48554 -1.27398 0
M  V30 6553 C 621.931 -1.32263 -3.32026 0
M  V30 6554 C 621.597 -2.80739 -3.52841 0
M  V30 6555 C 620.259 -3.21286 -3.5823 0
M  V30 6556 C 622.611 -3.76449 -3.60466 0
M  V30 6557 C 619.939 -4.56308 -3.68781 0
M  V30 6558 C 622.291 -5.11266 -3.72546 0
M  V30 6559 C 620.955 -5.51397 -3.76189 0
M  V30 6560 H 620.225 -0.306262 -0.674748 0
M  V30 6561 H 622.872 -1.37385 -1.33408 0
M  V30 6562 H 621.177 -0.705618 -3.85394 0
M  V30 6563 H 622.874 -1.09695 -3.85705 0
M  V30 6564 H 619.464 -2.48363 -3.49305 0
M  V30 6565 H 623.648 -3.46234 -3.55578 0
M  V30 6566 H 618.904 -4.86832 -3.69871 0
M  V30 6567 H 623.078 -5.85279 -3.77388 0
M  V30 6568 H 620.705 -6.56017 -3.84117 0
M  V30 6569 N 622.28 1.30327 -0.886154 0
M  V30 6570 C 623.526 1.96764 -0.515312 0
M  V30 6571 C 623.881 1.68675 0.925552 0
M  V30 6572 O 623.174 0.981693 1.6454 0
M  V30 6573 C 623.368 3.49906 -0.728042 0
M  V30 6574 C 623.197 3.92881 -2.18803 0
M  V30 6575 C 621.967 4.18424 -2.83284 0
M  V30 6576 C 624.165 4.05617 -3.16195 0
M  V30 6577 N 622.147 4.47867 -4.19867 0
M  V30 6578 C 623.518 4.38957 -4.37855 0
M  V30 6579 C 625.573 3.88047 -3.11968 0
M  V30 6580 C 624.276 4.56559 -5.55829 0
M  V30 6581 C 626.302 4.06851 -4.29215 0
M  V30 6582 C 625.664 4.40538 -5.49641 0
M  V30 6583 H 621.763 0.74493 -0.237916 0
M  V30 6584 H 624.347 1.57536 -1.14414 0
M  V30 6585 H 622.518 3.88187 -0.128696 0
M  V30 6586 H 624.25 4.03401 -0.323983 0
M  V30 6587 H 621.005 4.1167 -2.34146 0
M  V30 6588 H 621.429 4.66721 -4.90408 0
M  V30 6589 H 626.071 3.61078 -2.19961 0
M  V30 6590 H 623.789 4.8237 -6.4834 0
M  V30 6591 H 627.375 3.94724 -4.27416 0
M  V30 6592 H 626.255 4.54789 -6.38856 0
M  V30 6593 N 623.758 0.647228 1.43697 0
M  V30 6594 C 624.705 -0.0480092 2.3075 0
M  V30 6595 C 625.675 -0.820705 1.44408 0
M  V30 6596 O 626.86 -0.798515 1.73287 0
M  V30 6597 C 624 -1.01259 3.2991 0
M  V30 6598 C 623.113 -0.236629 4.31351 0
M  V30 6599 C 622.248 -1.19447 5.17596 0
M  V30 6600 C 621.287 -0.408595 6.10735 0
M  V30 6601 N 620.424 -1.31772 6.89623 0
M  V30 6602 H 625.264 0.700238 2.89656 0
M  V30 6603 H 622.801 0.357082 1.427 0
M  V30 6604 H 624.759 -1.58538 3.85903 0
M  V30 6605 H 623.389 -1.72778 2.72667 0
M  V30 6606 H 622.441 0.452353 3.77701 0
M  V30 6607 H 623.753 0.374731 4.9739 0
M  V30 6608 H 622.907 -1.83809 5.78186 0
M  V30 6609 H 621.646 -1.83975 4.51669 0
M  V30 6610 H 620.651 0.24841 5.49239 0
M  V30 6611 H 621.876 0.232188 6.78703 0
M  V30 6612 H 619.822 -1.94991 6.2635 0
M  V30 6613 H 619.739 -0.760779 7.52162 0
M  V30 6614 H 621.007 -1.94967 7.54724 0
M  V30 6615 N 625.236 -1.5273 0.388769 0
M  V30 6616 C 626.484 -2.01174 -0.193208 0
M  V30 6617 C 626.805 -1.27705 -1.47365 0
M  V30 6618 O 626.075 -0.396966 -1.91836 0
M  V30 6619 H 624.655 -0.743287 -0.0743871 0
M  V30 6620 H 627.317 -1.87826 0.520336 0
M  V30 6621 H 626.413 -3.09477 -0.403803 0
M  V30 6622 N 626.714 -0.118576 -1.57153 0
M  V30 6623 C 627.644 0.828436 -2.1831 0
M  V30 6624 C 628.625 1.27758 -1.12303 0
M  V30 6625 O 629.81 1.34026 -1.40537 0
M  V30 6626 C 626.94 2.07876 -2.78217 0
M  V30 6627 C 625.894 1.76742 -3.89803 0
M  V30 6628 C 625.22 3.08801 -4.36516 0
M  V30 6629 C 626.52 1.03606 -5.11921 0
M  V30 6630 H 628.214 0.318824 -2.97698 0
M  V30 6631 H 625.76 0.151911 -1.43196 0
M  V30 6632 H 627.713 2.74584 -3.19659 0
M  V30 6633 H 626.437 2.61161 -1.96118 0
M  V30 6634 H 625.096 1.12424 -3.48936 0
M  V30 6635 H 624.744 3.6002 -3.51276 0
M  V30 6636 H 624.444 2.88743 -5.11763 0
M  V30 6637 H 625.968 3.76627 -4.80608 0
M  V30 6638 H 627.382 1.60467 -5.50385 0
M  V30 6639 H 625.779 0.936454 -5.92748 0
M  V30 6640 H 626.849 0.0227421 -4.84895 0
M  V30 6641 N 628.193 1.56834 0.155195 0
M  V30 6642 C 629.604 1.72421 0.716082 0
M  V30 6643 C 629.955 0.731685 1.82046 0
M  V30 6644 O 629.08 -0.103481 2.16152 0
M  V30 6645 C 629.675 3.12629 1.30571 0
M  V30 6646 C 628.234 3.29846 1.81325 0
M  V30 6647 C 627.381 2.68359 0.698494 0
M  V30 6648 H 630.332 1.58544 -0.0703861 0
M  V30 6649 H 630.353 3.12174 2.1755 0
M  V30 6650 H 629.865 3.84844 0.501701 0
M  V30 6651 H 627.966 2.62614 2.64319 0
M  V30 6652 H 628.079 4.37727 1.9476 0
M  V30 6653 H 626.443 2.28604 1.12305 0
M  V30 6654 H 627.226 3.43171 -0.0939366 0
M  V30 6655 N 629.671 -0.424282 1.51781 0
M  V30 6656 C 630.634 -1.49848 1.73431 0
M  V30 6657 C 631.634 -1.49016 0.604225 0
M  V30 6658 O 632.824 -1.50808 0.871935 0
M  V30 6659 C 629.956 -2.89332 1.80277 0
M  V30 6660 H 631.149 -1.3195 2.69312 0
M  V30 6661 H 628.702 -0.653809 1.41968 0
M  V30 6662 H 629.437 -3.12618 0.862568 0
M  V30 6663 H 629.222 -2.9134 2.62419 0
M  V30 6664 H 630.712 -3.67233 1.98821 0
M  V30 6665 N 631.149 -1.42148 -0.680565 0
M  V30 6666 C 632.565 -1.24947 -0.992995 0
M  V30 6667 C 632.765 -0.149527 -2.00944 0
M  V30 6668 O 631.821 0.481145 -2.47873 0
M  V30 6669 C 633.134 -2.60426 -1.5033 0
M  V30 6670 C 634.682 -2.67733 -1.62137 0
M  V30 6671 C 635.157 -4.03564 -2.16565 0
M  V30 6672 N 636.648 -4.05488 -2.23905 0
M  V30 6673 C 637.383 -5.07401 -2.67081 0
M  V30 6674 N 636.879 -6.19698 -3.09751 0
M  V30 6675 N 638.672 -4.94758 -2.66778 0
M  V30 6676 H 630.823 -2.12399 -0.0074788 0
M  V30 6677 H 633.086 -0.94571 -0.0658529 0
M  V30 6678 H 632.792 -3.41743 -0.830947 0
M  V30 6679 H 632.666 -2.83949 -2.483 0
M  V30 6680 H 635.053 -1.86765 -2.2848 0
M  V30 6681 H 635.134 -2.48004 -0.626713 0
M  V30 6682 H 634.778 -4.84987 -1.50833 0
M  V30 6683 H 634.708 -4.20641 -3.1681 0
M  V30 6684 H 637.199 -3.24415 -1.93812 0
M  V30 6685 H 637.512 -6.93318 -3.41365 0
M  V30 6686 H 635.857 -6.23212 -3.07623 0
M  V30 6687 H 639.048 -4.06105 -2.32801 0
M  V30 6688 H 639.221 -5.74317 -3.00107 0
M  V30 6689 N 632.627 0.916307 -1.28225 0
M  V30 6690 C 633.876 1.65975 -1.14608 0
M  V30 6691 C 634.189 1.93204 0.305191 0
M  V30 6692 O 635.395 2.65611 0.562432 0
M  V30 6693 C 633.851 2.98989 -2.00333 0
M  V30 6694 C 633.459 2.79417 -3.50186 0
M  V30 6695 C 635.203 3.76856 -1.95397 0
M  V30 6696 C 633.11 4.08056 -4.28071 0
M  V30 6697 H 632.04 0.622587 -0.425324 0
M  V30 6698 H 634.691 1.01705 -1.52736 0
M  V30 6699 H 633.073 3.6438 -1.5506 0
M  V30 6700 H 634.247 2.22723 -4.034 0
M  V30 6701 H 632.562 2.14966 -3.56621 0
M  V30 6702 H 635.159 4.72203 -2.50856 0
M  V30 6703 H 635.502 4.05776 -0.930137 0
M  V30 6704 H 636.035 3.1828 -2.38626 0
M  V30 6705 H 632.774 3.8431 -5.31024 0
M  V30 6706 H 632.294 4.64371 -3.79631 0
M  V30 6707 H 633.973 4.76333 -4.37854 0
M  V30 6708 N 634.105 1.10431 1.1244 0
M  V30 6709 C 635.382 0.758797 1.80282 0
M  V30 6710 C 635.762 -0.754727 1.97147 0
M  V30 6711 O 635.11 -1.68094 1.54779 0
M  V30 6712 C 635.32 1.50982 3.14651 0
M  V30 6713 C 636.668 1.68232 3.8985 0
M  V30 6714 O 637.692 1.47319 3.24308 0
M  V30 6715 O 636.551 2.02905 5.07437 0
M  V30 6716 H 633.645 0.273756 0.780376 0
M  V30 6717 H 636.191 1.20713 1.19275 0
M  V30 6718 H 634.963 2.53989 2.97666 0
M  V30 6719 H 634.586 1.05435 3.83366 0
M  V30 6720 N 635.583 -1.29855 0.893053 0
M  V30 6721 C 636.546 -2.26183 0.370687 0
M  V30 6722 C 637.546 -1.53108 -0.491385 0
M  V30 6723 O 638.736 -1.71643 -0.297386 0
M  V30 6724 C 635.868 -3.37633 -0.470827 0
M  V30 6725 H 637.061 -2.73903 1.22135 0
M  V30 6726 H 634.614 -1.41183 0.67061 0
M  V30 6727 H 635.349 -2.95241 -1.34175 0
M  V30 6728 H 635.134 -3.91825 0.146784 0
M  V30 6729 H 636.624 -4.09313 -0.827825 0
M  V30 6730 N 637.061 -0.65484 -1.43351 0
M  V30 6731 C 638.024 0.0263562 -2.29185 0
M  V30 6732 C 639.024 0.748951 -1.42293 0
M  V30 6733 O 640.214 0.589957 -1.63906 0
M  V30 6734 C 637.346 1.04806 -3.2439 0
M  V30 6735 H 638.539 -0.728883 -2.90908 0
M  V30 6736 H 636.092 -0.416149 -1.50658 0
M  V30 6737 H 636.827 1.83247 -2.67565 0
M  V30 6738 H 636.612 0.533554 -3.88453 0
M  V30 6739 H 638.102 1.52372 -3.88809 0
M  V30 6740 N 638.539 1.52521 -0.396863 0
M  V30 6741 C 639.769 2.05792 0.182485 0
M  V30 6742 C 640.177 1.26784 1.40436 0
M  V30 6743 O 639.52 0.309617 1.81072 0
M  V30 6744 C 639.582 3.54291 0.609781 0
M  V30 6745 C 639.246 4.5426 -0.499674 0
M  V30 6746 C 640.243 5.01812 -1.35944 0
M  V30 6747 C 637.928 4.97827 -0.668864 0
M  V30 6748 C 639.922 5.91562 -2.37346 0
M  V30 6749 C 637.609 5.87376 -1.68621 0
M  V30 6750 C 638.607 6.34137 -2.53692 0
M  V30 6751 O 638.295 7.21915 -3.53686 0
M  V30 6752 H 638.027 0.675362 0.0293583 0
M  V30 6753 H 640.581 1.97539 -0.56281 0
M  V30 6754 H 638.811 3.60188 1.40717 0
M  V30 6755 H 640.5 3.90267 1.11565 0
M  V30 6756 H 641.266 4.68879 -1.24008 0
M  V30 6757 H 637.145 4.60997 -0.0163971 0
M  V30 6758 H 640.689 6.27983 -3.03782 0
M  V30 6759 H 636.586 6.19723 -1.80593 0
M  V30 6760 H 637.354 7.39996 -3.49784 0
M  V30 6761 N 640.017 0.126909 1.57088 0
M  V30 6762 C 640.927 -0.833867 2.1928 0
M  V30 6763 C 641.943 -1.2868 1.17122 0
M  V30 6764 O 643.119 -1.34815 1.49622 0
M  V30 6765 C 640.184 -2.0632 2.78627 0
M  V30 6766 C 639.245 -1.66143 3.95847 0
M  V30 6767 C 638.478 -2.83217 4.52354 0
M  V30 6768 O 638.701 -3.98868 4.0775 0
M  V30 6769 O 637.635 -2.59846 5.42922 0
M  V30 6770 H 641.461 -0.334564 3.01852 0
M  V30 6771 H 639.046 -0.0991091 1.49071 0
M  V30 6772 H 640.928 -2.78304 3.16425 0
M  V30 6773 H 639.603 -2.55242 1.99082 0
M  V30 6774 H 638.51 -0.912435 3.62802 0
M  V30 6775 H 639.843 -1.21957 4.76852 0
M  V30 6776 N 641.495 -1.56914 -0.146875 0
M  V30 6777 C 642.911 -1.51582 -0.499518 0
M  V30 6778 C 643.111 -0.83535 -1.83369 0
M  V30 6779 O 642.167 -0.405932 -2.49216 0
M  V30 6780 C 643.48 -2.96349 -0.509711 0
M  V30 6781 C 645.028 -3.07288 -0.595217 0
M  V30 6782 C 645.503 -4.53562 -0.636071 0
M  V30 6783 N 646.994 -4.57906 -0.69829 0
M  V30 6784 C 647.729 -5.68462 -0.750886 0
M  V30 6785 N 647.225 -6.88588 -0.76282 0
M  V30 6786 N 649.018 -5.56496 -0.791777 0
M  V30 6787 H 641.169 -1.99547 0.727656 0
M  V30 6788 H 643.432 -0.910113 0.265327 0
M  V30 6789 H 643.138 -3.4939 0.402409 0
M  V30 6790 H 643.012 -3.52307 -1.34758 0
M  V30 6791 H 645.399 -2.54266 -1.49776 0
M  V30 6792 H 645.48 -2.54373 0.2698 0
M  V30 6793 H 645.124 -5.07222 0.262313 0
M  V30 6794 H 645.054 -5.04259 -1.51758 0
M  V30 6795 H 647.545 -3.71429 -0.696362 0
M  V30 6796 H 647.858 -7.68598 -0.804804 0
M  V30 6797 H 646.203 -6.91148 -0.730694 0
M  V30 6798 H 649.394 -4.61562 -0.779624 0
M  V30 6799 H 649.567 -6.42671 -0.829301 0
M  V30 6800 N 642.974 0.416227 -1.52004 0
M  V30 6801 C 643.937 1.48926 -1.74223 0
M  V30 6802 C 644.937 1.48693 -0.612119 0
M  V30 6803 O 646.127 1.50343 -0.879921 0
M  V30 6804 C 643.259 2.88372 -1.81809 0
M  V30 6805 H 644.452 1.3052 -2.70008 0
M  V30 6806 H 642.005 0.646271 -1.42313 0
M  V30 6807 H 642.74 3.12157 -0.879135 0
M  V30 6808 H 642.525 2.89944 -2.6396 0
M  V30 6809 H 644.015 3.66173 -2.00766 0
M  V30 6810 N 644.452 1.42507 0.673017 0
M  V30 6811 C 645.729 1.33554 1.42908 0
M  V30 6812 C 646.109 -0.0262211 2.11084 0
M  V30 6813 O 645.457 -1.04181 2.03368 0
M  V30 6814 C 645.667 2.50498 2.43006 0
M  V30 6815 C 647.015 2.92694 3.07596 0
M  V30 6816 O 648.039 2.50401 2.53333 0
M  V30 6817 O 646.898 3.65899 4.05931 0
M  V30 6818 H 643.992 0.526785 0.637516 0
M  V30 6819 H 646.538 1.54518 0.701591 0
M  V30 6820 H 645.31 3.41272 1.9144 0
M  V30 6821 H 644.933 2.3153 3.23233 0
M  V30 6822 N 645.93 -0.909495 1.28709 0
M  V30 6823 C 647.178 -1.65577 1.15882 0
M  V30 6824 C 647.499 -1.928 -0.292108 0
M  V30 6825 O 646.769 -1.54716 -1.20166 0
M  V30 6826 H 645.349 -0.613714 0.425869 0
M  V30 6827 H 648.011 -1.09108 1.61498 0
M  V30 6828 H 647.107 -2.61634 1.70159 0
M  V30 6829 N 647.408 -1.11026 -1.11852 0
M  V30 6830 C 648.824 -0.843294 -1.35502 0
M  V30 6831 C 649.024 0.534179 -1.9429 0
M  V30 6832 O 648.08 1.28585 -2.17307 0
M  V30 6833 C 649.393 -1.94793 -2.29077 0
M  V30 6834 C 650.941 -1.97709 -2.42652 0
M  V30 6835 C 651.416 -3.07364 -3.39546 0
M  V30 6836 N 652.907 -3.0671 -3.47107 0
M  V30 6837 C 653.642 -3.88197 -4.22008 0
M  V30 6838 N 653.138 -4.79635 -4.99922 0
M  V30 6839 N 654.931 -3.76391 -4.17476 0
M  V30 6840 H 647.082 -1.99805 -0.720538 0
M  V30 6841 H 649.345 -0.868633 -0.379711 0
M  V30 6842 H 649.051 -2.93971 -1.93065 0
M  V30 6843 H 648.925 -1.84039 -3.29256 0
M  V30 6844 H 651.312 -0.991604 -2.77941 0
M  V30 6845 H 651.393 -2.1254 -1.4234 0
M  V30 6846 H 651.037 -4.06136 -3.04985 0
M  V30 6847 H 650.967 -2.89774 -4.39703 0
M  V30 6848 H 653.458 -2.40457 -2.91528 0
M  V30 6849 H 653.771 -5.38357 -5.54429 0
M  V30 6850 H 652.116 -4.8366 -4.99097 0
M  V30 6851 H 655.307 -3.04303 -3.55693 0
M  V30 6852 H 655.48 -4.40131 -4.75593 0
M  V30 6853 N 648.886 1.2938 -0.899927 0
M  V30 6854 C 650.133 1.9555 -0.525963 0
M  V30 6855 C 650.461 1.70945 0.927789 0
M  V30 6856 O 649.716 1.01545 1.67293 0
M  V30 6857 C 650.015 3.49114 -0.765113 0
M  V30 6858 C 649.681 3.93796 -2.19626 0
M  V30 6859 C 648.343 4.05707 -2.58758 0
M  V30 6860 C 650.695 4.16883 -3.12823 0
M  V30 6861 C 648.023 4.38074 -3.90267 0
M  V30 6862 C 650.375 4.50725 -4.4388 0
M  V30 6863 C 649.039 4.60845 -4.82885 0
M  V30 6864 H 648.309 0.715569 -0.192463 0
M  V30 6865 H 650.956 1.53972 -1.13863 0
M  V30 6866 H 649.261 3.91738 -0.069531 0
M  V30 6867 H 650.958 3.98409 -0.455144 0
M  V30 6868 H 647.548 3.85042 -1.88256 0
M  V30 6869 H 651.732 4.07147 -2.83804 0
M  V30 6870 H 646.988 4.44112 -4.20207 0
M  V30 6871 H 651.162 4.67538 -5.16121 0
M  V30 6872 H 648.789 4.85681 -5.84823 0
M  V30 6873 N 650.364 0.662433 1.43002 0
M  V30 6874 C 651.61 0.179857 2.02001 0
M  V30 6875 C 651.943 -1.20625 1.52195 0
M  V30 6876 O 651.218 -1.80726 0.718911 0
M  V30 6877 C 651.501 0.200845 3.59539 0
M  V30 6878 C 651.354 1.62153 4.19555 0
M  V30 6879 C 652.673 -0.457738 4.37713 0
M  V30 6880 H 649.792 0.0668305 0.733964 0
M  V30 6881 H 652.434 0.84487 1.70182 0
M  V30 6882 H 650.584 -0.365411 3.86778 0
M  V30 6883 H 652.256 2.23908 4.03315 0
M  V30 6884 H 650.499 2.16601 3.75854 0
M  V30 6885 H 651.17 1.58799 5.28665 0
M  V30 6886 H 653.646 0.0241495 4.16093 0
M  V30 6887 H 652.522 -0.412363 5.47349 0
M  V30 6888 H 652.783 -1.53336 4.14657 0
M  V30 6889 N 651.842 -1.52309 0.404946 0
M  V30 6890 C 653.089 -2.01767 -0.1722 0
M  V30 6891 C 653.417 -1.29075 -1.45498 0
M  V30 6892 O 652.672 -0.3843 -1.9189 0
M  V30 6893 C 652.971 -3.54284 -0.470895 0
M  V30 6894 C 652.637 -4.45079 0.722194 0
M  V30 6895 C 651.299 -4.69617 1.04946 0
M  V30 6896 C 653.651 -4.98555 1.51962 0
M  V30 6897 C 650.979 -5.44878 2.17543 0
M  V30 6898 C 653.331 -5.75049 2.63632 0
M  V30 6899 C 651.995 -5.9786 2.9685 0
M  V30 6900 H 651.265 -0.738316 -0.0630125 0
M  V30 6901 H 653.912 -1.83566 0.545506 0
M  V30 6902 H 652.217 -3.70642 -1.27012 0
M  V30 6903 H 653.914 -3.90058 -0.930346 0
M  V30 6904 H 650.504 -4.26155 0.457131 0
M  V30 6905 H 654.688 -4.79509 1.28002 0
M  V30 6906 H 649.944 -5.60762 2.43631 0
M  V30 6907 H 654.118 -6.15483 3.25813 0
M  V30 6908 H 651.745 -6.5596 3.84215 0
M  V30 6909 N 653.32 -0.135238 -1.57019 0
M  V30 6910 C 654.567 0.518794 -1.95742 0
M  V30 6911 C 654.895 1.65642 -1.01947 0
M  V30 6912 O 654.15 1.95645 -0.0464016 0
M  V30 6913 C 654.449 1.07694 -3.40788 0
M  V30 6914 C 654.115 0.058992 -4.50861 0
M  V30 6915 C 652.777 -0.220872 -4.80693 0
M  V30 6916 C 655.129 -0.633856 -5.17331 0
M  V30 6917 C 652.457 -1.19959 -5.74305 0
M  V30 6918 C 654.809 -1.60131 -6.11997 0
M  V30 6919 C 653.473 -1.889 -6.40213 0
M  V30 6920 H 652.743 0.18984 -0.716269 0
M  V30 6921 H 655.39 -0.219581 -1.90237 0
M  V30 6922 H 653.695 1.89241 -3.43067 0
M  V30 6923 H 655.392 1.59137 -3.68071 0
M  V30 6924 H 651.982 0.287304 -4.27636 0
M  V30 6925 H 656.166 -0.430823 -4.94427 0
M  V30 6926 H 651.422 -1.42905 -5.94465 0
M  V30 6927 H 655.596 -2.14376 -6.62583 0
M  V30 6928 H 653.223 -2.64891 -7.12556 0
M  V30 6929 N 654.798 1.5699 0.138552 0
M  V30 6930 C 655.745 1.98899 1.17081 0
M  V30 6931 C 656.715 0.857922 1.42228 0
M  V30 6932 O 657.9 1.12065 1.54422 0
M  V30 6933 C 655.04 2.38189 2.4972 0
M  V30 6934 C 654.153 3.64624 2.31674 0
M  V30 6935 C 653.288 3.9298 3.57407 0
M  V30 6936 C 652.327 5.1266 3.34435 0
M  V30 6937 N 651.464 5.36983 4.5232 0
M  V30 6938 H 656.304 2.86881 0.80642 0
M  V30 6939 H 653.841 1.41925 0.386727 0
M  V30 6940 H 655.799 2.59 3.2707 0
M  V30 6941 H 654.429 1.53275 2.84089 0
M  V30 6942 H 653.481 3.51542 1.45337 0
M  V30 6943 H 654.793 4.52131 2.10664 0
M  V30 6944 H 653.947 4.14335 4.43183 0
M  V30 6945 H 652.686 3.03912 3.8143 0
M  V30 6946 H 651.691 4.9117 2.47048 0
M  V30 6947 H 652.916 6.03288 3.11802 0
M  V30 6948 H 650.862 4.50871 4.76499 0
M  V30 6949 H 650.779 6.18775 4.34343 0
M  V30 6950 H 652.047 5.62842 5.39285 0
M  V30 6951 N 656.276 -0.40816 1.52223 0
M  V30 6952 C 657.524 -1.15274 1.66001 0
M  V30 6953 C 657.845 -1.91003 0.392803 0
M  V30 6954 O 657.115 -1.8673 -0.592336 0
M  V30 6955 H 655.695 -0.428526 0.611861 0
M  V30 6956 H 658.357 -0.46512 1.89269 0
M  V30 6957 H 657.453 -1.86628 2.50153 0
M  V30 6958 N 657.755 -1.42862 -0.66545 0
M  V30 6959 C 659.032 -1.3431 -1.42197 0
M  V30 6960 C 659.412 0.0150265 -2.11095 0
M  V30 6961 O 658.76 1.03101 -2.03918 0
M  V30 6962 C 658.97 -2.51783 -2.41674 0
M  V30 6963 C 660.318 -2.94321 -3.0604 0
M  V30 6964 O 661.342 -2.51741 -2.52001 0
M  V30 6965 O 660.201 -3.68047 -4.03985 0
M  V30 6966 H 657.295 -0.530159 -0.634713 0
M  V30 6967 H 659.841 -1.54888 -0.693386 0
M  V30 6968 H 658.613 -3.42282 -1.89627 0
M  V30 6969 H 658.236 -2.33241 -3.22001 0
M  V30 6970 N 659.233 0.902656 -1.29189 0
M  V30 6971 C 660.18 2.00643 -1.14066 0
M  V30 6972 C 661.15 1.66064 -0.0347756 0
M  V30 6973 O 662.335 1.8973 -0.201752 0
M  V30 6974 C 659.475 3.35214 -0.820104 0
M  V30 6975 C 658.588 3.82594 -2.00614 0
M  V30 6976 C 657.723 5.05727 -1.62522 0
M  V30 6977 C 656.762 5.45469 -2.77724 0
M  V30 6978 N 655.899 6.59789 -2.40048 0
M  V30 6979 H 660.739 2.1291 -2.08502 0
M  V30 6980 H 658.276 1.04271 -1.03759 0
M  V30 6981 H 660.234 4.12643 -0.614949 0
M  V30 6982 H 658.864 3.22682 0.0873452 0
M  V30 6983 H 657.916 3.01226 -2.32308 0
M  V30 6984 H 659.228 4.07999 -2.86946 0
M  V30 6985 H 658.382 5.90732 -1.38277 0
M  V30 6986 H 657.121 4.82155 -0.733333 0
M  V30 6987 H 656.126 4.59 -3.02653 0
M  V30 6988 H 657.351 5.71024 -3.67572 0
M  V30 6989 H 655.297 6.37826 -1.53343 0
M  V30 6990 H 655.214 6.84975 -3.19914 0
M  V30 6991 H 656.482 7.4807 -2.19116 0
M  V30 6992 N 660.711 1.11618 1.11262 0
M  V30 6993 C 661.941 0.88745 1.86569 0
M  V30 6994 C 662.349 -0.56636 1.80524 0
M  V30 6995 O 661.692 -1.40289 1.18594 0
M  V30 6996 C 661.754 1.27313 3.36202 0
M  V30 6997 C 661.418 2.73649 3.66013 0
M  V30 6998 C 662.415 3.71863 3.63337 0
M  V30 6999 C 660.1 3.10342 3.9496 0
M  V30 7000 C 662.094 5.04788 3.89188 0
M  V30 7001 C 659.781 4.43451 4.20469 0
M  V30 7002 C 660.779 5.40484 4.17572 0
M  V30 7003 O 660.467 6.71195 4.42439 0
M  V30 7004 H 660.199 0.317543 0.596777 0
M  V30 7005 H 662.753 1.48768 1.41624 0
M  V30 7006 H 660.983 0.616062 3.81761 0
M  V30 7007 H 662.672 1.01991 3.92877 0
M  V30 7008 H 663.438 3.44861 3.41022 0
M  V30 7009 H 659.317 2.35431 3.9635 0
M  V30 7010 H 662.861 5.80516 3.86842 0
M  V30 7011 H 658.758 4.70187 4.42261 0
M  V30 7012 H 659.526 6.77012 4.59997 0
M  V30 7013 N 662.189 -1.289 0.906776 0
M  V30 7014 C 663.435 -1.95919 0.546551 0
M  V30 7015 C 663.79 -1.70126 -0.8986 0
M  V30 7016 O 663.083 -1.00775 -1.62957 0
M  V30 7017 C 663.277 -3.48704 0.783617 0
M  V30 7018 C 663.106 -3.8935 2.25026 0
M  V30 7019 C 661.876 -4.13864 2.89905 0
M  V30 7020 C 664.074 -4.00535 3.22608 0
M  V30 7021 N 662.056 -4.41131 4.26939 0
M  V30 7022 C 663.427 -4.31936 4.44783 0
M  V30 7023 C 665.482 -3.83035 3.18102 0
M  V30 7024 C 664.185 -4.47659 5.63022 0
M  V30 7025 C 666.211 -3.99971 4.35634 0
M  V30 7026 C 665.573 -4.31738 5.5658 0
M  V30 7027 H 661.672 -0.74105 0.249737 0
M  V30 7028 H 664.256 -1.55696 1.16906 0
M  V30 7029 H 662.427 -3.87933 0.190437 0
M  V30 7030 H 664.159 -4.02835 0.38812 0
M  V30 7031 H 660.914 -4.07893 2.40666 0
M  V30 7032 H 661.338 -4.5886 4.97771 0
M  V30 7033 H 665.98 -3.57533 2.25677 0
M  V30 7034 H 663.698 -4.71995 6.55932 0
M  V30 7035 H 667.284 -3.87874 4.33641 0
M  V30 7036 H 666.164 -4.44568 6.4601 0
M  V30 7037 N 663.667 -0.670007 -1.42649 0
M  V30 7038 C 664.913 -0.190568 -2.01903 0
M  V30 7039 C 665.246 1.19817 -1.52832 0
M  V30 7040 O 664.521 1.80342 -0.728485 0
M  V30 7041 C 664.804 -0.21991 -3.59428 0
M  V30 7042 C 664.657 -1.64376 -4.18689 0
M  V30 7043 C 665.976 0.434519 -4.3795 0
M  V30 7044 H 663.095 -0.0707219 -0.733599 0
M  V30 7045 H 665.737 -0.853883 -1.69732 0
M  V30 7046 H 663.887 0.344894 -3.86966 0
M  V30 7047 H 665.559 -2.26044 -4.02122 0
M  V30 7048 H 663.802 -2.18591 -3.747 0
M  V30 7049 H 664.473 -1.61601 -5.27815 0
M  V30 7050 H 666.949 -0.0462156 -4.16074 0
M  V30 7051 H 665.825 0.38333 -5.4756 0
M  V30 7052 H 666.086 1.51135 -4.15464 0
M  V30 7053 N 665.145 1.52092 -0.413018 0
M  V30 7054 C 666.392 2.01855 0.161497 0
M  V30 7055 C 666.72 1.29845 1.44812 0
M  V30 7056 O 665.975 0.394471 1.91683 0
M  V30 7057 C 666.274 3.54529 0.4521 0
M  V30 7058 C 665.94 4.4469 -0.745788 0
M  V30 7059 C 664.602 4.69053 -1.07435 0
M  V30 7060 C 666.954 4.97742 -1.54604 0
M  V30 7061 C 664.282 5.43717 -2.20429 0
M  V30 7062 C 666.634 5.73642 -2.66678 0
M  V30 7063 C 665.298 5.96277 -3.00016 0
M  V30 7064 H 664.568 0.73864 0.0590961 0
M  V30 7065 H 667.215 1.83274 -0.555234 0
M  V30 7066 H 665.52 3.7131 1.25045 0
M  V30 7067 H 667.217 3.90546 0.909647 0
M  V30 7068 H 663.807 4.25907 -0.479725 0
M  V30 7069 H 667.991 4.78824 -1.30543 0
M  V30 7070 H 663.247 5.59462 -2.46602 0
M  V30 7071 H 667.421 6.13746 -3.29072 0
M  V30 7072 H 665.048 6.53913 -3.87688 0
M  V30 7073 N 666.623 0.143563 1.56945 0
M  V30 7074 C 667.57 -0.797433 2.16586 0
M  V30 7075 C 668.54 -1.24654 1.09775 0
M  V30 7076 O 669.725 -1.31968 1.37801 0
M  V30 7077 C 666.865 -2.03253 2.78895 0
M  V30 7078 C 665.978 -1.62954 4.00087 0
M  V30 7079 C 665.113 -2.81617 4.50406 0
M  V30 7080 C 664.152 -2.37675 5.64072 0
M  V30 7081 N 663.289 -3.49335 6.09023 0
M  V30 7082 H 668.129 -0.282023 2.96662 0
M  V30 7083 H 665.666 -0.127494 1.46546 0
M  V30 7084 H 667.624 -2.75653 3.13163 0
M  V30 7085 H 666.254 -2.52211 2.01469 0
M  V30 7086 H 665.306 -0.803322 3.71821 0
M  V30 7087 H 666.618 -1.26679 4.82446 0
M  V30 7088 H 665.772 -3.62212 4.86711 0
M  V30 7089 H 664.511 -3.21134 3.67048 0
M  V30 7090 H 663.516 -1.55519 5.27346 0
M  V30 7091 H 664.741 -1.99247 6.49213 0
M  V30 7092 H 662.687 -3.8848 5.28601 0
M  V30 7093 H 662.604 -3.17064 6.86299 0
M  V30 7094 H 663.872 -4.30297 6.49973 0
M  V30 7095 N 668.101 -1.57061 -0.130224 0
M  V30 7096 C 669.011 -2.02802 -1.17934 0
M  V30 7097 C 670.027 -0.946378 -1.46013 0
M  V30 7098 O 671.203 -1.25708 -1.57351 0
M  V30 7099 C 668.268 -2.41368 -2.48882 0
M  V30 7100 C 667.329 -3.63561 -2.28301 0
M  V30 7101 C 666.562 -4.00279 -3.53005 0
M  V30 7102 O 666.785 -3.37463 -4.59864 0
M  V30 7103 O 665.719 -4.93441 -3.44673 0
M  V30 7104 H 669.545 -2.92394 -0.820958 0
M  V30 7105 H 667.13 -1.45475 -0.340197 0
M  V30 7106 H 669.012 -2.66958 -3.26054 0
M  V30 7107 H 667.687 -1.54926 -2.84217 0
M  V30 7108 H 666.594 -3.43136 -1.49025 0
M  V30 7109 H 667.927 -4.50673 -1.97875 0
M  V30 7110 N 669.579 0.400081 -1.52437 0
M  V30 7111 C 670.825 1.14788 -1.67187 0
M  V30 7112 C 671.158 1.89928 -0.405074 0
M  V30 7113 O 670.433 1.85118 0.596804 0
M  V30 7114 C 670.716 2.13507 -2.89977 0
M  V30 7115 C 670.569 1.42204 -4.2673 0
M  V30 7116 C 671.888 3.14069 -3.083 0
M  V30 7117 H 669.007 0.415939 -0.608411 0
M  V30 7118 H 671.649 0.432542 -1.85011 0
M  V30 7119 H 669.799 2.7451 -2.74912 0
M  V30 7120 H 671.471 0.842503 -4.53541 0
M  V30 7121 H 669.714 0.723939 -4.27717 0
M  V30 7122 H 670.385 2.14281 -5.08712 0
M  V30 7123 H 672.861 2.63148 -3.22323 0
M  V30 7124 H 671.737 3.80398 -3.95713 0
M  V30 7125 H 671.998 3.82309 -2.22018 0
M  V30 7126 N 671.057 1.43213 0.657864 0
M  V30 7127 C 672.285 1.48015 1.44566 0
M  V30 7128 C 672.7 0.0965951 1.88553 0
M  V30 7129 O 672.057 -0.892221 1.59203 0
M  V30 7130 C 672.108 2.42199 2.68369 0
M  V30 7131 O 671.829 3.75173 2.26223 0
M  V30 7132 C 673.33 2.56195 3.61772 0
M  V30 7133 H 670.55 0.502861 0.444266 0
M  V30 7134 H 673.094 1.87907 0.806917 0
M  V30 7135 H 671.249 2.05514 3.28394 0
M  V30 7136 H 671.663 4.25776 3.06293 0
M  V30 7137 H 673.137 3.26182 4.4532 0
M  V30 7138 H 673.614 1.60534 4.0881 0
M  V30 7139 H 674.22 2.93671 3.07632 0
M  V30 7140 N 672.536 -0.895792 1.29666 0
M  V30 7141 C 673.782 -1.64908 1.18039 0
M  V30 7142 C 674.115 -1.9236 -0.266682 0
M  V30 7143 O 673.39 -1.53682 -1.19214 0
M  V30 7144 C 673.673 -2.99574 1.99819 0
M  V30 7145 C 673.526 -2.79163 3.52687 0
M  V30 7146 C 674.845 -4.00358 1.82761 0
M  V30 7147 H 671.964 -0.598437 0.430165 0
M  V30 7148 H 674.606 -1.03736 1.59182 0
M  V30 7149 H 672.756 -3.51786 1.64859 0
M  V30 7150 H 674.428 -2.33821 3.9765 0
M  V30 7151 H 672.671 -2.13871 3.77414 0
M  V30 7152 H 673.342 -3.74871 4.05186 0
M  V30 7153 H 675.818 -3.57268 2.13304 0
M  V30 7154 H 674.694 -4.92514 2.42325 0
M  V30 7155 H 674.955 -4.35096 0.783839 0
M  V30 7156 N 674.014 -1.12206 -1.10668 0
M  V30 7157 C 674.924 -0.800686 -2.20513 0
M  V30 7158 C 675.94 0.209512 -1.72734 0
M  V30 7159 O 677.116 0.043705 -2.01353 0
M  V30 7160 C 674.181 -0.257353 -3.45744 0
M  V30 7161 C 673.242 -1.32718 -4.0827 0
M  V30 7162 C 672.475 -0.809674 -5.27522 0
M  V30 7163 O 672.698 0.35742 -5.69279 0
M  V30 7164 O 671.632 -1.57816 -5.80842 0
M  V30 7165 H 675.458 -1.71807 -2.50432 0
M  V30 7166 H 673.043 -0.898546 -1.19359 0
M  V30 7167 H 674.925 0.0408849 -4.2138 0
M  V30 7168 H 673.6 0.632627 -3.17458 0
M  V30 7169 H 672.507 -1.67855 -3.34329 0
M  V30 7170 H 673.84 -2.19083 -4.40753 0
M  V30 7171 N 675.492 1.28418 -0.913599 0
M  V30 7172 C 676.903 1.77024 -0.593237 0
M  V30 7173 C 677.254 1.74779 0.891441 0
M  V30 7174 O 676.379 1.34237 1.69733 0
M  V30 7175 C 676.974 3.21456 -1.07011 0
M  V30 7176 C 675.533 3.67786 -0.800664 0
M  V30 7177 C 674.68 2.48185 -1.23691 0
M  V30 7178 H 677.631 1.14883 -1.09487 0
M  V30 7179 H 677.652 3.78269 -0.411481 0
M  V30 7180 H 677.164 3.23058 -2.1507 0
M  V30 7181 H 675.265 3.71644 0.266725 0
M  V30 7182 H 675.378 4.57934 -1.4083 0
M  V30 7183 H 673.742 2.46116 -0.655655 0
M  V30 7184 H 674.525 2.52506 -2.32585 0
M  V30 7185 N 676.97 0.677563 1.42291 0
M  V30 7186 C 678.218 0.200578 2.01102 0
M  V30 7187 C 678.539 -1.19803 1.53858 0
M  V30 7188 O 677.809 -1.80496 0.761439 0
M  V30 7189 H 676.389 0.0711634 0.743603 0
M  V30 7190 H 679.051 0.874691 1.7417 0
M  V30 7191 H 678.147 0.204 3.11433 0
M  V30 7192 N 678.448 -1.51871 0.421078 0
M  V30 7193 C 679.678 -2.06057 -0.149723 0
M  V30 7194 C 680.086 -1.29002 -1.38402 0
M  V30 7195 O 679.429 -0.338385 -1.80556 0
M  V30 7196 C 679.491 -3.55216 -0.553339 0
M  V30 7197 C 679.155 -4.53408 0.571879 0
M  V30 7198 C 680.152 -4.99586 1.4391 0
M  V30 7199 C 677.837 -4.967 0.747979 0
M  V30 7200 C 679.831 -5.87711 2.46727 0
M  V30 7201 C 677.518 -5.84619 1.77944 0
M  V30 7202 C 678.516 -6.30021 2.63748 0
M  V30 7203 O 678.204 -7.16197 3.65126 0
M  V30 7204 H 677.936 -0.675744 -0.0186102 0
M  V30 7205 H 680.49 -1.96618 0.594166 0
M  V30 7206 H 678.72 -3.62381 -1.34969 0
M  V30 7207 H 680.409 -3.91992 -1.05342 0
M  V30 7208 H 681.175 -4.66846 1.31451 0
M  V30 7209 H 677.054 -4.60913 0.0897357 0
M  V30 7210 H 680.598 -6.2307 3.13734 0
M  V30 7211 H 676.495 -6.16771 1.90429 0
M  V30 7212 H 677.263 -7.34337 3.61512 0
M  V30 7213 N 679.926 -0.151884 -1.56866 0
M  V30 7214 C 681.337 0.368128 -1.83035 0
M  V30 7215 C 681.688 1.64402 -1.07082 0
M  V30 7216 O 680.813 2.14056 -0.317647 0
M  V30 7217 C 681.408 0.674676 -3.32014 0
M  V30 7218 C 679.967 1.13919 -3.58747 0
M  V30 7219 C 679.114 0.164833 -2.7681 0
M  V30 7220 H 682.065 -0.376499 -1.54169 0
M  V30 7221 H 682.086 1.52883 -3.48435 0
M  V30 7222 H 681.598 -0.254113 -3.87267 0
M  V30 7223 H 679.699 2.08375 -3.08886 0
M  V30 7224 H 679.812 1.06179 -4.67186 0
M  V30 7225 H 678.176 0.658419 -2.46043 0
M  V30 7226 H 678.959 -0.757633 -3.34836 0
M  V30 7227 N 681.404 1.57128 0.121893 0
M  V30 7228 C 682.354 1.96556 1.15541 0
M  V30 7229 C 683.338 0.840147 1.37224 0
M  V30 7230 O 684.53 1.10382 1.38365 0
M  V30 7231 C 681.659 2.37097 2.48274 0
M  V30 7232 C 680.745 3.56265 2.30078 0
M  V30 7233 N 681.136 4.72041 1.81688 0
M  V30 7234 C 679.434 3.61841 2.60744 0
M  V30 7235 C 680.135 5.54075 1.77132 0
M  V30 7236 N 679.111 4.96483 2.21371 0
M  V30 7237 H 682.913 2.83531 0.77378 0
M  V30 7238 H 680.427 1.59019 0.329672 0
M  V30 7239 H 682.424 2.6356 3.2302 0
M  V30 7240 H 681.084 1.51486 2.87197 0
M  V30 7241 H 682.095 4.95313 1.51278 0
M  V30 7242 H 678.772 2.8683 3.03373 0
M  V30 7243 H 680.162 6.56939 1.40998 0
M  V30 7244 N 682.882 -0.391992 1.52647 0
M  V30 7245 C 684.107 -1.16312 1.71716 0
M  V30 7246 C 684.532 -1.83042 0.433279 0
M  V30 7247 O 683.89 -1.70705 -0.610707 0
M  V30 7248 C 683.938 -2.18908 2.86551 0
M  V30 7249 O 683.042 -3.2543 2.53316 0
M  V30 7250 H 682.383 -0.338743 0.571095 0
M  V30 7251 H 684.913 -0.457202 1.99426 0
M  V30 7252 H 684.923 -2.62954 3.1196 0
M  V30 7253 H 683.598 -1.69726 3.79692 0
M  V30 7254 H 682.175 -2.86543 2.38637 0
M  V30 7255 N 684.36 -1.4356 -0.65026 0
M  V30 7256 C 685.29 -1.51758 -1.77459 0
M  V30 7257 C 686.271 -0.372019 -1.65982 0
M  V30 7258 O 687.456 -0.589627 -1.85033 0
M  V30 7259 C 684.586 -1.44302 -3.15902 0
M  V30 7260 C 683.54 -2.57138 -3.42146 0
M  V30 7261 C 682.866 -2.34735 -4.8042 0
M  V30 7262 C 684.166 -3.99373 -3.36598 0
M  V30 7263 H 685.86 -2.45863 -1.70855 0
M  V30 7264 H 683.406 -1.18333 -0.820566 0
M  V30 7265 H 685.359 -1.48641 -3.94314 0
M  V30 7266 H 684.083 -0.467026 -3.23244 0
M  V30 7267 H 682.742 -2.52157 -2.66106 0
M  V30 7268 H 682.39 -1.35372 -4.84441 0
M  V30 7269 H 682.09 -3.10375 -4.9894 0
M  V30 7270 H 683.614 -2.40862 -5.61086 0
M  V30 7271 H 685.028 -4.05826 -4.04942 0
M  V30 7272 H 683.425 -4.75063 -3.66654 0
M  V30 7273 H 684.495 -4.243 -2.34729 0
M  V30 7274 N 685.838 0.888903 -1.30139 0
M  V30 7275 C 687.086 1.63713 -1.18501 0
M  V30 7276 C 687.407 1.9324 0.261399 0
M  V30 7277 O 686.677 1.56608 1.17689 0
M  V30 7278 H 685.257 0.606861 -0.435579 0
M  V30 7279 H 687.919 1.06525 -1.63213 0
M  V30 7280 H 687.015 2.58894 -1.743 0
M  V30 7281 N 687.317 1.12792 1.10072 0
M  V30 7282 C 688.227 0.812369 2.20086 0
M  V30 7283 C 689.243 -0.200349 1.72843 0
M  V30 7284 O 690.419 -0.0330262 2.01373 0
M  V30 7285 C 687.484 0.275685 3.45602 0
M  V30 7286 C 686.545 1.34881 4.07561 0
M  V30 7287 C 685.778 0.837639 5.27086 0
M  V30 7288 O 686.001 -0.327224 5.69461 0
M  V30 7289 O 684.935 1.60894 5.79997 0
M  V30 7290 H 688.761 1.73133 2.49517 0
M  V30 7291 H 686.346 0.904863 1.18881 0
M  V30 7292 H 688.228 -0.0185375 4.21396 0
M  V30 7293 H 686.903 -0.615783 3.17789 0
M  V30 7294 H 685.81 1.69625 3.33434 0
M  V30 7295 H 687.143 2.21418 4.39585 0
M  V30 7296 N 688.795 -1.27931 0.920396 0
M  V30 7297 C 689.725 -2.29487 0.431024 0
M  V30 7298 C 690.706 -1.62435 -0.504861 0
M  V30 7299 O 691.891 -1.89797 -0.411176 0
M  V30 7300 C 689.021 -3.45788 -0.323709 0
M  V30 7301 C 687.975 -4.24784 0.523658 0
M  V30 7302 C 687.301 -5.33488 -0.359809 0
M  V30 7303 C 688.601 -4.90874 1.78437 0
M  V30 7304 H 690.295 -2.70671 1.27975 0
M  V30 7305 H 687.841 -1.30121 0.616813 0
M  V30 7306 H 689.794 -4.15927 -0.676952 0
M  V30 7307 H 688.518 -3.03502 -1.2064 0
M  V30 7308 H 687.177 -3.56382 0.85951 0
M  V30 7309 H 686.825 -4.87445 -1.24124 0
M  V30 7310 H 686.525 -5.87247 0.203605 0
M  V30 7311 H 688.049 -6.06472 -0.708787 0
M  V30 7312 H 689.463 -5.53339 1.49963 0
M  V30 7313 H 687.86 -5.54659 2.29071 0
M  V30 7314 H 688.93 -4.14988 2.50824 0
M  V30 7315 N 690.273 -0.685099 -1.4193 0
M  V30 7316 C 691.521 -0.21124 -2.00993 0
M  V30 7317 C 691.842 1.18985 -1.54491 0
M  V30 7318 O 691.112 1.8009 -0.771 0
M  V30 7319 H 689.692 -0.0751059 -0.743215 0
M  V30 7320 H 692.354 -0.883915 -1.73704 0
M  V30 7321 H 691.45 -0.220513 -3.1132 0
M  V30 7322 N 691.751 1.51645 -0.429126 0
M  V30 7323 C 692.976 2.06917 0.141399 0
M  V30 7324 C 693.401 1.29527 1.36398 0
M  V30 7325 O 692.759 0.33094 1.78254 0
M  V30 7326 C 692.807 3.57776 0.4504 0
M  V30 7327 O 691.911 3.82639 1.53821 0
M  V30 7328 H 691.252 0.663978 0.0054647 0
M  V30 7329 H 693.782 1.95355 -0.608093 0
M  V30 7330 H 693.792 4.01894 0.703249 0
M  V30 7331 H 692.467 4.13532 -0.443213 0
M  V30 7332 H 691.044 3.5039 1.27597 0
M  V30 7333 N 693.229 0.160201 1.56784 0
M  V30 7334 C 694.469 -0.490179 1.98435 0
M  V30 7335 C 694.833 -1.61164 1.04355 0
M  V30 7336 O 696.034 -2.3238 1.35103 0
M  V30 7337 C 694.305 -0.971106 3.43954 0
M  V30 7338 S 695.864 -1.62423 4.07632 0
M  V30 7339 H 692.682 -0.158056 0.693209 0
M  V30 7340 H 695.284 0.255036 1.93829 0
M  V30 7341 H 693.988 -0.144323 4.10146 0
M  V30 7342 H 693.519 -1.75063 3.52302 0
M  V30 7343 H 695.534 -2.91199 4.01768 0
M  V30 7344 N 694.707 -1.5719 -0.113559 0
M  V30 7345 C 695.637 -2.03772 -1.14013 0
M  V30 7346 C 696.618 -0.923176 -1.42869 0
M  V30 7347 O 697.803 -1.19325 -1.53216 0
M  V30 7348 C 694.933 -2.44663 -2.4649 0
M  V30 7349 C 693.887 -3.59612 -2.32085 0
M  V30 7350 C 693.213 -3.8642 -3.69573 0
M  V30 7351 C 694.513 -4.91149 -1.7768 0
M  V30 7352 H 696.207 -2.89785 -0.752665 0
M  V30 7353 H 693.753 -1.39412 -0.360609 0
M  V30 7354 H 695.706 -2.75857 -3.18561 0
M  V30 7355 H 694.43 -1.55628 -2.87137 0
M  V30 7356 H 693.089 -3.28636 -1.62461 0
M  V30 7357 H 692.737 -2.94581 -4.07715 0
M  V30 7358 H 692.437 -4.63797 -3.60786 0
M  V30 7359 H 693.961 -4.2007 -4.4314 0
M  V30 7360 H 695.375 -5.20843 -2.39574 0
M  V30 7361 H 693.772 -5.72562 -1.79701 0
M  V30 7362 H 694.842 -4.79301 -0.734776 0
M  V30 7363 N 696.185 0.383891 -1.52853 0
M  V30 7364 C 697.596 0.961591 -1.60032 0
M  V30 7365 C 697.947 1.90819 -0.456333 0
M  V30 7366 O 697.072 2.12288 0.419873 0
M  V30 7367 C 697.667 1.75078 -2.90057 0
M  V30 7368 C 696.226 2.2781 -2.99632 0
M  V30 7369 C 695.373 1.08512 -2.55187 0
M  V30 7370 H 698.324 0.163269 -1.57858 0
M  V30 7371 H 698.345 2.61046 -2.7683 0
M  V30 7372 H 697.857 1.06157 -3.73299 0
M  V30 7373 H 695.958 3.00028 -2.20939 0
M  V30 7374 H 696.071 2.56947 -4.0437 0
M  V30 7375 H 694.435 1.44667 -2.09627 0
M  V30 7376 H 695.218 0.41118 -3.40829 0
M  V30 7377 N 697.663 1.43903 0.642637 0
M  V30 7378 C 699.079 1.27536 0.959519 0
M  V30 7379 C 699.279 0.202751 2.00477 0
M  V30 7380 O 698.335 -0.415256 2.49062 0
M  V30 7381 C 699.648 2.6432 1.43372 0
M  V30 7382 C 701.196 2.71937 1.54981 0
M  V30 7383 C 701.671 4.09164 2.05789 0
M  V30 7384 N 703.162 4.11282 2.13076 0
M  V30 7385 C 703.897 5.14303 2.53534 0
M  V30 7386 N 703.393 6.27693 2.93212 0
M  V30 7387 N 705.186 5.01657 2.53567 0
M  V30 7388 H 697.337 2.12344 -0.0488376 0
M  V30 7389 H 699.6 0.947124 0.0407559 0
M  V30 7390 H 699.306 3.43826 0.740048 0
M  V30 7391 H 699.18 2.90432 2.40685 0
M  V30 7392 H 701.567 1.92757 2.23448 0
M  V30 7393 H 701.648 2.49578 0.560739 0
M  V30 7394 H 701.292 4.88815 1.37921 0
M  V30 7395 H 701.222 4.28893 3.05546 0
M  V30 7396 H 703.713 3.2944 1.85143 0
M  V30 7397 H 704.026 7.02125 3.22863 0
M  V30 7398 H 702.371 6.31149 2.90991 0
M  V30 7399 H 705.562 4.12134 2.21952 0
M  V30 7400 H 705.735 5.82072 2.84774 0
M  V30 7401 N 699.141 -0.881989 1.30609 0
M  V30 7402 C 700.051 -2.02076 1.19174 0
M  V30 7403 C 701.067 -1.73645 0.11102 0
M  V30 7404 O 702.243 -1.98735 0.326528 0
M  V30 7405 C 699.308 -3.3515 0.887438 0
M  V30 7406 C 698.369 -3.76983 2.05383 0
M  V30 7407 C 697.602 -5.03707 1.76395 0
M  V30 7408 O 697.825 -5.66171 0.693302 0
M  V30 7409 O 696.759 -5.42019 2.61723 0
M  V30 7410 H 700.585 -2.14652 2.14845 0
M  V30 7411 H 698.17 -1.00843 1.10232 0
M  V30 7412 H 700.052 -4.14975 0.73306 0
M  V30 7413 H 698.727 -3.23676 -0.0393354 0
M  V30 7414 H 697.634 -2.97849 2.26355 0
M  V30 7415 H 698.967 -3.93066 2.96243 0
M  V30 7416 N 700.619 -1.13374 -1.09472 0
M  V30 7417 C 701.867 -0.893422 -1.8128 0
M  V30 7418 C 702.188 0.582029 -1.86111 0
M  V30 7419 O 701.458 1.42305 -1.34633 0
M  V30 7420 H 700.038 -0.327543 -0.67136 0
M  V30 7421 H 702.7 -1.43018 -1.32408 0
M  V30 7422 H 701.796 -1.28374 -2.84476 0
M  V30 7423 N 702.098 1.27442 -0.927168 0
M  V30 7424 C 703.347 1.93679 -0.563146 0
M  V30 7425 C 703.66 1.73673 0.899837 0
M  V30 7426 O 704.866 2.34247 1.37262 0
M  V30 7427 C 703.322 3.46961 -0.95636 0
M  V30 7428 C 702.93 3.75724 -2.43999 0
M  V30 7429 C 704.674 4.19282 -0.663565 0
M  V30 7430 C 702.581 5.22378 -2.77263 0
M  V30 7431 H 701.511 0.725059 -0.206894 0
M  V30 7432 H 704.162 1.44743 -1.12791 0
M  V30 7433 H 702.544 3.94703 -0.320254 0
M  V30 7434 H 703.718 3.38741 -3.12396 0
M  V30 7435 H 702.033 3.16605 -2.70463 0
M  V30 7436 H 704.63 5.27265 -0.888596 0
M  V30 7437 H 704.973 4.14382 0.399198 0
M  V30 7438 H 705.506 3.7736 -1.25875 0
M  V30 7439 H 702.245 5.32367 -3.82446 0
M  V30 7440 H 701.765 5.6051 -2.13516 0
M  V30 7441 H 703.444 5.9025 -2.64979 0
M  V30 7442 N 703.576 0.692616 1.41565 0
M  V30 7443 C 704.853 0.150496 1.9502 0
M  V30 7444 C 705.233 -1.33881 1.63215 0
M  V30 7445 O 704.581 -2.08378 0.937598 0
M  V30 7446 C 704.791 0.438636 3.46233 0
M  V30 7447 C 706.139 0.364777 4.2303 0
M  V30 7448 O 707.163 0.373383 3.54238 0
M  V30 7449 O 706.022 0.32234 5.45549 0
M  V30 7450 H 703.116 0.0132454 0.826894 0
M  V30 7451 H 705.662 0.768574 1.51298 0
M  V30 7452 H 704.434 1.46962 3.62654 0
M  V30 7453 H 704.057 -0.210562 3.97042 0
M  V30 7454 N 705.054 -1.51416 0.437162 0
M  V30 7455 C 706.282 -2.06503 -0.128045 0
M  V30 7456 C 706.697 -1.30461 -1.36475 0
M  V30 7457 O 706.054 -0.364127 -1.78831 0
M  V30 7458 C 706.105 -3.58683 -0.450437 0
M  V30 7459 O 705.826 -4.31853 0.737186 0
M  V30 7460 C 707.327 -4.30284 -1.06633 0
M  V30 7461 H 704.547 -0.670952 -0.00800269 0
M  V30 7462 H 707.091 -1.94996 0.616193 0
M  V30 7463 H 705.246 -3.70106 -1.14457 0
M  V30 7464 H 705.66 -5.22467 0.461347 0
M  V30 7465 H 707.134 -5.37848 -1.24191 0
M  V30 7466 H 707.611 -3.88564 -2.0473 0
M  V30 7467 H 708.217 -4.23304 -0.411585 0
M  V30 7468 N 706.532 -0.168513 -1.56696 0
M  V30 7469 C 707.495 0.748928 -2.16619 0
M  V30 7470 C 708.495 1.16007 -1.11351 0
M  V30 7471 O 709.685 1.07748 -1.3688 0
M  V30 7472 C 706.817 2.01904 -2.74677 0
M  V30 7473 H 708.01 0.227317 -2.99037 0
M  V30 7474 H 705.563 0.0810372 -1.5609 0
M  V30 7475 H 706.298 2.58381 -1.95985 0
M  V30 7476 H 706.083 1.73323 -3.51712 0
M  V30 7477 H 707.573 2.67383 -3.20774 0
M  V30 7478 N 708.01 1.57248 0.105221 0
M  V30 7479 C 708.94 2.04374 1.12931 0
M  V30 7480 C 709.921 0.93074 1.42377 0
M  V30 7481 O 711.106 1.20136 1.52581 0
M  V30 7482 C 708.236 2.45967 2.45189 0
M  V30 7483 C 707.19 3.60838 2.30174 0
M  V30 7484 C 706.516 3.88374 3.67518 0
M  V30 7485 C 707.816 4.92084 1.75073 0
M  V30 7486 H 709.51 2.9018 0.737287 0
M  V30 7487 H 707.056 1.39601 0.353211 0
M  V30 7488 H 709.009 2.77542 3.17094 0
M  V30 7489 H 707.733 1.57148 2.86308 0
M  V30 7490 H 706.392 3.29493 1.60716 0
M  V30 7491 H 706.04 2.96739 4.06147 0
M  V30 7492 H 705.74 4.65703 3.58321 0
M  V30 7493 H 707.264 4.22415 4.40906 0
M  V30 7494 H 708.678 5.22106 2.36809 0
M  V30 7495 H 707.075 5.73507 1.76662 0
M  V30 7496 H 708.145 4.79684 0.709347 0
M  V30 7497 N 709.488 -0.375779 1.53054 0
M  V30 7498 C 710.904 -0.716764 1.426 0
M  V30 7499 C 711.104 -1.93651 0.556931 0
M  V30 7500 O 710.16 -2.52475 0.0354461 0
M  V30 7501 C 711.473 -0.939499 2.85646 0
M  V30 7502 C 713.021 -1.04015 2.95212 0
M  V30 7503 C 713.496 -1.29543 4.39298 0
M  V30 7504 N 714.987 -1.36335 4.42682 0
M  V30 7505 C 715.722 -1.57778 5.51266 0
M  V30 7506 N 715.218 -1.76604 6.69913 0
M  V30 7507 N 717.011 -1.60065 5.38828 0
M  V30 7508 H 709.162 0.42664 2.08071 0
M  V30 7509 H 711.425 0.128758 0.939215 0
M  V30 7510 H 711.131 -0.115189 3.51511 0
M  V30 7511 H 711.005 -1.85048 3.2869 0
M  V30 7512 H 713.392 -1.85501 2.29507 0
M  V30 7513 H 713.473 -0.106785 2.55577 0
M  V30 7514 H 713.117 -0.485611 5.05573 0
M  V30 7515 H 713.047 -2.24184 4.76497 0
M  V30 7516 H 715.538 -1.23441 3.5717 0
M  V30 7517 H 715.851 -1.9251 7.48438 0
M  V30 7518 H 714.196 -1.73802 6.72917 0
M  V30 7519 H 717.387 -1.44917 4.45103 0
M  V30 7520 H 717.56 -1.76435 6.23518 0
M  V30 7521 N 710.966 -1.44241 -0.634997 0
M  V30 7522 C 712.212 -1.48033 -1.39492 0
M  V30 7523 C 712.567 -0.109791 -1.92086 0
M  V30 7524 O 711.86 0.874394 -1.70484 0
M  V30 7525 C 712.054 -2.47279 -2.58046 0
M  V30 7526 C 711.883 -3.93848 -2.17057 0
M  V30 7527 C 710.653 -4.62061 -2.04518 0
M  V30 7528 C 712.851 -4.83172 -1.76208 0
M  V30 7529 N 710.833 -5.93471 -1.57051 0
M  V30 7530 C 712.204 -6.03996 -1.39958 0
M  V30 7531 C 714.259 -4.70271 -1.63554 0
M  V30 7532 C 712.962 -7.13351 -0.923196 0
M  V30 7533 C 714.988 -5.79646 -1.1732 0
M  V30 7534 C 714.35 -6.99609 -0.820181 0
M  V30 7535 H 710.449 -0.596743 -0.505392 0
M  V30 7536 H 713.033 -1.80542 -0.72887 0
M  V30 7537 H 711.204 -2.16766 -3.22284 0
M  V30 7538 H 712.936 -2.41391 -3.24827 0
M  V30 7539 H 709.691 -4.1682 -2.24851 0
M  V30 7540 H 710.115 -6.63275 -1.35628 0
M  V30 7541 H 714.757 -3.77964 -1.8948 0
M  V30 7542 H 712.475 -8.0547 -0.651441 0
M  V30 7543 H 716.061 -5.71689 -1.07993 0
M  V30 7544 H 714.941 -7.82803 -0.467901 0
M  V30 7545 N 712.444 0.87505 -1.31075 0
M  V30 7546 C 713.354 2.01441 -1.20244 0
M  V30 7547 C 714.37 1.73584 -0.120227 0
M  V30 7548 O 715.546 1.98559 -0.337063 0
M  V30 7549 C 712.611 3.34675 -0.905199 0
M  V30 7550 C 711.672 3.75889 -2.0738 0
M  V30 7551 C 710.905 5.02764 -1.79064 0
M  V30 7552 O 711.128 5.65795 -0.723318 0
M  V30 7553 O 710.062 5.40623 -2.64594 0
M  V30 7554 H 713.888 2.13509 -2.1598 0
M  V30 7555 H 711.473 1.00257 -1.10765 0
M  V30 7556 H 713.355 4.1458 -0.755057 0
M  V30 7557 H 712.03 3.23692 0.0221695 0
M  V30 7558 H 710.937 2.96645 -2.27931 0
M  V30 7559 H 712.27 3.91489 -2.98324 0
M  V30 7560 N 713.922 1.13953 1.08869 0
M  V30 7561 C 715.333 0.916649 1.62648 0
M  V30 7562 C 715.684 -0.545589 1.88462 0
M  V30 7563 O 714.809 -1.41351 1.63856 0
M  V30 7564 C 715.404 1.65751 2.95486 0
M  V30 7565 C 713.963 1.48034 3.46068 0
M  V30 7566 C 713.11 1.68305 2.20383 0
M  V30 7567 H 716.061 1.292 0.921572 0
M  V30 7568 H 716.082 1.11794 3.63707 0
M  V30 7569 H 715.594 2.72171 2.76667 0
M  V30 7570 H 713.695 0.439416 3.7 0
M  V30 7571 H 713.808 2.24719 4.23129 0
M  V30 7572 H 712.172 1.10833 2.29321 0
M  V30 7573 H 712.955 2.76057 2.04077 0
M  V30 7574 N 715.4 -1.26948 0.933913 0
M  V30 7575 C 716.646 -1.94374 0.57848 0
M  V30 7576 C 716.979 -1.73166 -0.879048 0
M  V30 7577 O 716.254 -1.06438 -1.62792 0
M  V30 7578 C 716.537 -3.4834 0.912739 0
M  V30 7579 C 716.39 -3.78866 2.42448 0
M  V30 7580 C 717.709 -4.38062 0.423003 0
M  V30 7581 H 714.828 -0.705959 0.211639 0
M  V30 7582 H 717.47 -1.49951 1.16682 0
M  V30 7583 H 715.62 -3.86309 0.412058 0
M  V30 7584 H 717.292 -3.50654 2.99733 0
M  V30 7585 H 715.535 -3.25198 2.87104 0
M  V30 7586 H 716.206 -4.86458 2.60887 0
M  V30 7587 H 718.682 -4.0728 0.852191 0
M  V30 7588 H 717.558 -5.44599 0.685776 0
M  V30 7589 H 717.819 -4.36886 -0.676994 0
M  V30 7590 N 716.879 -0.700114 -1.41195 0
M  V30 7591 C 718.127 -0.232546 -2.00758 0
M  V30 7592 C 718.448 1.1734 -1.55745 0
M  V30 7593 O 717.718 1.79262 -0.790058 0
M  V30 7594 H 716.298 -0.0829845 -0.742376 0
M  V30 7595 H 718.96 -0.902289 -1.72756 0
M  V30 7596 H 718.056 -0.253521 -3.11069 0
M  V30 7597 N 718.357 1.51182 -0.445186 0
M  V30 7598 C 719.304 2.27939 0.362291 0
M  V30 7599 C 720.274 1.31864 1.01 0
M  V30 7600 O 721.459 1.60776 1.02741 0
M  V30 7601 C 718.599 3.13016 1.45311 0
M  V30 7602 C 717.712 4.24093 0.822757 0
M  V30 7603 C 716.847 4.96467 1.88928 0
M  V30 7604 C 715.886 5.99454 1.23778 0
M  V30 7605 N 715.023 6.65206 2.24602 0
M  V30 7606 H 719.863 2.965 -0.29862 0
M  V30 7607 H 717.4 1.46237 -0.15911 0
M  V30 7608 H 719.358 3.60673 2.09692 0
M  V30 7609 H 717.988 2.46553 2.08354 0
M  V30 7610 H 717.04 3.80341 0.0670364 0
M  V30 7611 H 718.352 4.97853 0.307184 0
M  V30 7612 H 717.506 5.47712 2.60953 0
M  V30 7613 H 716.245 4.22355 2.4386 0
M  V30 7614 H 715.25 5.47494 0.503042 0
M  V30 7615 H 716.475 6.75527 0.695694 0
M  V30 7616 H 714.421 5.93901 2.78599 0
M  V30 7617 H 714.338 7.34756 1.77958 0
M  V30 7618 H 715.606 7.21078 2.96085 0
M  V30 7619 N 719.835 0.176821 1.56605 0
M  V30 7620 C 721.063 -0.472828 2.01425 0
M  V30 7621 C 721.478 -1.56436 1.05703 0
M  V30 7622 O 720.835 -1.82405 0.058808 0
M  V30 7623 C 720.886 -1.04607 3.46034 0
M  V30 7624 O 720.607 0.00189608 4.381 0
M  V30 7625 C 722.108 -1.7734 4.06282 0
M  V30 7626 H 719.328 -0.120503 0.660091 0
M  V30 7627 H 721.872 0.280166 2.02572 0
M  V30 7628 H 720.027 -1.74953 3.45645 0
M  V30 7629 H 720.441 -0.422118 5.22799 0
M  V30 7630 H 721.915 -2.12703 5.09374 0
M  V30 7631 H 722.392 -2.67043 3.4869 0
M  V30 7632 H 722.998 -1.11623 4.10391 0
M  V30 7633 N 721.313 -1.57302 -0.09688 0
M  V30 7634 C 722.543 -1.89926 -0.813114 0
M  V30 7635 C 722.951 -0.76852 -1.72888 0
M  V30 7636 O 722.294 0.268549 -1.81726 0
M  V30 7637 C 722.356 -3.17787 -1.68082 0
M  V30 7638 C 722.02 -4.4729 -0.937061 0
M  V30 7639 C 723.017 -5.1921 -0.267687 0
M  V30 7640 C 720.702 -4.93957 -0.911671 0
M  V30 7641 C 722.696 -6.36034 0.417129 0
M  V30 7642 C 720.383 -6.10693 -0.223068 0
M  V30 7643 C 721.381 -6.8158 0.440155 0
M  V30 7644 O 721.069 -7.96092 1.11772 0
M  V30 7645 H 720.801 -0.632783 -0.237828 0
M  V30 7646 H 723.355 -2.05248 -0.0790818 0
M  V30 7647 H 721.585 -2.98607 -2.45705 0
M  V30 7648 H 723.274 -3.36257 -2.27346 0
M  V30 7649 H 724.04 -4.84198 -0.278774 0
M  V30 7650 H 719.919 -4.38671 -1.41734 0
M  V30 7651 H 723.463 -6.91301 0.93537 0
M  V30 7652 H 719.36 -6.45159 -0.209821 0
M  V30 7653 H 720.128 -8.12064 1.02443 0
M  V30 7654 N 722.791 0.367657 -1.53252 0
M  V30 7655 C 724.038 1.11052 -1.69333 0
M  V30 7656 C 724.366 1.89363 -0.444064 0
M  V30 7657 O 723.621 1.87094 0.573953 0
M  V30 7658 C 723.92 2.09825 -2.89324 0
M  V30 7659 C 723.586 1.4801 -4.25915 0
M  V30 7660 C 722.248 1.30879 -4.6306 0
M  V30 7661 C 724.6 1.03268 -5.10867 0
M  V30 7662 C 721.928 0.675868 -5.82794 0
M  V30 7663 C 724.28 0.41377 -6.31245 0
M  V30 7664 C 722.944 0.229939 -6.67104 0
M  V30 7665 H 722.214 0.406367 -0.619634 0
M  V30 7666 H 724.861 0.392558 -1.87433 0
M  V30 7667 H 723.166 2.87917 -2.65728 0
M  V30 7668 H 724.863 2.67252 -2.98961 0
M  V30 7669 H 721.453 1.62336 -3.96667 0
M  V30 7670 H 725.637 1.15297 -4.82722 0
M  V30 7671 H 720.893 0.521833 -6.09169 0
M  V30 7672 H 725.067 0.0588768 -6.96375 0
M  V30 7673 H 722.694 -0.262562 -7.59746 0
M  V30 7674 N 724.269 1.44576 0.627338 0
M  V30 7675 C 725.516 1.47558 1.38682 0
M  V30 7676 C 725.844 0.109636 1.94191 0
M  V30 7677 O 725.099 -0.889092 1.74338 0
M  V30 7678 C 725.398 2.48644 2.56731 0
M  V30 7679 C 725.064 3.93873 2.19489 0
M  V30 7680 C 723.726 4.33421 2.09045 0
M  V30 7681 C 726.078 4.85286 1.90124 0
M  V30 7682 C 723.406 5.62303 1.6743 0
M  V30 7683 C 725.758 6.14559 1.50001 0
M  V30 7684 C 724.422 6.53058 1.38101 0
M  V30 7685 H 723.692 0.539955 0.507474 0
M  V30 7686 H 726.339 1.77811 0.711021 0
M  V30 7687 H 724.644 2.11889 3.29561 0
M  V30 7688 H 726.341 2.48197 3.14959 0
M  V30 7689 H 722.931 3.62587 2.28537 0
M  V30 7690 H 727.115 4.55483 1.971 0
M  V30 7691 H 722.371 5.90945 1.56823 0
M  V30 7692 H 726.545 6.84848 1.26319 0
M  V30 7693 H 724.172 7.52826 1.05628 0
M  V30 7694 N 725.747 -0.868086 1.31537 0
M  V30 7695 C 726.694 -1.97548 1.19346 0
M  V30 7696 C 727.664 -1.65913 0.0787922 0
M  V30 7697 O 728.849 -1.89129 0.251985 0
M  V30 7698 C 725.989 -3.32922 0.908692 0
M  V30 7699 C 725.102 -3.77141 2.10687 0
M  V30 7700 C 724.237 -5.01241 1.75873 0
M  V30 7701 C 723.276 -5.37914 2.92088 0
M  V30 7702 N 722.413 -6.53192 2.57457 0
M  V30 7703 H 727.253 -2.07307 2.14074 0
M  V30 7704 H 724.79 -1.01483 1.06487 0
M  V30 7705 H 726.748 -4.10867 0.724138 0
M  V30 7706 H 725.378 -3.228 -0.0017611 0
M  V30 7707 H 724.43 -2.94961 2.40213 0
M  V30 7708 H 725.742 -4.00248 2.97663 0
M  V30 7709 H 724.896 -5.86858 1.53891 0
M  V30 7710 H 723.635 -4.80041 0.86091 0
M  V30 7711 H 722.64 -4.50814 3.14717 0
M  V30 7712 H 723.865 -5.61077 3.82582 0
M  V30 7713 H 721.811 -6.33536 1.702 0
M  V30 7714 H 721.728 -6.76252 3.37963 0
M  V30 7715 H 722.996 -7.41997 2.38873 0
M  V30 7716 N 727.225 -1.14528 -1.08264 0
M  V30 7717 C 728.473 -0.912599 -1.80322 0
M  V30 7718 C 728.794 0.562256 -1.86718 0
M  V30 7719 O 728.064 1.40869 -1.36135 0
M  V30 7720 H 726.644 -0.334645 -0.667849 0
M  V30 7721 H 729.306 -1.44415 -1.30883 0
M  V30 7722 H 728.402 -1.31384 -2.83098 0
M  V30 7723 N 728.703 1.26451 -0.940633 0
M  V30 7724 C 729.613 2.30128 -0.455881 0
M  V30 7725 C 730.629 1.67536 0.469867 0
M  V30 7726 O 731.805 1.98344 0.349529 0
M  V30 7727 C 728.87 3.45634 0.271648 0
M  V30 7728 C 727.931 4.23709 -0.690594 0
M  V30 7729 C 727.164 5.337 0.00231047 0
M  V30 7730 O 727.387 5.57215 1.21935 0
M  V30 7731 O 726.321 5.98091 -0.676111 0
M  V30 7732 H 730.147 2.73655 -1.31707 0
M  V30 7733 H 727.732 1.3164 -0.706497 0
M  V30 7734 H 729.614 4.15853 0.681486 0
M  V30 7735 H 728.289 3.04138 1.10824 0
M  V30 7736 H 727.196 3.55974 -1.15037 0
M  V30 7737 H 728.529 4.68953 -1.49478 0
M  V30 7738 N 730.181 0.707592 1.40822 0
M  V30 7739 C 731.597 0.38034 1.55002 0
M  V30 7740 C 731.797 -1.11163 1.68062 0
M  V30 7741 O 730.853 -1.89761 1.66574 0
M  V30 7742 C 732.166 1.1394 2.78277 0
M  V30 7743 C 733.714 1.12492 2.92087 0
M  V30 7744 C 734.189 1.86597 4.18265 0
M  V30 7745 N 735.68 1.83626 4.25248 0
M  V30 7746 C 736.415 2.37794 5.21768 0
M  V30 7747 N 735.911 3.00485 6.24244 0
M  V30 7748 N 737.704 2.27982 5.13791 0
M  V30 7749 H 729.855 1.67511 1.3059 0
M  V30 7750 H 732.118 0.707579 0.630901 0
M  V30 7751 H 731.824 2.19398 2.74877 0
M  V30 7752 H 731.698 0.725793 3.70151 0
M  V30 7753 H 734.085 0.0785564 2.94995 0
M  V30 7754 H 734.166 1.57768 2.01353 0
M  V30 7755 H 733.81 2.91219 4.16118 0
M  V30 7756 H 733.74 1.38746 5.07993 0
M  V30 7757 H 736.231 1.3793 3.51829 0
M  V30 7758 H 736.544 3.39355 6.94304 0
M  V30 7759 H 734.889 3.04567 6.24711 0
M  V30 7760 H 738.08 1.78669 4.3266 0
M  V30 7761 H 738.253 2.70499 5.88841 0
M  V30 7762 N 731.66 -1.50943 0.453197 0
M  V30 7763 C 732.89 -2.06328 -0.105981 0
M  V30 7764 C 733.298 -1.31909 -1.35634 0
M  V30 7765 O 732.641 -0.376607 -1.79798 0
M  V30 7766 C 732.703 -3.5631 -0.477868 0
M  V30 7767 C 732.367 -4.52093 0.667925 0
M  V30 7768 C 733.364 -4.96421 1.54475 0
M  V30 7769 C 731.049 -4.95001 0.853168 0
M  V30 7770 C 733.043 -5.82346 2.59138 0
M  V30 7771 C 730.73 -5.80713 1.90305 0
M  V30 7772 C 731.728 -6.24284 2.77053 0
M  V30 7773 O 731.416 -7.08291 3.80236 0
M  V30 7774 H 731.148 -0.675986 -0.00427247 0
M  V30 7775 H 733.702 -1.95314 0.635738 0
M  V30 7776 H 731.932 -3.65163 -1.27252 0
M  V30 7777 H 733.621 -3.94138 -0.970039 0
M  V30 7778 H 734.387 -4.63953 1.41324 0
M  V30 7779 H 730.266 -4.60619 0.187482 0
M  V30 7780 H 733.81 -6.16276 3.2688 0
M  V30 7781 H 729.707 -6.12593 2.03469 0
M  V30 7782 H 730.475 -7.26504 3.77007 0
M  V30 7783 N 733.138 -0.185124 -1.56509 0
M  V30 7784 C 734.384 0.450356 -1.98352 0
M  V30 7785 C 734.739 1.59923 -1.06969 0
M  V30 7786 O 734.032 1.91272 -0.112084 0
M  V30 7787 C 734.226 0.967977 -3.44042 0
M  V30 7788 C 734.055 -0.129208 -4.49514 0
M  V30 7789 C 732.825 -0.58351 -5.0192 0
M  V30 7790 C 735.023 -0.93459 -5.05737 0
M  V30 7791 N 733.005 -1.65956 -5.91043 0
M  V30 7792 C 734.376 -1.86026 -5.91434 0
M  V30 7793 C 736.431 -0.978125 -4.88198 0
M  V30 7794 C 735.134 -2.82582 -6.61468 0
M  V30 7795 C 737.16 -1.93169 -5.58963 0
M  V30 7796 C 736.522 -2.84481 -6.44399 0
M  V30 7797 H 732.621 0.132504 -0.770692 0
M  V30 7798 H 735.205 -0.288523 -1.9255 0
M  V30 7799 H 733.376 1.67633 -3.50362 0
M  V30 7800 H 735.108 1.57323 -3.72869 0
M  V30 7801 H 731.863 -0.178676 -4.73263 0
M  V30 7802 H 732.287 -2.19848 -6.40309 0
M  V30 7803 H 736.929 -0.286169 -4.2183 0
M  V30 7804 H 734.647 -3.52758 -7.2704 0
M  V30 7805 H 738.233 -1.97166 -5.47373 0
M  V30 7806 H 737.113 -3.57065 -6.98194 0
M  V30 7807 N 734.616 1.57351 0.0885366 0
M  V30 7808 C 736.032 1.53331 0.442916 0
M  V30 7809 C 736.232 0.902831 1.80142 0
M  V30 7810 O 735.288 0.498147 2.47537 0
M  V30 7811 C 736.601 2.98036 0.399372 0
M  V30 7812 C 738.149 3.09286 0.480759 0
M  V30 7813 C 738.624 4.5561 0.467296 0
M  V30 7814 N 740.115 4.60182 0.52786 0
M  V30 7815 C 740.85 5.70857 0.539388 0
M  V30 7816 N 740.346 6.90944 0.506729 0
M  V30 7817 N 742.139 5.59051 0.584691 0
M  V30 7818 H 734.29 1.96709 -0.801215 0
M  V30 7819 H 736.553 0.899639 -0.298922 0
M  V30 7820 H 736.259 3.47656 -0.531806 0
M  V30 7821 H 736.133 3.57066 1.21589 0
M  V30 7822 H 738.52 2.5965 1.40236 0
M  V30 7823 H 738.601 2.53197 -0.364023 0
M  V30 7824 H 738.245 5.05899 -0.450384 0
M  V30 7825 H 738.175 5.09544 1.32938 0
M  V30 7826 H 740.666 3.73757 0.558028 0
M  V30 7827 H 740.979 7.71055 0.518989 0
M  V30 7828 H 739.324 6.93384 0.473675 0
M  V30 7829 H 742.515 4.64138 0.607781 0
M  V30 7830 H 742.688 6.45307 0.590206 0
M  V30 7831 N 736.094 -0.359525 1.53444 0
M  V30 7832 C 737.324 -1.12036 1.73585 0
M  V30 7833 C 737.732 -1.83335 0.467438 0
M  V30 7834 O 737.075 -1.74641 -0.569753 0
M  V30 7835 C 737.137 -2.19036 2.85068 0
M  V30 7836 C 736.801 -1.67451 4.25217 0
M  V30 7837 C 737.798 -1.13534 5.07352 0
M  V30 7838 C 735.483 -1.72781 4.71648 0
M  V30 7839 C 737.477 -0.656321 6.34012 0
M  V30 7840 C 735.164 -1.2449 5.98285 0
M  V30 7841 C 736.162 -0.710068 6.79299 0
M  V30 7842 O 735.85 -0.234314 8.03558 0
M  V30 7843 H 735.582 -0.340662 0.583888 0
M  V30 7844 H 738.136 -0.422452 2.01009 0
M  V30 7845 H 736.366 -2.92338 2.53131 0
M  V30 7846 H 738.055 -2.80559 2.93328 0
M  V30 7847 H 738.821 -1.08751 4.7265 0
M  V30 7848 H 734.7 -2.13351 4.08659 0
M  V30 7849 H 738.244 -0.238193 6.97193 0
M  V30 7850 H 734.141 -1.28969 6.32485 0
M  V30 7851 H 734.909 -0.353084 8.17738 0
M  V30 7852 N 737.572 -1.44907 -0.619662 0
M  V30 7853 C 738.797 -1.52021 -1.41083 0
M  V30 7854 C 739.222 -0.14976 -1.87503 0
M  V30 7855 O 738.58 0.863303 -1.59426 0
M  V30 7856 C 738.628 -2.49911 -2.59955 0
M  V30 7857 O 737.732 -2.00857 -3.60181 0
M  V30 7858 H 737.073 -0.512912 -0.421684 0
M  V30 7859 H 739.603 -1.90149 -0.755282 0
M  V30 7860 H 739.613 -2.68323 -3.07354 0
M  V30 7861 H 738.288 -3.4945 -2.25516 0
M  V30 7862 H 736.865 -1.92265 -3.19513 0
M  V30 7863 N 739.05 0.861098 -1.31996 0
M  V30 7864 C 739.96 2.00154 -1.22374 0
M  V30 7865 C 740.976 1.73447 -0.138631 0
M  V30 7866 O 742.152 1.98191 -0.358104 0
M  V30 7867 C 739.217 3.33696 -0.940645 0
M  V30 7868 C 738.278 3.73668 -2.11355 0
M  V30 7869 C 737.511 5.00837 -1.84386 0
M  V30 7870 O 737.734 5.64996 -0.783287 0
M  V30 7871 O 736.668 5.37787 -2.70313 0
M  V30 7872 H 740.494 2.11207 -2.18233 0
M  V30 7873 H 738.079 0.990768 -1.11822 0
M  V30 7874 H 739.961 4.13756 -0.798987 0
M  V30 7875 H 738.636 3.23698 -0.0121636 0
M  V30 7876 H 737.543 2.94211 -2.31065 0
M  V30 7877 H 738.876 3.88303 -3.02459 0
M  V30 7878 N 740.528 1.15101 1.07655 0
M  V30 7879 C 741.438 0.858869 2.18313 0
M  V30 7880 C 742.454 -0.163641 1.73229 0
M  V30 7881 O 743.63 0.00969541 2.01398 0
M  V30 7882 C 740.695 0.34893 3.4494 0
M  V30 7883 C 739.756 1.43495 4.04608 0
M  V30 7884 C 738.989 0.949253 5.2519 0
M  V30 7885 O 739.212 -0.20636 5.70027 0
M  V30 7886 O 738.146 1.73161 5.76454 0
M  V30 7887 H 741.972 1.78386 2.45788 0
M  V30 7888 H 739.557 0.929876 1.16934 0
M  V30 7889 H 741.439 0.070851 4.2134 0
M  V30 7890 H 740.114 -0.548237 3.19024 0
M  V30 7891 H 739.021 1.7666 3.29761 0
M  V30 7892 H 740.354 2.30692 4.3479 0
M  V30 7893 N 742.006 -1.2595 0.947325 0
M  V30 7894 C 743.422 -1.45737 0.650597 0
M  V30 7895 C 743.622 -1.85189 -0.794188 0
M  V30 7896 O 742.678 -1.97738 -1.57022 0
M  V30 7897 C 743.991 -2.53505 1.61728 0
M  V30 7898 C 745.539 -2.67351 1.62765 0
M  V30 7899 C 746.014 -3.78296 2.58179 0
M  V30 7900 N 747.505 -3.85696 2.56501 0
M  V30 7901 C 748.24 -4.71012 3.2701 0
M  V30 7902 N 747.736 -5.60669 4.06966 0
M  V30 7903 N 749.529 -4.64912 3.15932 0
M  V30 7904 H 741.68 -0.986327 1.8811 0
M  V30 7905 H 743.943 -0.494639 0.808725 0
M  V30 7906 H 743.649 -2.31357 2.6489 0
M  V30 7907 H 743.523 -3.51281 1.3741 0
M  V30 7908 H 745.91 -2.88869 0.603241 0
M  V30 7909 H 745.991 -1.69998 1.91139 0
M  V30 7910 H 745.635 -3.5753 3.60742 0
M  V30 7911 H 745.565 -4.75117 2.27093 0
M  V30 7912 H 748.056 -3.21601 1.98447 0
M  V30 7913 H 748.369 -6.22677 4.57704 0
M  V30 7914 H 746.714 -5.60402 4.11066 0
M  V30 7915 H 749.905 -3.93874 2.52945 0
M  V30 7916 H 750.078 -5.3118 3.71149 0
M  V30 7917 N 743.484 -0.715051 -1.40445 0
M  V30 7918 C 744.9 -0.388555 -1.54798 0
M  V30 7919 C 745.1 1.10271 -1.68649 0
M  V30 7920 O 744.156 1.88875 -1.67578 0
M  V30 7921 C 745.469 -1.15414 -2.77669 0
M  V30 7922 C 747.017 -1.14039 -2.91486 0
M  V30 7923 C 747.492 -1.88812 -4.1727 0
M  V30 7924 N 748.983 -1.85878 -4.24268 0
M  V30 7925 C 749.718 -2.40558 -5.20499 0
M  V30 7926 N 749.214 -3.03791 -6.22642 0
M  V30 7927 N 751.007 -2.30703 -5.12574 0
M  V30 7928 H 743.158 -1.68201 -1.297 0
M  V30 7929 H 745.421 -0.710915 -0.627139 0
M  V30 7930 H 745.127 -2.20853 -2.7371 0
M  V30 7931 H 745.001 -0.745412 -3.69761 0
M  V30 7932 H 747.388 -0.0941996 -2.9495 0
M  V30 7933 H 747.469 -1.58834 -2.00513 0
M  V30 7934 H 747.113 -2.93422 -4.14568 0
M  V30 7935 H 747.043 -1.41438 -5.0725 0
M  V30 7936 H 749.534 -1.39794 -3.51093 0
M  V30 7937 H 749.847 -3.43032 -6.92495 0
M  V30 7938 H 748.192 -3.07875 -6.23087 0
M  V30 7939 H 751.383 -1.80961 -4.31707 0
M  V30 7940 H 751.556 -2.73618 -5.87398 0
M  V30 7941 N 744.962 1.50701 -0.461195 0
M  V30 7942 C 745.925 2.2686 0.326679 0
M  V30 7943 C 746.925 1.31243 0.929085 0
M  V30 7944 O 748.115 1.54754 0.799807 0
M  V30 7945 C 745.247 3.07844 1.46441 0
M  V30 7946 H 746.44 2.97954 -0.341095 0
M  V30 7947 H 743.993 1.54814 -0.214984 0
M  V30 7948 H 744.728 2.41223 2.16753 0
M  V30 7949 H 744.513 3.78101 1.03836 0
M  V30 7950 H 746.003 3.65469 2.02044 0
M  V30 7951 N 746.441 0.193421 1.56409 0
M  V30 7952 C 747.669 -0.451438 2.01915 0
M  V30 7953 C 748.084 -1.55306 1.07357 0
M  V30 7954 O 747.441 -1.82333 0.0781512 0
M  V30 7955 C 747.492 -1.00931 3.47124 0
M  V30 7956 O 747.213 0.0483623 4.38073 0
M  V30 7957 C 748.714 -1.73021 4.0814 0
M  V30 7958 H 745.934 -0.113495 0.661332 0
M  V30 7959 H 748.478 0.301636 2.02263 0
M  V30 7960 H 746.633 -1.71277 3.47481 0
M  V30 7961 H 747.047 -0.366644 5.23217 0
M  V30 7962 H 748.521 -2.07289 5.11601 0
M  V30 7963 H 748.998 -2.6333 3.51502 0
M  V30 7964 H 749.604 -1.07264 4.11551 0
M  V30 7965 N 747.919 -1.57396 -0.0801906 0
M  V30 7966 C 749.196 -1.77883 -0.813451 0
M  V30 7967 C 749.576 -0.778879 -1.96206 0
M  V30 7968 O 748.924 0.189683 -2.27711 0
M  V30 7969 C 749.134 -3.24116 -1.2942 0
M  V30 7970 C 750.482 -3.87714 -1.73098 0
M  V30 7971 O 751.506 -3.27956 -1.39007 0
M  V30 7972 O 750.365 -4.92828 -2.36184 0
M  V30 7973 H 747.459 -0.729727 -0.389138 0
M  V30 7974 H 750.005 -1.69591 -0.0609166 0
M  V30 7975 H 748.777 -3.88443 -0.471947 0
M  V30 7976 H 748.4 -3.371 -2.1083 0
M  V30 7977 N 749.397 0.351382 -1.53633 0
M  V30 7978 C 750.808 0.927429 -1.62036 0
M  V30 7979 C 751.159 1.89809 -0.496706 0
M  V30 7980 O 750.284 2.1313 0.374749 0
M  V30 7981 C 750.879 1.68886 -2.93706 0
M  V30 7982 C 749.438 2.21404 -3.04397 0
M  V30 7983 C 748.585 1.03075 -2.57431 0
M  V30 7984 H 751.536 0.129748 -1.58169 0
M  V30 7985 H 751.557 2.55116 -2.82305 0
M  V30 7986 H 751.069 0.982149 -3.75467 0
M  V30 7987 H 749.17 2.95274 -2.27253 0
M  V30 7988 H 749.283 2.48312 -4.09729 0
M  V30 7989 H 747.647 1.40188 -2.12649 0
M  V30 7990 H 748.43 0.338793 -3.41624 0
M  V30 7991 N 750.875 1.45233 0.611969 0
M  V30 7992 C 752.123 1.48727 1.36838 0
M  V30 7993 C 752.444 0.128616 1.94575 0
M  V30 7994 O 751.714 -0.84149 1.76906 0
M  V30 7995 H 750.294 0.547695 0.507976 0
M  V30 7996 H 752.956 1.81156 0.718925 0
M  V30 7997 H 752.052 2.2236 2.19003 0
M  V30 7998 N 752.353 -0.854086 1.3245 0
M  V30 7999 C 753.583 -1.63836 1.25862 0
M  V30 8000 C 753.991 -1.88383 -0.175588 0
M  V30 8001 O 753.334 -1.45353 -1.1233 0
M  V30 8002 C 753.396 -3.02068 1.94923 0
M  V30 8003 C 753.06 -3.0056 3.44257 0
M  V30 8004 C 754.057 -2.77368 4.39731 0
M  V30 8005 C 751.742 -3.21177 3.862 0
M  V30 8006 C 753.736 -2.74797 5.75122 0
M  V30 8007 C 751.423 -3.18234 5.217 0
M  V30 8008 C 752.421 -2.95072 6.15972 0
M  V30 8009 O 752.109 -2.92003 7.48992 0
M  V30 8010 H 751.841 -0.517007 0.435523 0
M  V30 8011 H 754.395 -1.07314 1.75137 0
M  V30 8012 H 752.625 -3.60382 1.40219 0
M  V30 8013 H 754.314 -3.62791 1.82037 0
M  V30 8014 H 755.08 -2.61205 4.08653 0
M  V30 8015 H 750.959 -3.38231 3.13243 0
M  V30 8016 H 754.503 -2.56638 6.48678 0
M  V30 8017 H 750.4 -3.33941 5.52407 0
M  V30 8018 H 751.168 -3.07953 7.58358 0
M  V30 8019 N 753.831 -1.1567 -1.07043 0
M  V30 8020 C 755.242 -0.942408 -1.61169 0
M  V30 8021 C 755.593 0.515537 -1.89306 0
M  V30 8022 O 754.718 1.38726 -1.66084 0
M  V30 8023 C 755.313 -1.70431 -2.92812 0
M  V30 8024 C 753.872 -1.53521 -3.43669 0
M  V30 8025 C 753.019 -1.7179 -2.17678 0
M  V30 8026 H 755.97 -1.3065 -0.9009 0
M  V30 8027 H 755.991 -1.17566 -3.61882 0
M  V30 8028 H 755.503 -2.76538 -2.72302 0
M  V30 8029 H 753.604 -0.498224 -3.69254 0
M  V30 8030 H 753.717 -2.31422 -4.19501 0
M  V30 8031 H 752.081 -1.14468 -2.27529 0
M  V30 8032 H 752.864 -2.79269 -1.99659 0
M  V30 8033 N 755.309 1.25446 -0.953992 0
M  V30 8034 C 756.256 2.25912 -0.472485 0
M  V30 8035 C 757.226 1.59173 0.47469 0
M  V30 8036 O 758.411 1.86812 0.388082 0
M  V30 8037 C 755.551 3.44235 0.244218 0
M  V30 8038 C 754.664 4.25613 -0.740121 0
M  V30 8039 C 753.799 5.312 -0.000922267 0
M  V30 8040 C 752.838 6.04265 -0.976236 0
M  V30 8041 N 751.975 7.01589 -0.267952 0
M  V30 8042 H 756.815 2.66469 -1.3341 0
M  V30 8043 H 754.352 1.31005 -0.669045 0
M  V30 8044 H 756.31 4.11682 0.676314 0
M  V30 8045 H 754.94 3.04554 1.06988 0
M  V30 8046 H 753.992 3.57834 -1.2907 0
M  V30 8047 H 755.304 4.762 -1.48441 0
M  V30 8048 H 754.458 6.04719 0.48984 0
M  V30 8049 H 753.197 4.81484 0.776159 0
M  V30 8050 H 752.202 5.29561 -1.478 0
M  V30 8051 H 753.427 6.5607 -1.75354 0
M  V30 8052 H 751.373 6.54164 0.490403 0
M  V30 8053 H 751.29 7.4999 -0.951344 0
M  V30 8054 H 752.558 7.7924 0.201294 0
M  V30 8055 N 756.787 0.722489 1.40064 0
M  V30 8056 C 758.198 0.336507 1.83642 0
M  V30 8057 C 758.549 -1.13002 1.6039 0
M  V30 8058 O 757.674 -1.87036 1.08842 0
M  V30 8059 C 758.269 0.603985 3.33373 0
M  V30 8060 C 756.828 0.271637 3.75419 0
M  V30 8061 C 755.975 0.872898 2.63203 0
M  V30 8062 H 758.926 0.921108 1.29233 0
M  V30 8063 H 758.947 -0.128471 3.80283 0
M  V30 8064 H 758.459 1.67141 3.50265 0
M  V30 8065 H 756.56 -0.790455 3.64119 0
M  V30 8066 H 756.673 0.745457 4.73265 0
M  V30 8067 H 755.037 0.300431 2.52922 0
M  V30 8068 H 755.82 1.94473 2.82905 0
M  V30 8069 N 758.265 -1.50454 0.469181 0
M  V30 8070 C 759.514 -2.01507 -0.0881425 0
M  V30 8071 C 759.827 -1.35613 -1.40956 0
M  V30 8072 O 761.033 -1.77812 -2.05171 0
M  V30 8073 C 759.489 -3.59301 -0.207596 0
M  V30 8074 C 759.097 -4.34152 1.10527 0
M  V30 8075 C 760.841 -4.18401 -0.716981 0
M  V30 8076 C 758.748 -5.83725 0.949717 0
M  V30 8077 H 757.678 -0.753106 -0.0367156 0
M  V30 8078 H 760.329 -1.73282 0.603788 0
M  V30 8079 H 758.711 -3.84106 -0.963265 0
M  V30 8080 H 759.885 -4.21073 1.87175 0
M  V30 8081 H 758.2 -3.86652 1.54562 0
M  V30 8082 H 760.797 -5.27895 -0.850363 0
M  V30 8083 H 761.14 -3.79657 -1.70782 0
M  V30 8084 H 761.673 -3.97796 -0.0187511 0
M  V30 8085 H 758.412 -6.26938 1.91387 0
M  V30 8086 H 757.932 -5.99383 0.223591 0
M  V30 8087 H 759.611 -6.44065 0.61557 0
M  V30 8088 N 759.743 -0.201713 -1.56304 0
M  V30 8089 C 760.971 0.440723 -2.02152 0
M  V30 8090 C 761.386 1.54735 -1.08179 0
M  V30 8091 O 760.743 1.82289 -0.0878196 0
M  V30 8092 C 760.794 0.990884 -3.47655 0
M  V30 8093 O 760.515 -0.0715937 -4.38041 0
M  V30 8094 C 762.016 1.70854 -4.09052 0
M  V30 8095 H 759.236 0.109987 -0.661924 0
M  V30 8096 H 761.78 -0.312358 -2.021 0
M  V30 8097 H 759.935 1.69432 -3.48384 0
M  V30 8098 H 760.349 0.338892 -5.23404 0
M  V30 8099 H 761.823 2.04572 -5.12693 0
M  V30 8100 H 762.3 2.61462 -3.52894 0
M  V30 8101 H 762.906 1.0508 -4.12114 0
M  V30 8102 N 761.222 1.57436 0.0718424 0
M  V30 8103 C 762.468 1.87525 0.772149 0
M  V30 8104 C 762.801 0.79399 1.77227 0
M  V30 8105 O 762.076 -0.195733 1.93513 0
M  V30 8106 C 762.359 3.28272 1.48018 0
M  V30 8107 C 762.212 4.47052 0.49647 0
M  V30 8108 C 763.531 3.67256 2.42509 0
M  V30 8109 H 760.65 0.682049 0.279245 0
M  V30 8110 H 763.292 1.89967 0.03534 0
M  V30 8111 H 761.442 3.26321 2.10824 0
M  V30 8112 H 763.114 4.61127 -0.126375 0
M  V30 8113 H 761.357 4.33392 -0.188205 0
M  V30 8114 H 762.028 5.42315 1.02949 0
M  V30 8115 H 764.504 3.70301 1.89781 0
M  V30 8116 H 763.38 4.66626 2.89053 0
M  V30 8117 H 763.641 2.97186 3.27312 0
M  V30 8118 N 762.7 -0.34323 1.53817 0
M  V30 8119 C 763.946 -1.08137 1.72273 0
M  V30 8120 C 764.301 -1.86311 0.480201 0
M  V30 8121 O 763.594 -1.84204 -0.527192 0
M  V30 8122 C 763.788 -2.05195 2.92626 0
M  V30 8123 C 763.617 -1.36561 4.28464 0
M  V30 8124 C 762.387 -1.11033 4.9295 0
M  V30 8125 C 764.585 -0.791663 5.0817 0
M  V30 8126 N 762.567 -0.389839 6.12661 0
M  V30 8127 C 763.938 -0.201742 6.19672 0
M  V30 8128 C 765.993 -0.692541 4.9306 0
M  V30 8129 C 764.696 0.477661 7.17712 0
M  V30 8130 C 766.722 -0.0268775 5.91394 0
M  V30 8131 C 766.084 0.552072 7.02233 0
M  V30 8132 H 762.183 -0.380078 0.683421 0
M  V30 8133 H 764.767 -0.364925 1.9125 0
M  V30 8134 H 762.938 -2.74131 2.75149 0
M  V30 8135 H 764.67 -2.7185 2.99799 0
M  V30 8136 H 761.425 -1.39752 4.52511 0
M  V30 8137 H 761.849 -0.0443076 6.76986 0
M  V30 8138 H 766.491 -1.12589 4.07534 0
M  V30 8139 H 764.209 0.922895 8.02813 0
M  V30 8140 H 767.795 0.0491921 5.81779 0
M  V30 8141 H 766.675 1.05899 7.77017 0
M  V30 8142 N 764.178 -1.45556 -0.604258 0
M  V30 8143 C 765.125 -1.54482 -1.71476 0
M  V30 8144 C 766.095 -0.390479 -1.61445 0
M  V30 8145 O 767.28 -0.604371 -1.80975 0
M  V30 8146 C 764.42 -1.52064 -3.09791 0
M  V30 8147 C 763.533 -2.78073 -3.30604 0
M  V30 8148 C 762.668 -2.67304 -4.59044 0
M  V30 8149 C 761.707 -3.88352 -4.73127 0
M  V30 8150 N 760.844 -3.76098 -5.9287 0
M  V30 8151 H 765.684 -2.49349 -1.63184 0
M  V30 8152 H 763.221 -1.23725 -0.795641 0
M  V30 8153 H 765.179 -1.48649 -3.89819 0
M  V30 8154 H 763.809 -0.607442 -3.17033 0
M  V30 8155 H 762.861 -2.91561 -2.44329 0
M  V30 8156 H 764.173 -3.67847 -3.36883 0
M  V30 8157 H 763.327 -2.61875 -5.47272 0
M  V30 8158 H 762.066 -1.75135 -4.55169 0
M  V30 8159 H 761.071 -3.94137 -3.83322 0
M  V30 8160 H 762.296 -4.81591 -4.78797 0
M  V30 8161 H 760.242 -2.867 -5.90033 0
M  V30 8162 H 760.159 -4.59509 -6.00323 0
M  V30 8163 H 761.427 -3.74607 -6.83586 0
M  V30 8164 N 765.656 0.84705 -1.32902 0
M  V30 8165 C 766.904 1.5986 -1.2365 0
M  V30 8166 C 767.225 1.93974 0.199789 0
M  V30 8167 O 766.495 1.60273 1.12648 0
M  V30 8168 H 765.075 0.592696 -0.454665 0
M  V30 8169 H 767.737 1.01278 -1.66519 0
M  V30 8170 H 766.833 2.53218 -1.82448 0
M  V30 8171 N 767.134 1.16236 1.06428 0
M  V30 8172 C 768.383 0.937523 1.78587 0
M  V30 8173 C 768.696 -0.536 1.88113 0
M  V30 8174 O 769.902 -0.878697 2.56887 0
M  V30 8175 C 768.358 1.62808 3.2097 0
M  V30 8176 C 767.966 3.13927 3.19615 0
M  V30 8177 C 769.71 1.48515 3.97673 0
M  V30 8178 C 767.617 3.75727 4.56709 0
M  V30 8179 H 766.547 0.347125 0.669343 0
M  V30 8180 H 769.198 1.39353 1.19385 0
M  V30 8181 H 767.58 1.09977 3.80422 0
M  V30 8182 H 768.754 3.7359 2.69753 0
M  V30 8183 H 767.069 3.28089 2.56411 0
M  V30 8184 H 769.666 1.92069 4.99013 0
M  V30 8185 H 770.009 0.433913 4.14032 0
M  V30 8186 H 770.542 1.98494 3.44739 0
M  V30 8187 H 767.281 4.80793 4.45554 0
M  V30 8188 H 766.801 3.20849 5.0677 0
M  V30 8189 H 768.48 3.77203 5.25668 0
M  V30 8190 N 768.612 -1.24939 0.960631 0
M  V30 8191 C 770.023 -1.74701 0.658529 0
M  V30 8192 C 770.374 -1.77967 -0.825959 0
M  V30 8193 O 769.499 -1.40444 -1.64634 0
M  V30 8194 C 770.094 -3.17263 1.18867 0
M  V30 8195 C 768.653 -3.64561 0.936614 0
M  V30 8196 C 767.8 -2.43423 1.32817 0
M  V30 8197 H 770.751 -1.10741 1.13676 0
M  V30 8198 H 770.772 -3.76481 0.551589 0
M  V30 8199 H 770.284 -3.14854 2.26912 0
M  V30 8200 H 768.385 -3.72378 -0.128608 0
M  V30 8201 H 768.498 -4.52392 1.57729 0
M  V30 8202 H 766.862 -2.43513 0.746548 0
M  V30 8203 H 767.645 -2.437 2.41796 0
M  V30 8204 N 770.09 -0.729906 -1.39679 0
M  V30 8205 C 771.022 -0.0470588 -2.29152 0
M  V30 8206 C 772.035 0.708808 -1.4656 0
M  V30 8207 O 773.224 0.553815 -1.69691 0
M  V30 8208 C 770.324 0.957612 -3.25089 0
M  V30 8209 C 769.497 0.264321 -4.36601 0
M  V30 8210 C 768.556 1.17638 -5.12882 0
M  V30 8211 O 767.582 0.655777 -5.6541 0
M  V30 8212 N 768.784 2.50649 -5.23598 0
M  V30 8213 H 771.549 -0.815364 -2.88395 0
M  V30 8214 H 769.11 -0.578707 -1.51204 0
M  V30 8215 H 771.102 1.57026 -3.72995 0
M  V30 8216 H 769.672 1.62716 -2.66912 0
M  V30 8217 H 768.892 -0.528732 -3.90638 0
M  V30 8218 H 770.18 -0.216344 -5.0834 0
M  V30 8219 H 769.578 2.95427 -4.82431 0
M  V30 8220 H 768.135 3.07022 -5.74961 0
M  V30 8221 N 771.568 1.50203 -0.477153 0
M  V30 8222 C 772.531 2.27194 0.302599 0
M  V30 8223 C 773.531 1.32221 0.915112 0
M  V30 8224 O 774.721 1.55593 0.783348 0
M  V30 8225 C 771.853 3.0938 1.43167 0
M  V30 8226 H 773.046 2.97575 -0.372678 0
M  V30 8227 H 770.599 1.54578 -0.231392 0
M  V30 8228 H 771.334 2.43509 2.14182 0
M  V30 8229 H 771.119 3.79181 0.998197 0
M  V30 8230 H 772.609 3.67592 1.98157 0
M  V30 8231 N 773.046 0.209999 1.56195 0
M  V30 8232 C 774.457 -0.299943 1.84275 0
M  V30 8233 C 774.808 -1.60314 1.1311 0
M  V30 8234 O 773.933 -2.1273 0.396874 0
M  V30 8235 C 774.528 -0.550986 3.3429 0
M  V30 8236 C 773.087 -1.00526 3.62728 0
M  V30 8237 C 772.234 -0.0619828 2.77231 0
M  V30 8238 H 775.185 0.433458 1.52666 0
M  V30 8239 H 775.206 -1.39846 3.53869 0
M  V30 8240 H 774.718 0.397669 3.86057 0
M  V30 8241 H 772.819 -1.96768 3.16407 0
M  V30 8242 H 772.932 -0.887664 4.70805 0
M  V30 8243 H 771.296 -0.566648 2.48317 0
M  V30 8244 H 772.079 0.881383 3.31793 0
M  V30 8245 N 774.524 -1.57472 -0.0634922 0
M  V30 8246 C 775.456 -2.00999 -1.10145 0
M  V30 8247 C 776.469 -0.917219 -1.34503 0
M  V30 8248 O 777.658 -1.19501 -1.32596 0
M  V30 8249 C 774.758 -2.34089 -2.45063 0
M  V30 8250 C 773.931 -3.65317 -2.40546 0
M  V30 8251 C 772.99 -3.85982 -3.57637 0
M  V30 8252 O 772.016 -4.5747 -3.38689 0
M  V30 8253 N 773.218 -3.28971 -4.78287 0
M  V30 8254 H 775.983 -2.90656 -0.730714 0
M  V30 8255 H 773.544 -1.59926 -0.252017 0
M  V30 8256 H 775.536 -2.4508 -3.22053 0
M  V30 8257 H 774.106 -1.50279 -2.74107 0
M  V30 8258 H 773.326 -3.65003 -1.48885 0
M  V30 8259 H 774.614 -4.51468 -2.34636 0
M  V30 8260 H 774.012 -2.70962 -4.96584 0
M  V30 8261 H 772.569 -3.45398 -5.5276 0
M  V30 8262 N 776.003 0.335068 -1.53997 0
M  V30 8263 C 777.251 1.07223 -1.71312 0
M  V30 8264 C 777.572 1.88911 -0.483486 0
M  V30 8265 O 776.842 1.89344 0.50257 0
M  V30 8266 H 775.422 0.398846 -0.63161 0
M  V30 8267 H 778.084 0.374288 -1.91272 0
M  V30 8268 H 777.18 1.7448 -2.58772 0
M  V30 8269 N 777.481 1.45874 0.596531 0
M  V30 8270 C 778.444 1.54988 1.68853 0
M  V30 8271 C 779.444 0.428302 1.54991 0
M  V30 8272 O 780.634 0.692158 1.59859 0
M  V30 8273 C 777.766 1.457 3.08195 0
M  V30 8274 H 778.959 2.52294 1.62135 0
M  V30 8275 H 776.512 1.33479 0.813206 0
M  V30 8276 H 777.247 0.496204 3.20481 0
M  V30 8277 H 777.032 2.27061 3.19665 0
M  V30 8278 H 778.522 1.55133 3.87716 0
M  V30 8279 N 778.959 -0.83999 1.33349 0
M  V30 8280 C 780.206 -1.59517 1.24742 0
M  V30 8281 C 780.534 -1.93598 -0.187077 0
M  V30 8282 O 779.789 -1.58782 -1.14398 0
M  V30 8283 C 780.088 -2.91571 2.06691 0
M  V30 8284 C 779.754 -2.76856 3.55895 0
M  V30 8285 C 778.416 -2.72551 3.96572 0
M  V30 8286 C 780.768 -2.61741 4.50712 0
M  V30 8287 C 778.096 -2.51028 5.30285 0
M  V30 8288 C 780.448 -2.41752 5.84584 0
M  V30 8289 C 779.112 -2.35848 6.24445 0
M  V30 8290 H 778.382 -0.583714 0.456463 0
M  V30 8291 H 781.029 -0.973261 1.64924 0
M  V30 8292 H 779.334 -3.57961 1.59284 0
M  V30 8293 H 781.031 -3.49053 1.9739 0
M  V30 8294 H 777.621 -2.81039 3.23597 0
M  V30 8295 H 781.805 -2.64102 4.20195 0
M  V30 8296 H 777.061 -2.44903 5.60208 0
M  V30 8297 H 781.235 -2.2904 6.57658 0
M  V30 8298 H 778.862 -2.18931 7.27993 0
M  V30 8299 N 780.437 -1.16799 -1.0581 0
M  V30 8300 C 781.686 -0.94698 -1.78088 0
M  V30 8301 C 781.999 0.526016 -1.88394 0
M  V30 8302 O 783.205 0.865061 -2.5735 0
M  V30 8303 C 781.661 -1.64508 -3.20102 0
M  V30 8304 C 781.269 -3.15618 -3.17946 0
M  V30 8305 C 783.013 -1.50622 -3.96879 0
M  V30 8306 C 780.92 -3.78144 -4.5471 0
M  V30 8307 H 779.85 -0.35067 -0.667493 0
M  V30 8308 H 782.501 -1.39985 -1.18645 0
M  V30 8309 H 780.883 -1.11993 -3.79834 0
M  V30 8310 H 782.057 -3.75016 -2.67768 0
M  V30 8311 H 780.372 -3.29444 -2.54667 0
M  V30 8312 H 782.969 -1.94713 -4.97987 0
M  V30 8313 H 783.312 -0.455864 -4.13797 0
M  V30 8314 H 783.845 -2.00319 -3.43682 0
M  V30 8315 H 780.584 -4.83149 -4.42998 0
M  V30 8316 H 780.104 -3.23532 -5.05062 0
M  V30 8317 H 781.783 -3.79986 -5.2366 0
M  V30 8318 N 781.915 1.24427 -0.967243 0
M  V30 8319 C 783.14 1.9708 -0.646069 0
M  V30 8320 C 783.565 1.71272 0.777665 0
M  V30 8321 O 782.923 0.976179 1.52776 0
M  V30 8322 C 782.971 3.48501 -0.926266 0
M  V30 8323 O 782.075 4.12398 -0.0114653 0
M  V30 8324 H 781.416 0.617423 -0.244304 0
M  V30 8325 H 783.946 1.58215 -1.29727 0
M  V30 8326 H 783.956 3.98885 -0.857619 0
M  V30 8327 H 782.631 3.66613 -1.96386 0
M  V30 8328 H 781.208 3.72661 -0.133396 0
M  V30 8329 N 783.393 0.737304 1.3929 0
M  V30 8330 C 784.34 0.0988364 2.30588 0
M  V30 8331 C 785.31 -0.727206 1.49335 0
M  V30 8332 O 786.495 -0.686694 1.78014 0
M  V30 8333 C 783.635 -0.800734 3.35682 0
M  V30 8334 C 782.748 0.0381731 4.31983 0
M  V30 8335 C 781.883 -0.862884 5.24145 0
M  V30 8336 C 780.922 -0.0193639 6.12097 0
M  V30 8337 N 780.059 -0.87648 6.96608 0
M  V30 8338 H 784.899 0.883031 2.84617 0
M  V30 8339 H 782.436 0.447111 1.4014 0
M  V30 8340 H 784.394 -1.33676 3.95205 0
M  V30 8341 H 783.024 -1.55088 2.83103 0
M  V30 8342 H 782.076 0.691641 3.74059 0
M  V30 8343 H 783.388 0.690294 4.94 0
M  V30 8344 H 782.542 -1.46667 5.88705 0
M  V30 8345 H 781.281 -1.54878 4.62454 0
M  V30 8346 H 780.286 0.597202 5.46547 0
M  V30 8347 H 781.511 0.663348 6.75852 0
M  V30 8348 H 779.457 -1.54762 6.37483 0
M  V30 8349 H 779.374 -0.280892 7.55478 0
M  V30 8350 H 780.642 -1.46575 7.65595 0
M  V30 8351 N 784.871 -1.49948 0.485112 0
M  V30 8352 C 785.781 -2.32587 -0.306697 0
M  V30 8353 C 786.797 -1.43598 -0.982632 0
M  V30 8354 O 787.973 -1.76638 -0.967519 0
M  V30 8355 C 785.038 -3.18638 -1.3664 0
M  V30 8356 C 784.099 -4.23462 -0.705589 0
M  V30 8357 C 783.332 -5.05401 -1.7148 0
M  V30 8358 O 783.555 -4.88618 -2.94293 0
M  V30 8359 O 782.489 -5.88157 -1.27889 0
M  V30 8360 H 786.315 -3.01447 0.369272 0
M  V30 8361 H 783.9 -1.47349 0.246709 0
M  V30 8362 H 785.782 -3.71992 -1.9799 0
M  V30 8363 H 784.457 -2.52491 -2.02559 0
M  V30 8364 H 783.364 -3.74063 -0.0527733 0
M  V30 8365 H 784.697 -4.92119 -0.0891187 0
M  V30 8366 N 786.349 -0.21828 -1.56081 0
M  V30 8367 C 787.597 0.413488 -1.97825 0
M  V30 8368 C 787.918 1.60527 -1.10707 0
M  V30 8369 O 787.188 1.9504 -0.183378 0
M  V30 8370 H 785.768 0.155757 -0.730581 0
M  V30 8371 H 788.43 -0.310413 -1.92412 0
M  V30 8372 H 787.526 0.742024 -3.03151 0
M  V30 8373 N 787.827 1.57504 0.0551401 0
M  V30 8374 C 789.057 1.92015 0.762472 0
M  V30 8375 C 789.465 0.814088 1.7079 0
M  V30 8376 O 788.808 -0.220273 1.82375 0
M  V30 8377 C 788.87 3.22132 1.59598 0
M  V30 8378 C 788.534 4.49617 0.818141 0
M  V30 8379 C 789.531 5.19738 0.129933 0
M  V30 8380 C 787.216 4.96201 0.780387 0
M  V30 8381 C 789.21 6.34704 -0.585616 0
M  V30 8382 C 786.897 6.11069 0.0610756 0
M  V30 8383 C 787.895 6.80174 -0.62071 0
M  V30 8384 O 787.583 7.92849 -1.3284 0
M  V30 8385 H 787.315 0.638866 0.220967 0
M  V30 8386 H 789.869 2.05385 0.0246362 0
M  V30 8387 H 788.099 3.05016 2.37701 0
M  V30 8388 H 789.788 3.42166 2.18351 0
M  V30 8389 H 790.554 4.84767 0.150299 0
M  V30 8390 H 786.433 4.42275 1.30054 0
M  V30 8391 H 789.977 6.88578 -1.11833 0
M  V30 8392 H 785.874 6.45488 0.0386945 0
M  V30 8393 H 786.642 8.09062 -1.23938 0
M  V30 8394 N 789.305 -0.326896 1.54172 0
M  V30 8395 C 790.535 -1.08328 1.75922 0
M  V30 8396 C 790.943 -1.82302 0.50622 0
M  V30 8397 O 790.286 -1.7581 -0.532581 0
M  V30 8398 C 790.348 -2.1294 2.8965 0
M  V30 8399 C 790.012 -1.58394 4.28673 0
M  V30 8400 C 791.009 -1.02747 5.09646 0
M  V30 8401 C 788.694 -1.62737 4.75207 0
M  V30 8402 C 790.688 -0.52169 6.35261 0
M  V30 8403 C 788.375 -1.11772 6.00791 0
M  V30 8404 C 789.373 -0.565819 6.80652 0
M  V30 8405 O 789.061 -0.0638146 8.03875 0
M  V30 8406 H 788.793 -0.3282 0.590983 0
M  V30 8407 H 791.347 -0.37972 2.0186 0
M  V30 8408 H 789.577 -2.86903 2.59275 0
M  V30 8409 H 791.266 -2.74274 2.99213 0
M  V30 8410 H 792.032 -0.987007 4.74851 0
M  V30 8411 H 787.911 -2.04635 4.13093 0
M  V30 8412 H 791.455 -0.0902544 6.97542 0
M  V30 8413 H 787.352 -1.15524 6.35078 0
M  V30 8414 H 788.12 -0.17955 8.18303 0
M  V30 8415 N 790.784 -1.46188 -0.588786 0
M  V30 8416 C 792.012 -1.54743 -1.37339 0
M  V30 8417 C 792.427 -0.186446 -1.87877 0
M  V30 8418 O 791.784 0.815247 -1.63279 0
M  V30 8419 C 791.835 -2.54727 -2.56508 0
M  V30 8420 O 791.556 -3.85539 -2.08066 0
M  V30 8421 C 793.057 -2.73163 -3.49137 0
M  V30 8422 H 790.277 -0.523484 -0.419768 0
M  V30 8423 H 792.821 -1.91543 -0.716345 0
M  V30 8424 H 790.976 -2.20948 -3.18215 0
M  V30 8425 H 791.39 -4.39905 -2.85629 0
M  V30 8426 H 792.864 -3.47057 -4.2925 0
M  V30 8427 H 793.341 -1.79856 -4.00685 0
M  V30 8428 H 793.947 -3.08014 -2.9327 0
M  V30 8429 N 792.262 0.832906 -1.33792 0
M  V30 8430 C 793.492 1.61813 -1.28453 0
M  V30 8431 C 793.9 1.88639 0.145595 0
M  V30 8432 O 793.243 1.47122 1.10004 0
M  V30 8433 C 793.305 2.98929 -1.99704 0
M  V30 8434 C 792.969 2.95045 -3.48995 0
M  V30 8435 C 793.966 2.70337 -4.44088 0
M  V30 8436 C 791.651 3.14993 -3.91261 0
M  V30 8437 C 793.645 2.65612 -5.79421 0
M  V30 8438 C 791.332 3.09893 -5.26697 0
M  V30 8439 C 792.33 2.85235 -6.20588 0
M  V30 8440 O 792.018 2.8005 -7.53543 0
M  V30 8441 H 791.75 0.510013 -0.443693 0
M  V30 8442 H 794.304 1.04514 -1.76822 0
M  V30 8443 H 792.534 3.58106 -1.45935 0
M  V30 8444 H 794.223 3.59849 -1.87786 0
M  V30 8445 H 794.989 2.54671 -4.12756 0
M  V30 8446 H 790.868 3.33204 -3.18584 0
M  V30 8447 H 794.412 2.46285 -6.52679 0
M  V30 8448 H 790.309 3.2511 -5.5765 0
M  V30 8449 H 791.077 2.95849 -7.63162 0
M  V30 8450 N 793.74 1.17359 1.05189 0
M  V30 8451 C 794.987 0.961987 1.78191 0
M  V30 8452 C 795.315 -0.509363 1.87712 0
M  V30 8453 O 794.57 -1.39425 1.37329 0
M  V30 8454 C 794.869 1.54821 3.22126 0
M  V30 8455 C 794.535 3.04378 3.32663 0
M  V30 8456 C 793.197 3.45201 3.35246 0
M  V30 8457 C 795.549 4.00387 3.33677 0
M  V30 8458 C 792.877 4.80629 3.36471 0
M  V30 8459 C 795.229 5.35715 3.36441 0
M  V30 8460 C 793.893 5.76002 3.37311 0
M  V30 8461 H 793.163 0.352016 0.652047 0
M  V30 8462 H 795.81 1.46249 1.23627 0
M  V30 8463 H 794.115 0.969432 3.79617 0
M  V30 8464 H 795.812 1.36004 3.77232 0
M  V30 8465 H 792.402 2.71836 3.31366 0
M  V30 8466 H 796.586 3.69906 3.30882 0
M  V30 8467 H 791.842 5.11155 3.35455 0
M  V30 8468 H 796.016 6.09886 3.36173 0
M  V30 8469 H 793.643 6.80919 3.38013 0
M  V30 8470 N 795.218 -1.23913 0.973828 0
M  V30 8471 C 796.448 -1.95911 0.655938 0
M  V30 8472 C 796.856 -1.72375 -0.779967 0
M  V30 8473 O 796.199 -1.00807 -1.5357 0
M  V30 8474 C 796.261 -3.49103 0.858324 0
M  V30 8475 C 795.925 -3.96347 2.27504 0
M  V30 8476 C 796.922 -4.05537 3.25324 0
M  V30 8477 C 794.607 -4.29509 2.60437 0
M  V30 8478 C 796.601 -4.47233 4.5416 0
M  V30 8479 C 794.288 -4.70887 3.89498 0
M  V30 8480 C 795.286 -4.79714 4.86172 0
M  V30 8481 O 794.974 -5.20166 6.1293 0
M  V30 8482 H 794.706 -0.630721 0.243244 0
M  V30 8483 H 797.26 -1.58534 1.30599 0
M  V30 8484 H 795.49 -3.86405 0.151097 0
M  V30 8485 H 797.179 -4.02311 0.538592 0
M  V30 8486 H 797.945 -3.80128 3.0121 0
M  V30 8487 H 793.824 -4.21853 1.85906 0
M  V30 8488 H 797.368 -4.54038 5.29618 0
M  V30 8489 H 793.265 -4.95744 4.1341 0
M  V30 8490 H 794.033 -5.38298 6.16586 0
M  V30 8491 N 796.696 -0.74468 -1.38897 0
M  V30 8492 C 797.643 -0.111064 -2.30533 0
M  V30 8493 C 798.613 0.719276 -1.49719 0
M  V30 8494 O 799.798 0.677244 -1.78376 0
M  V30 8495 C 796.938 0.78292 -3.36102 0
M  V30 8496 C 796.051 -0.0610817 -4.31957 0
M  V30 8497 C 795.186 0.835075 -5.24595 0
M  V30 8498 C 794.225 -0.0130974 -6.12099 0
M  V30 8499 N 793.362 0.839525 -6.97063 0
M  V30 8500 H 798.202 -0.898113 -2.84144 0
M  V30 8501 H 795.739 -0.454537 -1.39901 0
M  V30 8502 H 797.697 1.31578 -3.95908 0
M  V30 8503 H 796.327 1.53585 -2.83922 0
M  V30 8504 H 795.379 -0.711469 -3.73687 0
M  V30 8505 H 796.691 -0.716482 -4.93627 0
M  V30 8506 H 795.845 1.43542 -5.89475 0
M  V30 8507 H 794.584 1.52423 -4.63269 0
M  V30 8508 H 793.589 -0.626179 -5.46223 0
M  V30 8509 H 794.814 -0.699181 -6.75491 0
M  V30 8510 H 792.76 1.5138 -6.38295 0
M  V30 8511 H 792.677 0.240823 -7.55616 0
M  V30 8512 H 793.945 1.42513 -7.66362 0
M  V30 8513 N 798.174 1.49689 -0.493057 0
M  V30 8514 C 799.422 2.02027 0.0541642 0
M  V30 8515 C 799.743 1.37554 1.38217 0
M  V30 8516 O 799.013 0.528174 1.88646 0
M  V30 8517 H 797.593 0.746646 0.0230069 0
M  V30 8518 H 800.255 1.83795 -0.648489 0
M  V30 8519 H 799.351 3.11523 0.189652 0
M  V30 8520 N 799.652 0.226554 1.55963 0
M  V30 8521 C 801.068 -0.128733 1.5908 0
M  V30 8522 C 801.268 -1.58558 1.24345 0
M  V30 8523 O 800.324 -2.32661 0.981069 0
M  V30 8524 C 801.637 0.202076 3.0002 0
M  V30 8525 C 803.185 0.144718 3.12665 0
M  V30 8526 C 803.66 0.449272 4.55791 0
M  V30 8527 N 805.151 0.399026 4.61478 0
M  V30 8528 C 805.886 0.608106 5.70166 0
M  V30 8529 N 805.382 0.879227 6.87198 0
M  V30 8530 N 807.175 0.5402 5.59498 0
M  V30 8531 H 799.326 1.17686 1.76816 0
M  V30 8532 H 801.589 0.472072 0.822102 0
M  V30 8533 H 801.295 1.21341 3.30105 0
M  V30 8534 H 801.169 -0.480554 3.74126 0
M  V30 8535 H 803.556 -0.857261 2.82374 0
M  V30 8536 H 803.637 0.860899 2.40878 0
M  V30 8537 H 803.281 1.44871 4.86801 0
M  V30 8538 H 803.211 -0.288157 5.25811 0
M  V30 8539 H 805.702 0.197372 3.77384 0
M  V30 8540 H 806.015 1.02673 7.65949 0
M  V30 8541 H 804.36 0.916477 6.88931 0
M  V30 8542 H 807.551 0.328581 4.66945 0
M  V30 8543 H 807.724 0.706548 6.44137 0
M  V30 8544 N 801.13 -1.57531 -0.0467866 0
M  V30 8545 C 802.407 -1.79568 -0.775536 0
M  V30 8546 C 802.787 -0.820322 -1.94509 0
M  V30 8547 O 802.135 0.14134 -2.28062 0
M  V30 8548 C 802.345 -3.26789 -1.22516 0
M  V30 8549 C 803.693 -3.91299 -1.64835 0
M  V30 8550 O 804.717 -3.30831 -1.3202 0
M  V30 8551 O 803.576 -4.97727 -2.25677 0
M  V30 8552 H 800.67 -0.737817 -0.373572 0
M  V30 8553 H 803.216 -1.69682 -0.0249302 0
M  V30 8554 H 801.988 -3.89357 -0.389446 0
M  V30 8555 H 801.611 -3.41496 -2.03633 0
M  V30 8556 N 802.608 0.318715 -1.54344 0
M  V30 8557 C 803.838 1.07394 -1.76494 0
M  V30 8558 C 804.246 1.82031 -0.515881 0
M  V30 8559 O 803.589 1.7609 0.52325 0
M  V30 8560 C 803.651 2.11401 -2.90775 0
M  V30 8561 C 803.315 1.56118 -4.29507 0
M  V30 8562 C 804.312 1.00043 -5.10184 0
M  V30 8563 C 801.997 1.60215 -4.76063 0
M  V30 8564 C 803.991 0.487993 -6.35529 0
M  V30 8565 C 801.678 1.08584 -6.01376 0
M  V30 8566 C 802.676 0.529714 -6.80943 0
M  V30 8567 O 802.364 0.0211823 -8.03897 0
M  V30 8568 H 802.096 0.325061 -0.592715 0
M  V30 8569 H 804.65 0.36901 -2.02058 0
M  V30 8570 H 802.88 2.85524 -2.60793 0
M  V30 8571 H 804.569 2.72683 -3.00664 0
M  V30 8572 H 805.335 0.961811 -4.75367 0
M  V30 8573 H 801.214 2.02441 -4.14172 0
M  V30 8574 H 804.758 0.0532608 -6.9758 0
M  V30 8575 H 800.655 1.12155 -6.35682 0
M  V30 8576 H 801.423 0.136151 -8.18387 0
M  V30 8577 N 804.086 1.46499 0.581025 0
M  V30 8578 C 805.332 1.53108 1.33901 0
M  V30 8579 C 805.687 0.181007 1.91547 0
M  V30 8580 O 804.98 -0.810518 1.73612 0
M  V30 8581 C 805.174 2.56686 2.48691 0
M  V30 8582 C 805.003 4.01633 2.0229 0
M  V30 8583 C 803.773 4.69333 1.87228 0
M  V30 8584 C 805.971 4.89379 1.58154 0
M  V30 8585 N 803.953 5.98891 1.34917 0
M  V30 8586 C 805.324 6.08775 1.17445 0
M  V30 8587 C 807.379 4.76017 1.45987 0
M  V30 8588 C 806.082 7.16286 0.657805 0
M  V30 8589 C 808.108 5.83601 0.95726 0
M  V30 8590 C 807.47 7.02171 0.55996 0
M  V30 8591 H 803.569 0.61509 0.482896 0
M  V30 8592 H 806.153 1.83123 0.661361 0
M  V30 8593 H 804.324 2.28578 3.14017 0
M  V30 8594 H 806.056 2.5328 3.15644 0
M  V30 8595 H 802.811 4.24878 2.09226 0
M  V30 8596 H 803.235 6.67852 1.10917 0
M  V30 8597 H 807.877 3.84736 1.75322 0
M  V30 8598 H 805.595 8.07333 0.352047 0
M  V30 8599 H 809.181 5.75304 0.867007 0
M  V30 8600 H 808.061 7.84 0.177046 0
M  V30 8601 N 805.565 -0.825799 1.34232 0
M  V30 8602 C 806.512 -1.93651 1.2557 0
M  V30 8603 C 807.482 -1.65578 0.131536 0
M  V30 8604 O 808.667 -1.88231 0.312027 0
M  V30 8605 C 805.807 -3.29862 1.01415 0
M  V30 8606 C 804.92 -3.70247 2.22579 0
M  V30 8607 C 804.055 -4.95392 1.91731 0
M  V30 8608 C 803.094 -5.28349 3.09053 0
M  V30 8609 N 802.231 -6.44671 2.78107 0
M  V30 8610 H 807.071 -2.00392 2.20561 0
M  V30 8611 H 804.608 -0.980441 1.09662 0
M  V30 8612 H 806.566 -4.08356 0.854485 0
M  V30 8613 H 805.196 -3.22642 0.100936 0
M  V30 8614 H 804.248 -2.87169 2.49476 0
M  V30 8615 H 805.56 -3.90575 3.10246 0
M  V30 8616 H 804.714 -5.81665 1.72484 0
M  V30 8617 H 803.453 -4.77059 1.0132 0
M  V30 8618 H 802.458 -4.40574 3.289 0
M  V30 8619 H 803.683 -5.48622 4.00239 0
M  V30 8620 H 801.629 -6.278 1.9027 0
M  V30 8621 H 801.546 -6.65158 3.59306 0
M  V30 8622 H 802.814 -7.34022 2.62358 0
M  V30 8623 N 807.043 -1.17915 -1.04565 0
M  V30 8624 C 808.29 -0.971424 -1.77678 0
M  V30 8625 C 808.618 0.499401 -1.87979 0
M  V30 8626 O 807.873 1.38695 -1.38066 0
M  V30 8627 C 808.172 -1.56528 -3.213 0
M  V30 8628 C 807.838 -3.06138 -3.31044 0
M  V30 8629 C 806.5 -3.46974 -3.33411 0
M  V30 8630 C 808.852 -4.02151 -3.31548 0
M  V30 8631 C 806.18 -4.82406 -3.33918 0
M  V30 8632 C 808.532 -5.37492 -3.33595 0
M  V30 8633 C 807.196 -5.77782 -3.34251 0
M  V30 8634 H 806.466 -0.355469 -0.650171 0
M  V30 8635 H 809.113 -1.46902 -1.22849 0
M  V30 8636 H 807.418 -0.98955 -3.79098 0
M  V30 8637 H 809.115 -1.38003 -3.76505 0
M  V30 8638 H 805.705 -2.73589 -3.29919 0
M  V30 8639 H 809.889 -3.71656 -3.28916 0
M  V30 8640 H 805.145 -5.12927 -3.3274 0
M  V30 8641 H 809.319 -6.1166 -3.32934 0
M  V30 8642 H 806.946 -6.82702 -3.34397 0
M  V30 8643 N 808.521 1.23394 -0.980386 0
M  V30 8644 C 809.798 1.87242 -0.565667 0
M  V30 8645 C 810.178 1.88151 0.957197 0
M  V30 8646 O 809.526 1.36309 1.8339 0
M  V30 8647 C 809.736 3.28743 -1.17172 0
M  V30 8648 C 811.084 4.05335 -1.26446 0
M  V30 8649 O 812.108 3.37962 -1.12517 0
M  V30 8650 O 810.967 5.25908 -1.48604 0
M  V30 8651 H 808.061 0.80477 -0.190459 0
M  V30 8652 H 810.607 1.3127 -1.07547 0
M  V30 8653 H 809.379 3.22647 -2.21392 0
M  V30 8654 H 809.002 3.92305 -0.646739 0
M  V30 8655 N 809.999 0.752036 1.385 0
M  V30 8656 C 810.947 0.112634 2.32327 0
M  V30 8657 C 811.941 -0.707037 1.53939 0
M  V30 8658 O 813.147 -0.606309 1.69481 0
M  V30 8659 H 809.522 0.0176275 0.751793 0
M  V30 8660 H 811.493 0.920074 2.83861 0
M  V30 8661 C 810.242 -0.767458 3.39124 0
M  V30 8662 H 809.565 -0.146122 3.99533 0
M  V30 8663 H 811.005 -1.18216 4.07187 0
M  V30 8664 C 809.464 -1.90938 2.77568 0
M  V30 8665 O 809.994 -3.00342 2.66754 0
M  V30 8666 N 808.2 -1.70396 2.35401 0
M  V30 8667 H 807.747 -0.81413 2.44397 0
M  V30 8668 H 807.705 -2.46972 1.94557 0
M  V30 8669 N 811.477 -1.49425 0.500989 0
M  V30 8670 C 812.409 -2.27037 -0.314159 0
M  V30 8671 C 813.422 -1.33578 -0.930626 0
M  V30 8672 O 814.611 -1.58861 -0.813968 0
M  V30 8673 C 811.711 -3.05968 -1.45729 0
M  V30 8674 C 810.884 -4.27 -0.948135 0
M  V30 8675 C 809.943 -4.87977 -1.96888 0
M  V30 8676 O 808.969 -5.48044 -1.53743 0
M  V30 8677 N 810.171 -4.77627 -3.29928 0
M  V30 8678 H 812.936 -2.97634 0.351336 0
M  V30 8679 H 810.497 -1.58427 0.333536 0
M  V30 8680 H 812.489 -3.43634 -2.1377 0
M  V30 8681 H 811.059 -2.37978 -2.02695 0
M  V30 8682 H 810.279 -3.94091 -0.0926311 0
M  V30 8683 H 811.567 -5.0541 -0.586362 0
M  V30 8684 H 810.965 -4.29926 -3.67669 0
M  V30 8685 H 809.522 -5.19478 -3.93682 0
M  V30 8686 N 812.955 -0.234822 -1.55841 0
M  V30 8687 C 813.902 0.6698 -2.20867 0
M  V30 8688 C 814.872 1.18042 -1.16856 0
M  V30 8689 O 816.057 1.23709 -1.45261 0
M  V30 8690 C 813.197 1.86646 -2.90271 0
M  V30 8691 C 812.31 1.39351 -4.08908 0
M  V30 8692 C 811.445 2.54878 -4.66059 0
M  V30 8693 C 810.484 2.04384 -5.76969 0
M  V30 8694 N 809.621 3.13233 -6.28355 0
M  V30 8695 H 814.461 0.10858 -2.97802 0
M  V30 8696 H 811.998 0.041836 -1.4704 0
M  V30 8697 H 813.956 2.56926 -3.28702 0
M  V30 8698 H 812.586 2.40035 -2.15831 0
M  V30 8699 H 811.638 0.585173 -3.75872 0
M  V30 8700 H 812.95 0.983356 -4.89011 0
M  V30 8701 H 812.104 3.33219 -5.07001 0
M  V30 8702 H 810.843 2.99188 -3.85146 0
M  V30 8703 H 809.848 1.24509 -5.35516 0
M  V30 8704 H 811.073 1.61057 -6.59725 0
M  V30 8705 H 809.019 3.57 -5.50352 0
M  V30 8706 H 808.936 2.76511 -7.03618 0
M  V30 8707 H 810.204 3.91669 -6.73955 0
M  V30 8708 N 814.433 1.57553 0.0384317 0
M  V30 8709 C 815.363 2.0898 1.04161 0
M  V30 8710 C 816.344 0.99029 1.38301 0
M  V30 8711 O 817.529 1.26499 1.47349 0
M  V30 8712 C 814.659 2.56145 2.34536 0
M  V30 8713 C 813.613 3.70275 2.14663 0
M  V30 8714 C 812.939 4.03612 3.50715 0
M  V30 8715 C 814.239 4.99067 1.54045 0
M  V30 8716 H 815.933 2.93046 0.613548 0
M  V30 8717 H 813.479 1.40973 0.293684 0
M  V30 8718 H 815.432 2.90741 3.05037 0
M  V30 8719 H 814.156 1.6915 2.79385 0
M  V30 8720 H 812.815 3.36013 1.46597 0
M  V30 8721 H 812.463 3.13698 3.93195 0
M  V30 8722 H 812.163 4.80482 3.38247 0
M  V30 8723 H 813.687 4.40735 4.22593 0
M  V30 8724 H 815.101 5.3168 2.14451 0
M  V30 8725 H 813.498 5.80484 1.52178 0
M  V30 8726 H 814.568 4.8226 0.505259 0
M  V30 8727 N 815.911 -0.310526 1.54511 0
M  V30 8728 C 817.136 -1.07046 1.7764 0
M  V30 8729 C 817.561 -1.80488 0.529696 0
M  V30 8730 O 816.919 -1.73702 -0.519361 0
M  V30 8731 C 816.967 -2.03411 2.97752 0
M  V30 8732 O 816.071 -3.11545 2.7021 0
M  V30 8733 H 815.412 -0.307994 0.588248 0
M  V30 8734 H 817.942 -0.350848 2.01569 0
M  V30 8735 H 817.952 -2.46048 3.2546 0
M  V30 8736 H 816.627 -1.49361 3.88155 0
M  V30 8737 H 815.204 -2.7349 2.53491 0
M  V30 8738 N 817.389 -1.46805 -0.573248 0
M  V30 8739 C 818.635 -1.5283 -1.33307 0
M  V30 8740 C 818.968 -0.183287 -1.93333 0
M  V30 8741 O 818.243 0.806354 -1.76998 0
M  V30 8742 C 818.526 -2.63414 -2.45531 0
M  V30 8743 C 818.379 -4.07478 -1.90478 0
M  V30 8744 C 819.698 -2.70014 -3.47535 0
M  V30 8745 H 816.817 -0.556371 -0.483343 0
M  V30 8746 H 819.459 -1.78787 -0.643066 0
M  V30 8747 H 817.609 -2.41412 -3.04389 0
M  V30 8748 H 819.281 -4.40795 -1.36004 0
M  V30 8749 H 817.524 -4.16511 -1.21248 0
M  V30 8750 H 818.195 -4.80598 -2.71531 0
M  V30 8751 H 820.671 -2.89817 -2.98572 0
M  V30 8752 H 819.547 -3.49192 -4.23504 0
M  V30 8753 H 819.808 -1.76436 -4.05367 0
M  V30 8754 N 818.867 0.818669 -1.34668 0
M  V30 8755 C 819.777 1.9616 -1.2868 0
M  V30 8756 C 820.793 1.72918 -0.193742 0
M  V30 8757 O 821.969 1.96951 -0.420975 0
M  V30 8758 C 819.034 3.30534 -1.04633 0
M  V30 8759 C 818.095 3.66755 -2.23136 0
M  V30 8760 C 817.328 4.94717 -2.00227 0
M  V30 8761 O 817.551 5.62218 -0.96264 0
M  V30 8762 O 816.485 5.28915 -2.87286 0
M  V30 8763 H 820.311 2.04157 -2.24842 0
M  V30 8764 H 817.896 0.954691 -1.14917 0
M  V30 8765 H 819.778 4.11005 -0.930216 0
M  V30 8766 H 818.453 3.23495 -0.115139 0
M  V30 8767 H 817.36 2.8671 -2.40308 0
M  V30 8768 H 818.693 3.78484 -3.1466 0
M  V30 8769 N 820.346 1.18468 1.03938 0
M  V30 8770 C 821.757 0.984808 1.58614 0
M  V30 8771 C 822.108 -0.465165 1.90606 0
M  V30 8772 O 821.233 -1.34274 1.69704 0
M  V30 8773 C 821.828 1.78135 2.8819 0
M  V30 8774 C 820.387 1.62579 3.39478 0
M  V30 8775 C 819.534 1.77501 2.13046 0
M  V30 8776 H 822.485 1.32993 0.865944 0
M  V30 8777 H 822.506 1.27119 3.58638 0
M  V30 8778 H 822.018 2.83661 2.64874 0
M  V30 8779 H 820.119 0.59595 3.67803 0
M  V30 8780 H 820.232 2.42463 4.13217 0
M  V30 8781 H 818.596 1.2046 2.24414 0
M  V30 8782 H 819.379 2.84464 1.92185 0
M  V30 8783 N 821.824 -1.22873 0.986916 0
M  V30 8784 C 823.072 -1.91084 0.658121 0
M  V30 8785 C 823.393 -1.77304 -0.811675 0
M  V30 8786 O 822.663 -1.15649 -1.58121 0
M  V30 8787 H 821.243 -0.707251 0.240427 0
M  V30 8788 H 823.905 -1.49357 1.25213 0
M  V30 8789 H 823.001 -2.98373 0.915428 0
M  V30 8790 N 823.302 -0.75937 -1.38099 0
M  V30 8791 C 824.532 -0.328634 -2.0397 0
M  V30 8792 C 824.94 1.04989 -1.57398 0
M  V30 8793 O 824.283 1.67918 -0.744932 0
M  V30 8794 C 824.345 -0.279216 -3.58414 0
M  V30 8795 C 824.009 -1.60025 -4.28067 0
M  V30 8796 C 825.006 -2.55048 -4.53041 0
M  V30 8797 C 822.691 -1.87128 -4.66142 0
M  V30 8798 C 824.685 -3.7539 -5.15132 0
M  V30 8799 C 822.372 -3.07742 -5.27956 0
M  V30 8800 C 823.37 -4.01694 -5.52387 0
M  V30 8801 O 823.058 -5.20186 -6.12912 0
M  V30 8802 H 822.79 -0.137443 -0.66188 0
M  V30 8803 H 825.344 -1.03082 -1.77661 0
M  V30 8804 H 823.574 0.479254 -3.83719 0
M  V30 8805 H 825.263 0.122781 -4.05714 0
M  V30 8806 H 826.029 -2.35387 -4.24049 0
M  V30 8807 H 821.908 -1.14833 -4.46469 0
M  V30 8808 H 825.452 -4.48737 -5.34117 0
M  V30 8809 H 821.349 -3.27294 -5.56371 0
M  V30 8810 H 822.117 -5.20846 -6.31397 0
M  V30 8811 N 824.78 1.49157 -0.508906 0
M  V30 8812 C 826.191 1.86593 -0.0630975 0
M  V30 8813 C 826.542 1.42051 1.35337 0
M  V30 8814 O 825.667 0.801866 2.00995 0
M  V30 8815 C 826.262 3.38629 -0.107729 0
M  V30 8816 C 824.821 3.75336 0.282776 0
M  V30 8817 C 823.968 2.7317 -0.4768 0
M  V30 8818 H 826.919 1.41362 -0.72128 0
M  V30 8819 H 826.94 3.74271 0.685689 0
M  V30 8820 H 826.452 3.71017 -1.13876 0
M  V30 8821 H 824.553 3.48558 1.31675 0
M  V30 8822 H 824.666 4.79081 -0.0421728 0
M  V30 8823 H 823.03 2.54591 0.0743552 0
M  V30 8824 H 823.813 3.08403 -1.50807 0
M  V30 8825 N 826.258 0.243083 1.55714 0
M  V30 8826 C 827.674 -0.111853 1.59208 0
M  V30 8827 C 827.874 -1.5723 1.2602 0
M  V30 8828 O 826.93 -2.31608 1.00569 0
M  V30 8829 C 828.243 0.233885 2.99789 0
M  V30 8830 C 829.791 0.177873 3.12494 0
M  V30 8831 C 830.266 0.49759 4.55289 0
M  V30 8832 N 831.757 0.447949 4.61029 0
M  V30 8833 C 832.492 0.668545 5.69489 0
M  V30 8834 N 831.988 0.952064 6.86227 0
M  V30 8835 N 833.781 0.599512 5.58894 0
M  V30 8836 H 825.932 1.19554 1.75558 0
M  V30 8837 H 828.195 0.480765 0.817049 0
M  V30 8838 H 827.901 1.24835 3.28799 0
M  V30 8839 H 827.775 -0.440846 3.74615 0
M  V30 8840 H 830.162 -0.827263 2.83267 0
M  V30 8841 H 830.243 0.886399 2.39951 0
M  V30 8842 H 829.887 1.50026 4.85237 0
M  V30 8843 H 829.817 -0.232371 5.26087 0
M  V30 8844 H 832.308 0.237388 3.77154 0
M  V30 8845 H 832.621 1.10791 7.64817 0
M  V30 8846 H 830.966 0.989496 6.8792 0
M  V30 8847 H 834.157 0.378088 4.66571 0
M  V30 8848 H 834.33 0.774828 6.43351 0
M  V30 8849 N 827.736 -1.57571 -0.0300757 0
M  V30 8850 C 828.684 -2.0758 -1.04944 0
M  V30 8851 C 829.678 -0.989384 -1.37505 0
M  V30 8852 O 830.884 -1.17427 -1.36422 0
M  V30 8853 H 827.259 -0.662419 -0.355956 0
M  V30 8854 H 829.23 -2.92268 -0.601848 0
M  V30 8855 C 827.979 -2.5698 -2.34215 0
M  V30 8856 H 827.302 -3.40193 -2.10021 0
M  V30 8857 H 828.742 -2.95682 -3.03888 0
M  V30 8858 C 827.201 -1.47059 -3.03109 0
M  V30 8859 O 827.731 -0.83625 -3.92899 0
M  V30 8860 N 825.937 -1.20538 -2.64422 0
M  V30 8861 H 825.484 -1.72305 -1.9149 0
M  V30 8862 H 825.442 -0.472045 -3.10836 0
M  V30 8863 N 829.214 0.302327 -1.54673 0
M  V30 8864 C 830.463 1.03533 -1.73101 0
M  V30 8865 C 830.776 1.88473 -0.523174 0
M  V30 8866 O 831.982 2.65029 -0.589229 0
M  V30 8867 C 830.438 1.89043 -3.06252 0
M  V30 8868 C 830.046 1.09112 -4.3451 0
M  V30 8869 C 831.79 2.61951 -3.34039 0
M  V30 8870 C 829.697 1.93891 -5.58713 0
M  V30 8871 H 828.627 0.390261 -0.645145 0
M  V30 8872 H 831.278 0.2924 -1.81155 0
M  V30 8873 H 829.66 2.67319 -2.92159 0
M  V30 8874 H 830.834 0.354596 -4.59434 0
M  V30 8875 H 829.149 0.477923 -4.13648 0
M  V30 8876 H 831.746 3.25729 -4.24033 0
M  V30 8877 H 832.089 3.30711 -2.52855 0
M  V30 8878 H 832.622 1.90725 -3.49097 0
M  V30 8879 H 829.361 1.29604 -6.4256 0
M  V30 8880 H 828.881 2.6522 -5.37976 0
M  V30 8881 H 830.56 2.51971 -5.95919 0
M  V30 8882 N 830.692 1.47107 0.565454 0
M  V30 8883 C 831.622 1.61846 1.68309 0
M  V30 8884 C 832.603 0.468159 1.63531 0
M  V30 8885 O 833.788 0.696504 1.8128 0
M  V30 8886 C 830.918 1.62474 3.06952 0
M  V30 8887 C 829.872 2.76649 3.26572 0
M  V30 8888 C 829.198 2.62345 4.65917 0
M  V30 8889 C 830.498 4.18319 3.12741 0
M  V30 8890 H 832.192 2.55407 1.5623 0
M  V30 8891 H 829.738 1.22916 0.750179 0
M  V30 8892 H 831.691 1.71378 3.84977 0
M  V30 8893 H 830.415 0.654692 3.19971 0
M  V30 8894 H 829.074 2.67242 2.50952 0
M  V30 8895 H 828.722 1.63386 4.75725 0
M  V30 8896 H 828.422 3.38936 4.79996 0
M  V30 8897 H 829.946 2.73165 5.46089 0
M  V30 8898 H 831.36 4.28745 3.80593 0
M  V30 8899 H 829.757 4.95632 3.38333 0
M  V30 8900 H 830.827 4.37263 2.09592 0
M  V30 8901 N 832.17 -0.811516 1.35101 0
M  V30 8902 C 833.586 -1.10634 1.15031 0
M  V30 8903 C 833.786 -2.01459 -0.0405379 0
M  V30 8904 O 832.842 -2.42235 -0.712635 0
M  V30 8905 C 834.155 -1.74207 2.45097 0
M  V30 8906 C 835.703 -1.8665 2.51258 0
M  V30 8907 C 836.178 -2.53638 3.81355 0
M  V30 8908 N 837.669 -2.61128 3.82579 0
M  V30 8909 C 838.404 -3.13717 4.79968 0
M  V30 8910 N 837.9 -3.66782 5.87744 0
M  V30 8911 N 839.693 -3.12224 4.67411 0
M  V30 8912 H 831.844 -0.207641 2.11383 0
M  V30 8913 H 834.107 -0.154697 0.935293 0
M  V30 8914 H 833.813 -1.14936 3.32389 0
M  V30 8915 H 833.687 -2.73958 2.59281 0
M  V30 8916 H 836.074 -2.45066 1.64398 0
M  V30 8917 H 836.155 -0.857678 2.40993 0
M  V30 8918 H 835.799 -1.95873 4.68611 0
M  V30 8919 H 835.729 -3.55047 3.88907 0
M  V30 8920 H 838.22 -2.23527 3.04703 0
M  V30 8921 H 838.533 -4.05194 6.58056 0
M  V30 8922 H 836.878 -3.64994 5.91443 0
M  V30 8923 H 840.069 -2.70042 3.82354 0
M  V30 8924 H 840.242 -3.52903 5.43474 0
M  V30 8925 N 833.648 -1.19017 -1.03309 0
M  V30 8926 C 834.925 -0.899659 -1.73682 0
M  V30 8927 C 835.305 0.595677 -2.02521 0
M  V30 8928 O 834.653 1.55263 -1.67648 0
M  V30 8929 C 834.863 -1.75508 -3.01659 0
M  V30 8930 C 836.211 -1.98679 -3.75249 0
M  V30 8931 O 837.235 -1.72624 -3.11576 0
M  V30 8932 O 836.094 -2.42587 -4.89708 0
M  V30 8933 H 833.188 -0.334903 -0.756154 0
M  V30 8934 H 835.734 -1.29809 -1.09305 0
M  V30 8935 H 834.506 -2.7684 -2.76542 0
M  V30 8936 H 834.129 -1.35565 -3.73775 0
M  V30 8937 N 835.127 1.22348 -0.993418 0
M  V30 8938 C 836.373 1.91689 -0.680217 0
M  V30 8939 C 836.728 1.75912 0.779269 0
M  V30 8940 O 836.021 1.11761 1.55628 0
M  V30 8941 C 836.215 3.42477 -1.02197 0
M  V30 8942 C 836.044 3.72923 -2.51313 0
M  V30 8943 C 834.814 3.9291 -3.17726 0
M  V30 8944 C 837.012 3.7736 -3.49434 0
M  V30 8945 N 834.994 4.10672 -4.56313 0
M  V30 8946 C 836.365 4.00269 -4.73481 0
M  V30 8947 C 838.42 3.60211 -3.43733 0
M  V30 8948 C 837.123 4.0781 -5.92523 0
M  V30 8949 C 839.149 3.69011 -4.62152 0
M  V30 8950 C 838.511 3.92371 -5.85 0
M  V30 8951 H 834.61 0.722086 -0.300193 0
M  V30 8952 H 837.194 1.47273 -1.27353 0
M  V30 8953 H 835.365 3.85699 -0.457223 0
M  V30 8954 H 837.097 3.99204 -0.664702 0
M  V30 8955 H 833.852 3.90345 -2.68193 0
M  V30 8956 H 834.276 4.2348 -5.28199 0
M  V30 8957 H 838.918 3.41137 -2.49771 0
M  V30 8958 H 836.636 4.25688 -6.86888 0
M  V30 8959 H 840.222 3.5708 -4.59331 0
M  V30 8960 H 839.102 3.9901 -6.75101 0
M  V30 8961 N 836.605 0.766683 1.37694 0
M  V30 8962 C 837.538 0.0959288 2.27998 0
M  V30 8963 C 838.516 -0.714493 1.46061 0
M  V30 8964 O 839.7 -0.690337 1.75404 0
M  V30 8965 C 836.827 -0.87057 3.27321 0
M  V30 8966 C 835.873 -0.144771 4.26254 0
M  V30 8967 S 836.706 1.16365 5.22704 0
M  V30 8968 C 837.862 0.200564 6.25579 0
M  V30 8969 H 838.095 0.861666 2.84539 0
M  V30 8970 H 835.628 0.559845 1.43893 0
M  V30 8971 H 837.586 -1.42282 3.85053 0
M  V30 8972 H 836.247 -1.60938 2.69737 0
M  V30 8973 H 835.44 -0.877259 4.96307 0
M  V30 8974 H 835.042 0.33633 3.72485 0
M  V30 8975 H 837.334 -0.628833 6.74575 0
M  V30 8976 H 838.277 0.869117 7.02746 0
M  V30 8977 H 838.685 -0.185972 5.64194 0
M  V30 8978 N 838.083 -1.48885 0.516809 0
M  V30 8979 C 839.331 -2.02088 -0.0220166 0
M  V30 8980 C 839.652 -1.39735 -1.36011 0
M  V30 8981 O 838.922 -0.558119 -1.87781 0
M  V30 8982 H 837.502 -0.746917 -0.0111255 0
M  V30 8983 H 840.164 -1.8274 0.677647 0
M  V30 8984 H 839.26 -3.11786 -0.140067 0
M  V30 8985 N 839.561 -0.251338 -1.55583 0
M  V30 8986 C 840.801 0.373651 -2.00956 0
M  V30 8987 C 841.165 1.54806 -1.13574 0
M  V30 8988 O 842.366 2.24108 -1.48422 0
M  V30 8989 C 840.637 0.768919 -3.49031 0
M  V30 8990 S 842.196 1.38381 -4.16409 0
M  V30 8991 H 839.014 0.117371 -0.701245 0
M  V30 8992 H 841.616 -0.367611 -1.92013 0
M  V30 8993 H 840.32 -0.0950492 -4.1029 0
M  V30 8994 H 839.851 1.54225 -3.61909 0
M  V30 8995 H 841.866 2.6728 -4.18062 0
M  V30 8996 N 841.039 1.57585 0.0217189 0
M  V30 8997 C 841.987 2.08134 1.03842 0
M  V30 8998 C 842.981 0.996662 1.36978 0
M  V30 8999 O 844.187 1.18149 1.35797 0
M  V30 9000 H 840.562 0.664298 0.352438 0
M  V30 9001 H 842.533 2.92583 0.58634 0
M  V30 9002 C 841.282 2.58218 2.32849 0
M  V30 9003 H 840.605 3.41302 2.08214 0
M  V30 9004 H 842.045 2.97289 3.02316 0
M  V30 9005 C 840.504 1.48664 3.02325 0
M  V30 9006 O 841.034 0.857075 3.9245 0
M  V30 9007 N 839.24 1.21938 2.63779 0
M  V30 9008 H 838.787 1.73319 1.90574 0
M  V30 9009 H 838.745 0.488523 3.10581 0
M  V30 9010 N 842.517 -0.29412 1.54831 0
M  V30 9011 C 843.449 -1.38476 1.82639 0
M  V30 9012 C 844.462 -1.46517 0.709694 0
M  V30 9013 O 845.651 -1.48712 0.987269 0
M  V30 9014 C 842.751 -2.76791 1.95551 0
M  V30 9015 C 841.924 -2.91599 3.26019 0
M  V30 9016 C 840.983 -4.10456 3.29261 0
M  V30 9017 O 840.009 -4.02214 4.02756 0
M  V30 9018 N 841.211 -5.21422 2.55145 0
M  V30 9019 H 843.976 -1.14974 2.76769 0
M  V30 9020 H 841.537 -0.484206 1.5449 0
M  V30 9021 H 843.529 -3.5456 1.95113 0
M  V30 9022 H 842.099 -2.93209 1.08384 0
M  V30 9023 H 841.319 -2.00886 3.39173 0
M  V30 9024 H 842.607 -2.98409 4.12104 0
M  V30 9025 H 842.005 -5.31 1.95078 0
M  V30 9026 H 840.562 -5.97501 2.60454 0
M  V30 9027 N 843.995 -1.47404 -0.557645 0
M  V30 9028 C 844.942 -1.59859 -1.66475 0
M  V30 9029 C 845.912 -0.441644 -1.60121 0
M  V30 9030 O 847.097 -0.661641 -1.78961 0
M  V30 9031 C 844.237 -1.61843 -3.04797 0
M  V30 9032 C 843.35 -2.8845 -3.2159 0
M  V30 9033 C 842.485 -2.81773 -4.50308 0
M  V30 9034 C 841.524 -4.03208 -4.60532 0
M  V30 9035 N 840.661 -3.94769 -5.80604 0
M  V30 9036 H 845.501 -2.54415 -1.55168 0
M  V30 9037 H 843.038 -1.26194 -0.755876 0
M  V30 9038 H 844.996 -1.60976 -3.84893 0
M  V30 9039 H 843.626 -0.707997 -3.1494 0
M  V30 9040 H 842.678 -2.99186 -2.34929 0
M  V30 9041 H 843.99 -3.78379 -3.25009 0
M  V30 9042 H 843.144 -2.79153 -5.38663 0
M  V30 9043 H 841.883 -1.89527 -4.49367 0
M  V30 9044 H 840.888 -4.06133 -3.70589 0
M  V30 9045 H 842.113 -4.9658 -4.63233 0
M  V30 9046 H 840.059 -3.05326 -5.80613 0
M  V30 9047 H 839.976 -4.78375 -5.854 0
M  V30 9048 H 841.244 -3.96165 -6.71322 0
M  V30 9049 N 845.473 0.80434 -1.35529 0
M  V30 9050 C 846.383 1.94784 -1.30753 0
M  V30 9051 C 847.399 1.72703 -0.212071 0
M  V30 9052 O 848.575 1.96494 -0.441841 0
M  V30 9053 C 845.64 3.29406 -1.08133 0
M  V30 9054 C 844.701 3.64367 -2.27013 0
M  V30 9055 C 843.934 4.92566 -2.05463 0
M  V30 9056 O 844.157 5.61166 -1.02222 0
M  V30 9057 O 843.091 5.25838 -2.92879 0
M  V30 9058 H 846.917 2.01761 -2.26994 0
M  V30 9059 H 844.502 0.942448 -1.15924 0
M  V30 9060 H 846.384 4.09995 -0.973756 0
M  V30 9061 H 845.059 3.23355 -0.149444 0
M  V30 9062 H 843.966 2.84146 -2.43335 0
M  V30 9063 H 845.299 3.75125 -3.18656 0
M  V30 9064 N 846.951 1.19563 1.02676 0
M  V30 9065 C 848.197 1.00105 1.76371 0
M  V30 9066 C 848.53 -0.466823 1.88506 0
M  V30 9067 O 847.805 -1.34665 1.40341 0
M  V30 9068 C 848.088 1.67321 3.18866 0
M  V30 9069 C 847.941 3.21486 3.1459 0
M  V30 9070 C 849.26 1.39794 4.17308 0
M  V30 9071 H 846.379 0.365075 0.640226 0
M  V30 9072 H 849.021 1.47433 1.19848 0
M  V30 9073 H 847.171 1.27081 3.67128 0
M  V30 9074 H 848.843 3.70953 2.7421 0
M  V30 9075 H 847.086 3.5292 2.52249 0
M  V30 9076 H 847.757 3.63665 4.15273 0
M  V30 9077 H 850.233 1.74685 3.77657 0
M  V30 9078 H 849.109 1.89371 5.15199 0
M  V30 9079 H 849.37 0.323505 4.40915 0
M  V30 9080 N 848.429 -1.21819 0.999893 0
M  V30 9081 C 849.339 -2.27691 0.565159 0
M  V30 9082 C 850.355 -1.69587 -0.389398 0
M  V30 9083 O 851.531 -1.99786 -0.254499 0
M  V30 9084 C 848.596 -3.46537 -0.106432 0
M  V30 9085 C 847.657 -4.19932 0.891964 0
M  V30 9086 C 846.89 -5.33103 0.252327 0
M  V30 9087 O 847.113 -5.62398 -0.952103 0
M  V30 9088 O 846.047 -5.94184 0.960698 0
M  V30 9089 H 849.873 -2.67059 1.44613 0
M  V30 9090 H 847.458 -1.28119 0.768499 0
M  V30 9091 H 849.34 -4.18631 -0.482301 0
M  V30 9092 H 848.015 -3.09079 -0.961865 0
M  V30 9093 H 846.922 -3.5008 1.3189 0
M  V30 9094 H 848.255 -4.61287 1.71682 0
M  V30 9095 N 849.908 -0.773975 -1.37286 0
M  V30 9096 C 851.324 -0.45386 -1.53011 0
M  V30 9097 C 851.524 1.03018 -1.73175 0
M  V30 9098 O 850.58 1.81597 -1.75438 0
M  V30 9099 C 851.893 -1.27087 -2.72524 0
M  V30 9100 C 853.441 -1.26299 -2.86387 0
M  V30 9101 C 853.916 -2.0634 -4.08886 0
M  V30 9102 N 855.407 -2.03706 -4.16003 0
M  V30 9103 C 856.142 -2.62418 -5.09828 0
M  V30 9104 N 855.638 -3.29926 -6.09197 0
M  V30 9105 N 857.431 -2.52236 -5.02328 0
M  V30 9106 H 849.582 -1.73551 -1.22449 0
M  V30 9107 H 851.845 -0.736874 -0.596423 0
M  V30 9108 H 851.551 -2.32263 -2.64096 0
M  V30 9109 H 851.425 -0.90157 -3.66267 0
M  V30 9110 H 853.812 -0.219213 -2.94285 0
M  V30 9111 H 853.893 -1.67195 -1.93596 0
M  V30 9112 H 853.537 -3.10741 -4.01749 0
M  V30 9113 H 853.467 -1.62825 -5.00795 0
M  V30 9114 H 855.958 -1.54559 -3.44848 0
M  V30 9115 H 856.271 -3.72095 -6.77322 0
M  V30 9116 H 854.616 -3.34026 -6.09469 0
M  V30 9117 H 857.807 -1.99108 -4.23643 0
M  V30 9118 H 857.98 -2.98286 -5.75265 0
M  V30 9119 N 851.386 1.48609 -0.524698 0
M  V30 9120 C 852.802 1.58557 -0.182199 0
M  V30 9121 C 853.002 1.52732 1.31435 0
M  V30 9122 O 852.058 1.41362 2.0922 0
M  V30 9123 C 853.371 2.90406 -0.78004 0
M  V30 9124 C 854.919 3.03924 -0.748293 0
M  V30 9125 C 855.394 4.38427 -1.32462 0
M  V30 9126 N 856.885 4.4498 -1.28635 0
M  V30 9127 C 857.62 5.47551 -1.70223 0
M  V30 9128 N 857.116 6.57103 -2.19515 0
M  V30 9129 N 858.909 5.38402 -1.61493 0
M  V30 9130 H 851.06 1.50638 -1.4974 0
M  V30 9131 H 853.323 0.714952 -0.622533 0
M  V30 9132 H 853.029 3.00308 -1.83052 0
M  V30 9133 H 852.903 3.76343 -0.254075 0
M  V30 9134 H 855.29 2.93638 0.293407 0
M  V30 9135 H 855.371 2.19611 -1.31167 0
M  V30 9136 H 855.015 4.49466 -2.36522 0
M  V30 9137 H 854.945 5.21418 -0.736967 0
M  V30 9138 H 857.436 3.66393 -0.92545 0
M  V30 9139 H 857.749 7.31499 -2.49257 0
M  V30 9140 H 856.094 6.58081 -2.23506 0
M  V30 9141 H 859.285 4.5171 -1.22785 0
M  V30 9142 H 859.458 6.18208 -1.94225 0
M  V30 9143 N 852.864 0.259585 1.55447 0
M  V30 9144 C 853.811 -0.634578 2.21905 0
M  V30 9145 C 854.781 -1.16168 1.18719 0
M  V30 9146 O 855.966 -1.21383 1.4721 0
M  V30 9147 C 853.106 -1.82005 2.93203 0
M  V30 9148 C 852.219 -1.32828 4.11073 0
M  V30 9149 C 851.354 -2.47431 4.70055 0
M  V30 9150 C 850.393 -1.95179 5.80148 0
M  V30 9151 N 849.53 -3.03197 6.33258 0
M  V30 9152 H 854.37 -0.0611886 2.97937 0
M  V30 9153 H 851.907 -0.0184378 1.47088 0
M  V30 9154 H 853.865 -2.51664 3.32748 0
M  V30 9155 H 852.495 -2.36571 2.19622 0
M  V30 9156 H 851.547 -0.525301 3.76756 0
M  V30 9157 H 852.859 -0.905435 4.90513 0
M  V30 9158 H 852.013 -3.25111 5.12238 0
M  V30 9159 H 850.752 -2.93023 3.89857 0
M  V30 9160 H 849.757 -1.15974 5.37429 0
M  V30 9161 H 850.982 -1.50541 6.62204 0
M  V30 9162 H 848.928 -3.48199 5.55961 0
M  V30 9163 H 848.845 -2.65282 7.07928 0
M  V30 9164 H 850.113 -3.80898 6.80101 0
M  V30 9165 N 854.342 -1.57594 -0.0133615 0
M  V30 9166 C 855.252 -2.10991 -1.02566 0
M  V30 9167 C 856.268 -1.05208 -1.3859 0
M  V30 9168 O 857.444 -1.37034 -1.47593 0
M  V30 9169 C 854.509 -2.59165 -2.30292 0
M  V30 9170 C 853.57 -3.79495 -2.00704 0
M  V30 9171 C 852.803 -4.25361 -3.22341 0
M  V30 9172 O 853.026 -3.70645 -4.33565 0
M  V30 9173 O 851.96 -5.17649 -3.07121 0
M  V30 9174 H 855.786 -2.97678 -0.601806 0
M  V30 9175 H 853.371 -1.47598 -0.23135 0
M  V30 9176 H 855.253 -2.90409 -3.05354 0
M  V30 9177 H 853.928 -1.75582 -2.71942 0
M  V30 9178 H 852.835 -3.53245 -1.23161 0
M  V30 9179 H 854.168 -4.64109 -1.639 0
M  V30 9180 N 855.82 0.285905 -1.54985 0
M  V30 9181 C 857.236 0.632405 -1.46536 0
M  V30 9182 C 857.436 1.90074 -0.668888 0
M  V30 9183 O 856.492 2.51839 -0.182586 0
M  V30 9184 C 857.805 0.771361 -2.90638 0
M  V30 9185 C 859.353 0.866262 -3.00774 0
M  V30 9186 C 859.828 1.0371 -4.46103 0
M  V30 9187 N 861.319 1.10294 -4.49877 0
M  V30 9188 C 862.054 1.25369 -5.59527 0
M  V30 9189 N 861.55 1.37246 -6.7907 0
M  V30 9190 N 863.343 1.28377 -5.47244 0
M  V30 9191 H 855.494 -0.547226 -2.0523 0
M  V30 9192 H 857.757 -0.183298 -0.930111 0
M  V30 9193 H 857.463 -0.0899485 -3.51585 0
M  V30 9194 H 857.337 1.65569 -3.3892 0
M  V30 9195 H 859.724 1.71805 -2.39931 0
M  V30 9196 H 859.805 -0.0424049 -2.55765 0
M  V30 9197 H 859.449 0.190021 -5.07544 0
M  V30 9198 H 859.379 1.96022 -4.88757 0
M  V30 9199 H 861.87 1.02407 -3.6376 0
M  V30 9200 H 862.183 1.48546 -7.58389 0
M  V30 9201 H 860.528 1.34274 -6.81906 0
M  V30 9202 H 863.719 1.1872 -4.52795 0
M  V30 9203 H 863.892 1.39782 -6.32744 0
M  V30 9204 N 857.298 1.47698 0.54982 0
M  V30 9205 C 858.714 1.3338 0.876468 0
M  V30 9206 C 858.914 0.329837 1.98782 0
M  V30 9207 O 857.97 -0.256022 2.51199 0
M  V30 9208 C 859.283 2.72903 1.26272 0
M  V30 9209 C 860.831 2.81243 1.37373 0
M  V30 9210 C 861.306 4.21423 1.79351 0
M  V30 9211 N 862.797 4.24 1.86489 0
M  V30 9212 C 863.532 5.29386 2.20313 0
M  V30 9213 N 863.028 6.4507 2.527 0
M  V30 9214 N 864.821 5.16768 2.2115 0
M  V30 9215 H 856.972 2.11603 -0.183781 0
M  V30 9216 H 859.235 0.947798 -0.0195601 0
M  V30 9217 H 858.941 3.47836 0.519889 0
M  V30 9218 H 858.815 3.05151 2.21727 0
M  V30 9219 H 861.202 2.06577 2.10737 0
M  V30 9220 H 861.283 2.52639 0.400882 0
M  V30 9221 H 860.927 4.96597 1.06555 0
M  V30 9222 H 860.857 4.47456 2.77652 0
M  V30 9223 H 863.348 3.40547 1.63817 0
M  V30 9224 H 863.661 7.21236 2.77557 0
M  V30 9225 H 862.006 6.48377 2.50263 0
M  V30 9226 H 865.197 4.25416 1.95293 0
M  V30 9227 H 865.37 5.99004 2.4718 0
M  V30 9228 N 858.776 -0.797141 1.35954 0
M  V30 9229 C 859.706 -1.92387 1.32323 0
M  V30 9230 C 860.687 -1.68967 0.196007 0
M  V30 9231 O 861.872 -1.90193 0.39245 0
M  V30 9232 C 859.002 -3.29286 1.10398 0
M  V30 9233 C 857.956 -3.67212 2.19862 0
M  V30 9234 C 857.282 -5.02377 1.8309 0
M  V30 9235 C 858.582 -3.76602 3.61896 0
M  V30 9236 H 860.276 -1.95683 2.26602 0
M  V30 9237 H 857.822 -0.94007 1.09081 0
M  V30 9238 H 859.775 -4.07721 1.06495 0
M  V30 9239 H 858.499 -3.26358 0.125668 0
M  V30 9240 H 857.158 -2.91069 2.22878 0
M  V30 9241 H 856.806 -4.95961 0.838527 0
M  V30 9242 H 856.506 -5.28722 2.56372 0
M  V30 9243 H 858.03 -5.8324 1.80729 0
M  V30 9244 H 859.444 -4.45246 3.6115 0
M  V30 9245 H 857.841 -4.14425 4.34018 0
M  V30 9246 H 858.911 -2.77906 3.97361 0
M  V30 9247 N 860.254 -1.20106 -1.0204 0
M  V30 9248 C 861.665 -1.00992 -1.57027 0
M  V30 9249 C 862.016 0.434782 -1.91322 0
M  V30 9250 O 861.141 1.31557 -1.71819 0
M  V30 9251 C 861.736 -1.82697 -2.85319 0
M  V30 9252 C 860.295 -1.67959 -3.36848 0
M  V30 9253 C 859.442 -1.80868 -2.10195 0
M  V30 9254 H 862.393 -1.34354 -0.844676 0
M  V30 9255 H 862.414 -1.32809 -3.5657 0
M  V30 9256 H 861.926 -2.87839 -2.60328 0
M  V30 9257 H 860.027 -0.654389 -3.66809 0
M  V30 9258 H 860.14 -2.49006 -4.09308 0
M  V30 9259 H 858.504 -1.24015 -2.22469 0
M  V30 9260 H 859.287 -2.87486 -1.87635 0
M  V30 9261 N 861.732 1.21287 -1.00634 0
M  V30 9262 C 862.664 2.2308 -0.526094 0
M  V30 9263 C 863.677 1.58157 0.386031 0
M  V30 9264 O 864.866 1.77528 0.186016 0
M  V30 9265 C 861.966 3.37937 0.255289 0
M  V30 9266 C 861.139 4.32449 -0.656236 0
M  V30 9267 C 860.198 5.26145 0.0757714 0
M  V30 9268 O 859.224 5.66601 -0.543325 0
M  V30 9269 N 860.426 5.6449 1.35391 0
M  V30 9270 H 863.191 2.64913 -1.40147 0
M  V30 9271 H 860.752 1.35724 -0.882641 0
M  V30 9272 H 862.744 3.97614 0.753977 0
M  V30 9273 H 861.314 2.95078 1.03187 0
M  V30 9274 H 860.534 3.70892 -1.3354 0
M  V30 9275 H 861.822 4.92526 -1.27653 0
M  V30 9276 H 861.22 5.33617 1.878 0
M  V30 9277 H 859.777 6.26524 1.79753 0
M  V30 9278 N 863.21 0.781244 1.36873 0
M  V30 9279 C 864.487 0.274217 1.93668 0
M  V30 9280 C 864.867 -1.2323 1.71399 0
M  V30 9281 O 864.215 -2.01993 1.06822 0
M  V30 9282 C 864.425 0.657939 3.42742 0
M  V30 9283 C 865.773 0.63307 4.19854 0
M  V30 9284 O 866.797 0.597909 3.51146 0
M  V30 9285 O 865.656 0.668636 5.42394 0
M  V30 9286 H 862.75 0.0658059 0.824378 0
M  V30 9287 H 865.296 0.863238 1.46104 0
M  V30 9288 H 864.068 1.69728 3.52573 0
M  V30 9289 H 863.691 0.0423678 3.97577 0
M  V30 9290 N 864.689 -1.48329 0.532571 0
M  V30 9291 C 865.966 -1.95492 -0.0650985 0
M  V30 9292 C 866.346 -1.47485 -1.51034 0
M  V30 9293 O 865.694 -0.702516 -2.17433 0
M  V30 9294 C 865.904 -3.48957 0.0548341 0
M  V30 9295 C 867.252 -4.24475 -0.103115 0
M  V30 9296 O 868.276 -3.56195 -0.0188343 0
M  V30 9297 O 867.135 -5.45781 -0.280164 0
M  V30 9298 H 864.229 -0.823327 -0.0778603 0
M  V30 9299 H 866.775 -1.58839 0.597353 0
M  V30 9300 H 865.547 -3.76628 1.06148 0
M  V30 9301 H 865.17 -3.92311 -0.64635 0
M  V30 9302 N 866.167 -0.267825 -1.55308 0
M  V30 9303 C 867.413 0.351556 -1.9973 0
M  V30 9304 C 867.746 1.56049 -1.15596 0
M  V30 9305 O 867.021 1.93203 -0.224274 0
M  V30 9306 C 867.304 0.74091 -3.52395 0
M  V30 9307 C 867.157 -0.474861 -4.47286 0
M  V30 9308 C 868.476 1.5801 -4.10756 0
M  V30 9309 H 865.595 0.126308 -0.726096 0
M  V30 9310 H 868.237 -0.373316 -1.86296 0
M  V30 9311 H 866.387 1.35851 -3.63973 0
M  V30 9312 H 868.059 -1.1134 -4.47662 0
M  V30 9313 H 866.302 -1.11425 -4.19246 0
M  V30 9314 H 866.973 -0.158782 -5.51772 0
M  V30 9315 H 869.449 1.05857 -4.0241 0
M  V30 9316 H 868.325 1.82135 -5.17801 0
M  V30 9317 H 868.586 2.55878 -3.60526 0
M  V30 9318 N 867.645 1.57599 0.00500368 0
M  V30 9319 C 868.922 1.81561 0.727654 0
M  V30 9320 C 869.302 0.871604 1.92266 0
M  V30 9321 O 868.65 -0.0808232 2.28357 0
M  V30 9322 C 868.86 3.29922 1.13809 0
M  V30 9323 C 870.208 3.95531 1.54403 0
M  V30 9324 O 871.232 3.34215 1.23202 0
M  V30 9325 O 870.091 5.03535 2.12402 0
M  V30 9326 H 867.185 0.747462 0.353878 0
M  V30 9327 H 869.731 1.69688 -0.0200667 0
M  V30 9328 H 868.503 3.90253 0.286078 0
M  V30 9329 H 868.126 3.46775 1.94507 0
M  V30 9330 N 869.123 -0.277682 1.55134 0
M  V30 9331 C 870.372 -1.00766 1.74726 0
M  V30 9332 C 870.685 -1.87617 0.553092 0
M  V30 9333 O 871.891 -2.64058 0.631318 0
M  V30 9334 C 870.347 -1.84147 3.09221 0
M  V30 9335 C 869.955 -1.02186 4.3619 0
M  V30 9336 C 871.699 -2.56604 3.38164 0
M  V30 9337 C 869.606 -1.84978 5.61727 0
M  V30 9338 H 868.536 -0.379948 0.651273 0
M  V30 9339 H 871.187 -0.263543 1.81598 0
M  V30 9340 H 869.569 -2.62637 2.96375 0
M  V30 9341 H 870.743 -0.281459 4.5994 0
M  V30 9342 H 869.058 -0.412054 4.14356 0
M  V30 9343 H 871.655 -3.18942 4.29162 0
M  V30 9344 H 871.998 -3.26647 2.58085 0
M  V30 9345 H 872.531 -1.85147 3.52087 0
M  V30 9346 H 869.27 -1.19365 6.4454 0
M  V30 9347 H 868.79 -2.56628 5.42128 0
M  V30 9348 H 870.469 -2.42458 5.99853 0
M  V30 9349 N 870.601 -1.47988 -0.541979 0
M  V30 9350 C 871.534 -1.56172 -1.66389 0
M  V30 9351 C 872.512 -0.412879 -1.57271 0
M  V30 9352 O 873.696 -0.622816 -1.77914 0
M  V30 9353 C 870.823 -1.47851 -3.04726 0
M  V30 9354 C 869.869 -2.67428 -3.32242 0
M  V30 9355 S 870.702 -4.29502 -3.19825 0
M  V30 9356 C 871.858 -4.2376 -4.60628 0
M  V30 9357 H 872.091 -2.51086 -1.59195 0
M  V30 9358 H 869.624 -1.36373 -0.724005 0
M  V30 9359 H 871.582 -1.43738 -3.84512 0
M  V30 9360 H 870.243 -0.542958 -3.09372 0
M  V30 9361 H 869.436 -2.57711 -4.33129 0
M  V30 9362 H 869.038 -2.68743 -2.60103 0
M  V30 9363 H 871.33 -3.92953 -5.51901 0
M  V30 9364 H 872.273 -5.24786 -4.75401 0
M  V30 9365 H 872.681 -3.54398 -4.39389 0
M  V30 9366 N 872.079 0.78992 -1.36375 0
M  V30 9367 C 873.325 1.55007 -1.3077 0
M  V30 9368 C 873.658 1.93871 0.112979 0
M  V30 9369 O 872.933 1.6267 1.06625 0
M  V30 9370 C 873.216 2.82748 -2.22993 0
M  V30 9371 C 873.069 2.50253 -3.73756 0
M  V30 9372 C 874.388 3.84569 -2.13998 0
M  V30 9373 H 871.507 0.562362 -0.476359 0
M  V30 9374 H 874.149 0.907582 -1.66922 0
M  V30 9375 H 872.299 3.37573 -1.92292 0
M  V30 9376 H 873.971 2.01482 -4.14973 0
M  V30 9377 H 872.214 1.83203 -3.93216 0
M  V30 9378 H 872.885 3.41487 -4.33694 0
M  V30 9379 H 875.361 3.39188 -2.4102 0
M  V30 9380 H 874.237 4.717 -2.80697 0
M  V30 9381 H 874.498 4.27491 -1.12711 0
M  V30 9382 N 873.557 1.20646 1.01402 0
M  V30 9383 C 874.785 1.04389 1.78635 0
M  V30 9384 C 875.2 -0.406771 1.84366 0
M  V30 9385 O 874.557 -1.28239 1.2985 0
M  V30 9386 C 874.608 1.62378 3.22979 0
M  V30 9387 O 874.329 3.01768 3.17597 0
M  V30 9388 C 875.83 1.5111 4.1675 0
M  V30 9389 H 873.05 0.367077 0.56169 0
M  V30 9390 H 875.594 1.59789 1.27624 0
M  V30 9391 H 873.749 1.11092 3.7113 0
M  V30 9392 H 874.163 3.29331 4.08217 0
M  V30 9393 H 875.637 1.96441 5.15863 0
M  V30 9394 H 876.114 0.464011 4.36742 0
M  V30 9395 H 876.72 2.01599 3.74483 0
M  V30 9396 N 875.035 -1.20752 1.01276 0
M  V30 9397 C 876.284 -1.8934 0.695229 0
M  V30 9398 C 876.597 -1.79459 -0.77806 0
M  V30 9399 O 877.803 -2.43146 -1.20799 0
M  V30 9400 C 876.259 -3.39548 1.1931 0
M  V30 9401 C 875.867 -3.58023 2.69302 0
M  V30 9402 C 877.611 -4.13714 0.950823 0
M  V30 9403 C 875.518 -5.02037 3.1259 0
M  V30 9404 H 874.448 -0.709084 0.25635 0
M  V30 9405 H 877.099 -1.36629 1.22494 0
M  V30 9406 H 875.481 -3.91559 0.591395 0
M  V30 9407 H 876.655 -3.16416 3.34989 0
M  V30 9408 H 874.97 -2.97222 2.9163 0
M  V30 9409 H 877.567 -5.19891 1.24971 0
M  V30 9410 H 877.91 -4.16147 -0.112791 0
M  V30 9411 H 878.443 -3.67792 1.51571 0
M  V30 9412 H 875.182 -5.04757 4.18211 0
M  V30 9413 H 874.702 -5.44469 2.51621 0
M  V30 9414 H 876.381 -5.70594 3.0501 0
M  V30 9415 N 876.513 -0.788492 -1.36457 0
M  V30 9416 C 877.461 -0.174192 -2.31947 0
M  V30 9417 C 878.455 0.665974 -1.5576 0
M  V30 9418 O 879.661 0.561161 -1.71029 0
M  V30 9419 H 876.036 -0.0375538 -0.751062 0
M  V30 9420 H 878.007 -0.995011 -2.81322 0
M  V30 9421 C 876.756 0.677276 -3.4104 0
M  V30 9422 H 876.079 0.0401418 -3.9978 0
M  V30 9423 H 877.519 1.07379 -4.10178 0
M  V30 9424 C 875.978 1.83512 -2.82533 0
M  V30 9425 O 876.508 2.93164 -2.74623 0
M  V30 9426 N 874.714 1.64095 -2.39836 0
M  V30 9427 H 874.261 0.749046 -2.46469 0
M  V30 9428 H 874.219 2.41726 -2.01037 0
M  V30 9429 N 877.991 1.48044 -0.54043 0
M  V30 9430 C 879.268 1.95523 0.0547302 0
M  V30 9431 C 879.648 1.48284 1.5025 0
M  V30 9432 O 878.996 0.714037 2.17057 0
M  V30 9433 C 879.206 3.48923 -0.0733393 0
M  V30 9434 C 880.554 4.24523 0.0806026 0
M  V30 9435 O 881.578 3.562 -5.58687e-05 0
M  V30 9436 O 880.437 5.45922 0.251216 0
M  V30 9437 H 877.531 0.823728 0.073493 0
M  V30 9438 H 880.077 1.5852 -0.605768 0
M  V30 9439 H 878.849 3.76059 -1.08144 0
M  V30 9440 H 878.472 3.92648 0.625536 0
M  V30 9441 N 879.47 0.276058 1.55163 0
M  V30 9442 C 880.716 -0.340959 1.99913 0
M  V30 9443 C 881.049 -1.55434 1.16422 0
M  V30 9444 O 880.324 -1.93081 0.234517 0
M  V30 9445 C 880.607 -0.722211 3.52783 0
M  V30 9446 C 880.46 0.498575 4.47028 0
M  V30 9447 C 881.779 -1.5583 4.11589 0
M  V30 9448 H 878.898 -0.122455 0.726756 0
M  V30 9449 H 881.54 0.38319 1.86096 0
M  V30 9450 H 879.69 -1.33919 3.64689 0
M  V30 9451 H 881.362 1.13713 4.47065 0
M  V30 9452 H 879.605 1.13646 4.18649 0
M  V30 9453 H 880.276 0.188041 5.5168 0
M  V30 9454 H 882.752 -1.03722 4.02965 0
M  V30 9455 H 881.628 -1.79387 5.1876 0
M  V30 9456 H 881.889 -2.53963 3.61877 0
M  V30 9457 N 880.948 -1.576 0.00335426 0
M  V30 9458 C 882.359 -1.7875 -0.539008 0
M  V30 9459 C 882.71 -0.911097 -1.73763 0
M  V30 9460 O 881.835 -0.114476 -2.16097 0
M  V30 9461 C 882.43 -3.24177 -0.984611 0
M  V30 9462 C 880.989 -3.46412 -1.47226 0
M  V30 9463 C 880.136 -2.74024 -0.425004 0
M  V30 9464 H 883.087 -1.57032 0.229511 0
M  V30 9465 H 883.108 -3.32474 -1.85044 0
M  V30 9466 H 882.62 -3.87938 -0.112035 0
M  V30 9467 H 880.721 -2.8787 -2.36562 0
M  V30 9468 H 880.834 -4.55098 -1.49741 0
M  V30 9469 H 879.198 -2.38741 -0.887394 0
M  V30 9470 H 879.981 -3.40486 0.438662 0
M  V30 9471 N 882.426 0.269451 -1.5528 0
M  V30 9472 C 883.674 0.998604 -1.75705 0
M  V30 9473 C 883.995 1.86691 -0.563175 0
M  V30 9474 O 883.265 1.91305 0.421811 0
M  V30 9475 H 881.845 0.371698 -0.647958 0
M  V30 9476 H 884.507 0.292826 -1.92688 0
M  V30 9477 H 883.603 1.63348 -2.6594 0
M  V30 9478 N 883.904 1.48273 0.534124 0
M  V30 9479 C 885.129 1.59988 1.31979 0
M  V30 9480 C 885.554 0.258824 1.86311 0
M  V30 9481 O 884.912 -0.768885 1.64188 0
M  V30 9482 C 884.96 2.64642 2.44943 0
M  V30 9483 O 884.064 2.21515 3.47858 0
M  V30 9484 H 883.405 0.536625 0.391063 0
M  V30 9485 H 885.935 1.94229 0.643135 0
M  V30 9486 H 885.945 2.85786 2.91187 0
M  V30 9487 H 884.62 3.62004 2.04758 0
M  V30 9488 H 883.197 2.10567 3.0776 0
M  V30 9489 N 885.382 -0.782676 1.36792 0
M  V30 9490 C 886.628 -1.54311 1.3159 0
M  V30 9491 C 886.961 -1.93928 -0.102696 0
M  V30 9492 O 886.236 -1.63233 -1.05761 0
M  V30 9493 C 886.519 -2.81561 2.24489 0
M  V30 9494 C 886.372 -2.48268 3.75078 0
M  V30 9495 C 887.691 -3.83428 2.16034 0
M  V30 9496 H 884.81 -0.559828 0.479335 0
M  V30 9497 H 887.452 -0.898717 1.67401 0
M  V30 9498 H 885.602 -3.36549 1.9408 0
M  V30 9499 H 887.274 -1.99279 4.16036 0
M  V30 9500 H 885.517 -1.81116 3.94182 0
M  V30 9501 H 886.188 -3.39183 4.35499 0
M  V30 9502 H 888.664 -3.37905 2.42815 0
M  V30 9503 H 887.54 -4.70204 2.83194 0
M  V30 9504 H 887.801 -4.26887 1.14976 0
M  V30 9505 N 886.86 -1.21182 -1.00761 0
M  V30 9506 C 887.808 -0.965728 -2.11604 0
M  V30 9507 C 888.802 0.0861028 -1.69181 0
M  V30 9508 O 890.008 -0.0650558 -1.79882 0
M  V30 9509 H 886.383 -0.295023 -0.691712 0
M  V30 9510 H 888.354 -1.90667 -2.2954 0
M  V30 9511 C 887.103 -0.544164 -3.43415 0
M  V30 9512 H 886.426 -1.34515 -3.76491 0
M  V30 9513 H 887.866 -0.411268 -4.22001 0
M  V30 9514 C 886.325 0.744583 -3.28569 0
M  V30 9515 O 886.855 1.80078 -3.59075 0
M  V30 9516 N 885.061 0.710083 -2.81791 0
M  V30 9517 H 884.608 -0.14971 -2.57165 0
M  V30 9518 H 884.566 1.57268 -2.72239 0
M  V30 9519 N 888.338 1.20213 -1.01915 0
M  V30 9520 C 889.301 2.21307 -0.596327 0
M  V30 9521 C 890.301 1.57274 0.334879 0
M  V30 9522 O 891.491 1.73764 0.12322 0
M  V30 9523 C 888.623 3.40657 0.128808 0
M  V30 9524 H 889.816 2.60228 -1.49068 0
M  V30 9525 H 887.369 1.33721 -0.809226 0
M  V30 9526 H 888.104 3.07241 1.03796 0
M  V30 9527 H 887.889 3.88361 -0.540183 0
M  V30 9528 H 889.379 4.15564 0.411892 0
M  V30 9529 N 889.816 0.795718 1.36037 0
M  V30 9530 C 891.062 0.371574 1.99367 0
M  V30 9531 C 891.395 -1.0557 1.62999 0
M  V30 9532 O 890.67 -1.73051 0.887895 0
M  V30 9533 C 890.953 0.542622 3.55988 0
M  V30 9534 C 890.806 2.01404 4.0219 0
M  V30 9535 C 892.125 -0.0384527 4.40083 0
M  V30 9536 H 889.244 0.136483 0.724252 0
M  V30 9537 H 891.886 1.00323 1.61355 0
M  V30 9538 H 890.036 0.0049053 3.885 0
M  V30 9539 H 891.708 2.6133 3.80137 0
M  V30 9540 H 889.951 2.51439 3.53498 0
M  V30 9541 H 890.622 2.08466 5.11122 0
M  V30 9542 H 893.098 0.420634 4.13968 0
M  V30 9543 H 891.974 0.111214 5.48787 0
M  V30 9544 H 892.235 -1.13116 4.27384 0
M  V30 9545 N 891.294 -1.47756 0.548274 0
M  V30 9546 C 892.257 -2.28379 -0.193857 0
M  V30 9547 C 893.257 -1.36436 -0.850986 0
M  V30 9548 O 894.447 -1.59154 -0.70822 0
M  V30 9549 C 891.579 -3.15858 -1.28243 0
M  V30 9550 H 892.772 -2.95458 0.514231 0
M  V30 9551 H 890.325 -1.53298 0.304879 0
M  V30 9552 H 891.06 -2.5345 -2.0232 0
M  V30 9553 H 890.845 -3.83512 -0.816148 0
M  V30 9554 H 892.335 -3.76627 -1.80393 0
M  V30 9555 N 892.772 -0.284283 -1.55015 0
M  V30 9556 C 894.018 0.330352 -2.00091 0
M  V30 9557 C 894.351 1.54814 -1.17244 0
M  V30 9558 O 893.626 1.92954 -0.244753 0
M  V30 9559 C 893.909 0.703492 -3.53161 0
M  V30 9560 C 893.762 -0.522275 -4.46758 0
M  V30 9561 C 895.081 1.53645 -4.12409 0
M  V30 9562 H 892.2 0.118599 -0.727395 0
M  V30 9563 H 894.842 -0.393054 -1.8589 0
M  V30 9564 H 892.992 1.31983 -3.65394 0
M  V30 9565 H 894.664 -1.16082 -4.46456 0
M  V30 9566 H 892.907 -1.15865 -4.1804 0
M  V30 9567 H 893.578 -0.217295 -5.51572 0
M  V30 9568 H 896.054 1.01583 -4.0351 0
M  V30 9569 H 894.93 1.76633 -5.19704 0
M  V30 9570 H 895.191 2.5204 -3.63219 0
M  V30 9571 N 894.251 1.57596 -0.0117121 0
M  V30 9572 C 895.497 1.91355 0.671661 0
M  V30 9573 C 895.83 0.886818 1.72769 0
M  V30 9574 O 895.105 -0.0928813 1.94278 0
M  V30 9575 C 895.388 3.35657 1.30409 0
M  V30 9576 C 895.241 4.49055 0.2588 0
M  V30 9577 C 896.56 3.79595 2.22701 0
M  V30 9578 H 893.679 0.695893 0.242698 0
M  V30 9579 H 896.321 1.89887 -0.0654071 0
M  V30 9580 H 894.471 3.37038 1.9323 0
M  V30 9581 H 896.143 4.59809 -0.370631 0
M  V30 9582 H 894.386 4.31785 -0.417672 0
M  V30 9583 H 895.057 5.4701 0.740578 0
M  V30 9584 H 897.533 3.7984 1.69885 0
M  V30 9585 H 896.409 4.81292 2.63912 0
M  V30 9586 H 896.67 3.14118 3.11098 0
M  V30 9587 N 895.729 -0.261212 1.5542 0
M  V30 9588 C 896.978 -0.989072 1.75785 0
M  V30 9589 C 897.291 -1.8702 0.572961 0
M  V30 9590 O 898.497 -2.63374 0.659289 0
M  V30 9591 C 896.953 -1.80857 3.11157 0
M  V30 9592 C 896.561 -0.975535 4.3725 0
M  V30 9593 C 898.305 -2.53003 3.40866 0
M  V30 9594 C 896.212 -1.7901 5.63657 0
M  V30 9595 H 895.142 -0.373019 0.655266 0
M  V30 9596 H 897.793 -0.244267 1.81867 0
M  V30 9597 H 896.175 -2.59479 2.99144 0
M  V30 9598 H 897.349 -0.232661 4.60212 0
M  V30 9599 H 895.664 -0.368083 4.1477 0
M  V30 9600 H 898.261 -3.14372 4.32521 0
M  V30 9601 H 898.604 -3.23891 2.61535 0
M  V30 9602 H 899.137 -1.81403 3.54031 0
M  V30 9603 H 895.876 -1.12522 6.4577 0
M  V30 9604 H 895.396 -2.50863 5.44819 0
M  V30 9605 H 897.075 -2.36082 6.0239 0
M  V30 9606 N 897.207 -1.48554 -0.526253 0
M  V30 9607 C 898.618 -1.50256 -1.10815 0
M  V30 9608 C 898.969 -0.274445 -1.94271 0
M  V30 9609 O 898.094 0.618094 -2.07385 0
M  V30 9610 C 898.689 -2.72264 -2.01638 0
M  V30 9611 C 897.248 -2.76826 -2.55038 0
M  V30 9612 C 896.395 -2.43823 -1.32081 0
M  V30 9613 H 899.346 -1.55616 -0.31133 0
M  V30 9614 H 899.367 -2.50993 -2.85977 0
M  V30 9615 H 898.879 -3.61632 -1.4087 0
M  V30 9616 H 896.98 -1.91676 -3.19517 0
M  V30 9617 H 897.093 -3.78351 -2.93917 0
M  V30 9618 H 895.457 -1.95058 -1.63781 0
M  V30 9619 H 896.24 -3.35436 -0.730596 0
M  V30 9620 N 898.685 0.775411 -1.37205 0
M  V30 9621 C 899.925 1.54689 -1.33606 0
M  V30 9622 C 900.289 1.91834 0.0798549 0
M  V30 9623 O 901.49 2.67722 0.240531 0
M  V30 9624 C 899.761 2.7804 -2.24563 0
M  V30 9625 S 901.32 3.68143 -2.38781 0
M  V30 9626 H 898.138 0.529631 -0.474355 0
M  V30 9627 H 900.74 0.912128 -1.72918 0
M  V30 9628 H 899.444 2.48825 -3.26365 0
M  V30 9629 H 898.975 3.46479 -1.86322 0
M  V30 9630 H 900.99 4.69843 -1.59568 0
M  V30 9631 N 900.163 1.21714 1.00117 0
M  V30 9632 C 901.412 1.03087 1.73367 0
M  V30 9633 C 901.725 -0.435532 1.90689 0
M  V30 9634 O 902.931 -0.741291 2.61184 0
M  V30 9635 C 901.387 1.79593 3.11888 0
M  V30 9636 C 900.995 3.30428 3.02525 0
M  V30 9637 C 902.739 1.69386 3.89241 0
M  V30 9638 C 900.646 3.99408 4.3615 0
M  V30 9639 H 899.576 0.382117 0.650002 0
M  V30 9640 H 902.227 1.45486 1.11831 0
M  V30 9641 H 900.609 1.29988 3.74058 0
M  V30 9642 H 901.783 3.87364 2.49571 0
M  V30 9643 H 900.098 3.4122 2.38659 0
M  V30 9644 H 902.695 2.18251 4.8813 0
M  V30 9645 H 903.038 0.652773 4.1115 0
M  V30 9646 H 903.571 2.16489 3.33733 0
M  V30 9647 H 900.31 5.03735 4.19442 0
M  V30 9648 H 899.83 3.47261 4.8905 0
M  V30 9649 H 901.509 4.04537 5.04934 0
M  V30 9650 N 901.641 -1.19671 1.02551 0
M  V30 9651 C 902.571 -2.25009 0.623965 0
M  V30 9652 C 903.552 -1.66129 -0.36538 0
M  V30 9653 O 904.737 -1.92599 -0.248842 0
M  V30 9654 C 901.867 -3.47287 -0.0294869 0
M  V30 9655 C 900.821 -4.18818 0.881781 0
M  V30 9656 C 900.147 -5.34618 0.0936189 0
M  V30 9657 C 901.447 -4.73986 2.19396 0
M  V30 9658 H 903.141 -2.58851 1.50454 0
M  V30 9659 H 900.687 -1.24425 0.724872 0
M  V30 9660 H 902.64 -4.20168 -0.322016 0
M  V30 9661 H 901.364 -3.12635 -0.944838 0
M  V30 9662 H 900.023 -3.47815 1.15845 0
M  V30 9663 H 899.671 -4.9621 -0.823661 0
M  V30 9664 H 899.371 -5.83409 0.700568 0
M  V30 9665 H 900.895 -6.10297 -0.192249 0
M  V30 9666 H 902.309 -5.38639 1.96319 0
M  V30 9667 H 900.706 -5.3325 2.75254 0
M  V30 9668 H 901.776 -3.92238 2.85092 0
M  V30 9669 N 903.119 -0.802921 -1.35613 0
M  V30 9670 C 904.344 -0.392846 -2.03645 0
M  V30 9671 C 904.769 0.987075 -1.6012 0
M  V30 9672 O 904.127 1.63849 -0.776101 0
M  V30 9673 C 904.175 -0.480208 -3.57388 0
M  V30 9674 O 903.279 0.507751 -4.09262 0
M  V30 9675 H 902.62 -0.16464 -0.643265 0
M  V30 9676 H 905.15 -1.08779 -1.73287 0
M  V30 9677 H 905.16 -0.348683 -4.06507 0
M  V30 9678 H 903.835 -1.48675 -3.88418 0
M  V30 9679 H 902.412 0.336769 -3.71376 0
M  V30 9680 N 904.597 1.47463 -0.556102 0
M  V30 9681 C 905.527 2.32801 0.180497 0
M  V30 9682 C 906.508 1.43721 0.909848 0
M  V30 9683 O 907.693 1.72578 0.89053 0
M  V30 9684 C 904.823 3.25478 1.21167 0
M  V30 9685 C 903.777 4.2379 0.598846 0
M  V30 9686 C 903.103 5.05783 1.73457 0
M  V30 9687 C 904.403 5.20387 -0.446659 0
M  V30 9688 H 906.097 2.94636 -0.531956 0
M  V30 9689 H 903.643 1.41683 -0.257267 0
M  V30 9690 H 905.596 3.8402 1.73513 0
M  V30 9691 H 904.32 2.61695 1.95405 0
M  V30 9692 H 902.979 3.66472 0.0966897 0
M  V30 9693 H 902.627 4.38405 2.46596 0
M  V30 9694 H 902.327 5.72343 1.33031 0
M  V30 9695 H 903.851 5.67183 2.26131 0
M  V30 9696 H 905.265 5.73299 -0.00930019 0
M  V30 9697 H 903.662 5.95143 -0.769735 0
M  V30 9698 H 904.732 4.65932 -1.34295 0
M  V30 9699 N 906.075 0.2925 1.54862 0
M  V30 9700 C 907.315 -0.32024 2.01876 0
M  V30 9701 C 907.679 -1.5174 1.17639 0
M  V30 9702 O 908.88 -2.20094 1.54312 0
M  V30 9703 C 907.151 -0.67611 3.50947 0
M  V30 9704 S 908.71 -1.27292 4.19931 0
M  V30 9705 H 905.528 -0.0987374 0.704111 0
M  V30 9706 H 908.13 0.41839 1.90971 0
M  V30 9707 H 906.834 0.203797 4.09894 0
M  V30 9708 H 906.365 -1.44575 3.65871 0
M  V30 9709 H 908.38 -2.56102 4.25002 0
M  V30 9710 N 907.553 -1.57587 0.0200696 0
M  V30 9711 C 908.802 -1.90602 -0.659822 0
M  V30 9712 C 909.115 -0.897216 -1.73808 0
M  V30 9713 O 910.321 -1.11829 -2.47399 0
M  V30 9714 C 908.777 -3.38416 -1.22484 0
M  V30 9715 C 908.385 -4.47637 -0.180339 0
M  V30 9716 C 910.129 -3.80513 -1.88176 0
M  V30 9717 C 908.036 -5.86542 -0.756482 0
M  V30 9718 H 906.966 -0.711272 -0.250216 0
M  V30 9719 H 909.617 -1.83308 0.0838942 0
M  V30 9720 H 907.999 -3.40613 -2.01987 0
M  V30 9721 H 909.173 -4.56987 0.591573 0
M  V30 9722 H 907.488 -4.14687 0.377302 0
M  V30 9723 H 910.085 -4.8164 -2.32222 0
M  V30 9724 H 910.428 -3.15091 -2.72073 0
M  V30 9725 H 910.961 -3.80701 -1.15377 0
M  V30 9726 H 907.7 -6.55485 0.0441468 0
M  V30 9727 H 907.22 -5.80816 -1.49709 0
M  V30 9728 H 908.899 -6.3483 -1.249 0
M  V30 9729 N 909.032 0.252966 -1.55557 0
M  V30 9730 C 909.962 1.31691 -1.9282 0
M  V30 9731 C 910.943 1.50516 -0.7924 0
M  V30 9732 O 912.128 1.63225 -1.05219 0
M  V30 9733 C 909.258 2.67281 -2.21762 0
M  V30 9734 C 908.212 2.6316 -3.37536 0
M  V30 9735 C 907.538 4.02488 -3.52005 0
M  V30 9736 C 908.838 2.20675 -4.73392 0
M  V30 9737 H 910.532 1.00751 -2.81939 0
M  V30 9738 H 908.078 0.483219 -1.3565 0
M  V30 9739 H 910.031 3.41842 -2.46419 0
M  V30 9740 H 908.755 2.99845 -1.29463 0
M  V30 9741 H 907.414 1.91057 -3.12878 0
M  V30 9742 H 907.062 4.32307 -2.57137 0
M  V30 9743 H 906.762 4.00621 -4.29857 0
M  V30 9744 H 908.286 4.78758 -3.78977 0
M  V30 9745 H 909.7 2.84965 -4.97461 0
M  V30 9746 H 908.097 2.29931 -5.54303 0
M  V30 9747 H 909.167 1.15831 -4.70862 0
M  V30 9748 N 910.51 1.48831 0.518367 0
M  V30 9749 C 911.756 1.57672 1.27543 0
M  V30 9750 C 912.089 0.254915 1.9252 0
M  V30 9751 O 911.364 -0.740107 1.79868 0
M  V30 9752 C 911.647 2.72345 2.35585 0
M  V30 9753 C 911.5 4.14267 1.75224 0
M  V30 9754 C 912.819 2.82726 3.37274 0
M  V30 9755 H 909.938 0.573926 0.462361 0
M  V30 9756 H 912.58 1.8105 0.576267 0
M  V30 9757 H 910.73 2.52543 2.95219 0
M  V30 9758 H 912.402 4.45539 1.19551 0
M  V30 9759 H 910.645 4.20724 1.05706 0
M  V30 9760 H 911.316 4.90345 2.53507 0
M  V30 9761 H 913.792 3.00699 2.8761 0
M  V30 9762 H 912.668 3.6467 4.10252 0
M  V30 9763 H 912.929 1.9136 3.9854 0
M  V30 9764 N 911.988 -0.768124 1.37614 0
M  V30 9765 C 912.918 -1.89537 1.36374 0
M  V30 9766 C 913.899 -1.68513 0.231803 0
M  V30 9767 O 915.084 -1.89318 0.432705 0
M  V30 9768 C 912.214 -3.26871 1.17358 0
M  V30 9769 C 911.168 -3.62466 2.27602 0
M  V30 9770 C 910.494 -4.9838 1.93705 0
M  V30 9771 C 911.794 -3.68841 3.69802 0
M  V30 9772 H 913.488 -1.90832 2.30702 0
M  V30 9773 H 911.034 -0.91672 1.11051 0
M  V30 9774 H 912.987 -4.05371 1.15119 0
M  V30 9775 H 911.711 -3.26018 0.194865 0
M  V30 9776 H 910.37 -2.86276 2.29002 0
M  V30 9777 H 910.018 -4.94071 0.943539 0
M  V30 9778 H 909.718 -5.23165 2.6753 0
M  V30 9779 H 911.242 -5.79276 1.93059 0
M  V30 9780 H 912.656 -4.37485 3.70513 0
M  V30 9781 H 911.053 -4.05126 4.42711 0
M  V30 9782 H 912.123 -2.69415 4.03167 0
M  V30 9783 N 913.466 -1.22244 -0.994698 0
M  V30 9784 C 914.712 -1.04746 -1.73655 0
M  V30 9785 C 915.045 0.41668 -1.89677 0
M  V30 9786 O 914.32 1.30897 -1.43862 0
M  V30 9787 C 914.603 -1.75716 -3.14318 0
M  V30 9788 C 914.456 -3.29714 -3.05955 0
M  V30 9789 C 915.775 -1.50809 -4.13455 0
M  V30 9790 H 912.894 -0.381921 -0.630322 0
M  V30 9791 H 915.536 -1.50559 -1.15897 0
M  V30 9792 H 913.686 -1.3677 -3.63629 0
M  V30 9793 H 915.358 -3.78093 -2.64279 0
M  V30 9794 H 913.601 -3.59484 -2.42804 0
M  V30 9795 H 914.272 -3.74547 -4.05485 0
M  V30 9796 H 916.748 -1.84636 -3.72892 0
M  V30 9797 H 915.624 -2.02964 -5.09997 0
M  V30 9798 H 915.885 -0.440292 -4.39902 0
M  V30 9799 N 914.944 1.19125 -1.03184 0
M  V30 9800 C 916.174 1.92558 -0.748663 0
M  V30 9801 C 916.582 1.759 0.696837 0
M  V30 9802 O 915.925 1.08019 1.48585 0
M  V30 9803 C 915.987 3.4461 -1.02391 0
M  V30 9804 C 915.651 3.85041 -2.46155 0
M  V30 9805 C 916.648 3.89554 -3.44302 0
M  V30 9806 C 914.333 4.16594 -2.80633 0
M  V30 9807 C 916.327 4.25055 -4.74981 0
M  V30 9808 C 914.014 4.51767 -4.11521 0
M  V30 9809 C 915.012 4.55972 -5.08506 0
M  V30 9810 O 914.7 4.9033 -6.37049 0
M  V30 9811 H 914.432 0.618397 -0.273059 0
M  V30 9812 H 916.986 1.52122 -1.38015 0
M  V30 9813 H 915.216 3.85244 -0.335284 0
M  V30 9814 H 916.905 3.99283 -0.729927 0
M  V30 9815 H 917.671 3.65324 -3.19003 0
M  V30 9816 H 913.55 4.12503 -2.05821 0
M  V30 9817 H 917.094 4.28252 -5.50678 0
M  V30 9818 H 912.991 4.75455 -4.36592 0
M  V30 9819 H 913.759 5.08266 -6.41566 0
M  V30 9820 N 916.422 0.810101 1.35185 0
M  V30 9821 C 917.65 0.404696 2.02903 0
M  V30 9822 C 918.065 -0.985434 1.61042 0
M  V30 9823 O 917.422 -1.63557 0.809658 0
M  V30 9824 C 917.473 0.482493 3.58266 0
M  V30 9825 O 917.194 1.81782 3.98606 0
M  V30 9826 C 918.695 0.070345 4.43244 0
M  V30 9827 H 915.915 0.163972 0.650657 0
M  V30 9828 H 918.459 1.0947 1.72733 0
M  V30 9829 H 916.614 -0.159296 3.87072 0
M  V30 9830 H 917.028 1.78306 4.93262 0
M  V30 9831 H 918.502 0.175888 5.5172 0
M  V30 9832 H 918.979 -0.984724 4.28018 0
M  V30 9833 H 919.585 0.685427 4.1974 0
M  V30 9834 N 917.9 -1.47166 0.563914 0
M  V30 9835 C 919.149 -2.0166 0.0401871 0
M  V30 9836 C 919.462 -1.44303 -1.32046 0
M  V30 9837 O 920.668 -1.905 -1.93448 0
M  V30 9838 C 919.124 -3.59894 0.0213257 0
M  V30 9839 C 918.732 -4.26244 1.37914 0
M  V30 9840 C 920.476 -4.22114 -0.449442 0
M  V30 9841 C 918.383 -5.76503 1.31902 0
M  V30 9842 H 917.313 -0.753916 0.0112534 0
M  V30 9843 H 919.964 -1.69091 0.712766 0
M  V30 9844 H 918.346 -3.89454 -0.717038 0
M  V30 9845 H 919.52 -4.08317 2.13574 0
M  V30 9846 H 917.835 -3.76039 1.78839 0
M  V30 9847 H 920.432 -5.32234 -0.51292 0
M  V30 9848 H 920.775 -3.89749 -1.46291 0
M  V30 9849 H 921.308 -3.9711 0.23427 0
M  V30 9850 H 918.047 -6.13498 2.3087 0
M  V30 9851 H 917.567 -5.96748 0.604324 0
M  V30 9852 H 919.246 -6.38846 1.02392 0
M  V30 9853 N 919.378 -0.300708 -1.54705 0
M  V30 9854 C 920.625 0.308654 -2.00134 0
M  V30 9855 C 920.953 1.53918 -1.1891 0
M  V30 9856 O 920.208 1.94054 -0.253263 0
M  V30 9857 C 920.507 0.710108 -3.50275 0
M  V30 9858 C 920.173 -0.418651 -4.48952 0
M  V30 9859 C 918.835 -0.728524 -4.75653 0
M  V30 9860 C 921.187 -1.17797 -5.07714 0
M  V30 9861 C 918.515 -1.80085 -5.58378 0
M  V30 9862 C 920.867 -2.24022 -5.91606 0
M  V30 9863 C 919.531 -2.55616 -6.16617 0
M  V30 9864 H 918.801 0.112945 -0.732342 0
M  V30 9865 H 921.448 -0.419744 -1.86843 0
M  V30 9866 H 919.753 1.51859 -3.61173 0
M  V30 9867 H 921.45 1.19277 -3.8285 0
M  V30 9868 H 918.04 -0.167034 -4.28274 0
M  V30 9869 H 922.224 -0.951835 -4.87087 0
M  V30 9870 H 917.48 -2.05036 -5.75995 0
M  V30 9871 H 921.654 -2.83317 -6.36164 0
M  V30 9872 H 919.281 -3.38839 -6.80509 0
M  V30 9873 N 920.856 1.57574 -0.0284266 0
M  V30 9874 C 921.788 2.07079 0.982391 0
M  V30 9875 C 922.801 0.994078 1.28926 0
M  V30 9876 O 923.99 1.27028 1.25404 0
M  V30 9877 C 921.09 2.47978 2.30998 0
M  V30 9878 C 920.263 3.7872 2.18838 0
M  V30 9879 C 919.322 4.06177 3.34524 0
M  V30 9880 O 918.348 4.76438 3.11441 0
M  V30 9881 N 919.55 3.56297 4.58293 0
M  V30 9882 H 922.315 2.94421 0.560011 0
M  V30 9883 H 919.876 1.61124 0.158347 0
M  V30 9884 H 921.868 2.63439 3.07216 0
M  V30 9885 H 920.438 1.66005 2.64879 0
M  V30 9886 H 919.658 3.73062 1.27351 0
M  V30 9887 H 920.946 4.6438 2.07915 0
M  V30 9888 H 920.344 2.99453 4.79942 0
M  V30 9889 H 918.901 3.77038 5.31682 0
M  V30 9890 N 922.334 -0.244713 1.55689 0
M  V30 9891 C 923.581 -0.972446 1.77622 0
M  V30 9892 C 923.909 -1.85235 0.593137 0
M  V30 9893 O 923.164 -1.91064 -0.423464 0
M  V30 9894 C 923.463 -1.8617 3.05083 0
M  V30 9895 C 923.129 -1.13696 4.3633 0
M  V30 9896 C 921.791 -0.936679 4.71996 0
M  V30 9897 C 924.143 -0.623451 5.17458 0
M  V30 9898 C 921.471 -0.210612 5.86322 0
M  V30 9899 C 923.823 0.0891587 6.32537 0
M  V30 9900 C 922.487 0.300904 6.66821 0
M  V30 9901 H 921.757 -0.355843 0.649967 0
M  V30 9902 H 924.404 -0.242372 1.8996 0
M  V30 9903 H 922.709 -2.6589 2.87767 0
M  V30 9904 H 924.406 -2.4265 3.19253 0
M  V30 9905 H 920.996 -1.30301 4.08313 0
M  V30 9906 H 925.18 -0.765725 4.90357 0
M  V30 9907 H 920.436 -0.0361062 6.11389 0
M  V30 9908 H 924.61 0.494685 6.94641 0
M  V30 9909 H 922.237 0.865466 7.55257 0
M  V30 9910 N 923.813 -1.49104 -0.510467 0
M  V30 9911 C 924.76 -1.65074 -1.61305 0
M  V30 9912 C 925.73 -0.492362 -1.58635 0
M  V30 9913 O 926.915 -0.718241 -1.76765 0
M  V30 9914 C 924.055 -1.71457 -2.99493 0
M  V30 9915 C 923.168 -2.98536 -3.12251 0
M  V30 9916 C 922.303 -2.95957 -4.41116 0
M  V30 9917 C 921.342 -4.17655 -4.47471 0
M  V30 9918 N 920.479 -4.13041 -5.67751 0
M  V30 9919 H 925.319 -2.59222 -1.46996 0
M  V30 9920 H 922.856 -1.28535 -0.715346 0
M  V30 9921 H 924.814 -1.7314 -3.79577 0
M  V30 9922 H 923.444 -0.807834 -3.12528 0
M  V30 9923 H 922.496 -3.06509 -2.25292 0
M  V30 9924 H 923.808 -3.88527 -3.12807 0
M  V30 9925 H 922.962 -2.96149 -5.2951 0
M  V30 9926 H 921.701 -2.03728 -4.4311 0
M  V30 9927 H 920.706 -4.17717 -3.57481 0
M  V30 9928 H 921.931 -5.11066 -4.472 0
M  V30 9929 H 919.877 -3.23643 -5.70606 0
M  V30 9930 H 919.794 -4.96757 -5.69884 0
M  V30 9931 H 921.062 -4.17322 -6.58379 0
M  V30 9932 N 925.291 0.760815 -1.38019 0
M  V30 9933 C 926.239 1.89578 -1.34771 0
M  V30 9934 C 927.233 1.67766 -0.234714 0
M  V30 9935 O 928.439 1.75423 -0.403352 0
M  V30 9936 H 924.814 0.623608 -0.420258 0
M  V30 9937 H 926.785 1.89434 -2.30558 0
M  V30 9938 C 925.534 3.26976 -1.18246 0
M  V30 9939 H 924.857 3.44342 -2.03147 0
M  V30 9940 H 926.297 4.06657 -1.20026 0
M  V30 9941 C 924.756 3.36717 0.111145 0
M  V30 9942 O 925.286 3.86607 1.09079 0
M  V30 9943 N 923.492 2.90128 0.165542 0
M  V30 9944 H 923.039 2.49719 -0.632328 0
M  V30 9945 H 922.997 2.97026 1.03067 0
M  V30 9946 N 926.769 1.22769 0.988202 0
M  V30 9947 C 927.716 1.00195 2.07917 0
M  V30 9948 C 928.686 -0.0779391 1.65917 0
M  V30 9949 O 929.871 0.0726005 1.90662 0
M  V30 9950 C 927.011 0.590853 3.40004 0
M  V30 9951 C 926.124 1.74202 3.9532 0
M  V30 9952 C 925.259 1.27846 5.15586 0
M  V30 9953 C 924.298 2.40087 5.63049 0
M  V30 9954 N 923.435 1.94744 6.74551 0
M  V30 9955 H 928.275 1.93581 2.26562 0
M  V30 9956 H 925.812 0.96448 1.11068 0
M  V30 9957 H 927.77 0.333653 4.15864 0
M  V30 9958 H 926.4 -0.306007 3.21346 0
M  V30 9959 H 925.452 2.11342 3.16289 0
M  V30 9960 H 926.764 2.58612 4.26522 0
M  V30 9961 H 925.918 0.978919 5.9875 0
M  V30 9962 H 924.657 0.404617 4.86019 0
M  V30 9963 H 923.662 2.70824 4.78471 0
M  V30 9964 H 924.887 3.27995 5.9464 0
M  V30 9965 H 922.833 1.09729 6.46758 0
M  V30 9966 H 922.75 2.72718 7.05096 0
M  V30 9967 H 924.018 1.67873 7.61209 0
M  V30 9968 N 928.247 -1.18576 1.03814 0
M  V30 9969 C 929.475 -1.92437 0.759966 0
M  V30 9970 C 929.89 -1.76031 -0.682526 0
M  V30 9971 O 929.247 -1.08829 -1.46501 0
M  V30 9972 C 929.298 -3.43923 1.11351 0
M  V30 9973 O 929.019 -3.5981 2.49937 0
M  V30 9974 C 930.52 -4.34888 0.859472 0
M  V30 9975 H 927.74 -0.610998 0.277349 0
M  V30 9976 H 930.284 -1.50448 1.38512 0
M  V30 9977 H 928.439 -3.83711 0.533362 0
M  V30 9978 H 928.853 -4.53569 2.63393 0
M  V30 9979 H 930.327 -5.39744 1.15672 0
M  V30 9980 H 930.804 -4.38717 -0.205839 0
M  V30 9981 H 931.41 -4.00795 1.42279 0
M  V30 9982 N 929.725 -0.817259 -1.34754 0
M  V30 9983 C 930.973 -0.401852 -1.98065 0
M  V30 9984 C 931.294 1.03718 -1.65129 0
M  V30 9985 O 930.564 1.71921 -0.939141 0
M  V30 9986 H 929.144 -0.145603 -0.732672 0
M  V30 9987 H 931.806 -1.04545 -1.64488 0
M  V30 9988 H 930.902 -0.516241 -3.07801 0
M  V30 9989 N 931.203 1.46865 -0.571711 0
M  V30 9990 C 932.614 1.86158 -0.142181 0
M  V30 9991 C 932.965 1.47663 1.2919 0
M  V30 9992 O 932.09 0.886393 1.97413 0
M  V30 9993 C 932.685 3.37867 -0.251256 0
M  V30 9994 C 931.244 3.76198 0.123329 0
M  V30 9995 C 930.391 2.70902 -0.592232 0
M  V30 9996 H 933.342 1.38176 -0.780587 0
M  V30 9997 H 933.363 3.76842 0.526331 0
M  V30 9998 H 932.875 3.65853 -1.2951 0
M  V30 9999 H 930.976 3.53829 1.16773 0
M  V30 10000 H 931.089 4.78471 -0.24533 0
M  V30 10001 H 929.453 2.54678 -0.0336927 0
M  V30 10002 H 930.236 3.01729 -1.63751 0
M  V30 10003 N 932.681 0.308908 1.54543 0
M  V30 10004 C 933.613 -0.597453 2.21276 0
M  V30 10005 C 934.626 -1.09137 1.20801 0
M  V30 10006 O 935.815 -1.00747 1.47351 0
M  V30 10007 C 932.915 -1.83085 2.85189 0
M  V30 10008 C 932.088 -1.4781 4.11669 0
M  V30 10009 C 931.147 -2.56748 4.59311 0
M  V30 10010 O 930.173 -2.21507 5.24331 0
M  V30 10011 N 931.375 -3.87427 4.32297 0
M  V30 10012 H 934.14 -0.0261183 2.99689 0
M  V30 10013 H 931.701 0.131456 1.61365 0
M  V30 10014 H 933.693 -2.55326 3.13992 0
M  V30 10015 H 932.263 -2.31039 2.1057 0
M  V30 10016 H 931.483 -0.587974 3.8979 0
M  V30 10017 H 932.771 -1.2179 4.94009 0
M  V30 10018 H 932.169 -4.18863 3.80224 0
M  V30 10019 H 930.726 -4.55942 4.6579 0
M  V30 10020 N 934.159 -1.57557 0.0367827 0
M  V30 10021 C 935.57 -1.79853 -0.500971 0
M  V30 10022 C 935.921 -0.947749 -1.71791 0
M  V30 10023 O 935.046 -0.160287 -2.15806 0
M  V30 10024 C 935.641 -3.26193 -0.915626 0
M  V30 10025 C 934.2 -3.49457 -1.39845 0
M  V30 10026 C 933.347 -2.74864 -0.366784 0
M  V30 10027 H 936.298 -1.56509 0.262768 0
M  V30 10028 H 936.319 -3.36324 -1.7795 0
M  V30 10029 H 935.831 -3.88089 -0.0297227 0
M  V30 10030 H 933.932 -2.92823 -2.30402 0
M  V30 10031 H 934.045 -4.58172 -1.40054 0
M  V30 10032 H 932.409 -2.4057 -0.836554 0
M  V30 10033 H 933.192 -3.39479 0.510785 0
M  V30 10034 N 935.637 0.236453 -1.55816 0
M  V30 10035 C 936.883 0.964439 -1.784 0
M  V30 10036 C 937.216 1.84573 -0.603868 0
M  V30 10037 O 936.491 1.90395 0.397473 0
M  V30 10038 C 936.774 1.81608 -3.10951 0
M  V30 10039 C 936.627 0.962283 -4.39386 0
M  V30 10040 C 937.946 2.79665 -3.39817 0
M  V30 10041 H 935.065 0.349192 -0.649026 0
M  V30 10042 H 937.707 0.234247 -1.8855 0
M  V30 10043 H 935.857 2.43864 -3.02428 0
M  V30 10044 H 937.529 0.35762 -4.59912 0
M  V30 10045 H 935.772 0.267062 -4.32977 0
M  V30 10046 H 936.443 1.59222 -5.28538 0
M  V30 10047 H 938.919 2.27546 -3.4837 0
M  V30 10048 H 937.795 3.36367 -4.33761 0
M  V30 10049 H 938.056 3.56657 -2.61244 0
M  V30 10050 N 937.115 1.49373 0.502552 0
M  V30 10051 C 938.343 1.62488 1.28084 0
M  V30 10052 C 938.758 0.295667 1.86471 0
M  V30 10053 O 938.115 -0.718664 1.67754 0
M  V30 10054 C 938.166 2.69249 2.4122 0
M  V30 10055 O 937.887 3.97014 1.85234 0
M  V30 10056 C 939.388 2.93054 3.32617 0
M  V30 10057 H 936.608 0.547068 0.388533 0
M  V30 10058 H 939.152 1.95394 0.603452 0
M  V30 10059 H 937.307 2.39125 3.04792 0
M  V30 10060 H 937.721 4.55809 2.59496 0
M  V30 10061 H 939.195 3.71493 4.08285 0
M  V30 10062 H 939.672 2.02911 3.89517 0
M  V30 10063 H 940.278 3.24589 2.74813 0
M  V30 10064 N 938.594 -0.753485 1.38421 0
M  V30 10065 C 939.824 -1.54049 1.37669 0
M  V30 10066 C 940.232 -1.89167 -0.0353656 0
M  V30 10067 O 939.575 -1.53285 -1.01239 0
M  V30 10068 C 939.637 -2.86777 2.16793 0
M  V30 10069 C 939.301 -2.74196 3.65603 0
M  V30 10070 C 940.298 -2.43985 4.59094 0
M  V30 10071 C 937.983 -2.91645 4.0896 0
M  V30 10072 C 939.977 -2.31379 5.93921 0
M  V30 10073 C 937.664 -2.78658 5.43868 0
M  V30 10074 C 938.662 -2.48568 6.36163 0
M  V30 10075 O 938.35 -2.3564 7.68589 0
M  V30 10076 H 938.082 -0.483276 0.472673 0
M  V30 10077 H 940.636 -0.940267 1.82615 0
M  V30 10078 H 938.866 -3.48988 1.66565 0
M  V30 10079 H 940.555 -3.48289 2.08446 0
M  V30 10080 H 941.321 -2.30172 4.26902 0
M  V30 10081 H 937.2 -3.14063 3.37469 0
M  V30 10082 H 940.744 -2.07813 6.65927 0
M  V30 10083 H 936.641 -2.92044 5.75656 0
M  V30 10084 H 937.409 -2.50851 7.79112 0
M  V30 10085 N 940.072 -1.23292 -0.981677 0
M  V30 10086 C 941.302 -1.0893 -1.7555 0
M  V30 10087 C 941.71 0.362219 -1.857 0
M  V30 10088 O 941.053 1.2624 -1.33451 0
M  V30 10089 C 941.115 -1.6389 -3.19969 0
M  V30 10090 C 940.779 -3.12632 -3.33332 0
M  V30 10091 C 941.776 -4.0994 -3.19758 0
M  V30 10092 C 939.461 -3.52314 -3.58022 0
M  V30 10093 C 941.455 -5.44915 -3.30676 0
M  V30 10094 C 939.142 -4.87434 -3.6858 0
M  V30 10095 C 940.14 -5.83544 -3.54916 0
M  V30 10096 O 939.828 -7.16209 -3.65102 0
M  V30 10097 H 939.56 -0.381901 -0.557788 0
M  V30 10098 H 942.114 -1.63586 -1.24213 0
M  V30 10099 H 940.344 -1.03653 -3.72549 0
M  V30 10100 H 942.033 -1.45023 -3.79108 0
M  V30 10101 H 942.799 -3.80625 -3.00582 0
M  V30 10102 H 938.678 -2.78022 -3.67729 0
M  V30 10103 H 942.222 -6.19913 -3.19928 0
M  V30 10104 H 938.119 -5.16426 -3.87265 0
M  V30 10105 H 938.887 -7.23941 -3.81905 0
M  V30 10106 N 941.55 1.18024 -1.04442 0
M  V30 10107 C 942.497 2.21785 -0.638759 0
M  V30 10108 C 943.467 1.62255 0.355312 0
M  V30 10109 O 944.652 1.89176 0.24844 0
M  V30 10110 C 941.792 3.45098 -0.0118002 0
M  V30 10111 C 940.905 4.1895 -1.05379 0
M  V30 10112 C 940.04 5.2973 -0.394951 0
M  V30 10113 C 939.079 5.95359 -1.42178 0
M  V30 10114 N 938.216 6.97668 -0.787635 0
M  V30 10115 H 943.056 2.55839 -1.52808 0
M  V30 10116 H 940.593 1.25681 -0.764378 0
M  V30 10117 H 942.551 4.15564 0.369075 0
M  V30 10118 H 941.181 3.11652 0.84102 0
M  V30 10119 H 940.233 3.47274 -1.55258 0
M  V30 10120 H 941.545 4.63877 -1.83355 0
M  V30 10121 H 940.699 6.06687 0.0399244 0
M  V30 10122 H 939.438 4.85915 0.416867 0
M  V30 10123 H 938.443 5.17139 -1.86675 0
M  V30 10124 H 939.668 6.41255 -2.23536 0
M  V30 10125 H 937.614 6.56 0.00380893 0
M  V30 10126 H 937.531 7.40867 -1.50505 0
M  V30 10127 H 938.799 7.78586 -0.377282 0
M  V30 10128 N 943.028 0.824394 1.34319 0
M  V30 10129 C 944.444 0.510336 1.51221 0
M  V30 10130 C 944.644 -0.965201 1.76879 0
M  V30 10131 O 943.7 -1.74961 1.82057 0
M  V30 10132 C 945.013 1.37114 2.6762 0
M  V30 10133 C 946.561 1.36842 2.81502 0
M  V30 10134 C 947.036 2.21374 4.00946 0
M  V30 10135 N 948.527 2.19005 4.08156 0
M  V30 10136 C 949.262 2.81159 4.99737 0
M  V30 10137 N 948.758 3.52309 5.96532 0
M  V30 10138 N 950.551 2.70706 4.9262 0
M  V30 10139 H 942.702 1.77976 1.15924 0
M  V30 10140 H 944.965 0.758503 0.568663 0
M  V30 10141 H 944.671 2.41905 2.55294 0
M  V30 10142 H 944.545 1.03689 3.62669 0
M  V30 10143 H 946.932 0.328284 2.93268 0
M  V30 10144 H 947.013 1.74265 1.87257 0
M  V30 10145 H 946.657 3.25437 3.8994 0
M  V30 10146 H 946.587 1.813 4.94407 0
M  V30 10147 H 949.078 1.67252 3.38874 0
M  V30 10148 H 949.391 3.96977 6.63045 0
M  V30 10149 H 947.736 3.56415 5.96652 0
M  V30 10150 H 950.927 2.14694 4.15962 0
M  V30 10151 H 951.1 3.19431 5.63798 0
M  V30 10152 N 944.506 -1.46559 0.579492 0
M  V30 10153 C 945.917 -1.8608 0.152052 0
M  V30 10154 C 946.268 -1.48346 -1.28405 0
M  V30 10155 O 945.393 -0.89685 -1.9694 0
M  V30 10156 C 945.988 -3.37729 0.269171 0
M  V30 10157 C 944.547 -3.76258 -0.103376 0
M  V30 10158 C 943.694 -2.70584 0.60659 0
M  V30 10159 H 946.645 -1.3776 0.787904 0
M  V30 10160 H 946.666 -3.77116 -0.506339 0
M  V30 10161 H 946.178 -3.65162 1.31448 0
M  V30 10162 H 944.279 -3.54443 -1.14895 0
M  V30 10163 H 944.392 -4.78335 0.270701 0
M  V30 10164 H 942.756 -2.54656 0.0471984 0
M  V30 10165 H 943.539 -3.00856 1.65349 0
M  V30 10166 N 945.984 -0.3171 -1.54377 0
M  V30 10167 C 947.23 0.287836 -2.00747 0
M  V30 10168 C 947.563 1.52292 -1.20502 0
M  V30 10169 O 946.838 1.92391 -0.285626 0
M  V30 10170 C 947.121 0.628423 -3.54574 0
M  V30 10171 C 946.974 -0.616922 -4.45549 0
M  V30 10172 C 948.293 1.44862 -4.15575 0
M  V30 10173 H 945.412 0.103144 -0.729747 0
M  V30 10174 H 948.054 -0.432396 -1.85014 0
M  V30 10175 H 946.204 1.24203 -3.68111 0
M  V30 10176 H 947.876 -1.25526 -4.43893 0
M  V30 10177 H 946.119 -1.24706 -4.15489 0
M  V30 10178 H 946.79 -0.334243 -5.50987 0
M  V30 10179 H 949.266 0.930015 -4.05574 0
M  V30 10180 H 948.142 1.6557 -5.23333 0
M  V30 10181 H 948.403 2.44279 -3.68484 0
M  V30 10182 N 947.462 1.57535 -0.0451378 0
M  V30 10183 C 948.394 2.08109 0.960372 0
M  V30 10184 C 949.407 1.0077 1.27864 0
M  V30 10185 O 950.596 1.28351 1.24049 0
M  V30 10186 C 947.696 2.50414 2.28355 0
M  V30 10187 C 946.869 3.8102 2.14808 0
M  V30 10188 C 945.928 4.09702 3.30198 0
M  V30 10189 O 944.954 4.79715 3.0637 0
M  V30 10190 N 946.156 3.61138 4.54489 0
M  V30 10191 H 948.921 2.94999 0.528752 0
M  V30 10192 H 946.482 1.61283 0.141248 0
M  V30 10193 H 948.474 2.66683 3.04405 0
M  V30 10194 H 947.044 1.68805 2.63104 0
M  V30 10195 H 946.264 3.74392 1.23387 0
M  V30 10196 H 947.552 4.66559 2.02978 0
M  V30 10197 H 946.95 3.04527 4.76739 0
M  V30 10198 H 945.507 3.82656 5.27653 0
M  V30 10199 N 948.94 -0.228186 1.55939 0
M  V30 10200 C 949.85 -1.30386 1.9503 0
M  V30 10201 C 950.866 -1.51645 0.853218 0
M  V30 10202 O 952.042 -1.64904 1.15623 0
M  V30 10203 C 949.107 -2.63489 2.25332 0
M  V30 10204 C 948.168 -2.5059 3.48573 0
M  V30 10205 C 947.401 -3.77345 3.7742 0
M  V30 10206 O 947.624 -4.80067 3.08045 0
M  V30 10207 O 946.558 -3.74855 4.70922 0
M  V30 10208 H 950.384 -1.0022 2.86687 0
M  V30 10209 H 947.969 -0.430503 1.43063 0
M  V30 10210 H 949.851 -3.4211 2.46046 0
M  V30 10211 H 948.526 -2.93349 1.3685 0
M  V30 10212 H 947.433 -1.70191 3.33145 0
M  V30 10213 H 948.766 -2.2567 4.37417 0
M  V30 10214 N 950.418 -1.49637 -0.494624 0
M  V30 10215 C 951.664 -1.60654 -1.24747 0
M  V30 10216 C 952.019 -0.292376 -1.90166 0
M  V30 10217 O 951.312 0.707918 -1.78042 0
M  V30 10218 C 951.506 -2.70749 -2.33302 0
M  V30 10219 C 951.335 -4.12744 -1.7853 0
M  V30 10220 C 950.105 -4.79451 -1.59546 0
M  V30 10221 C 952.303 -4.97767 -1.29353 0
M  V30 10222 N 950.285 -6.05738 -0.997702 0
M  V30 10223 C 951.656 -6.14587 -0.817517 0
M  V30 10224 C 953.711 -4.83719 -1.17986 0
M  V30 10225 C 952.414 -7.18903 -0.23907 0
M  V30 10226 C 954.44 -5.8819 -0.615375 0
M  V30 10227 C 953.802 -7.04241 -0.149622 0
M  V30 10228 H 949.901 -0.642198 -0.446213 0
M  V30 10229 H 952.485 -1.86668 -0.553469 0
M  V30 10230 H 950.656 -2.46497 -3.00156 0
M  V30 10231 H 952.388 -2.71253 -3.0034 0
M  V30 10232 H 949.143 -4.36354 -1.84098 0
M  V30 10233 H 949.567 -6.73183 -0.717911 0
M  V30 10234 H 954.209 -3.94304 -1.52592 0
M  V30 10235 H 951.927 -8.08012 0.11925 0
M  V30 10236 H 955.513 -5.7938 -0.530114 0
M  V30 10237 H 954.393 -7.83699 0.280349 0
M  V30 10238 N 951.896 0.746133 -1.38819 0
M  V30 10239 C 953.142 1.50768 -1.35635 0
M  V30 10240 C 953.475 1.94132 0.0512435 0
M  V30 10241 O 952.75 1.65979 1.01396 0
M  V30 10242 C 953.033 2.7551 -2.31875 0
M  V30 10243 C 952.886 2.38236 -3.81528 0
M  V30 10244 C 954.205 3.77566 -2.26124 0
M  V30 10245 H 951.324 0.546922 -0.494009 0
M  V30 10246 H 953.966 0.854017 -1.69725 0
M  V30 10247 H 952.116 3.31285 -2.02935 0
M  V30 10248 H 953.788 1.88178 -4.21173 0
M  V30 10249 H 952.031 1.70601 -3.98846 0
M  V30 10250 H 952.702 3.27517 -4.44339 0
M  V30 10251 H 955.178 3.31349 -2.51689 0
M  V30 10252 H 954.054 4.62531 -2.95561 0
M  V30 10253 H 954.315 4.23689 -1.26254 0
M  V30 10254 O 953.413 1.34966 0.886936 0
M  V30 10255 H 954.104 1.19586 1.52377 0
M  V30 END ATOM
M  V30 BEGIN BOND
M  V30 END BOND
M  V30 END CTAB
M  END
$$$$
