drugbank_target|Q9Y5K3 Choline-phosphate cytidylyltransferase B (DB00122; DB14006)
 OpenBabel12092119333D

  0  0  0     0  0            999 V3000
M  V30 BEGIN CTAB
M  V30 COUNTS 5827 5898 0 0 0
M  V30 BEGIN ATOM
M  V30 1 H -0.908 1.98254 -0.117106 0
M  V30 2 N 0 1.576 0 0
M  V30 3 C 0.933 2.03868 1.02534 0
M  V30 4 C 1.911 0.928543 1.3348 0
M  V30 5 O 3.095 1.19667 1.45644 0
M  V30 6 C 0.222 2.43627 2.35294 0
M  V30 7 C -0.732 3.65373 2.2001 0
M  V30 8 S 0.101 5.13292 1.52614 0
M  V30 9 C 1.257 5.56322 2.86805 0
M  V30 10 H 1.49 2.90518 0.631377 0
M  V30 11 H -0.977 1.52953 0.210867 0
M  V30 12 H 0.981 2.67203 3.11629 0
M  V30 13 H -0.358 1.57376 2.7183 0
M  V30 14 H -1.165 3.90944 3.18086 0
M  V30 15 H -1.563 3.418 1.51819 0
M  V30 16 H 0.729 5.58782 3.83104 0
M  V30 17 H 1.672 6.56266 2.65933 0
M  V30 18 H 2.08 4.83886 2.90714 0
M  V30 19 N 1.4781 -0.272755 1.55222 0
M  V30 20 C 2.8891 -0.84378 1.66545 0
M  V30 21 C 3.2401 -1.87035 0.592641 0
M  V30 22 O 2.3651 -2.14761 -0.265818 0
M  V30 23 C 2.9601 -1.53723 3.01918 0
M  V30 24 C 1.5191 -2.05628 3.15268 0
M  V30 25 C 0.6661 -0.898424 2.62343 0
M  V30 26 H 3.6171 -0.0490998 1.58624 0
M  V30 27 H 3.6381 -2.40421 2.94921 0
M  V30 28 H 3.1501 -0.78983 3.79978 0
M  V30 29 H 1.2511 -2.83329 2.41983 0
M  V30 30 H 1.3641 -2.27142 4.21833 0
M  V30 31 H -0.2719 -1.29186 2.19506 0
M  V30 32 H 0.5111 -0.164528 3.42906 0
M  V30 33 N 2.9562 -1.48159 -0.537278 0
M  V30 34 C 4.2022 -1.56035 -1.29541 0
M  V30 35 C 4.5352 -0.230377 -1.92829 0
M  V30 36 O 3.8102 0.762952 -1.78911 0
M  V30 37 C 4.0932 -2.69323 -2.39034 0
M  V30 38 C 3.9462 -4.12002 -1.80485 0
M  V30 39 C 5.2652 -2.78408 -3.40847 0
M  V30 40 H 2.3842 -0.567992 -0.469632 0
M  V30 41 H 5.0262 -1.80302 -0.599277 0
M  V30 42 H 3.1762 -2.48763 -2.98412 0
M  V30 43 H 4.8482 -4.43981 -1.25215 0
M  V30 44 H 3.0912 -4.19344 -1.11055 0
M  V30 45 H 3.7622 -4.87077 -2.59731 0
M  V30 46 H 6.2382 -2.97012 -2.91416 0
M  V30 47 H 5.1142 -3.59416 -4.14863 0
M  V30 48 H 5.3752 -1.86269 -4.00944 0
M  V30 49 N 4.4343 0.785586 -1.36625 0
M  V30 50 C 5.6803 1.54591 -1.31261 0
M  V30 51 C 6.0133 1.93906 0.106823 0
M  V30 52 O 5.2883 1.63007 1.06108 0
M  V30 53 C 5.5713 2.82038 -2.23889 0
M  V30 54 C 5.4243 2.49066 -3.74548 0
M  V30 55 C 6.7433 3.83887 -2.15217 0
M  V30 56 H 3.8623 0.560846 -0.478143 0
M  V30 57 H 6.5043 0.902278 -1.67209 0
M  V30 58 H 4.6543 3.36961 -1.93363 0
M  V30 59 H 6.3263 2.00164 -4.15611 0
M  V30 60 H 4.5693 1.81954 -3.93796 0
M  V30 61 H 5.2403 3.40109 -4.34776 0
M  V30 62 H 7.7163 3.38421 -2.42096 0
M  V30 63 H 6.5923 4.70806 -2.82193 0
M  V30 64 H 6.8533 4.27131 -1.14068 0
M  V30 65 N 5.9124 1.20967 1.01018 0
M  V30 66 C 7.1404 1.04956 1.78303 0
M  V30 67 C 7.5554 -0.400915 1.84494 0
M  V30 68 O 6.9124 -1.27826 1.30257 0
M  V30 69 C 6.9634 1.63403 3.22462 0
M  V30 70 O 6.6844 3.02775 3.16637 0
M  V30 71 C 8.1854 1.52432 4.16268 0
M  V30 72 H 5.4054 0.368858 0.560522 0
M  V30 73 H 7.9494 1.60193 1.27116 0
M  V30 74 H 6.1044 1.1227 3.70775 0
M  V30 75 H 6.5184 3.30626 4.07169 0
M  V30 76 H 7.9924 1.98078 5.15237 0
M  V30 77 H 8.4694 0.477875 4.36592 0
M  V30 78 H 9.0754 2.02787 3.73841 0
M  V30 79 N 7.3905 -1.2043 1.01659 0
M  V30 80 C 8.6185 -1.93777 0.725132 0
M  V30 81 C 9.0335 -1.74772 -0.714166 0
M  V30 82 O 8.3905 -1.06169 -1.4844 0
M  V30 83 C 8.4415 -3.45876 1.05129 0
M  V30 84 O 8.1625 -3.6426 2.43406 0
M  V30 85 C 9.6635 -4.36368 0.780891 0
M  V30 86 H 6.8835 -0.615901 0.266284 0
M  V30 87 H 9.4275 -1.52922 1.35776 0
M  V30 88 H 7.5825 -3.8461 0.464065 0
M  V30 89 H 7.9965 -4.58246 2.55169 0
M  V30 90 H 9.4705 -5.41743 1.05918 0
M  V30 91 H 9.9475 -4.38275 -0.284937 0
M  V30 92 H 10.5535 -4.03296 1.35027 0
M  V30 93 N 8.8686 -0.792821 -1.36206 0
M  V30 94 C 10.1456 -0.290627 -1.93429 0
M  V30 95 C 10.5256 1.21773 -1.72437 0
M  V30 96 O 9.8736 2.0108 -1.08531 0
M  V30 97 C 10.0836 -0.686973 -3.42172 0
M  V30 98 C 11.4316 -0.668643 -4.19302 0
M  V30 99 O 12.4556 -0.627658 -3.50626 0
M  V30 100 O 11.3146 -0.714597 -5.41808 0
M  V30 101 H 8.4086 -0.0727927 -0.82379 0
M  V30 102 H 10.9546 -0.875593 -1.45367 0
M  V30 103 H 9.7266 -1.72711 -3.51122 0
M  V30 104 H 9.3496 -0.0760733 -3.97527 0
M  V30 105 N 10.3467 1.47872 -0.545128 0
M  V30 106 C 11.3097 2.28337 0.198717 0
M  V30 107 C 12.3097 1.36255 0.853888 0
M  V30 108 O 13.4997 1.59003 0.711606 0
M  V30 109 C 10.6317 3.15585 1.28915 0
M  V30 110 H 11.8247 2.95567 -0.507941 0
M  V30 111 H 9.3777 1.53362 -0.301616 0
M  V30 112 H 10.1127 2.53019 2.02859 0
M  V30 113 H 9.8977 3.83337 0.824309 0
M  V30 114 H 11.3877 3.76243 1.81194 0
M  V30 115 N 11.8248 0.280983 1.55075 0
M  V30 116 C 12.7348 -0.61388 2.26426 0
M  V30 117 C 13.7508 -1.16521 1.29224 0
M  V30 118 O 14.9268 -1.19426 1.62171 0
M  V30 119 C 11.9918 -1.7788 2.9759 0
M  V30 120 C 11.0528 -1.26355 4.10284 0
M  V30 121 C 10.2858 -2.37295 4.78045 0
M  V30 122 O 10.5088 -3.56777 4.45047 0
M  V30 123 O 9.4428 -2.05119 5.65871 0
M  V30 124 H 13.2688 -0.0356932 3.03679 0
M  V30 125 H 10.8538 0.0481686 1.49322 0
M  V30 126 H 12.7358 -2.45791 3.42293 0
M  V30 127 H 11.4108 -2.34397 2.23249 0
M  V30 128 H 10.3178 -0.550735 3.70024 0
M  V30 129 H 11.6508 -0.744065 4.86543 0
M  V30 130 N 13.3029 -1.57598 0.00835791 0
M  V30 131 C 14.5279 -1.95617 -0.689103 0
M  V30 132 C 14.9529 -0.883753 -1.66046 0
M  V30 133 O 14.3109 0.157352 -1.80616 0
M  V30 134 C 14.3589 -3.32736 -1.38994 0
M  V30 135 O 13.4629 -3.27631 -2.50463 0
M  V30 136 H 12.8039 -0.638379 -0.182668 0
M  V30 137 H 15.3339 -2.045 0.064036 0
M  V30 138 H 15.3439 -3.68494 -1.75147 0
M  V30 139 H 14.0189 -4.1034 -0.677778 0
M  V30 140 H 12.5959 -3.03561 -2.16576 0
M  V30 141 N 14.781 0.264519 -1.55364 0
M  V30 142 C 15.691 1.34902 -1.91934 0
M  V30 143 C 16.707 1.53595 -0.817593 0
M  V30 144 O 17.883 1.67558 -1.11742 0
M  V30 145 C 14.948 2.68676 -2.19121 0
M  V30 146 C 14.009 2.58657 -3.4263 0
M  V30 147 C 13.242 3.86051 -3.68511 0
M  V30 148 O 13.465 4.87126 -2.96757 0
M  V30 149 O 12.399 3.85744 -4.62045 0
M  V30 150 H 16.225 1.06883 -2.8427 0
M  V30 151 H 13.81 0.463775 -1.42019 0
M  V30 152 H 15.692 3.47759 -2.37995 0
M  V30 153 H 14.367 2.96463 -1.29966 0
M  V30 154 H 13.274 1.7792 -3.29082 0
M  V30 155 H 14.607 2.35818 -4.32031 0
M  V30 156 N 16.2591 1.48442 0.529413 0
M  V30 157 C 17.4871 1.60151 1.30994 0
M  V30 158 C 17.9021 0.261985 1.86973 0
M  V30 159 O 17.2591 -0.748805 1.66431 0
M  V30 160 C 17.3101 2.64854 2.46038 0
M  V30 161 O 17.0311 3.93608 1.92365 0
M  V30 162 C 18.5321 2.87007 3.37849 0
M  V30 163 H 15.7521 0.539971 0.398338 0
M  V30 164 H 18.2961 1.94273 0.638597 0
M  V30 165 H 16.4511 2.33589 3.09055 0
M  V30 166 H 16.8651 4.51055 2.67675 0
M  V30 167 H 18.3391 3.64068 4.14919 0
M  V30 168 H 18.8161 1.95852 3.93114 0
M  V30 169 H 19.4221 3.19579 2.80623 0
M  V30 170 N 17.7372 -0.778329 1.37039 0
M  V30 171 C 18.9852 -1.53361 1.31623 0
M  V30 172 C 19.3062 -1.94739 -0.100831 0
M  V30 173 O 18.5762 -1.65797 -1.04347 0
M  V30 174 H 17.1562 -0.568794 0.484234 0
M  V30 175 H 19.8182 -0.926742 1.71457 0
M  V30 176 H 18.9142 -2.43606 1.95096 0
M  V30 177 N 19.2153 -1.21501 -1.00376 0
M  V30 178 C 20.4643 -1.02718 -1.73586 0
M  V30 179 C 20.7773 0.439589 -1.90596 0
M  V30 180 O 21.9833 0.746848 -2.61026 0
M  V30 181 C 20.4393 -1.78929 -3.1227 0
M  V30 182 C 20.0473 -3.29783 -3.03228 0
M  V30 183 C 21.7913 -1.68557 -3.89601 0
M  V30 184 C 19.6983 -3.98479 -4.36999 0
M  V30 185 H 18.6283 -0.380733 -0.650814 0
M  V30 186 H 21.2793 -1.45248 -1.1214 0
M  V30 187 H 19.6613 -1.29192 -3.74333 0
M  V30 188 H 20.8353 -3.86832 -2.50395 0
M  V30 189 H 19.1503 -3.40711 -2.39385 0
M  V30 190 H 21.7473 -2.17211 -4.88593 0
M  V30 191 H 22.0903 -0.644021 -4.11288 0
M  V30 192 H 22.6233 -2.15778 -3.34193 0
M  V30 193 H 19.3623 -5.02841 -4.20513 0
M  V30 194 H 18.8823 -3.46219 -4.89788 0
M  V30 195 H 20.5613 -4.03462 -5.05794 0
M  V30 196 N 20.6934 1.19889 -1.02296 0
M  V30 197 C 22.1044 1.71124 -0.746568 0
M  V30 198 C 22.4554 1.81939 0.734335 0
M  V30 199 O 21.5804 1.48639 1.57275 0
M  V30 200 C 22.1754 3.10804 -1.34857 0
M  V30 201 C 20.7344 3.59323 -1.1209 0
M  V30 202 C 19.8814 2.3635 -1.45031 0
M  V30 203 H 22.8324 1.04813 -1.19163 0
M  V30 204 H 22.8534 3.73186 -0.742437 0
M  V30 205 H 22.3654 3.029 -2.42638 0
M  V30 206 H 20.4664 3.7255 -0.0610337 0
M  V30 207 H 20.5794 4.4378 -1.80544 0
M  V30 208 H 18.9434 2.39399 -0.869487 0
M  V30 209 H 19.7264 2.31081 -2.53883 0
M  V30 210 N 22.1715 0.800033 1.35784 0
M  V30 211 C 23.1185 0.203848 2.29898 0
M  V30 212 C 24.0885 -0.658375 1.52495 0
M  V30 213 O 25.2735 -0.604832 1.8096 0
M  V30 214 C 22.4135 -0.64688 3.38983 0
M  V30 215 C 21.5265 0.235054 4.3136 0
M  V30 216 C 20.6615 -0.623054 5.27533 0
M  V30 217 C 19.7005 0.259682 6.11549 0
M  V30 218 N 18.8375 -0.558019 6.99879 0
M  V30 219 H 23.6775 1.01186 2.80295 0
M  V30 220 H 21.2145 0.51053 1.37957 0
M  V30 221 H 23.1725 -1.15521 4.00887 0
M  V30 222 H 21.8025 -1.42021 2.89879 0
M  V30 223 H 20.8545 0.861438 3.70518 0
M  V30 224 H 22.1665 0.914768 4.9034 0
M  V30 225 H 21.3205 -1.19678 5.94779 0
M  V30 226 H 20.0595 -1.33636 4.69034 0
M  V30 227 H 19.0645 0.845726 5.43256 0
M  V30 228 H 20.2895 0.970748 6.72126 0
M  V30 229 H 18.2355 -1.25542 6.43875 0
M  V30 230 H 18.1525 0.0637872 7.55973 0
M  V30 231 H 19.4205 -1.11523 7.71481 0
M  V30 232 N 23.6496 -1.47581 0.552962 0
M  V30 233 C 24.8746 -2.07378 0.0300593 0
M  V30 234 C 25.2996 -1.40355 -1.25229 0
M  V30 235 O 24.6576 -0.477099 -1.7491 0
M  V30 236 C 24.7056 -3.60274 -0.153231 0
M  V30 237 O 23.8096 -3.94041 -1.21678 0
M  V30 238 H 23.1506 -0.662158 0.0494182 0
M  V30 239 H 25.6806 -1.89662 0.767434 0
M  V30 240 H 25.6906 -4.0633 -0.368761 0
M  V30 241 H 24.3656 -4.08455 0.783397 0
M  V30 242 H 22.9426 -3.59735 -0.982079 0
M  V30 243 N 25.1277 -0.289203 -1.54924 0
M  V30 244 C 26.0577 0.58549 -2.2604 0
M  V30 245 C 27.0387 1.14753 -1.25562 0
M  V30 246 O 28.2237 1.17906 -1.54311 0
M  V30 247 C 25.3537 1.76305 -2.99222 0
M  V30 248 C 24.3077 1.33191 -4.06748 0
M  V30 249 C 23.6337 2.5937 -4.6758 0
M  V30 250 C 24.9337 0.471775 -5.20165 0
M  V30 251 H 26.6277 -0.00763532 -2.99399 0
M  V30 252 H 24.1737 -0.00511229 -1.43999 0
M  V30 253 H 26.1267 2.38097 -3.47689 0
M  V30 254 H 24.8507 2.38223 -2.23422 0
M  V30 255 H 23.5097 0.737121 -3.59113 0
M  V30 256 H 23.1577 3.19576 -3.88433 0
M  V30 257 H 22.8577 2.31228 -5.40192 0
M  V30 258 H 24.3817 3.21985 -5.18804 0
M  V30 259 H 25.7957 0.995056 -5.64599 0
M  V30 260 H 24.1927 0.284639 -5.99425 0
M  V30 261 H 25.2627 -0.506041 -4.82252 0
M  V30 262 N 26.6058 1.57591 -0.0167156 0
M  V30 263 C 27.8308 1.9598 0.67872 0
M  V30 264 C 28.2558 0.892546 1.65575 0
M  V30 265 O 27.6138 -0.147772 1.80697 0
M  V30 266 C 27.6618 3.33468 1.37227 0
M  V30 267 O 26.7658 3.28954 2.48722 0
M  V30 268 H 26.1068 0.639339 0.17928 0
M  V30 269 H 28.6368 2.04463 -0.0748802 0
M  V30 270 H 28.6468 3.69417 1.7319 0
M  V30 271 H 27.3218 4.10694 0.656007 0
M  V30 272 H 25.8988 3.04705 2.14963 0
M  V30 273 N 28.0839 -0.256276 1.55502 0
M  V30 274 C 29.0319 -1.33694 1.90338 0
M  V30 275 C 30.0259 -1.50299 0.781441 0
M  V30 276 O 31.2319 -1.51885 0.965966 0
M  V30 277 H 27.6069 -0.447483 0.60437 0
M  V30 278 H 29.5779 -1.01574 2.8058 0
M  V30 279 C 28.3269 -2.68724 2.20642 0
M  V30 280 H 27.6499 -2.56743 3.06469 0
M  V30 281 H 29.0899 -3.43237 2.48926 0
M  V30 282 C 27.5489 -3.21101 1.01959 0
M  V30 283 O 28.0789 -4.0084 0.262762 0
M  V30 284 N 26.2849 -2.79003 0.812746 0
M  V30 285 H 25.8319 -2.14271 1.42989 0
M  V30 286 H 25.7899 -3.14393 0.0203076 0
M  V30 287 N 29.562 -1.4872 -0.521534 0
M  V30 288 C 30.472 -1.66569 -1.65203 0
M  V30 289 C 31.488 -0.548197 -1.65139 0
M  V30 290 O 32.664 -0.820339 -1.83936 0
M  V30 291 C 29.729 -1.70917 -3.01642 0
M  V30 292 C 28.79 -2.94356 -3.12495 0
M  V30 293 C 28.023 -2.98487 -4.42426 0
M  V30 294 O 28.246 -2.10786 -5.30024 0
M  V30 295 O 27.18 -3.90746 -4.57822 0
M  V30 296 H 31.006 -2.62298 -1.5308 0
M  V30 297 H 28.591 -1.3222 -0.695565 0
M  V30 298 H 30.473 -1.7625 -3.82771 0
M  V30 299 H 29.148 -0.783633 -3.14071 0
M  V30 300 H 28.055 -2.94552 -2.3063 0
M  V30 301 H 29.388 -3.86322 -3.04986 0
M  V30 302 N 31.0401 0.771051 -1.3745 0
M  V30 303 C 32.4511 1.34737 -1.29239 0
M  V30 304 C 32.8021 1.96109 0.0596908 0
M  V30 305 O 31.9271 1.93865 0.961534 0
M  V30 306 C 32.5221 2.44973 -2.34037 0
M  V30 307 C 31.0811 2.98372 -2.29458 0
M  V30 308 C 30.2281 1.71595 -2.17831 0
M  V30 309 H 33.1791 0.571256 -1.48062 0
M  V30 310 H 33.2001 3.24471 -1.98744 0
M  V30 311 H 32.7121 2.00276 -3.32432 0
M  V30 312 H 30.8131 3.47443 -1.34589 0
M  V30 313 H 30.9261 3.53939 -3.229 0
M  V30 314 H 29.2901 1.94547 -1.64388 0
M  V30 315 H 30.0731 1.29001 -3.18141 0
M  V30 316 N 32.5182 1.22032 0.997298 0
M  V30 317 C 33.9292 1.0397 1.55071 0
M  V30 318 C 34.2802 -0.398192 1.92117 0
M  V30 319 O 33.4052 -1.28254 1.74298 0
M  V30 320 C 34.0002 1.88109 2.81781 0
M  V30 321 C 32.5592 1.74357 3.33581 0
M  V30 322 C 31.7062 1.84846 2.06706 0
M  V30 323 H 34.6572 1.35941 0.818883 0
M  V30 324 H 34.6782 1.39589 3.53971 0
M  V30 325 H 34.1902 2.92754 2.54787 0
M  V30 326 H 32.2912 0.72427 3.65493 0
M  V30 327 H 32.4042 2.56772 4.04481 0
M  V30 328 H 30.7682 1.28238 2.20062 0
M  V30 329 H 31.5512 2.91014 1.82114 0
M  V30 330 N 33.9963 -1.19345 1.0293 0
M  V30 331 C 35.2213 -1.93538 0.745511 0
M  V30 332 C 35.6463 -1.75007 -0.689511 0
M  V30 333 O 35.0043 -1.05265 -1.47611 0
M  V30 334 C 35.0523 -3.43336 1.10239 0
M  V30 335 O 34.1563 -4.11806 0.221289 0
M  V30 336 H 33.4973 -0.604193 0.275404 0
M  V30 337 H 36.0273 -1.5141 1.37609 0
M  V30 338 H 36.0373 -3.94004 1.05947 0
M  V30 339 H 34.7123 -3.56146 2.14786 0
M  V30 340 H 33.2893 -3.715 0.322842 0
M  V30 341 N 35.4744 -0.807222 -1.35358 0
M  V30 342 C 36.3844 -0.219594 -2.3357 0
M  V30 343 C 37.4004 0.637734 -1.61892 0
M  V30 344 O 38.5764 0.549336 -1.93763 0
M  V30 345 C 35.6414 0.62158 -3.41083 0
M  V30 346 C 34.7024 -0.256315 -4.28534 0
M  V30 347 C 33.9354 0.544807 -5.30912 0
M  V30 348 O 34.1584 1.77944 -5.41934 0
M  V30 349 O 33.0924 -0.0646478 -6.01865 0
M  V30 350 H 36.9184 -1.03208 -2.85625 0
M  V30 351 H 34.5034 -0.569025 -1.38139 0
M  V30 352 H 36.3854 1.10067 -4.06772 0
M  V30 353 H 35.0604 1.41165 -2.91297 0
M  V30 354 H 33.9674 -0.782559 -3.65823 0
M  V30 355 H 35.3004 -1.01034 -4.81719 0
M  V30 356 N 36.9525 1.47285 -0.560781 0
M  V30 357 C 38.1805 2.06855 -0.0430262 0
M  V30 358 C 38.5955 1.41291 1.25229 0
M  V30 359 O 37.9525 0.510648 1.7521 0
M  V30 360 C 38.0035 3.61178 0.152518 0
M  V30 361 O 37.7245 4.24285 -1.0915 0
M  V30 362 C 39.2255 4.37624 0.707145 0
M  V30 363 H 36.4455 0.669319 -0.0474652 0
M  V30 364 H 38.9895 1.89237 -0.77521 0
M  V30 365 H 37.1445 3.78298 0.834843 0
M  V30 366 H 37.5585 5.16868 -0.891482 0
M  V30 367 H 39.0325 5.46271 0.793244 0
M  V30 368 H 39.5095 4.04152 1.71923 0
M  V30 369 H 40.1155 4.25257 0.0604027 0
M  V30 370 N 38.4306 0.297415 1.54768 0
M  V30 371 C 39.3636 -0.622188 2.19554 0
M  V30 372 C 40.3416 -1.13558 1.16376 0
M  V30 373 O 41.5256 -1.20444 1.45002 0
M  V30 374 C 38.6526 -1.8509 2.83653 0
M  V30 375 C 37.6986 -1.47106 4.00328 0
M  V30 376 S 38.5316 -0.53006 5.3287 0
M  V30 377 C 39.6876 -1.76665 6.0045 0
M  V30 378 H 39.9206 -0.0717806 2.97213 0
M  V30 379 H 37.4536 0.0815678 1.54184 0
M  V30 380 H 39.4116 -2.55605 3.21211 0
M  V30 381 H 38.0726 -2.37247 2.05846 0
M  V30 382 H 37.2656 -2.38594 4.43947 0
M  V30 383 H 36.8676 -0.845885 3.64309 0
M  V30 384 H 39.1596 -2.7077 6.21039 0
M  V30 385 H 40.1026 -1.37308 6.9466 0
M  V30 386 H 40.5106 -1.94174 5.30054 0
M  V30 387 N 39.9087 -1.5758 0.0250728 0
M  V30 388 C 40.8187 -2.1343 -0.973905 0
M  V30 389 C 41.8347 -1.08556 -1.35984 0
M  V30 390 O 43.0107 -1.40592 -1.44207 0
M  V30 391 C 40.0757 -2.64703 -2.23904 0
M  V30 392 C 39.1367 -3.84276 -1.91391 0
M  V30 393 C 38.3697 -4.33095 -3.11873 0
M  V30 394 O 38.5927 -3.81107 -4.24398 0
M  V30 395 O 37.5267 -5.24984 -2.94406 0
M  V30 396 H 41.3527 -2.99057 -0.529036 0
M  V30 397 H 38.9377 -1.48118 -0.195288 0
M  V30 398 H 40.8197 -2.97769 -2.98181 0
M  V30 399 H 39.4947 -1.82161 -2.6758 0
M  V30 400 H 38.4017 -3.56143 -1.14511 0
M  V30 401 H 39.7347 -4.67968 -1.52534 0
M  V30 402 N 41.3868 0.248026 -1.55636 0
M  V30 403 C 42.2968 1.32859 -1.93354 0
M  V30 404 C 43.3128 1.52719 -0.833838 0
M  V30 405 O 44.4888 1.66363 -1.13513 0
M  V30 406 C 41.5538 2.66337 -2.21958 0
M  V30 407 C 40.6148 2.55008 -3.45354 0
M  V30 408 C 39.8478 3.82121 -3.72584 0
M  V30 409 O 40.0708 4.83951 -3.01907 0
M  V30 410 O 39.0048 3.80822 -4.6611 0
M  V30 411 H 42.8308 1.03862 -2.85388 0
M  V30 412 H 40.4158 0.448686 -1.42503 0
M  V30 413 H 42.2978 3.45216 -2.4167 0
M  V30 414 H 40.9728 2.95068 -1.33103 0
M  V30 415 H 39.8798 1.7442 -3.30951 0
M  V30 416 H 41.2128 2.31222 -4.34508 0
M  V30 417 N 42.8649 1.48995 0.513639 0
M  V30 418 C 44.1139 1.57093 1.2651 0
M  V30 419 C 44.4269 0.257091 1.93903 0
M  V30 420 O 45.6329 0.216478 2.70636 0
M  V30 421 C 44.0889 2.77118 2.29638 0
M  V30 422 C 43.6969 4.15209 1.68241 0
M  V30 423 C 45.4409 2.94538 3.05692 0
M  V30 424 C 43.3479 5.26474 2.69406 0
M  V30 425 H 42.2779 0.584876 0.475854 0
M  V30 426 H 44.9289 1.7536 0.540487 0
M  V30 427 H 43.3109 2.52319 3.05207 0
M  V30 428 H 44.4849 4.50094 0.987505 0
M  V30 429 H 42.7999 4.03042 1.04623 0
M  V30 430 H 45.3969 3.74832 3.8132 0
M  V30 431 H 45.7399 2.04614 3.62545 0
M  V30 432 H 46.2729 3.19316 2.37238 0
M  V30 433 H 43.0119 6.18417 2.17351 0
M  V30 434 H 42.5319 4.96058 3.37175 0
M  V30 435 H 44.2109 5.55277 3.32078 0
M  V30 436 N 44.343 -0.763751 1.37857 0
M  V30 437 C 45.253 -1.90817 1.36478 0
M  V30 438 C 46.269 -1.71997 0.263248 0
M  V30 439 O 47.445 -1.95095 0.499979 0
M  V30 440 C 44.51 -3.2605 1.17864 0
M  V30 441 C 43.571 -3.57467 2.3773 0
M  V30 442 C 42.804 -4.86249 2.19995 0
M  V30 443 O 43.027 -5.57884 1.18836 0
M  V30 444 O 41.961 -5.16911 3.08361 0
M  V30 445 H 45.787 -1.94933 2.32884 0
M  V30 446 H 43.372 -0.907619 1.1867 0
M  V30 447 H 45.254 -4.06924 1.09504 0
M  V30 448 H 43.929 -3.22769 0.245372 0
M  V30 449 H 42.836 -2.76796 2.51664 0
M  V30 450 H 44.169 -3.655 3.29652 0
M  V30 451 N 45.8211 -1.22559 -0.990812 0
M  V30 452 C 46.7711 -0.964807 -2.0658 0
M  V30 453 C 47.7551 0.0853472 -1.60673 0
M  V30 454 O 48.9471 -0.125443 -1.76555 0
M  V30 455 C 46.0761 -0.546707 -3.38919 0
M  V30 456 C 45.1621 -1.6317 -3.91454 0
M  V30 457 N 45.5531 -2.85985 -4.17189 0
M  V30 458 C 43.8511 -1.50387 -4.19881 0
M  V30 459 C 44.5521 -3.56159 -4.59919 0
M  V30 460 N 43.5281 -2.83637 -4.63736 0
M  V30 461 H 47.3301 -1.89769 -2.24421 0
M  V30 462 H 44.8441 -1.12343 -1.17273 0
M  V30 463 H 46.8411 -0.34119 -4.15502 0
M  V30 464 H 45.5011 0.379254 -3.22478 0
M  V30 465 H 46.5121 -3.22392 -4.05319 0
M  V30 466 H 43.1891 -0.644254 -4.12499 0
M  V30 467 H 44.5791 -4.6139 -4.88435 0
M  V30 468 N 47.2992 1.18797 -1.03562 0
M  V30 469 C 48.5272 1.92599 -0.755869 0
M  V30 470 C 48.9422 1.75886 0.686271 0
M  V30 471 O 48.2992 1.08517 1.46732 0
M  V30 472 C 48.3502 3.44159 -1.10619 0
M  V30 473 O 48.0712 3.60341 -2.4917 0
M  V30 474 C 49.5722 4.3507 -0.850214 0
M  V30 475 H 46.7922 0.611587 -0.276048 0
M  V30 476 H 49.3362 1.50742 -1.38192 0
M  V30 477 H 47.4912 3.83823 -0.525194 0
M  V30 478 H 47.9052 4.54128 -2.62427 0
M  V30 479 H 49.3792 5.39989 -1.14523 0
M  V30 480 H 49.8562 4.38673 0.215176 0
M  V30 481 H 50.4622 4.01097 -1.41426 0
M  V30 482 N 48.7773 0.814389 1.34928 0
M  V30 483 C 50.0173 0.404165 2.00364 0
M  V30 484 C 50.3813 -1.01166 1.63185 0
M  V30 485 O 51.5823 -1.52431 2.21401 0
M  V30 486 C 49.8533 0.590718 3.52484 0
M  V30 487 S 51.4123 0.272075 4.37956 0
M  V30 488 H 48.2303 0.15311 0.694319 0
M  V30 489 H 50.8323 1.05834 1.64376 0
M  V30 490 H 49.5363 1.62099 3.77031 0
M  V30 491 H 49.0673 -0.0785013 3.93322 0
M  V30 492 H 51.0823 -0.917405 4.87645 0
M  V30 493 N 50.2554 -1.46986 0.568584 0
M  V30 494 C 51.6664 -1.86188 0.138219 0
M  V30 495 C 52.0174 -1.47388 -1.29504 0
M  V30 496 O 51.1424 -0.88219 -1.97602 0
M  V30 497 C 51.7374 -3.3792 0.244065 0
M  V30 498 C 50.2964 -3.76171 -0.131335 0
M  V30 499 C 49.4434 -2.71027 0.586465 0
M  V30 500 H 52.3944 -1.38342 0.777645 0
M  V30 501 H 52.4154 -3.76729 -0.534351 0
M  V30 502 H 51.9274 -3.66128 1.28731 0
M  V30 503 H 50.0284 -3.5358 -1.17526 0
M  V30 504 H 50.1414 -4.78523 0.235146 0
M  V30 505 H 48.5054 -2.54684 0.0282722 0
M  V30 506 H 49.2884 -3.02077 1.63109 0
M  V30 507 N 51.7335 -0.305618 -1.54608 0
M  V30 508 C 52.6655 0.602161 -2.21149 0
M  V30 509 C 53.6785 1.09394 -1.20569 0
M  V30 510 O 54.8675 1.0106 -1.47136 0
M  V30 511 C 51.9675 1.83692 -2.84799 0
M  V30 512 C 51.1405 1.48686 -4.11353 0
M  V30 513 C 50.1995 2.57725 -4.58764 0
M  V30 514 O 49.2255 2.22623 -5.23858 0
M  V30 515 N 50.4275 3.88346 -4.31471 0
M  V30 516 H 53.1925 0.0324966 -2.99682 0
M  V30 517 H 50.7535 -0.128021 -1.61393 0
M  V30 518 H 52.7455 2.55994 -3.13448 0
M  V30 519 H 51.3155 2.31486 -2.10078 0
M  V30 520 H 50.5355 0.596269 -3.89664 0
M  V30 521 H 51.8235 1.22842 -4.93748 0
M  V30 522 H 51.2215 4.19671 -3.79331 0
M  V30 523 H 49.7785 4.56932 -4.64818 0
M  V30 524 N 53.2116 1.57565 -0.0334293 0
M  V30 525 C 54.6226 1.79746 0.504798 0
M  V30 526 C 54.9736 0.944091 1.71992 0
M  V30 527 O 54.0986 0.155694 2.15839 0
M  V30 528 C 54.6936 3.25997 0.922567 0
M  V30 529 C 53.2526 3.49159 1.40588 0
M  V30 530 C 52.3996 2.74785 0.372633 0
M  V30 531 H 55.3506 1.56565 -0.259436 0
M  V30 532 H 55.3716 3.35945 1.78666 0
M  V30 533 H 54.8836 3.88081 0.0379825 0
M  V30 534 H 52.9846 2.92332 2.31025 0
M  V30 535 H 53.0976 4.57873 1.41028 0
M  V30 536 H 51.4616 2.40391 0.841672 0
M  V30 537 H 52.2446 3.39587 -0.503559 0
M  V30 538 N 54.6897 -0.239769 1.55765 0
M  V30 539 C 56.1057 -0.588624 1.48349 0
M  V30 540 C 56.3057 -1.88005 0.72502 0
M  V30 541 O 55.3617 -2.51186 0.257269 0
M  V30 542 C 56.6747 -0.68474 2.928 0
M  V30 543 C 58.2227 -0.77659 3.03213 0
M  V30 544 C 58.6977 -0.904207 4.48986 0
M  V30 545 N 60.1887 -0.968896 4.52953 0
M  V30 546 C 60.9237 -1.08703 5.63002 0
M  V30 547 N 60.4197 -1.17026 6.82845 0
M  V30 548 N 62.2127 -1.12074 5.50814 0
M  V30 549 H 54.3637 0.607911 2.03515 0
M  V30 550 H 56.6267 0.21083 0.924259 0
M  V30 551 H 56.3327 0.194284 3.51163 0
M  V30 552 H 56.2067 -1.55435 3.43686 0
M  V30 553 H 58.5937 -1.64606 2.44926 0
M  V30 554 H 58.6747 0.118315 2.55526 0
M  V30 555 H 58.3187 -0.0392633 5.07885 0
M  V30 556 H 58.2487 -1.81426 4.9436 0
M  V30 557 H 60.7397 -0.915633 3.6664 0
M  V30 558 H 61.0527 -1.25966 7.62465 0
M  V30 559 H 59.3977 -1.13971 6.85591 0
M  V30 560 H 62.5887 -1.05226 4.5612 0
M  V30 561 H 62.7617 -1.20936 6.36615 0
M  V30 562 N 56.1678 -1.49265 -0.50573 0
M  V30 563 C 57.0978 -1.68495 -1.61653 0
M  V30 564 C 58.0788 -0.53366 -1.61512 0
M  V30 565 O 59.2638 -0.76897 -1.78327 0
M  V30 566 C 56.3938 -1.74709 -3.00157 0
M  V30 567 C 55.3478 -2.89581 -3.15162 0
M  V30 568 C 54.6738 -2.80903 -4.5497 0
M  V30 569 C 55.9738 -4.30578 -2.95634 0
M  V30 570 H 57.6678 -2.61493 -1.45814 0
M  V30 571 H 55.2138 -1.25838 -0.70005 0
M  V30 572 H 57.1668 -1.86748 -3.77761 0
M  V30 573 H 55.8908 -0.783067 -3.17074 0
M  V30 574 H 54.5498 -2.77136 -2.39982 0
M  V30 575 H 54.1978 -1.82419 -4.68756 0
M  V30 576 H 53.8978 -3.57999 -4.65951 0
M  V30 577 H 55.4218 -2.94944 -5.34641 0
M  V30 578 H 56.8358 -4.4373 -3.63011 0
M  V30 579 H 55.2328 -5.0886 -3.18091 0
M  V30 580 H 56.3028 -4.45352 -1.91806 0
M  V30 581 N 57.6459 0.756429 -1.3826 0
M  V30 582 C 58.8739 1.54565 -1.3754 0
M  V30 583 C 59.2889 1.88767 0.0355331 0
M  V30 584 O 58.6459 1.52572 1.0014 0
M  V30 585 C 58.6969 2.84654 -2.22833 0
M  V30 586 O 58.4179 2.51912 -3.5843 0
M  V30 587 C 59.9189 3.78807 -2.30261 0
M  V30 588 H 57.1389 0.478353 -0.470553 0
M  V30 589 H 59.6829 0.936381 -1.81803 0
M  V30 590 H 57.8379 3.41965 -1.8204 0
M  V30 591 H 58.2519 3.35325 -4.03308 0
M  V30 592 H 59.7259 4.67045 -2.94233 0
M  V30 593 H 60.2029 4.19038 -1.31545 0
M  V30 594 H 60.8089 3.2742 -2.71433 0
M  V30 595 N 59.124 1.23083 0.984299 0
M  V30 596 C 60.054 1.03292 2.09411 0
M  V30 597 C 61.035 -0.048923 1.7003 0
M  V30 598 O 62.22 0.114967 1.93859 0
M  V30 599 C 59.35 0.619155 3.41736 0
M  V30 600 C 58.304 1.64791 3.95004 0
M  V30 601 C 57.63 1.0897 5.23478 0
M  V30 602 C 58.93 3.03999 4.24714 0
M  V30 603 H 60.624 1.96119 2.26225 0
M  V30 604 H 58.17 0.944344 1.08711 0
M  V30 605 H 60.123 0.467777 4.18796 0
M  V30 606 H 58.847 -0.344786 3.24775 0
M  V30 607 H 57.506 1.78721 3.20085 0
M  V30 608 H 57.154 0.11686 5.02864 0
M  V30 609 H 56.854 1.77704 5.60085 0
M  V30 610 H 58.378 0.950093 6.03163 0
M  V30 611 H 59.792 2.93393 4.92538 0
M  V30 612 H 58.189 3.69936 4.72512 0
M  V30 613 H 59.259 3.53285 3.32142 0
M  V30 614 N 60.6021 -1.18246 1.0419 0
M  V30 615 C 61.8301 -1.92195 0.766072 0
M  V30 616 C 62.2451 -1.76247 -0.676933 0
M  V30 617 O 61.6021 -1.09293 -1.46155 0
M  V30 618 C 61.6531 -3.43568 1.12442 0
M  V30 619 O 61.3741 -3.59015 2.51078 0
M  V30 620 C 62.8751 -4.34613 0.873275 0
M  V30 621 H 60.0951 -0.610114 0.279288 0
M  V30 622 H 62.6391 -1.50007 1.38989 0
M  V30 623 H 60.7941 -3.8354 0.545542 0
M  V30 624 H 61.2081 -4.5273 2.64831 0
M  V30 625 H 62.6821 -5.39374 1.17385 0
M  V30 626 H 63.1591 -4.38781 -0.191909 0
M  V30 627 H 63.7651 -4.00341 1.43551 0
M  V30 628 N 62.0802 -0.821533 -1.34494 0
M  V30 629 C 63.0432 -0.247847 -2.27856 0
M  V30 630 C 64.0432 0.573453 -1.50227 0
M  V30 631 O 65.2332 0.389759 -1.69784 0
M  V30 632 C 62.3652 0.652698 -3.34593 0
M  V30 633 H 63.5582 -1.07146 -2.80107 0
M  V30 634 H 61.1112 -0.593291 -1.44602 0
M  V30 635 H 61.8462 1.49943 -2.87555 0
M  V30 636 H 61.6312 0.065292 -3.92046 0
M  V30 637 H 63.1212 1.04793 -4.04238 0
M  V30 638 N 63.5583 1.46682 -0.576371 0
M  V30 639 C 64.9693 1.86112 -0.148091 0
M  V30 640 C 65.3203 1.48073 1.2872 0
M  V30 641 O 64.4453 0.892656 1.97131 0
M  V30 642 C 65.0403 3.37786 -0.261982 0
M  V30 643 C 63.5993 3.76235 0.111384 0
M  V30 644 C 62.7463 2.70713 -0.60083 0
M  V30 645 H 65.6973 1.37927 -0.78497 0
M  V30 646 H 65.7183 3.77007 0.514364 0
M  V30 647 H 65.2303 3.6544 -1.30671 0
M  V30 648 H 63.3313 3.54198 1.15649 0
M  V30 649 H 63.4443 4.78391 -0.26052 0
M  V30 650 H 61.8083 2.54666 -0.0417783 0
M  V30 651 H 62.5913 3.01208 -1.64708 0
M  V30 652 N 65.0364 0.313813 1.54444 0
M  V30 653 C 65.9994 -0.54379 2.22656 0
M  V30 654 C 66.9994 -1.05124 1.21678 0
M  V30 655 O 68.1894 -0.945225 1.46325 0
M  V30 656 C 65.3214 -1.75427 2.92298 0
M  V30 657 H 66.5144 0.0523599 2.99854 0
M  V30 658 H 64.0674 0.0647834 1.56166 0
M  V30 659 H 64.8024 -2.38991 2.19211 0
M  V30 660 H 64.5874 -1.39791 3.66334 0
M  V30 661 H 66.0774 -2.36325 3.44297 0
M  V30 662 N 66.5145 -1.57545 0.0417849 0
M  V30 663 C 67.9255 -1.80011 -0.495259 0
M  V30 664 C 68.2765 -0.953199 -1.71489 0
M  V30 665 O 67.4015 -0.167138 -2.15754 0
M  V30 666 C 67.9965 -3.26482 -0.905265 0
M  V30 667 C 66.5555 -3.499 -1.38734 0
M  V30 668 C 65.7025 -2.74979 -0.358056 0
M  V30 669 H 68.6535 -1.56425 0.267736 0
M  V30 670 H 68.6745 -3.36887 -1.76882 0
M  V30 671 H 68.1865 -3.88096 -0.017401 0
M  V30 672 H 66.2875 -2.93553 -2.29471 0
M  V30 673 H 66.4005 -4.58615 -1.38598 0
M  V30 674 H 64.7645 -2.40834 -0.828912 0
M  V30 675 H 65.5475 -3.39315 0.521561 0
M  V30 676 N 67.9926 0.231505 -1.5589 0
M  V30 677 C 69.2396 0.957352 -1.78441 0
M  V30 678 C 69.5676 1.84726 -0.60882 0
M  V30 679 O 68.8226 1.91416 0.40725 0
M  V30 680 C 69.1216 1.83577 -3.0665 0
M  V30 681 C 68.7876 1.09993 -4.37278 0
M  V30 682 C 67.4496 0.896629 -4.72773 0
M  V30 683 C 69.8016 0.579558 -5.17968 0
M  V30 684 C 67.1296 0.160896 -5.86479 0
M  V30 685 C 69.4816 -0.142783 -6.32439 0
M  V30 686 C 68.1456 -0.357427 -6.66542 0
M  V30 687 H 67.4156 0.35032 -0.65296 0
M  V30 688 H 70.0626 0.226259 -1.90159 0
M  V30 689 H 68.3676 2.63441 -2.90011 0
M  V30 690 H 70.0646 2.39934 -3.21298 0
M  V30 691 H 66.6546 1.26835 -4.09403 0
M  V30 692 H 70.8386 0.724125 -4.90989 0
M  V30 693 H 66.0946 -0.0157293 -6.11398 0
M  V30 694 H 70.2686 -0.553559 -6.94196 0
M  V30 695 H 67.8956 -0.929466 -7.54497 0
M  V30 696 N 69.4707 1.49531 0.497807 0
M  V30 697 C 70.4337 1.65916 1.58128 0
M  V30 698 C 71.4337 0.530825 1.51786 0
M  V30 699 O 72.6237 0.797342 1.54881 0
M  V30 700 C 69.7557 1.65951 2.9778 0
M  V30 701 H 70.9487 2.62556 1.44929 0
M  V30 702 H 68.5017 1.38611 0.722275 0
M  V30 703 H 69.2367 0.709065 3.16453 0
M  V30 704 H 69.0217 2.47897 3.03792 0
M  V30 705 H 70.5117 1.80673 3.76493 0
M  V30 706 N 70.9488 -0.749086 1.3866 0
M  V30 707 C 72.2258 -1.4992 1.25632 0
M  V30 708 C 72.6058 -2.10633 -0.140317 0
M  V30 709 O 71.9538 -1.97437 -1.15025 0
M  V30 710 C 72.1638 -2.56195 2.36992 0
M  V30 711 C 73.5118 -3.22972 2.75634 0
M  V30 712 O 74.5358 -2.66502 2.36337 0
M  V30 713 O 73.3948 -4.25122 3.43415 0
M  V30 714 H 70.4888 -0.665067 0.491544 0
M  V30 715 H 73.0348 -0.784113 1.50498 0
M  V30 716 H 71.8068 -2.09612 3.30422 0
M  V30 717 H 71.4298 -3.35279 2.13714 0
M  V30 718 N 72.4269 -1.23603 -0.977757 0
M  V30 719 C 73.3369 -1.03632 -2.1047 0
M  V30 720 C 74.3529 0.0199435 -1.73989 0
M  V30 721 O 75.5289 -0.176076 -2.00629 0
M  V30 722 C 72.5939 -0.63276 -3.40877 0
M  V30 723 C 71.6549 -1.76437 -3.91367 0
M  V30 724 C 70.8879 -1.37997 -5.15551 0
M  V30 725 O 71.1109 -0.265357 -5.69782 0
M  V30 726 O 70.0449 -2.20201 -5.60174 0
M  V30 727 H 73.8709 -1.98086 -2.30208 0
M  V30 728 H 71.4559 -1.02332 -1.08851 0
M  V30 729 H 73.3379 -0.418761 -4.19314 0
M  V30 730 H 72.0129 0.282754 -3.22463 0
M  V30 731 H 70.9199 -2.03304 -3.14036 0
M  V30 732 H 72.2529 -2.6583 -4.14241 0
M  V30 733 N 73.905 1.17692 -1.04816 0
M  V30 734 C 75.133 1.91786 -0.776254 0
M  V30 735 C 75.548 1.76604 0.667577 0
M  V30 736 O 74.905 1.10067 1.45573 0
M  V30 737 C 74.956 3.42967 -1.14263 0
M  V30 738 O 74.677 3.57678 -2.52978 0
M  V30 739 C 76.178 4.34144 -0.896311 0
M  V30 740 H 73.398 0.608624 -0.282519 0
M  V30 741 H 75.942 1.49268 -1.39783 0
M  V30 742 H 74.097 3.83245 -0.565874 0
M  V30 743 H 74.511 4.51319 -2.67229 0
M  V30 744 H 75.985 5.38744 -1.20244 0
M  V30 745 H 76.462 4.38876 0.168636 0
M  V30 746 H 77.068 3.99574 -1.45672 0
M  V30 747 N 75.3831 0.828654 1.34056 0
M  V30 748 C 76.3311 0.242973 2.31327 0
M  V30 749 C 77.3251 -0.61944 1.57668 0
M  V30 750 O 78.5311 -0.51014 1.7262 0
M  V30 751 H 74.9061 0.059834 0.749616 0
M  V30 752 H 76.8771 1.07809 2.78244 0
M  V30 753 C 75.6261 -0.575733 3.429 0
M  V30 754 H 74.9491 0.0785582 3.99723 0
M  V30 755 H 76.3891 -0.951547 4.13185 0
M  V30 756 C 74.8481 -1.75044 2.87856 0
M  V30 757 O 75.3781 -2.84882 2.83205 0
M  V30 758 N 73.5841 -1.56903 2.44602 0
M  V30 759 H 73.1311 -0.675547 2.48584 0
M  V30 760 H 73.0891 -2.35652 2.08124 0
M  V30 761 N 76.8612 -1.46375 0.584142 0
M  V30 762 C 78.1012 -2.0427 0.0729695 0
M  V30 763 C 78.4652 -1.44563 -1.26355 0
M  V30 764 O 79.6662 -1.93667 -1.86405 0
M  V30 765 C 77.9372 -3.57399 0.00967464 0
M  V30 766 S 79.4962 -4.36551 -0.443714 0
M  V30 767 H 76.3142 -0.709975 0.0381673 0
M  V30 768 H 78.9162 -1.79398 0.776962 0
M  V30 769 H 77.6202 -3.98372 0.986319 0
M  V30 770 H 77.1512 -3.8681 -0.717044 0
M  V30 771 H 79.1662 -4.66237 -1.69816 0
M  V30 772 N 78.3393 -0.321999 -1.54275 0
M  V30 773 C 79.2713 0.578671 -2.21775 0
M  V30 774 C 80.2843 1.08109 -1.21722 0
M  V30 775 O 81.4733 0.994938 -1.482 0
M  V30 776 C 78.5733 1.80661 -2.86731 0
M  V30 777 C 77.7463 1.44314 -4.12907 0
M  V30 778 C 76.8053 2.52845 -4.61472 0
M  V30 779 O 75.8313 2.17054 -5.2619 0
M  V30 780 N 77.0333 3.83748 -4.35566 0
M  V30 781 H 79.7983 0.000709447 -2.997 0
M  V30 782 H 77.3593 -0.145132 -1.61248 0
M  V30 783 H 79.3513 2.52655 -3.16145 0
M  V30 784 H 77.9213 2.29245 -2.12521 0
M  V30 785 H 77.1413 0.554906 -3.90275 0
M  V30 786 H 78.4293 1.17598 -4.95023 0
M  V30 787 H 77.8273 4.15625 -3.83761 0
M  V30 788 H 76.3843 4.51977 -4.69638 0
M  V30 789 N 79.8174 1.5752 -0.0501392 0
M  V30 790 C 81.0574 1.94521 0.627783 0
M  V30 791 C 81.4214 0.928265 1.68069 0
M  V30 792 O 82.6224 1.18517 2.41261 0
M  V30 793 C 80.8934 3.36319 1.20932 0
M  V30 794 S 82.4524 3.95272 1.90539 0
M  V30 795 H 79.2704 0.680456 0.206158 0
M  V30 796 H 81.8724 1.95139 -0.118829 0
M  V30 797 H 80.5764 4.08132 0.430865 0
M  V30 798 H 80.1074 3.39193 1.99277 0
M  V30 799 H 82.1224 3.80415 3.18589 0
M  V30 800 N 81.2955 -0.223234 1.56011 0
M  V30 801 C 82.2275 -1.30006 1.88762 0
M  V30 802 C 83.2405 -1.43129 0.775746 0
M  V30 803 O 84.4295 -1.44057 1.05403 0
M  V30 804 C 81.5295 -2.67589 2.07965 0
M  V30 805 C 80.7025 -2.76434 3.38973 0
M  V30 806 C 79.7615 -3.95019 3.47629 0
M  V30 807 O 78.7875 -3.83436 4.20672 0
M  V30 808 N 79.9895 -5.09249 2.78649 0
M  V30 809 H 82.7545 -1.02238 2.81722 0
M  V30 810 H 80.3155 -0.413278 1.56536 0
M  V30 811 H 82.3075 -3.45297 2.11073 0
M  V30 812 H 80.8775 -2.87964 1.21638 0
M  V30 813 H 80.0975 -1.85216 3.47978 0
M  V30 814 H 81.3855 -2.79313 4.25278 0
M  V30 815 H 80.7835 -5.21556 2.19081 0
M  V30 816 H 79.3405 -5.85007 2.8742 0
M  V30 817 N 82.7736 -1.49793 -0.48987 0
M  V30 818 C 83.7366 -1.66752 -1.57246 0
M  V30 819 C 84.7366 -0.538867 -1.51502 0
M  V30 820 O 85.9266 -0.805545 -1.54456 0
M  V30 821 C 83.0586 -1.67528 -2.96896 0
M  V30 822 H 84.2516 -2.63321 -1.43534 0
M  V30 823 H 81.8046 -1.38992 -0.714914 0
M  V30 824 H 82.5396 -0.725837 -3.16073 0
M  V30 825 H 82.3246 -2.49504 -3.02473 0
M  V30 826 H 83.8146 -1.82667 -3.7553 0
M  V30 827 N 84.2517 0.741722 -1.39055 0
M  V30 828 C 85.6627 1.31966 -1.32068 0
M  V30 829 C 86.0137 1.96192 0.0180797 0
M  V30 830 O 85.1387 1.95861 0.920196 0
M  V30 831 C 85.7337 2.39954 -2.39181 0
M  V30 832 C 84.2927 2.93438 -2.35735 0
M  V30 833 C 83.4397 1.66936 -2.21422 0
M  V30 834 H 86.3907 0.539721 -1.4924 0
M  V30 835 H 86.4117 3.20182 -2.05581 0
M  V30 836 H 85.9237 1.9318 -3.36605 0
M  V30 837 H 84.0247 3.4451 -1.41929 0
M  V30 838 H 84.1377 3.4701 -3.30335 0
M  V30 839 H 82.5017 1.91016 -1.68478 0
M  V30 840 H 83.2847 1.22224 -3.20806 0
M  V30 841 N 85.7298 1.2412 0.971189 0
M  V30 842 C 86.6798 0.997551 2.05019 0
M  V30 843 C 87.6638 -0.0597747 1.60789 0
M  V30 844 O 88.8558 0.153516 1.76333 0
M  V30 845 C 85.9848 0.600557 3.38006 0
M  V30 846 C 85.0708 1.69377 3.88809 0
M  V30 847 N 85.4618 2.92586 4.12586 0
M  V30 848 C 83.7598 1.57048 4.17435 0
M  V30 849 C 84.4608 3.63431 4.54195 0
M  V30 850 N 83.4368 2.90979 4.59165 0
M  V30 851 H 87.2388 1.93316 2.21374 0
M  V30 852 H 84.7528 1.14194 1.1547 0
M  V30 853 H 86.7498 0.40725 4.14906 0
M  V30 854 H 85.4098 -0.327903 3.2304 0
M  V30 855 H 86.4208 3.288 4.00139 0
M  V30 856 H 83.0978 0.709798 4.11422 0
M  V30 857 H 84.4878 4.69102 4.81033 0
M  V30 858 N 87.2079 -1.17134 1.05439 0
M  V30 859 C 88.1179 -2.24878 0.668365 0
M  V30 860 C 89.1339 -1.71186 -0.311687 0
M  V30 861 O 90.3099 -2.00738 -0.163161 0
M  V30 862 C 87.3749 -3.46662 0.051648 0
M  V30 863 C 86.4359 -4.15429 1.08246 0
M  V30 864 C 85.6689 -5.31399 0.495082 0
M  V30 865 O 85.8919 -5.66153 -0.694743 0
M  V30 866 O 84.8259 -5.89187 1.23056 0
M  V30 867 H 88.6519 -2.60189 1.56637 0
M  V30 868 H 86.2369 -1.24482 0.826104 0
M  V30 869 H 88.1189 -4.20394 -0.290966 0
M  V30 870 H 86.7939 -3.13142 -0.819971 0
M  V30 871 H 85.7009 -3.43704 1.47711 0
M  V30 872 H 87.0339 -4.52982 1.92532 0
M  V30 873 N 88.686 -0.835752 -1.33615 0
M  V30 874 C 89.633 -0.26473 -2.29277 0
M  V30 875 C 90.603 0.617712 -1.54187 0
M  V30 876 O 91.788 0.556641 -1.825 0
M  V30 877 C 88.928 0.556777 -3.40579 0
M  V30 878 C 88.041 -0.349339 -4.30585 0
M  V30 879 C 87.176 0.482969 -5.29 0
M  V30 880 C 86.215 -0.421732 -6.10645 0
M  V30 881 N 85.352 0.372262 -7.01112 0
M  V30 882 H 90.192 -1.08582 -2.77514 0
M  V30 883 H 87.729 -0.546927 -1.36554 0
M  V30 884 H 89.687 1.04852 -4.03809 0
M  V30 885 H 88.317 1.34286 -2.93542 0
M  V30 886 H 87.369 -0.959372 -3.68104 0
M  V30 887 H 88.681 -1.04445 -4.87742 0
M  V30 888 H 87.835 1.03866 -5.97743 0
M  V30 889 H 86.574 1.21153 -4.72412 0
M  V30 890 H 85.579 -0.989464 -5.40823 0
M  V30 891 H 86.804 -1.14861 -6.69316 0
M  V30 892 H 84.75 1.08426 -6.46977 0
M  V30 893 H 84.667 -0.264198 -7.55538 0
M  V30 894 H 85.935 0.910293 -7.74167 0
M  V30 895 N 90.1641 1.46063 -0.591896 0
M  V30 896 C 91.0941 2.33172 0.123673 0
M  V30 897 C 92.0751 1.45897 0.87453 0
M  V30 898 O 93.2601 1.74698 0.848181 0
M  V30 899 C 90.3901 3.28336 1.13194 0
M  V30 900 C 89.3441 4.25124 0.495324 0
M  V30 901 C 88.6701 5.09863 1.61071 0
M  V30 902 C 89.9701 5.19143 -0.573425 0
M  V30 903 H 91.6641 2.93252 -0.603646 0
M  V30 904 H 89.2101 1.41014 -0.291741 0
M  V30 905 H 91.1631 3.88137 1.64097 0
M  V30 906 H 89.8871 2.66383 1.88965 0
M  V30 907 H 88.5461 3.66599 0.00729452 0
M  V30 908 H 88.1941 4.44288 2.35832 0
M  V30 909 H 87.8941 5.75417 1.19035 0
M  V30 910 H 89.4181 5.72529 2.12233 0
M  V30 911 H 90.8321 5.73106 -0.1491 0
M  V30 912 H 89.2291 5.93089 -0.914636 0
M  V30 913 H 90.2991 4.62519 -1.45617 0
M  V30 914 N 91.6422 0.330177 1.54103 0
M  V30 915 C 92.8702 -0.272179 2.05102 0
M  V30 916 C 93.2852 -1.45267 1.20595 0
M  V30 917 O 92.6422 -1.8094 0.238144 0
M  V30 918 C 92.6932 -0.70023 3.54653 0
M  V30 919 O 92.4142 0.433301 4.35952 0
M  V30 920 C 93.9152 -1.3647 4.21771 0
M  V30 921 H 91.1352 -0.0549159 0.668749 0
M  V30 922 H 93.6792 0.478285 1.98828 0
M  V30 923 H 91.8342 -1.40066 3.61193 0
M  V30 924 H 92.2482 0.0947539 5.24414 0
M  V30 925 H 93.7222 -1.61509 5.27843 0
M  V30 926 H 94.1992 -2.31409 3.73292 0
M  V30 927 H 94.8052 -0.706675 4.19388 0
M  V30 928 N 93.1203 -1.57491 0.0584922 0
M  V30 929 C 94.3693 -1.92155 -0.613146 0
M  V30 930 C 94.6823 -0.939334 -1.71569 0
M  V30 931 O 95.8883 -1.17829 -2.44599 0
M  V30 932 C 94.3443 -3.41303 -1.14195 0
M  V30 933 C 93.9523 -4.47944 -0.0711265 0
M  V30 934 C 95.6963 -3.84988 -1.78841 0
M  V30 935 C 93.6033 -5.88212 -0.613225 0
M  V30 936 H 92.5333 -0.717162 -0.232796 0
M  V30 937 H 95.1843 -1.83049 0.12857 0
M  V30 938 H 93.5663 -3.45437 -1.93621 0
M  V30 939 H 94.7403 -4.55408 0.702836 0
M  V30 940 H 93.0553 -4.13644 0.478313 0
M  V30 941 H 95.6523 -4.87159 -2.20408 0
M  V30 942 H 95.9953 -3.21632 -2.64308 0
M  V30 943 H 96.5283 -3.83401 -1.06059 0
M  V30 944 H 93.2673 -6.55183 0.203978 0
M  V30 945 H 92.7873 -5.84294 -1.35501 0
M  V30 946 H 94.4663 -6.37687 -1.09383 0
M  V30 947 N 94.5984 0.214957 -1.56127 0
M  V30 948 C 95.5614 1.24997 -1.92116 0
M  V30 949 C 96.5614 1.39467 -0.800344 0
M  V30 950 O 97.7514 1.37619 -1.06802 0
M  V30 951 C 94.8834 2.62271 -2.17777 0
M  V30 952 H 96.0764 0.942875 -2.84693 0
M  V30 953 H 93.6294 0.455654 -1.49511 0
M  V30 954 H 94.3644 2.98068 -1.27773 0
M  V30 955 H 94.1494 2.53143 -2.99434 0
M  V30 956 H 95.6394 3.36946 -2.46693 0
M  V30 957 N 96.0765 1.50051 0.48192 0
M  V30 958 C 97.0085 1.64263 1.59844 0
M  V30 959 C 98.0215 0.52451 1.54119 0
M  V30 960 O 99.2105 0.797293 1.59704 0
M  V30 961 C 96.3105 1.60102 2.98698 0
M  V30 962 C 95.4835 2.87767 3.29407 0
M  V30 963 C 94.5425 2.76397 4.47762 0
M  V30 964 O 93.5685 3.50348 4.48603 0
M  V30 965 N 94.7705 1.89222 5.48794 0
M  V30 966 H 97.5355 2.60566 1.48073 0
M  V30 967 H 95.0965 1.47379 0.670149 0
M  V30 968 H 97.0885 1.50123 3.75826 0
M  V30 969 H 95.6585 0.715798 3.04294 0
M  V30 970 H 94.8785 3.11954 2.40994 0
M  V30 971 H 96.1665 3.72365 3.4673 0
M  V30 972 H 95.5645 1.28434 5.50928 0
M  V30 973 H 94.1215 1.85154 6.24949 0
M  V30 974 N 97.5546 -0.734337 1.39446 0
M  V30 975 C 98.5176 -1.83004 1.37994 0
M  V30 976 C 99.5176 -1.58397 0.276938 0
M  V30 977 O 100.708 -1.65785 0.534875 0
M  V30 978 C 97.8396 -3.20802 1.1532 0
M  V30 979 H 99.0326 -1.85694 2.35494 0
M  V30 980 H 96.5856 -0.938059 1.25021 0
M  V30 981 H 97.3206 -3.23772 0.185036 0
M  V30 982 H 97.1056 -3.4006 1.95197 0
M  V30 983 H 98.5956 -4.00862 1.17046 0
M  V30 984 N 99.0327 -1.24633 -0.964593 0
M  V30 985 C 100.449 -1.01239 -1.2338 0
M  V30 986 C 100.649 0.2769 -1.99588 0
M  V30 987 O 99.7047 0.992241 -2.32187 0
M  V30 988 C 101.018 -2.22937 -2.01791 0
M  V30 989 C 102.566 -2.27594 -2.14872 0
M  V30 990 C 103.041 -3.48921 -2.96678 0
M  V30 991 N 104.532 -3.49257 -3.04259 0
M  V30 992 C 105.267 -4.39795 -3.67924 0
M  V30 993 N 104.763 -5.40591 -4.33281 0
M  V30 994 N 106.556 -4.275 -3.64966 0
M  V30 995 H 98.7067 -2.0748 -0.454502 0
M  V30 996 H 100.97 -0.910647 -0.26349 0
M  V30 997 H 100.676 -3.16587 -1.53184 0
M  V30 998 H 100.55 -2.25306 -3.02518 0
M  V30 999 H 102.937 -1.34473 -2.6268 0
M  V30 1000 H 103.018 -2.2925 -1.13482 0
M  V30 1001 H 102.662 -4.42359 -2.49562 0
M  V30 1002 H 102.592 -3.4451 -3.98272 0
M  V30 1003 H 105.083 -2.76337 -2.57771 0
M  V30 1004 H 105.396 -6.05904 -4.79687 0
M  V30 1005 H 103.741 -5.44475 -4.3194 0
M  V30 1006 H 106.932 -3.47987 -3.13086 0
M  V30 1007 H 107.105 -4.98258 -4.14298 0
M  V30 1008 N 100.511 1.16574 -1.06058 0
M  V30 1009 C 101.441 2.23057 -0.690488 0
M  V30 1010 C 102.422 1.67141 0.315901 0
M  V30 1011 O 103.607 1.93253 0.191556 0
M  V30 1012 C 100.737 3.47222 -0.073625 0
M  V30 1013 C 99.6908 4.16016 -1.00573 0
M  V30 1014 C 99.0168 5.34104 -0.252289 0
M  V30 1015 C 100.317 4.67264 -2.33371 0
M  V30 1016 H 102.011 2.54271 -1.58072 0
M  V30 1017 H 99.5568 1.22218 -0.76149 0
M  V30 1018 H 101.51 4.20939 0.19714 0
M  V30 1019 H 100.234 3.15302 0.85161 0
M  V30 1020 H 98.8928 3.44223 -1.2612 0
M  V30 1021 H 98.5408 4.98437 0.675988 0
M  V30 1022 H 98.2408 5.81072 -0.873455 0
M  V30 1023 H 99.7648 6.10599 0.0109857 0
M  V30 1024 H 101.179 5.32573 -2.12223 0
M  V30 1025 H 99.5758 5.24843 -2.90963 0
M  V30 1026 H 100.646 3.83602 -2.96611 0
M  V30 1027 N 101.989 0.842826 1.3317 0
M  V30 1028 C 103.237 0.439577 1.97262 0
M  V30 1029 C 103.558 -1.00548 1.67078 0
M  V30 1030 O 102.828 -1.70098 0.971779 0
M  V30 1031 H 101.408 0.159558 0.72976 0
M  V30 1032 H 104.07 1.07665 1.62463 0
M  V30 1033 H 103.166 0.574886 3.0676 0
M  V30 1034 N 103.467 -1.45747 0.599634 0
M  V30 1035 C 104.695 -2.06668 0.0978551 0
M  V30 1036 C 105.11 -1.44562 -1.21439 0
M  V30 1037 O 104.467 -0.556923 -1.73795 0
M  V30 1038 C 104.518 -3.61456 -0.0567044 0
M  V30 1039 O 104.239 -4.21242 1.20361 0
M  V30 1040 C 105.74 -4.39345 -0.590869 0
M  V30 1041 H 102.96 -0.667825 0.0651943 0
M  V30 1042 H 105.504 -1.87115 0.82511 0
M  V30 1043 H 103.659 -3.80378 -0.734251 0
M  V30 1044 H 104.073 -5.14323 1.02821 0
M  V30 1045 H 105.547 -5.48182 -0.648131 0
M  V30 1046 H 106.024 -4.08568 -1.61147 0
M  V30 1047 H 106.63 -4.25268 0.0523679 0
M  V30 1048 N 104.945 -0.338344 -1.53925 0
M  V30 1049 C 106.356 0.146651 -1.86123 0
M  V30 1050 C 106.707 1.5042 -1.2597 0
M  V30 1051 O 105.832 2.08723 -0.571294 0
M  V30 1052 C 106.427 0.272879 -3.37699 0
M  V30 1053 C 104.986 0.702103 -3.69794 0
M  V30 1054 C 104.133 -0.167304 -2.76795 0
M  V30 1055 H 107.084 -0.558123 -1.48562 0
M  V30 1056 H 107.105 1.10128 -3.64214 0
M  V30 1057 H 106.617 -0.715307 -3.81451 0
M  V30 1058 H 104.718 1.6995 -3.31584 0
M  V30 1059 H 104.831 0.495604 -4.7653 0
M  V30 1060 H 103.195 0.359527 -2.5215 0
M  V30 1061 H 103.978 -1.15253 -3.23375 0
M  V30 1062 N 106.423 1.57458 -0.0668435 0
M  V30 1063 C 107.386 2.11323 0.887422 0
M  V30 1064 C 108.386 1.03618 1.22964 0
M  V30 1065 O 109.576 1.29626 1.16373 0
M  V30 1066 C 106.708 2.61048 2.19242 0
M  V30 1067 H 107.901 2.96942 0.420194 0
M  V30 1068 H 105.454 1.55239 0.181793 0
M  V30 1069 H 106.189 1.78868 2.70512 0
M  V30 1070 H 105.974 3.39769 1.95702 0
M  V30 1071 H 107.464 3.02814 2.87565 0
M  V30 1072 N 107.901 -0.206675 1.56239 0
M  V30 1073 C 109.178 -0.954051 1.70755 0
M  V30 1074 C 109.558 -2.01841 0.618353 0
M  V30 1075 O 108.906 -2.25444 -0.372434 0
M  V30 1076 C 109.116 -1.551 3.12642 0
M  V30 1077 C 110.464 -2.03757 3.72516 0
M  V30 1078 O 111.488 -1.64965 3.15698 0
M  V30 1079 O 110.347 -2.75103 4.72208 0
M  V30 1080 H 107.441 -0.446636 0.696021 0
M  V30 1081 H 109.987 -0.197283 1.68549 0
M  V30 1082 H 108.759 -0.783212 3.83382 0
M  V30 1083 H 108.382 -2.37291 3.19028 0
M  V30 1084 N 109.379 -1.50304 -0.473955 0
M  V30 1085 C 110.795 -1.37667 -0.807466 0
M  V30 1086 C 110.995 -0.430555 -1.96846 0
M  V30 1087 O 110.051 0.127874 -2.52176 0
M  V30 1088 C 111.364 -2.78974 -1.12223 0
M  V30 1089 C 112.912 -2.87868 -1.22885 0
M  V30 1090 C 113.387 -4.30003 -1.57676 0
M  V30 1091 N 114.878 -4.3294 -1.64673 0
M  V30 1092 C 115.613 -5.3991 -1.93091 0
M  V30 1093 N 115.109 -6.57092 -2.1955 0
M  V30 1094 N 116.902 -5.27351 -1.94569 0
M  V30 1095 H 109.053 -2.10394 0.291212 0
M  V30 1096 H 111.316 -0.945575 0.0677609 0
M  V30 1097 H 111.022 -3.50031 -0.342229 0
M  V30 1098 H 110.896 -3.16038 -2.05913 0
M  V30 1099 H 113.283 -2.17032 -1.99953 0
M  V30 1100 H 113.364 -2.54352 -0.271814 0
M  V30 1101 H 113.008 -5.01375 -0.81149 0
M  V30 1102 H 112.938 -4.61004 -2.54525 0
M  V30 1103 H 115.429 -3.48441 -1.46277 0
M  V30 1104 H 115.742 -7.34425 -2.405 0
M  V30 1105 H 114.087 -6.60272 -2.16948 0
M  V30 1106 H 117.278 -4.34801 -1.73394 0
M  V30 1107 H 117.451 -6.10805 -2.16381 0
M  V30 1108 N 110.857 0.726932 -1.39834 0
M  V30 1109 C 112.268 1.30558 -1.3346 0
M  V30 1110 C 112.619 1.962 -0.00273003 0
M  V30 1111 O 111.744 1.96826 0.899371 0
M  V30 1112 C 112.339 2.37404 -2.41713 0
M  V30 1113 C 110.898 2.90921 -2.38835 0
M  V30 1114 C 110.045 1.64578 -2.2318 0
M  V30 1115 H 112.996 0.523862 -1.49804 0
M  V30 1116 H 113.017 3.17984 -2.08966 0
M  V30 1117 H 112.529 1.89599 -3.38635 0
M  V30 1118 H 110.63 3.42985 -1.45575 0
M  V30 1119 H 110.743 3.43487 -3.33997 0
M  V30 1120 H 109.107 1.89219 -1.70494 0
M  V30 1121 H 109.89 1.18814 -3.22084 0
M  V30 1122 N 112.336 1.25143 0.95797 0
M  V30 1123 C 113.582 1.09855 1.70469 0
M  V30 1124 C 113.915 -0.360187 1.90831 0
M  V30 1125 O 113.19 -1.26568 1.47685 0
M  V30 1126 C 113.473 1.8497 3.08963 0
M  V30 1127 C 113.326 3.38652 2.96032 0
M  V30 1128 C 114.645 1.63016 4.08795 0
M  V30 1129 H 111.764 0.400465 0.618706 0
M  V30 1130 H 114.406 1.53933 1.11376 0
M  V30 1131 H 112.556 1.47505 3.59409 0
M  V30 1132 H 114.228 3.85772 2.52938 0
M  V30 1133 H 112.471 3.66534 2.32025 0
M  V30 1134 H 113.142 3.8642 3.94187 0
M  V30 1135 H 115.618 1.95625 3.67247 0
M  V30 1136 H 114.494 2.18015 5.03747 0
M  V30 1137 H 114.755 0.570692 4.38401 0
M  V30 1138 N 113.814 -1.1601 1.06675 0
M  V30 1139 C 115.23 -1.38622 0.790948 0
M  V30 1140 C 115.43 -1.92109 -0.607965 0
M  V30 1141 O 114.486 -2.12239 -1.36787 0
M  V30 1142 C 115.799 -2.36347 1.85905 0
M  V30 1143 C 117.347 -2.50023 1.88301 0
M  V30 1144 C 117.822 -3.51033 2.94176 0
M  V30 1145 N 119.313 -3.58563 2.93235 0
M  V30 1146 C 120.048 -4.36521 3.71803 0
M  V30 1147 N 119.544 -5.17869 4.602 0
M  V30 1148 N 121.337 -4.31541 3.60178 0
M  V30 1149 H 113.488 -0.796294 1.96908 0
M  V30 1150 H 115.751 -0.412597 0.853503 0
M  V30 1151 H 115.457 -2.04147 2.86386 0
M  V30 1152 H 115.331 -3.36042 1.71334 0
M  V30 1153 H 117.718 -2.81524 0.884769 0
M  V30 1154 H 117.799 -1.5035 2.06951 0
M  V30 1155 H 117.443 -3.20268 3.94196 0
M  V30 1156 H 117.373 -4.50445 2.72776 0
M  V30 1157 H 119.864 -3.00496 2.29152 0
M  V30 1158 H 120.177 -5.74578 5.16797 0
M  V30 1159 H 118.522 -5.17199 4.64253 0
M  V30 1160 H 121.713 -3.67051 2.90502 0
M  V30 1161 H 121.886 -4.9205 4.21653 0
M  V30 1162 N 115.292 -0.849877 -1.32721 0
M  V30 1163 C 116.538 -0.451591 -1.97708 0
M  V30 1164 C 116.871 0.989175 -1.6712 0
M  V30 1165 O 116.146 1.69334 -0.956891 0
M  V30 1166 C 116.429 -0.685598 -3.53513 0
M  V30 1167 C 116.282 -2.17444 -3.93749 0
M  V30 1168 C 117.601 -0.138874 -4.39881 0
M  V30 1169 H 114.72 -0.16555 -0.718166 0
M  V30 1170 H 117.362 -1.06742 -1.57182 0
M  V30 1171 H 115.512 -0.161416 -3.88165 0
M  V30 1172 H 117.184 -2.76433 -3.693 0
M  V30 1173 H 115.427 -2.65476 -3.43081 0
M  V30 1174 H 116.098 -2.28888 -5.02309 0
M  V30 1175 H 118.574 -0.587068 -4.11938 0
M  V30 1176 H 117.45 -0.332213 -5.47894 0
M  V30 1177 H 117.711 0.95806 -4.31594 0
M  V30 1178 N 116.77 1.45427 -0.607355 0
M  V30 1179 C 118 2.06314 -0.108656 0
M  V30 1180 C 118.408 1.45269 1.21217 0
M  V30 1181 O 117.751 0.561115 1.74921 0
M  V30 1182 C 117.813 3.59345 0.105618 0
M  V30 1183 C 117.477 4.42723 -1.13337 0
M  V30 1184 C 118.474 4.77715 -2.05145 0
M  V30 1185 C 116.159 4.83478 -1.36213 0
M  V30 1186 C 118.153 5.52317 -3.18158 0
M  V30 1187 C 115.84 5.57835 -2.49527 0
M  V30 1188 C 116.838 5.92171 -3.40327 0
M  V30 1189 O 116.526 6.65019 -4.51669 0
M  V30 1190 H 116.258 0.672782 -0.0658842 0
M  V30 1191 H 118.812 1.87664 -0.834945 0
M  V30 1192 H 117.042 3.76394 0.886796 0
M  V30 1193 H 118.731 4.02076 0.555886 0
M  V30 1194 H 119.497 4.46787 -1.88697 0
M  V30 1195 H 115.376 4.56188 -0.664362 0
M  V30 1196 H 118.92 5.79036 -3.89054 0
M  V30 1197 H 114.817 5.88177 -2.65928 0
M  V30 1198 H 115.585 6.83469 -4.50348 0
M  V30 1199 N 118.248 0.346503 1.53744 0
M  V30 1200 C 119.211 -0.496439 2.23759 0
M  V30 1201 C 120.211 -1.0252 1.2388 0
M  V30 1202 O 121.401 -0.913974 1.48297 0
M  V30 1203 C 118.533 -1.69187 2.95954 0
M  V30 1204 H 119.726 0.115952 2.99676 0
M  V30 1205 H 117.279 0.0978939 1.55993 0
M  V30 1206 H 118.014 -2.34288 2.24231 0
M  V30 1207 H 117.799 -1.31989 3.69217 0
M  V30 1208 H 119.289 -2.28969 3.49232 0
M  V30 1209 N 119.726 -1.57421 0.075193 0
M  V30 1210 C 121.003 -1.85029 -0.634329 0
M  V30 1211 C 121.383 -0.968305 -1.87582 0
M  V30 1212 O 120.731 -0.0354749 -2.28472 0
M  V30 1213 C 120.941 -3.35286 -0.968742 0
M  V30 1214 C 122.289 -4.02875 -1.34077 0
M  V30 1215 O 123.313 -3.40051 -1.06037 0
M  V30 1216 O 122.172 -5.13691 -1.86506 0
M  V30 1217 H 119.266 -0.7645 -0.315387 0
M  V30 1218 H 121.812 -1.69366 0.106382 0
M  V30 1219 H 120.584 -3.91203 -0.0871376 0
M  V30 1220 H 120.207 -3.56223 -1.7661 0
M  V30 1221 N 121.204 0.198386 -1.56346 0
M  V30 1222 C 122.452 0.91747 -1.80075 0
M  V30 1223 C 122.773 1.83929 -0.647692 0
M  V30 1224 O 122.043 1.93029 0.334166 0
M  V30 1225 H 120.623 0.341774 -0.664228 0
M  V30 1226 H 123.285 0.204684 -1.93822 0
M  V30 1227 H 122.381 1.51055 -2.7311 0
M  V30 1228 N 122.682 1.50554 0.465978 0
M  V30 1229 C 123.931 1.61038 1.21448 0
M  V30 1230 C 124.244 0.31865 1.92987 0
M  V30 1231 O 125.45 0.302469 2.6981 0
M  V30 1232 C 123.906 2.84283 2.20706 0
M  V30 1233 C 123.514 4.20352 1.54946 0
M  V30 1234 C 125.258 3.04115 2.96166 0
M  V30 1235 C 123.165 5.34778 2.5252 0
M  V30 1236 H 122.095 0.599718 0.457005 0
M  V30 1237 H 124.746 1.7699 0.484424 0
M  V30 1238 H 123.128 2.61901 2.97025 0
M  V30 1239 H 124.302 4.53008 0.843811 0
M  V30 1240 H 122.617 4.06167 0.917475 0
M  V30 1241 H 125.214 3.86774 3.69202 0
M  V30 1242 H 125.557 2.16045 3.55852 0
M  V30 1243 H 126.09 3.26702 2.26959 0
M  V30 1244 H 122.829 6.25018 1.97566 0
M  V30 1245 H 122.349 5.06534 3.21222 0
M  V30 1246 H 124.028 5.65561 3.14245 0
M  V30 1247 N 124.16 -0.719506 1.40217 0
M  V30 1248 C 125.407 -1.47933 1.38283 0
M  V30 1249 C 125.735 -1.94493 -0.0161536 0
M  V30 1250 O 124.99 -1.68224 -0.999956 0
M  V30 1251 C 125.289 -2.72271 2.31524 0
M  V30 1252 C 124.955 -2.44496 3.78857 0
M  V30 1253 C 123.617 -2.36631 4.18998 0
M  V30 1254 C 125.969 -2.21104 4.71977 0
M  V30 1255 C 123.297 -2.03437 5.503 0
M  V30 1256 C 125.649 -1.89423 6.03574 0
M  V30 1257 C 124.313 -1.80038 6.42762 0
M  V30 1258 H 123.583 -0.541325 0.506012 0
M  V30 1259 H 126.23 -0.824502 1.72842 0
M  V30 1260 H 124.535 -3.42572 1.90137 0
M  V30 1261 H 126.232 -3.30348 2.27313 0
M  V30 1262 H 122.822 -2.51503 3.47051 0
M  V30 1263 H 127.006 -2.26139 4.41786 0
M  V30 1264 H 122.262 -1.94705 5.79569 0
M  V30 1265 H 126.436 -1.70336 6.75247 0
M  V30 1266 H 124.063 -1.54083 7.44421 0
M  V30 1267 N 125.638 -1.25649 -0.95132 0
M  V30 1268 C 126.915 -1.01361 -1.67288 0
M  V30 1269 C 127.295 0.459135 -2.06046 0
M  V30 1270 O 126.643 1.43723 -1.7764 0
M  V30 1271 C 126.853 -1.95256 -2.89268 0
M  V30 1272 C 128.201 -2.23289 -3.61147 0
M  V30 1273 O 129.225 -1.93041 -2.99355 0
M  V30 1274 O 128.084 -2.74741 -4.72419 0
M  V30 1275 H 125.178 -0.38464 -0.732107 0
M  V30 1276 H 127.724 -1.36817 -1.00395 0
M  V30 1277 H 126.496 -2.94685 -2.57442 0
M  V30 1278 H 126.119 -1.60218 -3.6389 0
M  V30 1279 N 127.117 1.15442 -1.07289 0
M  V30 1280 C 128.047 2.22312 -0.714107 0
M  V30 1281 C 129.028 1.67467 0.298155 0
M  V30 1282 O 130.213 1.93445 0.171048 0
M  V30 1283 C 127.343 3.47124 -0.110448 0
M  V30 1284 C 126.297 4.14926 -1.04979 0
M  V30 1285 C 125.623 5.33807 -0.308924 0
M  V30 1286 C 126.923 4.64762 -2.38314 0
M  V30 1287 H 128.617 2.5258 -1.6076 0
M  V30 1288 H 126.163 1.21404 -0.77441 0
M  V30 1289 H 128.116 4.21124 0.152482 0
M  V30 1290 H 126.84 3.16187 0.81812 0
M  V30 1291 H 125.499 3.42866 -1.29764 0
M  V30 1292 H 125.147 4.99126 0.623084 0
M  V30 1293 H 124.847 5.80113 -0.935036 0
M  V30 1294 H 126.371 6.10576 -0.0537771 0
M  V30 1295 H 127.785 5.30292 -2.1786 0
M  V30 1296 H 126.182 5.21728 -2.96514 0
M  V30 1297 H 127.252 3.80434 -3.00663 0
M  V30 1298 N 128.595 0.856903 1.32268 0
M  V30 1299 C 129.842 0.461386 1.97174 0
M  V30 1300 C 130.17 -0.983491 1.67803 0
M  V30 1301 O 129.425 -1.70541 0.959903 0
M  V30 1302 C 129.724 0.649919 3.51441 0
M  V30 1303 C 129.39 2.0656 4.00804 0
M  V30 1304 C 128.052 2.45279 4.13995 0
M  V30 1305 C 130.404 2.98947 4.26943 0
M  V30 1306 C 127.732 3.75653 4.50668 0
M  V30 1307 C 130.084 4.28822 4.65075 0
M  V30 1308 C 128.748 4.67472 4.76472 0
M  V30 1309 H 128.018 0.168833 0.72151 0
M  V30 1310 H 130.665 1.08739 1.57633 0
M  V30 1311 H 128.97 -0.0593018 3.91755 0
M  V30 1312 H 130.667 0.32391 3.9969 0
M  V30 1313 H 127.257 1.75495 3.91024 0
M  V30 1314 H 131.441 2.70265 4.16258 0
M  V30 1315 H 126.697 4.05379 4.57688 0
M  V30 1316 H 130.871 5.0047 4.84255 0
M  V30 1317 H 128.498 5.68539 5.04646 0
M  V30 1318 N 130.073 -1.45103 0.615059 0
M  V30 1319 C 131.023 -2.27679 -0.120966 0
M  V30 1320 C 132.007 -1.3775 -0.831491 0
M  V30 1321 O 133.199 -1.61683 -0.720249 0
M  V30 1322 C 130.328 -3.24767 -1.1127 0
M  V30 1323 C 129.414 -4.22184 -0.402627 0
M  V30 1324 N 129.805 -5.02692 0.559884 0
M  V30 1325 C 128.103 -4.4125 -0.649202 0
M  V30 1326 C 128.804 -5.73421 0.977942 0
M  V30 1327 N 127.78 -5.42657 0.320104 0
M  V30 1328 H 131.582 -2.87325 0.618181 0
M  V30 1329 H 129.096 -1.56345 0.439304 0
M  V30 1330 H 131.093 -3.82666 -1.65446 0
M  V30 1331 H 129.753 -2.66682 -1.85232 0
M  V30 1332 H 130.764 -5.09354 0.936976 0
M  V30 1333 H 127.441 -3.9428 -1.37293 0
M  V30 1334 H 128.831 -6.48107 1.77222 0
M  V30 1335 N 131.551 -0.354651 -1.53558 0
M  V30 1336 C 132.776 0.242153 -2.05981 0
M  V30 1337 C 133.201 1.42553 -1.2272 0
M  V30 1338 O 132.559 1.79656 -0.243604 0
M  V30 1339 C 132.607 0.624367 -3.55154 0
M  V30 1340 O 131.711 1.72301 -3.74681 0
M  V30 1341 H 131.052 0.0378432 -0.662921 0
M  V30 1342 H 133.582 -0.512087 -1.98088 0
M  V30 1343 H 133.592 0.898433 -3.97985 0
M  V30 1344 H 132.267 -0.240989 -4.15201 0
M  V30 1345 H 130.844 1.44535 -3.4375 0
M  V30 1346 N 133.029 1.57378 -0.0835403 0
M  V30 1347 C 134.277 1.93547 0.581718 0
M  V30 1348 C 134.598 0.96524 1.69435 0
M  V30 1349 O 133.868 0.0153369 1.95894 0
M  V30 1350 H 132.448 0.714521 0.217874 0
M  V30 1351 H 135.11 1.94366 -0.144158 0
M  V30 1352 H 134.206 2.95665 0.999423 0
M  V30 1353 N 134.507 -0.190092 1.56449 0
M  V30 1354 C 135.457 -1.23977 1.91347 0
M  V30 1355 C 136.441 -1.40747 0.779693 0
M  V30 1356 O 137.633 -1.43033 1.04262 0
M  V30 1357 C 134.762 -2.58347 2.26079 0
M  V30 1358 C 133.848 -2.4535 3.45925 0
M  V30 1359 N 134.239 -2.02039 4.63696 0
M  V30 1360 C 132.537 -2.76229 3.50162 0
M  V30 1361 C 133.238 -2.01053 5.4585 0
M  V30 1362 N 132.214 -2.42747 4.8639 0
M  V30 1363 H 136.016 -0.896318 2.79899 0
M  V30 1364 H 133.53 -0.398496 1.57435 0
M  V30 1365 H 135.527 -3.34173 2.49267 0
M  V30 1366 H 134.187 -2.93512 1.38856 0
M  V30 1367 H 135.198 -1.7267 4.88268 0
M  V30 1368 H 131.875 -3.15556 2.73369 0
M  V30 1369 H 133.265 -1.69426 6.50188 0
M  V30 1370 N 135.985 -1.50799 -0.457987 0
M  V30 1371 C 136.948 -1.7005 -1.53674 0
M  V30 1372 C 137.948 -0.570881 -1.50325 0
M  V30 1373 O 139.138 -0.838126 -1.52712 0
M  V30 1374 C 136.27 -1.73788 -2.93276 0
M  V30 1375 H 137.463 -2.66306 -1.37917 0
M  V30 1376 H 135.016 -1.40477 -0.685271 0
M  V30 1377 H 135.751 -0.792717 -3.14462 0
M  V30 1378 H 135.536 -2.55864 -2.97113 0
M  V30 1379 H 137.026 -1.90591 -3.71571 0
M  V30 1380 N 137.463 0.71206 -1.40597 0
M  V30 1381 C 138.879 1.02058 -1.22704 0
M  V30 1382 C 139.079 2.01228 -0.104729 0
M  V30 1383 O 138.135 2.4674 0.53624 0
M  V30 1384 C 139.448 1.56094 -2.57012 0
M  V30 1385 C 140.996 1.6806 -2.64054 0
M  V30 1386 C 141.471 2.25501 -3.9864 0
M  V30 1387 N 142.962 2.32882 -4.004 0
M  V30 1388 C 143.697 2.78317 -5.01325 0
M  V30 1389 N 143.193 3.23478 -6.12645 0
M  V30 1390 N 144.986 2.77733 -4.88693 0
M  V30 1391 H 137.137 0.0547896 -2.12329 0
M  V30 1392 H 139.4 0.0869027 -0.944008 0
M  V30 1393 H 139.106 0.906865 -3.39807 0
M  V30 1394 H 138.98 2.54564 -2.78347 0
M  V30 1395 H 141.367 2.32583 -1.81629 0
M  V30 1396 H 141.448 0.681802 -2.46546 0
M  V30 1397 H 141.092 1.61598 -4.81506 0
M  V30 1398 H 141.022 3.26102 -4.13479 0
M  V30 1399 H 143.513 2.00991 -3.20017 0
M  V30 1400 H 143.826 3.56725 -6.85542 0
M  V30 1401 H 142.171 3.21429 -6.16205 0
M  V30 1402 H 145.362 2.4179 -4.00818 0
M  V30 1403 H 145.535 3.12826 -5.67489 0
M  V30 1404 N 138.941 1.26152 0.944643 0
M  V30 1405 C 139.904 1.07474 2.0244 0
M  V30 1406 C 140.904 0.0242064 1.60782 0
M  V30 1407 O 142.094 0.267302 1.72137 0
M  V30 1408 C 139.226 0.633956 3.34953 0
M  V30 1409 H 140.419 2.03336 2.20442 0
M  V30 1410 H 137.972 1.087 1.12312 0
M  V30 1411 H 138.707 -0.326811 3.22649 0
M  V30 1412 H 138.492 1.39247 3.66542 0
M  V30 1413 H 139.982 0.52501 4.14287 0
M  V30 1414 N 140.419 -1.14872 1.07899 0
M  V30 1415 C 141.349 -2.2193 0.725887 0
M  V30 1416 C 142.33 -1.67622 -0.28927 0
M  V30 1417 O 143.515 -1.93533 -0.160787 0
M  V30 1418 C 140.645 -3.47061 0.128856 0
M  V30 1419 C 139.599 -4.14363 1.07178 0
M  V30 1420 C 138.925 -5.33636 0.337229 0
M  V30 1421 C 140.225 -4.63492 2.40775 0
M  V30 1422 H 141.919 -2.51724 1.62097 0
M  V30 1423 H 139.465 -1.20991 0.780838 0
M  V30 1424 H 141.418 -4.21199 -0.130147 0
M  V30 1425 H 140.142 -3.16617 -0.80134 0
M  V30 1426 H 138.801 -3.42173 1.3158 0
M  V30 1427 H 138.449 -4.99449 -0.596606 0
M  V30 1428 H 138.149 -5.79609 0.965788 0
M  V30 1429 H 139.673 -6.10539 0.0861567 0
M  V30 1430 H 141.087 -5.2913 2.20669 0
M  V30 1431 H 139.484 -5.20148 2.99276 0
M  V30 1432 H 140.554 -3.78834 3.02676 0
M  V30 1433 N 141.898 -0.863906 -1.31812 0
M  V30 1434 C 142.831 -0.259963 -2.26714 0
M  V30 1435 C 143.809 0.607392 -1.50829 0
M  V30 1436 O 144.993 0.562155 -1.79922 0
M  V30 1437 C 142.12 0.632456 -3.32743 0
M  V30 1438 C 141.166 -0.162743 -4.26189 0
M  V30 1439 S 141.999 -1.53726 -5.12961 0
M  V30 1440 C 143.155 -0.650803 -6.22507 0
M  V30 1441 H 143.388 -1.06445 -2.77591 0
M  V30 1442 H 140.921 -0.662071 -1.39485 0
M  V30 1443 H 142.879 1.14167 -3.94305 0
M  V30 1444 H 141.54 1.41083 -2.80632 0
M  V30 1445 H 140.733 0.517366 -5.01338 0
M  V30 1446 H 140.335 -0.60385 -3.69093 0
M  V30 1447 H 142.627 0.141134 -6.77353 0
M  V30 1448 H 143.57 -1.37322 -6.94657 0
M  V30 1449 H 143.978 -0.221041 -5.64067 0
M  V30 1450 N 143.376 1.44774 -0.622745 0
M  V30 1451 C 144.308 2.28856 0.125485 0
M  V30 1452 C 145.321 1.40811 0.817069 0
M  V30 1453 O 146.51 1.65044 0.679918 0
M  V30 1454 C 143.61 3.16963 1.19949 0
M  V30 1455 C 142.783 4.33374 0.592064 0
M  V30 1456 C 141.842 5.02577 1.55893 0
M  V30 1457 O 140.868 5.58873 1.07933 0
M  V30 1458 N 142.07 5.03256 2.89334 0
M  V30 1459 H 144.835 2.93713 -0.596068 0
M  V30 1460 H 142.396 1.55129 -0.463303 0
M  V30 1461 H 144.388 3.60123 1.84644 0
M  V30 1462 H 142.958 2.53913 1.82337 0
M  V30 1463 H 142.178 3.93509 -0.233322 0
M  V30 1464 H 143.466 5.08527 0.166738 0
M  V30 1465 H 142.864 4.58836 3.30887 0
M  V30 1466 H 141.421 5.50232 3.49412 0
M  V30 1467 N 144.854 0.36279 1.53368 0
M  V30 1468 C 145.817 -0.472679 2.24273 0
M  V30 1469 C 146.817 -1.012 1.24961 0
M  V30 1470 O 148.007 -0.898194 1.49259 0
M  V30 1471 C 145.139 -1.66039 2.97731 0
M  V30 1472 H 146.332 0.14773 2.99536 0
M  V30 1473 H 143.885 0.114434 1.55881 0
M  V30 1474 H 144.62 -2.31896 2.26704 0
M  V30 1475 H 144.405 -1.28066 3.70596 0
M  V30 1476 H 145.895 -2.25252 3.51641 0
M  V30 1477 N 146.332 -1.57332 0.0918853 0
M  V30 1478 C 147.279 -2.13847 -0.868211 0
M  V30 1479 C 148.249 -1.05618 -1.28196 0
M  V30 1480 O 149.434 -1.33387 -1.36427 0
M  V30 1481 C 146.574 -2.72062 -2.12312 0
M  V30 1482 C 145.687 -3.94514 -1.7602 0
M  V30 1483 C 144.822 -4.40903 -2.96273 0
M  V30 1484 C 143.861 -5.55953 -2.56092 0
M  V30 1485 N 142.998 -5.97209 -3.69169 0
M  V30 1486 H 147.838 -2.95575 -0.379406 0
M  V30 1487 H 145.375 -1.46048 -0.175606 0
M  V30 1488 H 147.333 -3.03931 -2.858 0
M  V30 1489 H 145.963 -1.93068 -2.58698 0
M  V30 1490 H 145.015 -3.68979 -0.925135 0
M  V30 1491 H 146.327 -4.7802 -1.42472 0
M  V30 1492 H 145.481 -4.74539 -3.78018 0
M  V30 1493 H 144.22 -3.56291 -3.33029 0
M  V30 1494 H 143.225 -5.21948 -1.72773 0
M  V30 1495 H 144.45 -6.42311 -2.20484 0
M  V30 1496 H 142.396 -5.15543 -4.05649 0
M  V30 1497 H 142.313 -6.75504 -3.39456 0
M  V30 1498 H 143.581 -6.35475 -4.51434 0
M  V30 1499 N 147.81 0.181792 -1.56548 0
M  V30 1500 C 149.038 0.915947 -1.85521 0
M  V30 1501 C 149.453 1.76282 -0.676016 0
M  V30 1502 O 148.81 1.79012 0.355077 0
M  V30 1503 C 148.861 1.80126 -3.13427 0
M  V30 1504 O 148.582 0.988562 -4.26801 0
M  V30 1505 C 150.083 2.64597 -3.55673 0
M  V30 1506 H 147.303 0.26661 -0.61576 0
M  V30 1507 H 149.847 0.185039 -2.03661 0
M  V30 1508 H 148.002 2.48563 -2.97145 0
M  V30 1509 H 148.416 1.59308 -4.99721 0
M  V30 1510 H 149.89 3.2235 -4.48101 0
M  V30 1511 H 150.367 3.38958 -2.79292 0
M  V30 1512 H 150.973 2.0151 -3.74532 0
M  V30 1513 N 149.288 1.51039 0.449983 0
M  V30 1514 C 150.218 1.74379 1.55288 0
M  V30 1515 C 151.199 0.593236 1.5942 0
M  V30 1516 O 152.384 0.834625 1.7535 0
M  V30 1517 C 149.514 1.85728 2.93466 0
M  V30 1518 C 148.468 3.01078 3.04197 0
M  V30 1519 C 147.794 2.97595 4.44231 0
M  V30 1520 C 149.094 4.41254 2.7945 0
M  V30 1521 H 150.788 2.66725 1.36008 0
M  V30 1522 H 148.334 1.2835 0.652864 0
M  V30 1523 H 150.287 2.0064 3.70569 0
M  V30 1524 H 149.011 0.900207 3.13949 0
M  V30 1525 H 147.67 2.85851 2.29531 0
M  V30 1526 H 147.318 1.99691 4.61663 0
M  V30 1527 H 147.018 3.75046 4.52343 0
M  V30 1528 H 148.542 3.14583 5.23326 0
M  V30 1529 H 149.956 4.56897 3.46292 0
M  V30 1530 H 148.353 5.20315 2.98985 0
M  V30 1531 H 149.423 4.52164 1.75144 0
M  V30 1532 N 150.766 -0.704594 1.40972 0
M  V30 1533 C 152.013 -1.46458 1.39844 0
M  V30 1534 C 152.341 -1.94499 0.00447594 0
M  V30 1535 O 151.596 -1.69275 -0.982057 0
M  V30 1536 C 151.895 -2.698 2.34399 0
M  V30 1537 C 151.561 -2.40464 3.81429 0
M  V30 1538 C 150.223 -2.32174 4.21484 0
M  V30 1539 C 152.575 -2.16086 4.74296 0
M  V30 1540 C 149.903 -1.97589 5.52427 0
M  V30 1541 C 152.255 -1.83011 6.05549 0
M  V30 1542 C 150.919 -1.7321 6.44635 0
M  V30 1543 H 150.189 -0.535927 0.511725 0
M  V30 1544 H 152.836 -0.806124 1.73706 0
M  V30 1545 H 151.141 -3.40536 1.93759 0
M  V30 1546 H 152.838 -3.27919 2.30804 0
M  V30 1547 H 149.428 -2.47808 3.49699 0
M  V30 1548 H 153.612 -2.2144 4.4416 0
M  V30 1549 H 148.868 -1.88547 5.81601 0
M  V30 1550 H 153.042 -1.63164 6.77016 0
M  V30 1551 H 150.669 -1.46179 7.46013 0
M  V30 1552 N 152.244 -1.26651 -0.937939 0
M  V30 1553 C 153.655 -1.1125 -1.49934 0
M  V30 1554 C 154.006 0.306077 -1.93798 0
M  V30 1555 O 153.131 1.19792 -1.80219 0
M  V30 1556 C 153.726 -2.01339 -2.72485 0
M  V30 1557 C 152.285 -1.90074 -3.24883 0
M  V30 1558 C 151.432 -1.94498 -1.97651 0
M  V30 1559 H 154.383 -1.39693 -0.753091 0
M  V30 1560 H 154.404 -1.56319 -3.46907 0
M  V30 1561 H 153.916 -3.04577 -2.40529 0
M  V30 1562 H 152.017 -0.897827 -3.61621 0
M  V30 1563 H 152.13 -2.75778 -3.9177 0
M  V30 1564 H 150.494 -1.38591 -2.13693 0
M  V30 1565 H 151.277 -2.99372 -1.68022 0
M  V30 1566 N 153.722 1.14298 -1.08507 0
M  V30 1567 C 154.67 2.21483 -0.710483 0
M  V30 1568 C 155.664 1.66998 0.284234 0
M  V30 1569 O 156.87 1.79401 0.146692 0
M  V30 1570 H 153.245 0.721578 -0.211729 0
M  V30 1571 H 155.216 2.50348 -1.62384 0
M  V30 1572 C 153.965 3.4743 -0.137007 0
M  V30 1573 H 153.288 3.89686 -0.893592 0
M  V30 1574 H 154.728 4.2391 0.0872789 0
M  V30 1575 C 153.187 3.17548 1.12538 0
M  V30 1576 O 153.717 3.35437 2.21009 0
M  V30 1577 N 151.923 2.71499 1.03617 0
M  V30 1578 H 151.47 2.57143 0.153403 0
M  V30 1579 H 151.428 2.51881 1.88158 0
M  V30 1580 N 155.201 0.870884 1.31352 0
M  V30 1581 C 156.426 0.495957 2.01383 0
M  V30 1582 C 156.851 -0.904324 1.64935 0
M  V30 1583 O 156.209 -1.59687 0.858466 0
M  V30 1584 C 156.257 0.661433 3.54482 0
M  V30 1585 O 155.361 -0.298851 4.11316 0
M  V30 1586 H 154.702 0.197158 0.634054 0
M  V30 1587 H 157.232 1.17455 1.67527 0
M  V30 1588 H 157.242 0.555072 4.04207 0
M  V30 1589 H 155.917 1.68246 3.8035 0
M  V30 1590 H 154.494 -0.147368 3.72609 0
M  V30 1591 N 156.679 -1.44442 0.630414 0
M  V30 1592 C 157.909 -2.06115 0.141465 0
M  V30 1593 C 158.317 -1.47179 -1.1889 0
M  V30 1594 O 157.66 -0.588873 -1.74006 0
M  V30 1595 C 157.722 -3.59467 -0.0484355 0
M  V30 1596 C 157.386 -4.40864 1.20366 0
M  V30 1597 C 158.383 -4.74391 2.12719 0
M  V30 1598 C 156.068 -4.8125 1.43887 0
M  V30 1599 C 158.062 -5.47186 3.26904 0
M  V30 1600 C 155.749 -5.53795 2.5837 0
M  V30 1601 C 156.747 -5.86682 3.49705 0
M  V30 1602 O 156.435 -6.57749 4.62191 0
M  V30 1603 H 156.167 -0.671648 0.0765792 0
M  V30 1604 H 158.721 -1.86312 0.864695 0
M  V30 1605 H 156.951 -3.77758 -0.826803 0
M  V30 1606 H 158.64 -4.02909 -0.491849 0
M  V30 1607 H 159.406 -4.43728 1.95781 0
M  V30 1608 H 155.285 -4.55073 0.736853 0
M  V30 1609 H 158.829 -5.72773 3.98217 0
M  V30 1610 H 154.726 -5.83872 2.75251 0
M  V30 1611 H 155.494 -6.76217 4.61164 0
M  V30 1612 N 158.157 -0.370918 -1.53173 0
M  V30 1613 C 159.087 0.464847 -2.28826 0
M  V30 1614 C 160.068 1.07936 -1.31468 0
M  V30 1615 O 161.253 1.0956 -1.60344 0
M  V30 1616 C 158.383 1.60196 -3.08147 0
M  V30 1617 C 157.337 1.11443 -4.13237 0
M  V30 1618 C 156.663 2.3422 -4.80672 0
M  V30 1619 C 157.963 0.195384 -5.21934 0
M  V30 1620 H 159.657 -0.166329 -2.98938 0
M  V30 1621 H 157.203 -0.0814359 -1.4377 0
M  V30 1622 H 159.156 2.19332 -3.59822 0
M  V30 1623 H 157.88 2.26045 -2.35735 0
M  V30 1624 H 156.539 0.545727 -3.62515 0
M  V30 1625 H 156.187 2.98537 -4.04827 0
M  V30 1626 H 155.887 2.02269 -5.51689 0
M  V30 1627 H 157.411 2.94032 -5.35143 0
M  V30 1628 H 158.825 0.694375 -5.69079 0
M  V30 1629 H 157.222 -0.0335027 -6.00091 0
M  V30 1630 H 158.292 -0.760961 -4.78892 0
M  V30 1631 N 159.635 1.57281 -0.100228 0
M  V30 1632 C 160.565 2.17328 0.853857 0
M  V30 1633 C 161.546 1.10804 1.2906 0
M  V30 1634 O 162.731 1.38963 1.35657 0
M  V30 1635 C 159.861 2.75772 2.11109 0
M  V30 1636 C 158.815 3.87713 1.81279 0
M  V30 1637 C 158.141 4.32882 3.13874 0
M  V30 1638 C 159.441 5.10677 1.09574 0
M  V30 1639 H 161.135 2.97305 0.353545 0
M  V30 1640 H 158.681 1.43009 0.168612 0
M  V30 1641 H 160.634 3.16433 2.78296 0
M  V30 1642 H 159.358 1.93057 2.63432 0
M  V30 1643 H 158.017 3.476 1.16489 0
M  V30 1644 H 157.665 3.47051 3.64095 0
M  V30 1645 H 157.365 5.08358 2.94696 0
M  V30 1646 H 158.889 4.7618 3.82211 0
M  V30 1647 H 160.303 5.48474 1.66879 0
M  V30 1648 H 158.7 5.91615 1.00557 0
M  V30 1649 H 159.77 4.84835 0.0793299 0
M  V30 1650 N 161.113 -0.173488 1.56642 0
M  V30 1651 C 162.359 -0.891784 1.8214 0
M  V30 1652 C 162.692 -1.8199 0.677736 0
M  V30 1653 O 161.967 -1.91842 -0.320446 0
M  V30 1654 C 162.25 -1.68933 3.18015 0
M  V30 1655 C 162.103 -0.784487 4.42906 0
M  V30 1656 C 163.422 -2.65748 3.50808 0
M  V30 1657 H 160.541 -0.322761 0.662567 0
M  V30 1658 H 163.183 -0.158095 1.89341 0
M  V30 1659 H 161.333 -2.31482 3.12007 0
M  V30 1660 H 163.005 -0.172046 4.60979 0
M  V30 1661 H 161.248 -0.0924117 4.33702 0
M  V30 1662 H 161.919 -1.37799 5.34524 0
M  V30 1663 H 164.395 -2.13327 3.57255 0
M  V30 1664 H 163.271 -3.18619 4.4696 0
M  V30 1665 H 163.532 -3.45842 2.75401 0
M  V30 1666 N 162.591 -1.51276 -0.441967 0
M  V30 1667 C 163.839 -1.63392 -1.18943 0
M  V30 1668 C 164.16 -0.350159 -1.9183 0
M  V30 1669 O 163.43 0.633784 -1.85364 0
M  V30 1670 H 162.01 -0.602164 -0.442049 0
M  V30 1671 H 164.672 -1.88186 -0.507165 0
M  V30 1672 H 163.768 -2.45934 -1.92154 0
M  V30 1673 N 164.069 0.697108 -1.41344 0
M  V30 1674 C 165.315 1.4593 -1.40827 0
M  V30 1675 C 165.648 1.94193 -0.0167098 0
M  V30 1676 O 164.923 1.69425 0.955263 0
M  V30 1677 C 165.206 2.67229 -2.41373 0
M  V30 1678 C 165.059 2.24741 -3.8963 0
M  V30 1679 C 166.378 3.69423 -2.39196 0
M  V30 1680 H 163.497 0.529303 -0.512842 0
M  V30 1681 H 166.139 0.794112 -1.72609 0
M  V30 1682 H 164.289 3.23982 -2.14401 0
M  V30 1683 H 165.961 1.73327 -4.27499 0
M  V30 1684 H 164.204 1.56542 -4.0457 0
M  V30 1685 H 164.875 3.1177 -4.55525 0
M  V30 1686 H 167.351 3.2234 -2.63128 0
M  V30 1687 H 166.227 4.51907 -3.11563 0
M  V30 1688 H 166.488 4.19012 -1.41001 0
M  V30 1689 N 165.547 1.27147 0.931209 0
M  V30 1690 C 166.787 1.14511 1.69312 0
M  V30 1691 C 167.151 -0.304638 1.89568 0
M  V30 1692 O 168.352 -0.553343 2.63043 0
M  V30 1693 C 166.623 1.90349 3.02493 0
M  V30 1694 S 168.182 1.93884 3.93642 0
M  V30 1695 H 165 0.408858 0.581684 0
M  V30 1696 H 167.602 1.61006 1.10893 0
M  V30 1697 H 166.306 2.94877 2.85439 0
M  V30 1698 H 165.837 1.44333 3.65966 0
M  V30 1699 H 167.852 1.03273 4.85334 0
M  V30 1700 N 167.025 -1.13721 1.09112 0
M  V30 1701 C 168.25 -1.89314 0.847053 0
M  V30 1702 C 168.675 -1.78416 -0.595774 0
M  V30 1703 O 168.033 -1.12942 -1.41823 0
M  V30 1704 C 168.081 -3.3701 1.28284 0
M  V30 1705 O 167.185 -4.10054 0.439267 0
M  V30 1706 H 166.526 -0.588745 0.307044 0
M  V30 1707 H 169.056 -1.43902 1.45442 0
M  V30 1708 H 169.066 -3.87834 1.26683 0
M  V30 1709 H 167.741 -3.4426 2.33363 0
M  V30 1710 H 166.318 -3.69266 0.519312 0
M  V30 1711 N 168.503 -0.877838 -1.30888 0
M  V30 1712 C 169.78 -0.413052 -1.91189 0
M  V30 1713 C 170.16 1.1056 -1.79832 0
M  V30 1714 O 169.508 1.93771 -1.21099 0
M  V30 1715 C 169.718 -0.903191 -3.3711 0
M  V30 1716 C 171.066 -0.93395 -4.14201 0
M  V30 1717 O 172.09 -0.849373 -3.45925 0
M  V30 1718 O 170.949 -1.05772 -5.36167 0
M  V30 1719 H 168.043 -0.125035 -0.817493 0
M  V30 1720 H 170.589 -0.966269 -1.39504 0
M  V30 1721 H 169.361 -1.94692 -3.39427 0
M  V30 1722 H 168.984 -0.328732 -3.96239 0
M  V30 1723 N 169.982 1.44106 -0.638065 0
M  V30 1724 C 171.259 1.95453 -0.0759321 0
M  V30 1725 C 171.639 1.57984 1.40015 0
M  V30 1726 O 170.987 0.857361 2.11806 0
M  V30 1727 C 171.197 3.47655 -0.306132 0
M  V30 1728 C 172.545 4.24114 -0.203008 0
M  V30 1729 O 173.569 3.55405 -0.237871 0
M  V30 1730 O 172.428 5.46381 -0.113827 0
M  V30 1731 H 169.522 0.826797 0.0183332 0
M  V30 1732 H 172.068 1.54122 -0.710251 0
M  V30 1733 H 170.84 3.68 -1.3301 0
M  V30 1734 H 170.463 3.95949 0.361991 0
M  V30 1735 N 171.46 0.379036 1.52974 0
M  V30 1736 C 172.39 -0.452706 2.29069 0
M  V30 1737 C 173.371 -1.07237 1.32039 0
M  V30 1738 O 174.556 -1.08708 1.60923 0
M  V30 1739 C 171.686 -1.5856 3.08992 0
M  V30 1740 C 170.64 -1.0925 4.13822 0
M  V30 1741 C 169.966 -2.31668 4.81907 0
M  V30 1742 C 171.266 -0.167702 5.22031 0
M  V30 1743 H 172.96 0.182181 2.98845 0
M  V30 1744 H 170.506 0.0890592 1.43724 0
M  V30 1745 H 172.459 -2.1742 3.6098 0
M  V30 1746 H 171.183 -2.24792 2.36931 0
M  V30 1747 H 169.842 -0.526494 3.628 0
M  V30 1748 H 169.49 -2.96386 4.06404 0
M  V30 1749 H 169.19 -1.9934 5.52754 0
M  V30 1750 H 170.714 -2.91189 5.36695 0
M  V30 1751 H 172.128 -0.664186 5.6944 0
M  V30 1752 H 170.525 0.0653265 6.00064 0
M  V30 1753 H 171.595 0.786347 4.78482 0
M  V30 1754 N 172.938 -1.57226 0.108567 0
M  V30 1755 C 174.166 -1.99179 -0.559954 0
M  V30 1756 C 174.581 -0.988022 -1.60884 0
M  V30 1757 O 173.938 0.0205512 -1.82488 0
M  V30 1758 C 173.989 -3.41159 -1.19552 0
M  V30 1759 O 173.71 -4.37694 -0.188577 0
M  V30 1760 C 175.211 -3.98188 -1.94837 0
M  V30 1761 H 172.431 -0.654228 -0.149088 0
M  V30 1762 H 174.975 -2.03598 0.19183 0
M  V30 1763 H 173.13 -3.37711 -1.89815 0
M  V30 1764 H 173.544 -5.20469 -0.649014 0
M  V30 1765 H 175.018 -4.99644 -2.34648 0
M  V30 1766 H 175.495 -3.3675 -2.81951 0
M  V30 1767 H 176.101 -4.0515 -1.2936 0
M  V30 1768 N 174.416 0.165178 -1.56732 0
M  V30 1769 C 175.366 1.20917 -1.93295 0
M  V30 1770 C 176.35 1.39488 -0.801985 0
M  V30 1771 O 177.542 1.41356 -1.06525 0
M  V30 1772 C 174.671 2.54718 -2.3016 0
M  V30 1773 C 173.757 2.39815 -3.49785 0
M  V30 1774 N 174.148 1.94637 -4.66851 0
M  V30 1775 C 172.446 2.70623 -3.54513 0
M  V30 1776 C 173.147 1.92344 -5.4898 0
M  V30 1777 N 172.123 2.34978 -4.9019 0
M  V30 1778 H 175.925 0.851675 -2.81289 0
M  V30 1779 H 173.439 0.373399 -1.58049 0
M  V30 1780 H 175.436 3.30165 -2.54552 0
M  V30 1781 H 174.096 2.91265 -1.43508 0
M  V30 1782 H 175.107 1.6488 -4.90953 0
M  V30 1783 H 171.784 3.11167 -2.78354 0
M  V30 1784 H 173.174 1.5906 -6.52801 0
M  V30 1785 N 175.894 1.51508 0.433938 0
M  V30 1786 C 176.841 1.73068 1.52696 0
M  V30 1787 C 177.811 0.572441 1.55924 0
M  V30 1788 O 178.996 0.807253 1.72882 0
M  V30 1789 C 176.136 1.86474 2.90381 0
M  V30 1790 C 175.249 3.14037 2.96656 0
M  V30 1791 C 174.384 3.18019 4.25485 0
M  V30 1792 C 173.423 4.39882 4.2564 0
M  V30 1793 N 172.56 4.41394 5.45999 0
M  V30 1794 H 177.4 2.66366 1.33615 0
M  V30 1795 H 174.937 1.32008 0.649018 0
M  V30 1796 H 176.895 1.92229 3.70275 0
M  V30 1797 H 175.525 0.965809 3.08013 0
M  V30 1798 H 174.577 3.17575 2.09404 0
M  V30 1799 H 175.889 4.0394 2.92633 0
M  V30 1800 H 175.043 3.22708 5.13755 0
M  V30 1801 H 173.782 2.2601 4.3217 0
M  V30 1802 H 172.787 4.35366 3.35763 0
M  V30 1803 H 174.012 5.33159 4.20617 0
M  V30 1804 H 171.958 3.52258 5.53399 0
M  V30 1805 H 171.875 5.25111 5.4387 0
M  V30 1806 H 173.143 4.50281 6.36292 0
M  V30 1807 N 177.372 -0.689602 1.41712 0
M  V30 1808 C 178.619 -1.44966 1.4139 0
M  V30 1809 C 178.947 -1.94484 0.025105 0
M  V30 1810 O 178.202 -1.70307 -0.964048 0
M  V30 1811 C 178.501 -2.67298 2.37247 0
M  V30 1812 C 178.167 -2.36405 3.83958 0
M  V30 1813 C 176.829 -2.27691 4.23923 0
M  V30 1814 C 179.181 -2.11043 4.76561 0
M  V30 1815 C 176.509 -1.91719 5.54492 0
M  V30 1816 C 178.861 -1.76578 6.07456 0
M  V30 1817 C 177.525 -1.66363 6.46436 0
M  V30 1818 H 176.795 -0.53047 0.517381 0
M  V30 1819 H 179.442 -0.787655 1.74552 0
M  V30 1820 H 177.747 -3.38461 1.9736 0
M  V30 1821 H 179.444 -3.25452 2.34269 0
M  V30 1822 H 176.034 -2.44085 3.52308 0
M  V30 1823 H 180.218 -2.16717 4.46483 0
M  V30 1824 H 175.474 -1.82367 5.83568 0
M  V30 1825 H 179.648 -1.55974 6.78708 0
M  V30 1826 H 177.275 -1.38258 7.47522 0
M  V30 1827 N 178.85 -1.27639 -0.924453 0
M  V30 1828 C 179.797 -1.10644 -2.0255 0
M  V30 1829 C 180.767 -0.00658438 -1.66099 0
M  V30 1830 O 181.952 -0.16952 -1.90045 0
M  V30 1831 C 179.092 -0.76309 -3.36557 0
M  V30 1832 C 178.205 -1.94091 -3.85944 0
M  V30 1833 C 177.34 -1.53914 -5.08413 0
M  V30 1834 C 176.379 -2.68425 -5.50104 0
M  V30 1835 N 175.516 -2.28815 -6.63768 0
M  V30 1836 H 180.356 -2.04858 -2.16419 0
M  V30 1837 H 177.893 -1.01974 -1.06017 0
M  V30 1838 H 179.851 -0.544822 -4.13627 0
M  V30 1839 H 178.481 0.142102 -3.22487 0
M  V30 1840 H 177.533 -2.27162 -3.05125 0
M  V30 1841 H 178.845 -2.7998 -4.12811 0
M  V30 1842 H 177.999 -1.28231 -5.92994 0
M  V30 1843 H 176.738 -0.651391 -4.8333 0
M  V30 1844 H 175.743 -2.94819 -4.64071 0
M  V30 1845 H 176.968 -3.57826 -5.7718 0
M  V30 1846 H 174.914 -1.42495 -6.40337 0
M  V30 1847 H 174.831 -3.08242 -6.90306 0
M  V30 1848 H 176.099 -2.06387 -7.51681 0
M  V30 1849 N 180.328 1.1314 -1.09713 0
M  V30 1850 C 181.576 1.84119 -0.833338 0
M  V30 1851 C 181.897 1.84097 0.642904 0
M  V30 1852 O 181.167 1.29881 1.46655 0
M  V30 1853 H 179.747 0.681766 -0.305293 0
M  V30 1854 H 182.409 1.37038 -1.38588 0
M  V30 1855 H 181.505 2.88543 -1.18951 0
M  V30 1856 N 181.806 0.884767 1.30421 0
M  V30 1857 C 183.053 0.503105 1.96151 0
M  V30 1858 C 183.381 -0.947676 1.69851 0
M  V30 1859 O 182.636 -1.68467 0.995861 0
M  V30 1860 C 182.935 0.724318 3.49983 0
M  V30 1861 C 182.601 2.15015 3.96332 0
M  V30 1862 C 181.263 2.54005 4.08699 0
M  V30 1863 C 183.615 3.07936 4.20505 0
M  V30 1864 C 180.943 3.85128 4.42599 0
M  V30 1865 C 183.295 4.3859 4.55874 0
M  V30 1866 C 181.959 4.77474 4.66449 0
M  V30 1867 H 181.229 0.184099 0.717766 0
M  V30 1868 H 183.876 1.12058 1.55291 0
M  V30 1869 H 182.181 0.0238086 3.91793 0
M  V30 1870 H 183.878 0.408617 3.98913 0
M  V30 1871 H 180.468 1.8375 3.87213 0
M  V30 1872 H 184.652 2.79033 4.10431 0
M  V30 1873 H 179.908 4.14996 4.48986 0
M  V30 1874 H 184.082 5.10629 4.7353 0
M  V30 1875 H 181.709 5.79115 4.92473 0
M  V30 1876 N 183.284 -1.43765 0.645699 0
M  V30 1877 C 184.512 -2.06253 0.163556 0
M  V30 1878 C 184.927 -1.48352 -1.16778 0
M  V30 1879 O 184.284 -0.611932 -1.71935 0
M  V30 1880 C 184.335 -3.61453 0.0583186 0
M  V30 1881 O 184.056 -4.172 1.33702 0
M  V30 1882 C 185.557 -4.41002 -0.450795 0
M  V30 1883 H 182.777 -0.665413 0.0864077 0
M  V30 1884 H 185.321 -1.84396 0.884222 0
M  V30 1885 H 183.476 -3.82522 -0.612865 0
M  V30 1886 H 183.89 -5.10791 1.19131 0
M  V30 1887 H 185.364 -5.49966 -0.473403 0
M  V30 1888 H 185.841 -4.13488 -1.48068 0
M  V30 1889 H 186.447 -4.24886 0.187637 0
M  V30 1890 N 184.763 -0.387143 -1.52771 0
M  V30 1891 C 186.009 0.196025 -2.0185 0
M  V30 1892 C 186.342 1.46641 -1.27319 0
M  V30 1893 O 185.617 1.90889 -0.373032 0
M  V30 1894 C 185.9 0.466136 -3.5707 0
M  V30 1895 C 185.753 -0.819385 -4.42274 0
M  V30 1896 C 187.072 1.25768 -4.21747 0
M  V30 1897 H 184.191 0.0697708 -0.73369 0
M  V30 1898 H 186.833 -0.516286 -1.82851 0
M  V30 1899 H 184.983 1.07293 -3.7339 0
M  V30 1900 H 186.655 -1.4563 -4.37709 0
M  V30 1901 H 184.898 -1.43517 -4.09372 0
M  V30 1902 H 185.569 -0.585065 -5.48891 0
M  V30 1903 H 188.045 0.744167 -4.09391 0
M  V30 1904 H 186.921 1.41541 -5.30337 0
M  V30 1905 H 187.182 2.27228 -3.79236 0
M  V30 1906 N 186.241 1.57166 -0.116904 0
M  V30 1907 C 187.174 2.10912 0.871291 0
M  V30 1908 C 188.152 1.025 1.26224 0
M  V30 1909 O 189.336 1.3014 1.36366 0
M  V30 1910 C 186.463 2.6041 2.16574 0
M  V30 1911 C 185.509 3.80687 1.92302 0
M  V30 1912 S 186.342 5.23199 1.14119 0
M  V30 1913 C 187.498 5.76064 2.44748 0
M  V30 1914 H 187.731 2.94401 0.414138 0
M  V30 1915 H 185.264 1.54096 0.096829 0
M  V30 1916 H 187.222 2.89583 2.9095 0
M  V30 1917 H 185.883 1.77106 2.59408 0
M  V30 1918 H 185.076 4.13462 2.8821 0
M  V30 1919 H 184.678 3.5212 1.26047 0
M  V30 1920 H 186.97 5.8566 3.406 0
M  V30 1921 H 187.913 6.74184 2.16521 0
M  V30 1922 H 188.321 5.04117 2.54019 0
M  V30 1923 N 187.719 -0.156864 1.56817 0
M  V30 1924 C 188.667 -1.21319 1.98455 0
M  V30 1925 C 189.661 -1.45025 0.875444 0
M  V30 1926 O 190.867 -1.45435 1.0606 0
M  V30 1927 H 187.242 -0.408142 0.631605 0
M  V30 1928 H 189.213 -0.835244 2.86472 0
M  V30 1929 C 187.962 -2.54148 2.37285 0
M  V30 1930 H 187.285 -2.36733 3.22176 0
M  V30 1931 H 188.725 -3.26712 2.70251 0
M  V30 1932 C 187.184 -3.13967 1.22173 0
M  V30 1933 O 187.714 -3.98357 0.517149 0
M  V30 1934 N 185.92 -2.7327 0.988536 0
M  V30 1935 H 185.467 -2.04744 1.56326 0
M  V30 1936 H 185.425 -3.13628 0.220209 0
M  V30 1937 N 189.197 -1.51736 -0.425897 0
M  V30 1938 C 190.107 -1.76738 -1.54275 0
M  V30 1939 C 191.123 -0.65211 -1.61318 0
M  V30 1940 O 192.299 -0.935654 -1.78346 0
M  V30 1941 C 189.364 -1.89755 -2.90162 0
M  V30 1942 C 188.425 -3.13633 -2.93143 0
M  V30 1943 C 187.658 -3.2602 -4.22548 0
M  V30 1944 O 187.881 -2.44067 -5.15546 0
M  V30 1945 O 186.815 -4.19071 -4.32046 0
M  V30 1946 H 190.641 -2.71502 -1.36089 0
M  V30 1947 H 188.226 -1.36376 -0.610069 0
M  V30 1948 H 190.108 -2.00236 -3.70788 0
M  V30 1949 H 188.783 -0.981785 -3.08452 0
M  V30 1950 H 187.69 -3.08622 -2.11431 0
M  V30 1951 H 189.023 -4.04936 -2.798 0
M  V30 1952 N 190.675 0.682077 -1.42076 0
M  V30 1953 C 191.638 1.77756 -1.44691 0
M  V30 1954 C 192.638 1.5726 -0.335535 0
M  V30 1955 O 193.828 1.63686 -0.596037 0
M  V30 1956 C 190.96 3.16301 -1.27146 0
M  V30 1957 H 192.153 1.76826 -2.42224 0
M  V30 1958 H 189.706 0.891012 -1.28416 0
M  V30 1959 H 190.441 3.22862 -0.305075 0
M  V30 1960 H 190.226 3.32581 -2.07683 0
M  V30 1961 H 191.716 3.96241 -1.31843 0
M  V30 1962 N 192.153 1.28127 0.917671 0
M  V30 1963 C 193.063 1.13556 2.05286 0
M  V30 1964 C 194.079 0.0630914 1.73886 0
M  V30 1965 O 195.255 0.271598 1.9956 0
M  V30 1966 C 192.32 0.794676 3.3747 0
M  V30 1967 C 191.381 1.94909 3.82504 0
M  V30 1968 C 190.614 1.62437 5.0838 0
M  V30 1969 O 190.837 0.536905 5.67867 0
M  V30 1970 O 189.771 2.46677 5.4903 0
M  V30 1971 H 193.597 2.08844 2.20495 0
M  V30 1972 H 191.182 1.07409 1.03845 0
M  V30 1973 H 193.064 0.618344 4.16839 0
M  V30 1974 H 191.739 -0.128581 3.23445 0
M  V30 1975 H 190.646 2.18055 3.03978 0
M  V30 1976 H 191.979 2.85291 4.01086 0
M  V30 1977 N 193.631 -1.12557 1.10312 0
M  V30 1978 C 195.047 -1.36036 0.834649 0
M  V30 1979 C 195.247 -1.93946 -0.546539 0
M  V30 1980 O 194.303 -2.16484 -1.29966 0
M  V30 1981 C 195.616 -2.30312 1.9333 0
M  V30 1982 C 197.164 -2.43906 1.9616 0
M  V30 1983 C 197.639 -3.41496 3.05195 0
M  V30 1984 N 199.13 -3.49053 3.04494 0
M  V30 1985 C 199.865 -4.24471 3.85502 0
M  V30 1986 N 199.361 -5.02966 4.76442 0
M  V30 1987 N 201.154 -4.19864 3.73725 0
M  V30 1988 H 193.305 -0.733246 1.99342 0
M  V30 1989 H 195.568 -0.385234 0.866198 0
M  V30 1990 H 195.274 -1.94933 2.92735 0
M  V30 1991 H 195.148 -3.30421 1.81939 0
M  V30 1992 H 197.535 -2.78567 0.973886 0
M  V30 1993 H 197.616 -1.4369 2.11629 0
M  V30 1994 H 197.26 -3.07565 4.04186 0
M  V30 1995 H 197.19 -4.41539 2.86968 0
M  V30 1996 H 199.681 -2.93053 2.38596 0
M  V30 1997 H 199.994 -5.57846 5.34815 0
M  V30 1998 H 198.339 -5.02167 4.80472 0
M  V30 1999 H 201.53 -3.57623 3.02032 0
M  V30 2000 H 201.703 -4.78386 4.37093 0
M  V30 2001 N 195.109 -0.891671 -1.2995 0
M  V30 2002 C 196.339 -0.527893 -1.99742 0
M  V30 2003 C 196.747 0.88979 -1.66971 0
M  V30 2004 O 196.09 1.59766 -0.906667 0
M  V30 2005 C 196.152 -0.630804 -3.53922 0
M  V30 2006 C 195.816 -2.01401 -4.10228 0
M  V30 2007 C 196.813 -2.98422 -4.25724 0
M  V30 2008 C 194.498 -2.32121 -4.45449 0
M  V30 2009 C 196.492 -4.24293 -4.75662 0
M  V30 2010 C 194.179 -3.58237 -4.95086 0
M  V30 2011 C 195.177 -4.54137 -5.10146 0
M  V30 2012 O 194.865 -5.78014 -5.58708 0
M  V30 2013 H 194.597 -0.201953 -0.645129 0
M  V30 2014 H 197.151 -1.20076 -1.66646 0
M  V30 2015 H 195.381 0.0990616 -3.86573 0
M  V30 2016 H 197.07 -0.277338 -4.04951 0
M  V30 2017 H 197.836 -2.76001 -3.98809 0
M  V30 2018 H 193.715 -1.5824 -4.32991 0
M  V30 2019 H 197.259 -4.99153 -4.87332 0
M  V30 2020 H 193.156 -3.80491 -5.21437 0
M  V30 2021 H 193.924 -5.8049 -5.77039 0
M  V30 2022 N 196.587 1.43421 -0.653314 0
M  V30 2023 C 197.497 2.34568 0.0388565 0
M  V30 2024 C 198.513 1.53888 0.81207 0
M  V30 2025 O 199.689 1.86539 0.759294 0
M  V30 2026 C 196.754 3.32167 0.993269 0
M  V30 2027 C 195.815 4.28751 0.216977 0
M  V30 2028 C 195.048 5.21688 1.12593 0
M  V30 2029 O 195.271 5.19052 2.36519 0
M  V30 2030 O 194.205 5.98919 0.598284 0
M  V30 2031 H 198.031 2.95251 -0.711386 0
M  V30 2032 H 195.616 1.43564 -0.413502 0
M  V30 2033 H 197.498 3.92183 1.54176 0
M  V30 2034 H 196.173 2.73987 1.72374 0
M  V30 2035 H 195.08 3.72215 -0.375101 0
M  V30 2036 H 196.413 4.89913 -0.473924 0
M  V30 2037 N 198.065 0.39524 1.52563 0
M  V30 2038 C 199.028 -0.425001 2.25225 0
M  V30 2039 C 200.028 -0.985266 1.27079 0
M  V30 2040 O 201.218 -0.866332 1.5113 0
M  V30 2041 C 198.35 -1.59686 3.01186 0
M  V30 2042 H 199.543 0.211233 2.99155 0
M  V30 2043 H 197.096 0.147472 1.55603 0
M  V30 2044 H 197.831 -2.27035 2.31572 0
M  V30 2045 H 197.616 -1.20176 3.73229 0
M  V30 2046 H 199.106 -2.17743 3.5634 0
M  V30 2047 N 199.544 -1.57102 0.125237 0
M  V30 2048 C 200.474 -2.18659 -0.819174 0
M  V30 2049 C 201.455 -1.12843 -1.27281 0
M  V30 2050 O 202.64 -1.41104 -1.33429 0
M  V30 2051 C 199.77 -2.79096 -2.06695 0
M  V30 2052 C 198.724 -3.90548 -1.75088 0
M  V30 2053 C 198.05 -4.37821 -3.06948 0
M  V30 2054 C 199.35 -5.12356 -1.01435 0
M  V30 2055 H 201.044 -2.9783 -0.306202 0
M  V30 2056 H 198.59 -1.4326 -0.145839 0
M  V30 2057 H 200.543 -3.2082 -2.73226 0
M  V30 2058 H 199.267 -1.97223 -2.60328 0
M  V30 2059 H 197.926 -3.49409 -1.10944 0
M  V30 2060 H 197.574 -3.52799 -3.58527 0
M  V30 2061 H 197.274 -5.12982 -2.86571 0
M  V30 2062 H 198.798 -4.822 -3.74587 0
M  V30 2063 H 200.212 -5.5106 -1.58132 0
M  V30 2064 H 198.609 -5.9314 -0.911319 0
M  V30 2065 H 199.679 -4.849 -0.00218681 0
M  V30 2066 N 201.022 0.148545 -1.56898 0
M  V30 2067 C 202.438 0.501131 -1.51528 0
M  V30 2068 C 202.638 1.83458 -0.833399 0
M  V30 2069 O 201.694 2.49259 -0.40328 0
M  V30 2070 C 203.007 0.512864 -2.96294 0
M  V30 2071 C 204.555 0.598487 -3.07225 0
M  V30 2072 C 205.03 0.640897 -4.53494 0
M  V30 2073 N 206.521 0.703163 -4.57832 0
M  V30 2074 C 207.256 0.756935 -5.68382 0
M  V30 2075 N 206.752 0.770147 -6.88506 0
M  V30 2076 N 208.545 0.797698 -5.56411 0
M  V30 2077 H 200.696 -0.725532 -1.99624 0
M  V30 2078 H 202.959 -0.264358 -0.910395 0
M  V30 2079 H 202.665 -0.398691 -3.49433 0
M  V30 2080 H 202.539 1.35133 -3.52163 0
M  V30 2081 H 204.926 1.50046 -2.54106 0
M  V30 2082 H 205.007 -0.267093 -2.54402 0
M  V30 2083 H 204.651 -0.256915 -5.0725 0
M  V30 2084 H 204.581 1.52295 -5.04097 0
M  V30 2085 H 207.072 0.700314 -3.71354 0
M  V30 2086 H 207.385 0.812983 -7.68512 0
M  V30 2087 H 205.73 0.738049 -6.9107 0
M  V30 2088 H 208.921 0.784535 -4.61479 0
M  V30 2089 H 209.094 0.83614 -6.42583 0
M  V30 2090 N 202.5 1.5196 0.417844 0
M  V30 2091 C 203.45 1.7106 1.5074 0
M  V30 2092 C 204.434 0.564487 1.50673 0
M  V30 2093 O 205.626 0.821206 1.56797 0
M  V30 2094 C 202.755 1.85677 2.88754 0
M  V30 2095 C 201.841 3.06133 2.93502 0
M  V30 2096 N 202.232 4.28987 2.67962 0
M  V30 2097 C 200.53 3.05787 3.24669 0
M  V30 2098 C 201.231 5.10395 2.79055 0
M  V30 2099 N 200.207 4.45455 3.11561 0
M  V30 2100 H 204.009 2.63696 1.29775 0
M  V30 2101 H 201.523 1.49873 0.625436 0
M  V30 2102 H 203.52 1.97475 3.67164 0
M  V30 2103 H 202.18 0.942348 3.10725 0
M  V30 2104 H 203.191 4.57607 2.4252 0
M  V30 2105 H 199.868 2.2405 3.52289 0
M  V30 2106 H 201.258 6.18247 2.63097 0
M  V30 2107 N 203.978 -0.674533 1.42435 0
M  V30 2108 C 205.218 -1.4466 1.44405 0
M  V30 2109 C 205.582 -1.91911 0.0585784 0
M  V30 2110 O 206.783 -2.68759 -0.0469991 0
M  V30 2111 C 205.054 -2.61136 2.44013 0
M  V30 2112 S 206.613 -3.49981 2.64687 0
M  V30 2113 H 203.431 -0.494074 0.511284 0
M  V30 2114 H 206.033 -0.785162 1.7904 0
M  V30 2115 H 204.737 -2.24662 3.43446 0
M  V30 2116 H 204.268 -3.32153 2.10803 0
M  V30 2117 H 206.283 -4.57124 1.93007 0
M  V30 2118 N 205.456 -1.28612 -0.910864 0
M  V30 2119 C 206.872 -1.06381 -1.18976 0
M  V30 2120 C 207.072 0.191998 -2.00583 0
M  V30 2121 O 206.128 0.892869 -2.36187 0
M  V30 2122 C 207.441 -2.31295 -1.92154 0
M  V30 2123 C 208.989 -2.36503 -2.05025 0
M  V30 2124 C 209.464 -3.61191 -2.81612 0
M  V30 2125 N 210.955 -3.61847 -2.89172 0
M  V30 2126 C 211.69 -4.55004 -3.4894 0
M  V30 2127 N 211.186 -5.58482 -4.09963 0
M  V30 2128 N 212.979 -4.42594 -3.46506 0
M  V30 2129 H 205.13 -2.09221 -0.366094 0
M  V30 2130 H 207.393 -0.921003 -0.224629 0
M  V30 2131 H 207.099 -3.228 -1.39618 0
M  V30 2132 H 206.973 -2.37934 -2.9269 0
M  V30 2133 H 209.36 -1.45494 -2.5674 0
M  V30 2134 H 209.441 -2.33857 -1.03657 0
M  V30 2135 H 209.085 -4.52545 -2.30576 0
M  V30 2136 H 209.015 -3.61092 -3.83302 0
M  V30 2137 H 211.506 -2.87022 -2.45819 0
M  V30 2138 H 211.819 -6.25704 -4.53557 0
M  V30 2139 H 210.164 -5.62305 -4.08459 0
M  V30 2140 H 213.355 -3.60953 -2.98045 0
M  V30 2141 H 213.528 -5.15381 -3.92793 0
M  V30 2142 N 206.934 1.1197 -1.10907 0
M  V30 2143 C 208.164 1.8713 -0.875553 0
M  V30 2144 C 208.572 1.8016 0.577843 0
M  V30 2145 O 207.915 1.17699 1.41042 0
M  V30 2146 C 207.977 3.37005 -1.2517 0
M  V30 2147 C 207.641 3.67748 -2.71313 0
M  V30 2148 C 208.638 3.65698 -3.69542 0
M  V30 2149 C 206.323 3.96928 -3.07821 0
M  V30 2150 C 208.317 3.92395 -5.023 0
M  V30 2151 C 206.004 4.23284 -4.40765 0
M  V30 2152 C 207.002 4.21005 -5.37814 0
M  V30 2153 O 206.69 4.46704 -6.68364 0
M  V30 2154 H 206.422 0.598786 -0.313737 0
M  V30 2155 H 208.976 1.42568 -1.47863 0
M  V30 2156 H 207.206 3.82146 -0.591741 0
M  V30 2157 H 208.895 3.93519 -0.994877 0
M  V30 2158 H 209.661 3.43211 -3.42682 0
M  V30 2159 H 205.54 3.97841 -2.32902 0
M  V30 2160 H 209.084 3.90531 -5.78041 0
M  V30 2161 H 204.981 4.45246 -4.67361 0
M  V30 2162 H 205.749 4.64299 -6.74069 0
M  V30 2163 N 208.412 0.89855 1.29475 0
M  V30 2164 C 209.658 0.524658 1.95896 0
M  V30 2165 C 209.991 -0.926468 1.70676 0
M  V30 2166 O 209.266 -1.65665 1.01908 0
M  V30 2167 C 209.549 0.81633 3.50725 0
M  V30 2168 C 209.402 2.31907 3.85408 0
M  V30 2169 C 210.721 0.302038 4.39062 0
M  V30 2170 H 207.84 0.19209 0.711527 0
M  V30 2171 H 210.482 1.12502 1.53112 0
M  V30 2172 H 208.632 0.305369 3.87298 0
M  V30 2173 H 210.304 2.89949 3.58786 0
M  V30 2174 H 208.547 2.78027 3.32992 0
M  V30 2175 H 209.218 2.47373 4.93468 0
M  V30 2176 H 211.694 0.739551 4.09475 0
M  V30 2177 H 210.57 0.535331 5.46283 0
M  V30 2178 H 210.831 -0.797216 4.34853 0
M  V30 2179 N 209.89 -1.43072 0.660911 0
M  V30 2180 C 211.167 -1.95307 0.107017 0
M  V30 2181 C 211.547 -1.60192 -1.37484 0
M  V30 2182 O 210.895 -0.890949 -2.10415 0
M  V30 2183 C 211.105 -3.47124 0.361402 0
M  V30 2184 C 212.453 -4.23738 0.270455 0
M  V30 2185 O 213.477 -3.54981 0.294382 0
M  V30 2186 O 212.336 -5.46131 0.200737 0
M  V30 2187 H 209.43 -0.826984 -0.00517729 0
M  V30 2188 H 211.976 -1.52972 0.734681 0
M  V30 2189 H 210.748 -3.65837 1.38848 0
M  V30 2190 H 210.371 -3.96475 -0.298953 0
M  V30 2191 N 211.368 -0.403325 -1.52352 0
M  V30 2192 C 212.278 0.432009 -2.30588 0
M  V30 2193 C 213.294 1.05884 -1.38075 0
M  V30 2194 O 214.47 1.06161 -1.71148 0
M  V30 2195 C 211.535 1.53669 -3.10784 0
M  V30 2196 C 210.596 0.933525 -4.19027 0
M  V30 2197 C 209.829 1.98557 -4.9539 0
M  V30 2198 O 210.052 3.20283 -4.71991 0
M  V30 2199 O 208.986 1.59504 -5.80381 0
M  V30 2200 H 212.812 -0.205739 -3.03002 0
M  V30 2201 H 210.397 -0.166675 -1.48467 0
M  V30 2202 H 212.279 2.17814 -3.60742 0
M  V30 2203 H 210.954 2.15915 -2.41169 0
M  V30 2204 H 209.861 0.254954 -3.7323 0
M  V30 2205 H 211.194 0.35508 -4.90918 0
M  V30 2206 N 212.846 1.57033 -0.133567 0
M  V30 2207 C 214.092 1.95976 0.521649 0
M  V30 2208 C 214.425 1.01779 1.65393 0
M  V30 2209 O 213.7 0.0576581 1.94415 0
M  V30 2210 C 213.983 3.44738 1.04057 0
M  V30 2211 C 213.836 4.49711 -0.0892897 0
M  V30 2212 C 215.155 3.95682 1.92675 0
M  V30 2213 H 212.274 0.712579 0.188149 0
M  V30 2214 H 214.916 1.88813 -0.212076 0
M  V30 2215 H 213.066 3.50973 1.66583 0
M  V30 2216 H 214.738 4.55565 -0.725152 0
M  V30 2217 H 212.981 4.27261 -0.750378 0
M  V30 2218 H 213.652 5.51099 0.315284 0
M  V30 2219 H 216.128 3.91841 1.39998 0
M  V30 2220 H 215.004 5.00262 2.25897 0
M  V30 2221 H 215.265 3.37239 2.85872 0
M  V30 2222 N 214.325 -0.140222 1.56975 0
M  V30 2223 C 215.574 -0.850152 1.82908 0
M  V30 2224 C 215.887 -1.82028 0.715892 0
M  V30 2225 O 217.093 -2.57485 0.861016 0
M  V30 2226 C 215.549 -1.5625 3.24213 0
M  V30 2227 C 215.157 -0.63443 4.43485 0
M  V30 2228 C 216.901 -2.25881 3.59413 0
M  V30 2229 C 214.808 -1.34879 5.75814 0
M  V30 2230 H 213.738 -0.321221 0.682153 0
M  V30 2231 H 216.389 -0.102874 1.83211 0
M  V30 2232 H 214.771 -2.35565 3.18316 0
M  V30 2233 H 215.945 0.12398 4.60633 0
M  V30 2234 H 214.26 -0.0461836 4.16374 0
M  V30 2235 H 216.857 -2.79978 4.5554 0
M  V30 2236 H 217.2 -3.02693 2.85802 0
M  V30 2237 H 217.733 -1.53477 3.67001 0
M  V30 2238 H 214.472 -0.622385 6.52539 0
M  V30 2239 H 213.992 -2.07974 5.6259 0
M  V30 2240 H 215.671 -1.88784 6.18845 0
M  V30 2241 N 215.803 -1.52179 -0.40978 0
M  V30 2242 C 217.219 -1.40968 -0.74835 0
M  V30 2243 C 217.419 -0.513657 -1.94843 0
M  V30 2244 O 216.475 0.0208026 -2.52491 0
M  V30 2245 C 217.788 -2.83483 -1.0029 0
M  V30 2246 C 219.336 -2.92821 -1.10565 0
M  V30 2247 C 219.811 -4.36303 -1.39296 0
M  V30 2248 N 221.302 -4.39535 -1.46162 0
M  V30 2249 C 222.037 -5.47614 -1.70018 0
M  V30 2250 N 221.533 -6.65812 -1.91483 0
M  V30 2251 N 223.326 -5.35129 -1.72027 0
M  V30 2252 H 215.477 -2.0897 0.380186 0
M  V30 2253 H 217.74 -0.94185 0.107805 0
M  V30 2254 H 217.446 -3.51168 -0.193461 0
M  V30 2255 H 217.32 -3.24487 -1.92323 0
M  V30 2256 H 219.707 -2.25318 -1.90568 0
M  V30 2257 H 219.788 -2.55276 -0.16369 0
M  V30 2258 H 219.432 -5.04366 -0.598109 0
M  V30 2259 H 219.362 -4.71385 -2.34743 0
M  V30 2260 H 221.853 -3.54332 -1.31367 0
M  V30 2261 H 222.166 -7.43964 -2.09134 0
M  V30 2262 H 220.511 -6.68879 -1.88749 0
M  V30 2263 H 223.702 -4.41764 -1.54796 0
M  V30 2264 H 223.875 -6.19433 -1.9028 0
M  V30 2265 N 217.281 0.66697 -1.42791 0
M  V30 2266 C 218.558 1.4234 -1.34159 0
M  V30 2267 C 218.938 2.11093 0.0172729 0
M  V30 2268 O 218.286 2.03808 1.03318 0
M  V30 2269 C 218.496 2.41942 -2.51526 0
M  V30 2270 C 219.844 3.06353 -2.93995 0
M  V30 2271 O 220.868 2.52269 -2.51473 0
M  V30 2272 O 219.727 4.04376 -3.67617 0
M  V30 2273 H 216.821 0.635277 -0.529483 0
M  V30 2274 H 219.367 0.695034 -1.54814 0
M  V30 2275 H 218.139 1.89991 -3.42081 0
M  V30 2276 H 217.762 3.22249 -2.32898 0
M  V30 2277 N 218.759 1.29093 0.90403 0
M  V30 2278 C 219.722 1.1386 1.98919 0
M  V30 2279 C 220.722 0.0753457 1.60623 0
M  V30 2280 O 221.912 0.321931 1.71199 0
M  V30 2281 C 219.044 0.740198 3.32767 0
M  V30 2282 H 220.237 2.10246 2.13861 0
M  V30 2283 H 217.79 1.12218 1.08797 0
M  V30 2284 H 218.525 -0.223997 3.23525 0
M  V30 2285 H 218.31 1.50838 3.61926 0
M  V30 2286 H 219.8 0.656546 4.12407 0
M  V30 2287 N 220.237 -1.11381 1.11499 0
M  V30 2288 C 221.648 -1.6465 0.880191 0
M  V30 2289 C 221.999 -1.87199 -0.587434 0
M  V30 2290 O 221.124 -1.60667 -1.44966 0
M  V30 2291 C 221.719 -2.99105 1.59128 0
M  V30 2292 C 220.278 -3.49279 1.40289 0
M  V30 2293 C 219.425 -2.24077 1.63354 0
M  V30 2294 H 222.376 -0.950123 1.27116 0
M  V30 2295 H 222.397 -3.66107 1.03664 0
M  V30 2296 H 221.909 -2.82661 2.65941 0
M  V30 2297 H 220.01 -3.70887 0.356888 0
M  V30 2298 H 220.123 -4.2803 2.15238 0
M  V30 2299 H 218.487 -2.31733 1.05698 0
M  V30 2300 H 219.27 -2.10175 2.71443 0
M  V30 2301 N 221.715 -0.905404 -1.28997 0
M  V30 2302 C 222.961 -0.544465 -1.95977 0
M  V30 2303 C 223.316 0.90041 -1.70031 0
M  V30 2304 O 222.609 1.63064 -1.00601 0
M  V30 2305 C 222.803 -0.779906 -3.48787 0
M  V30 2306 C 222.632 -2.24612 -3.89589 0
M  V30 2307 C 221.402 -2.89464 -4.14172 0
M  V30 2308 C 223.6 -3.22182 -4.00878 0
M  V30 2309 N 221.582 -4.26469 -4.41585 0
M  V30 2310 C 222.953 -4.44323 -4.32409 0
M  V30 2311 C 225.008 -3.17694 -3.83373 0
M  V30 2312 C 223.711 -5.62546 -4.48258 0
M  V30 2313 C 225.737 -4.35208 -4.00435 0
M  V30 2314 C 225.099 -5.56121 -4.3233 0
M  V30 2315 H 221.198 -0.248948 -0.741316 0
M  V30 2316 H 223.782 -1.1674 -1.5582 0
M  V30 2317 H 221.953 -0.186308 -3.87953 0
M  V30 2318 H 223.685 -0.383833 -4.02876 0
M  V30 2319 H 220.44 -2.40232 -4.08149 0
M  V30 2320 H 220.864 -4.97283 -4.5939 0
M  V30 2321 H 225.506 -2.25297 -3.57773 0
M  V30 2322 H 223.224 -6.55429 -4.72692 0
M  V30 2323 H 226.81 -4.33228 -3.88336 0
M  V30 2324 H 225.69 -6.45537 -4.45255 0
M  V30 2325 N 223.193 1.4272 -0.668489 0
M  V30 2326 C 224.421 2.05966 -0.196348 0
M  V30 2327 C 224.836 1.50191 1.14403 0
M  V30 2328 O 224.193 0.639208 1.7094 0
M  V30 2329 C 224.244 3.61314 -0.115815 0
M  V30 2330 O 223.965 4.1502 -1.40322 0
M  V30 2331 C 225.466 4.41663 0.380579 0
M  V30 2332 H 222.686 0.663954 -0.0969829 0
M  V30 2333 H 225.23 1.82966 -0.913446 0
M  V30 2334 H 223.385 3.83448 0.551931 0
M  V30 2335 H 223.799 5.08832 -1.27243 0
M  V30 2336 H 225.273 5.5065 0.385848 0
M  V30 2337 H 225.75 4.15792 1.41471 0
M  V30 2338 H 226.356 4.24534 -0.255209 0
M  V30 2339 N 224.671 0.411399 1.52136 0
M  V30 2340 C 225.601 -0.404015 2.29978 0
M  V30 2341 C 226.582 -1.04412 1.34284 0
M  V30 2342 O 227.767 -1.0527 1.63192 0
M  V30 2343 C 224.897 -1.5197 3.12286 0
M  V30 2344 C 223.851 -1.00448 4.16046 0
M  V30 2345 C 223.177 -2.21393 4.86712 0
M  V30 2346 C 224.477 -0.0569336 5.22269 0
M  V30 2347 H 226.171 0.245529 2.98392 0
M  V30 2348 H 223.717 0.119525 1.43503 0
M  V30 2349 H 225.67 -2.09715 3.6551 0
M  V30 2350 H 224.394 -2.19716 2.41646 0
M  V30 2351 H 223.053 -0.449421 3.63835 0
M  V30 2352 H 222.701 -2.87699 4.12599 0
M  V30 2353 H 222.401 -1.87571 5.56858 0
M  V30 2354 H 223.925 -2.7974 5.4275 0
M  V30 2355 H 225.339 -0.54325 5.7072 0
M  V30 2356 H 223.736 0.192594 5.99791 0
M  V30 2357 H 224.806 0.887663 4.76706 0
M  V30 2358 N 226.149 -1.5696 0.141893 0
M  V30 2359 C 227.377 -2.00322 -0.517579 0
M  V30 2360 C 227.792 -1.02193 -1.58752 0
M  V30 2361 O 227.149 -0.0181619 -1.82491 0
M  V30 2362 C 227.2 -3.43618 -1.12289 0
M  V30 2363 O 226.921 -4.37995 -0.0956929 0
M  V30 2364 C 228.422 -4.02231 -1.86347 0
M  V30 2365 H 225.642 -0.657243 -0.135177 0
M  V30 2366 H 228.186 -2.03146 0.234973 0
M  V30 2367 H 226.341 -3.41662 -1.82609 0
M  V30 2368 H 226.755 -5.21729 -0.538469 0
M  V30 2369 H 228.229 -5.04509 -2.23997 0
M  V30 2370 H 228.706 -3.42655 -2.74744 0
M  V30 2371 H 229.312 -4.07802 -1.20737 0
M  V30 2372 N 227.627 0.131896 -1.57047 0
M  V30 2373 C 229.038 0.690407 -1.73465 0
M  V30 2374 C 229.389 1.8094 -0.758629 0
M  V30 2375 O 228.514 2.16282 0.0713813 0
M  V30 2376 C 229.109 1.25916 -3.14532 0
M  V30 2377 C 227.668 1.76409 -3.32501 0
M  V30 2378 C 226.815 0.658579 -2.69366 0
M  V30 2379 H 229.766 -0.0939144 -1.58422 0
M  V30 2380 H 229.787 2.12892 -3.15369 0
M  V30 2381 H 229.299 0.444515 -3.85546 0
M  V30 2382 H 227.4 2.60391 -2.66509 0
M  V30 2383 H 227.513 1.88241 -4.4057 0
M  V30 2384 H 225.877 1.08899 -2.30246 0
M  V30 2385 H 226.66 -0.14487 -3.42994 0
M  V30 2386 N 229.106 1.52395 0.401703 0
M  V30 2387 C 230.016 1.7917 1.51444 0
M  V30 2388 C 231.032 0.677691 1.6026 0
M  V30 2389 O 232.208 0.963909 1.76835 0
M  V30 2390 C 229.273 1.94347 2.87107 0
M  V30 2391 C 228.334 3.18257 2.88116 0
M  V30 2392 C 227.567 3.32701 4.17308 0
M  V30 2393 O 227.79 2.52238 5.11598 0
M  V30 2394 O 226.724 4.25891 4.25324 0
M  V30 2395 H 230.55 2.73633 1.31752 0
M  V30 2396 H 228.135 1.3733 0.588296 0
M  V30 2397 H 230.017 2.06109 3.67555 0
M  V30 2398 H 228.692 1.03073 3.06851 0
M  V30 2399 H 227.599 3.11947 2.06494 0
M  V30 2400 H 228.932 4.09336 2.73322 0
M  V30 2401 N 230.584 -0.659388 1.43143 0
M  V30 2402 C 231.831 -1.41935 1.44433 0
M  V30 2403 C 232.159 -1.94387 0.0663522 0
M  V30 2404 O 231.414 -1.72314 -0.927706 0
M  V30 2405 C 231.713 -2.62206 2.42864 0
M  V30 2406 C 231.379 -2.28208 3.88886 0
M  V30 2407 C 230.041 -2.18647 4.28657 0
M  V30 2408 C 232.393 -2.00887 4.8093 0
M  V30 2409 C 229.721 -1.79914 5.58433 0
M  V30 2410 C 232.073 -1.63653 6.11065 0
M  V30 2411 C 230.737 -1.52614 6.49819 0
M  V30 2412 H 230.007 -0.519376 0.528517 0
M  V30 2413 H 232.654 -0.750453 1.76183 0
M  V30 2414 H 230.959 -3.34199 2.04495 0
M  V30 2415 H 232.656 -3.2041 2.41119 0
M  V30 2416 H 229.246 -2.36557 3.57406 0
M  V30 2417 H 233.43 -2.07198 4.5098 0
M  V30 2418 H 228.686 -1.69948 5.87305 0
M  V30 2419 H 232.86 -1.41543 6.81864 0
M  V30 2420 H 230.487 -1.22371 7.50286 0
M  V30 2421 N 232.062 -1.29571 -0.897171 0
M  V30 2422 C 232.992 -1.17473 -2.01798 0
M  V30 2423 C 233.973 -0.068323 -1.69963 0
M  V30 2424 O 235.158 -0.248239 -1.92607 0
M  V30 2425 C 232.288 -0.853099 -3.36659 0
M  V30 2426 C 231.242 -1.9161 -3.82713 0
M  V30 2427 C 230.568 -1.44773 -5.14728 0
M  V30 2428 C 231.868 -3.32535 -4.02763 0
M  V30 2429 H 233.562 -2.11237 -2.12177 0
M  V30 2430 H 231.108 -1.01699 -1.01948 0
M  V30 2431 H 233.061 -0.755165 -4.14578 0
M  V30 2432 H 231.785 0.120236 -3.26379 0
M  V30 2433 H 230.444 -2.00346 -3.07013 0
M  V30 2434 H 230.092 -0.462995 -5.00865 0
M  V30 2435 H 229.792 -2.15865 -5.46513 0
M  V30 2436 H 231.316 -1.36334 -5.95185 0
M  V30 2437 H 232.73 -3.26626 -4.71156 0
M  V30 2438 H 231.127 -4.01607 -4.45905 0
M  V30 2439 H 232.197 -3.75326 -3.07016 0
M  V30 2440 N 233.54 1.10788 -1.12088 0
M  V30 2441 C 234.45 2.20599 -0.798338 0
M  V30 2442 C 235.466 1.72712 0.21135 0
M  V30 2443 O 236.642 2.01348 0.0458477 0
M  V30 2444 C 233.707 3.45771 -0.253674 0
M  V30 2445 C 232.768 4.08411 -1.32283 0
M  V30 2446 C 232.001 5.27608 -0.80406 0
M  V30 2447 O 232.224 5.69241 0.363478 0
M  V30 2448 O 231.158 5.8101 -1.57198 0
M  V30 2449 H 234.984 2.50614 -1.7154 0
M  V30 2450 H 232.569 1.19454 -0.897275 0
M  V30 2451 H 234.451 4.21376 0.0453691 0
M  V30 2452 H 233.126 3.1739 0.636005 0
M  V30 2453 H 232.033 3.34507 -1.67499 0
M  V30 2454 H 233.366 4.40986 -2.18614 0
M  V30 2455 N 235.018 0.912232 1.28515 0
M  V30 2456 C 235.965 0.397954 2.27343 0
M  V30 2457 C 236.935 -0.526766 1.57526 0
M  V30 2458 O 238.12 -0.449292 1.85435 0
M  V30 2459 C 235.26 -0.357263 3.43246 0
M  V30 2460 C 234.373 0.599788 4.27816 0
M  V30 2461 C 233.508 -0.173725 5.30916 0
M  V30 2462 C 232.547 0.777039 6.07148 0
M  V30 2463 N 231.684 0.0371398 7.0209 0
M  V30 2464 H 236.524 1.24577 2.70711 0
M  V30 2465 H 234.061 0.625612 1.33133 0
M  V30 2466 H 236.019 -0.8113 4.09236 0
M  V30 2467 H 234.649 -1.16943 3.00872 0
M  V30 2468 H 233.701 1.17235 3.61884 0
M  V30 2469 H 235.013 1.32704 4.80823 0
M  V30 2470 H 234.167 -0.688394 6.02782 0
M  V30 2471 H 232.906 -0.934041 4.78672 0
M  V30 2472 H 231.911 1.3031 5.34134 0
M  V30 2473 H 233.136 1.53689 6.61481 0
M  V30 2474 H 231.082 -0.705213 6.52198 0
M  V30 2475 H 230.999 0.704249 7.52713 0
M  V30 2476 H 232.267 -0.457383 7.78157 0
M  V30 2477 N 236.496 -1.42363 0.676048 0
M  V30 2478 C 237.446 -2.27987 -0.0242903 0
M  V30 2479 C 238.43 -1.41153 -0.772319 0
M  V30 2480 O 239.622 -1.64592 -0.651025 0
M  V30 2481 C 236.751 -3.29195 -0.973953 0
M  V30 2482 C 235.837 -4.23512 -0.223202 0
M  V30 2483 N 236.228 -4.99865 0.772589 0
M  V30 2484 C 234.526 -4.43606 -0.461469 0
M  V30 2485 C 235.227 -5.68757 1.22027 0
M  V30 2486 N 234.203 -5.40811 0.549975 0
M  V30 2487 H 238.005 -2.84445 0.73949 0
M  V30 2488 H 235.519 -1.54341 0.50522 0
M  V30 2489 H 237.516 -3.89339 -1.49067 0
M  V30 2490 H 236.176 -2.74298 -1.73755 0
M  V30 2491 H 237.187 -5.04921 1.15217 0
M  V30 2492 H 233.864 -3.99749 -1.20446 0
M  V30 2493 H 235.254 -6.40007 2.0455 0
M  V30 2494 N 237.974 -0.419461 -1.51915 0
M  V30 2495 C 238.921 0.400927 -2.27291 0
M  V30 2496 C 239.891 1.03224 -1.30131 0
M  V30 2497 O 241.076 1.05455 -1.59009 0
M  V30 2498 C 238.216 1.50603 -3.10504 0
M  V30 2499 C 237.329 0.89462 -4.22635 0
M  V30 2500 C 236.464 1.97328 -4.93189 0
M  V30 2501 C 235.503 1.33935 -5.97267 0
M  V30 2502 N 234.64 2.3586 -6.61298 0
M  V30 2503 H 239.48 -0.248251 -2.96964 0
M  V30 2504 H 237.017 -0.134266 -1.46486 0
M  V30 2505 H 238.975 2.15783 -3.57062 0
M  V30 2506 H 237.605 2.12509 -2.42981 0
M  V30 2507 H 236.657 0.131583 -3.80172 0
M  V30 2508 H 237.969 0.391641 -4.9726 0
M  V30 2509 H 237.123 2.70211 -5.43204 0
M  V30 2510 H 235.862 2.50994 -4.18155 0
M  V30 2511 H 234.867 0.595896 -5.46561 0
M  V30 2512 H 236.092 0.810252 -6.74249 0
M  V30 2513 H 234.038 2.88639 -5.89087 0
M  V30 2514 H 233.955 1.90403 -7.3163 0
M  V30 2515 H 235.223 3.08282 -7.15949 0
M  V30 2516 N 239.452 1.56882 -0.150215 0
M  V30 2517 C 240.701 1.95403 0.500071 0
M  V30 2518 C 241.014 1.03777 1.658 0
M  V30 2519 O 242.22 1.31889 2.37313 0
M  V30 2520 C 240.676 3.4738 0.941018 0
M  V30 2521 C 240.284 4.47596 -0.190158 0
M  V30 2522 C 242.028 3.9476 1.56091 0
M  V30 2523 C 239.935 5.90787 0.269237 0
M  V30 2524 H 238.865 0.729515 0.190588 0
M  V30 2525 H 241.516 1.81988 -0.235074 0
M  V30 2526 H 239.898 3.56138 1.73152 0
M  V30 2527 H 241.072 4.50536 -0.967157 0
M  V30 2528 H 239.387 4.10151 -0.718666 0
M  V30 2529 H 241.984 4.99181 1.9163 0
M  V30 2530 H 242.327 3.36494 2.45107 0
M  V30 2531 H 242.86 3.88932 0.835249 0
M  V30 2532 H 239.599 6.52879 -0.585621 0
M  V30 2533 H 239.119 5.912 1.01204 0
M  V30 2534 H 240.798 6.42979 0.720176 0
M  V30 2535 N 240.93 -0.123565 1.57115 0
M  V30 2536 C 242.207 -0.862196 1.75572 0
M  V30 2537 C 242.587 -1.98279 0.724475 0
M  V30 2538 O 241.935 -2.27102 -0.252407 0
M  V30 2539 C 242.145 -1.38309 3.20424 0
M  V30 2540 C 243.493 -1.83724 3.82793 0
M  V30 2541 O 244.517 -1.47999 3.23998 0
M  V30 2542 O 243.376 -2.49685 4.86127 0
M  V30 2543 H 240.47 -0.409113 0.718718 0
M  V30 2544 H 243.016 -0.107661 1.69358 0
M  V30 2545 H 241.788 -0.578889 3.86994 0
M  V30 2546 H 241.411 -2.20046 3.31158 0
M  V30 2547 N 242.408 -1.52605 -0.393616 0
M  V30 2548 C 243.655 -1.67424 -1.1391 0
M  V30 2549 C 243.983 -0.411859 -1.90089 0
M  V30 2550 O 243.238 0.605626 -1.86093 0
M  V30 2551 C 243.537 -2.85721 -2.14705 0
M  V30 2552 C 243.203 -4.23342 -1.55218 0
M  V30 2553 C 241.865 -4.60771 -1.3872 0
M  V30 2554 C 244.217 -5.09041 -1.11924 0
M  V30 2555 C 241.545 -5.81563 -0.774689 0
M  V30 2556 C 243.897 -6.30452 -0.520853 0
M  V30 2557 C 242.561 -6.66617 -0.343134 0
M  V30 2558 H 241.831 -0.612648 -0.416826 0
M  V30 2559 H 244.478 -1.8674 -0.424315 0
M  V30 2560 H 242.783 -2.60803 -2.92385 0
M  V30 2561 H 244.48 -2.94382 -2.72288 0
M  V30 2562 H 241.07 -3.93855 -1.69045 0
M  V30 2563 H 245.254 -4.80695 -1.23473 0
M  V30 2564 H 240.51 -6.08196 -0.625154 0
M  V30 2565 H 244.684 -6.96175 -0.177065 0
M  V30 2566 H 242.311 -7.60083 0.133571 0
M  V30 2567 N 243.887 0.651787 -1.4349 0
M  V30 2568 C 245.133 1.41376 -1.45398 0
M  V30 2569 C 245.466 1.94041 -0.0784823 0
M  V30 2570 O 244.741 1.72379 0.900878 0
M  V30 2571 C 245.024 2.59414 -2.49752 0
M  V30 2572 C 244.877 2.12232 -3.96582 0
M  V30 2573 C 246.196 3.61626 -2.50827 0
M  V30 2574 H 243.315 0.512719 -0.529422 0
M  V30 2575 H 245.957 0.738796 -1.75048 0
M  V30 2576 H 244.107 3.16997 -2.246 0
M  V30 2577 H 245.779 1.59639 -4.32797 0
M  V30 2578 H 244.022 1.43592 -4.09346 0
M  V30 2579 H 244.693 2.9712 -4.65214 0
M  V30 2580 H 247.169 3.13805 -2.7325 0
M  V30 2581 H 246.045 4.41766 -3.25783 0
M  V30 2582 H 246.306 4.14314 -1.5426 0
M  V30 2583 N 245.365 1.30045 0.890287 0
M  V30 2584 C 246.328 1.15963 1.977 0
M  V30 2585 C 247.328 0.0923777 1.60534 0
M  V30 2586 O 248.518 0.340071 1.70848 0
M  V30 2587 C 245.65 0.775451 3.31963 0
M  V30 2588 H 246.843 2.12502 2.11619 0
M  V30 2589 H 244.396 1.13366 1.07601 0
M  V30 2590 H 245.131 -0.189671 3.23745 0
M  V30 2591 H 244.916 1.54668 3.60306 0
M  V30 2592 H 246.406 0.700251 4.11687 0
M  V30 2593 N 246.843 -1.10192 1.12674 0
M  V30 2594 C 247.793 -2.14754 0.765801 0
M  V30 2595 C 248.777 -1.59154 -0.236409 0
M  V30 2596 O 249.969 -1.76951 -0.0415261 0
M  V30 2597 C 247.098 -3.42563 0.224827 0
M  V30 2598 C 246.184 -4.05091 1.25548 0
M  V30 2599 N 246.575 -4.42287 2.4539 0
M  V30 2600 C 244.873 -4.32186 1.10142 0
M  V30 2601 C 245.574 -4.91441 3.11224 0
M  V30 2602 N 244.55 -4.88405 2.38666 0
M  V30 2603 H 248.352 -2.41309 1.67772 0
M  V30 2604 H 245.866 -1.27339 1.00789 0
M  V30 2605 H 247.863 -4.16868 -0.0519578 0
M  V30 2606 H 246.523 -3.17467 -0.681515 0
M  V30 2607 H 247.534 -4.33902 2.82754 0
M  V30 2608 H 244.211 -4.16735 0.252587 0
M  V30 2609 H 245.601 -5.29749 4.13298 0
M  V30 2610 N 248.321 -0.919034 -1.28029 0
M  V30 2611 C 249.598 -0.473668 -1.89778 0
M  V30 2612 C 249.978 1.04783 -1.83259 0
M  V30 2613 O 249.326 1.8982 -1.27202 0
M  V30 2614 C 249.536 -1.00998 -3.34066 0
M  V30 2615 C 250.884 -1.06525 -4.1102 0
M  V30 2616 O 251.908 -0.958996 -3.43048 0
M  V30 2617 O 250.767 -1.22776 -5.3253 0
M  V30 2618 H 247.861 -0.15098 -0.813101 0
M  V30 2619 H 250.407 -1.01016 -1.36359 0
M  V30 2620 H 249.179 -2.05392 -3.33061 0
M  V30 2621 H 248.802 -0.454626 -3.94992 0
M  V30 2622 N 249.799 1.42003 -0.683588 0
M  V30 2623 C 251.076 1.95112 -0.138075 0
M  V30 2624 C 251.456 1.62359 1.34918 0
M  V30 2625 O 250.804 0.924311 2.08971 0
M  V30 2626 C 251.014 3.46505 -0.416581 0
M  V30 2627 C 252.362 4.23254 -0.337834 0
M  V30 2628 O 253.386 3.54468 -0.35082 0
M  V30 2629 O 252.245 5.45743 -0.287596 0
M  V30 2630 H 249.339 0.826961 -0.00797996 0
M  V30 2631 H 251.885 1.51784 -0.758924 0
M  V30 2632 H 250.657 3.63582 -1.4465 0
M  V30 2633 H 250.28 3.969 0.235839 0
M  V30 2634 N 251.277 0.427512 1.51691 0
M  V30 2635 C 252.526 -0.143679 2.01188 0
M  V30 2636 C 252.839 -1.44642 1.31674 0
M  V30 2637 O 254.045 -2.09997 1.72086 0
M  V30 2638 C 252.501 -0.306602 3.58592 0
M  V30 2639 C 252.109 0.985125 4.37035 0
M  V30 2640 C 253.853 -0.832091 4.16265 0
M  V30 2641 C 251.76 0.788382 5.86122 0
M  V30 2642 H 250.69 -0.0574701 0.751807 0
M  V30 2643 H 253.341 0.555772 1.74881 0
M  V30 2644 H 251.723 -1.06882 3.81303 0
M  V30 2645 H 252.897 1.75492 4.26074 0
M  V30 2646 H 251.212 1.4384 3.90767 0
M  V30 2647 H 253.809 -0.995617 5.25349 0
M  V30 2648 H 254.152 -1.81186 3.74803 0
M  V30 2649 H 254.685 -0.128444 3.97593 0
M  V30 2650 H 251.424 1.74025 6.31978 0
M  V30 2651 H 250.944 0.0582143 5.99772 0
M  V30 2652 H 252.623 0.437722 6.45518 0
M  V30 2653 N 252.755 -1.56801 0.158532 0
M  V30 2654 C 254.166 -1.83189 -0.360366 0
M  V30 2655 C 254.517 -1.07778 -1.63946 0
M  V30 2656 O 253.642 -0.326718 -2.13919 0
M  V30 2657 C 254.237 -3.32297 -0.660595 0
M  V30 2658 C 252.796 -3.59227 -1.12398 0
M  V30 2659 C 251.943 -2.76877 -0.153097 0
M  V30 2660 H 254.894 -1.54008 0.383031 0
M  V30 2661 H 254.915 -3.4908 -1.51405 0
M  V30 2662 H 254.427 -3.87156 0.270527 0
M  V30 2663 H 252.528 -3.09766 -2.07064 0
M  V30 2664 H 252.641 -4.67632 -1.04197 0
M  V30 2665 H 251.005 -2.46319 -0.647983 0
M  V30 2666 H 251.788 -3.34511 0.77182 0
M  V30 2667 N 254.233 0.115231 -1.57178 0
M  V30 2668 C 255.463 0.835224 -1.88964 0
M  V30 2669 C 255.871 1.73774 -0.74829 0
M  V30 2670 O 255.214 1.81401 0.289739 0
M  V30 2671 C 255.276 1.7178 -3.15804 0
M  V30 2672 C 254.94 0.989198 -4.46166 0
M  V30 2673 C 255.937 0.328263 -5.18863 0
M  V30 2674 C 253.622 0.969256 -4.9286 0
M  V30 2675 C 255.616 -0.342873 -6.36477 0
M  V30 2676 C 253.303 0.294324 -6.10391 0
M  V30 2677 C 254.301 -0.360582 -6.82048 0
M  V30 2678 O 253.989 -1.02474 -7.97342 0
M  V30 2679 H 253.721 0.245197 -0.629964 0
M  V30 2680 H 256.275 0.10303 -2.05141 0
M  V30 2681 H 254.505 2.49173 -2.95719 0
M  V30 2682 H 256.194 2.31255 -3.33581 0
M  V30 2683 H 256.96 0.335263 -4.8384 0
M  V30 2684 H 252.839 1.46844 -4.36987 0
M  V30 2685 H 256.383 -0.854629 -6.92345 0
M  V30 2686 H 252.28 0.285099 -6.4487 0
M  V30 2687 H 253.048 -0.929594 -8.13204 0
M  V30 2688 N 255.711 1.52812 0.385517 0
M  V30 2689 C 256.936 1.72207 1.15583 0
M  V30 2690 C 257.361 0.441034 1.82857 0
M  V30 2691 O 256.719 -0.603465 1.70962 0
M  V30 2692 C 256.767 2.87476 2.17692 0
M  V30 2693 O 255.871 2.54693 3.24354 0
M  V30 2694 H 255.212 0.572526 0.336319 0
M  V30 2695 H 257.742 1.99618 0.448744 0
M  V30 2696 H 257.752 3.13072 2.6163 0
M  V30 2697 H 256.427 3.80408 1.68115 0
M  V30 2698 H 255.004 2.3985 2.85529 0
M  V30 2699 N 257.189 -0.644168 1.43834 0
M  V30 2700 C 258.414 -1.43642 1.49605 0
M  V30 2701 C 258.839 -1.8773 0.117913 0
M  V30 2702 O 258.197 -1.57938 -0.890239 0
M  V30 2703 C 258.245 -2.6416 2.45463 0
M  V30 2704 O 257.349 -3.63538 1.94714 0
M  V30 2705 H 256.69 -0.430329 0.50568 0
M  V30 2706 H 259.22 -0.787448 1.8884 0
M  V30 2707 H 259.23 -3.11864 2.63068 0
M  V30 2708 H 257.905 -2.31414 3.45572 0
M  V30 2709 H 256.482 -3.2273 1.86814 0
M  V30 2710 N 258.668 -1.30515 -0.883378 0
M  V30 2711 C 259.631 -1.1701 -1.97082 0
M  V30 2712 C 260.631 -0.10089 -1.60483 0
M  V30 2713 O 261.821 -0.349127 -1.70666 0
M  V30 2714 C 258.953 -0.793045 -3.31547 0
M  V30 2715 H 260.146 -2.13622 -2.10489 0
M  V30 2716 H 257.699 -1.13935 -1.06998 0
M  V30 2717 H 258.434 0.172499 -3.23841 0
M  V30 2718 H 258.219 -1.56576 -3.5948 0
M  V30 2719 H 259.709 -0.722073 -4.1131 0
M  V30 2720 N 260.146 1.09593 -1.13257 0
M  V30 2721 C 261.394 1.81375 -0.891492 0
M  V30 2722 C 261.715 1.86049 0.584009 0
M  V30 2723 O 260.985 1.34481 1.42449 0
M  V30 2724 H 259.565 0.671708 -0.326828 0
M  V30 2725 H 262.227 1.3256 -1.42877 0
M  V30 2726 H 261.323 2.84612 -1.28071 0
M  V30 2727 N 261.624 0.925811 1.2754 0
M  V30 2728 C 262.849 0.580924 1.99098 0
M  V30 2729 C 263.274 -0.833555 1.68622 0
M  V30 2730 O 262.632 -1.55903 0.925422 0
M  V30 2731 C 262.68 0.811186 3.51358 0
M  V30 2732 O 261.784 -0.124129 4.12213 0
M  V30 2733 H 261.125 0.223873 0.625122 0
M  V30 2734 H 263.655 1.24455 1.62395 0
M  V30 2735 H 263.665 0.72601 4.01489 0
M  V30 2736 H 262.34 1.84227 3.72872 0
M  V30 2737 H 260.917 0.0108006 3.72898 0
M  V30 2738 N 263.102 -1.41638 0.69111 0
M  V30 2739 C 264.379 -1.95036 0.148421 0
M  V30 2740 C 264.759 -1.63072 -1.34055 0
M  V30 2741 O 264.107 -0.93538 -2.08478 0
M  V30 2742 C 264.317 -3.46279 0.434951 0
M  V30 2743 C 265.665 -4.23069 0.360275 0
M  V30 2744 O 266.689 -3.54277 0.369613 0
M  V30 2745 O 265.548 -5.45583 0.316534 0
M  V30 2746 H 262.642 -0.826908 0.0123654 0
M  V30 2747 H 265.188 -1.5138 0.766963 0
M  V30 2748 H 263.96 -3.6281 1.46576 0
M  V30 2749 H 263.583 -3.97019 -0.214787 0
M  V30 2750 N 264.58 -0.43555 -1.51462 0
M  V30 2751 C 265.857 0.191364 -1.94662 0
M  V30 2752 C 266.237 1.60254 -1.37411 0
M  V30 2753 O 265.585 2.2152 -0.560458 0
M  V30 2754 C 265.795 0.17091 -3.48581 0
M  V30 2755 C 267.143 0.377357 -4.2292 0
M  V30 2756 O 268.167 0.249104 -3.55328 0
M  V30 2757 O 267.026 0.63247 -5.42828 0
M  V30 2758 H 264.12 0.130932 -0.816569 0
M  V30 2759 H 266.666 -0.4934 -1.62369 0
M  V30 2760 H 265.438 -0.815738 -3.82703 0
M  V30 2761 H 265.061 0.898659 -3.87311 0
M  V30 2762 N 266.058 1.56714 -0.166846 0
M  V30 2763 C 267.304 1.97039 0.479962 0
M  V30 2764 C 267.637 1.05264 1.63197 0
M  V30 2765 O 266.912 0.0988833 1.94248 0
M  V30 2766 C 267.195 3.46867 0.967212 0
M  V30 2767 C 267.048 4.49421 -0.18466 0
M  V30 2768 C 268.367 3.9968 1.84238 0
M  V30 2769 H 265.486 0.71641 0.172992 0
M  V30 2770 H 268.128 1.8832 -0.252079 0
M  V30 2771 H 266.278 3.54428 1.59101 0
M  V30 2772 H 267.95 4.53924 -0.821621 0
M  V30 2773 H 266.193 4.25573 -0.840837 0
M  V30 2774 H 266.864 5.51644 0.198317 0
M  V30 2775 H 269.34 3.94723 1.31655 0
M  V30 2776 H 268.216 5.04941 2.15234 0
M  V30 2777 H 268.477 3.43226 2.78654 0
M  V30 2778 N 267.536 -0.106894 1.57237 0
M  V30 2779 C 268.766 -0.825191 1.89405 0
M  V30 2780 C 269.174 -1.73374 0.757496 0
M  V30 2781 O 268.517 -1.81552 -0.280115 0
M  V30 2782 C 268.579 -1.70102 3.1671 0
M  V30 2783 C 268.243 -0.965523 4.46684 0
M  V30 2784 C 269.24 -0.300741 5.19029 0
M  V30 2785 C 266.925 -0.943105 4.93367 0
M  V30 2786 C 268.919 0.376622 6.36286 0
M  V30 2787 C 266.606 -0.261949 6.10538 0
M  V30 2788 C 267.604 0.396748 6.81847 0
M  V30 2789 O 267.292 1.06701 7.96787 0
M  V30 2790 H 267.024 -0.241852 0.631255 0
M  V30 2791 H 269.578 -0.0921491 2.05193 0
M  V30 2792 H 267.808 -2.47601 2.97036 0
M  V30 2793 H 269.497 -2.29483 3.34802 0
M  V30 2794 H 270.263 -0.309599 4.84011 0
M  V30 2795 H 266.142 -1.44524 4.3776 0
M  V30 2796 H 269.686 0.891334 6.91882 0
M  V30 2797 H 265.583 -0.250896 6.45012 0
M  V30 2798 H 266.351 0.972707 8.127 0
M  V30 2799 N 269.014 -1.53014 -0.377408 0
M  V30 2800 C 269.961 -1.78616 -1.46168 0
M  V30 2801 C 270.931 -0.629917 -1.53692 0
M  V30 2802 O 272.116 -0.870861 -1.69766 0
M  V30 2803 C 269.256 -1.97123 -2.8326 0
M  V30 2804 C 268.369 -3.24831 -2.84796 0
M  V30 2805 C 267.504 -3.33591 -4.13389 0
M  V30 2806 C 266.543 -4.55377 -4.09021 0
M  V30 2807 N 265.68 -4.61355 -5.29241 0
M  V30 2808 H 270.52 -2.71142 -1.23637 0
M  V30 2809 H 268.057 -1.34326 -0.599577 0
M  V30 2810 H 270.015 -2.05839 -3.62886 0
M  V30 2811 H 268.645 -1.07946 -3.04216 0
M  V30 2812 H 267.697 -3.25128 -1.97474 0
M  V30 2813 H 269.009 -4.14523 -2.77439 0
M  V30 2814 H 268.163 -3.41554 -5.01424 0
M  V30 2815 H 266.902 -2.41894 -4.23484 0
M  V30 2816 H 265.907 -4.47527 -3.19373 0
M  V30 2817 H 267.132 -5.48402 -4.00539 0
M  V30 2818 H 265.078 -3.72554 -5.39944 0
M  V30 2819 H 264.995 -5.44935 -5.24006 0
M  V30 2820 H 266.263 -4.73586 -6.19141 0
M  V30 2821 N 270.492 0.636531 -1.44174 0
M  V30 2822 C 271.442 1.74233 -1.47061 0
M  V30 2823 C 272.426 1.57331 -0.337034 0
M  V30 2824 O 273.618 1.67159 -0.581973 0
M  V30 2825 C 270.747 3.12897 -1.41246 0
M  V30 2826 C 269.833 3.35288 -2.59698 0
M  V30 2827 N 270.224 3.2807 -3.84972 0
M  V30 2828 C 268.522 3.66065 -2.54778 0
M  V30 2829 C 269.223 3.51001 -4.63867 0
M  V30 2830 N 268.199 3.73616 -3.94857 0
M  V30 2831 H 272.001 1.67103 -2.41773 0
M  V30 2832 H 269.515 0.838806 -1.3906 0
M  V30 2833 H 271.512 3.92189 -1.41398 0
M  V30 2834 H 270.172 3.21197 -0.47569 0
M  V30 2835 H 271.183 3.07109 -4.17019 0
M  V30 2836 H 267.86 3.81379 -1.6987 0
M  V30 2837 H 269.25 3.51059 -5.72894 0
M  V30 2838 N 271.97 1.30982 0.876444 0
M  V30 2839 C 273.219 1.19658 1.62373 0
M  V30 2840 C 273.532 -0.245636 1.94052 0
M  V30 2841 O 274.738 -0.48049 2.67214 0
M  V30 2842 C 273.194 2.09433 2.92687 0
M  V30 2843 C 272.802 3.58613 2.68516 0
M  V30 2844 C 274.546 2.06893 3.70669 0
M  V30 2845 C 272.453 4.40416 3.94699 0
M  V30 2846 H 271.383 0.444268 0.609214 0
M  V30 2847 H 274.034 1.55791 0.969605 0
M  V30 2848 H 272.416 1.66191 3.59439 0
M  V30 2849 H 273.59 4.10058 2.10212 0
M  V30 2850 H 271.905 3.63063 2.03898 0
M  V30 2851 H 274.502 2.65258 4.64265 0
M  V30 2852 H 274.845 1.05448 4.02724 0
M  V30 2853 H 275.378 2.48301 3.10792 0
M  V30 2854 H 272.117 5.42591 3.67798 0
M  V30 2855 H 271.637 3.93731 4.52477 0
M  V30 2856 H 273.316 4.52294 4.62644 0
M  V30 2857 N 273.449 -1.08991 1.13837 0
M  V30 2858 C 274.396 -2.15748 0.819835 0
M  V30 2859 C 275.366 -1.64636 -0.220026 0
M  V30 2860 O 276.551 -1.90582 -0.0912757 0
M  V30 2861 C 273.691 -3.4382 0.296913 0
M  V30 2862 C 272.804 -4.0881 1.39636 0
M  V30 2863 C 271.939 -5.24655 0.831314 0
M  V30 2864 C 270.978 -5.81575 1.90886 0
M  V30 2865 N 270.115 -6.88774 1.36142 0
M  V30 2866 H 274.955 -2.42338 1.73426 0
M  V30 2867 H 272.492 -1.18935 0.865613 0
M  V30 2868 H 274.45 -4.17193 -0.0244339 0
M  V30 2869 H 273.08 -3.17535 -0.580628 0
M  V30 2870 H 272.132 -3.33258 1.83422 0
M  V30 2871 H 273.444 -4.47141 2.21058 0
M  V30 2872 H 272.598 -6.04942 0.461515 0
M  V30 2873 H 271.337 -4.87698 -0.013932 0
M  V30 2874 H 270.342 -4.99946 2.28767 0
M  V30 2875 H 271.567 -6.20592 2.75758 0
M  V30 2876 H 269.513 -6.53788 0.538254 0
M  V30 2877 H 269.43 -7.25898 2.11208 0
M  V30 2878 H 270.698 -7.72806 1.01933 0
M  V30 2879 N 274.927 -0.932562 -1.27047 0
M  V30 2880 C 275.837 -0.441219 -2.30414 0
M  V30 2881 C 276.853 0.480525 -1.67233 0
M  V30 2882 O 278.029 0.362151 -1.98117 0
M  V30 2883 C 275.094 0.293651 -3.45454 0
M  V30 2884 C 274.155 -0.663601 -4.2414 0
M  V30 2885 C 273.388 0.0362932 -5.33688 0
M  V30 2886 O 273.611 1.2548 -5.56427 0
M  V30 2887 O 272.545 -0.638015 -5.98509 0
M  V30 2888 H 276.371 -1.29962 -2.74488 0
M  V30 2889 H 273.956 -0.6981 -1.32087 0
M  V30 2890 H 275.838 0.707951 -4.15411 0
M  V30 2891 H 274.513 1.12758 -3.03426 0
M  V30 2892 H 273.42 -1.12768 -3.56699 0
M  V30 2893 H 274.753 -1.46489 -4.69896 0
M  V30 2894 N 276.405 1.4127 -0.698611 0
M  V30 2895 C 277.368 2.29158 -0.044132 0
M  V30 2896 C 278.368 1.44529 0.704841 0
M  V30 2897 O 279.558 1.65643 0.539276 0
M  V30 2898 C 276.69 3.27459 0.947809 0
M  V30 2899 H 277.883 2.88529 -0.817994 0
M  V30 2900 H 275.436 1.49307 -0.46228 0
M  V30 2901 H 276.171 2.73073 1.74933 0
M  V30 2902 H 275.956 3.8991 0.41385 0
M  V30 2903 H 277.446 3.93311 1.40344 0
M  V30 2904 N 277.883 0.443576 1.51229 0
M  V30 2905 C 279.131 -0.120557 2.0174 0
M  V30 2906 C 279.452 -1.42665 1.32935 0
M  V30 2907 O 278.722 -1.9028 0.465866 0
M  V30 2908 H 277.302 -0.0475426 0.745486 0
M  V30 2909 H 279.964 0.587711 1.85828 0
M  V30 2910 H 279.06 -0.291972 3.10731 0
M  V30 2911 N 279.361 -1.56624 0.175154 0
M  V30 2912 C 280.294 -2.14 -0.792412 0
M  V30 2913 C 281.272 -1.07114 -1.22333 0
M  V30 2914 O 282.456 -1.35112 -1.31442 0
M  V30 2915 C 279.583 -2.68268 -2.0676 0
M  V30 2916 C 278.629 -3.87562 -1.7804 0
M  V30 2917 S 279.462 -5.27074 -0.946222 0
M  V30 2918 C 280.618 -5.8475 -2.23199 0
M  V30 2919 H 280.851 -2.95736 -0.304588 0
M  V30 2920 H 278.384 -1.54349 -0.0395705 0
M  V30 2921 H 280.342 -3.00182 -2.80002 0
M  V30 2922 H 279.003 -1.86612 -2.52656 0
M  V30 2923 H 278.196 -4.23874 -2.72666 0
M  V30 2924 H 277.798 -3.56555 -1.12891 0
M  V30 2925 H 280.09 -5.97898 -3.18629 0
M  V30 2926 H 281.033 -6.81756 -1.91349 0
M  V30 2927 H 281.441 -5.13198 -2.35134 0
M  V30 2928 N 280.839 0.0985539 -1.57292 0
M  V30 2929 C 282.086 0.802678 -1.85912 0
M  V30 2930 C 282.414 1.78901 -0.763186 0
M  V30 2931 O 281.669 1.94178 0.243559 0
M  V30 2932 C 281.968 1.56927 -3.21105 0
M  V30 2933 C 281.634 0.725376 -4.45027 0
M  V30 2934 C 280.296 0.492726 -4.78671 0
M  V30 2935 C 282.648 0.138493 -5.21016 0
M  V30 2936 C 279.976 -0.336727 -5.85733 0
M  V30 2937 C 282.328 -0.678264 -6.28953 0
M  V30 2938 C 280.992 -0.921039 -6.61115 0
M  V30 2939 H 280.262 0.293721 -0.680301 0
M  V30 2940 H 282.909 0.0642841 -1.91392 0
M  V30 2941 H 281.214 2.37914 -3.11294 0
M  V30 2942 H 282.911 2.11841 -3.40477 0
M  V30 2943 H 279.501 0.916815 -4.18679 0
M  V30 2944 H 283.685 0.305404 -4.95359 0
M  V30 2945 H 278.941 -0.533836 -6.09065 0
M  V30 2946 H 283.115 -1.1399 -6.87007 0
M  V30 2947 H 280.742 -1.56556 -7.43905 0
M  V30 2948 N 282.317 1.53212 0.369288 0
M  V30 2949 C 283.563 1.69466 1.11397 0
M  V30 2950 C 283.896 0.443257 1.89074 0
M  V30 2951 O 283.171 -0.559386 1.86282 0
M  V30 2952 C 283.454 2.9422 2.07621 0
M  V30 2953 C 283.307 4.29508 1.33577 0
M  V30 2954 C 284.626 3.14565 3.07794 0
M  V30 2955 H 281.745 0.616667 0.403597 0
M  V30 2956 H 284.387 1.85845 0.395179 0
M  V30 2957 H 282.537 2.80387 2.68916 0
M  V30 2958 H 284.209 4.55147 0.750955 0
M  V30 2959 H 282.452 4.29088 0.637618 0
M  V30 2960 H 283.123 5.12926 2.03989 0
M  V30 2961 H 285.599 3.2756 2.56601 0
M  V30 2962 H 284.475 4.03297 3.72348 0
M  V30 2963 H 284.736 2.29675 3.77759 0
M  V30 2964 N 283.795 -0.628877 1.44509 0
M  V30 2965 C 285.206 -1.21054 1.42137 0
M  V30 2966 C 285.557 -1.95715 0.137881 0
M  V30 2967 O 284.682 -2.02554 -0.761645 0
M  V30 2968 C 285.277 -2.20189 2.57493 0
M  V30 2969 C 283.836 -2.73777 2.58308 0
M  V30 2970 C 282.983 -1.48813 2.33987 0
M  V30 2971 H 285.934 -0.41942 1.53057 0
M  V30 2972 H 285.955 -3.02833 2.30375 0
M  V30 2973 H 285.467 -1.6582 3.50892 0
M  V30 2974 H 283.568 -3.32142 1.68856 0
M  V30 2975 H 283.681 -3.19662 3.56865 0
M  V30 2976 H 282.045 -1.77024 1.83124 0
M  V30 2977 H 282.828 -0.963442 3.29504 0
M  V30 2978 N 285.273 -1.31445 -0.869486 0
M  V30 2979 C 286.501 -1.24122 -1.65534 0
M  V30 2980 C 286.916 0.193387 -1.87807 0
M  V30 2981 O 286.273 1.12557 -1.43656 0
M  V30 2982 C 286.324 -1.98229 -3.02304 0
M  V30 2983 O 286.045 -3.3609 -2.81026 0
M  V30 2984 C 287.546 -1.97751 -3.96749 0
M  V30 2985 H 284.766 -0.428868 -0.516055 0
M  V30 2986 H 287.31 -1.73328 -1.08525 0
M  V30 2987 H 285.465 -1.52782 -3.56001 0
M  V30 2988 H 285.879 -3.7383 -3.67902 0
M  V30 2989 H 287.353 -2.54114 -4.90031 0
M  V30 2990 H 287.83 -0.960137 -4.28577 0
M  V30 2991 H 288.436 -2.43079 -3.48988 0
M  V30 2992 N 286.751 1.08385 -1.14413 0
M  V30 2993 C 287.683 2.1519 -0.789036 0
M  V30 2994 C 288.696 1.61638 0.19417 0
M  V30 2995 O 289.885 1.78479 -0.0275711 0
M  V30 2996 C 286.985 3.38565 -0.15058 0
M  V30 2997 C 286.158 4.21501 -1.16857 0
M  V30 2998 C 285.217 5.23277 -0.553832 0
M  V30 2999 O 284.243 5.56041 -1.21686 0
M  V30 3000 N 285.445 5.76629 0.669296 0
M  V30 3001 H 288.21 2.46257 -1.70814 0
M  V30 3002 H 285.771 1.24198 -1.03858 0
M  V30 3003 H 287.763 4.03777 0.273181 0
M  V30 3004 H 286.333 3.05299 0.671667 0
M  V30 3005 H 285.553 3.52265 -1.76926 0
M  V30 3006 H 286.841 4.73731 -1.85624 0
M  V30 3007 H 286.239 5.52243 1.22654 0
M  V30 3008 H 284.796 6.43521 1.03556 0
M  V30 3009 N 288.23 0.939286 1.26551 0
M  V30 3010 C 289.646 0.641304 1.46149 0
M  V30 3011 C 289.846 -0.805964 1.84679 0
M  V30 3012 O 288.902 -1.58278 1.96734 0
M  V30 3013 C 290.215 1.6011 2.54529 0
M  V30 3014 C 291.763 1.6106 2.68382 0
M  V30 3015 C 292.238 2.55765 3.79932 0
M  V30 3016 N 293.729 2.5404 3.87322 0
M  V30 3017 C 294.464 3.24004 4.73085 0
M  V30 3018 N 293.96 4.03388 5.63249 0
M  V30 3019 N 295.753 3.12965 4.66914 0
M  V30 3020 H 287.904 1.87478 0.998285 0
M  V30 3021 H 290.167 0.805559 0.499779 0
M  V30 3022 H 289.873 2.63412 2.33039 0
M  V30 3023 H 289.747 1.35171 3.52149 0
M  V30 3024 H 292.134 0.584835 2.89247 0
M  V30 3025 H 292.215 1.90053 1.71212 0
M  V30 3026 H 291.859 3.58458 3.5982 0
M  V30 3027 H 291.789 2.24063 4.76554 0
M  V30 3028 H 294.28 1.96396 3.22858 0
M  V30 3029 H 294.593 4.5373 6.25579 0
M  V30 3030 H 292.938 4.07489 5.63008 0
M  V30 3031 H 296.129 2.50432 3.95476 0
M  V30 3032 H 296.302 3.67759 5.33533 0
M  V30 3033 N 289.708 -1.40897 0.706093 0
M  V30 3034 C 290.936 -2.05373 0.250887 0
M  V30 3035 C 291.351 -1.53172 -1.10381 0
M  V30 3036 O 290.708 -0.684305 -1.69185 0
M  V30 3037 C 290.759 -3.6088 0.211571 0
M  V30 3038 O 290.48 -4.11153 1.51276 0
M  V30 3039 C 291.981 -4.42517 -0.263346 0
M  V30 3040 H 289.201 -0.66115 0.114552 0
M  V30 3041 H 291.745 -1.80479 0.961635 0
M  V30 3042 H 289.9 -3.84777 -0.450073 0
M  V30 3043 H 290.314 -5.05279 1.40689 0
M  V30 3044 H 291.788 -5.51479 -0.239718 0
M  V30 3045 H 292.265 -4.19396 -1.30397 0
M  V30 3046 H 292.871 -4.23708 0.367677 0
M  V30 3047 N 291.186 -0.45159 -1.50991 0
M  V30 3048 C 292.096 0.358431 -2.31846 0
M  V30 3049 C 293.112 1.01438 -1.41373 0
M  V30 3050 O 294.288 1.00663 -1.74439 0
M  V30 3051 C 291.353 1.43704 -3.15515 0
M  V30 3052 C 290.414 0.799742 -4.21785 0
M  V30 3053 C 289.647 1.82696 -5.01456 0
M  V30 3054 O 289.87 3.05105 -4.81941 0
M  V30 3055 O 288.804 1.40958 -5.85162 0
M  V30 3056 H 292.63 -0.302032 -3.02194 0
M  V30 3057 H 290.215 -0.213825 -1.47862 0
M  V30 3058 H 292.097 2.06227 -3.67489 0
M  V30 3059 H 290.772 2.08133 -2.47916 0
M  V30 3060 H 289.679 0.136084 -3.73852 0
M  V30 3061 H 291.012 0.198718 -4.91799 0
M  V30 3062 N 292.664 1.56529 -0.183458 0
M  V30 3063 C 293.912 1.96855 0.457452 0
M  V30 3064 C 294.233 1.07104 1.62953 0
M  V30 3065 O 293.503 0.139887 1.954 0
M  V30 3066 H 292.083 0.72693 0.171992 0
M  V30 3067 H 294.745 1.93056 -0.267476 0
M  V30 3068 H 293.841 3.01423 0.809368 0
M  V30 3069 N 294.142 -0.090211 1.57342 0
M  V30 3070 C 295.391 -0.791531 1.8552 0
M  V30 3071 C 295.704 -1.79659 0.773441 0
M  V30 3072 O 296.91 -2.54616 0.942497 0
M  V30 3073 C 295.366 -1.45856 3.2902 0
M  V30 3074 C 294.974 -0.493017 4.45279 0
M  V30 3075 C 296.718 -2.14332 3.66418 0
M  V30 3076 C 294.625 -1.16491 5.79814 0
M  V30 3077 H 293.555 -0.299356 0.692027 0
M  V30 3078 H 296.206 -0.0445343 1.83446 0
M  V30 3079 H 294.588 -2.25318 3.2565 0
M  V30 3080 H 295.762 0.270464 4.60006 0
M  V30 3081 H 294.077 0.0863061 4.16311 0
M  V30 3082 H 296.674 -2.65344 4.64216 0
M  V30 3083 H 297.017 -2.93447 2.95287 0
M  V30 3084 H 297.55 -1.41724 3.71698 0
M  V30 3085 H 294.289 -0.41447 6.54188 0
M  V30 3086 H 293.809 -1.8997 5.68921 0
M  V30 3087 H 295.488 -1.69001 6.24538 0
M  V30 3088 N 295.62 -1.53406 -0.361157 0
M  V30 3089 C 296.845 -1.74024 -1.12829 0
M  V30 3090 C 297.27 -0.470069 -1.82132 0
M  V30 3091 O 296.628 0.57619 -1.719 0
M  V30 3092 C 296.676 -2.90903 -2.13091 0
M  V30 3093 O 295.78 -2.59821 -3.20261 0
M  V30 3094 H 295.121 -0.577804 -0.327168 0
M  V30 3095 H 297.651 -2.00307 -0.41693 0
M  V30 3096 H 297.661 -3.17194 -2.56616 0
M  V30 3097 H 296.336 -3.83034 -1.62042 0
M  V30 3098 H 294.913 -2.44362 -2.81677 0
M  V30 3099 N 297.098 0.621204 -1.44841 0
M  V30 3100 C 298.326 1.40752 -1.51646 0
M  V30 3101 C 298.741 1.88246 -0.144549 0
M  V30 3102 O 298.098 1.61422 0.851416 0
M  V30 3103 C 298.149 2.62119 -2.4895 0
M  V30 3104 O 297.87 2.16602 -3.80808 0
M  V30 3105 C 299.371 3.55135 -2.65319 0
M  V30 3106 H 296.591 0.431325 -0.514004 0
M  V30 3107 H 299.135 0.758835 -1.899 0
M  V30 3108 H 297.29 3.23058 -2.13805 0
M  V30 3109 H 297.704 2.95358 -4.33433 0
M  V30 3110 H 299.178 4.36874 -3.37409 0
M  V30 3111 H 299.655 4.04592 -1.70886 0
M  V30 3112 H 300.261 3.00058 -3.01405 0
M  V30 3113 N 298.576 1.31904 0.862503 0
M  V30 3114 C 299.801 1.25135 1.65397 0
M  V30 3115 C 300.226 -0.179 1.87246 0
M  V30 3116 O 299.584 -1.1277 1.4196 0
M  V30 3117 C 299.632 2.00832 2.99498 0
M  V30 3118 O 298.736 1.35075 3.89652 0
M  V30 3119 H 298.077 0.431655 0.504549 0
M  V30 3120 H 300.607 1.74094 1.07483 0
M  V30 3121 H 300.617 2.10709 3.49379 0
M  V30 3122 H 299.292 3.04847 2.82916 0
M  V30 3123 H 297.869 1.33696 3.48109 0
M  V30 3124 N 300.054 -1.07777 1.14986 0
M  V30 3125 C 301.331 -1.7699 0.832695 0
M  V30 3126 C 301.711 -2.001 -0.672561 0
M  V30 3127 O 301.059 -1.61598 -1.6155 0
M  V30 3128 C 301.269 -3.08139 1.63863 0
M  V30 3129 C 302.617 -3.8256 1.84208 0
M  V30 3130 O 303.641 -3.17939 1.60603 0
M  V30 3131 O 302.5 -4.98612 2.23714 0
M  V30 3132 H 299.594 -0.768389 0.305791 0
M  V30 3133 H 302.14 -1.14182 1.25541 0
M  V30 3134 H 300.912 -2.86909 2.6608 0
M  V30 3135 H 300.535 -3.78678 1.21197 0
M  V30 3136 N 301.532 -0.945985 -1.26051 0
M  V30 3137 C 302.781 -0.591836 -1.92822 0
M  V30 3138 C 303.094 0.873956 -1.7499 0
M  V30 3139 O 304.3 1.33769 -2.36259 0
M  V30 3140 C 302.756 -1.00776 -3.45503 0
M  V30 3141 C 302.364 -2.4955 -3.7206 0
M  V30 3142 C 304.108 -0.725735 -4.1825 0
M  V30 3143 C 302.015 -2.84988 -5.18205 0
M  V30 3144 H 300.945 -0.217635 -0.721908 0
M  V30 3145 H 303.596 -1.14927 -1.43052 0
M  V30 3146 H 301.978 -0.378812 -3.94184 0
M  V30 3147 H 303.152 -3.1739 -3.34066 0
M  V30 3148 H 301.467 -2.75133 -3.12555 0
M  V30 3149 H 304.064 -0.966771 -5.25887 0
M  V30 3150 H 304.407 0.337639 -4.14929 0
M  V30 3151 H 304.94 -1.31463 -3.7545 0
M  V30 3152 H 301.679 -3.90307 -5.26631 0
M  V30 3153 H 301.199 -2.21813 -5.57278 0
M  V30 3154 H 302.878 -2.73712 -5.86252 0
M  V30 3155 N 303.011 1.40521 -0.713556 0
M  V30 3156 C 304.26 2.00155 -0.249192 0
M  V30 3157 C 304.573 1.57224 1.16362 0
M  V30 3158 O 305.779 2.09542 1.72639 0
M  V30 3159 C 304.235 3.5773 -0.3946 0
M  V30 3160 C 303.843 4.09635 -1.81392 0
M  V30 3161 C 305.587 4.24499 0.00907364 0
M  V30 3162 C 303.494 5.59707 -1.91003 0
M  V30 3163 H 302.424 0.74868 -0.0894114 0
M  V30 3164 H 305.075 1.60784 -0.884352 0
M  V30 3165 H 303.457 3.94792 0.30911 0
M  V30 3166 H 304.631 3.83955 -2.54785 0
M  V30 3167 H 302.946 3.55456 -2.16888 0
M  V30 3168 H 305.543 5.34683 -0.0420404 0
M  V30 3169 H 305.886 4.02824 1.05065 0
M  V30 3170 H 306.419 3.92536 -0.645007 0
M  V30 3171 H 303.158 5.86234 -2.93275 0
M  V30 3172 H 302.678 5.87258 -1.22019 0
M  V30 3173 H 304.357 6.24776 -1.6812 0
M  V30 3174 N 304.489 0.459591 1.5075 0
M  V30 3175 C 305.717 -0.0973749 2.06671 0
M  V30 3176 C 306.132 -1.34524 1.32472 0
M  V30 3177 O 305.489 -1.7827 0.390634 0
M  V30 3178 C 305.54 -0.39714 3.59312 0
M  V30 3179 O 305.261 0.801214 4.30711 0
M  V30 3180 C 306.762 -1.00234 4.31819 0
M  V30 3181 H 303.982 0.00195854 0.670997 0
M  V30 3182 H 306.526 0.645072 1.94059 0
M  V30 3183 H 304.681 -1.08951 3.71764 0
M  V30 3184 H 305.095 0.538857 5.21725 0
M  V30 3185 H 306.569 -1.16193 5.39632 0
M  V30 3186 H 307.046 -1.98939 3.91561 0
M  V30 3187 H 307.652 -0.348699 4.23868 0
M  V30 3188 N 305.967 -1.56429 0.191757 0
M  V30 3189 C 307.383 -1.58754 -0.164137 0
M  V30 3190 C 307.583 -1.20782 -1.61288 0
M  V30 3191 O 306.639 -0.928999 -2.34789 0
M  V30 3192 C 307.952 -3.00396 0.135195 0
M  V30 3193 C 309.5 -3.1291 0.0750351 0
M  V30 3194 C 309.975 -4.56679 0.347632 0
M  V30 3195 N 311.466 -4.62252 0.296131 0
M  V30 3196 C 312.201 -5.71379 0.480948 0
M  V30 3197 N 311.697 -6.88986 0.725933 0
M  V30 3198 N 313.49 -5.60563 0.415435 0
M  V30 3199 H 305.641 -1.79393 1.13718 0
M  V30 3200 H 307.904 -0.832414 0.453643 0
M  V30 3201 H 307.61 -3.32726 1.13958 0
M  V30 3202 H 307.484 -3.72963 -0.563773 0
M  V30 3203 H 309.871 -2.80394 -0.919948 0
M  V30 3204 H 309.952 -2.42736 0.807029 0
M  V30 3205 H 309.596 -4.89907 1.33992 0
M  V30 3206 H 309.526 -5.25039 -0.405212 0
M  V30 3207 H 312.017 -3.7773 0.113259 0
M  V30 3208 H 312.33 -7.68046 0.855857 0
M  V30 3209 H 310.675 -6.90801 0.762788 0
M  V30 3210 H 313.866 -4.67561 0.224486 0
M  V30 3211 H 314.039 -6.45551 0.562889 0
M  V30 3212 N 307.445 0.0818655 -1.57387 0
M  V30 3213 C 308.694 0.781681 -1.85937 0
M  V30 3214 C 309.007 1.79246 -0.782957 0
M  V30 3215 O 310.213 2.54112 -0.955987 0
M  V30 3216 C 308.669 1.44109 -3.29789 0
M  V30 3217 C 308.277 0.469396 -4.45534 0
M  V30 3218 C 310.021 2.12386 -3.67549 0
M  V30 3219 C 307.928 1.13415 -5.80423 0
M  V30 3220 H 306.858 0.295682 -0.693605 0
M  V30 3221 H 309.509 0.0348051 -1.83467 0
M  V30 3222 H 307.891 2.23588 -3.2684 0
M  V30 3223 H 309.065 -0.294856 -4.59856 0
M  V30 3224 H 307.38 -0.108383 -4.16259 0
M  V30 3225 H 309.977 2.62878 -4.65617 0
M  V30 3226 H 310.32 2.91877 -2.96839 0
M  V30 3227 H 310.853 1.39751 -3.72444 0
M  V30 3228 H 307.592 0.379771 -6.54399 0
M  V30 3229 H 307.112 1.8695 -5.69921 0
M  V30 3230 H 308.791 1.65686 -6.25426 0
M  V30 3231 N 308.923 1.53595 0.353017 0
M  V30 3232 C 310.169 1.70638 1.09593 0
M  V30 3233 C 310.502 0.463286 1.88593 0
M  V30 3234 O 309.777 -0.539597 1.86865 0
M  V30 3235 C 310.06 2.96406 2.04489 0
M  V30 3236 C 309.913 4.30901 1.29014 0
M  V30 3237 C 311.232 3.17812 3.0444 0
M  V30 3238 H 308.351 0.620913 0.397034 0
M  V30 3239 H 310.993 1.86254 0.375446 0
M  V30 3240 H 309.143 2.83223 2.65927 0
M  V30 3241 H 310.815 4.55917 0.702638 0
M  V30 3242 H 309.058 4.29741 0.592071 0
M  V30 3243 H 309.729 5.1506 1.98537 0
M  V30 3244 H 312.205 3.30263 2.53112 0
M  V30 3245 H 311.081 4.07223 3.6805 0
M  V30 3246 H 311.342 2.33669 3.75301 0
M  V30 3247 N 310.401 -0.613514 1.45168 0
M  V30 3248 C 311.817 -0.933629 1.29443 0
M  V30 3249 C 312.017 -2.00028 0.243101 0
M  V30 3250 O 311.073 -2.49848 -0.364992 0
M  V30 3251 C 312.386 -1.38018 2.67155 0
M  V30 3252 C 313.934 -1.49471 2.75004 0
M  V30 3253 C 314.409 -1.97503 4.13227 0
M  V30 3254 N 315.9 -2.04746 4.15491 0
M  V30 3255 C 316.635 -2.43121 5.19307 0
M  V30 3256 N 316.131 -2.80506 6.33473 0
M  V30 3257 N 317.924 -2.43408 5.06664 0
M  V30 3258 H 310.075 0.0916097 2.12202 0
M  V30 3259 H 312.338 -0.0216655 0.947752 0
M  V30 3260 H 312.044 -0.670625 3.45247 0
M  V30 3261 H 311.918 -2.34784 2.95222 0
M  V30 3262 H 314.305 -2.19519 1.9722 0
M  V30 3263 H 314.386 -0.510342 2.50657 0
M  V30 3264 H 314.03 -1.28045 4.91495 0
M  V30 3265 H 313.96 -2.96843 4.34962 0
M  V30 3266 H 316.451 -1.78468 3.33103 0
M  V30 3267 H 316.764 -3.08652 7.08487 0
M  V30 3268 H 315.109 -2.78216 6.36884 0
M  V30 3269 H 318.3 -2.13604 4.16523 0
M  V30 3270 H 318.473 -2.72989 5.87691 0
M  V30 3271 N 311.879 -1.3236 -0.855495 0
M  V30 3272 C 313.156 -1.13491 -1.59309 0
M  V30 3273 C 313.536 0.30503 -2.08885 0
M  V30 3274 O 312.884 1.30151 -1.87811 0
M  V30 3275 C 313.094 -2.16176 -2.73987 0
M  V30 3276 C 314.442 -2.49463 -3.43589 0
M  V30 3277 O 315.466 -2.14715 -2.84211 0
M  V30 3278 O 314.325 -3.09027 -4.50738 0
M  V30 3279 H 311.419 -0.437887 -0.701559 0
M  V30 3280 H 313.965 -1.43887 -0.899696 0
M  V30 3281 H 312.737 -3.1297 -2.34873 0
M  V30 3282 H 312.36 -1.86769 -3.51003 0
M  V30 3283 N 313.357 1.07166 -1.15556 0
M  V30 3284 C 314.587 1.83248 -0.954133 0
M  V30 3285 C 314.995 1.82449 0.500911 0
M  V30 3286 O 314.338 1.23575 1.35923 0
M  V30 3287 C 314.4 3.31393 -1.39351 0
M  V30 3288 C 314.064 3.5591 -2.86666 0
M  V30 3289 C 315.061 3.49695 -3.8472 0
M  V30 3290 C 312.746 3.83515 -3.24379 0
M  V30 3291 C 314.74 3.70737 -5.18491 0
M  V30 3292 C 312.427 4.04209 -4.58321 0
M  V30 3293 C 313.425 3.97815 -5.55186 0
M  V30 3294 O 313.113 4.17954 -6.86709 0
M  V30 3295 H 312.845 0.584941 -0.338851 0
M  V30 3296 H 315.399 1.36169 -1.53777 0
M  V30 3297 H 313.629 3.79292 -0.75329 0
M  V30 3298 H 315.318 3.88945 -1.16089 0
M  V30 3299 H 316.084 3.28368 -3.56931 0
M  V30 3300 H 311.963 3.87605 -2.49567 0
M  V30 3301 H 315.507 3.65663 -5.94085 0
M  V30 3302 H 311.404 4.25023 -4.85825 0
M  V30 3303 H 312.172 4.35291 -6.93155 0
M  V30 3304 N 314.835 0.952656 1.25548 0
M  V30 3305 C 316.112 0.523818 1.88456 0
M  V30 3306 C 316.492 -0.998871 1.85973 0
M  V30 3307 O 315.84 -1.86381 1.3219 0
M  V30 3308 C 316.05 1.0982 3.31271 0
M  V30 3309 C 317.398 1.17385 4.08051 0
M  V30 3310 O 318.422 1.04961 3.40384 0
M  V30 3311 O 317.281 1.36852 5.29088 0
M  V30 3312 H 314.375 0.172485 0.808813 0
M  V30 3313 H 316.921 1.04596 1.33633 0
M  V30 3314 H 315.693 2.1415 3.27499 0
M  V30 3315 H 315.316 0.559191 3.93648 0
M  V30 3316 N 316.313 -1.40141 0.720998 0
M  V30 3317 C 317.559 -2.01084 0.263231 0
M  V30 3318 C 317.892 -1.57052 -1.14229 0
M  V30 3319 O 317.167 -0.793027 -1.77599 0
M  V30 3320 C 317.45 -3.58401 0.349344 0
M  V30 3321 C 317.303 -4.12491 1.79363 0
M  V30 3322 C 318.622 -4.39231 -0.276351 0
M  V30 3323 H 315.741 -0.730572 0.0971228 0
M  V30 3324 H 318.383 -1.66543 0.914518 0
M  V30 3325 H 316.533 -3.87958 -0.205165 0
M  V30 3326 H 318.205 -3.93711 2.40394 0
M  V30 3327 H 316.448 -3.66576 2.31958 0
M  V30 3328 H 317.119 -5.21646 1.80524 0
M  V30 3329 H 319.595 -4.15637 0.196184 0
M  V30 3330 H 318.471 -5.48586 -0.185681 0
M  V30 3331 H 318.732 -4.20643 -1.36059 0
M  V30 3332 N 317.792 -0.46758 -1.50504 0
M  V30 3333 C 319.022 0.086288 -2.0642 0
M  V30 3334 C 319.43 1.34369 -1.33197 0
M  V30 3335 O 318.773 1.79431 -0.393747 0
M  V30 3336 C 318.835 0.443846 -3.5675 0
M  V30 3337 C 318.499 -0.711035 -4.51435 0
M  V30 3338 C 319.496 -1.59205 -4.94924 0
M  V30 3339 C 317.181 -0.900363 -4.94165 0
M  V30 3340 C 319.175 -2.64683 -5.79846 0
M  V30 3341 C 316.862 -1.95837 -5.7887 0
M  V30 3342 C 317.86 -2.82997 -6.21612 0
M  V30 3343 O 317.548 -3.86977 -7.0463 0
M  V30 3344 H 317.28 -0.00217814 -0.675996 0
M  V30 3345 H 319.834 -0.654346 -1.94698 0
M  V30 3346 H 318.064 1.23762 -3.6636 0
M  V30 3347 H 319.753 0.932386 -3.95046 0
M  V30 3348 H 320.519 -1.45745 -4.62583 0
M  V30 3349 H 316.398 -0.231427 -4.60419 0
M  V30 3350 H 319.942 -3.32745 -6.13128 0
M  V30 3351 H 315.839 -2.09305 -6.10624 0
M  V30 3352 H 316.607 -3.83923 -7.22873 0
M  V30 3353 N 319.27 1.56325 -0.20005 0
M  V30 3354 C 320.233 2.18084 0.705132 0
M  V30 3355 C 321.233 1.13666 1.1374 0
M  V30 3356 O 322.423 1.39023 1.04968 0
M  V30 3357 C 319.555 2.78689 1.96329 0
M  V30 3358 H 320.748 2.99435 0.167023 0
M  V30 3359 H 318.301 1.56221 0.0495725 0
M  V30 3360 H 319.036 2.0115 2.5438 0
M  V30 3361 H 318.821 3.55133 1.66202 0
M  V30 3362 H 320.311 3.26096 2.60866 0
M  V30 3363 N 320.748 -0.0735177 1.57428 0
M  V30 3364 C 322.164 -0.428264 1.53747 0
M  V30 3365 C 322.364 -1.79272 0.91998 0
M  V30 3366 O 321.42 -2.47051 0.521745 0
M  V30 3367 C 322.733 -0.370914 2.98404 0
M  V30 3368 C 324.281 -0.451224 3.0973 0
M  V30 3369 C 324.756 -0.4238 4.56035 0
M  V30 3370 N 326.247 -0.483925 4.60665 0
M  V30 3371 C 326.982 -0.484891 5.71346 0
M  V30 3372 N 326.478 -0.440775 6.91396 0
M  V30 3373 N 328.271 -0.531319 5.59583 0
M  V30 3374 H 320.422 0.819949 1.95935 0
M  V30 3375 H 322.685 0.307493 0.896745 0
M  V30 3376 H 322.391 0.564956 3.47133 0
M  V30 3377 H 322.265 -1.18176 3.5821 0
M  V30 3378 H 324.652 -1.37752 2.60976 0
M  V30 3379 H 324.733 0.388167 2.52838 0
M  V30 3380 H 324.377 0.498638 5.05446 0
M  V30 3381 H 324.307 -1.2807 5.10789 0
M  V30 3382 H 326.798 -0.522338 3.74273 0
M  V30 3383 H 327.111 -0.44539 7.71515 0
M  V30 3384 H 325.456 -0.40749 6.93804 0
M  V30 3385 H 328.647 -0.563464 4.64696 0
M  V30 3386 H 328.82 -0.528603 6.4584 0
M  V30 3387 N 322.226 -1.5378 -0.344866 0
M  V30 3388 C 323.642 -1.44015 -0.687888 0
M  V30 3389 C 323.842 -0.595834 -1.92489 0
M  V30 3390 O 322.898 -0.0863064 -2.52352 0
M  V30 3391 C 324.211 -2.87481 -0.881758 0
M  V30 3392 C 325.759 -2.97247 -0.980459 0
M  V30 3393 C 326.234 -4.41819 -1.20665 0
M  V30 3394 N 327.725 -4.45339 -1.27389 0
M  V30 3395 C 328.46 -5.54333 -1.46639 0
M  V30 3396 N 327.956 -6.73335 -1.63071 0
M  V30 3397 N 329.749 -5.41944 -1.49176 0
M  V30 3398 H 321.9 -2.07169 0.468475 0
M  V30 3399 H 324.163 -0.93643 0.147655 0
M  V30 3400 H 323.869 -3.51672 -0.0443444 0
M  V30 3401 H 323.743 -3.32352 -1.78388 0
M  V30 3402 H 326.13 -2.33197 -1.8084 0
M  V30 3403 H 326.211 -2.5574 -0.0552713 0
M  V30 3404 H 325.855 -5.06449 -0.383652 0
M  V30 3405 H 325.785 -4.80917 -2.14539 0
M  V30 3406 H 328.276 -3.59585 -1.1622 0
M  V30 3407 H 328.589 -7.52165 -1.77391 0
M  V30 3408 H 326.934 -6.76282 -1.60209 0
M  V30 3409 H 330.125 -4.47932 -1.3592 0
M  V30 3410 H 330.298 -6.26946 -1.63837 0
M  V30 3411 N 323.704 0.605807 -1.45491 0
M  V30 3412 C 324.652 1.73754 -1.54636 0
M  V30 3413 C 325.646 1.64207 -0.416219 0
M  V30 3414 O 326.852 1.69979 -0.592199 0
M  V30 3415 H 323.227 0.574073 -0.485741 0
M  V30 3416 H 325.198 1.63169 -2.49837 0
M  V30 3417 C 323.947 3.12135 -1.53189 0
M  V30 3418 H 323.27 3.20141 -2.39478 0
M  V30 3419 H 324.71 3.91147 -1.63645 0
M  V30 3420 C 323.169 3.35921 -0.256616 0
M  V30 3421 O 323.699 3.96194 0.662798 0
M  V30 3422 N 321.905 2.90204 -0.151751 0
M  V30 3423 H 321.452 2.41336 -0.90081 0
M  V30 3424 H 321.41 3.06492 0.700699 0
M  V30 3425 N 325.182 1.32811 0.848464 0
M  V30 3426 C 326.112 1.24882 1.97299 0
M  V30 3427 C 327.093 0.131357 1.69592 0
M  V30 3428 O 328.278 0.319553 1.91553 0
M  V30 3429 C 325.408 0.97746 3.33261 0
M  V30 3430 C 324.362 2.05682 3.75338 0
M  V30 3431 C 323.688 1.63777 5.09 0
M  V30 3432 C 324.988 3.47254 3.90144 0
M  V30 3433 H 326.682 2.18966 2.04191 0
M  V30 3434 H 324.228 1.05413 0.981029 0
M  V30 3435 H 326.181 0.908513 4.1149 0
M  V30 3436 H 324.905 0.000980011 3.266 0
M  V30 3437 H 323.564 2.11603 2.99366 0
M  V30 3438 H 323.212 0.648569 4.98801 0
M  V30 3439 H 322.912 2.36 5.38124 0
M  V30 3440 H 324.436 1.5833 5.89715 0
M  V30 3441 H 325.85 3.43888 4.58709 0
M  V30 3442 H 324.247 4.1788 4.30693 0
M  V30 3443 H 325.317 3.86462 2.92874 0
M  V30 3444 N 326.66 -1.06551 1.16123 0
M  V30 3445 C 327.592 -2.13908 0.823171 0
M  V30 3446 C 328.605 -1.61926 -0.16843 0
M  V30 3447 O 329.794 -1.78412 0.055962 0
M  V30 3448 C 326.894 -3.38283 0.204424 0
M  V30 3449 C 326.067 -4.19589 1.23548 0
M  V30 3450 C 325.126 -5.2233 0.637011 0
M  V30 3451 O 324.152 -5.54034 1.30516 0
M  V30 3452 N 325.354 -5.77621 -0.577474 0
M  V30 3453 H 328.119 -2.43508 1.74711 0
M  V30 3454 H 325.68 -1.2253 1.05821 0
M  V30 3455 H 327.672 -4.0416 -0.208909 0
M  V30 3456 H 326.242 -3.06329 -0.623012 0
M  V30 3457 H 325.462 -3.49406 1.82507 0
M  V30 3458 H 326.75 -4.70718 1.93137 0
M  V30 3459 H 326.148 -5.54125 -1.13853 0
M  V30 3460 H 324.705 -6.45087 -0.933053 0
M  V30 3461 N 328.138 -0.959301 -1.25041 0
M  V30 3462 C 329.554 -0.664474 -1.4511 0
M  V30 3463 C 329.754 0.776481 -1.85938 0
M  V30 3464 O 328.81 1.55128 -1.99227 0
M  V30 3465 C 330.123 -1.64139 -2.5195 0
M  V30 3466 C 331.671 -1.65309 -2.65786 0
M  V30 3467 C 332.146 -2.61777 -3.75815 0
M  V30 3468 N 333.637 -2.60169 -3.83231 0
M  V30 3469 C 334.372 -3.31489 -4.6787 0
M  V30 3470 N 333.868 -4.12298 -5.56761 0
M  V30 3471 N 335.661 -3.20354 -4.61876 0
M  V30 3472 H 327.812 -1.89043 -0.968332 0
M  V30 3473 H 330.075 -0.813408 -0.4869 0
M  V30 3474 H 329.781 -2.67086 -2.28819 0
M  V30 3475 H 329.655 -1.40756 -3.49954 0
M  V30 3476 H 332.042 -0.630778 -2.8828 0
M  V30 3477 H 332.123 -1.92753 -1.68167 0
M  V30 3478 H 331.767 -3.64137 -3.54071 0
M  V30 3479 H 331.697 -2.31616 -4.72929 0
M  V30 3480 H 334.188 -2.01507 -3.19692 0
M  V30 3481 H 334.501 -4.63625 -6.18281 0
M  V30 3482 H 332.846 -4.16395 -5.56454 0
M  V30 3483 H 336.037 -2.56692 -3.91442 0
M  V30 3484 H 336.21 -3.76201 -5.27614 0
M  V30 3485 N 329.616 1.39756 -0.72842 0
M  V30 3486 C 330.864 2.00248 -0.272946 0
M  V30 3487 C 331.185 1.58077 1.14178 0
M  V30 3488 O 330.455 0.826014 1.77634 0
M  V30 3489 H 329.035 0.740554 -0.0979247 0
M  V30 3490 H 331.697 1.70903 -0.936912 0
M  V30 3491 H 330.793 3.10495 -0.316142 0
M  V30 3492 N 331.094 0.475555 1.50254 0
M  V30 3493 C 332.324 -0.0753399 2.06463 0
M  V30 3494 C 332.732 -1.33661 1.33908 0
M  V30 3495 O 332.075 -1.79219 0.403257 0
M  V30 3496 C 332.137 -0.424921 3.5698 0
M  V30 3497 C 331.801 0.734965 4.51051 0
M  V30 3498 C 332.798 1.61827 4.94073 0
M  V30 3499 C 330.483 0.926557 4.9368 0
M  V30 3500 C 332.477 2.67754 5.78434 0
M  V30 3501 C 330.164 1.98904 5.77824 0
M  V30 3502 C 331.162 2.8629 6.20103 0
M  V30 3503 O 330.85 3.90708 7.02568 0
M  V30 3504 H 330.582 0.00576308 0.675975 0
M  V30 3505 H 333.136 0.664662 1.94349 0
M  V30 3506 H 331.366 -1.21817 3.67012 0
M  V30 3507 H 333.055 -0.911422 3.95535 0
M  V30 3508 H 333.821 1.48196 4.61804 0
M  V30 3509 H 329.7 0.25584 4.6029 0
M  V30 3510 H 333.244 3.35992 6.11355 0
M  V30 3511 H 329.141 2.12541 6.09505 0
M  V30 3512 H 329.909 3.87751 7.20827 0
M  V30 3513 N 332.573 -1.56217 0.208337 0
M  V30 3514 C 333.801 -2.02337 -0.43215 0
M  V30 3515 C 334.216 -1.08834 -1.54275 0
M  V30 3516 O 333.573 -0.0955462 -1.8225 0
M  V30 3517 C 333.624 -3.48072 -0.976138 0
M  V30 3518 O 333.345 -4.38007 0.0901621 0
M  V30 3519 C 334.846 -4.09773 -1.69119 0
M  V30 3520 H 332.066 -0.662385 -0.10718 0
M  V30 3521 H 334.61 -2.01966 0.320923 0
M  V30 3522 H 332.765 -3.49099 -1.67954 0
M  V30 3523 H 333.179 -5.23543 -0.316701 0
M  V30 3524 H 334.653 -5.13556 -2.02397 0
M  V30 3525 H 335.13 -3.53999 -2.59964 0
M  V30 3526 H 335.736 -4.12556 -1.03332 0
M  V30 3527 N 334.051 0.0651679 -1.57465 0
M  V30 3528 C 335.014 1.06117 -2.03155 0
M  V30 3529 C 336.014 1.31204 -0.929632 0
M  V30 3530 O 337.204 1.26813 -1.19432 0
M  V30 3531 C 334.336 2.4032 -2.41783 0
M  V30 3532 H 335.529 0.667231 -2.92383 0
M  V30 3533 H 333.082 0.311075 -1.53173 0
M  V30 3534 H 333.817 2.84532 -1.55601 0
M  V30 3535 H 333.602 2.23451 -3.22199 0
M  V30 3536 H 335.092 3.11898 -2.77685 0
M  V30 3537 N 335.529 1.53961 0.336706 0
M  V30 3538 C 336.476 1.82428 1.41381 0
M  V30 3539 C 337.446 0.670444 1.51968 0
M  V30 3540 O 338.631 0.915565 1.67398 0
M  V30 3541 C 335.771 2.04564 2.77934 0
M  V30 3542 C 334.884 3.32267 2.76084 0
M  V30 3543 C 334.019 3.44434 4.04399 0
M  V30 3544 C 333.058 4.66061 3.96804 0
M  V30 3545 N 332.195 4.75224 5.16823 0
M  V30 3546 H 337.035 2.74324 1.16405 0
M  V30 3547 H 334.572 1.35869 0.563752 0
M  V30 3548 H 336.53 2.15388 3.57301 0
M  V30 3549 H 335.16 1.15974 3.01247 0
M  V30 3550 H 334.212 3.3025 1.88784 0
M  V30 3551 H 335.524 4.21733 2.66351 0
M  V30 3552 H 334.678 3.54728 4.92192 0
M  V30 3553 H 333.417 2.53037 4.16921 0
M  V30 3554 H 332.422 4.55838 3.07396 0
M  V30 3555 H 333.647 5.58829 3.85858 0
M  V30 3556 H 331.593 3.86739 5.29876 0
M  V30 3557 H 331.51 5.58636 5.09374 0
M  V30 3558 H 332.778 4.89835 6.06367 0
M  V30 3559 N 337.007 -0.598083 1.45811 0
M  V30 3560 C 337.917 -1.73632 1.57763 0
M  V30 3561 C 338.933 -1.67763 0.461676 0
M  V30 3562 O 340.109 -1.87949 0.723685 0
M  V30 3563 C 337.174 -3.10114 1.55018 0
M  V30 3564 C 336.235 -3.27364 2.77726 0
M  V30 3565 C 335.468 -4.57334 2.75102 0
M  V30 3566 O 335.691 -5.40258 1.8297 0
M  V30 3567 O 334.625 -4.77502 3.66437 0
M  V30 3568 H 338.451 -1.66498 2.53992 0
M  V30 3569 H 336.036 -0.763308 1.28429 0
M  V30 3570 H 337.918 -3.9141 1.56129 0
M  V30 3571 H 336.593 -3.17718 0.619431 0
M  V30 3572 H 335.5 -2.45619 2.82174 0
M  V30 3573 H 336.833 -3.24641 3.69958 0
M  V30 3574 N 338.485 -1.33259 -0.841409 0
M  V30 3575 C 339.415 -1.25926 -1.96634 0
M  V30 3576 C 340.396 -0.140349 -1.6952 0
M  V30 3577 O 341.581 -0.329707 -1.91381 0
M  V30 3578 C 338.711 -0.99512 -3.32738 0
M  V30 3579 C 337.665 -2.0767 -3.74242 0
M  V30 3580 C 336.991 -1.66474 -5.08125 0
M  V30 3581 C 338.291 -3.49318 -3.88297 0
M  V30 3582 H 339.985 -2.20046 -2.03027 0
M  V30 3583 H 337.531 -1.05931 -0.975425 0
M  V30 3584 H 339.484 -0.930323 -4.11002 0
M  V30 3585 H 338.208 -0.0183004 -3.26595 0
M  V30 3586 H 336.867 -2.13187 -2.98239 0
M  V30 3587 H 336.515 -0.675012 -4.9845 0
M  V30 3588 H 336.215 -2.3885 -5.36865 0
M  V30 3589 H 337.739 -1.61455 -5.88867 0
M  V30 3590 H 339.153 -3.46316 -4.56879 0
M  V30 3591 H 337.55 -4.20158 -4.28471 0
M  V30 3592 H 338.62 -3.8801 -2.9082 0
M  V30 3593 N 339.963 1.05934 -1.16686 0
M  V30 3594 C 340.911 2.15603 -0.872817 0
M  V30 3595 C 341.905 1.68647 0.159576 0
M  V30 3596 O 343.111 1.79995 0.0132125 0
M  V30 3597 H 339.486 0.703885 -0.264671 0
M  V30 3598 H 341.457 2.37613 -1.80507 0
M  V30 3599 C 340.206 3.45457 -0.394344 0
M  V30 3600 H 339.529 3.81984 -1.18019 0
M  V30 3601 H 340.969 4.2339 -0.227408 0
M  V30 3602 C 339.428 3.25021 0.88673 0
M  V30 3603 O 339.958 3.50906 1.95519 0
M  V30 3604 N 338.164 2.78437 0.831925 0
M  V30 3605 H 337.711 2.57572 -0.0377619 0
M  V30 3606 H 337.669 2.65144 1.68956 0
M  V30 3607 N 341.441 0.965919 1.2453 0
M  V30 3608 C 342.687 0.62776 1.92839 0
M  V30 3609 C 343.02 -0.834694 1.75347 0
M  V30 3610 O 342.295 -1.60031 1.10546 0
M  V30 3611 C 342.578 1.00109 3.45905 0
M  V30 3612 C 342.431 2.52011 3.72573 0
M  V30 3613 C 343.75 0.53435 4.36844 0
M  V30 3614 H 340.869 0.229537 0.700344 0
M  V30 3615 H 343.511 1.2046 1.46933 0
M  V30 3616 H 341.661 0.510238 3.85135 0
M  V30 3617 H 343.333 3.08559 3.42912 0
M  V30 3618 H 341.576 2.95287 3.17786 0
M  V30 3619 H 342.247 2.73183 4.79661 0
M  V30 3620 H 344.723 0.955565 4.04979 0
M  V30 3621 H 343.599 0.824152 5.42678 0
M  V30 3622 H 343.86 -0.565589 4.38467 0
M  V30 3623 N 342.919 -1.39368 0.735821 0
M  V30 3624 C 344.144 -2.05319 0.293052 0
M  V30 3625 C 344.569 -1.55115 -1.064 0
M  V30 3626 O 343.927 -0.695261 -1.67439 0
M  V30 3627 C 343.975 -3.59305 0.305323 0
M  V30 3628 O 343.079 -4.06299 -0.706761 0
M  V30 3629 H 342.42 -0.650529 0.13307 0
M  V30 3630 H 344.95 -1.78386 1.00197 0
M  V30 3631 H 344.96 -4.07724 0.149997 0
M  V30 3632 H 343.635 -3.95207 1.29553 0
M  V30 3633 H 342.212 -3.69292 -0.517504 0
M  V30 3634 N 344.397 -0.483516 -1.5 0
M  V30 3635 C 345.644 0.0671597 -2.02389 0
M  V30 3636 C 345.972 1.38597 -1.36459 0
M  V30 3637 O 345.227 1.89634 -0.483458 0
M  V30 3638 C 345.526 0.286226 -3.56252 0
M  V30 3639 C 345.192 -0.952416 -4.40726 0
M  V30 3640 C 343.854 -1.29199 -4.63531 0
M  V30 3641 C 346.206 -1.77655 -4.89988 0
M  V30 3642 C 343.534 -2.45553 -5.32842 0
M  V30 3643 C 345.886 -2.93147 -5.60578 0
M  V30 3644 C 344.55 -3.27505 -5.81633 0
M  V30 3645 H 343.82 0.0245755 -0.740592 0
M  V30 3646 H 346.467 -0.640124 -1.80485 0
M  V30 3647 H 344.772 1.07587 -3.76739 0
M  V30 3648 H 346.469 0.726473 -3.94365 0
M  V30 3649 H 343.059 -0.677881 -4.23205 0
M  V30 3650 H 347.243 -1.52737 -4.72213 0
M  V30 3651 H 342.499 -2.72431 -5.47349 0
M  V30 3652 H 346.673 -3.57344 -5.97727 0
M  V30 3653 H 344.3 -4.1777 -6.35116 0
M  V30 3654 N 345.875 1.56104 -0.216619 0
M  V30 3655 C 347.124 1.97348 0.416744 0
M  V30 3656 C 347.437 1.10715 1.6125 0
M  V30 3657 O 348.643 1.41836 2.31506 0
M  V30 3658 C 347.099 3.51059 0.792835 0
M  V30 3659 C 346.707 4.46387 -0.379828 0
M  V30 3660 C 348.451 4.01026 1.39208 0
M  V30 3661 C 346.358 5.91397 0.0184223 0
M  V30 3662 H 345.288 0.736942 0.159475 0
M  V30 3663 H 347.939 1.80827 -0.31205 0
M  V30 3664 H 346.321 3.63162 1.57891 0
M  V30 3665 H 347.495 4.46029 -1.15737 0
M  V30 3666 H 345.81 4.06734 -0.891979 0
M  V30 3667 H 348.407 5.0686 1.70286 0
M  V30 3668 H 348.75 3.46587 2.30614 0
M  V30 3669 H 349.283 3.92125 0.669537 0
M  V30 3670 H 346.022 6.49807 -0.862002 0
M  V30 3671 H 345.542 5.94961 0.760384 0
M  V30 3672 H 347.221 6.45455 0.446818 0
M  V30 3673 N 347.353 -0.0568162 1.57498 0
M  V30 3674 C 348.301 -1.08452 2.05769 0
M  V30 3675 C 349.295 -1.39164 0.965903 0
M  V30 3676 O 350.501 -1.38395 1.15095 0
M  V30 3677 H 346.876 -0.367148 0.656282 0
M  V30 3678 H 348.847 -0.651368 2.91204 0
M  V30 3679 C 347.596 -2.38543 2.52968 0
M  V30 3680 H 346.919 -2.15765 3.36579 0
M  V30 3681 H 348.359 -3.08863 2.90481 0
M  V30 3682 C 346.818 -3.05562 1.41893 0
M  V30 3683 O 347.348 -3.94262 0.769442 0
M  V30 3684 N 345.554 -2.6643 1.16032 0
M  V30 3685 H 345.101 -1.94387 1.6903 0
M  V30 3686 H 345.059 -3.11593 0.419219 0
M  V30 3687 N 348.832 -1.54138 -0.328536 0
M  V30 3688 C 349.742 -1.86192 -1.42723 0
M  V30 3689 C 350.758 -0.753382 -1.56844 0
M  V30 3690 O 351.934 -1.04718 -1.72035 0
M  V30 3691 C 348.999 -2.07824 -2.77507 0
M  V30 3692 C 348.06 -3.31641 -2.72603 0
M  V30 3693 C 347.293 -3.52232 -4.00959 0
M  V30 3694 O 347.516 -2.7636 -4.9898 0
M  V30 3695 O 346.45 -4.45699 -4.0452 0
M  V30 3696 H 350.276 -2.79608 -1.18547 0
M  V30 3697 H 347.861 -1.3998 -0.522104 0
M  V30 3698 H 349.743 -2.23411 -3.57303 0
M  V30 3699 H 348.418 -1.17596 -3.01584 0
M  V30 3700 H 347.325 -3.21444 -1.91376 0
M  V30 3701 H 348.658 -4.2191 -2.53481 0
M  V30 3702 N 350.31 0.590341 -1.46126 0
M  V30 3703 C 351.257 1.69994 -1.56111 0
M  V30 3704 C 352.227 1.61065 -0.405867 0
M  V30 3705 O 353.412 1.8039 -0.621613 0
M  V30 3706 C 350.552 3.08326 -1.55013 0
M  V30 3707 C 349.665 3.27936 -2.81215 0
M  V30 3708 C 348.8 4.56473 -2.71673 0
M  V30 3709 C 347.839 4.694 -3.92849 0
M  V30 3710 N 346.976 5.89254 -3.81738 0
M  V30 3711 H 351.816 1.60797 -2.50895 0
M  V30 3712 H 349.353 0.783799 -1.24479 0
M  V30 3713 H 351.311 3.88383 -1.52362 0
M  V30 3714 H 349.941 3.16439 -0.637667 0
M  V30 3715 H 348.993 2.41536 -2.93879 0
M  V30 3716 H 350.305 3.33357 -3.71045 0
M  V30 3717 H 349.459 5.44748 -2.67085 0
M  V30 3718 H 348.198 4.53477 -1.7947 0
M  V30 3719 H 347.203 3.79544 -3.97777 0
M  V30 3720 H 348.428 4.7418 -4.86138 0
M  V30 3721 H 346.374 5.87271 -2.92317 0
M  V30 3722 H 346.291 5.95911 -4.65217 0
M  V30 3723 H 347.559 6.79981 -3.81112 0
M  V30 3724 N 351.788 1.33704 0.83433 0
M  V30 3725 C 353.204 1.13137 1.12571 0
M  V30 3726 C 353.404 -0.0747261 2.01361 0
M  V30 3727 O 352.46 -0.753647 2.4099 0
M  V30 3728 C 353.773 2.42105 1.78342 0
M  V30 3729 C 355.321 2.48054 1.90888 0
M  V30 3730 C 355.796 3.76995 2.60075 0
M  V30 3731 N 357.287 3.78092 2.67584 0
M  V30 3732 C 358.022 4.74574 3.21818 0
M  V30 3733 N 357.518 5.81434 3.76705 0
M  V30 3734 N 359.311 4.62044 3.20112 0
M  V30 3735 H 351.462 2.11 0.243489 0
M  V30 3736 H 353.725 0.932532 0.17055 0
M  V30 3737 H 353.431 3.30391 1.20561 0
M  V30 3738 H 353.305 2.54594 2.7832 0
M  V30 3739 H 355.692 1.60215 2.47821 0
M  V30 3740 H 355.773 2.39502 0.898459 0
M  V30 3741 H 355.417 4.65219 2.03799 0
M  V30 3742 H 355.347 3.82825 3.61597 0
M  V30 3743 H 357.838 3.00865 2.28667 0
M  V30 3744 H 358.151 6.51084 4.16305 0
M  V30 3745 H 356.496 5.85163 3.7498 0
M  V30 3746 H 359.687 3.77716 2.76493 0
M  V30 3747 H 359.86 5.37406 3.62076 0
M  V30 3748 N 353.266 -1.05314 1.17247 0
M  V30 3749 C 354.496 -1.81707 0.983166 0
M  V30 3750 C 354.904 -1.83222 -0.471822 0
M  V30 3751 O 354.247 -1.25721 -1.3394 0
M  V30 3752 C 354.309 -3.29134 1.44606 0
M  V30 3753 C 353.973 -3.51304 2.92292 0
M  V30 3754 C 354.97 -3.4353 3.90235 0
M  V30 3755 C 352.655 -3.78306 3.30439 0
M  V30 3756 C 354.649 -3.62442 5.24323 0
M  V30 3757 C 352.336 -3.96866 4.64694 0
M  V30 3758 C 353.334 -3.88933 5.61445 0
M  V30 3759 O 353.022 -4.06976 6.93272 0
M  V30 3760 H 352.754 -0.579476 0.348114 0
M  V30 3761 H 355.308 -1.33705 1.55924 0
M  V30 3762 H 353.538 -3.78046 0.813537 0
M  V30 3763 H 355.227 -3.87049 1.22262 0
M  V30 3764 H 355.993 -3.22648 3.62109 0
M  V30 3765 H 351.872 -3.83585 2.55702 0
M  V30 3766 H 355.416 -3.56165 5.99827 0
M  V30 3767 H 351.313 -4.1724 4.92525 0
M  V30 3768 H 352.081 -4.24209 6.99992 0
M  V30 3769 N 354.744 -0.972509 -1.24016 0
M  V30 3770 C 356.16 -0.679827 -1.44397 0
M  V30 3771 C 356.36 0.756716 -1.86751 0
M  V30 3772 O 355.416 1.53007 -2.00861 0
M  V30 3773 C 356.729 -1.66803 -2.50195 0
M  V30 3774 C 358.277 -1.68119 -2.64017 0
M  V30 3775 C 358.752 -2.65748 -3.73017 0
M  V30 3776 N 360.243 -2.64219 -3.8045 0
M  V30 3777 C 360.978 -3.36433 -4.64328 0
M  V30 3778 N 360.474 -4.1818 -5.52356 0
M  V30 3779 N 362.267 -3.25235 -4.58453 0
M  V30 3780 H 354.418 -1.90059 -0.948228 0
M  V30 3781 H 356.681 -0.818527 -0.478245 0
M  V30 3782 H 356.387 -2.69498 -2.25973 0
M  V30 3783 H 356.261 -1.4446 -3.48441 0
M  V30 3784 H 358.648 -0.661319 -2.87594 0
M  V30 3785 H 358.729 -1.94525 -1.66113 0
M  V30 3786 H 358.373 -3.67872 -3.50189 0
M  V30 3787 H 358.303 -2.36619 -4.70446 0
M  V30 3788 H 360.794 -2.04887 -3.17537 0
M  V30 3789 H 361.107 -4.70157 -6.13329 0
M  V30 3790 H 359.452 -4.22273 -5.52006 0
M  V30 3791 H 362.643 -2.60829 -3.88698 0
M  V30 3792 H 362.816 -3.81776 -5.23594 0
M  V30 3793 N 356.222 1.38976 -0.743202 0
M  V30 3794 C 357.469 2.00343 -0.294752 0
M  V30 3795 C 357.797 1.58983 1.12047 0
M  V30 3796 O 357.052 0.813809 1.77977 0
M  V30 3797 C 357.351 3.55647 -0.353517 0
M  V30 3798 C 357.017 4.16685 -1.72292 0
M  V30 3799 C 355.679 4.3307 -2.09771 0
M  V30 3800 C 358.031 4.50464 -2.62168 0
M  V30 3801 C 355.359 4.80526 -3.36618 0
M  V30 3802 C 357.711 4.99332 -3.88395 0
M  V30 3803 C 356.375 5.13924 -4.25956 0
M  V30 3804 H 355.645 0.733108 -0.107857 0
M  V30 3805 H 358.292 1.6618 -0.951651 0
M  V30 3806 H 356.597 3.89884 0.386954 0
M  V30 3807 H 358.294 4.00998 0.0117269 0
M  V30 3808 H 354.884 4.04339 -1.42155 0
M  V30 3809 H 359.068 4.37416 -2.3448 0
M  V30 3810 H 354.324 4.90008 -3.65653 0
M  V30 3811 H 358.498 5.2444 -4.58187 0
M  V30 3812 H 356.125 5.50457 -5.2431 0
M  V30 3813 N 357.7 0.491464 1.49741 0
M  V30 3814 C 358.632 -0.328609 2.26832 0
M  V30 3815 C 359.645 -0.939113 1.32983 0
M  V30 3816 O 360.834 -0.824067 1.58339 0
M  V30 3817 C 357.934 -1.47675 3.05033 0
M  V30 3818 C 357.107 -0.975305 4.26388 0
M  V30 3819 C 356.166 -1.99991 4.86714 0
M  V30 3820 O 355.192 -1.57229 5.47054 0
M  V30 3821 N 356.394 -3.32962 4.75517 0
M  V30 3822 H 359.159 0.332377 2.97851 0
M  V30 3823 H 356.72 0.323441 1.58636 0
M  V30 3824 H 358.712 -2.15954 3.42266 0
M  V30 3825 H 357.282 -2.04206 2.36683 0
M  V30 3826 H 356.502 -0.117723 3.94024 0
M  V30 3827 H 357.79 -0.618531 5.05026 0
M  V30 3828 H 357.188 -3.70399 4.27576 0
M  V30 3829 H 355.745 -3.96982 5.16961 0
M  V30 3830 N 359.178 -1.55987 0.224894 0
M  V30 3831 C 360.126 -2.21808 -0.700283 0
M  V30 3832 C 361.12 -1.19854 -1.19714 0
M  V30 3833 O 362.326 -1.37925 -1.15658 0
M  V30 3834 H 358.701 -0.711226 -0.244258 0
M  V30 3835 H 360.672 -2.98152 -0.121749 0
M  V30 3836 C 359.421 -2.91444 -1.8962 0
M  V30 3837 H 358.744 -3.69655 -1.52299 0
M  V30 3838 H 360.184 -3.40894 -2.52125 0
M  V30 3839 C 358.643 -1.94098 -2.75368 0
M  V30 3840 O 359.173 -1.46004 -3.74227 0
M  V30 3841 N 357.379 -1.61675 -2.41474 0
M  V30 3842 H 356.926 -2.00979 -1.61137 0
M  V30 3843 H 356.884 -0.968036 -2.99126 0
M  V30 3844 N 360.656 0.0484629 -1.57525 0
M  V30 3845 C 361.588 1.08222 -2.02041 0
M  V30 3846 C 362.601 1.33621 -0.930012 0
M  V30 3847 O 363.79 1.3145 -1.20761 0
M  V30 3848 C 360.89 2.42818 -2.36416 0
M  V30 3849 C 360.063 2.37049 -3.67596 0
M  V30 3850 C 359.122 3.53937 -3.89378 0
M  V30 3851 O 358.148 3.34308 -4.60681 0
M  V30 3852 N 359.35 4.75126 -3.3352 0
M  V30 3853 H 362.115 0.702946 -2.9134 0
M  V30 3854 H 359.676 0.236745 -1.6016 0
M  V30 3855 H 361.668 3.197 -2.48141 0
M  V30 3856 H 360.238 2.72661 -1.52888 0
M  V30 3857 H 359.458 1.45395 -3.66407 0
M  V30 3858 H 360.746 2.30318 -4.53686 0
M  V30 3859 H 360.144 4.93976 -2.75688 0
M  V30 3860 H 358.701 5.49439 -3.50656 0
M  V30 3861 N 362.134 1.5431 0.320358 0
M  V30 3862 C 363.38 1.72924 1.05949 0
M  V30 3863 C 363.713 0.503185 1.87568 0
M  V30 3864 O 362.988 -0.499839 1.87968 0
M  V30 3865 C 363.271 3.00676 1.98156 0
M  V30 3866 C 363.124 4.3354 1.19845 0
M  V30 3867 C 364.443 3.24198 2.9763 0
M  V30 3868 H 361.562 0.629195 0.383774 0
M  V30 3869 H 364.204 1.87008 0.335854 0
M  V30 3870 H 362.354 2.888 2.59859 0
M  V30 3871 H 364.026 4.57305 0.605773 0
M  V30 3872 H 362.269 4.309 0.500784 0
M  V30 3873 H 362.94 5.19156 1.87567 0
M  V30 3874 H 365.416 3.35557 2.4605 0
M  V30 3875 H 364.292 4.14938 3.59329 0
M  V30 3876 H 364.553 2.41577 3.7026 0
M  V30 3877 N 363.613 -0.582584 1.46437 0
M  V30 3878 C 364.89 -1.34276 1.4223 0
M  V30 3879 C 365.27 -2.10835 0.10583 0
M  V30 3880 O 364.618 -2.09485 -0.912596 0
M  V30 3881 C 364.828 -2.26865 2.65204 0
M  V30 3882 C 366.176 -2.88691 3.11356 0
M  V30 3883 O 367.2 -2.37178 2.65753 0
M  V30 3884 O 366.059 -3.82255 3.90568 0
M  V30 3885 H 363.153 -0.603326 0.565621 0
M  V30 3886 H 365.699 -0.603591 1.58603 0
M  V30 3887 H 364.471 -1.69724 3.52576 0
M  V30 3888 H 364.094 -3.08122 2.5129 0
M  V30 3889 N 365.091 -1.34144 -0.827227 0
M  V30 3890 C 366.038 -1.25364 -1.93785 0
M  V30 3891 C 367.008 -0.129774 -1.65592 0
M  V30 3892 O 368.193 -0.310024 -1.88264 0
M  V30 3893 C 365.333 -1.01064 -3.2997 0
M  V30 3894 C 364.446 -2.22185 -3.70484 0
M  V30 3895 C 363.581 -1.91203 -4.95595 0
M  V30 3896 C 362.62 -3.08491 -5.28677 0
M  V30 3897 N 361.757 -2.77421 -6.44967 0
M  V30 3898 H 366.597 -2.20347 -2.00627 0
M  V30 3899 H 364.134 -1.09558 -0.981608 0
M  V30 3900 H 366.092 -0.850139 -4.08446 0
M  V30 3901 H 364.722 -0.0975026 -3.22653 0
M  V30 3902 H 363.774 -2.4917 -2.87434 0
M  V30 3903 H 365.086 -3.0983 -3.90905 0
M  V30 3904 H 364.24 -1.71864 -5.81848 0
M  V30 3905 H 362.979 -1.00812 -4.77167 0
M  V30 3906 H 361.984 -3.28431 -4.40923 0
M  V30 3907 H 363.209 -3.99655 -5.49047 0
M  V30 3908 H 361.155 -1.89601 -6.28003 0
M  V30 3909 H 361.072 -3.58598 -6.6554 0
M  V30 3910 H 362.34 -2.61577 -7.34301 0
M  V30 3911 N 366.569 1.04691 -1.17803 0
M  V30 3912 C 367.502 2.12068 -0.842765 0
M  V30 3913 C 368.48 1.61455 0.192608 0
M  V30 3914 O 369.664 1.88359 0.072995 0
M  V30 3915 C 366.791 3.37715 -0.258063 0
M  V30 3916 C 365.837 4.07164 -1.26962 0
M  V30 3917 S 366.67 4.55047 -2.82299 0
M  V30 3918 C 367.826 5.83935 -2.25323 0
M  V30 3919 H 368.059 2.4018 -1.75217 0
M  V30 3920 H 365.592 1.17366 -1.00323 0
M  V30 3921 H 367.55 4.10435 0.0727935 0
M  V30 3922 H 366.211 3.0773 0.629357 0
M  V30 3923 H 365.404 4.9746 -0.809263 0
M  V30 3924 H 365.006 3.40533 -1.54639 0
M  V30 3925 H 367.298 6.57552 -1.63192 0
M  V30 3926 H 368.241 6.34725 -3.13894 0
M  V30 3927 H 368.649 5.3874 -1.68582 0
M  V30 3928 N 368.047 0.979072 1.23499 0
M  V30 3929 C 368.994 0.517904 2.24914 0
M  V30 3930 C 369.964 -0.442525 1.60097 0
M  V30 3931 O 371.149 -0.350365 1.87556 0
M  V30 3932 C 368.289 -0.174813 3.44657 0
M  V30 3933 C 367.402 0.825721 4.24035 0
M  V30 3934 C 366.537 0.107946 5.3109 0
M  V30 3935 C 365.576 1.09778 6.02175 0
M  V30 3936 N 364.713 0.40925 7.00906 0
M  V30 3937 H 369.553 1.38751 2.63727 0
M  V30 3938 H 367.09 0.695303 1.2963 0
M  V30 3939 H 369.048 -0.593233 4.12961 0
M  V30 3940 H 367.678 -1.0083 3.06648 0
M  V30 3941 H 366.73 1.36253 3.55161 0
M  V30 3942 H 368.042 1.58005 4.73113 0
M  V30 3943 H 367.196 -0.367904 6.05583 0
M  V30 3944 H 365.935 -0.678994 4.8295 0
M  V30 3945 H 364.94 1.5844 5.26476 0
M  V30 3946 H 366.165 1.88536 6.52404 0
M  V30 3947 H 364.111 -0.358506 6.5502 0
M  V30 3948 H 364.028 1.10226 7.47921 0
M  V30 3949 H 365.296 -0.0442557 7.79487 0
M  V30 3950 N 369.525 -1.3858 0.750561 0
M  V30 3951 C 370.435 -2.34278 0.122825 0
M  V30 3952 C 371.451 -1.59116 -0.704131 0
M  V30 3953 O 372.627 -1.91326 -0.628987 0
M  V30 3954 C 369.692 -3.38221 -0.762086 0
M  V30 3955 C 368.753 -4.29227 0.078896 0
M  V30 3956 C 367.986 -5.28205 -0.763874 0
M  V30 3957 O 368.209 -5.34112 -2.00201 0
M  V30 3958 O 367.143 -6.01618 -0.18428 0
M  V30 3959 H 370.969 -2.89649 0.913088 0
M  V30 3960 H 368.554 -1.40374 0.511417 0
M  V30 3961 H 370.436 -4.01872 -1.26793 0
M  V30 3962 H 369.111 -2.85211 -1.5309 0
M  V30 3963 H 368.018 -3.68747 0.630621 0
M  V30 3964 H 369.351 -4.85484 0.810289 0
M  V30 3965 N 371.003 -0.499398 -1.49478 0
M  V30 3966 C 371.95 0.279881 -2.29097 0
M  V30 3967 C 372.92 0.961805 -1.3542 0
M  V30 3968 O 374.105 0.968777 -1.64376 0
M  V30 3969 C 371.245 1.33932 -3.18051 0
M  V30 3970 C 370.358 0.669333 -4.26783 0
M  V30 3971 C 369.493 1.70907 -5.02955 0
M  V30 3972 C 368.532 1.02087 -6.03527 0
M  V30 3973 N 367.669 2.00474 -6.7287 0
M  V30 3974 H 372.509 -0.405317 -2.95231 0
M  V30 3975 H 370.046 -0.211726 -1.45568 0
M  V30 3976 H 372.004 1.96553 -3.67998 0
M  V30 3977 H 370.634 1.9933 -2.53904 0
M  V30 3978 H 369.686 -0.0701234 -3.80335 0
M  V30 3979 H 370.998 0.127503 -4.98637 0
M  V30 3980 H 370.152 2.41037 -5.56764 0
M  V30 3981 H 368.891 2.28476 -4.30871 0
M  V30 3982 H 367.896 0.305338 -5.48951 0
M  V30 3983 H 369.121 0.451708 -6.77596 0
M  V30 3984 H 367.067 2.57007 -6.03559 0
M  V30 3985 H 366.984 1.51353 -7.40694 0
M  V30 3986 H 368.252 2.69897 -7.31284 0
M  V30 3987 N 372.481 1.55866 -0.233164 0
M  V30 3988 C 373.727 1.98897 0.395959 0
M  V30 3989 C 374.06 1.12091 1.58585 0
M  V30 3990 O 373.335 0.181182 1.93654 0
M  V30 3991 C 373.618 3.50658 0.819224 0
M  V30 3992 C 373.471 4.48233 -0.375109 0
M  V30 3993 C 374.79 4.07135 1.67121 0
M  V30 3994 H 371.909 0.723102 0.142451 0
M  V30 3995 H 374.551 1.87082 -0.331725 0
M  V30 3996 H 372.701 3.60857 1.43925 0
M  V30 3997 H 374.373 4.50031 -1.01341 0
M  V30 3998 H 372.616 4.21624 -1.02058 0
M  V30 3999 H 373.287 5.51988 -0.0358328 0
M  V30 4000 H 375.763 3.99952 1.14795 0
M  V30 4001 H 374.639 5.13615 1.93625 0
M  V30 4002 H 374.9 3.54736 2.63846 0
M  V30 4003 N 373.959 -0.0401083 1.57549 0
M  V30 4004 C 374.906 -1.04413 2.05831 0
M  V30 4005 C 375.876 -1.36585 0.945184 0
M  V30 4006 O 377.061 -1.47112 1.21502 0
M  V30 4007 C 374.201 -2.34336 2.53339 0
M  V30 4008 C 373.314 -2.08419 3.78398 0
M  V30 4009 C 372.449 -3.32133 4.14561 0
M  V30 4010 C 371.488 -3.01721 5.3257 0
M  V30 4011 N 370.625 -4.17855 5.64218 0
M  V30 4012 H 375.465 -0.625442 2.91363 0
M  V30 4013 H 373.002 -0.297218 1.44066 0
M  V30 4014 H 374.96 -3.10234 2.78946 0
M  V30 4015 H 373.59 -2.73948 1.7074 0
M  V30 4016 H 372.642 -1.23069 3.59942 0
M  V30 4017 H 373.954 -1.81978 4.64419 0
M  V30 4018 H 373.108 -4.16406 4.41238 0
M  V30 4019 H 371.847 -3.61678 3.2717 0
M  V30 4020 H 370.852 -2.15849 5.05657 0
M  V30 4021 H 372.077 -2.73466 6.21605 0
M  V30 4022 H 370.023 -4.47372 4.79786 0
M  V30 4023 H 369.94 -3.94798 6.44725 0
M  V30 4024 H 371.208 -5.03033 5.95465 0
M  V30 4025 N 375.437 -1.54477 -0.31217 0
M  V30 4026 C 376.385 -1.85395 -1.40469 0
M  V30 4027 C 377.379 -0.726749 -1.53019 0
M  V30 4028 O 378.585 -0.910582 -1.55269 0
M  V30 4029 H 374.96 -0.587845 -0.46898 0
M  V30 4030 H 376.931 -2.76736 -1.11623 0
M  V30 4031 C 375.68 -2.10811 -2.76503 0
M  V30 4032 H 375.003 -2.97014 -2.67625 0
M  V30 4033 H 376.443 -2.3639 -3.51988 0
M  V30 4034 C 374.902 -0.903165 -3.24568 0
M  V30 4035 O 375.432 -0.118085 -4.01526 0
M  V30 4036 N 373.638 -0.711634 -2.81752 0
M  V30 4037 H 373.185 -1.35171 -2.19286 0
M  V30 4038 H 373.143 0.0930473 -3.14262 0
M  V30 4039 N 376.915 0.57481 -1.46744 0
M  V30 4040 C 378.161 1.3347 -1.52688 0
M  V30 4041 C 378.494 1.93353 -0.181229 0
M  V30 4042 O 377.769 1.76912 0.808237 0
M  V30 4043 C 378.052 2.45811 -2.63152 0
M  V30 4044 C 377.905 1.90912 -4.07275 0
M  V30 4045 C 379.224 3.47822 -2.69644 0
M  V30 4046 H 376.343 0.483935 -0.555856 0
M  V30 4047 H 378.985 0.644968 -1.78718 0
M  V30 4048 H 377.135 3.04646 -2.41088 0
M  V30 4049 H 378.807 1.36473 -4.4065 0
M  V30 4050 H 377.05 1.21691 -4.16382 0
M  V30 4051 H 377.721 2.72042 -4.80309 0
M  V30 4052 H 380.197 2.9888 -2.895 0
M  V30 4053 H 379.073 4.23876 -3.48742 0
M  V30 4054 H 379.334 4.05555 -1.76005 0
M  V30 4055 N 378.394 1.34581 0.820102 0
M  V30 4056 C 379.304 1.28471 1.96297 0
M  V30 4057 C 380.32 0.191902 1.72939 0
M  V30 4058 O 381.496 0.418879 1.96996 0
M  V30 4059 C 378.561 1.04281 3.30645 0
M  V30 4060 C 377.622 2.22745 3.66992 0
M  V30 4061 C 376.855 1.997 4.9493 0
M  V30 4062 O 377.078 0.956656 5.6232 0
M  V30 4063 O 376.012 2.86723 5.2922 0
M  V30 4064 H 379.838 2.24624 2.04396 0
M  V30 4065 H 377.423 1.14816 0.955913 0
M  V30 4066 H 379.305 0.925841 4.11104 0
M  V30 4067 H 377.98 0.111697 3.23507 0
M  V30 4068 H 376.887 2.40003 2.86966 0
M  V30 4069 H 378.22 3.14257 3.78819 0
M  V30 4070 N 379.872 -1.04064 1.18357 0
M  V30 4071 C 380.782 -2.15569 0.925596 0
M  V30 4072 C 381.798 -1.7365 -0.110295 0
M  V30 4073 O 382.974 -2.01273 0.0716218 0
M  V30 4074 C 380.039 -3.43704 0.454836 0
M  V30 4075 C 379.1 -4.00004 1.55869 0
M  V30 4076 C 378.333 -5.22023 1.1103 0
M  V30 4077 O 378.556 -5.70392 -0.0309756 0
M  V30 4078 O 377.49 -5.70856 1.90805 0
M  V30 4079 H 381.316 -2.40187 1.8586 0
M  V30 4080 H 378.901 -1.1402 0.965394 0
M  V30 4081 H 380.783 -4.20923 0.200382 0
M  V30 4082 H 379.458 -3.20559 -0.449876 0
M  V30 4083 H 378.365 -3.24172 1.86716 0
M  V30 4084 H 379.698 -4.2749 2.43953 0
M  V30 4085 N 381.35 -0.985608 -1.22978 0
M  V30 4086 C 382.766 -0.695104 -1.43668 0
M  V30 4087 C 382.966 0.736866 -1.87543 0
M  V30 4088 O 382.022 1.50868 -2.02473 0
M  V30 4089 C 383.335 -1.69447 -2.48412 0
M  V30 4090 C 384.883 -1.70909 -2.62219 0
M  V30 4091 C 385.358 -2.6969 -3.70178 0
M  V30 4092 N 386.849 -2.6824 -3.77626 0
M  V30 4093 C 387.584 -3.41339 -4.60733 0
M  V30 4094 N 387.08 -4.24015 -5.4789 0
M  V30 4095 N 388.873 -3.30079 -4.54977 0
M  V30 4096 H 381.024 -1.91054 -0.928016 0
M  V30 4097 H 383.287 -0.823553 -0.469536 0
M  V30 4098 H 382.993 -2.7188 -2.23102 0
M  V30 4099 H 382.867 -1.48147 -3.46889 0
M  V30 4100 H 385.254 -0.691785 -2.86877 0
M  V30 4101 H 385.335 -1.96276 -1.6404 0
M  V30 4102 H 384.979 -3.71566 -3.46268 0
M  V30 4103 H 384.909 -2.41595 -4.67909 0
M  V30 4104 H 387.4 -2.08243 -3.15346 0
M  V30 4105 H 387.713 -4.76636 -6.08308 0
M  V30 4106 H 386.058 -4.28104 -5.47496 0
M  V30 4107 H 389.249 -2.64937 -3.85909 0
M  V30 4108 H 389.422 -3.87308 -5.19516 0
M  V30 4109 N 382.828 1.3818 -0.7579 0
M  V30 4110 C 384.053 2.04827 -0.325679 0
M  V30 4111 C 384.478 1.56788 1.03919 0
M  V30 4112 O 383.836 0.721811 1.66312 0
M  V30 4113 C 383.884 3.58774 -0.362447 0
M  V30 4114 O 382.988 4.07372 0.642033 0
M  V30 4115 H 382.329 0.64833 -0.143402 0
M  V30 4116 H 384.859 1.7677 -1.03023 0
M  V30 4117 H 384.869 4.07434 -0.214844 0
M  V30 4118 H 383.544 3.93096 -1.35824 0
M  V30 4119 H 382.121 3.70068 0.458688 0
M  V30 4120 N 384.306 0.507319 1.49211 0
M  V30 4121 C 385.253 -0.267728 2.29242 0
M  V30 4122 C 386.223 -0.954609 1.35928 0
M  V30 4123 O 387.408 -0.960046 1.64887 0
M  V30 4124 C 384.548 -1.32243 3.18756 0
M  V30 4125 C 383.661 -0.64669 4.27132 0
M  V30 4126 C 382.796 -1.68238 5.03855 0
M  V30 4127 C 381.835 -0.98885 6.0406 0
M  V30 4128 N 380.972 -1.96903 6.73924 0
M  V30 4129 H 385.812 0.420968 2.95012 0
M  V30 4130 H 383.349 0.219443 1.45454 0
M  V30 4131 H 385.307 -1.94599 3.69036 0
M  V30 4132 H 383.937 -1.97981 2.54958 0
M  V30 4133 H 382.989 0.0902926 3.80293 0
M  V30 4134 H 384.301 -0.101058 4.98698 0
M  V30 4135 H 383.455 -2.38081 5.58034 0
M  V30 4136 H 382.194 -2.26187 4.32077 0
M  V30 4137 H 381.199 -0.276222 5.49106 0
M  V30 4138 H 382.424 -0.415767 6.77826 0
M  V30 4139 H 380.37 -2.53803 6.04913 0
M  V30 4140 H 380.287 -1.47423 7.41487 0
M  V30 4141 H 381.555 -2.66015 7.32705 0
M  V30 4142 N 385.784 -1.5574 0.241426 0
M  V30 4143 C 386.694 -2.2479 -0.671305 0
M  V30 4144 C 387.71 -1.26217 -1.19772 0
M  V30 4145 O 388.886 -1.59079 -1.23514 0
M  V30 4146 C 385.951 -2.92966 -1.85396 0
M  V30 4147 C 385.012 -4.06935 -1.36756 0
M  V30 4148 C 384.245 -4.71851 -2.49384 0
M  V30 4149 O 384.468 -4.35823 -3.67987 0
M  V30 4150 O 383.402 -5.60467 -2.19454 0
M  V30 4151 H 387.228 -3.0349 -0.112966 0
M  V30 4152 H 384.813 -1.49397 0.0101513 0
M  V30 4153 H 386.695 -3.35927 -2.54423 0
M  V30 4154 H 385.37 -2.17211 -2.40002 0
M  V30 4155 H 384.277 -3.68503 -0.644726 0
M  V30 4156 H 385.61 -4.84492 -0.867647 0
M  V30 4157 N 387.262 0.0317525 -1.57568 0
M  V30 4158 C 388.509 0.723104 -1.89149 0
M  V30 4159 C 388.837 1.75504 -0.838377 0
M  V30 4160 O 388.092 1.95037 0.160982 0
M  V30 4161 C 388.391 1.43167 -3.27472 0
M  V30 4162 C 388.057 0.535972 -4.47703 0
M  V30 4163 C 386.719 0.289262 -4.8033 0
M  V30 4164 C 389.071 -0.0826125 -5.21135 0
M  V30 4165 C 386.399 -0.584853 -5.83778 0
M  V30 4166 C 388.751 -0.944414 -6.25511 0
M  V30 4167 C 387.415 -1.20061 -6.56614 0
M  V30 4168 H 386.685 0.264602 -0.692146 0
M  V30 4169 H 389.332 -0.0169496 -1.91492 0
M  V30 4170 H 387.637 2.24497 -3.21105 0
M  V30 4171 H 389.334 1.97209 -3.49155 0
M  V30 4172 H 385.924 0.738414 -4.22191 0
M  V30 4173 H 390.108 0.0950302 -4.96209 0
M  V30 4174 H 385.364 -0.79168 -6.06253 0
M  V30 4175 H 389.538 -1.43026 -6.81554 0
M  V30 4176 H 387.165 -1.87967 -7.36595 0
M  V30 4177 N 388.74 1.54641 0.303973 0
M  V30 4178 C 389.986 1.74038 1.04109 0
M  V30 4179 C 390.319 0.523051 1.87024 0
M  V30 4180 O 389.594 -0.479874 1.88487 0
M  V30 4181 C 389.877 3.02761 1.94955 0
M  V30 4182 C 389.73 4.34787 1.1524 0
M  V30 4183 C 391.049 3.27336 2.94175 0
M  V30 4184 H 388.168 0.63323 0.377079 0
M  V30 4185 H 390.81 1.87354 0.316001 0
M  V30 4186 H 388.96 2.9154 2.56782 0
M  V30 4187 H 390.632 4.57922 0.557236 0
M  V30 4188 H 388.875 4.31407 0.455053 0
M  V30 4189 H 389.546 5.21116 1.8205 0
M  V30 4190 H 392.022 3.38148 2.42477 0
M  V30 4191 H 390.898 4.18726 3.54908 0
M  V30 4192 H 391.159 2.45491 3.67677 0
M  V30 4193 N 390.218 -0.567019 1.47046 0
M  V30 4194 C 391.166 -1.69593 1.59188 0
M  V30 4195 C 392.16 -1.63046 0.459609 0
M  V30 4196 O 393.366 -1.6835 0.637058 0
M  V30 4197 H 389.741 -0.560993 0.500791 0
M  V30 4198 H 391.712 -1.56488 2.54075 0
M  V30 4199 C 390.461 -3.07964 1.61411 0
M  V30 4200 H 389.784 -3.13679 2.47881 0
M  V30 4201 H 391.224 -3.86671 1.73958 0
M  V30 4202 C 389.683 -3.35123 0.34559 0
M  V30 4203 O 390.213 -3.97812 -0.557521 0
M  V30 4204 N 388.419 -2.89699 0.22864 0
M  V30 4205 H 387.966 -2.38863 0.964479 0
M  V30 4206 H 387.924 -3.08242 -0.619192 0
M  V30 4207 N 391.696 -1.35014 -0.812953 0
M  V30 4208 C 393.112 -1.14914 -1.10757 0
M  V30 4209 C 393.312 0.0426818 -2.01455 0
M  V30 4210 O 392.368 0.715212 -2.42159 0
M  V30 4211 C 393.681 -2.44911 -1.74468 0
M  V30 4212 C 395.229 -2.5106 -1.86917 0
M  V30 4213 C 395.704 -3.81085 -2.54044 0
M  V30 4214 N 397.195 -3.82301 -2.61535 0
M  V30 4215 C 397.93 -4.79634 -3.14227 0
M  V30 4216 N 397.426 -5.87353 -3.67407 0
M  V30 4217 N 399.219 -4.67078 -3.12721 0
M  V30 4218 H 391.37 -2.1136 -0.20989 0
M  V30 4219 H 393.633 -0.935128 -0.155692 0
M  V30 4220 H 393.339 -3.32267 -1.15289 0
M  V30 4221 H 393.213 -2.58989 -2.74234 0
M  V30 4222 H 395.6 -1.64137 -2.45241 0
M  V30 4223 H 395.681 -2.40901 -0.860242 0
M  V30 4224 H 395.325 -4.68402 -1.96372 0
M  V30 4225 H 395.255 -3.88529 -3.55461 0
M  V30 4226 H 397.746 -3.04465 -2.23851 0
M  V30 4227 H 398.059 -6.57624 -4.05894 0
M  V30 4228 H 396.404 -5.91054 -3.65623 0
M  V30 4229 H 399.595 -3.82067 -2.70449 0
M  V30 4230 H 399.768 -5.43098 -3.53481 0
M  V30 4231 N 393.175 1.03435 -1.18907 0
M  V30 4232 C 394.421 1.77005 -0.989798 0
M  V30 4233 C 394.754 1.88205 0.478816 0
M  V30 4234 O 394.029 1.39481 1.35556 0
M  V30 4235 C 394.312 3.19925 -1.65287 0
M  V30 4236 C 394.165 3.1663 -3.19477 0
M  V30 4237 C 395.484 4.18189 -1.37134 0
M  V30 4238 H 392.603 0.642538 -0.360991 0
M  V30 4239 H 395.245 1.20784 -1.46667 0
M  V30 4240 H 393.395 3.67929 -1.24741 0
M  V30 4241 H 395.067 2.76567 -3.692 0
M  V30 4242 H 393.31 2.54491 -3.51307 0
M  V30 4243 H 393.981 4.1758 -3.61013 0
M  V30 4244 H 396.457 3.78761 -1.72276 0
M  V30 4245 H 395.333 5.16394 -1.86087 0
M  V30 4246 H 395.594 4.41112 -0.295424 0
M  V30 4247 N 394.653 0.992116 1.22453 0
M  V30 4248 C 395.563 0.55065 2.28046 0
M  V30 4249 C 396.579 -0.400189 1.69335 0
M  V30 4250 O 397.755 -0.267215 1.99619 0
M  V30 4251 C 394.82 -0.128496 3.46462 0
M  V30 4252 C 393.881 0.865208 4.20491 0
M  V30 4253 C 393.114 0.218377 5.33253 0
M  V30 4254 O 393.337 -0.987894 5.6178 0
M  V30 4255 O 392.271 0.922845 5.94783 0
M  V30 4256 H 396.097 1.4291 2.67975 0
M  V30 4257 H 393.682 0.760326 1.28606 0
M  V30 4258 H 395.564 -0.508947 4.18315 0
M  V30 4259 H 394.239 -0.981526 3.0846 0
M  V30 4260 H 393.146 1.29658 3.50913 0
M  V30 4261 H 394.479 1.68741 4.62371 0
M  V30 4262 N 396.131 -1.37776 0.765217 0
M  V30 4263 C 397.041 -2.34135 0.147666 0
M  V30 4264 C 398.057 -1.59854 -0.687215 0
M  V30 4265 O 399.233 -1.91983 -0.608659 0
M  V30 4266 C 396.298 -3.3901 -0.72617 0
M  V30 4267 C 395.359 -4.2912 0.124417 0
M  V30 4268 C 394.592 -5.28986 -0.707807 0
M  V30 4269 O 394.815 -5.36205 -1.94525 0
M  V30 4270 O 393.749 -6.01779 -0.12046 0
M  V30 4271 H 397.575 -2.88664 0.943758 0
M  V30 4272 H 395.16 -1.39824 0.526277 0
M  V30 4273 H 397.042 -4.03195 -1.22524 0
M  V30 4274 H 395.717 -2.86819 -1.50056 0
M  V30 4275 H 394.624 -3.68057 0.669696 0
M  V30 4276 H 395.957 -4.84598 0.861736 0
M  V30 4277 N 397.609 -0.515225 -1.4894 0
M  V30 4278 C 398.556 0.255567 -2.29381 0
M  V30 4279 C 399.526 0.947387 -1.36432 0
M  V30 4280 O 400.711 0.951288 -1.65394 0
M  V30 4281 C 397.851 1.30551 -3.19453 0
M  V30 4282 C 396.964 0.624029 -4.27469 0
M  V30 4283 C 396.099 1.65563 -5.0474 0
M  V30 4284 C 395.138 0.956802 -6.04576 0
M  V30 4285 N 394.275 1.93326 -6.74959 0
M  V30 4286 H 399.115 -0.436607 -2.94784 0
M  V30 4287 H 396.652 -0.227154 -1.45336 0
M  V30 4288 H 398.61 1.92639 -3.70062 0
M  V30 4289 H 397.24 1.96626 -2.56004 0
M  V30 4290 H 396.292 -0.110459 -3.8024 0
M  V30 4291 H 397.604 0.0746092 -4.98744 0
M  V30 4292 H 396.758 2.35119 -5.59289 0
M  V30 4293 H 395.497 2.23893 -4.3327 0
M  V30 4294 H 394.502 0.247097 -5.49244 0
M  V30 4295 H 395.727 0.379814 -6.78037 0
M  V30 4296 H 393.673 2.50591 -6.06251 0
M  V30 4297 H 393.59 1.43489 -7.42258 0
M  V30 4298 H 394.858 2.62126 -7.34105 0
M  V30 4299 N 399.087 1.5561 -0.249682 0
M  V30 4300 C 400.312 2.03865 0.381305 0
M  V30 4301 C 400.737 1.12769 1.50548 0
M  V30 4302 O 400.095 0.121189 1.80895 0
M  V30 4303 C 400.143 3.50101 0.863816 0
M  V30 4304 O 399.247 3.62132 1.97318 0
M  V30 4305 H 398.588 0.658827 0.0827194 0
M  V30 4306 H 401.118 2.01105 -0.376552 0
M  V30 4307 H 401.128 3.90975 1.1663 0
M  V30 4308 H 399.803 4.1588 0.0411816 0
M  V30 4309 H 398.38 3.33155 1.67517 0
M  V30 4310 N 400.565 -0.0233959 1.57583 0
M  V30 4311 C 401.515 -1.03023 2.03397 0
M  V30 4312 C 402.499 -1.31701 0.924315 0
M  V30 4313 O 403.691 -1.31191 1.18819 0
M  V30 4314 C 400.82 -2.32961 2.52159 0
M  V30 4315 C 399.906 -2.07349 3.69956 0
M  V30 4316 N 400.297 -1.51814 4.82479 0
M  V30 4317 C 398.595 -2.37606 3.77438 0
M  V30 4318 C 399.296 -1.42136 5.64068 0
M  V30 4319 N 398.272 -1.89891 5.09355 0
M  V30 4320 H 402.074 -0.594962 2.87815 0
M  V30 4321 H 399.588 -0.229586 1.60769 0
M  V30 4322 H 401.585 -3.05906 2.83244 0
M  V30 4323 H 400.245 -2.77162 1.69149 0
M  V30 4324 H 401.256 -1.20008 5.03804 0
M  V30 4325 H 397.933 -2.84842 3.05239 0
M  V30 4326 H 399.323 -0.996405 6.64471 0
M  V30 4327 N 402.043 -1.548 -0.295768 0
M  V30 4328 C 403.32 -1.65014 -1.05023 0
M  V30 4329 C 403.7 -0.501805 -2.05049 0
M  V30 4330 O 403.048 0.500869 -2.22943 0
M  V30 4331 C 403.258 -3.03252 -1.72741 0
M  V30 4332 C 404.606 -3.60242 -2.24746 0
M  V30 4333 O 405.63 -3.05737 -1.82765 0
M  V30 4334 O 404.489 -4.55687 -3.01681 0
M  V30 4335 H 401.583 -0.669314 -0.485744 0
M  V30 4336 H 404.129 -1.67144 -0.293438 0
M  V30 4337 H 402.901 -3.7827 -1.00138 0
M  V30 4338 H 402.524 -3.04922 -2.55163 0
M  V30 4339 N 403.521 0.559213 -1.47345 0
M  V30 4340 C 404.451 1.67622 -1.62558 0
M  V30 4341 C 405.432 1.63331 -0.475087 0
M  V30 4342 O 406.617 1.80983 -0.704182 0
M  V30 4343 C 403.747 3.0626 -1.63774 0
M  V30 4344 C 402.701 3.25397 -2.7803 0
M  V30 4345 C 402.027 4.64801 -2.64318 0
M  V30 4346 C 403.327 3.10965 -4.19641 0
M  V30 4347 H 405.021 1.55146 -2.56067 0
M  V30 4348 H 402.567 0.744961 -1.23233 0
M  V30 4349 H 404.52 3.84247 -1.73008 0
M  V30 4350 H 403.244 3.1969 -0.66825 0
M  V30 4351 H 401.903 2.49817 -2.68304 0
M  V30 4352 H 401.551 4.75028 -1.65401 0
M  V30 4353 H 401.251 4.78555 -3.40968 0
M  V30 4354 H 402.775 5.44926 -2.75478 0
M  V30 4355 H 404.189 3.78772 -4.30354 0
M  V30 4356 H 402.586 3.36229 -4.97062 0
M  V30 4357 H 403.656 2.07736 -4.38148 0
M  V30 4358 N 404.999 1.35443 0.805782 0
M  V30 4359 C 406.248 1.28097 1.55801 0
M  V30 4360 C 406.561 -0.142428 1.95081 0
M  V30 4361 O 407.767 -0.33817 2.69386 0
M  V30 4362 C 406.223 2.24653 2.81174 0
M  V30 4363 C 405.831 3.72342 2.49129 0
M  V30 4364 C 407.575 2.2625 3.59181 0
M  V30 4365 C 405.482 4.60719 3.70799 0
M  V30 4366 H 404.412 0.475937 0.584808 0
M  V30 4367 H 407.063 1.60712 0.885661 0
M  V30 4368 H 405.445 1.85011 3.50124 0
M  V30 4369 H 406.619 4.20624 1.88181 0
M  V30 4370 H 404.934 3.73361 1.84366 0
M  V30 4371 H 407.531 2.89495 4.49552 0
M  V30 4372 H 407.874 1.26647 3.96568 0
M  V30 4373 H 408.407 2.64426 2.97193 0
M  V30 4374 H 405.146 5.61324 3.3852 0
M  V30 4375 H 404.666 4.17163 4.3097 0
M  V30 4376 H 406.345 4.76182 4.38018 0
M  V30 4377 N 406.477 -1.02803 1.19454 0
M  V30 4378 C 407.409 -2.11181 0.890807 0
M  V30 4379 C 408.422 -1.6238 -0.116829 0
M  V30 4380 O 409.611 -1.78144 0.112694 0
M  V30 4381 C 406.711 -3.37461 0.311942 0
M  V30 4382 C 405.884 -4.15446 1.36834 0
M  V30 4383 C 404.943 -5.20039 0.802864 0
M  V30 4384 O 403.969 -5.49602 1.48077 0
M  V30 4385 N 405.171 -5.79165 -0.393417 0
M  V30 4386 H 407.936 -2.37827 1.82369 0
M  V30 4387 H 405.497 -1.19101 1.09666 0
M  V30 4388 H 407.489 -4.0462 -0.0802225 0
M  V30 4389 H 406.059 -3.08156 -0.52524 0
M  V30 4390 H 405.279 -3.43423 1.93531 0
M  V30 4391 H 406.567 -4.64335 2.08015 0
M  V30 4392 H 405.965 -5.57466 -0.961658 0
M  V30 4393 H 404.522 -6.47729 -0.727351 0
M  V30 4394 N 407.956 -0.998596 -1.21925 0
M  V30 4395 C 408.903 -0.553621 -2.24062 0
M  V30 4396 C 409.873 0.416999 -1.6078 0
M  V30 4397 O 411.058 0.320482 -1.88089 0
M  V30 4398 C 408.198 0.119959 -3.44891 0
M  V30 4399 C 407.311 -0.893077 -4.22668 0
M  V30 4400 C 406.446 -0.192424 -5.30851 0
M  V30 4401 C 405.485 -1.19344 -6.00353 0
M  V30 4402 N 404.622 -0.520707 -7.00166 0
M  V30 4403 H 409.462 -1.4293 -2.61486 0
M  V30 4404 H 406.999 -0.715838 -1.28507 0
M  V30 4405 H 408.957 0.527459 -4.13852 0
M  V30 4406 H 407.587 0.959389 -3.08214 0
M  V30 4407 H 406.639 -1.41886 -3.52948 0
M  V30 4408 H 407.951 -1.65512 -4.70539 0
M  V30 4409 H 407.105 0.271515 -6.06092 0
M  V30 4410 H 405.844 0.602075 -4.83969 0
M  V30 4411 H 404.849 -1.66795 -5.23889 0
M  V30 4412 H 406.074 -1.98891 -6.49322 0
M  V30 4413 H 404.02 0.254252 -6.55507 0
M  V30 4414 H 403.937 -1.2211 -7.46073 0
M  V30 4415 H 405.205 -0.0797596 -7.79459 0
M  V30 4416 N 409.434 1.37368 -0.772513 0
M  V30 4417 C 410.68 2.00423 -0.3467 0
M  V30 4418 C 411.035 1.60224 1.06518 0
M  V30 4419 O 410.328 0.838712 1.72268 0
M  V30 4420 C 410.522 3.54817 -0.428876 0
M  V30 4421 C 410.351 4.10011 -1.84719 0
M  V30 4422 C 409.121 4.40927 -2.46803 0
M  V30 4423 C 411.319 4.30955 -2.80681 0
M  V30 4424 N 409.301 4.8184 -3.80399 0
M  V30 4425 C 410.672 4.74486 -3.99078 0
M  V30 4426 C 412.727 4.1309 -2.77958 0
M  V30 4427 C 411.43 5.02023 -5.15136 0
M  V30 4428 C 413.456 4.41764 -3.9319 0
M  V30 4429 C 412.818 4.85535 -5.10328 0
M  V30 4430 H 408.917 0.762413 -0.173927 0
M  V30 4431 H 411.501 1.66666 -1.00651 0
M  V30 4432 H 409.672 3.87881 0.200757 0
M  V30 4433 H 411.404 4.04696 0.0190668 0
M  V30 4434 H 408.159 4.30033 -1.98415 0
M  V30 4435 H 408.583 5.06604 -4.49089 0
M  V30 4436 H 413.225 3.7842 -1.88568 0
M  V30 4437 H 410.943 5.35582 -6.05126 0
M  V30 4438 H 414.529 4.29528 -3.92425 0
M  V30 4439 H 413.409 5.07296 -5.98013 0
M  V30 4440 N 410.912 0.523116 1.48665 0
M  V30 4441 C 411.822 -0.247406 2.33292 0
M  V30 4442 C 412.838 -0.945769 1.46052 0
M  V30 4443 O 414.014 -0.922253 1.79043 0
M  V30 4444 C 411.079 -1.28487 3.22012 0
M  V30 4445 C 410.14 -0.597592 4.2512 0
M  V30 4446 C 409.373 -1.58563 5.09601 0
M  V30 4447 O 409.596 -2.81763 4.95949 0
M  V30 4448 O 408.53 -1.12879 5.91221 0
M  V30 4449 H 412.356 0.445869 3.00409 0
M  V30 4450 H 409.941 0.284128 1.46673 0
M  V30 4451 H 411.823 -1.88459 3.7691 0
M  V30 4452 H 410.498 -1.96068 2.57564 0
M  V30 4453 H 409.405 0.0424407 3.74076 0
M  V30 4454 H 410.738 0.0361517 4.92187 0
M  V30 4455 N 412.39 -1.55475 0.257931 0
M  V30 4456 C 413.3 -2.2549 -0.647425 0
M  V30 4457 C 414.316 -1.2748 -1.18427 0
M  V30 4458 O 415.492 -1.6038 -1.2182 0
M  V30 4459 C 412.557 -2.94916 -1.82278 0
M  V30 4460 C 411.618 -4.08363 -1.32432 0
M  V30 4461 C 410.851 -4.74469 -2.44366 0
M  V30 4462 O 411.074 -4.39701 -3.63344 0
M  V30 4463 O 410.008 -5.62763 -2.13497 0
M  V30 4464 H 413.834 -3.03593 -0.0807707 0
M  V30 4465 H 411.419 -1.49377 0.0259962 0
M  V30 4466 H 413.301 -3.38606 -2.50846 0
M  V30 4467 H 411.976 -2.19744 -2.37685 0
M  V30 4468 H 410.883 -3.69166 -0.605605 0
M  V30 4469 H 412.216 -4.85385 -0.816211 0
M  V30 4470 N 413.868 0.0150385 -1.57593 0
M  V30 4471 C 414.815 1.01126 -2.07466 0
M  V30 4472 C 415.785 1.35064 -0.966794 0
M  V30 4473 O 416.97 1.4516 -1.23827 0
M  V30 4474 C 414.11 2.30276 -2.57035 0
M  V30 4475 C 413.223 2.02373 -3.81666 0
M  V30 4476 C 412.358 3.25496 -4.19793 0
M  V30 4477 C 411.397 2.93211 -5.37303 0
M  V30 4478 N 410.534 4.08826 -5.70794 0
M  V30 4479 H 415.374 0.57901 -2.92321 0
M  V30 4480 H 412.911 0.27426 -1.44521 0
M  V30 4481 H 414.869 3.05757 -2.83846 0
M  V30 4482 H 413.499 2.71197 -1.75077 0
M  V30 4483 H 412.551 1.17327 -3.61854 0
M  V30 4484 H 413.863 1.74567 -4.67256 0
M  V30 4485 H 413.017 4.09333 -4.47807 0
M  V30 4486 H 411.756 3.56428 -3.32882 0
M  V30 4487 H 410.761 2.07777 -5.09027 0
M  V30 4488 H 411.986 2.63542 -6.25877 0
M  V30 4489 H 409.932 4.39682 -4.86842 0
M  V30 4490 H 409.849 3.84491 -6.50924 0
M  V30 4491 H 411.117 4.93496 -6.03392 0
M  V30 4492 N 415.346 1.54954 0.287554 0
M  V30 4493 C 416.571 1.79209 1.04397 0
M  V30 4494 C 416.996 0.556431 1.79682 0
M  V30 4495 O 416.354 -0.493518 1.74454 0
M  V30 4496 C 416.402 3.00739 1.98969 0
M  V30 4497 O 415.506 2.74805 3.075 0
M  V30 4498 H 414.847 0.592755 0.299227 0
M  V30 4499 H 417.377 2.02068 0.320886 0
M  V30 4500 H 417.387 3.29077 2.4119 0
M  V30 4501 H 416.062 3.90329 1.43582 0
M  V30 4502 H 414.639 2.57523 2.69697 0
M  V30 4503 N 416.824 -0.551391 1.4764 0
M  V30 4504 C 418.24 -0.877887 1.33287 0
M  V30 4505 C 418.44 -1.98817 0.327721 0
M  V30 4506 O 417.496 -2.51171 -0.258695 0
M  V30 4507 C 418.809 -1.26563 2.72768 0
M  V30 4508 C 420.357 -1.37673 2.81097 0
M  V30 4509 C 420.832 -1.79799 4.21232 0
M  V30 4510 N 422.323 -1.8694 4.23802 0
M  V30 4511 C 423.058 -2.20876 5.29151 0
M  V30 4512 N 422.554 -2.53386 6.448 0
M  V30 4513 N 424.347 -2.217 5.16532 0
M  V30 4514 H 416.498 0.18153 2.11623 0
M  V30 4515 H 418.761 0.0185514 0.947818 0
M  V30 4516 H 418.467 -0.523591 3.47781 0
M  V30 4517 H 418.341 -2.22052 3.04915 0
M  V30 4518 H 420.728 -2.10956 2.06353 0
M  V30 4519 H 420.809 -0.40357 2.52596 0
M  V30 4520 H 420.453 -1.07083 4.96483 0
M  V30 4521 H 420.383 -2.78128 4.4716 0
M  V30 4522 H 422.874 -1.64179 3.40373 0
M  V30 4523 H 423.187 -2.78325 7.20941 0
M  V30 4524 H 421.532 -2.50953 6.48111 0
M  V30 4525 H 424.723 -1.95745 4.25207 0
M  V30 4526 H 424.896 -2.47818 5.98741 0
M  V30 4527 N 418.302 -1.35869 -0.798587 0
M  V30 4528 C 419.212 -1.31578 -1.94228 0
M  V30 4529 C 420.228 -0.21939 -1.72611 0
M  V30 4530 O 421.404 -0.450167 -1.96305 0
M  V30 4531 C 418.469 -1.09528 -3.28944 0
M  V30 4532 C 417.53 -2.28556 -3.63402 0
M  V30 4533 C 416.763 -2.07549 -4.9169 0
M  V30 4534 O 416.986 -1.046 -5.60727 0
M  V30 4535 O 415.92 -2.95106 -5.24591 0
M  V30 4536 H 419.746 -2.27847 -2.00796 0
M  V30 4537 H 417.331 -1.16322 -0.937526 0
M  V30 4538 H 419.213 -0.991127 -4.09579 0
M  V30 4539 H 417.888 -0.16315 -3.23289 0
M  V30 4540 H 416.795 -2.44538 -2.83112 0
M  V30 4541 H 418.128 -3.20244 -3.73771 0
M  V30 4542 N 419.78 1.02168 -1.19998 0
M  V30 4543 C 421.027 1.75685 -1.00702 0
M  V30 4544 C 421.355 1.88947 0.461426 0
M  V30 4545 O 420.61 1.40832 1.35885 0
M  V30 4546 C 420.909 3.18081 -1.62969 0
M  V30 4547 C 420.575 3.24809 -3.12746 0
M  V30 4548 C 419.237 3.26352 -3.53621 0
M  V30 4549 C 421.589 3.23379 -4.08749 0
M  V30 4550 C 418.917 3.2413 -4.89036 0
M  V30 4551 C 421.269 3.22698 -5.44104 0
M  V30 4552 C 419.933 3.22542 -5.84399 0
M  V30 4553 H 419.203 0.642877 -0.368496 0
M  V30 4554 H 421.85 1.19865 -1.49348 0
M  V30 4555 H 420.155 3.77027 -1.06573 0
M  V30 4556 H 421.852 3.73648 -1.45561 0
M  V30 4557 H 418.442 3.2434 -2.80181 0
M  V30 4558 H 422.626 3.21361 -3.78207 0
M  V30 4559 H 417.882 3.22338 -5.19527 0
M  V30 4560 H 422.056 3.20543 -6.18244 0
M  V30 4561 H 419.683 3.20575 -6.89301 0
M  V30 4562 N 421.258 1.00505 1.21394 0
M  V30 4563 C 422.507 0.683159 1.89778 0
M  V30 4564 C 422.82 -0.789471 1.7896 0
M  V30 4565 O 424.026 -1.22344 2.42372 0
M  V30 4566 C 422.482 1.17146 3.40301 0
M  V30 4567 C 422.09 2.67017 3.5973 0
M  V30 4568 C 423.834 0.924461 4.14311 0
M  V30 4569 C 421.741 3.09387 5.04017 0
M  V30 4570 H 420.671 0.25183 0.710702 0
M  V30 4571 H 423.322 1.21622 1.37406 0
M  V30 4572 H 421.704 0.566451 3.91928 0
M  V30 4573 H 422.878 3.32968 3.18542 0
M  V30 4574 H 421.193 2.89732 2.99073 0
M  V30 4575 H 423.79 1.21658 5.20676 0
M  V30 4576 H 424.133 -0.139286 4.16067 0
M  V30 4577 H 424.666 1.49226 3.6875 0
M  V30 4578 H 421.405 4.14989 5.07409 0
M  V30 4579 H 420.925 2.48149 5.46061 0
M  V30 4580 H 422.604 3.01371 5.72525 0
M  V30 4581 N 422.737 -1.36956 0.779787 0
M  V30 4582 C 423.985 -1.99097 0.347079 0
M  V30 4583 C 424.306 -1.62206 -1.08232 0
M  V30 4584 O 423.576 -0.891373 -1.74446 0
M  V30 4585 H 422.156 -0.736409 0.125342 0
M  V30 4586 H 424.818 -1.67308 0.999696 0
M  V30 4587 H 423.914 -3.09107 0.431162 0
M  V30 4588 N 424.215 -0.530993 -1.48385 0
M  V30 4589 C 425.163 0.244595 -2.3131 0
M  V30 4590 C 426.157 0.93451 -1.41291 0
M  V30 4591 O 427.363 0.85878 -1.58193 0
M  V30 4592 H 423.738 0.0977472 -0.74562 0
M  V30 4593 H 425.709 -0.474369 -2.94605 0
M  V30 4594 C 424.458 1.2779 -3.23365 0
M  V30 4595 H 423.781 0.756439 -3.92579 0
M  V30 4596 H 425.221 1.79198 -3.84271 0
M  V30 4597 C 423.68 2.31205 -2.45042 0
M  V30 4598 O 424.21 3.37661 -2.17596 0
M  V30 4599 N 422.416 2.04446 -2.0652 0
M  V30 4600 H 421.963 1.17891 -2.2904 0
M  V30 4601 H 421.921 2.73861 -1.54427 0
M  V30 4602 N 425.693 1.55336 -0.266172 0
M  V30 4603 C 426.94 1.99397 0.353158 0
M  V30 4604 C 427.268 1.15451 1.56529 0
M  V30 4605 O 426.523 0.209974 1.9457 0
M  V30 4606 C 426.822 3.48606 0.787957 0
M  V30 4607 C 426.488 4.49773 -0.318541 0
M  V30 4608 C 425.15 4.77158 -0.62239 0
M  V30 4609 C 427.502 5.10212 -1.06459 0
M  V30 4610 C 424.83 5.62251 -1.67602 0
M  V30 4611 C 427.182 5.96449 -2.10788 0
M  V30 4612 C 425.846 6.22158 -2.41817 0
M  V30 4613 H 425.116 0.729644 0.12923 0
M  V30 4614 H 427.763 1.87732 -0.37802 0
M  V30 4615 H 426.068 3.57701 1.59866 0
M  V30 4616 H 427.765 3.80098 1.27775 0
M  V30 4617 H 424.355 4.2854 -0.0715925 0
M  V30 4618 H 428.539 4.89086 -0.843098 0
M  V30 4619 H 423.795 5.80419 -1.92155 0
M  V30 4620 H 427.969 6.42317 -2.69076 0
M  V30 4621 H 425.596 6.87888 -3.23596 0
M  V30 4622 N 427.171 -0.0066808 1.57599 0
M  V30 4623 C 428.101 -0.999296 2.11036 0
M  V30 4624 C 429.082 -1.36278 1.01795 0
M  V30 4625 O 430.267 -1.4477 1.29442 0
M  V30 4626 C 427.397 -2.29328 2.60818 0
M  V30 4627 C 426.351 -2.07159 3.74525 0
M  V30 4628 C 425.677 -3.42512 4.10596 0
M  V30 4629 C 426.977 -1.43959 5.02069 0
M  V30 4630 H 428.671 -0.554382 2.94223 0
M  V30 4631 H 426.217 -0.265221 1.41536 0
M  V30 4632 H 428.17 -2.99117 2.96828 0
M  V30 4633 H 426.894 -2.7592 1.74745 0
M  V30 4634 H 425.553 -1.39797 3.38899 0
M  V30 4635 H 425.201 -3.86795 3.21556 0
M  V30 4636 H 424.901 -3.28498 4.87199 0
M  V30 4637 H 426.425 -4.13628 4.4916 0
M  V30 4638 H 427.839 -2.03696 5.35893 0
M  V30 4639 H 426.236 -1.40452 5.83432 0
M  V30 4640 H 427.306 -0.407992 4.83181 0
M  V30 4641 N 428.649 -1.55105 -0.279332 0
M  V30 4642 C 429.559 -1.90638 -1.36727 0
M  V30 4643 C 430.575 -0.802899 -1.54368 0
M  V30 4644 O 431.751 -1.10138 -1.68616 0
M  V30 4645 C 428.816 -2.16547 -2.70755 0
M  V30 4646 C 427.877 -3.40146 -2.61915 0
M  V30 4647 C 427.11 -3.6481 -3.8955 0
M  V30 4648 O 427.333 -2.92095 -4.89935 0
M  V30 4649 O 426.267 -4.58343 -3.90135 0
M  V30 4650 H 430.093 -2.83237 -1.09591 0
M  V30 4651 H 427.678 -1.4157 -0.477306 0
M  V30 4652 H 429.56 -2.34665 -3.50014 0
M  V30 4653 H 428.235 -1.27131 -2.9769 0
M  V30 4654 H 427.142 -3.2737 -1.81052 0
M  V30 4655 H 428.475 -4.29761 -2.3993 0
M  V30 4656 N 430.127 0.543554 -1.4793 0
M  V30 4657 C 431.057 1.65888 -1.64327 0
M  V30 4658 C 432.038 1.62818 -0.492383 0
M  V30 4659 O 433.223 1.80226 -0.723338 0
M  V30 4660 C 430.353 3.04506 -1.67013 0
M  V30 4661 C 429.307 3.2243 -2.81466 0
M  V30 4662 C 428.633 4.61972 -2.69233 0
M  V30 4663 C 429.933 3.06496 -4.22915 0
M  V30 4664 H 431.627 1.52421 -2.57698 0
M  V30 4665 H 429.173 0.731849 -1.24016 0
M  V30 4666 H 431.126 3.82391 -1.77074 0
M  V30 4667 H 429.85 3.18964 -0.70212 0
M  V30 4668 H 428.509 2.46957 -2.70938 0
M  V30 4669 H 428.157 4.73247 -1.7043 0
M  V30 4670 H 427.857 4.74911 -3.46025 0
M  V30 4671 H 429.381 5.41974 -2.81242 0
M  V30 4672 H 430.795 3.74186 -4.34348 0
M  V30 4673 H 429.192 3.30938 -5.006 0
M  V30 4674 H 430.262 2.03077 -4.40327 0
M  V30 4675 N 431.605 1.3629 0.791371 0
M  V30 4676 C 432.852 1.30412 1.54916 0
M  V30 4677 C 433.18 -0.117162 1.94147 0
M  V30 4678 O 432.435 -1.08599 1.62803 0
M  V30 4679 C 432.734 2.17068 2.8393 0
M  V30 4680 C 432.4 3.65645 2.63846 0
M  V30 4681 C 431.062 4.0614 2.58077 0
M  V30 4682 C 433.414 4.59855 2.45322 0
M  V30 4683 C 430.742 5.3899 2.31748 0
M  V30 4684 C 433.094 5.9292 2.2052 0
M  V30 4685 C 431.758 6.32542 2.13183 0
M  V30 4686 H 431.028 0.47721 0.566879 0
M  V30 4687 H 433.675 1.68325 0.913172 0
M  V30 4688 H 431.98 1.72085 3.51986 0
M  V30 4689 H 433.677 2.09846 3.4171 0
M  V30 4690 H 430.267 3.33518 2.69191 0
M  V30 4691 H 434.451 4.29443 2.48782 0
M  V30 4692 H 429.707 5.68672 2.24548 0
M  V30 4693 H 433.881 6.65487 2.05182 0
M  V30 4694 H 431.508 7.35412 1.92544 0
M  V30 4695 N 433.083 -1.0153 1.20538 0
M  V30 4696 C 434.331 -1.74803 1.01432 0
M  V30 4697 C 434.652 -1.8963 -0.454456 0
M  V30 4698 O 433.922 -1.43975 -1.32846 0
M  V30 4699 H 432.502 -0.647598 0.372324 0
M  V30 4700 H 435.164 -1.22402 1.5167 0
M  V30 4701 H 434.26 -2.75114 1.47373 0
M  V30 4702 N 434.561 -1.01147 -1.20859 0
M  V30 4703 C 435.972 -0.730205 -1.71828 0
M  V30 4704 C 436.323 0.751662 -1.8123 0
M  V30 4705 O 435.448 1.58686 -1.47132 0
M  V30 4706 C 436.043 -1.31885 -3.12077 0
M  V30 4707 C 434.602 -1.08656 -3.60376 0
M  V30 4708 C 433.749 -1.42769 -2.37723 0
M  V30 4709 H 436.7 -1.18158 -1.05945 0
M  V30 4710 H 436.721 -0.706793 -3.73878 0
M  V30 4711 H 436.233 -2.39737 -3.05201 0
M  V30 4712 H 434.334 -0.0254814 -3.72591 0
M  V30 4713 H 434.447 -1.76301 -4.45483 0
M  V30 4714 H 432.811 -0.846603 -2.40218 0
M  V30 4715 H 433.594 -2.51666 -2.33493 0
M  V30 4716 N 436.039 1.36541 -0.78704 0
M  V30 4717 C 437.316 1.9355 -0.282424 0
M  V30 4718 C 437.696 1.71919 1.22503 0
M  V30 4719 O 437.044 1.07677 2.01539 0
M  V30 4720 C 437.254 3.4246 -0.672462 0
M  V30 4721 C 438.602 4.19582 -0.650863 0
M  V30 4722 O 439.626 3.50889 -0.612789 0
M  V30 4723 O 438.485 5.42106 -0.691623 0
M  V30 4724 H 435.579 0.824091 -0.0693 0
M  V30 4725 H 438.125 1.45736 -0.869423 0
M  V30 4726 H 436.897 3.51851 -1.71221 0
M  V30 4727 H 436.52 3.97556 -0.0592211 0
M  V30 4728 N 437.518 0.538854 1.48102 0
M  V30 4729 C 438.766 0.00798599 2.02098 0
M  V30 4730 C 439.087 -1.33922 1.41739 0
M  V30 4731 O 438.357 -1.86932 0.585934 0
M  V30 4732 H 436.937 -3.62179e-05 0.747 0
M  V30 4733 H 439.599 0.7047 1.81714 0
M  V30 4734 H 438.695 -0.0937672 3.11959 0
M  V30 4735 N 438.996 -1.55193 0.274407 0
M  V30 4736 C 439.959 -2.212 -0.600279 0
M  V30 4737 C 440.959 -1.18963 -1.08187 0
M  V30 4738 O 442.149 -1.43873 -0.982158 0
M  V30 4739 C 439.281 -2.87739 -1.82809 0
M  V30 4740 H 440.474 -2.9989 -0.0239682 0
M  V30 4741 H 438.027 -1.5628 0.0250192 0
M  V30 4742 H 438.762 -2.13058 -2.44493 0
M  V30 4743 H 438.547 -3.62658 -1.49069 0
M  V30 4744 H 440.037 -3.38171 -2.45011 0
M  V30 4745 N 440.474 -0.00167713 -1.576 0
M  V30 4746 C 441.72 0.67819 -1.91761 0
M  V30 4747 C 442.075 1.71288 -0.876256 0
M  V30 4748 O 441.368 1.91276 0.111333 0
M  V30 4749 C 441.562 1.36189 -3.30435 0
M  V30 4750 C 441.391 0.394938 -4.47962 0
M  V30 4751 C 440.161 0.00472875 -5.053 0
M  V30 4752 C 442.359 -0.339521 -5.13178 0
M  V30 4753 N 440.341 -0.960257 -6.06343 0
M  V30 4754 C 441.712 -1.15914 -6.09068 0
M  V30 4755 C 443.767 -0.403177 -4.96265 0
M  V30 4756 C 442.47 -2.03661 -6.89866 0
M  V30 4757 C 444.496 -1.26788 -5.77649 0
M  V30 4758 C 443.858 -2.07535 -6.73134 0
M  V30 4759 H 439.957 0.221317 -0.750028 0
M  V30 4760 H 442.541 -0.0624182 -1.946 0
M  V30 4761 H 440.712 2.07278 -3.28467 0
M  V30 4762 H 442.444 1.99658 -3.52021 0
M  V30 4763 H 439.199 0.373452 -4.72125 0
M  V30 4764 H 439.623 -1.43817 -6.61548 0
M  V30 4765 H 444.265 0.206818 -4.22294 0
M  V30 4766 H 441.983 -2.65727 -7.63161 0
M  V30 4767 H 445.569 -1.32107 -5.66603 0
M  V30 4768 H 444.449 -2.73363 -7.35012 0
M  V30 4769 N 441.952 1.55251 0.271103 0
M  V30 4770 C 442.899 1.88261 1.33516 0
M  V30 4771 C 443.869 0.734296 1.48988 0
M  V30 4772 O 445.054 0.985741 1.63364 0
M  V30 4773 C 442.194 2.16168 2.69008 0
M  V30 4774 C 441.307 3.43678 2.61743 0
M  V30 4775 C 440.442 3.61276 3.89427 0
M  V30 4776 C 439.481 4.82472 3.7668 0
M  V30 4777 N 438.618 4.96717 4.96202 0
M  V30 4778 H 443.458 2.79015 1.04665 0
M  V30 4779 H 440.995 1.38137 0.505618 0
M  V30 4780 H 442.953 2.30349 3.47844 0
M  V30 4781 H 441.583 1.28646 2.96057 0
M  V30 4782 H 440.635 3.37959 1.74607 0
M  V30 4783 H 441.947 4.3265 2.48224 0
M  V30 4784 H 441.101 3.75284 4.76704 0
M  V30 4785 H 439.84 2.70492 4.05814 0
M  V30 4786 H 438.845 4.68465 2.87786 0
M  V30 4787 H 440.07 5.74692 3.61809 0
M  V30 4788 H 438.016 4.08865 5.12997 0
M  V30 4789 H 437.933 5.79738 4.85222 0
M  V30 4790 H 439.201 5.15113 5.85046 0
M  V30 4791 N 443.43 -0.535701 1.48216 0
M  V30 4792 C 444.362 -1.65662 1.58394 0
M  V30 4793 C 445.375 -1.5591 0.468607 0
M  V30 4794 O 446.564 -1.62475 0.7392 0
M  V30 4795 C 443.664 -3.04276 1.4923 0
M  V30 4796 C 442.837 -3.39567 2.75705 0
M  V30 4797 C 441.896 -4.57436 2.60075 0
M  V30 4798 O 440.922 -4.60942 3.33948 0
M  V30 4799 N 442.124 -5.55259 1.69315 0
M  V30 4800 H 444.889 -1.5737 2.55058 0
M  V30 4801 H 442.45 -0.722845 1.44867 0
M  V30 4802 H 444.442 -3.80994 1.36477 0
M  V30 4803 H 443.012 -3.06677 0.605632 0
M  V30 4804 H 442.232 -2.52083 3.03064 0
M  V30 4805 H 443.52 -3.59929 3.59623 0
M  V30 4806 H 442.918 -5.552 1.08489 0
M  V30 4807 H 441.475 -6.31218 1.62504 0
M  V30 4808 N 444.908 -1.36708 -0.784132 0
M  V30 4809 C 445.841 -1.25827 -1.90375 0
M  V30 4810 C 446.819 -0.141331 -1.61985 0
M  V30 4811 O 448.003 -0.313389 -1.85877 0
M  V30 4812 C 445.13 -0.942621 -3.25319 0
M  V30 4813 C 444.176 -2.07474 -3.72635 0
M  V30 4814 S 445.009 -3.69317 -3.8777 0
M  V30 4815 C 446.165 -3.39876 -5.25581 0
M  V30 4816 H 446.398 -2.20593 -1.99314 0
M  V30 4817 H 443.931 -1.22186 -0.943926 0
M  V30 4818 H 445.889 -0.767321 -4.03265 0
M  V30 4819 H 444.55 -0.0126566 -3.14097 0
M  V30 4820 H 443.743 -1.80858 -4.70432 0
M  V30 4821 H 443.345 -2.20953 -3.01754 0
M  V30 4822 H 445.637 -2.94097 -6.10339 0
M  V30 4823 H 446.58 -4.36956 -5.57203 0
M  V30 4824 H 446.988 -2.75098 -4.92931 0
M  V30 4825 N 446.386 1.0089 -1.21074 0
M  V30 4826 C 447.633 1.74607 -1.0256 0
M  V30 4827 C 447.961 1.89426 0.44136 0
M  V30 4828 O 447.216 1.42266 1.34384 0
M  V30 4829 C 447.515 3.16335 -1.66334 0
M  V30 4830 C 447.181 3.21474 -3.16173 0
M  V30 4831 C 445.843 3.22583 -3.57062 0
M  V30 4832 C 448.195 3.19025 -4.12156 0
M  V30 4833 C 445.523 3.18925 -4.92446 0
M  V30 4834 C 447.875 3.16909 -5.47496 0
M  V30 4835 C 446.539 3.16326 -5.87787 0
M  V30 4836 H 445.809 0.638933 -0.375294 0
M  V30 4837 H 448.456 1.18274 -1.50611 0
M  V30 4838 H 446.761 3.75876 -1.10566 0
M  V30 4839 H 448.458 3.72083 -1.49516 0
M  V30 4840 H 445.048 3.2135 -2.83605 0
M  V30 4841 H 449.232 3.17332 -3.81595 0
M  V30 4842 H 444.488 3.16809 -5.22917 0
M  V30 4843 H 448.662 3.13968 -6.21609 0
M  V30 4844 H 446.289 3.13246 -6.92662 0
M  V30 4845 N 447.864 1.01787 1.20321 0
M  V30 4846 C 448.796 0.547357 2.22568 0
M  V30 4847 C 449.809 -0.370922 1.58518 0
M  V30 4848 O 450.998 -0.169067 1.77698 0
M  V30 4849 C 448.098 -0.223031 3.38165 0
M  V30 4850 C 447.271 0.697472 4.31803 0
M  V30 4851 C 446.33 -0.025562 5.26194 0
M  V30 4852 O 445.356 0.597367 5.66057 0
M  V30 4853 N 446.558 -1.29999 5.65757 0
M  V30 4854 H 449.323 1.42668 2.63564 0
M  V30 4855 H 446.884 0.895552 1.34876 0
M  V30 4856 H 448.876 -0.716002 3.98316 0
M  V30 4857 H 447.446 -1.00366 2.9605 0
M  V30 4858 H 446.666 1.37073 3.69601 0
M  V30 4859 H 447.954 1.32347 4.91286 0
M  V30 4860 H 447.352 -1.827 5.35385 0
M  V30 4861 H 445.909 -1.73766 6.28211 0
M  V30 4862 N 449.342 -1.36122 0.79427 0
M  V30 4863 C 450.252 -2.33769 0.197296 0
M  V30 4864 C 451.268 -1.61276 -0.653153 0
M  V30 4865 O 452.444 -1.9323 -0.5678 0
M  V30 4866 C 449.509 -3.40474 -0.654098 0
M  V30 4867 C 448.57 -4.28759 0.215411 0
M  V30 4868 C 447.803 -5.30368 -0.595443 0
M  V30 4869 O 448.026 -5.40211 -1.83107 0
M  V30 4870 O 446.96 -6.019 0.00721351 0
M  V30 4871 H 450.786 -2.86597 1.00478 0
M  V30 4872 H 448.371 -1.38676 0.555818 0
M  V30 4873 H 450.253 -4.05703 -1.13944 0
M  V30 4874 H 448.928 -2.89937 -1.43938 0
M  V30 4875 H 447.835 -3.66554 0.747615 0
M  V30 4876 H 449.168 -4.82661 0.964332 0
M  V30 4877 N 450.82 -0.546701 -1.47814 0
M  V30 4878 C 452.236 -0.205717 -1.58269 0
M  V30 4879 C 452.436 1.29153 -1.54667 0
M  V30 4880 O 451.492 2.07098 -1.44453 0
M  V30 4881 C 452.805 -0.823065 -2.89216 0
M  V30 4882 C 454.353 -0.793328 -3.02779 0
M  V30 4883 C 454.828 -1.38955 -4.36412 0
M  V30 4884 N 456.319 -1.35227 -4.43021 0
M  V30 4885 C 457.054 -1.78333 -5.44963 0
M  V30 4886 N 456.55 -2.29246 -6.53772 0
M  V30 4887 N 458.343 -1.69467 -5.35945 0
M  V30 4888 H 450.494 -1.5196 -1.48398 0
M  V30 4889 H 452.757 -0.633078 -0.705632 0
M  V30 4890 H 452.463 -1.8749 -2.97558 0
M  V30 4891 H 452.337 -0.309915 -3.75925 0
M  V30 4892 H 454.724 0.249784 -2.94041 0
M  V30 4893 H 454.805 -1.34412 -2.17639 0
M  V30 4894 H 454.449 -2.43168 -4.45906 0
M  V30 4895 H 454.379 -0.814291 -5.20266 0
M  V30 4896 H 456.87 -0.979739 -3.64979 0
M  V30 4897 H 457.183 -2.60089 -7.27718 0
M  V30 4898 H 455.528 -2.3325 -6.5469 0
M  V30 4899 H 458.719 -1.29477 -4.49837 0
M  V30 4900 H 458.892 -2.03381 -6.15256 0
M  V30 4901 N 452.299 1.55045 -0.282633 0
M  V30 4902 C 453.524 2.04628 0.337977 0
M  V30 4903 C 453.949 1.15937 1.48123 0
M  V30 4904 O 453.307 0.159532 1.80597 0
M  V30 4905 C 453.355 3.51854 0.78936 0
M  V30 4906 O 452.459 3.66236 1.89592 0
M  V30 4907 H 451.8 0.660434 0.0687261 0
M  V30 4908 H 454.33 2.00261 -0.419124 0
M  V30 4909 H 454.34 3.93361 1.08311 0
M  V30 4910 H 453.015 4.15873 -0.0470419 0
M  V30 4911 H 451.592 3.36633 1.60413 0
M  V30 4912 N 453.777 0.010035 1.57597 0
M  V30 4913 C 455.002 -0.687021 1.95691 0
M  V30 4914 C 455.427 -1.65952 0.885519 0
M  V30 4915 O 454.785 -1.80633 -0.15543 0
M  V30 4916 C 454.833 -1.3864 3.32884 0
M  V30 4917 O 453.937 -2.50115 3.27897 0
M  V30 4918 H 453.278 -0.181989 0.638573 0
M  V30 4919 H 455.808 0.0662122 2.04493 0
M  V30 4920 H 455.818 -1.74754 3.6868 0
M  V30 4921 H 454.493 -0.673411 4.10412 0
M  V30 4922 H 453.07 -2.16253 3.03791 0
M  V30 4923 N 455.255 -1.55392 -0.262866 0
M  V30 4924 C 456.671 -1.47459 -0.610582 0
M  V30 4925 C 456.871 -0.697031 -1.8906 0
M  V30 4926 O 455.927 -0.219952 -2.5154 0
M  V30 4927 C 457.24 -2.91751 -0.728131 0
M  V30 4928 C 458.788 -3.02027 -0.821517 0
M  V30 4929 C 459.263 -4.47594 -0.97076 0
M  V30 4930 N 460.754 -4.51465 -1.03603 0
M  V30 4931 C 461.489 -5.61326 -1.17049 0
M  V30 4932 N 460.985 -6.81032 -1.2715 0
M  V30 4933 N 462.778 -5.49089 -1.20239 0
M  V30 4934 H 454.929 -2.04395 0.577632 0
M  V30 4935 H 457.192 -0.927287 0.197086 0
M  V30 4936 H 456.898 -3.51413 0.142132 0
M  V30 4937 H 456.772 -3.4134 -1.6052 0
M  V30 4938 H 459.159 -2.42456 -1.68224 0
M  V30 4939 H 459.24 -2.55674 0.0803688 0
M  V30 4940 H 458.884 -5.07771 -0.114655 0
M  V30 4941 H 458.814 -4.91613 -1.88745 0
M  V30 4942 H 461.305 -3.6524 -0.96996 0
M  V30 4943 H 461.618 -7.60511 -1.37271 0
M  V30 4944 H 459.963 -6.83824 -1.24136 0
M  V30 4945 H 463.154 -4.54507 -1.11985 0
M  V30 4946 H 463.327 -6.34749 -1.30373 0
M  V30 4947 N 456.733 0.527833 -1.48498 0
M  V30 4948 C 457.666 1.64892 -1.57753 0
M  V30 4949 C 458.644 1.5687 -0.427867 0
M  V30 4950 O 459.828 1.77311 -0.639764 0
M  V30 4951 C 456.955 3.03301 -1.50752 0
M  V30 4952 C 456.001 3.29675 -2.70586 0
M  V30 4953 S 456.834 3.15712 -4.32535 0
M  V30 4954 C 457.99 4.56564 -4.28136 0
M  V30 4955 H 458.223 1.56792 -2.52594 0
M  V30 4956 H 455.756 0.710959 -1.37057 0
M  V30 4957 H 457.714 3.83123 -1.474 0
M  V30 4958 H 456.375 3.08839 -0.572454 0
M  V30 4959 H 455.568 4.3065 -2.61833 0
M  V30 4960 H 455.17 2.57526 -2.71212 0
M  V30 4961 H 457.462 5.48126 -3.98201 0
M  V30 4962 H 458.405 4.70371 -5.29298 0
M  V30 4963 H 458.813 4.35987 -3.58574 0
M  V30 4964 N 458.211 1.37122 0.776871 0
M  V30 4965 C 459.141 1.35164 1.90402 0
M  V30 4966 C 460.122 0.221069 1.68657 0
M  V30 4967 O 461.307 0.420642 1.8959 0
M  V30 4968 C 458.437 1.15274 3.27611 0
M  V30 4969 C 457.391 2.25289 3.63908 0
M  V30 4970 C 456.717 1.90527 4.99603 0
M  V30 4971 C 458.017 3.67446 3.71188 0
M  V30 4972 H 459.711 2.29482 1.92297 0
M  V30 4973 H 457.257 1.10465 0.923773 0
M  V30 4974 H 459.21 1.12536 4.06096 0
M  V30 4975 H 457.934 0.174102 3.26136 0
M  V30 4976 H 456.593 2.27174 2.87728 0
M  V30 4977 H 456.241 0.91206 4.94662 0
M  V30 4978 H 455.941 2.64193 5.24858 0
M  V30 4979 H 457.465 1.89367 5.80493 0
M  V30 4980 H 458.879 3.67719 4.39836 0
M  V30 4981 H 457.276 4.40123 4.07936 0
M  V30 4982 H 458.346 4.01443 2.71977 0
M  V30 4983 N 459.689 -1.00246 1.21608 0
M  V30 4984 C 460.621 -2.09244 0.935401 0
M  V30 4985 C 461.634 -1.62592 -0.0823594 0
M  V30 4986 O 462.823 -1.77865 0.150456 0
M  V30 4987 C 459.923 -3.36724 0.383453 0
M  V30 4988 C 459.096 -4.1245 1.45615 0
M  V30 4989 C 458.155 -5.18219 0.912991 0
M  V30 4990 O 457.181 -5.46337 1.59701 0
M  V30 4991 N 458.383 -5.7987 -0.270478 0
M  V30 4992 H 461.148 -2.33905 1.87373 0
M  V30 4993 H 458.709 -1.16748 1.12167 0
M  V30 4994 H 460.701 -4.047 0.00562157 0
M  V30 4995 H 459.271 -3.09201 -0.459758 0
M  V30 4996 H 458.491 -3.39241 2.00772 0
M  V30 4997 H 459.779 -4.59819 2.17817 0
M  V30 4998 H 459.177 -5.59381 -0.843195 0
M  V30 4999 H 457.734 -6.49126 -0.589794 0
M  V30 5000 N 461.167 -1.02423 -1.1978 0
M  V30 5001 C 462.13 -0.605703 -2.21052 0
M  V30 5002 C 463.13 0.328209 -1.57415 0
M  V30 5003 O 464.32 0.115853 -1.73814 0
M  V30 5004 C 461.452 0.114366 -3.40708 0
M  V30 5005 H 462.645 -1.5017 -2.59594 0
M  V30 5006 H 460.198 -0.814888 -1.33376 0
M  V30 5007 H 460.933 1.02492 -3.07678 0
M  V30 5008 H 460.718 -0.556641 -3.88129 0
M  V30 5009 H 462.208 0.394272 -4.15735 0
M  V30 5010 N 462.645 1.35699 -0.801477 0
M  V30 5011 C 463.575 2.32436 -0.222658 0
M  V30 5012 C 464.556 1.5723 0.649057 0
M  V30 5013 O 465.741 1.85324 0.580387 0
M  V30 5014 C 462.871 3.41469 0.633719 0
M  V30 5015 C 461.825 4.27774 -0.139083 0
M  V30 5016 C 461.151 5.28082 0.838666 0
M  V30 5017 C 462.451 5.04946 -1.33517 0
M  V30 5018 H 464.145 2.81094 -1.03086 0
M  V30 5019 H 461.691 1.35146 -0.497155 0
M  V30 5020 H 463.644 4.08143 1.04868 0
M  V30 5021 H 462.368 2.91408 1.47475 0
M  V30 5022 H 461.027 3.62673 -0.535156 0
M  V30 5023 H 460.675 4.7429 1.67506 0
M  V30 5024 H 460.375 5.86695 0.32594 0
M  V30 5025 H 461.899 5.97628 1.25194 0
M  V30 5026 H 463.313 5.64593 -0.995349 0
M  V30 5027 H 461.71 5.7303 -1.78202 0
M  V30 5028 H 462.78 4.35886 -2.12442 0
M  V30 5029 N 464.123 0.554532 1.47522 0
M  V30 5030 C 465.348 0.0322661 2.07375 0
M  V30 5031 C 465.773 -1.25079 1.40488 0
M  V30 5032 O 465.131 -1.74859 0.47896 0
M  V30 5033 C 465.179 -0.149397 3.6029 0
M  V30 5034 O 464.283 -1.21259 3.9417 0
M  V30 5035 H 463.624 0.0501228 0.662106 0
M  V30 5036 H 466.154 0.769452 1.8958 0
M  V30 5037 H 466.164 -0.364437 4.06369 0
M  V30 5038 H 464.839 0.787743 4.08372 0
M  V30 5039 H 463.416 -0.97825 3.5984 0
M  V30 5040 N 465.601 -1.54893 0.290851 0
M  V30 5041 C 467.012 -1.85584 -0.203816 0
M  V30 5042 C 467.363 -1.21285 -1.54222 0
M  V30 5043 O 466.488 -0.506841 -2.10381 0
M  V30 5044 C 467.083 -3.367 -0.376595 0
M  V30 5045 C 465.642 -3.6746 -0.815485 0
M  V30 5046 C 464.789 -2.77178 0.0821087 0
M  V30 5047 H 467.74 -1.50208 0.512175 0
M  V30 5048 H 467.761 -3.60656 -1.21275 0
M  V30 5049 H 467.273 -3.8347 0.59767 0
M  V30 5050 H 465.374 -3.26201 -1.80066 0
M  V30 5051 H 465.487 -4.7478 -0.641905 0
M  V30 5052 H 463.851 -2.50925 -0.436895 0
M  V30 5053 H 464.634 -3.26767 1.05254 0
M  V30 5054 N 467.08 -0.0183926 -1.57589 0
M  V30 5055 C 468.027 0.967022 -2.09565 0
M  V30 5056 C 468.997 1.32983 -0.995225 0
M  V30 5057 O 470.182 1.42501 -1.26878 0
M  V30 5058 C 467.322 2.24772 -2.61861 0
M  V30 5059 C 466.435 1.94232 -3.85873 0
M  V30 5060 C 465.57 3.16518 -4.26603 0
M  V30 5061 C 464.609 2.81748 -5.43401 0
M  V30 5062 N 463.746 3.96626 -5.79338 0
M  V30 5063 H 468.586 0.516874 -2.93483 0
M  V30 5064 H 466.123 0.243544 -1.4507 0
M  V30 5065 H 468.081 2.99667 -2.90268 0
M  V30 5066 H 466.711 2.67423 -1.8079 0
M  V30 5067 H 465.763 1.09625 -3.64262 0
M  V30 5068 H 467.075 1.64616 -4.70853 0
M  V30 5069 H 466.229 3.99743 -4.56389 0
M  V30 5070 H 464.968 3.49286 -3.40368 0
M  V30 5071 H 463.973 1.96933 -5.1332 0
M  V30 5072 H 465.198 2.50207 -6.31327 0
M  V30 5073 H 463.144 4.29257 -4.96059 0
M  V30 5074 H 463.061 3.70598 -6.58933 0
M  V30 5075 H 464.329 4.80586 -6.13724 0
M  V30 5076 N 468.558 1.5553 0.254621 0
M  V30 5077 C 469.49 1.86104 1.33783 0
M  V30 5078 C 470.503 0.746752 1.44663 0
M  V30 5079 O 471.692 1.0248 1.46151 0
M  V30 5080 C 468.792 2.02532 2.71724 0
M  V30 5081 C 467.965 3.33335 2.83208 0
M  V30 5082 C 467.024 3.396 4.01943 0
M  V30 5083 O 466.05 4.12862 3.91834 0
M  V30 5084 N 467.252 2.68332 5.1476 0
M  V30 5085 H 470.017 2.79605 1.07893 0
M  V30 5086 H 467.578 1.55672 0.444732 0
M  V30 5087 H 469.57 2.04074 3.4948 0
M  V30 5088 H 468.14 1.15811 2.90356 0
M  V30 5089 H 467.36 3.44176 1.92189 0
M  V30 5090 H 468.648 4.19565 2.87824 0
M  V30 5091 H 468.046 2.08528 5.25864 0
M  V30 5092 H 466.603 2.75575 5.90679 0
M  V30 5093 N 470.036 -0.519951 1.48776 0
M  V30 5094 C 471.261 -1.30447 1.6124 0
M  V30 5095 C 471.686 -1.86055 0.276591 0
M  V30 5096 O 471.044 -1.64915 -0.753183 0
M  V30 5097 C 471.092 -2.42406 2.66967 0
M  V30 5098 O 470.196 -3.45728 2.24824 0
M  V30 5099 H 469.537 -0.385924 0.540332 0
M  V30 5100 H 472.067 -0.624572 1.94834 0
M  V30 5101 H 472.077 -2.88447 2.88552 0
M  V30 5102 H 470.752 -2.01294 3.63941 0
M  V30 5103 H 469.329 -3.05737 2.13494 0
M  V30 5104 N 471.514 -1.37532 -0.769588 0
M  V30 5105 C 472.925 -1.29382 -1.346 0
M  V30 5106 C 473.276 0.0576039 -1.96115 0
M  V30 5107 O 472.401 0.95947 -1.93967 0
M  V30 5108 C 472.996 -2.34298 -2.44724 0
M  V30 5109 C 471.555 -2.29776 -2.98128 0
M  V30 5110 C 470.702 -2.18013 -1.71364 0
M  V30 5111 H 473.653 -1.48123 -0.56968 0
M  V30 5112 H 473.674 -1.99089 -3.24259 0
M  V30 5113 H 473.186 -3.32645 -1.99922 0
M  V30 5114 H 471.287 -1.34959 -3.47299 0
M  V30 5115 H 471.4 -3.23276 -3.53595 0
M  V30 5116 H 469.764 -1.64595 -1.94372 0
M  V30 5117 H 470.547 -3.18278 -1.28662 0
M  V30 5118 N 472.992 0.995999 -1.22138 0
M  V30 5119 C 474.238 1.73767 -1.04561 0
M  V30 5120 C 474.571 1.89633 0.418698 0
M  V30 5121 O 473.846 1.43723 1.3105 0
M  V30 5122 C 474.129 3.14505 -1.75382 0
M  V30 5123 C 473.982 3.06306 -3.29388 0
M  V30 5124 C 475.301 4.13615 -1.50369 0
M  V30 5125 H 472.42 0.630728 -0.38125 0
M  V30 5126 H 475.062 1.16057 -1.50435 0
M  V30 5127 H 473.212 3.63775 -1.36383 0
M  V30 5128 H 474.884 2.64681 -3.77812 0
M  V30 5129 H 473.127 2.43186 -3.59226 0
M  V30 5130 H 473.798 4.05884 -3.74116 0
M  V30 5131 H 476.274 3.73089 -1.84239 0
M  V30 5132 H 475.15 5.10212 -2.02421 0
M  V30 5133 H 475.411 4.39949 -0.435611 0
M  V30 5134 N 474.47 1.03057 1.19235 0
M  V30 5135 C 475.695 0.74757 1.93458 0
M  V30 5136 C 476.12 -0.687648 1.7508 0
M  V30 5137 O 475.478 -1.47499 1.05422 0
M  V30 5138 C 475.526 1.10604 3.43219 0
M  V30 5139 O 474.63 0.225671 4.11782 0
M  V30 5140 H 473.971 0.276047 0.603899 0
M  V30 5141 H 476.501 1.3777 1.51263 0
M  V30 5142 H 476.511 1.06366 3.93891 0
M  V30 5143 H 475.186 2.15165 3.55917 0
M  V30 5144 H 473.763 0.326795 3.71465 0
M  V30 5145 N 475.948 -1.35272 0.808662 0
M  V30 5146 C 477.173 -2.03477 0.401475 0
M  V30 5147 C 477.598 -1.60537 -0.980279 0
M  V30 5148 O 476.956 -0.78304 -1.63518 0
M  V30 5149 C 477.004 -3.57181 0.495354 0
M  V30 5150 O 476.108 -4.09474 -0.490397 0
M  V30 5151 H 475.449 -0.642561 0.167366 0
M  V30 5152 H 477.979 -1.72824 1.09512 0
M  V30 5153 H 477.989 -4.06356 0.365912 0
M  V30 5154 H 476.664 -3.87784 1.5032 0
M  V30 5155 H 475.241 -3.71516 -0.321023 0
M  V30 5156 N 477.426 -0.562348 -1.47226 0
M  V30 5157 C 478.837 -0.130325 -1.86245 0
M  V30 5158 C 479.188 1.30128 -1.46838 0
M  V30 5159 O 478.313 1.97974 -0.873805 0
M  V30 5160 C 478.908 -0.229738 -3.3802 0
M  V30 5161 C 477.467 0.14728 -3.76112 0
M  V30 5162 C 476.614 -0.574971 -2.71274 0
M  V30 5163 H 479.565 -0.771773 -1.3867 0
M  V30 5164 H 479.586 0.550316 -3.76499 0
M  V30 5165 H 479.098 -1.27178 -3.66671 0
M  V30 5166 H 477.199 1.19023 -3.53078 0
M  V30 5167 H 477.312 -0.214858 -4.78618 0
M  V30 5168 H 475.676 -0.0174756 -2.54694 0
M  V30 5169 H 476.459 -1.61827 -3.02766 0
M  V30 5170 N 478.904 1.54736 -0.299062 0
M  V30 5171 C 480.132 2.04512 0.313447 0
M  V30 5172 C 480.547 1.17643 1.47667 0
M  V30 5173 O 479.904 0.20164 1.81383 0
M  V30 5174 C 479.955 3.53171 0.771542 0
M  V30 5175 O 479.676 4.36736 -0.345379 0
M  V30 5176 C 481.177 4.18936 1.4494 0
M  V30 5177 H 478.397 0.667507 0.0683784 0
M  V30 5178 H 480.941 1.99752 -0.438129 0
M  V30 5179 H 479.096 3.58298 1.47314 0
M  V30 5180 H 479.51 5.24499 0.0109219 0
M  V30 5181 H 480.984 5.24482 1.72111 0
M  V30 5182 H 481.461 3.68554 2.38883 0
M  V30 5183 H 482.067 4.17879 0.791028 0
M  V30 5184 N 480.382 0.0267497 1.57577 0
M  V30 5185 C 481.798 -0.32962 1.56159 0
M  V30 5186 C 481.998 -1.73059 1.03213 0
M  V30 5187 O 481.054 -2.43233 0.677804 0
M  V30 5188 C 482.367 -0.18039 3.00158 0
M  V30 5189 C 483.915 -0.253334 3.11973 0
M  V30 5190 C 484.39 -0.132921 4.57807 0
M  V30 5191 N 485.881 -0.189979 4.6281 0
M  V30 5192 C 486.616 -0.120554 5.73273 0
M  V30 5193 N 486.112 -0.000180315 6.928 0
M  V30 5194 N 487.905 -0.174369 5.61829 0
M  V30 5195 H 480.056 0.942896 1.90324 0
M  V30 5196 H 482.319 0.3639 0.875375 0
M  V30 5197 H 482.025 0.784576 3.42837 0
M  V30 5198 H 481.899 -0.951565 3.65 0
M  V30 5199 H 484.286 -1.20876 2.69208 0
M  V30 5200 H 484.367 0.548177 2.49857 0
M  V30 5201 H 484.011 0.819073 5.01252 0
M  V30 5202 H 483.941 -0.953264 5.179 0
M  V30 5203 H 486.432 -0.283257 3.76837 0
M  V30 5204 H 486.745 0.0461666 7.72786 0
M  V30 5205 H 485.09 0.034569 6.94991 0
M  V30 5206 H 488.281 -0.266794 4.67339 0
M  V30 5207 H 488.454 -0.116802 6.47895 0
M  V30 5208 N 481.861 -1.55662 -0.24637 0
M  V30 5209 C 483.086 -1.81914 -0.996093 0
M  V30 5210 C 483.511 -0.603875 -1.78143 0
M  V30 5211 O 482.869 0.447091 -1.75701 0
M  V30 5212 C 482.917 -3.05908 -1.90925 0
M  V30 5213 O 482.021 -2.82861 -3.00105 0
M  V30 5214 H 481.362 -0.600481 -0.283406 0
M  V30 5215 H 483.892 -2.02848 -0.267199 0
M  V30 5216 H 483.902 -3.35356 -2.3238 0
M  V30 5217 H 482.577 -3.93999 -1.33183 0
M  V30 5218 H 481.154 -2.64583 -2.62775 0
M  V30 5219 N 483.339 0.512053 -1.4905 0
M  V30 5220 C 484.755 0.84224 -1.35567 0
M  V30 5221 C 484.955 1.97878 -0.380319 0
M  V30 5222 O 484.011 2.51769 0.19201 0
M  V30 5223 C 485.324 1.19286 -2.76028 0
M  V30 5224 C 486.872 1.30171 -2.84648 0
M  V30 5225 C 487.347 1.68568 -4.25851 0
M  V30 5226 N 488.838 1.75638 -4.28609 0
M  V30 5227 C 489.573 2.06769 -5.34821 0
M  V30 5228 N 489.069 2.36201 -6.51292 0
M  V30 5229 N 490.862 2.07927 -5.22229 0
M  V30 5230 H 483.013 -0.237574 -2.11067 0
M  V30 5231 H 485.276 -0.0436747 -0.946993 0
M  V30 5232 H 484.982 0.431199 -3.49047 0
M  V30 5233 H 484.856 2.13889 -3.10695 0
M  V30 5234 H 487.243 2.05411 -2.11873 0
M  V30 5235 H 487.324 0.336457 -2.53578 0
M  V30 5236 H 486.968 0.938824 -4.99148 0
M  V30 5237 H 486.898 2.66174 -4.54377 0
M  V30 5238 H 489.389 1.55097 -3.44606 0
M  V30 5239 H 489.702 2.59112 -7.28066 0
M  V30 5240 H 488.047 2.33681 -6.54536 0
M  V30 5241 H 491.238 1.84403 -4.30248 0
M  V30 5242 H 491.411 2.31856 -6.05101 0
M  V30 5243 N 484.817 1.37938 0.762283 0
M  V30 5244 C 486.042 1.37059 1.55659 0
M  V30 5245 C 486.467 -0.0396123 1.88058 0
M  V30 5246 O 485.825 -1.01929 1.49934 0
M  V30 5247 C 485.873 2.22494 2.83776 0
M  V30 5248 O 484.977 1.63607 3.78559 0
M  V30 5249 H 484.318 0.467892 0.47114 0
M  V30 5250 H 486.848 1.81587 0.942725 0
M  V30 5251 H 486.858 2.36045 3.32786 0
M  V30 5252 H 485.533 3.24993 2.59524 0
M  V30 5253 H 484.11 1.5915 3.37233 0
M  V30 5254 N 486.295 -0.989507 1.22664 0
M  V30 5255 C 487.706 -1.54406 1.04955 0
M  V30 5256 C 488.057 -1.92366 -0.385951 0
M  V30 5257 O 487.182 -1.75111 -1.27142 0
M  V30 5258 C 487.777 -2.80578 1.89899 0
M  V30 5259 C 486.336 -3.32464 1.76478 0
M  V30 5260 C 485.483 -2.05524 1.86159 0
M  V30 5261 H 488.434 -0.810211 1.3646 0
M  V30 5262 H 488.455 -3.53075 1.4184 0
M  V30 5263 H 487.967 -2.52918 2.94371 0
M  V30 5264 H 486.068 -3.65024 0.747528 0
M  V30 5265 H 486.181 -4.02838 2.59342 0
M  V30 5266 H 484.545 -2.19241 1.29636 0
M  V30 5267 H 485.328 -1.80258 2.92168 0
M  V30 5268 N 487.773 -1.03688 -1.18687 0
M  V30 5269 C 488.998 -0.757819 -1.93059 0
M  V30 5270 C 489.423 0.678353 -1.75442 0
M  V30 5271 O 488.781 1.46938 -1.06203 0
M  V30 5272 C 488.829 -1.12423 -3.42627 0
M  V30 5273 O 487.933 -0.247505 -4.11657 0
M  V30 5274 H 487.274 -0.279245 -0.602427 0
M  V30 5275 H 489.804 -1.3857 -1.5053 0
M  V30 5276 H 489.814 -1.08454 -3.93322 0
M  V30 5277 H 488.489 -2.17049 -3.54771 0
M  V30 5278 H 487.066 -0.34649 -3.71287 0
M  V30 5279 N 489.251 1.34841 -0.815825 0
M  V30 5280 C 490.667 1.51543 -0.500697 0
M  V30 5281 C 490.867 1.76261 0.976444 0
M  V30 5282 O 489.923 1.8094 1.76117 0
M  V30 5283 C 491.236 2.68487 -1.35407 0
M  V30 5284 C 492.784 2.82368 -1.35046 0
M  V30 5285 C 493.259 4.02347 -2.18816 0
M  V30 5286 N 494.75 4.09542 -2.16402 0
M  V30 5287 C 495.485 5.01517 -2.77971 0
M  V30 5288 N 494.981 5.98763 -3.48503 0
M  V30 5289 N 496.774 4.94334 -2.67563 0
M  V30 5290 H 488.925 1.17055 -1.77234 0
M  V30 5291 H 491.188 0.573481 -0.754866 0
M  V30 5292 H 490.894 2.56829 -2.40274 0
M  V30 5293 H 490.768 3.63321 -1.01377 0
M  V30 5294 H 493.155 2.93471 -0.309604 0
M  V30 5295 H 493.236 1.88363 -1.73069 0
M  V30 5296 H 492.88 3.92004 -3.22948 0
M  V30 5297 H 492.81 4.95551 -1.78148 0
M  V30 5298 H 495.301 3.39932 -1.65091 0
M  V30 5299 H 495.614 6.6556 -3.92747 0
M  V30 5300 H 493.959 5.98909 -3.52609 0
M  V30 5301 H 497.15 4.1732 -2.12041 0
M  V30 5302 H 497.323 5.6582 -3.15834 0
M  V30 5303 N 490.729 0.570148 1.46925 0
M  V30 5304 C 491.954 0.0542592 2.07329 0
M  V30 5305 C 492.379 -1.23582 1.41806 0
M  V30 5306 O 491.737 -1.74341 0.497479 0
M  V30 5307 C 491.785 -0.111175 3.60429 0
M  V30 5308 O 490.889 -1.17071 3.95434 0
M  V30 5309 H 490.23 0.0571425 0.661537 0
M  V30 5310 H 492.76 0.789516 1.88753 0
M  V30 5311 H 492.77 -0.321315 4.06733 0
M  V30 5312 H 491.445 0.831012 4.07513 0
M  V30 5313 H 490.022 -0.940029 3.60857 0
M  V30 5314 N 492.207 -1.54576 0.307264 0
M  V30 5315 C 493.618 -1.8579 -0.184121 0
M  V30 5316 C 493.969 -1.22914 -1.52927 0
M  V30 5317 O 493.094 -0.529126 -2.09831 0
M  V30 5318 C 493.689 -3.37081 -0.340862 0
M  V30 5319 C 492.248 -3.68304 -0.776465 0
M  V30 5320 C 491.395 -2.77076 0.111503 0
M  V30 5321 H 494.346 -1.49656 0.528078 0
M  V30 5322 H 494.367 -3.61922 -1.17443 0
M  V30 5323 H 493.879 -3.82815 0.638309 0
M  V30 5324 H 491.98 -3.28092 -1.76596 0
M  V30 5325 H 492.093 -4.75434 -0.591512 0
M  V30 5326 H 490.457 -2.51374 -0.410256 0
M  V30 5327 H 491.24 -3.25632 1.08714 0
M  V30 5328 N 493.685 -0.035106 -1.57561 0
M  V30 5329 C 494.91 0.655802 -1.96759 0
M  V30 5330 C 495.335 1.64523 -0.911809 0
M  V30 5331 O 494.693 1.80857 0.126673 0
M  V30 5332 C 494.741 1.33326 -3.35047 0
M  V30 5333 O 493.845 2.44866 -3.31835 0
M  V30 5334 H 493.186 0.171807 -0.641388 0
M  V30 5335 H 495.716 -0.0987369 -2.04362 0
M  V30 5336 H 495.726 1.68867 -3.71413 0
M  V30 5337 H 494.401 0.608033 -4.11431 0
M  V30 5338 H 492.978 2.11392 -3.07193 0
M  V30 5339 N 495.163 1.55791 0.238111 0
M  V30 5340 C 496.574 1.68383 0.806472 0
M  V30 5341 C 496.925 0.634157 1.85669 0
M  V30 5342 O 496.05 -0.217913 2.153 0
M  V30 5343 C 496.645 3.05268 1.46959 0
M  V30 5344 C 495.204 3.1977 1.98555 0
M  V30 5345 C 494.351 2.64279 0.839763 0
M  V30 5346 H 497.302 1.58694 0.0137535 0
M  V30 5347 H 497.323 3.00203 2.33792 0
M  V30 5348 H 496.835 3.81643 0.704993 0
M  V30 5349 H 494.936 2.48234 2.77868 0
M  V30 5350 H 495.049 4.26788 2.17689 0
M  V30 5351 H 493.413 2.22329 1.24265 0
M  V30 5352 H 494.196 3.43187 0.0881032 0
M  V30 5353 N 496.642 -0.504142 1.49319 0
M  V30 5354 C 497.87 -1.28256 1.62351 0
M  V30 5355 C 498.285 -1.86502 0.293682 0
M  V30 5356 O 497.642 -1.67678 -0.720449 0
M  V30 5357 C 497.693 -2.41507 2.68992 0
M  V30 5358 O 497.414 -1.85656 3.96817 0
M  V30 5359 C 498.915 -3.32929 2.927 0
M  V30 5360 H 496.135 -0.389115 0.546654 0
M  V30 5361 H 498.679 -0.605531 1.95329 0
M  V30 5362 H 496.834 -3.05046 2.38801 0
M  V30 5363 H 497.248 -2.59981 4.55533 0
M  V30 5364 H 498.722 -4.0868 3.71058 0
M  V30 5365 H 499.199 -3.89733 2.02496 0
M  V30 5366 H 499.805 -2.75158 3.24296 0
M  V30 5367 N 498.12 -1.38341 -0.754957 0
M  V30 5368 C 499.367 -1.34473 -1.51404 0
M  V30 5369 C 499.695 0.0656458 -1.94389 0
M  V30 5370 O 498.95 1.04244 -1.65625 0
M  V30 5371 C 499.249 -2.2452 -2.78075 0
M  V30 5372 C 498.915 -3.72512 -2.54059 0
M  V30 5373 C 497.577 -4.1284 -2.47218 0
M  V30 5374 C 499.929 -4.66197 -2.33044 0
M  V30 5375 C 497.257 -5.44945 -2.17376 0
M  V30 5376 C 499.609 -5.98558 -2.04723 0
M  V30 5377 C 498.273 -6.37972 -1.96337 0
M  V30 5378 H 497.543 -0.492072 -0.554027 0
M  V30 5379 H 500.19 -1.70687 -0.868223 0
M  V30 5380 H 498.495 -1.81357 -3.473 0
M  V30 5381 H 500.192 -2.18832 -3.36026 0
M  V30 5382 H 496.782 -3.40538 -2.60253 0
M  V30 5383 H 500.966 -4.35888 -2.37309 0
M  V30 5384 H 496.222 -5.74426 -2.09391 0
M  V30 5385 H 500.396 -6.70693 -1.87465 0
M  V30 5386 H 498.023 -7.40258 -1.72978 0
M  V30 5387 N 499.598 0.982988 -1.23187 0
M  V30 5388 C 500.823 1.76455 -1.08988 0
M  V30 5389 C 501.248 1.84726 0.354691 0
M  V30 5390 O 500.606 1.30699 1.25649 0
M  V30 5391 C 500.654 3.17094 -1.71708 0
M  V30 5392 O 499.758 4.00648 -0.977477 0
M  V30 5393 H 499.099 0.542988 -0.382177 0
M  V30 5394 H 501.629 1.23413 -1.63188 0
M  V30 5395 H 501.639 3.67684 -1.76841 0
M  V30 5396 H 500.314 3.10389 -2.76823 0
M  V30 5397 H 498.891 3.59161 -1.0029 0
M  V30 5398 N 501.076 1.04316 1.18135 0
M  V30 5399 C 502.322 0.758899 1.88712 0
M  V30 5400 C 502.677 -0.705863 1.78984 0
M  V30 5401 O 501.97 -1.50874 1.18101 0
M  V30 5402 C 502.164 1.16271 3.37958 0
M  V30 5403 C 501.993 2.66518 3.62213 0
M  V30 5404 C 500.763 3.33702 3.79436 0
M  V30 5405 C 502.961 3.64739 3.62588 0
M  V30 5406 N 500.943 4.72904 3.91452 0
M  V30 5407 C 502.314 4.89627 3.80348 0
M  V30 5408 C 504.369 3.58333 3.4569 0
M  V30 5409 C 503.072 6.08879 3.8296 0
M  V30 5410 C 505.098 4.77016 3.49586 0
M  V30 5411 C 504.46 6.00724 3.67845 0
M  V30 5412 H 500.559 0.329795 0.709055 0
M  V30 5413 H 503.143 1.33334 1.4188 0
M  V30 5414 H 501.314 0.616319 3.83479 0
M  V30 5415 H 503.046 0.829205 3.96114 0
M  V30 5416 H 499.801 2.84105 3.78921 0
M  V30 5417 H 500.225 5.45258 4.01277 0
M  V30 5418 H 504.867 2.63663 3.30517 0
M  V30 5419 H 502.585 7.03903 3.96921 0
M  V30 5420 H 506.171 4.73703 3.37782 0
M  V30 5421 H 505.051 6.91022 3.70753 0
M  V30 5422 N 502.554 -1.34406 0.822964 0
M  V30 5423 C 503.484 -2.32052 0.259608 0
M  V30 5424 C 504.465 -1.58243 -0.623961 0
M  V30 5425 O 505.65 -1.86224 -0.55083 0
M  V30 5426 C 502.78 -3.42434 -0.579314 0
M  V30 5427 C 501.734 -4.27499 0.20712 0
M  V30 5428 C 501.06 -5.29349 -0.754547 0
M  V30 5429 C 502.36 -5.02758 1.41533 0
M  V30 5430 H 504.054 -2.79418 1.07545 0
M  V30 5431 H 501.6 -1.34338 0.518593 0
M  V30 5432 H 503.553 -4.0976 -0.983612 0
M  V30 5433 H 502.277 -2.93717 -1.4282 0
M  V30 5434 H 500.936 -3.61776 0.592787 0
M  V30 5435 H 500.584 -4.76895 -1.59939 0
M  V30 5436 H 500.284 -5.8714 -0.232561 0
M  V30 5437 H 501.808 -5.99544 -1.1567 0
M  V30 5438 H 503.222 -5.62938 1.08504 0
M  V30 5439 H 501.619 -5.70123 1.87296 0
M  V30 5440 H 502.689 -4.32451 2.1935 0
M  V30 5441 N 504.032 -0.577932 -1.46621 0
M  V30 5442 C 505.443 -0.150071 -1.86096 0
M  V30 5443 C 505.794 1.28563 -1.48209 0
M  V30 5444 O 504.919 1.97036 -0.894754 0
M  V30 5445 C 505.514 -0.265576 -3.37758 0
M  V30 5446 C 504.073 0.10738 -3.76247 0
M  V30 5447 C 503.22 -0.603711 -2.70649 0
M  V30 5448 H 506.171 -0.786438 -1.37844 0
M  V30 5449 H 506.192 0.510352 -3.77062 0
M  V30 5450 H 505.704 -1.3106 -3.65301 0
M  V30 5451 H 503.805 1.15272 -3.54321 0
M  V30 5452 H 503.918 -0.26561 -4.78363 0
M  V30 5453 H 502.282 -0.0444884 -2.54661 0
M  V30 5454 H 503.065 -1.65029 -3.01032 0
M  V30 5455 N 505.51 1.54411 -0.315457 0
M  V30 5456 C 506.44 2.27002 0.547039 0
M  V30 5457 C 507.421 1.27492 1.12605 0
M  V30 5458 O 508.606 1.5629 1.15269 0
M  V30 5459 C 505.736 3.02171 1.71201 0
M  V30 5460 C 504.69 4.0895 1.26268 0
M  V30 5461 C 504.016 4.71915 2.51396 0
M  V30 5462 C 505.316 5.20891 0.383419 0
M  V30 5463 H 507.01 2.99343 -0.0584517 0
M  V30 5464 H 504.556 1.4397 -0.0295527 0
M  V30 5465 H 506.509 3.51681 2.32161 0
M  V30 5466 H 505.233 2.27433 2.34397 0
M  V30 5467 H 503.892 3.60312 0.676062 0
M  V30 5468 H 503.54 3.93801 3.12937 0
M  V30 5469 H 503.24 5.44039 2.22026 0
M  V30 5470 H 504.764 5.24195 3.13133 0
M  V30 5471 H 506.178 5.66206 0.899082 0
M  V30 5472 H 504.575 5.99821 0.182857 0
M  V30 5473 H 505.645 4.81324 -0.587821 0
M  V30 5474 N 506.988 0.0434614 1.5754 0
M  V30 5475 C 507.935 -0.93356 2.11077 0
M  V30 5476 C 508.905 -1.31383 1.01626 0
M  V30 5477 O 510.09 -1.40465 1.29129 0
M  V30 5478 C 507.23 -2.20578 2.65404 0
M  V30 5479 C 506.343 -1.88068 3.88914 0
M  V30 5480 C 505.478 -3.09691 4.31584 0
M  V30 5481 C 504.517 -2.73067 5.47815 0
M  V30 5482 N 503.654 -3.87359 5.85574 0
M  V30 5483 H 508.494 -0.470118 2.94268 0
M  V30 5484 H 506.031 -0.220434 1.45439 0
M  V30 5485 H 507.989 -2.95011 2.94999 0
M  V30 5486 H 506.619 -2.64513 1.85021 0
M  V30 5487 H 505.671 -1.03816 3.6596 0
M  V30 5488 H 506.983 -1.57104 4.73413 0
M  V30 5489 H 506.137 -3.92431 4.62691 0
M  V30 5490 H 504.876 -3.43827 3.45882 0
M  V30 5491 H 503.881 -1.88742 5.16388 0
M  V30 5492 H 505.106 -2.40131 6.35227 0
M  V30 5493 H 503.052 -4.21311 5.02825 0
M  V30 5494 H 502.969 -3.60068 6.64746 0
M  V30 5495 H 504.237 -4.70761 6.21292 0
M  V30 5496 N 508.466 -1.55915 -0.229846 0
M  V30 5497 C 509.694 -1.82617 -0.972562 0
M  V30 5498 C 510.109 -0.621488 -1.78278 0
M  V30 5499 O 509.466 0.409956 -1.77836 0
M  V30 5500 C 509.517 -3.0774 -1.89679 0
M  V30 5501 O 509.238 -4.23559 -1.11934 0
M  V30 5502 C 510.739 -3.47368 -2.75409 0
M  V30 5503 H 507.959 -0.60727 -0.285419 0
M  V30 5504 H 510.503 -2.02996 -0.247579 0
M  V30 5505 H 508.658 -2.89361 -2.57583 0
M  V30 5506 H 509.072 -4.94586 -1.74599 0
M  V30 5507 H 510.546 -4.37977 -3.35977 0
M  V30 5508 H 511.023 -2.68737 -3.47386 0
M  V30 5509 H 511.629 -3.68158 -2.12931 0
M  V30 5510 N 509.944 0.496216 -1.49584 0
M  V30 5511 C 511.169 1.27865 -1.63295 0
M  V30 5512 C 511.594 1.85592 -0.306156 0
M  V30 5513 O 510.952 1.66092 0.726851 0
M  V30 5514 C 511 2.38128 -2.7079 0
M  V30 5515 O 510.104 3.42108 -2.30296 0
M  V30 5516 H 509.445 0.377279 -0.546403 0
M  V30 5517 H 511.975 0.593497 -1.95803 0
M  V30 5518 H 511.985 2.8382 -2.93104 0
M  V30 5519 H 510.66 1.95479 -3.67098 0
M  V30 5520 H 509.237 3.02301 -2.18331 0
M  V30 5521 N 511.423 1.38739 0.74761 0
M  V30 5522 C 512.834 1.31507 1.32524 0
M  V30 5523 C 513.185 -0.0263963 1.96182 0
M  V30 5524 O 512.31 -0.92849 1.95469 0
M  V30 5525 C 512.905 2.38162 2.40966 0
M  V30 5526 C 511.464 2.34489 2.94434 0
M  V30 5527 C 510.611 2.20712 1.67873 0
M  V30 5528 H 513.562 1.4901 0.546043 0
M  V30 5529 H 513.583 2.04222 3.21051 0
M  V30 5530 H 513.095 3.35783 1.94605 0
M  V30 5531 H 511.196 1.40467 3.45108 0
M  V30 5532 H 511.309 3.28861 3.48407 0
M  V30 5533 H 509.673 1.67667 1.91729 0
M  V30 5534 H 510.456 3.20285 1.23582 0
M  V30 5535 N 512.901 -0.976442 1.23707 0
M  V30 5536 C 514.312 -1.53284 1.06587 0
M  V30 5537 C 514.663 -1.92765 -0.365526 0
M  V30 5538 O 513.788 -1.7645 -1.25277 0
M  V30 5539 C 514.383 -2.78548 1.92864 0
M  V30 5540 C 512.942 -3.30574 1.79994 0
M  V30 5541 C 512.089 -2.03538 1.88328 0
M  V30 5542 H 515.04 -0.795692 1.37311 0
M  V30 5543 H 515.061 -3.5155 1.45577 0
M  V30 5544 H 514.573 -2.49782 2.97037 0
M  V30 5545 H 512.674 -3.64211 0.786202 0
M  V30 5546 H 512.787 -4.00065 2.636 0
M  V30 5547 H 511.151 -2.17853 1.31954 0
M  V30 5548 H 511.934 -1.77149 2.94063 0
M  V30 5549 N 514.379 -1.04941 -1.1758 0
M  V30 5550 C 515.604 -0.778253 -1.92245 0
M  V30 5551 C 516.029 0.659707 -1.76152 0
M  V30 5552 O 515.387 1.45803 -1.07755 0
M  V30 5553 C 515.435 -1.16051 -3.41416 0
M  V30 5554 O 514.539 -0.291153 -4.11371 0
M  V30 5555 H 513.88 -0.285619 -0.599431 0
M  V30 5556 H 516.41 -1.40159 -1.49052 0
M  V30 5557 H 516.42 -1.12619 -3.92149 0
M  V30 5558 H 515.095 -2.208 -3.52449 0
M  V30 5559 H 513.672 -0.385851 -3.70898 0
M  V30 5560 N 515.857 1.33968 -0.830081 0
M  V30 5561 C 517.082 2.02813 -0.433796 0
M  V30 5562 C 517.507 1.62076 0.954614 0
M  V30 5563 O 516.865 0.808955 1.62252 0
M  V30 5564 C 516.913 3.56348 -0.552115 0
M  V30 5565 O 516.017 4.10202 0.425191 0
M  V30 5566 H 515.358 0.639817 -0.177567 0
M  V30 5567 H 517.888 1.7106 -1.12248 0
M  V30 5568 H 517.898 4.05722 -0.430513 0
M  V30 5569 H 516.573 3.85344 -1.56471 0
M  V30 5570 H 515.15 3.71979 0.261878 0
M  V30 5571 N 517.335 0.585699 1.46312 0
M  V30 5572 C 518.746 0.159938 1.86014 0
M  V30 5573 C 519.097 -1.27775 1.48889 0
M  V30 5574 O 518.222 -1.96559 0.90519 0
M  V30 5575 C 518.817 0.283485 3.37612 0
M  V30 5576 C 517.376 -0.0874256 3.76298 0
M  V30 5577 C 516.523 0.618055 2.70325 0
M  V30 5578 H 519.474 0.793737 1.37425 0
M  V30 5579 H 519.495 -0.490348 3.77327 0
M  V30 5580 H 519.007 1.32995 3.64601 0
M  V30 5581 H 517.108 -1.13391 3.54927 0
M  V30 5582 H 517.221 0.290975 4.78216 0
M  V30 5583 H 515.585 0.057993 2.54634 0
M  V30 5584 H 516.368 1.66623 3.00153 0
M  V30 5585 N 518.813 -1.54241 0.323641 0
M  V30 5586 C 519.76 -2.24339 -0.542277 0
M  V30 5587 C 520.73 -1.23421 -1.11159 0
M  V30 5588 O 521.915 -1.52104 -1.15192 0
M  V30 5589 C 519.055 -3.00479 -1.69725 0
M  V30 5590 C 518.168 -4.16214 -1.15716 0
M  V30 5591 C 517.303 -4.79884 -2.27783 0
M  V30 5592 C 516.342 -5.87722 -1.71023 0
M  V30 5593 N 515.479 -6.45254 -2.76752 0
M  V30 5594 H 520.319 -2.97935 0.0620613 0
M  V30 5595 H 517.856 -1.47039 0.0423993 0
M  V30 5596 H 519.814 -3.42869 -2.3769 0
M  V30 5597 H 518.444 -2.29217 -2.27288 0
M  V30 5598 H 517.496 -3.78605 -0.369063 0
M  V30 5599 H 518.808 -4.93838 -0.701832 0
M  V30 5600 H 517.962 -5.25243 -3.03651 0
M  V30 5601 H 516.701 -4.01641 -2.76652 0
M  V30 5602 H 515.706 -5.41765 -0.936518 0
M  V30 5603 H 516.931 -6.67863 -1.2303 0
M  V30 5604 H 514.877 -5.69884 -3.24912 0
M  V30 5605 H 514.794 -7.18292 -2.35782 0
M  V30 5606 H 516.062 -6.95269 -3.5245 0
M  V30 5607 N 520.291 -0.0518155 -1.57515 0
M  V30 5608 C 521.254 0.907547 -2.10467 0
M  V30 5609 C 522.254 1.23947 -1.02439 0
M  V30 5610 O 523.444 1.17604 -1.2851 0
M  V30 5611 C 520.576 2.21723 -2.58944 0
M  V30 5612 H 521.769 0.44851 -2.96527 0
M  V30 5613 H 519.322 0.196598 -1.55059 0
M  V30 5614 H 520.057 2.72206 -1.76279 0
M  V30 5615 H 519.842 1.98935 -3.37886 0
M  V30 5616 H 521.332 2.90441 -3.00056 0
M  V30 5617 N 521.769 1.56035 0.221574 0
M  V30 5618 C 522.732 1.91584 1.2581 0
M  V30 5619 C 523.732 0.794425 1.39805 0
M  V30 5620 O 524.922 1.06217 1.38071 0
M  V30 5621 C 522.054 2.16663 2.63192 0
M  V30 5622 H 523.247 2.8429 0.954935 0
M  V30 5623 H 520.8 1.49316 0.461988 0
M  V30 5624 H 521.535 1.26508 2.98607 0
M  V30 5625 H 521.32 2.98358 2.5441 0
M  V30 5626 H 522.81 2.45262 3.37988 0
M  V30 5627 N 523.247 -0.488276 1.49845 0
M  V30 5628 C 524.472 -1.26997 1.63971 0
M  V30 5629 C 524.897 -1.85427 0.315994 0
M  V30 5630 O 524.255 -1.66475 -0.718032 0
M  V30 5631 C 524.303 -2.36689 2.72049 0
M  V30 5632 O 523.407 -3.40882 2.32107 0
M  V30 5633 H 522.748 -0.374376 0.548396 0
M  V30 5634 H 525.278 -0.583104 1.96115 0
M  V30 5635 H 525.288 -2.82262 2.94605 0
M  V30 5636 H 523.963 -1.93529 3.68129 0
M  V30 5637 H 522.54 -3.01139 2.19931 0
M  V30 5638 N 524.725 -1.39134 -0.740242 0
M  V30 5639 C 525.688 -1.37217 -1.83587 0
M  V30 5640 C 526.688 -0.270221 -1.58513 0
M  V30 5641 O 527.878 -0.527843 -1.6601 0
M  V30 5642 C 525.01 -1.13959 -3.21288 0
M  V30 5643 H 526.203 -2.34705 -1.86691 0
M  V30 5644 H 523.756 -1.24622 -0.94335 0
M  V30 5645 H 524.491 -0.17131 -3.23847 0
M  V30 5646 H 524.276 -1.93754 -3.40884 0
M  V30 5647 H 525.766 -1.15346 -4.01354 0
M  V30 5648 N 526.204 0.969867 -1.24223 0
M  V30 5649 C 527.429 1.75289 -1.10853 0
M  V30 5650 C 527.854 1.85091 0.335079 0
M  V30 5651 O 527.212 1.32024 1.24255 0
M  V30 5652 C 527.26 3.15255 -1.75062 0
M  V30 5653 O 526.364 3.99589 -1.01992 0
M  V30 5654 H 525.705 0.538904 -0.387915 0
M  V30 5655 H 528.235 1.21675 -1.64488 0
M  V30 5656 H 528.245 3.65787 -1.80731 0
M  V30 5657 H 526.92 3.07436 -2.801 0
M  V30 5658 H 525.497 3.58077 -1.04094 0
M  V30 5659 N 527.682 1.05563 1.17022 0
M  V30 5660 C 528.931 0.763036 1.8671 0
M  V30 5661 C 529.244 -0.712857 1.82147 0
M  V30 5662 O 530.45 -1.11955 2.47343 0
M  V30 5663 C 528.906 1.31474 3.35026 0
M  V30 5664 C 528.514 2.82034 3.48081 0
M  V30 5665 C 530.258 1.09935 4.10018 0
M  V30 5666 C 528.165 3.30486 4.90442 0
M  V30 5667 H 527.095 0.281747 0.699382 0
M  V30 5668 H 529.746 1.2734 1.32124 0
M  V30 5669 H 528.128 0.732171 3.89173 0
M  V30 5670 H 529.302 3.46178 3.04133 0
M  V30 5671 H 527.617 3.02156 2.86515 0
M  V30 5672 H 530.214 1.43632 5.15048 0
M  V30 5673 H 530.557 0.0373072 4.16283 0
M  V30 5674 H 531.09 1.64732 3.62089 0
M  V30 5675 H 527.829 4.36137 4.89352 0
M  V30 5676 H 527.349 2.71086 5.35044 0
M  V30 5677 H 529.028 3.25382 5.59227 0
M  V30 5678 N 529.16 -1.33526 0.837174 0
M  V30 5679 C 530.385 -2.0258 0.444545 0
M  V30 5680 C 530.81 -1.6258 -0.946006 0
M  V30 5681 O 530.168 -0.817548 -1.6182 0
M  V30 5682 C 530.216 -3.5605 0.571006 0
M  V30 5683 O 529.32 -4.10422 -0.403431 0
M  V30 5684 H 528.661 -0.638866 0.180958 0
M  V30 5685 H 531.191 -1.70462 1.13154 0
M  V30 5686 H 531.201 -4.05488 0.452024 0
M  V30 5687 H 529.876 -3.84509 1.58512 0
M  V30 5688 H 528.453 -3.72113 -0.242147 0
M  V30 5689 N 530.638 -0.59345 -1.46 0
M  V30 5690 C 531.863 -0.0872365 -2.07216 0
M  V30 5691 C 532.288 1.2131 -1.43755 0
M  V30 5692 O 531.646 1.73528 -0.525152 0
M  V30 5693 C 531.694 0.0538197 -3.6056 0
M  V30 5694 O 530.798 1.10765 -3.97247 0
M  V30 5695 H 530.139 -0.0676598 -0.660544 0
M  V30 5696 H 532.669 -0.819445 -1.87473 0
M  V30 5697 H 532.679 0.256567 -4.07193 0
M  V30 5698 H 531.354 -0.895739 -4.0614 0
M  V30 5699 H 529.931 0.882501 -3.62307 0
M  V30 5700 N 532.116 1.54067 -0.331816 0
M  V30 5701 C 533.049 2.20886 0.573127 0
M  V30 5702 C 534.027 1.18876 1.10938 0
M  V30 5703 O 535.211 1.47649 1.17184 0
M  V30 5704 C 532.338 2.87706 1.78726 0
M  V30 5705 C 531.384 4.03505 1.38152 0
M  V30 5706 S 532.217 5.33919 0.41123 0
M  V30 5707 C 533.373 6.04236 1.63246 0
M  V30 5708 H 533.606 2.97299 0.00555737 0
M  V30 5709 H 531.139 1.53964 -0.115893 0
M  V30 5710 H 533.097 3.26825 2.48386 0
M  V30 5711 H 531.758 2.1108 2.32603 0
M  V30 5712 H 530.951 4.49152 2.28645 0
M  V30 5713 H 530.553 3.66102 0.764524 0
M  V30 5714 H 532.845 6.26917 2.56869 0
M  V30 5715 H 533.788 6.97546 1.218 0
M  V30 5716 H 534.196 5.34247 1.82318 0
M  V30 5717 N 533.594 0.0601682 1.57485 0
M  V30 5718 C 534.819 -0.624416 1.97777 0
M  V30 5719 C 535.244 -1.63051 0.937867 0
M  V30 5720 O 534.602 -1.81036 -0.0978845 0
M  V30 5721 C 534.65 -1.27979 3.37126 0
M  V30 5722 O 533.754 -2.39556 3.35688 0
M  V30 5723 H 533.095 -0.161581 0.64404 0
M  V30 5724 H 535.625 0.131237 2.04179 0
M  V30 5725 H 535.635 -1.62937 3.74053 0
M  V30 5726 H 534.31 -0.542501 4.12347 0
M  V30 5727 H 532.887 -2.06478 3.10517 0
M  V30 5728 N 535.072 -1.5615 -0.213296 0
M  V30 5729 C 535.982 -1.96265 -1.28519 0
M  V30 5730 C 536.998 -0.86765 -1.50824 0
M  V30 5731 O 538.174 -1.17191 -1.63793 0
M  V30 5732 C 535.239 -2.27836 -2.61327 0
M  V30 5733 C 534.3 -3.50949 -2.47252 0
M  V30 5734 C 533.533 -3.81004 -3.73727 0
M  V30 5735 O 533.756 -3.12612 -4.77106 0
M  V30 5736 O 532.69 -4.74477 -3.70344 0
M  V30 5737 H 536.516 -2.87631 -0.974795 0
M  V30 5738 H 534.101 -1.43467 -0.416832 0
M  V30 5739 H 535.983 -2.49299 -3.39747 0
M  V30 5740 H 534.658 -1.39643 -2.9203 0
M  V30 5741 H 533.565 -3.34754 -1.67004 0
M  V30 5742 H 534.898 -4.39551 -2.21486 0
M  V30 5743 N 536.55 0.480323 -1.50102 0
M  V30 5744 C 537.798 1.23063 -1.60312 0
M  V30 5745 C 538.119 1.92659 -0.301226 0
M  V30 5746 O 537.389 1.83691 0.680753 0
M  V30 5747 H 535.969 0.457231 -0.590719 0
M  V30 5748 H 538.631 0.554893 -1.86834 0
M  V30 5749 H 537.727 1.9835 -2.40964 0
M  V30 5750 N 538.028 1.39524 0.732853 0
M  V30 5751 C 539.305 1.27373 1.48444 0
M  V30 5752 C 539.685 -0.115725 2.10783 0
M  V30 5753 O 539.033 -1.12713 1.98766 0
M  V30 5754 C 539.243 2.39966 2.53412 0
M  V30 5755 C 540.591 2.79384 3.19733 0
M  V30 5756 O 541.615 2.39431 2.63725 0
M  V30 5757 O 540.474 3.48353 4.21085 0
M  V30 5758 H 537.568 0.499272 0.659285 0
M  V30 5759 H 540.114 1.51403 0.766496 0
M  V30 5760 H 538.886 3.32845 2.05742 0
M  V30 5761 H 538.509 2.17612 3.32762 0
M  V30 5762 N 539.506 -0.963266 1.24736 0
M  V30 5763 C 540.416 -2.09246 1.06082 0
M  V30 5764 C 541.432 -1.74 0.000363101 0
M  V30 5765 O 542.608 -2.0041 0.199479 0
M  V30 5766 C 539.673 -3.40115 0.672498 0
M  V30 5767 C 538.734 -3.89282 1.80993 0
M  V30 5768 C 537.967 -5.13905 1.44004 0
M  V30 5769 O 538.19 -5.69434 0.331835 0
M  V30 5770 O 537.124 -5.57566 2.26723 0
M  V30 5771 H 540.95 -2.27881 2.00759 0
M  V30 5772 H 538.535 -1.07649 1.03595 0
M  V30 5773 H 540.417 -4.18797 0.467668 0
M  V30 5774 H 539.092 -3.22771 -0.245102 0
M  V30 5775 H 537.999 -3.11642 2.06955 0
M  V30 5776 H 539.332 -4.1111 2.70646 0
M  V30 5777 N 540.985 -1.06182 -1.16461 0
M  V30 5778 C 542.262 -0.691364 -1.82974 0
M  V30 5779 C 542.642 0.827377 -1.9421 0
M  V30 5780 O 541.99 1.73723 -1.48434 0
M  V30 5781 C 542.2 -1.39199 -3.20038 0
M  V30 5782 C 543.548 -1.53647 -3.95825 0
M  V30 5783 O 544.572 -1.35181 -3.29552 0
M  V30 5784 O 543.431 -1.83932 -5.14618 0
M  V30 5785 H 540.525 -0.244605 -0.789998 0
M  V30 5786 H 543.071 -1.16203 -1.23673 0
M  V30 5787 H 541.843 -2.42766 -3.06888 0
M  V30 5788 H 541.466 -0.911335 -3.87015 0
M  V30 5789 N 542.463 1.3308 -0.844243 0
M  V30 5790 C 543.373 2.32876 -0.283922 0
M  V30 5791 C 544.389 1.63589 0.592846 0
M  V30 5792 O 545.565 1.95205 0.495693 0
M  V30 5793 C 542.63 3.42667 0.527283 0
M  V30 5794 C 541.691 4.27664 -0.374394 0
M  V30 5795 C 540.924 5.32212 0.39819 0
M  V30 5796 O 541.147 5.46635 1.62932 0
M  V30 5797 O 540.081 6.01458 -0.2306 0
M  V30 5798 H 543.907 2.82671 -1.11045 0
M  V30 5799 H 541.492 1.36518 -0.606903 0
M  V30 5800 H 543.374 4.09652 0.988078 0
M  V30 5801 H 542.049 2.95079 1.33078 0
M  V30 5802 H 540.956 3.63526 -0.883144 0
M  V30 5803 H 542.289 4.78749 -1.1428 0
M  V30 5804 N 543.941 0.601185 1.45683 0
M  V30 5805 C 544.888 -0.121396 2.30481 0
M  V30 5806 C 545.858 -0.866232 1.41724 0
M  V30 5807 O 547.043 -0.85324 1.70659 0
M  V30 5808 C 544.183 -1.11704 3.26521 0
M  V30 5809 C 543.296 -0.373741 4.3038 0
M  V30 5810 C 542.431 -1.35854 5.13534 0
M  V30 5811 C 541.47 -0.602689 6.09126 0
M  V30 5812 N 540.607 -1.53645 6.85082 0
M  V30 5813 H 545.447 0.607732 2.91737 0
M  V30 5814 H 542.984 0.311502 1.43764 0
M  V30 5815 H 544.942 -1.70735 3.80664 0
M  V30 5816 H 543.572 -1.81366 2.67032 0
M  V30 5817 H 542.624 0.331962 3.78949 0
M  V30 5818 H 543.936 0.2163 4.98331 0
M  V30 5819 H 543.09 -2.02111 5.72046 0
M  V30 5820 H 541.829 -1.98251 4.45587 0
M  V30 5821 H 540.834 0.0735482 5.49751 0
M  V30 5822 H 542.059 0.0161467 6.79098 0
M  V30 5823 H 540.005 -2.14819 6.1983 0
M  V30 5824 H 539.922 -0.999688 7.49361 0
M  V30 5825 H 541.19 -2.1888 7.48139 0
M  V30 5826 O 545.458 -1.54135 0.48216 0
M  V30 5827 H 546.149 -1.93658 -0.0403371 0
M  V30 END ATOM
M  V30 BEGIN BOND
M  V30 END BOND
M  V30 END CTAB
M  END
$$$$
